# Generated by pormake.
# Topology ecf, (8)-cn, num edge types: 1
# Building blocks:
#     Node 0, Type 0, BuildingBlock: LIZSOE_clean_sbu_0, # of connection points: 8
#     Node 1, Type 0, BuildingBlock: LIZSOE_clean_sbu_0, # of connection points: 8
#     Node 2, Type 0, BuildingBlock: LIZSOE_clean_sbu_0, # of connection points: 8
#     Node 3, Type 0, BuildingBlock: LIZSOE_clean_sbu_0, # of connection points: 8
#     Node 4, Type 0, BuildingBlock: LIZSOE_clean_sbu_0, # of connection points: 8
#     Node 5, Type 0, BuildingBlock: LIZSOE_clean_sbu_0, # of connection points: 8
#     Edge 6, Type (0, 0), BuildingBlock: MIFKUJ_clean_linker_0, # of connection points: 2
#     Edge 7, Type (0, 0), BuildingBlock: MIFKUJ_clean_linker_0, # of connection points: 2
#     Edge 8, Type (0, 0), BuildingBlock: MIFKUJ_clean_linker_0, # of connection points: 2
#     Edge 9, Type (0, 0), BuildingBlock: MIFKUJ_clean_linker_0, # of connection points: 2
#     Edge 10, Type (0, 0), BuildingBlock: MIFKUJ_clean_linker_0, # of connection points: 2
#     Edge 11, Type (0, 0), BuildingBlock: MIFKUJ_clean_linker_0, # of connection points: 2
#     Edge 12, Type (0, 0), BuildingBlock: MIFKUJ_clean_linker_0, # of connection points: 2
#     Edge 13, Type (0, 0), BuildingBlock: MIFKUJ_clean_linker_0, # of connection points: 2
#     Edge 14, Type (0, 0), BuildingBlock: MIFKUJ_clean_linker_0, # of connection points: 2
#     Edge 15, Type (0, 0), BuildingBlock: MIFKUJ_clean_linker_0, # of connection points: 2
#     Edge 16, Type (0, 0), BuildingBlock: MIFKUJ_clean_linker_0, # of connection points: 2
#     Edge 17, Type (0, 0), BuildingBlock: MIFKUJ_clean_linker_0, # of connection points: 2
#     Edge 18, Type (0, 0), BuildingBlock: MIFKUJ_clean_linker_0, # of connection points: 2
#     Edge 19, Type (0, 0), BuildingBlock: MIFKUJ_clean_linker_0, # of connection points: 2
#     Edge 20, Type (0, 0), BuildingBlock: MIFKUJ_clean_linker_0, # of connection points: 2
#     Edge 21, Type (0, 0), BuildingBlock: MIFKUJ_clean_linker_0, # of connection points: 2
#     Edge 22, Type (0, 0), BuildingBlock: MIFKUJ_clean_linker_0, # of connection points: 2
#     Edge 23, Type (0, 0), BuildingBlock: MIFKUJ_clean_linker_0, # of connection points: 2
#     Edge 24, Type (0, 0), BuildingBlock: MIFKUJ_clean_linker_0, # of connection points: 2
#     Edge 25, Type (0, 0), BuildingBlock: MIFKUJ_clean_linker_0, # of connection points: 2
#     Edge 26, Type (0, 0), BuildingBlock: MIFKUJ_clean_linker_0, # of connection points: 2
#     Edge 27, Type (0, 0), BuildingBlock: MIFKUJ_clean_linker_0, # of connection points: 2
#     Edge 28, Type (0, 0), BuildingBlock: MIFKUJ_clean_linker_0, # of connection points: 2
#     Edge 29, Type (0, 0), BuildingBlock: MIFKUJ_clean_linker_0, # of connection points: 2
# Relax obj value: 0.277
# Max RMSD: 0.202
# Mean RMSD: 0.199
data_MOF--net-ecf--node1-LIZSOE_clean_sbu_0--edge1-MIFKUJ_clean_linker_0
_symmetry_space_group_name_H-M    P1
_symmetry_Int_Tables_number       1
_symmetry_cell_setting            triclinic
loop_
_symmetry_equiv_pos_as_xyz
'x, y, z'
_cell_length_a     46.769523
_cell_length_b     46.737194
_cell_length_c     28.703027
_cell_angle_alpha  90.065303
_cell_angle_beta   89.926913
_cell_angle_gamma 19.95391
loop_
_atom_site_label
_atom_site_type_symbol
_atom_site_fract_x
_atom_site_fract_y
_atom_site_fract_z
_atom_type_partial_charge
Co0 Co -0.7015 0.70232 0.27674 0.0
N1 N -0.63745 0.61142 0.25973 0.0
C2 C -0.58515 0.55848 0.22317 0.0
N3 N 0.42619 0.50929 0.26723 0.0
C4 C -0.62944 0.58015 0.28598 0.0
C5 C -0.54594 0.49548 0.22769 0.0
Co6 Co -0.87941 0.99548 0.25508 0.0
N7 N -0.95626 1.0953 0.27443 0.0
N8 N -1.05318 1.22109 0.27942 0.0
C9 C -1.05357 1.20677 0.31963 0.0
C10 C -0.99429 1.12998 0.31659 0.0
C11 C -0.99303 1.1522 0.25248 0.0
Co12 Co -0.78994 0.84795 0.2642 0.0
C13 C -0.84286 0.94383 0.19291 0.0
H14 H -0.98258 1.10291 0.34287 0.0
O15 O -0.76733 0.79028 0.29843 0.0
O16 O -0.90985 0.95391 0.27844 0.0
O17 O -0.80818 0.84578 0.20263 0.0
O18 O -0.66858 0.73875 0.25066 0.0
O19 O -0.61034 0.64149 0.26758 0.0
O20 O -0.96329 1.0472 0.26891 0.0
O21 O -0.80893 0.90394 0.23238 0.0
O22 O -0.83524 0.95271 0.3156 0.0
O23 O -0.73285 0.73583 0.21416 0.0
O24 O -0.79448 0.76962 0.28563 0.0
O25 O -0.77057 0.84988 0.32524 0.0
O26 O -0.90982 1.02283 0.19532 0.0
C27 C -0.77528 0.79174 0.1879 0.0
C28 C -0.97408 1.14242 0.20297 0.0
H29 H -1.01111 1.16336 0.17946 0.0
H30 H -0.99083 1.18069 0.1956 0.0
H31 H -0.90655 1.07555 0.19523 0.0
C32 C -0.97199 1.0291 0.27782 0.0
C33 C -0.60474 0.66251 0.25588 0.0
H34 H -0.57477 0.56423 0.19577 0.0
H35 H 0.34276 0.5836 0.35145 0.0
H36 H -0.74513 0.67739 0.31907 0.0
H37 H -0.68511 0.64724 0.35016 0.0
C38 C -0.68092 0.62335 0.32933 0.0
C39 C -0.81324 0.81078 0.30743 0.0
C40 C -0.79129 0.89432 0.33981 0.0
H41 H 0.50132 0.44221 0.20456 0.0
H42 H -1.09611 1.25044 0.34859 0.0
Co43 Co 0.56538 0.24739 0.74791 0.0
N44 N 0.67737 0.13173 0.73785 0.0
C45 C 0.7047 0.09911 0.69467 0.0
N46 N -2.06678 2.53195 0.73881 0.0
C47 C 0.74773 0.06545 0.76421 0.0
C48 C -2.09465 2.55381 0.69527 0.0
Co49 Co 0.15209 0.6167 0.75945 0.0
N50 N 0.03787 0.73635 0.75976 0.0
N51 N -0.10442 0.87082 0.75747 0.0
C52 C -0.0748 0.86825 0.74206 0.0
C53 C 0.01129 0.7869 0.74367 0.0
C54 C -0.03449 0.78987 0.76907 0.0
Co55 Co 0.3603 0.42907 0.76203 0.0
C56 C 0.21816 0.52288 0.79318 0.0
H57 H 0.05186 0.76594 0.73236 0.0
O58 O 0.46445 0.35501 0.75881 0.0
O59 O 0.31661 0.49554 0.81297 0.0
O60 O 0.4161 0.35125 0.81122 0.0
O61 O 0.39885 0.36655 0.71011 0.0
O62 O 0.53445 0.24891 0.70631 0.0
O63 O 0.17824 0.62132 0.80348 0.0
O64 O 0.25453 0.5051 0.76208 0.0
O65 O 0.176 0.61978 0.70907 0.0
O66 O 0.55297 0.23205 0.79722 0.0
O67 O 0.58632 0.25509 0.78863 0.0
O68 O 0.31302 0.5002 0.71333 0.0
O69 O 0.14213 0.601 0.8058 0.0
C70 C 0.49508 0.27385 0.82026 0.0
C71 C -0.03563 0.76286 0.79441 0.0
H72 H -0.00507 0.73686 0.82868 0.0
H73 H -0.09943 0.81491 0.80195 0.0
H74 H 0.00047 0.71285 0.77415 0.0
C75 C 0.24119 0.57346 0.82337 0.0
C76 C 0.47151 0.29434 0.69264 0.0
H77 H 0.66612 0.13496 0.66387 0.0
H78 H 0.74668 0.09754 0.81886 0.0
H79 H -2.07893 2.54979 0.83239 0.0
H80 H 0.6917 0.11688 0.83271 0.0
C81 C 0.74802 0.07266 0.81504 0.0
C82 C 0.50511 0.33381 0.78715 0.0
C83 C 0.24105 0.57198 0.69506 0.0
H84 H -2.05568 2.51246 0.66518 0.0
H85 H -0.11274 0.9213 0.7289 0.0
Co86 Co -1.67762 2.13876 0.30118 0.0
N87 N -1.66466 2.16546 0.29769 0.0
C88 C -1.7096 2.22494 0.32625 0.0
N89 N -1.63523 2.18333 0.28166 0.0
C90 C -1.61765 2.13927 0.27143 0.0
C91 C -1.69259 2.23686 0.31602 0.0
Co92 Co -1.8687 2.20329 0.23899 0.0
N93 N -1.90902 2.20452 0.24711 0.0
N94 N -1.93341 2.18056 0.25542 0.0
C95 C -1.99975 2.25732 0.27251 0.0
C96 C -1.98526 2.27232 0.26663 0.0
C97 C -1.87955 2.14998 0.23925 0.0
Co98 Co -1.75646 2.15404 0.2663 0.0
C99 C -1.83048 2.19033 0.18345 0.0
H100 H -2.02734 2.32899 0.2767 0.0
O101 O -1.68193 2.1066 0.30932 0.0
O102 O -1.67536 2.04608 0.27165 0.0
O103 O -1.69594 2.11032 0.21 0.0
O104 O -1.84077 2.26445 0.26096 0.0
O105 O -1.79261 2.25136 0.31051 0.0
O106 O -1.76147 2.09043 0.26052 0.0
O107 O -1.83498 2.20573 0.22536 0.0
O108 O -1.90225 2.24414 0.29984 0.0
O109 O -1.68807 2.14788 0.23357 0.0
O110 O -1.56987 2.02895 0.29398 0.0
O111 O -1.81809 2.19984 0.32416 0.0
O112 O -1.83595 2.16769 0.18014 0.0
C113 C -1.68203 2.12343 0.20147 0.0
C114 C -1.79885 2.06716 0.21452 0.0
H115 H -1.7607 2.0504 0.20677 0.0
H116 H -1.76214 2.01716 0.2354 0.0
H117 H -1.81323 2.07027 0.18081 0.0
C118 C -1.68981 2.03301 0.27069 0.0
C119 C -1.85275 2.29575 0.29001 0.0
H120 H -1.75251 2.258 0.35302 0.0
H121 H -1.48901 2.01309 0.252 0.0
H122 H -1.55616 2.08579 0.20485 0.0
H123 H -1.55556 2.04909 0.22725 0.0
C124 C -1.55169 2.06828 0.23675 0.0
C125 C -1.60124 2.03585 0.31398 0.0
C126 C -1.87878 2.23959 0.33093 0.0
H127 H -1.71927 2.28064 0.33283 0.0
H128 H -2.0545 2.29919 0.28854 0.0
Co129 Co -1.24172 1.91443 0.75991 0.0
N130 N -1.26411 1.97397 0.75181 0.0
C131 C -1.20912 1.94268 0.73875 0.0
N132 N -2.32855 2.07727 0.75272 0.0
C133 C -1.33621 2.05595 0.76062 0.0
C134 C -2.24846 2.00576 0.73904 0.0
Co135 Co -1.00387 1.57423 0.77375 0.0
N136 N -0.97977 1.51204 0.77269 0.0
N137 N -0.90874 1.40332 0.77455 0.0
C138 C -0.98935 1.47382 0.7639 0.0
C139 C -1.03275 1.54018 0.76325 0.0
C140 C -0.90471 1.42845 0.77994 0.0
Co141 Co -1.11835 1.74159 0.76736 0.0
C142 C -0.94507 1.5548 0.74708 0.0
H143 H -1.09869 1.60479 0.75589 0.0
O144 O -1.22759 1.86505 0.76485 0.0
O145 O -1.16818 1.76442 0.81786 0.0
O146 O -1.07669 1.73086 0.8168 0.0
O147 O -1.06764 1.7178 0.71553 0.0
O148 O -1.16272 1.84215 0.71183 0.0
O149 O -1.0986 1.65701 0.81486 0.0
O150 O -1.0123 1.61981 0.77313 0.0
O151 O -1.07565 1.63686 0.72081 0.0
O152 O -1.16062 1.84731 0.80277 0.0
O153 O -1.31892 1.97441 0.71989 0.0
O154 O -1.16174 1.75534 0.71799 0.0
O155 O -0.91839 1.50424 0.73583 0.0
C156 C -1.10033 1.77915 0.82453 0.0
C157 C -0.82587 1.37073 0.78911 0.0
H158 H -0.84079 1.40577 0.80524 0.0
H159 H -0.78288 1.31836 0.81207 0.0
H160 H -0.79292 1.34354 0.75551 0.0
C161 C -1.15742 1.72836 0.83083 0.0
C162 C -1.09725 1.76829 0.69679 0.0
H163 H -1.14388 1.87767 0.73066 0.0
H164 H -1.45458 2.14662 0.75243 0.0
H165 H -1.44573 2.15913 0.80515 0.0
H166 H -1.39314 2.07533 0.79972 0.0
C167 C -1.41182 2.11265 0.78099 0.0
C168 C -1.28953 1.92258 0.73545 0.0
C169 C -1.13701 1.70777 0.7025 0.0
H170 H -2.2202 1.9995 0.72993 0.0
H171 H -1.01515 1.47709 0.75702 0.0
Co172 Co -2.06369 1.94799 0.24431 0.0
N173 N -1.94951 1.83744 0.25489 0.0
C174 C -1.91867 1.78442 0.27435 0.0
N175 N -1.81041 1.71106 0.26366 0.0
C176 C -1.88149 1.79037 0.24797 0.0
C177 C -1.83366 1.70713 0.27984 0.0
Co178 Co -2.44631 2.35278 0.28111 0.0
N179 N -2.5527 2.4594 0.25975 0.0
N180 N 0.1927 0.04644 0.25146 0.0
C181 C 0.22196 0.03552 0.21672 0.0
C182 C -2.57686 2.49734 0.22214 0.0
C183 C -2.62378 2.51544 0.27771 0.0
Co184 Co -2.25525 2.15103 0.26575 0.0
C185 C -2.3749 2.30867 0.31428 0.0
H186 H -2.53515 2.46973 0.19911 0.0
O187 O -2.16722 2.0463 0.22968 0.0
O188 O -2.28245 2.19553 0.20501 0.0
O189 O -2.18168 2.11472 0.2801 0.0
O190 O -2.21996 2.0975 0.3244 0.0
O191 O -2.0858 1.96063 0.30714 0.0
O192 O -2.41604 2.32425 0.21907 0.0
O193 O -2.34675 2.25617 0.3049 0.0
O194 O -2.46088 2.32652 0.27792 0.0
O195 O -2.05789 1.98225 0.25602 0.0
O196 O -2.05553 1.94708 0.18326 0.0
O197 O -2.333 2.19203 0.2527 0.0
O198 O -2.41965 2.36425 0.28357 0.0
C199 C -2.10476 2.04621 0.27104 0.0
C200 C -2.62694 2.50331 0.32363 0.0
H201 H -2.57531 2.46232 0.34628 0.0
H202 H -2.68825 2.56474 0.34103 0.0
H203 H -2.61869 2.47226 0.31818 0.0
C204 C -2.35613 2.2685 0.19088 0.0
C205 C -2.14869 2.01948 0.33477 0.0
H206 H -1.95621 1.80145 0.28433 0.0
H207 H -1.82311 1.7676 0.20458 0.0
H208 H -1.89358 1.84723 0.24856 0.0
H209 H -1.93469 1.86894 0.19703 0.0
C210 C -1.88346 1.82033 0.22283 0.0
C211 C -2.13553 2.01708 0.18737 0.0
C212 C -2.40989 2.25942 0.2631 0.0
H213 H -1.79218 1.65252 0.29536 0.0
H214 H 0.1852 0.07832 0.18812 0.0
Co215 Co -0.25165 0.46174 0.77146 0.0
N216 N -0.32836 0.50422 0.76519 0.0
C217 C -0.37448 0.54129 0.72726 0.0
N218 N -0.39878 0.52948 0.77773 0.0
C219 C -0.34416 0.4975 0.79538 0.0
C220 C -0.41801 0.55735 0.73502 0.0
Co221 Co -0.10056 0.45252 0.77076 0.0
N222 N -0.01399 0.39848 0.77442 0.0
N223 N 0.05718 0.37341 0.77539 0.0
C224 C 0.11233 0.29978 0.77807 0.0
C225 C 0.06881 0.31522 0.77761 0.0
C226 C -0.01918 0.43237 0.77288 0.0
Co227 Co -0.18592 0.46721 0.77228 0.0
C228 C -0.21999 0.5618 0.79875 0.0
H229 H 0.09602 0.26846 0.77924 0.0
O230 O -0.17465 0.41438 0.77425 0.0
O231 O -0.10177 0.38882 0.82345 0.0
O232 O -0.27938 0.5524 0.82202 0.0
O233 O -0.27115 0.54615 0.72056 0.0
O234 O -0.30644 0.53331 0.72438 0.0
O235 O -0.0484 0.38257 0.82008 0.0
O236 O -0.1915 0.51545 0.76983 0.0
O237 O -0.03651 0.37094 0.72594 0.0
O238 O -0.31946 0.54378 0.81585 0.0
O239 O -0.17732 0.37729 0.73033 0.0
O240 O -0.09393 0.38125 0.72306 0.0
O241 O -0.16852 0.53349 0.81184 0.0
C242 C -0.32545 0.57413 0.83453 0.0
C243 C -0.1001 0.52405 0.7658 0.0
H244 H -0.12723 0.55529 0.80026 0.0
H245 H -0.08982 0.53436 0.74569 0.0
H246 H -0.14543 0.55279 0.74732 0.0
C247 C -0.05119 0.36031 0.83802 0.0
C248 C -0.31339 0.5644 0.70632 0.0
H249 H -0.37478 0.55369 0.6952 0.0
H250 H -0.24826 0.39274 0.84113 0.0
H251 H -0.35031 0.49177 0.86802 0.0
H252 H -0.28865 0.46549 0.85525 0.0
C253 C -0.30616 0.46029 0.84288 0.0
C254 C -0.13654 0.3612 0.7455 0.0
C255 C -0.03931 0.34821 0.70933 0.0
H256 H -0.45872 0.58499 0.71046 0.0
H257 H 0.17961 0.23888 0.78064 0.0
H258 H -1.11575 1.19378 0.29775 0.0
H259 H -1.25882 1.30958 0.29992 0.0
H260 H -1.16503 1.13645 0.27232 0.0
H261 H -1.02144 1.01982 0.27093 0.0
H262 H -1.29692 1.28163 0.21043 0.0
H263 H -1.23276 1.21052 0.37367 0.0
H264 H -1.18492 1.18262 0.4503 0.0
H265 H -1.38277 1.43097 0.45336 0.0
H266 H -1.43104 1.45992 0.37636 0.0
H267 H -1.66851 1.55083 0.23789 0.0
H268 H -1.52527 1.43464 0.24353 0.0
H269 H -1.62097 1.60378 0.30029 0.0
H270 H -1.7642 1.71962 0.29548 0.0
H271 H -1.48806 1.46183 0.34753 0.0
H272 H -1.55374 1.5372 0.1879 0.0
H273 H -1.60333 1.57075 0.10959 0.0
H274 H -1.40619 1.32322 0.09679 0.0
H275 H -1.35609 1.28853 0.1754 0.0
C276 C -1.12541 1.18014 0.29276 0.0
C277 C -1.05734 1.0977 0.28404 0.0
C278 C -1.20711 1.24632 0.29406 0.0
C279 C -1.22211 1.23128 0.28615 0.0
C280 C -1.15437 1.14902 0.27842 0.0
C281 C -1.0725 1.08256 0.27787 0.0
C282 C -1.30888 1.30204 0.28367 0.0
C283 C -1.33848 1.32034 0.2405 0.0
C284 C -1.36354 1.35416 0.32258 0.0
C285 C -1.335 1.33708 0.36904 0.0
C286 C -1.26562 1.25893 0.39048 0.0
C287 C -1.23851 1.24297 0.43403 0.0
C288 C -1.28065 1.30491 0.45663 0.0
C289 C -1.35013 1.38302 0.43579 0.0
C290 C -1.37744 1.39926 0.39221 0.0
C291 C -1.65862 1.56291 0.25127 0.0
C292 C -1.72699 1.64411 0.26523 0.0
C293 C -1.57712 1.49688 0.25434 0.0
C294 C -1.56267 1.51099 0.27153 0.0
C295 C -1.63093 1.59188 0.28638 0.0
C296 C -1.71252 1.65801 0.28315 0.0
C297 C -1.47617 1.44102 0.2743 0.0
C298 C -1.44663 1.42309 0.31741 0.0
C299 C -1.4219 1.39008 0.23509 0.0
C300 C -1.45167 1.41054 0.18775 0.0
C301 C -1.52136 1.49012 0.16856 0.0
C302 C -1.5495 1.50932 0.12409 0.0
C303 C -1.50807 1.44923 0.09828 0.0
C304 C -1.43828 1.36974 0.11686 0.0
C305 C -1.40994 1.35024 0.16136 0.0
H306 H -1.52993 1.46419 0.06384 0.0
H307 H -1.25957 1.29244 0.49034 0.0
H308 H 0.17746 0.28648 0.72432 0.0
H309 H 0.21951 0.29734 0.72741 0.0
H310 H 0.03113 0.49013 0.83299 0.0
H311 H -0.01239 0.4808 0.82855 0.0
H312 H 0.03016 0.53353 0.77816 0.0
H313 H 0.25517 0.27306 0.85431 0.0
H314 H 0.3686 0.13089 0.86201 0.0
H315 H 0.49661 0.04727 0.74444 0.0
H316 H 0.38334 0.18929 0.73566 0.0
H317 H 0.17293 0.53044 0.86439 0.0
H318 H 0.15935 0.49125 0.86067 0.0
H319 H 0.29428 0.36343 0.73022 0.0
H320 H 0.30655 0.4043 0.73318 0.0
H321 H 0.32759 0.28277 0.79432 0.0
H322 H 0.09781 0.54659 0.71801 0.0
H323 H -0.02049 0.69138 0.70924 0.0
H324 H -0.13917 0.76759 0.83085 0.0
H325 H -0.02158 0.62322 0.84028 0.0
C326 C 0.14486 0.33144 0.74797 0.0
C327 C 0.07857 0.38346 0.77578 0.0
C328 C 0.16943 0.33717 0.7501 0.0
C329 C 0.12991 0.39352 0.78113 0.0
C330 C 0.063 0.44608 0.80866 0.0
C331 C 0.03764 0.44117 0.80599 0.0
C332 C 0.15681 0.39908 0.78441 0.0
C333 C 0.09523 0.47845 0.7824 0.0
C334 C 0.24198 0.32752 0.78868 0.0
C335 C 0.31037 0.242 0.79405 0.0
C336 C 0.30724 0.22448 0.82991 0.0
C337 C 0.37153 0.14391 0.8345 0.0
C338 C 0.43966 0.08014 0.80366 0.0
C339 C 0.44374 0.09676 0.76826 0.0
C340 C 0.37956 0.17726 0.76348 0.0
C341 C 0.20264 0.49124 0.83568 0.0
C342 C 0.24082 0.47076 0.79908 0.0
C343 C 0.19394 0.46963 0.83337 0.0
C344 C 0.22411 0.42589 0.7947 0.0
C345 C 0.26996 0.39765 0.76033 0.0
C346 C 0.27798 0.42015 0.76237 0.0
C347 C 0.20068 0.41707 0.7887 0.0
C348 C 0.26272 0.33743 0.79015 0.0
C349 C 0.11588 0.48829 0.78435 0.0
C350 C 0.04722 0.57404 0.78009 0.0
C351 C 0.04692 0.59404 0.74316 0.0
C352 C -0.02027 0.67612 0.73788 0.0
C353 C -0.08732 0.73862 0.76944 0.0
C354 C -0.08722 0.71913 0.80642 0.0
C355 C -0.02047 0.63727 0.81167 0.0
H356 H -0.13939 0.80217 0.76525 0.0
H357 H -2.39441 2.55669 0.80726 0.0
H358 H -1.02368 1.24772 0.25165 0.0
H359 H -1.12899 1.38473 0.24335 0.0
H360 H -1.32399 1.50771 0.27862 0.0
H361 H -1.2193 1.37126 0.28407 0.0
H362 H -1.38089 1.59585 0.21672 0.0
H363 H -1.23145 1.46609 0.36075 0.0
H364 H -1.10653 1.35468 0.40988 0.0
H365 H -1.04996 1.38081 0.34123 0.0
H366 H -1.17404 1.4917 0.29124 0.0
H367 H -1.69772 1.98521 0.30054 0.0
H368 H -1.58454 1.84347 0.29959 0.0
H369 H -1.4111 1.74529 0.25299 0.0
H370 H -1.52385 1.8868 0.25451 0.0
H371 H -1.34032 1.64362 0.31576 0.0
H372 H -1.50317 1.7852 0.17484 0.0
H373 H -1.63467 1.90148 0.13177 0.0
H374 H -1.67358 1.85823 0.20248 0.0
H375 H -1.54257 1.74203 0.24623 0.0
C376 C -1.08939 1.30432 0.2558 0.0
C377 C -1.11407 1.29969 0.26776 0.0
C378 C -1.14932 1.38238 0.25186 0.0
C379 C -1.23431 1.45653 0.26118 0.0
C380 C -1.25898 1.45159 0.27122 0.0
C381 C -1.19936 1.37388 0.27448 0.0
C382 C -1.29731 1.53907 0.26352 0.0
C383 C -1.3721 1.60628 0.23857 0.0
C384 C -1.28577 1.55277 0.29177 0.0
C385 C -1.21142 1.48645 0.32192 0.0
C386 C -1.19203 1.44765 0.35592 0.0
C387 C -1.12143 1.38466 0.38394 0.0
C388 C -1.07019 1.3605 0.37858 0.0
C389 C -1.08961 1.39947 0.34527 0.0
C390 C -1.16006 1.4624 0.3171 0.0
C391 C -1.63533 1.93326 0.29032 0.0
C392 C -1.61978 1.94699 0.27668 0.0
C393 C -1.57083 1.85247 0.28974 0.0
C394 C -1.49002 1.78431 0.27497 0.0
C395 C -1.47325 1.79722 0.26407 0.0
C396 C -1.53763 1.878 0.26503 0.0
C397 C -1.42377 1.7001 0.26926 0.0
C398 C -1.34854 1.63277 0.29356 0.0
C399 C -1.43555 1.68664 0.24111 0.0
C400 C -1.51321 1.75512 0.21391 0.0
C401 C -1.53981 1.80055 0.18123 0.0
C402 C -1.61418 1.86634 0.15665 0.0
C403 C -1.66228 1.88703 0.16429 0.0
C404 C -1.63607 1.8419 0.19648 0.0
C405 C -1.56168 1.77595 0.22109 0.0
H406 H -1.72002 1.93822 0.14539 0.0
H407 H -1.01557 1.31173 0.40031 0.0
H408 H -0.23855 1.0309 0.77537 0.0
H409 H -0.38636 1.15761 0.76967 0.0
H410 H -0.31898 1.00703 0.73641 0.0
H411 H -0.17188 0.88242 0.73421 0.0
H412 H -0.4414 1.12872 0.69356 0.0
H413 H -0.40343 1.1161 0.85298 0.0
H414 H -0.36271 1.10598 0.92191 0.0
H415 H -0.53592 1.33501 0.88371 0.0
H416 H -0.57687 1.34591 0.81419 0.0
H417 H -0.86953 1.50669 0.82176 0.0
H418 H -0.7319 1.3997 0.82249 0.0
H419 H -0.73706 1.41095 0.67241 0.0
H420 H -0.87144 1.51188 0.67186 0.0
H421 H -0.64739 1.36125 0.80708 0.0
H422 H -0.55017 1.22965 0.62231 0.0
H423 H -0.58488 1.22297 0.56831 0.0
H424 H -0.66884 1.25045 0.68332 0.0
H425 H -0.63355 1.2561 0.73799 0.0
C426 C -0.25527 1.02482 0.76671 0.0
C427 C -0.19236 0.94523 0.7576 0.0
C428 C -0.34048 1.09773 0.76422 0.0
C429 C -0.36593 1.0934 0.75457 0.0
C430 C -0.30282 1.01374 0.74462 0.0
C431 C -0.21771 0.94133 0.7448 0.0
C432 C -0.45754 1.17133 0.7535 0.0
C433 C -0.48579 1.17895 0.71877 0.0
C434 C -0.51728 1.23778 0.78654 0.0
C435 C -0.49248 1.23127 0.82809 0.0
C436 C -0.43236 1.16396 0.8591 0.0
C437 C -0.4093 1.15813 0.89829 0.0
C438 C -0.4465 1.21966 0.9071 0.0
C439 C -0.50701 1.28728 0.87678 0.0
C440 C -0.53019 1.29334 0.83748 0.0
C441 C -0.84239 1.48819 0.78901 0.0
C442 C -0.8815 1.51806 0.74678 0.0
C443 C -0.76292 1.4262 0.78934 0.0
C444 C -0.72121 1.39383 0.74739 0.0
C445 C -0.76518 1.43127 0.70533 0.0
C446 C -0.8432 1.4907 0.70494 0.0
C447 C -0.63038 1.31741 0.74789 0.0
C448 C -0.60254 1.31051 0.78217 0.0
C449 C -0.56977 1.24871 0.71675 0.0
C450 C -0.59018 1.24434 0.68411 0.0
C451 C -0.57577 1.23398 0.63604 0.0
C452 C -0.59556 1.23039 0.60533 0.0
C453 C -0.62932 1.23658 0.62235 0.0
C454 C -0.64295 1.24592 0.67015 0.0
C455 C -0.62306 1.24932 0.70101 0.0
H456 H -0.64473 1.23394 0.59851 0.0
H457 H -0.4286 1.21506 0.93748 0.0
H458 H -2.01464 1.98895 0.20516 0.0
H459 H -1.96579 1.99244 0.20658 0.0
H460 H -2.07192 2.10288 0.34436 0.0
H461 H -2.12341 2.10184 0.34211 0.0
H462 H -2.1134 2.18452 0.29288 0.0
H463 H -1.85256 1.89227 0.32281 0.0
H464 H -1.74033 1.75149 0.309 0.0
H465 H -1.69085 1.74169 0.17454 0.0
H466 H -1.80346 1.88298 0.18742 0.0
H467 H -1.94495 2.16083 0.33358 0.0
H468 H -1.95111 2.11441 0.33957 0.0
H469 H -1.90485 2.0638 0.19175 0.0
H470 H -1.9002 2.11182 0.18569 0.0
H471 H -1.82541 1.94485 0.25058 0.0
H472 H -2.09306 2.24124 0.22015 0.0
H473 H -2.20527 2.38198 0.23492 0.0
H474 H -2.24071 2.38173 0.37284 0.0
H475 H -2.12755 2.24021 0.35915 0.0
C476 C -2.02563 2.01203 0.23615 0.0
C477 C -2.0708 2.04329 0.274 0.0
C478 C -1.99774 2.01401 0.23697 0.0
C479 C -2.01342 2.04608 0.27602 0.0
C480 C -2.05851 2.07719 0.31403 0.0
C481 C -2.0877 2.07649 0.31284 0.0
C482 C -1.98812 2.05275 0.27566 0.0
C483 C -2.04997 2.13156 0.28455 0.0
C484 C -1.90588 1.98423 0.26346 0.0
C485 C -1.83689 1.8985 0.25596 0.0
C486 C -1.81803 1.86028 0.2902 0.0
C487 C -1.7543 1.78034 0.28252 0.0
C488 C -1.70864 1.73771 0.2408 0.0
C489 C -1.72633 1.77481 0.20681 0.0
C490 C -1.78997 1.85475 0.21433 0.0
C491 C -1.93425 2.13792 0.30268 0.0
C492 C -1.92193 2.13947 0.25928 0.0
C493 C -1.93744 2.11127 0.3061 0.0
C494 C -1.92899 2.08639 0.26603 0.0
C495 C -1.9109 2.08233 0.22304 0.0
C496 C -1.90794 2.10936 0.21961 0.0
C497 C -1.95052 2.07603 0.26827 0.0
C498 C -1.88836 1.99708 0.25943 0.0
C499 C -2.03237 2.1442 0.28074 0.0
C500 C -2.10123 2.22979 0.2888 0.0
C501 C -2.12428 2.27089 0.25377 0.0
C502 C -2.18812 2.35084 0.26192 0.0
C503 C -2.22994 2.39068 0.30484 0.0
C504 C -2.20816 2.35073 0.33964 0.0
C505 C -2.1442 2.27067 0.3317 0.0
H506 H -2.27936 2.45258 0.31109 0.0
H507 H -1.65942 1.67589 0.23483 0.0
H508 H -0.34555 0.67161 0.73481 0.0
H509 H -0.47644 0.82217 0.73119 0.0
H510 H -0.42724 0.81109 0.86718 0.0
H511 H -0.29771 0.66163 0.87113 0.0
H512 H -0.59143 0.96033 0.85674 0.0
H513 H -0.36539 0.78821 0.76485 0.0
H514 H -0.2565 0.68549 0.70342 0.0
H515 H -0.4429 0.84272 0.60035 0.0
H516 H -0.55295 0.9464 0.66122 0.0
H517 H -0.80543 1.29508 0.84732 0.0
H518 H -0.69825 1.15673 0.85203 0.0
H519 H -0.76149 1.18802 0.71351 0.0
H520 H -0.86647 1.32507 0.70838 0.0
H521 H -0.59746 1.0326 0.72236 0.0
H522 H -0.8261 1.21219 0.81418 0.0
H523 H -0.93416 1.3153 0.87595 0.0
H524 H -0.74328 1.14434 0.97973 0.0
H525 H -0.63407 1.0406 0.91849 0.0
C526 C -0.36455 0.702 0.76484 0.0
C527 C -0.31092 0.65424 0.80333 0.0
C528 C -0.43887 0.78809 0.7624 0.0
C529 C -0.46106 0.82821 0.79834 0.0
C530 C -0.41179 0.78222 0.83872 0.0
C531 C -0.33771 0.69649 0.84111 0.0
C532 C -0.53029 0.91489 0.79266 0.0
C533 C -0.59235 0.97584 0.82745 0.0
C534 C -0.53311 0.93658 0.75419 0.0
C535 C -0.46718 0.87455 0.7176 0.0
C536 C -0.38304 0.80061 0.72912 0.0
C537 C -0.32114 0.74226 0.69442 0.0
C538 C -0.34269 0.75735 0.64807 0.0
C539 C -0.42628 0.83104 0.63628 0.0
C540 C -0.48846 0.88969 0.67084 0.0
C541 C -0.79489 1.2714 0.8175 0.0
C542 C -0.84284 1.32 0.77698 0.0
C543 C -0.73456 1.1928 0.82046 0.0
C544 C -0.72167 1.16138 0.7833 0.0
C545 C -0.76955 1.21005 0.74272 0.0
C546 C -0.82971 1.28852 0.73978 0.0
C547 C -0.65853 1.07813 0.7866 0.0
C548 C -0.59732 1.01765 0.75142 0.0
C549 C -0.65651 1.05694 0.82476 0.0
C550 C -0.72196 1.11892 0.8617 0.0
C551 C -0.8072 1.1968 0.85014 0.0
C552 C -0.86865 1.25533 0.88506 0.0
C553 C -0.84561 1.23646 0.93172 0.0
C554 C -0.76104 1.15891 0.94357 0.0
C555 C -0.69933 1.10018 0.90877 0.0
H556 H -0.89328 1.28187 0.95871 0.0
H557 H -0.29466 0.71206 0.62127 0.0
H558 H -0.56686 0.68205 0.23195 0.0
H559 H -0.42878 0.57374 0.22556 0.0
H560 H -0.31463 0.3861 0.26311 0.0
H561 H -0.45281 0.49363 0.26756 0.0
H562 H -0.26873 0.39237 0.31822 0.0
H563 H -0.29297 0.38306 0.16285 0.0
H564 H -0.35377 0.43343 0.08512 0.0
H565 H -0.33319 0.50409 0.0583 0.0
H566 H -0.27599 0.45798 0.13695 0.0
H567 H -2.72876 2.5655 0.26789 0.0
H568 H 0.01617 0.13562 0.26824 0.0
H569 H -0.09324 0.32015 0.23374 0.0
H570 H 0.04656 0.21082 0.23562 0.0
H571 H -0.1412 0.31541 0.17645 0.0
H572 H -0.12253 0.32869 0.33639 0.0
H573 H -0.05132 0.26603 0.41204 0.0
H574 H -0.04957 0.17293 0.426 0.0
H575 H -0.11951 0.23383 0.35 0.0
C576 C -0.51269 0.61768 0.23757 0.0
C577 C -0.521 0.59645 0.24965 0.0
C578 C -0.43386 0.55601 0.23413 0.0
C579 C -0.36233 0.47255 0.24361 0.0
C580 C -0.36978 0.45062 0.25551 0.0
C581 C -0.44861 0.51205 0.25801 0.0
C582 C -0.2802 0.4093 0.2441 0.0
C583 C -0.24028 0.37475 0.28717 0.0
C584 C -0.24481 0.38824 0.20347 0.0
C585 C -0.28172 0.4186 0.15649 0.0
C586 C -0.30325 0.41123 0.14098 0.0
C587 C -0.33697 0.43891 0.09664 0.0
C588 C -0.3481 0.47271 0.06697 0.0
C589 C -0.32522 0.47859 0.08154 0.0
C590 C -0.29248 0.45202 0.12611 0.0
C591 C 0.10124 0.09078 0.26222 0.0
C592 C 0.1107 0.11126 0.25359 0.0
C593 C 0.0223 0.15259 0.26164 0.0
C594 C -0.04806 0.23543 0.25154 0.0
C595 C -0.03909 0.25621 0.24187 0.0
C596 C 0.04011 0.19429 0.24308 0.0
C597 C -0.13072 0.29961 0.2505 0.0
C598 C -0.17047 0.33402 0.20742 0.0
C599 C -0.1657 0.32001 0.29093 0.0
C600 C -0.12563 0.28523 0.33726 0.0
C601 C -0.10646 0.29437 0.35543 0.0
C602 C -0.06637 0.25921 0.39839 0.0
C603 C -0.0457 0.2153 0.42374 0.0
C604 C -0.06551 0.20686 0.40629 0.0
C605 C -0.10547 0.24178 0.36329 0.0
H606 H -0.01448 0.18795 0.45695 0.0
H607 H -0.37389 0.49379 0.03257 0.0
H608 H 0.5666 0.30207 0.86322 0.0
H609 H 0.54984 0.36763 0.88212 0.0
H610 H 0.33782 0.572 0.7895 0.0
H611 H 0.36453 0.49771 0.76459 0.0
H612 H -0.57082 0.52167 0.76248 0.0
H613 H 0.35603 0.57579 0.92428 0.0
H614 H 0.36153 0.55447 1.00618 0.0
H615 H 0.62199 0.34102 0.01769 0.0
H616 H -0.39357 0.37379 0.93644 0.0
H617 H -0.55711 0.65882 0.77559 0.0
H618 H -0.60531 0.65607 0.7967 0.0
H619 H -0.35663 0.40096 0.84323 0.0
H620 H -0.30804 0.40312 0.82134 0.0
H621 H -0.48674 0.49966 0.89991 0.0
H622 H -0.40497 0.42911 0.73729 0.0
H623 H -0.40941 0.45228 0.65717 0.0
H624 H -0.6727 0.68178 0.65048 0.0
H625 H -0.66987 0.66009 0.73054 0.0
C626 C 0.5149 0.36217 0.8476 0.0
C627 C 0.46813 0.39359 0.81156 0.0
C628 C 0.50416 0.40101 0.85929 0.0
C629 C 0.44303 0.47512 0.83708 0.0
C630 C 0.3873 0.51358 0.80641 0.0
C631 C 0.40143 0.47187 0.79258 0.0
C632 C -0.54971 0.50032 0.83689 0.0
C633 C -0.55549 0.5195 0.79337 0.0
C634 C -0.5248 0.49348 0.87618 0.0
C635 C -0.51965 0.4769 0.92418 0.0
C636 C 0.41192 0.52693 0.9443 0.0
C637 C 0.4149 0.51496 0.99064 0.0
C638 C 0.48672 0.45206 1.01706 0.0
C639 C 0.55567 0.40112 0.99724 0.0
C640 C -0.44746 0.41356 0.95112 0.0
C641 C -0.51327 0.6028 0.79119 0.0
C642 C -0.42905 0.53148 0.79724 0.0
C643 C -0.54082 0.60133 0.80327 0.0
C644 C -0.48441 0.52818 0.82131 0.0
C645 C -0.40131 0.45829 0.82976 0.0
C646 C -0.37367 0.45971 0.81751 0.0
C647 C -0.50937 0.52125 0.82638 0.0
C648 C -0.50519 0.50421 0.87013 0.0
C649 C -0.53526 0.52937 0.78763 0.0
C650 C -0.53741 0.54349 0.74 0.0
C651 C -0.46396 0.48493 0.71886 0.0
C652 C -0.46612 0.49762 0.67342 0.0
C653 C -0.54128 0.56836 0.64878 0.0
C654 C -0.61456 0.62692 0.66957 0.0
C655 C -0.61271 0.61446 0.71495 0.0
H656 H -0.54261 0.57744 0.61346 0.0
H657 H 0.49951 0.43157 0.05287 0.0
H658 H 0.44124 0.44444 0.22398 0.0
H659 H 0.50798 0.33866 0.25505 0.0
H660 H 0.54287 0.34867 0.38705 0.0
H661 H 0.48609 0.44586 0.3538 0.0
H662 H 0.67843 0.20337 0.36155 0.0
H663 H 0.41985 0.39943 0.37411 0.0
H664 H 0.27841 0.51628 0.35227 0.0
H665 H 0.38166 0.3713 0.23785 0.0
H666 H 0.5235 0.25423 0.25816 0.0
H667 H -1.90666 2.35735 0.37732 0.0
H668 H -2.04647 2.50429 0.40162 0.0
H669 H 0.75456 0.03817 0.25901 0.0
H670 H -1.99098 2.42927 0.23512 0.0
H671 H 0.62303 0.15381 0.32281 0.0
H672 H -2.02615 2.54013 0.29376 0.0
H673 H -1.88372 2.42379 0.31046 0.0
H674 H -1.94828 2.49325 0.45532 0.0
H675 H 0.79266 0.07093 0.43934 0.0
C676 C 0.46253 0.42429 0.25973 0.0
C677 C 0.45698 0.4543 0.28698 0.0
C678 C 0.49885 0.36544 0.2779 0.0
C679 C 0.52861 0.33711 0.32394 0.0
C680 C 0.51941 0.3703 0.35172 0.0
C681 C 0.48638 0.42629 0.3329 0.0
C682 C 0.58487 0.26092 0.3392 0.0
C683 C 0.66449 0.19412 0.35488 0.0
C684 C 0.56781 0.24775 0.33018 0.0
C685 C 0.48255 0.31788 0.31775 0.0
C686 C 0.41243 0.39256 0.34412 0.0
C687 C 0.33215 0.45886 0.33203 0.0
C688 C 0.3211 0.45115 0.2938 0.0
C689 C 0.39033 0.37712 0.26753 0.0
C690 C 0.47075 0.31068 0.27937 0.0
C691 C -1.95548 2.40483 0.35141 0.0
C692 C -1.9382 2.38324 0.30417 0.0
C693 C -2.03533 2.4883 0.36543 0.0
C694 C -2.09733 2.55114 0.33195 0.0
C695 C -2.0821 2.52913 0.28533 0.0
C696 C -2.00293 2.44518 0.27155 0.0
C697 C 0.71539 0.09808 0.34248 0.0
C698 C 0.63396 0.16576 0.3318 0.0
C699 C 0.73009 0.11288 0.35596 0.0
C700 C 0.81515 0.04399 0.36548 0.0
C701 C -2.00973 2.53035 0.32915 0.0
C702 C -1.92902 2.4644 0.33849 0.0
C703 C -1.90685 2.45094 0.38397 0.0
C704 C -1.96551 2.50366 0.42015 0.0
C705 C 0.83744 0.0308 0.41098 0.0
H706 H -1.84431 2.39982 0.39118 0.0
H707 H 0.25886 0.50259 0.28452 0.0
H708 H -1.98592 2.49576 0.791 0.0
H709 H -1.83499 2.36124 0.79339 0.0
H710 H -1.7968 2.24993 0.70912 0.0
H711 H -1.94794 2.38306 0.71042 0.0
H712 H -1.65878 2.13004 0.76095 0.0
H713 H -1.82791 2.34144 0.6554 0.0
H714 H -1.94812 2.48415 0.63167 0.0
H715 H -1.86462 2.47352 0.72096 0.0
H716 H -1.74463 2.33119 0.74581 0.0
H717 H -1.3759 1.99002 0.65784 0.0
H718 H -1.48804 2.06031 0.65191 0.0
H719 H -1.43697 1.98401 0.79206 0.0
H720 H -1.32272 1.91084 0.79706 0.0
H721 H -1.61695 2.18864 0.69867 0.0
H722 H -1.53834 2.01504 0.81649 0.0
H723 H -1.41647 1.86965 0.83166 0.0
H724 H -1.31043 1.79246 0.69892 0.0
H725 H -1.43216 1.93758 0.6825 0.0
C726 C -1.94549 2.44176 0.77543 0.0
C727 C -1.97902 2.45017 0.75051 0.0
C728 C -1.85898 2.36489 0.77616 0.0
C729 C -1.80484 2.29622 0.7502 0.0
C730 C -1.83725 2.30206 0.72911 0.0
C731 C -1.92364 2.37836 0.72954 0.0
C732 C -1.71891 2.2254 0.73844 0.0
C733 C -1.64899 2.1422 0.74733 0.0
C734 C -1.70658 2.24106 0.71819 0.0
C735 C -1.77763 2.32594 0.70265 0.0
C736 C -1.83541 2.36971 0.6701 0.0
C737 C -1.90351 2.45052 0.65648 0.0
C738 C -1.91405 2.48791 0.67484 0.0
C739 C -1.85638 2.44447 0.70678 0.0
C740 C -1.78828 2.36371 0.72062 0.0
C741 C -1.38636 1.98524 0.68658 0.0
C742 C -1.33935 1.94338 0.72752 0.0
C743 C -1.4507 2.02573 0.68328 0.0
C744 C -1.47199 2.02859 0.72172 0.0
C745 C -1.42138 1.98195 0.76159 0.0
C746 C -1.35525 1.93929 0.76435 0.0
C747 C -1.55501 2.09227 0.72328 0.0
C748 C -1.62529 2.17493 0.71186 0.0
C749 C -1.56671 2.07493 0.73966 0.0
C750 C -1.49435 1.98761 0.74856 0.0
C751 C -1.48932 1.96735 0.79042 0.0
C752 C -1.42007 1.88478 0.79925 0.0
C753 C -1.35539 1.82171 0.76643 0.0
C754 C -1.36024 1.84125 0.72446 0.0
C755 C -1.42943 1.92373 0.71538 0.0
H756 H -1.30167 1.75776 0.77344 0.0
H757 H -1.96685 2.5505 0.66427 0.0
H758 H -1.72315 2.30729 0.24129 0.0
H759 H -1.67363 2.3092 0.22538 0.0
H760 H -1.42273 2.04795 0.26312 0.0
H761 H -1.47358 2.04735 0.28018 0.0
H762 H -1.4772 2.14192 0.31496 0.0
H763 H -1.46128 2.10787 0.154 0.0
H764 H -1.50378 2.13045 0.0766 0.0
H765 H -1.71084 2.38386 0.07682 0.0
H766 H -1.67031 2.36323 0.15458 0.0
H767 H -2.34579 2.15889 0.20565 0.0
H768 H -2.37929 2.13978 0.20465 0.0
H769 H -2.57166 2.33394 0.30864 0.0
H770 H -2.53621 2.35173 0.31141 0.0
H771 H -2.53791 2.26499 0.18443 0.0
H772 H -1.54898 2.23537 0.37912 0.0
H773 H -1.51273 2.20911 0.46954 0.0
H774 H -2.26044 2.0395 0.38627 0.0
H775 H -2.33175 2.08781 0.30598 0.0
C776 C -1.65702 2.24985 0.24449 0.0
C777 C -1.60173 2.1772 0.26156 0.0
C778 C -1.62867 2.25067 0.23526 0.0
C779 C -1.54457 2.1786 0.24306 0.0
C780 C -1.48782 2.10396 0.2568 0.0
C781 C -1.51644 2.10331 0.26608 0.0
C782 C -1.52022 2.18597 0.24428 0.0
C783 C -1.48965 2.16817 0.28641 0.0
C784 C -1.5375 2.22079 0.20691 0.0
C785 C -1.56329 2.23427 0.16044 0.0
C786 C -1.51652 2.16877 0.13783 0.0
C787 C -1.54007 2.18112 0.0938 0.0
C788 C -1.61012 2.25862 0.07187 0.0
C789 C -1.65666 2.32389 0.0939 0.0
C790 C -1.63336 2.31187 0.13794 0.0
C791 C -2.39556 2.19795 0.2282 0.0
C792 C -2.43856 2.25683 0.25863 0.0
C793 C -2.4148 2.18719 0.22734 0.0
C794 C -2.47714 2.23494 0.25682 0.0
C795 C -2.52238 2.29584 0.28627 0.0
C796 C -2.50303 2.30673 0.28724 0.0
C797 C -2.49484 2.22095 0.25518 0.0
C798 C -2.52582 2.23916 0.21318 0.0
C799 C -1.47647 2.18511 0.29259 0.0
C800 C -1.44497 2.16544 0.33852 0.0
C801 C -1.496 2.19926 0.38621 0.0
C802 C -1.47424 2.18347 0.44363 0.0
C803 C -2.39279 2.12788 0.46129 0.0
C804 C -2.31439 2.07602 0.38929 0.0
C805 C -2.3599 2.10768 0.33855 0.0
H806 H -2.38257 2.12017 0.49883 0.0
H807 H -1.62822 2.26804 0.03776 0.0
H808 H -0.02404 0.26989 0.81117 0.0
H809 H 0.12107 0.11794 0.81453 0.0
H810 H 0.10385 0.10196 0.67415 0.0
H811 H -0.0425 0.25539 0.67074 0.0
H812 H 0.12302 0.05459 0.80177 0.0
H813 H -2.54738 2.42306 0.64089 0.0
H814 H -2.49863 2.42008 0.59854 0.0
H815 H -2.57508 2.54516 0.71314 0.0
H816 H -2.62282 2.54762 0.75652 0.0
H817 H -2.49199 2.22927 0.72744 0.0
H818 H -2.59325 2.36371 0.73203 0.0
H819 H -2.40312 2.24015 0.78878 0.0
H820 H -2.30248 2.10588 0.7862 0.0
H821 H -2.49202 2.34848 0.71502 0.0
H822 H -2.54286 2.35155 0.86018 0.0
H823 H -2.56997 2.33749 0.91496 0.0
H824 H -2.80296 2.53868 0.84697 0.0
H825 H -2.7766 2.55308 0.79125 0.0
C826 C 0.00445 0.23467 0.7799 0.0
C827 C -0.04441 0.27471 0.74059 0.0
C828 C 0.08746 0.1474 0.78203 0.0
C829 C 0.12306 0.09879 0.74465 0.0
C830 C 0.07764 0.1385 0.70323 0.0
C831 C -0.00601 0.22608 0.70137 0.0
C832 C -2.68846 2.5507 0.75318 0.0
C833 C -2.70181 2.53983 0.78292 0.0
C834 C -2.61113 2.48075 0.72941 0.0
C835 C -2.58976 2.48647 0.70174 0.0
C836 C -2.55436 2.45048 0.65693 0.0
C837 C -2.52649 2.44848 0.63283 0.0
C838 C -2.53385 2.48246 0.6531 0.0
C839 C -2.56959 2.51901 0.69742 0.0
C840 C -2.59755 2.52119 0.72167 0.0
C841 C -2.47248 2.2311 0.74225 0.0
C842 C -2.38987 2.15739 0.75747 0.0
C843 C -2.53001 2.3077 0.74431 0.0
C844 C -2.50554 2.31165 0.76092 0.0
C845 C -2.42304 2.23822 0.77581 0.0
C846 C -2.36583 2.16181 0.77434 0.0
C847 C -2.56624 2.39264 0.76185 0.0
C848 C -2.551 2.40237 0.73384 0.0
C849 C -2.64124 2.46145 0.78803 0.0
C850 C -2.65732 2.45281 0.82122 0.0
C851 C -2.59948 2.39223 0.85658 0.0
C852 C -2.61479 2.38431 0.88787 0.0
C853 C -2.68804 2.43701 0.88437 0.0
C854 C -2.74618 2.49782 0.84959 0.0
C855 C -2.73111 2.50593 0.81816 0.0
H856 H -2.69983 2.43085 0.90866 0.0
H857 H -2.51209 2.48069 0.63439 0.0
H858 H -0.67325 0.77446 0.17994 0.0
H859 H -0.58387 0.71099 0.11903 0.0
H860 H -0.80352 0.94711 0.04697 0.0
H861 H -0.89245 1.00997 0.10744 0.0
H862 H -0.69949 0.83664 0.98527 0.0
H863 H -0.69443 0.88556 0.12476 0.0
H864 H -0.67664 0.87733 0.20883 0.0
H865 H -0.41199 0.61377 0.19522 0.0
H866 H -0.42856 0.62064 0.11114 0.0
H867 H -0.49385 0.74385 0.8408 0.0
H868 H -0.58794 0.81507 0.90275 0.0
H869 H -0.37384 0.58643 0.98216 0.0
H870 H -0.28062 0.51756 0.92165 0.0
H871 H -0.47864 0.69763 0.04089 0.0
H872 H -0.49254 0.65587 0.89791 0.0
H873 H -0.51921 0.67445 0.81415 0.0
H874 H -0.77908 0.93836 0.83515 0.0
H875 H -0.7537 0.92268 0.91875 0.0
C876 C -0.70264 0.81225 0.15068 0.0
C877 C -0.79029 0.89791 0.14964 0.0
C878 C -0.65129 0.77606 0.11582 0.0
C879 C -0.68642 0.82477 0.07884 0.0
C880 C -0.77419 0.90801 0.07524 0.0
C881 C -0.82529 0.94397 0.11002 0.0
C882 C -0.63285 0.79161 0.04576 0.0
C883 C -0.65401 0.80933 0.99755 0.0
C884 C -0.57322 0.75591 0.06139 0.0
C885 C -0.56295 0.75288 0.11173 0.0
C886 C -0.63253 0.82562 0.13972 0.0
C887 C -0.6227 0.82135 0.18742 0.0
C888 C -0.54336 0.74493 0.20747 0.0
C889 C -0.47357 0.67286 0.17976 0.0
C890 C -0.48318 0.67687 0.13208 0.0
C891 C -0.46704 0.7104 0.87266 0.0
C892 C -0.3796 0.62573 0.87685 0.0
C893 C -0.52093 0.7505 0.90775 0.0
C894 C -0.48873 0.70577 0.94695 0.0
C895 C -0.40119 0.62295 0.95255 0.0
C896 C -0.34755 0.58363 0.91803 0.0
C897 C -0.54451 0.74174 0.98018 0.0
C898 C -0.5239 0.72469 0.02855 0.0
C899 C -0.60583 0.7795 0.96472 0.0
C900 C -0.62099 0.78818 0.91459 0.0
C901 C -0.5553 0.71798 0.88469 0.0
C902 C -0.57014 0.72796 0.83721 0.0
C903 C -0.65064 0.80716 0.81936 0.0
C904 C -0.71667 0.87695 0.84898 0.0
C905 C -0.70204 0.86769 0.89639 0.0
H906 H -0.66178 0.81441 0.78257 0.0
H907 H -0.53587 0.74168 0.24442 0.0
H908 H 0.11822 0.69143 0.62875 0.0
H909 H 0.10285 0.74195 0.56738 0.0
H910 H 0.32561 0.57507 0.61513 0.0
H911 H 0.34316 0.52199 0.67568 0.0
H912 H -0.82539 0.75441 0.59717 0.0
H913 H 0.35681 0.51504 0.52338 0.0
H914 H 0.40333 0.42323 0.49876 0.0
H915 H 0.17728 0.62501 0.42044 0.0
H916 H 0.12923 0.71818 0.4448 0.0
H917 H -0.74609 0.76659 0.38992 0.0
H918 H -0.7472 0.73979 0.46223 0.0
H919 H -0.93882 0.86523 0.40613 0.0
H920 H -0.9386 0.89295 0.33421 0.0
H921 H 0.20075 0.70353 0.43027 0.0
H922 H -0.97542 0.94028 0.50041 0.0
H923 H -1.01942 1.02955 0.52701 0.0
H924 H -0.80271 0.83117 0.61439 0.0
H925 H -0.75597 0.7397 0.5871 0.0
C926 C 0.16426 0.66508 0.62617 0.0
C927 C 0.23219 0.60218 0.65723 0.0
C928 C 0.15532 0.69415 0.591 0.0
C929 C 0.21292 0.66259 0.58653 0.0
C930 C 0.28019 0.60065 0.61783 0.0
C931 C 0.29035 0.57003 0.65234 0.0
C932 C 0.20298 0.69385 0.54882 0.0
C933 C -0.8186 0.74242 0.56065 0.0
C934 C 0.21047 0.67949 0.50113 0.0
C935 C 0.23896 0.62386 0.48637 0.0
C936 C 0.31669 0.54004 0.50123 0.0
C937 C 0.34351 0.48764 0.48719 0.0
C938 C 0.29319 0.51833 0.45818 0.0
C939 C 0.21616 0.60134 0.44295 0.0
C940 C 0.18918 0.65392 0.45678 0.0
C941 C -0.79205 0.79293 0.39394 0.0
C942 C -0.8424 0.83216 0.35597 0.0
C943 C -0.79162 0.77621 0.43523 0.0
C944 C -0.84181 0.79875 0.43953 0.0
C945 C -0.89862 0.84604 0.40368 0.0
C946 C -0.89959 0.86333 0.36275 0.0
C947 C -0.82891 0.76549 0.47834 0.0
C948 C 0.19368 0.71598 0.4667 0.0
C949 C -0.83495 0.77865 0.52617 0.0
C950 C -0.86164 0.83273 0.54133 0.0
C951 C -0.93639 0.91515 0.52473 0.0
C952 C -0.96195 0.96626 0.54 0.0
C953 C -0.9138 0.93599 0.5723 0.0
C954 C -0.83991 0.8545 0.58933 0.0
C955 C -0.81372 0.80293 0.57386 0.0
H956 H -0.93378 0.9757 0.58418 0.0
H957 H 0.31401 0.4777 0.44738 0.0
H958 H -1.89816 2.30887 0.17864 0.0
H959 H -1.98956 2.41305 0.11737 0.0
H960 H -1.9392 2.29007 0.03538 0.0
H961 H -1.84266 2.18259 0.09401 0.0
H962 H -1.97731 2.36291 0.97838 0.0
H963 H -2.12394 2.47733 0.1169 0.0
H964 H -2.16518 2.51985 0.19968 0.0
H965 H 0.6573 0.12728 0.18086 0.0
H966 H 0.69956 0.08446 0.0981 0.0
H967 H 0.55091 0.16624 0.83214 0.0
H968 H 0.64125 0.06444 0.89546 0.0
H969 H 0.61035 0.1746 0.96547 0.0
H970 H 0.51645 0.27881 0.90377 0.0
H971 H 0.63692 0.1104 0.0288 0.0
H972 H -2.1013 2.52987 0.88331 0.0
H973 H -2.06485 2.48543 0.80106 0.0
H974 H -2.00937 2.34616 0.8357 0.0
H975 H -2.04707 2.39097 0.9178 0.0
C976 C -1.90392 2.30208 0.14685 0.0
C977 C -1.86343 2.23734 0.14209 0.0
C978 C -1.95824 2.3633 0.11197 0.0
C979 C -1.97564 2.36301 0.07208 0.0
C980 C -1.92905 2.29391 0.06563 0.0
C981 C -1.87312 2.23168 0.09959 0.0
C982 C -2.04364 2.43477 0.03781 0.0
C983 C -2.03879 2.42782 0.98984 0.0
C984 C -2.12467 2.52058 0.05169 0.0
C985 C -2.15007 2.5464 0.10142 0.0
C986 C -2.1457 2.51813 0.13049 0.0
C987 C -2.16925 2.54228 0.1774 0.0
C988 C 0.68546 0.05669 0.19552 0.0
C989 C 0.67993 0.08592 0.16677 0.0
C990 C 0.70373 0.06168 0.11987 0.0
C991 C 0.56023 0.17108 0.86224 0.0
C992 C 0.52426 0.23236 0.86364 0.0
C993 C 0.61375 0.11143 0.89804 0.0
C994 C 0.63566 0.10922 0.93508 0.0
C995 C 0.5955 0.17379 0.93764 0.0
C996 C 0.54074 0.23431 0.90247 0.0
C997 C 0.70324 0.03811 0.96965 0.0
C998 C 0.69839 0.04532 0.01761 0.0
C999 C -2.10036 2.49118 0.95593 0.0
C1000 C -2.07771 2.46443 0.90653 0.0
C1001 C -2.08171 2.49013 0.87324 0.0
C1002 C -2.06085 2.4649 0.82672 0.0
C1003 C -2.03481 2.4131 0.81319 0.0
C1004 C -2.02962 2.38637 0.84618 0.0
C1005 C -2.05083 2.41174 0.89268 0.0
H1006 H -2.0186 2.39365 0.77714 0.0
H1007 H 0.66706 0.07548 0.23181 0.0
H1008 H -1.12593 1.64156 0.67139 0.0
H1009 H -1.20593 1.69367 0.60922 0.0
H1010 H -1.33436 1.89371 0.58244 0.0
H1011 H -1.24959 1.83779 0.64207 0.0
H1012 H -1.43333 1.92448 0.59861 0.0
H1013 H -1.22885 1.78778 0.50692 0.0
H1014 H -1.0836 1.66529 0.48816 0.0
H1015 H -1.01865 1.51625 0.46371 0.0
H1016 H -1.16337 1.63771 0.48306 0.0
H1017 H -1.66664 2.12011 0.39251 0.0
H1018 H -1.5898 2.06187 0.46144 0.0
H1019 H -1.37611 1.81215 0.41337 0.0
H1020 H -1.45135 1.87143 0.34147 0.0
H1021 H -1.3157 1.79913 0.44015 0.0
H1022 H -1.51815 1.93261 0.52036 0.0
H1023 H -1.65651 2.04472 0.54532 0.0
H1024 H -1.72038 2.18775 0.59934 0.0
H1025 H -1.5832 2.07743 0.57385 0.0
C1026 C -1.17081 1.69643 0.65224 0.0
C1027 C -1.18328 1.7373 0.66317 0.0
C1028 C -1.21682 1.72634 0.6167 0.0
C1029 C -1.27724 1.79844 0.59151 0.0
C1030 C -1.28919 1.8388 0.60185 0.0
C1031 C -1.24157 1.80755 0.63651 0.0
C1032 C -1.32683 1.83081 0.55394 0.0
C1033 C -1.40838 1.89797 0.56373 0.0
C1034 C -1.29301 1.79393 0.50907 0.0
C1035 C -1.2065 1.72141 0.49699 0.0
C1036 C -1.18335 1.72864 0.49802 0.0
C1037 C -1.1012 1.65948 0.48717 0.0
C1038 C -1.04185 1.58294 0.4749 0.0
C1039 C -1.06463 1.57552 0.4733 0.0
C1040 C -1.1467 1.64449 0.48418 0.0
C1041 C -1.60456 2.05289 0.39753 0.0
C1042 C -1.56623 2.00066 0.36186 0.0
C1043 C -1.55996 2.01911 0.43739 0.0
C1044 C -1.47636 1.93174 0.44409 0.0
C1045 C -1.44004 1.87965 0.40974 0.0
C1046 C -1.48374 1.91354 0.36884 0.0
C1047 C -1.42478 1.89506 0.48394 0.0
C1048 C -1.342 1.8264 0.47483 0.0
C1049 C -1.45731 1.92981 0.52989 0.0
C1050 C -1.54052 1.99694 0.54467 0.0
C1051 C -1.56198 1.98832 0.53712 0.0
C1052 C -1.64023 2.05157 0.55141 0.0
C1053 C -1.69731 2.12343 0.57374 0.0
C1054 C -1.67624 2.13218 0.58189 0.0
C1055 C -1.59824 2.06931 0.5675 0.0
H1056 H -1.75778 2.17223 0.58484 0.0
H1057 H -0.97828 1.52946 0.46651 0.0
H1058 H -1.06996 1.80714 0.82 0.0
H1059 H -2.07091 1.84132 0.88451 0.0
H1060 H -1.05614 1.75692 0.98114 0.0
H1061 H -1.06204 1.72863 0.9155 0.0
H1062 H -1.17019 1.89514 1.00979 0.0
H1063 H -0.8954 1.66343 0.96404 0.0
H1064 H -0.78055 1.56956 0.91097 0.0
H1065 H -1.9142 1.77171 0.87467 0.0
H1066 H -2.03035 1.8671 0.92703 0.0
H1067 H -2.16327 1.98681 0.2013 0.0
H1068 H -2.14617 1.93345 0.14304 0.0
H1069 H -2.1503 2.00117 0.03443 0.0
H1070 H -2.1593 2.04721 0.0938 0.0
H1071 H -2.03983 1.86853 1.01641 0.0
H1072 H -2.31444 2.09091 0.06 0.0
H1073 H -2.42443 2.17381 0.11107 0.0
H1074 H -1.25389 1.94814 0.15601 0.0
H1075 H -1.14339 1.86422 0.10528 0.0
C1076 C -1.06374 1.79277 0.85492 0.0
C1077 C -1.06573 1.76485 0.86241 0.0
C1078 C -1.06394 1.81224 0.89219 0.0
C1079 C -1.06312 1.8017 0.93846 0.0
C1080 C -1.05726 1.76634 0.94598 0.0
C1081 C -1.05891 1.74842 0.90836 0.0
C1082 C -1.07922 1.83748 0.97805 0.0
C1083 C -1.14021 1.88775 1.01155 0.0
C1084 C -2.04195 1.82996 0.98063 0.0
C1085 C -1.97186 1.77257 0.94931 0.0
C1086 C -0.90054 1.68801 0.94455 0.0
C1087 C -1.83516 1.6345 0.91461 0.0
C1088 C -1.84014 1.66469 0.88942 0.0
C1089 C -1.91041 1.7484 0.89421 0.0
C1090 C -1.97598 1.80218 0.92408 0.0
C1091 C -2.16469 1.99417 0.16487 0.0
C1092 C -2.16455 2.02316 0.1523 0.0
C1093 C -2.15453 1.96305 0.1311 0.0
C1094 C -2.14719 1.96292 0.08339 0.0
C1095 C -2.15481 1.99917 0.07069 0.0
C1096 C -2.16192 2.0275 0.10465 0.0
C1097 C -2.12246 1.91738 0.04744 0.0
C1098 C -2.06991 1.87605 1.01464 0.0
C1099 C -2.15625 1.92104 0.0461 0.0
C1100 C -2.22078 1.97151 0.0792 0.0
C1101 C -2.30033 2.05912 0.0812 0.0
C1102 C -2.3628 2.10619 0.10978 0.0
C1103 C -1.3459 2.06598 0.13647 0.0
C1104 C -1.26669 1.97894 0.13517 0.0
C1105 C -1.20433 1.93174 0.10652 0.0
H1106 H -1.39385 2.10186 0.15825 0.0
H1107 H -1.78949 1.62318 0.86624 0.0
H1108 H 0.12134 0.21654 0.69883 0.0
H1109 H 0.22454 0.10656 0.63991 0.0
H1110 H 0.04655 0.21656 0.57654 0.0
H1111 H -0.05557 0.32447 0.63774 0.0
H1112 H 0.17969 0.06778 0.56254 0.0
H1113 H 0.1137 0.22841 0.53396 0.0
H1114 H 0.09524 0.29684 0.55341 0.0
H1115 H 0.3542 0.05902 0.59195 0.0
H1116 H -2.50984 2.52821 0.57318 0.0
H1117 H -2.45266 2.43037 0.34511 0.0
H1118 H -2.53761 2.51669 0.41377 0.0
H1119 H -2.45002 2.35347 0.46755 0.0
H1120 H -2.37229 2.27212 0.39476 0.0
H1121 H -2.53024 2.51959 0.49203 0.0
H1122 H -2.5446 2.42012 0.55269 0.0
H1123 H -2.54923 2.37427 0.52608 0.0
H1124 H -2.68769 2.52975 0.40534 0.0
H1125 H 0.20262 0.03539 0.43048 0.0
C1126 C 0.10401 0.21745 0.67235 0.0
C1127 C 0.02395 0.28023 0.67297 0.0
C1128 C 0.16338 0.15426 0.63804 0.0
C1129 C 0.14426 0.15276 0.60202 0.0
C1130 C 0.06441 0.21486 0.60331 0.0
C1131 C 0.00543 0.27723 0.63839 0.0
C1132 C 0.20649 0.08779 0.56305 0.0
C1133 C 0.21656 0.05002 0.54674 0.0
C1134 C 0.25642 0.0624 0.54171 0.0
C1135 C 0.24508 0.10385 0.55254 0.0
C1136 C 0.16659 0.19082 0.54674 0.0
C1137 C 0.15591 0.2298 0.55765 0.0
C1138 C 0.22346 0.18233 0.57401 0.0
C1139 C 0.30192 0.09571 0.57933 0.0
C1140 C 0.31293 0.05642 0.5685 0.0
C1141 C -2.4509 2.41207 0.37132 0.0
C1142 C -2.40581 2.34414 0.36317 0.0
C1143 C -2.50005 2.46212 0.41142 0.0
C1144 C -2.50381 2.44478 0.44675 0.0
C1145 C -2.45306 2.37243 0.44065 0.0
C1146 C -2.40599 2.32375 0.39919 0.0
C1147 C -2.56043 2.503 0.48899 0.0
C1148 C -2.56845 2.53859 0.50676 0.0
C1149 C -2.61125 2.52926 0.5099 0.0
C1150 C -2.6114 2.49951 0.49313 0.0
C1151 C -2.5753 2.44386 0.52025 0.0
C1152 C -2.57784 2.41779 0.50529 0.0
C1153 C -2.6179 2.4484 0.46371 0.0
C1154 C -2.65533 2.50501 0.43701 0.0
C1155 C -2.65166 2.53015 0.4514 0.0
H1156 H -2.62041 2.42869 0.45234 0.0
H1157 H 0.21504 0.21264 0.5825 0.0
H1158 H -1.24173 1.75651 0.83126 0.0
H1159 H -1.34598 1.83818 0.88929 0.0
H1160 H -1.30677 1.87817 0.9692 0.0
H1161 H -1.20596 1.80034 0.91062 0.0
H1162 H -1.29628 1.80483 1.01398 0.0
H1163 H -1.45293 2.02261 0.92788 0.0
H1164 H -1.52092 2.109 0.86051 0.0
H1165 H -1.67677 2.18154 0.8435 0.0
H1166 H -1.6055 2.09076 0.90864 0.0
H1167 H -1.68538 2.17952 0.16065 0.0
H1168 H -1.60467 2.11948 0.09244 0.0
H1169 H -1.51512 1.94916 0.07131 0.0
H1170 H -1.59601 2.00918 0.13918 0.0
H1171 H -1.60417 2.10368 0.99632 0.0
H1172 H -1.29885 1.75325 0.05401 0.0
H1173 H -1.23809 1.67678 0.1263 0.0
H1174 H -1.36806 1.86291 0.20658 0.0
H1175 H -1.42816 1.93946 0.13479 0.0
C1176 C -1.25543 1.78268 0.86132 0.0
C1177 C -1.21564 1.77188 0.86672 0.0
C1178 C -1.31536 1.82983 0.89409 0.0
C1179 C -1.33494 1.86525 0.93308 0.0
C1180 C -1.29335 1.8523 0.93906 0.0
C1181 C -1.23563 1.80761 0.90572 0.0
C1182 C -1.39552 1.91225 0.96906 0.0
C1183 C -1.3636 1.86991 1.00983 0.0
C1184 C -1.48343 1.99786 0.96407 0.0
C1185 C -1.52182 2.04755 0.92254 0.0
C1186 C -1.49929 2.05421 0.90877 0.0
C1187 C -1.53885 2.10448 0.87101 0.0
C1188 C -1.60255 2.15008 0.84735 0.0
C1189 C -1.62657 2.14526 0.86132 0.0
C1190 C -1.58615 2.09389 0.89847 0.0
C1191 C -1.64986 2.13045 0.14089 0.0
C1192 C -1.64648 2.09859 0.15561 0.0
C1193 C -1.60396 2.09638 0.10184 0.0
C1194 C -1.55312 2.0292 0.0771 0.0
C1195 C -1.5535 2.00059 0.09009 0.0
C1196 C -1.60013 2.03528 0.12878 0.0
C1197 C -1.49424 1.98429 0.04045 0.0
C1198 C -1.53686 2.03819 0.99989 0.0
C1199 C -1.40639 1.89935 0.04572 0.0
C1200 C -1.36879 1.85257 0.08903 0.0
C1201 C -1.3141 1.77759 0.08708 0.0
C1202 C -1.27978 1.73424 0.12797 0.0
C1203 C -1.29944 1.76513 0.17102 0.0
C1204 C -1.3531 1.83919 0.17325 0.0
C1205 C -1.38735 1.8826 0.13246 0.0
H1206 H -1.27295 1.73157 0.20264 0.0
H1207 H -1.63379 2.18972 0.8185 0.0
H1208 H -2.08596 1.90745 0.33157 0.0
H1209 H -2.07106 1.85904 0.39465 0.0
H1210 H -2.17716 2.01977 0.49126 0.0
H1211 H -2.196 2.07207 0.42693 0.0
H1212 H -1.9917 1.80755 0.50124 0.0
H1213 H -2.29674 2.09877 0.48764 0.0
H1214 H -2.44224 2.24219 0.44231 0.0
H1215 H -1.35192 2.04637 0.38199 0.0
H1216 H -1.21421 1.9269 0.43588 0.0
H1217 H -1.01174 1.73713 0.69827 0.0
H1218 H -1.01471 1.77466 0.63559 0.0
H1219 H -1.10043 1.78982 0.54084 0.0
H1220 H -1.10526 1.7602 0.60564 0.0
H1221 H -1.19408 1.91908 0.5283 0.0
H1222 H -0.89778 1.63716 0.5334 0.0
H1223 H -0.75638 1.50408 0.56747 0.0
H1224 H -1.79606 1.62631 0.62047 0.0
H1225 H -1.93819 1.76046 0.58729 0.0
C1226 C -2.10638 1.9328 0.36625 0.0
C1227 C -2.14198 1.99338 0.37454 0.0
C1228 C -2.098 1.90519 0.40213 0.0
C1229 C -2.12445 1.93699 0.44725 0.0
C1230 C -2.15812 1.99598 0.45625 0.0
C1231 C -2.16879 2.02569 0.41975 0.0
C1232 C -2.11305 1.90484 0.48454 0.0
C1233 C -2.03663 1.83291 0.50827 0.0
C1234 C -2.16948 1.9349 0.4908 0.0
C1235 C -2.24806 2.00655 0.46359 0.0
C1236 C -2.31451 2.09802 0.46517 0.0
C1237 C -2.40752 2.18987 0.43743 0.0
C1238 C -2.44798 2.2017 0.40257 0.0
C1239 C -1.34799 2.06326 0.40006 0.0
C1240 C -1.26157 1.98794 0.43378 0.0
C1241 C -1.0275 1.74468 0.66355 0.0
C1242 C -1.05728 1.74478 0.65668 0.0
C1243 C -1.02949 1.76653 0.62746 0.0
C1244 C -1.05769 1.78526 0.58286 0.0
C1245 C -1.07909 1.77656 0.57483 0.0
C1246 C -1.07966 1.75728 0.61156 0.0
C1247 C -1.07253 1.82169 0.5466 0.0
C1248 C -1.14907 1.89373 0.52224 0.0
C1249 C -2.01468 1.7898 0.5383 0.0
C1250 C -0.92899 1.70909 0.55817 0.0
C1251 C -0.87659 1.63582 0.55259 0.0
C1252 C -0.79626 1.56016 0.57171 0.0
C1253 C -0.76733 1.55678 0.5962 0.0
C1254 C -1.81858 1.62903 0.60152 0.0
C1255 C -1.899 1.70488 0.58251 0.0
H1256 H -0.70513 1.49815 0.61099 0.0
H1257 H -2.50826 2.26273 0.38614 0.0
H1258 H -0.044 0.30421 0.8898 0.0
H1259 H 0.06401 0.18818 0.94457 0.0
H1260 H 0.187 0.15401 0.92694 0.0
H1261 H 0.08123 0.26757 0.87023 0.0
H1262 H -2.58352 2.5465 0.92634 0.0
H1263 H 0.07851 0.23621 0.0263 0.0
H1264 H -0.06589 0.36959 0.05708 0.0
H1265 H -0.03586 0.25163 0.08438 0.0
H1266 H 0.10825 0.11785 0.0529 0.0
H1267 H -2.33043 2.29289 0.13989 0.0
H1268 H -2.41607 2.38792 0.07298 0.0
H1269 H -2.52603 2.40712 0.06876 0.0
H1270 H -2.44059 2.3124 0.1351 0.0
H1271 H -2.64269 2.5597 0.08091 0.0
H1272 H -2.42017 2.33104 0.97952 0.0
H1273 H -2.27409 2.19736 0.95173 0.0
H1274 H -2.30489 2.31671 0.93123 0.0
H1275 H -2.45091 2.45094 0.95956 0.0
C1276 C 0.00609 0.27199 0.89733 0.0
C1277 C 0.01002 0.29507 0.875 0.0
C1278 C 0.06763 0.20589 0.92916 0.0
C1279 C 0.1337 0.16235 0.94046 0.0
C1280 C 0.13698 0.18622 0.91886 0.0
C1281 C 0.07592 0.25178 0.88659 0.0
C1282 C 0.2001 0.09098 0.97397 0.0
C1283 C -2.59896 2.55241 0.96041 0.0
C1284 C 0.19115 0.08634 0.01826 0.0
C1285 C 0.10399 0.16713 0.03669 0.0
C1286 C 0.05408 0.23887 0.03838 0.0
C1287 C -0.02771 0.31455 0.05603 0.0
C1288 C -0.06012 0.31915 0.07252 0.0
C1289 C -0.01075 0.24803 0.07146 0.0
C1290 C 0.07099 0.17226 0.05371 0.0
C1291 C -2.36939 2.31374 0.1229 0.0
C1292 C -2.37759 2.2939 0.14184 0.0
C1293 C -2.41917 2.36891 0.08508 0.0
C1294 C -2.47806 2.40525 0.06605 0.0
C1295 C -2.4813 2.38013 0.08286 0.0
C1296 C -2.43153 2.325 0.12031 0.0
C1297 C -2.54317 2.47658 0.03292 0.0
C1298 C -2.62757 2.55408 0.04677 0.0
C1299 C -2.53391 2.48142 0.98923 0.0
C1300 C -2.4462 2.40083 0.97215 0.0
C1301 C -2.39557 2.32862 0.96951 0.0
C1302 C -2.31282 2.25277 0.95357 0.0
C1303 C -2.28015 2.24848 0.93985 0.0
C1304 C -2.33024 2.3201 0.94193 0.0
C1305 C -2.41303 2.39609 0.9579 0.0
H1306 H -2.21607 2.1897 0.9275 0.0
H1307 H -0.1234 0.37776 0.08624 0.0
H1308 H -0.28245 0.54585 0.61415 0.0
H1309 H -0.37328 0.6157 0.54998 0.0
H1310 H -0.56872 0.77926 0.64907 0.0
H1311 H -0.47846 0.70983 0.71269 0.0
H1312 H -0.52438 0.69143 0.59609 0.0
H1313 H -0.59664 0.85835 0.57199 0.0
H1314 H -0.56669 0.88119 0.55767 0.0
H1315 H -0.44563 0.74588 0.42821 0.0
H1316 H -0.47379 0.72116 0.4421 0.0
H1317 H -0.84446 0.99001 0.39165 0.0
H1318 H -0.76841 0.94318 0.45334 0.0
H1319 H -0.57092 0.69463 0.44392 0.0
H1320 H -0.64786 0.74169 0.3831 0.0
H1321 H -0.61842 0.82815 0.45177 0.0
H1322 H -0.47893 0.60023 0.54194 0.0
H1323 H -0.51074 0.57881 0.55006 0.0
H1324 H -0.7744 0.84533 0.54875 0.0
H1325 H -0.74386 0.868 0.54031 0.0
C1326 C -0.34637 0.59964 0.62179 0.0
C1327 C -0.37422 0.62368 0.66816 0.0
C1328 C -0.39789 0.63884 0.58524 0.0
C1329 C -0.4776 0.70224 0.59478 0.0
C1330 C -0.50746 0.73034 0.64086 0.0
C1331 C -0.45634 0.69151 0.67713 0.0
C1332 C -0.52635 0.73307 0.55807 0.0
C1333 C -0.54505 0.72154 0.56464 0.0
C1334 C -0.55313 0.77197 0.51685 0.0
C1335 C -0.53662 0.78722 0.50831 0.0
C1336 C -0.56302 0.83286 0.54066 0.0
C1337 C -0.54649 0.84627 0.53258 0.0
C1338 C -0.5041 0.81483 0.49211 0.0
C1339 C -0.47837 0.77012 0.45957 0.0
C1340 C -0.49467 0.75646 0.4675 0.0
C1341 C -0.78565 0.92576 0.40338 0.0
C1342 C -0.75273 0.86983 0.38269 0.0
C1343 C -0.74175 0.89885 0.43833 0.0
C1344 C -0.6638 0.81536 0.45339 0.0
C1345 C -0.63148 0.75971 0.43346 0.0
C1346 C -0.67586 0.78684 0.39884 0.0
C1347 C -0.6167 0.78688 0.49004 0.0
C1348 C -0.59787 0.79829 0.48335 0.0
C1349 C -0.59007 0.74827 0.53137 0.0
C1350 C -0.60908 0.73569 0.54058 0.0
C1351 C -0.54363 0.65419 0.54412 0.0
C1352 C -0.5615 0.64186 0.54858 0.0
C1353 C -0.64465 0.71069 0.55035 0.0
C1354 C -0.71006 0.792 0.54771 0.0
C1355 C -0.69252 0.80464 0.54295 0.0
H1356 H -0.65838 0.701 0.55354 0.0
H1357 H -0.49135 0.82526 0.48593 0.0
H1358 H -0.91952 0.90401 0.15662 0.0
H1359 H -0.93329 0.8855 0.08839 0.0
H1360 H -0.67967 0.66687 0.04721 0.0
H1361 H -0.66516 0.68401 0.11612 0.0
H1362 H -0.81811 0.79319 0.97017 0.0
H1363 H -0.6893 0.62109 0.10393 0.0
H1364 H 0.31037 0.60611 0.18619 0.0
H1365 H 0.07132 0.79066 0.16788 0.0
H1366 H 0.0698 0.80732 0.08553 0.0
H1367 H 0.35187 0.49216 0.88598 0.0
H1368 H 0.32684 0.55427 0.94133 0.0
H1369 H 0.06749 0.80128 0.90166 0.0
H1370 H 0.09269 0.73998 0.84408 0.0
H1371 H 0.18097 0.69144 1.01446 0.0
H1372 H -0.93181 0.84607 0.87548 0.0
H1373 H -0.92608 0.85688 0.7941 0.0
H1374 H -0.70331 0.69531 0.82299 0.0
H1375 H -0.70453 0.67893 0.90377 0.0
C1376 C -0.86812 0.85424 0.13186 0.0
C1377 C -0.79197 0.79651 0.14081 0.0
C1378 C -0.8757 0.84322 0.09323 0.0
C1379 C -0.80746 0.7748 0.06281 0.0
C1380 C -0.73326 0.72048 0.07001 0.0
C1381 C -0.72517 0.73055 0.10912 0.0
C1382 C -0.80977 0.7541 0.0269 0.0
C1383 C -0.8187 0.77129 0.97964 0.0
C1384 C 0.18865 0.72635 0.03947 0.0
C1385 C 0.1896 0.71627 0.08884 0.0
C1386 C 0.25769 0.65908 0.11759 0.0
C1387 C 0.25795 0.65014 0.16418 0.0
C1388 C 0.19075 0.69768 0.18233 0.0
C1389 C 0.12323 0.75405 0.15383 0.0
C1390 C 0.12266 0.76321 0.10719 0.0
C1391 C 0.29018 0.55974 0.88771 0.0
C1392 C 0.2254 0.6108 0.85901 0.0
C1393 C 0.27598 0.59538 0.91931 0.0
C1394 C 0.19686 0.68281 0.92296 0.0
C1395 C 0.13054 0.73395 0.89691 0.0
C1396 C 0.14486 0.69849 0.86464 0.0
C1397 C 0.18286 0.71941 0.95723 0.0
C1398 C 0.17935 0.71537 1.00458 0.0
C1399 C -0.81796 0.74956 0.94445 0.0
C1400 C -0.81516 0.75659 0.89513 0.0
C1401 C -0.87896 0.80898 0.86397 0.0
C1402 C -0.877 0.81686 0.81793 0.0
C1403 C -0.81296 0.77485 0.80296 0.0
C1404 C -0.75135 0.72567 0.83417 0.0
C1405 C -0.75234 0.71655 0.88001 0.0
H1406 H -0.81211 0.78183 0.76747 0.0
H1407 H 0.19117 0.6906 0.21842 0.0
H1408 H 0.57722 0.15088 0.69844 0.0
H1409 H 0.65361 0.05814 0.63347 0.0
H1410 H 0.48627 0.25711 0.53717 0.0
H1411 H 0.41213 0.34924 0.60322 0.0
H1412 H 0.64428 0.03487 0.56537 0.0
H1413 H 0.5994 0.1711 0.43837 0.0
H1414 H 0.55882 0.26023 0.43824 0.0
H1415 H 0.64278 0.18991 0.57938 0.0
H1416 H 0.68465 0.0997 0.58015 0.0
H1417 H -2.01409 2.33443 0.35636 0.0
H1418 H -2.11813 2.44311 0.41593 0.0
H1419 H -1.97059 2.37635 0.46143 0.0
H1420 H -1.86665 2.26835 0.40059 0.0
H1421 H -2.12755 2.5396 0.45301 0.0
H1422 H -1.98807 2.33026 0.52665 0.0
H1423 H -1.92895 2.22606 0.53262 0.0
H1424 H -2.17267 2.41909 0.51032 0.0
H1425 H -2.23309 2.52434 0.50363 0.0
C1426 C 0.55441 0.176 0.66345 0.0
C1427 C 0.48854 0.25723 0.65578 0.0
C1428 C 0.59863 0.12263 0.62612 0.0
C1429 C 0.57755 0.14944 0.58009 0.0
C1430 C 0.50535 0.23402 0.57231 0.0
C1431 C 0.46164 0.28742 0.61001 0.0
C1432 C 0.63656 0.08582 0.54168 0.0
C1433 C -2.21571 2.56697 0.54062 0.0
C1434 C 0.66919 0.07543 0.50952 0.0
C1435 C 0.64355 0.13005 0.50964 0.0
C1436 C 0.60899 0.17485 0.4694 0.0
C1437 C 0.586 0.22535 0.46915 0.0
C1438 C 0.59791 0.23098 0.50881 0.0
C1439 C 0.63318 0.18584 0.54876 0.0
C1440 C 0.65644 0.13512 0.54916 0.0
C1441 C -2.00277 2.34171 0.37933 0.0
C1442 C -1.93202 2.2928 0.37326 0.0
C1443 C -2.06256 2.40408 0.4136 0.0
C1444 C -2.05243 2.41813 0.44328 0.0
C1445 C -1.98008 2.36704 0.43875 0.0
C1446 C -1.92025 2.30472 0.40421 0.0
C1447 C -2.11878 2.48801 0.47786 0.0
C1448 C -2.152 2.54706 0.47767 0.0
C1449 C -2.15091 2.498 0.50997 0.0
C1450 C -2.11493 2.43501 0.51417 0.0
C1451 C -2.02894 2.35038 0.52268 0.0
C1452 C -1.99522 2.29115 0.52625 0.0
C1453 C -2.04698 2.3159 0.52172 0.0
C1454 C -2.13264 2.4 0.51375 0.0
C1455 C -2.16668 2.45949 0.51012 0.0
H1456 H -2.02075 2.26995 0.52449 0.0
H1457 H 0.57998 0.27018 0.50856 0.0
loop_
_geom_bond_atom_site_label_1
_geom_bond_atom_site_label_2
_geom_bond_distance
_geom_bond_site_symmetry_2
_ccdc_geom_bond_type
Co0 N1 2.034 . S
Co0 O15 2.262 . S
Co0 O19 1.958 . S
Co0 O23 1.950 . S
Co0 O24 2.057 . S
N1 Co0 2.034 . S
N1 C2 1.366 . S
N1 C4 1.332 1_455 S
C2 N1 1.366 . S
C2 C5 1.377 1_455 S
C2 H34 0.931 . S
N3 C4 1.346 . S
N3 C5 1.337 . S
C4 N1 1.332 1_655 S
C4 N3 1.346 . S
C4 C38 1.361 . S
C5 C2 1.377 1_655 S
C5 N3 1.337 . S
C5 H41 0.930 . S
Co6 N7 2.034 . S
Co6 O20 1.950 . S
Co6 O21 2.262 . S
Co6 O22 1.958 . S
Co6 O26 2.057 . S
N7 Co6 2.034 . S
N7 C10 1.366 . S
N7 C11 1.332 . S
N8 C9 1.337 . S
N8 C11 1.346 . S
C9 N8 1.337 . S
C9 C10 1.377 . S
C9 H42 0.930 . S
C10 N7 1.366 . S
C10 C9 1.377 . S
C10 H14 0.931 . S
C11 N7 1.332 . S
C11 N8 1.346 . S
C11 C28 1.361 . S
Co12 O15 2.097 . S
Co12 O16 2.065 . S
Co12 O17 2.065 . S
Co12 O18 2.042 . S
Co12 O21 2.097 . S
Co12 O25 2.042 . S
C13 O21 1.253 . S
C13 O26 1.263 . S
H14 C10 0.931 . S
O15 Co0 2.262 . S
O15 Co12 2.097 . S
O15 C39 1.253 . S
O16 Co12 2.065 . S
O16 C32 1.221 . S
O17 Co12 2.065 . S
O17 C27 1.221 . S
O18 Co12 2.042 . S
O18 C33 1.237 . S
O19 Co0 1.958 . S
O19 C33 1.278 . S
O20 Co6 1.950 . S
O20 C32 1.277 . S
O21 Co6 2.262 . S
O21 Co12 2.097 . S
O21 C13 1.253 . S
O22 Co6 1.958 . S
O22 C40 1.278 . S
O23 Co0 1.950 . S
O23 C27 1.277 . S
O24 Co0 2.057 . S
O24 C39 1.263 . S
O25 Co12 2.042 . S
O25 C40 1.237 . S
O26 Co6 2.057 . S
O26 C13 1.263 . S
C27 O17 1.221 . S
C27 O23 1.277 . S
C28 C11 1.361 . S
C28 H29 0.960 . S
C28 H30 0.961 . S
C28 H31 0.961 . S
H29 C28 0.960 . S
H30 C28 0.961 . S
H31 C28 0.961 . S
C32 O16 1.221 . S
C32 O20 1.277 . S
C33 O18 1.237 . S
C33 O19 1.278 . S
H34 C2 0.931 . S
H35 C38 0.961 . S
H36 C38 0.961 . S
H37 C38 0.960 . S
C38 C4 1.361 . S
C38 H35 0.961 . S
C38 H36 0.961 . S
C38 H37 0.960 . S
C39 O15 1.253 . S
C39 O24 1.263 . S
C40 O22 1.278 . S
C40 O25 1.237 . S
H41 C5 0.930 . S
H42 C9 0.930 . S
Co43 N44 2.034 . S
Co43 O58 2.262 . S
Co43 O62 1.958 . S
Co43 O66 1.950 . S
Co43 O67 2.057 . S
N44 Co43 2.034 . S
N44 C45 1.366 1_545 S
N44 C47 1.332 1_545 S
C45 N44 1.366 1_565 S
C45 C48 1.377 . S
C45 H77 0.931 . S
N46 C47 1.346 . S
N46 C48 1.337 . S
C47 N44 1.332 1_565 S
C47 N46 1.346 . S
C47 C81 1.361 1_565 S
C48 C45 1.377 . S
C48 N46 1.337 . S
C48 H84 0.930 . S
Co49 N50 2.034 . S
Co49 O63 1.950 . S
Co49 O64 2.262 . S
Co49 O65 1.958 . S
Co49 O69 2.057 . S
N50 Co49 2.034 . S
N50 C53 1.366 . S
N50 C54 1.332 . S
N51 C52 1.337 . S
N51 C54 1.346 . S
C52 N51 1.337 . S
C52 C53 1.377 . S
C52 H85 0.930 . S
C53 N50 1.366 . S
C53 C52 1.377 . S
C53 H57 0.931 . S
C54 N50 1.332 . S
C54 N51 1.346 . S
C54 C71 1.361 . S
Co55 O58 2.097 . S
Co55 O59 2.065 . S
Co55 O60 2.065 . S
Co55 O61 2.042 . S
Co55 O64 2.097 . S
Co55 O68 2.042 . S
C56 O64 1.253 . S
C56 O69 1.263 . S
H57 C53 0.931 . S
O58 Co43 2.262 . S
O58 Co55 2.097 . S
O58 C82 1.253 . S
O59 Co55 2.065 . S
O59 C75 1.221 . S
O60 Co55 2.065 . S
O60 C70 1.221 . S
O61 Co55 2.042 . S
O61 C76 1.237 . S
O62 Co43 1.958 . S
O62 C76 1.278 . S
O63 Co49 1.950 . S
O63 C75 1.277 . S
O64 Co49 2.262 . S
O64 Co55 2.097 . S
O64 C56 1.253 . S
O65 Co49 1.958 . S
O65 C83 1.278 . S
O66 Co43 1.950 . S
O66 C70 1.277 . S
O67 Co43 2.057 . S
O67 C82 1.263 . S
O68 Co55 2.042 . S
O68 C83 1.237 . S
O69 Co49 2.057 . S
O69 C56 1.263 . S
C70 O60 1.221 . S
C70 O66 1.277 . S
C71 C54 1.361 . S
C71 H72 0.960 . S
C71 H73 0.961 . S
C71 H74 0.961 . S
H72 C71 0.960 . S
H73 C71 0.961 . S
H74 C71 0.961 . S
C75 O59 1.221 . S
C75 O63 1.277 . S
C76 O61 1.237 . S
C76 O62 1.278 . S
H77 C45 0.931 . S
H78 C81 0.961 . S
H79 C81 0.961 1_565 S
H80 C81 0.960 . S
C81 C47 1.361 1_545 S
C81 H78 0.961 . S
C81 H79 0.961 1_545 S
C81 H80 0.960 . S
C82 O58 1.253 . S
C82 O67 1.263 . S
C83 O65 1.278 . S
C83 O68 1.237 . S
H84 C48 0.930 . S
H85 C52 0.930 . S
Co86 N87 2.034 . S
Co86 O101 2.262 . S
Co86 O105 1.958 . S
Co86 O109 1.950 . S
Co86 O110 2.057 . S
N87 Co86 2.034 . S
N87 C88 1.366 . S
N87 C90 1.332 . S
C88 N87 1.366 . S
C88 C91 1.377 . S
C88 H120 0.931 . S
N89 C90 1.346 . S
N89 C91 1.337 . S
C90 N87 1.332 . S
C90 N89 1.346 . S
C90 C124 1.361 . S
C91 C88 1.377 . S
C91 N89 1.337 . S
C91 H127 0.930 . S
Co92 N93 2.034 . S
Co92 O106 1.950 . S
Co92 O107 2.262 . S
Co92 O108 1.958 . S
Co92 O112 2.057 . S
N93 Co92 2.034 . S
N93 C96 1.366 . S
N93 C97 1.332 . S
N94 C95 1.337 . S
N94 C97 1.346 . S
C95 N94 1.337 . S
C95 C96 1.377 . S
C95 H128 0.930 . S
C96 N93 1.366 . S
C96 C95 1.377 . S
C96 H100 0.931 . S
C97 N93 1.332 . S
C97 N94 1.346 . S
C97 C114 1.361 . S
Co98 O101 2.097 . S
Co98 O102 2.065 . S
Co98 O103 2.065 . S
Co98 O104 2.042 . S
Co98 O107 2.097 . S
Co98 O111 2.042 . S
C99 O107 1.253 . S
C99 O112 1.263 . S
H100 C96 0.931 . S
O101 Co86 2.262 . S
O101 Co98 2.097 . S
O101 C125 1.253 . S
O102 Co98 2.065 . S
O102 C118 1.221 . S
O103 Co98 2.065 . S
O103 C113 1.221 . S
O104 Co98 2.042 . S
O104 C119 1.237 . S
O105 Co86 1.958 . S
O105 C119 1.278 . S
O106 Co92 1.950 . S
O106 C118 1.277 . S
O107 Co92 2.262 . S
O107 Co98 2.097 . S
O107 C99 1.253 . S
O108 Co92 1.958 . S
O108 C126 1.278 . S
O109 Co86 1.950 . S
O109 C113 1.277 . S
O110 Co86 2.057 . S
O110 C125 1.263 . S
O111 Co98 2.042 . S
O111 C126 1.237 . S
O112 Co92 2.057 . S
O112 C99 1.263 . S
C113 O103 1.221 . S
C113 O109 1.277 . S
C114 C97 1.361 . S
C114 H115 0.960 . S
C114 H116 0.961 . S
C114 H117 0.961 . S
H115 C114 0.960 . S
H116 C114 0.961 . S
H117 C114 0.961 . S
C118 O102 1.221 . S
C118 O106 1.277 . S
C119 O104 1.237 . S
C119 O105 1.278 . S
H120 C88 0.931 . S
H121 C124 0.961 . S
H122 C124 0.961 . S
H123 C124 0.960 . S
C124 C90 1.361 . S
C124 H121 0.961 . S
C124 H122 0.961 . S
C124 H123 0.960 . S
C125 O101 1.253 . S
C125 O110 1.263 . S
C126 O108 1.278 . S
C126 O111 1.237 . S
H127 C91 0.930 . S
H128 C95 0.930 . S
Co129 N130 2.034 . S
Co129 O144 2.262 . S
Co129 O148 1.958 . S
Co129 O152 1.950 . S
Co129 O153 2.057 . S
N130 Co129 2.034 . S
N130 C131 1.366 1_655 S
N130 C133 1.332 1_655 S
C131 N130 1.366 1_455 S
C131 C134 1.377 . S
C131 H163 0.931 . S
N132 C133 1.346 . S
N132 C134 1.337 . S
C133 N130 1.332 1_455 S
C133 N132 1.346 . S
C133 C167 1.361 1_455 S
C134 C131 1.377 . S
C134 N132 1.337 . S
C134 H170 0.930 . S
Co135 N136 2.034 . S
Co135 O149 1.950 . S
Co135 O150 2.262 . S
Co135 O151 1.958 . S
Co135 O155 2.057 . S
N136 Co135 2.034 . S
N136 C139 1.366 . S
N136 C140 1.332 . S
N137 C138 1.337 . S
N137 C140 1.346 . S
C138 N137 1.337 . S
C138 C139 1.377 . S
C138 H171 0.930 . S
C139 N136 1.366 . S
C139 C138 1.377 . S
C139 H143 0.931 . S
C140 N136 1.332 . S
C140 N137 1.346 . S
C140 C157 1.361 . S
Co141 O144 2.097 . S
Co141 O145 2.065 . S
Co141 O146 2.065 . S
Co141 O147 2.042 . S
Co141 O150 2.097 . S
Co141 O154 2.042 . S
C142 O150 1.253 . S
C142 O155 1.263 . S
H143 C139 0.931 . S
O144 Co129 2.262 . S
O144 Co141 2.097 . S
O144 C168 1.253 . S
O145 Co141 2.065 . S
O145 C161 1.221 . S
O146 Co141 2.065 . S
O146 C156 1.221 . S
O147 Co141 2.042 . S
O147 C162 1.237 . S
O148 Co129 1.958 . S
O148 C162 1.278 . S
O149 Co135 1.950 . S
O149 C161 1.277 . S
O150 Co135 2.262 . S
O150 Co141 2.097 . S
O150 C142 1.253 . S
O151 Co135 1.958 . S
O151 C169 1.278 . S
O152 Co129 1.950 . S
O152 C156 1.277 . S
O153 Co129 2.057 . S
O153 C168 1.263 . S
O154 Co141 2.042 . S
O154 C169 1.237 . S
O155 Co135 2.057 . S
O155 C142 1.263 . S
C156 O146 1.221 . S
C156 O152 1.277 . S
C157 C140 1.361 . S
C157 H158 0.960 . S
C157 H159 0.961 . S
C157 H160 0.961 . S
H158 C157 0.960 . S
H159 C157 0.961 . S
H160 C157 0.961 . S
C161 O145 1.221 . S
C161 O149 1.277 . S
C162 O147 1.237 . S
C162 O148 1.278 . S
H163 C131 0.931 . S
H164 C167 0.961 . S
H165 C167 0.961 1_455 S
H166 C167 0.960 . S
C167 C133 1.361 1_655 S
C167 H164 0.961 . S
C167 H165 0.961 1_655 S
C167 H166 0.960 . S
C168 O144 1.253 . S
C168 O153 1.263 . S
C169 O151 1.278 . S
C169 O154 1.237 . S
H170 C134 0.930 . S
H171 C138 0.930 . S
Co172 N173 2.034 . S
Co172 O187 2.262 . S
Co172 O191 1.958 . S
Co172 O195 1.950 . S
Co172 O196 2.057 . S
N173 Co172 2.034 . S
N173 C174 1.366 . S
N173 C176 1.332 . S
C174 N173 1.366 . S
C174 C177 1.377 . S
C174 H206 0.931 . S
N175 C176 1.346 . S
N175 C177 1.337 . S
C176 N173 1.332 . S
C176 N175 1.346 . S
C176 C210 1.361 . S
C177 C174 1.377 . S
C177 N175 1.337 . S
C177 H213 0.930 . S
Co178 N179 2.034 . S
Co178 O192 1.950 . S
Co178 O193 2.262 . S
Co178 O194 1.958 . S
Co178 O198 2.057 . S
N179 Co178 2.034 . S
N179 C182 1.366 . S
N179 C183 1.332 1_565 S
N180 C181 1.337 . S
N180 C183 1.346 . S
C181 N180 1.337 . S
C181 C182 1.377 1_545 S
C181 H214 0.930 . S
C182 N179 1.366 . S
C182 C181 1.377 1_565 S
C182 H186 0.931 . S
C183 N179 1.332 1_545 S
C183 N180 1.346 . S
C183 C200 1.361 . S
Co184 O187 2.097 . S
Co184 O188 2.065 . S
Co184 O189 2.065 . S
Co184 O190 2.042 . S
Co184 O193 2.097 . S
Co184 O197 2.042 . S
C185 O193 1.253 . S
C185 O198 1.263 . S
H186 C182 0.931 . S
O187 Co172 2.262 . S
O187 Co184 2.097 . S
O187 C211 1.253 . S
O188 Co184 2.065 . S
O188 C204 1.221 . S
O189 Co184 2.065 . S
O189 C199 1.221 . S
O190 Co184 2.042 . S
O190 C205 1.237 . S
O191 Co172 1.958 . S
O191 C205 1.278 . S
O192 Co178 1.950 . S
O192 C204 1.277 . S
O193 Co178 2.262 . S
O193 Co184 2.097 . S
O193 C185 1.253 . S
O194 Co178 1.958 . S
O194 C212 1.278 . S
O195 Co172 1.950 . S
O195 C199 1.277 . S
O196 Co172 2.057 . S
O196 C211 1.263 . S
O197 Co184 2.042 . S
O197 C212 1.237 . S
O198 Co178 2.057 . S
O198 C185 1.263 . S
C199 O189 1.221 . S
C199 O195 1.277 . S
C200 C183 1.361 . S
C200 H201 0.960 . S
C200 H202 0.961 . S
C200 H203 0.961 . S
H201 C200 0.960 . S
H202 C200 0.961 . S
H203 C200 0.961 . S
C204 O188 1.221 . S
C204 O192 1.277 . S
C205 O190 1.237 . S
C205 O191 1.278 . S
H206 C174 0.931 . S
H207 C210 0.961 . S
H208 C210 0.961 . S
H209 C210 0.960 . S
C210 C176 1.361 . S
C210 H207 0.961 . S
C210 H208 0.961 . S
C210 H209 0.960 . S
C211 O187 1.253 . S
C211 O196 1.263 . S
C212 O194 1.278 . S
C212 O197 1.237 . S
H213 C177 0.930 . S
H214 C181 0.930 . S
Co215 N216 2.034 . S
Co215 O230 2.262 . S
Co215 O234 1.958 . S
Co215 O238 1.950 . S
Co215 O239 2.057 . S
N216 Co215 2.034 . S
N216 C217 1.366 . S
N216 C219 1.332 . S
C217 N216 1.366 . S
C217 C220 1.377 . S
C217 H249 0.931 . S
N218 C219 1.346 . S
N218 C220 1.337 . S
C219 N216 1.332 . S
C219 N218 1.346 . S
C219 C253 1.361 . S
C220 C217 1.377 . S
C220 N218 1.337 . S
C220 H256 0.930 . S
Co221 N222 2.034 . S
Co221 O235 1.950 . S
Co221 O236 2.262 . S
Co221 O237 1.958 . S
Co221 O241 2.057 . S
N222 Co221 2.034 . S
N222 C225 1.366 . S
N222 C226 1.332 . S
N223 C224 1.337 . S
N223 C226 1.346 . S
C224 N223 1.337 . S
C224 C225 1.377 . S
C224 H257 0.930 . S
C225 N222 1.366 . S
C225 C224 1.377 . S
C225 H229 0.931 . S
C226 N222 1.332 . S
C226 N223 1.346 . S
C226 C243 1.361 . S
Co227 O230 2.097 . S
Co227 O231 2.065 . S
Co227 O232 2.065 . S
Co227 O233 2.042 . S
Co227 O236 2.097 . S
Co227 O240 2.042 . S
C228 O236 1.253 . S
C228 O241 1.263 . S
H229 C225 0.931 . S
O230 Co215 2.262 . S
O230 Co227 2.097 . S
O230 C254 1.253 . S
O231 Co227 2.065 . S
O231 C247 1.221 . S
O232 Co227 2.065 . S
O232 C242 1.221 . S
O233 Co227 2.042 . S
O233 C248 1.237 . S
O234 Co215 1.958 . S
O234 C248 1.278 . S
O235 Co221 1.950 . S
O235 C247 1.277 . S
O236 Co221 2.262 . S
O236 Co227 2.097 . S
O236 C228 1.253 . S
O237 Co221 1.958 . S
O237 C255 1.278 . S
O238 Co215 1.950 . S
O238 C242 1.277 . S
O239 Co215 2.057 . S
O239 C254 1.263 . S
O240 Co227 2.042 . S
O240 C255 1.237 . S
O241 Co221 2.057 . S
O241 C228 1.263 . S
C242 O232 1.221 . S
C242 O238 1.277 . S
C243 C226 1.361 . S
C243 H244 0.960 . S
C243 H245 0.961 . S
C243 H246 0.961 . S
H244 C243 0.960 . S
H245 C243 0.961 . S
H246 C243 0.961 . S
C247 O231 1.221 . S
C247 O235 1.277 . S
C248 O233 1.237 . S
C248 O234 1.278 . S
H249 C217 0.931 . S
H250 C253 0.961 . S
H251 C253 0.961 . S
H252 C253 0.960 . S
C253 C219 1.361 . S
C253 H250 0.961 . S
C253 H251 0.961 . S
C253 H252 0.960 . S
C254 O230 1.253 . S
C254 O239 1.263 . S
C255 O237 1.278 . S
C255 O240 1.237 . S
H256 C220 0.930 . S
H257 C224 0.930 . S
H258 C276 0.951 . S
H259 C278 0.951 . S
H260 C280 0.950 . S
H261 C281 0.950 . S
H262 C283 0.950 . S
H263 C286 0.950 . S
H264 C287 0.950 . S
H265 C289 0.950 . S
H266 C290 0.950 . S
H267 C291 0.951 . S
H268 C293 0.951 . S
H269 C295 0.950 . S
H270 C296 0.950 . S
H271 C298 0.950 . S
H272 C301 0.950 . S
H273 C302 0.950 . S
H274 C304 0.950 . S
H275 C305 0.950 . S
C276 H258 0.951 . S
C276 C277 1.366 . S
C276 C278 1.388 . S
C277 C276 1.366 . S
C277 C281 1.385 . S
C278 H259 0.951 . S
C278 C276 1.388 . S
C278 C279 1.366 . S
C279 C278 1.366 . S
C279 C280 1.414 . S
C279 C282 1.499 . S
C280 H260 0.950 . S
C280 C279 1.414 . S
C280 C281 1.374 . S
C281 H261 0.950 . S
C281 C277 1.385 . S
C281 C280 1.374 . S
C282 C279 1.499 . S
C282 C283 1.373 . S
C282 C284 1.389 . S
C283 H262 0.950 . S
C283 C282 1.373 . S
C283 C299 1.377 . S
C284 C282 1.389 . S
C284 C285 1.524 . S
C284 C298 1.377 . S
C285 C284 1.524 . S
C285 C286 1.397 . S
C285 C290 1.363 . S
C286 H263 0.950 . S
C286 C285 1.397 . S
C286 C287 1.334 . S
C287 H264 0.950 . S
C287 C286 1.334 . S
C287 C288 1.287 . S
C288 C287 1.287 . S
C288 C289 1.524 . S
C288 H307 0.913 . S
C289 H265 0.950 . S
C289 C288 1.524 . S
C289 C290 1.415 . S
C290 H266 0.950 . S
C290 C285 1.363 . S
C290 C289 1.415 . S
C291 H267 0.951 . S
C291 C292 1.366 . S
C291 C293 1.388 . S
C292 C291 1.366 . S
C292 C296 1.385 . S
C293 H268 0.951 . S
C293 C291 1.388 . S
C293 C294 1.366 . S
C294 C293 1.366 . S
C294 C295 1.414 . S
C294 C297 1.499 . S
C295 H269 0.950 . S
C295 C294 1.414 . S
C295 C296 1.374 . S
C296 H270 0.950 . S
C296 C292 1.385 . S
C296 C295 1.374 . S
C297 C294 1.499 . S
C297 C298 1.373 . S
C297 C299 1.389 . S
C298 H271 0.950 . S
C298 C284 1.377 . S
C298 C297 1.373 . S
C299 C283 1.377 . S
C299 C297 1.389 . S
C299 C300 1.524 . S
C300 C299 1.524 . S
C300 C301 1.397 . S
C300 C305 1.363 . S
C301 H272 0.950 . S
C301 C300 1.397 . S
C301 C302 1.334 . S
C302 H273 0.950 . S
C302 C301 1.334 . S
C302 C303 1.287 . S
C303 C302 1.287 . S
C303 C304 1.524 . S
C303 H306 0.999 . S
C304 H274 0.950 . S
C304 C303 1.524 . S
C304 C305 1.415 . S
C305 H275 0.950 . S
C305 C300 1.363 . S
C305 C304 1.415 . S
H306 C303 0.999 . S
H307 C288 0.913 . S
H308 C326 0.951 . S
H309 C328 0.951 . S
H310 C330 0.950 . S
H311 C331 0.950 . S
H312 C333 0.950 . S
H313 C336 0.950 . S
H314 C337 0.950 . S
H315 C339 0.950 . S
H316 C340 0.950 . S
H317 C341 0.951 . S
H318 C343 0.951 . S
H319 C345 0.950 . S
H320 C346 0.950 . S
H321 C348 0.950 . S
H322 C351 0.950 . S
H323 C352 0.950 . S
H324 C354 0.950 . S
H325 C355 0.950 . S
C326 H308 0.951 . S
C326 C327 1.366 . S
C326 C328 1.388 . S
C327 C326 1.366 . S
C327 C331 1.385 . S
C328 H309 0.951 . S
C328 C326 1.388 . S
C328 C329 1.366 . S
C329 C328 1.366 . S
C329 C330 1.414 . S
C329 C332 1.499 . S
C330 H310 0.950 . S
C330 C329 1.414 . S
C330 C331 1.374 . S
C331 H311 0.950 . S
C331 C327 1.385 . S
C331 C330 1.374 . S
C332 C329 1.499 . S
C332 C333 1.373 . S
C332 C334 1.389 . S
C333 H312 0.950 . S
C333 C332 1.373 . S
C333 C349 1.377 . S
C334 C332 1.389 . S
C334 C335 1.524 . S
C334 C348 1.377 . S
C335 C334 1.524 . S
C335 C336 1.397 . S
C335 C340 1.363 . S
C336 H313 0.950 . S
C336 C335 1.397 . S
C336 C337 1.334 . S
C337 H314 0.950 . S
C337 C336 1.334 . S
C337 C338 1.287 . S
C338 C337 1.287 . S
C338 C339 1.524 . S
C338 H357 0.913 . S
C339 H315 0.950 . S
C339 C338 1.524 . S
C339 C340 1.415 . S
C340 H316 0.950 . S
C340 C335 1.363 . S
C340 C339 1.415 . S
C341 H317 0.951 . S
C341 C342 1.366 . S
C341 C343 1.388 . S
C342 C341 1.366 . S
C342 C346 1.385 . S
C343 H318 0.951 . S
C343 C341 1.388 . S
C343 C344 1.366 . S
C344 C343 1.366 . S
C344 C345 1.414 . S
C344 C347 1.499 . S
C345 H319 0.950 . S
C345 C344 1.414 . S
C345 C346 1.374 . S
C346 H320 0.950 . S
C346 C342 1.385 . S
C346 C345 1.374 . S
C347 C344 1.499 . S
C347 C348 1.373 . S
C347 C349 1.389 . S
C348 H321 0.950 . S
C348 C334 1.377 . S
C348 C347 1.373 . S
C349 C333 1.377 . S
C349 C347 1.389 . S
C349 C350 1.524 . S
C350 C349 1.524 . S
C350 C351 1.397 . S
C350 C355 1.363 . S
C351 H322 0.950 . S
C351 C350 1.397 . S
C351 C352 1.334 . S
C352 H323 0.950 . S
C352 C351 1.334 . S
C352 C353 1.287 . S
C353 C352 1.287 . S
C353 C354 1.524 . S
C353 H356 0.999 . S
C354 H324 0.950 . S
C354 C353 1.524 . S
C354 C355 1.415 . S
C355 H325 0.950 . S
C355 C350 1.363 . S
C355 C354 1.415 . S
H356 C353 0.999 . S
H357 C338 0.913 . S
H358 C376 0.951 . S
H359 C378 0.951 . S
H360 C380 0.950 . S
H361 C381 0.950 . S
H362 C383 0.950 . S
H363 C386 0.950 . S
H364 C387 0.950 . S
H365 C389 0.950 . S
H366 C390 0.950 . S
H367 C391 0.951 . S
H368 C393 0.951 . S
H369 C395 0.950 . S
H370 C396 0.950 . S
H371 C398 0.950 . S
H372 C401 0.950 . S
H373 C402 0.950 . S
H374 C404 0.950 . S
H375 C405 0.950 . S
C376 H358 0.951 . S
C376 C377 1.366 . S
C376 C378 1.388 . S
C377 C376 1.366 . S
C377 C381 1.385 . S
C378 H359 0.951 . S
C378 C376 1.388 . S
C378 C379 1.366 . S
C379 C378 1.366 . S
C379 C380 1.414 . S
C379 C382 1.499 . S
C380 H360 0.950 . S
C380 C379 1.414 . S
C380 C381 1.374 . S
C381 H361 0.950 . S
C381 C377 1.385 . S
C381 C380 1.374 . S
C382 C379 1.499 . S
C382 C383 1.373 . S
C382 C384 1.389 . S
C383 H362 0.950 . S
C383 C382 1.373 . S
C383 C399 1.377 . S
C384 C382 1.389 . S
C384 C385 1.524 . S
C384 C398 1.377 . S
C385 C384 1.524 . S
C385 C386 1.397 . S
C385 C390 1.363 . S
C386 H363 0.950 . S
C386 C385 1.397 . S
C386 C387 1.334 . S
C387 H364 0.950 . S
C387 C386 1.334 . S
C387 C388 1.287 . S
C388 C387 1.287 . S
C388 C389 1.524 . S
C388 H407 0.913 . S
C389 H365 0.950 . S
C389 C388 1.524 . S
C389 C390 1.415 . S
C390 H366 0.950 . S
C390 C385 1.363 . S
C390 C389 1.415 . S
C391 H367 0.951 . S
C391 C392 1.366 . S
C391 C393 1.388 . S
C392 C391 1.366 . S
C392 C396 1.385 . S
C393 H368 0.951 . S
C393 C391 1.388 . S
C393 C394 1.366 . S
C394 C393 1.366 . S
C394 C395 1.414 . S
C394 C397 1.499 . S
C395 H369 0.950 . S
C395 C394 1.414 . S
C395 C396 1.374 . S
C396 H370 0.950 . S
C396 C392 1.385 . S
C396 C395 1.374 . S
C397 C394 1.499 . S
C397 C398 1.373 . S
C397 C399 1.389 . S
C398 H371 0.950 . S
C398 C384 1.377 . S
C398 C397 1.373 . S
C399 C383 1.377 . S
C399 C397 1.389 . S
C399 C400 1.524 . S
C400 C399 1.524 . S
C400 C401 1.397 . S
C400 C405 1.363 . S
C401 H372 0.950 . S
C401 C400 1.397 . S
C401 C402 1.334 . S
C402 H373 0.950 . S
C402 C401 1.334 . S
C402 C403 1.287 . S
C403 C402 1.287 . S
C403 C404 1.524 . S
C403 H406 0.999 . S
C404 H374 0.950 . S
C404 C403 1.524 . S
C404 C405 1.415 . S
C405 H375 0.950 . S
C405 C400 1.363 . S
C405 C404 1.415 . S
H406 C403 0.999 . S
H407 C388 0.913 . S
H408 C426 0.951 . S
H409 C428 0.951 . S
H410 C430 0.950 . S
H411 C431 0.950 . S
H412 C433 0.950 . S
H413 C436 0.950 . S
H414 C437 0.950 . S
H415 C439 0.950 . S
H416 C440 0.950 . S
H417 C441 0.951 . S
H418 C443 0.951 . S
H419 C445 0.950 . S
H420 C446 0.950 . S
H421 C448 0.950 . S
H422 C451 0.950 . S
H423 C452 0.950 . S
H424 C454 0.950 . S
H425 C455 0.950 . S
C426 H408 0.951 . S
C426 C427 1.366 . S
C426 C428 1.388 . S
C427 C426 1.366 . S
C427 C431 1.385 . S
C428 H409 0.951 . S
C428 C426 1.388 . S
C428 C429 1.366 . S
C429 C428 1.366 . S
C429 C430 1.414 . S
C429 C432 1.499 . S
C430 H410 0.950 . S
C430 C429 1.414 . S
C430 C431 1.374 . S
C431 H411 0.950 . S
C431 C427 1.385 . S
C431 C430 1.374 . S
C432 C429 1.499 . S
C432 C433 1.373 . S
C432 C434 1.389 . S
C433 H412 0.950 . S
C433 C432 1.373 . S
C433 C449 1.377 . S
C434 C432 1.389 . S
C434 C435 1.524 . S
C434 C448 1.377 . S
C435 C434 1.524 . S
C435 C436 1.397 . S
C435 C440 1.363 . S
C436 H413 0.950 . S
C436 C435 1.397 . S
C436 C437 1.334 . S
C437 H414 0.950 . S
C437 C436 1.334 . S
C437 C438 1.287 . S
C438 C437 1.287 . S
C438 C439 1.524 . S
C438 H457 0.913 . S
C439 H415 0.950 . S
C439 C438 1.524 . S
C439 C440 1.415 . S
C440 H416 0.950 . S
C440 C435 1.363 . S
C440 C439 1.415 . S
C441 H417 0.951 . S
C441 C442 1.366 . S
C441 C443 1.388 . S
C442 C441 1.366 . S
C442 C446 1.385 . S
C443 H418 0.951 . S
C443 C441 1.388 . S
C443 C444 1.366 . S
C444 C443 1.366 . S
C444 C445 1.414 . S
C444 C447 1.499 . S
C445 H419 0.950 . S
C445 C444 1.414 . S
C445 C446 1.374 . S
C446 H420 0.950 . S
C446 C442 1.385 . S
C446 C445 1.374 . S
C447 C444 1.499 . S
C447 C448 1.373 . S
C447 C449 1.389 . S
C448 H421 0.950 . S
C448 C434 1.377 . S
C448 C447 1.373 . S
C449 C433 1.377 . S
C449 C447 1.389 . S
C449 C450 1.524 . S
C450 C449 1.524 . S
C450 C451 1.397 . S
C450 C455 1.363 . S
C451 H422 0.950 . S
C451 C450 1.397 . S
C451 C452 1.334 . S
C452 H423 0.950 . S
C452 C451 1.334 . S
C452 C453 1.287 . S
C453 C452 1.287 . S
C453 C454 1.524 . S
C453 H456 0.999 . S
C454 H424 0.950 . S
C454 C453 1.524 . S
C454 C455 1.415 . S
C455 H425 0.950 . S
C455 C450 1.363 . S
C455 C454 1.415 . S
H456 C453 0.999 . S
H457 C438 0.913 . S
H458 C476 0.951 . S
H459 C478 0.951 . S
H460 C480 0.950 . S
H461 C481 0.950 . S
H462 C483 0.950 . S
H463 C486 0.950 . S
H464 C487 0.950 . S
H465 C489 0.950 . S
H466 C490 0.950 . S
H467 C491 0.951 . S
H468 C493 0.951 . S
H469 C495 0.950 . S
H470 C496 0.950 . S
H471 C498 0.950 . S
H472 C501 0.950 . S
H473 C502 0.950 . S
H474 C504 0.950 . S
H475 C505 0.950 . S
C476 H458 0.951 . S
C476 C477 1.366 . S
C476 C478 1.388 . S
C477 C476 1.366 . S
C477 C481 1.385 . S
C478 H459 0.951 . S
C478 C476 1.388 . S
C478 C479 1.366 . S
C479 C478 1.366 . S
C479 C480 1.414 . S
C479 C482 1.499 . S
C480 H460 0.950 . S
C480 C479 1.414 . S
C480 C481 1.374 . S
C481 H461 0.950 . S
C481 C477 1.385 . S
C481 C480 1.374 . S
C482 C479 1.499 . S
C482 C483 1.373 . S
C482 C484 1.389 . S
C483 H462 0.950 . S
C483 C482 1.373 . S
C483 C499 1.377 . S
C484 C482 1.389 . S
C484 C485 1.524 . S
C484 C498 1.377 . S
C485 C484 1.524 . S
C485 C486 1.397 . S
C485 C490 1.363 . S
C486 H463 0.950 . S
C486 C485 1.397 . S
C486 C487 1.334 . S
C487 H464 0.950 . S
C487 C486 1.334 . S
C487 C488 1.287 . S
C488 C487 1.287 . S
C488 C489 1.524 . S
C488 H507 0.913 . S
C489 H465 0.950 . S
C489 C488 1.524 . S
C489 C490 1.415 . S
C490 H466 0.950 . S
C490 C485 1.363 . S
C490 C489 1.415 . S
C491 H467 0.951 . S
C491 C492 1.366 . S
C491 C493 1.388 . S
C492 C491 1.366 . S
C492 C496 1.385 . S
C493 H468 0.951 . S
C493 C491 1.388 . S
C493 C494 1.366 . S
C494 C493 1.366 . S
C494 C495 1.414 . S
C494 C497 1.499 . S
C495 H469 0.950 . S
C495 C494 1.414 . S
C495 C496 1.374 . S
C496 H470 0.950 . S
C496 C492 1.385 . S
C496 C495 1.374 . S
C497 C494 1.499 . S
C497 C498 1.373 . S
C497 C499 1.389 . S
C498 H471 0.950 . S
C498 C484 1.377 . S
C498 C497 1.373 . S
C499 C483 1.377 . S
C499 C497 1.389 . S
C499 C500 1.524 . S
C500 C499 1.524 . S
C500 C501 1.397 . S
C500 C505 1.363 . S
C501 H472 0.950 . S
C501 C500 1.397 . S
C501 C502 1.334 . S
C502 H473 0.950 . S
C502 C501 1.334 . S
C502 C503 1.287 . S
C503 C502 1.287 . S
C503 C504 1.524 . S
C503 H506 0.999 . S
C504 H474 0.950 . S
C504 C503 1.524 . S
C504 C505 1.415 . S
C505 H475 0.950 . S
C505 C500 1.363 . S
C505 C504 1.415 . S
H506 C503 0.999 . S
H507 C488 0.913 . S
H508 C526 0.951 . S
H509 C528 0.951 . S
H510 C530 0.950 . S
H511 C531 0.950 . S
H512 C533 0.950 . S
H513 C536 0.950 . S
H514 C537 0.950 . S
H515 C539 0.950 . S
H516 C540 0.950 . S
H517 C541 0.951 . S
H518 C543 0.951 . S
H519 C545 0.950 . S
H520 C546 0.950 . S
H521 C548 0.950 . S
H522 C551 0.950 . S
H523 C552 0.950 . S
H524 C554 0.950 . S
H525 C555 0.950 . S
C526 H508 0.951 . S
C526 C527 1.366 . S
C526 C528 1.388 . S
C527 C526 1.366 . S
C527 C531 1.385 . S
C528 H509 0.951 . S
C528 C526 1.388 . S
C528 C529 1.366 . S
C529 C528 1.366 . S
C529 C530 1.414 . S
C529 C532 1.499 . S
C530 H510 0.950 . S
C530 C529 1.414 . S
C530 C531 1.374 . S
C531 H511 0.950 . S
C531 C527 1.385 . S
C531 C530 1.374 . S
C532 C529 1.499 . S
C532 C533 1.373 . S
C532 C534 1.389 . S
C533 H512 0.950 . S
C533 C532 1.373 . S
C533 C549 1.377 . S
C534 C532 1.389 . S
C534 C535 1.524 . S
C534 C548 1.377 . S
C535 C534 1.524 . S
C535 C536 1.397 . S
C535 C540 1.363 . S
C536 H513 0.950 . S
C536 C535 1.397 . S
C536 C537 1.334 . S
C537 H514 0.950 . S
C537 C536 1.334 . S
C537 C538 1.287 . S
C538 C537 1.287 . S
C538 C539 1.524 . S
C538 H557 0.913 . S
C539 H515 0.950 . S
C539 C538 1.524 . S
C539 C540 1.415 . S
C540 H516 0.950 . S
C540 C535 1.363 . S
C540 C539 1.415 . S
C541 H517 0.951 . S
C541 C542 1.366 . S
C541 C543 1.388 . S
C542 C541 1.366 . S
C542 C546 1.385 . S
C543 H518 0.951 . S
C543 C541 1.388 . S
C543 C544 1.366 . S
C544 C543 1.366 . S
C544 C545 1.414 . S
C544 C547 1.499 . S
C545 H519 0.950 . S
C545 C544 1.414 . S
C545 C546 1.374 . S
C546 H520 0.950 . S
C546 C542 1.385 . S
C546 C545 1.374 . S
C547 C544 1.499 . S
C547 C548 1.373 . S
C547 C549 1.389 . S
C548 H521 0.950 . S
C548 C534 1.377 . S
C548 C547 1.373 . S
C549 C533 1.377 . S
C549 C547 1.389 . S
C549 C550 1.524 . S
C550 C549 1.524 . S
C550 C551 1.397 . S
C550 C555 1.363 . S
C551 H522 0.950 . S
C551 C550 1.397 . S
C551 C552 1.334 . S
C552 H523 0.950 . S
C552 C551 1.334 . S
C552 C553 1.287 . S
C553 C552 1.287 . S
C553 C554 1.524 . S
C553 H556 0.999 . S
C554 H524 0.950 . S
C554 C553 1.524 . S
C554 C555 1.415 . S
C555 H525 0.950 . S
C555 C550 1.363 . S
C555 C554 1.415 . S
H556 C553 0.999 . S
H557 C538 0.913 . S
H558 C576 0.951 . S
H559 C578 0.951 . S
H560 C580 0.950 . S
H561 C581 0.950 . S
H562 C583 0.950 . S
H563 C586 0.950 . S
H564 C587 0.950 . S
H565 C589 0.950 . S
H566 C590 0.950 . S
H567 C591 0.951 . S
H568 C593 0.951 . S
H569 C595 0.950 . S
H570 C596 0.950 . S
H571 C598 0.950 . S
H572 C601 0.950 . S
H573 C602 0.950 . S
H574 C604 0.950 . S
H575 C605 0.950 . S
C576 H558 0.951 . S
C576 C577 1.366 . S
C576 C578 1.388 . S
C577 C576 1.366 . S
C577 C581 1.385 . S
C578 H559 0.951 . S
C578 C576 1.388 . S
C578 C579 1.366 . S
C579 C578 1.366 . S
C579 C580 1.414 . S
C579 C582 1.499 . S
C580 H560 0.950 . S
C580 C579 1.414 . S
C580 C581 1.374 . S
C581 H561 0.950 . S
C581 C577 1.385 . S
C581 C580 1.374 . S
C582 C579 1.499 . S
C582 C583 1.373 . S
C582 C584 1.389 . S
C583 H562 0.950 . S
C583 C582 1.373 . S
C583 C599 1.377 . S
C584 C582 1.389 . S
C584 C585 1.524 . S
C584 C598 1.377 . S
C585 C584 1.524 . S
C585 C586 1.397 . S
C585 C590 1.363 . S
C586 H563 0.950 . S
C586 C585 1.397 . S
C586 C587 1.334 . S
C587 H564 0.950 . S
C587 C586 1.334 . S
C587 C588 1.287 . S
C588 C587 1.287 . S
C588 C589 1.524 . S
C588 H607 0.913 . S
C589 H565 0.950 . S
C589 C588 1.524 . S
C589 C590 1.415 . S
C590 H566 0.950 . S
C590 C585 1.363 . S
C590 C589 1.415 . S
C591 H567 0.951 . S
C591 C592 1.366 . S
C591 C593 1.388 . S
C592 C591 1.366 . S
C592 C596 1.385 . S
C593 H568 0.951 . S
C593 C591 1.388 . S
C593 C594 1.366 . S
C594 C593 1.366 . S
C594 C595 1.414 . S
C594 C597 1.499 . S
C595 H569 0.950 . S
C595 C594 1.414 . S
C595 C596 1.374 . S
C596 H570 0.950 . S
C596 C592 1.385 . S
C596 C595 1.374 . S
C597 C594 1.499 . S
C597 C598 1.373 . S
C597 C599 1.389 . S
C598 H571 0.950 . S
C598 C584 1.377 . S
C598 C597 1.373 . S
C599 C583 1.377 . S
C599 C597 1.389 . S
C599 C600 1.524 . S
C600 C599 1.524 . S
C600 C601 1.397 . S
C600 C605 1.363 . S
C601 H572 0.950 . S
C601 C600 1.397 . S
C601 C602 1.334 . S
C602 H573 0.950 . S
C602 C601 1.334 . S
C602 C603 1.287 . S
C603 C602 1.287 . S
C603 C604 1.524 . S
C603 H606 0.999 . S
C604 H574 0.950 . S
C604 C603 1.524 . S
C604 C605 1.415 . S
C605 H575 0.950 . S
C605 C600 1.363 . S
C605 C604 1.415 . S
H606 C603 0.999 . S
H607 C588 0.913 . S
H608 C626 0.951 . S
H609 C628 0.951 . S
H610 C630 0.950 . S
H611 C631 0.950 . S
H612 C633 0.955 . S
H613 C636 0.950 . S
H614 C637 0.950 . S
H615 C639 0.950 . S
H616 C640 0.950 . S
H617 C641 0.951 . S
H618 C643 0.951 . S
H619 C645 0.950 . S
H620 C646 0.950 . S
H621 C648 0.950 . S
H622 C651 0.950 . S
H623 C652 0.950 . S
H624 C654 0.950 . S
H625 C655 0.950 . S
C626 H608 0.951 . S
C626 C627 1.366 . S
C626 C628 1.388 . S
C627 C626 1.366 . S
C627 C631 1.385 . S
C628 H609 0.951 . S
C628 C626 1.388 . S
C628 C629 1.366 . S
C629 C628 1.366 . S
C629 C630 1.414 . S
C629 C632 1.499 . S
C630 H610 0.950 . S
C630 C629 1.414 . S
C630 C631 1.374 . S
C631 H611 0.950 . S
C631 C627 1.385 . S
C631 C630 1.374 . S
C632 C629 1.499 . S
C632 C633 1.376 . S
C632 C634 1.389 . S
C633 H612 0.955 . S
C633 C632 1.376 . S
C633 C649 1.369 1_655 S
C634 C632 1.389 . S
C634 C635 1.524 . S
C634 C648 1.377 1_655 S
C635 C634 1.524 . S
C635 C636 1.397 . S
C635 C640 1.363 . S
C636 H613 0.950 . S
C636 C635 1.397 . S
C636 C637 1.334 . S
C637 H614 0.950 . S
C637 C636 1.334 . S
C637 C638 1.287 . S
C638 C637 1.287 . S
C638 C639 1.524 . S
C638 H657 0.913 . S
C639 H615 0.950 . S
C639 C638 1.524 . S
C639 C640 1.415 . S
C640 H616 0.950 . S
C640 C635 1.363 . S
C640 C639 1.415 . S
C641 H617 0.951 . S
C641 C642 1.366 . S
C641 C643 1.388 . S
C642 C641 1.366 . S
C642 C646 1.385 . S
C643 H618 0.951 . S
C643 C641 1.388 . S
C643 C644 1.366 . S
C644 C643 1.366 . S
C644 C645 1.414 . S
C644 C647 1.499 . S
C645 H619 0.950 . S
C645 C644 1.414 . S
C645 C646 1.374 . S
C646 H620 0.950 . S
C646 C642 1.385 . S
C646 C645 1.374 . S
C647 C644 1.499 . S
C647 C648 1.373 . S
C647 C649 1.389 . S
C648 H621 0.950 . S
C648 C634 1.377 1_455 S
C648 C647 1.373 . S
C649 C633 1.369 1_455 S
C649 C647 1.389 . S
C649 C650 1.524 . S
C650 C649 1.524 . S
C650 C651 1.397 . S
C650 C655 1.363 . S
C651 H622 0.950 . S
C651 C650 1.397 . S
C651 C652 1.334 . S
C652 H623 0.950 . S
C652 C651 1.334 . S
C652 C653 1.287 . S
C653 C652 1.287 . S
C653 C654 1.524 . S
C653 H656 0.999 . S
C654 H624 0.950 . S
C654 C653 1.524 . S
C654 C655 1.415 . S
C655 H625 0.950 . S
C655 C650 1.363 . S
C655 C654 1.415 . S
H656 C653 0.999 . S
H657 C638 0.913 . S
H658 C676 0.951 . S
H659 C678 0.951 . S
H660 C680 0.950 . S
H661 C681 0.950 . S
H662 C683 0.950 . S
H663 C686 0.950 . S
H664 C687 0.950 . S
H665 C689 0.950 . S
H666 C690 0.950 . S
H667 C691 0.951 . S
H668 C693 0.951 . S
H669 C695 0.950 . S
H670 C696 0.950 . S
H671 C698 0.950 1_565 S
H672 C701 0.950 . S
H673 C702 0.950 . S
H674 C704 0.950 . S
H675 C705 0.950 1_545 S
C676 H658 0.951 . S
C676 C677 1.366 . S
C676 C678 1.388 . S
C677 C676 1.366 . S
C677 C681 1.385 . S
C678 H659 0.951 . S
C678 C676 1.388 . S
C678 C679 1.366 . S
C679 C678 1.366 . S
C679 C680 1.414 . S
C679 C682 1.499 . S
C680 H660 0.950 . S
C680 C679 1.414 . S
C680 C681 1.374 . S
C681 H661 0.950 . S
C681 C677 1.385 . S
C681 C680 1.374 . S
C682 C679 1.499 . S
C682 C683 1.373 . S
C682 C684 1.389 . S
C683 H662 0.950 . S
C683 C682 1.373 . S
C683 C699 1.377 . S
C684 C682 1.389 . S
C684 C685 1.524 . S
C684 C698 1.377 . S
C685 C684 1.524 . S
C685 C686 1.397 . S
C685 C690 1.363 . S
C686 H663 0.950 . S
C686 C685 1.397 . S
C686 C687 1.334 . S
C687 H664 0.950 . S
C687 C686 1.334 . S
C687 C688 1.287 . S
C688 C687 1.287 . S
C688 C689 1.524 . S
C688 H707 0.913 . S
C689 H665 0.950 . S
C689 C688 1.524 . S
C689 C690 1.415 . S
C690 H666 0.950 . S
C690 C685 1.363 . S
C690 C689 1.415 . S
C691 H667 0.951 . S
C691 C692 1.366 . S
C691 C693 1.388 . S
C692 C691 1.366 . S
C692 C696 1.385 . S
C693 H668 0.951 . S
C693 C691 1.388 . S
C693 C694 1.366 . S
C694 C693 1.366 . S
C694 C695 1.414 . S
C694 C697 1.499 . S
C695 H669 0.950 . S
C695 C694 1.414 . S
C695 C696 1.374 . S
C696 H670 0.950 . S
C696 C692 1.385 . S
C696 C695 1.374 . S
C697 C694 1.499 . S
C697 C698 1.373 1_565 S
C697 C699 1.389 1_565 S
C698 H671 0.950 1_545 S
C698 C684 1.377 . S
C698 C697 1.373 1_545 S
C699 C683 1.377 . S
C699 C697 1.389 1_545 S
C699 C700 1.524 1_545 S
C700 C699 1.524 1_565 S
C700 C701 1.397 . S
C700 C705 1.363 . S
C701 H672 0.950 . S
C701 C700 1.397 . S
C701 C702 1.334 . S
C702 H673 0.950 . S
C702 C701 1.334 . S
C702 C703 1.287 . S
C703 C702 1.287 . S
C703 C704 1.524 . S
C703 H706 0.999 . S
C704 H674 0.950 . S
C704 C703 1.524 . S
C704 C705 1.415 . S
C705 H675 0.950 1_565 S
C705 C700 1.363 . S
C705 C704 1.415 . S
H706 C703 0.999 . S
H707 C688 0.913 . S
H708 C726 0.951 . S
H709 C728 0.951 . S
H710 C730 0.950 . S
H711 C731 0.950 . S
H712 C733 0.950 . S
H713 C736 0.950 . S
H714 C737 0.950 . S
H715 C739 0.950 . S
H716 C740 0.950 . S
H717 C741 0.951 . S
H718 C743 0.951 . S
H719 C745 0.950 . S
H720 C746 0.950 . S
H721 C748 0.950 . S
H722 C751 0.950 . S
H723 C752 0.950 . S
H724 C754 0.950 . S
H725 C755 0.950 . S
C726 H708 0.951 . S
C726 C727 1.366 . S
C726 C728 1.388 . S
C727 C726 1.366 . S
C727 C731 1.385 . S
C728 H709 0.951 . S
C728 C726 1.388 . S
C728 C729 1.366 . S
C729 C728 1.366 . S
C729 C730 1.414 . S
C729 C732 1.499 . S
C730 H710 0.950 . S
C730 C729 1.414 . S
C730 C731 1.374 . S
C731 H711 0.950 . S
C731 C727 1.385 . S
C731 C730 1.374 . S
C732 C729 1.499 . S
C732 C733 1.373 . S
C732 C734 1.389 . S
C733 H712 0.950 . S
C733 C732 1.373 . S
C733 C749 1.377 . S
C734 C732 1.389 . S
C734 C735 1.524 . S
C734 C748 1.377 . S
C735 C734 1.524 . S
C735 C736 1.397 . S
C735 C740 1.363 . S
C736 H713 0.950 . S
C736 C735 1.397 . S
C736 C737 1.334 . S
C737 H714 0.950 . S
C737 C736 1.334 . S
C737 C738 1.287 . S
C738 C737 1.287 . S
C738 C739 1.524 . S
C738 H757 0.913 1_565 S
C739 H715 0.950 . S
C739 C738 1.524 . S
C739 C740 1.415 . S
C740 H716 0.950 . S
C740 C735 1.363 . S
C740 C739 1.415 . S
C741 H717 0.951 . S
C741 C742 1.366 . S
C741 C743 1.388 . S
C742 C741 1.366 . S
C742 C746 1.385 . S
C743 H718 0.951 . S
C743 C741 1.388 . S
C743 C744 1.366 . S
C744 C743 1.366 . S
C744 C745 1.414 . S
C744 C747 1.499 . S
C745 H719 0.950 . S
C745 C744 1.414 . S
C745 C746 1.374 . S
C746 H720 0.950 . S
C746 C742 1.385 . S
C746 C745 1.374 . S
C747 C744 1.499 . S
C747 C748 1.373 . S
C747 C749 1.389 . S
C748 H721 0.950 . S
C748 C734 1.377 . S
C748 C747 1.373 . S
C749 C733 1.377 . S
C749 C747 1.389 . S
C749 C750 1.524 . S
C750 C749 1.524 . S
C750 C751 1.397 . S
C750 C755 1.363 . S
C751 H722 0.950 . S
C751 C750 1.397 . S
C751 C752 1.334 . S
C752 H723 0.950 . S
C752 C751 1.334 . S
C752 C753 1.287 . S
C753 C752 1.287 . S
C753 C754 1.524 . S
C753 H756 0.999 . S
C754 H724 0.950 . S
C754 C753 1.524 . S
C754 C755 1.415 . S
C755 H725 0.950 . S
C755 C750 1.363 . S
C755 C754 1.415 . S
H756 C753 0.999 . S
H757 C738 0.913 1_545 S
H758 C776 0.951 . S
H759 C778 0.951 . S
H760 C780 0.950 . S
H761 C781 0.950 . S
H762 C783 0.950 . S
H763 C786 0.950 . S
H764 C787 0.950 . S
H765 C789 0.950 . S
H766 C790 0.950 . S
H767 C791 0.951 . S
H768 C793 0.951 . S
H769 C795 0.950 . S
H770 C796 0.950 . S
H771 C798 0.950 1_455 S
H772 C801 0.950 . S
H773 C802 0.950 . S
H774 C804 0.950 1_655 S
H775 C805 0.950 . S
C776 H758 0.951 . S
C776 C777 1.366 . S
C776 C778 1.388 . S
C777 C776 1.366 . S
C777 C781 1.385 . S
C778 H759 0.951 . S
C778 C776 1.388 . S
C778 C779 1.366 . S
C779 C778 1.366 . S
C779 C780 1.414 . S
C779 C782 1.499 . S
C780 H760 0.950 . S
C780 C779 1.414 . S
C780 C781 1.374 . S
C781 H761 0.950 . S
C781 C777 1.385 . S
C781 C780 1.374 . S
C782 C779 1.499 . S
C782 C783 1.373 . S
C782 C784 1.389 . S
C783 H762 0.950 . S
C783 C782 1.373 . S
C783 C799 1.377 . S
C784 C782 1.389 . S
C784 C785 1.524 . S
C784 C798 1.377 . S
C785 C784 1.524 . S
C785 C786 1.397 . S
C785 C790 1.363 . S
C786 H763 0.950 . S
C786 C785 1.397 . S
C786 C787 1.334 . S
C787 H764 0.950 . S
C787 C786 1.334 . S
C787 C788 1.287 . S
C788 C787 1.287 . S
C788 C789 1.524 . S
C788 H807 0.913 . S
C789 H765 0.950 . S
C789 C788 1.524 . S
C789 C790 1.415 . S
C790 H766 0.950 . S
C790 C785 1.363 . S
C790 C789 1.415 . S
C791 H767 0.951 . S
C791 C792 1.366 . S
C791 C793 1.388 . S
C792 C791 1.366 . S
C792 C796 1.385 . S
C793 H768 0.951 . S
C793 C791 1.388 . S
C793 C794 1.366 . S
C794 C793 1.366 . S
C794 C795 1.414 . S
C794 C797 1.499 . S
C795 H769 0.950 . S
C795 C794 1.414 . S
C795 C796 1.374 . S
C796 H770 0.950 . S
C796 C792 1.385 . S
C796 C795 1.374 . S
C797 C794 1.499 . S
C797 C798 1.373 1_455 S
C797 C799 1.389 1_455 S
C798 H771 0.950 1_655 S
C798 C784 1.377 . S
C798 C797 1.373 1_655 S
C799 C783 1.377 . S
C799 C797 1.389 1_655 S
C799 C800 1.524 1_655 S
C800 C799 1.524 1_455 S
C800 C801 1.397 . S
C800 C805 1.363 1_455 S
C801 H772 0.950 . S
C801 C800 1.397 . S
C801 C802 1.334 . S
C802 H773 0.950 . S
C802 C801 1.334 . S
C802 C803 1.287 . S
C803 C802 1.287 . S
C803 C804 1.524 . S
C803 H806 0.999 . S
C804 H774 0.950 1_455 S
C804 C803 1.524 . S
C804 C805 1.415 1_455 S
C805 H775 0.950 . S
C805 C800 1.363 1_655 S
C805 C804 1.415 1_655 S
H806 C803 0.999 . S
H807 C788 0.913 . S
H808 C826 0.951 . S
H809 C828 0.951 . S
H810 C830 0.950 . S
H811 C831 0.950 . S
H812 C833 0.950 . S
H813 C836 0.950 . S
H814 C837 0.950 . S
H815 C839 0.950 . S
H816 C840 0.972 . S
H817 C841 0.951 . S
H818 C843 0.951 . S
H819 C845 0.950 . S
H820 C846 0.950 . S
H821 C848 0.950 . S
H822 C851 0.950 . S
H823 C852 0.950 . S
H824 C854 0.950 . S
H825 C855 0.950 . S
C826 H808 0.951 . S
C826 C827 1.366 . S
C826 C828 1.388 . S
C827 C826 1.366 . S
C827 C831 1.385 . S
C828 H809 0.951 . S
C828 C826 1.388 . S
C828 C829 1.366 . S
C829 C828 1.366 . S
C829 C830 1.414 . S
C829 C832 1.499 . S
C830 H810 0.950 . S
C830 C829 1.414 . S
C830 C831 1.374 . S
C831 H811 0.950 . S
C831 C827 1.385 . S
C831 C830 1.374 . S
C832 C829 1.499 . S
C832 C833 1.373 . S
C832 C834 1.410 . S
C833 H812 0.950 . S
C833 C832 1.373 . S
C833 C849 1.377 1_545 S
C834 C832 1.410 . S
C834 C835 1.532 . S
C834 C848 1.349 1_545 S
C835 C834 1.532 . S
C835 C836 1.397 . S
C835 C840 1.346 1_545 S
C836 H813 0.950 . S
C836 C835 1.397 . S
C836 C837 1.334 . S
C837 H814 0.950 . S
C837 C836 1.334 . S
C837 C838 1.287 . S
C838 C837 1.287 . S
C838 C839 1.524 . S
C838 H857 0.913 . S
C839 H815 0.950 . S
C839 C838 1.524 . S
C839 C840 1.411 1_545 S
C840 H816 0.972 . S
C840 C835 1.346 1_565 S
C840 C839 1.411 1_565 S
C841 H817 0.951 . S
C841 C842 1.366 . S
C841 C843 1.388 . S
C842 C841 1.366 . S
C842 C846 1.385 . S
C843 H818 0.951 . S
C843 C841 1.388 . S
C843 C844 1.366 . S
C844 C843 1.366 . S
C844 C845 1.414 . S
C844 C847 1.499 . S
C845 H819 0.950 . S
C845 C844 1.414 . S
C845 C846 1.374 . S
C846 H820 0.950 . S
C846 C842 1.385 . S
C846 C845 1.374 . S
C847 C844 1.499 . S
C847 C848 1.373 . S
C847 C849 1.389 . S
C848 H821 0.950 . S
C848 C834 1.349 1_565 S
C848 C847 1.373 . S
C849 C833 1.377 1_565 S
C849 C847 1.389 . S
C849 C850 1.524 . S
C850 C849 1.524 . S
C850 C851 1.397 . S
C850 C855 1.363 . S
C851 H822 0.950 . S
C851 C850 1.397 . S
C851 C852 1.334 . S
C852 H823 0.950 . S
C852 C851 1.334 . S
C852 C853 1.287 . S
C853 C852 1.287 . S
C853 C854 1.524 . S
C853 H856 0.999 . S
C854 H824 0.950 . S
C854 C853 1.524 . S
C854 C855 1.415 . S
C855 H825 0.950 . S
C855 C850 1.363 . S
C855 C854 1.415 . S
H856 C853 0.999 . S
H857 C838 0.913 . S
H858 C876 0.951 . S
H859 C878 0.951 . S
H860 C880 0.950 . S
H861 C881 0.950 . S
H862 C883 0.950 . S
H863 C886 0.950 . S
H864 C887 0.950 . S
H865 C889 0.950 . S
H866 C890 0.950 . S
H867 C891 0.951 . S
H868 C893 0.951 . S
H869 C895 0.950 . S
H870 C896 0.950 . S
H871 C898 0.950 . S
H872 C901 0.950 . S
H873 C902 0.950 . S
H874 C904 0.950 . S
H875 C905 0.950 . S
C876 H858 0.951 . S
C876 C877 1.366 . S
C876 C878 1.388 . S
C877 C876 1.366 . S
C877 C881 1.385 . S
C878 H859 0.951 . S
C878 C876 1.388 . S
C878 C879 1.366 . S
C879 C878 1.366 . S
C879 C880 1.414 . S
C879 C882 1.499 . S
C880 H860 0.950 . S
C880 C879 1.414 . S
C880 C881 1.374 . S
C881 H861 0.950 . S
C881 C877 1.385 . S
C881 C880 1.374 . S
C882 C879 1.499 . S
C882 C883 1.373 1_554 S
C882 C884 1.389 . S
C883 H862 0.950 . S
C883 C882 1.373 1_556 S
C883 C899 1.377 . S
C884 C882 1.389 . S
C884 C885 1.524 . S
C884 C898 1.377 . S
C885 C884 1.524 . S
C885 C886 1.397 . S
C885 C890 1.363 . S
C886 H863 0.950 . S
C886 C885 1.397 . S
C886 C887 1.334 . S
C887 H864 0.950 . S
C887 C886 1.334 . S
C887 C888 1.287 . S
C888 C887 1.287 . S
C888 C889 1.524 . S
C888 H907 0.913 . S
C889 H865 0.950 . S
C889 C888 1.524 . S
C889 C890 1.415 . S
C890 H866 0.950 . S
C890 C885 1.363 . S
C890 C889 1.415 . S
C891 H867 0.951 . S
C891 C892 1.366 . S
C891 C893 1.388 . S
C892 C891 1.366 . S
C892 C896 1.385 . S
C893 H868 0.951 . S
C893 C891 1.388 . S
C893 C894 1.366 . S
C894 C893 1.366 . S
C894 C895 1.414 . S
C894 C897 1.499 . S
C895 H869 0.950 . S
C895 C894 1.414 . S
C895 C896 1.374 . S
C896 H870 0.950 . S
C896 C892 1.385 . S
C896 C895 1.374 . S
C897 C894 1.499 . S
C897 C898 1.373 1_556 S
C897 C899 1.389 . S
C898 H871 0.950 . S
C898 C884 1.377 . S
C898 C897 1.373 1_554 S
C899 C883 1.377 . S
C899 C897 1.389 . S
C899 C900 1.524 . S
C900 C899 1.524 . S
C900 C901 1.397 . S
C900 C905 1.363 . S
C901 H872 0.950 . S
C901 C900 1.397 . S
C901 C902 1.334 . S
C902 H873 0.950 . S
C902 C901 1.334 . S
C902 C903 1.287 . S
C903 C902 1.287 . S
C903 C904 1.524 . S
C903 H906 0.999 . S
C904 H874 0.950 . S
C904 C903 1.524 . S
C904 C905 1.415 . S
C905 H875 0.950 . S
C905 C900 1.363 . S
C905 C904 1.415 . S
H906 C903 0.999 . S
H907 C888 0.913 . S
H908 C926 0.951 . S
H909 C928 0.951 . S
H910 C930 0.950 . S
H911 C931 0.950 . S
H912 C933 0.950 . S
H913 C936 0.950 . S
H914 C937 0.950 . S
H915 C939 0.950 . S
H916 C940 0.950 . S
H917 C941 0.951 . S
H918 C943 0.951 . S
H919 C945 0.969 . S
H920 C946 0.950 . S
H921 C948 0.950 . S
H922 C951 0.950 . S
H923 C952 0.950 . S
H924 C954 0.950 . S
H925 C955 0.950 . S
C926 H908 0.951 . S
C926 C927 1.366 . S
C926 C928 1.388 . S
C927 C926 1.366 . S
C927 C931 1.385 . S
C928 H909 0.951 . S
C928 C926 1.388 . S
C928 C929 1.366 . S
C929 C928 1.366 . S
C929 C930 1.414 . S
C929 C932 1.499 . S
C930 H910 0.950 . S
C930 C929 1.414 . S
C930 C931 1.374 . S
C931 H911 0.950 . S
C931 C927 1.385 . S
C931 C930 1.374 . S
C932 C929 1.499 . S
C932 C933 1.373 . S
C932 C934 1.389 . S
C933 H912 0.950 . S
C933 C932 1.373 . S
C933 C949 1.377 . S
C934 C932 1.389 . S
C934 C935 1.524 . S
C934 C948 1.377 . S
C935 C934 1.524 . S
C935 C936 1.397 . S
C935 C940 1.363 . S
C936 H913 0.950 . S
C936 C935 1.397 . S
C936 C937 1.334 . S
C937 H914 0.950 . S
C937 C936 1.334 . S
C937 C938 1.287 . S
C938 C937 1.287 . S
C938 C939 1.524 . S
C938 H957 0.913 . S
C939 H915 0.950 . S
C939 C938 1.524 . S
C939 C940 1.415 . S
C940 H916 0.950 . S
C940 C935 1.363 . S
C940 C939 1.415 . S
C941 H917 0.951 . S
C941 C942 1.366 . S
C941 C943 1.388 . S
C942 C941 1.366 . S
C942 C946 1.385 . S
C943 H918 0.951 . S
C943 C941 1.388 . S
C943 C944 1.366 . S
C944 C943 1.366 . S
C944 C945 1.407 1_455 S
C944 C947 1.499 1_455 S
C945 H919 0.969 . S
C945 C944 1.407 1_655 S
C945 C946 1.363 1_655 S
C946 H920 0.950 . S
C946 C942 1.385 . S
C946 C945 1.363 1_455 S
C947 C944 1.499 1_655 S
C947 C948 1.373 . S
C947 C949 1.389 . S
C948 H921 0.950 . S
C948 C934 1.377 . S
C948 C947 1.373 . S
C949 C933 1.377 . S
C949 C947 1.389 . S
C949 C950 1.524 1_655 S
C950 C949 1.524 1_455 S
C950 C951 1.397 . S
C950 C955 1.363 . S
C951 H922 0.950 . S
C951 C950 1.397 . S
C951 C952 1.334 . S
C952 H923 0.950 . S
C952 C951 1.334 . S
C952 C953 1.287 . S
C953 C952 1.287 . S
C953 C954 1.524 . S
C953 H956 0.999 . S
C954 H924 0.950 . S
C954 C953 1.524 . S
C954 C955 1.415 . S
C955 H925 0.950 . S
C955 C950 1.363 . S
C955 C954 1.415 . S
H956 C953 0.999 . S
H957 C938 0.913 . S
H958 C976 0.951 . S
H959 C978 0.951 . S
H960 C980 0.950 . S
H961 C981 0.950 . S
H962 C983 0.950 . S
H963 C986 0.950 . S
H964 C987 0.950 . S
H965 C989 0.950 . S
H966 C990 0.951 . S
H967 C991 0.951 . S
H968 C993 0.951 . S
H969 C995 0.950 . S
H970 C996 0.950 . S
H971 C998 0.950 1_545 S
H972 C1001 0.950 . S
H973 C1002 0.950 . S
H974 C1004 0.950 . S
H975 C1005 0.950 . S
C976 H958 0.951 . S
C976 C977 1.366 . S
C976 C978 1.388 . S
C977 C976 1.366 . S
C977 C981 1.385 . S
C978 H959 0.951 . S
C978 C976 1.388 . S
C978 C979 1.366 . S
C979 C978 1.366 . S
C979 C980 1.414 . S
C979 C982 1.499 . S
C980 H960 0.950 . S
C980 C979 1.414 . S
C980 C981 1.374 . S
C981 H961 0.950 . S
C981 C977 1.385 . S
C981 C980 1.374 . S
C982 C979 1.499 . S
C982 C983 1.373 1_554 S
C982 C984 1.389 . S
C983 H962 0.950 . S
C983 C982 1.373 1_556 S
C983 C999 1.377 . S
C984 C982 1.389 . S
C984 C985 1.524 . S
C984 C998 1.377 . S
C985 C984 1.524 . S
C985 C986 1.397 . S
C985 C990 1.360 1_565 S
C986 H963 0.950 . S
C986 C985 1.397 . S
C986 C987 1.334 . S
C987 H964 0.950 . S
C987 C986 1.334 . S
C987 C988 1.287 . S
C988 C987 1.287 . S
C988 C989 1.524 1_565 S
C988 H1007 0.913 . S
C989 H965 0.950 . S
C989 C988 1.524 1_545 S
C989 C990 1.417 . S
C990 H966 0.951 . S
C990 C985 1.360 1_545 S
C990 C989 1.417 . S
C991 H967 0.951 . S
C991 C992 1.366 . S
C991 C993 1.388 1_545 S
C992 C991 1.366 . S
C992 C996 1.385 . S
C993 H968 0.951 . S
C993 C991 1.388 1_565 S
C993 C994 1.366 1_565 S
C994 C993 1.366 1_545 S
C994 C995 1.414 . S
C994 C997 1.499 1_545 S
C995 H969 0.950 . S
C995 C994 1.414 . S
C995 C996 1.374 . S
C996 H970 0.950 . S
C996 C992 1.385 . S
C996 C995 1.374 . S
C997 C994 1.499 1_565 S
C997 C998 1.373 1_556 S
C997 C999 1.389 . S
C998 H971 0.950 1_565 S
C998 C984 1.377 . S
C998 C997 1.373 1_554 S
C999 C983 1.377 . S
C999 C997 1.389 . S
C999 C1000 1.524 . S
C1000 C999 1.524 . S
C1000 C1001 1.397 . S
C1000 C1005 1.363 . S
C1001 H972 0.950 . S
C1001 C1000 1.397 . S
C1001 C1002 1.334 . S
C1002 H973 0.950 . S
C1002 C1001 1.334 . S
C1002 C1003 1.287 . S
C1003 C1002 1.287 . S
C1003 C1004 1.524 . S
C1003 H1006 0.999 . S
C1004 H974 0.950 . S
C1004 C1003 1.524 . S
C1004 C1005 1.415 . S
C1005 H975 0.950 . S
C1005 C1000 1.363 . S
C1005 C1004 1.415 . S
H1006 C1003 0.999 . S
H1007 C988 0.913 . S
H1008 C1026 0.951 . S
H1009 C1028 0.951 . S
H1010 C1030 0.950 . S
H1011 C1031 0.950 . S
H1012 C1033 0.950 . S
H1013 C1036 0.950 . S
H1014 C1037 0.950 . S
H1015 C1039 0.950 . S
H1016 C1040 0.950 . S
H1017 C1041 0.951 . S
H1018 C1043 0.951 . S
H1019 C1045 0.950 . S
H1020 C1046 0.950 . S
H1021 C1048 0.950 . S
H1022 C1051 0.950 . S
H1023 C1052 0.950 . S
H1024 C1054 0.950 . S
H1025 C1055 0.950 . S
C1026 H1008 0.951 . S
C1026 C1027 1.366 . S
C1026 C1028 1.388 . S
C1027 C1026 1.366 . S
C1027 C1031 1.385 . S
C1028 H1009 0.951 . S
C1028 C1026 1.388 . S
C1028 C1029 1.366 . S
C1029 C1028 1.366 . S
C1029 C1030 1.414 . S
C1029 C1032 1.499 . S
C1030 H1010 0.950 . S
C1030 C1029 1.414 . S
C1030 C1031 1.374 . S
C1031 H1011 0.950 . S
C1031 C1027 1.385 . S
C1031 C1030 1.374 . S
C1032 C1029 1.499 . S
C1032 C1033 1.373 . S
C1032 C1034 1.389 . S
C1033 H1012 0.950 . S
C1033 C1032 1.373 . S
C1033 C1049 1.377 . S
C1034 C1032 1.389 . S
C1034 C1035 1.524 . S
C1034 C1048 1.377 . S
C1035 C1034 1.524 . S
C1035 C1036 1.397 . S
C1035 C1040 1.363 . S
C1036 H1013 0.950 . S
C1036 C1035 1.397 . S
C1036 C1037 1.334 . S
C1037 H1014 0.950 . S
C1037 C1036 1.334 . S
C1037 C1038 1.287 . S
C1038 C1037 1.287 . S
C1038 C1039 1.524 . S
C1038 H1057 0.913 . S
C1039 H1015 0.950 . S
C1039 C1038 1.524 . S
C1039 C1040 1.415 . S
C1040 H1016 0.950 . S
C1040 C1035 1.363 . S
C1040 C1039 1.415 . S
C1041 H1017 0.951 . S
C1041 C1042 1.366 . S
C1041 C1043 1.388 . S
C1042 C1041 1.366 . S
C1042 C1046 1.385 . S
C1043 H1018 0.951 . S
C1043 C1041 1.388 . S
C1043 C1044 1.366 . S
C1044 C1043 1.366 . S
C1044 C1045 1.414 . S
C1044 C1047 1.499 . S
C1045 H1019 0.950 . S
C1045 C1044 1.414 . S
C1045 C1046 1.374 . S
C1046 H1020 0.950 . S
C1046 C1042 1.385 . S
C1046 C1045 1.374 . S
C1047 C1044 1.499 . S
C1047 C1048 1.373 . S
C1047 C1049 1.389 . S
C1048 H1021 0.950 . S
C1048 C1034 1.377 . S
C1048 C1047 1.373 . S
C1049 C1033 1.377 . S
C1049 C1047 1.389 . S
C1049 C1050 1.524 . S
C1050 C1049 1.524 . S
C1050 C1051 1.397 . S
C1050 C1055 1.363 . S
C1051 H1022 0.950 . S
C1051 C1050 1.397 . S
C1051 C1052 1.334 . S
C1052 H1023 0.950 . S
C1052 C1051 1.334 . S
C1052 C1053 1.287 . S
C1053 C1052 1.287 . S
C1053 C1054 1.524 . S
C1053 H1056 0.999 . S
C1054 H1024 0.950 . S
C1054 C1053 1.524 . S
C1054 C1055 1.415 . S
C1055 H1025 0.950 . S
C1055 C1050 1.363 . S
C1055 C1054 1.415 . S
H1056 C1053 0.999 . S
H1057 C1038 0.913 . S
H1058 C1076 0.951 . S
H1059 C1078 0.951 1_455 S
H1060 C1080 0.950 . S
H1061 C1081 0.950 . S
H1062 C1083 0.950 1_655 S
H1063 C1086 0.950 . S
H1064 C1087 0.950 . S
H1065 C1089 0.950 . S
H1066 C1090 0.950 . S
H1067 C1091 0.951 . S
H1068 C1093 0.951 . S
H1069 C1095 0.950 . S
H1070 C1096 0.950 . S
H1071 C1098 0.950 . S
H1072 C1101 0.950 . S
H1073 C1102 0.950 . S
H1074 C1104 0.950 . S
H1075 C1105 0.950 . S
C1076 H1058 0.951 . S
C1076 C1077 1.366 . S
C1076 C1078 1.388 . S
C1077 C1076 1.366 . S
C1077 C1081 1.385 . S
C1078 H1059 0.951 1_655 S
C1078 C1076 1.388 . S
C1078 C1079 1.366 . S
C1079 C1078 1.366 . S
C1079 C1080 1.414 . S
C1079 C1082 1.499 1_655 S
C1080 H1060 0.950 . S
C1080 C1079 1.414 . S
C1080 C1081 1.374 . S
C1081 H1061 0.950 . S
C1081 C1077 1.385 . S
C1081 C1080 1.374 . S
C1082 C1079 1.499 1_455 S
C1082 C1083 1.373 1_556 S
C1082 C1084 1.389 . S
C1083 H1062 0.950 1_455 S
C1083 C1082 1.373 1_554 S
C1083 C1099 1.377 . S
C1084 C1082 1.389 . S
C1084 C1085 1.524 . S
C1084 C1098 1.377 . S
C1085 C1084 1.524 . S
C1085 C1086 1.397 . S
C1085 C1090 1.363 . S
C1086 H1063 0.950 . S
C1086 C1085 1.397 . S
C1086 C1087 1.334 . S
C1087 H1064 0.950 . S
C1087 C1086 1.334 . S
C1087 C1088 1.287 . S
C1088 C1087 1.287 . S
C1088 C1089 1.524 . S
C1088 H1107 0.913 . S
C1089 H1065 0.950 . S
C1089 C1088 1.524 . S
C1089 C1090 1.415 . S
C1090 H1066 0.950 . S
C1090 C1085 1.363 . S
C1090 C1089 1.415 . S
C1091 H1067 0.951 . S
C1091 C1092 1.366 . S
C1091 C1093 1.388 . S
C1092 C1091 1.366 . S
C1092 C1096 1.385 . S
C1093 H1068 0.951 . S
C1093 C1091 1.388 . S
C1093 C1094 1.366 . S
C1094 C1093 1.366 . S
C1094 C1095 1.414 . S
C1094 C1097 1.499 . S
C1095 H1069 0.950 . S
C1095 C1094 1.414 . S
C1095 C1096 1.374 . S
C1096 H1070 0.950 . S
C1096 C1092 1.385 . S
C1096 C1095 1.374 . S
C1097 C1094 1.499 . S
C1097 C1098 1.373 1_554 S
C1097 C1099 1.389 . S
C1098 H1071 0.950 . S
C1098 C1084 1.377 . S
C1098 C1097 1.373 1_556 S
C1099 C1083 1.377 . S
C1099 C1097 1.389 . S
C1099 C1100 1.524 . S
C1100 C1099 1.524 . S
C1100 C1101 1.397 . S
C1100 C1105 1.363 1_455 S
C1101 H1072 0.950 . S
C1101 C1100 1.397 . S
C1101 C1102 1.334 . S
C1102 H1073 0.950 . S
C1102 C1101 1.334 . S
C1102 C1103 1.287 . S
C1103 C1102 1.287 . S
C1103 C1104 1.524 1_455 S
C1103 H1106 0.999 1_455 S
C1104 H1074 0.950 . S
C1104 C1103 1.524 1_655 S
C1104 C1105 1.415 . S
C1105 H1075 0.950 . S
C1105 C1100 1.363 1_655 S
C1105 C1104 1.415 . S
H1106 C1103 0.999 1_655 S
H1107 C1088 0.913 . S
H1108 C1126 0.951 . S
H1109 C1128 0.951 . S
H1110 C1130 0.950 . S
H1111 C1131 0.950 . S
H1112 C1133 0.950 . S
H1113 C1136 0.950 . S
H1114 C1137 0.950 . S
H1115 C1139 0.950 . S
H1116 C1140 0.950 . S
H1117 C1141 0.951 . S
H1118 C1143 0.951 . S
H1119 C1145 0.950 . S
H1120 C1146 0.950 . S
H1121 C1148 0.950 1_565 S
H1122 C1151 0.950 . S
H1123 C1152 0.950 . S
H1124 C1154 0.950 . S
H1125 C1155 0.950 . S
C1126 H1108 0.951 . S
C1126 C1127 1.366 . S
C1126 C1128 1.388 . S
C1127 C1126 1.366 . S
C1127 C1131 1.385 . S
C1128 H1109 0.951 . S
C1128 C1126 1.388 . S
C1128 C1129 1.366 . S
C1129 C1128 1.366 . S
C1129 C1130 1.414 . S
C1129 C1132 1.499 . S
C1130 H1110 0.950 . S
C1130 C1129 1.414 . S
C1130 C1131 1.374 . S
C1131 H1111 0.950 . S
C1131 C1127 1.385 . S
C1131 C1130 1.374 . S
C1132 C1129 1.499 . S
C1132 C1133 1.373 . S
C1132 C1134 1.389 . S
C1133 H1112 0.950 . S
C1133 C1132 1.373 . S
C1133 C1149 1.377 . S
C1134 C1132 1.389 . S
C1134 C1135 1.524 . S
C1134 C1148 1.377 . S
C1135 C1134 1.524 . S
C1135 C1136 1.397 . S
C1135 C1140 1.363 1_545 S
C1136 H1113 0.950 . S
C1136 C1135 1.397 . S
C1136 C1137 1.334 . S
C1137 H1114 0.950 . S
C1137 C1136 1.334 . S
C1137 C1138 1.287 . S
C1138 C1137 1.287 . S
C1138 C1139 1.524 1_545 S
C1138 H1157 0.921 . S
C1139 H1115 0.950 . S
C1139 C1138 1.524 1_565 S
C1139 C1140 1.415 . S
C1140 H1116 0.950 . S
C1140 C1135 1.363 1_565 S
C1140 C1139 1.415 . S
C1141 H1117 0.951 . S
C1141 C1142 1.366 . S
C1141 C1143 1.388 1_565 S
C1142 C1141 1.366 . S
C1142 C1146 1.385 . S
C1143 H1118 0.951 . S
C1143 C1141 1.388 1_545 S
C1143 C1144 1.366 1_545 S
C1144 C1143 1.366 1_565 S
C1144 C1145 1.414 . S
C1144 C1147 1.499 1_565 S
C1145 H1119 0.950 . S
C1145 C1144 1.414 . S
C1145 C1146 1.374 . S
C1146 H1120 0.950 . S
C1146 C1142 1.385 . S
C1146 C1145 1.374 . S
C1147 C1144 1.499 1_545 S
C1147 C1148 1.373 . S
C1147 C1149 1.389 . S
C1148 H1121 0.950 1_545 S
C1148 C1134 1.377 . S
C1148 C1147 1.373 . S
C1149 C1133 1.377 . S
C1149 C1147 1.389 . S
C1149 C1150 1.524 . S
C1150 C1149 1.524 . S
C1150 C1151 1.397 . S
C1150 C1155 1.363 . S
C1151 H1122 0.950 . S
C1151 C1150 1.397 . S
C1151 C1152 1.334 . S
C1152 H1123 0.950 . S
C1152 C1151 1.334 . S
C1152 C1153 1.287 . S
C1153 C1152 1.287 . S
C1153 C1154 1.524 . S
C1153 H1156 0.999 . S
C1154 H1124 0.950 . S
C1154 C1153 1.524 . S
C1154 C1155 1.415 . S
C1155 H1125 0.950 . S
C1155 C1150 1.363 . S
C1155 C1154 1.415 . S
H1156 C1153 0.999 . S
H1157 C1138 0.921 . S
H1158 C1176 0.951 . S
H1159 C1178 0.951 . S
H1160 C1180 0.950 . S
H1161 C1181 0.950 . S
H1162 C1183 0.950 . S
H1163 C1186 0.950 . S
H1164 C1187 0.950 . S
H1165 C1189 0.950 . S
H1166 C1190 0.950 . S
H1167 C1191 0.951 . S
H1168 C1193 0.951 . S
H1169 C1195 0.950 . S
H1170 C1196 0.950 . S
H1171 C1198 0.950 . S
H1172 C1201 0.950 . S
H1173 C1202 0.950 . S
H1174 C1204 0.950 . S
H1175 C1205 0.950 . S
C1176 H1158 0.951 . S
C1176 C1177 1.366 . S
C1176 C1178 1.388 . S
C1177 C1176 1.366 . S
C1177 C1181 1.385 . S
C1178 H1159 0.951 . S
C1178 C1176 1.388 . S
C1178 C1179 1.366 . S
C1179 C1178 1.366 . S
C1179 C1180 1.414 . S
C1179 C1182 1.499 . S
C1180 H1160 0.950 . S
C1180 C1179 1.414 . S
C1180 C1181 1.374 . S
C1181 H1161 0.950 . S
C1181 C1177 1.385 . S
C1181 C1180 1.374 . S
C1182 C1179 1.499 . S
C1182 C1183 1.373 1_556 S
C1182 C1184 1.389 . S
C1183 H1162 0.950 . S
C1183 C1182 1.373 1_554 S
C1183 C1199 1.377 . S
C1184 C1182 1.389 . S
C1184 C1185 1.524 . S
C1184 C1198 1.377 . S
C1185 C1184 1.524 . S
C1185 C1186 1.397 . S
C1185 C1190 1.363 . S
C1186 H1163 0.950 . S
C1186 C1185 1.397 . S
C1186 C1187 1.334 . S
C1187 H1164 0.950 . S
C1187 C1186 1.334 . S
C1187 C1188 1.287 . S
C1188 C1187 1.287 . S
C1188 C1189 1.524 . S
C1188 H1207 0.913 . S
C1189 H1165 0.950 . S
C1189 C1188 1.524 . S
C1189 C1190 1.415 . S
C1190 H1166 0.950 . S
C1190 C1185 1.363 . S
C1190 C1189 1.415 . S
C1191 H1167 0.951 . S
C1191 C1192 1.366 . S
C1191 C1193 1.388 . S
C1192 C1191 1.366 . S
C1192 C1196 1.385 . S
C1193 H1168 0.951 . S
C1193 C1191 1.388 . S
C1193 C1194 1.366 . S
C1194 C1193 1.366 . S
C1194 C1195 1.414 . S
C1194 C1197 1.499 . S
C1195 H1169 0.950 . S
C1195 C1194 1.414 . S
C1195 C1196 1.374 . S
C1196 H1170 0.950 . S
C1196 C1192 1.385 . S
C1196 C1195 1.374 . S
C1197 C1194 1.499 . S
C1197 C1198 1.373 1_554 S
C1197 C1199 1.389 . S
C1198 H1171 0.950 . S
C1198 C1184 1.377 . S
C1198 C1197 1.373 1_556 S
C1199 C1183 1.377 . S
C1199 C1197 1.389 . S
C1199 C1200 1.524 . S
C1200 C1199 1.524 . S
C1200 C1201 1.397 . S
C1200 C1205 1.363 . S
C1201 H1172 0.950 . S
C1201 C1200 1.397 . S
C1201 C1202 1.334 . S
C1202 H1173 0.950 . S
C1202 C1201 1.334 . S
C1202 C1203 1.287 . S
C1203 C1202 1.287 . S
C1203 C1204 1.524 . S
C1203 H1206 0.999 . S
C1204 H1174 0.950 . S
C1204 C1203 1.524 . S
C1204 C1205 1.415 . S
C1205 H1175 0.950 . S
C1205 C1200 1.363 . S
C1205 C1204 1.415 . S
H1206 C1203 0.999 . S
H1207 C1188 0.913 . S
H1208 C1226 0.951 . S
H1209 C1228 0.951 . S
H1210 C1230 0.950 . S
H1211 C1231 0.950 . S
H1212 C1233 0.950 . S
H1213 C1236 0.950 . S
H1214 C1237 0.950 . S
H1215 C1239 0.950 . S
H1216 C1240 0.950 . S
H1217 C1241 0.951 . S
H1218 C1243 0.951 . S
H1219 C1245 0.950 . S
H1220 C1246 0.950 . S
H1221 C1248 0.950 1_655 S
H1222 C1251 0.950 . S
H1223 C1252 0.950 . S
H1224 C1254 0.950 . S
H1225 C1255 0.950 . S
C1226 H1208 0.951 . S
C1226 C1227 1.366 . S
C1226 C1228 1.388 . S
C1227 C1226 1.366 . S
C1227 C1231 1.385 . S
C1228 H1209 0.951 . S
C1228 C1226 1.388 . S
C1228 C1229 1.366 . S
C1229 C1228 1.366 . S
C1229 C1230 1.414 . S
C1229 C1232 1.499 . S
C1230 H1210 0.950 . S
C1230 C1229 1.414 . S
C1230 C1231 1.374 . S
C1231 H1211 0.950 . S
C1231 C1227 1.385 . S
C1231 C1230 1.374 . S
C1232 C1229 1.499 . S
C1232 C1233 1.373 . S
C1232 C1234 1.389 . S
C1233 H1212 0.950 . S
C1233 C1232 1.373 . S
C1233 C1249 1.377 . S
C1234 C1232 1.389 . S
C1234 C1235 1.524 . S
C1234 C1248 1.377 . S
C1235 C1234 1.524 . S
C1235 C1236 1.397 . S
C1235 C1240 1.363 1_455 S
C1236 H1213 0.950 . S
C1236 C1235 1.397 . S
C1236 C1237 1.334 . S
C1237 H1214 0.950 . S
C1237 C1236 1.334 . S
C1237 C1238 1.287 . S
C1238 C1237 1.287 . S
C1238 C1239 1.524 1_455 S
C1238 H1257 0.913 . S
C1239 H1215 0.950 . S
C1239 C1238 1.524 1_655 S
C1239 C1240 1.415 . S
C1240 H1216 0.950 . S
C1240 C1235 1.363 1_655 S
C1240 C1239 1.415 . S
C1241 H1217 0.951 . S
C1241 C1242 1.366 . S
C1241 C1243 1.388 1_655 S
C1242 C1241 1.366 . S
C1242 C1246 1.385 . S
C1243 H1218 0.951 . S
C1243 C1241 1.388 1_455 S
C1243 C1244 1.366 1_455 S
C1244 C1243 1.366 1_655 S
C1244 C1245 1.414 . S
C1244 C1247 1.499 1_655 S
C1245 H1219 0.950 . S
C1245 C1244 1.414 . S
C1245 C1246 1.374 . S
C1246 H1220 0.950 . S
C1246 C1242 1.385 . S
C1246 C1245 1.374 . S
C1247 C1244 1.499 1_455 S
C1247 C1248 1.373 . S
C1247 C1249 1.389 . S
C1248 H1221 0.950 1_455 S
C1248 C1234 1.377 . S
C1248 C1247 1.373 . S
C1249 C1233 1.377 . S
C1249 C1247 1.389 . S
C1249 C1250 1.524 . S
C1250 C1249 1.524 . S
C1250 C1251 1.397 . S
C1250 C1255 1.363 . S
C1251 H1222 0.950 . S
C1251 C1250 1.397 . S
C1251 C1252 1.334 . S
C1252 H1223 0.950 . S
C1252 C1251 1.334 . S
C1252 C1253 1.287 . S
C1253 C1252 1.287 . S
C1253 C1254 1.524 . S
C1253 H1256 0.999 . S
C1254 H1224 0.950 . S
C1254 C1253 1.524 . S
C1254 C1255 1.415 . S
C1255 H1225 0.950 . S
C1255 C1250 1.363 . S
C1255 C1254 1.415 . S
H1256 C1253 0.999 . S
H1257 C1238 0.913 . S
H1258 C1276 0.951 . S
H1259 C1278 0.951 . S
H1260 C1280 0.950 . S
H1261 C1281 0.950 . S
H1262 C1283 0.950 . S
H1263 C1286 0.950 1_556 S
H1264 C1287 0.950 . S
H1265 C1289 0.950 . S
H1266 C1290 0.950 . S
H1267 C1291 0.951 . S
H1268 C1293 0.951 . S
H1269 C1295 0.950 1_545 S
H1270 C1296 0.950 . S
H1271 C1298 0.950 . S
H1272 C1301 0.950 1_554 S
H1273 C1302 0.950 . S
H1274 C1304 0.950 . S
H1275 C1305 0.950 . S
C1276 H1258 0.951 . S
C1276 C1277 1.366 . S
C1276 C1278 1.388 . S
C1277 C1276 1.366 . S
C1277 C1281 1.385 . S
C1278 H1259 0.951 . S
C1278 C1276 1.388 . S
C1278 C1279 1.366 . S
C1279 C1278 1.366 . S
C1279 C1280 1.414 . S
C1279 C1282 1.499 . S
C1280 H1260 0.950 . S
C1280 C1279 1.414 . S
C1280 C1281 1.374 . S
C1281 H1261 0.950 . S
C1281 C1277 1.385 . S
C1281 C1280 1.374 . S
C1282 C1279 1.499 . S
C1282 C1283 1.373 . S
C1282 C1284 1.389 1_556 S
C1283 H1262 0.950 . S
C1283 C1282 1.373 . S
C1283 C1299 1.377 . S
C1284 C1282 1.389 1_554 S
C1284 C1285 1.524 . S
C1284 C1298 1.377 . S
C1285 C1284 1.524 . S
C1285 C1286 1.397 . S
C1285 C1290 1.363 . S
C1286 H1263 0.950 1_554 S
C1286 C1285 1.397 . S
C1286 C1287 1.334 . S
C1287 H1264 0.950 . S
C1287 C1286 1.334 . S
C1287 C1288 1.287 . S
C1288 C1287 1.287 . S
C1288 C1289 1.524 . S
C1288 H1307 0.913 . S
C1289 H1265 0.950 . S
C1289 C1288 1.524 . S
C1289 C1290 1.415 . S
C1290 H1266 0.950 . S
C1290 C1285 1.363 . S
C1290 C1289 1.415 . S
C1291 H1267 0.951 . S
C1291 C1292 1.366 . S
C1291 C1293 1.388 . S
C1292 C1291 1.366 . S
C1292 C1296 1.385 . S
C1293 H1268 0.951 . S
C1293 C1291 1.388 . S
C1293 C1294 1.366 . S
C1294 C1293 1.366 . S
C1294 C1295 1.414 . S
C1294 C1297 1.499 1_565 S
C1295 H1269 0.950 1_565 S
C1295 C1294 1.414 . S
C1295 C1296 1.374 . S
C1296 H1270 0.950 . S
C1296 C1292 1.385 . S
C1296 C1295 1.374 . S
C1297 C1294 1.499 1_545 S
C1297 C1298 1.373 . S
C1297 C1299 1.389 1_554 S
C1298 H1271 0.950 . S
C1298 C1284 1.377 . S
C1298 C1297 1.373 . S
C1299 C1283 1.377 . S
C1299 C1297 1.389 1_556 S
C1299 C1300 1.524 1_545 S
C1300 C1299 1.524 1_565 S
C1300 C1301 1.397 . S
C1300 C1305 1.363 . S
C1301 H1272 0.950 1_556 S
C1301 C1300 1.397 . S
C1301 C1302 1.334 . S
C1302 H1273 0.950 . S
C1302 C1301 1.334 . S
C1302 C1303 1.287 . S
C1303 C1302 1.287 . S
C1303 C1304 1.524 . S
C1303 H1306 0.999 . S
C1304 H1274 0.950 . S
C1304 C1303 1.524 . S
C1304 C1305 1.415 . S
C1305 H1275 0.950 . S
C1305 C1300 1.363 . S
C1305 C1304 1.415 . S
H1306 C1303 0.999 . S
H1307 C1288 0.913 . S
H1308 C1326 0.951 . S
H1309 C1328 0.951 . S
H1310 C1330 0.950 . S
H1311 C1331 0.950 . S
H1312 C1333 0.950 . S
H1313 C1336 0.950 . S
H1314 C1337 0.950 . S
H1315 C1339 0.950 . S
H1316 C1340 0.950 . S
H1317 C1341 0.951 . S
H1318 C1343 0.951 . S
H1319 C1345 0.950 . S
H1320 C1346 0.950 . S
H1321 C1348 0.950 . S
H1322 C1351 0.950 . S
H1323 C1352 0.950 . S
H1324 C1354 0.950 . S
H1325 C1355 0.950 . S
C1326 H1308 0.951 . S
C1326 C1327 1.366 . S
C1326 C1328 1.388 . S
C1327 C1326 1.366 . S
C1327 C1331 1.385 . S
C1328 H1309 0.951 . S
C1328 C1326 1.388 . S
C1328 C1329 1.366 . S
C1329 C1328 1.366 . S
C1329 C1330 1.414 . S
C1329 C1332 1.499 . S
C1330 H1310 0.950 . S
C1330 C1329 1.414 . S
C1330 C1331 1.374 . S
C1331 H1311 0.950 . S
C1331 C1327 1.385 . S
C1331 C1330 1.374 . S
C1332 C1329 1.499 . S
C1332 C1333 1.373 . S
C1332 C1334 1.389 . S
C1333 H1312 0.950 . S
C1333 C1332 1.373 . S
C1333 C1349 1.377 . S
C1334 C1332 1.389 . S
C1334 C1335 1.524 . S
C1334 C1348 1.377 . S
C1335 C1334 1.524 . S
C1335 C1336 1.397 . S
C1335 C1340 1.363 . S
C1336 H1313 0.950 . S
C1336 C1335 1.397 . S
C1336 C1337 1.334 . S
C1337 H1314 0.950 . S
C1337 C1336 1.334 . S
C1337 C1338 1.287 . S
C1338 C1337 1.287 . S
C1338 C1339 1.524 . S
C1338 H1357 0.913 . S
C1339 H1315 0.950 . S
C1339 C1338 1.524 . S
C1339 C1340 1.415 . S
C1340 H1316 0.950 . S
C1340 C1335 1.363 . S
C1340 C1339 1.415 . S
C1341 H1317 0.951 . S
C1341 C1342 1.366 . S
C1341 C1343 1.388 . S
C1342 C1341 1.366 . S
C1342 C1346 1.385 . S
C1343 H1318 0.951 . S
C1343 C1341 1.388 . S
C1343 C1344 1.366 . S
C1344 C1343 1.366 . S
C1344 C1345 1.414 . S
C1344 C1347 1.499 . S
C1345 H1319 0.950 . S
C1345 C1344 1.414 . S
C1345 C1346 1.374 . S
C1346 H1320 0.950 . S
C1346 C1342 1.385 . S
C1346 C1345 1.374 . S
C1347 C1344 1.499 . S
C1347 C1348 1.373 . S
C1347 C1349 1.389 . S
C1348 H1321 0.950 . S
C1348 C1334 1.377 . S
C1348 C1347 1.373 . S
C1349 C1333 1.377 . S
C1349 C1347 1.389 . S
C1349 C1350 1.524 . S
C1350 C1349 1.524 . S
C1350 C1351 1.397 . S
C1350 C1355 1.363 . S
C1351 H1322 0.950 . S
C1351 C1350 1.397 . S
C1351 C1352 1.334 . S
C1352 H1323 0.950 . S
C1352 C1351 1.334 . S
C1352 C1353 1.287 . S
C1353 C1352 1.287 . S
C1353 C1354 1.524 . S
C1353 H1356 0.999 . S
C1354 H1324 0.950 . S
C1354 C1353 1.524 . S
C1354 C1355 1.415 . S
C1355 H1325 0.950 . S
C1355 C1350 1.363 . S
C1355 C1354 1.415 . S
H1356 C1353 0.999 . S
H1357 C1338 0.913 . S
H1358 C1376 0.951 . S
H1359 C1378 0.951 1_655 S
H1360 C1380 0.950 . S
H1361 C1381 0.950 . S
H1362 C1383 0.950 1_455 S
H1363 C1386 0.950 . S
H1364 C1387 0.950 . S
H1365 C1389 0.950 . S
H1366 C1390 0.950 . S
H1367 C1391 0.951 . S
H1368 C1393 0.951 . S
H1369 C1395 0.950 . S
H1370 C1396 0.950 . S
H1371 C1398 0.950 . S
H1372 C1401 0.950 . S
H1373 C1402 0.950 . S
H1374 C1404 0.950 . S
H1375 C1405 0.950 1_455 S
C1376 H1358 0.951 . S
C1376 C1377 1.366 . S
C1376 C1378 1.388 . S
C1377 C1376 1.366 . S
C1377 C1381 1.385 . S
C1378 H1359 0.951 1_455 S
C1378 C1376 1.388 . S
C1378 C1379 1.366 . S
C1379 C1378 1.366 . S
C1379 C1380 1.414 . S
C1379 C1382 1.499 1_455 S
C1380 H1360 0.950 . S
C1380 C1379 1.414 . S
C1380 C1381 1.374 . S
C1381 H1361 0.950 . S
C1381 C1377 1.385 . S
C1381 C1380 1.374 . S
C1382 C1379 1.499 1_655 S
C1382 C1383 1.373 1_554 S
C1382 C1384 1.389 . S
C1383 H1362 0.950 1_655 S
C1383 C1382 1.373 1_556 S
C1383 C1399 1.377 . S
C1384 C1382 1.389 . S
C1384 C1385 1.524 . S
C1384 C1398 1.377 . S
C1385 C1384 1.524 . S
C1385 C1386 1.397 . S
C1385 C1390 1.363 . S
C1386 H1363 0.950 . S
C1386 C1385 1.397 . S
C1386 C1387 1.334 . S
C1387 H1364 0.950 . S
C1387 C1386 1.334 . S
C1387 C1388 1.287 . S
C1388 C1387 1.287 . S
C1388 C1389 1.524 . S
C1388 H1407 0.913 . S
C1389 H1365 0.950 . S
C1389 C1388 1.524 . S
C1389 C1390 1.415 . S
C1390 H1366 0.950 . S
C1390 C1385 1.363 . S
C1390 C1389 1.415 . S
C1391 H1367 0.951 . S
C1391 C1392 1.366 . S
C1391 C1393 1.388 . S
C1392 C1391 1.366 . S
C1392 C1396 1.385 . S
C1393 H1368 0.951 . S
C1393 C1391 1.388 . S
C1393 C1394 1.366 . S
C1394 C1393 1.366 . S
C1394 C1395 1.414 . S
C1394 C1397 1.499 . S
C1395 H1369 0.950 . S
C1395 C1394 1.414 . S
C1395 C1396 1.374 . S
C1396 H1370 0.950 . S
C1396 C1392 1.385 . S
C1396 C1395 1.374 . S
C1397 C1394 1.499 . S
C1397 C1398 1.373 1_556 S
C1397 C1399 1.389 . S
C1398 H1371 0.950 . S
C1398 C1384 1.377 . S
C1398 C1397 1.373 1_554 S
C1399 C1383 1.377 . S
C1399 C1397 1.389 . S
C1399 C1400 1.524 . S
C1400 C1399 1.524 . S
C1400 C1401 1.397 . S
C1400 C1405 1.363 . S
C1401 H1372 0.950 . S
C1401 C1400 1.397 . S
C1401 C1402 1.334 . S
C1402 H1373 0.950 . S
C1402 C1401 1.334 . S
C1402 C1403 1.287 1_655 S
C1403 C1402 1.287 1_455 S
C1403 C1404 1.524 . S
C1403 H1406 0.999 . S
C1404 H1374 0.950 . S
C1404 C1403 1.524 . S
C1404 C1405 1.415 1_455 S
C1405 H1375 0.950 1_655 S
C1405 C1400 1.363 . S
C1405 C1404 1.415 1_655 S
H1406 C1403 0.999 . S
H1407 C1388 0.913 . S
H1408 C1426 0.951 . S
H1409 C1428 0.951 . S
H1410 C1430 0.950 . S
H1411 C1431 0.950 . S
H1412 C1433 0.950 . S
H1413 C1436 0.946 1_545 S
H1414 C1437 0.950 1_545 S
H1415 C1439 0.950 . S
H1416 C1440 0.950 . S
H1417 C1441 0.951 . S
H1418 C1443 0.951 . S
H1419 C1445 0.950 . S
H1420 C1446 0.950 . S
H1421 C1448 0.950 . S
H1422 C1451 0.950 . S
H1423 C1452 0.950 . S
H1424 C1454 0.950 1_545 S
H1425 C1455 0.950 1_545 S
C1426 H1408 0.951 . S
C1426 C1427 1.366 . S
C1426 C1428 1.388 1_545 S
C1427 C1426 1.366 . S
C1427 C1431 1.385 . S
C1428 H1409 0.951 . S
C1428 C1426 1.388 1_565 S
C1428 C1429 1.366 1_565 S
C1429 C1428 1.366 1_545 S
C1429 C1430 1.414 . S
C1429 C1432 1.499 1_545 S
C1430 H1410 0.950 . S
C1430 C1429 1.414 . S
C1430 C1431 1.374 . S
C1431 H1411 0.950 . S
C1431 C1427 1.385 . S
C1431 C1430 1.374 . S
C1432 C1429 1.499 1_565 S
C1432 C1433 1.373 . S
C1432 C1434 1.389 . S
C1433 H1412 0.950 . S
C1433 C1432 1.373 . S
C1433 C1449 1.377 . S
C1434 C1432 1.389 . S
C1434 C1435 1.524 . S
C1434 C1448 1.377 . S
C1435 C1434 1.524 . S
C1435 C1436 1.397 . S
C1435 C1440 1.363 . S
C1436 H1413 0.946 1_565 S
C1436 C1435 1.397 . S
C1436 C1437 1.334 . S
C1437 H1414 0.950 1_565 S
C1437 C1436 1.334 . S
C1437 C1438 1.287 . S
C1438 C1437 1.287 . S
C1438 C1439 1.524 . S
C1438 H1457 0.913 . S
C1439 H1415 0.950 . S
C1439 C1438 1.524 . S
C1439 C1440 1.415 . S
C1440 H1416 0.950 . S
C1440 C1435 1.363 . S
C1440 C1439 1.415 . S
C1441 H1417 0.951 . S
C1441 C1442 1.366 . S
C1441 C1443 1.388 . S
C1442 C1441 1.366 . S
C1442 C1446 1.385 . S
C1443 H1418 0.951 . S
C1443 C1441 1.388 . S
C1443 C1444 1.366 . S
C1444 C1443 1.366 . S
C1444 C1445 1.414 . S
C1444 C1447 1.499 . S
C1445 H1419 0.950 . S
C1445 C1444 1.414 . S
C1445 C1446 1.374 . S
C1446 H1420 0.950 . S
C1446 C1442 1.385 . S
C1446 C1445 1.374 . S
C1447 C1444 1.499 . S
C1447 C1448 1.373 . S
C1447 C1449 1.389 . S
C1448 H1421 0.950 . S
C1448 C1434 1.377 . S
C1448 C1447 1.373 . S
C1449 C1433 1.377 . S
C1449 C1447 1.389 . S
C1449 C1450 1.524 . S
C1450 C1449 1.524 . S
C1450 C1451 1.397 . S
C1450 C1455 1.363 . S
C1451 H1422 0.950 . S
C1451 C1450 1.397 . S
C1451 C1452 1.334 . S
C1452 H1423 0.950 . S
C1452 C1451 1.334 . S
C1452 C1453 1.287 . S
C1453 C1452 1.287 . S
C1453 C1454 1.524 . S
C1453 H1456 0.999 . S
C1454 H1424 0.950 1_565 S
C1454 C1453 1.524 . S
C1454 C1455 1.415 . S
C1455 H1425 0.950 1_565 S
C1455 C1450 1.363 . S
C1455 C1454 1.415 . S
H1456 C1453 0.999 . S
H1457 C1438 0.913 . S
C277 C32 1.396 . S
C292 N175 1.414 . S
C327 N223 1.384 . S
C342 C56 1.259 . S
C377 N8 1.415 . S
C392 C118 1.396 . S
C427 N51 1.384 . S
C442 C142 1.259 . S
C477 C199 1.397 . S
C492 N94 1.415 . S
C527 C228 1.259 . S
C542 N137 1.384 . S
C577 C33 0.921 . S
C592 N180 0.869 . S
C627 C82 0.902 . S
C642 N218 0.919 . S
C677 N3 0.869 . S
C692 C119 0.921 . S
C727 N46 0.919 . S
C742 C168 0.901 . S
C777 N89 0.870 . S
C792 C212 0.921 . S
C827 C254 0.902 . S
C842 N132 0.918 . S
C877 C13 1.591 . S
C892 C242 1.557 . S
C927 C83 1.703 . S
C942 C39 1.464 . S
C977 C99 1.590 . S
C992 C70 1.557 . S
C1027 C169 1.703 . S
C1042 C125 1.465 . S
C1077 C156 1.556 . S
C1092 C211 1.590 . S
C1127 C255 1.703 . S
C1142 C185 1.466 . S
C1177 C161 1.685 . S
C1192 C113 1.603 . S
C1227 C205 1.583 . S
C1242 C162 1.500 . S
C1277 C247 1.684 . S
C1292 C204 1.602 . S
C1327 C248 1.499 . S
C1342 C40 1.582 . S
C1377 C27 1.603 . S
C1392 C75 1.685 . S
C1427 C76 1.501 . S
C1442 C126 1.583 . S
