# Generated by pormake.
# Topology uox, (4)-cn, num edge types: 1
# Building blocks:
#     Node 0, Type 0, BuildingBlock: UXUYUI_clean_sbu_0, # of connection points: 4
#     Node 1, Type 0, BuildingBlock: UXUYUI_clean_sbu_0, # of connection points: 4
#     Node 2, Type 0, BuildingBlock: UXUYUI_clean_sbu_0, # of connection points: 4
#     Node 3, Type 0, BuildingBlock: UXUYUI_clean_sbu_0, # of connection points: 4
#     Node 4, Type 0, BuildingBlock: UXUYUI_clean_sbu_0, # of connection points: 4
#     Node 5, Type 0, BuildingBlock: UXUYUI_clean_sbu_0, # of connection points: 4
#     Node 6, Type 0, BuildingBlock: UXUYUI_clean_sbu_0, # of connection points: 4
#     Node 7, Type 0, BuildingBlock: UXUYUI_clean_sbu_0, # of connection points: 4
#     Node 8, Type 0, BuildingBlock: UXUYUI_clean_sbu_0, # of connection points: 4
#     Node 9, Type 0, BuildingBlock: UXUYUI_clean_sbu_0, # of connection points: 4
#     Node 10, Type 0, BuildingBlock: UXUYUI_clean_sbu_0, # of connection points: 4
#     Node 11, Type 0, BuildingBlock: UXUYUI_clean_sbu_0, # of connection points: 4
#     Node 12, Type 0, BuildingBlock: UXUYUI_clean_sbu_0, # of connection points: 4
#     Node 13, Type 0, BuildingBlock: UXUYUI_clean_sbu_0, # of connection points: 4
#     Node 14, Type 0, BuildingBlock: UXUYUI_clean_sbu_0, # of connection points: 4
#     Node 15, Type 0, BuildingBlock: UXUYUI_clean_sbu_0, # of connection points: 4
#     Node 16, Type 0, BuildingBlock: UXUYUI_clean_sbu_0, # of connection points: 4
#     Node 17, Type 0, BuildingBlock: UXUYUI_clean_sbu_0, # of connection points: 4
#     Node 18, Type 0, BuildingBlock: UXUYUI_clean_sbu_0, # of connection points: 4
#     Node 19, Type 0, BuildingBlock: UXUYUI_clean_sbu_0, # of connection points: 4
#     Node 20, Type 0, BuildingBlock: UXUYUI_clean_sbu_0, # of connection points: 4
#     Node 21, Type 0, BuildingBlock: UXUYUI_clean_sbu_0, # of connection points: 4
#     Node 22, Type 0, BuildingBlock: UXUYUI_clean_sbu_0, # of connection points: 4
#     Node 23, Type 0, BuildingBlock: UXUYUI_clean_sbu_0, # of connection points: 4
#     Node 24, Type 0, BuildingBlock: UXUYUI_clean_sbu_0, # of connection points: 4
#     Node 25, Type 0, BuildingBlock: UXUYUI_clean_sbu_0, # of connection points: 4
#     Node 26, Type 0, BuildingBlock: UXUYUI_clean_sbu_0, # of connection points: 4
#     Node 27, Type 0, BuildingBlock: UXUYUI_clean_sbu_0, # of connection points: 4
#     Node 28, Type 0, BuildingBlock: UXUYUI_clean_sbu_0, # of connection points: 4
#     Node 29, Type 0, BuildingBlock: UXUYUI_clean_sbu_0, # of connection points: 4
#     Node 30, Type 0, BuildingBlock: UXUYUI_clean_sbu_0, # of connection points: 4
#     Node 31, Type 0, BuildingBlock: UXUYUI_clean_sbu_0, # of connection points: 4
#     Edge 32, Type (0, 0), BuildingBlock: KIFKEQ_clean_linker_1, # of connection points: 2
#     Edge 33, Type (0, 0), BuildingBlock: KIFKEQ_clean_linker_1, # of connection points: 2
#     Edge 34, Type (0, 0), BuildingBlock: KIFKEQ_clean_linker_1, # of connection points: 2
#     Edge 35, Type (0, 0), BuildingBlock: KIFKEQ_clean_linker_1, # of connection points: 2
#     Edge 36, Type (0, 0), BuildingBlock: KIFKEQ_clean_linker_1, # of connection points: 2
#     Edge 37, Type (0, 0), BuildingBlock: KIFKEQ_clean_linker_1, # of connection points: 2
#     Edge 38, Type (0, 0), BuildingBlock: KIFKEQ_clean_linker_1, # of connection points: 2
#     Edge 39, Type (0, 0), BuildingBlock: KIFKEQ_clean_linker_1, # of connection points: 2
#     Edge 40, Type (0, 0), BuildingBlock: KIFKEQ_clean_linker_1, # of connection points: 2
#     Edge 41, Type (0, 0), BuildingBlock: KIFKEQ_clean_linker_1, # of connection points: 2
#     Edge 42, Type (0, 0), BuildingBlock: KIFKEQ_clean_linker_1, # of connection points: 2
#     Edge 43, Type (0, 0), BuildingBlock: KIFKEQ_clean_linker_1, # of connection points: 2
#     Edge 44, Type (0, 0), BuildingBlock: KIFKEQ_clean_linker_1, # of connection points: 2
#     Edge 45, Type (0, 0), BuildingBlock: KIFKEQ_clean_linker_1, # of connection points: 2
#     Edge 46, Type (0, 0), BuildingBlock: KIFKEQ_clean_linker_1, # of connection points: 2
#     Edge 47, Type (0, 0), BuildingBlock: KIFKEQ_clean_linker_1, # of connection points: 2
#     Edge 48, Type (0, 0), BuildingBlock: KIFKEQ_clean_linker_1, # of connection points: 2
#     Edge 49, Type (0, 0), BuildingBlock: KIFKEQ_clean_linker_1, # of connection points: 2
#     Edge 50, Type (0, 0), BuildingBlock: KIFKEQ_clean_linker_1, # of connection points: 2
#     Edge 51, Type (0, 0), BuildingBlock: KIFKEQ_clean_linker_1, # of connection points: 2
#     Edge 52, Type (0, 0), BuildingBlock: KIFKEQ_clean_linker_1, # of connection points: 2
#     Edge 53, Type (0, 0), BuildingBlock: KIFKEQ_clean_linker_1, # of connection points: 2
#     Edge 54, Type (0, 0), BuildingBlock: KIFKEQ_clean_linker_1, # of connection points: 2
#     Edge 55, Type (0, 0), BuildingBlock: KIFKEQ_clean_linker_1, # of connection points: 2
#     Edge 56, Type (0, 0), BuildingBlock: KIFKEQ_clean_linker_1, # of connection points: 2
#     Edge 57, Type (0, 0), BuildingBlock: KIFKEQ_clean_linker_1, # of connection points: 2
#     Edge 58, Type (0, 0), BuildingBlock: KIFKEQ_clean_linker_1, # of connection points: 2
#     Edge 59, Type (0, 0), BuildingBlock: KIFKEQ_clean_linker_1, # of connection points: 2
#     Edge 60, Type (0, 0), BuildingBlock: KIFKEQ_clean_linker_1, # of connection points: 2
#     Edge 61, Type (0, 0), BuildingBlock: KIFKEQ_clean_linker_1, # of connection points: 2
#     Edge 62, Type (0, 0), BuildingBlock: KIFKEQ_clean_linker_1, # of connection points: 2
#     Edge 63, Type (0, 0), BuildingBlock: KIFKEQ_clean_linker_1, # of connection points: 2
#     Edge 64, Type (0, 0), BuildingBlock: KIFKEQ_clean_linker_1, # of connection points: 2
#     Edge 65, Type (0, 0), BuildingBlock: KIFKEQ_clean_linker_1, # of connection points: 2
#     Edge 66, Type (0, 0), BuildingBlock: KIFKEQ_clean_linker_1, # of connection points: 2
#     Edge 67, Type (0, 0), BuildingBlock: KIFKEQ_clean_linker_1, # of connection points: 2
#     Edge 68, Type (0, 0), BuildingBlock: KIFKEQ_clean_linker_1, # of connection points: 2
#     Edge 69, Type (0, 0), BuildingBlock: KIFKEQ_clean_linker_1, # of connection points: 2
#     Edge 70, Type (0, 0), BuildingBlock: KIFKEQ_clean_linker_1, # of connection points: 2
#     Edge 71, Type (0, 0), BuildingBlock: KIFKEQ_clean_linker_1, # of connection points: 2
#     Edge 72, Type (0, 0), BuildingBlock: KIFKEQ_clean_linker_1, # of connection points: 2
#     Edge 73, Type (0, 0), BuildingBlock: KIFKEQ_clean_linker_1, # of connection points: 2
#     Edge 74, Type (0, 0), BuildingBlock: KIFKEQ_clean_linker_1, # of connection points: 2
#     Edge 75, Type (0, 0), BuildingBlock: KIFKEQ_clean_linker_1, # of connection points: 2
#     Edge 76, Type (0, 0), BuildingBlock: KIFKEQ_clean_linker_1, # of connection points: 2
#     Edge 77, Type (0, 0), BuildingBlock: KIFKEQ_clean_linker_1, # of connection points: 2
#     Edge 78, Type (0, 0), BuildingBlock: KIFKEQ_clean_linker_1, # of connection points: 2
#     Edge 79, Type (0, 0), BuildingBlock: KIFKEQ_clean_linker_1, # of connection points: 2
#     Edge 80, Type (0, 0), BuildingBlock: KIFKEQ_clean_linker_1, # of connection points: 2
#     Edge 81, Type (0, 0), BuildingBlock: KIFKEQ_clean_linker_1, # of connection points: 2
#     Edge 82, Type (0, 0), BuildingBlock: KIFKEQ_clean_linker_1, # of connection points: 2
#     Edge 83, Type (0, 0), BuildingBlock: KIFKEQ_clean_linker_1, # of connection points: 2
#     Edge 84, Type (0, 0), BuildingBlock: KIFKEQ_clean_linker_1, # of connection points: 2
#     Edge 85, Type (0, 0), BuildingBlock: KIFKEQ_clean_linker_1, # of connection points: 2
#     Edge 86, Type (0, 0), BuildingBlock: KIFKEQ_clean_linker_1, # of connection points: 2
#     Edge 87, Type (0, 0), BuildingBlock: KIFKEQ_clean_linker_1, # of connection points: 2
#     Edge 88, Type (0, 0), BuildingBlock: KIFKEQ_clean_linker_1, # of connection points: 2
#     Edge 89, Type (0, 0), BuildingBlock: KIFKEQ_clean_linker_1, # of connection points: 2
#     Edge 90, Type (0, 0), BuildingBlock: KIFKEQ_clean_linker_1, # of connection points: 2
#     Edge 91, Type (0, 0), BuildingBlock: KIFKEQ_clean_linker_1, # of connection points: 2
#     Edge 92, Type (0, 0), BuildingBlock: KIFKEQ_clean_linker_1, # of connection points: 2
#     Edge 93, Type (0, 0), BuildingBlock: KIFKEQ_clean_linker_1, # of connection points: 2
#     Edge 94, Type (0, 0), BuildingBlock: KIFKEQ_clean_linker_1, # of connection points: 2
#     Edge 95, Type (0, 0), BuildingBlock: KIFKEQ_clean_linker_1, # of connection points: 2
# Relax obj value: 0.188
# Max RMSD: 0.179
# Mean RMSD: 0.179
data_MOF--net-uox--node1-UXUYUI_clean_sbu_0--edge1-KIFKEQ_clean_linker_1
_symmetry_space_group_name_H-M    P1
_symmetry_Int_Tables_number       1
_symmetry_cell_setting            triclinic
loop_
_symmetry_equiv_pos_as_xyz
'x, y, z'
_cell_length_a     66.25045
_cell_length_b     66.244727
_cell_length_c     117.67523
_cell_angle_alpha  89.999739
_cell_angle_beta   90.005937
_cell_angle_gamma 90.003158
loop_
_atom_site_label
_atom_site_type_symbol
_atom_site_fract_x
_atom_site_fract_y
_atom_site_fract_z
_atom_type_partial_charge
Li0 Li 0.45017 0.04708 0.15133 0.0
Li1 Li 0.43211 0.03815 0.16885 0.0
Li2 Li 0.42316 0.0229 0.15062 0.0
Li3 Li 0.41556 0.05853 0.15456 0.0
C4 C 0.45295 0.00053 0.15844 0.0
N5 N 0.45909 0.95936 0.15697 0.0
C6 C 0.44984 0.98826 0.16795 0.0
C7 C 0.45935 0.9919 0.14822 0.0
C8 C 0.453 0.96747 0.16703 0.0
C9 C 0.4623 0.97104 0.14764 0.0
C10 C 0.44746 0.07438 0.17279 0.0
C11 C 0.44259 0.0899 0.19112 0.0
N12 N 0.46295 0.09129 0.1924 0.0
C13 C 0.46833 0.07602 0.17426 0.0
C14 C 0.43446 0.08146 0.18126 0.0
C15 C 0.47587 0.08461 0.18424 0.0
C16 C 0.47666 0.07585 0.14273 0.0
N17 N 0.47508 0.05579 0.14496 0.0
C18 C 0.50818 0.04994 0.13757 0.0
C19 C 0.49039 0.0428 0.14256 0.0
C20 C 0.51009 0.07058 0.135 0.0
C21 C 0.49405 0.08359 0.13768 0.0
H22 H 0.46429 0.08583 0.14484 0.0
H23 H 0.48874 0.02692 0.14446 0.0
C24 C 0.41736 0.02565 0.19004 0.0
N25 N 0.43423 0.03239 0.18468 0.0
C26 C 0.41819 0.01978 0.20141 0.0
C27 C 0.4537 0.0282 0.20163 0.0
C28 C 0.45226 0.0336 0.19017 0.0
C29 C 0.43654 0.02097 0.20733 0.0
H30 H 0.40333 0.02442 0.18542 0.0
H31 H 0.46558 0.03838 0.18562 0.0
C32 C 0.43545 0.05339 0.13091 0.0
N33 N 0.45438 0.0684 0.11178 0.0
C34 C 0.43312 0.07367 0.1279 0.0
C35 C 0.44726 0.0407 0.12414 0.0
C36 C 0.44283 0.08097 0.1182 0.0
C37 C 0.45676 0.04859 0.11452 0.0
C38 C 0.385 0.0384 0.16319 0.0
C39 C 0.37136 0.02964 0.15559 0.0
C40 C 0.37803 0.05197 0.17139 0.0
C41 C 0.35093 0.03475 0.15627 0.0
C42 C 0.3575 0.05671 0.17178 0.0
N43 N 0.34449 0.04808 0.16428 0.0
C44 C 0.40628 0.98401 0.15092 0.0
C45 C 0.40838 0.99873 0.13258 0.0
C46 C 0.39584 0.96744 0.14656 0.0
N47 N 0.41222 0.99923 0.14392 0.0
C48 C 0.39774 0.98256 0.12788 0.0
C49 C 0.39108 0.96681 0.13494 0.0
H50 H 0.40896 0.98514 0.15996 0.0
H51 H 0.41288 0.01126 0.12727 0.0
C52 C 0.40123 0.09865 0.15578 0.0
N53 N 0.39743 0.08007 0.15138 0.0
C54 C 0.38967 0.11523 0.15241 0.0
C55 C 0.37011 0.09312 0.14033 0.0
C56 C 0.38221 0.07701 0.14382 0.0
C57 C 0.37405 0.1126 0.14447 0.0
H58 H 0.41369 0.10073 0.16159 0.0
H59 H 0.37994 0.06219 0.1402 0.0
O60 O 0.4497 0.02087 0.15913 0.0
O61 O 0.43978 0.06586 0.16313 0.0
O62 O 0.42651 0.04607 0.14054 0.0
O63 O 0.4051 0.03383 0.16257 0.0
H64 H 0.4449 0.99468 0.17593 0.0
H65 H 0.46178 0.00117 0.14079 0.0
H66 H 0.45056 0.95778 0.1743 0.0
H67 H 0.46712 0.96414 0.13977 0.0
H68 H 0.43272 0.09534 0.19777 0.0
H69 H 0.47861 0.07055 0.16781 0.0
H70 H 0.41828 0.0803 0.18025 0.0
H71 H 0.49199 0.0859 0.18551 0.0
H72 H 0.52018 0.0394 0.1356 0.0
H73 H 0.49502 0.09964 0.13603 0.0
H74 H 0.40463 0.01433 0.20554 0.0
H75 H 0.46817 0.02907 0.20589 0.0
H76 H 0.42412 0.08373 0.13307 0.0
H77 H 0.44926 0.02499 0.12637 0.0
H78 H 0.44127 0.09666 0.1158 0.0
H79 H 0.46607 0.03899 0.10925 0.0
H80 H 0.37648 0.01916 0.14916 0.0
H81 H 0.3884 0.05886 0.17734 0.0
H82 H 0.34021 0.02816 0.15041 0.0
H83 H 0.35191 0.06727 0.17805 0.0
H84 H 0.39065 0.95577 0.1523 0.0
H85 H 0.39434 0.98259 0.11888 0.0
H86 H 0.39313 0.13002 0.15582 0.0
H87 H 0.35842 0.09053 0.13406 0.0
Li88 Li 0.20529 0.19881 0.40327 0.0
Li89 Li 0.21394 0.18043 0.42071 0.0
Li90 Li 0.22938 0.1717 0.40251 0.0
Li91 Li 0.19366 0.16427 0.40627 0.0
C92 C 0.25174 0.20148 0.41054 0.0
N93 N 0.29288 0.20786 0.40925 0.0
C94 C 0.26387 0.1986 0.42012 0.0
C95 C 0.26049 0.20776 0.40033 0.0
C96 C 0.28465 0.20188 0.41929 0.0
C97 C 0.28133 0.21084 0.39984 0.0
C98 C 0.17797 0.19593 0.42468 0.0
C99 C 0.16228 0.19088 0.44295 0.0
N100 N 0.16145 0.21123 0.44444 0.0
C101 C 0.17692 0.21679 0.42637 0.0
C102 C 0.17053 0.18285 0.43301 0.0
C103 C 0.16852 0.22422 0.43643 0.0
C104 C 0.17627 0.2254 0.39534 0.0
N105 N 0.19651 0.22369 0.39689 0.0
C106 C 0.20197 0.25603 0.38844 0.0
C107 C 0.20942 0.23857 0.39365 0.0
C108 C 0.18111 0.25805 0.38654 0.0
C109 C 0.16821 0.24249 0.39014 0.0
H110 H 0.1664 0.21332 0.39804 0.0
H111 H 0.22546 0.23678 0.39498 0.0
C112 C 0.22483 0.1651 0.44208 0.0
N113 N 0.21937 0.18229 0.43658 0.0
C114 C 0.23012 0.16564 0.45355 0.0
C115 C 0.22393 0.20159 0.45357 0.0
C116 C 0.219 0.20038 0.44203 0.0
C117 C 0.22971 0.18406 0.45949 0.0
H118 H 0.22552 0.151 0.43748 0.0
H119 H 0.21512 0.21391 0.4374 0.0
C120 C 0.19926 0.18454 0.38276 0.0
N121 N 0.1847 0.20408 0.36371 0.0
C122 C 0.17886 0.18303 0.37986 0.0
C123 C 0.21229 0.19585 0.37593 0.0
C124 C 0.17179 0.19305 0.3702 0.0
C125 C 0.20463 0.20567 0.36635 0.0
C126 C 0.21327 0.13341 0.41463 0.0
C127 C 0.22209 0.11992 0.40696 0.0
C128 C 0.19926 0.12635 0.42257 0.0
C129 C 0.2166 0.09957 0.40731 0.0
C130 C 0.19414 0.1059 0.42263 0.0
N131 N 0.20283 0.09304 0.41506 0.0
C132 C 0.26843 0.15518 0.40281 0.0
C133 C 0.25331 0.15631 0.38455 0.0
C134 C 0.28496 0.14461 0.3985 0.0
N135 N 0.25304 0.16071 0.39583 0.0
C136 C 0.26941 0.14548 0.37991 0.0
C137 C 0.28535 0.13926 0.38696 0.0
H138 H 0.26746 0.15824 0.41181 0.0
H139 H 0.24063 0.16044 0.37926 0.0
C140 C 0.15345 0.15011 0.40721 0.0
N141 N 0.17204 0.14646 0.40278 0.0
C142 C 0.13681 0.13894 0.40353 0.0
C143 C 0.15886 0.12011 0.39105 0.0
C144 C 0.17504 0.13177 0.39489 0.0
C145 C 0.13937 0.12392 0.39523 0.0
H146 H 0.15142 0.16217 0.41328 0.0
H147 H 0.18988 0.12964 0.39126 0.0
O148 O 0.2314 0.19815 0.41115 0.0
O149 O 0.18634 0.18834 0.41496 0.0
O150 O 0.20637 0.17536 0.39237 0.0
O151 O 0.21819 0.15345 0.41432 0.0
H152 H 0.25736 0.19374 0.4281 0.0
H153 H 0.25132 0.20999 0.39283 0.0
H154 H 0.29424 0.19962 0.42662 0.0
H155 H 0.28833 0.21557 0.39197 0.0
H156 H 0.15656 0.18094 0.4495 0.0
H157 H 0.18273 0.22713 0.42005 0.0
H158 H 0.17127 0.16667 0.43184 0.0
H159 H 0.16768 0.24033 0.43787 0.0
H160 H 0.21244 0.26763 0.38573 0.0
H161 H 0.15202 0.24355 0.38902 0.0
H162 H 0.23495 0.15181 0.45761 0.0
H163 H 0.22322 0.21611 0.45777 0.0
H164 H 0.16853 0.17445 0.38509 0.0
H165 H 0.22811 0.19723 0.37808 0.0
H166 H 0.15601 0.19212 0.36789 0.0
H167 H 0.21451 0.21459 0.36103 0.0
H168 H 0.23292 0.12511 0.40074 0.0
H169 H 0.19229 0.1366 0.42856 0.0
H170 H 0.22323 0.08898 0.4014 0.0
H171 H 0.18323 0.10025 0.42869 0.0
H172 H 0.29677 0.13975 0.40424 0.0
H173 H 0.26918 0.14156 0.37097 0.0
H174 H 0.12203 0.14229 0.40699 0.0
H175 H 0.16141 0.10889 0.38452 0.0
Li176 Li 0.05102 0.95572 0.64968 0.0
Li177 Li 0.06704 0.96306 0.66818 0.0
Li178 Li 0.07951 0.97787 0.65126 0.0
Li179 Li 0.08444 0.94274 0.65418 0.0
C180 C 0.04736 0.0 0.65343 0.0
N181 N 0.03932 0.03728 0.64392 0.0
C182 C 0.04793 0.01738 0.66015 0.0
C183 C 0.04261 0.00156 0.64188 0.0
C184 C 0.04385 0.0361 0.65518 0.0
C185 C 0.03861 0.02054 0.63724 0.0
C186 C 0.04176 0.92874 0.66696 0.0
C187 C 0.02228 0.90061 0.67394 0.0
N188 N 0.00723 0.91351 0.67694 0.0
C189 C 0.02609 0.94173 0.6701 0.0
C190 C 0.03985 0.90801 0.66887 0.0
C191 C 0.00876 0.93374 0.67514 0.0
C192 C 0.0278 0.93138 0.63574 0.0
N193 N 0.02686 0.9484 0.64214 0.0
C194 C 0.99153 0.95162 0.63851 0.0
C195 C 0.00927 0.95864 0.64358 0.0
C196 C 0.99193 0.93383 0.63196 0.0
C197 C 0.01046 0.92379 0.63055 0.0
H198 H 0.04199 0.92344 0.6349 0.0
H199 H 0.00895 0.97203 0.64884 0.0
C200 C 0.06851 0.987 0.68742 0.0
N201 N 0.06364 0.96803 0.68401 0.0
C202 C 0.06734 0.99232 0.69887 0.0
C203 C 0.05653 0.95833 0.70317 0.0
C204 C 0.05797 0.95364 0.69161 0.0
C205 C 0.06122 0.97793 0.70693 0.0
H206 H 0.07368 0.9979 0.68124 0.0
H207 H 0.05479 0.93847 0.68877 0.0
C208 C 0.09026 0.95507 0.63203 0.0
N209 N 0.12061 0.95236 0.616 0.0
C210 C 0.11007 0.96029 0.63489 0.0
C211 C 0.0859 0.94842 0.62104 0.0
C212 C 0.1252 0.95883 0.62666 0.0
C213 C 0.10145 0.94717 0.61305 0.0
C214 C 0.10766 0.95755 0.6718 0.0
C215 C 0.12504 0.96797 0.67509 0.0
C216 C 0.10265 0.93941 0.67719 0.0
C217 C 0.13716 0.96007 0.68373 0.0
C218 C 0.11515 0.93202 0.68579 0.0
N219 N 0.132 0.94241 0.68886 0.0
C220 C 0.09979 0.01424 0.65406 0.0
C221 C 0.09269 0.00705 0.63474 0.0
C222 C 0.11 0.03184 0.65102 0.0
N223 N 0.09166 0.00215 0.64594 0.0
C224 C 0.10307 0.02435 0.63129 0.0
C225 C 0.11217 0.03692 0.63948 0.0
H226 H 0.09849 0.01005 0.66291 0.0
H227 H 0.08583 0.99732 0.62846 0.0
C228 C 0.0914 0.90332 0.64746 0.0
N229 N 0.10117 0.9201 0.65117 0.0
C230 C 0.10232 0.88657 0.64377 0.0
C231 C 0.13322 0.90451 0.64799 0.0
C232 C 0.12167 0.92096 0.65162 0.0
C233 C 0.12353 0.88714 0.64382 0.0
H234 H 0.07509 0.90319 0.64711 0.0
H235 H 0.12906 0.93462 0.65443 0.0
O236 O 0.05189 0.98159 0.65802 0.0
O237 O 0.05879 0.93609 0.66185 0.0
O238 O 0.07518 0.95607 0.63995 0.0
O239 O 0.09567 0.9653 0.6634 0.0
H240 H 0.05154 0.01646 0.66909 0.0
H241 H 0.04233 0.98827 0.63653 0.0
H242 H 0.0443 0.04969 0.66027 0.0
H243 H 0.03504 0.02198 0.6283 0.0
H244 H 0.02059 0.88459 0.67547 0.0
H245 H 0.02727 0.95781 0.6687 0.0
H246 H 0.05182 0.89776 0.66644 0.0
H247 H 0.99652 0.94361 0.67762 0.0
H248 H 0.97764 0.95994 0.63975 0.0
H249 H 0.01147 0.90985 0.62578 0.0
H250 H 0.07162 0.00745 0.70139 0.0
H251 H 0.05172 0.94675 0.70907 0.0
H252 H 0.11377 0.9654 0.64336 0.0
H253 H 0.07065 0.94424 0.61871 0.0
H254 H 0.14058 0.96283 0.62876 0.0
H255 H 0.09828 0.94206 0.6045 0.0
H256 H 0.1291 0.98205 0.67101 0.0
H257 H 0.0893 0.93109 0.67479 0.0
H258 H 0.15065 0.96798 0.68636 0.0
H259 H 0.11146 0.91801 0.69004 0.0
H260 H 0.11627 0.04124 0.65766 0.0
H261 H 0.10445 0.02744 0.6223 0.0
H262 H 0.09423 0.87339 0.64079 0.0
H263 H 0.14952 0.90567 0.64807 0.0
Li264 Li 0.28803 0.81939 0.92057 0.0
Li265 Li 0.29349 0.80062 0.9031 0.0
Li266 Li 0.30638 0.83506 0.90576 0.0
Li267 Li 0.27055 0.8296 0.90314 0.0
C268 C 0.32332 0.8011 0.92304 0.0
N269 N 0.34109 0.78243 0.94153 0.0
C270 C 0.32248 0.78011 0.92419 0.0
C271 C 0.33347 0.81255 0.93123 0.0
C272 C 0.33149 0.77097 0.93361 0.0
C273 C 0.34226 0.80285 0.94054 0.0
C274 C 0.25005 0.8018 0.91736 0.0
C275 C 0.22128 0.7823 0.92346 0.0
N276 N 0.21439 0.7985 0.92941 0.0
C277 C 0.24269 0.81827 0.92355 0.0
C278 C 0.2393 0.78365 0.91734 0.0
C279 C 0.22464 0.81629 0.92957 0.0
C280 C 0.28123 0.83377 0.94282 0.0
N281 N 0.28454 0.8168 0.93661 0.0
C282 C 0.27996 0.79615 0.95307 0.0
C283 C 0.2838 0.79819 0.94145 0.0
C284 C 0.27635 0.81343 0.95972 0.0
C285 C 0.27705 0.83243 0.9544 0.0
H286 H 0.28122 0.84834 0.93871 0.0
H287 H 0.28586 0.78489 0.93626 0.0
C288 C 0.31329 0.77562 0.88765 0.0
N289 N 0.2995 0.77544 0.8962 0.0
C290 C 0.31942 0.7576 0.8826 0.0
C291 C 0.2971 0.73949 0.89527 0.0
C292 C 0.29112 0.75793 0.89996 0.0
C293 C 0.31153 0.73922 0.88652 0.0
H294 H 0.3198 0.78978 0.88492 0.0
H295 H 0.28027 0.75828 0.90682 0.0
C296 C 0.29096 0.86607 0.91647 0.0
N297 N 0.30615 0.90451 0.91978 0.0
C298 C 0.28173 0.88267 0.9113 0.0
C299 C 0.30767 0.86911 0.92352 0.0
C300 C 0.28969 0.90196 0.91303 0.0
C301 C 0.3152 0.88862 0.92503 0.0
C302 C 0.28442 0.81769 0.88214 0.0
C303 C 0.29231 0.82509 0.87195 0.0
C304 C 0.26827 0.80412 0.88191 0.0
C305 C 0.28393 0.81872 0.86166 0.0
C306 C 0.26031 0.79811 0.87145 0.0
N307 N 0.26824 0.80547 0.86163 0.0
C308 C 0.34696 0.84793 0.90527 0.0
C309 C 0.32445 0.86783 0.89432 0.0
C310 C 0.36336 0.85933 0.90152 0.0
N311 N 0.32804 0.85226 0.90157 0.0
C312 C 0.3404 0.87972 0.89039 0.0
C313 C 0.36021 0.87529 0.89385 0.0
H314 H 0.34939 0.83532 0.91093 0.0
H315 H 0.30923 0.87071 0.8914 0.0
C316 C 0.22799 0.8354 0.89779 0.0
N317 N 0.2474 0.84144 0.89611 0.0
C318 C 0.21203 0.84672 0.89333 0.0
C319 C 0.23636 0.86922 0.88476 0.0
C320 C 0.25179 0.85752 0.88939 0.0
C321 C 0.21614 0.86423 0.88701 0.0
H322 H 0.22475 0.82214 0.90277 0.0
H323 H 0.26738 0.86165 0.88794 0.0
O324 O 0.3144 0.81034 0.91392 0.0
O325 O 0.26797 0.80312 0.91164 0.0
O326 O 0.28362 0.84698 0.91473 0.0
O327 O 0.29248 0.82389 0.89226 0.0
H328 H 0.31482 0.77097 0.91796 0.0
H329 H 0.33458 0.82874 0.93042 0.0
H330 H 0.33082 0.75475 0.93464 0.0
H331 H 0.35005 0.81156 0.94696 0.0
H332 H 0.2128 0.76834 0.92351 0.0
H333 H 0.25073 0.83246 0.92365 0.0
H334 H 0.24484 0.77074 0.91265 0.0
H335 H 0.21876 0.82891 0.93438 0.0
H336 H 0.27976 0.78119 0.95676 0.0
H337 H 0.27382 0.84616 0.95905 0.0
H338 H 0.33076 0.75799 0.87597 0.0
H339 H 0.29065 0.72559 0.89849 0.0
H340 H 0.26849 0.88076 0.90606 0.0
H341 H 0.3148 0.85652 0.92772 0.0
H342 H 0.28274 0.91491 0.90902 0.0
H343 H 0.32824 0.89113 0.93038 0.0
H344 H 0.30478 0.83565 0.872 0.0
H345 H 0.26191 0.79827 0.88971 0.0
H346 H 0.28989 0.82431 0.8537 0.0
H347 H 0.24782 0.78761 0.87114 0.0
H348 H 0.37838 0.85554 0.90446 0.0
H349 H 0.33736 0.89172 0.88438 0.0
H350 H 0.19667 0.84224 0.89522 0.0
H351 H 0.24024 0.88226 0.87966 0.0
Li352 Li 0.42197 0.98108 0.34699 0.0
Li353 Li 0.41538 0.94512 0.34344 0.0
Li354 Li 0.4496 0.9576 0.34672 0.0
Li355 Li 0.43164 0.96532 0.329 0.0
C356 C 0.43467 0.95171 0.36714 0.0
N357 N 0.45362 0.93804 0.38658 0.0
C358 C 0.43285 0.93151 0.3704 0.0
C359 C 0.44598 0.96501 0.37381 0.0
C360 C 0.44256 0.92488 0.38026 0.0
C361 C 0.4555 0.95779 0.3836 0.0
C362 C 0.38444 0.96402 0.33452 0.0
C363 C 0.35757 0.94427 0.32629 0.0
N364 N 0.34427 0.95297 0.33361 0.0
C365 C 0.3705 0.97282 0.34192 0.0
C366 C 0.37794 0.9497 0.3266 0.0
C367 C 0.35025 0.96702 0.34134 0.0
C368 C 0.40461 0.01979 0.3463 0.0
N369 N 0.41038 0.00468 0.35341 0.0
C370 C 0.39484 0.02122 0.36917 0.0
C371 C 0.40594 0.00517 0.36468 0.0
C372 C 0.3884 0.03687 0.36199 0.0
C373 C 0.39378 0.03626 0.35046 0.0
H374 H 0.40775 0.01865 0.3373 0.0
H375 H 0.4103 0.99272 0.37008 0.0
C376 C 0.40182 0.90474 0.34229 0.0
N377 N 0.39773 0.92324 0.3467 0.0
C378 C 0.39042 0.88799 0.34555 0.0
C379 C 0.37046 0.90976 0.35763 0.0
C380 C 0.38239 0.92605 0.35422 0.0
C381 C 0.37467 0.89036 0.35343 0.0
H382 H 0.41435 0.90286 0.3365 0.0
H383 H 0.37985 0.94083 0.35783 0.0
C384 C 0.45145 0.00387 0.33899 0.0
N385 N 0.45687 0.04519 0.33988 0.0
C386 C 0.44839 0.01563 0.32928 0.0
C387 C 0.45743 0.01309 0.34913 0.0
C388 C 0.45118 0.0365 0.32991 0.0
C389 C 0.46002 0.03402 0.34942 0.0
C390 C 0.44817 0.92951 0.32561 0.0
C391 C 0.46912 0.92856 0.32433 0.0
C392 C 0.43565 0.92173 0.31711 0.0
C393 C 0.47721 0.91992 0.3145 0.0
C394 C 0.44432 0.91325 0.3074 0.0
N395 N 0.46475 0.91253 0.30631 0.0
C396 C 0.47669 0.92998 0.35586 0.0
C397 C 0.48956 0.96338 0.35558 0.0
C398 C 0.4942 0.92294 0.36109 0.0
N399 N 0.47462 0.94988 0.35333 0.0
C400 C 0.50747 0.95694 0.36073 0.0
C401 C 0.50987 0.93649 0.36362 0.0
H402 H 0.46461 0.91959 0.35386 0.0
H403 H 0.48753 0.97911 0.35343 0.0
C404 C 0.41684 0.97526 0.30738 0.0
N405 N 0.43392 0.97022 0.3131 0.0
C406 C 0.41763 0.97986 0.29582 0.0
C407 C 0.45362 0.97394 0.2962 0.0
C408 C 0.45215 0.9697 0.30781 0.0
C409 C 0.43619 0.97919 0.29003 0.0
H410 H 0.40262 0.97609 0.31184 0.0
H411 H 0.46559 0.96614 0.31262 0.0
O412 O 0.42573 0.95838 0.35736 0.0
O413 O 0.40439 0.96924 0.33507 0.0
O414 O 0.44859 0.98345 0.33858 0.0
O415 O 0.43994 0.93807 0.33511 0.0
H416 H 0.42423 0.92099 0.36531 0.0
H417 H 0.44757 0.98068 0.37139 0.0
H418 H 0.44139 0.90926 0.38285 0.0
H419 H 0.46443 0.96787 0.3888 0.0
H420 H 0.35235 0.93313 0.32025 0.0
H421 H 0.37526 0.98388 0.34813 0.0
H422 H 0.38855 0.94273 0.32081 0.0
H423 H 0.33931 0.97364 0.34705 0.0
H424 H 0.39093 0.02117 0.37811 0.0
H425 H 0.38876 0.04786 0.34462 0.0
H426 H 0.39409 0.87329 0.3421 0.0
H427 H 0.35867 0.91216 0.36386 0.0
H428 H 0.44377 0.00874 0.32136 0.0
H429 H 0.45981 0.00422 0.35673 0.0
H430 H 0.44879 0.0458 0.32247 0.0
H431 H 0.46451 0.04137 0.35723 0.0
H432 H 0.47903 0.9346 0.33079 0.0
H433 H 0.4194 0.92239 0.31797 0.0
H434 H 0.4934 0.91915 0.31337 0.0
H435 H 0.43482 0.90726 0.30073 0.0
H436 H 0.49557 0.907 0.36299 0.0
H437 H 0.51918 0.96787 0.36258 0.0
H438 H 0.40387 0.98433 0.29155 0.0
H439 H 0.46824 0.97305 0.29213 0.0
Li440 Li 0.27054 0.17107 0.59845 0.0
Li441 Li 0.30629 0.16241 0.59565 0.0
Li442 Li 0.2956 0.19734 0.59845 0.0
Li443 Li 0.28792 0.17939 0.5807 0.0
C444 C 0.29931 0.18257 0.61909 0.0
N445 N 0.31274 0.20107 0.63872 0.0
C446 C 0.31926 0.17998 0.62266 0.0
C447 C 0.28613 0.1944 0.62554 0.0
C448 C 0.32577 0.18949 0.63261 0.0
C449 C 0.29323 0.20369 0.63542 0.0
C450 C 0.2862 0.13238 0.58649 0.0
C451 C 0.30488 0.10435 0.57872 0.0
N452 N 0.29494 0.09162 0.58586 0.0
C453 C 0.27609 0.11902 0.59371 0.0
C454 C 0.30063 0.125 0.57889 0.0
C455 C 0.28075 0.09846 0.59327 0.0
C456 C 0.23067 0.15672 0.59711 0.0
N457 N 0.24594 0.16092 0.60444 0.0
C458 C 0.22783 0.14574 0.61977 0.0
C459 C 0.24478 0.15588 0.61561 0.0
C460 C 0.21188 0.14082 0.61236 0.0
C461 C 0.2133 0.14694 0.60094 0.0
H462 H 0.23225 0.16036 0.58821 0.0
H463 H 0.25739 0.15892 0.62118 0.0
C464 C 0.3458 0.14621 0.59543 0.0
N465 N 0.32681 0.14353 0.5995 0.0
C466 C 0.36146 0.13362 0.59901 0.0
C467 C 0.33762 0.11551 0.61075 0.0
C468 C 0.32247 0.12859 0.60703 0.0
C469 C 0.35753 0.11809 0.60687 0.0
H470 H 0.34892 0.15852 0.58966 0.0
H471 H 0.30731 0.12709 0.61032 0.0
C472 C 0.25009 0.20196 0.58984 0.0
N473 N 0.2093 0.2106 0.58991 0.0
C474 C 0.23879 0.20005 0.57986 0.0
C475 C 0.24068 0.20842 0.59983 0.0
C476 C 0.21818 0.20446 0.58008 0.0
C477 C 0.22003 0.21266 0.5997 0.0
C478 C 0.32467 0.1939 0.57786 0.0
C479 C 0.32665 0.21475 0.57644 0.0
C480 C 0.3323 0.18082 0.56959 0.0
C481 C 0.33615 0.22219 0.5667 0.0
C482 C 0.34166 0.18885 0.55996 0.0
N483 N 0.34337 0.20919 0.55872 0.0
C484 C 0.324 0.22338 0.60795 0.0
C485 C 0.29123 0.23766 0.60694 0.0
C486 C 0.33149 0.24076 0.61314 0.0
N487 N 0.30418 0.2221 0.60506 0.0
C488 C 0.29814 0.25544 0.61204 0.0
C489 C 0.31851 0.25708 0.61526 0.0
H490 H 0.33397 0.21082 0.60625 0.0
H491 H 0.27557 0.23626 0.6045 0.0
C492 C 0.27766 0.16453 0.55917 0.0
N493 N 0.28379 0.18145 0.5647 0.0
C494 C 0.27299 0.16522 0.54763 0.0
C495 C 0.2812 0.20076 0.54759 0.0
C496 C 0.28549 0.19942 0.5592 0.0
C497 C 0.27469 0.18351 0.54164 0.0
H498 H 0.27589 0.15056 0.5638 0.0
H499 H 0.28987 0.21278 0.56386 0.0
O500 O 0.29278 0.17382 0.60923 0.0
O501 O 0.2821 0.1526 0.58691 0.0
O502 O 0.27025 0.19755 0.58982 0.0
O503 O 0.31525 0.18632 0.58727 0.0
H504 H 0.32968 0.17094 0.61774 0.0
H505 H 0.27065 0.19654 0.62289 0.0
H506 H 0.3412 0.18774 0.63544 0.0
H507 H 0.28325 0.21301 0.64046 0.0
H508 H 0.3161 0.09844 0.57293 0.0
H509 H 0.2649 0.12445 0.59966 0.0
H510 H 0.30858 0.13515 0.57325 0.0
H511 H 0.27311 0.08796 0.59884 0.0
H512 H 0.22771 0.14101 0.62857 0.0
H513 H 0.20135 0.14379 0.59492 0.0
H514 H 0.37659 0.13651 0.59595 0.0
H515 H 0.33378 0.10366 0.61671 0.0
H516 H 0.24582 0.19507 0.57205 0.0
H517 H 0.2492 0.20993 0.60762 0.0
H518 H 0.20923 0.20297 0.57244 0.0
H519 H 0.21252 0.21754 0.60739 0.0
H520 H 0.32074 0.2251 0.58272 0.0
H521 H 0.33087 0.16464 0.57056 0.0
H522 H 0.33771 0.23829 0.56546 0.0
H523 H 0.34754 0.1789 0.55346 0.0
H524 H 0.34736 0.24151 0.6153 0.0
H525 H 0.28762 0.26765 0.61357 0.0
H526 H 0.26755 0.15163 0.54353 0.0
H527 H 0.28289 0.21517 0.54335 0.0
Li528 Li 0.0834 0.05506 0.84227 0.0
Li529 Li 0.07788 0.02034 0.84603 0.0
Li530 Li 0.06621 0.03382 0.82861 0.0
Li531 Li 0.04961 0.04287 0.84674 0.0
C532 C 0.10698 0.03881 0.82532 0.0
N533 N 0.13209 0.05272 0.80828 0.0
C534 C 0.12466 0.02835 0.82264 0.0
C535 C 0.10209 0.05639 0.81934 0.0
C536 C 0.13716 0.03562 0.81399 0.0
C537 C 0.11496 0.06316 0.81075 0.0
C538 C 0.08825 0.04437 0.86481 0.0
C539 C 0.09882 0.05342 0.88375 0.0
N540 N 0.11794 0.04743 0.88121 0.0
C541 C 0.10801 0.03832 0.86239 0.0
C542 C 0.0836 0.05199 0.87557 0.0
C543 C 0.1228 0.03998 0.8708 0.0
C544 C 0.091 0.0956 0.84656 0.0
N545 N 0.10044 0.07775 0.84459 0.0
C546 C 0.13271 0.09295 0.84768 0.0
C547 C 0.1209 0.07613 0.84499 0.0
C548 C 0.12333 0.11156 0.84988 0.0
C549 C 0.1022 0.11281 0.84917 0.0
H550 H 0.07469 0.09633 0.84634 0.0
H551 H 0.12803 0.06171 0.84343 0.0
C552 C 0.10112 0.98537 0.84512 0.0
N553 N 0.08981 0.99672 0.85231 0.0
C554 C 0.11182 0.96875 0.84918 0.0
C555 C 0.09844 0.97537 0.86793 0.0
C556 C 0.088 0.99191 0.8635 0.0
C557 C 0.11085 0.96375 0.86077 0.0
H558 H 0.10221 0.98958 0.83626 0.0
H559 H 0.0788 0.00117 0.86902 0.0
C560 C 0.04132 0.06854 0.82873 0.0
N561 N 0.00735 0.08347 0.81801 0.0
C562 C 0.02535 0.05563 0.82599 0.0
C563 C 0.04 0.08904 0.82603 0.0
C564 C 0.00831 0.06347 0.82057 0.0
C565 C 0.02271 0.0963 0.8206 0.0
C566 C 0.04594 0.9981 0.84398 0.0
C567 C 0.04814 0.9802 0.83781 0.0
C568 C 0.03958 0.99733 0.85529 0.0
C569 C 0.044 0.96178 0.8431 0.0
C570 C 0.03557 0.97861 0.86027 0.0
N571 N 0.03786 0.96137 0.85413 0.0
C572 C 0.06836 0.00885 0.80967 0.0
C573 C 0.05762 0.04193 0.80501 0.0
C574 C 0.06744 0.00307 0.79828 0.0
N575 N 0.06326 0.0279 0.81283 0.0
C576 C 0.05641 0.03679 0.79351 0.0
C577 C 0.06134 0.0171 0.79001 0.0
H578 H 0.07355 0.99824 0.81601 0.0
H579 H 0.05432 0.0572 0.80761 0.0
C580 C 0.02659 0.06932 0.85936 0.0
N581 N 0.02539 0.05137 0.85383 0.0
C582 C 0.0094 0.07787 0.8642 0.0
C583 C 0.99007 0.04909 0.85775 0.0
C584 C 0.00766 0.04114 0.85294 0.0
C585 C 0.9908 0.06782 0.86336 0.0
H586 H 0.0409 0.07713 0.85982 0.0
H587 H 0.00711 0.02705 0.8483 0.0
O588 O 0.09467 0.03171 0.83376 0.0
O589 O 0.07346 0.04302 0.85673 0.0
O590 O 0.05807 0.06135 0.83419 0.0
O591 O 0.05041 0.01628 0.83906 0.0
H592 H 0.12869 0.01474 0.8272 0.0
H593 H 0.08854 0.06477 0.82127 0.0
H594 H 0.15089 0.02766 0.81183 0.0
H595 H 0.11135 0.07672 0.80606 0.0
H596 H 0.09544 0.05929 0.89211 0.0
H597 H 0.11192 0.03241 0.85412 0.0
H598 H 0.06838 0.05677 0.87756 0.0
H599 H 0.13814 0.03536 0.86904 0.0
H600 H 0.14897 0.0914 0.84809 0.0
H601 H 0.09435 0.12679 0.85097 0.0
H602 H 0.12139 0.96042 0.84338 0.0
H603 H 0.09704 0.9719 0.87689 0.0
H604 H 0.02606 0.03972 0.82799 0.0
H605 H 0.05222 0.09924 0.82812 0.0
H606 H 0.99584 0.05365 0.8184 0.0
H607 H 0.02148 0.11213 0.81846 0.0
H608 H 0.05302 0.9805 0.82905 0.0
H609 H 0.03811 0.01101 0.86024 0.0
H610 H 0.04569 0.94781 0.83845 0.0
H611 H 0.03075 0.97779 0.86905 0.0
H612 H 0.07189 0.98789 0.79595 0.0
H613 H 0.0516 0.04811 0.78745 0.0
H614 H 0.01064 0.09224 0.86854 0.0
H615 H 0.97597 0.04099 0.85682 0.0
Li616 Li 0.19526 0.83211 0.09439 0.0
Li617 Li 0.23089 0.82799 0.09839 0.0
Li618 Li 0.217 0.81539 0.0809 0.0
Li619 Li 0.20887 0.7991 0.09845 0.0
C620 C 0.21258 0.85652 0.07746 0.0
N621 N 0.20108 0.88199 0.06003 0.0
C622 C 0.22543 0.87201 0.07391 0.0
C623 C 0.19388 0.85397 0.07215 0.0
C624 C 0.21934 0.88473 0.06508 0.0
C625 C 0.18834 0.867 0.06335 0.0
C626 C 0.20588 0.83736 0.1169 0.0
C627 C 0.19678 0.8476 0.13589 0.0
N628 N 0.20151 0.86701 0.13323 0.0
C629 C 0.21064 0.85742 0.11435 0.0
C630 C 0.19887 0.83239 0.12774 0.0
C631 C 0.20834 0.87218 0.12273 0.0
C632 C 0.15482 0.83811 0.09937 0.0
N633 N 0.17202 0.84836 0.09691 0.0
C634 C 0.15542 0.87994 0.10001 0.0
C635 C 0.17263 0.86889 0.09706 0.0
C636 C 0.13747 0.86972 0.10274 0.0
C637 C 0.13727 0.84852 0.10228 0.0
H638 H 0.1549 0.82178 0.09933 0.0
H639 H 0.18655 0.87668 0.09513 0.0
C640 C 0.26757 0.84682 0.0959 0.0
N641 N 0.25458 0.84062 0.10411 0.0
C642 C 0.28471 0.85794 0.09874 0.0
C643 C 0.27505 0.85569 0.11851 0.0
C644 C 0.25826 0.84427 0.11529 0.0
C645 C 0.28838 0.86307 0.11016 0.0
H646 H 0.26436 0.84343 0.08709 0.0
H647 H 0.24789 0.83885 0.12169 0.0
C648 C 0.18391 0.78975 0.08032 0.0
N649 N 0.17168 0.75545 0.06888 0.0
C650 C 0.19813 0.7754 0.07689 0.0
C651 C 0.16349 0.78667 0.07793 0.0
C652 C 0.19164 0.75815 0.07112 0.0
C653 C 0.1576 0.76923 0.07213 0.0
C654 C 0.24975 0.79093 0.0977 0.0
C655 C 0.26466 0.77936 0.09239 0.0
C656 C 0.249 0.7918 0.10957 0.0
C657 C 0.27861 0.76886 0.09905 0.0
C658 C 0.26323 0.78109 0.11592 0.0
N659 N 0.27761 0.76993 0.11058 0.0
C660 C 0.24298 0.808 0.06277 0.0
C661 C 0.20925 0.81397 0.05698 0.0
C662 C 0.24919 0.80626 0.05149 0.0
N663 N 0.22337 0.81193 0.06528 0.0
C664 C 0.21486 0.81271 0.04555 0.0
C665 C 0.23514 0.80897 0.04265 0.0
H666 H 0.25386 0.80644 0.06956 0.0
H667 H 0.19371 0.81695 0.05921 0.0
C668 C 0.1861 0.77489 0.11284 0.0
N669 N 0.20186 0.77426 0.10547 0.0
C670 C 0.17878 0.75715 0.11773 0.0
C671 C 0.20425 0.73844 0.10747 0.0
C672 C 0.21108 0.75656 0.10276 0.0
C673 C 0.18774 0.73855 0.11498 0.0
H674 H 0.1789 0.78917 0.1147 0.0
H675 H 0.22344 0.75644 0.09677 0.0
O676 O 0.21845 0.84393 0.08605 0.0
O677 O 0.20769 0.82261 0.10883 0.0
O678 O 0.18979 0.80675 0.08604 0.0
O679 O 0.236 0.80121 0.09122 0.0
H680 H 0.23996 0.87416 0.07794 0.0
H681 H 0.18377 0.84201 0.07473 0.0
H682 H 0.22914 0.89678 0.06224 0.0
H683 H 0.17393 0.86518 0.05915 0.0
H684 H 0.19137 0.84396 0.14432 0.0
H685 H 0.21612 0.86157 0.10602 0.0
H686 H 0.19506 0.81694 0.12983 0.0
H687 H 0.21198 0.88776 0.12087 0.0
H688 H 0.15617 0.89627 0.10019 0.0
H689 H 0.12387 0.84003 0.10449 0.0
H690 H 0.29477 0.86273 0.09202 0.0
H691 H 0.27709 0.8593 0.12741 0.0
H692 H 0.214 0.77748 0.07865 0.0
H693 H 0.15231 0.79765 0.08053 0.0
H694 H 0.20248 0.74692 0.06842 0.0
H695 H 0.14184 0.76664 0.07023 0.0
H696 H 0.2654 0.77846 0.08322 0.0
H697 H 0.23759 0.80056 0.11387 0.0
H698 H 0.29021 0.75983 0.09505 0.0
H699 H 0.26283 0.78163 0.12511 0.0
H700 H 0.26487 0.8029 0.04974 0.0
H701 H 0.20349 0.81516 0.0391 0.0
H702 H 0.16581 0.75795 0.12332 0.0
H703 H 0.21173 0.72448 0.10518 0.0
Li704 Li 0.56563 0.96451 0.82864 0.0
Li705 Li 0.57693 0.97756 0.847 0.0
Li706 Li 0.57793 0.94131 0.84284 0.0
Li707 Li 0.54594 0.95887 0.84591 0.0
C708 C 0.60522 0.96852 0.82662 0.0
N709 N 0.62853 0.98008 0.80827 0.0
C710 C 0.61338 0.98796 0.82615 0.0
C711 C 0.60906 0.9549 0.81781 0.0
C712 C 0.62511 0.99353 0.81679 0.0
C713 C 0.62082 0.96106 0.80858 0.0
C714 C 0.53408 0.99391 0.83858 0.0
C715 C 0.50769 0.01176 0.84848 0.0
N716 N 0.49579 0.01038 0.83909 0.0
C717 C 0.52164 0.99272 0.82901 0.0
C718 C 0.52712 0.00356 0.84839 0.0
C719 C 0.50232 0.00114 0.82945 0.0
C720 C 0.55618 0.95775 0.8053 0.0
N721 N 0.56395 0.97102 0.81295 0.0
C722 C 0.56893 0.99567 0.79841 0.0
C723 C 0.57006 0.98975 0.80976 0.0
C724 C 0.56095 0.98235 0.79025 0.0
C725 C 0.5545 0.96314 0.79386 0.0
H726 H 0.55102 0.9431 0.80812 0.0
H727 H 0.5758 0.00013 0.81607 0.0
C728 C 0.60933 0.99461 0.85897 0.0
N729 N 0.59139 0.99899 0.85394 0.0
C730 C 0.62108 0.00997 0.86363 0.0
C731 C 0.59607 0.0342 0.85744 0.0
C732 C 0.58457 0.01829 0.8531 0.0
C733 C 0.61455 0.03006 0.86278 0.0
H734 H 0.61468 0.9792 0.85916 0.0
H735 H 0.57044 0.02135 0.84883 0.0
C736 C 0.55119 0.9191 0.8321 0.0
N737 N 0.54932 0.87768 0.82954 0.0
C738 C 0.53819 0.90768 0.8389 0.0
C739 C 0.56315 0.90947 0.82395 0.0
C740 C 0.53747 0.88676 0.83748 0.0
C741 C 0.56202 0.88851 0.82281 0.0
C742 C 0.5759 0.95973 0.86711 0.0
C743 C 0.59259 0.94926 0.87136 0.0
C744 C 0.56771 0.97572 0.87334 0.0
C745 C 0.60092 0.95508 0.88177 0.0
C746 C 0.5765 0.9811 0.8837 0.0
N747 N 0.59278 0.97076 0.88766 0.0
C748 C 0.61101 0.91396 0.84166 0.0
C749 C 0.58325 0.90328 0.85286 0.0
C750 C 0.62177 0.89652 0.84451 0.0
N751 N 0.59214 0.91696 0.84586 0.0
C752 C 0.59334 0.88556 0.85582 0.0
C753 C 0.61292 0.88208 0.85169 0.0
H754 H 0.61785 0.92525 0.83627 0.0
H755 H 0.56845 0.90634 0.85632 0.0
C756 C 0.50434 0.95113 0.84417 0.0
N757 N 0.51939 0.95526 0.85167 0.0
C758 C 0.48522 0.94569 0.84809 0.0
C759 C 0.49727 0.94954 0.86737 0.0
C760 C 0.51618 0.95485 0.86307 0.0
C761 C 0.48162 0.94442 0.85984 0.0
H762 H 0.50744 0.95131 0.83515 0.0
H763 H 0.5285 0.95782 0.86884 0.0
O764 O 0.59345 0.96288 0.83562 0.0
O765 O 0.55286 0.98538 0.83842 0.0
O766 O 0.55239 0.93956 0.83349 0.0
O767 O 0.56766 0.95441 0.85688 0.0
H768 H 0.61055 0.99871 0.83288 0.0
H769 H 0.60286 0.93981 0.81804 0.0
H770 H 0.63143 0.00856 0.81629 0.0
H771 H 0.6238 0.95072 0.80167 0.0
H772 H 0.50206 0.01918 0.85603 0.0
H773 H 0.52676 0.98522 0.82138 0.0
H774 H 0.53656 0.00457 0.85586 0.0
H775 H 0.49248 0.00025 0.82212 0.0
H776 H 0.57439 0.0105 0.79607 0.0
H777 H 0.54789 0.95249 0.78796 0.0
H778 H 0.63544 0.00627 0.86751 0.0
H779 H 0.59065 0.04956 0.85661 0.0
H780 H 0.52895 0.91485 0.84531 0.0
H781 H 0.57331 0.91807 0.81864 0.0
H782 H 0.52756 0.87772 0.84272 0.0
H783 H 0.57127 0.88084 0.81658 0.0
H784 H 0.59918 0.9369 0.86664 0.0
H785 H 0.55488 0.98406 0.87014 0.0
H786 H 0.61389 0.94717 0.88514 0.0
H787 H 0.57041 0.99353 0.88858 0.0
H788 H 0.63682 0.89435 0.84113 0.0
H789 H 0.58612 0.87498 0.86154 0.0
H790 H 0.47353 0.94201 0.842 0.0
H791 H 0.49523 0.94846 0.87648 0.0
Li792 Li 0.80979 0.82472 0.59386 0.0
Li793 Li 0.79137 0.79378 0.59834 0.0
Li794 Li 0.78647 0.81098 0.58016 0.0
Li795 Li 0.77347 0.82538 0.59782 0.0
C796 C 0.83151 0.79607 0.58465 0.0
N797 N 0.87296 0.79315 0.5827 0.0
C798 C 0.84243 0.78394 0.59218 0.0
C799 C 0.84165 0.80661 0.57609 0.0
C800 C 0.86339 0.78268 0.59106 0.0
C801 C 0.86262 0.80498 0.57527 0.0
C802 C 0.79068 0.82693 0.61797 0.0
C803 C 0.76877 0.83061 0.63421 0.0
N804 N 0.77932 0.84726 0.63745 0.0
C805 C 0.80134 0.84404 0.62148 0.0
C806 C 0.7743 0.8201 0.6244 0.0
C807 C 0.79535 0.85411 0.63135 0.0
C808 C 0.8382 0.85685 0.59159 0.0
N809 N 0.83439 0.83874 0.59657 0.0
C810 C 0.86454 0.84116 0.60761 0.0
C811 C 0.84715 0.83076 0.60441 0.0
C812 C 0.86872 0.86015 0.60283 0.0
C813 C 0.8554 0.86786 0.59459 0.0
H814 H 0.82757 0.86305 0.58556 0.0
H815 H 0.84351 0.81651 0.6084 0.0
C816 C 0.79791 0.75177 0.5988 0.0
N817 N 0.79406 0.76811 0.60544 0.0
C818 C 0.80219 0.73309 0.60375 0.0
C819 C 0.79793 0.7483 0.62226 0.0
C820 C 0.79379 0.76669 0.61696 0.0
C821 C 0.80259 0.73126 0.61565 0.0
H822 H 0.79838 0.75344 0.58966 0.0
H823 H 0.79095 0.77995 0.62204 0.0
C824 C 0.78362 0.85004 0.57617 0.0
N825 N 0.77289 0.87028 0.55655 0.0
C826 C 0.76425 0.85816 0.57504 0.0
C827 C 0.79758 0.85236 0.56737 0.0
C828 C 0.75911 0.86832 0.56505 0.0
C829 C 0.79185 0.86258 0.5575 0.0
C830 C 0.75616 0.78177 0.59136 0.0
C831 C 0.75743 0.7679 0.58245 0.0
C832 C 0.746 0.77653 0.60134 0.0
C833 C 0.74857 0.74889 0.5837 0.0
C834 C 0.73737 0.75736 0.60227 0.0
N835 N 0.73882 0.74405 0.59351 0.0
C836 C 0.79292 0.79963 0.5569 0.0
C837 C 0.76063 0.81258 0.56156 0.0
C838 C 0.78705 0.79701 0.54557 0.0
N839 N 0.77972 0.8074 0.56458 0.0
C840 C 0.75421 0.81045 0.55035 0.0
C841 C 0.76743 0.80248 0.54215 0.0
H842 H 0.80791 0.79529 0.55958 0.0
H843 H 0.75038 0.81846 0.56791 0.0
C844 C 0.75732 0.86028 0.60767 0.0
N845 N 0.75241 0.84157 0.60386 0.0
C846 C 0.74235 0.87337 0.61152 0.0
C847 C 0.71739 0.8479 0.60716 0.0
C848 C 0.73294 0.83515 0.60356 0.0
C849 C 0.72198 0.86741 0.61114 0.0
H850 H 0.7729 0.86515 0.60755 0.0
H851 H 0.72944 0.82034 0.60024 0.0
O852 O 0.81103 0.7978 0.58573 0.0
O853 O 0.79614 0.817 0.60825 0.0
O854 O 0.78881 0.83969 0.58579 0.0
O855 O 0.76515 0.80027 0.59041 0.0
H856 H 0.83487 0.7758 0.59891 0.0
H857 H 0.83343 0.81611 0.57022 0.0
H858 H 0.87205 0.77344 0.59686 0.0
H859 H 0.87067 0.81315 0.56872 0.0
H860 H 0.75604 0.82557 0.63922 0.0
H861 H 0.81397 0.84964 0.61659 0.0
H862 H 0.76578 0.80699 0.62176 0.0
H863 H 0.80341 0.86742 0.63414 0.0
H864 H 0.87448 0.83448 0.61388 0.0
H865 H 0.85785 0.88255 0.59079 0.0
H866 H 0.80599 0.72047 0.59831 0.0
H867 H 0.79786 0.74754 0.63146 0.0
H868 H 0.75322 0.85647 0.58175 0.0
H869 H 0.81262 0.84614 0.5681 0.0
H870 H 0.74414 0.87459 0.56403 0.0
H871 H 0.80246 0.86436 0.55059 0.0
H872 H 0.76535 0.77167 0.5747 0.0
H873 H 0.74494 0.78709 0.60833 0.0
H874 H 0.7495 0.73795 0.57689 0.0
H875 H 0.72954 0.75305 0.60996 0.0
H876 H 0.79767 0.79051 0.53962 0.0
H877 H 0.73909 0.81523 0.54814 0.0
H878 H 0.74675 0.88808 0.61469 0.0
H879 H 0.70194 0.84272 0.6065 0.0
Li880 Li 0.92015 0.05529 0.34401 0.0
Li881 Li 0.95236 0.03994 0.34736 0.0
Li882 Li 0.93442 0.03448 0.32982 0.0
Li883 Li 0.92068 0.01923 0.34708 0.0
C884 C 0.95365 0.07831 0.33857 0.0
N885 N 0.97059 0.11476 0.34485 0.0
C886 C 0.95276 0.08474 0.34988 0.0
C887 C 0.96318 0.09041 0.33046 0.0
C888 C 0.96141 0.10321 0.35288 0.0
C889 C 0.97165 0.1088 0.3338 0.0
C890 C 0.93209 0.03295 0.36836 0.0
C891 C 0.94499 0.00612 0.38016 0.0
N892 N 0.93896 0.01643 0.38956 0.0
C893 C 0.92594 0.04323 0.37813 0.0
C894 C 0.94165 0.0142 0.36936 0.0
C895 C 0.9296 0.03465 0.38878 0.0
C896 C 0.89195 0.07771 0.35646 0.0
N897 N 0.90416 0.07855 0.3472 0.0
C898 C 0.89459 0.11276 0.34369 0.0
C899 C 0.90541 0.09547 0.34069 0.0
C900 C 0.88223 0.11251 0.35339 0.0
C901 C 0.88072 0.09458 0.3597 0.0
H902 H 0.89119 0.06399 0.36142 0.0
H903 H 0.91504 0.09563 0.33327 0.0
C904 C 0.99358 0.04903 0.34612 0.0
N905 N 0.9787 0.0448 0.35372 0.0
C906 C 0.0126 0.05527 0.34986 0.0
C907 C 0.00087 0.05228 0.36922 0.0
C908 C 0.98203 0.04635 0.3651 0.0
C909 C 0.01636 0.05712 0.36156 0.0
H910 H 0.99043 0.04826 0.33711 0.0
H911 H 0.97001 0.04384 0.37107 0.0
C912 C 0.88987 0.04457 0.33146 0.0
N913 N 0.85711 0.0675 0.32481 0.0
C914 C 0.87149 0.04279 0.33719 0.0
C915 C 0.8916 0.05794 0.32232 0.0
C916 C 0.8551 0.05454 0.33371 0.0
C917 C 0.87486 0.06941 0.3191 0.0
C918 C 0.95519 0.00103 0.33183 0.0
C919 C 0.9425 0.98765 0.32605 0.0
C920 C 0.97565 0.00193 0.329 0.0
C921 C 0.95047 0.97555 0.31742 0.0
C922 C 0.98305 0.98957 0.32033 0.0
N923 N 0.97041 0.97677 0.31476 0.0
C924 C 0.95455 0.03496 0.30838 0.0
C925 C 0.92209 0.01987 0.30859 0.0
C926 C 0.95701 0.02993 0.29692 0.0
N927 N 0.93735 0.02972 0.31395 0.0
C928 C 0.92395 0.01445 0.29719 0.0
C929 C 0.94166 0.01932 0.29123 0.0
H930 H 0.96649 0.04265 0.31292 0.0
H931 H 0.90864 0.01579 0.31326 0.0
C932 C 0.89008 0.00271 0.36022 0.0
N933 N 0.90623 0.99756 0.35373 0.0
C934 C 0.87826 0.98779 0.36526 0.0
C935 C 0.90015 0.9625 0.35703 0.0
C936 C 0.91166 0.97795 0.3522 0.0
C937 C 0.88313 0.96737 0.3636 0.0
H938 H 0.88636 0.01846 0.36141 0.0
H939 H 0.92489 0.9743 0.34725 0.0
O940 O 0.94552 0.06017 0.33537 0.0
O941 O 0.92816 0.041 0.35789 0.0
O942 O 0.90627 0.03368 0.33495 0.0
O943 O 0.94754 0.01342 0.34007 0.0
H944 H 0.94551 0.07561 0.35631 0.0
H945 H 0.96405 0.08561 0.32168 0.0
H946 H 0.96083 0.10836 0.3616 0.0
H947 H 0.97907 0.11832 0.32761 0.0
H948 H 0.95239 0.99166 0.38107 0.0
H949 H 0.91843 0.0577 0.37749 0.0
H950 H 0.9465 0.00599 0.36191 0.0
H951 H 0.92496 0.04246 0.39642 0.0
H952 H 0.89597 0.12622 0.33852 0.0
H953 H 0.8715 0.09381 0.36729 0.0
H954 H 0.02414 0.05892 0.34368 0.0
H955 H 0.003 0.05396 0.37829 0.0
H956 H 0.86992 0.03256 0.3443 0.0
H957 H 0.9058 0.05966 0.31788 0.0
H958 H 0.8408 0.05339 0.33809 0.0
H959 H 0.876 0.0799 0.31208 0.0
H960 H 0.92656 0.98697 0.32801 0.0
H961 H 0.9857 0.0121 0.33342 0.0
H962 H 0.94078 0.9653 0.31279 0.0
H963 H 0.99884 0.99017 0.31802 0.0
H964 H 0.97095 0.03383 0.29265 0.0
H965 H 0.91164 0.00654 0.29309 0.0
H966 H 0.86518 0.9922 0.3702 0.0
H967 H 0.90456 0.94694 0.35569 0.0
Li968 Li 0.69332 0.17301 0.09294 0.0
Li969 Li 0.71075 0.20576 0.09704 0.0
Li970 Li 0.71565 0.18685 0.07856 0.0
Li971 Li 0.72957 0.17418 0.09575 0.0
C972 C 0.67021 0.20191 0.08443 0.0
N973 N 0.62871 0.20609 0.08421 0.0
C974 C 0.66032 0.21115 0.09354 0.0
C975 C 0.659 0.19494 0.07516 0.0
C976 C 0.63933 0.21308 0.09328 0.0
C977 C 0.63803 0.19716 0.07522 0.0
C978 C 0.71492 0.17227 0.11625 0.0
C979 C 0.7365 0.17135 0.13274 0.0
N980 N 0.73042 0.15209 0.13484 0.0
C981 C 0.70887 0.15248 0.11857 0.0
C982 C 0.72884 0.18181 0.12338 0.0
C983 C 0.71688 0.14254 0.12801 0.0
C984 C 0.6628 0.14224 0.09076 0.0
N985 N 0.66913 0.15878 0.09661 0.0
C986 C 0.64184 0.15534 0.10976 0.0
C987 C 0.65905 0.16541 0.10595 0.0
C988 C 0.63494 0.13819 0.10392 0.0
C989 C 0.64555 0.13175 0.09424 0.0
H990 H 0.67131 0.13689 0.08356 0.0
H991 H 0.66459 0.17842 0.11055 0.0
C992 C 0.70463 0.24763 0.09675 0.0
N993 N 0.70674 0.23146 0.10375 0.0
C994 C 0.6989 0.26634 0.10116 0.0
C995 C 0.6984 0.25154 0.11994 0.0
C996 C 0.70394 0.23307 0.11515 0.0
C997 C 0.6954 0.26837 0.11288 0.0
H998 H 0.70669 0.24577 0.08769 0.0
H999 H 0.7052 0.21984 0.12048 0.0
C1000 C 0.71475 0.14793 0.07437 0.0
N1001 N 0.7161 0.12743 0.05392 0.0
C1002 C 0.73176 0.13652 0.07148 0.0
C1003 C 0.69845 0.14887 0.06685 0.0
C1004 C 0.73214 0.12626 0.06111 0.0
C1005 C 0.69942 0.13843 0.05656 0.0
C1006 C 0.75542 0.20534 0.0909 0.0
C1007 C 0.77127 0.19636 0.0849 0.0
C1008 C 0.75965 0.21953 0.09936 0.0
C1009 C 0.79115 0.2016 0.08756 0.0
C1010 C 0.77973 0.2244 0.10175 0.0
N1011 N 0.79493 0.21539 0.09586 0.0
C1012 C 0.7083 0.20157 0.05603 0.0
C1013 C 0.73754 0.1814 0.05839 0.0
C1014 C 0.71224 0.20355 0.0444 0.0
N1015 N 0.72081 0.19043 0.06272 0.0
C1016 C 0.74183 0.18263 0.04682 0.0
C1017 C 0.72905 0.19373 0.03968 0.0
H1018 H 0.69523 0.20884 0.05972 0.0
H1019 H 0.74744 0.17294 0.0639 0.0
C1020 C 0.74866 0.13816 0.10102 0.0
N1021 N 0.75116 0.15842 0.10214 0.0
C1022 C 0.76342 0.12485 0.10488 0.0
C1023 C 0.78274 0.15336 0.11161 0.0
C1024 C 0.76752 0.16615 0.10763 0.0
C1025 C 0.78094 0.1324 0.11007 0.0
H1026 H 0.73511 0.1323 0.09712 0.0
H1027 H 0.76882 0.18219 0.10897 0.0
O1028 O 0.69071 0.19949 0.08465 0.0
O1029 O 0.70771 0.18203 0.10685 0.0
O1030 O 0.71421 0.15843 0.0844 0.0
O1031 O 0.73585 0.20062 0.08834 0.0
H1032 H 0.66871 0.2165 0.10083 0.0
H1033 H 0.66639 0.18792 0.06799 0.0
H1034 H 0.63148 0.22008 0.10031 0.0
H1035 H 0.62916 0.19178 0.06812 0.0
H1036 H 0.74738 0.17849 0.1383 0.0
H1037 H 0.69829 0.1448 0.11305 0.0
H1038 H 0.73397 0.19699 0.12158 0.0
H1039 H 0.71241 0.12719 0.12989 0.0
H1040 H 0.63402 0.16093 0.11721 0.0
H1041 H 0.64091 0.11843 0.08959 0.0
H1042 H 0.69681 0.27898 0.09544 0.0
H1043 H 0.69553 0.25239 0.12899 0.0
H1044 H 0.7447 0.13586 0.07706 0.0
H1045 H 0.68529 0.1578 0.06888 0.0
H1046 H 0.74524 0.11746 0.05874 0.0
H1047 H 0.68694 0.13913 0.05064 0.0
H1048 H 0.76829 0.18531 0.07837 0.0
H1049 H 0.7476 0.22666 0.10407 0.0
H1050 H 0.80356 0.19468 0.08304 0.0
H1051 H 0.78324 0.2353 0.1083 0.0
H1052 H 0.70207 0.21225 0.03911 0.0
H1053 H 0.75507 0.17506 0.0435 0.0
H1054 H 0.76105 0.10878 0.10385 0.0
H1055 H 0.79591 0.15984 0.11566 0.0
Li1056 Li 0.54676 0.0383 0.65157 0.0
Li1057 Li 0.57848 0.05735 0.65235 0.0
Li1058 Li 0.57795 0.02092 0.65159 0.0
Li1059 Li 0.5666 0.03648 0.66875 0.0
C1060 C 0.57032 0.02888 0.63041 0.0
N1061 N 0.57603 0.00444 0.61167 0.0
C1062 C 0.58594 0.03295 0.62277 0.0
C1063 C 0.55753 0.01245 0.62849 0.0
C1064 C 0.5886 0.02039 0.61335 0.0
C1065 C 0.56068 0.00026 0.61897 0.0
C1066 C 0.53788 0.07331 0.66119 0.0
C1067 C 0.50659 0.08656 0.66853 0.0
N1068 N 0.50383 0.09699 0.6587 0.0
C1069 C 0.53483 0.08429 0.65119 0.0
C1070 C 0.52372 0.07452 0.66996 0.0
C1071 C 0.51749 0.09613 0.65008 0.0
C1072 C 0.50389 0.03796 0.65282 0.0
N1073 N 0.51997 0.0402 0.64575 0.0
C1074 C 0.49843 0.05063 0.63057 0.0
C1075 C 0.51759 0.04615 0.63478 0.0
C1076 C 0.48162 0.0493 0.63779 0.0
C1077 C 0.48444 0.04261 0.64901 0.0
H1078 H 0.50629 0.03346 0.66155 0.0
H1079 H 0.53066 0.04831 0.62943 0.0
C1080 C 0.60907 0.07896 0.64118 0.0
N1081 N 0.59263 0.08101 0.64798 0.0
C1082 C 0.61966 0.09599 0.63752 0.0
C1083 C 0.59661 0.11684 0.64829 0.0
C1084 C 0.58647 0.09941 0.65173 0.0
C1085 C 0.61331 0.11528 0.64097 0.0
H1086 H 0.61387 0.06408 0.63855 0.0
H1087 H 0.57369 0.10056 0.6574 0.0
C1088 C 0.55639 0.99659 0.66652 0.0
N1089 N 0.5623 0.96182 0.67907 0.0
C1090 C 0.57524 0.99256 0.67137 0.0
C1091 C 0.54054 0.98295 0.66808 0.0
C1092 C 0.57792 0.9749 0.67767 0.0
C1093 C 0.54383 0.96544 0.67444 0.0
C1094 C 0.60797 0.04851 0.66804 0.0
C1095 C 0.62797 0.04192 0.66864 0.0
C1096 C 0.60219 0.06609 0.67378 0.0
C1097 C 0.64187 0.05296 0.67505 0.0
C1098 C 0.61655 0.0767 0.68009 0.0
N1099 N 0.63593 0.06997 0.68059 0.0
C1100 C 0.61224 0.00379 0.64208 0.0
C1101 C 0.58585 0.97998 0.64453 0.0
C1102 C 0.62478 0.98896 0.63752 0.0
N1103 N 0.59323 0.99907 0.6455 0.0
C1104 C 0.59804 0.96456 0.64023 0.0
C1105 C 0.61775 0.96904 0.63667 0.0
H1106 H 0.61761 0.01915 0.64289 0.0
H1107 H 0.57053 0.9767 0.64709 0.0
C1108 C 0.54628 0.03052 0.68938 0.0
N1109 N 0.56502 0.03315 0.6849 0.0
C1110 C 0.54391 0.02607 0.70092 0.0
C1111 C 0.58016 0.02731 0.70305 0.0
C1112 C 0.58184 0.03137 0.69146 0.0
C1113 C 0.56103 0.02446 0.70788 0.0
H1114 H 0.53319 0.03132 0.6839 0.0
H1115 H 0.59664 0.03241 0.68772 0.0
O1116 O 0.56783 0.04058 0.63989 0.0
O1117 O 0.55441 0.06109 0.66227 0.0
O1118 O 0.55318 0.0139 0.66044 0.0
O1119 O 0.59433 0.03803 0.66161 0.0
H1120 H 0.59597 0.04561 0.62412 0.0
H1121 H 0.54549 0.00897 0.63439 0.0
H1122 H 0.60068 0.02331 0.60739 0.0
H1123 H 0.55098 0.98741 0.61742 0.0
H1124 H 0.49544 0.08755 0.67523 0.0
H1125 H 0.54556 0.08337 0.64427 0.0
H1126 H 0.52588 0.06617 0.67777 0.0
H1127 H 0.51483 0.10454 0.64235 0.0
H1128 H 0.49693 0.05606 0.62193 0.0
H1129 H 0.47182 0.0414 0.65482 0.0
H1130 H 0.6324 0.09408 0.63186 0.0
H1131 H 0.59145 0.13136 0.65135 0.0
H1132 H 0.58771 0.00291 0.67029 0.0
H1133 H 0.52584 0.98589 0.66443 0.0
H1134 H 0.59243 0.9716 0.68146 0.0
H1135 H 0.5317 0.95475 0.67571 0.0
H1136 H 0.63268 0.02842 0.6642 0.0
H1137 H 0.5868 0.07145 0.67341 0.0
H1138 H 0.65741 0.04801 0.67561 0.0
H1139 H 0.6123 0.09029 0.68458 0.0
H1140 H 0.63995 0.99292 0.63491 0.0
H1141 H 0.5921 0.94937 0.63958 0.0
H1142 H 0.5289 0.02383 0.70434 0.0
H1143 H 0.59374 0.0257 0.7081 0.0
Li1144 Li 0.72546 0.82933 0.4055 0.0
Li1145 Li 0.70796 0.81486 0.42213 0.0
Li1146 Li 0.70537 0.79889 0.40335 0.0
Li1147 Li 0.68942 0.83031 0.40683 0.0
C1148 C 0.74726 0.80139 0.41905 0.0
N1149 N 0.78184 0.79934 0.43212 0.0
C1150 C 0.75328 0.818 0.42556 0.0
C1151 C 0.75878 0.78373 0.41922 0.0
C1152 C 0.77082 0.81666 0.4321 0.0
C1153 C 0.77623 0.783 0.42587 0.0
C1154 C 0.69799 0.85951 0.42067 0.0
C1155 C 0.66935 0.87295 0.43082 0.0
N1156 N 0.67417 0.89179 0.42711 0.0
C1157 C 0.70274 0.87902 0.41703 0.0
C1158 C 0.68122 0.85645 0.42768 0.0
C1159 C 0.69048 0.89513 0.42035 0.0
C1160 C 0.74375 0.86225 0.39547 0.0
N1161 N 0.74823 0.84401 0.40008 0.0
C1162 C 0.78342 0.84919 0.39663 0.0
C1163 C 0.76755 0.83707 0.40046 0.0
C1164 C 0.77929 0.86849 0.39224 0.0
C1165 C 0.75909 0.87482 0.39152 0.0
H1166 H 0.72818 0.86699 0.39484 0.0
H1167 H 0.77074 0.82219 0.40373 0.0
C1168 C 0.71422 0.79105 0.4418 0.0
N1169 N 0.71114 0.8102 0.43801 0.0
C1170 C 0.71905 0.78757 0.45321 0.0
C1171 C 0.71689 0.82349 0.45661 0.0
C1172 C 0.71248 0.82631 0.44513 0.0
C1173 C 0.72046 0.80396 0.46074 0.0
H1174 H 0.71351 0.77857 0.43589 0.0
H1175 H 0.71084 0.84143 0.44186 0.0
C1176 C 0.71616 0.81959 0.38362 0.0
N1177 N 0.73733 0.8126 0.36377 0.0
C1178 C 0.70988 0.82845 0.37344 0.0
C1179 C 0.73327 0.80722 0.38371 0.0
C1180 C 0.72076 0.82471 0.36349 0.0
C1181 C 0.74375 0.80386 0.37359 0.0
C1182 C 0.66595 0.79575 0.41071 0.0
C1183 C 0.65998 0.79831 0.3994 0.0
C1184 C 0.65415 0.78405 0.41802 0.0
C1185 C 0.64224 0.78913 0.3956 0.0
C1186 C 0.6365 0.77512 0.41389 0.0
N1187 N 0.63097 0.77782 0.40286 0.0
C1188 C 0.70391 0.75627 0.40205 0.0
C1189 C 0.69538 0.77297 0.38491 0.0
C1190 C 0.69887 0.73758 0.39728 0.0
N1191 N 0.70189 0.77349 0.39587 0.0
C1192 C 0.69048 0.75467 0.37977 0.0
C1193 C 0.69172 0.73664 0.38603 0.0
H1194 H 0.70872 0.75715 0.41082 0.0
H1195 H 0.69324 0.78681 0.38023 0.0
C1196 C 0.66974 0.86058 0.39451 0.0
N1197 N 0.66676 0.84672 0.40285 0.0
C1198 C 0.65381 0.87269 0.39079 0.0
C1199 C 0.63209 0.85625 0.40446 0.0
C1200 C 0.64846 0.84452 0.40794 0.0
C1201 C 0.63459 0.87046 0.39569 0.0
H1202 H 0.68452 0.86212 0.3907 0.0
H1203 H 0.64653 0.83352 0.41465 0.0
O1204 O 0.72988 0.80209 0.41278 0.0
O1205 O 0.70952 0.84343 0.41731 0.0
O1206 O 0.70572 0.82339 0.39342 0.0
O1207 O 0.68342 0.80431 0.41463 0.0
H1208 H 0.74455 0.83179 0.42556 0.0
H1209 H 0.75422 0.77071 0.41429 0.0
H1210 H 0.77566 0.82939 0.43718 0.0
H1211 H 0.7853 0.76943 0.42608 0.0
H1212 H 0.65624 0.87077 0.43616 0.0
H1213 H 0.71576 0.88174 0.41172 0.0
H1214 H 0.67724 0.84142 0.43051 0.0
H1215 H 0.69394 0.9103 0.41756 0.0
H1216 H 0.79875 0.84366 0.3973 0.0
H1217 H 0.75514 0.88932 0.38789 0.0
H1218 H 0.72178 0.77229 0.4561 0.0
H1219 H 0.71825 0.83654 0.4621 0.0
H1220 H 0.69671 0.83812 0.37324 0.0
H1221 H 0.73843 0.80025 0.39149 0.0
H1222 H 0.71605 0.83145 0.35555 0.0
H1223 H 0.757 0.79432 0.37354 0.0
H1224 H 0.66892 0.80728 0.39361 0.0
H1225 H 0.65861 0.78186 0.42678 0.0
H1226 H 0.63746 0.79098 0.38688 0.0
H1227 H 0.62721 0.76602 0.41945 0.0
H1228 H 0.69981 0.72417 0.40251 0.0
H1229 H 0.68536 0.75476 0.37104 0.0
H1230 H 0.65655 0.88367 0.38415 0.0
H1231 H 0.61752 0.85385 0.40841 0.0
Li1232 Li 0.92067 0.97588 0.15167 0.0
Li1233 Li 0.93276 0.96188 0.1704 0.0
Li1234 Li 0.95022 0.95306 0.15155 0.0
Li1235 Li 0.91694 0.94119 0.15603 0.0
C1236 C 0.95506 0.99877 0.16041 0.0
N1237 N 0.9706 0.03725 0.16295 0.0
C1238 C 0.94845 0.01112 0.16928 0.0
C1239 C 0.96986 0.00589 0.15293 0.0
C1240 C 0.9564 0.03056 0.17039 0.0
C1241 C 0.97744 0.02541 0.15433 0.0
C1242 C 0.88644 0.95673 0.16651 0.0
C1243 C 0.86378 0.93732 0.17823 0.0
N1244 N 0.84895 0.93987 0.17037 0.0
C1245 C 0.87098 0.95925 0.15857 0.0
C1246 C 0.88285 0.94574 0.17645 0.0
C1247 C 0.85212 0.95057 0.16066 0.0
C1248 C 0.89726 0.99594 0.13507 0.0
N1249 N 0.90706 0.99851 0.14512 0.0
C1250 C 0.89326 0.03171 0.14704 0.0
C1251 C 0.90522 0.01593 0.15114 0.0
C1252 C 0.88287 0.02942 0.13671 0.0
C1253 C 0.88526 0.01133 0.13063 0.0
H1254 H 0.89814 0.98169 0.13065 0.0
H1255 H 0.91229 0.01729 0.15935 0.0
C1256 C 0.95355 0.9626 0.19156 0.0
N1257 N 0.93637 0.96792 0.18601 0.0
C1258 C 0.95622 0.9679 0.20297 0.0
C1259 C 0.92348 0.98403 0.20265 0.0
C1260 C 0.9214 0.97832 0.1913 0.0
C1261 C 0.94111 0.97891 0.20862 0.0
H1262 H 0.96523 0.9544 0.18709 0.0
H1263 H 0.90793 0.98241 0.18664 0.0
C1264 C 0.93203 0.95861 0.13079 0.0
N1265 N 0.94428 0.97048 0.10936 0.0
C1266 C 0.9279 0.94646 0.12136 0.0
C1267 C 0.9424 0.97678 0.12931 0.0
C1268 C 0.93422 0.95272 0.1106 0.0
C1269 C 0.94845 0.98254 0.11841 0.0
C1270 C 0.94292 0.91554 0.16709 0.0
C1271 C 0.94568 0.90136 0.15844 0.0
C1272 C 0.94079 0.90908 0.17833 0.0
C1273 C 0.94603 0.88084 0.16117 0.0
C1274 C 0.94128 0.88842 0.18072 0.0
N1275 N 0.94384 0.87485 0.17216 0.0
C1276 C 0.99307 0.95386 0.14833 0.0
C1277 C 0.9745 0.93203 0.13627 0.0
C1278 C 0.01124 0.94736 0.14348 0.0
N1279 N 0.97523 0.94606 0.14469 0.0
C1280 C 0.99221 0.92513 0.13121 0.0
C1281 C 0.01094 0.93259 0.13489 0.0
H1282 H 0.99321 0.96481 0.15515 0.0
H1283 H 0.96014 0.92592 0.13361 0.0
C1284 C 0.89009 0.91857 0.14304 0.0
N1285 N 0.89896 0.91889 0.15346 0.0
C1286 C 0.87786 0.90241 0.13984 0.0
C1287 C 0.88355 0.88738 0.15828 0.0
C1288 C 0.89539 0.90405 0.1612 0.0
C1289 C 0.87487 0.88633 0.14741 0.0
H1290 H 0.89276 0.93077 0.13714 0.0
H1291 H 0.90194 0.90495 0.16958 0.0
O1292 O 0.94773 0.97954 0.15931 0.0
O1293 O 0.90513 0.96463 0.16447 0.0
O1294 O 0.92622 0.95246 0.14141 0.0
O1295 O 0.94249 0.93569 0.16461 0.0
H1296 H 0.93711 0.00587 0.17518 0.0
H1297 H 0.97551 0.99642 0.14615 0.0
H1298 H 0.95127 0.04032 0.17717 0.0
H1299 H 0.98883 0.03112 0.14857 0.0
H1300 H 0.8608 0.92867 0.18585 0.0
H1301 H 0.87358 0.96764 0.15081 0.0
H1302 H 0.89475 0.94352 0.18263 0.0
H1303 H 0.84003 0.95229 0.15456 0.0
H1304 H 0.89149 0.04518 0.15216 0.0
H1305 H 0.87764 0.0089 0.1226 0.0
H1306 H 0.97009 0.96378 0.20725 0.0
H1307 H 0.91134 0.99225 0.20672 0.0
H1308 H 0.92004 0.93225 0.12236 0.0
H1309 H 0.94552 0.98644 0.13647 0.0
H1310 H 0.93116 0.94343 0.10323 0.0
H1311 H 0.95643 0.99661 0.11715 0.0
H1312 H 0.94722 0.90613 0.1497 0.0
H1313 H 0.93867 0.9199 0.18512 0.0
H1314 H 0.948 0.86968 0.15456 0.0
H1315 H 0.93957 0.88318 0.18937 0.0
H1316 H 0.02537 0.95336 0.14665 0.0
H1317 H 0.99122 0.91395 0.12452 0.0
H1318 H 0.87145 0.90212 0.13137 0.0
H1319 H 0.88134 0.87536 0.16439 0.0
Li1320 Li 0.77095 0.17294 0.90137 0.0
Li1321 Li 0.78536 0.18513 0.91848 0.0
Li1322 Li 0.78926 0.20432 0.90077 0.0
Li1323 Li 0.80688 0.17206 0.9034 0.0
C1324 C 0.74611 0.19764 0.91494 0.0
N1325 N 0.71023 0.19589 0.92687 0.0
C1326 C 0.73972 0.17944 0.91977 0.0
C1327 C 0.73428 0.21495 0.9162 0.0
C1328 C 0.72153 0.17887 0.92576 0.0
C1329 C 0.71617 0.21375 0.92225 0.0
C1330 C 0.79682 0.14441 0.91958 0.0
C1331 C 0.82269 0.13838 0.9336 0.0
N1332 N 0.81731 0.11858 0.93396 0.0
C1333 C 0.79157 0.124 0.92007 0.0
C1334 C 0.81252 0.15168 0.92639 0.0
C1335 C 0.8021 0.11118 0.9274 0.0
C1336 C 0.75368 0.13806 0.89277 0.0
N1337 N 0.74917 0.15754 0.89528 0.0
C1338 C 0.71469 0.15239 0.89007 0.0
C1339 C 0.73024 0.16502 0.89378 0.0
C1340 C 0.71876 0.13197 0.8877 0.0
C1341 C 0.73871 0.125 0.88887 0.0
H1342 H 0.76896 0.13265 0.89389 0.0
H1343 H 0.7271 0.18068 0.89566 0.0
C1344 C 0.78205 0.20593 0.93953 0.0
N1345 N 0.78036 0.18758 0.93444 0.0
C1346 C 0.77616 0.20848 0.95086 0.0
C1347 C 0.76741 0.1731 0.95155 0.0
C1348 C 0.7732 0.17131 0.94022 0.0
C1349 C 0.76847 0.19194 0.957 0.0
H1350 H 0.7874 0.21872 0.93466 0.0
H1351 H 0.77136 0.157 0.93596 0.0
C1352 C 0.77972 0.18002 0.88041 0.0
N1353 N 0.75493 0.17627 0.86163 0.0
C1354 C 0.78345 0.16502 0.87233 0.0
C1355 C 0.76342 0.19317 0.87891 0.0
C1356 C 0.77073 0.16335 0.8629 0.0
C1357 C 0.75107 0.19102 0.86936 0.0
C1358 C 0.82775 0.20753 0.90977 0.0
C1359 C 0.83527 0.20713 0.89867 0.0
C1360 C 0.83795 0.21851 0.91813 0.0
C1361 C 0.85294 0.2177 0.89612 0.0
C1362 C 0.85559 0.22887 0.91524 0.0
N1363 N 0.86265 0.22826 0.90439 0.0
C1364 C 0.79331 0.24698 0.90117 0.0
C1365 C 0.79767 0.23176 0.88312 0.0
C1366 C 0.79902 0.26578 0.89679 0.0
N1367 N 0.79296 0.23045 0.89434 0.0
C1368 C 0.80319 0.25021 0.87837 0.0
C1369 C 0.80441 0.26749 0.88526 0.0
H1370 H 0.78996 0.2454 0.91013 0.0
H1371 H 0.7979 0.21834 0.87792 0.0
C1372 C 0.82962 0.14318 0.89161 0.0
N1373 N 0.83078 0.15705 0.90008 0.0
C1374 C 0.84669 0.13228 0.88835 0.0
C1375 C 0.86565 0.14937 0.90302 0.0
C1376 C 0.84822 0.16004 0.90594 0.0
C1377 C 0.86513 0.13545 0.894 0.0
H1378 H 0.81543 0.14069 0.88734 0.0
H1379 H 0.84866 0.17078 0.91285 0.0
O1380 O 0.76404 0.19873 0.9092 0.0
O1381 O 0.78674 0.15701 0.91232 0.0
O1382 O 0.79161 0.18163 0.88989 0.0
O1383 O 0.81027 0.19763 0.91246 0.0
H1384 H 0.74868 0.16589 0.9189 0.0
H1385 H 0.73907 0.22917 0.91255 0.0
H1386 H 0.71642 0.16489 0.92954 0.0
H1387 H 0.70685 0.22704 0.92329 0.0
H1388 H 0.83486 0.14381 0.93892 0.0
H1389 H 0.77949 0.11813 0.91483 0.0
H1390 H 0.81682 0.16742 0.92614 0.0
H1391 H 0.79819 0.09535 0.92788 0.0
H1392 H 0.69958 0.15847 0.88936 0.0
H1393 H 0.74276 0.10959 0.88685 0.0
H1394 H 0.77705 0.22335 0.95464 0.0
H1395 H 0.76195 0.15981 0.95593 0.0
H1396 H 0.796 0.15475 0.87328 0.0
H1397 H 0.76018 0.20475 0.88513 0.0
H1398 H 0.77342 0.15178 0.85659 0.0
H1399 H 0.73835 0.20102 0.86814 0.0
H1400 H 0.82756 0.19877 0.89208 0.0
H1401 H 0.83225 0.21903 0.92674 0.0
H1402 H 0.85891 0.21753 0.88757 0.0
H1403 H 0.86364 0.23743 0.92162 0.0
H1404 H 0.80001 0.27858 0.90248 0.0
H1405 H 0.80691 0.25079 0.86941 0.0
H1406 H 0.84552 0.12183 0.88131 0.0
H1407 H 0.87936 0.15199 0.9078 0.0
Li1408 Li 0.93025 0.53555 0.67137 0.0
Li1409 Li 0.9467 0.54346 0.65317 0.0
Li1410 Li 0.91203 0.55401 0.65695 0.0
Li1411 Li 0.92047 0.51835 0.65381 0.0
C1412 C 0.94516 0.57228 0.67391 0.0
N1413 N 0.96246 0.59088 0.69253 0.0
C1414 C 0.96606 0.57506 0.6744 0.0
C1415 C 0.93305 0.57905 0.68286 0.0
C1416 C 0.97452 0.5845 0.68389 0.0
C1417 C 0.94209 0.58837 0.69221 0.0
C1418 C 0.95217 0.49793 0.66145 0.0
C1419 C 0.96282 0.46827 0.6512 0.0
N1420 N 0.96102 0.4572 0.66088 0.0
C1421 C 0.95056 0.4863 0.67132 0.0
C1422 C 0.95848 0.4889 0.65132 0.0
C1423 C 0.95506 0.46572 0.67085 0.0
C1424 C 0.91758 0.52365 0.69302 0.0
N1425 N 0.93373 0.53097 0.68722 0.0
C1426 C 0.95444 0.5286 0.70382 0.0
C1427 C 0.95201 0.53336 0.69233 0.0
C1428 C 0.93804 0.52078 0.70996 0.0
C1429 C 0.91942 0.51838 0.70445 0.0
H1430 H 0.90335 0.52147 0.68871 0.0
H1431 H 0.96477 0.53858 0.68743 0.0
C1432 C 0.97138 0.57144 0.64225 0.0
N1433 N 0.97096 0.55211 0.64608 0.0
C1434 C 0.98862 0.57907 0.637 0.0
C1435 C 0.00499 0.5469 0.64 0.0
C1436 C 0.98726 0.53979 0.64508 0.0
C1437 C 0.00586 0.56684 0.63589 0.0
H1438 H 0.95826 0.58097 0.64331 0.0
H1439 H 0.9866 0.52456 0.64834 0.0
C1440 C 0.88285 0.53416 0.66664 0.0
N1441 N 0.84234 0.54373 0.66788 0.0
C1442 C 0.86912 0.52521 0.65916 0.0
C1443 C 0.87599 0.54788 0.67479 0.0
C1444 C 0.84869 0.53026 0.65992 0.0
C1445 C 0.85544 0.55255 0.67526 0.0
C1446 C 0.92996 0.54679 0.6328 0.0
C1447 C 0.92645 0.56641 0.62891 0.0
C1448 C 0.94146 0.5335 0.62624 0.0
C1449 C 0.93473 0.57249 0.61854 0.0
C1450 C 0.9495 0.54016 0.61592 0.0
N1451 N 0.94601 0.55936 0.61232 0.0
C1452 C 0.89442 0.59282 0.65888 0.0
C1453 C 0.87858 0.57096 0.64566 0.0
C1454 C 0.88159 0.60861 0.65578 0.0
N1455 N 0.89279 0.57453 0.65375 0.0
C1456 C 0.86542 0.58631 0.6423 0.0
C1457 C 0.86703 0.60555 0.64725 0.0
H1458 H 0.9061 0.59535 0.66513 0.0
H1459 H 0.87783 0.55632 0.64161 0.0
C1460 C 0.90578 0.47896 0.65591 0.0
N1461 N 0.90992 0.49366 0.64821 0.0
C1462 C 0.89565 0.46149 0.65259 0.0
C1463 C 0.89404 0.47467 0.63345 0.0
C1464 C 0.90451 0.49178 0.63712 0.0
C1465 C 0.88913 0.45936 0.64128 0.0
H1466 H 0.90974 0.48113 0.66474 0.0
H1467 H 0.90751 0.50396 0.63125 0.0
O1468 O 0.9366 0.56298 0.66472 0.0
O1469 O 0.94762 0.51806 0.66171 0.0
O1470 O 0.90297 0.52977 0.66587 0.0
O1471 O 0.92228 0.54066 0.64302 0.0
H1472 H 0.97568 0.56987 0.66757 0.0
H1473 H 0.91687 0.57692 0.68263 0.0
H1474 H 0.99067 0.58669 0.6844 0.0
H1475 H 0.93292 0.59357 0.69923 0.0
H1476 H 0.9676 0.46105 0.64341 0.0
H1477 H 0.94572 0.49304 0.67924 0.0
H1478 H 0.95987 0.49771 0.64363 0.0
H1479 H 0.95377 0.4565 0.67841 0.0
H1480 H 0.96909 0.53042 0.70777 0.0
H1481 H 0.90642 0.51245 0.70893 0.0
H1482 H 0.98836 0.5944 0.63382 0.0
H1483 H 0.01796 0.537 0.63953 0.0
H1484 H 0.87418 0.51463 0.65277 0.0
H1485 H 0.88645 0.55496 0.68061 0.0
H1486 H 0.83789 0.52352 0.65416 0.0
H1487 H 0.84993 0.56323 0.68149 0.0
H1488 H 0.91766 0.57693 0.6339 0.0
H1489 H 0.94425 0.51825 0.62911 0.0
H1490 H 0.93226 0.58767 0.61546 0.0
H1491 H 0.95854 0.53008 0.61079 0.0
H1492 H 0.88362 0.62326 0.65969 0.0
H1493 H 0.85431 0.58322 0.63577 0.0
H1494 H 0.89251 0.45003 0.65891 0.0
H1495 H 0.88902 0.47394 0.62471 0.0
Li1496 Li 0.70374 0.69921 0.90086 0.0
Li1497 Li 0.71198 0.68256 0.91915 0.0
Li1498 Li 0.72641 0.67105 0.90192 0.0
Li1499 Li 0.69153 0.66529 0.90516 0.0
C1500 C 0.74868 0.70269 0.90488 0.0
N1501 N 0.78677 0.71011 0.89631 0.0
C1502 C 0.76563 0.70062 0.91186 0.0
C1503 C 0.75108 0.70864 0.89357 0.0
C1504 C 0.78477 0.7044 0.90735 0.0
C1505 C 0.77047 0.71231 0.88939 0.0
C1506 C 0.67703 0.70722 0.91855 0.0
C1507 C 0.64892 0.7251 0.9268 0.0
N1508 N 0.66131 0.74093 0.92916 0.0
C1509 C 0.68949 0.72368 0.92105 0.0
C1510 C 0.65658 0.70793 0.92142 0.0
C1511 C 0.68125 0.74057 0.92642 0.0
C1512 C 0.67828 0.72247 0.88764 0.0
N1513 N 0.69592 0.72337 0.89349 0.0
C1514 C 0.69971 0.75832 0.88895 0.0
C1515 C 0.7067 0.74077 0.89426 0.0
C1516 C 0.68141 0.75791 0.88288 0.0
C1517 C 0.67069 0.73963 0.88227 0.0
H1518 H 0.66996 0.70843 0.88731 0.0
H1519 H 0.7206 0.74107 0.89907 0.0
C1520 C 0.73578 0.67794 0.93825 0.0
N1521 N 0.71751 0.68526 0.935 0.0
C1522 C 0.7415 0.67825 0.94966 0.0
C1523 C 0.70941 0.69354 0.95426 0.0
C1524 C 0.70422 0.69275 0.94275 0.0
C1525 C 0.72825 0.68617 0.95783 0.0
H1526 H 0.74581 0.67157 0.93195 0.0
H1527 H 0.68947 0.69778 0.9401 0.0
C1528 C 0.70279 0.66081 0.88274 0.0
N1529 N 0.69933 0.63148 0.86616 0.0
C1530 C 0.70895 0.64101 0.88497 0.0
C1531 C 0.69482 0.66567 0.8721 0.0
C1532 C 0.7071 0.62641 0.87647 0.0
C1533 C 0.69321 0.65064 0.86382 0.0
C1534 C 0.70729 0.64169 0.92227 0.0
C1535 C 0.71783 0.6241 0.92505 0.0
C1536 C 0.68947 0.64643 0.92806 0.0
C1537 C 0.71035 0.6115 0.93359 0.0
C1538 C 0.68251 0.63344 0.93655 0.0
N1539 N 0.693 0.6164 0.93912 0.0
C1540 C 0.76271 0.64976 0.90338 0.0
C1541 C 0.75482 0.66029 0.88463 0.0
C1542 C 0.77992 0.63973 0.89953 0.0
N1543 N 0.75047 0.6595 0.89592 0.0
C1544 C 0.77171 0.65021 0.88038 0.0
C1545 C 0.78433 0.63955 0.88786 0.0
H1546 H 0.75886 0.64948 0.91231 0.0
H1547 H 0.74496 0.66839 0.87891 0.0
C1548 C 0.6517 0.65716 0.89927 0.0
N1549 N 0.66927 0.64799 0.9022 0.0
C1550 C 0.63527 0.6457 0.89561 0.0
C1551 C 0.6552 0.6155 0.89828 0.0
C1552 C 0.67124 0.62756 0.90194 0.0
C1553 C 0.637 0.62458 0.89486 0.0
H1554 H 0.65066 0.67345 0.89948 0.0
H1555 H 0.68548 0.62066 0.90418 0.0
O1556 O 0.72985 0.69852 0.90902 0.0
O1557 O 0.68459 0.6906 0.91313 0.0
O1558 O 0.7042 0.67537 0.89094 0.0
O1559 O 0.71462 0.65415 0.91396 0.0
H1560 H 0.76404 0.69607 0.92063 0.0
H1561 H 0.73813 0.71007 0.88802 0.0
H1562 H 0.79803 0.70278 0.91264 0.0
H1563 H 0.77257 0.71679 0.88063 0.0
H1564 H 0.63312 0.72585 0.92908 0.0
H1565 H 0.70535 0.72343 0.91891 0.0
H1566 H 0.64674 0.69533 0.9195 0.0
H1567 H 0.69071 0.75341 0.92841 0.0
H1568 H 0.70857 0.77201 0.88957 0.0
H1569 H 0.65633 0.73864 0.87791 0.0
H1570 H 0.75618 0.67243 0.95205 0.0
H1571 H 0.69861 0.69939 0.96033 0.0
H1572 H 0.71506 0.63693 0.89318 0.0
H1573 H 0.6899 0.68092 0.87027 0.0
H1574 H 0.71181 0.61104 0.87808 0.0
H1575 H 0.68707 0.65419 0.85554 0.0
H1576 H 0.73165 0.62025 0.92066 0.0
H1577 H 0.68108 0.65994 0.92606 0.0
H1578 H 0.71836 0.59784 0.93584 0.0
H1579 H 0.66875 0.63692 0.9411 0.0
H1580 H 0.78921 0.63154 0.90553 0.0
H1581 H 0.77476 0.65054 0.87134 0.0
H1582 H 0.62144 0.65335 0.89326 0.0
H1583 H 0.65731 0.59932 0.89772 0.0
Li1584 Li 0.56813 0.46298 0.17196 0.0
Li1585 Li 0.55152 0.45538 0.15375 0.0
Li1586 Li 0.58588 0.44385 0.1576 0.0
Li1587 Li 0.57844 0.47977 0.15438 0.0
C1588 C 0.5523 0.42656 0.17453 0.0
N1589 N 0.5347 0.40819 0.19312 0.0
C1590 C 0.53132 0.42461 0.17515 0.0
C1591 C 0.56434 0.41906 0.18332 0.0
C1592 C 0.52271 0.41528 0.18463 0.0
C1593 C 0.55515 0.40988 0.19267 0.0
C1594 C 0.54716 0.50107 0.16191 0.0
C1595 C 0.5371 0.53084 0.15157 0.0
N1596 N 0.5392 0.54198 0.16121 0.0
C1597 C 0.54909 0.51277 0.17173 0.0
C1598 C 0.54098 0.51011 0.15176 0.0
C1599 C 0.54504 0.53345 0.1712 0.0
C1600 C 0.58103 0.47472 0.19358 0.0
N1601 N 0.56471 0.46774 0.18779 0.0
C1602 C 0.54399 0.47099 0.20433 0.0
C1603 C 0.54636 0.46593 0.19287 0.0
C1604 C 0.56055 0.47851 0.21045 0.0
C1605 C 0.57927 0.48027 0.20497 0.0
H1606 H 0.59534 0.47643 0.18928 0.0
H1607 H 0.53347 0.46099 0.18798 0.0
C1608 C 0.52641 0.42789 0.1428 0.0
N1609 N 0.52709 0.4472 0.14668 0.0
C1610 C 0.50906 0.42055 0.13754 0.0
C1611 C 0.49308 0.45288 0.14072 0.0
C1612 C 0.51092 0.45973 0.14577 0.0
C1613 C 0.49209 0.43308 0.13648 0.0
H1614 H 0.53936 0.41814 0.14389 0.0
H1615 H 0.51182 0.47494 0.14906 0.0
C1616 C 0.61562 0.46323 0.16743 0.0
N1617 N 0.656 0.45332 0.16917 0.0
C1618 C 0.62978 0.47247 0.16033 0.0
C1619 C 0.622 0.44906 0.17547 0.0
C1620 C 0.65013 0.46724 0.16133 0.0
C1621 C 0.64248 0.44422 0.17619 0.0
C1622 C 0.56836 0.45137 0.13341 0.0
C1623 C 0.57168 0.43171 0.12953 0.0
C1624 C 0.55701 0.46477 0.12683 0.0
C1625 C 0.56336 0.4257 0.11916 0.0
C1626 C 0.54892 0.45817 0.11652 0.0
N1627 N 0.55222 0.43893 0.11293 0.0
C1628 C 0.59977 0.40371 0.15841 0.0
C1629 C 0.61994 0.42567 0.14727 0.0
C1630 C 0.61125 0.38713 0.155 0.0
N1631 N 0.60415 0.42245 0.15442 0.0
C1632 C 0.63197 0.40953 0.14372 0.0
C1633 C 0.62738 0.3899 0.14741 0.0
H1634 H 0.5869 0.40151 0.16391 0.0
H1635 H 0.62271 0.44065 0.14397 0.0
C1636 C 0.59395 0.51888 0.15639 0.0
N1637 N 0.58956 0.50418 0.14873 0.0
C1638 C 0.60422 0.53622 0.15299 0.0
C1639 C 0.60554 0.52288 0.13389 0.0
C1640 C 0.59492 0.50591 0.13763 0.0
C1641 C 0.61064 0.53822 0.14166 0.0
H1642 H 0.59001 0.51684 0.16523 0.0
H1643 H 0.59169 0.49373 0.13179 0.0
O1644 O 0.56101 0.43577 0.16536 0.0
O1645 O 0.55127 0.48085 0.16223 0.0
O1646 O 0.5956 0.4679 0.16648 0.0
O1647 O 0.57606 0.45743 0.14364 0.0
H1648 H 0.52177 0.43037 0.16843 0.0
H1649 H 0.5806 0.42046 0.18296 0.0
H1650 H 0.5065 0.41373 0.18525 0.0
H1651 H 0.56427 0.4041 0.19956 0.0
H1652 H 0.53243 0.53807 0.14376 0.0
H1653 H 0.55382 0.50602 0.17967 0.0
H1654 H 0.53934 0.50125 0.1441 0.0
H1655 H 0.54657 0.54272 0.17871 0.0
H1656 H 0.52926 0.46967 0.20826 0.0
H1657 H 0.59239 0.48596 0.20943 0.0
H1658 H 0.50875 0.40508 0.13455 0.0
H1659 H 0.48026 0.46297 0.14005 0.0
H1660 H 0.62511 0.48343 0.15405 0.0
H1661 H 0.61121 0.4418 0.18103 0.0
H1662 H 0.66126 0.4742 0.15586 0.0
H1663 H 0.64761 0.4332 0.18233 0.0
H1664 H 0.58039 0.42112 0.13452 0.0
H1665 H 0.55438 0.48005 0.1297 0.0
H1666 H 0.56569 0.41049 0.11608 0.0
H1667 H 0.54 0.46834 0.11137 0.0
H1668 H 0.6073 0.37222 0.15806 0.0
H1669 H 0.64408 0.41225 0.13773 0.0
H1670 H 0.6075 0.54771 0.15927 0.0
H1671 H 0.61046 0.52349 0.12513 0.0
Li1672 Li 0.78621 0.31789 0.41821 0.0
Li1673 Li 0.79456 0.29932 0.4008 0.0
Li1674 Li 0.8058 0.33411 0.40351 0.0
Li1675 Li 0.77017 0.32605 0.40013 0.0
C1676 C 0.82243 0.30271 0.42189 0.0
N1677 N 0.8396 0.28748 0.44149 0.0
C1678 C 0.82428 0.28186 0.42339 0.0
C1679 C 0.8294 0.31582 0.43033 0.0
C1680 C 0.83301 0.27446 0.43336 0.0
C1681 C 0.83799 0.30782 0.4402 0.0
C1682 C 0.74832 0.29658 0.40853 0.0
C1683 C 0.71848 0.28649 0.39827 0.0
N1684 N 0.70709 0.29061 0.4076 0.0
C1685 C 0.73635 0.30061 0.41805 0.0
C1686 C 0.73937 0.28935 0.39858 0.0
C1687 C 0.71552 0.29752 0.4174 0.0
C1688 C 0.77582 0.33336 0.43961 0.0
N1689 N 0.78137 0.3162 0.43412 0.0
C1690 C 0.77842 0.29715 0.45129 0.0
C1691 C 0.78249 0.29823 0.43966 0.0
C1692 C 0.77272 0.31468 0.45723 0.0
C1693 C 0.77137 0.33294 0.45119 0.0
H1694 H 0.7745 0.34735 0.43495 0.0
H1695 H 0.78644 0.28471 0.43503 0.0
C1696 C 0.8232 0.27308 0.39199 0.0
N1697 N 0.8033 0.27424 0.39468 0.0
C1698 C 0.83114 0.25545 0.38734 0.0
C1699 C 0.79801 0.24027 0.38852 0.0
C1700 C 0.79066 0.25834 0.39307 0.0
C1701 C 0.81856 0.23864 0.3856 0.0
H1702 H 0.8329 0.28597 0.39342 0.0
H1703 H 0.77492 0.25965 0.39539 0.0
C1704 C 0.78603 0.36476 0.41188 0.0
N1705 N 0.79604 0.40524 0.41192 0.0
C1706 C 0.77724 0.37788 0.404 0.0
C1707 C 0.79982 0.37224 0.41982 0.0
C1708 C 0.78251 0.3983 0.40416 0.0
C1709 C 0.80472 0.39275 0.41968 0.0
C1710 C 0.79988 0.31339 0.38012 0.0
C1711 C 0.81985 0.31619 0.37664 0.0
C1712 C 0.78712 0.30088 0.3738 0.0
C1713 C 0.82679 0.30626 0.36692 0.0
C1714 C 0.79465 0.29119 0.36415 0.0
N1715 N 0.81416 0.29405 0.36094 0.0
C1716 C 0.8452 0.35032 0.40517 0.0
C1717 C 0.82386 0.36671 0.39189 0.0
C1718 C 0.86136 0.36267 0.40206 0.0
N1719 N 0.82696 0.35251 0.40004 0.0
C1720 C 0.83958 0.37945 0.38856 0.0
C1721 C 0.85873 0.37737 0.39356 0.0
H1722 H 0.84738 0.33862 0.41144 0.0
H1723 H 0.80927 0.36786 0.38782 0.0
C1724 C 0.73167 0.34348 0.4009 0.0
N1725 N 0.7461 0.33653 0.39368 0.0
C1726 C 0.7149 0.35379 0.3967 0.0
C1727 C 0.72809 0.3495 0.3777 0.0
C1728 C 0.74454 0.3391 0.38226 0.0
C1729 C 0.7132 0.3573 0.38498 0.0
H1730 H 0.73364 0.34174 0.40997 0.0
H1731 H 0.75644 0.3338 0.37674 0.0
O1732 O 0.81375 0.31026 0.41224 0.0
O1733 O 0.7687 0.29979 0.40894 0.0
O1734 O 0.78137 0.34465 0.41173 0.0
O1735 O 0.79292 0.3226 0.38975 0.0
H1736 H 0.81887 0.27149 0.41698 0.0
H1737 H 0.82799 0.33199 0.42934 0.0
H1738 H 0.83447 0.25836 0.43466 0.0
H1739 H 0.84334 0.31778 0.44683 0.0
H1740 H 0.71132 0.28103 0.3906 0.0
H1741 H 0.74303 0.30622 0.42581 0.0
H1742 H 0.74842 0.28618 0.39114 0.0
H1743 H 0.70605 0.30067 0.42467 0.0
H1744 H 0.77982 0.28275 0.45557 0.0
H1745 H 0.76653 0.34675 0.45528 0.0
H1746 H 0.84696 0.25509 0.38505 0.0
H1747 H 0.7878 0.22765 0.38746 0.0
H1748 H 0.76663 0.37235 0.39774 0.0
H1749 H 0.80681 0.36227 0.42594 0.0
H1750 H 0.7759 0.40861 0.39808 0.0
H1751 H 0.81546 0.39872 0.42574 0.0
H1752 H 0.82997 0.32573 0.38146 0.0
H1753 H 0.77164 0.2985 0.3764 0.0
H1754 H 0.84225 0.3082 0.36416 0.0
H1755 H 0.78499 0.28135 0.35922 0.0
H1756 H 0.87593 0.36022 0.406 0.0
H1757 H 0.83679 0.39067 0.38205 0.0
H1758 H 0.70394 0.35986 0.40262 0.0
H1759 H 0.72729 0.35188 0.3686 0.0
Li1760 Li 0.92211 0.48206 0.8487 0.0
Li1761 Li 0.91399 0.44636 0.84529 0.0
Li1762 Li 0.94852 0.45713 0.84916 0.0
Li1763 Li 0.93209 0.46532 0.83099 0.0
C1764 C 0.93194 0.45291 0.86938 0.0
N1765 N 0.94863 0.43939 0.8895 0.0
C1766 C 0.92939 0.43283 0.87272 0.0
C1767 C 0.94279 0.46617 0.8763 0.0
C1768 C 0.93798 0.42627 0.88292 0.0
C1769 C 0.95117 0.45902 0.88643 0.0
C1770 C 0.88468 0.46628 0.83555 0.0
C1771 C 0.85765 0.44774 0.82664 0.0
N1772 N 0.84422 0.4567 0.83378 0.0
C1773 C 0.87062 0.47538 0.84276 0.0
C1774 C 0.87817 0.45242 0.82738 0.0
C1775 C 0.85023 0.47032 0.84175 0.0
C1776 C 0.90842 0.5221 0.84731 0.0
N1777 N 0.91128 0.50642 0.85457 0.0
C1778 C 0.89355 0.52381 0.86928 0.0
C1779 C 0.90435 0.50704 0.86543 0.0
C1780 C 0.88999 0.54017 0.8619 0.0
C1781 C 0.89813 0.53933 0.85087 0.0
H1782 H 0.91352 0.52095 0.83861 0.0
H1783 H 0.90636 0.49411 0.87092 0.0
C1784 C 0.89779 0.40699 0.84377 0.0
N1785 N 0.89503 0.42556 0.84841 0.0
C1786 C 0.8853 0.39095 0.84689 0.0
C1787 C 0.86712 0.41354 0.85936 0.0
C1788 C 0.88004 0.42912 0.85604 0.0
C1789 C 0.86984 0.39404 0.8549 0.0
H1790 H 0.91011 0.40447 0.83793 0.0
H1791 H 0.87846 0.44396 0.85976 0.0
C1792 C 0.95402 0.50281 0.84116 0.0
N1793 N 0.96338 0.54343 0.84189 0.0
C1794 C 0.95351 0.51437 0.83123 0.0
C1795 C 0.95946 0.51186 0.85145 0.0
C1796 C 0.95827 0.53489 0.83178 0.0
C1797 C 0.96408 0.53243 0.85164 0.0
C1798 C 0.94716 0.42864 0.82822 0.0
C1799 C 0.9681 0.42634 0.82755 0.0
C1800 C 0.93495 0.42154 0.81939 0.0
C1801 C 0.9765 0.41703 0.818 0.0
C1802 C 0.94393 0.41237 0.80997 0.0
N1803 N 0.96434 0.41033 0.80948 0.0
C1804 C 0.97379 0.42865 0.85918 0.0
C1805 C 0.98813 0.46143 0.8586 0.0
C1806 C 0.99084 0.42106 0.86464 0.0
N1807 N 0.9727 0.44851 0.85635 0.0
C1808 C 0.0056 0.45443 0.86399 0.0
C1809 C 0.00705 0.434 0.86711 0.0
H1810 H 0.96136 0.4187 0.85715 0.0
H1811 H 0.98691 0.47712 0.8562 0.0
C1812 C 0.91918 0.47768 0.80948 0.0
N1813 N 0.93543 0.47023 0.81515 0.0
C1814 C 0.92078 0.48308 0.79807 0.0
C1815 C 0.95578 0.47277 0.79842 0.0
C1816 C 0.95358 0.46787 0.80991 0.0
C1817 C 0.93927 0.48069 0.79242 0.0
H1818 H 0.90504 0.47982 0.81389 0.0
H1819 H 0.96645 0.46257 0.8147 0.0
O1820 O 0.92408 0.4595 0.8593 0.0
O1821 O 0.90475 0.47074 0.83654 0.0
O1822 O 0.94929 0.48273 0.84081 0.0
O1823 O 0.93865 0.43781 0.83746 0.0
H1824 H 0.92111 0.42234 0.86744 0.0
H1825 H 0.94485 0.48177 0.87384 0.0
H1826 H 0.93625 0.41074 0.88558 0.0
H1827 H 0.95972 0.46908 0.89184 0.0
H1828 H 0.8524 0.43696 0.8204 0.0
H1829 H 0.8754 0.48611 0.84915 0.0
H1830 H 0.88887 0.44526 0.82172 0.0
H1831 H 0.83918 0.47717 0.84731 0.0
H1832 H 0.88728 0.52347 0.87777 0.0
H1833 H 0.89613 0.55161 0.84491 0.0
H1834 H 0.88827 0.37613 0.8434 0.0
H1835 H 0.85532 0.41669 0.86547 0.0
H1836 H 0.94937 0.50761 0.82319 0.0
H1837 H 0.95991 0.50314 0.85921 0.0
H1838 H 0.95785 0.54404 0.82417 0.0
H1839 H 0.96819 0.53967 0.85955 0.0
H1840 H 0.97779 0.43182 0.83427 0.0
H1841 H 0.91873 0.42325 0.81977 0.0
H1842 H 0.99268 0.41521 0.81734 0.0
H1843 H 0.93468 0.40691 0.80305 0.0
H1844 H 0.99148 0.40515 0.86671 0.0
H1845 H 0.01775 0.4649 0.86578 0.0
H1846 H 0.9077 0.48909 0.7937 0.0
H1847 H 0.97034 0.47095 0.79436 0.0
Li1848 Li 0.8035 0.66677 0.09417 0.0
Li1849 Li 0.76756 0.67294 0.09786 0.0
Li1850 Li 0.78269 0.68169 0.07969 0.0
Li1851 Li 0.79059 0.70099 0.09689 0.0
C1852 C 0.78514 0.63479 0.08659 0.0
N1853 N 0.79721 0.59489 0.0876 0.0
C1854 C 0.77599 0.62154 0.09427 0.0
C1855 C 0.8004 0.62773 0.07941 0.0
C1856 C 0.7823 0.60142 0.09464 0.0
C1857 C 0.80631 0.60752 0.08006 0.0
C1858 C 0.79697 0.68711 0.11767 0.0
C1859 C 0.79086 0.70895 0.1337 0.0
N1860 N 0.81043 0.7067 0.13697 0.0
C1861 C 0.81699 0.68492 0.12121 0.0
C1862 C 0.78375 0.69912 0.12399 0.0
C1863 C 0.82351 0.69497 0.13099 0.0
C1864 C 0.84395 0.6535 0.09267 0.0
N1865 N 0.82586 0.64986 0.0977 0.0
C1866 C 0.84036 0.62394 0.10924 0.0
C1867 C 0.82374 0.63541 0.10582 0.0
C1868 C 0.85936 0.62764 0.10436 0.0
C1869 C 0.86098 0.64248 0.09588 0.0
H1870 H 0.84527 0.66529 0.08637 0.0
H1871 H 0.80924 0.63316 0.10984 0.0
C1872 C 0.72946 0.65434 0.0978 0.0
N1873 N 0.74414 0.66174 0.10472 0.0
C1874 C 0.71303 0.64399 0.10238 0.0
C1875 C 0.72715 0.64901 0.12111 0.0
C1876 C 0.74322 0.65946 0.11618 0.0
C1877 C 0.71194 0.64089 0.11416 0.0
H1878 H 0.73093 0.65582 0.08869 0.0
H1879 H 0.75532 0.6651 0.12145 0.0
C1880 C 0.81664 0.69923 0.07534 0.0
N1881 N 0.82907 0.71583 0.05497 0.0
C1882 C 0.81461 0.71995 0.07343 0.0
C1883 C 0.82505 0.68695 0.06692 0.0
C1884 C 0.82099 0.72806 0.06307 0.0
C1885 C 0.83121 0.69563 0.05667 0.0
C1886 C 0.74416 0.70173 0.08994 0.0
C1887 C 0.73147 0.69656 0.08091 0.0
C1888 C 0.73588 0.70954 0.09994 0.0
C1889 C 0.71064 0.69917 0.08207 0.0
C1890 C 0.71498 0.71189 0.10078 0.0
N1891 N 0.7029 0.70669 0.0919 0.0
C1892 C 0.77865 0.66631 0.05742 0.0
C1893 C 0.77185 0.70129 0.05914 0.0
C1894 C 0.77399 0.66682 0.04587 0.0
N1895 N 0.77745 0.68336 0.06379 0.0
C1896 C 0.7669 0.70247 0.04761 0.0
C1897 C 0.76776 0.68502 0.04082 0.0
H1898 H 0.78299 0.65224 0.06134 0.0
H1899 H 0.77085 0.71458 0.06445 0.0
C1900 C 0.81825 0.72779 0.10592 0.0
N1901 N 0.79849 0.7264 0.10296 0.0
C1902 C 0.82571 0.74533 0.1109 0.0
C1903 C 0.79253 0.7602 0.10925 0.0
C1904 C 0.7856 0.74215 0.10444 0.0
C1905 C 0.81286 0.76195 0.11261 0.0
H1906 H 0.82817 0.71506 0.10453 0.0
H1907 H 0.77 0.74072 0.10188 0.0
O1908 O 0.7794 0.65463 0.08621 0.0
O1909 O 0.79041 0.67776 0.10798 0.0
O1910 O 0.80996 0.69092 0.08529 0.0
O1911 O 0.76456 0.69903 0.08904 0.0
H1912 H 0.76426 0.62671 0.09995 0.0
H1913 H 0.80789 0.63783 0.07355 0.0
H1914 H 0.77539 0.59102 0.10057 0.0
H1915 H 0.8182 0.6019 0.07461 0.0
H1916 H 0.78083 0.71841 0.13863 0.0
H1917 H 0.82747 0.6758 0.1164 0.0
H1918 H 0.76823 0.701 0.12137 0.0
H1919 H 0.83899 0.69352 0.13379 0.0
H1920 H 0.83851 0.61285 0.11591 0.0
H1921 H 0.87532 0.6457 0.09185 0.0
H1922 H 0.70181 0.63764 0.09671 0.0
H1923 H 0.72683 0.64694 0.13024 0.0
H1924 H 0.80798 0.72965 0.07981 0.0
H1925 H 0.82651 0.67085 0.06822 0.0
H1926 H 0.81944 0.74406 0.06145 0.0
H1927 H 0.83761 0.6863 0.05005 0.0
H1928 H 0.73759 0.69036 0.07314 0.0
H1929 H 0.74547 0.71359 0.10702 0.0
H1930 H 0.70064 0.69513 0.07517 0.0
H1931 H 0.70836 0.71781 0.10849 0.0
H1932 H 0.77523 0.65305 0.04096 0.0
H1933 H 0.76194 0.71678 0.04415 0.0
H1934 H 0.84137 0.74568 0.11352 0.0
H1935 H 0.7821 0.77267 0.11021 0.0
Li1936 Li 0.5869 0.5561 0.34506 0.0
Li1937 Li 0.57885 0.52036 0.34845 0.0
Li1938 Li 0.56842 0.53709 0.33089 0.0
Li1939 Li 0.55251 0.54526 0.3492 0.0
C1940 C 0.61598 0.53604 0.33503 0.0
N1941 N 0.6565 0.54509 0.33287 0.0
C1942 C 0.63014 0.52678 0.34213 0.0
C1943 C 0.62242 0.54979 0.32679 0.0
C1944 C 0.65056 0.53158 0.34091 0.0
C1945 C 0.64297 0.5542 0.32585 0.0
C1946 C 0.56948 0.5496 0.36923 0.0
C1947 C 0.55032 0.54382 0.38634 0.0
N1948 N 0.55291 0.5635 0.3893 0.0
C1949 C 0.57207 0.56974 0.37246 0.0
C1950 C 0.55864 0.53648 0.37625 0.0
C1951 C 0.56354 0.57648 0.38263 0.0
C1952 C 0.60206 0.5958 0.34377 0.0
N1953 N 0.60578 0.57709 0.348 0.0
C1954 C 0.63421 0.58943 0.35841 0.0
C1955 C 0.6215 0.57362 0.35516 0.0
C1956 C 0.63049 0.60908 0.35439 0.0
C1957 C 0.61427 0.61206 0.34685 0.0
H1958 H 0.58915 0.59825 0.33834 0.0
H1959 H 0.62382 0.55867 0.35861 0.0
C1960 C 0.59358 0.48114 0.34612 0.0
N1961 N 0.58982 0.49577 0.35393 0.0
C1962 C 0.60385 0.46364 0.34923 0.0
C1963 C 0.60645 0.47664 0.36837 0.0
C1964 C 0.59578 0.49379 0.36492 0.0
C1965 C 0.61095 0.4614 0.36042 0.0
H1966 H 0.58915 0.48338 0.33737 0.0
H1967 H 0.59303 0.50591 0.37088 0.0
C1968 C 0.55352 0.57383 0.32821 0.0
N1969 N 0.53632 0.59236 0.30954 0.0
C1970 C 0.53258 0.57615 0.32755 0.0
C1971 C 0.56572 0.58102 0.3194 0.0
C1972 C 0.52418 0.58556 0.31804 0.0
C1973 C 0.55673 0.5903 0.31002 0.0
C1974 C 0.54707 0.49953 0.34127 0.0
C1975 C 0.5478 0.48784 0.33139 0.0
C1976 C 0.54188 0.49051 0.3516 0.0
C1977 C 0.54353 0.46722 0.33204 0.0
C1978 C 0.53774 0.46984 0.3519 0.0
N1979 N 0.53866 0.45872 0.34219 0.0
C1980 C 0.58082 0.52443 0.30937 0.0
C1981 C 0.54651 0.53453 0.30993 0.0
C1982 C 0.57896 0.51878 0.29801 0.0
N1983 N 0.56473 0.53212 0.31508 0.0
C1984 C 0.54406 0.5294 0.29848 0.0
C1985 C 0.56039 0.52119 0.29245 0.0
H1986 H 0.59501 0.52222 0.31372 0.0
H1987 H 0.53376 0.54002 0.31475 0.0
C1988 C 0.52768 0.57425 0.35893 0.0
N1989 N 0.52858 0.5542 0.35656 0.0
C1990 C 0.51094 0.58229 0.36449 0.0
C1991 C 0.49611 0.54895 0.3649 0.0
C1992 C 0.51326 0.5415 0.35937 0.0
C1993 C 0.49485 0.56961 0.36756 0.0
H1994 H 0.54003 0.584 0.35649 0.0
H1995 H 0.51436 0.52563 0.35734 0.0
O1996 O 0.59589 0.5318 0.33621 0.0
O1997 O 0.57725 0.54283 0.35916 0.0
O1998 O 0.56205 0.56455 0.33741 0.0
O1999 O 0.55141 0.51969 0.34083 0.0
H2000 H 0.62543 0.51615 0.34858 0.0
H2001 H 0.61164 0.55705 0.32122 0.0
H2002 H 0.66169 0.5246 0.34637 0.0
H2003 H 0.64816 0.56489 0.31954 0.0
H2004 H 0.54177 0.53387 0.39182 0.0
H2005 H 0.58034 0.58012 0.36711 0.0
H2006 H 0.55652 0.52085 0.37387 0.0
H2007 H 0.5653 0.59206 0.38521 0.0
H2008 H 0.64661 0.58634 0.36414 0.0
H2009 H 0.61049 0.62696 0.34372 0.0
H2010 H 0.60663 0.45223 0.34283 0.0
H2011 H 0.61189 0.47583 0.37703 0.0
H2012 H 0.5229 0.57058 0.33425 0.0
H2013 H 0.58195 0.57931 0.31978 0.0
H2014 H 0.508 0.5874 0.31739 0.0
H2015 H 0.56598 0.59584 0.30312 0.0
H2016 H 0.55177 0.49458 0.32331 0.0
H2017 H 0.54127 0.49934 0.35932 0.0
H2018 H 0.54414 0.45797 0.32447 0.0
H2019 H 0.53383 0.46263 0.35985 0.0
H2020 H 0.59191 0.51254 0.29361 0.0
H2021 H 0.52944 0.53124 0.29449 0.0
H2022 H 0.51045 0.59836 0.36618 0.0
H2023 H 0.48408 0.53864 0.36717 0.0
Li2024 Li 0.73038 0.328 0.59716 0.0
Li2025 Li 0.69517 0.33651 0.5929 0.0
Li2026 Li 0.7058 0.30158 0.59575 0.0
Li2027 Li 0.71574 0.32018 0.57866 0.0
C2028 C 0.69858 0.31518 0.61617 0.0
N2029 N 0.68181 0.29516 0.63447 0.0
C2030 C 0.6781 0.31754 0.61869 0.0
C2031 C 0.71056 0.30274 0.62299 0.0
C2032 C 0.66991 0.30728 0.62798 0.0
C2033 C 0.70179 0.2927 0.63219 0.0
C2034 C 0.71617 0.36704 0.58504 0.0
C2035 C 0.6987 0.39539 0.57676 0.0
N2036 N 0.70716 0.40775 0.58466 0.0
C2037 C 0.72475 0.38004 0.59306 0.0
C2038 C 0.7031 0.37477 0.57679 0.0
C2039 C 0.72 0.40057 0.59273 0.0
C2040 C 0.76919 0.3448 0.59749 0.0
N2041 N 0.75401 0.33809 0.60428 0.0
C2042 C 0.77095 0.35038 0.6208 0.0
C2043 C 0.75466 0.34047 0.61574 0.0
C2044 C 0.78665 0.35789 0.61397 0.0
C2045 C 0.78584 0.35463 0.60219 0.0
H2046 H 0.76797 0.34321 0.58837 0.0
H2047 H 0.74218 0.33535 0.62091 0.0
C2048 C 0.65565 0.35242 0.59107 0.0
N2049 N 0.67397 0.35503 0.59603 0.0
C2050 C 0.63935 0.36455 0.59423 0.0
C2051 C 0.66122 0.38211 0.60737 0.0
C2052 C 0.67704 0.36952 0.60403 0.0
C2053 C 0.64194 0.3795 0.60259 0.0
H2054 H 0.65349 0.34045 0.58496 0.0
H2055 H 0.69166 0.37093 0.60803 0.0
C2056 C 0.7526 0.29846 0.58922 0.0
N2057 N 0.79368 0.29217 0.59116 0.0
C2058 C 0.76529 0.30207 0.57995 0.0
C2059 C 0.76077 0.2915 0.59945 0.0
C2060 C 0.78602 0.29882 0.58111 0.0
C2061 C 0.78159 0.28847 0.60027 0.0
C2062 C 0.67945 0.30603 0.57395 0.0
C2063 C 0.67751 0.28531 0.57199 0.0
C2064 C 0.67305 0.31974 0.56567 0.0
C2065 C 0.66929 0.27864 0.56172 0.0
C2066 C 0.66495 0.31247 0.5555 0.0
N2067 N 0.66326 0.29224 0.55375 0.0
C2068 C 0.676 0.27484 0.60271 0.0
C2069 C 0.70894 0.26112 0.6043 0.0
C2070 C 0.66754 0.25712 0.60694 0.0
N2071 N 0.69632 0.27651 0.60149 0.0
C2072 C 0.7011 0.24306 0.6086 0.0
C2073 C 0.68011 0.24088 0.60992 0.0
H2074 H 0.66637 0.28738 0.60041 0.0
H2075 H 0.72503 0.26284 0.6032 0.0
C2076 C 0.72814 0.3353 0.55746 0.0
N2077 N 0.72183 0.31834 0.5629 0.0
C2078 C 0.73385 0.33448 0.54606 0.0
C2079 C 0.72625 0.29878 0.54601 0.0
C2080 C 0.72099 0.30023 0.55748 0.0
C2081 C 0.73294 0.31604 0.54021 0.0
H2082 H 0.72907 0.34942 0.56203 0.0
H2083 H 0.71653 0.28686 0.5621 0.0
O2084 O 0.70678 0.32466 0.60694 0.0
O2085 O 0.72037 0.34683 0.58532 0.0
O2086 O 0.7323 0.30182 0.58831 0.0
O2087 O 0.68766 0.31287 0.58389 0.0
H2088 H 0.66857 0.327 0.61347 0.0
H2089 H 0.72641 0.30064 0.62112 0.0
H2090 H 0.65406 0.30888 0.63 0.0
H2091 H 0.71084 0.28291 0.6375 0.0
H2092 H 0.68853 0.40155 0.57046 0.0
H2093 H 0.73482 0.37433 0.59954 0.0
H2094 H 0.69633 0.36491 0.57053 0.0
H2095 H 0.72645 0.41079 0.59891 0.0
H2096 H 0.77106 0.35256 0.62992 0.0
H2097 H 0.79744 0.36049 0.59661 0.0
H2098 H 0.62471 0.36166 0.59047 0.0
H2099 H 0.66402 0.39353 0.61376 0.0
H2100 H 0.75923 0.30748 0.57198 0.0
H2101 H 0.75117 0.28874 0.60672 0.0
H2102 H 0.79604 0.30164 0.57402 0.0
H2103 H 0.78813 0.28324 0.60816 0.0
H2104 H 0.68251 0.27448 0.57826 0.0
H2105 H 0.67448 0.33582 0.56704 0.0
H2106 H 0.66778 0.26265 0.56006 0.0
H2107 H 0.66004 0.32291 0.54899 0.0
H2108 H 0.65132 0.25623 0.60798 0.0
H2109 H 0.7113 0.23085 0.6107 0.0
H2110 H 0.7389 0.34812 0.54185 0.0
H2111 H 0.72562 0.28424 0.54181 0.0
Li2112 Li 0.06635 0.4661 0.32994 0.0
Li2113 Li 0.07941 0.47766 0.34764 0.0
Li2114 Li 0.08075 0.44232 0.34381 0.0
Li2115 Li 0.04786 0.45925 0.34795 0.0
C2116 C 0.10694 0.45637 0.3271 0.0
N2117 N 0.13131 0.44099 0.31012 0.0
C2118 C 0.12707 0.46251 0.32624 0.0
C2119 C 0.09918 0.44249 0.31929 0.0
C2120 C 0.13916 0.45451 0.31761 0.0
C2121 C 0.11174 0.43489 0.31077 0.0
C2122 C 0.05301 0.50441 0.33584 0.0
C2123 C 0.03482 0.53426 0.33012 0.0
N2124 N 0.05219 0.54215 0.32586 0.0
C2125 C 0.07068 0.51281 0.33139 0.0
C2126 C 0.03492 0.51519 0.3352 0.0
C2127 C 0.06996 0.53191 0.32638 0.0
C2128 C 0.04517 0.46841 0.30888 0.0
N2129 N 0.06267 0.47306 0.31432 0.0
C2130 C 0.07527 0.48973 0.29778 0.0
C2131 C 0.07759 0.48351 0.30901 0.0
C2132 C 0.0573 0.48541 0.29193 0.0
C2133 C 0.04215 0.47446 0.29761 0.0
H2134 H 0.03348 0.46024 0.31336 0.0
H2135 H 0.09131 0.48719 0.31352 0.0
C2136 C 0.11482 0.49458 0.35564 0.0
N2137 N 0.09484 0.49865 0.3545 0.0
C2138 C 0.12792 0.50916 0.35989 0.0
C2139 C 0.09966 0.53201 0.36176 0.0
C2140 C 0.08699 0.51676 0.35766 0.0
C2141 C 0.12053 0.5284 0.36277 0.0
H2142 H 0.12057 0.47995 0.35315 0.0
H2143 H 0.07099 0.51955 0.35676 0.0
C2144 C 0.04805 0.42082 0.33466 0.0
N2145 N 0.03502 0.38124 0.33353 0.0
C2146 C 0.04081 0.41114 0.34439 0.0
C2147 C 0.04847 0.41043 0.32432 0.0
C2148 C 0.03435 0.39111 0.34366 0.0
C2149 C 0.04187 0.39041 0.32394 0.0
C2150 C 0.08042 0.46166 0.36771 0.0
C2151 C 0.09918 0.4539 0.37094 0.0
C2152 C 0.07127 0.47664 0.37431 0.0
C2153 C 0.10851 0.4613 0.38074 0.0
C2154 C 0.08111 0.48365 0.38404 0.0
N2155 N 0.09937 0.4759 0.38703 0.0
C2156 C 0.11214 0.41147 0.34169 0.0
C2157 C 0.08704 0.40665 0.35574 0.0
C2158 C 0.12197 0.3938 0.34507 0.0
N2159 N 0.09488 0.41751 0.34698 0.0
C2160 C 0.09634 0.3889 0.35939 0.0
C2161 C 0.11411 0.38227 0.35406 0.0
H2162 H 0.11867 0.42039 0.33501 0.0
H2163 H 0.07377 0.41207 0.36012 0.0
C2164 C 0.00584 0.45268 0.34761 0.0
N2165 N 0.02206 0.45506 0.35454 0.0
C2166 C 0.98716 0.44705 0.35213 0.0
C2167 C 0.00216 0.44708 0.37086 0.0
C2168 C 0.02055 0.45255 0.36597 0.0
C2169 C 0.98521 0.44387 0.3639 0.0
H2170 H 0.00761 0.45442 0.33852 0.0
H2171 H 0.03378 0.45414 0.37126 0.0
O2172 O 0.09487 0.46449 0.33535 0.0
O2173 O 0.05325 0.48565 0.34069 0.0
O2174 O 0.05448 0.44043 0.33518 0.0
O2175 O 0.07128 0.45497 0.35799 0.0
H2176 H 0.13326 0.47337 0.33216 0.0
H2177 H 0.08367 0.43764 0.31978 0.0
H2178 H 0.15477 0.4591 0.31686 0.0
H2179 H 0.10593 0.42413 0.30467 0.0
H2180 H 0.02092 0.54278 0.32957 0.0
H2181 H 0.08482 0.50468 0.3318 0.0
H2182 H 0.0211 0.50885 0.33857 0.0
H2183 H 0.08352 0.53858 0.32291 0.0
H2184 H 0.08754 0.49777 0.29372 0.0
H2185 H 0.02798 0.47094 0.29348 0.0
H2186 H 0.14372 0.50536 0.36083 0.0
H2187 H 0.09323 0.54658 0.36379 0.0
H2188 H 0.04033 0.41893 0.35246 0.0
H2189 H 0.05375 0.41776 0.31666 0.0
H2190 H 0.02882 0.38341 0.35115 0.0
H2191 H 0.04215 0.38217 0.316 0.0
H2192 H 0.10659 0.44247 0.36587 0.0
H2193 H 0.05691 0.48304 0.37182 0.0
H2194 H 0.12307 0.4555 0.38332 0.0
H2195 H 0.07427 0.49533 0.38918 0.0
H2196 H 0.1356 0.38924 0.34069 0.0
H2197 H 0.08998 0.38076 0.36652 0.0
H2198 H 0.97463 0.44444 0.34641 0.0
H2199 H 0.00135 0.44506 0.37998 0.0
Li2200 Li 0.30738 0.3316 0.0949 0.0
Li2201 Li 0.28932 0.29848 0.09734 0.0
Li2202 Li 0.28533 0.31805 0.07944 0.0
Li2203 Li 0.27155 0.3299 0.09674 0.0
C2204 C 0.32671 0.29508 0.08348 0.0
N2205 N 0.36023 0.27185 0.07856 0.0
C2206 C 0.33695 0.28499 0.09217 0.0
C2207 C 0.33347 0.29329 0.07227 0.0
C2208 C 0.35386 0.27332 0.08951 0.0
C2209 C 0.35048 0.28151 0.06996 0.0
C2210 C 0.28412 0.33011 0.1175 0.0
C2211 C 0.2606 0.32971 0.13313 0.0
N2212 N 0.2664 0.34875 0.13597 0.0
C2213 C 0.2899 0.34965 0.12058 0.0
C2214 C 0.2694 0.32001 0.12383 0.0
C2215 C 0.28074 0.35882 0.12995 0.0
C2216 C 0.33247 0.36628 0.09784 0.0
N2217 N 0.33155 0.34585 0.09886 0.0
C2218 C 0.36469 0.34512 0.10692 0.0
C2219 C 0.34714 0.33525 0.10341 0.0
C2220 C 0.36625 0.3662 0.10577 0.0
C2221 C 0.34981 0.37676 0.10112 0.0
H2222 H 0.31965 0.37458 0.09464 0.0
H2223 H 0.34579 0.31917 0.10458 0.0
C2224 C 0.29504 0.25645 0.09597 0.0
N2225 N 0.29289 0.27213 0.10331 0.0
C2226 C 0.30092 0.23748 0.09997 0.0
C2227 C 0.30121 0.25096 0.11907 0.0
C2228 C 0.2956 0.26973 0.11468 0.0
C2229 C 0.30439 0.23467 0.11164 0.0
H2230 H 0.29308 0.25893 0.08695 0.0
H2231 H 0.29429 0.28257 0.12029 0.0
C2232 C 0.29667 0.35843 0.07796 0.0
N2233 N 0.31633 0.38306 0.06257 0.0
C2234 C 0.28927 0.37775 0.07564 0.0
C2235 C 0.31408 0.35163 0.07244 0.0
C2236 C 0.29942 0.38997 0.06783 0.0
C2237 C 0.3238 0.36431 0.06469 0.0
C2238 C 0.24614 0.30606 0.08329 0.0
C2239 C 0.2404 0.32436 0.07834 0.0
C2240 C 0.23342 0.2893 0.08243 0.0
C2241 C 0.22199 0.32558 0.07259 0.0
C2242 C 0.21513 0.29114 0.07661 0.0
N2243 N 0.20984 0.30909 0.07185 0.0
C2244 C 0.28162 0.29604 0.05895 0.0
C2245 C 0.27486 0.331 0.05716 0.0
C2246 C 0.27618 0.29283 0.0476 0.0
N2247 N 0.28079 0.3149 0.06349 0.0
C2248 C 0.26963 0.32854 0.04578 0.0
C2249 C 0.26986 0.30921 0.04086 0.0
H2250 H 0.28593 0.28342 0.06425 0.0
H2251 H 0.27353 0.34572 0.06097 0.0
C2252 C 0.25063 0.36489 0.10267 0.0
N2253 N 0.2492 0.34444 0.10276 0.0
C2254 C 0.23455 0.3767 0.10641 0.0
C2255 C 0.21589 0.34616 0.11049 0.0
C2256 C 0.23235 0.33491 0.1066 0.0
C2257 C 0.21682 0.36735 0.1103 0.0
H2258 H 0.2643 0.37201 0.09964 0.0
H2259 H 0.23165 0.3186 0.10655 0.0
O2260 O 0.30983 0.30623 0.08583 0.0
O2261 O 0.29251 0.32112 0.10817 0.0
O2262 O 0.28675 0.34638 0.0856 0.0
O2263 O 0.26416 0.30436 0.0889 0.0
H2264 H 0.33186 0.28609 0.10088 0.0
H2265 H 0.32567 0.30093 0.06543 0.0
H2266 H 0.36191 0.26541 0.09616 0.0
H2267 H 0.3559 0.28002 0.06133 0.0
H2268 H 0.24908 0.32214 0.13806 0.0
H2269 H 0.30118 0.35771 0.11573 0.0
H2270 H 0.26456 0.30498 0.12146 0.0
H2271 H 0.28499 0.37397 0.1324 0.0
H2272 H 0.37668 0.33635 0.11074 0.0
H2273 H 0.35027 0.39298 0.10001 0.0
H2274 H 0.30317 0.22527 0.09398 0.0
H2275 H 0.30405 0.2495 0.12809 0.0
H2276 H 0.27578 0.38323 0.07981 0.0
H2277 H 0.32012 0.33681 0.07411 0.0
H2278 H 0.29385 0.40496 0.06596 0.0
H2279 H 0.33729 0.35925 0.06037 0.0
H2280 H 0.25001 0.33751 0.0789 0.0
H2281 H 0.23767 0.27502 0.08621 0.0
H2282 H 0.21738 0.33965 0.06871 0.0
H2283 H 0.20514 0.27829 0.07588 0.0
H2284 H 0.27632 0.27759 0.04427 0.0
H2285 H 0.26521 0.34172 0.04094 0.0
H2286 H 0.23602 0.39298 0.10632 0.0
H2287 H 0.20245 0.33839 0.11337 0.0
Li2288 Li 0.42017 0.55834 0.84628 0.0
Li2289 Li 0.45182 0.53947 0.84815 0.0
Li2290 Li 0.43369 0.53641 0.83048 0.0
Li2291 Li 0.42089 0.52185 0.84771 0.0
C2292 C 0.46281 0.57218 0.83698 0.0
N2293 N 0.49928 0.59241 0.83767 0.0
C2294 C 0.46753 0.58459 0.84622 0.0
C2295 C 0.47655 0.57024 0.82804 0.0
C2296 C 0.48607 0.59462 0.84643 0.0
C2297 C 0.49492 0.58056 0.82855 0.0
C2298 C 0.42519 0.53205 0.86889 0.0
C2299 C 0.43222 0.50548 0.88232 0.0
N2300 N 0.4151 0.51033 0.8881 0.0
C2301 C 0.40774 0.53685 0.87498 0.0
C2302 C 0.4376 0.51631 0.8726 0.0
C2303 C 0.40288 0.52566 0.88466 0.0
C2304 C 0.38581 0.57864 0.85399 0.0
N2305 N 0.40493 0.58165 0.85018 0.0
C2306 C 0.40151 0.6173 0.85252 0.0
C2307 C 0.41282 0.6005 0.84923 0.0
C2308 C 0.38174 0.6147 0.85666 0.0
C2309 C 0.37387 0.59501 0.85724 0.0
H2310 H 0.37985 0.56346 0.8545 0.0
H2311 H 0.42792 0.60252 0.84598 0.0
C2312 C 0.49477 0.53698 0.84881 0.0
N2313 N 0.47789 0.54167 0.85482 0.0
C2314 C 0.51383 0.54176 0.85316 0.0
C2315 C 0.4977 0.55523 0.86995 0.0
C2316 C 0.47902 0.55022 0.8653 0.0
C2317 C 0.51544 0.55141 0.86377 0.0
H2318 H 0.49337 0.53034 0.84045 0.0
H2319 H 0.46533 0.55412 0.86979 0.0
C2320 C 0.3917 0.5477 0.83012 0.0
N2321 N 0.36337 0.56727 0.81688 0.0
C2322 C 0.37261 0.53921 0.82853 0.0
C2323 C 0.39637 0.56622 0.82504 0.0
C2324 C 0.35851 0.54932 0.82178 0.0
C2325 C 0.38184 0.57586 0.81837 0.0
C2326 C 0.44354 0.49664 0.83396 0.0
C2327 C 0.42517 0.49243 0.8286 0.0
C2328 C 0.45933 0.48271 0.83328 0.0
C2329 C 0.42291 0.47431 0.82267 0.0
C2330 C 0.45647 0.46475 0.82726 0.0
N2331 N 0.43848 0.46096 0.82213 0.0
C2332 C 0.45503 0.52541 0.81074 0.0
C2333 C 0.42061 0.53261 0.80716 0.0
C2334 C 0.45795 0.51982 0.79939 0.0
N2335 N 0.43659 0.53172 0.8144 0.0
C2336 C 0.42291 0.52747 0.79574 0.0
C2337 C 0.44173 0.52088 0.79174 0.0
H2338 H 0.46739 0.52426 0.81672 0.0
H2339 H 0.40586 0.53669 0.81018 0.0
C2340 C 0.38554 0.50512 0.85594 0.0
N2341 N 0.40508 0.50039 0.85374 0.0
C2342 C 0.37239 0.49053 0.86016 0.0
C2343 C 0.39972 0.46636 0.85977 0.0
C2344 C 0.41246 0.48156 0.8557 0.0
C2345 C 0.3793 0.47072 0.86198 0.0
H2346 H 0.3802 0.52032 0.85444 0.0
H2347 H 0.42816 0.47827 0.85402 0.0
O2348 O 0.44498 0.56175 0.83677 0.0
O2349 O 0.42991 0.5424 0.8592 0.0
O2350 O 0.40544 0.53823 0.83696 0.0
O2351 O 0.44635 0.51439 0.83971 0.0
H2352 H 0.45721 0.58602 0.8533 0.0
H2353 H 0.4731 0.56083 0.82079 0.0
H2354 H 0.49002 0.60406 0.85359 0.0
H2355 H 0.50573 0.57912 0.82171 0.0
H2356 H 0.44159 0.49317 0.88525 0.0
H2357 H 0.39797 0.54897 0.8722 0.0
H2358 H 0.45109 0.51232 0.86791 0.0
H2359 H 0.38936 0.52913 0.88943 0.0
H2360 H 0.40837 0.6321 0.85202 0.0
H2361 H 0.3586 0.59222 0.86012 0.0
H2362 H 0.52711 0.53838 0.84814 0.0
H2363 H 0.49813 0.56296 0.87806 0.0
H2364 H 0.36874 0.52496 0.83247 0.0
H2365 H 0.41105 0.57306 0.82621 0.0
H2366 H 0.34368 0.5429 0.82045 0.0
H2367 H 0.38524 0.59017 0.81437 0.0
H2368 H 0.41276 0.50299 0.82898 0.0
H2369 H 0.47367 0.48579 0.83734 0.0
H2370 H 0.40879 0.47087 0.81848 0.0
H2371 H 0.46857 0.45384 0.82667 0.0
H2372 H 0.47269 0.51472 0.79663 0.0
H2373 H 0.4099 0.52804 0.79018 0.0
H2374 H 0.35697 0.49483 0.86202 0.0
H2375 H 0.40574 0.45132 0.86095 0.0
Li2376 Li 0.20454 0.69821 0.59805 0.0
Li2377 Li 0.19042 0.6656 0.59437 0.0
Li2378 Li 0.22567 0.66747 0.59779 0.0
Li2379 Li 0.21084 0.67969 0.57936 0.0
C2380 C 0.21115 0.68047 0.61891 0.0
N2381 N 0.22628 0.69261 0.63971 0.0
C2382 C 0.20107 0.67533 0.62894 0.0
C2383 C 0.22888 0.69184 0.61948 0.0
C2384 C 0.20896 0.68159 0.63937 0.0
C2385 C 0.23631 0.69781 0.63006 0.0
C2386 C 0.16552 0.69527 0.58523 0.0
C2387 C 0.13509 0.70142 0.57455 0.0
N2388 N 0.12471 0.70362 0.58445 0.0
C2389 C 0.15459 0.69762 0.5953 0.0
C2390 C 0.15575 0.69718 0.57477 0.0
C2391 C 0.13395 0.70181 0.59472 0.0
C2392 C 0.20724 0.74097 0.5993 0.0
N2393 N 0.19997 0.72415 0.60449 0.0
C2394 C 0.18362 0.74415 0.61865 0.0
C2395 C 0.18846 0.7254 0.61403 0.0
C2396 C 0.1906 0.76186 0.6134 0.0
C2397 C 0.20273 0.76011 0.60364 0.0
H2398 H 0.21625 0.73952 0.59167 0.0
H2399 H 0.1826 0.71184 0.61791 0.0
C2400 C 0.16642 0.64 0.60757 0.0
N2401 N 0.16705 0.64946 0.59733 0.0
C2402 C 0.14947 0.62885 0.61073 0.0
C2403 C 0.13421 0.63704 0.59264 0.0
C2404 C 0.1516 0.64781 0.58977 0.0
C2405 C 0.13294 0.62759 0.6033 0.0
H2406 H 0.17904 0.64133 0.61334 0.0
H2407 H 0.15267 0.65504 0.58156 0.0
C2408 C 0.24943 0.69984 0.58735 0.0
N2409 N 0.2881 0.71255 0.58219 0.0
C2410 C 0.25995 0.69111 0.5783 0.0
C2411 C 0.25847 0.71529 0.59365 0.0
C2412 C 0.27951 0.69767 0.57586 0.0
C2413 C 0.27807 0.72143 0.59094 0.0
C2414 C 0.20436 0.633 0.58533 0.0
C2415 C 0.20892 0.61926 0.59397 0.0
C2416 C 0.19104 0.62743 0.57667 0.0
C2417 C 0.20001 0.60015 0.59381 0.0
C2418 C 0.18244 0.60818 0.57681 0.0
N2419 N 0.18706 0.59505 0.58531 0.0
C2420 C 0.2495 0.64681 0.61457 0.0
C2421 C 0.2637 0.64896 0.59615 0.0
C2422 C 0.26587 0.63538 0.61836 0.0
N2423 N 0.24882 0.65359 0.60366 0.0
C2424 C 0.28032 0.63751 0.59956 0.0
C2425 C 0.28151 0.63049 0.61079 0.0
H2426 H 0.23708 0.6496 0.62028 0.0
H2427 H 0.26237 0.65358 0.5874 0.0
C2428 C 0.2184 0.70161 0.55917 0.0
N2429 N 0.21605 0.68284 0.56363 0.0
C2430 C 0.22406 0.70396 0.5478 0.0
C2431 C 0.22432 0.66763 0.54584 0.0
C2432 C 0.21885 0.666 0.55725 0.0
C2433 C 0.22728 0.6868 0.54098 0.0
H2434 H 0.21639 0.71472 0.56453 0.0
H2435 H 0.21727 0.65127 0.56107 0.0
O2436 O 0.20334 0.67472 0.60864 0.0
O2437 O 0.18565 0.69083 0.58558 0.0
O2438 O 0.23009 0.69392 0.58974 0.0
O2439 O 0.21249 0.65197 0.58553 0.0
H2440 H 0.18721 0.66668 0.62866 0.0
H2441 H 0.23691 0.69586 0.61184 0.0
H2442 H 0.20131 0.67773 0.64719 0.0
H2443 H 0.25006 0.70657 0.63061 0.0
H2444 H 0.1273 0.70291 0.56651 0.0
H2445 H 0.16187 0.69578 0.60345 0.0
H2446 H 0.16403 0.69533 0.5669 0.0
H2447 H 0.12526 0.70354 0.60244 0.0
H2448 H 0.1739 0.74474 0.62605 0.0
H2449 H 0.20854 0.77336 0.59936 0.0
H2450 H 0.14902 0.62187 0.61905 0.0
H2451 H 0.12187 0.63617 0.58663 0.0
H2452 H 0.25315 0.67928 0.57326 0.0
H2453 H 0.25043 0.72256 0.60053 0.0
H2454 H 0.28786 0.69093 0.56893 0.0
H2455 H 0.28527 0.73331 0.59578 0.0
H2456 H 0.21905 0.62338 0.6008 0.0
H2457 H 0.18707 0.638 0.57002 0.0
H2458 H 0.20334 0.58939 0.60047 0.0
H2459 H 0.17201 0.60371 0.57021 0.0
H2460 H 0.26588 0.62979 0.62701 0.0
H2461 H 0.29199 0.634 0.59342 0.0
H2462 H 0.22644 0.71903 0.54449 0.0
H2463 H 0.22631 0.65398 0.54091 0.0
Li2464 Li 0.07997 0.5563 0.1551 0.0
Li2465 Li 0.04598 0.54056 0.15116 0.0
Li2466 Li 0.06436 0.53507 0.17012 0.0
Li2467 Li 0.07635 0.5211 0.15275 0.0
C2468 C 0.04656 0.57962 0.16467 0.0
N2469 N 0.03156 0.61825 0.16744 0.0
C2470 C 0.03772 0.58974 0.15551 0.0
C2471 C 0.04745 0.58905 0.17529 0.0
C2472 C 0.03032 0.60929 0.15706 0.0
C2473 C 0.03988 0.60861 0.1765 0.0
C2474 C 0.08026 0.53488 0.13221 0.0
C2475 C 0.08119 0.51475 0.11513 0.0
N2476 N 0.10126 0.51868 0.11409 0.0
C2477 C 0.10087 0.53875 0.13095 0.0
C2478 C 0.0703 0.5228 0.12423 0.0
C2479 C 0.11123 0.53041 0.12174 0.0
C2480 C 0.11552 0.58166 0.15409 0.0
N2481 N 0.09566 0.57979 0.1513 0.0
C2482 C 0.09679 0.61088 0.14098 0.0
C2483 C 0.08636 0.59383 0.14471 0.0
C2484 C 0.1172 0.6134 0.14389 0.0
C2485 C 0.12655 0.59851 0.15056 0.0
H2486 H 0.12306 0.56987 0.15878 0.0
H2487 H 0.07094 0.59154 0.14207 0.0
C2488 C 0.00407 0.54807 0.15118 0.0
N2489 N 0.0205 0.54565 0.14441 0.0
C2490 C 0.98578 0.55464 0.14656 0.0
C2491 C 0.00154 0.55532 0.12803 0.0
C2492 C 0.01954 0.54896 0.13303 0.0
C2493 C 0.98442 0.55871 0.13484 0.0
H2494 H 0.00543 0.54571 0.16025 0.0
H2495 H 0.03295 0.54742 0.12789 0.0
C2496 C 0.10461 0.54344 0.17284 0.0
N2497 N 0.1279 0.56049 0.18983 0.0
C2498 C 0.1223 0.5339 0.17649 0.0
C2499 C 0.09875 0.56159 0.17792 0.0
C2500 C 0.13388 0.54277 0.18506 0.0
C2501 C 0.11073 0.56999 0.18646 0.0
C2502 C 0.04694 0.49544 0.15934 0.0
C2503 C 0.05837 0.48229 0.16603 0.0
C2504 C 0.03252 0.48772 0.15185 0.0
C2505 C 0.05538 0.4615 0.16497 0.0
C2506 C 0.02995 0.46683 0.15106 0.0
N2507 N 0.04136 0.45427 0.15757 0.0
C2508 C 0.04474 0.5386 0.19166 0.0
C2509 C 0.07463 0.51892 0.19122 0.0
C2510 C 0.04249 0.53493 0.2033 0.0
N2511 N 0.06072 0.5307 0.18593 0.0
C2512 C 0.07312 0.5151 0.20283 0.0
C2513 C 0.05693 0.52318 0.20903 0.0
H2514 H 0.03377 0.54772 0.18718 0.0
H2515 H 0.08691 0.51243 0.18641 0.0
C2516 C 0.1101 0.49675 0.14968 0.0
N2517 N 0.0903 0.49799 0.14678 0.0
C2518 C 0.1219 0.4807 0.1459 0.0
C2519 C 0.09288 0.46757 0.1359 0.0
C2520 C 0.08158 0.4839 0.13993 0.0
C2521 C 0.1133 0.46579 0.13896 0.0
H2522 H 0.11684 0.50842 0.15481 0.0
H2523 H 0.06594 0.4854 0.1375 0.0
O2524 O 0.05365 0.56032 0.16337 0.0
O2525 O 0.07 0.54255 0.14132 0.0
O2526 O 0.09284 0.53459 0.16465 0.0
O2527 O 0.04961 0.51582 0.16024 0.0
H2528 H 0.03672 0.58266 0.14726 0.0
H2529 H 0.05386 0.58134 0.18255 0.0
H2530 H 0.02358 0.61733 0.15002 0.0
H2531 H 0.04057 0.61611 0.18466 0.0
H2532 H 0.07372 0.50526 0.10895 0.0
H2533 H 0.10885 0.5479 0.1371 0.0
H2534 H 0.05445 0.51931 0.12519 0.0
H2535 H 0.1272 0.53321 0.12069 0.0
H2536 H 0.08894 0.62194 0.13585 0.0
H2537 H 0.1424 0.59956 0.15275 0.0
H2538 H 0.97313 0.55732 0.15218 0.0
H2539 H 0.00118 0.55798 0.11896 0.0
H2540 H 0.12699 0.51968 0.17283 0.0
H2541 H 0.08526 0.56924 0.17521 0.0
H2542 H 0.14758 0.53553 0.18796 0.0
H2543 H 0.10637 0.58408 0.19041 0.0
H2544 H 0.06956 0.48808 0.17188 0.0
H2545 H 0.0235 0.49776 0.14666 0.0
H2546 H 0.06422 0.45111 0.17003 0.0
H2547 H 0.01892 0.46061 0.14526 0.0
H2548 H 0.02981 0.54143 0.20781 0.0
H2549 H 0.08437 0.50568 0.2069 0.0
H2550 H 0.13771 0.48019 0.14822 0.0
H2551 H 0.0857 0.45642 0.13052 0.0
Li2552 Li 0.22513 0.32713 0.90298 0.0
Li2553 Li 0.21119 0.31191 0.91999 0.0
Li2554 Li 0.20526 0.29556 0.9013 0.0
Li2555 Li 0.18837 0.32703 0.9068 0.0
C2556 C 0.24624 0.28881 0.90437 0.0
N2557 N 0.27551 0.26537 0.89412 0.0
C2558 C 0.25727 0.27491 0.91079 0.0
C2559 C 0.25005 0.29077 0.89275 0.0
C2560 C 0.27202 0.2632 0.90544 0.0
C2561 C 0.26492 0.2788 0.88772 0.0
C2562 C 0.21543 0.3506 0.92497 0.0
C2563 C 0.2078 0.3621 0.94394 0.0
N2564 N 0.22695 0.36927 0.94494 0.0
C2565 C 0.235 0.35822 0.92616 0.0
C2566 C 0.20166 0.35269 0.93389 0.0
C2567 C 0.24054 0.36757 0.93633 0.0
C2568 C 0.24187 0.3609 0.89232 0.0
N2569 N 0.24688 0.34306 0.89724 0.0
C2570 C 0.28203 0.35068 0.89533 0.0
C2571 C 0.26652 0.33784 0.89891 0.0
C2572 C 0.27725 0.36913 0.89006 0.0
C2573 C 0.2568 0.37403 0.88849 0.0
H2574 H 0.22624 0.36524 0.89165 0.0
H2575 H 0.27021 0.32402 0.90332 0.0
C2576 C 0.20391 0.29912 0.94282 0.0
N2577 N 0.21763 0.307 0.93548 0.0
C2578 C 0.20891 0.29645 0.95427 0.0
C2579 C 0.24208 0.30991 0.95031 0.0
C2580 C 0.23655 0.31198 0.93893 0.0
C2581 C 0.22817 0.30213 0.95821 0.0
H2582 H 0.18907 0.29497 0.9398 0.0
H2583 H 0.24723 0.31798 0.93286 0.0
C2584 C 0.20298 0.32977 0.88213 0.0
N2585 N 0.20348 0.34864 0.86117 0.0
C2586 C 0.19492 0.34915 0.88089 0.0
C2587 C 0.21108 0.3199 0.87267 0.0
C2588 C 0.19538 0.35846 0.87024 0.0
C2589 C 0.21125 0.32972 0.86216 0.0
C2590 C 0.16553 0.29896 0.91541 0.0
C2591 C 0.15381 0.28758 0.9079 0.0
C2592 C 0.15614 0.3099 0.92409 0.0
C2593 C 0.13283 0.28756 0.9091 0.0
C2594 C 0.13512 0.30951 0.92499 0.0
N2595 N 0.124 0.29845 0.91754 0.0
C2596 C 0.20764 0.25314 0.89694 0.0
C2597 C 0.18945 0.27287 0.88361 0.0
C2598 C 0.20192 0.23538 0.89135 0.0
N2599 N 0.2011 0.27133 0.89307 0.0
C2600 C 0.18339 0.25559 0.87779 0.0
C2601 C 0.18924 0.23649 0.88179 0.0
H2602 H 0.21665 0.25237 0.9046 0.0
H2603 H 0.18415 0.2875 0.88086 0.0
C2604 C 0.15907 0.35839 0.91001 0.0
N2605 N 0.16404 0.34147 0.90411 0.0
C2606 C 0.14191 0.36948 0.90701 0.0
C2607 C 0.13536 0.34536 0.89203 0.0
C2608 C 0.1525 0.33471 0.89535 0.0
C2609 C 0.13002 0.36315 0.89778 0.0
H2610 H 0.16868 0.36355 0.91684 0.0
H2611 H 0.15696 0.32128 0.89077 0.0
O2612 O 0.23153 0.30012 0.90944 0.0
O2613 O 0.20983 0.34107 0.91515 0.0
O2614 O 0.20237 0.32024 0.89246 0.0
O2615 O 0.18606 0.2996 0.9142 0.0
H2616 H 0.25441 0.27317 0.91979 0.0
H2617 H 0.24171 0.30153 0.88771 0.0
H2618 H 0.28069 0.25237 0.9103 0.0
H2619 H 0.26805 0.28019 0.87873 0.0
H2620 H 0.19734 0.36366 0.95094 0.0
H2621 H 0.24586 0.35677 0.91935 0.0
H2622 H 0.18646 0.34693 0.93311 0.0
H2623 H 0.25567 0.37342 0.9374 0.0
H2624 H 0.29754 0.34644 0.89698 0.0
H2625 H 0.25228 0.38795 0.8844 0.0
H2626 H 0.19779 0.28999 0.95994 0.0
H2627 H 0.25697 0.31483 0.95289 0.0
H2628 H 0.18866 0.3571 0.88809 0.0
H2629 H 0.21705 0.30476 0.87338 0.0
H2630 H 0.18933 0.37351 0.86919 0.0
H2631 H 0.21751 0.32227 0.85478 0.0
H2632 H 0.1608 0.27896 0.90117 0.0
H2633 H 0.16498 0.31875 0.92998 0.0
H2634 H 0.12356 0.27891 0.9033 0.0
H2635 H 0.12766 0.31803 0.93162 0.0
H2636 H 0.2066 0.22095 0.89478 0.0
H2637 H 0.17381 0.25716 0.87038 0.0
H2638 H 0.13838 0.3832 0.9116 0.0
H2639 H 0.12646 0.33983 0.88496 0.0
Li2640 Li 0.43598 0.46229 0.67085 0.0
Li2641 Li 0.42264 0.47612 0.65386 0.0
Li2642 Li 0.42138 0.44002 0.65702 0.0
Li2643 Li 0.45405 0.45693 0.65221 0.0
C2644 C 0.39819 0.4646 0.67586 0.0
N2645 N 0.38082 0.47158 0.69686 0.0
C2646 C 0.39153 0.48396 0.67878 0.0
C2647 C 0.39599 0.44882 0.68364 0.0
C2648 C 0.38276 0.48717 0.68942 0.0
C2649 C 0.3872 0.45265 0.69422 0.0
C2650 C 0.45373 0.50182 0.65747 0.0
C2651 C 0.47329 0.52536 0.64635 0.0
N2652 N 0.46275 0.54092 0.651 0.0
C2653 C 0.44312 0.51808 0.66215 0.0
C2654 C 0.46897 0.5055 0.64952 0.0
C2655 C 0.44789 0.53772 0.65876 0.0
C2656 C 0.44652 0.45296 0.69408 0.0
N2657 N 0.44027 0.46748 0.6867 0.0
C2658 C 0.43719 0.49135 0.70181 0.0
C2659 C 0.43608 0.48649 0.69032 0.0
C2660 C 0.44304 0.4766 0.70968 0.0
C2661 C 0.44812 0.45725 0.70571 0.0
H2662 H 0.44996 0.43799 0.69099 0.0
H2663 H 0.43128 0.49777 0.68432 0.0
C2664 C 0.387 0.49722 0.64942 0.0
N2665 N 0.40711 0.4976 0.64716 0.0
C2666 C 0.37435 0.51229 0.64523 0.0
C2667 C 0.40307 0.52735 0.63585 0.0
C2668 C 0.41518 0.51193 0.64022 0.0
C2669 C 0.3824 0.52783 0.6385 0.0
H2670 H 0.38072 0.48513 0.65446 0.0
H2671 H 0.43101 0.51145 0.63806 0.0
C2672 C 0.44957 0.41654 0.6651 0.0
N2673 N 0.4512 0.37485 0.66533 0.0
C2674 C 0.46079 0.40621 0.65689 0.0
C2675 C 0.43929 0.40565 0.67347 0.0
C2676 C 0.46141 0.38513 0.65714 0.0
C2677 C 0.44026 0.38459 0.67342 0.0
C2678 C 0.41872 0.45986 0.63363 0.0
C2679 C 0.39842 0.45435 0.63271 0.0
C2680 C 0.4275 0.47192 0.62523 0.0
C2681 C 0.38723 0.46099 0.62337 0.0
C2682 C 0.4158 0.47825 0.61602 0.0
N2683 N 0.39608 0.47271 0.61529 0.0
C2684 C 0.38972 0.41041 0.65918 0.0
C2685 C 0.41386 0.40513 0.64461 0.0
C2686 C 0.37903 0.39323 0.65578 0.0
N2687 N 0.40682 0.41594 0.65359 0.0
C2688 C 0.40362 0.38797 0.6409 0.0
C2689 C 0.38587 0.3819 0.64645 0.0
H2690 H 0.38411 0.41954 0.66608 0.0
H2691 H 0.42733 0.41007 0.64022 0.0
C2692 C 0.49629 0.45211 0.65119 0.0
N2693 N 0.47916 0.45272 0.64485 0.0
C2694 C 0.51467 0.44693 0.64616 0.0
C2695 C 0.49747 0.44369 0.62813 0.0
C2696 C 0.47941 0.44872 0.63354 0.0
C2697 C 0.51541 0.44237 0.63448 0.0
H2698 H 0.49552 0.45504 0.66023 0.0
H2699 H 0.4655 0.44887 0.62876 0.0
O2700 O 0.40719 0.46121 0.66555 0.0
O2701 O 0.44955 0.48246 0.6608 0.0
O2702 O 0.44835 0.43715 0.66482 0.0
O2703 O 0.42974 0.45398 0.64289 0.0
H2704 H 0.3935 0.49651 0.67301 0.0
H2705 H 0.40131 0.43383 0.68163 0.0
H2706 H 0.37766 0.50209 0.69181 0.0
H2707 H 0.38554 0.44058 0.70034 0.0
H2708 H 0.48503 0.5284 0.64019 0.0
H2709 H 0.43095 0.5156 0.6681 0.0
H2710 H 0.47739 0.49318 0.64581 0.0
H2711 H 0.43968 0.5504 0.66224 0.0
H2712 H 0.43342 0.50652 0.70451 0.0
H2713 H 0.45271 0.44548 0.71155 0.0
H2714 H 0.35839 0.51167 0.64718 0.0
H2715 H 0.40988 0.53894 0.63061 0.0
H2716 H 0.46875 0.41432 0.6503 0.0
H2717 H 0.43052 0.41336 0.67988 0.0
H2718 H 0.46994 0.37695 0.6508 0.0
H2719 H 0.43228 0.37598 0.67982 0.0
H2720 H 0.39129 0.44528 0.63921 0.0
H2721 H 0.44307 0.4767 0.62593 0.0
H2722 H 0.37148 0.45691 0.62257 0.0
H2723 H 0.42237 0.48769 0.60949 0.0
H2724 H 0.36526 0.38921 0.66019 0.0
H2725 H 0.40952 0.37957 0.63374 0.0
H2726 H 0.52799 0.44578 0.65145 0.0
H2727 H 0.49728 0.44058 0.6191 0.0
Li2728 Li 0.27459 0.67307 0.40217 0.0
Li2729 Li 0.28748 0.68668 0.42008 0.0
Li2730 Li 0.29239 0.70475 0.40223 0.0
Li2731 Li 0.31091 0.67365 0.40625 0.0
C2732 C 0.25652 0.71585 0.40885 0.0
N2733 N 0.23766 0.75276 0.40639 0.0
C2734 C 0.25678 0.72979 0.41776 0.0
C2735 C 0.24658 0.72059 0.39873 0.0
C2736 C 0.24717 0.7484 0.41634 0.0
C2737 C 0.23717 0.73936 0.39764 0.0
C2738 C 0.28451 0.64759 0.42353 0.0
C2739 C 0.29223 0.63484 0.44223 0.0
N2740 N 0.27335 0.62685 0.44291 0.0
C2741 C 0.26522 0.63918 0.42439 0.0
C2742 C 0.29818 0.64532 0.43249 0.0
C2743 C 0.25986 0.62877 0.43426 0.0
C2744 C 0.25864 0.63908 0.39124 0.0
N2745 N 0.25357 0.65715 0.39587 0.0
C2746 C 0.21848 0.65006 0.39338 0.0
C2747 C 0.23398 0.66288 0.39697 0.0
C2748 C 0.22324 0.63121 0.38855 0.0
C2749 C 0.24371 0.62601 0.38732 0.0
H2750 H 0.27431 0.63463 0.3908 0.0
H2751 H 0.23037 0.67712 0.40098 0.0
C2752 C 0.29466 0.69667 0.44334 0.0
N2753 N 0.28099 0.68956 0.43572 0.0
C2754 C 0.28955 0.69822 0.45483 0.0
C2755 C 0.25635 0.68533 0.45034 0.0
C2756 C 0.26204 0.68421 0.43895 0.0
C2757 C 0.27019 0.69237 0.45849 0.0
H2758 H 0.30951 0.70115 0.4405 0.0
H2759 H 0.25143 0.67881 0.43266 0.0
C2760 C 0.29246 0.67284 0.38193 0.0
N2761 N 0.28233 0.65401 0.36176 0.0
C2762 C 0.30327 0.65594 0.37825 0.0
C2763 C 0.27656 0.68023 0.37531 0.0
C2764 C 0.2979 0.64662 0.36804 0.0
C2765 C 0.27165 0.67048 0.36516 0.0
C2766 C 0.33255 0.70198 0.41566 0.0
C2767 C 0.34316 0.71432 0.4081 0.0
C2768 C 0.34304 0.69127 0.42402 0.0
C2769 C 0.36414 0.71568 0.40901 0.0
C2770 C 0.36402 0.693 0.42463 0.0
N2771 N 0.37405 0.70506 0.41718 0.0
C2772 C 0.29873 0.74652 0.40296 0.0
C2773 C 0.29611 0.73331 0.3843 0.0
C2774 C 0.3041 0.76543 0.39871 0.0
N2775 N 0.29523 0.73088 0.39575 0.0
C2776 C 0.30135 0.75201 0.37966 0.0
C2777 C 0.30594 0.76822 0.38692 0.0
H2778 H 0.29824 0.74405 0.41204 0.0
H2779 H 0.29368 0.72052 0.37877 0.0
C2780 C 0.34004 0.64233 0.40901 0.0
N2781 N 0.33569 0.65992 0.40359 0.0
C2782 C 0.3578 0.63187 0.40647 0.0
C2783 C 0.36625 0.65791 0.39289 0.0
C2784 C 0.34834 0.66781 0.39567 0.0
C2785 C 0.37113 0.6396 0.39826 0.0
H2786 H 0.32958 0.63625 0.41517 0.0
H2787 H 0.34428 0.68162 0.39133 0.0
O2788 O 0.26615 0.69772 0.40999 0.0
O2789 O 0.2899 0.65822 0.41404 0.0
O2790 O 0.29737 0.68209 0.39195 0.0
O2791 O 0.31204 0.70012 0.41477 0.0
H2792 H 0.26447 0.72635 0.42564 0.0
H2793 H 0.24622 0.70993 0.39177 0.0
H2794 H 0.24731 0.75939 0.42314 0.0
H2795 H 0.22948 0.74328 0.38983 0.0
H2796 H 0.3026 0.63311 0.44927 0.0
H2797 H 0.25442 0.64083 0.41756 0.0
H2798 H 0.31312 0.65183 0.43199 0.0
H2799 H 0.24495 0.62226 0.43507 0.0
H2800 H 0.20298 0.65463 0.39472 0.0
H2801 H 0.24826 0.61188 0.38348 0.0
H2802 H 0.30059 0.70408 0.46075 0.0
H2803 H 0.24137 0.68037 0.45274 0.0
H2804 H 0.31552 0.64991 0.38328 0.0
H2805 H 0.268 0.69325 0.37804 0.0
H2806 H 0.30608 0.63347 0.36512 0.0
H2807 H 0.25931 0.67597 0.35999 0.0
H2808 H 0.33535 0.72256 0.4015 0.0
H2809 H 0.33509 0.68153 0.42988 0.0
H2810 H 0.37256 0.7251 0.40318 0.0
H2811 H 0.37234 0.6847 0.43101 0.0
H2812 H 0.30737 0.77758 0.40458 0.0
H2813 H 0.30286 0.75344 0.37053 0.0
H2814 H 0.36103 0.61788 0.41087 0.0
H2815 H 0.37587 0.66424 0.38636 0.0
H2816 H 0.46638 0.99936 0.27869 0.0
H2817 H 0.40849 0.97075 0.27337 0.0
H2818 H 0.46777 0.0082 0.25865 0.0
H2819 H 0.40915 0.98095 0.2536 0.0
H2820 H 0.42283 0.98566 0.21625 0.0
H2821 H 0.42408 0.9746 0.23598 0.0
H2822 H 0.45366 0.03046 0.24522 0.0
H2823 H 0.4531 0.04101 0.22535 0.0
C2824 C 0.45396 0.99488 0.27326 0.0
C2825 C 0.4373 0.98434 0.27771 0.0
C2826 C 0.45461 0.00026 0.26177 0.0
C2827 C 0.43854 0.9954 0.25445 0.0
C2828 C 0.42196 0.98473 0.2589 0.0
C2829 C 0.42143 0.97915 0.27033 0.0
C2830 C 0.4296 0.99552 0.22253 0.0
C2831 C 0.43777 0.01422 0.21931 0.0
C2832 C 0.43026 0.98925 0.23385 0.0
C2833 C 0.43882 0.00167 0.24228 0.0
C2834 C 0.44721 0.02033 0.23899 0.0
C2835 C 0.44681 0.02645 0.22761 0.0
H2836 H 0.25587 0.21458 0.53029 0.0
H2837 H 0.28064 0.15486 0.52512 0.0
H2838 H 0.24528 0.21548 0.51042 0.0
H2839 H 0.26929 0.1556 0.50544 0.0
H2840 H 0.22277 0.15591 0.47615 0.0
H2841 H 0.23445 0.15638 0.49577 0.0
H2842 H 0.26146 0.21486 0.49036 0.0
H2843 H 0.25053 0.21418 0.47055 0.0
C2844 C 0.25928 0.20174 0.52493 0.0
C2845 C 0.26905 0.18459 0.52938 0.0
C2846 C 0.25309 0.20225 0.51356 0.0
C2847 C 0.25631 0.18554 0.50645 0.0
C2848 C 0.26633 0.16856 0.51081 0.0
C2849 C 0.27276 0.16814 0.52211 0.0
C2850 C 0.2314 0.1688 0.47906 0.0
C2851 C 0.23581 0.18494 0.47168 0.0
C2852 C 0.23802 0.16907 0.49032 0.0
C2853 C 0.24894 0.1856 0.49455 0.0
C2854 C 0.25294 0.20198 0.48732 0.0
C2855 C 0.24656 0.2016 0.47599 0.0
H2856 H 0.07264 0.03968 0.77156 0.0
H2857 H 0.04833 0.9814 0.78079 0.0
H2858 H 0.07174 0.03005 0.75158 0.0
H2859 H 0.04769 0.97171 0.76079 0.0
H2860 H 0.0725 0.95493 0.72524 0.0
H2861 H 0.07177 0.96427 0.74529 0.0
H2862 H 0.04712 0.02253 0.73642 0.0
H2863 H 0.04761 0.01315 0.7164 0.0
C2864 C 0.0669 0.0249 0.76933 0.0
C2865 C 0.06054 0.01133 0.7778 0.0
C2866 C 0.06642 0.01937 0.75787 0.0
C2867 C 0.05964 0.00011 0.75461 0.0
C2868 C 0.05324 0.98655 0.76305 0.0
C2869 C 0.05364 0.99211 0.77451 0.0
C2870 C 0.06665 0.96963 0.72757 0.0
C2871 C 0.06017 0.98331 0.71919 0.0
C2872 C 0.06627 0.97499 0.73906 0.0
C2873 C 0.05946 0.99417 0.74244 0.0
C2874 C 0.05276 0.00776 0.73408 0.0
C2875 C 0.05306 0.00238 0.7226 0.0
H2876 H 0.2542 0.78389 0.97042 0.0
H2877 H 0.28689 0.83915 0.97702 0.0
H2878 H 0.24547 0.78155 0.99042 0.0
H2879 H 0.27673 0.83772 0.99678 0.0
H2880 H 0.27105 0.82211 0.03366 0.0
H2881 H 0.2819 0.8214 0.01402 0.0
H2882 H 0.22443 0.79581 0.00423 0.0
H2883 H 0.21424 0.79486 0.02405 0.0
C2884 C 0.2596 0.79553 0.97611 0.0
C2885 C 0.27128 0.81173 0.97203 0.0
C2886 C 0.25428 0.79436 0.98759 0.0
C2887 C 0.26026 0.80949 0.99528 0.0
C2888 C 0.27205 0.82561 0.9912 0.0
C2889 C 0.27762 0.82662 0.97977 0.0
C2890 C 0.26084 0.81589 0.02739 0.0
C2891 C 0.24174 0.80848 0.03053 0.0
C2892 C 0.26696 0.81583 0.01603 0.0
C2893 C 0.25403 0.80869 0.00745 0.0
C2894 C 0.23495 0.8012 0.01059 0.0
C2895 C 0.22894 0.80097 0.02198 0.0
H2896 H 0.55189 0.01985 0.7817 0.0
H2897 H 0.56629 0.95896 0.77119 0.0
H2898 H 0.55088 0.03035 0.76187 0.0
H2899 H 0.56443 0.96945 0.75135 0.0
H2900 H 0.53933 0.99355 0.71714 0.0
H2901 H 0.53802 0.98334 0.73715 0.0
H2902 H 0.57743 0.03284 0.74595 0.0
H2903 H 0.57881 0.04297 0.72597 0.0
C2904 C 0.55492 0.00869 0.7752 0.0
C2905 C 0.55935 0.98855 0.77811 0.0
C2906 C 0.5542 0.01472 0.76384 0.0
C2907 C 0.55759 0.00071 0.7551 0.0
C2908 C 0.56155 0.98051 0.75793 0.0
C2909 C 0.56254 0.97451 0.76931 0.0
C2910 C 0.54751 0.00235 0.72339 0.0
C2911 C 0.55916 0.01904 0.72005 0.0
C2912 C 0.54689 0.99642 0.73479 0.0
C2913 C 0.55764 0.0073 0.74307 0.0
C2914 C 0.56889 0.02428 0.73975 0.0
C2915 C 0.56977 0.03 0.72834 0.0
H2916 H 0.70217 0.81918 0.47961 0.0
H2917 H 0.75252 0.78249 0.46888 0.0
H2918 H 0.7136 0.81674 0.49932 0.0
H2919 H 0.76404 0.78009 0.48864 0.0
H2920 H 0.78958 0.80815 0.52265 0.0
H2921 H 0.77792 0.80596 0.50302 0.0
H2922 H 0.71832 0.78993 0.51472 0.0
H2923 H 0.73001 0.79135 0.53433 0.0
C2924 C 0.7156 0.81047 0.4815 0.0
C2925 C 0.72647 0.80102 0.47275 0.0
C2926 C 0.72207 0.80898 0.49277 0.0
C2927 C 0.73972 0.79825 0.49549 0.0
C2928 C 0.75045 0.78854 0.48676 0.0
C2929 C 0.74378 0.78977 0.47549 0.0
C2930 C 0.77409 0.80375 0.52107 0.0
C2931 C 0.76072 0.8001 0.53013 0.0
C2932 C 0.76742 0.80255 0.50981 0.0
C2933 C 0.7472 0.79789 0.50736 0.0
C2934 C 0.73393 0.79382 0.51637 0.0
C2935 C 0.74063 0.79476 0.52761 0.0
H2936 H 0.95633 0.04173 0.2735 0.0
H2937 H 0.93227 0.98293 0.28173 0.0
H2938 H 0.95853 0.03195 0.2535 0.0
H2939 H 0.93401 0.97333 0.26175 0.0
H2940 H 0.95563 0.95639 0.22634 0.0
H2941 H 0.95813 0.96618 0.24632 0.0
H2942 H 0.93418 0.02505 0.23811 0.0
H2943 H 0.93216 0.01544 0.21814 0.0
C2944 C 0.95167 0.02668 0.27105 0.0
C2945 C 0.944 0.01315 0.27917 0.0
C2946 C 0.95276 0.02114 0.25959 0.0
C2947 C 0.94637 0.0019 0.25604 0.0
C2948 C 0.93921 0.9882 0.26422 0.0
C2949 C 0.938 0.99378 0.27565 0.0
C2950 C 0.95117 0.9715 0.22879 0.0
C2951 C 0.94358 0.9851 0.22068 0.0
C2952 C 0.95244 0.97705 0.24024 0.0
C2953 C 0.94629 0.99637 0.2438 0.0
C2954 C 0.9392 0.01012 0.23563 0.0
C2955 C 0.93782 0.00454 0.22421 0.0
H2956 H 0.73602 0.17343 0.96698 0.0
H2957 H 0.78416 0.2157 0.97407 0.0
H2958 H 0.72561 0.17483 0.9868 0.0
H2959 H 0.77304 0.21764 0.99387 0.0
H2960 H 0.73229 0.22721 0.0262 0.0
H2961 H 0.74096 0.22832 0.00589 0.0
H2962 H 0.74378 0.16322 0.00523 0.0
H2963 H 0.7354 0.16215 0.02545 0.0
C2964 C 0.74444 0.18299 0.97274 0.0
C2965 C 0.7612 0.19417 0.96892 0.0
C2966 C 0.73834 0.18388 0.98408 0.0
C2967 C 0.7486 0.19623 0.99185 0.0
C2968 C 0.76481 0.20808 0.98801 0.0
C2969 C 0.77113 0.20699 0.97667 0.0
C2970 C 0.73465 0.21319 0.02165 0.0
C2971 C 0.73323 0.1946 0.02734 0.0
C2972 C 0.73972 0.21382 0.0101 0.0
C2973 C 0.74301 0.19585 0.00403 0.0
C2974 C 0.74118 0.17728 0.0097 0.0
C2975 C 0.7365 0.17667 0.02125 0.0
H2976 H 0.92684 0.48518 0.71964 0.0
H2977 H 0.95438 0.54262 0.72736 0.0
H2978 H 0.92919 0.4755 0.73965 0.0
H2979 H 0.95662 0.53298 0.74745 0.0
H2980 H 0.92793 0.51637 0.78289 0.0
H2981 H 0.92965 0.52607 0.76286 0.0
H2982 H 0.95668 0.46855 0.75475 0.0
H2983 H 0.95507 0.45887 0.77485 0.0
C2984 C 0.93343 0.4957 0.72563 0.0
C2985 C 0.94034 0.51468 0.722 0.0
C2986 C 0.93492 0.4901 0.73705 0.0
C2987 C 0.94308 0.5035 0.74507 0.0
C2988 C 0.95019 0.52242 0.74142 0.0
C2989 C 0.94901 0.52788 0.72996 0.0
C2990 C 0.93431 0.50585 0.77682 0.0
C2991 C 0.94128 0.48684 0.78037 0.0
C2992 C 0.93544 0.51146 0.76539 0.0
C2993 C 0.94329 0.49805 0.75728 0.0
C2994 C 0.95048 0.47912 0.76085 0.0
C2995 C 0.94966 0.47363 0.77232 0.0
H2996 H 0.7469 0.65637 0.02883 0.0
H2997 H 0.77476 0.71503 0.02517 0.0
H2998 H 0.73748 0.65691 0.00884 0.0
H2999 H 0.76484 0.71569 0.00518 0.0
H3000 H 0.72376 0.7169 0.97315 0.0
H3001 H 0.73315 0.71696 0.99328 0.0
H3002 H 0.75511 0.65585 0.99006 0.0
H3003 H 0.74552 0.6557 0.97003 0.0
C3004 C 0.75118 0.66931 0.02376 0.0
C3005 C 0.76174 0.68559 0.02862 0.0
C3006 C 0.7457 0.66963 0.0123 0.0
C3007 C 0.75048 0.68631 0.00544 0.0
C3008 C 0.76078 0.70272 0.0103 0.0
C3009 C 0.76642 0.70234 0.02175 0.0
C3010 C 0.7305 0.70347 0.97678 0.0
C3011 C 0.73392 0.6863 0.97003 0.0
C3012 C 0.73602 0.70356 0.98826 0.0
C3013 C 0.74485 0.68641 0.99323 0.0
C3014 C 0.74819 0.66924 0.98648 0.0
C3015 C 0.74286 0.66921 0.975 0.0
H3016 H 0.57099 0.48503 0.28326 0.0
H3017 H 0.5447 0.5427 0.27473 0.0
H3018 H 0.56889 0.47472 0.26333 0.0
H3019 H 0.54274 0.53242 0.25473 0.0
H3020 H 0.57243 0.51416 0.21978 0.0
H3021 H 0.57021 0.52451 0.23969 0.0
H3022 H 0.5416 0.46786 0.24802 0.0
H3023 H 0.54369 0.45755 0.22803 0.0
C3024 C 0.56471 0.49545 0.2771 0.0
C3025 C 0.5581 0.51468 0.28049 0.0
C3026 C 0.56337 0.4895 0.26574 0.0
C3027 C 0.55567 0.50279 0.25752 0.0
C3028 C 0.54881 0.52194 0.26092 0.0
C3029 C 0.54984 0.52777 0.27233 0.0
C3030 C 0.5656 0.50398 0.22587 0.0
C3031 C 0.55832 0.48503 0.22242 0.0
C3032 C 0.56419 0.50996 0.23722 0.0
C3033 C 0.55574 0.49697 0.24537 0.0
C3034 C 0.54825 0.4781 0.2419 0.0
C3035 C 0.54936 0.47225 0.23049 0.0
H3036 H 0.76759 0.33057 0.53087 0.0
H3037 H 0.71279 0.29867 0.5225 0.0
H3038 H 0.77815 0.32905 0.51106 0.0
H3039 H 0.72283 0.29782 0.50255 0.0
H3040 H 0.75361 0.28445 0.46909 0.0
H3041 H 0.74524 0.28365 0.48921 0.0
H3042 H 0.77092 0.34321 0.4933 0.0
H3043 H 0.78066 0.34334 0.47344 0.0
C3044 C 0.75773 0.32339 0.52473 0.0
C3045 C 0.73935 0.31481 0.52818 0.0
C3046 C 0.76371 0.32258 0.51337 0.0
C3047 C 0.7513 0.31343 0.50513 0.0
C3048 C 0.73295 0.3047 0.50865 0.0
C3049 C 0.72711 0.30527 0.52006 0.0
C3050 C 0.75784 0.29722 0.47432 0.0
C3051 C 0.76782 0.31397 0.46959 0.0
C3052 C 0.75273 0.29689 0.48585 0.0
C3053 C 0.75729 0.3134 0.49292 0.0
C3054 C 0.76738 0.33008 0.48819 0.0
C3055 C 0.7727 0.3303 0.47671 0.0
H3056 H 0.0393 0.46525 0.2742 0.0
H3057 H 0.06916 0.52133 0.28259 0.0
H3058 H 0.03736 0.47578 0.25432 0.0
H3059 H 0.06763 0.53152 0.26272 0.0
H3060 H 0.08658 0.52665 0.2249 0.0
H3061 H 0.08477 0.5185 0.24509 0.0
H3062 H 0.0219 0.50262 0.24132 0.0
H3063 H 0.02376 0.51073 0.22101 0.0
C3064 C 0.0452 0.47991 0.27186 0.0
C3065 C 0.05463 0.49231 0.27999 0.0
C3066 C 0.0441 0.48592 0.26047 0.0
C3067 C 0.05252 0.50438 0.25697 0.0
C3068 C 0.06132 0.51705 0.26515 0.0
C3069 C 0.06227 0.51115 0.27652 0.0
C3070 C 0.07236 0.52146 0.22839 0.0
C3071 C 0.05532 0.51927 0.2214 0.0
C3072 C 0.07128 0.51695 0.23995 0.0
C3073 C 0.05318 0.50994 0.24477 0.0
C3074 C 0.03606 0.50789 0.23781 0.0
C3075 C 0.03708 0.51267 0.22623 0.0
H3076 H 0.23947 0.32907 0.0297 0.0
H3077 H 0.28437 0.2825 0.02488 0.0
H3078 H 0.22953 0.32604 0.01001 0.0
H3079 H 0.27318 0.27823 0.00533 0.0
H3080 H 0.26509 0.29307 0.96762 0.0
H3081 H 0.27458 0.2938 0.98752 0.0
H3082 H 0.21268 0.30653 0.99669 0.0
H3083 H 0.20357 0.30761 0.97675 0.0
C3084 C 0.24724 0.31812 0.02446 0.0
C3085 C 0.26299 0.30626 0.02891 0.0
C3086 C 0.24122 0.31609 0.01316 0.0
C3087 C 0.25047 0.30185 0.00599 0.0
C3088 C 0.26588 0.28959 0.01051 0.0
C3089 C 0.27212 0.29184 0.0218 0.0
C3090 C 0.25352 0.29629 0.97386 0.0
C3091 C 0.23358 0.30055 0.97048 0.0
C3092 C 0.25891 0.29635 0.98534 0.0
C3093 C 0.24446 0.30036 0.9938 0.0
C3094 C 0.22436 0.30381 0.99045 0.0
C3095 C 0.21903 0.30408 0.97896 0.0
H3096 H 0.4596 0.48664 0.78347 0.0
H3097 H 0.42882 0.54092 0.77292 0.0
H3098 H 0.4604 0.47498 0.76375 0.0
H3099 H 0.43006 0.52967 0.75324 0.0
H3100 H 0.41343 0.49487 0.72184 0.0
H3101 H 0.41414 0.50512 0.74168 0.0
H3102 H 0.47418 0.48024 0.74507 0.0
H3103 H 0.4731 0.46944 0.72517 0.0
C3104 C 0.45332 0.49622 0.77689 0.0
C3105 C 0.444 0.5146 0.77972 0.0
C3106 C 0.45378 0.48956 0.7656 0.0
C3107 C 0.44505 0.50125 0.7569 0.0
C3108 C 0.43644 0.52 0.75974 0.0
C3109 C 0.43582 0.52653 0.771 0.0
C3110 C 0.42676 0.49158 0.72684 0.0
C3111 C 0.44328 0.48153 0.72196 0.0
C3112 C 0.42725 0.49756 0.7382 0.0
C3113 C 0.44436 0.49384 0.74496 0.0
C3114 C 0.46071 0.48327 0.74015 0.0
C3115 C 0.46013 0.47709 0.72876 0.0
H3116 H 0.21598 0.71515 0.52516 0.0
H3117 H 0.25433 0.66296 0.5296 0.0
H3118 H 0.22734 0.71816 0.50554 0.0
H3119 H 0.26464 0.66518 0.50986 0.0
H3120 H 0.29383 0.68385 0.47702 0.0
H3121 H 0.28426 0.68431 0.49696 0.0
H3122 H 0.2237 0.70201 0.48762 0.0
H3123 H 0.23363 0.70284 0.46774 0.0
C3124 C 0.22684 0.70433 0.52198 0.0
C3125 C 0.23415 0.68876 0.52898 0.0
C3126 C 0.23317 0.7059 0.51067 0.0
C3127 C 0.24688 0.69188 0.50607 0.0
C3128 C 0.25428 0.67642 0.51312 0.0
C3129 C 0.24808 0.67494 0.52442 0.0
C3130 C 0.27858 0.68822 0.47921 0.0
C3131 C 0.2645 0.69324 0.47072 0.0
C3132 C 0.27299 0.6882 0.49067 0.0
C3133 C 0.25314 0.69303 0.49393 0.0
C3134 C 0.23916 0.69839 0.48546 0.0
C3135 C 0.24479 0.69857 0.47401 0.0
H3136 H 0.39383 0.92604 0.13844 0.0
H3137 H 0.358 0.97141 0.12155 0.0
H3138 H 0.37058 0.89989 0.13183 0.0
H3139 H 0.33441 0.94563 0.1153 0.0
H3140 H 0.30298 0.89507 0.09788 0.0
H3141 H 0.32956 0.91841 0.10298 0.0
H3142 H 0.33764 0.88728 0.13494 0.0
H3143 H 0.31209 0.86279 0.12941 0.0
C3144 C 0.38096 0.93038 0.13331 0.0
C3145 C 0.37777 0.95071 0.13044 0.0
C3146 C 0.36757 0.91544 0.12958 0.0
C3147 C 0.35056 0.92058 0.12301 0.0
C3148 C 0.34754 0.94097 0.12011 0.0
C3149 C 0.36104 0.95581 0.12371 0.0
C3150 C 0.31072 0.8928 0.10588 0.0
C3151 C 0.30528 0.87692 0.11321 0.0
C3152 C 0.32579 0.90648 0.10891 0.0
C3153 C 0.33565 0.90496 0.11945 0.0
C3154 C 0.33052 0.88887 0.12671 0.0
C3155 C 0.3156 0.87497 0.12361 0.0
H3156 H 0.28036 0.10507 0.37452 0.0
H3157 H 0.32622 0.14255 0.38985 0.0
H3158 H 0.30622 0.08095 0.36865 0.0
H3159 H 0.35221 0.11836 0.38387 0.0
H3160 H 0.39123 0.07772 0.35881 0.0
H3161 H 0.36685 0.10359 0.36469 0.0
H3162 H 0.32997 0.05754 0.38026 0.0
H3163 H 0.35429 0.03179 0.37448 0.0
C3164 C 0.29602 0.10829 0.37647 0.0
C3165 C 0.30133 0.12568 0.38261 0.0
C3166 C 0.31077 0.09441 0.37321 0.0
C3167 C 0.33115 0.09778 0.37588 0.0
C3168 C 0.33658 0.11547 0.3817 0.0
C3169 C 0.32176 0.12923 0.38514 0.0
C3170 C 0.37797 0.07321 0.36356 0.0
C3171 C 0.37464 0.0528 0.36623 0.0
C3172 C 0.36411 0.08798 0.36695 0.0
C3173 C 0.34651 0.08249 0.37285 0.0
C3174 C 0.34335 0.06212 0.37563 0.0
C3175 C 0.35733 0.04744 0.37242 0.0
H3176 H 0.10626 0.06269 0.6214 0.0
H3177 H 0.14671 0.05115 0.64954 0.0
H3178 H 0.12853 0.08971 0.61489 0.0
H3179 H 0.16827 0.07868 0.64327 0.0
H3180 H 0.19333 0.14079 0.63331 0.0
H3181 H 0.16753 0.11746 0.64019 0.0
H3182 H 0.16523 0.0891 0.60722 0.0
H3183 H 0.19155 0.11162 0.60042 0.0
C3184 C 0.11979 0.0659 0.62624 0.0
C3185 C 0.12467 0.05458 0.63599 0.0
C3186 C 0.13244 0.08147 0.62254 0.0
C3187 C 0.15006 0.08627 0.6286 0.0
C3188 C 0.15462 0.07547 0.63853 0.0
C3189 C 0.14217 0.05972 0.64213 0.0
C3190 C 0.18741 0.12956 0.62751 0.0
C3191 C 0.19468 0.12811 0.6163 0.0
C3192 C 0.17255 0.1163 0.63146 0.0
C3193 C 0.16441 0.10153 0.62422 0.0
C3194 C 0.17106 0.10054 0.61292 0.0
C3195 C 0.18612 0.11356 0.60903 0.0
H3196 H 0.13187 0.96384 0.88075 0.0
H3197 H 0.1195 0.92687 0.8513 0.0
H3198 H 0.15567 0.93867 0.8876 0.0
H3199 H 0.14405 0.90206 0.85794 0.0
H3200 H 0.17903 0.85411 0.87821 0.0
H3201 H 0.15177 0.877 0.87267 0.0
H3202 H 0.18901 0.92807 0.88173 0.0
H3203 H 0.21577 0.90534 0.88764 0.0
C3204 C 0.13401 0.95022 0.87581 0.0
C3205 C 0.12384 0.94744 0.86544 0.0
C3206 C 0.14787 0.93591 0.87966 0.0
C3207 C 0.15196 0.91849 0.87324 0.0
C3208 C 0.1412 0.91528 0.86311 0.0
C3209 C 0.12729 0.92961 0.85925 0.0
C3210 C 0.18129 0.87023 0.8791 0.0
C3211 C 0.19961 0.8779 0.88332 0.0
C3212 C 0.16575 0.88333 0.87584 0.0
C3213 C 0.16818 0.90436 0.87681 0.0
C3214 C 0.18651 0.91196 0.88103 0.0
C3215 C 0.20199 0.89892 0.88426 0.0
H3216 H 0.68549 0.13969 0.87436 0.0
H3217 H 0.71455 0.09216 0.8935 0.0
H3218 H 0.65849 0.11653 0.8692 0.0
H3219 H 0.68859 0.06871 0.8876 0.0
H3220 H 0.63145 0.03365 0.88375 0.0
H3221 H 0.655 0.05945 0.89029 0.0
H3222 H 0.65143 0.0887 0.85747 0.0
H3223 H 0.62711 0.06337 0.85123 0.0
C3224 C 0.68617 0.12433 0.87747 0.0
C3225 C 0.70232 0.11785 0.88433 0.0
C3226 C 0.67079 0.11094 0.87438 0.0
C3227 C 0.67128 0.09067 0.87796 0.0
C3228 C 0.68744 0.08425 0.88482 0.0
C3229 C 0.70262 0.09767 0.88803 0.0
C3230 C 0.6356 0.04576 0.87802 0.0
C3231 C 0.62756 0.04656 0.867 0.0
C3232 C 0.6492 0.06047 0.88171 0.0
C3233 C 0.65538 0.07609 0.87438 0.0
C3234 C 0.64687 0.0771 0.86343 0.0
C3235 C 0.63299 0.06256 0.85981 0.0
H3236 H 0.62683 0.93305 0.64661 0.0
H3237 H 0.63899 0.96915 0.61689 0.0
H3238 H 0.65131 0.90799 0.64021 0.0
H3239 H 0.66272 0.94375 0.61011 0.0
H3240 H 0.72079 0.90837 0.60796 0.0
H3241 H 0.69506 0.93194 0.61401 0.0
H3242 H 0.65941 0.88249 0.62713 0.0
H3243 H 0.68606 0.85899 0.62191 0.0
C3244 C 0.63451 0.93538 0.63859 0.0
C3245 C 0.63119 0.95303 0.63227 0.0
C3246 C 0.64848 0.921 0.63488 0.0
C3247 C 0.65919 0.92385 0.62466 0.0
C3248 C 0.6552 0.94124 0.61816 0.0
C3249 C 0.6415 0.95575 0.62198 0.0
C3250 C 0.70766 0.90248 0.61232 0.0
C3251 C 0.7057 0.88171 0.61453 0.0
C3252 C 0.69264 0.91603 0.6156 0.0
C3253 C 0.675 0.9092 0.62102 0.0
C3254 C 0.67287 0.88838 0.62311 0.0
C3255 C 0.68806 0.87483 0.61996 0.0
H3256 H 0.81371 0.85873 0.38047 0.0
H3257 H 0.78238 0.9091 0.39574 0.0
H3258 H 0.84062 0.88144 0.37432 0.0
H3259 H 0.80869 0.93183 0.38917 0.0
H3260 H 0.86703 0.96559 0.38494 0.0
H3261 H 0.84341 0.94068 0.39242 0.0
H3262 H 0.84587 0.90824 0.36058 0.0
H3263 H 0.86971 0.93303 0.35318 0.0
C3264 C 0.8126 0.87462 0.38255 0.0
C3265 C 0.79585 0.88211 0.38856 0.0
C3266 C 0.82791 0.88766 0.37892 0.0
C3267 C 0.82682 0.90845 0.38125 0.0
C3268 C 0.81017 0.91587 0.38736 0.0
C3269 C 0.79491 0.90286 0.39099 0.0
C3270 C 0.86255 0.95309 0.37956 0.0
C3271 C 0.8701 0.95133 0.36845 0.0
C3272 C 0.849 0.93884 0.38383 0.0
C3273 C 0.84259 0.92257 0.37706 0.0
C3274 C 0.85066 0.92046 0.36607 0.0
C3275 C 0.8643 0.93467 0.36182 0.0
H3276 H 0.80359 0.13375 0.12961 0.0
H3277 H 0.79513 0.09936 0.09877 0.0
H3278 H 0.82916 0.10958 0.13588 0.0
H3279 H 0.82044 0.07521 0.10508 0.0
H3280 H 0.84593 0.02397 0.12687 0.0
H3281 H 0.82243 0.04957 0.12026 0.0
H3282 H 0.86358 0.09637 0.13102 0.0
H3283 H 0.88742 0.07065 0.13753 0.0
C3284 C 0.80733 0.12118 0.12412 0.0
C3285 C 0.79716 0.11837 0.11375 0.0
C3286 C 0.82197 0.10735 0.12771 0.0
C3287 C 0.82667 0.09041 0.12102 0.0
C3288 C 0.81686 0.0879 0.11053 0.0
C3289 C 0.80232 0.10172 0.10693 0.0
C3290 C 0.85018 0.03969 0.12767 0.0
C3291 C 0.86868 0.04523 0.13263 0.0
C3292 C 0.83665 0.05437 0.12391 0.0
C3293 C 0.84121 0.07498 0.12506 0.0
C3294 C 0.8596 0.0806 0.13011 0.0
C3295 C 0.87323 0.06587 0.13383 0.0
H3296 H 0.78251 0.38842 0.62925 0.0
H3297 H 0.82726 0.35631 0.60965 0.0
H3298 H 0.80838 0.41124 0.63624 0.0
H3299 H 0.85346 0.37891 0.61687 0.0
H3300 H 0.88843 0.43883 0.62095 0.0
H3301 H 0.86451 0.41306 0.61492 0.0
H3302 H 0.83683 0.41426 0.64817 0.0
H3303 H 0.85968 0.44093 0.65391 0.0
C3304 C 0.79799 0.38597 0.62664 0.0
C3305 C 0.80287 0.37054 0.61893 0.0
C3306 C 0.81288 0.39905 0.63065 0.0
C3307 C 0.83307 0.39694 0.62715 0.0
C3308 C 0.83803 0.38118 0.61962 0.0
C3309 C 0.82306 0.36818 0.61552 0.0
C3310 C 0.87717 0.43368 0.62695 0.0
C3311 C 0.87598 0.44213 0.6379 0.0
C3312 C 0.86361 0.41867 0.62354 0.0
C3313 C 0.84862 0.41163 0.63103 0.0
C3314 C 0.84793 0.41954 0.6421 0.0
C3315 C 0.86132 0.43467 0.64547 0.0
H3316 H 0.88568 0.55736 0.88309 0.0
H3317 H 0.86349 0.56152 0.8486 0.0
H3318 H 0.86103 0.58241 0.88901 0.0
H3319 H 0.84024 0.58775 0.85431 0.0
H3320 H 0.78313 0.61263 0.87049 0.0
H3321 H 0.8098 0.5902 0.86407 0.0
H3322 H 0.85051 0.61634 0.88877 0.0
H3323 H 0.82331 0.63822 0.89549 0.0
C3324 C 0.87573 0.56373 0.87673 0.0
C3325 C 0.87657 0.55716 0.86537 0.0
C3326 C 0.86177 0.57838 0.8801 0.0
C3327 C 0.84845 0.58706 0.87217 0.0
C3328 C 0.84991 0.58113 0.86073 0.0
C3329 C 0.86361 0.56627 0.8574 0.0
C3330 C 0.79786 0.61373 0.87444 0.0
C3331 C 0.8012 0.62716 0.88346 0.0
C3332 C 0.81323 0.60092 0.87074 0.0
C3333 C 0.83243 0.60143 0.87586 0.0
C3334 C 0.83586 0.61525 0.88475 0.0
C3335 C 0.82035 0.62788 0.88856 0.0
H3336 H 0.6714 0.6415 0.10961 0.0
H3337 H 0.71656 0.6105 0.12948 0.0
H3338 H 0.64557 0.61848 0.11683 0.0
H3339 H 0.69108 0.5872 0.13643 0.0
H3340 H 0.64015 0.55689 0.15415 0.0
H3341 H 0.66274 0.58368 0.14829 0.0
H3342 H 0.6349 0.58432 0.11507 0.0
H3343 H 0.61119 0.55846 0.12123 0.0
C3344 C 0.67577 0.62976 0.11553 0.0
C3345 C 0.69595 0.62785 0.11903 0.0
C3346 C 0.66101 0.61652 0.11963 0.0
C3347 C 0.66619 0.60094 0.12722 0.0
C3348 C 0.68639 0.59924 0.13079 0.0
C3349 C 0.70106 0.61259 0.12679 0.0
C3350 C 0.63842 0.56304 0.14568 0.0
C3351 C 0.62376 0.55541 0.13817 0.0
C3352 C 0.65167 0.57824 0.14225 0.0
C3353 C 0.65086 0.58605 0.13115 0.0
C3354 C 0.63589 0.5788 0.12371 0.0
C3355 C 0.62246 0.56373 0.1272 0.0
H3356 H 0.67292 0.35674 0.39027 0.0
H3357 H 0.71706 0.38815 0.36989 0.0
H3358 H 0.64684 0.3802 0.38383 0.0
H3359 H 0.69134 0.41184 0.36369 0.0
H3360 H 0.63956 0.4429 0.34723 0.0
H3361 H 0.66229 0.41581 0.35241 0.0
H3362 H 0.63659 0.41449 0.38616 0.0
H3363 H 0.61271 0.4407 0.3807 0.0
C3364 C 0.67701 0.36865 0.3844 0.0
C3365 C 0.69698 0.37055 0.38053 0.0
C3366 C 0.66211 0.38215 0.38075 0.0
C3367 C 0.66694 0.39795 0.37323 0.0
C3368 C 0.68692 0.39964 0.36929 0.0
C3369 C 0.70172 0.38605 0.37285 0.0
C3370 C 0.63832 0.43654 0.35567 0.0
C3371 C 0.62419 0.44407 0.36353 0.0
C3372 C 0.65166 0.42117 0.35871 0.0
C3373 C 0.65149 0.41307 0.36975 0.0
C3374 C 0.63707 0.42023 0.37755 0.0
C3375 C 0.62354 0.4355 0.37446 0.0
H3376 H 0.15917 0.53515 0.35541 0.0
H3377 H 0.11404 0.55867 0.37847 0.0
H3378 H 0.18306 0.56033 0.36214 0.0
H3379 H 0.13789 0.58466 0.38468 0.0
H3380 H 0.18567 0.63954 0.37957 0.0
H3381 H 0.15968 0.6154 0.37377 0.0
H3382 H 0.19843 0.56608 0.38353 0.0
H3383 H 0.22393 0.58988 0.38997 0.0
C3384 C 0.1543 0.54557 0.36194 0.0
C3385 C 0.13468 0.54458 0.36651 0.0
C3386 C 0.16798 0.5601 0.3657 0.0
C3387 C 0.16226 0.57428 0.37393 0.0
C3388 C 0.14255 0.57387 0.37827 0.0
C3389 C 0.12891 0.55904 0.37467 0.0
C3390 C 0.18856 0.62358 0.38069 0.0
C3391 C 0.2071 0.61674 0.38514 0.0
C3392 C 0.17369 0.60981 0.37732 0.0
C3393 C 0.17722 0.58899 0.37815 0.0
C3394 C 0.19552 0.58211 0.3827 0.0
C3395 C 0.21019 0.5958 0.38627 0.0
H3396 H 0.20134 0.40088 0.10006 0.0
H3397 H 0.19311 0.36188 0.1291 0.0
H3398 H 0.17435 0.42273 0.10689 0.0
H3399 H 0.16567 0.38351 0.13581 0.0
H3400 H 0.14038 0.44331 0.15099 0.0
H3401 H 0.16359 0.41781 0.14376 0.0
H3402 H 0.13769 0.42418 0.11026 0.0
H3403 H 0.11478 0.45013 0.11745 0.0
C3404 C 0.19367 0.39693 0.10788 0.0
C3405 C 0.19946 0.37977 0.1141 0.0
C3406 C 0.17804 0.40931 0.11172 0.0
C3407 C 0.16788 0.40485 0.12189 0.0
C3408 C 0.17334 0.38742 0.12798 0.0
C3409 C 0.18892 0.37496 0.1241 0.0
C3410 C 0.1396 0.43921 0.14208 0.0
C3411 C 0.12589 0.44884 0.13476 0.0
C3412 C 0.15275 0.42445 0.13797 0.0
C3413 C 0.15252 0.41904 0.12643 0.0
C3414 C 0.13835 0.42819 0.11917 0.0
C3415 C 0.12511 0.4429 0.12331 0.0
H3416 H 0.33945 0.46597 0.8564 0.0
H3417 H 0.38698 0.43912 0.87659 0.0
H3418 H 0.31572 0.44112 0.86368 0.0
H3419 H 0.36319 0.41364 0.88344 0.0
H3420 H 0.3146 0.36049 0.88101 0.0
H3421 H 0.34028 0.38442 0.87452 0.0
H3422 H 0.30178 0.43406 0.88416 0.0
H3423 H 0.27653 0.41043 0.8911 0.0
C3424 C 0.34487 0.45487 0.86243 0.0
C3425 C 0.36514 0.45479 0.86601 0.0
C3426 C 0.33127 0.44056 0.86653 0.0
C3427 C 0.33765 0.4256 0.87416 0.0
C3428 C 0.35797 0.42501 0.87751 0.0
C3429 C 0.37157 0.43956 0.87354 0.0
C3430 C 0.31173 0.37649 0.88193 0.0
C3431 C 0.29333 0.38348 0.88646 0.0
C3432 C 0.32641 0.39015 0.87818 0.0
C3433 C 0.32285 0.41101 0.87875 0.0
C3434 C 0.30472 0.41801 0.88346 0.0
C3435 C 0.29021 0.40443 0.88736 0.0
H3436 H 0.35279 0.54751 0.6502 0.0
H3437 H 0.38218 0.54559 0.61744 0.0
H3438 H 0.32986 0.57337 0.64323 0.0
H3439 H 0.35969 0.57215 0.61059 0.0
H3440 H 0.29837 0.59908 0.5991 0.0
H3441 H 0.32422 0.57567 0.60564 0.0
H3442 H 0.32847 0.60831 0.63734 0.0
H3443 H 0.30247 0.63167 0.63081 0.0
C3444 C 0.35439 0.55267 0.64151 0.0
C3445 C 0.3692 0.54437 0.63435 0.0
C3446 C 0.34141 0.5677 0.63756 0.0
C3447 C 0.34294 0.57485 0.62635 0.0
C3448 C 0.35799 0.56682 0.61923 0.0
C3449 C 0.371 0.55176 0.62319 0.0
C3450 C 0.30506 0.60146 0.60739 0.0
C3451 C 0.29831 0.61718 0.61446 0.0
C3452 C 0.3199 0.58804 0.61114 0.0
C3453 C 0.32835 0.59005 0.62204 0.0
C3454 C 0.32201 0.60613 0.62898 0.0
C3455 C 0.30713 0.61952 0.62524 0.0
H3456 H 0.33324 0.11673 0.14149 0.0
H3457 H 0.38979 0.14816 0.13704 0.0
H3458 H 0.31522 0.14558 0.13325 0.0
H3459 H 0.37185 0.17688 0.12887 0.0
H3460 H 0.33578 0.21321 0.10288 0.0
H3461 H 0.35177 0.18312 0.1108 0.0
H3462 H 0.30862 0.1829 0.13829 0.0
H3463 H 0.2925 0.21305 0.13032 0.0
C3464 C 0.34178 0.12981 0.13877 0.0
C3465 C 0.36289 0.13025 0.13994 0.0
C3466 C 0.33149 0.14631 0.13412 0.0
C3467 C 0.34217 0.16339 0.13037 0.0
C3468 C 0.36326 0.16382 0.13158 0.0
C3469 C 0.3735 0.14748 0.13636 0.0
C3470 C 0.3295 0.20655 0.11051 0.0
C3471 C 0.31288 0.21544 0.11598 0.0
C3472 C 0.33878 0.18946 0.1151 0.0
C3473 C 0.3315 0.18078 0.12519 0.0
C3474 C 0.31448 0.18925 0.13047 0.0
C3475 C 0.30534 0.20653 0.12596 0.0
H3476 H 0.10372 0.14041 0.38841 0.0
H3477 H 0.13517 0.08349 0.39093 0.0
H3478 H 0.07483 0.12331 0.37988 0.0
H3479 H 0.10623 0.06634 0.38227 0.0
H3480 H 0.03941 0.04322 0.37919 0.0
H3481 H 0.06974 0.05876 0.38722 0.0
H3482 H 0.06723 0.10532 0.36158 0.0
H3483 H 0.03684 0.08995 0.35364 0.0
C3484 C 0.10438 0.12421 0.38722 0.0
C3485 C 0.12166 0.11326 0.39038 0.0
C3486 C 0.08795 0.11446 0.38222 0.0
C3487 C 0.08834 0.09352 0.38035 0.0
C3488 C 0.1055 0.08249 0.38364 0.0
C3489 C 0.12207 0.0923 0.38854 0.0
C3490 C 0.04543 0.05671 0.37525 0.0
C3491 C 0.03575 0.06539 0.36581 0.0
C3492 C 0.06284 0.06552 0.37979 0.0
C3493 C 0.07076 0.08331 0.37506 0.0
C3494 C 0.06134 0.09172 0.36547 0.0
C3495 C 0.04407 0.08281 0.36086 0.0
H3496 H 0.11554 0.86517 0.62473 0.0
H3497 H 0.15833 0.87037 0.65228 0.0
H3498 H 0.1339 0.83621 0.61737 0.0
H3499 H 0.17723 0.84173 0.64464 0.0
H3500 H 0.18746 0.7741 0.63558 0.0
H3501 H 0.17289 0.8054 0.64272 0.0
H3502 H 0.16519 0.82661 0.60828 0.0
H3503 H 0.17897 0.79496 0.60112 0.0
C3504 C 0.1289 0.86013 0.62921 0.0
C3505 C 0.13535 0.86996 0.63916 0.0
C3506 C 0.13961 0.8437 0.6249 0.0
C3507 C 0.15708 0.83667 0.6304 0.0
C3508 C 0.16374 0.84667 0.64026 0.0
C3509 C 0.15301 0.86317 0.64458 0.0
C3510 C 0.18269 0.78546 0.62953 0.0
C3511 C 0.18418 0.78192 0.61777 0.0
C3512 C 0.17454 0.8035 0.63363 0.0
C3513 C 0.16771 0.81845 0.62607 0.0
C3514 C 0.17002 0.81527 0.61432 0.0
C3515 C 0.17816 0.79722 0.61022 0.0
H3516 H 0.46083 0.91192 0.85181 0.0
H3517 H 0.45908 0.95775 0.87791 0.0
H3518 H 0.43074 0.89632 0.85981 0.0
H3519 H 0.4291 0.94177 0.8861 0.0
H3520 H 0.36412 0.91611 0.89056 0.0
H3521 H 0.39258 0.93403 0.88189 0.0
H3522 H 0.42395 0.8774 0.87758 0.0
H3523 H 0.39552 0.85954 0.88599 0.0
C3524 C 0.45385 0.91884 0.85916 0.0
C3525 C 0.46233 0.93608 0.86422 0.0
C3526 C 0.43675 0.90975 0.86383 0.0
C3527 C 0.42769 0.91772 0.87364 0.0
C3528 C 0.43573 0.93535 0.87851 0.0
C3529 C 0.45296 0.94439 0.87387 0.0
C3530 C 0.37709 0.90753 0.88772 0.0
C3531 C 0.37761 0.88643 0.88898 0.0
C3532 C 0.39341 0.91779 0.88284 0.0
C3533 C 0.41043 0.9071 0.87901 0.0
C3534 C 0.41094 0.88603 0.88032 0.0
C3535 C 0.39475 0.87582 0.88527 0.0
H3536 H 0.29311 0.78985 0.36837 0.0
H3537 H 0.33826 0.78931 0.39486 0.0
H3538 H 0.30903 0.81978 0.36003 0.0
H3539 H 0.3539 0.81922 0.38664 0.0
H3540 H 0.39065 0.85466 0.36049 0.0
H3541 H 0.37299 0.82572 0.36855 0.0
H3542 H 0.31615 0.85689 0.36472 0.0
H3543 H 0.33389 0.88593 0.35652 0.0
C3544 C 0.30632 0.7962 0.37244 0.0
C3545 C 0.31441 0.78725 0.38227 0.0
C3546 C 0.31534 0.81338 0.36771 0.0
C3547 C 0.33277 0.82172 0.37265 0.0
C3548 C 0.34061 0.81298 0.38259 0.0
C3549 C 0.33151 0.79599 0.38736 0.0
C3550 C 0.37437 0.85526 0.36124 0.0
C3551 C 0.36364 0.87253 0.35785 0.0
C3552 C 0.36428 0.83878 0.36596 0.0
C3553 C 0.34322 0.83911 0.36732 0.0
C3554 C 0.33239 0.85621 0.36373 0.0
C3555 C 0.34254 0.87284 0.35911 0.0
H3556 H 0.39067 0.10369 0.59544 0.0
H3557 H 0.36251 0.10374 0.62858 0.0
H3558 H 0.41939 0.08552 0.60321 0.0
H3559 H 0.39059 0.08437 0.63616 0.0
H3560 H 0.45573 0.07474 0.64865 0.0
H3561 H 0.42473 0.0895 0.64124 0.0
H3562 H 0.43129 0.05442 0.61047 0.0
H3563 H 0.46267 0.04018 0.61781 0.0
C3564 C 0.3905 0.0997 0.60437 0.0
C3565 C 0.37428 0.10537 0.61138 0.0
C3566 C 0.40688 0.08898 0.6088 0.0
C3567 C 0.4074 0.08346 0.62034 0.0
C3568 C 0.39088 0.0886 0.62727 0.0
C3569 C 0.37459 0.09948 0.62287 0.0
C3570 C 0.45033 0.06995 0.64038 0.0
C3571 C 0.4616 0.05635 0.63379 0.0
C3572 C 0.43253 0.07837 0.63613 0.0
C3573 C 0.42549 0.07326 0.62521 0.0
C3574 C 0.43644 0.05904 0.61881 0.0
C3575 C 0.45435 0.05078 0.62302 0.0
H3576 H 0.15411 0.11326 0.86534 0.0
H3577 H 0.11941 0.15031 0.84232 0.0
H3578 H 0.17138 0.14329 0.87243 0.0
H3579 H 0.13685 0.18028 0.84924 0.0
H3580 H 0.15057 0.2299 0.87493 0.0
H3581 H 0.13636 0.19968 0.86645 0.0
H3582 H 0.19468 0.17061 0.86816 0.0
H3583 H 0.20894 0.20106 0.87681 0.0
C3584 C 0.15047 0.12779 0.86164 0.0
C3585 C 0.13529 0.12947 0.85335 0.0
C3586 C 0.16037 0.145 0.8657 0.0
C3587 C 0.15535 0.16423 0.8615 0.0
C3588 C 0.14076 0.16575 0.85285 0.0
C3589 C 0.1308 0.14859 0.84886 0.0
C3590 C 0.16046 0.21718 0.87336 0.0
C3591 C 0.18093 0.21795 0.87645 0.0
C3592 C 0.15231 0.19983 0.86847 0.0
C3593 C 0.16441 0.18276 0.86651 0.0
C3594 C 0.18491 0.18345 0.86964 0.0
C3595 C 0.19308 0.20087 0.87458 0.0
H3596 H 0.09833 0.86296 0.09651 0.0
H3597 H 0.13531 0.90162 0.11749 0.0
H3598 H 0.06807 0.87924 0.10388 0.0
H3599 H 0.10498 0.91786 0.12495 0.0
H3600 H 0.04523 0.95322 0.12874 0.0
H3601 H 0.07603 0.93937 0.12031 0.0
H3602 H 0.05027 0.87951 0.12183 0.0
H3603 H 0.01968 0.89328 0.13017 0.0
C3604 C 0.09999 0.87495 0.10271 0.0
C3605 C 0.1192 0.88089 0.10649 0.0
C3606 C 0.08265 0.88426 0.10695 0.0
C3607 C 0.08409 0.8997 0.11511 0.0
C3608 C 0.10335 0.90613 0.11861 0.0
C3609 C 0.12072 0.89683 0.11433 0.0
C3610 C 0.04624 0.9371 0.12732 0.0
C3611 C 0.02994 0.92438 0.13002 0.0
C3612 C 0.06386 0.92917 0.12249 0.0
C3613 C 0.06553 0.90836 0.12028 0.0
C3614 C 0.04932 0.89566 0.12316 0.0
C3615 C 0.03177 0.90356 0.12796 0.0
H3616 H 0.66171 0.76122 0.86246 0.0
H3617 H 0.68234 0.79672 0.89102 0.0
H3618 H 0.64615 0.7912 0.85424 0.0
H3619 H 0.66713 0.82674 0.88263 0.0
H3620 H 0.65202 0.87966 0.85896 0.0
H3621 H 0.67 0.84975 0.86575 0.0
H3622 H 0.61704 0.81344 0.85941 0.0
H3623 H 0.59918 0.84326 0.8525 0.0
C3624 C 0.66293 0.77539 0.867 0.0
C3625 C 0.67318 0.77648 0.87746 0.0
C3626 C 0.65406 0.79256 0.86226 0.0
C3627 C 0.65536 0.81129 0.86781 0.0
C3628 C 0.66607 0.81255 0.8781 0.0
C3629 C 0.67483 0.79533 0.88289 0.0
C3630 C 0.64434 0.86523 0.85888 0.0
C3631 C 0.6242 0.86378 0.85521 0.0
C3632 C 0.65456 0.84816 0.86286 0.0
C3633 C 0.64491 0.82927 0.86313 0.0
C3634 C 0.62492 0.82776 0.85922 0.0
C3635 C 0.61465 0.84484 0.85535 0.0
H3636 H 0.95434 0.9324 0.64164 0.0
H3637 H 0.98684 0.91553 0.61124 0.0
H3638 H 0.92405 0.91642 0.63417 0.0
H3639 H 0.95681 0.89861 0.60405 0.0
H3640 H 0.89439 0.88366 0.59013 0.0
H3641 H 0.92316 0.9034 0.59679 0.0
H3642 H 0.91218 0.88277 0.63107 0.0
H3643 H 0.88295 0.86394 0.62453 0.0
C3644 C 0.955 0.92545 0.63331 0.0
C3645 C 0.97309 0.9252 0.62707 0.0
C3646 C 0.93768 0.91602 0.6291 0.0
C3647 C 0.93802 0.90602 0.61855 0.0
C3648 C 0.95594 0.90627 0.61216 0.0
C3649 C 0.97325 0.91577 0.61636 0.0
C3650 C 0.89799 0.88354 0.5991 0.0
C3651 C 0.88639 0.87211 0.60678 0.0
C3652 C 0.91461 0.89469 0.60291 0.0
C3653 C 0.92001 0.89469 0.61447 0.0
C3654 C 0.90833 0.88336 0.62213 0.0
C3655 C 0.89172 0.87228 0.61835 0.0
H3656 H 0.85534 0.22159 0.39005 0.0
H3657 H 0.80091 0.21238 0.37045 0.0
H3658 H 0.86998 0.19139 0.38167 0.0
H3659 H 0.8155 0.18173 0.36229 0.0
H3660 H 0.84332 0.11648 0.36096 0.0
H3661 H 0.82718 0.14684 0.3686 0.0
H3662 H 0.88167 0.18078 0.36225 0.0
H3663 H 0.89784 0.15048 0.35476 0.0
C3664 C 0.84652 0.21323 0.3839 0.0
C3665 C 0.827 0.2196 0.38085 0.0
C3666 C 0.85491 0.19588 0.37912 0.0
C3667 C 0.84395 0.18431 0.37126 0.0
C3668 C 0.82425 0.19032 0.36838 0.0
C3669 C 0.81589 0.20783 0.37309 0.0
C3670 C 0.8518 0.13046 0.36118 0.0
C3671 C 0.87185 0.13111 0.35728 0.0
C3672 C 0.84252 0.14784 0.36547 0.0
C3673 C 0.85321 0.16612 0.36608 0.0
C3674 C 0.87313 0.16683 0.362 0.0
C3675 C 0.88232 0.14954 0.35761 0.0
H3676 H 0.62587 0.12798 0.12582 0.0
H3677 H 0.60363 0.12279 0.09144 0.0
H3678 H 0.59602 0.11038 0.13281 0.0
H3679 H 0.57391 0.10474 0.09842 0.0
H3680 H 0.51301 0.09775 0.11762 0.0
H3681 H 0.54355 0.11293 0.10979 0.0
H3682 H 0.57989 0.07671 0.13244 0.0
H3683 H 0.54928 0.06184 0.14046 0.0
C3684 C 0.6146 0.12307 0.11975 0.0
C3685 C 0.61704 0.12689 0.10808 0.0
C3686 C 0.59761 0.11278 0.12374 0.0
C3687 C 0.58261 0.10615 0.11616 0.0
C3688 C 0.58514 0.1098 0.10448 0.0
C3689 C 0.60222 0.11998 0.10047 0.0
C3690 C 0.52753 0.09304 0.12093 0.0
C3691 C 0.52874 0.0787 0.12971 0.0
C3692 C 0.54502 0.10159 0.11636 0.0
C3693 C 0.56413 0.09607 0.12052 0.0
C3694 C 0.56537 0.08142 0.12914 0.0
C3695 C 0.54786 0.07277 0.13366 0.0
H3696 H 0.64658 0.22129 0.60217 0.0
H3697 H 0.69354 0.21739 0.62755 0.0
H3698 H 0.631 0.19089 0.60979 0.0
H3699 H 0.67789 0.18687 0.63521 0.0
H3700 H 0.65397 0.12157 0.63826 0.0
H3701 H 0.6707 0.15145 0.63057 0.0
H3702 H 0.61281 0.18069 0.62677 0.0
H3703 H 0.59607 0.15064 0.63403 0.0
C3704 C 0.65352 0.21399 0.60943 0.0
C3705 C 0.67122 0.22184 0.61431 0.0
C3706 C 0.64458 0.19657 0.6138 0.0
C3707 C 0.65311 0.18655 0.62317 0.0
C3708 C 0.67105 0.19414 0.62792 0.0
C3709 C 0.68002 0.21161 0.62353 0.0
C3710 C 0.64482 0.13433 0.6357 0.0
C3711 C 0.62368 0.1337 0.63673 0.0
C3712 C 0.65442 0.15153 0.63141 0.0
C3713 C 0.64308 0.16842 0.62801 0.0
C3714 C 0.62197 0.16784 0.62916 0.0
C3715 C 0.61239 0.1507 0.63346 0.0
H3716 H 0.54891 0.94582 0.35814 0.0
H3717 H 0.51319 0.91038 0.38147 0.0
H3718 H 0.57976 0.93189 0.36643 0.0
H3719 H 0.54393 0.89614 0.38957 0.0
H3720 H 0.60374 0.88738 0.40801 0.0
H3721 H 0.57412 0.90517 0.40081 0.0
H3722 H 0.59631 0.89838 0.36652 0.0
H3723 H 0.62573 0.88038 0.37366 0.0
C3724 C 0.54767 0.93521 0.36511 0.0
C3725 C 0.52864 0.9291 0.36911 0.0
C3726 C 0.56531 0.92711 0.36979 0.0
C3727 C 0.56427 0.91285 0.37862 0.0
C3728 C 0.54525 0.90721 0.38284 0.0
C3729 C 0.52763 0.9152 0.37812 0.0
C3730 C 0.60227 0.88961 0.39893 0.0
C3731 C 0.61711 0.88236 0.39142 0.0
C3732 C 0.58532 0.89985 0.39482 0.0
C3733 C 0.58287 0.90316 0.3831 0.0
C3734 C 0.59791 0.89633 0.37561 0.0
C3735 C 0.61479 0.88602 0.37971 0.0
H3736 H 0.79335 0.78817 0.12713 0.0
H3737 H 0.8504 0.77882 0.11002 0.0
H3738 H 0.80706 0.81849 0.13615 0.0
H3739 H 0.86416 0.80839 0.1195 0.0
H3740 H 0.88738 0.84737 0.14908 0.0
H3741 H 0.87131 0.81738 0.141 0.0
H3742 H 0.82183 0.85398 0.12898 0.0
H3743 H 0.83805 0.88412 0.13696 0.0
C3744 C 0.80872 0.79256 0.12521 0.0
C3745 C 0.82078 0.78084 0.11789 0.0
C3746 C 0.81657 0.80985 0.13045 0.0
C3747 C 0.83671 0.81556 0.12861 0.0
C3748 C 0.84868 0.80407 0.12122 0.0
C3749 C 0.84078 0.78705 0.11584 0.0
C3750 C 0.87292 0.84895 0.14487 0.0
C3751 C 0.86395 0.86802 0.14362 0.0
C3752 C 0.86382 0.83185 0.14019 0.0
C3753 C 0.84541 0.83345 0.13433 0.0
C3754 C 0.83599 0.85238 0.13349 0.0
C3755 C 0.84529 0.86957 0.138 0.0
H3756 H 0.97856 0.10687 0.86116 0.0
H3757 H 0.9611 0.04993 0.87604 0.0
H3758 H 0.94836 0.12262 0.86889 0.0
H3759 H 0.93099 0.06578 0.88406 0.0
H3760 H 0.86892 0.09638 0.88642 0.0
H3761 H 0.89902 0.07989 0.87903 0.0
H3762 H 0.93394 0.13346 0.8863 0.0
H3763 H 0.90367 0.15036 0.893 0.0
C3764 C 0.96834 0.09778 0.8662 0.0
C3765 C 0.97224 0.07719 0.86804 0.0
C3766 C 0.95105 0.10681 0.87068 0.0
C3767 C 0.93727 0.09554 0.87719 0.0
C3768 C 0.94113 0.07488 0.87898 0.0
C3769 C 0.95839 0.06579 0.87441 0.0
C3770 C 0.88298 0.10472 0.88634 0.0
C3771 C 0.88378 0.12479 0.89025 0.0
C3772 C 0.90032 0.09515 0.88224 0.0
C3773 C 0.91894 0.10535 0.882 0.0
C3774 C 0.91982 0.12524 0.88617 0.0
C3775 C 0.90247 0.13485 0.89019 0.0
H3776 H 0.82727 0.72672 0.63409 0.0
H3777 H 0.79319 0.69242 0.60944 0.0
H3778 H 0.84025 0.69556 0.64218 0.0
H3779 H 0.80632 0.66112 0.61755 0.0
H3780 H 0.85701 0.61452 0.62528 0.0
H3781 H 0.83903 0.64402 0.61825 0.0
H3782 H 0.83106 0.66513 0.65269 0.0
H3783 H 0.84904 0.63551 0.65975 0.0
C3784 C 0.82222 0.71252 0.63053 0.0
C3785 C 0.80919 0.7121 0.6211 0.0
C3786 C 0.82969 0.69462 0.63518 0.0
C3787 C 0.82436 0.67584 0.6305 0.0
C3788 C 0.81094 0.67536 0.62124 0.0
C3789 C 0.80343 0.69329 0.6166 0.0
C3790 C 0.85107 0.62522 0.63138 0.0
C3791 C 0.85454 0.62267 0.64309 0.0
C3792 C 0.84076 0.64216 0.62734 0.0
C3793 C 0.83368 0.65698 0.6349 0.0
C3794 C 0.8366 0.65414 0.64663 0.0
C3795 C 0.84691 0.63718 0.65068 0.0
H3796 H 0.61247 0.63384 0.87693 0.0
H3797 H 0.62362 0.58737 0.90192 0.0
H3798 H 0.58446 0.61437 0.86937 0.0
H3799 H 0.59612 0.56733 0.89395 0.0
H3800 H 0.52963 0.55118 0.88567 0.0
H3801 H 0.55983 0.56766 0.89296 0.0
H3802 H 0.57656 0.58461 0.85878 0.0
H3803 H 0.54583 0.56907 0.85156 0.0
C3804 C 0.60895 0.61945 0.88082 0.0
C3805 C 0.6202 0.61228 0.89012 0.0
C3806 C 0.59306 0.60811 0.87636 0.0
C3807 C 0.58806 0.58922 0.88101 0.0
C3808 C 0.59944 0.5819 0.89022 0.0
C3809 C 0.61534 0.5933 0.89472 0.0
C3810 C 0.53976 0.55841 0.87971 0.0
C3811 C 0.53519 0.55894 0.86804 0.0
C3812 C 0.55722 0.56767 0.88388 0.0
C3813 C 0.57056 0.57764 0.87647 0.0
C3814 C 0.56644 0.57738 0.86475 0.0
C3815 C 0.54895 0.56819 0.86058 0.0
H3816 H 0.66822 0.38493 0.1449 0.0
H3817 H 0.61112 0.35521 0.13909 0.0
H3818 H 0.68587 0.35612 0.13635 0.0
H3819 H 0.62868 0.32655 0.13065 0.0
H3820 H 0.66466 0.29105 0.10436 0.0
H3821 H 0.64916 0.32095 0.11275 0.0
H3822 H 0.69146 0.31835 0.14062 0.0
H3823 H 0.70714 0.28839 0.13216 0.0
C3824 C 0.65949 0.37223 0.14182 0.0
C3825 C 0.63832 0.37226 0.14269 0.0
C3826 C 0.66956 0.35575 0.137 0.0
C3827 C 0.65862 0.33917 0.13279 0.0
C3828 C 0.63748 0.33921 0.13372 0.0
C3829 C 0.62745 0.35552 0.13866 0.0
C3830 C 0.67086 0.29703 0.11219 0.0
C3831 C 0.68712 0.2874 0.1176 0.0
C3832 C 0.66186 0.31402 0.11704 0.0
C3833 C 0.66904 0.32187 0.12737 0.0
C3834 C 0.68569 0.31264 0.13263 0.0
C3835 C 0.69456 0.29547 0.12783 0.0
H3836 H 0.8679 0.38843 0.37173 0.0
H3837 H 0.88916 0.39399 0.40632 0.0
H3838 H 0.89765 0.40645 0.36502 0.0
H3839 H 0.91909 0.41176 0.39955 0.0
H3840 H 0.98052 0.41594 0.38083 0.0
H3841 H 0.94929 0.40213 0.38839 0.0
H3842 H 0.91499 0.43976 0.36548 0.0
H3843 H 0.94633 0.45395 0.358 0.0
C3844 C 0.87872 0.39379 0.37793 0.0
C3845 C 0.87615 0.38966 0.38957 0.0
C3846 C 0.8958 0.4041 0.37407 0.0
C3847 C 0.91076 0.41043 0.38175 0.0
C3848 C 0.90796 0.40679 0.39341 0.0
C3849 C 0.89083 0.39657 0.39728 0.0
C3850 C 0.96635 0.42162 0.37754 0.0
C3851 C 0.96599 0.43614 0.36881 0.0
C3852 C 0.94843 0.41364 0.38187 0.0
C3853 C 0.92968 0.41987 0.37754 0.0
C3854 C 0.92923 0.43451 0.3689 0.0
C3855 C 0.94719 0.44261 0.36461 0.0
H3856 H 0.85504 0.36217 0.84257 0.0
H3857 H 0.8568 0.38657 0.87663 0.0
H3858 H 0.83769 0.33226 0.84969 0.0
H3859 H 0.83908 0.35684 0.88366 0.0
H3860 H 0.79222 0.30633 0.89006 0.0
H3861 H 0.80613 0.33779 0.8825 0.0
H3862 H 0.84837 0.30371 0.86221 0.0
H3863 H 0.83499 0.27245 0.8699 0.0
C3864 C 0.85169 0.36121 0.85156 0.0
C3865 C 0.85749 0.37674 0.85903 0.0
C3866 C 0.8417 0.3441 0.85563 0.0
C3867 C 0.83714 0.34217 0.86724 0.0
C3868 C 0.84221 0.358 0.87464 0.0
C3869 C 0.85234 0.37507 0.87059 0.0
C3870 C 0.80455 0.30555 0.88404 0.0
C3871 C 0.81235 0.28679 0.88054 0.0
C3872 C 0.81246 0.32357 0.87969 0.0
C3873 C 0.82822 0.3232 0.87169 0.0
C3874 C 0.83595 0.30448 0.86818 0.0
C3875 C 0.8282 0.28653 0.87258 0.0
H3876 H 0.98168 0.58773 0.11837 0.0
H3877 H 0.94487 0.55019 0.14012 0.0
H3878 H 0.9515 0.60308 0.11053 0.0
H3879 H 0.91459 0.56649 0.13271 0.0
H3880 H 0.86344 0.58732 0.10912 0.0
H3881 H 0.89344 0.56982 0.11612 0.0
H3882 H 0.92609 0.62632 0.11627 0.0
H3883 H 0.89631 0.64361 0.10912 0.0
C3884 C 0.96715 0.58261 0.12144 0.0
C3885 C 0.96577 0.56762 0.12987 0.0
C3886 C 0.9498 0.59167 0.11705 0.0
C3887 C 0.93058 0.58616 0.12104 0.0
C3888 C 0.92913 0.57099 0.12937 0.0
C3889 C 0.94652 0.56181 0.13372 0.0
C3890 C 0.87705 0.59596 0.11067 0.0
C3891 C 0.87756 0.61681 0.10848 0.0
C3892 C 0.89422 0.58595 0.11471 0.0
C3893 C 0.91224 0.59662 0.11671 0.0
C3894 C 0.91264 0.61752 0.11459 0.0
C3895 C 0.89555 0.62746 0.1105 0.0
H3896 H 0.64543 0.61555 0.37584 0.0
H3897 H 0.64269 0.64246 0.3424 0.0
H3898 H 0.66236 0.64562 0.38305 0.0
H3899 H 0.65911 0.67272 0.34975 0.0
H3900 H 0.65955 0.73085 0.37179 0.0
H3901 H 0.64744 0.69946 0.36363 0.0
H3902 H 0.69449 0.66672 0.38106 0.0
H3903 H 0.70723 0.69838 0.38901 0.0
C3904 C 0.64875 0.62768 0.36996 0.0
C3905 C 0.64253 0.62659 0.35854 0.0
C3906 C 0.6584 0.64494 0.37412 0.0
C3907 C 0.66189 0.66155 0.36698 0.0
C3908 C 0.65633 0.66024 0.35548 0.0
C3909 C 0.64685 0.64292 0.35129 0.0
C3910 C 0.66767 0.71709 0.37372 0.0
C3911 C 0.68454 0.71727 0.381 0.0
C3912 C 0.66064 0.69906 0.36905 0.0
C3913 C 0.67009 0.68067 0.37165 0.0
C3914 C 0.68686 0.6807 0.37896 0.0
C3915 C 0.69408 0.69883 0.38354 0.0
H3916 H 0.61004 0.39447 0.59028 0.0
H3917 H 0.63383 0.39129 0.62445 0.0
H3918 H 0.57991 0.41138 0.59749 0.0
H3919 H 0.60398 0.40863 0.63154 0.0
H3920 H 0.55423 0.4551 0.63868 0.0
H3921 H 0.58546 0.44183 0.63058 0.0
H3922 H 0.55101 0.40049 0.60989 0.0
H3923 H 0.51989 0.41323 0.61815 0.0
C3924 C 0.60891 0.39741 0.59931 0.0
C3925 C 0.62437 0.3914 0.60678 0.0
C3926 C 0.59168 0.40715 0.60342 0.0
C3927 C 0.58959 0.41128 0.61507 0.0
C3928 C 0.60529 0.40588 0.62249 0.0
C3929 C 0.62243 0.39598 0.61841 0.0
C3930 C 0.55329 0.44312 0.63245 0.0
C3931 C 0.53447 0.43526 0.62909 0.0
C3932 C 0.57119 0.43558 0.62778 0.0
C3933 C 0.57066 0.42017 0.61958 0.0
C3934 C 0.55188 0.4126 0.61606 0.0
C3935 C 0.53402 0.41998 0.62079 0.0
H3936 H 0.09721 0.34637 0.36048 0.0
H3937 H 0.15476 0.37633 0.35678 0.0
H3938 H 0.11423 0.31654 0.36785 0.0
H3939 H 0.17187 0.34616 0.36376 0.0
H3940 H 0.1914 0.29765 0.38996 0.0
H3941 H 0.17587 0.32751 0.3815 0.0
H3942 H 0.13623 0.28929 0.36182 0.0
H3943 H 0.15169 0.2595 0.3703 0.0
C3944 C 0.1135 0.34657 0.36121 0.0
C3945 C 0.12461 0.36376 0.35806 0.0
C3946 C 0.12329 0.32938 0.36531 0.0
C3947 C 0.14443 0.32894 0.36638 0.0
C3948 C 0.15556 0.34607 0.36314 0.0
C3949 C 0.14577 0.36327 0.35901 0.0
C3950 C 0.17955 0.29564 0.38372 0.0
C3951 C 0.17265 0.27622 0.38088 0.0
C3952 C 0.17065 0.31274 0.37887 0.0
C3953 C 0.1547 0.31079 0.37105 0.0
C3954 C 0.1482 0.29134 0.36799 0.0
C3955 C 0.15707 0.27427 0.37284 0.0
H3956 H 0.36872 0.40338 0.11604 0.0
H3957 H 0.40566 0.35372 0.10439 0.0
H3958 H 0.3988 0.42099 0.12247 0.0
H3959 H 0.43555 0.37067 0.11157 0.0
H3960 H 0.48828 0.41262 0.1165 0.0
H3961 H 0.4578 0.39778 0.10844 0.0
H3962 H 0.42329 0.42008 0.137 0.0
H3963 H 0.45372 0.43552 0.14478 0.0
C3964 C 0.38324 0.39621 0.1148 0.0
C3965 C 0.38468 0.37708 0.10966 0.0
C3966 C 0.40051 0.40622 0.11866 0.0
C3967 C 0.41967 0.39728 0.1176 0.0
C3968 C 0.42112 0.3782 0.11241 0.0
C3969 C 0.40388 0.36829 0.10844 0.0
C3970 C 0.47412 0.41441 0.121 0.0
C3971 C 0.47333 0.42517 0.13127 0.0
C3972 C 0.45666 0.40582 0.11642 0.0
C3973 C 0.43804 0.40754 0.1221 0.0
C3974 C 0.43725 0.41866 0.13229 0.0
C3975 C 0.45469 0.42748 0.13678 0.0
H3976 H 0.31616 0.72871 0.86424 0.0
H3977 H 0.32459 0.7064 0.89836 0.0
H3978 H 0.33116 0.6979 0.85664 0.0
H3979 H 0.34031 0.67594 0.89088 0.0
H3980 H 0.35506 0.61653 0.87449 0.0
H3981 H 0.33578 0.64542 0.88108 0.0
H3982 H 0.36282 0.68227 0.85486 0.0
H3983 H 0.38089 0.65302 0.84773 0.0
C3984 C 0.32125 0.71716 0.8701 0.0
C3985 C 0.31922 0.7199 0.88188 0.0
C3986 C 0.32996 0.69956 0.86577 0.0
C3987 C 0.33713 0.68441 0.87312 0.0
C3988 C 0.3347 0.68706 0.88492 0.0
C3989 C 0.32573 0.70455 0.88924 0.0
C3990 C 0.35659 0.63067 0.86996 0.0
C3991 C 0.36962 0.63235 0.86056 0.0
C3992 C 0.34574 0.64737 0.87387 0.0
C3993 C 0.34778 0.6663 0.86857 0.0
C3994 C 0.36062 0.66793 0.85909 0.0
C3995 C 0.37129 0.65117 0.8551 0.0
H3996 H 0.02119 0.60512 0.63779 0.0
H3997 H 0.03334 0.54721 0.62226 0.0
H3998 H 0.05139 0.6189 0.62897 0.0
H3999 H 0.06408 0.56099 0.61378 0.0
H4000 H 0.12901 0.5907 0.61352 0.0
H4001 H 0.09808 0.57525 0.62091 0.0
H4002 H 0.06359 0.6262 0.6088 0.0
H4003 H 0.09445 0.64165 0.60146 0.0
C4004 C 0.03015 0.59534 0.63242 0.0
C4005 C 0.02465 0.57505 0.63068 0.0
C4006 C 0.04752 0.60326 0.6274 0.0
C4007 C 0.05998 0.59104 0.62065 0.0
C4008 C 0.05476 0.5707 0.61901 0.0
C4009 C 0.03721 0.56281 0.62392 0.0
C4010 C 0.11478 0.5985 0.61239 0.0
C4011 C 0.11411 0.61737 0.60694 0.0
C4012 C 0.0971 0.58962 0.61654 0.0
C4013 C 0.07849 0.5996 0.61547 0.0
C4014 C 0.07778 0.61827 0.60982 0.0
C4015 C 0.09539 0.62702 0.60554 0.0
H4016 H 0.11563 0.63082 0.12284 0.0
H4017 H 0.14494 0.63616 0.1555 0.0
H4018 H 0.13367 0.66052 0.11614 0.0
H4019 H 0.16365 0.66548 0.14863 0.0
H4020 H 0.17364 0.73104 0.13647 0.0
H4021 H 0.15742 0.70044 0.14347 0.0
H4022 H 0.16711 0.67184 0.11093 0.0
H4023 H 0.18254 0.70271 0.10378 0.0
C4024 C 0.12593 0.63834 0.1286 0.0
C4025 C 0.12873 0.63119 0.13973 0.0
C4026 C 0.13649 0.65522 0.1247 0.0
C4027 C 0.15015 0.66537 0.13184 0.0
C4028 C 0.1531 0.65812 0.14295 0.0
C4029 C 0.14253 0.6412 0.14685 0.0
C4030 C 0.17225 0.71825 0.1308 0.0
C4031 C 0.1793 0.71939 0.11954 0.0
C4032 C 0.16315 0.70062 0.13485 0.0
C4033 C 0.16089 0.6837 0.12775 0.0
C4034 C 0.16837 0.68468 0.11658 0.0
C4035 C 0.17746 0.70231 0.11252 0.0
H4036 H 0.10035 0.38067 0.91066 0.0
H4037 H 0.12038 0.37317 0.876 0.0
H4038 H 0.07113 0.39992 0.90396 0.0
H4039 H 0.0911 0.39198 0.8693 0.0
H4040 H 0.04633 0.44165 0.86145 0.0
H4041 H 0.07666 0.42641 0.86957 0.0
H4042 H 0.0398 0.39244 0.89304 0.0
H4043 H 0.00952 0.40801 0.8851 0.0
C4044 C 0.09856 0.38324 0.90163 0.0
C4045 C 0.11256 0.37531 0.89385 0.0
C4046 C 0.08179 0.39412 0.89779 0.0
C4047 C 0.07882 0.39746 0.8861 0.0
C4048 C 0.09306 0.38985 0.87836 0.0
C4049 C 0.1097 0.37887 0.88219 0.0
C4050 C 0.04474 0.43119 0.86847 0.0
C4051 C 0.02554 0.42594 0.8726 0.0
C4052 C 0.06208 0.42233 0.87304 0.0
C4053 C 0.0606 0.40813 0.88189 0.0
C4054 C 0.04144 0.40342 0.88628 0.0
C4055 C 0.0241 0.41218 0.88166 0.0
H4056 H 0.34413 0.26025 0.63338 0.0
H4057 H 0.31079 0.29618 0.60917 0.0
H4058 H 0.35906 0.29087 0.64128 0.0
H4059 H 0.32537 0.32686 0.61726 0.0
H4060 H 0.37695 0.37211 0.62449 0.0
H4061 H 0.35926 0.34233 0.61751 0.0
H4062 H 0.3506 0.32191 0.65203 0.0
H4063 H 0.36875 0.35158 0.65902 0.0
C4064 C 0.33992 0.27471 0.62979 0.0
C4065 C 0.32639 0.2758 0.6206 0.0
C4066 C 0.34831 0.29225 0.63439 0.0
C4067 C 0.34345 0.31128 0.62987 0.0
C4068 C 0.32957 0.3124 0.62085 0.0
C4069 C 0.32108 0.29486 0.61629 0.0
C4070 C 0.37134 0.36123 0.63059 0.0
C4071 C 0.37437 0.36412 0.6423 0.0
C4072 C 0.361 0.34428 0.6266 0.0
C4073 C 0.35352 0.32977 0.63422 0.0
C4074 C 0.35633 0.33276 0.64595 0.0
C4075 C 0.36657 0.34981 0.64995 0.0
H4076 H 0.4937 0.59729 0.38476 0.0
H4077 H 0.45513 0.56128 0.36321 0.0
H4078 H 0.46407 0.61319 0.39318 0.0
H4079 H 0.42547 0.57727 0.37157 0.0
H4080 H 0.37552 0.59887 0.39508 0.0
H4081 H 0.40559 0.58072 0.38883 0.0
H4082 H 0.43844 0.637 0.38728 0.0
H4083 H 0.40867 0.65499 0.39395 0.0
C4084 C 0.47888 0.59279 0.38182 0.0
C4085 C 0.47676 0.57813 0.37326 0.0
C4086 C 0.4619 0.60191 0.38663 0.0
C4087 C 0.4424 0.59662 0.38299 0.0
C4088 C 0.44026 0.58153 0.37467 0.0
C4089 C 0.45726 0.57236 0.36986 0.0
C4090 C 0.38927 0.60731 0.39359 0.0
C4091 C 0.38969 0.62839 0.395 0.0
C4092 C 0.40643 0.59694 0.38988 0.0
C4093 C 0.42441 0.6074 0.38751 0.0
C4094 C 0.42492 0.62843 0.38913 0.0
C4095 C 0.40778 0.63879 0.39283 0.0
loop_
_geom_bond_atom_site_label_1
_geom_bond_atom_site_label_2
_geom_bond_distance
_geom_bond_site_symmetry_2
_ccdc_geom_bond_type
Li0 N17 1.990 . S
Li0 O60 1.956 . S
Li0 O61 1.970 . S
Li0 O62 1.961 . S
Li1 N25 1.990 . S
Li1 O60 1.970 . S
Li1 O61 1.956 . S
Li1 O63 1.961 . S
Li2 N47 1.990 1_545 S
Li2 O60 1.961 . S
Li2 O62 1.956 . S
Li2 O63 1.970 . S
Li3 N53 1.990 . S
Li3 O61 1.961 . S
Li3 O62 1.970 . S
Li3 O63 1.956 . S
C4 C6 1.348 . S
C4 C7 1.356 . S
C4 O60 1.325 1_565 S
N5 C8 1.314 . S
N5 C9 1.279 . S
C6 C4 1.348 . S
C6 C8 1.353 . S
C6 H64 0.935 . S
C7 C4 1.356 . S
C7 C9 1.358 . S
C7 H65 0.930 . S
C8 N5 1.314 . S
C8 C6 1.353 . S
C8 H66 0.930 . S
C9 N5 1.279 . S
C9 C7 1.358 . S
C9 H67 0.930 . S
C10 C13 1.348 . S
C10 C14 1.356 . S
C10 O61 1.325 . S
C11 N12 1.279 . S
C11 C14 1.358 . S
C11 H68 0.930 . S
N12 C11 1.279 . S
N12 C15 1.314 . S
C13 C10 1.348 . S
C13 C15 1.353 . S
C13 H69 0.929 . S
C14 C10 1.356 . S
C14 C11 1.358 . S
C14 H70 0.930 . S
C15 N12 1.314 . S
C15 C13 1.353 . S
C15 H71 0.930 . S
C16 N17 1.314 . S
C16 C21 1.353 . S
C16 H22 0.930 . S
N17 Li0 1.990 . S
N17 C16 1.314 . S
N17 C19 1.279 . S
C18 C19 1.358 . S
C18 C20 1.356 . S
C18 H72 0.930 . S
C19 N17 1.279 . S
C19 C18 1.358 . S
C19 H23 0.930 . S
C20 C18 1.356 . S
C20 C21 1.348 . S
C21 C16 1.353 . S
C21 C20 1.348 . S
C21 H73 0.929 . S
H22 C16 0.930 . S
H23 C19 0.930 . S
C24 N25 1.314 . S
C24 C26 1.353 . S
C24 H30 0.930 . S
N25 Li1 1.990 . S
N25 C24 1.314 . S
N25 C28 1.279 . S
C26 C24 1.353 . S
C26 C29 1.348 . S
C26 H74 0.958 . S
C27 C28 1.358 . S
C27 C29 1.356 . S
C27 H75 0.930 . S
C28 N25 1.279 . S
C28 C27 1.358 . S
C28 H31 0.930 . S
C29 C26 1.348 . S
C29 C27 1.356 . S
H30 C24 0.930 . S
H31 C28 0.930 . S
C32 C34 1.348 . S
C32 C35 1.356 . S
C32 O62 1.325 . S
N33 C36 1.314 . S
N33 C37 1.279 . S
C34 C32 1.348 . S
C34 C36 1.353 . S
C34 H76 0.929 . S
C35 C32 1.356 . S
C35 C37 1.358 . S
C35 H77 0.930 . S
C36 N33 1.314 . S
C36 C34 1.353 . S
C36 H78 0.930 . S
C37 N33 1.279 . S
C37 C35 1.358 . S
C37 H79 0.930 . S
C38 C39 1.348 . S
C38 C40 1.356 . S
C38 O63 1.325 . S
C39 C38 1.348 . S
C39 C41 1.353 . S
C39 H80 0.929 . S
C40 C38 1.356 . S
C40 C42 1.358 . S
C40 H81 0.930 . S
C41 C39 1.353 . S
C41 N43 1.314 . S
C41 H82 0.930 . S
C42 C40 1.358 . S
C42 N43 1.279 . S
C42 H83 0.930 . S
N43 C41 1.314 . S
N43 C42 1.279 . S
C44 C46 1.353 . S
C44 N47 1.314 . S
C44 H50 0.930 . S
C45 N47 1.279 . S
C45 C48 1.358 . S
C45 H51 0.930 1_565 S
C46 C44 1.353 . S
C46 C49 1.348 . S
C46 H84 0.929 . S
N47 Li2 1.990 1_565 S
N47 C44 1.314 . S
N47 C45 1.279 . S
C48 C45 1.358 . S
C48 C49 1.356 . S
C48 H85 0.930 . S
C49 C46 1.348 . S
C49 C48 1.356 . S
H50 C44 0.930 . S
H51 C45 0.930 1_545 S
C52 N53 1.314 . S
C52 C54 1.353 . S
C52 H58 0.930 . S
N53 Li3 1.990 . S
N53 C52 1.314 . S
N53 C56 1.279 . S
C54 C52 1.353 . S
C54 C57 1.348 . S
C54 H86 0.929 . S
C55 C56 1.358 . S
C55 C57 1.356 . S
C55 H87 0.930 . S
C56 N53 1.279 . S
C56 C55 1.358 . S
C56 H59 0.930 . S
C57 C54 1.348 . S
C57 C55 1.356 . S
H58 C52 0.930 . S
H59 C56 0.930 . S
O60 Li0 1.956 . S
O60 Li1 1.970 . S
O60 Li2 1.961 . S
O60 C4 1.325 1_545 S
O61 Li0 1.970 . S
O61 Li1 1.956 . S
O61 Li3 1.961 . S
O61 C10 1.325 . S
O62 Li0 1.961 . S
O62 Li2 1.956 . S
O62 Li3 1.970 . S
O62 C32 1.325 . S
O63 Li1 1.961 . S
O63 Li2 1.970 . S
O63 Li3 1.956 . S
O63 C38 1.325 . S
H64 C6 0.935 . S
H65 C7 0.930 . S
H66 C8 0.930 . S
H67 C9 0.930 . S
H68 C11 0.930 . S
H69 C13 0.929 . S
H70 C14 0.930 . S
H71 C15 0.930 . S
H72 C18 0.930 . S
H73 C21 0.929 . S
H74 C26 0.958 . S
H75 C27 0.930 . S
H76 C34 0.929 . S
H77 C35 0.930 . S
H78 C36 0.930 . S
H79 C37 0.930 . S
H80 C39 0.929 . S
H81 C40 0.930 . S
H82 C41 0.930 . S
H83 C42 0.930 . S
H84 C46 0.929 . S
H85 C48 0.930 . S
H86 C54 0.929 . S
H87 C55 0.930 . S
Li88 N105 1.990 . S
Li88 O148 1.956 . S
Li88 O149 1.970 . S
Li88 O150 1.961 . S
Li89 N113 1.990 . S
Li89 O148 1.970 . S
Li89 O149 1.956 . S
Li89 O151 1.961 . S
Li90 N135 1.990 . S
Li90 O148 1.961 . S
Li90 O150 1.956 . S
Li90 O151 1.970 . S
Li91 N141 1.990 . S
Li91 O149 1.961 . S
Li91 O150 1.970 . S
Li91 O151 1.956 . S
C92 C94 1.348 . S
C92 C95 1.356 . S
C92 O148 1.325 . S
N93 C96 1.314 . S
N93 C97 1.279 . S
C94 C92 1.348 . S
C94 C96 1.353 . S
C94 H152 0.929 . S
C95 C92 1.356 . S
C95 C97 1.358 . S
C95 H153 0.930 . S
C96 N93 1.314 . S
C96 C94 1.353 . S
C96 H154 0.930 . S
C97 N93 1.279 . S
C97 C95 1.358 . S
C97 H155 0.930 . S
C98 C101 1.348 . S
C98 C102 1.356 . S
C98 O149 1.325 . S
C99 N100 1.279 . S
C99 C102 1.358 . S
C99 H156 0.930 . S
N100 C99 1.279 . S
N100 C103 1.314 . S
C101 C98 1.348 . S
C101 C103 1.353 . S
C101 H157 0.929 . S
C102 C98 1.356 . S
C102 C99 1.358 . S
C102 H158 0.930 . S
C103 N100 1.314 . S
C103 C101 1.353 . S
C103 H159 0.930 . S
C104 N105 1.314 . S
C104 C109 1.353 . S
C104 H110 0.930 . S
N105 Li88 1.990 . S
N105 C104 1.314 . S
N105 C107 1.279 . S
C106 C107 1.358 . S
C106 C108 1.356 . S
C106 H160 0.930 . S
C107 N105 1.279 . S
C107 C106 1.358 . S
C107 H111 0.930 . S
C108 C106 1.356 . S
C108 C109 1.348 . S
C109 C104 1.353 . S
C109 C108 1.348 . S
C109 H161 0.929 . S
H110 C104 0.930 . S
H111 C107 0.930 . S
C112 N113 1.314 . S
C112 C114 1.353 . S
C112 H118 0.930 . S
N113 Li89 1.990 . S
N113 C112 1.314 . S
N113 C116 1.279 . S
C114 C112 1.353 . S
C114 C117 1.348 . S
C114 H162 0.929 . S
C115 C116 1.358 . S
C115 C117 1.356 . S
C115 H163 0.930 . S
C116 N113 1.279 . S
C116 C115 1.358 . S
C116 H119 0.930 . S
C117 C114 1.348 . S
C117 C115 1.356 . S
H118 C112 0.930 . S
H119 C116 0.930 . S
C120 C122 1.348 . S
C120 C123 1.356 . S
C120 O150 1.325 . S
N121 C124 1.314 . S
N121 C125 1.279 . S
C122 C120 1.348 . S
C122 C124 1.353 . S
C122 H164 0.929 . S
C123 C120 1.356 . S
C123 C125 1.358 . S
C123 H165 0.930 . S
C124 N121 1.314 . S
C124 C122 1.353 . S
C124 H166 0.930 . S
C125 N121 1.279 . S
C125 C123 1.358 . S
C125 H167 0.930 . S
C126 C127 1.348 . S
C126 C128 1.356 . S
C126 O151 1.325 . S
C127 C126 1.348 . S
C127 C129 1.353 . S
C127 H168 0.929 . S
C128 C126 1.356 . S
C128 C130 1.358 . S
C128 H169 0.930 . S
C129 C127 1.353 . S
C129 N131 1.314 . S
C129 H170 0.930 . S
C130 C128 1.358 . S
C130 N131 1.279 . S
C130 H171 0.930 . S
N131 C129 1.314 . S
N131 C130 1.279 . S
C132 C134 1.353 . S
C132 N135 1.314 . S
C132 H138 0.930 . S
C133 N135 1.279 . S
C133 C136 1.358 . S
C133 H139 0.930 . S
C134 C132 1.353 . S
C134 C137 1.348 . S
C134 H172 0.929 . S
N135 Li90 1.990 . S
N135 C132 1.314 . S
N135 C133 1.279 . S
C136 C133 1.358 . S
C136 C137 1.356 . S
C136 H173 0.930 . S
C137 C134 1.348 . S
C137 C136 1.356 . S
H138 C132 0.930 . S
H139 C133 0.930 . S
C140 N141 1.314 . S
C140 C142 1.353 . S
C140 H146 0.930 . S
N141 Li91 1.990 . S
N141 C140 1.314 . S
N141 C144 1.279 . S
C142 C140 1.353 . S
C142 C145 1.348 . S
C142 H174 0.929 . S
C143 C144 1.358 . S
C143 C145 1.356 . S
C143 H175 0.930 . S
C144 N141 1.279 . S
C144 C143 1.358 . S
C144 H147 0.930 . S
C145 C142 1.348 . S
C145 C143 1.356 . S
H146 C140 0.930 . S
H147 C144 0.930 . S
O148 Li88 1.956 . S
O148 Li89 1.970 . S
O148 Li90 1.961 . S
O148 C92 1.325 . S
O149 Li88 1.970 . S
O149 Li89 1.956 . S
O149 Li91 1.961 . S
O149 C98 1.325 . S
O150 Li88 1.961 . S
O150 Li90 1.956 . S
O150 Li91 1.970 . S
O150 C120 1.325 . S
O151 Li89 1.961 . S
O151 Li90 1.970 . S
O151 Li91 1.956 . S
O151 C126 1.325 . S
H152 C94 0.929 . S
H153 C95 0.930 . S
H154 C96 0.930 . S
H155 C97 0.930 . S
H156 C99 0.930 . S
H157 C101 0.929 . S
H158 C102 0.930 . S
H159 C103 0.930 . S
H160 C106 0.930 . S
H161 C109 0.929 . S
H162 C114 0.929 . S
H163 C115 0.930 . S
H164 C122 0.929 . S
H165 C123 0.930 . S
H166 C124 0.930 . S
H167 C125 0.930 . S
H168 C127 0.929 . S
H169 C128 0.930 . S
H170 C129 0.930 . S
H171 C130 0.930 . S
H172 C134 0.929 . S
H173 C136 0.930 . S
H174 C142 0.929 . S
H175 C143 0.930 . S
Li176 N193 1.990 . S
Li176 O236 1.956 . S
Li176 O237 1.970 . S
Li176 O238 1.961 . S
Li177 N201 1.990 . S
Li177 O236 1.970 . S
Li177 O237 1.956 . S
Li177 O239 1.961 . S
Li178 N223 1.990 1_565 S
Li178 O236 1.961 . S
Li178 O238 1.956 . S
Li178 O239 1.970 . S
Li179 N229 1.990 . S
Li179 O237 1.961 . S
Li179 O238 1.970 . S
Li179 O239 1.956 . S
C180 C182 1.348 . S
C180 C183 1.356 . S
C180 O236 1.325 1_545 S
N181 C184 1.314 . S
N181 C185 1.279 . S
C182 C180 1.348 . S
C182 C184 1.353 . S
C182 H240 0.935 . S
C183 C180 1.356 . S
C183 C185 1.358 . S
C183 H241 0.930 . S
C184 N181 1.314 . S
C184 C182 1.353 . S
C184 H242 0.930 . S
C185 N181 1.279 . S
C185 C183 1.358 . S
C185 H243 0.930 . S
C186 C189 1.348 . S
C186 C190 1.356 . S
C186 O237 1.325 . S
C187 N188 1.279 . S
C187 C190 1.358 . S
C187 H244 0.930 . S
N188 C187 1.279 . S
N188 C191 1.314 . S
C189 C186 1.348 . S
C189 C191 1.353 . S
C189 H245 0.929 . S
C190 C186 1.356 . S
C190 C187 1.358 . S
C190 H246 0.930 . S
C191 N188 1.314 . S
C191 C189 1.353 . S
C191 H247 0.930 . S
C192 N193 1.314 . S
C192 C197 1.353 . S
C192 H198 0.930 . S
N193 Li176 1.990 . S
N193 C192 1.314 . S
N193 C195 1.279 . S
C194 C195 1.358 1_655 S
C194 C196 1.356 . S
C194 H248 0.930 . S
C195 N193 1.279 . S
C195 C194 1.358 1_455 S
C195 H199 0.930 . S
C196 C194 1.356 . S
C196 C197 1.348 1_655 S
C197 C192 1.353 . S
C197 C196 1.348 1_455 S
C197 H249 0.929 . S
H198 C192 0.930 . S
H199 C195 0.930 . S
C200 N201 1.314 . S
C200 C202 1.353 . S
C200 H206 0.930 . S
N201 Li177 1.990 . S
N201 C200 1.314 . S
N201 C204 1.279 . S
C202 C200 1.353 . S
C202 C205 1.348 . S
C202 H250 0.958 . S
C203 C204 1.358 . S
C203 C205 1.356 . S
C203 H251 0.930 . S
C204 N201 1.279 . S
C204 C203 1.358 . S
C204 H207 0.930 . S
C205 C202 1.348 . S
C205 C203 1.356 . S
H206 C200 0.930 . S
H207 C204 0.930 . S
C208 C210 1.348 . S
C208 C211 1.356 . S
C208 O238 1.325 . S
N209 C212 1.314 . S
N209 C213 1.279 . S
C210 C208 1.348 . S
C210 C212 1.353 . S
C210 H252 0.929 . S
C211 C208 1.356 . S
C211 C213 1.358 . S
C211 H253 0.930 . S
C212 N209 1.314 . S
C212 C210 1.353 . S
C212 H254 0.930 . S
C213 N209 1.279 . S
C213 C211 1.358 . S
C213 H255 0.930 . S
C214 C215 1.348 . S
C214 C216 1.356 . S
C214 O239 1.325 . S
C215 C214 1.348 . S
C215 C217 1.353 . S
C215 H256 0.929 . S
C216 C214 1.356 . S
C216 C218 1.358 . S
C216 H257 0.930 . S
C217 C215 1.353 . S
C217 N219 1.314 . S
C217 H258 0.930 . S
C218 C216 1.358 . S
C218 N219 1.279 . S
C218 H259 0.930 . S
N219 C217 1.314 . S
N219 C218 1.279 . S
C220 C222 1.353 . S
C220 N223 1.314 . S
C220 H226 0.930 . S
C221 N223 1.279 . S
C221 C224 1.358 . S
C221 H227 0.930 1_545 S
C222 C220 1.353 . S
C222 C225 1.348 . S
C222 H260 0.929 . S
N223 Li178 1.990 1_545 S
N223 C220 1.314 . S
N223 C221 1.279 . S
C224 C221 1.358 . S
C224 C225 1.356 . S
C224 H261 0.930 . S
C225 C222 1.348 . S
C225 C224 1.356 . S
H226 C220 0.930 . S
H227 C221 0.930 1_565 S
C228 N229 1.314 . S
C228 C230 1.353 . S
C228 H234 0.930 . S
N229 Li179 1.990 . S
N229 C228 1.314 . S
N229 C232 1.279 . S
C230 C228 1.353 . S
C230 C233 1.348 . S
C230 H262 0.929 . S
C231 C232 1.358 . S
C231 C233 1.356 . S
C231 H263 0.930 . S
C232 N229 1.279 . S
C232 C231 1.358 . S
C232 H235 0.930 . S
C233 C230 1.348 . S
C233 C231 1.356 . S
H234 C228 0.930 . S
H235 C232 0.930 . S
O236 Li176 1.956 . S
O236 Li177 1.970 . S
O236 Li178 1.961 . S
O236 C180 1.325 1_565 S
O237 Li176 1.970 . S
O237 Li177 1.956 . S
O237 Li179 1.961 . S
O237 C186 1.325 . S
O238 Li176 1.961 . S
O238 Li178 1.956 . S
O238 Li179 1.970 . S
O238 C208 1.325 . S
O239 Li177 1.961 . S
O239 Li178 1.970 . S
O239 Li179 1.956 . S
O239 C214 1.325 . S
H240 C182 0.935 . S
H241 C183 0.930 . S
H242 C184 0.930 . S
H243 C185 0.930 . S
H244 C187 0.930 . S
H245 C189 0.929 . S
H246 C190 0.930 . S
H247 C191 0.930 . S
H248 C194 0.930 . S
H249 C197 0.929 . S
H250 C202 0.958 . S
H251 C203 0.930 . S
H252 C210 0.929 . S
H253 C211 0.930 . S
H254 C212 0.930 . S
H255 C213 0.930 . S
H256 C215 0.929 . S
H257 C216 0.930 . S
H258 C217 0.930 . S
H259 C218 0.930 . S
H260 C222 0.929 . S
H261 C224 0.930 . S
H262 C230 0.929 . S
H263 C231 0.930 . S
Li264 N281 1.990 . S
Li264 O324 1.956 . S
Li264 O325 1.970 . S
Li264 O326 1.961 . S
Li265 N289 1.990 . S
Li265 O324 1.970 . S
Li265 O325 1.956 . S
Li265 O327 1.961 . S
Li266 N311 1.990 . S
Li266 O324 1.961 . S
Li266 O326 1.956 . S
Li266 O327 1.970 . S
Li267 N317 1.990 . S
Li267 O325 1.961 . S
Li267 O326 1.970 . S
Li267 O327 1.956 . S
C268 C270 1.348 . S
C268 C271 1.356 . S
C268 O324 1.325 . S
N269 C272 1.314 . S
N269 C273 1.279 . S
C270 C268 1.348 . S
C270 C272 1.353 . S
C270 H328 0.929 . S
C271 C268 1.356 . S
C271 C273 1.358 . S
C271 H329 0.930 . S
C272 N269 1.314 . S
C272 C270 1.353 . S
C272 H330 0.930 . S
C273 N269 1.279 . S
C273 C271 1.358 . S
C273 H331 0.930 . S
C274 C277 1.348 . S
C274 C278 1.356 . S
C274 O325 1.325 . S
C275 N276 1.279 . S
C275 C278 1.358 . S
C275 H332 0.930 . S
N276 C275 1.279 . S
N276 C279 1.314 . S
C277 C274 1.348 . S
C277 C279 1.353 . S
C277 H333 0.929 . S
C278 C274 1.356 . S
C278 C275 1.358 . S
C278 H334 0.930 . S
C279 N276 1.314 . S
C279 C277 1.353 . S
C279 H335 0.930 . S
C280 N281 1.314 . S
C280 C285 1.353 . S
C280 H286 0.930 . S
N281 Li264 1.990 . S
N281 C280 1.314 . S
N281 C283 1.279 . S
C282 C283 1.358 . S
C282 C284 1.356 . S
C282 H336 0.930 . S
C283 N281 1.279 . S
C283 C282 1.358 . S
C283 H287 0.930 . S
C284 C282 1.356 . S
C284 C285 1.348 . S
C285 C280 1.353 . S
C285 C284 1.348 . S
C285 H337 0.929 . S
H286 C280 0.930 . S
H287 C283 0.930 . S
C288 N289 1.314 . S
C288 C290 1.353 . S
C288 H294 0.930 . S
N289 Li265 1.990 . S
N289 C288 1.314 . S
N289 C292 1.279 . S
C290 C288 1.353 . S
C290 C293 1.348 . S
C290 H338 0.929 . S
C291 C292 1.358 . S
C291 C293 1.356 . S
C291 H339 0.930 . S
C292 N289 1.279 . S
C292 C291 1.358 . S
C292 H295 0.930 . S
C293 C290 1.348 . S
C293 C291 1.356 . S
H294 C288 0.930 . S
H295 C292 0.930 . S
C296 C298 1.348 . S
C296 C299 1.356 . S
C296 O326 1.325 . S
N297 C300 1.314 . S
N297 C301 1.279 . S
C298 C296 1.348 . S
C298 C300 1.353 . S
C298 H340 0.929 . S
C299 C296 1.356 . S
C299 C301 1.358 . S
C299 H341 0.930 . S
C300 N297 1.314 . S
C300 C298 1.353 . S
C300 H342 0.930 . S
C301 N297 1.279 . S
C301 C299 1.358 . S
C301 H343 0.930 . S
C302 C303 1.348 . S
C302 C304 1.356 . S
C302 O327 1.325 . S
C303 C302 1.348 . S
C303 C305 1.353 . S
C303 H344 0.929 . S
C304 C302 1.356 . S
C304 C306 1.358 . S
C304 H345 0.930 . S
C305 C303 1.353 . S
C305 N307 1.314 . S
C305 H346 0.930 . S
C306 C304 1.358 . S
C306 N307 1.279 . S
C306 H347 0.930 . S
N307 C305 1.314 . S
N307 C306 1.279 . S
C308 C310 1.353 . S
C308 N311 1.314 . S
C308 H314 0.930 . S
C309 N311 1.279 . S
C309 C312 1.358 . S
C309 H315 0.930 . S
C310 C308 1.353 . S
C310 C313 1.348 . S
C310 H348 0.929 . S
N311 Li266 1.990 . S
N311 C308 1.314 . S
N311 C309 1.279 . S
C312 C309 1.358 . S
C312 C313 1.356 . S
C312 H349 0.930 . S
C313 C310 1.348 . S
C313 C312 1.356 . S
H314 C308 0.930 . S
H315 C309 0.930 . S
C316 N317 1.314 . S
C316 C318 1.353 . S
C316 H322 0.930 . S
N317 Li267 1.990 . S
N317 C316 1.314 . S
N317 C320 1.279 . S
C318 C316 1.353 . S
C318 C321 1.348 . S
C318 H350 0.929 . S
C319 C320 1.358 . S
C319 C321 1.356 . S
C319 H351 0.930 . S
C320 N317 1.279 . S
C320 C319 1.358 . S
C320 H323 0.930 . S
C321 C318 1.348 . S
C321 C319 1.356 . S
H322 C316 0.930 . S
H323 C320 0.930 . S
O324 Li264 1.956 . S
O324 Li265 1.970 . S
O324 Li266 1.961 . S
O324 C268 1.325 . S
O325 Li264 1.970 . S
O325 Li265 1.956 . S
O325 Li267 1.961 . S
O325 C274 1.325 . S
O326 Li264 1.961 . S
O326 Li266 1.956 . S
O326 Li267 1.970 . S
O326 C296 1.325 . S
O327 Li265 1.961 . S
O327 Li266 1.970 . S
O327 Li267 1.956 . S
O327 C302 1.325 . S
H328 C270 0.929 . S
H329 C271 0.930 . S
H330 C272 0.930 . S
H331 C273 0.930 . S
H332 C275 0.930 . S
H333 C277 0.929 . S
H334 C278 0.930 . S
H335 C279 0.930 . S
H336 C282 0.930 . S
H337 C285 0.929 . S
H338 C290 0.929 . S
H339 C291 0.930 . S
H340 C298 0.929 . S
H341 C299 0.930 . S
H342 C300 0.930 . S
H343 C301 0.930 . S
H344 C303 0.929 . S
H345 C304 0.930 . S
H346 C305 0.930 . S
H347 C306 0.930 . S
H348 C310 0.929 . S
H349 C312 0.930 . S
H350 C318 0.929 . S
H351 C319 0.930 . S
Li352 N369 1.990 1_565 S
Li352 O412 1.956 . S
Li352 O413 1.970 . S
Li352 O414 1.961 . S
Li353 N377 1.990 . S
Li353 O412 1.970 . S
Li353 O413 1.956 . S
Li353 O415 1.961 . S
Li354 N399 1.990 . S
Li354 O412 1.961 . S
Li354 O414 1.956 . S
Li354 O415 1.970 . S
Li355 N405 1.990 . S
Li355 O413 1.961 . S
Li355 O414 1.970 . S
Li355 O415 1.956 . S
C356 C358 1.348 . S
C356 C359 1.356 . S
C356 O412 1.325 . S
N357 C360 1.314 . S
N357 C361 1.279 . S
C358 C356 1.348 . S
C358 C360 1.353 . S
C358 H416 0.929 . S
C359 C356 1.356 . S
C359 C361 1.358 . S
C359 H417 0.930 . S
C360 N357 1.314 . S
C360 C358 1.353 . S
C360 H418 0.930 . S
C361 N357 1.279 . S
C361 C359 1.358 . S
C361 H419 0.930 . S
C362 C365 1.348 . S
C362 C366 1.356 . S
C362 O413 1.325 . S
C363 N364 1.279 . S
C363 C366 1.358 . S
C363 H420 0.930 . S
N364 C363 1.279 . S
N364 C367 1.314 . S
C365 C362 1.348 . S
C365 C367 1.353 . S
C365 H421 0.929 . S
C366 C362 1.356 . S
C366 C363 1.358 . S
C366 H422 0.930 . S
C367 N364 1.314 . S
C367 C365 1.353 . S
C367 H423 0.930 . S
C368 N369 1.314 . S
C368 C373 1.353 . S
C368 H374 0.930 . S
N369 Li352 1.990 1_545 S
N369 C368 1.314 . S
N369 C371 1.279 . S
C370 C371 1.358 . S
C370 C372 1.356 . S
C370 H424 0.930 . S
C371 N369 1.279 . S
C371 C370 1.358 . S
C371 H375 0.930 1_545 S
C372 C370 1.356 . S
C372 C373 1.348 . S
C373 C368 1.353 . S
C373 C372 1.348 . S
C373 H425 0.929 . S
H374 C368 0.930 . S
H375 C371 0.930 1_565 S
C376 N377 1.314 . S
C376 C378 1.353 . S
C376 H382 0.930 . S
N377 Li353 1.990 . S
N377 C376 1.314 . S
N377 C380 1.279 . S
C378 C376 1.353 . S
C378 C381 1.348 . S
C378 H426 0.929 . S
C379 C380 1.358 . S
C379 C381 1.356 . S
C379 H427 0.930 . S
C380 N377 1.279 . S
C380 C379 1.358 . S
C380 H383 0.930 . S
C381 C378 1.348 . S
C381 C379 1.356 . S
H382 C376 0.930 . S
H383 C380 0.930 . S
C384 C386 1.348 . S
C384 C387 1.356 . S
C384 O414 1.325 1_545 S
N385 C388 1.314 . S
N385 C389 1.279 . S
C386 C384 1.348 . S
C386 C388 1.353 . S
C386 H428 0.935 . S
C387 C384 1.356 . S
C387 C389 1.358 . S
C387 H429 0.930 . S
C388 N385 1.314 . S
C388 C386 1.353 . S
C388 H430 0.930 . S
C389 N385 1.279 . S
C389 C387 1.358 . S
C389 H431 0.930 . S
C390 C391 1.348 . S
C390 C392 1.356 . S
C390 O415 1.325 . S
C391 C390 1.348 . S
C391 C393 1.353 . S
C391 H432 0.929 . S
C392 C390 1.356 . S
C392 C394 1.358 . S
C392 H433 0.930 . S
C393 C391 1.353 . S
C393 N395 1.314 . S
C393 H434 0.930 . S
C394 C392 1.358 . S
C394 N395 1.279 . S
C394 H435 0.930 . S
N395 C393 1.314 . S
N395 C394 1.279 . S
C396 C398 1.353 . S
C396 N399 1.314 . S
C396 H402 0.930 . S
C397 N399 1.279 . S
C397 C400 1.358 . S
C397 H403 0.930 . S
C398 C396 1.353 . S
C398 C401 1.348 . S
C398 H436 0.929 . S
N399 Li354 1.990 . S
N399 C396 1.314 . S
N399 C397 1.279 . S
C400 C397 1.358 . S
C400 C401 1.356 . S
C400 H437 0.930 . S
C401 C398 1.348 . S
C401 C400 1.356 . S
H402 C396 0.930 . S
H403 C397 0.930 . S
C404 N405 1.314 . S
C404 C406 1.353 . S
C404 H410 0.930 . S
N405 Li355 1.990 . S
N405 C404 1.314 . S
N405 C408 1.279 . S
C406 C404 1.353 . S
C406 C409 1.348 . S
C406 H438 0.958 . S
C407 C408 1.358 . S
C407 C409 1.356 . S
C407 H439 0.930 . S
C408 N405 1.279 . S
C408 C407 1.358 . S
C408 H411 0.930 . S
C409 C406 1.348 . S
C409 C407 1.356 . S
H410 C404 0.930 . S
H411 C408 0.930 . S
O412 Li352 1.956 . S
O412 Li353 1.970 . S
O412 Li354 1.961 . S
O412 C356 1.325 . S
O413 Li352 1.970 . S
O413 Li353 1.956 . S
O413 Li355 1.961 . S
O413 C362 1.325 . S
O414 Li352 1.961 . S
O414 Li354 1.956 . S
O414 Li355 1.970 . S
O414 C384 1.325 1_565 S
O415 Li353 1.961 . S
O415 Li354 1.970 . S
O415 Li355 1.956 . S
O415 C390 1.325 . S
H416 C358 0.929 . S
H417 C359 0.930 . S
H418 C360 0.930 . S
H419 C361 0.930 . S
H420 C363 0.930 . S
H421 C365 0.929 . S
H422 C366 0.930 . S
H423 C367 0.930 . S
H424 C370 0.930 . S
H425 C373 0.929 . S
H426 C378 0.929 . S
H427 C379 0.930 . S
H428 C386 0.935 . S
H429 C387 0.930 . S
H430 C388 0.930 . S
H431 C389 0.930 . S
H432 C391 0.929 . S
H433 C392 0.930 . S
H434 C393 0.930 . S
H435 C394 0.930 . S
H436 C398 0.929 . S
H437 C400 0.930 . S
H438 C406 0.958 . S
H439 C407 0.930 . S
Li440 N457 1.990 . S
Li440 O500 1.956 . S
Li440 O501 1.970 . S
Li440 O502 1.961 . S
Li441 N465 1.990 . S
Li441 O500 1.970 . S
Li441 O501 1.956 . S
Li441 O503 1.961 . S
Li442 N487 1.990 . S
Li442 O500 1.961 . S
Li442 O502 1.956 . S
Li442 O503 1.970 . S
Li443 N493 1.990 . S
Li443 O501 1.961 . S
Li443 O502 1.970 . S
Li443 O503 1.956 . S
C444 C446 1.348 . S
C444 C447 1.356 . S
C444 O500 1.325 . S
N445 C448 1.314 . S
N445 C449 1.279 . S
C446 C444 1.348 . S
C446 C448 1.353 . S
C446 H504 0.929 . S
C447 C444 1.356 . S
C447 C449 1.358 . S
C447 H505 0.930 . S
C448 N445 1.314 . S
C448 C446 1.353 . S
C448 H506 0.930 . S
C449 N445 1.279 . S
C449 C447 1.358 . S
C449 H507 0.930 . S
C450 C453 1.348 . S
C450 C454 1.356 . S
C450 O501 1.325 . S
C451 N452 1.279 . S
C451 C454 1.358 . S
C451 H508 0.930 . S
N452 C451 1.279 . S
N452 C455 1.314 . S
C453 C450 1.348 . S
C453 C455 1.353 . S
C453 H509 0.929 . S
C454 C450 1.356 . S
C454 C451 1.358 . S
C454 H510 0.930 . S
C455 N452 1.314 . S
C455 C453 1.353 . S
C455 H511 0.930 . S
C456 N457 1.314 . S
C456 C461 1.353 . S
C456 H462 0.930 . S
N457 Li440 1.990 . S
N457 C456 1.314 . S
N457 C459 1.279 . S
C458 C459 1.358 . S
C458 C460 1.356 . S
C458 H512 0.930 . S
C459 N457 1.279 . S
C459 C458 1.358 . S
C459 H463 0.930 . S
C460 C458 1.356 . S
C460 C461 1.348 . S
C461 C456 1.353 . S
C461 C460 1.348 . S
C461 H513 0.929 . S
H462 C456 0.930 . S
H463 C459 0.930 . S
C464 N465 1.314 . S
C464 C466 1.353 . S
C464 H470 0.930 . S
N465 Li441 1.990 . S
N465 C464 1.314 . S
N465 C468 1.279 . S
C466 C464 1.353 . S
C466 C469 1.348 . S
C466 H514 0.929 . S
C467 C468 1.358 . S
C467 C469 1.356 . S
C467 H515 0.930 . S
C468 N465 1.279 . S
C468 C467 1.358 . S
C468 H471 0.930 . S
C469 C466 1.348 . S
C469 C467 1.356 . S
H470 C464 0.930 . S
H471 C468 0.930 . S
C472 C474 1.348 . S
C472 C475 1.356 . S
C472 O502 1.325 . S
N473 C476 1.314 . S
N473 C477 1.279 . S
C474 C472 1.348 . S
C474 C476 1.353 . S
C474 H516 0.929 . S
C475 C472 1.356 . S
C475 C477 1.358 . S
C475 H517 0.930 . S
C476 N473 1.314 . S
C476 C474 1.353 . S
C476 H518 0.930 . S
C477 N473 1.279 . S
C477 C475 1.358 . S
C477 H519 0.930 . S
C478 C479 1.348 . S
C478 C480 1.356 . S
C478 O503 1.325 . S
C479 C478 1.348 . S
C479 C481 1.353 . S
C479 H520 0.929 . S
C480 C478 1.356 . S
C480 C482 1.358 . S
C480 H521 0.930 . S
C481 C479 1.353 . S
C481 N483 1.314 . S
C481 H522 0.930 . S
C482 C480 1.358 . S
C482 N483 1.279 . S
C482 H523 0.930 . S
N483 C481 1.314 . S
N483 C482 1.279 . S
C484 C486 1.353 . S
C484 N487 1.314 . S
C484 H490 0.930 . S
C485 N487 1.279 . S
C485 C488 1.358 . S
C485 H491 0.930 . S
C486 C484 1.353 . S
C486 C489 1.348 . S
C486 H524 0.929 . S
N487 Li442 1.990 . S
N487 C484 1.314 . S
N487 C485 1.279 . S
C488 C485 1.358 . S
C488 C489 1.356 . S
C488 H525 0.930 . S
C489 C486 1.348 . S
C489 C488 1.356 . S
H490 C484 0.930 . S
H491 C485 0.930 . S
C492 N493 1.314 . S
C492 C494 1.353 . S
C492 H498 0.930 . S
N493 Li443 1.990 . S
N493 C492 1.314 . S
N493 C496 1.279 . S
C494 C492 1.353 . S
C494 C497 1.348 . S
C494 H526 0.929 . S
C495 C496 1.358 . S
C495 C497 1.356 . S
C495 H527 0.930 . S
C496 N493 1.279 . S
C496 C495 1.358 . S
C496 H499 0.930 . S
C497 C494 1.348 . S
C497 C495 1.356 . S
H498 C492 0.930 . S
H499 C496 0.930 . S
O500 Li440 1.956 . S
O500 Li441 1.970 . S
O500 Li442 1.961 . S
O500 C444 1.325 . S
O501 Li440 1.970 . S
O501 Li441 1.956 . S
O501 Li443 1.961 . S
O501 C450 1.325 . S
O502 Li440 1.961 . S
O502 Li442 1.956 . S
O502 Li443 1.970 . S
O502 C472 1.325 . S
O503 Li441 1.961 . S
O503 Li442 1.970 . S
O503 Li443 1.956 . S
O503 C478 1.325 . S
H504 C446 0.929 . S
H505 C447 0.930 . S
H506 C448 0.930 . S
H507 C449 0.930 . S
H508 C451 0.930 . S
H509 C453 0.929 . S
H510 C454 0.930 . S
H511 C455 0.930 . S
H512 C458 0.930 . S
H513 C461 0.929 . S
H514 C466 0.929 . S
H515 C467 0.930 . S
H516 C474 0.929 . S
H517 C475 0.930 . S
H518 C476 0.930 . S
H519 C477 0.930 . S
H520 C479 0.929 . S
H521 C480 0.930 . S
H522 C481 0.930 . S
H523 C482 0.930 . S
H524 C486 0.929 . S
H525 C488 0.930 . S
H526 C494 0.929 . S
H527 C495 0.930 . S
Li528 N545 1.990 . S
Li528 O588 1.956 . S
Li528 O589 1.970 . S
Li528 O590 1.961 . S
Li529 N553 1.990 1_545 S
Li529 O588 1.970 . S
Li529 O589 1.956 . S
Li529 O591 1.961 . S
Li530 N575 1.990 . S
Li530 O588 1.961 . S
Li530 O590 1.956 . S
Li530 O591 1.970 . S
Li531 N581 1.990 . S
Li531 O589 1.961 . S
Li531 O590 1.970 . S
Li531 O591 1.956 . S
C532 C534 1.348 . S
C532 C535 1.356 . S
C532 O588 1.325 . S
N533 C536 1.314 . S
N533 C537 1.279 . S
C534 C532 1.348 . S
C534 C536 1.353 . S
C534 H592 0.929 . S
C535 C532 1.356 . S
C535 C537 1.358 . S
C535 H593 0.930 . S
C536 N533 1.314 . S
C536 C534 1.353 . S
C536 H594 0.930 . S
C537 N533 1.279 . S
C537 C535 1.358 . S
C537 H595 0.930 . S
C538 C541 1.348 . S
C538 C542 1.356 . S
C538 O589 1.325 . S
C539 N540 1.279 . S
C539 C542 1.358 . S
C539 H596 0.930 . S
N540 C539 1.279 . S
N540 C543 1.314 . S
C541 C538 1.348 . S
C541 C543 1.353 . S
C541 H597 0.929 . S
C542 C538 1.356 . S
C542 C539 1.358 . S
C542 H598 0.930 . S
C543 N540 1.314 . S
C543 C541 1.353 . S
C543 H599 0.930 . S
C544 N545 1.314 . S
C544 C549 1.353 . S
C544 H550 0.930 . S
N545 Li528 1.990 . S
N545 C544 1.314 . S
N545 C547 1.279 . S
C546 C547 1.358 . S
C546 C548 1.356 . S
C546 H600 0.930 . S
C547 N545 1.279 . S
C547 C546 1.358 . S
C547 H551 0.930 . S
C548 C546 1.356 . S
C548 C549 1.348 . S
C549 C544 1.353 . S
C549 C548 1.348 . S
C549 H601 0.929 . S
H550 C544 0.930 . S
H551 C547 0.930 . S
C552 N553 1.314 . S
C552 C554 1.353 . S
C552 H558 0.930 . S
N553 Li529 1.990 1_565 S
N553 C552 1.314 . S
N553 C556 1.279 . S
C554 C552 1.353 . S
C554 C557 1.348 . S
C554 H602 0.929 . S
C555 C556 1.358 . S
C555 C557 1.356 . S
C555 H603 0.930 . S
C556 N553 1.279 . S
C556 C555 1.358 . S
C556 H559 0.930 1_565 S
C557 C554 1.348 . S
C557 C555 1.356 . S
H558 C552 0.930 . S
H559 C556 0.930 1_545 S
C560 C562 1.348 . S
C560 C563 1.356 . S
C560 O590 1.325 . S
N561 C564 1.314 . S
N561 C565 1.279 . S
C562 C560 1.348 . S
C562 C564 1.353 . S
C562 H604 0.929 . S
C563 C560 1.356 . S
C563 C565 1.358 . S
C563 H605 0.930 . S
C564 N561 1.314 . S
C564 C562 1.353 . S
C564 H606 0.930 . S
C565 N561 1.279 . S
C565 C563 1.358 . S
C565 H607 0.930 . S
C566 C567 1.348 . S
C566 C568 1.356 . S
C566 O591 1.325 1_565 S
C567 C566 1.348 . S
C567 C569 1.353 . S
C567 H608 0.935 . S
C568 C566 1.356 . S
C568 C570 1.358 . S
C568 H609 0.930 . S
C569 C567 1.353 . S
C569 N571 1.314 . S
C569 H610 0.930 . S
C570 C568 1.358 . S
C570 N571 1.279 . S
C570 H611 0.930 . S
N571 C569 1.314 . S
N571 C570 1.279 . S
C572 C574 1.353 . S
C572 N575 1.314 . S
C572 H578 0.930 . S
C573 N575 1.279 . S
C573 C576 1.358 . S
C573 H579 0.930 . S
C574 C572 1.353 . S
C574 C577 1.348 . S
C574 H612 0.958 . S
N575 Li530 1.990 . S
N575 C572 1.314 . S
N575 C573 1.279 . S
C576 C573 1.358 . S
C576 C577 1.356 . S
C576 H613 0.930 . S
C577 C574 1.348 . S
C577 C576 1.356 . S
H578 C572 0.930 . S
H579 C573 0.930 . S
C580 N581 1.314 . S
C580 C582 1.353 . S
C580 H586 0.930 . S
N581 Li531 1.990 . S
N581 C580 1.314 . S
N581 C584 1.279 . S
C582 C580 1.353 . S
C582 C585 1.348 1_455 S
C582 H614 0.929 . S
C583 C584 1.358 1_655 S
C583 C585 1.356 . S
C583 H615 0.930 . S
C584 N581 1.279 . S
C584 C583 1.358 1_455 S
C584 H587 0.930 . S
C585 C582 1.348 1_655 S
C585 C583 1.356 . S
H586 C580 0.930 . S
H587 C584 0.930 . S
O588 Li528 1.956 . S
O588 Li529 1.970 . S
O588 Li530 1.961 . S
O588 C532 1.325 . S
O589 Li528 1.970 . S
O589 Li529 1.956 . S
O589 Li531 1.961 . S
O589 C538 1.325 . S
O590 Li528 1.961 . S
O590 Li530 1.956 . S
O590 Li531 1.970 . S
O590 C560 1.325 . S
O591 Li529 1.961 . S
O591 Li530 1.970 . S
O591 Li531 1.956 . S
O591 C566 1.325 1_545 S
H592 C534 0.929 . S
H593 C535 0.930 . S
H594 C536 0.930 . S
H595 C537 0.930 . S
H596 C539 0.930 . S
H597 C541 0.929 . S
H598 C542 0.930 . S
H599 C543 0.930 . S
H600 C546 0.930 . S
H601 C549 0.929 . S
H602 C554 0.929 . S
H603 C555 0.930 . S
H604 C562 0.929 . S
H605 C563 0.930 . S
H606 C564 0.930 . S
H607 C565 0.930 . S
H608 C567 0.935 . S
H609 C568 0.930 . S
H610 C569 0.930 . S
H611 C570 0.930 . S
H612 C574 0.958 . S
H613 C576 0.930 . S
H614 C582 0.929 . S
H615 C583 0.930 . S
Li616 N633 1.990 . S
Li616 O676 1.956 . S
Li616 O677 1.970 . S
Li616 O678 1.961 . S
Li617 N641 1.990 . S
Li617 O676 1.970 . S
Li617 O677 1.956 . S
Li617 O679 1.961 . S
Li618 N663 1.990 . S
Li618 O676 1.961 . S
Li618 O678 1.956 . S
Li618 O679 1.970 . S
Li619 N669 1.990 . S
Li619 O677 1.961 . S
Li619 O678 1.970 . S
Li619 O679 1.956 . S
C620 C622 1.348 . S
C620 C623 1.356 . S
C620 O676 1.325 . S
N621 C624 1.314 . S
N621 C625 1.279 . S
C622 C620 1.348 . S
C622 C624 1.353 . S
C622 H680 0.929 . S
C623 C620 1.356 . S
C623 C625 1.358 . S
C623 H681 0.930 . S
C624 N621 1.314 . S
C624 C622 1.353 . S
C624 H682 0.930 . S
C625 N621 1.279 . S
C625 C623 1.358 . S
C625 H683 0.930 . S
C626 C629 1.348 . S
C626 C630 1.356 . S
C626 O677 1.325 . S
C627 N628 1.279 . S
C627 C630 1.358 . S
C627 H684 0.930 . S
N628 C627 1.279 . S
N628 C631 1.314 . S
C629 C626 1.348 . S
C629 C631 1.353 . S
C629 H685 0.929 . S
C630 C626 1.356 . S
C630 C627 1.358 . S
C630 H686 0.930 . S
C631 N628 1.314 . S
C631 C629 1.353 . S
C631 H687 0.930 . S
C632 N633 1.314 . S
C632 C637 1.353 . S
C632 H638 0.930 . S
N633 Li616 1.990 . S
N633 C632 1.314 . S
N633 C635 1.279 . S
C634 C635 1.358 . S
C634 C636 1.356 . S
C634 H688 0.930 . S
C635 N633 1.279 . S
C635 C634 1.358 . S
C635 H639 0.930 . S
C636 C634 1.356 . S
C636 C637 1.348 . S
C637 C632 1.353 . S
C637 C636 1.348 . S
C637 H689 0.929 . S
H638 C632 0.930 . S
H639 C635 0.930 . S
C640 N641 1.314 . S
C640 C642 1.353 . S
C640 H646 0.930 . S
N641 Li617 1.990 . S
N641 C640 1.314 . S
N641 C644 1.279 . S
C642 C640 1.353 . S
C642 C645 1.348 . S
C642 H690 0.929 . S
C643 C644 1.358 . S
C643 C645 1.356 . S
C643 H691 0.930 . S
C644 N641 1.279 . S
C644 C643 1.358 . S
C644 H647 0.930 . S
C645 C642 1.348 . S
C645 C643 1.356 . S
H646 C640 0.930 . S
H647 C644 0.930 . S
C648 C650 1.348 . S
C648 C651 1.356 . S
C648 O678 1.325 . S
N649 C652 1.314 . S
N649 C653 1.279 . S
C650 C648 1.348 . S
C650 C652 1.353 . S
C650 H692 0.929 . S
C651 C648 1.356 . S
C651 C653 1.358 . S
C651 H693 0.930 . S
C652 N649 1.314 . S
C652 C650 1.353 . S
C652 H694 0.930 . S
C653 N649 1.279 . S
C653 C651 1.358 . S
C653 H695 0.930 . S
C654 C655 1.348 . S
C654 C656 1.356 . S
C654 O679 1.325 . S
C655 C654 1.348 . S
C655 C657 1.353 . S
C655 H696 0.929 . S
C656 C654 1.356 . S
C656 C658 1.358 . S
C656 H697 0.930 . S
C657 C655 1.353 . S
C657 N659 1.314 . S
C657 H698 0.930 . S
C658 C656 1.358 . S
C658 N659 1.279 . S
C658 H699 0.930 . S
N659 C657 1.314 . S
N659 C658 1.279 . S
C660 C662 1.353 . S
C660 N663 1.314 . S
C660 H666 0.930 . S
C661 N663 1.279 . S
C661 C664 1.358 . S
C661 H667 0.930 . S
C662 C660 1.353 . S
C662 C665 1.348 . S
C662 H700 0.929 . S
N663 Li618 1.990 . S
N663 C660 1.314 . S
N663 C661 1.279 . S
C664 C661 1.358 . S
C664 C665 1.356 . S
C664 H701 0.930 . S
C665 C662 1.348 . S
C665 C664 1.356 . S
H666 C660 0.930 . S
H667 C661 0.930 . S
C668 N669 1.314 . S
C668 C670 1.353 . S
C668 H674 0.930 . S
N669 Li619 1.990 . S
N669 C668 1.314 . S
N669 C672 1.279 . S
C670 C668 1.353 . S
C670 C673 1.348 . S
C670 H702 0.929 . S
C671 C672 1.358 . S
C671 C673 1.356 . S
C671 H703 0.930 . S
C672 N669 1.279 . S
C672 C671 1.358 . S
C672 H675 0.930 . S
C673 C670 1.348 . S
C673 C671 1.356 . S
H674 C668 0.930 . S
H675 C672 0.930 . S
O676 Li616 1.956 . S
O676 Li617 1.970 . S
O676 Li618 1.961 . S
O676 C620 1.325 . S
O677 Li616 1.970 . S
O677 Li617 1.956 . S
O677 Li619 1.961 . S
O677 C626 1.325 . S
O678 Li616 1.961 . S
O678 Li618 1.956 . S
O678 Li619 1.970 . S
O678 C648 1.325 . S
O679 Li617 1.961 . S
O679 Li618 1.970 . S
O679 Li619 1.956 . S
O679 C654 1.325 . S
H680 C622 0.929 . S
H681 C623 0.930 . S
H682 C624 0.930 . S
H683 C625 0.930 . S
H684 C627 0.930 . S
H685 C629 0.929 . S
H686 C630 0.930 . S
H687 C631 0.930 . S
H688 C634 0.930 . S
H689 C637 0.929 . S
H690 C642 0.929 . S
H691 C643 0.930 . S
H692 C650 0.929 . S
H693 C651 0.930 . S
H694 C652 0.930 . S
H695 C653 0.930 . S
H696 C655 0.929 . S
H697 C656 0.930 . S
H698 C657 0.930 . S
H699 C658 0.930 . S
H700 C662 0.929 . S
H701 C664 0.930 . S
H702 C670 0.929 . S
H703 C671 0.930 . S
Li704 N721 1.990 . S
Li704 O764 1.956 . S
Li704 O765 1.970 . S
Li704 O766 1.961 . S
Li705 N729 1.990 1_565 S
Li705 O764 1.970 . S
Li705 O765 1.956 . S
Li705 O767 1.961 . S
Li706 N751 1.990 . S
Li706 O764 1.961 . S
Li706 O766 1.956 . S
Li706 O767 1.970 . S
Li707 N757 1.990 . S
Li707 O765 1.961 . S
Li707 O766 1.970 . S
Li707 O767 1.956 . S
C708 C710 1.348 . S
C708 C711 1.356 . S
C708 O764 1.325 . S
N709 C712 1.314 . S
N709 C713 1.279 . S
C710 C708 1.348 . S
C710 C712 1.353 . S
C710 H768 0.929 . S
C711 C708 1.356 . S
C711 C713 1.358 . S
C711 H769 0.930 . S
C712 N709 1.314 . S
C712 C710 1.353 . S
C712 H770 0.930 . S
C713 N709 1.279 . S
C713 C711 1.358 . S
C713 H771 0.930 . S
C714 C717 1.348 . S
C714 C718 1.356 . S
C714 O765 1.325 1_545 S
C715 N716 1.279 . S
C715 C718 1.358 . S
C715 H772 0.930 . S
N716 C715 1.279 . S
N716 C719 1.314 . S
C717 C714 1.348 . S
C717 C719 1.353 . S
C717 H773 0.929 . S
C718 C714 1.356 . S
C718 C715 1.358 . S
C718 H774 0.930 . S
C719 N716 1.314 . S
C719 C717 1.353 . S
C719 H775 0.930 . S
C720 N721 1.314 . S
C720 C725 1.353 . S
C720 H726 0.930 . S
N721 Li704 1.990 . S
N721 C720 1.314 . S
N721 C723 1.279 . S
C722 C723 1.358 . S
C722 C724 1.356 . S
C722 H776 0.930 . S
C723 N721 1.279 . S
C723 C722 1.358 . S
C723 H727 0.930 . S
C724 C722 1.356 . S
C724 C725 1.348 . S
C725 C720 1.353 . S
C725 C724 1.348 . S
C725 H777 0.929 . S
H726 C720 0.930 . S
H727 C723 0.930 . S
C728 N729 1.314 . S
C728 C730 1.353 . S
C728 H734 0.930 1_545 S
N729 Li705 1.990 1_545 S
N729 C728 1.314 . S
N729 C732 1.279 . S
C730 C728 1.353 . S
C730 C733 1.348 . S
C730 H778 0.929 . S
C731 C732 1.358 . S
C731 C733 1.356 . S
C731 H779 0.930 . S
C732 N729 1.279 . S
C732 C731 1.358 . S
C732 H735 0.930 . S
C733 C730 1.348 . S
C733 C731 1.356 . S
H734 C728 0.930 1_565 S
H735 C732 0.930 . S
C736 C738 1.348 . S
C736 C739 1.356 . S
C736 O766 1.325 . S
N737 C740 1.314 . S
N737 C741 1.279 . S
C738 C736 1.348 . S
C738 C740 1.353 . S
C738 H780 0.929 . S
C739 C736 1.356 . S
C739 C741 1.358 . S
C739 H781 0.930 . S
C740 N737 1.314 . S
C740 C738 1.353 . S
C740 H782 0.930 . S
C741 N737 1.279 . S
C741 C739 1.358 . S
C741 H783 0.930 . S
C742 C743 1.348 . S
C742 C744 1.356 . S
C742 O767 1.325 . S
C743 C742 1.348 . S
C743 C745 1.353 . S
C743 H784 0.929 . S
C744 C742 1.356 . S
C744 C746 1.358 . S
C744 H785 0.930 . S
C745 C743 1.353 . S
C745 N747 1.314 . S
C745 H786 0.930 . S
C746 C744 1.358 . S
C746 N747 1.279 . S
C746 H787 0.930 . S
N747 C745 1.314 . S
N747 C746 1.279 . S
C748 C750 1.353 . S
C748 N751 1.314 . S
C748 H754 0.930 . S
C749 N751 1.279 . S
C749 C752 1.358 . S
C749 H755 0.930 . S
C750 C748 1.353 . S
C750 C753 1.348 . S
C750 H788 0.929 . S
N751 Li706 1.990 . S
N751 C748 1.314 . S
N751 C749 1.279 . S
C752 C749 1.358 . S
C752 C753 1.356 . S
C752 H789 0.930 . S
C753 C750 1.348 . S
C753 C752 1.356 . S
H754 C748 0.930 . S
H755 C749 0.930 . S
C756 N757 1.314 . S
C756 C758 1.353 . S
C756 H762 0.930 . S
N757 Li707 1.990 . S
N757 C756 1.314 . S
N757 C760 1.279 . S
C758 C756 1.353 . S
C758 C761 1.348 . S
C758 H790 0.929 . S
C759 C760 1.358 . S
C759 C761 1.356 . S
C759 H791 0.930 . S
C760 N757 1.279 . S
C760 C759 1.358 . S
C760 H763 0.930 . S
C761 C758 1.348 . S
C761 C759 1.356 . S
H762 C756 0.930 . S
H763 C760 0.930 . S
O764 Li704 1.956 . S
O764 Li705 1.970 . S
O764 Li706 1.961 . S
O764 C708 1.325 . S
O765 Li704 1.970 . S
O765 Li705 1.956 . S
O765 Li707 1.961 . S
O765 C714 1.325 1_565 S
O766 Li704 1.961 . S
O766 Li706 1.956 . S
O766 Li707 1.970 . S
O766 C736 1.325 . S
O767 Li705 1.961 . S
O767 Li706 1.970 . S
O767 Li707 1.956 . S
O767 C742 1.325 . S
H768 C710 0.929 . S
H769 C711 0.930 . S
H770 C712 0.930 . S
H771 C713 0.930 . S
H772 C715 0.930 . S
H773 C717 0.929 . S
H774 C718 0.930 . S
H775 C719 0.930 . S
H776 C722 0.930 . S
H777 C725 0.929 . S
H778 C730 0.929 . S
H779 C731 0.930 . S
H780 C738 0.929 . S
H781 C739 0.930 . S
H782 C740 0.930 . S
H783 C741 0.930 . S
H784 C743 0.929 . S
H785 C744 0.930 . S
H786 C745 0.930 . S
H787 C746 0.930 . S
H788 C750 0.929 . S
H789 C752 0.930 . S
H790 C758 0.929 . S
H791 C759 0.930 . S
Li792 N809 1.990 . S
Li792 O852 1.956 . S
Li792 O853 1.970 . S
Li792 O854 1.961 . S
Li793 N817 1.990 . S
Li793 O852 1.970 . S
Li793 O853 1.956 . S
Li793 O855 1.961 . S
Li794 N839 1.990 . S
Li794 O852 1.961 . S
Li794 O854 1.956 . S
Li794 O855 1.970 . S
Li795 N845 1.990 . S
Li795 O853 1.961 . S
Li795 O854 1.970 . S
Li795 O855 1.956 . S
C796 C798 1.348 . S
C796 C799 1.356 . S
C796 O852 1.325 . S
N797 C800 1.314 . S
N797 C801 1.279 . S
C798 C796 1.348 . S
C798 C800 1.353 . S
C798 H856 0.929 . S
C799 C796 1.356 . S
C799 C801 1.358 . S
C799 H857 0.930 . S
C800 N797 1.314 . S
C800 C798 1.353 . S
C800 H858 0.930 . S
C801 N797 1.279 . S
C801 C799 1.358 . S
C801 H859 0.930 . S
C802 C805 1.348 . S
C802 C806 1.356 . S
C802 O853 1.325 . S
C803 N804 1.279 . S
C803 C806 1.358 . S
C803 H860 0.930 . S
N804 C803 1.279 . S
N804 C807 1.314 . S
C805 C802 1.348 . S
C805 C807 1.353 . S
C805 H861 0.929 . S
C806 C802 1.356 . S
C806 C803 1.358 . S
C806 H862 0.930 . S
C807 N804 1.314 . S
C807 C805 1.353 . S
C807 H863 0.930 . S
C808 N809 1.314 . S
C808 C813 1.353 . S
C808 H814 0.930 . S
N809 Li792 1.990 . S
N809 C808 1.314 . S
N809 C811 1.279 . S
C810 C811 1.358 . S
C810 C812 1.356 . S
C810 H864 0.930 . S
C811 N809 1.279 . S
C811 C810 1.358 . S
C811 H815 0.930 . S
C812 C810 1.356 . S
C812 C813 1.348 . S
C813 C808 1.353 . S
C813 C812 1.348 . S
C813 H865 0.929 . S
H814 C808 0.930 . S
H815 C811 0.930 . S
C816 N817 1.314 . S
C816 C818 1.353 . S
C816 H822 0.930 . S
N817 Li793 1.990 . S
N817 C816 1.314 . S
N817 C820 1.279 . S
C818 C816 1.353 . S
C818 C821 1.348 . S
C818 H866 0.929 . S
C819 C820 1.358 . S
C819 C821 1.356 . S
C819 H867 0.930 . S
C820 N817 1.279 . S
C820 C819 1.358 . S
C820 H823 0.930 . S
C821 C818 1.348 . S
C821 C819 1.356 . S
H822 C816 0.930 . S
H823 C820 0.930 . S
C824 C826 1.348 . S
C824 C827 1.356 . S
C824 O854 1.325 . S
N825 C828 1.314 . S
N825 C829 1.279 . S
C826 C824 1.348 . S
C826 C828 1.353 . S
C826 H868 0.929 . S
C827 C824 1.356 . S
C827 C829 1.358 . S
C827 H869 0.930 . S
C828 N825 1.314 . S
C828 C826 1.353 . S
C828 H870 0.930 . S
C829 N825 1.279 . S
C829 C827 1.358 . S
C829 H871 0.930 . S
C830 C831 1.348 . S
C830 C832 1.356 . S
C830 O855 1.325 . S
C831 C830 1.348 . S
C831 C833 1.353 . S
C831 H872 0.929 . S
C832 C830 1.356 . S
C832 C834 1.358 . S
C832 H873 0.930 . S
C833 C831 1.353 . S
C833 N835 1.314 . S
C833 H874 0.930 . S
C834 C832 1.358 . S
C834 N835 1.279 . S
C834 H875 0.930 . S
N835 C833 1.314 . S
N835 C834 1.279 . S
C836 C838 1.353 . S
C836 N839 1.314 . S
C836 H842 0.930 . S
C837 N839 1.279 . S
C837 C840 1.358 . S
C837 H843 0.930 . S
C838 C836 1.353 . S
C838 C841 1.348 . S
C838 H876 0.929 . S
N839 Li794 1.990 . S
N839 C836 1.314 . S
N839 C837 1.279 . S
C840 C837 1.358 . S
C840 C841 1.356 . S
C840 H877 0.930 . S
C841 C838 1.348 . S
C841 C840 1.356 . S
H842 C836 0.930 . S
H843 C837 0.930 . S
C844 N845 1.314 . S
C844 C846 1.353 . S
C844 H850 0.930 . S
N845 Li795 1.990 . S
N845 C844 1.314 . S
N845 C848 1.279 . S
C846 C844 1.353 . S
C846 C849 1.348 . S
C846 H878 0.929 . S
C847 C848 1.358 . S
C847 C849 1.356 . S
C847 H879 0.930 . S
C848 N845 1.279 . S
C848 C847 1.358 . S
C848 H851 0.930 . S
C849 C846 1.348 . S
C849 C847 1.356 . S
H850 C844 0.930 . S
H851 C848 0.930 . S
O852 Li792 1.956 . S
O852 Li793 1.970 . S
O852 Li794 1.961 . S
O852 C796 1.325 . S
O853 Li792 1.970 . S
O853 Li793 1.956 . S
O853 Li795 1.961 . S
O853 C802 1.325 . S
O854 Li792 1.961 . S
O854 Li794 1.956 . S
O854 Li795 1.970 . S
O854 C824 1.325 . S
O855 Li793 1.961 . S
O855 Li794 1.970 . S
O855 Li795 1.956 . S
O855 C830 1.325 . S
H856 C798 0.929 . S
H857 C799 0.930 . S
H858 C800 0.930 . S
H859 C801 0.930 . S
H860 C803 0.930 . S
H861 C805 0.929 . S
H862 C806 0.930 . S
H863 C807 0.930 . S
H864 C810 0.930 . S
H865 C813 0.929 . S
H866 C818 0.929 . S
H867 C819 0.930 . S
H868 C826 0.929 . S
H869 C827 0.930 . S
H870 C828 0.930 . S
H871 C829 0.930 . S
H872 C831 0.929 . S
H873 C832 0.930 . S
H874 C833 0.930 . S
H875 C834 0.930 . S
H876 C838 0.929 . S
H877 C840 0.930 . S
H878 C846 0.929 . S
H879 C847 0.930 . S
Li880 N897 1.990 . S
Li880 O940 1.956 . S
Li880 O941 1.970 . S
Li880 O942 1.961 . S
Li881 N905 1.990 . S
Li881 O940 1.970 . S
Li881 O941 1.956 . S
Li881 O943 1.961 . S
Li882 N927 1.990 . S
Li882 O940 1.961 . S
Li882 O942 1.956 . S
Li882 O943 1.970 . S
Li883 N933 1.990 1_545 S
Li883 O941 1.961 . S
Li883 O942 1.970 . S
Li883 O943 1.956 . S
C884 C886 1.348 . S
C884 C887 1.356 . S
C884 O940 1.325 . S
N885 C888 1.314 . S
N885 C889 1.279 . S
C886 C884 1.348 . S
C886 C888 1.353 . S
C886 H944 0.929 . S
C887 C884 1.356 . S
C887 C889 1.358 . S
C887 H945 0.930 . S
C888 N885 1.314 . S
C888 C886 1.353 . S
C888 H946 0.930 . S
C889 N885 1.279 . S
C889 C887 1.358 . S
C889 H947 0.930 . S
C890 C893 1.348 . S
C890 C894 1.356 . S
C890 O941 1.325 . S
C891 N892 1.279 . S
C891 C894 1.358 . S
C891 H948 0.930 . S
N892 C891 1.279 . S
N892 C895 1.314 . S
C893 C890 1.348 . S
C893 C895 1.353 . S
C893 H949 0.929 . S
C894 C890 1.356 . S
C894 C891 1.358 . S
C894 H950 0.930 . S
C895 N892 1.314 . S
C895 C893 1.353 . S
C895 H951 0.930 . S
C896 N897 1.314 . S
C896 C901 1.353 . S
C896 H902 0.930 . S
N897 Li880 1.990 . S
N897 C896 1.314 . S
N897 C899 1.279 . S
C898 C899 1.358 . S
C898 C900 1.356 . S
C898 H952 0.930 . S
C899 N897 1.279 . S
C899 C898 1.358 . S
C899 H903 0.930 . S
C900 C898 1.356 . S
C900 C901 1.348 . S
C901 C896 1.353 . S
C901 C900 1.348 . S
C901 H953 0.929 . S
H902 C896 0.930 . S
H903 C899 0.930 . S
C904 N905 1.314 . S
C904 C906 1.353 1_655 S
C904 H910 0.930 . S
N905 Li881 1.990 . S
N905 C904 1.314 . S
N905 C908 1.279 . S
C906 C904 1.353 1_455 S
C906 C909 1.348 . S
C906 H954 0.929 . S
C907 C908 1.358 . S
C907 C909 1.356 1_655 S
C907 H955 0.930 . S
C908 N905 1.279 . S
C908 C907 1.358 . S
C908 H911 0.930 . S
C909 C906 1.348 . S
C909 C907 1.356 1_455 S
H910 C904 0.930 . S
H911 C908 0.930 . S
C912 C914 1.348 . S
C912 C915 1.356 . S
C912 O942 1.325 . S
N913 C916 1.314 . S
N913 C917 1.279 . S
C914 C912 1.348 . S
C914 C916 1.353 . S
C914 H956 0.929 . S
C915 C912 1.356 . S
C915 C917 1.358 . S
C915 H957 0.930 . S
C916 N913 1.314 . S
C916 C914 1.353 . S
C916 H958 0.930 . S
C917 N913 1.279 . S
C917 C915 1.358 . S
C917 H959 0.930 . S
C918 C919 1.348 . S
C918 C920 1.356 . S
C918 O943 1.325 1_565 S
C919 C918 1.348 . S
C919 C921 1.353 . S
C919 H960 0.929 . S
C920 C918 1.356 . S
C920 C922 1.358 . S
C920 H961 0.930 . S
C921 C919 1.353 . S
C921 N923 1.314 . S
C921 H962 0.930 . S
C922 C920 1.358 . S
C922 N923 1.279 . S
C922 H963 0.930 . S
N923 C921 1.314 . S
N923 C922 1.279 . S
C924 C926 1.353 . S
C924 N927 1.314 . S
C924 H930 0.930 . S
C925 N927 1.279 . S
C925 C928 1.358 . S
C925 H931 0.930 . S
C926 C924 1.353 . S
C926 C929 1.348 . S
C926 H964 0.929 . S
N927 Li882 1.990 . S
N927 C924 1.314 . S
N927 C925 1.279 . S
C928 C925 1.358 . S
C928 C929 1.356 . S
C928 H965 0.930 . S
C929 C926 1.348 . S
C929 C928 1.356 . S
H930 C924 0.930 . S
H931 C925 0.930 . S
C932 N933 1.314 . S
C932 C934 1.353 . S
C932 H938 0.930 1_565 S
N933 Li883 1.990 1_565 S
N933 C932 1.314 . S
N933 C936 1.279 . S
C934 C932 1.353 . S
C934 C937 1.348 . S
C934 H966 0.929 . S
C935 C936 1.358 . S
C935 C937 1.356 . S
C935 H967 0.930 . S
C936 N933 1.279 . S
C936 C935 1.358 . S
C936 H939 0.930 . S
C937 C934 1.348 . S
C937 C935 1.356 . S
H938 C932 0.930 1_545 S
H939 C936 0.930 . S
O940 Li880 1.956 . S
O940 Li881 1.970 . S
O940 Li882 1.961 . S
O940 C884 1.325 . S
O941 Li880 1.970 . S
O941 Li881 1.956 . S
O941 Li883 1.961 . S
O941 C890 1.325 . S
O942 Li880 1.961 . S
O942 Li882 1.956 . S
O942 Li883 1.970 . S
O942 C912 1.325 . S
O943 Li881 1.961 . S
O943 Li882 1.970 . S
O943 Li883 1.956 . S
O943 C918 1.325 1_545 S
H944 C886 0.929 . S
H945 C887 0.930 . S
H946 C888 0.930 . S
H947 C889 0.930 . S
H948 C891 0.930 . S
H949 C893 0.929 . S
H950 C894 0.930 . S
H951 C895 0.930 . S
H952 C898 0.930 . S
H953 C901 0.929 . S
H954 C906 0.929 . S
H955 C907 0.930 . S
H956 C914 0.929 . S
H957 C915 0.930 . S
H958 C916 0.930 . S
H959 C917 0.930 . S
H960 C919 0.929 . S
H961 C920 0.930 . S
H962 C921 0.930 . S
H963 C922 0.930 . S
H964 C926 0.929 . S
H965 C928 0.930 . S
H966 C934 0.929 . S
H967 C935 0.930 . S
Li968 N985 1.990 . S
Li968 O1028 1.956 . S
Li968 O1029 1.970 . S
Li968 O1030 1.961 . S
Li969 N993 1.990 . S
Li969 O1028 1.970 . S
Li969 O1029 1.956 . S
Li969 O1031 1.961 . S
Li970 N1015 1.990 . S
Li970 O1028 1.961 . S
Li970 O1030 1.956 . S
Li970 O1031 1.970 . S
Li971 N1021 1.990 . S
Li971 O1029 1.961 . S
Li971 O1030 1.970 . S
Li971 O1031 1.956 . S
C972 C974 1.348 . S
C972 C975 1.356 . S
C972 O1028 1.325 . S
N973 C976 1.314 . S
N973 C977 1.279 . S
C974 C972 1.348 . S
C974 C976 1.353 . S
C974 H1032 0.929 . S
C975 C972 1.356 . S
C975 C977 1.358 . S
C975 H1033 0.930 . S
C976 N973 1.314 . S
C976 C974 1.353 . S
C976 H1034 0.930 . S
C977 N973 1.279 . S
C977 C975 1.358 . S
C977 H1035 0.930 . S
C978 C981 1.348 . S
C978 C982 1.356 . S
C978 O1029 1.325 . S
C979 N980 1.279 . S
C979 C982 1.358 . S
C979 H1036 0.930 . S
N980 C979 1.279 . S
N980 C983 1.314 . S
C981 C978 1.348 . S
C981 C983 1.353 . S
C981 H1037 0.929 . S
C982 C978 1.356 . S
C982 C979 1.358 . S
C982 H1038 0.930 . S
C983 N980 1.314 . S
C983 C981 1.353 . S
C983 H1039 0.930 . S
C984 N985 1.314 . S
C984 C989 1.353 . S
C984 H990 0.930 . S
N985 Li968 1.990 . S
N985 C984 1.314 . S
N985 C987 1.279 . S
C986 C987 1.358 . S
C986 C988 1.356 . S
C986 H1040 0.930 . S
C987 N985 1.279 . S
C987 C986 1.358 . S
C987 H991 0.930 . S
C988 C986 1.356 . S
C988 C989 1.348 . S
C989 C984 1.353 . S
C989 C988 1.348 . S
C989 H1041 0.929 . S
H990 C984 0.930 . S
H991 C987 0.930 . S
C992 N993 1.314 . S
C992 C994 1.353 . S
C992 H998 0.930 . S
N993 Li969 1.990 . S
N993 C992 1.314 . S
N993 C996 1.279 . S
C994 C992 1.353 . S
C994 C997 1.348 . S
C994 H1042 0.929 . S
C995 C996 1.358 . S
C995 C997 1.356 . S
C995 H1043 0.930 . S
C996 N993 1.279 . S
C996 C995 1.358 . S
C996 H999 0.930 . S
C997 C994 1.348 . S
C997 C995 1.356 . S
H998 C992 0.930 . S
H999 C996 0.930 . S
C1000 C1002 1.348 . S
C1000 C1003 1.356 . S
C1000 O1030 1.325 . S
N1001 C1004 1.314 . S
N1001 C1005 1.279 . S
C1002 C1000 1.348 . S
C1002 C1004 1.353 . S
C1002 H1044 0.929 . S
C1003 C1000 1.356 . S
C1003 C1005 1.358 . S
C1003 H1045 0.930 . S
C1004 N1001 1.314 . S
C1004 C1002 1.353 . S
C1004 H1046 0.930 . S
C1005 N1001 1.279 . S
C1005 C1003 1.358 . S
C1005 H1047 0.930 . S
C1006 C1007 1.348 . S
C1006 C1008 1.356 . S
C1006 O1031 1.325 . S
C1007 C1006 1.348 . S
C1007 C1009 1.353 . S
C1007 H1048 0.929 . S
C1008 C1006 1.356 . S
C1008 C1010 1.358 . S
C1008 H1049 0.930 . S
C1009 C1007 1.353 . S
C1009 N1011 1.314 . S
C1009 H1050 0.930 . S
C1010 C1008 1.358 . S
C1010 N1011 1.279 . S
C1010 H1051 0.930 . S
N1011 C1009 1.314 . S
N1011 C1010 1.279 . S
C1012 C1014 1.353 . S
C1012 N1015 1.314 . S
C1012 H1018 0.930 . S
C1013 N1015 1.279 . S
C1013 C1016 1.358 . S
C1013 H1019 0.930 . S
C1014 C1012 1.353 . S
C1014 C1017 1.348 . S
C1014 H1052 0.929 . S
N1015 Li970 1.990 . S
N1015 C1012 1.314 . S
N1015 C1013 1.279 . S
C1016 C1013 1.358 . S
C1016 C1017 1.356 . S
C1016 H1053 0.930 . S
C1017 C1014 1.348 . S
C1017 C1016 1.356 . S
H1018 C1012 0.930 . S
H1019 C1013 0.930 . S
C1020 N1021 1.314 . S
C1020 C1022 1.353 . S
C1020 H1026 0.930 . S
N1021 Li971 1.990 . S
N1021 C1020 1.314 . S
N1021 C1024 1.279 . S
C1022 C1020 1.353 . S
C1022 C1025 1.348 . S
C1022 H1054 0.929 . S
C1023 C1024 1.358 . S
C1023 C1025 1.356 . S
C1023 H1055 0.930 . S
C1024 N1021 1.279 . S
C1024 C1023 1.358 . S
C1024 H1027 0.930 . S
C1025 C1022 1.348 . S
C1025 C1023 1.356 . S
H1026 C1020 0.930 . S
H1027 C1024 0.930 . S
O1028 Li968 1.956 . S
O1028 Li969 1.970 . S
O1028 Li970 1.961 . S
O1028 C972 1.325 . S
O1029 Li968 1.970 . S
O1029 Li969 1.956 . S
O1029 Li971 1.961 . S
O1029 C978 1.325 . S
O1030 Li968 1.961 . S
O1030 Li970 1.956 . S
O1030 Li971 1.970 . S
O1030 C1000 1.325 . S
O1031 Li969 1.961 . S
O1031 Li970 1.970 . S
O1031 Li971 1.956 . S
O1031 C1006 1.325 . S
H1032 C974 0.929 . S
H1033 C975 0.930 . S
H1034 C976 0.930 . S
H1035 C977 0.930 . S
H1036 C979 0.930 . S
H1037 C981 0.929 . S
H1038 C982 0.930 . S
H1039 C983 0.930 . S
H1040 C986 0.930 . S
H1041 C989 0.929 . S
H1042 C994 0.929 . S
H1043 C995 0.930 . S
H1044 C1002 0.929 . S
H1045 C1003 0.930 . S
H1046 C1004 0.930 . S
H1047 C1005 0.930 . S
H1048 C1007 0.929 . S
H1049 C1008 0.930 . S
H1050 C1009 0.930 . S
H1051 C1010 0.930 . S
H1052 C1014 0.929 . S
H1053 C1016 0.930 . S
H1054 C1022 0.929 . S
H1055 C1023 0.930 . S
Li1056 N1073 1.990 . S
Li1056 O1116 1.956 . S
Li1056 O1117 1.970 . S
Li1056 O1118 1.961 . S
Li1057 N1081 1.990 . S
Li1057 O1116 1.970 . S
Li1057 O1117 1.956 . S
Li1057 O1119 1.961 . S
Li1058 N1103 1.990 1_545 S
Li1058 O1116 1.961 . S
Li1058 O1118 1.956 . S
Li1058 O1119 1.970 . S
Li1059 N1109 1.990 . S
Li1059 O1117 1.961 . S
Li1059 O1118 1.970 . S
Li1059 O1119 1.956 . S
C1060 C1062 1.348 . S
C1060 C1063 1.356 . S
C1060 O1116 1.325 . S
N1061 C1064 1.314 . S
N1061 C1065 1.279 . S
C1062 C1060 1.348 . S
C1062 C1064 1.353 . S
C1062 H1120 0.929 . S
C1063 C1060 1.356 . S
C1063 C1065 1.358 . S
C1063 H1121 0.930 . S
C1064 N1061 1.314 . S
C1064 C1062 1.353 . S
C1064 H1122 0.930 . S
C1065 N1061 1.279 . S
C1065 C1063 1.358 . S
C1065 H1123 0.930 . S
C1066 C1069 1.348 . S
C1066 C1070 1.356 . S
C1066 O1117 1.325 . S
C1067 N1068 1.279 . S
C1067 C1070 1.358 . S
C1067 H1124 0.930 . S
N1068 C1067 1.279 . S
N1068 C1071 1.314 . S
C1069 C1066 1.348 . S
C1069 C1071 1.353 . S
C1069 H1125 0.929 . S
C1070 C1066 1.356 . S
C1070 C1067 1.358 . S
C1070 H1126 0.930 . S
C1071 N1068 1.314 . S
C1071 C1069 1.353 . S
C1071 H1127 0.930 . S
C1072 N1073 1.314 . S
C1072 C1077 1.353 . S
C1072 H1078 0.930 . S
N1073 Li1056 1.990 . S
N1073 C1072 1.314 . S
N1073 C1075 1.279 . S
C1074 C1075 1.358 . S
C1074 C1076 1.356 . S
C1074 H1128 0.930 . S
C1075 N1073 1.279 . S
C1075 C1074 1.358 . S
C1075 H1079 0.930 . S
C1076 C1074 1.356 . S
C1076 C1077 1.348 . S
C1077 C1072 1.353 . S
C1077 C1076 1.348 . S
C1077 H1129 0.929 . S
H1078 C1072 0.930 . S
H1079 C1075 0.930 . S
C1080 N1081 1.314 . S
C1080 C1082 1.353 . S
C1080 H1086 0.930 . S
N1081 Li1057 1.990 . S
N1081 C1080 1.314 . S
N1081 C1084 1.279 . S
C1082 C1080 1.353 . S
C1082 C1085 1.348 . S
C1082 H1130 0.929 . S
C1083 C1084 1.358 . S
C1083 C1085 1.356 . S
C1083 H1131 0.930 . S
C1084 N1081 1.279 . S
C1084 C1083 1.358 . S
C1084 H1087 0.930 . S
C1085 C1082 1.348 . S
C1085 C1083 1.356 . S
H1086 C1080 0.930 . S
H1087 C1084 0.930 . S
C1088 C1090 1.348 . S
C1088 C1091 1.356 . S
C1088 O1118 1.325 1_565 S
N1089 C1092 1.314 . S
N1089 C1093 1.279 . S
C1090 C1088 1.348 . S
C1090 C1092 1.353 . S
C1090 H1132 0.929 . S
C1091 C1088 1.356 . S
C1091 C1093 1.358 . S
C1091 H1133 0.930 . S
C1092 N1089 1.314 . S
C1092 C1090 1.353 . S
C1092 H1134 0.930 . S
C1093 N1089 1.279 . S
C1093 C1091 1.358 . S
C1093 H1135 0.930 . S
C1094 C1095 1.348 . S
C1094 C1096 1.356 . S
C1094 O1119 1.325 . S
C1095 C1094 1.348 . S
C1095 C1097 1.353 . S
C1095 H1136 0.929 . S
C1096 C1094 1.356 . S
C1096 C1098 1.358 . S
C1096 H1137 0.930 . S
C1097 C1095 1.353 . S
C1097 N1099 1.314 . S
C1097 H1138 0.930 . S
C1098 C1096 1.358 . S
C1098 N1099 1.279 . S
C1098 H1139 0.930 . S
N1099 C1097 1.314 . S
N1099 C1098 1.279 . S
C1100 C1102 1.353 . S
C1100 N1103 1.314 . S
C1100 H1106 0.930 1_565 S
C1101 N1103 1.279 . S
C1101 C1104 1.358 . S
C1101 H1107 0.930 . S
C1102 C1100 1.353 . S
C1102 C1105 1.348 . S
C1102 H1140 0.929 . S
N1103 Li1058 1.990 1_565 S
N1103 C1100 1.314 . S
N1103 C1101 1.279 . S
C1104 C1101 1.358 . S
C1104 C1105 1.356 . S
C1104 H1141 0.930 . S
C1105 C1102 1.348 . S
C1105 C1104 1.356 . S
H1106 C1100 0.930 1_545 S
H1107 C1101 0.930 . S
C1108 N1109 1.314 . S
C1108 C1110 1.353 . S
C1108 H1114 0.930 . S
N1109 Li1059 1.990 . S
N1109 C1108 1.314 . S
N1109 C1112 1.279 . S
C1110 C1108 1.353 . S
C1110 C1113 1.348 . S
C1110 H1142 0.929 . S
C1111 C1112 1.358 . S
C1111 C1113 1.356 . S
C1111 H1143 0.930 . S
C1112 N1109 1.279 . S
C1112 C1111 1.358 . S
C1112 H1115 0.930 . S
C1113 C1110 1.348 . S
C1113 C1111 1.356 . S
H1114 C1108 0.930 . S
H1115 C1112 0.930 . S
O1116 Li1056 1.956 . S
O1116 Li1057 1.970 . S
O1116 Li1058 1.961 . S
O1116 C1060 1.325 . S
O1117 Li1056 1.970 . S
O1117 Li1057 1.956 . S
O1117 Li1059 1.961 . S
O1117 C1066 1.325 . S
O1118 Li1056 1.961 . S
O1118 Li1058 1.956 . S
O1118 Li1059 1.970 . S
O1118 C1088 1.325 1_545 S
O1119 Li1057 1.961 . S
O1119 Li1058 1.970 . S
O1119 Li1059 1.956 . S
O1119 C1094 1.325 . S
H1120 C1062 0.929 . S
H1121 C1063 0.930 . S
H1122 C1064 0.930 . S
H1123 C1065 0.930 . S
H1124 C1067 0.930 . S
H1125 C1069 0.929 . S
H1126 C1070 0.930 . S
H1127 C1071 0.930 . S
H1128 C1074 0.930 . S
H1129 C1077 0.929 . S
H1130 C1082 0.929 . S
H1131 C1083 0.930 . S
H1132 C1090 0.929 . S
H1133 C1091 0.930 . S
H1134 C1092 0.930 . S
H1135 C1093 0.930 . S
H1136 C1095 0.929 . S
H1137 C1096 0.930 . S
H1138 C1097 0.930 . S
H1139 C1098 0.930 . S
H1140 C1102 0.929 . S
H1141 C1104 0.930 . S
H1142 C1110 0.929 . S
H1143 C1111 0.930 . S
Li1144 N1161 1.990 . S
Li1144 O1204 1.956 . S
Li1144 O1205 1.970 . S
Li1144 O1206 1.961 . S
Li1145 N1169 1.990 . S
Li1145 O1204 1.970 . S
Li1145 O1205 1.956 . S
Li1145 O1207 1.961 . S
Li1146 N1191 1.990 . S
Li1146 O1204 1.961 . S
Li1146 O1206 1.956 . S
Li1146 O1207 1.970 . S
Li1147 N1197 1.990 . S
Li1147 O1205 1.961 . S
Li1147 O1206 1.970 . S
Li1147 O1207 1.956 . S
C1148 C1150 1.348 . S
C1148 C1151 1.356 . S
C1148 O1204 1.325 . S
N1149 C1152 1.314 . S
N1149 C1153 1.279 . S
C1150 C1148 1.348 . S
C1150 C1152 1.353 . S
C1150 H1208 0.929 . S
C1151 C1148 1.356 . S
C1151 C1153 1.358 . S
C1151 H1209 0.930 . S
C1152 N1149 1.314 . S
C1152 C1150 1.353 . S
C1152 H1210 0.930 . S
C1153 N1149 1.279 . S
C1153 C1151 1.358 . S
C1153 H1211 0.930 . S
C1154 C1157 1.348 . S
C1154 C1158 1.356 . S
C1154 O1205 1.325 . S
C1155 N1156 1.279 . S
C1155 C1158 1.358 . S
C1155 H1212 0.930 . S
N1156 C1155 1.279 . S
N1156 C1159 1.314 . S
C1157 C1154 1.348 . S
C1157 C1159 1.353 . S
C1157 H1213 0.929 . S
C1158 C1154 1.356 . S
C1158 C1155 1.358 . S
C1158 H1214 0.930 . S
C1159 N1156 1.314 . S
C1159 C1157 1.353 . S
C1159 H1215 0.930 . S
C1160 N1161 1.314 . S
C1160 C1165 1.353 . S
C1160 H1166 0.930 . S
N1161 Li1144 1.990 . S
N1161 C1160 1.314 . S
N1161 C1163 1.279 . S
C1162 C1163 1.358 . S
C1162 C1164 1.356 . S
C1162 H1216 0.930 . S
C1163 N1161 1.279 . S
C1163 C1162 1.358 . S
C1163 H1167 0.930 . S
C1164 C1162 1.356 . S
C1164 C1165 1.348 . S
C1165 C1160 1.353 . S
C1165 C1164 1.348 . S
C1165 H1217 0.929 . S
H1166 C1160 0.930 . S
H1167 C1163 0.930 . S
C1168 N1169 1.314 . S
C1168 C1170 1.353 . S
C1168 H1174 0.930 . S
N1169 Li1145 1.990 . S
N1169 C1168 1.314 . S
N1169 C1172 1.279 . S
C1170 C1168 1.353 . S
C1170 C1173 1.348 . S
C1170 H1218 0.929 . S
C1171 C1172 1.358 . S
C1171 C1173 1.356 . S
C1171 H1219 0.930 . S
C1172 N1169 1.279 . S
C1172 C1171 1.358 . S
C1172 H1175 0.930 . S
C1173 C1170 1.348 . S
C1173 C1171 1.356 . S
H1174 C1168 0.930 . S
H1175 C1172 0.930 . S
C1176 C1178 1.348 . S
C1176 C1179 1.356 . S
C1176 O1206 1.325 . S
N1177 C1180 1.314 . S
N1177 C1181 1.279 . S
C1178 C1176 1.348 . S
C1178 C1180 1.353 . S
C1178 H1220 0.929 . S
C1179 C1176 1.356 . S
C1179 C1181 1.358 . S
C1179 H1221 0.930 . S
C1180 N1177 1.314 . S
C1180 C1178 1.353 . S
C1180 H1222 0.930 . S
C1181 N1177 1.279 . S
C1181 C1179 1.358 . S
C1181 H1223 0.930 . S
C1182 C1183 1.348 . S
C1182 C1184 1.356 . S
C1182 O1207 1.325 . S
C1183 C1182 1.348 . S
C1183 C1185 1.353 . S
C1183 H1224 0.929 . S
C1184 C1182 1.356 . S
C1184 C1186 1.358 . S
C1184 H1225 0.930 . S
C1185 C1183 1.353 . S
C1185 N1187 1.314 . S
C1185 H1226 0.930 . S
C1186 C1184 1.358 . S
C1186 N1187 1.279 . S
C1186 H1227 0.930 . S
N1187 C1185 1.314 . S
N1187 C1186 1.279 . S
C1188 C1190 1.353 . S
C1188 N1191 1.314 . S
C1188 H1194 0.930 . S
C1189 N1191 1.279 . S
C1189 C1192 1.358 . S
C1189 H1195 0.930 . S
C1190 C1188 1.353 . S
C1190 C1193 1.348 . S
C1190 H1228 0.929 . S
N1191 Li1146 1.990 . S
N1191 C1188 1.314 . S
N1191 C1189 1.279 . S
C1192 C1189 1.358 . S
C1192 C1193 1.356 . S
C1192 H1229 0.930 . S
C1193 C1190 1.348 . S
C1193 C1192 1.356 . S
H1194 C1188 0.930 . S
H1195 C1189 0.930 . S
C1196 N1197 1.314 . S
C1196 C1198 1.353 . S
C1196 H1202 0.930 . S
N1197 Li1147 1.990 . S
N1197 C1196 1.314 . S
N1197 C1200 1.279 . S
C1198 C1196 1.353 . S
C1198 C1201 1.348 . S
C1198 H1230 0.929 . S
C1199 C1200 1.358 . S
C1199 C1201 1.356 . S
C1199 H1231 0.930 . S
C1200 N1197 1.279 . S
C1200 C1199 1.358 . S
C1200 H1203 0.930 . S
C1201 C1198 1.348 . S
C1201 C1199 1.356 . S
H1202 C1196 0.930 . S
H1203 C1200 0.930 . S
O1204 Li1144 1.956 . S
O1204 Li1145 1.970 . S
O1204 Li1146 1.961 . S
O1204 C1148 1.325 . S
O1205 Li1144 1.970 . S
O1205 Li1145 1.956 . S
O1205 Li1147 1.961 . S
O1205 C1154 1.325 . S
O1206 Li1144 1.961 . S
O1206 Li1146 1.956 . S
O1206 Li1147 1.970 . S
O1206 C1176 1.325 . S
O1207 Li1145 1.961 . S
O1207 Li1146 1.970 . S
O1207 Li1147 1.956 . S
O1207 C1182 1.325 . S
H1208 C1150 0.929 . S
H1209 C1151 0.930 . S
H1210 C1152 0.930 . S
H1211 C1153 0.930 . S
H1212 C1155 0.930 . S
H1213 C1157 0.929 . S
H1214 C1158 0.930 . S
H1215 C1159 0.930 . S
H1216 C1162 0.930 . S
H1217 C1165 0.929 . S
H1218 C1170 0.929 . S
H1219 C1171 0.930 . S
H1220 C1178 0.929 . S
H1221 C1179 0.930 . S
H1222 C1180 0.930 . S
H1223 C1181 0.930 . S
H1224 C1183 0.929 . S
H1225 C1184 0.930 . S
H1226 C1185 0.930 . S
H1227 C1186 0.930 . S
H1228 C1190 0.929 . S
H1229 C1192 0.930 . S
H1230 C1198 0.929 . S
H1231 C1199 0.930 . S
Li1232 N1249 1.990 1_565 S
Li1232 O1292 1.956 . S
Li1232 O1293 1.970 . S
Li1232 O1294 1.961 . S
Li1233 N1257 1.990 . S
Li1233 O1292 1.970 . S
Li1233 O1293 1.956 . S
Li1233 O1295 1.961 . S
Li1234 N1279 1.990 . S
Li1234 O1292 1.961 . S
Li1234 O1294 1.956 . S
Li1234 O1295 1.970 . S
Li1235 N1285 1.990 . S
Li1235 O1293 1.961 . S
Li1235 O1294 1.970 . S
Li1235 O1295 1.956 . S
C1236 C1238 1.348 . S
C1236 C1239 1.356 . S
C1236 O1292 1.325 1_545 S
N1237 C1240 1.314 . S
N1237 C1241 1.279 . S
C1238 C1236 1.348 . S
C1238 C1240 1.353 . S
C1238 H1296 0.929 . S
C1239 C1236 1.356 . S
C1239 C1241 1.358 . S
C1239 H1297 0.930 . S
C1240 N1237 1.314 . S
C1240 C1238 1.353 . S
C1240 H1298 0.930 . S
C1241 N1237 1.279 . S
C1241 C1239 1.358 . S
C1241 H1299 0.930 . S
C1242 C1245 1.348 . S
C1242 C1246 1.356 . S
C1242 O1293 1.325 . S
C1243 N1244 1.279 . S
C1243 C1246 1.358 . S
C1243 H1300 0.930 . S
N1244 C1243 1.279 . S
N1244 C1247 1.314 . S
C1245 C1242 1.348 . S
C1245 C1247 1.353 . S
C1245 H1301 0.929 . S
C1246 C1242 1.356 . S
C1246 C1243 1.358 . S
C1246 H1302 0.930 . S
C1247 N1244 1.314 . S
C1247 C1245 1.353 . S
C1247 H1303 0.930 . S
C1248 N1249 1.314 . S
C1248 C1253 1.353 . S
C1248 H1254 0.930 1_545 S
N1249 Li1232 1.990 1_545 S
N1249 C1248 1.314 . S
N1249 C1251 1.279 . S
C1250 C1251 1.358 . S
C1250 C1252 1.356 . S
C1250 H1304 0.930 . S
C1251 N1249 1.279 . S
C1251 C1250 1.358 . S
C1251 H1255 0.930 . S
C1252 C1250 1.356 . S
C1252 C1253 1.348 . S
C1253 C1248 1.353 . S
C1253 C1252 1.348 . S
C1253 H1305 0.929 . S
H1254 C1248 0.930 1_565 S
H1255 C1251 0.930 . S
C1256 N1257 1.314 . S
C1256 C1258 1.353 . S
C1256 H1262 0.930 . S
N1257 Li1233 1.990 . S
N1257 C1256 1.314 . S
N1257 C1260 1.279 . S
C1258 C1256 1.353 . S
C1258 C1261 1.348 . S
C1258 H1306 0.929 . S
C1259 C1260 1.358 . S
C1259 C1261 1.356 . S
C1259 H1307 0.930 . S
C1260 N1257 1.279 . S
C1260 C1259 1.358 . S
C1260 H1263 0.930 . S
C1261 C1258 1.348 . S
C1261 C1259 1.356 . S
H1262 C1256 0.930 . S
H1263 C1260 0.930 . S
C1264 C1266 1.348 . S
C1264 C1267 1.356 . S
C1264 O1294 1.325 . S
N1265 C1268 1.314 . S
N1265 C1269 1.279 . S
C1266 C1264 1.348 . S
C1266 C1268 1.353 . S
C1266 H1308 0.929 . S
C1267 C1264 1.356 . S
C1267 C1269 1.358 . S
C1267 H1309 0.930 . S
C1268 N1265 1.314 . S
C1268 C1266 1.353 . S
C1268 H1310 0.930 . S
C1269 N1265 1.279 . S
C1269 C1267 1.358 . S
C1269 H1311 0.930 . S
C1270 C1271 1.348 . S
C1270 C1272 1.356 . S
C1270 O1295 1.325 . S
C1271 C1270 1.348 . S
C1271 C1273 1.353 . S
C1271 H1312 0.929 . S
C1272 C1270 1.356 . S
C1272 C1274 1.358 . S
C1272 H1313 0.930 . S
C1273 C1271 1.353 . S
C1273 N1275 1.314 . S
C1273 H1314 0.930 . S
C1274 C1272 1.358 . S
C1274 N1275 1.279 . S
C1274 H1315 0.930 . S
N1275 C1273 1.314 . S
N1275 C1274 1.279 . S
C1276 C1278 1.353 1_655 S
C1276 N1279 1.314 . S
C1276 H1282 0.930 . S
C1277 N1279 1.279 . S
C1277 C1280 1.358 . S
C1277 H1283 0.930 . S
C1278 C1276 1.353 1_455 S
C1278 C1281 1.348 . S
C1278 H1316 0.929 . S
N1279 Li1234 1.990 . S
N1279 C1276 1.314 . S
N1279 C1277 1.279 . S
C1280 C1277 1.358 . S
C1280 C1281 1.356 1_655 S
C1280 H1317 0.930 . S
C1281 C1278 1.348 . S
C1281 C1280 1.356 1_455 S
H1282 C1276 0.930 . S
H1283 C1277 0.930 . S
C1284 N1285 1.314 . S
C1284 C1286 1.353 . S
C1284 H1290 0.930 . S
N1285 Li1235 1.990 . S
N1285 C1284 1.314 . S
N1285 C1288 1.279 . S
C1286 C1284 1.353 . S
C1286 C1289 1.348 . S
C1286 H1318 0.929 . S
C1287 C1288 1.358 . S
C1287 C1289 1.356 . S
C1287 H1319 0.930 . S
C1288 N1285 1.279 . S
C1288 C1287 1.358 . S
C1288 H1291 0.930 . S
C1289 C1286 1.348 . S
C1289 C1287 1.356 . S
H1290 C1284 0.930 . S
H1291 C1288 0.930 . S
O1292 Li1232 1.956 . S
O1292 Li1233 1.970 . S
O1292 Li1234 1.961 . S
O1292 C1236 1.325 1_565 S
O1293 Li1232 1.970 . S
O1293 Li1233 1.956 . S
O1293 Li1235 1.961 . S
O1293 C1242 1.325 . S
O1294 Li1232 1.961 . S
O1294 Li1234 1.956 . S
O1294 Li1235 1.970 . S
O1294 C1264 1.325 . S
O1295 Li1233 1.961 . S
O1295 Li1234 1.970 . S
O1295 Li1235 1.956 . S
O1295 C1270 1.325 . S
H1296 C1238 0.929 . S
H1297 C1239 0.930 . S
H1298 C1240 0.930 . S
H1299 C1241 0.930 . S
H1300 C1243 0.930 . S
H1301 C1245 0.929 . S
H1302 C1246 0.930 . S
H1303 C1247 0.930 . S
H1304 C1250 0.930 . S
H1305 C1253 0.929 . S
H1306 C1258 0.929 . S
H1307 C1259 0.930 . S
H1308 C1266 0.929 . S
H1309 C1267 0.930 . S
H1310 C1268 0.930 . S
H1311 C1269 0.930 . S
H1312 C1271 0.929 . S
H1313 C1272 0.930 . S
H1314 C1273 0.930 . S
H1315 C1274 0.930 . S
H1316 C1278 0.929 . S
H1317 C1280 0.930 . S
H1318 C1286 0.929 . S
H1319 C1287 0.930 . S
Li1320 N1337 1.990 . S
Li1320 O1380 1.956 . S
Li1320 O1381 1.970 . S
Li1320 O1382 1.961 . S
Li1321 N1345 1.990 . S
Li1321 O1380 1.970 . S
Li1321 O1381 1.956 . S
Li1321 O1383 1.961 . S
Li1322 N1367 1.990 . S
Li1322 O1380 1.961 . S
Li1322 O1382 1.956 . S
Li1322 O1383 1.970 . S
Li1323 N1373 1.990 . S
Li1323 O1381 1.961 . S
Li1323 O1382 1.970 . S
Li1323 O1383 1.956 . S
C1324 C1326 1.348 . S
C1324 C1327 1.356 . S
C1324 O1380 1.325 . S
N1325 C1328 1.314 . S
N1325 C1329 1.279 . S
C1326 C1324 1.348 . S
C1326 C1328 1.353 . S
C1326 H1384 0.929 . S
C1327 C1324 1.356 . S
C1327 C1329 1.358 . S
C1327 H1385 0.930 . S
C1328 N1325 1.314 . S
C1328 C1326 1.353 . S
C1328 H1386 0.930 . S
C1329 N1325 1.279 . S
C1329 C1327 1.358 . S
C1329 H1387 0.930 . S
C1330 C1333 1.348 . S
C1330 C1334 1.356 . S
C1330 O1381 1.325 . S
C1331 N1332 1.279 . S
C1331 C1334 1.358 . S
C1331 H1388 0.930 . S
N1332 C1331 1.279 . S
N1332 C1335 1.314 . S
C1333 C1330 1.348 . S
C1333 C1335 1.353 . S
C1333 H1389 0.929 . S
C1334 C1330 1.356 . S
C1334 C1331 1.358 . S
C1334 H1390 0.930 . S
C1335 N1332 1.314 . S
C1335 C1333 1.353 . S
C1335 H1391 0.930 . S
C1336 N1337 1.314 . S
C1336 C1341 1.353 . S
C1336 H1342 0.930 . S
N1337 Li1320 1.990 . S
N1337 C1336 1.314 . S
N1337 C1339 1.279 . S
C1338 C1339 1.358 . S
C1338 C1340 1.356 . S
C1338 H1392 0.930 . S
C1339 N1337 1.279 . S
C1339 C1338 1.358 . S
C1339 H1343 0.930 . S
C1340 C1338 1.356 . S
C1340 C1341 1.348 . S
C1341 C1336 1.353 . S
C1341 C1340 1.348 . S
C1341 H1393 0.929 . S
H1342 C1336 0.930 . S
H1343 C1339 0.930 . S
C1344 N1345 1.314 . S
C1344 C1346 1.353 . S
C1344 H1350 0.930 . S
N1345 Li1321 1.990 . S
N1345 C1344 1.314 . S
N1345 C1348 1.279 . S
C1346 C1344 1.353 . S
C1346 C1349 1.348 . S
C1346 H1394 0.929 . S
C1347 C1348 1.358 . S
C1347 C1349 1.356 . S
C1347 H1395 0.930 . S
C1348 N1345 1.279 . S
C1348 C1347 1.358 . S
C1348 H1351 0.930 . S
C1349 C1346 1.348 . S
C1349 C1347 1.356 . S
H1350 C1344 0.930 . S
H1351 C1348 0.930 . S
C1352 C1354 1.348 . S
C1352 C1355 1.356 . S
C1352 O1382 1.325 . S
N1353 C1356 1.314 . S
N1353 C1357 1.279 . S
C1354 C1352 1.348 . S
C1354 C1356 1.353 . S
C1354 H1396 0.929 . S
C1355 C1352 1.356 . S
C1355 C1357 1.358 . S
C1355 H1397 0.930 . S
C1356 N1353 1.314 . S
C1356 C1354 1.353 . S
C1356 H1398 0.930 . S
C1357 N1353 1.279 . S
C1357 C1355 1.358 . S
C1357 H1399 0.930 . S
C1358 C1359 1.348 . S
C1358 C1360 1.356 . S
C1358 O1383 1.325 . S
C1359 C1358 1.348 . S
C1359 C1361 1.353 . S
C1359 H1400 0.929 . S
C1360 C1358 1.356 . S
C1360 C1362 1.358 . S
C1360 H1401 0.930 . S
C1361 C1359 1.353 . S
C1361 N1363 1.314 . S
C1361 H1402 0.930 . S
C1362 C1360 1.358 . S
C1362 N1363 1.279 . S
C1362 H1403 0.930 . S
N1363 C1361 1.314 . S
N1363 C1362 1.279 . S
C1364 C1366 1.353 . S
C1364 N1367 1.314 . S
C1364 H1370 0.930 . S
C1365 N1367 1.279 . S
C1365 C1368 1.358 . S
C1365 H1371 0.930 . S
C1366 C1364 1.353 . S
C1366 C1369 1.348 . S
C1366 H1404 0.929 . S
N1367 Li1322 1.990 . S
N1367 C1364 1.314 . S
N1367 C1365 1.279 . S
C1368 C1365 1.358 . S
C1368 C1369 1.356 . S
C1368 H1405 0.930 . S
C1369 C1366 1.348 . S
C1369 C1368 1.356 . S
H1370 C1364 0.930 . S
H1371 C1365 0.930 . S
C1372 N1373 1.314 . S
C1372 C1374 1.353 . S
C1372 H1378 0.930 . S
N1373 Li1323 1.990 . S
N1373 C1372 1.314 . S
N1373 C1376 1.279 . S
C1374 C1372 1.353 . S
C1374 C1377 1.348 . S
C1374 H1406 0.929 . S
C1375 C1376 1.358 . S
C1375 C1377 1.356 . S
C1375 H1407 0.930 . S
C1376 N1373 1.279 . S
C1376 C1375 1.358 . S
C1376 H1379 0.930 . S
C1377 C1374 1.348 . S
C1377 C1375 1.356 . S
H1378 C1372 0.930 . S
H1379 C1376 0.930 . S
O1380 Li1320 1.956 . S
O1380 Li1321 1.970 . S
O1380 Li1322 1.961 . S
O1380 C1324 1.325 . S
O1381 Li1320 1.970 . S
O1381 Li1321 1.956 . S
O1381 Li1323 1.961 . S
O1381 C1330 1.325 . S
O1382 Li1320 1.961 . S
O1382 Li1322 1.956 . S
O1382 Li1323 1.970 . S
O1382 C1352 1.325 . S
O1383 Li1321 1.961 . S
O1383 Li1322 1.970 . S
O1383 Li1323 1.956 . S
O1383 C1358 1.325 . S
H1384 C1326 0.929 . S
H1385 C1327 0.930 . S
H1386 C1328 0.930 . S
H1387 C1329 0.930 . S
H1388 C1331 0.930 . S
H1389 C1333 0.929 . S
H1390 C1334 0.930 . S
H1391 C1335 0.930 . S
H1392 C1338 0.930 . S
H1393 C1341 0.929 . S
H1394 C1346 0.929 . S
H1395 C1347 0.930 . S
H1396 C1354 0.929 . S
H1397 C1355 0.930 . S
H1398 C1356 0.930 . S
H1399 C1357 0.930 . S
H1400 C1359 0.929 . S
H1401 C1360 0.930 . S
H1402 C1361 0.930 . S
H1403 C1362 0.930 . S
H1404 C1366 0.929 . S
H1405 C1368 0.930 . S
H1406 C1374 0.929 . S
H1407 C1375 0.930 . S
Li1408 N1425 1.990 . S
Li1408 O1468 1.956 . S
Li1408 O1469 1.970 . S
Li1408 O1470 1.961 . S
Li1409 N1433 1.990 . S
Li1409 O1468 1.970 . S
Li1409 O1469 1.956 . S
Li1409 O1471 1.961 . S
Li1410 N1455 1.990 . S
Li1410 O1468 1.961 . S
Li1410 O1470 1.956 . S
Li1410 O1471 1.970 . S
Li1411 N1461 1.990 . S
Li1411 O1469 1.961 . S
Li1411 O1470 1.970 . S
Li1411 O1471 1.956 . S
C1412 C1414 1.348 . S
C1412 C1415 1.356 . S
C1412 O1468 1.325 . S
N1413 C1416 1.314 . S
N1413 C1417 1.279 . S
C1414 C1412 1.348 . S
C1414 C1416 1.353 . S
C1414 H1472 0.929 . S
C1415 C1412 1.356 . S
C1415 C1417 1.358 . S
C1415 H1473 0.930 . S
C1416 N1413 1.314 . S
C1416 C1414 1.353 . S
C1416 H1474 0.930 . S
C1417 N1413 1.279 . S
C1417 C1415 1.358 . S
C1417 H1475 0.930 . S
C1418 C1421 1.348 . S
C1418 C1422 1.356 . S
C1418 O1469 1.325 . S
C1419 N1420 1.279 . S
C1419 C1422 1.358 . S
C1419 H1476 0.930 . S
N1420 C1419 1.279 . S
N1420 C1423 1.314 . S
C1421 C1418 1.348 . S
C1421 C1423 1.353 . S
C1421 H1477 0.929 . S
C1422 C1418 1.356 . S
C1422 C1419 1.358 . S
C1422 H1478 0.930 . S
C1423 N1420 1.314 . S
C1423 C1421 1.353 . S
C1423 H1479 0.930 . S
C1424 N1425 1.314 . S
C1424 C1429 1.353 . S
C1424 H1430 0.930 . S
N1425 Li1408 1.990 . S
N1425 C1424 1.314 . S
N1425 C1427 1.279 . S
C1426 C1427 1.358 . S
C1426 C1428 1.356 . S
C1426 H1480 0.930 . S
C1427 N1425 1.279 . S
C1427 C1426 1.358 . S
C1427 H1431 0.930 . S
C1428 C1426 1.356 . S
C1428 C1429 1.348 . S
C1429 C1424 1.353 . S
C1429 C1428 1.348 . S
C1429 H1481 0.929 . S
H1430 C1424 0.930 . S
H1431 C1427 0.930 . S
C1432 N1433 1.314 . S
C1432 C1434 1.353 . S
C1432 H1438 0.930 . S
N1433 Li1409 1.990 . S
N1433 C1432 1.314 . S
N1433 C1436 1.279 . S
C1434 C1432 1.353 . S
C1434 C1437 1.348 1_655 S
C1434 H1482 0.929 . S
C1435 C1436 1.358 1_455 S
C1435 C1437 1.356 . S
C1435 H1483 0.930 . S
C1436 N1433 1.279 . S
C1436 C1435 1.358 1_655 S
C1436 H1439 0.930 . S
C1437 C1434 1.348 1_455 S
C1437 C1435 1.356 . S
H1438 C1432 0.930 . S
H1439 C1436 0.930 . S
C1440 C1442 1.348 . S
C1440 C1443 1.356 . S
C1440 O1470 1.325 . S
N1441 C1444 1.314 . S
N1441 C1445 1.279 . S
C1442 C1440 1.348 . S
C1442 C1444 1.353 . S
C1442 H1484 0.929 . S
C1443 C1440 1.356 . S
C1443 C1445 1.358 . S
C1443 H1485 0.930 . S
C1444 N1441 1.314 . S
C1444 C1442 1.353 . S
C1444 H1486 0.930 . S
C1445 N1441 1.279 . S
C1445 C1443 1.358 . S
C1445 H1487 0.930 . S
C1446 C1447 1.348 . S
C1446 C1448 1.356 . S
C1446 O1471 1.325 . S
C1447 C1446 1.348 . S
C1447 C1449 1.353 . S
C1447 H1488 0.929 . S
C1448 C1446 1.356 . S
C1448 C1450 1.358 . S
C1448 H1489 0.930 . S
C1449 C1447 1.353 . S
C1449 N1451 1.314 . S
C1449 H1490 0.930 . S
C1450 C1448 1.358 . S
C1450 N1451 1.279 . S
C1450 H1491 0.930 . S
N1451 C1449 1.314 . S
N1451 C1450 1.279 . S
C1452 C1454 1.353 . S
C1452 N1455 1.314 . S
C1452 H1458 0.930 . S
C1453 N1455 1.279 . S
C1453 C1456 1.358 . S
C1453 H1459 0.930 . S
C1454 C1452 1.353 . S
C1454 C1457 1.348 . S
C1454 H1492 0.929 . S
N1455 Li1410 1.990 . S
N1455 C1452 1.314 . S
N1455 C1453 1.279 . S
C1456 C1453 1.358 . S
C1456 C1457 1.356 . S
C1456 H1493 0.930 . S
C1457 C1454 1.348 . S
C1457 C1456 1.356 . S
H1458 C1452 0.930 . S
H1459 C1453 0.930 . S
C1460 N1461 1.314 . S
C1460 C1462 1.353 . S
C1460 H1466 0.930 . S
N1461 Li1411 1.990 . S
N1461 C1460 1.314 . S
N1461 C1464 1.279 . S
C1462 C1460 1.353 . S
C1462 C1465 1.348 . S
C1462 H1494 0.929 . S
C1463 C1464 1.358 . S
C1463 C1465 1.356 . S
C1463 H1495 0.930 . S
C1464 N1461 1.279 . S
C1464 C1463 1.358 . S
C1464 H1467 0.930 . S
C1465 C1462 1.348 . S
C1465 C1463 1.356 . S
H1466 C1460 0.930 . S
H1467 C1464 0.930 . S
O1468 Li1408 1.956 . S
O1468 Li1409 1.970 . S
O1468 Li1410 1.961 . S
O1468 C1412 1.325 . S
O1469 Li1408 1.970 . S
O1469 Li1409 1.956 . S
O1469 Li1411 1.961 . S
O1469 C1418 1.325 . S
O1470 Li1408 1.961 . S
O1470 Li1410 1.956 . S
O1470 Li1411 1.970 . S
O1470 C1440 1.325 . S
O1471 Li1409 1.961 . S
O1471 Li1410 1.970 . S
O1471 Li1411 1.956 . S
O1471 C1446 1.325 . S
H1472 C1414 0.929 . S
H1473 C1415 0.930 . S
H1474 C1416 0.930 . S
H1475 C1417 0.930 . S
H1476 C1419 0.930 . S
H1477 C1421 0.929 . S
H1478 C1422 0.930 . S
H1479 C1423 0.930 . S
H1480 C1426 0.930 . S
H1481 C1429 0.929 . S
H1482 C1434 0.929 . S
H1483 C1435 0.930 . S
H1484 C1442 0.929 . S
H1485 C1443 0.930 . S
H1486 C1444 0.930 . S
H1487 C1445 0.930 . S
H1488 C1447 0.929 . S
H1489 C1448 0.930 . S
H1490 C1449 0.930 . S
H1491 C1450 0.930 . S
H1492 C1454 0.929 . S
H1493 C1456 0.930 . S
H1494 C1462 0.929 . S
H1495 C1463 0.930 . S
Li1496 N1513 1.990 . S
Li1496 O1556 1.956 . S
Li1496 O1557 1.970 . S
Li1496 O1558 1.961 . S
Li1497 N1521 1.990 . S
Li1497 O1556 1.970 . S
Li1497 O1557 1.956 . S
Li1497 O1559 1.961 . S
Li1498 N1543 1.990 . S
Li1498 O1556 1.961 . S
Li1498 O1558 1.956 . S
Li1498 O1559 1.970 . S
Li1499 N1549 1.990 . S
Li1499 O1557 1.961 . S
Li1499 O1558 1.970 . S
Li1499 O1559 1.956 . S
C1500 C1502 1.348 . S
C1500 C1503 1.356 . S
C1500 O1556 1.325 . S
N1501 C1504 1.314 . S
N1501 C1505 1.279 . S
C1502 C1500 1.348 . S
C1502 C1504 1.353 . S
C1502 H1560 0.929 . S
C1503 C1500 1.356 . S
C1503 C1505 1.358 . S
C1503 H1561 0.930 . S
C1504 N1501 1.314 . S
C1504 C1502 1.353 . S
C1504 H1562 0.930 . S
C1505 N1501 1.279 . S
C1505 C1503 1.358 . S
C1505 H1563 0.930 . S
C1506 C1509 1.348 . S
C1506 C1510 1.356 . S
C1506 O1557 1.325 . S
C1507 N1508 1.279 . S
C1507 C1510 1.358 . S
C1507 H1564 0.930 . S
N1508 C1507 1.279 . S
N1508 C1511 1.314 . S
C1509 C1506 1.348 . S
C1509 C1511 1.353 . S
C1509 H1565 0.929 . S
C1510 C1506 1.356 . S
C1510 C1507 1.358 . S
C1510 H1566 0.930 . S
C1511 N1508 1.314 . S
C1511 C1509 1.353 . S
C1511 H1567 0.930 . S
C1512 N1513 1.314 . S
C1512 C1517 1.353 . S
C1512 H1518 0.930 . S
N1513 Li1496 1.990 . S
N1513 C1512 1.314 . S
N1513 C1515 1.279 . S
C1514 C1515 1.358 . S
C1514 C1516 1.356 . S
C1514 H1568 0.930 . S
C1515 N1513 1.279 . S
C1515 C1514 1.358 . S
C1515 H1519 0.930 . S
C1516 C1514 1.356 . S
C1516 C1517 1.348 . S
C1517 C1512 1.353 . S
C1517 C1516 1.348 . S
C1517 H1569 0.929 . S
H1518 C1512 0.930 . S
H1519 C1515 0.930 . S
C1520 N1521 1.314 . S
C1520 C1522 1.353 . S
C1520 H1526 0.930 . S
N1521 Li1497 1.990 . S
N1521 C1520 1.314 . S
N1521 C1524 1.279 . S
C1522 C1520 1.353 . S
C1522 C1525 1.348 . S
C1522 H1570 0.929 . S
C1523 C1524 1.358 . S
C1523 C1525 1.356 . S
C1523 H1571 0.930 . S
C1524 N1521 1.279 . S
C1524 C1523 1.358 . S
C1524 H1527 0.930 . S
C1525 C1522 1.348 . S
C1525 C1523 1.356 . S
H1526 C1520 0.930 . S
H1527 C1524 0.930 . S
C1528 C1530 1.348 . S
C1528 C1531 1.356 . S
C1528 O1558 1.325 . S
N1529 C1532 1.314 . S
N1529 C1533 1.279 . S
C1530 C1528 1.348 . S
C1530 C1532 1.353 . S
C1530 H1572 0.929 . S
C1531 C1528 1.356 . S
C1531 C1533 1.358 . S
C1531 H1573 0.930 . S
C1532 N1529 1.314 . S
C1532 C1530 1.353 . S
C1532 H1574 0.930 . S
C1533 N1529 1.279 . S
C1533 C1531 1.358 . S
C1533 H1575 0.930 . S
C1534 C1535 1.348 . S
C1534 C1536 1.356 . S
C1534 O1559 1.325 . S
C1535 C1534 1.348 . S
C1535 C1537 1.353 . S
C1535 H1576 0.929 . S
C1536 C1534 1.356 . S
C1536 C1538 1.358 . S
C1536 H1577 0.930 . S
C1537 C1535 1.353 . S
C1537 N1539 1.314 . S
C1537 H1578 0.930 . S
C1538 C1536 1.358 . S
C1538 N1539 1.279 . S
C1538 H1579 0.930 . S
N1539 C1537 1.314 . S
N1539 C1538 1.279 . S
C1540 C1542 1.353 . S
C1540 N1543 1.314 . S
C1540 H1546 0.930 . S
C1541 N1543 1.279 . S
C1541 C1544 1.358 . S
C1541 H1547 0.930 . S
C1542 C1540 1.353 . S
C1542 C1545 1.348 . S
C1542 H1580 0.929 . S
N1543 Li1498 1.990 . S
N1543 C1540 1.314 . S
N1543 C1541 1.279 . S
C1544 C1541 1.358 . S
C1544 C1545 1.356 . S
C1544 H1581 0.930 . S
C1545 C1542 1.348 . S
C1545 C1544 1.356 . S
H1546 C1540 0.930 . S
H1547 C1541 0.930 . S
C1548 N1549 1.314 . S
C1548 C1550 1.353 . S
C1548 H1554 0.930 . S
N1549 Li1499 1.990 . S
N1549 C1548 1.314 . S
N1549 C1552 1.279 . S
C1550 C1548 1.353 . S
C1550 C1553 1.348 . S
C1550 H1582 0.929 . S
C1551 C1552 1.358 . S
C1551 C1553 1.356 . S
C1551 H1583 0.930 . S
C1552 N1549 1.279 . S
C1552 C1551 1.358 . S
C1552 H1555 0.930 . S
C1553 C1550 1.348 . S
C1553 C1551 1.356 . S
H1554 C1548 0.930 . S
H1555 C1552 0.930 . S
O1556 Li1496 1.956 . S
O1556 Li1497 1.970 . S
O1556 Li1498 1.961 . S
O1556 C1500 1.325 . S
O1557 Li1496 1.970 . S
O1557 Li1497 1.956 . S
O1557 Li1499 1.961 . S
O1557 C1506 1.325 . S
O1558 Li1496 1.961 . S
O1558 Li1498 1.956 . S
O1558 Li1499 1.970 . S
O1558 C1528 1.325 . S
O1559 Li1497 1.961 . S
O1559 Li1498 1.970 . S
O1559 Li1499 1.956 . S
O1559 C1534 1.325 . S
H1560 C1502 0.929 . S
H1561 C1503 0.930 . S
H1562 C1504 0.930 . S
H1563 C1505 0.930 . S
H1564 C1507 0.930 . S
H1565 C1509 0.929 . S
H1566 C1510 0.930 . S
H1567 C1511 0.930 . S
H1568 C1514 0.930 . S
H1569 C1517 0.929 . S
H1570 C1522 0.929 . S
H1571 C1523 0.930 . S
H1572 C1530 0.929 . S
H1573 C1531 0.930 . S
H1574 C1532 0.930 . S
H1575 C1533 0.930 . S
H1576 C1535 0.929 . S
H1577 C1536 0.930 . S
H1578 C1537 0.930 . S
H1579 C1538 0.930 . S
H1580 C1542 0.929 . S
H1581 C1544 0.930 . S
H1582 C1550 0.929 . S
H1583 C1551 0.930 . S
Li1584 N1601 1.990 . S
Li1584 O1644 1.956 . S
Li1584 O1645 1.970 . S
Li1584 O1646 1.961 . S
Li1585 N1609 1.990 . S
Li1585 O1644 1.970 . S
Li1585 O1645 1.956 . S
Li1585 O1647 1.961 . S
Li1586 N1631 1.990 . S
Li1586 O1644 1.961 . S
Li1586 O1646 1.956 . S
Li1586 O1647 1.970 . S
Li1587 N1637 1.990 . S
Li1587 O1645 1.961 . S
Li1587 O1646 1.970 . S
Li1587 O1647 1.956 . S
C1588 C1590 1.348 . S
C1588 C1591 1.356 . S
C1588 O1644 1.325 . S
N1589 C1592 1.314 . S
N1589 C1593 1.279 . S
C1590 C1588 1.348 . S
C1590 C1592 1.353 . S
C1590 H1648 0.929 . S
C1591 C1588 1.356 . S
C1591 C1593 1.358 . S
C1591 H1649 0.930 . S
C1592 N1589 1.314 . S
C1592 C1590 1.353 . S
C1592 H1650 0.930 . S
C1593 N1589 1.279 . S
C1593 C1591 1.358 . S
C1593 H1651 0.930 . S
C1594 C1597 1.348 . S
C1594 C1598 1.356 . S
C1594 O1645 1.325 . S
C1595 N1596 1.279 . S
C1595 C1598 1.358 . S
C1595 H1652 0.930 . S
N1596 C1595 1.279 . S
N1596 C1599 1.314 . S
C1597 C1594 1.348 . S
C1597 C1599 1.353 . S
C1597 H1653 0.929 . S
C1598 C1594 1.356 . S
C1598 C1595 1.358 . S
C1598 H1654 0.930 . S
C1599 N1596 1.314 . S
C1599 C1597 1.353 . S
C1599 H1655 0.930 . S
C1600 N1601 1.314 . S
C1600 C1605 1.353 . S
C1600 H1606 0.930 . S
N1601 Li1584 1.990 . S
N1601 C1600 1.314 . S
N1601 C1603 1.279 . S
C1602 C1603 1.358 . S
C1602 C1604 1.356 . S
C1602 H1656 0.930 . S
C1603 N1601 1.279 . S
C1603 C1602 1.358 . S
C1603 H1607 0.930 . S
C1604 C1602 1.356 . S
C1604 C1605 1.348 . S
C1605 C1600 1.353 . S
C1605 C1604 1.348 . S
C1605 H1657 0.929 . S
H1606 C1600 0.930 . S
H1607 C1603 0.930 . S
C1608 N1609 1.314 . S
C1608 C1610 1.353 . S
C1608 H1614 0.930 . S
N1609 Li1585 1.990 . S
N1609 C1608 1.314 . S
N1609 C1612 1.279 . S
C1610 C1608 1.353 . S
C1610 C1613 1.348 . S
C1610 H1658 0.929 . S
C1611 C1612 1.358 . S
C1611 C1613 1.356 . S
C1611 H1659 0.930 . S
C1612 N1609 1.279 . S
C1612 C1611 1.358 . S
C1612 H1615 0.930 . S
C1613 C1610 1.348 . S
C1613 C1611 1.356 . S
H1614 C1608 0.930 . S
H1615 C1612 0.930 . S
C1616 C1618 1.348 . S
C1616 C1619 1.356 . S
C1616 O1646 1.325 . S
N1617 C1620 1.314 . S
N1617 C1621 1.279 . S
C1618 C1616 1.348 . S
C1618 C1620 1.353 . S
C1618 H1660 0.929 . S
C1619 C1616 1.356 . S
C1619 C1621 1.358 . S
C1619 H1661 0.930 . S
C1620 N1617 1.314 . S
C1620 C1618 1.353 . S
C1620 H1662 0.930 . S
C1621 N1617 1.279 . S
C1621 C1619 1.358 . S
C1621 H1663 0.930 . S
C1622 C1623 1.348 . S
C1622 C1624 1.356 . S
C1622 O1647 1.325 . S
C1623 C1622 1.348 . S
C1623 C1625 1.353 . S
C1623 H1664 0.929 . S
C1624 C1622 1.356 . S
C1624 C1626 1.358 . S
C1624 H1665 0.930 . S
C1625 C1623 1.353 . S
C1625 N1627 1.314 . S
C1625 H1666 0.930 . S
C1626 C1624 1.358 . S
C1626 N1627 1.279 . S
C1626 H1667 0.930 . S
N1627 C1625 1.314 . S
N1627 C1626 1.279 . S
C1628 C1630 1.353 . S
C1628 N1631 1.314 . S
C1628 H1634 0.930 . S
C1629 N1631 1.279 . S
C1629 C1632 1.358 . S
C1629 H1635 0.930 . S
C1630 C1628 1.353 . S
C1630 C1633 1.348 . S
C1630 H1668 0.929 . S
N1631 Li1586 1.990 . S
N1631 C1628 1.314 . S
N1631 C1629 1.279 . S
C1632 C1629 1.358 . S
C1632 C1633 1.356 . S
C1632 H1669 0.930 . S
C1633 C1630 1.348 . S
C1633 C1632 1.356 . S
H1634 C1628 0.930 . S
H1635 C1629 0.930 . S
C1636 N1637 1.314 . S
C1636 C1638 1.353 . S
C1636 H1642 0.930 . S
N1637 Li1587 1.990 . S
N1637 C1636 1.314 . S
N1637 C1640 1.279 . S
C1638 C1636 1.353 . S
C1638 C1641 1.348 . S
C1638 H1670 0.929 . S
C1639 C1640 1.358 . S
C1639 C1641 1.356 . S
C1639 H1671 0.930 . S
C1640 N1637 1.279 . S
C1640 C1639 1.358 . S
C1640 H1643 0.930 . S
C1641 C1638 1.348 . S
C1641 C1639 1.356 . S
H1642 C1636 0.930 . S
H1643 C1640 0.930 . S
O1644 Li1584 1.956 . S
O1644 Li1585 1.970 . S
O1644 Li1586 1.961 . S
O1644 C1588 1.325 . S
O1645 Li1584 1.970 . S
O1645 Li1585 1.956 . S
O1645 Li1587 1.961 . S
O1645 C1594 1.325 . S
O1646 Li1584 1.961 . S
O1646 Li1586 1.956 . S
O1646 Li1587 1.970 . S
O1646 C1616 1.325 . S
O1647 Li1585 1.961 . S
O1647 Li1586 1.970 . S
O1647 Li1587 1.956 . S
O1647 C1622 1.325 . S
H1648 C1590 0.929 . S
H1649 C1591 0.930 . S
H1650 C1592 0.930 . S
H1651 C1593 0.930 . S
H1652 C1595 0.930 . S
H1653 C1597 0.929 . S
H1654 C1598 0.930 . S
H1655 C1599 0.930 . S
H1656 C1602 0.930 . S
H1657 C1605 0.929 . S
H1658 C1610 0.929 . S
H1659 C1611 0.930 . S
H1660 C1618 0.929 . S
H1661 C1619 0.930 . S
H1662 C1620 0.930 . S
H1663 C1621 0.930 . S
H1664 C1623 0.929 . S
H1665 C1624 0.930 . S
H1666 C1625 0.930 . S
H1667 C1626 0.930 . S
H1668 C1630 0.929 . S
H1669 C1632 0.930 . S
H1670 C1638 0.929 . S
H1671 C1639 0.930 . S
Li1672 N1689 1.990 . S
Li1672 O1732 1.956 . S
Li1672 O1733 1.970 . S
Li1672 O1734 1.961 . S
Li1673 N1697 1.990 . S
Li1673 O1732 1.970 . S
Li1673 O1733 1.956 . S
Li1673 O1735 1.961 . S
Li1674 N1719 1.990 . S
Li1674 O1732 1.961 . S
Li1674 O1734 1.956 . S
Li1674 O1735 1.970 . S
Li1675 N1725 1.990 . S
Li1675 O1733 1.961 . S
Li1675 O1734 1.970 . S
Li1675 O1735 1.956 . S
C1676 C1678 1.348 . S
C1676 C1679 1.356 . S
C1676 O1732 1.325 . S
N1677 C1680 1.314 . S
N1677 C1681 1.279 . S
C1678 C1676 1.348 . S
C1678 C1680 1.353 . S
C1678 H1736 0.929 . S
C1679 C1676 1.356 . S
C1679 C1681 1.358 . S
C1679 H1737 0.930 . S
C1680 N1677 1.314 . S
C1680 C1678 1.353 . S
C1680 H1738 0.930 . S
C1681 N1677 1.279 . S
C1681 C1679 1.358 . S
C1681 H1739 0.930 . S
C1682 C1685 1.348 . S
C1682 C1686 1.356 . S
C1682 O1733 1.325 . S
C1683 N1684 1.279 . S
C1683 C1686 1.358 . S
C1683 H1740 0.930 . S
N1684 C1683 1.279 . S
N1684 C1687 1.314 . S
C1685 C1682 1.348 . S
C1685 C1687 1.353 . S
C1685 H1741 0.929 . S
C1686 C1682 1.356 . S
C1686 C1683 1.358 . S
C1686 H1742 0.930 . S
C1687 N1684 1.314 . S
C1687 C1685 1.353 . S
C1687 H1743 0.930 . S
C1688 N1689 1.314 . S
C1688 C1693 1.353 . S
C1688 H1694 0.930 . S
N1689 Li1672 1.990 . S
N1689 C1688 1.314 . S
N1689 C1691 1.279 . S
C1690 C1691 1.358 . S
C1690 C1692 1.356 . S
C1690 H1744 0.930 . S
C1691 N1689 1.279 . S
C1691 C1690 1.358 . S
C1691 H1695 0.930 . S
C1692 C1690 1.356 . S
C1692 C1693 1.348 . S
C1693 C1688 1.353 . S
C1693 C1692 1.348 . S
C1693 H1745 0.929 . S
H1694 C1688 0.930 . S
H1695 C1691 0.930 . S
C1696 N1697 1.314 . S
C1696 C1698 1.353 . S
C1696 H1702 0.930 . S
N1697 Li1673 1.990 . S
N1697 C1696 1.314 . S
N1697 C1700 1.279 . S
C1698 C1696 1.353 . S
C1698 C1701 1.348 . S
C1698 H1746 0.929 . S
C1699 C1700 1.358 . S
C1699 C1701 1.356 . S
C1699 H1747 0.930 . S
C1700 N1697 1.279 . S
C1700 C1699 1.358 . S
C1700 H1703 0.930 . S
C1701 C1698 1.348 . S
C1701 C1699 1.356 . S
H1702 C1696 0.930 . S
H1703 C1700 0.930 . S
C1704 C1706 1.348 . S
C1704 C1707 1.356 . S
C1704 O1734 1.325 . S
N1705 C1708 1.314 . S
N1705 C1709 1.279 . S
C1706 C1704 1.348 . S
C1706 C1708 1.353 . S
C1706 H1748 0.929 . S
C1707 C1704 1.356 . S
C1707 C1709 1.358 . S
C1707 H1749 0.930 . S
C1708 N1705 1.314 . S
C1708 C1706 1.353 . S
C1708 H1750 0.930 . S
C1709 N1705 1.279 . S
C1709 C1707 1.358 . S
C1709 H1751 0.930 . S
C1710 C1711 1.348 . S
C1710 C1712 1.356 . S
C1710 O1735 1.325 . S
C1711 C1710 1.348 . S
C1711 C1713 1.353 . S
C1711 H1752 0.929 . S
C1712 C1710 1.356 . S
C1712 C1714 1.358 . S
C1712 H1753 0.930 . S
C1713 C1711 1.353 . S
C1713 N1715 1.314 . S
C1713 H1754 0.930 . S
C1714 C1712 1.358 . S
C1714 N1715 1.279 . S
C1714 H1755 0.930 . S
N1715 C1713 1.314 . S
N1715 C1714 1.279 . S
C1716 C1718 1.353 . S
C1716 N1719 1.314 . S
C1716 H1722 0.930 . S
C1717 N1719 1.279 . S
C1717 C1720 1.358 . S
C1717 H1723 0.930 . S
C1718 C1716 1.353 . S
C1718 C1721 1.348 . S
C1718 H1756 0.929 . S
N1719 Li1674 1.990 . S
N1719 C1716 1.314 . S
N1719 C1717 1.279 . S
C1720 C1717 1.358 . S
C1720 C1721 1.356 . S
C1720 H1757 0.930 . S
C1721 C1718 1.348 . S
C1721 C1720 1.356 . S
H1722 C1716 0.930 . S
H1723 C1717 0.930 . S
C1724 N1725 1.314 . S
C1724 C1726 1.353 . S
C1724 H1730 0.930 . S
N1725 Li1675 1.990 . S
N1725 C1724 1.314 . S
N1725 C1728 1.279 . S
C1726 C1724 1.353 . S
C1726 C1729 1.348 . S
C1726 H1758 0.929 . S
C1727 C1728 1.358 . S
C1727 C1729 1.356 . S
C1727 H1759 0.930 . S
C1728 N1725 1.279 . S
C1728 C1727 1.358 . S
C1728 H1731 0.930 . S
C1729 C1726 1.348 . S
C1729 C1727 1.356 . S
H1730 C1724 0.930 . S
H1731 C1728 0.930 . S
O1732 Li1672 1.956 . S
O1732 Li1673 1.970 . S
O1732 Li1674 1.961 . S
O1732 C1676 1.325 . S
O1733 Li1672 1.970 . S
O1733 Li1673 1.956 . S
O1733 Li1675 1.961 . S
O1733 C1682 1.325 . S
O1734 Li1672 1.961 . S
O1734 Li1674 1.956 . S
O1734 Li1675 1.970 . S
O1734 C1704 1.325 . S
O1735 Li1673 1.961 . S
O1735 Li1674 1.970 . S
O1735 Li1675 1.956 . S
O1735 C1710 1.325 . S
H1736 C1678 0.929 . S
H1737 C1679 0.930 . S
H1738 C1680 0.930 . S
H1739 C1681 0.930 . S
H1740 C1683 0.930 . S
H1741 C1685 0.929 . S
H1742 C1686 0.930 . S
H1743 C1687 0.930 . S
H1744 C1690 0.930 . S
H1745 C1693 0.929 . S
H1746 C1698 0.929 . S
H1747 C1699 0.930 . S
H1748 C1706 0.929 . S
H1749 C1707 0.930 . S
H1750 C1708 0.930 . S
H1751 C1709 0.930 . S
H1752 C1711 0.929 . S
H1753 C1712 0.930 . S
H1754 C1713 0.930 . S
H1755 C1714 0.930 . S
H1756 C1718 0.929 . S
H1757 C1720 0.930 . S
H1758 C1726 0.929 . S
H1759 C1727 0.930 . S
Li1760 N1777 1.990 . S
Li1760 O1820 1.956 . S
Li1760 O1821 1.970 . S
Li1760 O1822 1.961 . S
Li1761 N1785 1.990 . S
Li1761 O1820 1.970 . S
Li1761 O1821 1.956 . S
Li1761 O1823 1.961 . S
Li1762 N1807 1.990 . S
Li1762 O1820 1.961 . S
Li1762 O1822 1.956 . S
Li1762 O1823 1.970 . S
Li1763 N1813 1.990 . S
Li1763 O1821 1.961 . S
Li1763 O1822 1.970 . S
Li1763 O1823 1.956 . S
C1764 C1766 1.348 . S
C1764 C1767 1.356 . S
C1764 O1820 1.325 . S
N1765 C1768 1.314 . S
N1765 C1769 1.279 . S
C1766 C1764 1.348 . S
C1766 C1768 1.353 . S
C1766 H1824 0.929 . S
C1767 C1764 1.356 . S
C1767 C1769 1.358 . S
C1767 H1825 0.930 . S
C1768 N1765 1.314 . S
C1768 C1766 1.353 . S
C1768 H1826 0.930 . S
C1769 N1765 1.279 . S
C1769 C1767 1.358 . S
C1769 H1827 0.930 . S
C1770 C1773 1.348 . S
C1770 C1774 1.356 . S
C1770 O1821 1.325 . S
C1771 N1772 1.279 . S
C1771 C1774 1.358 . S
C1771 H1828 0.930 . S
N1772 C1771 1.279 . S
N1772 C1775 1.314 . S
C1773 C1770 1.348 . S
C1773 C1775 1.353 . S
C1773 H1829 0.929 . S
C1774 C1770 1.356 . S
C1774 C1771 1.358 . S
C1774 H1830 0.930 . S
C1775 N1772 1.314 . S
C1775 C1773 1.353 . S
C1775 H1831 0.930 . S
C1776 N1777 1.314 . S
C1776 C1781 1.353 . S
C1776 H1782 0.930 . S
N1777 Li1760 1.990 . S
N1777 C1776 1.314 . S
N1777 C1779 1.279 . S
C1778 C1779 1.358 . S
C1778 C1780 1.356 . S
C1778 H1832 0.930 . S
C1779 N1777 1.279 . S
C1779 C1778 1.358 . S
C1779 H1783 0.930 . S
C1780 C1778 1.356 . S
C1780 C1781 1.348 . S
C1781 C1776 1.353 . S
C1781 C1780 1.348 . S
C1781 H1833 0.929 . S
H1782 C1776 0.930 . S
H1783 C1779 0.930 . S
C1784 N1785 1.314 . S
C1784 C1786 1.353 . S
C1784 H1790 0.930 . S
N1785 Li1761 1.990 . S
N1785 C1784 1.314 . S
N1785 C1788 1.279 . S
C1786 C1784 1.353 . S
C1786 C1789 1.348 . S
C1786 H1834 0.929 . S
C1787 C1788 1.358 . S
C1787 C1789 1.356 . S
C1787 H1835 0.930 . S
C1788 N1785 1.279 . S
C1788 C1787 1.358 . S
C1788 H1791 0.930 . S
C1789 C1786 1.348 . S
C1789 C1787 1.356 . S
H1790 C1784 0.930 . S
H1791 C1788 0.930 . S
C1792 C1794 1.348 . S
C1792 C1795 1.356 . S
C1792 O1822 1.325 . S
N1793 C1796 1.314 . S
N1793 C1797 1.279 . S
C1794 C1792 1.348 . S
C1794 C1796 1.353 . S
C1794 H1836 0.929 . S
C1795 C1792 1.356 . S
C1795 C1797 1.358 . S
C1795 H1837 0.930 . S
C1796 N1793 1.314 . S
C1796 C1794 1.353 . S
C1796 H1838 0.930 . S
C1797 N1793 1.279 . S
C1797 C1795 1.358 . S
C1797 H1839 0.930 . S
C1798 C1799 1.348 . S
C1798 C1800 1.356 . S
C1798 O1823 1.325 . S
C1799 C1798 1.348 . S
C1799 C1801 1.353 . S
C1799 H1840 0.929 . S
C1800 C1798 1.356 . S
C1800 C1802 1.358 . S
C1800 H1841 0.930 . S
C1801 C1799 1.353 . S
C1801 N1803 1.314 . S
C1801 H1842 0.930 . S
C1802 C1800 1.358 . S
C1802 N1803 1.279 . S
C1802 H1843 0.930 . S
N1803 C1801 1.314 . S
N1803 C1802 1.279 . S
C1804 C1806 1.353 . S
C1804 N1807 1.314 . S
C1804 H1810 0.930 . S
C1805 N1807 1.279 . S
C1805 C1808 1.358 1_655 S
C1805 H1811 0.930 . S
C1806 C1804 1.353 . S
C1806 C1809 1.348 1_655 S
C1806 H1844 0.929 . S
N1807 Li1762 1.990 . S
N1807 C1804 1.314 . S
N1807 C1805 1.279 . S
C1808 C1805 1.358 1_455 S
C1808 C1809 1.356 . S
C1808 H1845 0.930 . S
C1809 C1806 1.348 1_455 S
C1809 C1808 1.356 . S
H1810 C1804 0.930 . S
H1811 C1805 0.930 . S
C1812 N1813 1.314 . S
C1812 C1814 1.353 . S
C1812 H1818 0.930 . S
N1813 Li1763 1.990 . S
N1813 C1812 1.314 . S
N1813 C1816 1.279 . S
C1814 C1812 1.353 . S
C1814 C1817 1.348 . S
C1814 H1846 0.929 . S
C1815 C1816 1.358 . S
C1815 C1817 1.356 . S
C1815 H1847 0.930 . S
C1816 N1813 1.279 . S
C1816 C1815 1.358 . S
C1816 H1819 0.930 . S
C1817 C1814 1.348 . S
C1817 C1815 1.356 . S
H1818 C1812 0.930 . S
H1819 C1816 0.930 . S
O1820 Li1760 1.956 . S
O1820 Li1761 1.970 . S
O1820 Li1762 1.961 . S
O1820 C1764 1.325 . S
O1821 Li1760 1.970 . S
O1821 Li1761 1.956 . S
O1821 Li1763 1.961 . S
O1821 C1770 1.325 . S
O1822 Li1760 1.961 . S
O1822 Li1762 1.956 . S
O1822 Li1763 1.970 . S
O1822 C1792 1.325 . S
O1823 Li1761 1.961 . S
O1823 Li1762 1.970 . S
O1823 Li1763 1.956 . S
O1823 C1798 1.325 . S
H1824 C1766 0.929 . S
H1825 C1767 0.930 . S
H1826 C1768 0.930 . S
H1827 C1769 0.930 . S
H1828 C1771 0.930 . S
H1829 C1773 0.929 . S
H1830 C1774 0.930 . S
H1831 C1775 0.930 . S
H1832 C1778 0.930 . S
H1833 C1781 0.929 . S
H1834 C1786 0.929 . S
H1835 C1787 0.930 . S
H1836 C1794 0.929 . S
H1837 C1795 0.930 . S
H1838 C1796 0.930 . S
H1839 C1797 0.930 . S
H1840 C1799 0.929 . S
H1841 C1800 0.930 . S
H1842 C1801 0.930 . S
H1843 C1802 0.930 . S
H1844 C1806 0.929 . S
H1845 C1808 0.930 . S
H1846 C1814 0.929 . S
H1847 C1815 0.930 . S
Li1848 N1865 1.990 . S
Li1848 O1908 1.956 . S
Li1848 O1909 1.970 . S
Li1848 O1910 1.961 . S
Li1849 N1873 1.990 . S
Li1849 O1908 1.970 . S
Li1849 O1909 1.956 . S
Li1849 O1911 1.961 . S
Li1850 N1895 1.990 . S
Li1850 O1908 1.961 . S
Li1850 O1910 1.956 . S
Li1850 O1911 1.970 . S
Li1851 N1901 1.990 . S
Li1851 O1909 1.961 . S
Li1851 O1910 1.970 . S
Li1851 O1911 1.956 . S
C1852 C1854 1.348 . S
C1852 C1855 1.356 . S
C1852 O1908 1.325 . S
N1853 C1856 1.314 . S
N1853 C1857 1.279 . S
C1854 C1852 1.348 . S
C1854 C1856 1.353 . S
C1854 H1912 0.929 . S
C1855 C1852 1.356 . S
C1855 C1857 1.358 . S
C1855 H1913 0.930 . S
C1856 N1853 1.314 . S
C1856 C1854 1.353 . S
C1856 H1914 0.930 . S
C1857 N1853 1.279 . S
C1857 C1855 1.358 . S
C1857 H1915 0.930 . S
C1858 C1861 1.348 . S
C1858 C1862 1.356 . S
C1858 O1909 1.325 . S
C1859 N1860 1.279 . S
C1859 C1862 1.358 . S
C1859 H1916 0.930 . S
N1860 C1859 1.279 . S
N1860 C1863 1.314 . S
C1861 C1858 1.348 . S
C1861 C1863 1.353 . S
C1861 H1917 0.929 . S
C1862 C1858 1.356 . S
C1862 C1859 1.358 . S
C1862 H1918 0.930 . S
C1863 N1860 1.314 . S
C1863 C1861 1.353 . S
C1863 H1919 0.930 . S
C1864 N1865 1.314 . S
C1864 C1869 1.353 . S
C1864 H1870 0.930 . S
N1865 Li1848 1.990 . S
N1865 C1864 1.314 . S
N1865 C1867 1.279 . S
C1866 C1867 1.358 . S
C1866 C1868 1.356 . S
C1866 H1920 0.930 . S
C1867 N1865 1.279 . S
C1867 C1866 1.358 . S
C1867 H1871 0.930 . S
C1868 C1866 1.356 . S
C1868 C1869 1.348 . S
C1869 C1864 1.353 . S
C1869 C1868 1.348 . S
C1869 H1921 0.929 . S
H1870 C1864 0.930 . S
H1871 C1867 0.930 . S
C1872 N1873 1.314 . S
C1872 C1874 1.353 . S
C1872 H1878 0.930 . S
N1873 Li1849 1.990 . S
N1873 C1872 1.314 . S
N1873 C1876 1.279 . S
C1874 C1872 1.353 . S
C1874 C1877 1.348 . S
C1874 H1922 0.929 . S
C1875 C1876 1.358 . S
C1875 C1877 1.356 . S
C1875 H1923 0.930 . S
C1876 N1873 1.279 . S
C1876 C1875 1.358 . S
C1876 H1879 0.930 . S
C1877 C1874 1.348 . S
C1877 C1875 1.356 . S
H1878 C1872 0.930 . S
H1879 C1876 0.930 . S
C1880 C1882 1.348 . S
C1880 C1883 1.356 . S
C1880 O1910 1.325 . S
N1881 C1884 1.314 . S
N1881 C1885 1.279 . S
C1882 C1880 1.348 . S
C1882 C1884 1.353 . S
C1882 H1924 0.929 . S
C1883 C1880 1.356 . S
C1883 C1885 1.358 . S
C1883 H1925 0.930 . S
C1884 N1881 1.314 . S
C1884 C1882 1.353 . S
C1884 H1926 0.930 . S
C1885 N1881 1.279 . S
C1885 C1883 1.358 . S
C1885 H1927 0.930 . S
C1886 C1887 1.348 . S
C1886 C1888 1.356 . S
C1886 O1911 1.325 . S
C1887 C1886 1.348 . S
C1887 C1889 1.353 . S
C1887 H1928 0.929 . S
C1888 C1886 1.356 . S
C1888 C1890 1.358 . S
C1888 H1929 0.930 . S
C1889 C1887 1.353 . S
C1889 N1891 1.314 . S
C1889 H1930 0.930 . S
C1890 C1888 1.358 . S
C1890 N1891 1.279 . S
C1890 H1931 0.930 . S
N1891 C1889 1.314 . S
N1891 C1890 1.279 . S
C1892 C1894 1.353 . S
C1892 N1895 1.314 . S
C1892 H1898 0.930 . S
C1893 N1895 1.279 . S
C1893 C1896 1.358 . S
C1893 H1899 0.930 . S
C1894 C1892 1.353 . S
C1894 C1897 1.348 . S
C1894 H1932 0.929 . S
N1895 Li1850 1.990 . S
N1895 C1892 1.314 . S
N1895 C1893 1.279 . S
C1896 C1893 1.358 . S
C1896 C1897 1.356 . S
C1896 H1933 0.930 . S
C1897 C1894 1.348 . S
C1897 C1896 1.356 . S
H1898 C1892 0.930 . S
H1899 C1893 0.930 . S
C1900 N1901 1.314 . S
C1900 C1902 1.353 . S
C1900 H1906 0.930 . S
N1901 Li1851 1.990 . S
N1901 C1900 1.314 . S
N1901 C1904 1.279 . S
C1902 C1900 1.353 . S
C1902 C1905 1.348 . S
C1902 H1934 0.929 . S
C1903 C1904 1.358 . S
C1903 C1905 1.356 . S
C1903 H1935 0.930 . S
C1904 N1901 1.279 . S
C1904 C1903 1.358 . S
C1904 H1907 0.930 . S
C1905 C1902 1.348 . S
C1905 C1903 1.356 . S
H1906 C1900 0.930 . S
H1907 C1904 0.930 . S
O1908 Li1848 1.956 . S
O1908 Li1849 1.970 . S
O1908 Li1850 1.961 . S
O1908 C1852 1.325 . S
O1909 Li1848 1.970 . S
O1909 Li1849 1.956 . S
O1909 Li1851 1.961 . S
O1909 C1858 1.325 . S
O1910 Li1848 1.961 . S
O1910 Li1850 1.956 . S
O1910 Li1851 1.970 . S
O1910 C1880 1.325 . S
O1911 Li1849 1.961 . S
O1911 Li1850 1.970 . S
O1911 Li1851 1.956 . S
O1911 C1886 1.325 . S
H1912 C1854 0.929 . S
H1913 C1855 0.930 . S
H1914 C1856 0.930 . S
H1915 C1857 0.930 . S
H1916 C1859 0.930 . S
H1917 C1861 0.929 . S
H1918 C1862 0.930 . S
H1919 C1863 0.930 . S
H1920 C1866 0.930 . S
H1921 C1869 0.929 . S
H1922 C1874 0.929 . S
H1923 C1875 0.930 . S
H1924 C1882 0.929 . S
H1925 C1883 0.930 . S
H1926 C1884 0.930 . S
H1927 C1885 0.930 . S
H1928 C1887 0.929 . S
H1929 C1888 0.930 . S
H1930 C1889 0.930 . S
H1931 C1890 0.930 . S
H1932 C1894 0.929 . S
H1933 C1896 0.930 . S
H1934 C1902 0.929 . S
H1935 C1903 0.930 . S
Li1936 N1953 1.990 . S
Li1936 O1996 1.956 . S
Li1936 O1997 1.970 . S
Li1936 O1998 1.961 . S
Li1937 N1961 1.990 . S
Li1937 O1996 1.970 . S
Li1937 O1997 1.956 . S
Li1937 O1999 1.961 . S
Li1938 N1983 1.990 . S
Li1938 O1996 1.961 . S
Li1938 O1998 1.956 . S
Li1938 O1999 1.970 . S
Li1939 N1989 1.990 . S
Li1939 O1997 1.961 . S
Li1939 O1998 1.970 . S
Li1939 O1999 1.956 . S
C1940 C1942 1.348 . S
C1940 C1943 1.356 . S
C1940 O1996 1.325 . S
N1941 C1944 1.314 . S
N1941 C1945 1.279 . S
C1942 C1940 1.348 . S
C1942 C1944 1.353 . S
C1942 H2000 0.929 . S
C1943 C1940 1.356 . S
C1943 C1945 1.358 . S
C1943 H2001 0.930 . S
C1944 N1941 1.314 . S
C1944 C1942 1.353 . S
C1944 H2002 0.930 . S
C1945 N1941 1.279 . S
C1945 C1943 1.358 . S
C1945 H2003 0.930 . S
C1946 C1949 1.348 . S
C1946 C1950 1.356 . S
C1946 O1997 1.325 . S
C1947 N1948 1.279 . S
C1947 C1950 1.358 . S
C1947 H2004 0.930 . S
N1948 C1947 1.279 . S
N1948 C1951 1.314 . S
C1949 C1946 1.348 . S
C1949 C1951 1.353 . S
C1949 H2005 0.929 . S
C1950 C1946 1.356 . S
C1950 C1947 1.358 . S
C1950 H2006 0.930 . S
C1951 N1948 1.314 . S
C1951 C1949 1.353 . S
C1951 H2007 0.930 . S
C1952 N1953 1.314 . S
C1952 C1957 1.353 . S
C1952 H1958 0.930 . S
N1953 Li1936 1.990 . S
N1953 C1952 1.314 . S
N1953 C1955 1.279 . S
C1954 C1955 1.358 . S
C1954 C1956 1.356 . S
C1954 H2008 0.930 . S
C1955 N1953 1.279 . S
C1955 C1954 1.358 . S
C1955 H1959 0.930 . S
C1956 C1954 1.356 . S
C1956 C1957 1.348 . S
C1957 C1952 1.353 . S
C1957 C1956 1.348 . S
C1957 H2009 0.929 . S
H1958 C1952 0.930 . S
H1959 C1955 0.930 . S
C1960 N1961 1.314 . S
C1960 C1962 1.353 . S
C1960 H1966 0.930 . S
N1961 Li1937 1.990 . S
N1961 C1960 1.314 . S
N1961 C1964 1.279 . S
C1962 C1960 1.353 . S
C1962 C1965 1.348 . S
C1962 H2010 0.929 . S
C1963 C1964 1.358 . S
C1963 C1965 1.356 . S
C1963 H2011 0.930 . S
C1964 N1961 1.279 . S
C1964 C1963 1.358 . S
C1964 H1967 0.930 . S
C1965 C1962 1.348 . S
C1965 C1963 1.356 . S
H1966 C1960 0.930 . S
H1967 C1964 0.930 . S
C1968 C1970 1.348 . S
C1968 C1971 1.356 . S
C1968 O1998 1.325 . S
N1969 C1972 1.314 . S
N1969 C1973 1.279 . S
C1970 C1968 1.348 . S
C1970 C1972 1.353 . S
C1970 H2012 0.929 . S
C1971 C1968 1.356 . S
C1971 C1973 1.358 . S
C1971 H2013 0.930 . S
C1972 N1969 1.314 . S
C1972 C1970 1.353 . S
C1972 H2014 0.930 . S
C1973 N1969 1.279 . S
C1973 C1971 1.358 . S
C1973 H2015 0.930 . S
C1974 C1975 1.348 . S
C1974 C1976 1.356 . S
C1974 O1999 1.325 . S
C1975 C1974 1.348 . S
C1975 C1977 1.353 . S
C1975 H2016 0.929 . S
C1976 C1974 1.356 . S
C1976 C1978 1.358 . S
C1976 H2017 0.930 . S
C1977 C1975 1.353 . S
C1977 N1979 1.314 . S
C1977 H2018 0.930 . S
C1978 C1976 1.358 . S
C1978 N1979 1.279 . S
C1978 H2019 0.930 . S
N1979 C1977 1.314 . S
N1979 C1978 1.279 . S
C1980 C1982 1.353 . S
C1980 N1983 1.314 . S
C1980 H1986 0.930 . S
C1981 N1983 1.279 . S
C1981 C1984 1.358 . S
C1981 H1987 0.930 . S
C1982 C1980 1.353 . S
C1982 C1985 1.348 . S
C1982 H2020 0.929 . S
N1983 Li1938 1.990 . S
N1983 C1980 1.314 . S
N1983 C1981 1.279 . S
C1984 C1981 1.358 . S
C1984 C1985 1.356 . S
C1984 H2021 0.930 . S
C1985 C1982 1.348 . S
C1985 C1984 1.356 . S
H1986 C1980 0.930 . S
H1987 C1981 0.930 . S
C1988 N1989 1.314 . S
C1988 C1990 1.353 . S
C1988 H1994 0.930 . S
N1989 Li1939 1.990 . S
N1989 C1988 1.314 . S
N1989 C1992 1.279 . S
C1990 C1988 1.353 . S
C1990 C1993 1.348 . S
C1990 H2022 0.929 . S
C1991 C1992 1.358 . S
C1991 C1993 1.356 . S
C1991 H2023 0.930 . S
C1992 N1989 1.279 . S
C1992 C1991 1.358 . S
C1992 H1995 0.930 . S
C1993 C1990 1.348 . S
C1993 C1991 1.356 . S
H1994 C1988 0.930 . S
H1995 C1992 0.930 . S
O1996 Li1936 1.956 . S
O1996 Li1937 1.970 . S
O1996 Li1938 1.961 . S
O1996 C1940 1.325 . S
O1997 Li1936 1.970 . S
O1997 Li1937 1.956 . S
O1997 Li1939 1.961 . S
O1997 C1946 1.325 . S
O1998 Li1936 1.961 . S
O1998 Li1938 1.956 . S
O1998 Li1939 1.970 . S
O1998 C1968 1.325 . S
O1999 Li1937 1.961 . S
O1999 Li1938 1.970 . S
O1999 Li1939 1.956 . S
O1999 C1974 1.325 . S
H2000 C1942 0.929 . S
H2001 C1943 0.930 . S
H2002 C1944 0.930 . S
H2003 C1945 0.930 . S
H2004 C1947 0.930 . S
H2005 C1949 0.929 . S
H2006 C1950 0.930 . S
H2007 C1951 0.930 . S
H2008 C1954 0.930 . S
H2009 C1957 0.929 . S
H2010 C1962 0.929 . S
H2011 C1963 0.930 . S
H2012 C1970 0.929 . S
H2013 C1971 0.930 . S
H2014 C1972 0.930 . S
H2015 C1973 0.930 . S
H2016 C1975 0.929 . S
H2017 C1976 0.930 . S
H2018 C1977 0.930 . S
H2019 C1978 0.930 . S
H2020 C1982 0.929 . S
H2021 C1984 0.930 . S
H2022 C1990 0.929 . S
H2023 C1991 0.930 . S
Li2024 N2041 1.990 . S
Li2024 O2084 1.956 . S
Li2024 O2085 1.970 . S
Li2024 O2086 1.961 . S
Li2025 N2049 1.990 . S
Li2025 O2084 1.970 . S
Li2025 O2085 1.956 . S
Li2025 O2087 1.961 . S
Li2026 N2071 1.990 . S
Li2026 O2084 1.961 . S
Li2026 O2086 1.956 . S
Li2026 O2087 1.970 . S
Li2027 N2077 1.990 . S
Li2027 O2085 1.961 . S
Li2027 O2086 1.970 . S
Li2027 O2087 1.956 . S
C2028 C2030 1.348 . S
C2028 C2031 1.356 . S
C2028 O2084 1.325 . S
N2029 C2032 1.314 . S
N2029 C2033 1.279 . S
C2030 C2028 1.348 . S
C2030 C2032 1.353 . S
C2030 H2088 0.929 . S
C2031 C2028 1.356 . S
C2031 C2033 1.358 . S
C2031 H2089 0.930 . S
C2032 N2029 1.314 . S
C2032 C2030 1.353 . S
C2032 H2090 0.930 . S
C2033 N2029 1.279 . S
C2033 C2031 1.358 . S
C2033 H2091 0.930 . S
C2034 C2037 1.348 . S
C2034 C2038 1.356 . S
C2034 O2085 1.325 . S
C2035 N2036 1.279 . S
C2035 C2038 1.358 . S
C2035 H2092 0.930 . S
N2036 C2035 1.279 . S
N2036 C2039 1.314 . S
C2037 C2034 1.348 . S
C2037 C2039 1.353 . S
C2037 H2093 0.929 . S
C2038 C2034 1.356 . S
C2038 C2035 1.358 . S
C2038 H2094 0.930 . S
C2039 N2036 1.314 . S
C2039 C2037 1.353 . S
C2039 H2095 0.930 . S
C2040 N2041 1.314 . S
C2040 C2045 1.353 . S
C2040 H2046 0.930 . S
N2041 Li2024 1.990 . S
N2041 C2040 1.314 . S
N2041 C2043 1.279 . S
C2042 C2043 1.358 . S
C2042 C2044 1.356 . S
C2042 H2096 0.930 . S
C2043 N2041 1.279 . S
C2043 C2042 1.358 . S
C2043 H2047 0.930 . S
C2044 C2042 1.356 . S
C2044 C2045 1.348 . S
C2045 C2040 1.353 . S
C2045 C2044 1.348 . S
C2045 H2097 0.929 . S
H2046 C2040 0.930 . S
H2047 C2043 0.930 . S
C2048 N2049 1.314 . S
C2048 C2050 1.353 . S
C2048 H2054 0.930 . S
N2049 Li2025 1.990 . S
N2049 C2048 1.314 . S
N2049 C2052 1.279 . S
C2050 C2048 1.353 . S
C2050 C2053 1.348 . S
C2050 H2098 0.929 . S
C2051 C2052 1.358 . S
C2051 C2053 1.356 . S
C2051 H2099 0.930 . S
C2052 N2049 1.279 . S
C2052 C2051 1.358 . S
C2052 H2055 0.930 . S
C2053 C2050 1.348 . S
C2053 C2051 1.356 . S
H2054 C2048 0.930 . S
H2055 C2052 0.930 . S
C2056 C2058 1.348 . S
C2056 C2059 1.356 . S
C2056 O2086 1.325 . S
N2057 C2060 1.314 . S
N2057 C2061 1.279 . S
C2058 C2056 1.348 . S
C2058 C2060 1.353 . S
C2058 H2100 0.929 . S
C2059 C2056 1.356 . S
C2059 C2061 1.358 . S
C2059 H2101 0.930 . S
C2060 N2057 1.314 . S
C2060 C2058 1.353 . S
C2060 H2102 0.930 . S
C2061 N2057 1.279 . S
C2061 C2059 1.358 . S
C2061 H2103 0.930 . S
C2062 C2063 1.348 . S
C2062 C2064 1.356 . S
C2062 O2087 1.325 . S
C2063 C2062 1.348 . S
C2063 C2065 1.353 . S
C2063 H2104 0.929 . S
C2064 C2062 1.356 . S
C2064 C2066 1.358 . S
C2064 H2105 0.930 . S
C2065 C2063 1.353 . S
C2065 N2067 1.314 . S
C2065 H2106 0.930 . S
C2066 C2064 1.358 . S
C2066 N2067 1.279 . S
C2066 H2107 0.930 . S
N2067 C2065 1.314 . S
N2067 C2066 1.279 . S
C2068 C2070 1.353 . S
C2068 N2071 1.314 . S
C2068 H2074 0.930 . S
C2069 N2071 1.279 . S
C2069 C2072 1.358 . S
C2069 H2075 0.930 . S
C2070 C2068 1.353 . S
C2070 C2073 1.348 . S
C2070 H2108 0.929 . S
N2071 Li2026 1.990 . S
N2071 C2068 1.314 . S
N2071 C2069 1.279 . S
C2072 C2069 1.358 . S
C2072 C2073 1.356 . S
C2072 H2109 0.930 . S
C2073 C2070 1.348 . S
C2073 C2072 1.356 . S
H2074 C2068 0.930 . S
H2075 C2069 0.930 . S
C2076 N2077 1.314 . S
C2076 C2078 1.353 . S
C2076 H2082 0.930 . S
N2077 Li2027 1.990 . S
N2077 C2076 1.314 . S
N2077 C2080 1.279 . S
C2078 C2076 1.353 . S
C2078 C2081 1.348 . S
C2078 H2110 0.929 . S
C2079 C2080 1.358 . S
C2079 C2081 1.356 . S
C2079 H2111 0.930 . S
C2080 N2077 1.279 . S
C2080 C2079 1.358 . S
C2080 H2083 0.930 . S
C2081 C2078 1.348 . S
C2081 C2079 1.356 . S
H2082 C2076 0.930 . S
H2083 C2080 0.930 . S
O2084 Li2024 1.956 . S
O2084 Li2025 1.970 . S
O2084 Li2026 1.961 . S
O2084 C2028 1.325 . S
O2085 Li2024 1.970 . S
O2085 Li2025 1.956 . S
O2085 Li2027 1.961 . S
O2085 C2034 1.325 . S
O2086 Li2024 1.961 . S
O2086 Li2026 1.956 . S
O2086 Li2027 1.970 . S
O2086 C2056 1.325 . S
O2087 Li2025 1.961 . S
O2087 Li2026 1.970 . S
O2087 Li2027 1.956 . S
O2087 C2062 1.325 . S
H2088 C2030 0.929 . S
H2089 C2031 0.930 . S
H2090 C2032 0.930 . S
H2091 C2033 0.930 . S
H2092 C2035 0.930 . S
H2093 C2037 0.929 . S
H2094 C2038 0.930 . S
H2095 C2039 0.930 . S
H2096 C2042 0.930 . S
H2097 C2045 0.929 . S
H2098 C2050 0.929 . S
H2099 C2051 0.930 . S
H2100 C2058 0.929 . S
H2101 C2059 0.930 . S
H2102 C2060 0.930 . S
H2103 C2061 0.930 . S
H2104 C2063 0.929 . S
H2105 C2064 0.930 . S
H2106 C2065 0.930 . S
H2107 C2066 0.930 . S
H2108 C2070 0.929 . S
H2109 C2072 0.930 . S
H2110 C2078 0.929 . S
H2111 C2079 0.930 . S
Li2112 N2129 1.990 . S
Li2112 O2172 1.956 . S
Li2112 O2173 1.970 . S
Li2112 O2174 1.961 . S
Li2113 N2137 1.990 . S
Li2113 O2172 1.970 . S
Li2113 O2173 1.956 . S
Li2113 O2175 1.961 . S
Li2114 N2159 1.990 . S
Li2114 O2172 1.961 . S
Li2114 O2174 1.956 . S
Li2114 O2175 1.970 . S
Li2115 N2165 1.990 . S
Li2115 O2173 1.961 . S
Li2115 O2174 1.970 . S
Li2115 O2175 1.956 . S
C2116 C2118 1.348 . S
C2116 C2119 1.356 . S
C2116 O2172 1.325 . S
N2117 C2120 1.314 . S
N2117 C2121 1.279 . S
C2118 C2116 1.348 . S
C2118 C2120 1.353 . S
C2118 H2176 0.929 . S
C2119 C2116 1.356 . S
C2119 C2121 1.358 . S
C2119 H2177 0.930 . S
C2120 N2117 1.314 . S
C2120 C2118 1.353 . S
C2120 H2178 0.930 . S
C2121 N2117 1.279 . S
C2121 C2119 1.358 . S
C2121 H2179 0.930 . S
C2122 C2125 1.348 . S
C2122 C2126 1.356 . S
C2122 O2173 1.325 . S
C2123 N2124 1.279 . S
C2123 C2126 1.358 . S
C2123 H2180 0.930 . S
N2124 C2123 1.279 . S
N2124 C2127 1.314 . S
C2125 C2122 1.348 . S
C2125 C2127 1.353 . S
C2125 H2181 0.929 . S
C2126 C2122 1.356 . S
C2126 C2123 1.358 . S
C2126 H2182 0.930 . S
C2127 N2124 1.314 . S
C2127 C2125 1.353 . S
C2127 H2183 0.930 . S
C2128 N2129 1.314 . S
C2128 C2133 1.353 . S
C2128 H2134 0.930 . S
N2129 Li2112 1.990 . S
N2129 C2128 1.314 . S
N2129 C2131 1.279 . S
C2130 C2131 1.358 . S
C2130 C2132 1.356 . S
C2130 H2184 0.930 . S
C2131 N2129 1.279 . S
C2131 C2130 1.358 . S
C2131 H2135 0.930 . S
C2132 C2130 1.356 . S
C2132 C2133 1.348 . S
C2133 C2128 1.353 . S
C2133 C2132 1.348 . S
C2133 H2185 0.929 . S
H2134 C2128 0.930 . S
H2135 C2131 0.930 . S
C2136 N2137 1.314 . S
C2136 C2138 1.353 . S
C2136 H2142 0.930 . S
N2137 Li2113 1.990 . S
N2137 C2136 1.314 . S
N2137 C2140 1.279 . S
C2138 C2136 1.353 . S
C2138 C2141 1.348 . S
C2138 H2186 0.929 . S
C2139 C2140 1.358 . S
C2139 C2141 1.356 . S
C2139 H2187 0.930 . S
C2140 N2137 1.279 . S
C2140 C2139 1.358 . S
C2140 H2143 0.930 . S
C2141 C2138 1.348 . S
C2141 C2139 1.356 . S
H2142 C2136 0.930 . S
H2143 C2140 0.930 . S
C2144 C2146 1.348 . S
C2144 C2147 1.356 . S
C2144 O2174 1.325 . S
N2145 C2148 1.314 . S
N2145 C2149 1.279 . S
C2146 C2144 1.348 . S
C2146 C2148 1.353 . S
C2146 H2188 0.929 . S
C2147 C2144 1.356 . S
C2147 C2149 1.358 . S
C2147 H2189 0.930 . S
C2148 N2145 1.314 . S
C2148 C2146 1.353 . S
C2148 H2190 0.930 . S
C2149 N2145 1.279 . S
C2149 C2147 1.358 . S
C2149 H2191 0.930 . S
C2150 C2151 1.348 . S
C2150 C2152 1.356 . S
C2150 O2175 1.325 . S
C2151 C2150 1.348 . S
C2151 C2153 1.353 . S
C2151 H2192 0.929 . S
C2152 C2150 1.356 . S
C2152 C2154 1.358 . S
C2152 H2193 0.930 . S
C2153 C2151 1.353 . S
C2153 N2155 1.314 . S
C2153 H2194 0.930 . S
C2154 C2152 1.358 . S
C2154 N2155 1.279 . S
C2154 H2195 0.930 . S
N2155 C2153 1.314 . S
N2155 C2154 1.279 . S
C2156 C2158 1.353 . S
C2156 N2159 1.314 . S
C2156 H2162 0.930 . S
C2157 N2159 1.279 . S
C2157 C2160 1.358 . S
C2157 H2163 0.930 . S
C2158 C2156 1.353 . S
C2158 C2161 1.348 . S
C2158 H2196 0.929 . S
N2159 Li2114 1.990 . S
N2159 C2156 1.314 . S
N2159 C2157 1.279 . S
C2160 C2157 1.358 . S
C2160 C2161 1.356 . S
C2160 H2197 0.930 . S
C2161 C2158 1.348 . S
C2161 C2160 1.356 . S
H2162 C2156 0.930 . S
H2163 C2157 0.930 . S
C2164 N2165 1.314 . S
C2164 C2166 1.353 1_455 S
C2164 H2170 0.930 . S
N2165 Li2115 1.990 . S
N2165 C2164 1.314 . S
N2165 C2168 1.279 . S
C2166 C2164 1.353 1_655 S
C2166 C2169 1.348 . S
C2166 H2198 0.929 . S
C2167 C2168 1.358 . S
C2167 C2169 1.356 1_455 S
C2167 H2199 0.930 . S
C2168 N2165 1.279 . S
C2168 C2167 1.358 . S
C2168 H2171 0.930 . S
C2169 C2166 1.348 . S
C2169 C2167 1.356 1_655 S
H2170 C2164 0.930 . S
H2171 C2168 0.930 . S
O2172 Li2112 1.956 . S
O2172 Li2113 1.970 . S
O2172 Li2114 1.961 . S
O2172 C2116 1.325 . S
O2173 Li2112 1.970 . S
O2173 Li2113 1.956 . S
O2173 Li2115 1.961 . S
O2173 C2122 1.325 . S
O2174 Li2112 1.961 . S
O2174 Li2114 1.956 . S
O2174 Li2115 1.970 . S
O2174 C2144 1.325 . S
O2175 Li2113 1.961 . S
O2175 Li2114 1.970 . S
O2175 Li2115 1.956 . S
O2175 C2150 1.325 . S
H2176 C2118 0.929 . S
H2177 C2119 0.930 . S
H2178 C2120 0.930 . S
H2179 C2121 0.930 . S
H2180 C2123 0.930 . S
H2181 C2125 0.929 . S
H2182 C2126 0.930 . S
H2183 C2127 0.930 . S
H2184 C2130 0.930 . S
H2185 C2133 0.929 . S
H2186 C2138 0.929 . S
H2187 C2139 0.930 . S
H2188 C2146 0.929 . S
H2189 C2147 0.930 . S
H2190 C2148 0.930 . S
H2191 C2149 0.930 . S
H2192 C2151 0.929 . S
H2193 C2152 0.930 . S
H2194 C2153 0.930 . S
H2195 C2154 0.930 . S
H2196 C2158 0.929 . S
H2197 C2160 0.930 . S
H2198 C2166 0.929 . S
H2199 C2167 0.930 . S
Li2200 N2217 1.990 . S
Li2200 O2260 1.956 . S
Li2200 O2261 1.970 . S
Li2200 O2262 1.961 . S
Li2201 N2225 1.990 . S
Li2201 O2260 1.970 . S
Li2201 O2261 1.956 . S
Li2201 O2263 1.961 . S
Li2202 N2247 1.990 . S
Li2202 O2260 1.961 . S
Li2202 O2262 1.956 . S
Li2202 O2263 1.970 . S
Li2203 N2253 1.990 . S
Li2203 O2261 1.961 . S
Li2203 O2262 1.970 . S
Li2203 O2263 1.956 . S
C2204 C2206 1.348 . S
C2204 C2207 1.356 . S
C2204 O2260 1.325 . S
N2205 C2208 1.314 . S
N2205 C2209 1.279 . S
C2206 C2204 1.348 . S
C2206 C2208 1.353 . S
C2206 H2264 0.929 . S
C2207 C2204 1.356 . S
C2207 C2209 1.358 . S
C2207 H2265 0.930 . S
C2208 N2205 1.314 . S
C2208 C2206 1.353 . S
C2208 H2266 0.930 . S
C2209 N2205 1.279 . S
C2209 C2207 1.358 . S
C2209 H2267 0.930 . S
C2210 C2213 1.348 . S
C2210 C2214 1.356 . S
C2210 O2261 1.325 . S
C2211 N2212 1.279 . S
C2211 C2214 1.358 . S
C2211 H2268 0.930 . S
N2212 C2211 1.279 . S
N2212 C2215 1.314 . S
C2213 C2210 1.348 . S
C2213 C2215 1.353 . S
C2213 H2269 0.929 . S
C2214 C2210 1.356 . S
C2214 C2211 1.358 . S
C2214 H2270 0.930 . S
C2215 N2212 1.314 . S
C2215 C2213 1.353 . S
C2215 H2271 0.930 . S
C2216 N2217 1.314 . S
C2216 C2221 1.353 . S
C2216 H2222 0.930 . S
N2217 Li2200 1.990 . S
N2217 C2216 1.314 . S
N2217 C2219 1.279 . S
C2218 C2219 1.358 . S
C2218 C2220 1.356 . S
C2218 H2272 0.930 . S
C2219 N2217 1.279 . S
C2219 C2218 1.358 . S
C2219 H2223 0.930 . S
C2220 C2218 1.356 . S
C2220 C2221 1.348 . S
C2221 C2216 1.353 . S
C2221 C2220 1.348 . S
C2221 H2273 0.929 . S
H2222 C2216 0.930 . S
H2223 C2219 0.930 . S
C2224 N2225 1.314 . S
C2224 C2226 1.353 . S
C2224 H2230 0.930 . S
N2225 Li2201 1.990 . S
N2225 C2224 1.314 . S
N2225 C2228 1.279 . S
C2226 C2224 1.353 . S
C2226 C2229 1.348 . S
C2226 H2274 0.929 . S
C2227 C2228 1.358 . S
C2227 C2229 1.356 . S
C2227 H2275 0.930 . S
C2228 N2225 1.279 . S
C2228 C2227 1.358 . S
C2228 H2231 0.930 . S
C2229 C2226 1.348 . S
C2229 C2227 1.356 . S
H2230 C2224 0.930 . S
H2231 C2228 0.930 . S
C2232 C2234 1.348 . S
C2232 C2235 1.356 . S
C2232 O2262 1.325 . S
N2233 C2236 1.314 . S
N2233 C2237 1.279 . S
C2234 C2232 1.348 . S
C2234 C2236 1.353 . S
C2234 H2276 0.929 . S
C2235 C2232 1.356 . S
C2235 C2237 1.358 . S
C2235 H2277 0.930 . S
C2236 N2233 1.314 . S
C2236 C2234 1.353 . S
C2236 H2278 0.930 . S
C2237 N2233 1.279 . S
C2237 C2235 1.358 . S
C2237 H2279 0.930 . S
C2238 C2239 1.348 . S
C2238 C2240 1.356 . S
C2238 O2263 1.325 . S
C2239 C2238 1.348 . S
C2239 C2241 1.353 . S
C2239 H2280 0.929 . S
C2240 C2238 1.356 . S
C2240 C2242 1.358 . S
C2240 H2281 0.930 . S
C2241 C2239 1.353 . S
C2241 N2243 1.314 . S
C2241 H2282 0.930 . S
C2242 C2240 1.358 . S
C2242 N2243 1.279 . S
C2242 H2283 0.930 . S
N2243 C2241 1.314 . S
N2243 C2242 1.279 . S
C2244 C2246 1.353 . S
C2244 N2247 1.314 . S
C2244 H2250 0.930 . S
C2245 N2247 1.279 . S
C2245 C2248 1.358 . S
C2245 H2251 0.930 . S
C2246 C2244 1.353 . S
C2246 C2249 1.348 . S
C2246 H2284 0.929 . S
N2247 Li2202 1.990 . S
N2247 C2244 1.314 . S
N2247 C2245 1.279 . S
C2248 C2245 1.358 . S
C2248 C2249 1.356 . S
C2248 H2285 0.930 . S
C2249 C2246 1.348 . S
C2249 C2248 1.356 . S
H2250 C2244 0.930 . S
H2251 C2245 0.930 . S
C2252 N2253 1.314 . S
C2252 C2254 1.353 . S
C2252 H2258 0.930 . S
N2253 Li2203 1.990 . S
N2253 C2252 1.314 . S
N2253 C2256 1.279 . S
C2254 C2252 1.353 . S
C2254 C2257 1.348 . S
C2254 H2286 0.929 . S
C2255 C2256 1.358 . S
C2255 C2257 1.356 . S
C2255 H2287 0.930 . S
C2256 N2253 1.279 . S
C2256 C2255 1.358 . S
C2256 H2259 0.930 . S
C2257 C2254 1.348 . S
C2257 C2255 1.356 . S
H2258 C2252 0.930 . S
H2259 C2256 0.930 . S
O2260 Li2200 1.956 . S
O2260 Li2201 1.970 . S
O2260 Li2202 1.961 . S
O2260 C2204 1.325 . S
O2261 Li2200 1.970 . S
O2261 Li2201 1.956 . S
O2261 Li2203 1.961 . S
O2261 C2210 1.325 . S
O2262 Li2200 1.961 . S
O2262 Li2202 1.956 . S
O2262 Li2203 1.970 . S
O2262 C2232 1.325 . S
O2263 Li2201 1.961 . S
O2263 Li2202 1.970 . S
O2263 Li2203 1.956 . S
O2263 C2238 1.325 . S
H2264 C2206 0.929 . S
H2265 C2207 0.930 . S
H2266 C2208 0.930 . S
H2267 C2209 0.930 . S
H2268 C2211 0.930 . S
H2269 C2213 0.929 . S
H2270 C2214 0.930 . S
H2271 C2215 0.930 . S
H2272 C2218 0.930 . S
H2273 C2221 0.929 . S
H2274 C2226 0.929 . S
H2275 C2227 0.930 . S
H2276 C2234 0.929 . S
H2277 C2235 0.930 . S
H2278 C2236 0.930 . S
H2279 C2237 0.930 . S
H2280 C2239 0.929 . S
H2281 C2240 0.930 . S
H2282 C2241 0.930 . S
H2283 C2242 0.930 . S
H2284 C2246 0.929 . S
H2285 C2248 0.930 . S
H2286 C2254 0.929 . S
H2287 C2255 0.930 . S
Li2288 N2305 1.990 . S
Li2288 O2348 1.956 . S
Li2288 O2349 1.970 . S
Li2288 O2350 1.961 . S
Li2289 N2313 1.990 . S
Li2289 O2348 1.970 . S
Li2289 O2349 1.956 . S
Li2289 O2351 1.961 . S
Li2290 N2335 1.990 . S
Li2290 O2348 1.961 . S
Li2290 O2350 1.956 . S
Li2290 O2351 1.970 . S
Li2291 N2341 1.990 . S
Li2291 O2349 1.961 . S
Li2291 O2350 1.970 . S
Li2291 O2351 1.956 . S
C2292 C2294 1.348 . S
C2292 C2295 1.356 . S
C2292 O2348 1.325 . S
N2293 C2296 1.314 . S
N2293 C2297 1.279 . S
C2294 C2292 1.348 . S
C2294 C2296 1.353 . S
C2294 H2352 0.929 . S
C2295 C2292 1.356 . S
C2295 C2297 1.358 . S
C2295 H2353 0.930 . S
C2296 N2293 1.314 . S
C2296 C2294 1.353 . S
C2296 H2354 0.930 . S
C2297 N2293 1.279 . S
C2297 C2295 1.358 . S
C2297 H2355 0.930 . S
C2298 C2301 1.348 . S
C2298 C2302 1.356 . S
C2298 O2349 1.325 . S
C2299 N2300 1.279 . S
C2299 C2302 1.358 . S
C2299 H2356 0.930 . S
N2300 C2299 1.279 . S
N2300 C2303 1.314 . S
C2301 C2298 1.348 . S
C2301 C2303 1.353 . S
C2301 H2357 0.929 . S
C2302 C2298 1.356 . S
C2302 C2299 1.358 . S
C2302 H2358 0.930 . S
C2303 N2300 1.314 . S
C2303 C2301 1.353 . S
C2303 H2359 0.930 . S
C2304 N2305 1.314 . S
C2304 C2309 1.353 . S
C2304 H2310 0.930 . S
N2305 Li2288 1.990 . S
N2305 C2304 1.314 . S
N2305 C2307 1.279 . S
C2306 C2307 1.358 . S
C2306 C2308 1.356 . S
C2306 H2360 0.930 . S
C2307 N2305 1.279 . S
C2307 C2306 1.358 . S
C2307 H2311 0.930 . S
C2308 C2306 1.356 . S
C2308 C2309 1.348 . S
C2309 C2304 1.353 . S
C2309 C2308 1.348 . S
C2309 H2361 0.929 . S
H2310 C2304 0.930 . S
H2311 C2307 0.930 . S
C2312 N2313 1.314 . S
C2312 C2314 1.353 . S
C2312 H2318 0.930 . S
N2313 Li2289 1.990 . S
N2313 C2312 1.314 . S
N2313 C2316 1.279 . S
C2314 C2312 1.353 . S
C2314 C2317 1.348 . S
C2314 H2362 0.929 . S
C2315 C2316 1.358 . S
C2315 C2317 1.356 . S
C2315 H2363 0.930 . S
C2316 N2313 1.279 . S
C2316 C2315 1.358 . S
C2316 H2319 0.930 . S
C2317 C2314 1.348 . S
C2317 C2315 1.356 . S
H2318 C2312 0.930 . S
H2319 C2316 0.930 . S
C2320 C2322 1.348 . S
C2320 C2323 1.356 . S
C2320 O2350 1.325 . S
N2321 C2324 1.314 . S
N2321 C2325 1.279 . S
C2322 C2320 1.348 . S
C2322 C2324 1.353 . S
C2322 H2364 0.929 . S
C2323 C2320 1.356 . S
C2323 C2325 1.358 . S
C2323 H2365 0.930 . S
C2324 N2321 1.314 . S
C2324 C2322 1.353 . S
C2324 H2366 0.930 . S
C2325 N2321 1.279 . S
C2325 C2323 1.358 . S
C2325 H2367 0.930 . S
C2326 C2327 1.348 . S
C2326 C2328 1.356 . S
C2326 O2351 1.325 . S
C2327 C2326 1.348 . S
C2327 C2329 1.353 . S
C2327 H2368 0.929 . S
C2328 C2326 1.356 . S
C2328 C2330 1.358 . S
C2328 H2369 0.930 . S
C2329 C2327 1.353 . S
C2329 N2331 1.314 . S
C2329 H2370 0.930 . S
C2330 C2328 1.358 . S
C2330 N2331 1.279 . S
C2330 H2371 0.930 . S
N2331 C2329 1.314 . S
N2331 C2330 1.279 . S
C2332 C2334 1.353 . S
C2332 N2335 1.314 . S
C2332 H2338 0.930 . S
C2333 N2335 1.279 . S
C2333 C2336 1.358 . S
C2333 H2339 0.930 . S
C2334 C2332 1.353 . S
C2334 C2337 1.348 . S
C2334 H2372 0.929 . S
N2335 Li2290 1.990 . S
N2335 C2332 1.314 . S
N2335 C2333 1.279 . S
C2336 C2333 1.358 . S
C2336 C2337 1.356 . S
C2336 H2373 0.930 . S
C2337 C2334 1.348 . S
C2337 C2336 1.356 . S
H2338 C2332 0.930 . S
H2339 C2333 0.930 . S
C2340 N2341 1.314 . S
C2340 C2342 1.353 . S
C2340 H2346 0.930 . S
N2341 Li2291 1.990 . S
N2341 C2340 1.314 . S
N2341 C2344 1.279 . S
C2342 C2340 1.353 . S
C2342 C2345 1.348 . S
C2342 H2374 0.929 . S
C2343 C2344 1.358 . S
C2343 C2345 1.356 . S
C2343 H2375 0.930 . S
C2344 N2341 1.279 . S
C2344 C2343 1.358 . S
C2344 H2347 0.930 . S
C2345 C2342 1.348 . S
C2345 C2343 1.356 . S
H2346 C2340 0.930 . S
H2347 C2344 0.930 . S
O2348 Li2288 1.956 . S
O2348 Li2289 1.970 . S
O2348 Li2290 1.961 . S
O2348 C2292 1.325 . S
O2349 Li2288 1.970 . S
O2349 Li2289 1.956 . S
O2349 Li2291 1.961 . S
O2349 C2298 1.325 . S
O2350 Li2288 1.961 . S
O2350 Li2290 1.956 . S
O2350 Li2291 1.970 . S
O2350 C2320 1.325 . S
O2351 Li2289 1.961 . S
O2351 Li2290 1.970 . S
O2351 Li2291 1.956 . S
O2351 C2326 1.325 . S
H2352 C2294 0.929 . S
H2353 C2295 0.930 . S
H2354 C2296 0.930 . S
H2355 C2297 0.930 . S
H2356 C2299 0.930 . S
H2357 C2301 0.929 . S
H2358 C2302 0.930 . S
H2359 C2303 0.930 . S
H2360 C2306 0.930 . S
H2361 C2309 0.929 . S
H2362 C2314 0.929 . S
H2363 C2315 0.930 . S
H2364 C2322 0.929 . S
H2365 C2323 0.930 . S
H2366 C2324 0.930 . S
H2367 C2325 0.930 . S
H2368 C2327 0.929 . S
H2369 C2328 0.930 . S
H2370 C2329 0.930 . S
H2371 C2330 0.930 . S
H2372 C2334 0.929 . S
H2373 C2336 0.930 . S
H2374 C2342 0.929 . S
H2375 C2343 0.930 . S
Li2376 N2393 1.990 . S
Li2376 O2436 1.956 . S
Li2376 O2437 1.970 . S
Li2376 O2438 1.961 . S
Li2377 N2401 1.990 . S
Li2377 O2436 1.970 . S
Li2377 O2437 1.956 . S
Li2377 O2439 1.961 . S
Li2378 N2423 1.990 . S
Li2378 O2436 1.961 . S
Li2378 O2438 1.956 . S
Li2378 O2439 1.970 . S
Li2379 N2429 1.990 . S
Li2379 O2437 1.961 . S
Li2379 O2438 1.970 . S
Li2379 O2439 1.956 . S
C2380 C2382 1.348 . S
C2380 C2383 1.356 . S
C2380 O2436 1.325 . S
N2381 C2384 1.314 . S
N2381 C2385 1.279 . S
C2382 C2380 1.348 . S
C2382 C2384 1.353 . S
C2382 H2440 0.929 . S
C2383 C2380 1.356 . S
C2383 C2385 1.358 . S
C2383 H2441 0.930 . S
C2384 N2381 1.314 . S
C2384 C2382 1.353 . S
C2384 H2442 0.930 . S
C2385 N2381 1.279 . S
C2385 C2383 1.358 . S
C2385 H2443 0.930 . S
C2386 C2389 1.348 . S
C2386 C2390 1.356 . S
C2386 O2437 1.325 . S
C2387 N2388 1.279 . S
C2387 C2390 1.358 . S
C2387 H2444 0.930 . S
N2388 C2387 1.279 . S
N2388 C2391 1.314 . S
C2389 C2386 1.348 . S
C2389 C2391 1.353 . S
C2389 H2445 0.929 . S
C2390 C2386 1.356 . S
C2390 C2387 1.358 . S
C2390 H2446 0.930 . S
C2391 N2388 1.314 . S
C2391 C2389 1.353 . S
C2391 H2447 0.930 . S
C2392 N2393 1.314 . S
C2392 C2397 1.353 . S
C2392 H2398 0.930 . S
N2393 Li2376 1.990 . S
N2393 C2392 1.314 . S
N2393 C2395 1.279 . S
C2394 C2395 1.358 . S
C2394 C2396 1.356 . S
C2394 H2448 0.930 . S
C2395 N2393 1.279 . S
C2395 C2394 1.358 . S
C2395 H2399 0.930 . S
C2396 C2394 1.356 . S
C2396 C2397 1.348 . S
C2397 C2392 1.353 . S
C2397 C2396 1.348 . S
C2397 H2449 0.929 . S
H2398 C2392 0.930 . S
H2399 C2395 0.930 . S
C2400 N2401 1.314 . S
C2400 C2402 1.353 . S
C2400 H2406 0.930 . S
N2401 Li2377 1.990 . S
N2401 C2400 1.314 . S
N2401 C2404 1.279 . S
C2402 C2400 1.353 . S
C2402 C2405 1.348 . S
C2402 H2450 0.929 . S
C2403 C2404 1.358 . S
C2403 C2405 1.356 . S
C2403 H2451 0.930 . S
C2404 N2401 1.279 . S
C2404 C2403 1.358 . S
C2404 H2407 0.930 . S
C2405 C2402 1.348 . S
C2405 C2403 1.356 . S
H2406 C2400 0.930 . S
H2407 C2404 0.930 . S
C2408 C2410 1.348 . S
C2408 C2411 1.356 . S
C2408 O2438 1.325 . S
N2409 C2412 1.314 . S
N2409 C2413 1.279 . S
C2410 C2408 1.348 . S
C2410 C2412 1.353 . S
C2410 H2452 0.929 . S
C2411 C2408 1.356 . S
C2411 C2413 1.358 . S
C2411 H2453 0.930 . S
C2412 N2409 1.314 . S
C2412 C2410 1.353 . S
C2412 H2454 0.930 . S
C2413 N2409 1.279 . S
C2413 C2411 1.358 . S
C2413 H2455 0.930 . S
C2414 C2415 1.348 . S
C2414 C2416 1.356 . S
C2414 O2439 1.325 . S
C2415 C2414 1.348 . S
C2415 C2417 1.353 . S
C2415 H2456 0.929 . S
C2416 C2414 1.356 . S
C2416 C2418 1.358 . S
C2416 H2457 0.930 . S
C2417 C2415 1.353 . S
C2417 N2419 1.314 . S
C2417 H2458 0.930 . S
C2418 C2416 1.358 . S
C2418 N2419 1.279 . S
C2418 H2459 0.930 . S
N2419 C2417 1.314 . S
N2419 C2418 1.279 . S
C2420 C2422 1.353 . S
C2420 N2423 1.314 . S
C2420 H2426 0.930 . S
C2421 N2423 1.279 . S
C2421 C2424 1.358 . S
C2421 H2427 0.930 . S
C2422 C2420 1.353 . S
C2422 C2425 1.348 . S
C2422 H2460 0.929 . S
N2423 Li2378 1.990 . S
N2423 C2420 1.314 . S
N2423 C2421 1.279 . S
C2424 C2421 1.358 . S
C2424 C2425 1.356 . S
C2424 H2461 0.930 . S
C2425 C2422 1.348 . S
C2425 C2424 1.356 . S
H2426 C2420 0.930 . S
H2427 C2421 0.930 . S
C2428 N2429 1.314 . S
C2428 C2430 1.353 . S
C2428 H2434 0.930 . S
N2429 Li2379 1.990 . S
N2429 C2428 1.314 . S
N2429 C2432 1.279 . S
C2430 C2428 1.353 . S
C2430 C2433 1.348 . S
C2430 H2462 0.929 . S
C2431 C2432 1.358 . S
C2431 C2433 1.356 . S
C2431 H2463 0.930 . S
C2432 N2429 1.279 . S
C2432 C2431 1.358 . S
C2432 H2435 0.930 . S
C2433 C2430 1.348 . S
C2433 C2431 1.356 . S
H2434 C2428 0.930 . S
H2435 C2432 0.930 . S
O2436 Li2376 1.956 . S
O2436 Li2377 1.970 . S
O2436 Li2378 1.961 . S
O2436 C2380 1.325 . S
O2437 Li2376 1.970 . S
O2437 Li2377 1.956 . S
O2437 Li2379 1.961 . S
O2437 C2386 1.325 . S
O2438 Li2376 1.961 . S
O2438 Li2378 1.956 . S
O2438 Li2379 1.970 . S
O2438 C2408 1.325 . S
O2439 Li2377 1.961 . S
O2439 Li2378 1.970 . S
O2439 Li2379 1.956 . S
O2439 C2414 1.325 . S
H2440 C2382 0.929 . S
H2441 C2383 0.930 . S
H2442 C2384 0.930 . S
H2443 C2385 0.930 . S
H2444 C2387 0.930 . S
H2445 C2389 0.929 . S
H2446 C2390 0.930 . S
H2447 C2391 0.930 . S
H2448 C2394 0.930 . S
H2449 C2397 0.929 . S
H2450 C2402 0.929 . S
H2451 C2403 0.930 . S
H2452 C2410 0.929 . S
H2453 C2411 0.930 . S
H2454 C2412 0.930 . S
H2455 C2413 0.930 . S
H2456 C2415 0.929 . S
H2457 C2416 0.930 . S
H2458 C2417 0.930 . S
H2459 C2418 0.930 . S
H2460 C2422 0.929 . S
H2461 C2424 0.930 . S
H2462 C2430 0.929 . S
H2463 C2431 0.930 . S
Li2464 N2481 1.990 . S
Li2464 O2524 1.956 . S
Li2464 O2525 1.970 . S
Li2464 O2526 1.961 . S
Li2465 N2489 1.990 . S
Li2465 O2524 1.970 . S
Li2465 O2525 1.956 . S
Li2465 O2527 1.961 . S
Li2466 N2511 1.990 . S
Li2466 O2524 1.961 . S
Li2466 O2526 1.956 . S
Li2466 O2527 1.970 . S
Li2467 N2517 1.990 . S
Li2467 O2525 1.961 . S
Li2467 O2526 1.970 . S
Li2467 O2527 1.956 . S
C2468 C2470 1.348 . S
C2468 C2471 1.356 . S
C2468 O2524 1.325 . S
N2469 C2472 1.314 . S
N2469 C2473 1.279 . S
C2470 C2468 1.348 . S
C2470 C2472 1.353 . S
C2470 H2528 0.929 . S
C2471 C2468 1.356 . S
C2471 C2473 1.358 . S
C2471 H2529 0.930 . S
C2472 N2469 1.314 . S
C2472 C2470 1.353 . S
C2472 H2530 0.930 . S
C2473 N2469 1.279 . S
C2473 C2471 1.358 . S
C2473 H2531 0.930 . S
C2474 C2477 1.348 . S
C2474 C2478 1.356 . S
C2474 O2525 1.325 . S
C2475 N2476 1.279 . S
C2475 C2478 1.358 . S
C2475 H2532 0.930 . S
N2476 C2475 1.279 . S
N2476 C2479 1.314 . S
C2477 C2474 1.348 . S
C2477 C2479 1.353 . S
C2477 H2533 0.929 . S
C2478 C2474 1.356 . S
C2478 C2475 1.358 . S
C2478 H2534 0.930 . S
C2479 N2476 1.314 . S
C2479 C2477 1.353 . S
C2479 H2535 0.930 . S
C2480 N2481 1.314 . S
C2480 C2485 1.353 . S
C2480 H2486 0.930 . S
N2481 Li2464 1.990 . S
N2481 C2480 1.314 . S
N2481 C2483 1.279 . S
C2482 C2483 1.358 . S
C2482 C2484 1.356 . S
C2482 H2536 0.930 . S
C2483 N2481 1.279 . S
C2483 C2482 1.358 . S
C2483 H2487 0.930 . S
C2484 C2482 1.356 . S
C2484 C2485 1.348 . S
C2485 C2480 1.353 . S
C2485 C2484 1.348 . S
C2485 H2537 0.929 . S
H2486 C2480 0.930 . S
H2487 C2483 0.930 . S
C2488 N2489 1.314 . S
C2488 C2490 1.353 1_455 S
C2488 H2494 0.930 . S
N2489 Li2465 1.990 . S
N2489 C2488 1.314 . S
N2489 C2492 1.279 . S
C2490 C2488 1.353 1_655 S
C2490 C2493 1.348 . S
C2490 H2538 0.929 . S
C2491 C2492 1.358 . S
C2491 C2493 1.356 1_455 S
C2491 H2539 0.930 . S
C2492 N2489 1.279 . S
C2492 C2491 1.358 . S
C2492 H2495 0.930 . S
C2493 C2490 1.348 . S
C2493 C2491 1.356 1_655 S
H2494 C2488 0.930 . S
H2495 C2492 0.930 . S
C2496 C2498 1.348 . S
C2496 C2499 1.356 . S
C2496 O2526 1.325 . S
N2497 C2500 1.314 . S
N2497 C2501 1.279 . S
C2498 C2496 1.348 . S
C2498 C2500 1.353 . S
C2498 H2540 0.929 . S
C2499 C2496 1.356 . S
C2499 C2501 1.358 . S
C2499 H2541 0.930 . S
C2500 N2497 1.314 . S
C2500 C2498 1.353 . S
C2500 H2542 0.930 . S
C2501 N2497 1.279 . S
C2501 C2499 1.358 . S
C2501 H2543 0.930 . S
C2502 C2503 1.348 . S
C2502 C2504 1.356 . S
C2502 O2527 1.325 . S
C2503 C2502 1.348 . S
C2503 C2505 1.353 . S
C2503 H2544 0.929 . S
C2504 C2502 1.356 . S
C2504 C2506 1.358 . S
C2504 H2545 0.930 . S
C2505 C2503 1.353 . S
C2505 N2507 1.314 . S
C2505 H2546 0.930 . S
C2506 C2504 1.358 . S
C2506 N2507 1.279 . S
C2506 H2547 0.930 . S
N2507 C2505 1.314 . S
N2507 C2506 1.279 . S
C2508 C2510 1.353 . S
C2508 N2511 1.314 . S
C2508 H2514 0.930 . S
C2509 N2511 1.279 . S
C2509 C2512 1.358 . S
C2509 H2515 0.930 . S
C2510 C2508 1.353 . S
C2510 C2513 1.348 . S
C2510 H2548 0.929 . S
N2511 Li2466 1.990 . S
N2511 C2508 1.314 . S
N2511 C2509 1.279 . S
C2512 C2509 1.358 . S
C2512 C2513 1.356 . S
C2512 H2549 0.930 . S
C2513 C2510 1.348 . S
C2513 C2512 1.356 . S
H2514 C2508 0.930 . S
H2515 C2509 0.930 . S
C2516 N2517 1.314 . S
C2516 C2518 1.353 . S
C2516 H2522 0.930 . S
N2517 Li2467 1.990 . S
N2517 C2516 1.314 . S
N2517 C2520 1.279 . S
C2518 C2516 1.353 . S
C2518 C2521 1.348 . S
C2518 H2550 0.929 . S
C2519 C2520 1.358 . S
C2519 C2521 1.356 . S
C2519 H2551 0.930 . S
C2520 N2517 1.279 . S
C2520 C2519 1.358 . S
C2520 H2523 0.930 . S
C2521 C2518 1.348 . S
C2521 C2519 1.356 . S
H2522 C2516 0.930 . S
H2523 C2520 0.930 . S
O2524 Li2464 1.956 . S
O2524 Li2465 1.970 . S
O2524 Li2466 1.961 . S
O2524 C2468 1.325 . S
O2525 Li2464 1.970 . S
O2525 Li2465 1.956 . S
O2525 Li2467 1.961 . S
O2525 C2474 1.325 . S
O2526 Li2464 1.961 . S
O2526 Li2466 1.956 . S
O2526 Li2467 1.970 . S
O2526 C2496 1.325 . S
O2527 Li2465 1.961 . S
O2527 Li2466 1.970 . S
O2527 Li2467 1.956 . S
O2527 C2502 1.325 . S
H2528 C2470 0.929 . S
H2529 C2471 0.930 . S
H2530 C2472 0.930 . S
H2531 C2473 0.930 . S
H2532 C2475 0.930 . S
H2533 C2477 0.929 . S
H2534 C2478 0.930 . S
H2535 C2479 0.930 . S
H2536 C2482 0.930 . S
H2537 C2485 0.929 . S
H2538 C2490 0.929 . S
H2539 C2491 0.930 . S
H2540 C2498 0.929 . S
H2541 C2499 0.930 . S
H2542 C2500 0.930 . S
H2543 C2501 0.930 . S
H2544 C2503 0.929 . S
H2545 C2504 0.930 . S
H2546 C2505 0.930 . S
H2547 C2506 0.930 . S
H2548 C2510 0.929 . S
H2549 C2512 0.930 . S
H2550 C2518 0.929 . S
H2551 C2519 0.930 . S
Li2552 N2569 1.990 . S
Li2552 O2612 1.956 . S
Li2552 O2613 1.970 . S
Li2552 O2614 1.961 . S
Li2553 N2577 1.990 . S
Li2553 O2612 1.970 . S
Li2553 O2613 1.956 . S
Li2553 O2615 1.961 . S
Li2554 N2599 1.990 . S
Li2554 O2612 1.961 . S
Li2554 O2614 1.956 . S
Li2554 O2615 1.970 . S
Li2555 N2605 1.990 . S
Li2555 O2613 1.961 . S
Li2555 O2614 1.970 . S
Li2555 O2615 1.956 . S
C2556 C2558 1.348 . S
C2556 C2559 1.356 . S
C2556 O2612 1.325 . S
N2557 C2560 1.314 . S
N2557 C2561 1.279 . S
C2558 C2556 1.348 . S
C2558 C2560 1.353 . S
C2558 H2616 0.929 . S
C2559 C2556 1.356 . S
C2559 C2561 1.358 . S
C2559 H2617 0.930 . S
C2560 N2557 1.314 . S
C2560 C2558 1.353 . S
C2560 H2618 0.930 . S
C2561 N2557 1.279 . S
C2561 C2559 1.358 . S
C2561 H2619 0.930 . S
C2562 C2565 1.348 . S
C2562 C2566 1.356 . S
C2562 O2613 1.325 . S
C2563 N2564 1.279 . S
C2563 C2566 1.358 . S
C2563 H2620 0.930 . S
N2564 C2563 1.279 . S
N2564 C2567 1.314 . S
C2565 C2562 1.348 . S
C2565 C2567 1.353 . S
C2565 H2621 0.929 . S
C2566 C2562 1.356 . S
C2566 C2563 1.358 . S
C2566 H2622 0.930 . S
C2567 N2564 1.314 . S
C2567 C2565 1.353 . S
C2567 H2623 0.930 . S
C2568 N2569 1.314 . S
C2568 C2573 1.353 . S
C2568 H2574 0.930 . S
N2569 Li2552 1.990 . S
N2569 C2568 1.314 . S
N2569 C2571 1.279 . S
C2570 C2571 1.358 . S
C2570 C2572 1.356 . S
C2570 H2624 0.930 . S
C2571 N2569 1.279 . S
C2571 C2570 1.358 . S
C2571 H2575 0.930 . S
C2572 C2570 1.356 . S
C2572 C2573 1.348 . S
C2573 C2568 1.353 . S
C2573 C2572 1.348 . S
C2573 H2625 0.929 . S
H2574 C2568 0.930 . S
H2575 C2571 0.930 . S
C2576 N2577 1.314 . S
C2576 C2578 1.353 . S
C2576 H2582 0.930 . S
N2577 Li2553 1.990 . S
N2577 C2576 1.314 . S
N2577 C2580 1.279 . S
C2578 C2576 1.353 . S
C2578 C2581 1.348 . S
C2578 H2626 0.929 . S
C2579 C2580 1.358 . S
C2579 C2581 1.356 . S
C2579 H2627 0.930 . S
C2580 N2577 1.279 . S
C2580 C2579 1.358 . S
C2580 H2583 0.930 . S
C2581 C2578 1.348 . S
C2581 C2579 1.356 . S
H2582 C2576 0.930 . S
H2583 C2580 0.930 . S
C2584 C2586 1.348 . S
C2584 C2587 1.356 . S
C2584 O2614 1.325 . S
N2585 C2588 1.314 . S
N2585 C2589 1.279 . S
C2586 C2584 1.348 . S
C2586 C2588 1.353 . S
C2586 H2628 0.929 . S
C2587 C2584 1.356 . S
C2587 C2589 1.358 . S
C2587 H2629 0.930 . S
C2588 N2585 1.314 . S
C2588 C2586 1.353 . S
C2588 H2630 0.930 . S
C2589 N2585 1.279 . S
C2589 C2587 1.358 . S
C2589 H2631 0.930 . S
C2590 C2591 1.348 . S
C2590 C2592 1.356 . S
C2590 O2615 1.325 . S
C2591 C2590 1.348 . S
C2591 C2593 1.353 . S
C2591 H2632 0.929 . S
C2592 C2590 1.356 . S
C2592 C2594 1.358 . S
C2592 H2633 0.930 . S
C2593 C2591 1.353 . S
C2593 N2595 1.314 . S
C2593 H2634 0.930 . S
C2594 C2592 1.358 . S
C2594 N2595 1.279 . S
C2594 H2635 0.930 . S
N2595 C2593 1.314 . S
N2595 C2594 1.279 . S
C2596 C2598 1.353 . S
C2596 N2599 1.314 . S
C2596 H2602 0.930 . S
C2597 N2599 1.279 . S
C2597 C2600 1.358 . S
C2597 H2603 0.930 . S
C2598 C2596 1.353 . S
C2598 C2601 1.348 . S
C2598 H2636 0.929 . S
N2599 Li2554 1.990 . S
N2599 C2596 1.314 . S
N2599 C2597 1.279 . S
C2600 C2597 1.358 . S
C2600 C2601 1.356 . S
C2600 H2637 0.930 . S
C2601 C2598 1.348 . S
C2601 C2600 1.356 . S
H2602 C2596 0.930 . S
H2603 C2597 0.930 . S
C2604 N2605 1.314 . S
C2604 C2606 1.353 . S
C2604 H2610 0.930 . S
N2605 Li2555 1.990 . S
N2605 C2604 1.314 . S
N2605 C2608 1.279 . S
C2606 C2604 1.353 . S
C2606 C2609 1.348 . S
C2606 H2638 0.929 . S
C2607 C2608 1.358 . S
C2607 C2609 1.356 . S
C2607 H2639 0.930 . S
C2608 N2605 1.279 . S
C2608 C2607 1.358 . S
C2608 H2611 0.930 . S
C2609 C2606 1.348 . S
C2609 C2607 1.356 . S
H2610 C2604 0.930 . S
H2611 C2608 0.930 . S
O2612 Li2552 1.956 . S
O2612 Li2553 1.970 . S
O2612 Li2554 1.961 . S
O2612 C2556 1.325 . S
O2613 Li2552 1.970 . S
O2613 Li2553 1.956 . S
O2613 Li2555 1.961 . S
O2613 C2562 1.325 . S
O2614 Li2552 1.961 . S
O2614 Li2554 1.956 . S
O2614 Li2555 1.970 . S
O2614 C2584 1.325 . S
O2615 Li2553 1.961 . S
O2615 Li2554 1.970 . S
O2615 Li2555 1.956 . S
O2615 C2590 1.325 . S
H2616 C2558 0.929 . S
H2617 C2559 0.930 . S
H2618 C2560 0.930 . S
H2619 C2561 0.930 . S
H2620 C2563 0.930 . S
H2621 C2565 0.929 . S
H2622 C2566 0.930 . S
H2623 C2567 0.930 . S
H2624 C2570 0.930 . S
H2625 C2573 0.929 . S
H2626 C2578 0.929 . S
H2627 C2579 0.930 . S
H2628 C2586 0.929 . S
H2629 C2587 0.930 . S
H2630 C2588 0.930 . S
H2631 C2589 0.930 . S
H2632 C2591 0.929 . S
H2633 C2592 0.930 . S
H2634 C2593 0.930 . S
H2635 C2594 0.930 . S
H2636 C2598 0.929 . S
H2637 C2600 0.930 . S
H2638 C2606 0.929 . S
H2639 C2607 0.930 . S
Li2640 N2657 1.990 . S
Li2640 O2700 1.956 . S
Li2640 O2701 1.970 . S
Li2640 O2702 1.961 . S
Li2641 N2665 1.990 . S
Li2641 O2700 1.970 . S
Li2641 O2701 1.956 . S
Li2641 O2703 1.961 . S
Li2642 N2687 1.990 . S
Li2642 O2700 1.961 . S
Li2642 O2702 1.956 . S
Li2642 O2703 1.970 . S
Li2643 N2693 1.990 . S
Li2643 O2701 1.961 . S
Li2643 O2702 1.970 . S
Li2643 O2703 1.956 . S
C2644 C2646 1.348 . S
C2644 C2647 1.356 . S
C2644 O2700 1.325 . S
N2645 C2648 1.314 . S
N2645 C2649 1.279 . S
C2646 C2644 1.348 . S
C2646 C2648 1.353 . S
C2646 H2704 0.929 . S
C2647 C2644 1.356 . S
C2647 C2649 1.358 . S
C2647 H2705 0.930 . S
C2648 N2645 1.314 . S
C2648 C2646 1.353 . S
C2648 H2706 0.930 . S
C2649 N2645 1.279 . S
C2649 C2647 1.358 . S
C2649 H2707 0.930 . S
C2650 C2653 1.348 . S
C2650 C2654 1.356 . S
C2650 O2701 1.325 . S
C2651 N2652 1.279 . S
C2651 C2654 1.358 . S
C2651 H2708 0.930 . S
N2652 C2651 1.279 . S
N2652 C2655 1.314 . S
C2653 C2650 1.348 . S
C2653 C2655 1.353 . S
C2653 H2709 0.929 . S
C2654 C2650 1.356 . S
C2654 C2651 1.358 . S
C2654 H2710 0.930 . S
C2655 N2652 1.314 . S
C2655 C2653 1.353 . S
C2655 H2711 0.930 . S
C2656 N2657 1.314 . S
C2656 C2661 1.353 . S
C2656 H2662 0.930 . S
N2657 Li2640 1.990 . S
N2657 C2656 1.314 . S
N2657 C2659 1.279 . S
C2658 C2659 1.358 . S
C2658 C2660 1.356 . S
C2658 H2712 0.930 . S
C2659 N2657 1.279 . S
C2659 C2658 1.358 . S
C2659 H2663 0.930 . S
C2660 C2658 1.356 . S
C2660 C2661 1.348 . S
C2661 C2656 1.353 . S
C2661 C2660 1.348 . S
C2661 H2713 0.929 . S
H2662 C2656 0.930 . S
H2663 C2659 0.930 . S
C2664 N2665 1.314 . S
C2664 C2666 1.353 . S
C2664 H2670 0.930 . S
N2665 Li2641 1.990 . S
N2665 C2664 1.314 . S
N2665 C2668 1.279 . S
C2666 C2664 1.353 . S
C2666 C2669 1.348 . S
C2666 H2714 0.929 . S
C2667 C2668 1.358 . S
C2667 C2669 1.356 . S
C2667 H2715 0.930 . S
C2668 N2665 1.279 . S
C2668 C2667 1.358 . S
C2668 H2671 0.930 . S
C2669 C2666 1.348 . S
C2669 C2667 1.356 . S
H2670 C2664 0.930 . S
H2671 C2668 0.930 . S
C2672 C2674 1.348 . S
C2672 C2675 1.356 . S
C2672 O2702 1.325 . S
N2673 C2676 1.314 . S
N2673 C2677 1.279 . S
C2674 C2672 1.348 . S
C2674 C2676 1.353 . S
C2674 H2716 0.929 . S
C2675 C2672 1.356 . S
C2675 C2677 1.358 . S
C2675 H2717 0.930 . S
C2676 N2673 1.314 . S
C2676 C2674 1.353 . S
C2676 H2718 0.930 . S
C2677 N2673 1.279 . S
C2677 C2675 1.358 . S
C2677 H2719 0.930 . S
C2678 C2679 1.348 . S
C2678 C2680 1.356 . S
C2678 O2703 1.325 . S
C2679 C2678 1.348 . S
C2679 C2681 1.353 . S
C2679 H2720 0.929 . S
C2680 C2678 1.356 . S
C2680 C2682 1.358 . S
C2680 H2721 0.930 . S
C2681 C2679 1.353 . S
C2681 N2683 1.314 . S
C2681 H2722 0.930 . S
C2682 C2680 1.358 . S
C2682 N2683 1.279 . S
C2682 H2723 0.930 . S
N2683 C2681 1.314 . S
N2683 C2682 1.279 . S
C2684 C2686 1.353 . S
C2684 N2687 1.314 . S
C2684 H2690 0.930 . S
C2685 N2687 1.279 . S
C2685 C2688 1.358 . S
C2685 H2691 0.930 . S
C2686 C2684 1.353 . S
C2686 C2689 1.348 . S
C2686 H2724 0.929 . S
N2687 Li2642 1.990 . S
N2687 C2684 1.314 . S
N2687 C2685 1.279 . S
C2688 C2685 1.358 . S
C2688 C2689 1.356 . S
C2688 H2725 0.930 . S
C2689 C2686 1.348 . S
C2689 C2688 1.356 . S
H2690 C2684 0.930 . S
H2691 C2685 0.930 . S
C2692 N2693 1.314 . S
C2692 C2694 1.353 . S
C2692 H2698 0.930 . S
N2693 Li2643 1.990 . S
N2693 C2692 1.314 . S
N2693 C2696 1.279 . S
C2694 C2692 1.353 . S
C2694 C2697 1.348 . S
C2694 H2726 0.929 . S
C2695 C2696 1.358 . S
C2695 C2697 1.356 . S
C2695 H2727 0.930 . S
C2696 N2693 1.279 . S
C2696 C2695 1.358 . S
C2696 H2699 0.930 . S
C2697 C2694 1.348 . S
C2697 C2695 1.356 . S
H2698 C2692 0.930 . S
H2699 C2696 0.930 . S
O2700 Li2640 1.956 . S
O2700 Li2641 1.970 . S
O2700 Li2642 1.961 . S
O2700 C2644 1.325 . S
O2701 Li2640 1.970 . S
O2701 Li2641 1.956 . S
O2701 Li2643 1.961 . S
O2701 C2650 1.325 . S
O2702 Li2640 1.961 . S
O2702 Li2642 1.956 . S
O2702 Li2643 1.970 . S
O2702 C2672 1.325 . S
O2703 Li2641 1.961 . S
O2703 Li2642 1.970 . S
O2703 Li2643 1.956 . S
O2703 C2678 1.325 . S
H2704 C2646 0.929 . S
H2705 C2647 0.930 . S
H2706 C2648 0.930 . S
H2707 C2649 0.930 . S
H2708 C2651 0.930 . S
H2709 C2653 0.929 . S
H2710 C2654 0.930 . S
H2711 C2655 0.930 . S
H2712 C2658 0.930 . S
H2713 C2661 0.929 . S
H2714 C2666 0.929 . S
H2715 C2667 0.930 . S
H2716 C2674 0.929 . S
H2717 C2675 0.930 . S
H2718 C2676 0.930 . S
H2719 C2677 0.930 . S
H2720 C2679 0.929 . S
H2721 C2680 0.930 . S
H2722 C2681 0.930 . S
H2723 C2682 0.930 . S
H2724 C2686 0.929 . S
H2725 C2688 0.930 . S
H2726 C2694 0.929 . S
H2727 C2695 0.930 . S
Li2728 N2745 1.990 . S
Li2728 O2788 1.956 . S
Li2728 O2789 1.970 . S
Li2728 O2790 1.961 . S
Li2729 N2753 1.990 . S
Li2729 O2788 1.970 . S
Li2729 O2789 1.956 . S
Li2729 O2791 1.961 . S
Li2730 N2775 1.990 . S
Li2730 O2788 1.961 . S
Li2730 O2790 1.956 . S
Li2730 O2791 1.970 . S
Li2731 N2781 1.990 . S
Li2731 O2789 1.961 . S
Li2731 O2790 1.970 . S
Li2731 O2791 1.956 . S
C2732 C2734 1.348 . S
C2732 C2735 1.356 . S
C2732 O2788 1.325 . S
N2733 C2736 1.314 . S
N2733 C2737 1.279 . S
C2734 C2732 1.348 . S
C2734 C2736 1.353 . S
C2734 H2792 0.929 . S
C2735 C2732 1.356 . S
C2735 C2737 1.358 . S
C2735 H2793 0.930 . S
C2736 N2733 1.314 . S
C2736 C2734 1.353 . S
C2736 H2794 0.930 . S
C2737 N2733 1.279 . S
C2737 C2735 1.358 . S
C2737 H2795 0.930 . S
C2738 C2741 1.348 . S
C2738 C2742 1.356 . S
C2738 O2789 1.325 . S
C2739 N2740 1.279 . S
C2739 C2742 1.358 . S
C2739 H2796 0.930 . S
N2740 C2739 1.279 . S
N2740 C2743 1.314 . S
C2741 C2738 1.348 . S
C2741 C2743 1.353 . S
C2741 H2797 0.929 . S
C2742 C2738 1.356 . S
C2742 C2739 1.358 . S
C2742 H2798 0.930 . S
C2743 N2740 1.314 . S
C2743 C2741 1.353 . S
C2743 H2799 0.930 . S
C2744 N2745 1.314 . S
C2744 C2749 1.353 . S
C2744 H2750 0.930 . S
N2745 Li2728 1.990 . S
N2745 C2744 1.314 . S
N2745 C2747 1.279 . S
C2746 C2747 1.358 . S
C2746 C2748 1.356 . S
C2746 H2800 0.930 . S
C2747 N2745 1.279 . S
C2747 C2746 1.358 . S
C2747 H2751 0.930 . S
C2748 C2746 1.356 . S
C2748 C2749 1.348 . S
C2749 C2744 1.353 . S
C2749 C2748 1.348 . S
C2749 H2801 0.929 . S
H2750 C2744 0.930 . S
H2751 C2747 0.930 . S
C2752 N2753 1.314 . S
C2752 C2754 1.353 . S
C2752 H2758 0.930 . S
N2753 Li2729 1.990 . S
N2753 C2752 1.314 . S
N2753 C2756 1.279 . S
C2754 C2752 1.353 . S
C2754 C2757 1.348 . S
C2754 H2802 0.929 . S
C2755 C2756 1.358 . S
C2755 C2757 1.356 . S
C2755 H2803 0.930 . S
C2756 N2753 1.279 . S
C2756 C2755 1.358 . S
C2756 H2759 0.930 . S
C2757 C2754 1.348 . S
C2757 C2755 1.356 . S
H2758 C2752 0.930 . S
H2759 C2756 0.930 . S
C2760 C2762 1.348 . S
C2760 C2763 1.356 . S
C2760 O2790 1.325 . S
N2761 C2764 1.314 . S
N2761 C2765 1.279 . S
C2762 C2760 1.348 . S
C2762 C2764 1.353 . S
C2762 H2804 0.929 . S
C2763 C2760 1.356 . S
C2763 C2765 1.358 . S
C2763 H2805 0.930 . S
C2764 N2761 1.314 . S
C2764 C2762 1.353 . S
C2764 H2806 0.930 . S
C2765 N2761 1.279 . S
C2765 C2763 1.358 . S
C2765 H2807 0.930 . S
C2766 C2767 1.348 . S
C2766 C2768 1.356 . S
C2766 O2791 1.325 . S
C2767 C2766 1.348 . S
C2767 C2769 1.353 . S
C2767 H2808 0.929 . S
C2768 C2766 1.356 . S
C2768 C2770 1.358 . S
C2768 H2809 0.930 . S
C2769 C2767 1.353 . S
C2769 N2771 1.314 . S
C2769 H2810 0.930 . S
C2770 C2768 1.358 . S
C2770 N2771 1.279 . S
C2770 H2811 0.930 . S
N2771 C2769 1.314 . S
N2771 C2770 1.279 . S
C2772 C2774 1.353 . S
C2772 N2775 1.314 . S
C2772 H2778 0.930 . S
C2773 N2775 1.279 . S
C2773 C2776 1.358 . S
C2773 H2779 0.930 . S
C2774 C2772 1.353 . S
C2774 C2777 1.348 . S
C2774 H2812 0.929 . S
N2775 Li2730 1.990 . S
N2775 C2772 1.314 . S
N2775 C2773 1.279 . S
C2776 C2773 1.358 . S
C2776 C2777 1.356 . S
C2776 H2813 0.930 . S
C2777 C2774 1.348 . S
C2777 C2776 1.356 . S
H2778 C2772 0.930 . S
H2779 C2773 0.930 . S
C2780 N2781 1.314 . S
C2780 C2782 1.353 . S
C2780 H2786 0.930 . S
N2781 Li2731 1.990 . S
N2781 C2780 1.314 . S
N2781 C2784 1.279 . S
C2782 C2780 1.353 . S
C2782 C2785 1.348 . S
C2782 H2814 0.929 . S
C2783 C2784 1.358 . S
C2783 C2785 1.356 . S
C2783 H2815 0.930 . S
C2784 N2781 1.279 . S
C2784 C2783 1.358 . S
C2784 H2787 0.930 . S
C2785 C2782 1.348 . S
C2785 C2783 1.356 . S
H2786 C2780 0.930 . S
H2787 C2784 0.930 . S
O2788 Li2728 1.956 . S
O2788 Li2729 1.970 . S
O2788 Li2730 1.961 . S
O2788 C2732 1.325 . S
O2789 Li2728 1.970 . S
O2789 Li2729 1.956 . S
O2789 Li2731 1.961 . S
O2789 C2738 1.325 . S
O2790 Li2728 1.961 . S
O2790 Li2730 1.956 . S
O2790 Li2731 1.970 . S
O2790 C2760 1.325 . S
O2791 Li2729 1.961 . S
O2791 Li2730 1.970 . S
O2791 Li2731 1.956 . S
O2791 C2766 1.325 . S
H2792 C2734 0.929 . S
H2793 C2735 0.930 . S
H2794 C2736 0.930 . S
H2795 C2737 0.930 . S
H2796 C2739 0.930 . S
H2797 C2741 0.929 . S
H2798 C2742 0.930 . S
H2799 C2743 0.930 . S
H2800 C2746 0.930 . S
H2801 C2749 0.929 . S
H2802 C2754 0.929 . S
H2803 C2755 0.930 . S
H2804 C2762 0.929 . S
H2805 C2763 0.930 . S
H2806 C2764 0.930 . S
H2807 C2765 0.930 . S
H2808 C2767 0.929 . S
H2809 C2768 0.930 . S
H2810 C2769 0.930 . S
H2811 C2770 0.930 . S
H2812 C2774 0.929 . S
H2813 C2776 0.930 . S
H2814 C2782 0.929 . S
H2815 C2783 0.930 . S
H2816 C2824 0.961 . S
H2817 C2829 0.950 . S
H2818 C2826 0.950 . S
H2819 C2828 0.950 . S
H2820 C2830 0.961 . S
H2821 C2832 0.950 . S
H2822 C2834 0.950 . S
H2823 C2835 0.950 . S
C2824 H2816 0.961 . S
C2824 C2825 1.368 1_545 S
C2824 C2826 1.398 . S
C2825 C2824 1.368 1_565 S
C2825 C2829 1.393 . S
C2826 H2818 0.950 . S
C2826 C2824 1.398 . S
C2826 C2827 1.400 1_545 S
C2827 C2826 1.400 1_565 S
C2827 C2828 1.398 . S
C2827 C2833 1.491 1_565 S
C2828 H2819 0.950 . S
C2828 C2827 1.398 . S
C2828 C2829 1.391 . S
C2829 H2817 0.950 . S
C2829 C2825 1.393 . S
C2829 C2828 1.391 . S
C2830 H2820 0.961 . S
C2830 C2831 1.368 1_565 S
C2830 C2832 1.398 . S
C2831 C2830 1.368 1_545 S
C2831 C2835 1.393 . S
C2832 H2821 0.950 . S
C2832 C2830 1.398 . S
C2832 C2833 1.400 1_565 S
C2833 C2827 1.491 1_545 S
C2833 C2832 1.400 1_545 S
C2833 C2834 1.398 . S
C2834 H2822 0.950 . S
C2834 C2833 1.398 . S
C2834 C2835 1.391 . S
C2835 H2823 0.950 . S
C2835 C2831 1.393 . S
C2835 C2834 1.391 . S
H2836 C2844 0.950 . S
H2837 C2849 0.950 . S
H2838 C2846 0.950 . S
H2839 C2848 0.950 . S
H2840 C2850 0.950 . S
H2841 C2852 0.950 . S
H2842 C2854 0.950 . S
H2843 C2855 0.950 . S
C2844 H2836 0.950 . S
C2844 C2845 1.386 . S
C2844 C2846 1.391 . S
C2845 C2844 1.386 . S
C2845 C2849 1.393 . S
C2846 H2838 0.950 . S
C2846 C2844 1.391 . S
C2846 C2847 1.400 . S
C2847 C2846 1.400 . S
C2847 C2848 1.398 . S
C2847 C2853 1.491 . S
C2848 H2839 0.950 . S
C2848 C2847 1.398 . S
C2848 C2849 1.391 . S
C2849 H2837 0.950 . S
C2849 C2845 1.393 . S
C2849 C2848 1.391 . S
C2850 H2840 0.950 . S
C2850 C2851 1.386 . S
C2850 C2852 1.391 . S
C2851 C2850 1.386 . S
C2851 C2855 1.393 . S
C2852 H2841 0.950 . S
C2852 C2850 1.391 . S
C2852 C2853 1.400 . S
C2853 C2847 1.491 . S
C2853 C2852 1.400 . S
C2853 C2854 1.398 . S
C2854 H2842 0.950 . S
C2854 C2853 1.398 . S
C2854 C2855 1.391 . S
C2855 H2843 0.950 . S
C2855 C2851 1.393 . S
C2855 C2854 1.391 . S
H2856 C2864 0.950 . S
H2857 C2869 0.950 . S
H2858 C2866 0.950 . S
H2859 C2868 0.950 . S
H2860 C2870 0.950 . S
H2861 C2872 0.950 . S
H2862 C2874 0.950 . S
H2863 C2875 0.950 . S
C2864 H2856 0.950 . S
C2864 C2865 1.386 . S
C2864 C2866 1.391 . S
C2865 C2864 1.386 . S
C2865 C2869 1.393 1_545 S
C2866 H2858 0.950 . S
C2866 C2864 1.391 . S
C2866 C2867 1.400 . S
C2867 C2866 1.400 . S
C2867 C2868 1.398 1_545 S
C2867 C2873 1.491 1_545 S
C2868 H2859 0.950 . S
C2868 C2867 1.398 1_565 S
C2868 C2869 1.391 . S
C2869 H2857 0.950 . S
C2869 C2865 1.393 1_565 S
C2869 C2868 1.391 . S
C2870 H2860 0.950 . S
C2870 C2871 1.386 . S
C2870 C2872 1.391 . S
C2871 C2870 1.386 . S
C2871 C2875 1.393 1_565 S
C2872 H2861 0.950 . S
C2872 C2870 1.391 . S
C2872 C2873 1.400 . S
C2873 C2867 1.491 1_565 S
C2873 C2872 1.400 . S
C2873 C2874 1.398 1_565 S
C2874 H2862 0.950 . S
C2874 C2873 1.398 1_545 S
C2874 C2875 1.391 . S
C2875 H2863 0.950 . S
C2875 C2871 1.393 1_545 S
C2875 C2874 1.391 . S
H2876 C2884 0.950 . S
H2877 C2889 0.950 . S
H2878 C2886 0.950 . S
H2879 C2888 0.950 . S
H2880 C2890 0.950 . S
H2881 C2892 0.950 . S
H2882 C2894 0.950 . S
H2883 C2895 0.950 . S
C2884 H2876 0.950 . S
C2884 C2885 1.386 . S
C2884 C2886 1.391 . S
C2885 C2884 1.386 . S
C2885 C2889 1.393 . S
C2886 H2878 0.950 . S
C2886 C2884 1.391 . S
C2886 C2887 1.400 . S
C2887 C2886 1.400 . S
C2887 C2888 1.398 . S
C2887 C2893 1.491 1_556 S
C2888 H2879 0.950 . S
C2888 C2887 1.398 . S
C2888 C2889 1.391 . S
C2889 H2877 0.950 . S
C2889 C2885 1.393 . S
C2889 C2888 1.391 . S
C2890 H2880 0.950 . S
C2890 C2891 1.386 . S
C2890 C2892 1.391 . S
C2891 C2890 1.386 . S
C2891 C2895 1.393 . S
C2892 H2881 0.950 . S
C2892 C2890 1.391 . S
C2892 C2893 1.400 . S
C2893 C2887 1.491 1_554 S
C2893 C2892 1.400 . S
C2893 C2894 1.398 . S
C2894 H2882 0.950 . S
C2894 C2893 1.398 . S
C2894 C2895 1.391 . S
C2895 H2883 0.950 . S
C2895 C2891 1.393 . S
C2895 C2894 1.391 . S
H2896 C2904 0.931 1_545 S
H2897 C2909 0.950 . S
H2898 C2906 0.950 . S
H2899 C2908 0.950 . S
H2900 C2910 0.931 1_565 S
H2901 C2912 0.950 . S
H2902 C2914 0.950 . S
H2903 C2915 0.950 . S
C2904 H2896 0.931 1_565 S
C2904 C2905 1.419 . S
C2904 C2906 1.379 1_565 S
C2905 C2904 1.419 . S
C2905 C2909 1.393 . S
C2906 H2898 0.950 . S
C2906 C2904 1.379 1_545 S
C2906 C2907 1.400 1_545 S
C2907 C2906 1.400 1_565 S
C2907 C2908 1.398 . S
C2907 C2913 1.491 1_565 S
C2908 H2899 0.950 . S
C2908 C2907 1.398 . S
C2908 C2909 1.391 . S
C2909 H2897 0.950 . S
C2909 C2905 1.393 . S
C2909 C2908 1.391 . S
C2910 H2900 0.931 1_545 S
C2910 C2911 1.419 . S
C2910 C2912 1.379 1_545 S
C2911 C2910 1.419 . S
C2911 C2915 1.393 . S
C2912 H2901 0.950 . S
C2912 C2910 1.379 1_565 S
C2912 C2913 1.400 1_565 S
C2913 C2907 1.491 1_545 S
C2913 C2912 1.400 1_545 S
C2913 C2914 1.398 . S
C2914 H2902 0.950 . S
C2914 C2913 1.398 . S
C2914 C2915 1.391 . S
C2915 H2903 0.950 . S
C2915 C2911 1.393 . S
C2915 C2914 1.391 . S
H2916 C2924 0.950 . S
H2917 C2929 0.950 . S
H2918 C2926 0.950 . S
H2919 C2928 0.950 . S
H2920 C2930 0.950 . S
H2921 C2932 0.950 . S
H2922 C2934 0.950 . S
H2923 C2935 0.950 . S
C2924 H2916 0.950 . S
C2924 C2925 1.386 . S
C2924 C2926 1.391 . S
C2925 C2924 1.386 . S
C2925 C2929 1.393 . S
C2926 H2918 0.950 . S
C2926 C2924 1.391 . S
C2926 C2927 1.400 . S
C2927 C2926 1.400 . S
C2927 C2928 1.398 . S
C2927 C2933 1.491 . S
C2928 H2919 0.950 . S
C2928 C2927 1.398 . S
C2928 C2929 1.391 . S
C2929 H2917 0.950 . S
C2929 C2925 1.393 . S
C2929 C2928 1.391 . S
C2930 H2920 0.950 . S
C2930 C2931 1.386 . S
C2930 C2932 1.391 . S
C2931 C2930 1.386 . S
C2931 C2935 1.393 . S
C2932 H2921 0.950 . S
C2932 C2930 1.391 . S
C2932 C2933 1.400 . S
C2933 C2927 1.491 . S
C2933 C2932 1.400 . S
C2933 C2934 1.398 . S
C2934 H2922 0.950 . S
C2934 C2933 1.398 . S
C2934 C2935 1.391 . S
C2935 H2923 0.950 . S
C2935 C2931 1.393 . S
C2935 C2934 1.391 . S
H2936 C2944 0.950 . S
H2937 C2949 0.950 . S
H2938 C2946 0.950 . S
H2939 C2948 0.950 . S
H2940 C2950 0.950 . S
H2941 C2952 0.950 . S
H2942 C2954 0.950 . S
H2943 C2955 0.950 . S
C2944 H2936 0.950 . S
C2944 C2945 1.386 . S
C2944 C2946 1.391 . S
C2945 C2944 1.386 . S
C2945 C2949 1.393 1_545 S
C2946 H2938 0.950 . S
C2946 C2944 1.391 . S
C2946 C2947 1.400 . S
C2947 C2946 1.400 . S
C2947 C2948 1.398 1_545 S
C2947 C2953 1.491 1_545 S
C2948 H2939 0.950 . S
C2948 C2947 1.398 1_565 S
C2948 C2949 1.391 . S
C2949 H2937 0.950 . S
C2949 C2945 1.393 1_565 S
C2949 C2948 1.391 . S
C2950 H2940 0.950 . S
C2950 C2951 1.386 . S
C2950 C2952 1.391 . S
C2951 C2950 1.386 . S
C2951 C2955 1.393 1_565 S
C2952 H2941 0.950 . S
C2952 C2950 1.391 . S
C2952 C2953 1.400 . S
C2953 C2947 1.491 1_565 S
C2953 C2952 1.400 . S
C2953 C2954 1.398 1_565 S
C2954 H2942 0.950 . S
C2954 C2953 1.398 1_545 S
C2954 C2955 1.391 . S
C2955 H2943 0.950 . S
C2955 C2951 1.393 1_545 S
C2955 C2954 1.391 . S
H2956 C2964 0.950 . S
H2957 C2969 0.950 . S
H2958 C2966 0.950 . S
H2959 C2968 0.950 . S
H2960 C2970 0.950 . S
H2961 C2972 0.950 . S
H2962 C2974 0.950 . S
H2963 C2975 0.950 . S
C2964 H2956 0.950 . S
C2964 C2965 1.386 . S
C2964 C2966 1.391 . S
C2965 C2964 1.386 . S
C2965 C2969 1.393 . S
C2966 H2958 0.950 . S
C2966 C2964 1.391 . S
C2966 C2967 1.400 . S
C2967 C2966 1.400 . S
C2967 C2968 1.398 . S
C2967 C2973 1.491 1_556 S
C2968 H2959 0.950 . S
C2968 C2967 1.398 . S
C2968 C2969 1.391 . S
C2969 H2957 0.950 . S
C2969 C2965 1.393 . S
C2969 C2968 1.391 . S
C2970 H2960 0.950 . S
C2970 C2971 1.386 . S
C2970 C2972 1.391 . S
C2971 C2970 1.386 . S
C2971 C2975 1.393 . S
C2972 H2961 0.950 . S
C2972 C2970 1.391 . S
C2972 C2973 1.400 . S
C2973 C2967 1.491 1_554 S
C2973 C2972 1.400 . S
C2973 C2974 1.398 . S
C2974 H2962 0.950 . S
C2974 C2973 1.398 . S
C2974 C2975 1.391 . S
C2975 H2963 0.950 . S
C2975 C2971 1.393 . S
C2975 C2974 1.391 . S
H2976 C2984 0.950 . S
H2977 C2989 0.950 . S
H2978 C2986 0.950 . S
H2979 C2988 0.950 . S
H2980 C2990 0.950 . S
H2981 C2992 0.950 . S
H2982 C2994 0.950 . S
H2983 C2995 0.950 . S
C2984 H2976 0.950 . S
C2984 C2985 1.386 . S
C2984 C2986 1.391 . S
C2985 C2984 1.386 . S
C2985 C2989 1.393 . S
C2986 H2978 0.950 . S
C2986 C2984 1.391 . S
C2986 C2987 1.400 . S
C2987 C2986 1.400 . S
C2987 C2988 1.398 . S
C2987 C2993 1.491 . S
C2988 H2979 0.950 . S
C2988 C2987 1.398 . S
C2988 C2989 1.391 . S
C2989 H2977 0.950 . S
C2989 C2985 1.393 . S
C2989 C2988 1.391 . S
C2990 H2980 0.950 . S
C2990 C2991 1.386 . S
C2990 C2992 1.391 . S
C2991 C2990 1.386 . S
C2991 C2995 1.393 . S
C2992 H2981 0.950 . S
C2992 C2990 1.391 . S
C2992 C2993 1.400 . S
C2993 C2987 1.491 . S
C2993 C2992 1.400 . S
C2993 C2994 1.398 . S
C2994 H2982 0.950 . S
C2994 C2993 1.398 . S
C2994 C2995 1.391 . S
C2995 H2983 0.950 . S
C2995 C2991 1.393 . S
C2995 C2994 1.391 . S
H2996 C3004 0.950 . S
H2997 C3009 0.950 . S
H2998 C3006 0.950 . S
H2999 C3008 0.950 . S
H3000 C3010 0.950 . S
H3001 C3012 0.950 . S
H3002 C3014 0.950 . S
H3003 C3015 0.950 . S
C3004 H2996 0.950 . S
C3004 C3005 1.386 . S
C3004 C3006 1.391 . S
C3005 C3004 1.386 . S
C3005 C3009 1.393 . S
C3006 H2998 0.950 . S
C3006 C3004 1.391 . S
C3006 C3007 1.400 . S
C3007 C3006 1.400 . S
C3007 C3008 1.398 . S
C3007 C3013 1.491 1_554 S
C3008 H2999 0.950 . S
C3008 C3007 1.398 . S
C3008 C3009 1.391 . S
C3009 H2997 0.950 . S
C3009 C3005 1.393 . S
C3009 C3008 1.391 . S
C3010 H3000 0.950 . S
C3010 C3011 1.386 . S
C3010 C3012 1.391 . S
C3011 C3010 1.386 . S
C3011 C3015 1.393 . S
C3012 H3001 0.950 . S
C3012 C3010 1.391 . S
C3012 C3013 1.400 . S
C3013 C3007 1.491 1_556 S
C3013 C3012 1.400 . S
C3013 C3014 1.398 . S
C3014 H3002 0.950 . S
C3014 C3013 1.398 . S
C3014 C3015 1.391 . S
C3015 H3003 0.950 . S
C3015 C3011 1.393 . S
C3015 C3014 1.391 . S
H3016 C3024 0.950 . S
H3017 C3029 0.950 . S
H3018 C3026 0.950 . S
H3019 C3028 0.950 . S
H3020 C3030 0.950 . S
H3021 C3032 0.950 . S
H3022 C3034 0.950 . S
H3023 C3035 0.950 . S
C3024 H3016 0.950 . S
C3024 C3025 1.386 . S
C3024 C3026 1.391 . S
C3025 C3024 1.386 . S
C3025 C3029 1.393 . S
C3026 H3018 0.950 . S
C3026 C3024 1.391 . S
C3026 C3027 1.400 . S
C3027 C3026 1.400 . S
C3027 C3028 1.398 . S
C3027 C3033 1.491 . S
C3028 H3019 0.950 . S
C3028 C3027 1.398 . S
C3028 C3029 1.391 . S
C3029 H3017 0.950 . S
C3029 C3025 1.393 . S
C3029 C3028 1.391 . S
C3030 H3020 0.950 . S
C3030 C3031 1.386 . S
C3030 C3032 1.391 . S
C3031 C3030 1.386 . S
C3031 C3035 1.393 . S
C3032 H3021 0.950 . S
C3032 C3030 1.391 . S
C3032 C3033 1.400 . S
C3033 C3027 1.491 . S
C3033 C3032 1.400 . S
C3033 C3034 1.398 . S
C3034 H3022 0.950 . S
C3034 C3033 1.398 . S
C3034 C3035 1.391 . S
C3035 H3023 0.950 . S
C3035 C3031 1.393 . S
C3035 C3034 1.391 . S
H3036 C3044 0.950 . S
H3037 C3049 0.950 . S
H3038 C3046 0.950 . S
H3039 C3048 0.950 . S
H3040 C3050 0.950 . S
H3041 C3052 0.950 . S
H3042 C3054 0.950 . S
H3043 C3055 0.950 . S
C3044 H3036 0.950 . S
C3044 C3045 1.386 . S
C3044 C3046 1.391 . S
C3045 C3044 1.386 . S
C3045 C3049 1.393 . S
C3046 H3038 0.950 . S
C3046 C3044 1.391 . S
C3046 C3047 1.400 . S
C3047 C3046 1.400 . S
C3047 C3048 1.398 . S
C3047 C3053 1.491 . S
C3048 H3039 0.950 . S
C3048 C3047 1.398 . S
C3048 C3049 1.391 . S
C3049 H3037 0.950 . S
C3049 C3045 1.393 . S
C3049 C3048 1.391 . S
C3050 H3040 0.950 . S
C3050 C3051 1.386 . S
C3050 C3052 1.391 . S
C3051 C3050 1.386 . S
C3051 C3055 1.393 . S
C3052 H3041 0.950 . S
C3052 C3050 1.391 . S
C3052 C3053 1.400 . S
C3053 C3047 1.491 . S
C3053 C3052 1.400 . S
C3053 C3054 1.398 . S
C3054 H3042 0.950 . S
C3054 C3053 1.398 . S
C3054 C3055 1.391 . S
C3055 H3043 0.950 . S
C3055 C3051 1.393 . S
C3055 C3054 1.391 . S
H3056 C3064 0.950 . S
H3057 C3069 0.950 . S
H3058 C3066 0.950 . S
H3059 C3068 0.950 . S
H3060 C3070 0.950 . S
H3061 C3072 0.950 . S
H3062 C3074 0.950 . S
H3063 C3075 0.950 . S
C3064 H3056 0.950 . S
C3064 C3065 1.386 . S
C3064 C3066 1.391 . S
C3065 C3064 1.386 . S
C3065 C3069 1.393 . S
C3066 H3058 0.950 . S
C3066 C3064 1.391 . S
C3066 C3067 1.400 . S
C3067 C3066 1.400 . S
C3067 C3068 1.398 . S
C3067 C3073 1.491 . S
C3068 H3059 0.950 . S
C3068 C3067 1.398 . S
C3068 C3069 1.391 . S
C3069 H3057 0.950 . S
C3069 C3065 1.393 . S
C3069 C3068 1.391 . S
C3070 H3060 0.950 . S
C3070 C3071 1.386 . S
C3070 C3072 1.391 . S
C3071 C3070 1.386 . S
C3071 C3075 1.393 . S
C3072 H3061 0.950 . S
C3072 C3070 1.391 . S
C3072 C3073 1.400 . S
C3073 C3067 1.491 . S
C3073 C3072 1.400 . S
C3073 C3074 1.398 . S
C3074 H3062 0.950 . S
C3074 C3073 1.398 . S
C3074 C3075 1.391 . S
C3075 H3063 0.950 . S
C3075 C3071 1.393 . S
C3075 C3074 1.391 . S
H3076 C3084 0.950 . S
H3077 C3089 0.950 . S
H3078 C3086 0.950 . S
H3079 C3088 0.950 . S
H3080 C3090 0.950 . S
H3081 C3092 0.950 . S
H3082 C3094 0.950 . S
H3083 C3095 0.950 . S
C3084 H3076 0.950 . S
C3084 C3085 1.386 . S
C3084 C3086 1.391 . S
C3085 C3084 1.386 . S
C3085 C3089 1.393 . S
C3086 H3078 0.950 . S
C3086 C3084 1.391 . S
C3086 C3087 1.400 . S
C3087 C3086 1.400 . S
C3087 C3088 1.398 . S
C3087 C3093 1.491 1_554 S
C3088 H3079 0.950 . S
C3088 C3087 1.398 . S
C3088 C3089 1.391 . S
C3089 H3077 0.950 . S
C3089 C3085 1.393 . S
C3089 C3088 1.391 . S
C3090 H3080 0.950 . S
C3090 C3091 1.386 . S
C3090 C3092 1.391 . S
C3091 C3090 1.386 . S
C3091 C3095 1.393 . S
C3092 H3081 0.950 . S
C3092 C3090 1.391 . S
C3092 C3093 1.400 . S
C3093 C3087 1.491 1_556 S
C3093 C3092 1.400 . S
C3093 C3094 1.398 . S
C3094 H3082 0.950 . S
C3094 C3093 1.398 . S
C3094 C3095 1.391 . S
C3095 H3083 0.950 . S
C3095 C3091 1.393 . S
C3095 C3094 1.391 . S
H3096 C3104 0.950 . S
H3097 C3109 0.950 . S
H3098 C3106 0.950 . S
H3099 C3108 0.950 . S
H3100 C3110 0.950 . S
H3101 C3112 0.950 . S
H3102 C3114 0.950 . S
H3103 C3115 0.950 . S
C3104 H3096 0.950 . S
C3104 C3105 1.386 . S
C3104 C3106 1.391 . S
C3105 C3104 1.386 . S
C3105 C3109 1.393 . S
C3106 H3098 0.950 . S
C3106 C3104 1.391 . S
C3106 C3107 1.400 . S
C3107 C3106 1.400 . S
C3107 C3108 1.398 . S
C3107 C3113 1.491 . S
C3108 H3099 0.950 . S
C3108 C3107 1.398 . S
C3108 C3109 1.391 . S
C3109 H3097 0.950 . S
C3109 C3105 1.393 . S
C3109 C3108 1.391 . S
C3110 H3100 0.950 . S
C3110 C3111 1.386 . S
C3110 C3112 1.391 . S
C3111 C3110 1.386 . S
C3111 C3115 1.393 . S
C3112 H3101 0.950 . S
C3112 C3110 1.391 . S
C3112 C3113 1.400 . S
C3113 C3107 1.491 . S
C3113 C3112 1.400 . S
C3113 C3114 1.398 . S
C3114 H3102 0.950 . S
C3114 C3113 1.398 . S
C3114 C3115 1.391 . S
C3115 H3103 0.950 . S
C3115 C3111 1.393 . S
C3115 C3114 1.391 . S
H3116 C3124 0.950 . S
H3117 C3129 0.950 . S
H3118 C3126 0.950 . S
H3119 C3128 0.950 . S
H3120 C3130 0.950 . S
H3121 C3132 0.950 . S
H3122 C3134 0.950 . S
H3123 C3135 0.950 . S
C3124 H3116 0.950 . S
C3124 C3125 1.386 . S
C3124 C3126 1.391 . S
C3125 C3124 1.386 . S
C3125 C3129 1.393 . S
C3126 H3118 0.950 . S
C3126 C3124 1.391 . S
C3126 C3127 1.400 . S
C3127 C3126 1.400 . S
C3127 C3128 1.398 . S
C3127 C3133 1.491 . S
C3128 H3119 0.950 . S
C3128 C3127 1.398 . S
C3128 C3129 1.391 . S
C3129 H3117 0.950 . S
C3129 C3125 1.393 . S
C3129 C3128 1.391 . S
C3130 H3120 0.950 . S
C3130 C3131 1.386 . S
C3130 C3132 1.391 . S
C3131 C3130 1.386 . S
C3131 C3135 1.393 . S
C3132 H3121 0.950 . S
C3132 C3130 1.391 . S
C3132 C3133 1.400 . S
C3133 C3127 1.491 . S
C3133 C3132 1.400 . S
C3133 C3134 1.398 . S
C3134 H3122 0.950 . S
C3134 C3133 1.398 . S
C3134 C3135 1.391 . S
C3135 H3123 0.950 . S
C3135 C3131 1.393 . S
C3135 C3134 1.391 . S
H3136 C3144 0.950 . S
H3137 C3149 0.950 . S
H3138 C3146 0.950 . S
H3139 C3148 0.950 . S
H3140 C3150 0.950 . S
H3141 C3152 0.950 . S
H3142 C3154 0.950 . S
H3143 C3155 0.950 . S
C3144 H3136 0.950 . S
C3144 C3145 1.386 . S
C3144 C3146 1.391 . S
C3145 C3144 1.386 . S
C3145 C3149 1.393 . S
C3146 H3138 0.950 . S
C3146 C3144 1.391 . S
C3146 C3147 1.400 . S
C3147 C3146 1.400 . S
C3147 C3148 1.398 . S
C3147 C3153 1.491 . S
C3148 H3139 0.950 . S
C3148 C3147 1.398 . S
C3148 C3149 1.391 . S
C3149 H3137 0.950 . S
C3149 C3145 1.393 . S
C3149 C3148 1.391 . S
C3150 H3140 0.950 . S
C3150 C3151 1.386 . S
C3150 C3152 1.391 . S
C3151 C3150 1.386 . S
C3151 C3155 1.393 . S
C3152 H3141 0.950 . S
C3152 C3150 1.391 . S
C3152 C3153 1.400 . S
C3153 C3147 1.491 . S
C3153 C3152 1.400 . S
C3153 C3154 1.398 . S
C3154 H3142 0.950 . S
C3154 C3153 1.398 . S
C3154 C3155 1.391 . S
C3155 H3143 0.950 . S
C3155 C3151 1.393 . S
C3155 C3154 1.391 . S
H3156 C3164 0.950 . S
H3157 C3169 0.950 . S
H3158 C3166 0.950 . S
H3159 C3168 0.950 . S
H3160 C3170 0.950 . S
H3161 C3172 0.950 . S
H3162 C3174 0.950 . S
H3163 C3175 0.950 . S
C3164 H3156 0.950 . S
C3164 C3165 1.386 . S
C3164 C3166 1.391 . S
C3165 C3164 1.386 . S
C3165 C3169 1.393 . S
C3166 H3158 0.950 . S
C3166 C3164 1.391 . S
C3166 C3167 1.400 . S
C3167 C3166 1.400 . S
C3167 C3168 1.398 . S
C3167 C3173 1.491 . S
C3168 H3159 0.950 . S
C3168 C3167 1.398 . S
C3168 C3169 1.391 . S
C3169 H3157 0.950 . S
C3169 C3165 1.393 . S
C3169 C3168 1.391 . S
C3170 H3160 0.950 . S
C3170 C3171 1.386 . S
C3170 C3172 1.391 . S
C3171 C3170 1.386 . S
C3171 C3175 1.393 . S
C3172 H3161 0.950 . S
C3172 C3170 1.391 . S
C3172 C3173 1.400 . S
C3173 C3167 1.491 . S
C3173 C3172 1.400 . S
C3173 C3174 1.398 . S
C3174 H3162 0.950 . S
C3174 C3173 1.398 . S
C3174 C3175 1.391 . S
C3175 H3163 0.950 . S
C3175 C3171 1.393 . S
C3175 C3174 1.391 . S
H3176 C3184 0.950 . S
H3177 C3189 0.950 . S
H3178 C3186 0.950 . S
H3179 C3188 0.950 . S
H3180 C3190 0.950 . S
H3181 C3192 0.950 . S
H3182 C3194 0.950 . S
H3183 C3195 0.950 . S
C3184 H3176 0.950 . S
C3184 C3185 1.386 . S
C3184 C3186 1.391 . S
C3185 C3184 1.386 . S
C3185 C3189 1.393 . S
C3186 H3178 0.950 . S
C3186 C3184 1.391 . S
C3186 C3187 1.400 . S
C3187 C3186 1.400 . S
C3187 C3188 1.398 . S
C3187 C3193 1.491 . S
C3188 H3179 0.950 . S
C3188 C3187 1.398 . S
C3188 C3189 1.391 . S
C3189 H3177 0.950 . S
C3189 C3185 1.393 . S
C3189 C3188 1.391 . S
C3190 H3180 0.950 . S
C3190 C3191 1.386 . S
C3190 C3192 1.391 . S
C3191 C3190 1.386 . S
C3191 C3195 1.393 . S
C3192 H3181 0.950 . S
C3192 C3190 1.391 . S
C3192 C3193 1.400 . S
C3193 C3187 1.491 . S
C3193 C3192 1.400 . S
C3193 C3194 1.398 . S
C3194 H3182 0.950 . S
C3194 C3193 1.398 . S
C3194 C3195 1.391 . S
C3195 H3183 0.950 . S
C3195 C3191 1.393 . S
C3195 C3194 1.391 . S
H3196 C3204 0.950 . S
H3197 C3209 0.950 . S
H3198 C3206 0.950 . S
H3199 C3208 0.950 . S
H3200 C3210 0.950 . S
H3201 C3212 0.950 . S
H3202 C3214 0.950 . S
H3203 C3215 0.950 . S
C3204 H3196 0.950 . S
C3204 C3205 1.386 . S
C3204 C3206 1.391 . S
C3205 C3204 1.386 . S
C3205 C3209 1.393 . S
C3206 H3198 0.950 . S
C3206 C3204 1.391 . S
C3206 C3207 1.400 . S
C3207 C3206 1.400 . S
C3207 C3208 1.398 . S
C3207 C3213 1.491 . S
C3208 H3199 0.950 . S
C3208 C3207 1.398 . S
C3208 C3209 1.391 . S
C3209 H3197 0.950 . S
C3209 C3205 1.393 . S
C3209 C3208 1.391 . S
C3210 H3200 0.950 . S
C3210 C3211 1.386 . S
C3210 C3212 1.391 . S
C3211 C3210 1.386 . S
C3211 C3215 1.393 . S
C3212 H3201 0.950 . S
C3212 C3210 1.391 . S
C3212 C3213 1.400 . S
C3213 C3207 1.491 . S
C3213 C3212 1.400 . S
C3213 C3214 1.398 . S
C3214 H3202 0.950 . S
C3214 C3213 1.398 . S
C3214 C3215 1.391 . S
C3215 H3203 0.950 . S
C3215 C3211 1.393 . S
C3215 C3214 1.391 . S
H3216 C3224 0.950 . S
H3217 C3229 0.950 . S
H3218 C3226 0.950 . S
H3219 C3228 0.950 . S
H3220 C3230 0.950 . S
H3221 C3232 0.950 . S
H3222 C3234 0.950 . S
H3223 C3235 0.950 . S
C3224 H3216 0.950 . S
C3224 C3225 1.386 . S
C3224 C3226 1.391 . S
C3225 C3224 1.386 . S
C3225 C3229 1.393 . S
C3226 H3218 0.950 . S
C3226 C3224 1.391 . S
C3226 C3227 1.400 . S
C3227 C3226 1.400 . S
C3227 C3228 1.398 . S
C3227 C3233 1.491 . S
C3228 H3219 0.950 . S
C3228 C3227 1.398 . S
C3228 C3229 1.391 . S
C3229 H3217 0.950 . S
C3229 C3225 1.393 . S
C3229 C3228 1.391 . S
C3230 H3220 0.950 . S
C3230 C3231 1.386 . S
C3230 C3232 1.391 . S
C3231 C3230 1.386 . S
C3231 C3235 1.393 . S
C3232 H3221 0.950 . S
C3232 C3230 1.391 . S
C3232 C3233 1.400 . S
C3233 C3227 1.491 . S
C3233 C3232 1.400 . S
C3233 C3234 1.398 . S
C3234 H3222 0.950 . S
C3234 C3233 1.398 . S
C3234 C3235 1.391 . S
C3235 H3223 0.950 . S
C3235 C3231 1.393 . S
C3235 C3234 1.391 . S
H3236 C3244 0.950 . S
H3237 C3249 0.950 . S
H3238 C3246 0.950 . S
H3239 C3248 0.950 . S
H3240 C3250 0.950 . S
H3241 C3252 0.950 . S
H3242 C3254 0.950 . S
H3243 C3255 0.950 . S
C3244 H3236 0.950 . S
C3244 C3245 1.386 . S
C3244 C3246 1.391 . S
C3245 C3244 1.386 . S
C3245 C3249 1.393 . S
C3246 H3238 0.950 . S
C3246 C3244 1.391 . S
C3246 C3247 1.400 . S
C3247 C3246 1.400 . S
C3247 C3248 1.398 . S
C3247 C3253 1.491 . S
C3248 H3239 0.950 . S
C3248 C3247 1.398 . S
C3248 C3249 1.391 . S
C3249 H3237 0.950 . S
C3249 C3245 1.393 . S
C3249 C3248 1.391 . S
C3250 H3240 0.950 . S
C3250 C3251 1.386 . S
C3250 C3252 1.391 . S
C3251 C3250 1.386 . S
C3251 C3255 1.393 . S
C3252 H3241 0.950 . S
C3252 C3250 1.391 . S
C3252 C3253 1.400 . S
C3253 C3247 1.491 . S
C3253 C3252 1.400 . S
C3253 C3254 1.398 . S
C3254 H3242 0.950 . S
C3254 C3253 1.398 . S
C3254 C3255 1.391 . S
C3255 H3243 0.950 . S
C3255 C3251 1.393 . S
C3255 C3254 1.391 . S
H3256 C3264 0.950 . S
H3257 C3269 0.950 . S
H3258 C3266 0.950 . S
H3259 C3268 0.950 . S
H3260 C3270 0.950 . S
H3261 C3272 0.950 . S
H3262 C3274 0.950 . S
H3263 C3275 0.950 . S
C3264 H3256 0.950 . S
C3264 C3265 1.386 . S
C3264 C3266 1.391 . S
C3265 C3264 1.386 . S
C3265 C3269 1.393 . S
C3266 H3258 0.950 . S
C3266 C3264 1.391 . S
C3266 C3267 1.400 . S
C3267 C3266 1.400 . S
C3267 C3268 1.398 . S
C3267 C3273 1.491 . S
C3268 H3259 0.950 . S
C3268 C3267 1.398 . S
C3268 C3269 1.391 . S
C3269 H3257 0.950 . S
C3269 C3265 1.393 . S
C3269 C3268 1.391 . S
C3270 H3260 0.950 . S
C3270 C3271 1.386 . S
C3270 C3272 1.391 . S
C3271 C3270 1.386 . S
C3271 C3275 1.393 . S
C3272 H3261 0.950 . S
C3272 C3270 1.391 . S
C3272 C3273 1.400 . S
C3273 C3267 1.491 . S
C3273 C3272 1.400 . S
C3273 C3274 1.398 . S
C3274 H3262 0.950 . S
C3274 C3273 1.398 . S
C3274 C3275 1.391 . S
C3275 H3263 0.950 . S
C3275 C3271 1.393 . S
C3275 C3274 1.391 . S
H3276 C3284 0.950 . S
H3277 C3289 0.950 . S
H3278 C3286 0.950 . S
H3279 C3288 0.950 . S
H3280 C3290 0.950 . S
H3281 C3292 0.950 . S
H3282 C3294 0.950 . S
H3283 C3295 0.950 . S
C3284 H3276 0.950 . S
C3284 C3285 1.386 . S
C3284 C3286 1.391 . S
C3285 C3284 1.386 . S
C3285 C3289 1.393 . S
C3286 H3278 0.950 . S
C3286 C3284 1.391 . S
C3286 C3287 1.400 . S
C3287 C3286 1.400 . S
C3287 C3288 1.398 . S
C3287 C3293 1.491 . S
C3288 H3279 0.950 . S
C3288 C3287 1.398 . S
C3288 C3289 1.391 . S
C3289 H3277 0.950 . S
C3289 C3285 1.393 . S
C3289 C3288 1.391 . S
C3290 H3280 0.950 . S
C3290 C3291 1.386 . S
C3290 C3292 1.391 . S
C3291 C3290 1.386 . S
C3291 C3295 1.393 . S
C3292 H3281 0.950 . S
C3292 C3290 1.391 . S
C3292 C3293 1.400 . S
C3293 C3287 1.491 . S
C3293 C3292 1.400 . S
C3293 C3294 1.398 . S
C3294 H3282 0.950 . S
C3294 C3293 1.398 . S
C3294 C3295 1.391 . S
C3295 H3283 0.950 . S
C3295 C3291 1.393 . S
C3295 C3294 1.391 . S
H3296 C3304 0.950 . S
H3297 C3309 0.950 . S
H3298 C3306 0.950 . S
H3299 C3308 0.950 . S
H3300 C3310 0.950 . S
H3301 C3312 0.950 . S
H3302 C3314 0.950 . S
H3303 C3315 0.950 . S
C3304 H3296 0.950 . S
C3304 C3305 1.386 . S
C3304 C3306 1.391 . S
C3305 C3304 1.386 . S
C3305 C3309 1.393 . S
C3306 H3298 0.950 . S
C3306 C3304 1.391 . S
C3306 C3307 1.400 . S
C3307 C3306 1.400 . S
C3307 C3308 1.398 . S
C3307 C3313 1.491 . S
C3308 H3299 0.950 . S
C3308 C3307 1.398 . S
C3308 C3309 1.391 . S
C3309 H3297 0.950 . S
C3309 C3305 1.393 . S
C3309 C3308 1.391 . S
C3310 H3300 0.950 . S
C3310 C3311 1.386 . S
C3310 C3312 1.391 . S
C3311 C3310 1.386 . S
C3311 C3315 1.393 . S
C3312 H3301 0.950 . S
C3312 C3310 1.391 . S
C3312 C3313 1.400 . S
C3313 C3307 1.491 . S
C3313 C3312 1.400 . S
C3313 C3314 1.398 . S
C3314 H3302 0.950 . S
C3314 C3313 1.398 . S
C3314 C3315 1.391 . S
C3315 H3303 0.950 . S
C3315 C3311 1.393 . S
C3315 C3314 1.391 . S
H3316 C3324 0.950 . S
H3317 C3329 0.950 . S
H3318 C3326 0.950 . S
H3319 C3328 0.950 . S
H3320 C3330 0.950 . S
H3321 C3332 0.950 . S
H3322 C3334 0.950 . S
H3323 C3335 0.950 . S
C3324 H3316 0.950 . S
C3324 C3325 1.386 . S
C3324 C3326 1.391 . S
C3325 C3324 1.386 . S
C3325 C3329 1.393 . S
C3326 H3318 0.950 . S
C3326 C3324 1.391 . S
C3326 C3327 1.400 . S
C3327 C3326 1.400 . S
C3327 C3328 1.398 . S
C3327 C3333 1.491 . S
C3328 H3319 0.950 . S
C3328 C3327 1.398 . S
C3328 C3329 1.391 . S
C3329 H3317 0.950 . S
C3329 C3325 1.393 . S
C3329 C3328 1.391 . S
C3330 H3320 0.950 . S
C3330 C3331 1.386 . S
C3330 C3332 1.391 . S
C3331 C3330 1.386 . S
C3331 C3335 1.393 . S
C3332 H3321 0.950 . S
C3332 C3330 1.391 . S
C3332 C3333 1.400 . S
C3333 C3327 1.491 . S
C3333 C3332 1.400 . S
C3333 C3334 1.398 . S
C3334 H3322 0.950 . S
C3334 C3333 1.398 . S
C3334 C3335 1.391 . S
C3335 H3323 0.950 . S
C3335 C3331 1.393 . S
C3335 C3334 1.391 . S
H3336 C3344 0.950 . S
H3337 C3349 0.950 . S
H3338 C3346 0.950 . S
H3339 C3348 0.950 . S
H3340 C3350 0.950 . S
H3341 C3352 0.950 . S
H3342 C3354 0.950 . S
H3343 C3355 0.950 . S
C3344 H3336 0.950 . S
C3344 C3345 1.386 . S
C3344 C3346 1.391 . S
C3345 C3344 1.386 . S
C3345 C3349 1.393 . S
C3346 H3338 0.950 . S
C3346 C3344 1.391 . S
C3346 C3347 1.400 . S
C3347 C3346 1.400 . S
C3347 C3348 1.398 . S
C3347 C3353 1.491 . S
C3348 H3339 0.950 . S
C3348 C3347 1.398 . S
C3348 C3349 1.391 . S
C3349 H3337 0.950 . S
C3349 C3345 1.393 . S
C3349 C3348 1.391 . S
C3350 H3340 0.950 . S
C3350 C3351 1.386 . S
C3350 C3352 1.391 . S
C3351 C3350 1.386 . S
C3351 C3355 1.393 . S
C3352 H3341 0.950 . S
C3352 C3350 1.391 . S
C3352 C3353 1.400 . S
C3353 C3347 1.491 . S
C3353 C3352 1.400 . S
C3353 C3354 1.398 . S
C3354 H3342 0.950 . S
C3354 C3353 1.398 . S
C3354 C3355 1.391 . S
C3355 H3343 0.950 . S
C3355 C3351 1.393 . S
C3355 C3354 1.391 . S
H3356 C3364 0.950 . S
H3357 C3369 0.950 . S
H3358 C3366 0.950 . S
H3359 C3368 0.950 . S
H3360 C3370 0.950 . S
H3361 C3372 0.950 . S
H3362 C3374 0.950 . S
H3363 C3375 0.950 . S
C3364 H3356 0.950 . S
C3364 C3365 1.386 . S
C3364 C3366 1.391 . S
C3365 C3364 1.386 . S
C3365 C3369 1.393 . S
C3366 H3358 0.950 . S
C3366 C3364 1.391 . S
C3366 C3367 1.400 . S
C3367 C3366 1.400 . S
C3367 C3368 1.398 . S
C3367 C3373 1.491 . S
C3368 H3359 0.950 . S
C3368 C3367 1.398 . S
C3368 C3369 1.391 . S
C3369 H3357 0.950 . S
C3369 C3365 1.393 . S
C3369 C3368 1.391 . S
C3370 H3360 0.950 . S
C3370 C3371 1.386 . S
C3370 C3372 1.391 . S
C3371 C3370 1.386 . S
C3371 C3375 1.393 . S
C3372 H3361 0.950 . S
C3372 C3370 1.391 . S
C3372 C3373 1.400 . S
C3373 C3367 1.491 . S
C3373 C3372 1.400 . S
C3373 C3374 1.398 . S
C3374 H3362 0.950 . S
C3374 C3373 1.398 . S
C3374 C3375 1.391 . S
C3375 H3363 0.950 . S
C3375 C3371 1.393 . S
C3375 C3374 1.391 . S
H3376 C3384 0.950 . S
H3377 C3389 0.950 . S
H3378 C3386 0.950 . S
H3379 C3388 0.950 . S
H3380 C3390 0.950 . S
H3381 C3392 0.950 . S
H3382 C3394 0.950 . S
H3383 C3395 0.950 . S
C3384 H3376 0.950 . S
C3384 C3385 1.386 . S
C3384 C3386 1.391 . S
C3385 C3384 1.386 . S
C3385 C3389 1.393 . S
C3386 H3378 0.950 . S
C3386 C3384 1.391 . S
C3386 C3387 1.400 . S
C3387 C3386 1.400 . S
C3387 C3388 1.398 . S
C3387 C3393 1.491 . S
C3388 H3379 0.950 . S
C3388 C3387 1.398 . S
C3388 C3389 1.391 . S
C3389 H3377 0.950 . S
C3389 C3385 1.393 . S
C3389 C3388 1.391 . S
C3390 H3380 0.950 . S
C3390 C3391 1.386 . S
C3390 C3392 1.391 . S
C3391 C3390 1.386 . S
C3391 C3395 1.393 . S
C3392 H3381 0.950 . S
C3392 C3390 1.391 . S
C3392 C3393 1.400 . S
C3393 C3387 1.491 . S
C3393 C3392 1.400 . S
C3393 C3394 1.398 . S
C3394 H3382 0.950 . S
C3394 C3393 1.398 . S
C3394 C3395 1.391 . S
C3395 H3383 0.950 . S
C3395 C3391 1.393 . S
C3395 C3394 1.391 . S
H3396 C3404 0.950 . S
H3397 C3409 0.950 . S
H3398 C3406 0.950 . S
H3399 C3408 0.950 . S
H3400 C3410 0.950 . S
H3401 C3412 0.950 . S
H3402 C3414 0.950 . S
H3403 C3415 0.950 . S
C3404 H3396 0.950 . S
C3404 C3405 1.386 . S
C3404 C3406 1.391 . S
C3405 C3404 1.386 . S
C3405 C3409 1.393 . S
C3406 H3398 0.950 . S
C3406 C3404 1.391 . S
C3406 C3407 1.400 . S
C3407 C3406 1.400 . S
C3407 C3408 1.398 . S
C3407 C3413 1.491 . S
C3408 H3399 0.950 . S
C3408 C3407 1.398 . S
C3408 C3409 1.391 . S
C3409 H3397 0.950 . S
C3409 C3405 1.393 . S
C3409 C3408 1.391 . S
C3410 H3400 0.950 . S
C3410 C3411 1.386 . S
C3410 C3412 1.391 . S
C3411 C3410 1.386 . S
C3411 C3415 1.393 . S
C3412 H3401 0.950 . S
C3412 C3410 1.391 . S
C3412 C3413 1.400 . S
C3413 C3407 1.491 . S
C3413 C3412 1.400 . S
C3413 C3414 1.398 . S
C3414 H3402 0.950 . S
C3414 C3413 1.398 . S
C3414 C3415 1.391 . S
C3415 H3403 0.950 . S
C3415 C3411 1.393 . S
C3415 C3414 1.391 . S
H3416 C3424 0.950 . S
H3417 C3429 0.950 . S
H3418 C3426 0.950 . S
H3419 C3428 0.950 . S
H3420 C3430 0.950 . S
H3421 C3432 0.950 . S
H3422 C3434 0.950 . S
H3423 C3435 0.950 . S
C3424 H3416 0.950 . S
C3424 C3425 1.386 . S
C3424 C3426 1.391 . S
C3425 C3424 1.386 . S
C3425 C3429 1.393 . S
C3426 H3418 0.950 . S
C3426 C3424 1.391 . S
C3426 C3427 1.400 . S
C3427 C3426 1.400 . S
C3427 C3428 1.398 . S
C3427 C3433 1.491 . S
C3428 H3419 0.950 . S
C3428 C3427 1.398 . S
C3428 C3429 1.391 . S
C3429 H3417 0.950 . S
C3429 C3425 1.393 . S
C3429 C3428 1.391 . S
C3430 H3420 0.950 . S
C3430 C3431 1.386 . S
C3430 C3432 1.391 . S
C3431 C3430 1.386 . S
C3431 C3435 1.393 . S
C3432 H3421 0.950 . S
C3432 C3430 1.391 . S
C3432 C3433 1.400 . S
C3433 C3427 1.491 . S
C3433 C3432 1.400 . S
C3433 C3434 1.398 . S
C3434 H3422 0.950 . S
C3434 C3433 1.398 . S
C3434 C3435 1.391 . S
C3435 H3423 0.950 . S
C3435 C3431 1.393 . S
C3435 C3434 1.391 . S
H3436 C3444 0.950 . S
H3437 C3449 0.950 . S
H3438 C3446 0.950 . S
H3439 C3448 0.950 . S
H3440 C3450 0.950 . S
H3441 C3452 0.950 . S
H3442 C3454 0.950 . S
H3443 C3455 0.950 . S
C3444 H3436 0.950 . S
C3444 C3445 1.386 . S
C3444 C3446 1.391 . S
C3445 C3444 1.386 . S
C3445 C3449 1.393 . S
C3446 H3438 0.950 . S
C3446 C3444 1.391 . S
C3446 C3447 1.400 . S
C3447 C3446 1.400 . S
C3447 C3448 1.398 . S
C3447 C3453 1.491 . S
C3448 H3439 0.950 . S
C3448 C3447 1.398 . S
C3448 C3449 1.391 . S
C3449 H3437 0.950 . S
C3449 C3445 1.393 . S
C3449 C3448 1.391 . S
C3450 H3440 0.950 . S
C3450 C3451 1.386 . S
C3450 C3452 1.391 . S
C3451 C3450 1.386 . S
C3451 C3455 1.393 . S
C3452 H3441 0.950 . S
C3452 C3450 1.391 . S
C3452 C3453 1.400 . S
C3453 C3447 1.491 . S
C3453 C3452 1.400 . S
C3453 C3454 1.398 . S
C3454 H3442 0.950 . S
C3454 C3453 1.398 . S
C3454 C3455 1.391 . S
C3455 H3443 0.950 . S
C3455 C3451 1.393 . S
C3455 C3454 1.391 . S
H3456 C3464 0.950 . S
H3457 C3469 0.950 . S
H3458 C3466 0.950 . S
H3459 C3468 0.950 . S
H3460 C3470 0.950 . S
H3461 C3472 0.950 . S
H3462 C3474 0.950 . S
H3463 C3475 0.950 . S
C3464 H3456 0.950 . S
C3464 C3465 1.386 . S
C3464 C3466 1.391 . S
C3465 C3464 1.386 . S
C3465 C3469 1.393 . S
C3466 H3458 0.950 . S
C3466 C3464 1.391 . S
C3466 C3467 1.400 . S
C3467 C3466 1.400 . S
C3467 C3468 1.398 . S
C3467 C3473 1.491 . S
C3468 H3459 0.950 . S
C3468 C3467 1.398 . S
C3468 C3469 1.391 . S
C3469 H3457 0.950 . S
C3469 C3465 1.393 . S
C3469 C3468 1.391 . S
C3470 H3460 0.950 . S
C3470 C3471 1.386 . S
C3470 C3472 1.391 . S
C3471 C3470 1.386 . S
C3471 C3475 1.393 . S
C3472 H3461 0.950 . S
C3472 C3470 1.391 . S
C3472 C3473 1.400 . S
C3473 C3467 1.491 . S
C3473 C3472 1.400 . S
C3473 C3474 1.398 . S
C3474 H3462 0.950 . S
C3474 C3473 1.398 . S
C3474 C3475 1.391 . S
C3475 H3463 0.950 . S
C3475 C3471 1.393 . S
C3475 C3474 1.391 . S
H3476 C3484 0.950 . S
H3477 C3489 0.950 . S
H3478 C3486 0.950 . S
H3479 C3488 0.950 . S
H3480 C3490 0.950 . S
H3481 C3492 0.950 . S
H3482 C3494 0.950 . S
H3483 C3495 0.950 . S
C3484 H3476 0.950 . S
C3484 C3485 1.386 . S
C3484 C3486 1.391 . S
C3485 C3484 1.386 . S
C3485 C3489 1.393 . S
C3486 H3478 0.950 . S
C3486 C3484 1.391 . S
C3486 C3487 1.400 . S
C3487 C3486 1.400 . S
C3487 C3488 1.398 . S
C3487 C3493 1.491 . S
C3488 H3479 0.950 . S
C3488 C3487 1.398 . S
C3488 C3489 1.391 . S
C3489 H3477 0.950 . S
C3489 C3485 1.393 . S
C3489 C3488 1.391 . S
C3490 H3480 0.950 . S
C3490 C3491 1.386 . S
C3490 C3492 1.391 . S
C3491 C3490 1.386 . S
C3491 C3495 1.393 . S
C3492 H3481 0.950 . S
C3492 C3490 1.391 . S
C3492 C3493 1.400 . S
C3493 C3487 1.491 . S
C3493 C3492 1.400 . S
C3493 C3494 1.398 . S
C3494 H3482 0.950 . S
C3494 C3493 1.398 . S
C3494 C3495 1.391 . S
C3495 H3483 0.950 . S
C3495 C3491 1.393 . S
C3495 C3494 1.391 . S
H3496 C3504 0.950 . S
H3497 C3509 0.950 . S
H3498 C3506 0.950 . S
H3499 C3508 0.950 . S
H3500 C3510 0.950 . S
H3501 C3512 0.950 . S
H3502 C3514 0.950 . S
H3503 C3515 0.950 . S
C3504 H3496 0.950 . S
C3504 C3505 1.386 . S
C3504 C3506 1.391 . S
C3505 C3504 1.386 . S
C3505 C3509 1.393 . S
C3506 H3498 0.950 . S
C3506 C3504 1.391 . S
C3506 C3507 1.400 . S
C3507 C3506 1.400 . S
C3507 C3508 1.398 . S
C3507 C3513 1.491 . S
C3508 H3499 0.950 . S
C3508 C3507 1.398 . S
C3508 C3509 1.391 . S
C3509 H3497 0.950 . S
C3509 C3505 1.393 . S
C3509 C3508 1.391 . S
C3510 H3500 0.950 . S
C3510 C3511 1.386 . S
C3510 C3512 1.391 . S
C3511 C3510 1.386 . S
C3511 C3515 1.393 . S
C3512 H3501 0.950 . S
C3512 C3510 1.391 . S
C3512 C3513 1.400 . S
C3513 C3507 1.491 . S
C3513 C3512 1.400 . S
C3513 C3514 1.398 . S
C3514 H3502 0.950 . S
C3514 C3513 1.398 . S
C3514 C3515 1.391 . S
C3515 H3503 0.950 . S
C3515 C3511 1.393 . S
C3515 C3514 1.391 . S
H3516 C3524 0.950 . S
H3517 C3529 0.950 . S
H3518 C3526 0.950 . S
H3519 C3528 0.950 . S
H3520 C3530 0.950 . S
H3521 C3532 0.950 . S
H3522 C3534 0.950 . S
H3523 C3535 0.950 . S
C3524 H3516 0.950 . S
C3524 C3525 1.386 . S
C3524 C3526 1.391 . S
C3525 C3524 1.386 . S
C3525 C3529 1.393 . S
C3526 H3518 0.950 . S
C3526 C3524 1.391 . S
C3526 C3527 1.400 . S
C3527 C3526 1.400 . S
C3527 C3528 1.398 . S
C3527 C3533 1.491 . S
C3528 H3519 0.950 . S
C3528 C3527 1.398 . S
C3528 C3529 1.391 . S
C3529 H3517 0.950 . S
C3529 C3525 1.393 . S
C3529 C3528 1.391 . S
C3530 H3520 0.950 . S
C3530 C3531 1.386 . S
C3530 C3532 1.391 . S
C3531 C3530 1.386 . S
C3531 C3535 1.393 . S
C3532 H3521 0.950 . S
C3532 C3530 1.391 . S
C3532 C3533 1.400 . S
C3533 C3527 1.491 . S
C3533 C3532 1.400 . S
C3533 C3534 1.398 . S
C3534 H3522 0.950 . S
C3534 C3533 1.398 . S
C3534 C3535 1.391 . S
C3535 H3523 0.950 . S
C3535 C3531 1.393 . S
C3535 C3534 1.391 . S
H3536 C3544 0.950 . S
H3537 C3549 0.950 . S
H3538 C3546 0.950 . S
H3539 C3548 0.950 . S
H3540 C3550 0.950 . S
H3541 C3552 0.950 . S
H3542 C3554 0.950 . S
H3543 C3555 0.950 . S
C3544 H3536 0.950 . S
C3544 C3545 1.386 . S
C3544 C3546 1.391 . S
C3545 C3544 1.386 . S
C3545 C3549 1.393 . S
C3546 H3538 0.950 . S
C3546 C3544 1.391 . S
C3546 C3547 1.400 . S
C3547 C3546 1.400 . S
C3547 C3548 1.398 . S
C3547 C3553 1.491 . S
C3548 H3539 0.950 . S
C3548 C3547 1.398 . S
C3548 C3549 1.391 . S
C3549 H3537 0.950 . S
C3549 C3545 1.393 . S
C3549 C3548 1.391 . S
C3550 H3540 0.950 . S
C3550 C3551 1.386 . S
C3550 C3552 1.391 . S
C3551 C3550 1.386 . S
C3551 C3555 1.393 . S
C3552 H3541 0.950 . S
C3552 C3550 1.391 . S
C3552 C3553 1.400 . S
C3553 C3547 1.491 . S
C3553 C3552 1.400 . S
C3553 C3554 1.398 . S
C3554 H3542 0.950 . S
C3554 C3553 1.398 . S
C3554 C3555 1.391 . S
C3555 H3543 0.950 . S
C3555 C3551 1.393 . S
C3555 C3554 1.391 . S
H3556 C3564 0.950 . S
H3557 C3569 0.950 . S
H3558 C3566 0.950 . S
H3559 C3568 0.950 . S
H3560 C3570 0.950 . S
H3561 C3572 0.950 . S
H3562 C3574 0.950 . S
H3563 C3575 0.950 . S
C3564 H3556 0.950 . S
C3564 C3565 1.386 . S
C3564 C3566 1.391 . S
C3565 C3564 1.386 . S
C3565 C3569 1.393 . S
C3566 H3558 0.950 . S
C3566 C3564 1.391 . S
C3566 C3567 1.400 . S
C3567 C3566 1.400 . S
C3567 C3568 1.398 . S
C3567 C3573 1.491 . S
C3568 H3559 0.950 . S
C3568 C3567 1.398 . S
C3568 C3569 1.391 . S
C3569 H3557 0.950 . S
C3569 C3565 1.393 . S
C3569 C3568 1.391 . S
C3570 H3560 0.950 . S
C3570 C3571 1.386 . S
C3570 C3572 1.391 . S
C3571 C3570 1.386 . S
C3571 C3575 1.393 . S
C3572 H3561 0.950 . S
C3572 C3570 1.391 . S
C3572 C3573 1.400 . S
C3573 C3567 1.491 . S
C3573 C3572 1.400 . S
C3573 C3574 1.398 . S
C3574 H3562 0.950 . S
C3574 C3573 1.398 . S
C3574 C3575 1.391 . S
C3575 H3563 0.950 . S
C3575 C3571 1.393 . S
C3575 C3574 1.391 . S
H3576 C3584 0.950 . S
H3577 C3589 0.950 . S
H3578 C3586 0.950 . S
H3579 C3588 0.950 . S
H3580 C3590 0.950 . S
H3581 C3592 0.950 . S
H3582 C3594 0.950 . S
H3583 C3595 0.950 . S
C3584 H3576 0.950 . S
C3584 C3585 1.386 . S
C3584 C3586 1.391 . S
C3585 C3584 1.386 . S
C3585 C3589 1.393 . S
C3586 H3578 0.950 . S
C3586 C3584 1.391 . S
C3586 C3587 1.400 . S
C3587 C3586 1.400 . S
C3587 C3588 1.398 . S
C3587 C3593 1.491 . S
C3588 H3579 0.950 . S
C3588 C3587 1.398 . S
C3588 C3589 1.391 . S
C3589 H3577 0.950 . S
C3589 C3585 1.393 . S
C3589 C3588 1.391 . S
C3590 H3580 0.950 . S
C3590 C3591 1.386 . S
C3590 C3592 1.391 . S
C3591 C3590 1.386 . S
C3591 C3595 1.393 . S
C3592 H3581 0.950 . S
C3592 C3590 1.391 . S
C3592 C3593 1.400 . S
C3593 C3587 1.491 . S
C3593 C3592 1.400 . S
C3593 C3594 1.398 . S
C3594 H3582 0.950 . S
C3594 C3593 1.398 . S
C3594 C3595 1.391 . S
C3595 H3583 0.950 . S
C3595 C3591 1.393 . S
C3595 C3594 1.391 . S
H3596 C3604 0.950 . S
H3597 C3609 0.950 . S
H3598 C3606 0.950 . S
H3599 C3608 0.950 . S
H3600 C3610 0.950 . S
H3601 C3612 0.950 . S
H3602 C3614 0.950 . S
H3603 C3615 0.950 . S
C3604 H3596 0.950 . S
C3604 C3605 1.386 . S
C3604 C3606 1.391 . S
C3605 C3604 1.386 . S
C3605 C3609 1.393 . S
C3606 H3598 0.950 . S
C3606 C3604 1.391 . S
C3606 C3607 1.400 . S
C3607 C3606 1.400 . S
C3607 C3608 1.398 . S
C3607 C3613 1.491 . S
C3608 H3599 0.950 . S
C3608 C3607 1.398 . S
C3608 C3609 1.391 . S
C3609 H3597 0.950 . S
C3609 C3605 1.393 . S
C3609 C3608 1.391 . S
C3610 H3600 0.950 . S
C3610 C3611 1.386 . S
C3610 C3612 1.391 . S
C3611 C3610 1.386 . S
C3611 C3615 1.393 . S
C3612 H3601 0.950 . S
C3612 C3610 1.391 . S
C3612 C3613 1.400 . S
C3613 C3607 1.491 . S
C3613 C3612 1.400 . S
C3613 C3614 1.398 . S
C3614 H3602 0.950 . S
C3614 C3613 1.398 . S
C3614 C3615 1.391 . S
C3615 H3603 0.950 . S
C3615 C3611 1.393 . S
C3615 C3614 1.391 . S
H3616 C3624 0.950 . S
H3617 C3629 0.950 . S
H3618 C3626 0.950 . S
H3619 C3628 0.950 . S
H3620 C3630 0.950 . S
H3621 C3632 0.950 . S
H3622 C3634 0.950 . S
H3623 C3635 0.950 . S
C3624 H3616 0.950 . S
C3624 C3625 1.386 . S
C3624 C3626 1.391 . S
C3625 C3624 1.386 . S
C3625 C3629 1.393 . S
C3626 H3618 0.950 . S
C3626 C3624 1.391 . S
C3626 C3627 1.400 . S
C3627 C3626 1.400 . S
C3627 C3628 1.398 . S
C3627 C3633 1.491 . S
C3628 H3619 0.950 . S
C3628 C3627 1.398 . S
C3628 C3629 1.391 . S
C3629 H3617 0.950 . S
C3629 C3625 1.393 . S
C3629 C3628 1.391 . S
C3630 H3620 0.950 . S
C3630 C3631 1.386 . S
C3630 C3632 1.391 . S
C3631 C3630 1.386 . S
C3631 C3635 1.393 . S
C3632 H3621 0.950 . S
C3632 C3630 1.391 . S
C3632 C3633 1.400 . S
C3633 C3627 1.491 . S
C3633 C3632 1.400 . S
C3633 C3634 1.398 . S
C3634 H3622 0.950 . S
C3634 C3633 1.398 . S
C3634 C3635 1.391 . S
C3635 H3623 0.950 . S
C3635 C3631 1.393 . S
C3635 C3634 1.391 . S
H3636 C3644 0.950 . S
H3637 C3649 0.950 . S
H3638 C3646 0.950 . S
H3639 C3648 0.950 . S
H3640 C3650 0.950 . S
H3641 C3652 0.950 . S
H3642 C3654 0.950 . S
H3643 C3655 0.950 . S
C3644 H3636 0.950 . S
C3644 C3645 1.386 . S
C3644 C3646 1.391 . S
C3645 C3644 1.386 . S
C3645 C3649 1.393 . S
C3646 H3638 0.950 . S
C3646 C3644 1.391 . S
C3646 C3647 1.400 . S
C3647 C3646 1.400 . S
C3647 C3648 1.398 . S
C3647 C3653 1.491 . S
C3648 H3639 0.950 . S
C3648 C3647 1.398 . S
C3648 C3649 1.391 . S
C3649 H3637 0.950 . S
C3649 C3645 1.393 . S
C3649 C3648 1.391 . S
C3650 H3640 0.950 . S
C3650 C3651 1.386 . S
C3650 C3652 1.391 . S
C3651 C3650 1.386 . S
C3651 C3655 1.393 . S
C3652 H3641 0.950 . S
C3652 C3650 1.391 . S
C3652 C3653 1.400 . S
C3653 C3647 1.491 . S
C3653 C3652 1.400 . S
C3653 C3654 1.398 . S
C3654 H3642 0.950 . S
C3654 C3653 1.398 . S
C3654 C3655 1.391 . S
C3655 H3643 0.950 . S
C3655 C3651 1.393 . S
C3655 C3654 1.391 . S
H3656 C3664 0.950 . S
H3657 C3669 0.950 . S
H3658 C3666 0.950 . S
H3659 C3668 0.950 . S
H3660 C3670 0.950 . S
H3661 C3672 0.950 . S
H3662 C3674 0.950 . S
H3663 C3675 0.950 . S
C3664 H3656 0.950 . S
C3664 C3665 1.386 . S
C3664 C3666 1.391 . S
C3665 C3664 1.386 . S
C3665 C3669 1.393 . S
C3666 H3658 0.950 . S
C3666 C3664 1.391 . S
C3666 C3667 1.400 . S
C3667 C3666 1.400 . S
C3667 C3668 1.398 . S
C3667 C3673 1.491 . S
C3668 H3659 0.950 . S
C3668 C3667 1.398 . S
C3668 C3669 1.391 . S
C3669 H3657 0.950 . S
C3669 C3665 1.393 . S
C3669 C3668 1.391 . S
C3670 H3660 0.950 . S
C3670 C3671 1.386 . S
C3670 C3672 1.391 . S
C3671 C3670 1.386 . S
C3671 C3675 1.393 . S
C3672 H3661 0.950 . S
C3672 C3670 1.391 . S
C3672 C3673 1.400 . S
C3673 C3667 1.491 . S
C3673 C3672 1.400 . S
C3673 C3674 1.398 . S
C3674 H3662 0.950 . S
C3674 C3673 1.398 . S
C3674 C3675 1.391 . S
C3675 H3663 0.950 . S
C3675 C3671 1.393 . S
C3675 C3674 1.391 . S
H3676 C3684 0.950 . S
H3677 C3689 0.950 . S
H3678 C3686 0.950 . S
H3679 C3688 0.950 . S
H3680 C3690 0.950 . S
H3681 C3692 0.950 . S
H3682 C3694 0.950 . S
H3683 C3695 0.950 . S
C3684 H3676 0.950 . S
C3684 C3685 1.386 . S
C3684 C3686 1.391 . S
C3685 C3684 1.386 . S
C3685 C3689 1.393 . S
C3686 H3678 0.950 . S
C3686 C3684 1.391 . S
C3686 C3687 1.400 . S
C3687 C3686 1.400 . S
C3687 C3688 1.398 . S
C3687 C3693 1.491 . S
C3688 H3679 0.950 . S
C3688 C3687 1.398 . S
C3688 C3689 1.391 . S
C3689 H3677 0.950 . S
C3689 C3685 1.393 . S
C3689 C3688 1.391 . S
C3690 H3680 0.950 . S
C3690 C3691 1.386 . S
C3690 C3692 1.391 . S
C3691 C3690 1.386 . S
C3691 C3695 1.393 . S
C3692 H3681 0.950 . S
C3692 C3690 1.391 . S
C3692 C3693 1.400 . S
C3693 C3687 1.491 . S
C3693 C3692 1.400 . S
C3693 C3694 1.398 . S
C3694 H3682 0.950 . S
C3694 C3693 1.398 . S
C3694 C3695 1.391 . S
C3695 H3683 0.950 . S
C3695 C3691 1.393 . S
C3695 C3694 1.391 . S
H3696 C3704 0.950 . S
H3697 C3709 0.950 . S
H3698 C3706 0.950 . S
H3699 C3708 0.950 . S
H3700 C3710 0.950 . S
H3701 C3712 0.950 . S
H3702 C3714 0.950 . S
H3703 C3715 0.950 . S
C3704 H3696 0.950 . S
C3704 C3705 1.386 . S
C3704 C3706 1.391 . S
C3705 C3704 1.386 . S
C3705 C3709 1.393 . S
C3706 H3698 0.950 . S
C3706 C3704 1.391 . S
C3706 C3707 1.400 . S
C3707 C3706 1.400 . S
C3707 C3708 1.398 . S
C3707 C3713 1.491 . S
C3708 H3699 0.950 . S
C3708 C3707 1.398 . S
C3708 C3709 1.391 . S
C3709 H3697 0.950 . S
C3709 C3705 1.393 . S
C3709 C3708 1.391 . S
C3710 H3700 0.950 . S
C3710 C3711 1.386 . S
C3710 C3712 1.391 . S
C3711 C3710 1.386 . S
C3711 C3715 1.393 . S
C3712 H3701 0.950 . S
C3712 C3710 1.391 . S
C3712 C3713 1.400 . S
C3713 C3707 1.491 . S
C3713 C3712 1.400 . S
C3713 C3714 1.398 . S
C3714 H3702 0.950 . S
C3714 C3713 1.398 . S
C3714 C3715 1.391 . S
C3715 H3703 0.950 . S
C3715 C3711 1.393 . S
C3715 C3714 1.391 . S
H3716 C3724 0.950 . S
H3717 C3729 0.950 . S
H3718 C3726 0.950 . S
H3719 C3728 0.950 . S
H3720 C3730 0.950 . S
H3721 C3732 0.950 . S
H3722 C3734 0.950 . S
H3723 C3735 0.950 . S
C3724 H3716 0.950 . S
C3724 C3725 1.386 . S
C3724 C3726 1.391 . S
C3725 C3724 1.386 . S
C3725 C3729 1.393 . S
C3726 H3718 0.950 . S
C3726 C3724 1.391 . S
C3726 C3727 1.400 . S
C3727 C3726 1.400 . S
C3727 C3728 1.398 . S
C3727 C3733 1.491 . S
C3728 H3719 0.950 . S
C3728 C3727 1.398 . S
C3728 C3729 1.391 . S
C3729 H3717 0.950 . S
C3729 C3725 1.393 . S
C3729 C3728 1.391 . S
C3730 H3720 0.950 . S
C3730 C3731 1.386 . S
C3730 C3732 1.391 . S
C3731 C3730 1.386 . S
C3731 C3735 1.393 . S
C3732 H3721 0.950 . S
C3732 C3730 1.391 . S
C3732 C3733 1.400 . S
C3733 C3727 1.491 . S
C3733 C3732 1.400 . S
C3733 C3734 1.398 . S
C3734 H3722 0.950 . S
C3734 C3733 1.398 . S
C3734 C3735 1.391 . S
C3735 H3723 0.950 . S
C3735 C3731 1.393 . S
C3735 C3734 1.391 . S
H3736 C3744 0.950 . S
H3737 C3749 0.950 . S
H3738 C3746 0.950 . S
H3739 C3748 0.950 . S
H3740 C3750 0.950 . S
H3741 C3752 0.950 . S
H3742 C3754 0.950 . S
H3743 C3755 0.950 . S
C3744 H3736 0.950 . S
C3744 C3745 1.386 . S
C3744 C3746 1.391 . S
C3745 C3744 1.386 . S
C3745 C3749 1.393 . S
C3746 H3738 0.950 . S
C3746 C3744 1.391 . S
C3746 C3747 1.400 . S
C3747 C3746 1.400 . S
C3747 C3748 1.398 . S
C3747 C3753 1.491 . S
C3748 H3739 0.950 . S
C3748 C3747 1.398 . S
C3748 C3749 1.391 . S
C3749 H3737 0.950 . S
C3749 C3745 1.393 . S
C3749 C3748 1.391 . S
C3750 H3740 0.950 . S
C3750 C3751 1.386 . S
C3750 C3752 1.391 . S
C3751 C3750 1.386 . S
C3751 C3755 1.393 . S
C3752 H3741 0.950 . S
C3752 C3750 1.391 . S
C3752 C3753 1.400 . S
C3753 C3747 1.491 . S
C3753 C3752 1.400 . S
C3753 C3754 1.398 . S
C3754 H3742 0.950 . S
C3754 C3753 1.398 . S
C3754 C3755 1.391 . S
C3755 H3743 0.950 . S
C3755 C3751 1.393 . S
C3755 C3754 1.391 . S
H3756 C3764 0.950 . S
H3757 C3769 0.950 . S
H3758 C3766 0.950 . S
H3759 C3768 0.950 . S
H3760 C3770 0.950 . S
H3761 C3772 0.950 . S
H3762 C3774 0.950 . S
H3763 C3775 0.950 . S
C3764 H3756 0.950 . S
C3764 C3765 1.386 . S
C3764 C3766 1.391 . S
C3765 C3764 1.386 . S
C3765 C3769 1.393 . S
C3766 H3758 0.950 . S
C3766 C3764 1.391 . S
C3766 C3767 1.400 . S
C3767 C3766 1.400 . S
C3767 C3768 1.398 . S
C3767 C3773 1.491 . S
C3768 H3759 0.950 . S
C3768 C3767 1.398 . S
C3768 C3769 1.391 . S
C3769 H3757 0.950 . S
C3769 C3765 1.393 . S
C3769 C3768 1.391 . S
C3770 H3760 0.950 . S
C3770 C3771 1.386 . S
C3770 C3772 1.391 . S
C3771 C3770 1.386 . S
C3771 C3775 1.393 . S
C3772 H3761 0.950 . S
C3772 C3770 1.391 . S
C3772 C3773 1.400 . S
C3773 C3767 1.491 . S
C3773 C3772 1.400 . S
C3773 C3774 1.398 . S
C3774 H3762 0.950 . S
C3774 C3773 1.398 . S
C3774 C3775 1.391 . S
C3775 H3763 0.950 . S
C3775 C3771 1.393 . S
C3775 C3774 1.391 . S
H3776 C3784 0.950 . S
H3777 C3789 0.950 . S
H3778 C3786 0.950 . S
H3779 C3788 0.950 . S
H3780 C3790 0.950 . S
H3781 C3792 0.950 . S
H3782 C3794 0.950 . S
H3783 C3795 0.950 . S
C3784 H3776 0.950 . S
C3784 C3785 1.386 . S
C3784 C3786 1.391 . S
C3785 C3784 1.386 . S
C3785 C3789 1.393 . S
C3786 H3778 0.950 . S
C3786 C3784 1.391 . S
C3786 C3787 1.400 . S
C3787 C3786 1.400 . S
C3787 C3788 1.398 . S
C3787 C3793 1.491 . S
C3788 H3779 0.950 . S
C3788 C3787 1.398 . S
C3788 C3789 1.391 . S
C3789 H3777 0.950 . S
C3789 C3785 1.393 . S
C3789 C3788 1.391 . S
C3790 H3780 0.950 . S
C3790 C3791 1.386 . S
C3790 C3792 1.391 . S
C3791 C3790 1.386 . S
C3791 C3795 1.393 . S
C3792 H3781 0.950 . S
C3792 C3790 1.391 . S
C3792 C3793 1.400 . S
C3793 C3787 1.491 . S
C3793 C3792 1.400 . S
C3793 C3794 1.398 . S
C3794 H3782 0.950 . S
C3794 C3793 1.398 . S
C3794 C3795 1.391 . S
C3795 H3783 0.950 . S
C3795 C3791 1.393 . S
C3795 C3794 1.391 . S
H3796 C3804 0.950 . S
H3797 C3809 0.950 . S
H3798 C3806 0.950 . S
H3799 C3808 0.950 . S
H3800 C3810 0.950 . S
H3801 C3812 0.950 . S
H3802 C3814 0.950 . S
H3803 C3815 0.950 . S
C3804 H3796 0.950 . S
C3804 C3805 1.386 . S
C3804 C3806 1.391 . S
C3805 C3804 1.386 . S
C3805 C3809 1.393 . S
C3806 H3798 0.950 . S
C3806 C3804 1.391 . S
C3806 C3807 1.400 . S
C3807 C3806 1.400 . S
C3807 C3808 1.398 . S
C3807 C3813 1.491 . S
C3808 H3799 0.950 . S
C3808 C3807 1.398 . S
C3808 C3809 1.391 . S
C3809 H3797 0.950 . S
C3809 C3805 1.393 . S
C3809 C3808 1.391 . S
C3810 H3800 0.950 . S
C3810 C3811 1.386 . S
C3810 C3812 1.391 . S
C3811 C3810 1.386 . S
C3811 C3815 1.393 . S
C3812 H3801 0.950 . S
C3812 C3810 1.391 . S
C3812 C3813 1.400 . S
C3813 C3807 1.491 . S
C3813 C3812 1.400 . S
C3813 C3814 1.398 . S
C3814 H3802 0.950 . S
C3814 C3813 1.398 . S
C3814 C3815 1.391 . S
C3815 H3803 0.950 . S
C3815 C3811 1.393 . S
C3815 C3814 1.391 . S
H3816 C3824 0.950 . S
H3817 C3829 0.950 . S
H3818 C3826 0.950 . S
H3819 C3828 0.950 . S
H3820 C3830 0.950 . S
H3821 C3832 0.950 . S
H3822 C3834 0.950 . S
H3823 C3835 0.950 . S
C3824 H3816 0.950 . S
C3824 C3825 1.386 . S
C3824 C3826 1.391 . S
C3825 C3824 1.386 . S
C3825 C3829 1.393 . S
C3826 H3818 0.950 . S
C3826 C3824 1.391 . S
C3826 C3827 1.400 . S
C3827 C3826 1.400 . S
C3827 C3828 1.398 . S
C3827 C3833 1.491 . S
C3828 H3819 0.950 . S
C3828 C3827 1.398 . S
C3828 C3829 1.391 . S
C3829 H3817 0.950 . S
C3829 C3825 1.393 . S
C3829 C3828 1.391 . S
C3830 H3820 0.950 . S
C3830 C3831 1.386 . S
C3830 C3832 1.391 . S
C3831 C3830 1.386 . S
C3831 C3835 1.393 . S
C3832 H3821 0.950 . S
C3832 C3830 1.391 . S
C3832 C3833 1.400 . S
C3833 C3827 1.491 . S
C3833 C3832 1.400 . S
C3833 C3834 1.398 . S
C3834 H3822 0.950 . S
C3834 C3833 1.398 . S
C3834 C3835 1.391 . S
C3835 H3823 0.950 . S
C3835 C3831 1.393 . S
C3835 C3834 1.391 . S
H3836 C3844 0.950 . S
H3837 C3849 0.950 . S
H3838 C3846 0.950 . S
H3839 C3848 0.950 . S
H3840 C3850 0.950 . S
H3841 C3852 0.950 . S
H3842 C3854 0.950 . S
H3843 C3855 0.950 . S
C3844 H3836 0.950 . S
C3844 C3845 1.386 . S
C3844 C3846 1.391 . S
C3845 C3844 1.386 . S
C3845 C3849 1.393 . S
C3846 H3838 0.950 . S
C3846 C3844 1.391 . S
C3846 C3847 1.400 . S
C3847 C3846 1.400 . S
C3847 C3848 1.398 . S
C3847 C3853 1.491 . S
C3848 H3839 0.950 . S
C3848 C3847 1.398 . S
C3848 C3849 1.391 . S
C3849 H3837 0.950 . S
C3849 C3845 1.393 . S
C3849 C3848 1.391 . S
C3850 H3840 0.950 . S
C3850 C3851 1.386 . S
C3850 C3852 1.391 . S
C3851 C3850 1.386 . S
C3851 C3855 1.393 . S
C3852 H3841 0.950 . S
C3852 C3850 1.391 . S
C3852 C3853 1.400 . S
C3853 C3847 1.491 . S
C3853 C3852 1.400 . S
C3853 C3854 1.398 . S
C3854 H3842 0.950 . S
C3854 C3853 1.398 . S
C3854 C3855 1.391 . S
C3855 H3843 0.950 . S
C3855 C3851 1.393 . S
C3855 C3854 1.391 . S
H3856 C3864 0.950 . S
H3857 C3869 0.950 . S
H3858 C3866 0.950 . S
H3859 C3868 0.950 . S
H3860 C3870 0.950 . S
H3861 C3872 0.950 . S
H3862 C3874 0.950 . S
H3863 C3875 0.950 . S
C3864 H3856 0.950 . S
C3864 C3865 1.386 . S
C3864 C3866 1.391 . S
C3865 C3864 1.386 . S
C3865 C3869 1.393 . S
C3866 H3858 0.950 . S
C3866 C3864 1.391 . S
C3866 C3867 1.400 . S
C3867 C3866 1.400 . S
C3867 C3868 1.398 . S
C3867 C3873 1.491 . S
C3868 H3859 0.950 . S
C3868 C3867 1.398 . S
C3868 C3869 1.391 . S
C3869 H3857 0.950 . S
C3869 C3865 1.393 . S
C3869 C3868 1.391 . S
C3870 H3860 0.950 . S
C3870 C3871 1.386 . S
C3870 C3872 1.391 . S
C3871 C3870 1.386 . S
C3871 C3875 1.393 . S
C3872 H3861 0.950 . S
C3872 C3870 1.391 . S
C3872 C3873 1.400 . S
C3873 C3867 1.491 . S
C3873 C3872 1.400 . S
C3873 C3874 1.398 . S
C3874 H3862 0.950 . S
C3874 C3873 1.398 . S
C3874 C3875 1.391 . S
C3875 H3863 0.950 . S
C3875 C3871 1.393 . S
C3875 C3874 1.391 . S
H3876 C3884 0.950 . S
H3877 C3889 0.950 . S
H3878 C3886 0.950 . S
H3879 C3888 0.950 . S
H3880 C3890 0.950 . S
H3881 C3892 0.950 . S
H3882 C3894 0.950 . S
H3883 C3895 0.950 . S
C3884 H3876 0.950 . S
C3884 C3885 1.386 . S
C3884 C3886 1.391 . S
C3885 C3884 1.386 . S
C3885 C3889 1.393 . S
C3886 H3878 0.950 . S
C3886 C3884 1.391 . S
C3886 C3887 1.400 . S
C3887 C3886 1.400 . S
C3887 C3888 1.398 . S
C3887 C3893 1.491 . S
C3888 H3879 0.950 . S
C3888 C3887 1.398 . S
C3888 C3889 1.391 . S
C3889 H3877 0.950 . S
C3889 C3885 1.393 . S
C3889 C3888 1.391 . S
C3890 H3880 0.950 . S
C3890 C3891 1.386 . S
C3890 C3892 1.391 . S
C3891 C3890 1.386 . S
C3891 C3895 1.393 . S
C3892 H3881 0.950 . S
C3892 C3890 1.391 . S
C3892 C3893 1.400 . S
C3893 C3887 1.491 . S
C3893 C3892 1.400 . S
C3893 C3894 1.398 . S
C3894 H3882 0.950 . S
C3894 C3893 1.398 . S
C3894 C3895 1.391 . S
C3895 H3883 0.950 . S
C3895 C3891 1.393 . S
C3895 C3894 1.391 . S
H3896 C3904 0.950 . S
H3897 C3909 0.950 . S
H3898 C3906 0.950 . S
H3899 C3908 0.950 . S
H3900 C3910 0.950 . S
H3901 C3912 0.950 . S
H3902 C3914 0.950 . S
H3903 C3915 0.950 . S
C3904 H3896 0.950 . S
C3904 C3905 1.386 . S
C3904 C3906 1.391 . S
C3905 C3904 1.386 . S
C3905 C3909 1.393 . S
C3906 H3898 0.950 . S
C3906 C3904 1.391 . S
C3906 C3907 1.400 . S
C3907 C3906 1.400 . S
C3907 C3908 1.398 . S
C3907 C3913 1.491 . S
C3908 H3899 0.950 . S
C3908 C3907 1.398 . S
C3908 C3909 1.391 . S
C3909 H3897 0.950 . S
C3909 C3905 1.393 . S
C3909 C3908 1.391 . S
C3910 H3900 0.950 . S
C3910 C3911 1.386 . S
C3910 C3912 1.391 . S
C3911 C3910 1.386 . S
C3911 C3915 1.393 . S
C3912 H3901 0.950 . S
C3912 C3910 1.391 . S
C3912 C3913 1.400 . S
C3913 C3907 1.491 . S
C3913 C3912 1.400 . S
C3913 C3914 1.398 . S
C3914 H3902 0.950 . S
C3914 C3913 1.398 . S
C3914 C3915 1.391 . S
C3915 H3903 0.950 . S
C3915 C3911 1.393 . S
C3915 C3914 1.391 . S
H3916 C3924 0.950 . S
H3917 C3929 0.950 . S
H3918 C3926 0.950 . S
H3919 C3928 0.950 . S
H3920 C3930 0.950 . S
H3921 C3932 0.950 . S
H3922 C3934 0.950 . S
H3923 C3935 0.950 . S
C3924 H3916 0.950 . S
C3924 C3925 1.386 . S
C3924 C3926 1.391 . S
C3925 C3924 1.386 . S
C3925 C3929 1.393 . S
C3926 H3918 0.950 . S
C3926 C3924 1.391 . S
C3926 C3927 1.400 . S
C3927 C3926 1.400 . S
C3927 C3928 1.398 . S
C3927 C3933 1.491 . S
C3928 H3919 0.950 . S
C3928 C3927 1.398 . S
C3928 C3929 1.391 . S
C3929 H3917 0.950 . S
C3929 C3925 1.393 . S
C3929 C3928 1.391 . S
C3930 H3920 0.950 . S
C3930 C3931 1.386 . S
C3930 C3932 1.391 . S
C3931 C3930 1.386 . S
C3931 C3935 1.393 . S
C3932 H3921 0.950 . S
C3932 C3930 1.391 . S
C3932 C3933 1.400 . S
C3933 C3927 1.491 . S
C3933 C3932 1.400 . S
C3933 C3934 1.398 . S
C3934 H3922 0.950 . S
C3934 C3933 1.398 . S
C3934 C3935 1.391 . S
C3935 H3923 0.950 . S
C3935 C3931 1.393 . S
C3935 C3934 1.391 . S
H3936 C3944 0.950 . S
H3937 C3949 0.950 . S
H3938 C3946 0.950 . S
H3939 C3948 0.950 . S
H3940 C3950 0.950 . S
H3941 C3952 0.950 . S
H3942 C3954 0.950 . S
H3943 C3955 0.950 . S
C3944 H3936 0.950 . S
C3944 C3945 1.386 . S
C3944 C3946 1.391 . S
C3945 C3944 1.386 . S
C3945 C3949 1.393 . S
C3946 H3938 0.950 . S
C3946 C3944 1.391 . S
C3946 C3947 1.400 . S
C3947 C3946 1.400 . S
C3947 C3948 1.398 . S
C3947 C3953 1.491 . S
C3948 H3939 0.950 . S
C3948 C3947 1.398 . S
C3948 C3949 1.391 . S
C3949 H3937 0.950 . S
C3949 C3945 1.393 . S
C3949 C3948 1.391 . S
C3950 H3940 0.950 . S
C3950 C3951 1.386 . S
C3950 C3952 1.391 . S
C3951 C3950 1.386 . S
C3951 C3955 1.393 . S
C3952 H3941 0.950 . S
C3952 C3950 1.391 . S
C3952 C3953 1.400 . S
C3953 C3947 1.491 . S
C3953 C3952 1.400 . S
C3953 C3954 1.398 . S
C3954 H3942 0.950 . S
C3954 C3953 1.398 . S
C3954 C3955 1.391 . S
C3955 H3943 0.950 . S
C3955 C3951 1.393 . S
C3955 C3954 1.391 . S
H3956 C3964 0.950 . S
H3957 C3969 0.950 . S
H3958 C3966 0.950 . S
H3959 C3968 0.950 . S
H3960 C3970 0.950 . S
H3961 C3972 0.950 . S
H3962 C3974 0.950 . S
H3963 C3975 0.950 . S
C3964 H3956 0.950 . S
C3964 C3965 1.386 . S
C3964 C3966 1.391 . S
C3965 C3964 1.386 . S
C3965 C3969 1.393 . S
C3966 H3958 0.950 . S
C3966 C3964 1.391 . S
C3966 C3967 1.400 . S
C3967 C3966 1.400 . S
C3967 C3968 1.398 . S
C3967 C3973 1.491 . S
C3968 H3959 0.950 . S
C3968 C3967 1.398 . S
C3968 C3969 1.391 . S
C3969 H3957 0.950 . S
C3969 C3965 1.393 . S
C3969 C3968 1.391 . S
C3970 H3960 0.950 . S
C3970 C3971 1.386 . S
C3970 C3972 1.391 . S
C3971 C3970 1.386 . S
C3971 C3975 1.393 . S
C3972 H3961 0.950 . S
C3972 C3970 1.391 . S
C3972 C3973 1.400 . S
C3973 C3967 1.491 . S
C3973 C3972 1.400 . S
C3973 C3974 1.398 . S
C3974 H3962 0.950 . S
C3974 C3973 1.398 . S
C3974 C3975 1.391 . S
C3975 H3963 0.950 . S
C3975 C3971 1.393 . S
C3975 C3974 1.391 . S
H3976 C3984 0.950 . S
H3977 C3989 0.950 . S
H3978 C3986 0.950 . S
H3979 C3988 0.950 . S
H3980 C3990 0.950 . S
H3981 C3992 0.950 . S
H3982 C3994 0.950 . S
H3983 C3995 0.950 . S
C3984 H3976 0.950 . S
C3984 C3985 1.386 . S
C3984 C3986 1.391 . S
C3985 C3984 1.386 . S
C3985 C3989 1.393 . S
C3986 H3978 0.950 . S
C3986 C3984 1.391 . S
C3986 C3987 1.400 . S
C3987 C3986 1.400 . S
C3987 C3988 1.398 . S
C3987 C3993 1.491 . S
C3988 H3979 0.950 . S
C3988 C3987 1.398 . S
C3988 C3989 1.391 . S
C3989 H3977 0.950 . S
C3989 C3985 1.393 . S
C3989 C3988 1.391 . S
C3990 H3980 0.950 . S
C3990 C3991 1.386 . S
C3990 C3992 1.391 . S
C3991 C3990 1.386 . S
C3991 C3995 1.393 . S
C3992 H3981 0.950 . S
C3992 C3990 1.391 . S
C3992 C3993 1.400 . S
C3993 C3987 1.491 . S
C3993 C3992 1.400 . S
C3993 C3994 1.398 . S
C3994 H3982 0.950 . S
C3994 C3993 1.398 . S
C3994 C3995 1.391 . S
C3995 H3983 0.950 . S
C3995 C3991 1.393 . S
C3995 C3994 1.391 . S
H3996 C4004 0.950 . S
H3997 C4009 0.950 . S
H3998 C4006 0.950 . S
H3999 C4008 0.950 . S
H4000 C4010 0.950 . S
H4001 C4012 0.950 . S
H4002 C4014 0.950 . S
H4003 C4015 0.950 . S
C4004 H3996 0.950 . S
C4004 C4005 1.386 . S
C4004 C4006 1.391 . S
C4005 C4004 1.386 . S
C4005 C4009 1.393 . S
C4006 H3998 0.950 . S
C4006 C4004 1.391 . S
C4006 C4007 1.400 . S
C4007 C4006 1.400 . S
C4007 C4008 1.398 . S
C4007 C4013 1.491 . S
C4008 H3999 0.950 . S
C4008 C4007 1.398 . S
C4008 C4009 1.391 . S
C4009 H3997 0.950 . S
C4009 C4005 1.393 . S
C4009 C4008 1.391 . S
C4010 H4000 0.950 . S
C4010 C4011 1.386 . S
C4010 C4012 1.391 . S
C4011 C4010 1.386 . S
C4011 C4015 1.393 . S
C4012 H4001 0.950 . S
C4012 C4010 1.391 . S
C4012 C4013 1.400 . S
C4013 C4007 1.491 . S
C4013 C4012 1.400 . S
C4013 C4014 1.398 . S
C4014 H4002 0.950 . S
C4014 C4013 1.398 . S
C4014 C4015 1.391 . S
C4015 H4003 0.950 . S
C4015 C4011 1.393 . S
C4015 C4014 1.391 . S
H4016 C4024 0.950 . S
H4017 C4029 0.950 . S
H4018 C4026 0.950 . S
H4019 C4028 0.950 . S
H4020 C4030 0.950 . S
H4021 C4032 0.950 . S
H4022 C4034 0.950 . S
H4023 C4035 0.950 . S
C4024 H4016 0.950 . S
C4024 C4025 1.386 . S
C4024 C4026 1.391 . S
C4025 C4024 1.386 . S
C4025 C4029 1.393 . S
C4026 H4018 0.950 . S
C4026 C4024 1.391 . S
C4026 C4027 1.400 . S
C4027 C4026 1.400 . S
C4027 C4028 1.398 . S
C4027 C4033 1.491 . S
C4028 H4019 0.950 . S
C4028 C4027 1.398 . S
C4028 C4029 1.391 . S
C4029 H4017 0.950 . S
C4029 C4025 1.393 . S
C4029 C4028 1.391 . S
C4030 H4020 0.950 . S
C4030 C4031 1.386 . S
C4030 C4032 1.391 . S
C4031 C4030 1.386 . S
C4031 C4035 1.393 . S
C4032 H4021 0.950 . S
C4032 C4030 1.391 . S
C4032 C4033 1.400 . S
C4033 C4027 1.491 . S
C4033 C4032 1.400 . S
C4033 C4034 1.398 . S
C4034 H4022 0.950 . S
C4034 C4033 1.398 . S
C4034 C4035 1.391 . S
C4035 H4023 0.950 . S
C4035 C4031 1.393 . S
C4035 C4034 1.391 . S
H4036 C4044 0.950 . S
H4037 C4049 0.950 . S
H4038 C4046 0.950 . S
H4039 C4048 0.950 . S
H4040 C4050 0.950 . S
H4041 C4052 0.950 . S
H4042 C4054 0.950 . S
H4043 C4055 0.950 . S
C4044 H4036 0.950 . S
C4044 C4045 1.386 . S
C4044 C4046 1.391 . S
C4045 C4044 1.386 . S
C4045 C4049 1.393 . S
C4046 H4038 0.950 . S
C4046 C4044 1.391 . S
C4046 C4047 1.400 . S
C4047 C4046 1.400 . S
C4047 C4048 1.398 . S
C4047 C4053 1.491 . S
C4048 H4039 0.950 . S
C4048 C4047 1.398 . S
C4048 C4049 1.391 . S
C4049 H4037 0.950 . S
C4049 C4045 1.393 . S
C4049 C4048 1.391 . S
C4050 H4040 0.950 . S
C4050 C4051 1.386 . S
C4050 C4052 1.391 . S
C4051 C4050 1.386 . S
C4051 C4055 1.393 . S
C4052 H4041 0.950 . S
C4052 C4050 1.391 . S
C4052 C4053 1.400 . S
C4053 C4047 1.491 . S
C4053 C4052 1.400 . S
C4053 C4054 1.398 . S
C4054 H4042 0.950 . S
C4054 C4053 1.398 . S
C4054 C4055 1.391 . S
C4055 H4043 0.950 . S
C4055 C4051 1.393 . S
C4055 C4054 1.391 . S
H4056 C4064 0.950 . S
H4057 C4069 0.950 . S
H4058 C4066 0.950 . S
H4059 C4068 0.950 . S
H4060 C4070 0.950 . S
H4061 C4072 0.950 . S
H4062 C4074 0.950 . S
H4063 C4075 0.950 . S
C4064 H4056 0.950 . S
C4064 C4065 1.386 . S
C4064 C4066 1.391 . S
C4065 C4064 1.386 . S
C4065 C4069 1.393 . S
C4066 H4058 0.950 . S
C4066 C4064 1.391 . S
C4066 C4067 1.400 . S
C4067 C4066 1.400 . S
C4067 C4068 1.398 . S
C4067 C4073 1.491 . S
C4068 H4059 0.950 . S
C4068 C4067 1.398 . S
C4068 C4069 1.391 . S
C4069 H4057 0.950 . S
C4069 C4065 1.393 . S
C4069 C4068 1.391 . S
C4070 H4060 0.950 . S
C4070 C4071 1.386 . S
C4070 C4072 1.391 . S
C4071 C4070 1.386 . S
C4071 C4075 1.393 . S
C4072 H4061 0.950 . S
C4072 C4070 1.391 . S
C4072 C4073 1.400 . S
C4073 C4067 1.491 . S
C4073 C4072 1.400 . S
C4073 C4074 1.398 . S
C4074 H4062 0.950 . S
C4074 C4073 1.398 . S
C4074 C4075 1.391 . S
C4075 H4063 0.950 . S
C4075 C4071 1.393 . S
C4075 C4074 1.391 . S
H4076 C4084 0.950 . S
H4077 C4089 0.950 . S
H4078 C4086 0.950 . S
H4079 C4088 0.950 . S
H4080 C4090 0.950 . S
H4081 C4092 0.950 . S
H4082 C4094 0.950 . S
H4083 C4095 0.950 . S
C4084 H4076 0.950 . S
C4084 C4085 1.386 . S
C4084 C4086 1.391 . S
C4085 C4084 1.386 . S
C4085 C4089 1.393 . S
C4086 H4078 0.950 . S
C4086 C4084 1.391 . S
C4086 C4087 1.400 . S
C4087 C4086 1.400 . S
C4087 C4088 1.398 . S
C4087 C4093 1.491 . S
C4088 H4079 0.950 . S
C4088 C4087 1.398 . S
C4088 C4089 1.391 . S
C4089 H4077 0.950 . S
C4089 C4085 1.393 . S
C4089 C4088 1.391 . S
C4090 H4080 0.950 . S
C4090 C4091 1.386 . S
C4090 C4092 1.391 . S
C4091 C4090 1.386 . S
C4091 C4095 1.393 . S
C4092 H4081 0.950 . S
C4092 C4090 1.391 . S
C4092 C4093 1.400 . S
C4093 C4087 1.491 . S
C4093 C4092 1.400 . S
C4093 C4094 1.398 . S
C4094 H4082 0.950 . S
C4094 C4093 1.398 . S
C4094 C4095 1.391 . S
C4095 H4083 0.950 . S
C4095 C4091 1.393 . S
C4095 C4094 1.391 . S
C2825 C409 1.508 . S
C2831 C29 1.507 . S
C2845 C497 1.507 . S
C2851 C117 1.508 . S
C2865 C577 1.505 . S
C2871 C205 1.506 . S
C2885 C284 1.508 . S
C2891 C665 1.507 . S
C2905 C724 1.497 . S
C2911 C1113 1.499 . S
C2925 C1173 1.499 . S
C2931 C841 1.496 . S
C2945 C929 1.498 . S
C2951 C1261 1.495 . S
C2965 C1349 1.497 . S
C2971 C1017 1.499 . S
C2985 C1428 1.507 . S
C2991 C1817 1.506 . S
C3005 C1897 1.506 . S
C3011 C1525 1.505 . S
C3025 C1985 1.507 . S
C3031 C1604 1.506 . S
C3045 C2081 1.506 . S
C3051 C1692 1.505 . S
C3065 C2132 1.495 . S
C3071 C2513 1.494 . S
C3085 C2249 1.496 . S
C3091 C2581 1.498 . S
C3105 C2337 1.494 . S
C3111 C2660 1.495 . S
C3125 C2433 1.498 . S
C3131 C2757 1.495 . S
C3145 C49 0.459 . S
C3151 C645 0.486 . S
C3165 C137 0.515 . S
C3171 C372 0.506 . S
C3185 C225 0.491 . S
C3191 C460 0.462 . S
C3205 C557 0.515 . S
C3211 C321 0.501 . S
C3225 C1340 0.484 . S
C3231 C733 0.510 . S
C3245 C1105 0.524 . S
C3251 C849 0.507 . S
C3265 C1164 0.489 . S
C3271 C937 0.514 . S
C3285 C1025 0.511 . S
C3291 C1252 0.525 . S
C3305 C2044 0.512 . S
C3311 C1465 0.488 . S
C3325 C1780 0.482 . S
C3331 C1545 0.457 . S
C3345 C1877 0.453 . S
C3351 C1641 0.471 . S
C3365 C1729 0.460 . S
C3371 C1965 0.488 . S
C3385 C2141 0.471 . S
C3391 C2748 0.463 . S
C3405 C2257 0.508 . S
C3411 C2521 0.482 . S
C3425 C2345 0.473 . S
C3431 C2572 0.462 . S
C3445 C2669 0.495 . S
C3451 C2425 0.471 . S
C3465 C57 1.602 . S
C3471 C2229 1.567 . S
C3485 C145 1.596 . S
C3491 C909 1.549 . S
C3505 C233 1.596 . S
C3511 C2396 1.549 . S
C3525 C761 1.550 . S
C3531 C313 1.595 . S
C3545 C2777 1.568 . S
C3551 C381 1.601 . S
C3565 C469 1.599 . S
C3571 C1076 1.569 . S
C3585 C548 1.601 . S
C3591 C2601 1.558 . S
C3605 C636 1.595 . S
C3611 C1281 1.560 . S
C3625 C1516 1.550 . S
C3631 C753 1.595 . S
C3645 C196 1.569 . S
C3651 C812 1.597 . S
C3665 C1701 1.561 . S
C3671 C900 1.598 . S
C3685 C988 1.598 . S
C3691 C20 1.567 . S
C3705 C2073 1.564 . S
C3711 C1085 1.599 . S
C3725 C401 1.570 . S
C3731 C1201 1.596 . S
C3745 C1905 1.561 . S
C3751 C1289 1.593 . S
C3765 C585 1.564 . S
C3771 C1377 1.599 . S
C3785 C821 1.562 . S
C3791 C1457 1.596 . S
C3805 C1553 1.597 . S
C3811 C2317 1.549 . S
C3825 C1633 1.601 . S
C3831 C997 1.570 . S
C3845 C1721 1.601 . S
C3851 C2169 1.563 . S
C3865 C1789 1.596 . S
C3871 C1369 1.564 . S
C3885 C2493 1.558 . S
C3891 C1868 1.595 . S
C3905 C1956 1.601 . S
C3911 C1193 1.558 . S
C3925 C2053 1.595 . S
C3931 C2697 1.558 . S
C3945 C2161 1.595 . S
C3951 C108 1.550 . S
C3965 C2220 1.594 . S
C3971 C1613 1.567 . S
C3985 C293 1.550 . S
C3991 C2308 1.595 . S
C4005 C1437 1.560 . S
C4011 C2405 1.598 . S
C4025 C2484 1.599 . S
C4031 C673 1.564 . S
C4045 C2609 1.593 . S
C4051 C1809 1.554 . S
C4065 C489 1.551 . S
C4071 C2689 1.594 . S
C4085 C1993 1.554 . S
C4091 C2785 1.597 . S
