# Generated by pormake.
# Topology wkb, (5)-cn, num edge types: 1
# Building blocks:
#     Node 0, Type 0, BuildingBlock: BEQFEK_clean_sbu_0, # of connection points: 5
#     Node 1, Type 0, BuildingBlock: BEQFEK_clean_sbu_0, # of connection points: 5
#     Node 2, Type 0, BuildingBlock: BEQFEK_clean_sbu_0, # of connection points: 5
#     Node 3, Type 0, BuildingBlock: BEQFEK_clean_sbu_0, # of connection points: 5
#     Node 4, Type 0, BuildingBlock: BEQFEK_clean_sbu_0, # of connection points: 5
#     Node 5, Type 0, BuildingBlock: BEQFEK_clean_sbu_0, # of connection points: 5
#     Node 6, Type 0, BuildingBlock: BEQFEK_clean_sbu_0, # of connection points: 5
#     Node 7, Type 0, BuildingBlock: BEQFEK_clean_sbu_0, # of connection points: 5
#     Node 8, Type 0, BuildingBlock: BEQFEK_clean_sbu_0, # of connection points: 5
#     Node 9, Type 0, BuildingBlock: BEQFEK_clean_sbu_0, # of connection points: 5
#     Node 10, Type 0, BuildingBlock: BEQFEK_clean_sbu_0, # of connection points: 5
#     Node 11, Type 0, BuildingBlock: BEQFEK_clean_sbu_0, # of connection points: 5
#     Edge 12, Type (0, 0), BuildingBlock: EZIPEK_clean_linker_0, # of connection points: 2
#     Edge 13, Type (0, 0), BuildingBlock: EZIPEK_clean_linker_0, # of connection points: 2
#     Edge 14, Type (0, 0), BuildingBlock: EZIPEK_clean_linker_0, # of connection points: 2
#     Edge 15, Type (0, 0), BuildingBlock: EZIPEK_clean_linker_0, # of connection points: 2
#     Edge 16, Type (0, 0), BuildingBlock: EZIPEK_clean_linker_0, # of connection points: 2
#     Edge 17, Type (0, 0), BuildingBlock: EZIPEK_clean_linker_0, # of connection points: 2
#     Edge 18, Type (0, 0), BuildingBlock: EZIPEK_clean_linker_0, # of connection points: 2
#     Edge 19, Type (0, 0), BuildingBlock: EZIPEK_clean_linker_0, # of connection points: 2
#     Edge 20, Type (0, 0), BuildingBlock: EZIPEK_clean_linker_0, # of connection points: 2
#     Edge 21, Type (0, 0), BuildingBlock: EZIPEK_clean_linker_0, # of connection points: 2
#     Edge 22, Type (0, 0), BuildingBlock: EZIPEK_clean_linker_0, # of connection points: 2
#     Edge 23, Type (0, 0), BuildingBlock: EZIPEK_clean_linker_0, # of connection points: 2
#     Edge 24, Type (0, 0), BuildingBlock: EZIPEK_clean_linker_0, # of connection points: 2
#     Edge 25, Type (0, 0), BuildingBlock: EZIPEK_clean_linker_0, # of connection points: 2
#     Edge 26, Type (0, 0), BuildingBlock: EZIPEK_clean_linker_0, # of connection points: 2
#     Edge 27, Type (0, 0), BuildingBlock: EZIPEK_clean_linker_0, # of connection points: 2
#     Edge 28, Type (0, 0), BuildingBlock: EZIPEK_clean_linker_0, # of connection points: 2
#     Edge 29, Type (0, 0), BuildingBlock: EZIPEK_clean_linker_0, # of connection points: 2
#     Edge 30, Type (0, 0), BuildingBlock: EZIPEK_clean_linker_0, # of connection points: 2
#     Edge 31, Type (0, 0), BuildingBlock: EZIPEK_clean_linker_0, # of connection points: 2
#     Edge 32, Type (0, 0), BuildingBlock: EZIPEK_clean_linker_0, # of connection points: 2
#     Edge 33, Type (0, 0), BuildingBlock: EZIPEK_clean_linker_0, # of connection points: 2
#     Edge 34, Type (0, 0), BuildingBlock: EZIPEK_clean_linker_0, # of connection points: 2
#     Edge 35, Type (0, 0), BuildingBlock: EZIPEK_clean_linker_0, # of connection points: 2
#     Edge 36, Type (0, 0), BuildingBlock: EZIPEK_clean_linker_0, # of connection points: 2
#     Edge 37, Type (0, 0), BuildingBlock: EZIPEK_clean_linker_0, # of connection points: 2
#     Edge 38, Type (0, 0), BuildingBlock: EZIPEK_clean_linker_0, # of connection points: 2
#     Edge 39, Type (0, 0), BuildingBlock: EZIPEK_clean_linker_0, # of connection points: 2
#     Edge 40, Type (0, 0), BuildingBlock: EZIPEK_clean_linker_0, # of connection points: 2
#     Edge 41, Type (0, 0), BuildingBlock: EZIPEK_clean_linker_0, # of connection points: 2
# Relax obj value: 0.146
# Max RMSD: 0.140
# Mean RMSD: 0.140
data_MOF--net-wkb--node1-BEQFEK_clean_sbu_0--edge1-EZIPEK_clean_linker_0
_symmetry_space_group_name_H-M    P1
_symmetry_Int_Tables_number       1
_symmetry_cell_setting            triclinic
loop_
_symmetry_equiv_pos_as_xyz
'x, y, z'
_cell_length_a     32.050407
_cell_length_b     32.034233
_cell_length_c     32.921434
_cell_angle_alpha  89.835577
_cell_angle_beta   90.017459
_cell_angle_gamma 119.69927
loop_
_atom_site_label
_atom_site_type_symbol
_atom_site_fract_x
_atom_site_fract_y
_atom_site_fract_z
_atom_type_partial_charge
Co0 Co 0.06517 0.38489 -0.00088 0.0
Co1 Co 0.11734 0.37986 0.07631 0.0
C2 C 1.01169 0.31396 0.0668 0.0
O3 O 1.01248 0.33192 0.03194 0.0
O4 O 0.05008 0.32825 0.08731 0.0
C5 C 1.02431 0.34646 0.92373 0.0
O6 O 1.02291 0.30896 0.94143 0.0
C7 C 0.14647 0.36116 0.15512 0.0
C8 C 0.22493 0.41054 0.15364 0.0
C9 C 0.18772 0.37833 0.17812 0.0
N10 N 0.15861 0.38181 0.1183 0.0
N11 N 0.2056 0.4111 0.11751 0.0
C12 C 0.09591 0.3307 0.16965 0.0
H13 H 0.07735 0.29836 0.15019 0.0
H14 H 0.09451 0.31923 0.20169 0.0
H15 H 0.07668 0.35136 0.16692 0.0
C16 C 0.14628 0.37683 0.96007 0.0
N17 N 0.12126 0.3781 0.99276 0.0
N18 N 0.13975 0.37031 0.02563 0.0
C19 C 0.17484 0.36079 0.01464 0.0
C20 C 0.18045 0.36516 0.97286 0.0
C21 C 0.13989 0.38885 0.91743 0.0
H22 H 0.11462 0.35532 0.9014 0.0
H23 H 0.17455 0.40515 0.90075 0.0
H24 H 0.12578 0.4142 0.91712 0.0
O25 O 0.07961 0.44576 0.02575 0.0
O26 O 0.1207 0.44428 0.07919 0.0
H27 H 0.2365 0.37883 0.05121 0.0
H28 H 0.21101 0.32098 0.02787 0.0
C29 C 0.20212 0.34654 0.04299 0.0
H30 H 0.1809 0.32958 0.07081 0.0
H31 H 0.22408 0.43355 0.0931 0.0
O32 O 1.04076 0.38475 0.94439 0.0
C33 C 0.1026 0.46491 0.05825 0.0
Co34 Co 0.70714 0.04408 0.16106 0.0
Co35 Co 0.74944 0.09365 0.24322 0.0
C36 C 0.7229 0.99008 0.22765 0.0
O37 O 0.70908 0.99058 0.19134 0.0
O38 O 0.73938 1.02714 0.25029 0.0
C39 C 0.69031 0.99703 0.08049 0.0
O40 O 0.68851 0.9588 0.09702 0.0
C41 C 0.80932 0.12598 0.31609 0.0
C42 C 0.80359 0.18996 0.33224 0.0
C43 C 0.82392 0.16256 0.34409 0.0
N44 N 0.78116 0.13129 0.28881 0.0
N45 N 0.77785 0.16953 0.29859 0.0
C46 C 0.82237 0.08719 0.31481 0.0
H47 H 0.83042 0.08187 0.28307 0.0
H48 H 0.85366 0.09597 0.33463 0.0
H49 H 0.79123 0.05301 0.32539 0.0
C50 C 0.79902 0.12603 0.13134 0.0
N51 N 0.7678 0.10215 0.16162 0.0
N52 N 0.78509 0.12485 0.19577 0.0
C53 C 0.82732 0.16511 0.18825 0.0
C54 C 0.83591 0.17034 0.14595 0.0
C55 C 0.80111 0.09947 0.09471 0.0
H56 H 0.78782 0.06139 0.10309 0.0
H57 H 0.83828 0.11409 0.0832 0.0
H58 H 0.7774 0.10017 0.07054 0.0
O59 O 0.65431 0.05377 0.18419 0.0
O60 O 0.68602 0.09001 0.24265 0.0
H61 H 0.8528 0.21542 0.23759 0.0
H62 H 0.90008 0.21204 0.20982 0.0
C63 C 0.86282 0.19129 0.22147 0.0
H64 H 0.86189 0.165 0.24388 0.0
H65 H 0.7581 0.18171 0.28215 0.0
O66 O 0.6938 0.03091 0.10267 0.0
C67 C 0.65155 0.07273 0.21739 0.0
Co68 Co 0.68456 0.68346 0.33014 0.0
Co69 Co 0.68191 0.73431 0.40842 0.0
C70 C 0.75435 0.70236 0.3987 0.0
O71 O 0.73946 0.68665 0.36293 0.0
O72 O 0.73535 0.72175 0.41981 0.0
C73 C 0.72547 0.68561 0.25431 0.0
O74 O 0.76211 0.72122 0.27277 0.0
C75 C 0.70873 0.79616 0.47961 0.0
C76 C 0.63986 0.79354 0.49326 0.0
C77 C 0.68644 0.81141 0.50684 0.0
N78 N 0.67641 0.76972 0.45121 0.0
N79 N 0.63546 0.76852 0.45933 0.0
C80 C 0.75933 0.80563 0.48091 0.0
H81 H 0.77481 0.81334 0.44982 0.0
H82 H 0.78173 0.83615 0.50136 0.0
H83 H 0.75946 0.77304 0.49224 0.0
C84 C 0.69068 0.77388 0.29379 0.0
N85 N 0.68805 0.74537 0.32535 0.0
N86 N 0.69111 0.76821 0.35929 0.0
C87 C 0.69778 0.81231 0.35057 0.0
C88 C 0.69785 0.8175 0.30873 0.0
C89 C 0.68355 0.7594 0.25009 0.0
H90 H 0.65922 0.72014 0.2472 0.0
H91 H 0.71885 0.76956 0.23626 0.0
H92 H 0.66814 0.77861 0.23315 0.0
O93 O 0.62344 0.63323 0.35558 0.0
O94 O 0.61999 0.67285 0.40914 0.0
H95 H 0.669 0.83746 0.39677 0.0
H96 H 0.71683 0.8848 0.36768 0.0
C97 C 0.70397 0.8489 0.38167 0.0
H98 H 0.72999 0.85143 0.40507 0.0
H99 H 0.60428 0.74987 0.44205 0.0
O100 O 0.68707 0.66223 0.27468 0.0
C101 C 0.60207 0.63502 0.38759 0.0
Co102 Co 1.02502 0.66959 0.49214 0.0
Co103 Co 0.97985 0.66776 0.57581 0.0
C104 C 0.08185 0.74199 0.55693 0.0
O105 O 0.07913 0.72639 0.52075 0.0
O106 O 0.04608 0.72289 0.58108 0.0
C107 C 0.06989 0.70271 0.41176 0.0
O108 O 0.10526 0.74087 0.42881 0.0
C109 C 0.94749 0.6983 0.64697 0.0
C110 C 0.88895 0.62827 0.66896 0.0
C111 C 0.91313 0.677 0.67695 0.0
N112 N 0.94384 0.66348 0.62217 0.0
N113 N 0.90888 0.62175 0.63544 0.0
C114 C 0.98293 0.75052 0.64179 0.0
H115 H 0.98697 0.76019 0.60907 0.0
H116 H 0.97166 0.77306 0.65897 0.0
H117 H 1.01843 0.75764 0.65324 0.0
C118 C 0.93878 0.67517 0.46415 0.0
N119 N 0.96655 0.67223 0.49371 0.0
N120 N 0.94802 0.67284 0.52915 0.0
C121 C 0.90834 0.67677 0.52322 0.0
C122 C 0.90133 0.67851 0.48178 0.0
C123 C 0.94784 0.67541 0.41964 0.0
H124 H 0.95316 0.64472 0.41181 0.0
H125 H 0.98085 0.70927 0.41204 0.0
H126 H 0.91772 0.67322 0.40136 0.0
O127 O 1.01704 0.60851 0.51693 0.0
O128 O 0.983 0.60765 0.57589 0.0
H129 H 0.86331 0.64673 0.5753 0.0
H130 H 0.84813 0.68385 0.54413 0.0
C131 C 0.87816 0.67976 0.55644 0.0
H132 H 0.90089 0.71088 0.57613 0.0
H133 H 0.89859 0.58884 0.6215 0.0
O134 O 1.03817 0.66943 0.43363 0.0
C135 C 0.99922 0.58886 0.5511 0.0
Co136 Co 0.38556 1.01047 0.65543 0.0
Co137 Co 0.33522 0.96146 0.73561 0.0
C138 C 0.36635 0.06438 0.72197 0.0
O139 O 0.38308 0.06348 0.68695 0.0
O140 O 0.34593 1.02702 0.74426 0.0
C141 C 0.38342 0.04775 0.57836 0.0
O142 O 0.34853 0.05101 0.59632 0.0
C143 C 0.27378 0.92708 0.80757 0.0
C144 C 0.27801 0.86171 0.8218 0.0
C145 C 0.25921 0.88987 0.83513 0.0
N146 N 0.30065 0.92147 0.77923 0.0
N147 N 0.30284 0.88227 0.78773 0.0
C148 C 0.26327 0.96762 0.80849 0.0
H149 H 0.29581 1.00072 0.81872 0.0
H150 H 0.25442 0.97436 0.77742 0.0
H151 H 0.2332 0.95974 0.82958 0.0
C152 C 0.2958 0.92598 0.62131 0.0
N153 N 0.32415 0.95274 0.65232 0.0
N154 N 0.30162 0.93417 0.6867 0.0
C155 C 0.25772 0.89648 0.67866 0.0
C156 C 0.25262 0.89011 0.63695 0.0
C157 C 0.3097 0.93267 0.57743 0.0
H158 H 0.30003 0.95833 0.56361 0.0
H159 H 0.2899 0.89821 0.56075 0.0
H160 H 0.3488 0.94655 0.57413 0.0
O161 O 0.43542 0.99872 0.68057 0.0
O162 O 0.39845 0.96402 0.73814 0.0
H163 H 0.18572 0.84294 0.69638 0.0
H164 H 0.21793 0.89088 0.73259 0.0
C165 C 0.22132 0.86694 0.7102 0.0
H166 H 0.23354 0.84458 0.72649 0.0
H167 H 0.32196 0.87002 0.77054 0.0
O168 O 0.4059 0.0321 0.59945 0.0
C169 C 0.4348 0.97991 0.71484 0.0
Co170 Co 0.40771 0.36931 0.82674 0.0
Co171 Co 0.40138 0.31437 0.90565 0.0
C172 C 0.33073 0.34711 0.89049 0.0
O173 O 0.34961 0.36429 0.85588 0.0
O174 O 0.3469 0.32617 0.91321 0.0
C175 C 0.37102 0.36803 0.74984 0.0
O176 O 0.33386 0.33206 0.76769 0.0
C177 C 0.38287 0.26847 0.98504 0.0
C178 C 0.43208 0.23867 0.98462 0.0
C179 C 0.39975 0.24428 0.00858 0.0
N180 N 0.40371 0.27628 0.9484 0.0
N181 N 0.43296 0.25827 0.94825 0.0
C182 C 0.35204 0.28882 0.99856 0.0
H183 H 0.37088 0.32805 0.99239 0.0
H184 H 0.31823 0.27202 0.98075 0.0
H185 H 0.34316 0.28224 0.03137 0.0
C186 C 0.40472 0.28143 0.7904 0.0
N187 N 0.40477 0.30817 0.82222 0.0
N188 N 0.39579 0.28252 0.85559 0.0
C189 C 0.38637 0.23774 0.8457 0.0
C190 C 0.39221 0.23574 0.80416 0.0
C191 C 0.41874 0.29922 0.74779 0.0
H192 H 0.44315 0.33864 0.74731 0.0
H193 H 0.38596 0.28989 0.72991 0.0
H194 H 0.43688 0.28131 0.73313 0.0
O195 O 0.4669 0.41788 0.85492 0.0
O196 O 0.46281 0.37711 0.91079 0.0
H197 H 0.39972 0.1923 0.88482 0.0
H198 H 0.34323 0.16237 0.8591 0.0
C199 C 0.3689 0.19626 0.87457 0.0
H200 H 0.35106 0.2018 0.9012 0.0
H201 H 0.45546 0.26167 0.92404 0.0
O202 O 0.40852 0.39167 0.77109 0.0
C203 C 0.48393 0.41495 0.88906 0.0
Co204 Co 0.68412 1.01031 0.83622 0.0
Co205 Co 0.68368 0.95883 0.7572 0.0
C206 C 0.75553 0.06193 0.76798 0.0
O207 O 0.73891 0.06219 0.80321 0.0
O208 O 0.73809 1.0239 0.7467 0.0
C209 C 0.72486 0.04839 0.91211 0.0
O210 O 0.76178 0.04969 0.8936 0.0
C211 C 0.70984 0.92295 0.68589 0.0
C212 C 0.64045 0.85788 0.67242 0.0
C213 C 0.6871 0.88564 0.65872 0.0
N214 N 0.67771 0.91787 0.71436 0.0
N215 N 0.63644 0.87882 0.70635 0.0
C216 C 0.76065 0.96317 0.68443 0.0
H217 H 0.77629 0.97031 0.71542 0.0
H218 H 0.78264 0.95466 0.66361 0.0
H219 H 0.7612 0.99624 0.67351 0.0
C220 C 0.68911 0.92544 0.87214 0.0
N221 N 0.6875 0.95198 0.84065 0.0
N222 N 0.69073 0.93241 0.80663 0.0
C223 C 0.69645 0.89429 0.81534 0.0
C224 C 0.69578 0.88865 0.8572 0.0
C225 C 0.68166 0.93264 0.91582 0.0
H226 H 0.65779 0.94833 0.91867 0.0
H227 H 0.71695 0.9569 0.92984 0.0
H228 H 0.66557 0.89799 0.9326 0.0
O229 O 0.62247 0.99876 0.81158 0.0
O230 O 0.62332 0.96201 0.75488 0.0
H231 H 0.66775 0.8411 0.76883 0.0
H232 H 0.71472 0.84012 0.79831 0.0
C233 C 0.70258 0.8638 0.78423 0.0
H234 H 0.72911 0.88705 0.76106 0.0
H235 H 0.60533 0.867 0.72371 0.0
O236 O 0.68658 0.03382 0.89167 0.0
C237 C 0.6036 0.97905 0.77787 0.0
Co238 Co 0.70695 0.66888 0.004 0.0
Co239 Co 0.74972 0.66715 0.92021 0.0
C240 C 0.71994 0.74036 0.93806 0.0
O241 O 0.70671 0.72435 0.97417 0.0
O242 O 0.73749 0.72183 0.91416 0.0
C243 C 0.69602 0.70264 0.08439 0.0
O244 O 0.69907 0.7412 0.0674 0.0
C245 C 0.81122 0.69746 0.84826 0.0
C246 C 0.80194 0.62773 0.82746 0.0
C247 C 0.82487 0.6763 0.81859 0.0
N248 N 0.78126 0.66273 0.87376 0.0
N249 N 0.77582 0.62118 0.8612 0.0
C250 C 0.82628 0.74948 0.85246 0.0
H251 H 0.79758 0.75563 0.84002 0.0
H252 H 0.83099 0.75964 0.88504 0.0
H253 H 0.86006 0.77233 0.83549 0.0
C254 C 0.79946 0.67557 0.03152 0.0
N255 N 0.76856 0.67259 0.00215 0.0
N256 N 0.78764 0.67367 0.96659 0.0
C257 C 0.83164 0.67848 0.97224 0.0
C258 C 0.84057 0.6799 0.01365 0.0
C259 C 0.79046 0.67473 0.07609 0.0
H260 H 0.79145 0.70863 0.08427 0.0
H261 H 0.81813 0.67168 0.09408 0.0
H262 H 0.75454 0.64413 0.08368 0.0
O263 O 0.65519 0.60663 0.98102 0.0
O264 O 0.68706 0.60632 0.92128 0.0
H265 H 0.84756 0.64864 0.92056 0.0
H266 H 0.89951 0.68762 0.95081 0.0
C267 C 0.86477 0.68208 0.93877 0.0
H268 H 0.87149 0.7125 0.91854 0.0
H269 H 0.75431 0.58837 0.87577 0.0
O270 O 0.6942 0.66925 0.0625 0.0
C271 C 0.65292 0.58693 0.94686 0.0
Co272 Co 0.06418 0.68723 0.16515 0.0
Co273 Co 0.11639 0.73622 0.08589 0.0
C274 C 1.01179 0.70354 0.09618 0.0
O275 O 1.01177 0.68969 0.13264 0.0
O276 O 0.04971 0.7218 0.07456 0.0
C277 C 1.02547 0.68892 0.2415 0.0
O278 O 1.02306 0.72411 0.22312 0.0
C279 C 0.14948 0.79799 0.01419 0.0
C280 C 0.21524 0.79504 -0.00093 0.0
C281 C 0.18634 0.81329 0.98631 0.0
N282 N 0.15595 0.7712 0.04218 0.0
N283 N 0.19538 0.76976 0.03314 0.0
C284 C 0.10866 0.80809 0.0141 0.0
H285 H 0.10182 0.81579 0.04547 0.0
H286 H 0.11632 0.83882 0.9938 0.0
H287 H 0.07574 0.77578 0.00329 0.0
C288 C 0.14723 0.77891 0.19973 0.0
N289 N 0.12159 0.74955 0.16874 0.0
N290 N 0.14084 0.77161 0.13433 0.0
C291 C 0.17777 0.81599 0.14216 0.0
C292 C 0.18307 0.82225 0.18392 0.0
C293 C 0.14018 0.76543 0.24374 0.0
H294 H 0.12658 0.7264 0.24753 0.0
H295 H 0.11411 0.77485 0.25693 0.0
H296 H 0.17444 0.78577 0.26064 0.0
O297 O 0.07622 0.63694 0.14064 0.0
O298 O 0.11941 0.67578 0.08687 0.0
H299 H 0.23049 0.83953 0.09507 0.0
H300 H 0.23102 0.88787 0.12353 0.0
C301 C 0.20762 0.8518 0.11029 0.0
H302 H 0.18389 0.85437 0.08712 0.0
H303 H 0.20831 0.75091 0.04997 0.0
O304 O 1.0415 0.66639 0.22102 0.0
C305 C 0.10001 0.63839 0.10915 0.0
Co306 Co 0.40212 0.04618 0.33163 0.0
Co307 Co 0.40108 0.09844 0.25305 0.0
C308 C 0.32903 0.9966 0.26222 0.0
O309 O 0.34686 0.99643 0.29708 0.0
O310 O 0.34567 0.03457 0.24044 0.0
C311 C 0.35997 1.00138 0.40829 0.0
O312 O 0.31866 0.97788 0.38931 0.0
C313 C 0.39033 0.14999 0.18242 0.0
C314 C 0.44559 0.22357 0.19912 0.0
C315 C 0.40901 0.19844 0.17145 0.0
N316 N 0.4129 0.14822 0.21617 0.0
N317 N 0.44651 0.19218 0.22544 0.0
C318 C 0.35566 0.10555 0.15997 0.0
H319 H 0.3641 0.07639 0.16583 0.0
H320 H 0.31871 0.09295 0.1713 0.0
H321 H 0.35717 0.11211 0.12679 0.0
C322 C 0.40015 0.13172 0.36819 0.0
N323 N 0.40035 0.10473 0.33661 0.0
N324 N 0.39072 0.12074 0.30327 0.0
C325 C 0.37994 0.15532 0.31293 0.0
C326 C 0.38618 0.16382 0.35425 0.0
C327 C 0.41767 0.13131 0.41017 0.0
H328 H 0.43236 0.10668 0.41296 0.0
H329 H 0.38818 0.12197 0.43213 0.0
H330 H 0.44642 0.16815 0.41802 0.0
O331 O 0.46322 0.05674 0.30749 0.0
O332 O 0.46099 0.09309 0.25076 0.0
H333 H 0.39213 0.21432 0.27469 0.0
H334 H 0.33472 0.18532 0.29901 0.0
C335 C 0.36195 0.17882 0.28392 0.0
H336 H 0.34573 0.15605 0.25678 0.0
H337 H 0.46918 0.20081 0.25054 0.0
O338 O 0.39847 1.02452 0.38798 0.0
C339 C 0.48119 0.07596 0.27336 0.0
Co340 Co 0.38476 0.38336 0.5036 0.0
Co341 Co 0.3279 0.38202 0.42746 0.0
C342 C 0.36021 0.31033 0.43533 0.0
O343 O 0.37794 0.32715 0.47033 0.0
O344 O 0.33916 0.32786 0.41411 0.0
C345 C 0.3935 0.34419 0.57989 0.0
O346 O 0.37708 0.30268 0.56146 0.0
C347 C 0.26676 0.36965 0.3558 0.0
C348 C 0.2418 0.42014 0.3729 0.0
C349 C 0.23531 0.38613 0.34394 0.0
N350 N 0.28746 0.39089 0.39099 0.0
N351 N 0.27317 0.42175 0.40052 0.0
C352 C 0.28196 0.33918 0.33267 0.0
H353 H 0.31982 0.35015 0.33999 0.0
H354 H 0.25952 0.30107 0.34202 0.0
H355 H 0.27878 0.34248 0.29943 0.0
C356 C 0.29943 0.38264 0.54358 0.0
N357 N 0.32467 0.38167 0.51091 0.0
N358 N 0.29735 0.37136 0.47866 0.0
C359 C 0.25283 0.36125 0.49018 0.0
C360 C 0.25286 0.3687 0.53155 0.0
C361 C 0.31996 0.40237 0.58443 0.0
H362 H 0.35931 0.41744 0.58524 0.0
H363 H 0.30191 0.37398 0.6077 0.0
H364 H 0.31187 0.43132 0.59222 0.0
O365 O 0.43343 0.44293 0.47658 0.0
O366 O 0.39048 0.44412 0.42444 0.0
H367 H 0.20303 0.37231 0.45496 0.0
H368 H 0.1776 0.31493 0.47919 0.0
C369 C 0.20993 0.34262 0.46296 0.0
H370 H 0.21544 0.32672 0.43502 0.0
H371 H 0.28436 0.44342 0.42633 0.0
O372 O 0.40608 0.38204 0.55916 0.0
C373 C 0.42963 0.46295 0.44444 0.0
Co374 Co 1.02334 0.36604 0.67307 0.0
Co375 Co 0.98077 0.3187 0.59014 0.0
C376 C 0.08175 0.34774 0.60968 0.0
O377 O 0.07823 0.36352 0.64445 0.0
O378 O 0.04637 0.32855 0.58526 0.0
C379 C 0.06491 0.37148 0.75275 0.0
O380 O 0.09539 0.36108 0.73517 0.0
C381 C 0.94828 0.25898 0.51677 0.0
C382 C 0.88322 0.26367 0.50251 0.0
C383 C 0.91097 0.24433 0.4894 0.0
N384 N 0.94295 0.28622 0.54491 0.0
N385 N 0.90406 0.28886 0.53625 0.0
C386 C 0.98812 0.24747 0.51636 0.0
H387 H 0.99398 0.23807 0.54751 0.0
H388 H 0.98014 0.21748 0.49522 0.0
H389 H 1.02175 0.27981 0.50653 0.0
C390 C 0.93561 0.27672 0.70216 0.0
N391 N 0.96492 0.30547 0.67239 0.0
N392 N 0.94959 0.28342 0.63747 0.0
C393 C 0.91176 0.23907 0.64412 0.0
C394 C 0.90176 0.23326 0.68549 0.0
C395 C 0.93778 0.29078 0.74566 0.0
H396 H 0.95027 0.32969 0.74827 0.0
H397 H 0.96285 0.28233 0.76184 0.0
H398 H 0.90202 0.27004 0.76034 0.0
O399 O 1.01481 0.41783 0.64736 0.0
O400 O 0.98479 0.38278 0.58816 0.0
H401 H 0.86337 0.21315 0.59393 0.0
H402 H 0.86299 0.16632 0.62477 0.0
C403 C 0.88616 0.20262 0.61164 0.0
H404 H 0.91268 0.20158 0.59067 0.0
H405 H 0.8918 0.30795 0.55347 0.0
O406 O 1.03722 0.38022 0.73127 0.0
C407 C 0.99896 0.41844 0.61199 0.0
C408 C 0.19573 0.41067 0.28938 0.0
C409 C 0.20589 0.37581 0.30605 0.0
C410 C 0.18732 0.33405 0.24106 0.0
C411 C 0.1898 0.37527 0.22261 0.0
N412 N 0.19135 0.45127 0.22893 0.0
N413 N 0.17935 0.29159 0.30432 0.0
C414 C 0.19214 0.41303 0.2467 0.0
C415 C 0.19192 0.33326 0.28388 0.0
N416 N 0.18404 0.43747 0.31413 0.0
N417 N 0.18275 0.29686 0.21768 0.0
H418 H 0.17856 0.29034 0.33604 0.0
H419 H 0.165 0.25817 0.29035 0.0
H420 H 0.17838 0.29598 0.18622 0.0
H421 H 0.18607 0.26833 0.2292 0.0
H422 H 0.17344 0.46141 0.30341 0.0
H423 H 0.17645 0.4296 0.34486 0.0
H424 H 0.19958 0.48267 0.24455 0.0
H425 H 0.18483 0.45278 0.19808 0.0
C426 C 0.83509 0.14803 0.41682 0.0
C427 C 0.855 0.17264 0.37984 0.0
C428 C 0.92318 0.23681 0.41557 0.0
C429 C 0.90069 0.21474 0.45271 0.0
N430 N 0.84591 0.14363 0.48948 0.0
N431 N 0.92391 0.23009 0.3421 0.0
C432 C 0.86033 0.16799 0.45347 0.0
C433 C 0.90144 0.21348 0.37865 0.0
N434 N 0.79077 0.10774 0.41711 0.0
N435 N 0.96317 0.28136 0.41567 0.0
H436 H 0.90822 0.21302 0.31479 0.0
H437 H 0.95931 0.25765 0.33909 0.0
H438 H 0.98062 0.29869 0.44234 0.0
H439 H 0.97801 0.30195 0.38961 0.0
H440 H 0.77178 0.09133 0.44351 0.0
H441 H 0.77188 0.09166 0.39059 0.0
H442 H 0.81879 0.10795 0.49198 0.0
H443 H 0.86443 0.15813 0.51655 0.0
C444 C 0.7067 0.81392 0.5804 0.0
C445 C 0.70518 0.83821 0.54485 0.0
C446 C 0.7076 0.90303 0.58513 0.0
C447 C 0.70553 0.87698 0.62069 0.0
N448 N 0.71948 0.81785 0.6533 0.0
N449 N 0.72053 0.91164 0.51221 0.0
C450 C 0.71107 0.83596 0.61858 0.0
C451 C 0.71162 0.88508 0.54694 0.0
N452 N 0.70034 0.76855 0.57792 0.0
N453 N 0.7021 0.94261 0.58761 0.0
H454 H 0.72362 0.89874 0.48392 0.0
H455 H 0.72939 0.94761 0.51194 0.0
H456 H 0.69946 0.9571 0.61513 0.0
H457 H 0.69753 0.9596 0.56238 0.0
H458 H 0.69533 0.74688 0.60315 0.0
H459 H 0.69743 0.75135 0.55039 0.0
H460 H 0.72768 0.7902 0.65355 0.0
H461 H 0.72283 0.83388 0.68159 0.0
C462 C 0.92621 0.70337 0.74902 0.0
C463 C 0.90269 0.69916 0.71162 0.0
C464 C 0.83641 0.70122 0.74599 0.0
C465 C 0.85665 0.69854 0.78345 0.0
N466 N 0.92596 0.71312 0.82226 0.0
N467 N 0.84565 0.71025 0.67262 0.0
C468 C 0.90377 0.70562 0.78542 0.0
C469 C 0.86132 0.70413 0.70956 0.0
N470 N 0.96808 0.70188 0.74964 0.0
N471 N 0.79216 0.69772 0.74541 0.0
H472 H 0.86404 0.71255 0.64579 0.0
H473 H 0.81731 0.717 0.66875 0.0
H474 H 0.77414 0.69727 0.77194 0.0
H475 H 0.77276 0.69408 0.71904 0.0
H476 H 0.98456 0.6994 0.77605 0.0
H477 H 0.98591 0.70194 0.72311 0.0
H478 H 0.9615 0.72146 0.82598 0.0
H479 H 0.90956 0.71491 0.84907 0.0
C480 C 0.25587 0.90665 0.90873 0.0
C481 C 0.23199 0.88137 0.87308 0.0
C482 C 0.16807 0.81787 0.91319 0.0
C483 C 0.19402 0.84113 0.94877 0.0
N484 N 0.25197 0.91358 0.9819 0.0
N485 N 0.15921 0.82341 0.84041 0.0
C486 C 0.23423 0.88791 0.94693 0.0
C487 C 0.18561 0.84062 0.87512 0.0
N488 N 0.30057 0.94624 0.90623 0.0
N489 N 0.12904 0.77276 0.91548 0.0
H490 H 0.17189 0.84002 0.81225 0.0
H491 H 0.12354 0.79597 0.84008 0.0
H492 H 0.11484 0.75516 0.94295 0.0
H493 H 0.11216 0.75171 0.89016 0.0
H494 H 0.32217 0.96271 0.93139 0.0
H495 H 0.31726 0.96138 0.87867 0.0
H496 H 0.279 0.94943 0.98246 0.0
H497 H 0.2362 0.90008 0.01018 0.0
C498 C 0.35472 0.20099 0.07131 0.0
C499 C 0.39628 0.23905 0.05301 0.0
C500 C 0.43319 0.26519 0.11968 0.0
C501 C 0.39803 0.22014 0.13549 0.0
N502 N 0.31315 0.16632 0.13473 0.0
N503 N 0.47301 0.31181 0.05982 0.0
C504 C 0.35466 0.19413 0.11387 0.0
C505 C 0.43478 0.27286 0.07726 0.0
N506 N 0.31658 0.17029 0.04796 0.0
N507 N 0.46118 0.30207 0.14525 0.0
H508 H 0.47386 0.32105 0.02931 0.0
H509 H 0.50481 0.33378 0.07531 0.0
H510 H 0.45417 0.30041 0.17629 0.0
H511 H 0.48545 0.33668 0.13534 0.0
H512 H 0.28764 0.13889 0.05931 0.0
H513 H 0.3152 0.17495 0.01671 0.0
H514 H 0.27936 0.14922 0.12121 0.0
H515 H 0.31276 0.16513 0.16646 0.0
C516 C 0.11108 0.54608 0.04328 0.0
C517 C 0.1064 0.51118 0.07237 0.0
C518 C 0.10809 0.56518 0.12614 0.0
C519 C 0.10319 0.59502 0.09669 0.0
N520 N 0.08593 0.60338 0.02624 0.0
N521 N 0.08818 0.48392 0.14244 0.0
C522 C 0.10083 0.58269 0.0549 0.0
C523 C 0.10166 0.51966 0.11419 0.0
N524 N 0.12648 0.54536 0.00475 0.0
N525 N 0.12036 0.5805 0.16525 0.0
H526 H 0.07892 0.44876 0.13526 0.0
H527 H 0.08043 0.48788 0.17247 0.0
H528 H 0.12859 0.61473 0.1748 0.0
H529 H 0.12811 0.56135 0.18675 0.0
H530 H 0.1337 0.57244 0.98361 0.0
H531 H 0.13787 0.52143 0.9957 0.0
H532 H 0.08036 0.59234 0.996 0.0
H533 H 0.0729 0.62651 0.03332 0.0
C534 C 0.52205 0.03048 0.2497 0.0
C535 C 0.52459 0.07521 0.25805 0.0
C536 C 0.60779 0.11784 0.2328 0.0
C537 C 0.6067 0.07323 0.22829 0.0
N538 N 0.56492 0.98714 0.23715 0.0
N539 N 0.57125 0.16152 0.26227 0.0
C540 C 0.5643 0.02952 0.23778 0.0
C541 C 0.5678 0.11897 0.25067 0.0
N542 N 0.47883 0.98886 0.25176 0.0
N543 N 0.64666 0.15904 0.21894 0.0
H544 H 0.54285 0.16373 0.27553 0.0
H545 H 0.60323 0.19421 0.26189 0.0
H546 H 0.67634 0.15943 0.20553 0.0
H547 H 0.64784 0.19207 0.21739 0.0
H548 H 0.47343 0.95593 0.24124 0.0
H549 H 0.44717 0.9877 0.26097 0.0
H550 H 0.53733 0.95502 0.24881 0.0
H551 H 0.59455 0.98454 0.22764 0.0
C552 C 0.52147 0.56073 0.37357 0.0
C553 C 0.55703 0.59148 0.40172 0.0
C554 C 0.5037 0.54333 0.45732 0.0
C555 C 0.47231 0.50809 0.42931 0.0
N556 N 0.46064 0.47887 0.35995 0.0
N557 N 0.58633 0.60135 0.47103 0.0
C558 C 0.48364 0.51547 0.3871 0.0
C559 C 0.54946 0.57988 0.44385 0.0
N560 N 0.5225 0.57495 0.33427 0.0
N561 N 0.48966 0.54315 0.49652 0.0
H562 H 0.62177 0.62462 0.46245 0.0
H563 H 0.58272 0.5909 0.50144 0.0
H564 H 0.45519 0.51929 0.50705 0.0
H565 H 0.51033 0.57057 0.51692 0.0
H566 H 0.49491 0.55505 0.31376 0.0
H567 H 0.54754 0.60897 0.32359 0.0
H568 H 0.47089 0.48204 0.32953 0.0
H569 H 0.43583 0.44383 0.36844 0.0
C570 C 0.95572 0.50061 0.56748 0.0
C571 C 0.99968 0.54457 0.56405 0.0
C572 C 1.04347 0.50523 0.59017 0.0
C573 C 0.99911 0.46237 0.5969 0.0
N574 N 0.91257 0.42064 0.5971 0.0
N575 N 0.08463 0.59112 0.57755 0.0
C576 C 0.95507 0.46038 0.5868 0.0
C577 C 1.0434 0.5475 0.57675 0.0
N578 N 0.91478 0.49709 0.55134 0.0
N579 N 0.08579 0.50513 0.59513 0.0
H580 H 0.08625 0.62274 0.56741 0.0
H581 H 0.11635 0.59669 0.59108 0.0
H582 H 0.0876 0.47528 0.60546 0.0
H583 H 0.11896 0.53335 0.58598 0.0
H584 H 0.88251 0.46489 0.54895 0.0
H585 H 0.91407 0.52589 0.53712 0.0
H586 H 0.87929 0.41872 0.59454 0.0
H587 H 0.91073 0.39072 0.6115 0.0
C588 C 0.5205 1.02381 0.73883 0.0
C589 C 0.47849 0.97964 0.72973 0.0
C590 C 0.51668 0.93518 0.75698 0.0
C591 C 0.55986 0.97928 0.7631 0.0
N592 N 0.60566 0.0653 0.75383 0.0
N593 N 0.4383 0.89334 0.72471 0.0
C594 C 0.5625 1.02355 0.75247 0.0
C595 C 0.47702 0.93528 0.7374 0.0
N596 N 0.51975 0.06605 0.73602 0.0
N597 N 0.51313 0.89335 0.77109 0.0
H598 H 0.4088 0.89216 0.71017 0.0
H599 H 0.43699 0.86023 0.72545 0.0
H600 H 0.5414 0.89204 0.78562 0.0
H601 H 0.48121 0.86062 0.77151 0.0
H602 H 0.54702 0.09861 0.74713 0.0
H603 H 0.49018 0.06816 0.72549 0.0
H604 H 0.61117 0.09767 0.74159 0.0
H605 H 0.63718 0.06706 0.7643 0.0
C606 C 0.52255 0.4977 0.91925 0.0
C607 C 0.5269 0.45801 0.90563 0.0
C608 C 0.61188 0.4999 0.92593 0.0
C609 C 0.60877 0.54159 0.93525 0.0
N610 N 0.56268 0.58262 0.9351 0.0
N611 N 0.57628 0.42237 0.8922 0.0
C612 C 0.56443 0.54109 0.93061 0.0
C613 C 0.57173 0.4593 0.90809 0.0
N614 N 0.47807 0.49342 0.92255 0.0
N615 N 0.65279 0.49864 0.93536 0.0
H616 H 0.54751 0.39189 0.87949 0.0
H617 H 0.60906 0.42339 0.88885 0.0
H618 H 0.68257 0.52743 0.94886 0.0
H619 H 0.65582 0.46784 0.9332 0.0
H620 H 0.47194 0.51905 0.93646 0.0
H621 H 0.44658 0.46217 0.91477 0.0
H622 H 0.5329 0.5858 0.92725 0.0
H623 H 0.59228 0.6152 0.94349 0.0
C624 C 0.05507 0.40259 0.8194 0.0
C625 C 0.05538 0.36491 0.79708 0.0
C626 C 1.01698 0.3099 0.85452 0.0
C627 C 1.02239 0.349 0.87832 0.0
N628 N 1.0226 0.42422 0.87683 0.0
N629 N 1.03922 0.28251 0.79438 0.0
C630 C 1.03456 0.39317 0.85891 0.0
C631 C 1.03747 0.3186 0.81501 0.0
N632 N 0.07633 0.44799 0.80345 0.0
N633 N 0.98768 0.26401 0.86796 0.0
H634 H 0.04936 0.28493 0.76408 0.0
H635 H 1.0328 0.25055 0.80815 0.0
H636 H 0.96657 0.25665 0.89398 0.0
H637 H 0.97857 0.23355 0.85061 0.0
H638 H 0.08183 0.47799 0.81994 0.0
H639 H 0.09284 0.45648 0.77497 0.0
H640 H 1.02701 0.45535 0.86286 0.0
H641 H 1.00175 0.41517 0.90316 0.0
C642 C 0.75607 0.04235 0.98096 0.0
C643 C 0.72172 0.04732 0.95757 0.0
C644 C 0.66576 1.01804 0.01521 0.0
C645 C 0.69758 1.00679 0.03629 0.0
N646 N 0.77085 1.00231 0.03664 0.0
N647 N 0.6546 0.06117 0.95937 0.0
C648 C 0.74194 1.01687 0.0183 0.0
C649 C 0.6794 0.04122 0.9767 0.0
N650 N 0.80324 0.06604 0.96954 0.0
N651 N 0.62164 1.00471 0.03149 0.0
H652 H 0.66726 0.08299 0.93358 0.0
H653 H 0.62547 0.0615 0.97297 0.0
H654 H 0.6103 0.9867 0.05925 0.0
H655 H 0.59472 1.0074 0.01607 0.0
H656 H 0.8307 0.06707 0.98722 0.0
H657 H 0.81576 0.09097 0.94582 0.0
H658 H 0.80073 1.00414 0.02238 0.0
H659 H 0.76307 0.98471 0.06455 0.0
C660 C 0.74791 0.73195 0.14677 0.0
C661 C 0.70293 0.69984 0.12868 0.0
C662 C 0.68043 0.64845 0.18936 0.0
C663 C 0.72311 0.68308 0.2088 0.0
N664 N 0.80622 0.74144 0.19783 0.0
N665 N 0.62399 0.63042 0.13415 0.0
C666 C 0.75953 0.72045 0.1853 0.0
C667 C 0.66864 0.65866 0.15032 0.0
N668 N 0.77994 0.77333 0.12731 0.0
N669 N 0.65342 0.60425 0.20682 0.0
H670 H 0.61383 0.63761 0.10602 0.0
H671 H 0.59567 0.60281 0.1501 0.0
H672 H 0.66465 0.59399 0.23288 0.0
H673 H 0.6239 0.57583 0.19286 0.0
H674 H 0.81021 0.8006 0.14152 0.0
H675 H 0.77505 0.78226 0.09798 0.0
H676 H 0.83512 0.76617 0.18042 0.0
H677 H 0.81669 0.7284 0.22259 0.0
C678 C 0.04794 0.73328 0.3495 0.0
C679 C 0.06053 0.70057 0.36746 0.0
C680 C 1.03292 0.65052 0.30624 0.0
C681 C 1.02504 0.68571 0.28701 0.0
N682 N 0.99982 0.74404 0.29845 0.0
N683 N 0.07008 0.63084 0.36166 0.0
C684 C 1.02547 0.72268 0.31081 0.0
C685 C 0.05406 0.65972 0.34552 0.0
N686 N 0.0569 0.77437 0.36926 0.0
N687 N 1.01632 0.60671 0.28829 0.0
H688 H 0.08673 0.63725 0.38999 0.0
H689 H 0.07112 0.60345 0.34556 0.0
H690 H 0.99546 0.59714 0.26199 0.0
H691 H 1.01732 0.57789 0.302 0.0
H692 H 0.05414 0.80207 0.35518 0.0
H693 H 0.07015 0.78261 0.39873 0.0
H694 H 0.99537 0.76852 0.31607 0.0
H695 H 0.97653 0.73146 0.27369 0.0
C696 C 0.41277 1.02837 0.51361 0.0
C697 C 0.38556 0.0466 0.53287 0.0
C698 C 0.33968 0.03455 0.47007 0.0
C699 C 0.36289 1.01064 0.45267 0.0
N700 N 0.41585 0.97795 0.46054 0.0
N701 N 0.34215 0.08891 0.52235 0.0
C702 C 0.39789 1.00573 0.47526 0.0
C703 C 0.35394 0.05562 0.50923 0.0
N704 N 0.4553 0.03669 0.53013 0.0
N705 N 0.30466 0.03815 0.44925 0.0
H706 H 0.35779 0.10984 0.54808 0.0
H707 H 0.32293 0.10094 0.50511 0.0
H708 H 0.29593 1.02829 0.41908 0.0
H709 H 0.28216 0.04892 0.46274 0.0
H710 H 0.47856 1.02744 0.51582 0.0
H711 H 0.47082 0.0595 0.55487 0.0
H712 H 0.43776 0.96901 0.47752 0.0
H713 H 0.40469 0.95963 0.43299 0.0
C714 C 0.42711 0.38331 0.64633 0.0
C715 C 0.38763 0.34748 0.62427 0.0
C716 C 0.33395 0.33815 0.6811 0.0
C717 C 0.37424 0.37035 0.70439 0.0
N718 N 0.45277 0.44075 0.70117 0.0
N719 N 0.30282 0.28788 0.62179 0.0
C720 C 0.41923 0.39802 0.68482 0.0
C721 C 0.34093 0.32368 0.64208 0.0
N722 N 0.47255 0.40221 0.63096 0.0
N723 N 0.2889 0.32586 0.69443 0.0
H724 H 0.30395 0.27879 0.59171 0.0
H725 H 0.27007 0.26504 0.63572 0.0
H726 H 0.28334 0.34141 0.72018 0.0
H727 H 0.25783 0.30625 0.67736 0.0
H728 H 0.50328 0.42477 0.6475 0.0
H729 H 0.47975 0.39133 0.60324 0.0
H730 H 0.48489 0.46433 0.68672 0.0
H731 H 0.4452 0.45607 0.72599 0.0
C732 C 0.29799 0.39883 0.91748 0.0
C733 C 0.28996 0.35264 0.906 0.0
C734 C 0.20723 0.316 0.93234 0.0
C735 C 0.21727 0.3613 0.94787 0.0
N736 N 0.27255 0.44548 0.95812 0.0
N737 N 0.23781 0.2668 0.9032 0.0
C738 C 0.26264 0.4027 0.94093 0.0
C739 C 0.24469 0.31109 0.91353 0.0
N740 N 0.33945 0.43907 0.90603 0.0
N741 N 0.16155 0.27786 0.93502 0.0
H742 H 0.26294 0.26207 0.88669 0.0
H743 H 0.20826 0.2346 0.91237 0.0
H744 H 0.13361 0.28008 0.9492 0.0
H745 H 0.15027 0.24505 0.92075 0.0
H746 H 0.34533 0.47386 0.90944 0.0
H747 H 0.36694 0.43791 0.89016 0.0
H748 H 0.30663 0.47569 0.95874 0.0
H749 H 0.24715 0.45013 0.97426 0.0
C750 C 0.95099 0.29043 0.124 0.0
C751 C 0.96437 0.27967 0.08571 0.0
C752 C 0.88303 0.21109 0.0802 0.0
C753 C 0.8759 0.21273 0.12249 0.0
N754 N 0.88462 0.27421 0.16875 0.0
N755 N 0.94077 0.22706 0.02721 0.0
C756 C 0.90479 0.25828 0.14069 0.0
C757 C 0.92971 0.23925 0.06369 0.0
N758 N 0.98135 0.33186 0.14395 0.0
N759 N 0.84454 0.19181 0.05477 0.0
H760 H 0.97496 0.24554 0.01432 0.0
H761 H 0.91662 0.1958 0.01192 0.0
H762 H 0.81013 0.18157 0.06551 0.0
H763 H 0.84804 0.19329 0.02321 0.0
H764 H 0.97629 0.33792 0.17417 0.0
H765 H 1.01222 0.35967 0.13079 0.0
H766 H 0.90188 0.30883 0.18068 0.0
H767 H 0.84806 0.25469 0.17566 0.0
C768 C 0.74481 0.88835 0.26163 0.0
C769 C 0.70295 0.85993 0.28533 0.0
C770 C 0.6746 0.91711 0.27124 0.0
C771 C 0.71511 0.94411 0.24579 0.0
N772 N 0.78475 0.95174 0.21128 0.0
N773 N 0.62337 0.84149 0.30559 0.0
C774 C 0.74888 0.92841 0.23915 0.0
C775 C 0.66649 0.87269 0.28807 0.0
N776 N 0.78171 0.87848 0.26216 0.0
N777 N 0.64426 0.9344 0.28 0.0
H778 H 0.61588 0.80837 0.31773 0.0
H779 H 0.59352 0.84625 0.3048 0.0
H780 H 0.64789 0.96585 0.26721 0.0
H781 H 0.61753 0.9195 0.30209 0.0
H782 H 0.8152 0.90076 0.24919 0.0
H783 H 0.7803 0.84981 0.27839 0.0
H784 H 0.80746 0.93914 0.20173 0.0
H785 H 0.78953 0.98197 0.19529 0.0
C786 C 0.83891 0.73618 0.4243 0.0
C787 C 0.79282 0.69569 0.41767 0.0
C788 C 0.81868 0.64352 0.45116 0.0
C789 C 0.86347 0.68452 0.46049 0.0
N790 N 0.91505 0.77046 0.46023 0.0
N791 N 0.73604 0.61196 0.42949 0.0
C792 C 0.87328 0.73106 0.44819 0.0
C793 C 0.782 0.64958 0.43222 0.0
N794 N 0.85016 0.77925 0.40674 0.0
N795 N 0.81159 0.59866 0.45967 0.0
H796 H 0.70836 0.61471 0.41536 0.0
H797 H 0.72435 0.57895 0.44374 0.0
H798 H 0.837 0.59288 0.47461 0.0
H799 H 0.78205 0.56711 0.44949 0.0
H800 H 0.88451 0.80907 0.40669 0.0
H801 H 0.82577 0.78417 0.38924 0.0
H802 H 0.92235 0.80567 0.45617 0.0
H803 H 0.94134 0.768 0.47705 0.0
C804 C 0.20709 0.80887 0.60377 0.0
C805 C 0.21018 0.85332 0.61392 0.0
C806 C 0.13064 0.82631 0.58373 0.0
C807 C 0.12798 0.78221 0.5726 0.0
N808 N 0.1664 0.73403 0.56621 0.0
N809 N 0.17938 0.90806 0.60834 0.0
C810 C 0.16722 0.77441 0.58065 0.0
C811 C 0.17322 0.86312 0.60232 0.0
N812 N 0.24155 0.79897 0.61751 0.0
N813 N 0.09205 0.83268 0.57699 0.0
H814 H 0.20952 0.93547 0.62267 0.0
H815 H 0.15647 0.91946 0.59677 0.0
H816 H 0.06189 0.80829 0.56063 0.0
H817 H 0.08878 0.86093 0.58901 0.0
H818 H 0.23887 0.76531 0.61556 0.0
H819 H 0.27183 0.82375 0.63351 0.0
H820 H 0.19579 0.72855 0.56704 0.0
H821 H 0.13732 0.70712 0.55054 0.0
C822 C 0.42112 0.17797 0.78658 0.0
C823 C 0.38762 0.19409 0.78022 0.0
C824 C 0.34561 0.1303 0.72954 0.0
C825 C 0.37556 0.11087 0.73968 0.0
N826 N 0.43908 0.11311 0.78069 0.0
N827 N 0.31471 0.18296 0.74902 0.0
C828 C 0.41259 0.1339 0.76899 0.0
C829 C 0.34917 0.16982 0.75229 0.0
N830 N 0.46204 0.2057 0.80833 0.0
N831 N 0.31375 0.11091 0.69819 0.0
H832 H 0.31581 0.21132 0.76538 0.0
H833 H 0.2831 0.16361 0.73257 0.0
H834 H 0.3094 0.0812 0.68177 0.0
H835 H 0.29438 0.12636 0.6864 0.0
H836 H 0.49033 0.19858 0.81048 0.0
H837 H 0.46986 0.2385 0.82121 0.0
H838 H 0.4624 0.12485 0.80539 0.0
H839 H 0.43542 0.08195 0.76745 0.0
C840 C 0.74598 0.8278 0.92701 0.0
C841 C 0.71119 0.77873 0.92155 0.0
C842 C 0.66294 0.80246 0.8793 0.0
C843 C 0.70036 0.85106 0.88081 0.0
N844 N 0.77992 0.90994 0.90264 0.0
N845 N 0.63841 0.71838 0.8898 0.0
C846 C 0.74241 0.86382 0.90406 0.0
C847 C 0.67009 0.76582 0.89701 0.0
N848 N 0.78236 0.8399 0.95426 0.0
N849 N 0.61992 0.79151 0.86199 0.0
H850 H 0.64124 0.69051 0.90354 0.0
H851 H 0.61108 0.70654 0.86831 0.0
H852 H 0.61328 0.81738 0.84898 0.0
H853 H 0.58946 0.75764 0.86362 0.0
H854 H 0.80614 0.87509 0.96293 0.0
H855 H 0.78642 0.81431 0.97081 0.0
H856 H 0.8135 0.92056 0.91521 0.0
H857 H 0.77883 0.9372 0.88612 0.0
C858 C 0.89022 0.64538 0.04212 0.0
C859 C 0.88464 0.68605 0.03475 0.0
C860 C 0.96199 0.73814 0.06842 0.0
C861 C 0.96658 0.69717 0.07743 0.0
N862 N 0.93353 0.61123 0.07672 0.0
N863 N 0.91166 0.77015 0.04442 0.0
C864 C 0.93009 0.65058 0.06551 0.0
C865 C 0.91959 0.73217 0.04892 0.0
N866 N 0.85785 0.60195 0.02589 0.0
N867 N 0.99865 0.78291 0.07807 0.0
H868 H 0.8823 0.76775 0.02868 0.0
H869 H 0.93246 0.8034 0.05815 0.0
H870 H 1.02861 0.78851 0.09484 0.0
H871 H 1.00078 0.8147 0.06792 0.0
H872 H 0.86223 0.57188 0.02598 0.0
H873 H 0.82753 0.5965 0.00979 0.0
H874 H 0.906 0.57595 0.07319 0.0
H875 H 0.96313 0.61364 0.09201 0.0
C876 C 0.26932 0.87873 0.20306 0.0
C877 C 0.22009 0.86531 0.20648 0.0
C878 C 0.24202 0.93414 0.2519 0.0
C879 C 0.29133 0.95045 0.2445 0.0
N880 N 0.35233 0.94198 0.20865 0.0
N881 N 0.15954 0.88341 0.23002 0.0
C882 C 0.30508 0.92373 0.21885 0.0
C883 C 0.20634 0.89369 0.23005 0.0
N884 N 0.28187 0.84771 0.18586 0.0
N885 N 0.22933 0.95719 0.28 0.0
H886 H 0.13252 0.85454 0.21414 0.0
H887 H 0.14805 0.9056 0.24296 0.0
H888 H 0.25455 0.98752 0.29569 0.0
H889 H 0.19422 0.94418 0.29006 0.0
H890 H 0.31671 0.85316 0.18624 0.0
H891 H 0.2567 0.81415 0.17456 0.0
H892 H 0.36403 0.92697 0.1865 0.0
H893 H 0.37966 0.97444 0.21997 0.0
C894 C 0.32952 0.22374 0.41632 0.0
C895 C 0.36775 0.272 0.41723 0.0
C896 C 0.41848 0.24921 0.37758 0.0
C897 C 0.38078 0.20067 0.37781 0.0
N898 N 0.30322 0.13986 0.40197 0.0
N899 N 0.45057 0.33028 0.40371 0.0
C900 C 0.33714 0.18738 0.39867 0.0
C901 C 0.41289 0.28454 0.39943 0.0
N902 N 0.28558 0.21294 0.43152 0.0
N903 N 0.4592 0.26169 0.35554 0.0
H904 H 0.44741 0.35768 0.41784 0.0
H905 H 0.48577 0.34062 0.39565 0.0
H906 H 0.4656 0.23659 0.34086 0.0
H907 H 0.48562 0.297 0.34977 0.0
H908 H 0.25461 0.17984 0.42777 0.0
H909 H 0.27934 0.23821 0.4461 0.0
H910 H 0.27298 0.12701 0.42045 0.0
H911 H 0.30687 0.11252 0.38828 0.0
C912 C 0.1477 0.3266 0.60625 0.0
C913 C 0.12937 0.35708 0.59459 0.0
C914 C 0.1983 0.40143 0.54888 0.0
C915 C 0.21284 0.36686 0.55617 0.0
N916 N 0.20018 0.29447 0.58963 0.0
N917 N 0.13521 0.42209 0.55323 0.0
C918 C 0.18759 0.32917 0.5847 0.0
C919 C 0.15428 0.39426 0.56558 0.0
N920 N 0.1268 0.29512 0.63777 0.0
N921 N 0.22738 0.44187 0.52687 0.0
H922 H 0.10439 0.41972 0.56612 0.0
H923 H 0.14819 0.44555 0.52857 0.0
H924 H 0.26017 0.44858 0.51466 0.0
H925 H 0.22139 0.47083 0.52384 0.0
H926 H 0.14116 0.27525 0.65057 0.0
H927 H 0.0969 0.29166 0.65335 0.0
H928 H 0.1803 0.2633 0.60664 0.0
H929 H 0.22901 0.29515 0.57437 0.0
C930 C 0.8779 0.16491 0.73543 0.0
C931 C 0.86415 0.18998 0.70758 0.0
C932 C 0.77922 0.13071 0.71928 0.0
C933 C 0.79288 0.10762 0.74915 0.0
N934 N 0.85442 0.10677 0.79046 0.0
N935 N 0.80186 0.20251 0.67922 0.0
C936 C 0.84203 0.12617 0.75884 0.0
C937 C 0.8148 0.17445 0.70122 0.0
N938 N 0.92503 0.17657 0.73806 0.0
N939 N 0.7322 0.11042 0.70766 0.0
H940 H 0.82681 0.23503 0.66594 0.0
H941 H 0.76668 0.19588 0.67713 0.0
H942 H 0.70473 0.07955 0.72121 0.0
H943 H 0.72082 0.1222 0.68272 0.0
H944 H 0.93681 0.15666 0.75463 0.0
H945 H 0.9522 0.20383 0.72081 0.0
H946 H 0.88914 0.1219 0.802 0.0
H947 H 0.82916 0.07752 0.80737 0.0
loop_
_geom_bond_atom_site_label_1
_geom_bond_atom_site_label_2
_geom_bond_distance
_geom_bond_site_symmetry_2
_ccdc_geom_bond_type
Co0 O3 1.955 1_456 S
Co0 N17 1.988 1_556 S
Co0 O25 1.956 1_556 S
Co0 O32 1.945 . S
Co1 O4 1.966 . S
Co1 N10 2.022 . S
Co1 N18 1.993 . S
Co1 O26 1.941 . S
C2 O3 1.258 . S
C2 O4 1.263 1_655 S
O3 Co0 1.955 1_654 S
O3 C2 1.258 . S
O4 Co1 1.966 . S
O4 C2 1.263 1_455 S
C5 O6 1.235 . S
C5 O32 1.289 . S
O6 C5 1.235 . S
C7 C9 1.400 . S
C7 N10 1.351 . S
C7 C12 1.501 . S
C8 C9 1.387 . S
C8 N11 1.341 . S
C9 C7 1.400 . S
C9 C8 1.387 . S
N10 Co1 2.022 . S
N10 C7 1.351 . S
N10 N11 1.365 . S
N11 C8 1.341 . S
N11 N10 1.365 . S
N11 H31 0.862 . S
C12 C7 1.501 . S
C12 H13 0.961 . S
C12 H14 0.961 . S
C12 H15 0.960 . S
H13 C12 0.961 . S
H14 C12 0.961 . S
H15 C12 0.960 . S
C16 N17 1.342 1_556 S
C16 C20 1.401 . S
C16 C21 1.499 . S
N17 Co0 1.988 1_554 S
N17 C16 1.342 1_554 S
N17 N18 1.388 . S
N18 Co1 1.993 . S
N18 N17 1.388 . S
N18 C19 1.346 . S
C19 N18 1.346 . S
C19 C20 1.396 1_554 S
C19 C29 1.510 . S
C20 C16 1.401 . S
C20 C19 1.396 1_556 S
C21 C16 1.499 . S
C21 H22 0.959 . S
C21 H23 0.960 . S
C21 H24 0.961 . S
H22 C21 0.959 . S
H23 C21 0.960 . S
H24 C21 0.961 . S
O25 Co0 1.956 1_554 S
O25 C33 1.258 . S
O26 Co1 1.941 . S
O26 C33 1.266 . S
H27 C29 0.959 . S
H28 C29 0.961 . S
C29 C19 1.510 . S
C29 H27 0.959 . S
C29 H28 0.961 . S
C29 H30 0.960 . S
H30 C29 0.960 . S
H31 N11 0.862 . S
O32 Co0 1.945 . S
O32 C5 1.289 . S
C33 O25 1.258 . S
C33 O26 1.266 . S
Co34 O37 1.970 1_545 S
Co34 N51 1.989 . S
Co34 O59 1.967 . S
Co34 O66 1.920 . S
Co35 O38 1.966 . S
Co35 N44 2.022 . S
Co35 N52 1.993 . S
Co35 O60 1.941 . S
C36 O37 1.258 . S
C36 O38 1.263 1_565 S
O37 Co34 1.970 1_565 S
O37 C36 1.258 . S
O38 Co35 1.966 . S
O38 C36 1.263 1_545 S
C39 O40 1.235 . S
C39 O66 1.289 . S
O40 C39 1.235 . S
C41 C43 1.400 . S
C41 N44 1.351 . S
C41 C46 1.501 . S
C42 C43 1.387 . S
C42 N45 1.341 . S
C43 C41 1.400 . S
C43 C42 1.387 . S
N44 Co35 2.022 . S
N44 C41 1.351 . S
N44 N45 1.365 . S
N45 C42 1.341 . S
N45 N44 1.365 . S
N45 H65 0.862 . S
C46 C41 1.501 . S
C46 H47 0.961 . S
C46 H48 0.961 . S
C46 H49 0.960 . S
H47 C46 0.961 . S
H48 C46 0.961 . S
H49 C46 0.960 . S
C50 N51 1.342 . S
C50 C54 1.401 . S
C50 C55 1.499 . S
N51 Co34 1.989 . S
N51 C50 1.342 . S
N51 N52 1.388 . S
N52 Co35 1.993 . S
N52 N51 1.388 . S
N52 C53 1.346 . S
C53 N52 1.346 . S
C53 C54 1.396 . S
C53 C63 1.510 . S
C54 C50 1.401 . S
C54 C53 1.396 . S
C55 C50 1.499 . S
C55 H56 0.959 . S
C55 H57 0.960 . S
C55 H58 0.961 . S
H56 C55 0.959 . S
H57 C55 0.960 . S
H58 C55 0.961 . S
O59 Co34 1.967 . S
O59 C67 1.258 . S
O60 Co35 1.941 . S
O60 C67 1.266 . S
H61 C63 0.959 . S
H62 C63 0.961 . S
C63 C53 1.510 . S
C63 H61 0.959 . S
C63 H62 0.961 . S
C63 H64 0.960 . S
H64 C63 0.960 . S
H65 N45 0.862 . S
O66 Co34 1.920 . S
O66 C39 1.289 . S
C67 O59 1.258 . S
C67 O60 1.266 . S
Co68 O71 1.970 . S
Co68 N85 1.989 . S
Co68 O93 1.967 . S
Co68 O100 1.920 . S
Co69 O72 1.966 . S
Co69 N78 2.022 . S
Co69 N86 1.993 . S
Co69 O94 1.941 . S
C70 O71 1.258 . S
C70 O72 1.263 . S
O71 Co68 1.970 . S
O71 C70 1.258 . S
O72 Co69 1.966 . S
O72 C70 1.263 . S
C73 O74 1.235 . S
C73 O100 1.289 . S
O74 C73 1.235 . S
C75 C77 1.400 . S
C75 N78 1.351 . S
C75 C80 1.501 . S
C76 C77 1.387 . S
C76 N79 1.341 . S
C77 C75 1.400 . S
C77 C76 1.387 . S
N78 Co69 2.022 . S
N78 C75 1.351 . S
N78 N79 1.365 . S
N79 C76 1.341 . S
N79 N78 1.365 . S
N79 H99 0.862 . S
C80 C75 1.501 . S
C80 H81 0.961 . S
C80 H82 0.961 . S
C80 H83 0.960 . S
H81 C80 0.961 . S
H82 C80 0.961 . S
H83 C80 0.960 . S
C84 N85 1.342 . S
C84 C88 1.401 . S
C84 C89 1.499 . S
N85 Co68 1.989 . S
N85 C84 1.342 . S
N85 N86 1.388 . S
N86 Co69 1.993 . S
N86 N85 1.388 . S
N86 C87 1.346 . S
C87 N86 1.346 . S
C87 C88 1.396 . S
C87 C97 1.510 . S
C88 C84 1.401 . S
C88 C87 1.396 . S
C89 C84 1.499 . S
C89 H90 0.959 . S
C89 H91 0.960 . S
C89 H92 0.961 . S
H90 C89 0.959 . S
H91 C89 0.960 . S
H92 C89 0.961 . S
O93 Co68 1.967 . S
O93 C101 1.258 . S
O94 Co69 1.941 . S
O94 C101 1.266 . S
H95 C97 0.959 . S
H96 C97 0.961 . S
C97 C87 1.510 . S
C97 H95 0.959 . S
C97 H96 0.961 . S
C97 H98 0.960 . S
H98 C97 0.960 . S
H99 N79 0.862 . S
O100 Co68 1.920 . S
O100 C73 1.289 . S
C101 O93 1.258 . S
C101 O94 1.266 . S
Co102 O105 1.970 1_655 S
Co102 N119 1.989 . S
Co102 O127 1.967 . S
Co102 O134 1.920 . S
Co103 O106 1.966 . S
Co103 N112 2.022 . S
Co103 N120 1.993 . S
Co103 O128 1.941 . S
C104 O105 1.258 . S
C104 O106 1.263 1_455 S
O105 Co102 1.970 1_455 S
O105 C104 1.258 . S
O106 Co103 1.966 . S
O106 C104 1.263 1_655 S
C107 O108 1.235 . S
C107 O134 1.289 . S
O108 C107 1.235 . S
C109 C111 1.400 . S
C109 N112 1.351 . S
C109 C114 1.501 . S
C110 C111 1.387 . S
C110 N113 1.341 . S
C111 C109 1.400 . S
C111 C110 1.387 . S
N112 Co103 2.022 . S
N112 C109 1.351 . S
N112 N113 1.365 . S
N113 C110 1.341 . S
N113 N112 1.365 . S
N113 H133 0.862 . S
C114 C109 1.501 . S
C114 H115 0.961 . S
C114 H116 0.961 . S
C114 H117 0.960 . S
H115 C114 0.961 . S
H116 C114 0.961 . S
H117 C114 0.960 . S
C118 N119 1.342 . S
C118 C122 1.401 . S
C118 C123 1.499 . S
N119 Co102 1.989 . S
N119 C118 1.342 . S
N119 N120 1.388 . S
N120 Co103 1.993 . S
N120 N119 1.388 . S
N120 C121 1.346 . S
C121 N120 1.346 . S
C121 C122 1.396 . S
C121 C131 1.510 . S
C122 C118 1.401 . S
C122 C121 1.396 . S
C123 C118 1.499 . S
C123 H124 0.959 . S
C123 H125 0.960 . S
C123 H126 0.961 . S
H124 C123 0.959 . S
H125 C123 0.960 . S
H126 C123 0.961 . S
O127 Co102 1.967 . S
O127 C135 1.258 . S
O128 Co103 1.941 . S
O128 C135 1.266 . S
H129 C131 0.959 . S
H130 C131 0.961 . S
C131 C121 1.510 . S
C131 H129 0.959 . S
C131 H130 0.961 . S
C131 H132 0.960 . S
H132 C131 0.960 . S
H133 N113 0.862 . S
O134 Co102 1.920 . S
O134 C107 1.289 . S
C135 O127 1.258 . S
C135 O128 1.266 . S
Co136 O139 1.970 1_565 S
Co136 N153 1.989 . S
Co136 O161 1.967 . S
Co136 O168 1.920 . S
Co137 O140 1.966 . S
Co137 N146 2.022 . S
Co137 N154 1.993 . S
Co137 O162 1.941 . S
C138 O139 1.258 . S
C138 O140 1.263 1_545 S
O139 Co136 1.970 1_545 S
O139 C138 1.258 . S
O140 Co137 1.966 . S
O140 C138 1.263 1_565 S
C141 O142 1.235 . S
C141 O168 1.289 . S
O142 C141 1.235 . S
C143 C145 1.400 . S
C143 N146 1.351 . S
C143 C148 1.501 . S
C144 C145 1.387 . S
C144 N147 1.341 . S
C145 C143 1.400 . S
C145 C144 1.387 . S
N146 Co137 2.022 . S
N146 C143 1.351 . S
N146 N147 1.365 . S
N147 C144 1.341 . S
N147 N146 1.365 . S
N147 H167 0.862 . S
C148 C143 1.501 . S
C148 H149 0.961 . S
C148 H150 0.961 . S
C148 H151 0.960 . S
H149 C148 0.961 . S
H150 C148 0.961 . S
H151 C148 0.960 . S
C152 N153 1.342 . S
C152 C156 1.401 . S
C152 C157 1.499 . S
N153 Co136 1.989 . S
N153 C152 1.342 . S
N153 N154 1.388 . S
N154 Co137 1.993 . S
N154 N153 1.388 . S
N154 C155 1.346 . S
C155 N154 1.346 . S
C155 C156 1.396 . S
C155 C165 1.510 . S
C156 C152 1.401 . S
C156 C155 1.396 . S
C157 C152 1.499 . S
C157 H158 0.959 . S
C157 H159 0.960 . S
C157 H160 0.961 . S
H158 C157 0.959 . S
H159 C157 0.960 . S
H160 C157 0.961 . S
O161 Co136 1.967 . S
O161 C169 1.258 . S
O162 Co137 1.941 . S
O162 C169 1.266 . S
H163 C165 0.959 . S
H164 C165 0.961 . S
C165 C155 1.510 . S
C165 H163 0.959 . S
C165 H164 0.961 . S
C165 H166 0.960 . S
H166 C165 0.960 . S
H167 N147 0.862 . S
O168 Co136 1.920 . S
O168 C141 1.289 . S
C169 O161 1.258 . S
C169 O162 1.266 . S
Co170 O173 1.970 . S
Co170 N187 1.989 . S
Co170 O195 1.967 . S
Co170 O202 1.920 . S
Co171 O174 1.966 . S
Co171 N180 2.022 . S
Co171 N188 1.993 . S
Co171 O196 1.941 . S
C172 O173 1.258 . S
C172 O174 1.263 . S
O173 Co170 1.970 . S
O173 C172 1.258 . S
O174 Co171 1.966 . S
O174 C172 1.263 . S
C175 O176 1.235 . S
C175 O202 1.289 . S
O176 C175 1.235 . S
C177 C179 1.391 1_556 S
C177 N180 1.363 . S
C177 C182 1.500 1_556 S
C178 C179 1.387 . S
C178 N181 1.341 1_554 S
C179 C177 1.391 1_554 S
C179 C178 1.387 . S
N180 Co171 2.022 . S
N180 C177 1.363 . S
N180 N181 1.365 . S
N181 C178 1.341 1_556 S
N181 N180 1.365 . S
N181 H201 0.862 . S
C182 C177 1.500 1_554 S
C182 H183 0.961 1_554 S
C182 H184 0.961 1_554 S
C182 H185 0.960 . S
H183 C182 0.961 1_556 S
H184 C182 0.961 1_556 S
H185 C182 0.960 . S
C186 N187 1.342 . S
C186 C190 1.401 . S
C186 C191 1.499 . S
N187 Co170 1.989 . S
N187 C186 1.342 . S
N187 N188 1.388 . S
N188 Co171 1.993 . S
N188 N187 1.388 . S
N188 C189 1.346 . S
C189 N188 1.346 . S
C189 C190 1.396 . S
C189 C199 1.510 . S
C190 C186 1.401 . S
C190 C189 1.396 . S
C191 C186 1.499 . S
C191 H192 0.959 . S
C191 H193 0.960 . S
C191 H194 0.961 . S
H192 C191 0.959 . S
H193 C191 0.960 . S
H194 C191 0.961 . S
O195 Co170 1.967 . S
O195 C203 1.258 . S
O196 Co171 1.941 . S
O196 C203 1.266 . S
H197 C199 0.959 . S
H198 C199 0.961 . S
C199 C189 1.510 . S
C199 H197 0.959 . S
C199 H198 0.961 . S
C199 H200 0.960 . S
H200 C199 0.960 . S
H201 N181 0.862 . S
O202 Co170 1.920 . S
O202 C175 1.289 . S
C203 O195 1.258 . S
C203 O196 1.266 . S
Co204 O207 1.970 1_565 S
Co204 N221 1.989 . S
Co204 O229 1.967 . S
Co204 O236 1.920 . S
Co205 O208 1.966 . S
Co205 N214 2.022 . S
Co205 N222 1.993 . S
Co205 O230 1.941 . S
C206 O207 1.258 . S
C206 O208 1.263 1_545 S
O207 Co204 1.970 1_545 S
O207 C206 1.258 . S
O208 Co205 1.966 . S
O208 C206 1.263 1_565 S
C209 O210 1.235 . S
C209 O236 1.289 . S
O210 C209 1.235 . S
C211 C213 1.400 . S
C211 N214 1.351 . S
C211 C216 1.501 . S
C212 C213 1.387 . S
C212 N215 1.341 . S
C213 C211 1.400 . S
C213 C212 1.387 . S
N214 Co205 2.022 . S
N214 C211 1.351 . S
N214 N215 1.365 . S
N215 C212 1.341 . S
N215 N214 1.365 . S
N215 H235 0.862 . S
C216 C211 1.501 . S
C216 H217 0.961 . S
C216 H218 0.961 . S
C216 H219 0.960 . S
H217 C216 0.961 . S
H218 C216 0.961 . S
H219 C216 0.960 . S
C220 N221 1.342 . S
C220 C224 1.401 . S
C220 C225 1.499 . S
N221 Co204 1.989 . S
N221 C220 1.342 . S
N221 N222 1.388 . S
N222 Co205 1.993 . S
N222 N221 1.388 . S
N222 C223 1.346 . S
C223 N222 1.346 . S
C223 C224 1.396 . S
C223 C233 1.510 . S
C224 C220 1.401 . S
C224 C223 1.396 . S
C225 C220 1.499 . S
C225 H226 0.959 . S
C225 H227 0.960 . S
C225 H228 0.961 . S
H226 C225 0.959 . S
H227 C225 0.960 . S
H228 C225 0.961 . S
O229 Co204 1.967 . S
O229 C237 1.258 . S
O230 Co205 1.941 . S
O230 C237 1.266 . S
H231 C233 0.959 . S
H232 C233 0.961 . S
C233 C223 1.510 . S
C233 H231 0.959 . S
C233 H232 0.961 . S
C233 H234 0.960 . S
H234 C233 0.960 . S
H235 N215 0.862 . S
O236 Co204 1.920 . S
O236 C209 1.289 . S
C237 O229 1.258 . S
C237 O230 1.266 . S
Co238 O241 1.955 1_554 S
Co238 N255 1.988 1_554 S
Co238 O263 1.956 1_554 S
Co238 O270 1.945 . S
Co239 O242 1.966 . S
Co239 N248 2.022 . S
Co239 N256 1.993 . S
Co239 O264 1.941 . S
C240 O241 1.258 . S
C240 O242 1.263 . S
O241 Co238 1.955 1_556 S
O241 C240 1.258 . S
O242 Co239 1.966 . S
O242 C240 1.263 . S
C243 O244 1.235 . S
C243 O270 1.289 . S
O244 C243 1.235 . S
C245 C247 1.400 . S
C245 N248 1.351 . S
C245 C250 1.501 . S
C246 C247 1.387 . S
C246 N249 1.341 . S
C247 C245 1.400 . S
C247 C246 1.387 . S
N248 Co239 2.022 . S
N248 C245 1.351 . S
N248 N249 1.365 . S
N249 C246 1.341 . S
N249 N248 1.365 . S
N249 H269 0.862 . S
C250 C245 1.501 . S
C250 H251 0.961 . S
C250 H252 0.961 . S
C250 H253 0.960 . S
H251 C250 0.961 . S
H252 C250 0.961 . S
H253 C250 0.960 . S
C254 N255 1.342 1_554 S
C254 C258 1.401 . S
C254 C259 1.499 . S
N255 Co238 1.988 1_556 S
N255 C254 1.342 1_556 S
N255 N256 1.388 . S
N256 Co239 1.993 . S
N256 N255 1.388 . S
N256 C257 1.346 . S
C257 N256 1.346 . S
C257 C258 1.396 1_556 S
C257 C267 1.510 . S
C258 C254 1.401 . S
C258 C257 1.396 1_554 S
C259 C254 1.499 . S
C259 H260 0.959 . S
C259 H261 0.960 . S
C259 H262 0.961 . S
H260 C259 0.959 . S
H261 C259 0.960 . S
H262 C259 0.961 . S
O263 Co238 1.956 1_556 S
O263 C271 1.258 . S
O264 Co239 1.941 . S
O264 C271 1.266 . S
H265 C267 0.959 . S
H266 C267 0.961 . S
C267 C257 1.510 . S
C267 H265 0.959 . S
C267 H266 0.961 . S
C267 H268 0.960 . S
H268 C267 0.960 . S
H269 N249 0.862 . S
O270 Co238 1.945 . S
O270 C243 1.289 . S
C271 O263 1.258 . S
C271 O264 1.266 . S
Co272 O275 1.970 1_455 S
Co272 N289 1.989 . S
Co272 O297 1.967 . S
Co272 O304 1.920 . S
Co273 O276 1.966 . S
Co273 N282 2.022 . S
Co273 N290 1.993 . S
Co273 O298 1.941 . S
C274 O275 1.258 . S
C274 O276 1.263 1_655 S
O275 Co272 1.970 1_655 S
O275 C274 1.258 . S
O276 Co273 1.966 . S
O276 C274 1.263 1_455 S
C277 O278 1.235 . S
C277 O304 1.289 . S
O278 C277 1.235 . S
C279 C281 1.391 1_554 S
C279 N282 1.363 . S
C279 C284 1.500 1_554 S
C280 C281 1.387 . S
C280 N283 1.341 1_556 S
C281 C279 1.391 1_556 S
C281 C280 1.387 . S
N282 Co273 2.022 . S
N282 C279 1.363 . S
N282 N283 1.365 . S
N283 C280 1.341 1_554 S
N283 N282 1.365 . S
N283 H303 0.862 . S
C284 C279 1.500 1_556 S
C284 H285 0.961 1_556 S
C284 H286 0.961 1_556 S
C284 H287 0.960 . S
H285 C284 0.961 1_554 S
H286 C284 0.961 1_554 S
H287 C284 0.960 . S
C288 N289 1.342 . S
C288 C292 1.401 . S
C288 C293 1.499 . S
N289 Co272 1.989 . S
N289 C288 1.342 . S
N289 N290 1.388 . S
N290 Co273 1.993 . S
N290 N289 1.388 . S
N290 C291 1.346 . S
C291 N290 1.346 . S
C291 C292 1.396 . S
C291 C301 1.510 . S
C292 C288 1.401 . S
C292 C291 1.396 . S
C293 C288 1.499 . S
C293 H294 0.959 . S
C293 H295 0.960 . S
C293 H296 0.961 . S
H294 C293 0.959 . S
H295 C293 0.960 . S
H296 C293 0.961 . S
O297 Co272 1.967 . S
O297 C305 1.258 . S
O298 Co273 1.941 . S
O298 C305 1.266 . S
H299 C301 0.959 . S
H300 C301 0.961 . S
C301 C291 1.510 . S
C301 H299 0.959 . S
C301 H300 0.961 . S
C301 H302 0.960 . S
H302 C301 0.960 . S
H303 N283 0.862 . S
O304 Co272 1.920 . S
O304 C277 1.289 . S
C305 O297 1.258 . S
C305 O298 1.266 . S
Co306 O309 1.970 1_545 S
Co306 N323 1.989 . S
Co306 O331 1.967 . S
Co306 O338 1.920 . S
Co307 O310 1.966 . S
Co307 N316 2.022 . S
Co307 N324 1.993 . S
Co307 O332 1.941 . S
C308 O309 1.258 . S
C308 O310 1.263 1_565 S
O309 Co306 1.970 1_565 S
O309 C308 1.258 . S
O310 Co307 1.966 . S
O310 C308 1.263 1_545 S
C311 O312 1.235 . S
C311 O338 1.289 . S
O312 C311 1.235 . S
C313 C315 1.400 . S
C313 N316 1.351 . S
C313 C318 1.501 . S
C314 C315 1.387 . S
C314 N317 1.341 . S
C315 C313 1.400 . S
C315 C314 1.387 . S
N316 Co307 2.022 . S
N316 C313 1.351 . S
N316 N317 1.365 . S
N317 C314 1.341 . S
N317 N316 1.365 . S
N317 H337 0.862 . S
C318 C313 1.501 . S
C318 H319 0.961 . S
C318 H320 0.961 . S
C318 H321 0.960 . S
H319 C318 0.961 . S
H320 C318 0.961 . S
H321 C318 0.960 . S
C322 N323 1.342 . S
C322 C326 1.401 . S
C322 C327 1.499 . S
N323 Co306 1.989 . S
N323 C322 1.342 . S
N323 N324 1.388 . S
N324 Co307 1.993 . S
N324 N323 1.388 . S
N324 C325 1.346 . S
C325 N324 1.346 . S
C325 C326 1.396 . S
C325 C335 1.510 . S
C326 C322 1.401 . S
C326 C325 1.396 . S
C327 C322 1.499 . S
C327 H328 0.959 . S
C327 H329 0.960 . S
C327 H330 0.961 . S
H328 C327 0.959 . S
H329 C327 0.960 . S
H330 C327 0.961 . S
O331 Co306 1.967 . S
O331 C339 1.258 . S
O332 Co307 1.941 . S
O332 C339 1.266 . S
H333 C335 0.959 . S
H334 C335 0.961 . S
C335 C325 1.510 . S
C335 H333 0.959 . S
C335 H334 0.961 . S
C335 H336 0.960 . S
H336 C335 0.960 . S
H337 N317 0.862 . S
O338 Co306 1.920 . S
O338 C311 1.289 . S
C339 O331 1.258 . S
C339 O332 1.266 . S
Co340 O343 1.970 . S
Co340 N357 1.989 . S
Co340 O365 1.967 . S
Co340 O372 1.920 . S
Co341 O344 1.966 . S
Co341 N350 2.022 . S
Co341 N358 1.993 . S
Co341 O366 1.941 . S
C342 O343 1.258 . S
C342 O344 1.263 . S
O343 Co340 1.970 . S
O343 C342 1.258 . S
O344 Co341 1.966 . S
O344 C342 1.263 . S
C345 O346 1.235 . S
C345 O372 1.289 . S
O346 C345 1.235 . S
C347 C349 1.400 . S
C347 N350 1.351 . S
C347 C352 1.501 . S
C348 C349 1.387 . S
C348 N351 1.341 . S
C349 C347 1.400 . S
C349 C348 1.387 . S
N350 Co341 2.022 . S
N350 C347 1.351 . S
N350 N351 1.365 . S
N351 C348 1.341 . S
N351 N350 1.365 . S
N351 H371 0.862 . S
C352 C347 1.501 . S
C352 H353 0.961 . S
C352 H354 0.961 . S
C352 H355 0.960 . S
H353 C352 0.961 . S
H354 C352 0.961 . S
H355 C352 0.960 . S
C356 N357 1.342 . S
C356 C360 1.401 . S
C356 C361 1.499 . S
N357 Co340 1.989 . S
N357 C356 1.342 . S
N357 N358 1.388 . S
N358 Co341 1.993 . S
N358 N357 1.388 . S
N358 C359 1.346 . S
C359 N358 1.346 . S
C359 C360 1.396 . S
C359 C369 1.510 . S
C360 C356 1.401 . S
C360 C359 1.396 . S
C361 C356 1.499 . S
C361 H362 0.959 . S
C361 H363 0.960 . S
C361 H364 0.961 . S
H362 C361 0.959 . S
H363 C361 0.960 . S
H364 C361 0.961 . S
O365 Co340 1.967 . S
O365 C373 1.258 . S
O366 Co341 1.941 . S
O366 C373 1.266 . S
H367 C369 0.959 . S
H368 C369 0.961 . S
C369 C359 1.510 . S
C369 H367 0.959 . S
C369 H368 0.961 . S
C369 H370 0.960 . S
H370 C369 0.960 . S
H371 N351 0.862 . S
O372 Co340 1.920 . S
O372 C345 1.289 . S
C373 O365 1.258 . S
C373 O366 1.266 . S
Co374 O377 1.970 1_655 S
Co374 N391 1.989 . S
Co374 O399 1.967 . S
Co374 O406 1.920 . S
Co375 O378 1.966 . S
Co375 N384 2.022 . S
Co375 N392 1.993 . S
Co375 O400 1.941 . S
C376 O377 1.258 . S
C376 O378 1.263 1_455 S
O377 Co374 1.970 1_455 S
O377 C376 1.258 . S
O378 Co375 1.966 . S
O378 C376 1.263 1_655 S
C379 O380 1.235 . S
C379 O406 1.289 . S
O380 C379 1.235 . S
C381 C383 1.400 . S
C381 N384 1.351 . S
C381 C386 1.501 . S
C382 C383 1.387 . S
C382 N385 1.341 . S
C383 C381 1.400 . S
C383 C382 1.387 . S
N384 Co375 2.022 . S
N384 C381 1.351 . S
N384 N385 1.365 . S
N385 C382 1.341 . S
N385 N384 1.365 . S
N385 H405 0.862 . S
C386 C381 1.501 . S
C386 H387 0.961 . S
C386 H388 0.961 . S
C386 H389 0.960 . S
H387 C386 0.961 . S
H388 C386 0.961 . S
H389 C386 0.960 . S
C390 N391 1.342 . S
C390 C394 1.401 . S
C390 C395 1.499 . S
N391 Co374 1.989 . S
N391 C390 1.342 . S
N391 N392 1.388 . S
N392 Co375 1.993 . S
N392 N391 1.388 . S
N392 C393 1.346 . S
C393 N392 1.346 . S
C393 C394 1.396 . S
C393 C403 1.510 . S
C394 C390 1.401 . S
C394 C393 1.396 . S
C395 C390 1.499 . S
C395 H396 0.959 . S
C395 H397 0.960 . S
C395 H398 0.961 . S
H396 C395 0.959 . S
H397 C395 0.960 . S
H398 C395 0.961 . S
O399 Co374 1.967 . S
O399 C407 1.258 . S
O400 Co375 1.941 . S
O400 C407 1.266 . S
H401 C403 0.959 . S
H402 C403 0.961 . S
C403 C393 1.510 . S
C403 H401 0.959 . S
C403 H402 0.961 . S
C403 H404 0.960 . S
H404 C403 0.960 . S
H405 N385 0.862 . S
O406 Co374 1.920 . S
O406 C379 1.289 . S
C407 O399 1.258 . S
C407 O400 1.266 . S
C408 C409 1.363 . S
C408 C414 1.379 . S
C408 N416 1.356 . S
C409 C408 1.363 . S
C409 C415 1.363 . S
C410 C411 1.363 . S
C410 C415 1.379 . S
C410 N417 1.356 . S
C411 C410 1.363 . S
C411 C414 1.363 . S
N412 C414 1.356 . S
N412 H424 0.984 . S
N412 H425 0.985 . S
N413 C415 1.356 . S
N413 H418 0.984 . S
N413 H419 0.985 . S
C414 C408 1.379 . S
C414 C411 1.363 . S
C414 N412 1.356 . S
C415 C409 1.363 . S
C415 C410 1.379 . S
C415 N413 1.356 . S
N416 C408 1.356 . S
N416 H422 0.984 . S
N416 H423 0.984 . S
N417 C410 1.356 . S
N417 H420 0.984 . S
N417 H421 0.985 . S
H418 N413 0.984 . S
H419 N413 0.985 . S
H420 N417 0.984 . S
H421 N417 0.985 . S
H422 N416 0.984 . S
H423 N416 0.984 . S
H424 N412 0.984 . S
H425 N412 0.985 . S
C426 C427 1.363 . S
C426 C432 1.379 . S
C426 N434 1.356 . S
C427 C426 1.363 . S
C427 C433 1.363 . S
C428 C429 1.363 . S
C428 C433 1.379 . S
C428 N435 1.356 . S
C429 C428 1.363 . S
C429 C432 1.363 . S
N430 C432 1.356 . S
N430 H442 0.984 . S
N430 H443 0.985 . S
N431 C433 1.356 . S
N431 H436 0.984 . S
N431 H437 0.985 . S
C432 C426 1.379 . S
C432 C429 1.363 . S
C432 N430 1.356 . S
C433 C427 1.363 . S
C433 C428 1.379 . S
C433 N431 1.356 . S
N434 C426 1.356 . S
N434 H440 0.984 . S
N434 H441 0.984 . S
N435 C428 1.356 . S
N435 H438 0.984 . S
N435 H439 0.985 . S
H436 N431 0.984 . S
H437 N431 0.985 . S
H438 N435 0.984 . S
H439 N435 0.985 . S
H440 N434 0.984 . S
H441 N434 0.984 . S
H442 N430 0.984 . S
H443 N430 0.985 . S
C444 C445 1.363 . S
C444 C450 1.379 . S
C444 N452 1.356 . S
C445 C444 1.363 . S
C445 C451 1.363 . S
C446 C447 1.363 . S
C446 C451 1.379 . S
C446 N453 1.356 . S
C447 C446 1.363 . S
C447 C450 1.363 . S
N448 C450 1.356 . S
N448 H460 0.984 . S
N448 H461 0.985 . S
N449 C451 1.356 . S
N449 H454 0.984 . S
N449 H455 0.985 . S
C450 C444 1.379 . S
C450 C447 1.363 . S
C450 N448 1.356 . S
C451 C445 1.363 . S
C451 C446 1.379 . S
C451 N449 1.356 . S
N452 C444 1.356 . S
N452 H458 0.984 . S
N452 H459 0.984 . S
N453 C446 1.356 . S
N453 H456 0.984 . S
N453 H457 0.985 . S
H454 N449 0.984 . S
H455 N449 0.985 . S
H456 N453 0.984 . S
H457 N453 0.985 . S
H458 N452 0.984 . S
H459 N452 0.984 . S
H460 N448 0.984 . S
H461 N448 0.985 . S
C462 C463 1.363 . S
C462 C468 1.379 . S
C462 N470 1.356 . S
C463 C462 1.363 . S
C463 C469 1.363 . S
C464 C465 1.363 . S
C464 C469 1.379 . S
C464 N471 1.356 . S
C465 C464 1.363 . S
C465 C468 1.363 . S
N466 C468 1.356 . S
N466 H478 0.984 . S
N466 H479 0.985 . S
N467 C469 1.356 . S
N467 H472 0.984 . S
N467 H473 0.985 . S
C468 C462 1.379 . S
C468 C465 1.363 . S
C468 N466 1.356 . S
C469 C463 1.363 . S
C469 C464 1.379 . S
C469 N467 1.356 . S
N470 C462 1.356 . S
N470 H476 0.984 . S
N470 H477 0.984 . S
N471 C464 1.356 . S
N471 H474 0.984 . S
N471 H475 0.985 . S
H472 N467 0.984 . S
H473 N467 0.985 . S
H474 N471 0.984 . S
H475 N471 0.985 . S
H476 N470 0.984 . S
H477 N470 0.984 . S
H478 N466 0.984 . S
H479 N466 0.985 . S
C480 C481 1.363 . S
C480 C486 1.379 . S
C480 N488 1.356 . S
C481 C480 1.363 . S
C481 C487 1.363 . S
C482 C483 1.363 . S
C482 C487 1.379 . S
C482 N489 1.356 . S
C483 C482 1.363 . S
C483 C486 1.363 . S
N484 C486 1.356 . S
N484 H496 0.984 . S
N484 H497 0.985 1_556 S
N485 C487 1.356 . S
N485 H490 0.984 . S
N485 H491 0.985 . S
C486 C480 1.379 . S
C486 C483 1.363 . S
C486 N484 1.356 . S
C487 C481 1.363 . S
C487 C482 1.379 . S
C487 N485 1.356 . S
N488 C480 1.356 . S
N488 H494 0.984 . S
N488 H495 0.984 . S
N489 C482 1.356 . S
N489 H492 0.984 . S
N489 H493 0.985 . S
H490 N485 0.984 . S
H491 N485 0.985 . S
H492 N489 0.984 . S
H493 N489 0.985 . S
H494 N488 0.984 . S
H495 N488 0.984 . S
H496 N484 0.984 . S
H497 N484 0.985 1_554 S
C498 C499 1.363 . S
C498 C504 1.379 . S
C498 N506 1.356 . S
C499 C498 1.363 . S
C499 C505 1.363 . S
C500 C501 1.363 . S
C500 C505 1.379 . S
C500 N507 1.356 . S
C501 C500 1.363 . S
C501 C504 1.363 . S
N502 C504 1.356 . S
N502 H514 0.984 . S
N502 H515 0.985 . S
N503 C505 1.356 . S
N503 H508 0.984 . S
N503 H509 0.985 . S
C504 C498 1.379 . S
C504 C501 1.363 . S
C504 N502 1.356 . S
C505 C499 1.363 . S
C505 C500 1.379 . S
C505 N503 1.356 . S
N506 C498 1.356 . S
N506 H512 0.984 . S
N506 H513 0.984 1_554 S
N507 C500 1.356 . S
N507 H510 0.984 . S
N507 H511 0.985 . S
H508 N503 0.984 . S
H509 N503 0.985 . S
H510 N507 0.984 . S
H511 N507 0.985 . S
H512 N506 0.984 . S
H513 N506 0.984 1_556 S
H514 N502 0.984 . S
H515 N502 0.985 . S
C516 C517 1.363 . S
C516 C522 1.379 . S
C516 N524 1.356 . S
C517 C516 1.363 . S
C517 C523 1.363 . S
C518 C519 1.363 . S
C518 C523 1.379 . S
C518 N525 1.356 . S
C519 C518 1.363 . S
C519 C522 1.363 . S
N520 C522 1.356 . S
N520 H532 0.984 . S
N520 H533 0.985 . S
N521 C523 1.356 . S
N521 H526 0.984 . S
N521 H527 0.985 . S
C522 C516 1.379 . S
C522 C519 1.363 . S
C522 N520 1.356 . S
C523 C517 1.363 . S
C523 C518 1.379 . S
C523 N521 1.356 . S
N524 C516 1.356 . S
N524 H530 0.984 1_554 S
N524 H531 0.986 . S
N525 C518 1.356 . S
N525 H528 0.984 . S
N525 H529 0.985 . S
H526 N521 0.984 . S
H527 N521 0.985 . S
H528 N525 0.984 . S
H529 N525 0.985 . S
H530 N524 0.984 1_556 S
H531 N524 0.986 . S
H532 N520 0.984 . S
H533 N520 0.985 . S
C534 C535 1.363 . S
C534 C540 1.379 . S
C534 N542 1.356 . S
C535 C534 1.363 . S
C535 C541 1.363 . S
C536 C537 1.363 . S
C536 C541 1.379 . S
C536 N543 1.356 . S
C537 C536 1.363 . S
C537 C540 1.363 . S
N538 C540 1.356 . S
N538 H550 0.984 1_545 S
N538 H551 0.985 . S
N539 C541 1.356 . S
N539 H544 0.984 . S
N539 H545 0.985 . S
C540 C534 1.379 . S
C540 C537 1.363 . S
C540 N538 1.356 . S
C541 C535 1.363 . S
C541 C536 1.379 . S
C541 N539 1.356 . S
N542 C534 1.356 . S
N542 H548 0.984 1_545 S
N542 H549 0.984 . S
N543 C536 1.356 . S
N543 H546 0.984 . S
N543 H547 0.985 . S
H544 N539 0.984 . S
H545 N539 0.985 . S
H546 N543 0.984 . S
H547 N543 0.985 . S
H548 N542 0.984 1_565 S
H549 N542 0.984 . S
H550 N538 0.984 1_565 S
H551 N538 0.985 . S
C552 C553 1.363 . S
C552 C558 1.379 . S
C552 N560 1.356 . S
C553 C552 1.363 . S
C553 C559 1.363 . S
C554 C555 1.363 . S
C554 C559 1.379 . S
C554 N561 1.356 . S
C555 C554 1.363 . S
C555 C558 1.363 . S
N556 C558 1.356 . S
N556 H568 0.984 . S
N556 H569 0.985 . S
N557 C559 1.356 . S
N557 H562 0.984 . S
N557 H563 0.985 . S
C558 C552 1.379 . S
C558 C555 1.363 . S
C558 N556 1.356 . S
C559 C553 1.363 . S
C559 C554 1.379 . S
C559 N557 1.356 . S
N560 C552 1.356 . S
N560 H566 0.984 . S
N560 H567 0.984 . S
N561 C554 1.356 . S
N561 H564 0.984 . S
N561 H565 0.985 . S
H562 N557 0.984 . S
H563 N557 0.985 . S
H564 N561 0.984 . S
H565 N561 0.985 . S
H566 N560 0.984 . S
H567 N560 0.984 . S
H568 N556 0.984 . S
H569 N556 0.985 . S
C570 C571 1.363 . S
C570 C576 1.379 . S
C570 N578 1.356 . S
C571 C570 1.363 . S
C571 C577 1.363 . S
C572 C573 1.363 . S
C572 C577 1.379 . S
C572 N579 1.356 . S
C573 C572 1.363 . S
C573 C576 1.363 . S
N574 C576 1.356 . S
N574 H586 0.984 . S
N574 H587 0.985 . S
N575 C577 1.356 . S
N575 H580 0.984 . S
N575 H581 0.985 1_655 S
C576 C570 1.379 . S
C576 C573 1.363 . S
C576 N574 1.356 . S
C577 C571 1.363 . S
C577 C572 1.379 . S
C577 N575 1.356 . S
N578 C570 1.356 . S
N578 H584 0.984 . S
N578 H585 0.984 . S
N579 C572 1.356 . S
N579 H582 0.984 . S
N579 H583 0.985 1_655 S
H580 N575 0.984 . S
H581 N575 0.985 1_455 S
H582 N579 0.984 . S
H583 N579 0.985 1_455 S
H584 N578 0.984 . S
H585 N578 0.984 . S
H586 N574 0.984 . S
H587 N574 0.985 . S
C588 C589 1.363 . S
C588 C594 1.379 . S
C588 N596 1.356 . S
C589 C588 1.363 . S
C589 C595 1.363 . S
C590 C591 1.363 . S
C590 C595 1.379 . S
C590 N597 1.356 . S
C591 C590 1.363 . S
C591 C594 1.363 . S
N592 C594 1.356 . S
N592 H604 0.984 1_565 S
N592 H605 0.985 . S
N593 C595 1.356 . S
N593 H598 0.984 . S
N593 H599 0.985 . S
C594 C588 1.379 . S
C594 C591 1.363 . S
C594 N592 1.356 . S
C595 C589 1.363 . S
C595 C590 1.379 . S
C595 N593 1.356 . S
N596 C588 1.356 . S
N596 H602 0.984 1_565 S
N596 H603 0.984 . S
N597 C590 1.356 . S
N597 H600 0.984 . S
N597 H601 0.985 . S
H598 N593 0.984 . S
H599 N593 0.985 . S
H600 N597 0.984 . S
H601 N597 0.985 . S
H602 N596 0.984 1_545 S
H603 N596 0.984 . S
H604 N592 0.984 1_545 S
H605 N592 0.985 . S
C606 C607 1.363 . S
C606 C612 1.379 . S
C606 N614 1.356 . S
C607 C606 1.363 . S
C607 C613 1.363 . S
C608 C609 1.363 . S
C608 C613 1.379 . S
C608 N615 1.356 . S
C609 C608 1.363 . S
C609 C612 1.363 . S
N610 C612 1.356 . S
N610 H622 0.984 1_556 S
N610 H623 0.985 . S
N611 C613 1.356 . S
N611 H616 0.984 . S
N611 H617 0.985 . S
C612 C606 1.379 . S
C612 C609 1.363 . S
C612 N610 1.356 . S
C613 C607 1.363 . S
C613 C608 1.379 . S
C613 N611 1.356 . S
N614 C606 1.356 . S
N614 H620 0.984 . S
N614 H621 0.984 . S
N615 C608 1.356 . S
N615 H618 0.984 . S
N615 H619 0.985 . S
H616 N611 0.984 . S
H617 N611 0.985 . S
H618 N615 0.984 . S
H619 N615 0.985 . S
H620 N614 0.984 . S
H621 N614 0.984 . S
H622 N610 0.984 1_554 S
H623 N610 0.985 . S
C624 C625 1.363 . S
C624 C630 1.379 . S
C624 N632 1.356 . S
C625 C624 1.363 . S
C625 C631 1.363 1_455 S
C626 C627 1.363 . S
C626 C631 1.379 . S
C626 N633 1.356 . S
C627 C626 1.363 . S
C627 C630 1.363 1_655 S
N628 C630 1.356 . S
N628 H640 0.984 . S
N628 H641 0.985 . S
N629 C631 1.356 . S
N629 H634 0.984 . S
N629 H635 0.985 . S
C630 C624 1.379 . S
C630 C627 1.363 1_455 S
C630 N628 1.356 . S
C631 C625 1.363 1_655 S
C631 C626 1.379 . S
C631 N629 1.356 . S
N632 C624 1.356 . S
N632 H638 0.984 . S
N632 H639 0.984 . S
N633 C626 1.356 . S
N633 H636 0.984 . S
N633 H637 0.985 . S
H634 N629 0.984 . S
H635 N629 0.985 . S
H636 N633 0.984 . S
H637 N633 0.985 . S
H638 N632 0.984 . S
H639 N632 0.984 . S
H640 N628 0.984 . S
H641 N628 0.985 . S
C642 C643 1.363 . S
C642 C648 1.379 1_556 S
C642 N650 1.356 . S
C643 C642 1.363 . S
C643 C649 1.363 1_545 S
C644 C645 1.363 . S
C644 C649 1.379 1_554 S
C644 N651 1.356 . S
C645 C644 1.363 . S
C645 C648 1.363 1_565 S
N646 C648 1.356 . S
N646 H658 0.984 . S
N646 H659 0.985 . S
N647 C649 1.356 . S
N647 H652 0.984 . S
N647 H653 0.985 . S
C648 C642 1.379 1_554 S
C648 C645 1.363 1_545 S
C648 N646 1.356 . S
C649 C643 1.363 1_565 S
C649 C644 1.379 1_556 S
C649 N647 1.356 . S
N650 C642 1.356 . S
N650 H656 0.984 . S
N650 H657 0.984 . S
N651 C644 1.356 . S
N651 H654 0.984 . S
N651 H655 0.985 . S
H652 N647 0.984 . S
H653 N647 0.985 . S
H654 N651 0.984 . S
H655 N651 0.985 . S
H656 N650 0.984 . S
H657 N650 0.984 . S
H658 N646 0.984 . S
H659 N646 0.985 . S
C660 C661 1.363 . S
C660 C666 1.379 . S
C660 N668 1.356 . S
C661 C660 1.363 . S
C661 C667 1.363 . S
C662 C663 1.363 . S
C662 C667 1.379 . S
C662 N669 1.356 . S
C663 C662 1.363 . S
C663 C666 1.363 . S
N664 C666 1.356 . S
N664 H676 0.984 . S
N664 H677 0.985 . S
N665 C667 1.356 . S
N665 H670 0.984 . S
N665 H671 0.985 . S
C666 C660 1.379 . S
C666 C663 1.363 . S
C666 N664 1.356 . S
C667 C661 1.363 . S
C667 C662 1.379 . S
C667 N665 1.356 . S
N668 C660 1.356 . S
N668 H674 0.984 . S
N668 H675 0.984 . S
N669 C662 1.356 . S
N669 H672 0.984 . S
N669 H673 0.985 . S
H670 N665 0.984 . S
H671 N665 0.985 . S
H672 N669 0.984 . S
H673 N669 0.985 . S
H674 N668 0.984 . S
H675 N668 0.984 . S
H676 N664 0.984 . S
H677 N664 0.985 . S
C678 C679 1.363 1_655 S
C678 C684 1.379 . S
C678 N686 1.356 . S
C679 C678 1.363 1_455 S
C679 C685 1.363 . S
C680 C681 1.363 1_455 S
C680 C685 1.379 . S
C680 N687 1.356 . S
C681 C680 1.363 1_655 S
C681 C684 1.363 . S
N682 C684 1.356 . S
N682 H694 0.984 . S
N682 H695 0.985 . S
N683 C685 1.356 . S
N683 H688 0.984 . S
N683 H689 0.985 . S
C684 C678 1.379 . S
C684 C681 1.363 . S
C684 N682 1.356 . S
C685 C679 1.363 . S
C685 C680 1.379 . S
C685 N683 1.356 . S
N686 C678 1.356 . S
N686 H692 0.984 . S
N686 H693 0.984 . S
N687 C680 1.356 . S
N687 H690 0.984 . S
N687 H691 0.985 . S
H688 N683 0.984 . S
H689 N683 0.985 . S
H690 N687 0.984 . S
H691 N687 0.985 . S
H692 N686 0.984 . S
H693 N686 0.984 . S
H694 N682 0.984 . S
H695 N682 0.985 . S
C696 C697 1.363 1_565 S
C696 C702 1.379 . S
C696 N704 1.356 . S
C697 C696 1.363 1_545 S
C697 C703 1.363 . S
C698 C699 1.363 1_545 S
C698 C703 1.379 . S
C698 N705 1.356 . S
C699 C698 1.363 1_565 S
C699 C702 1.363 . S
N700 C702 1.356 . S
N700 H712 0.984 . S
N700 H713 0.985 . S
N701 C703 1.356 . S
N701 H706 0.984 . S
N701 H707 0.985 . S
C702 C696 1.379 . S
C702 C699 1.363 . S
C702 N700 1.356 . S
C703 C697 1.363 . S
C703 C698 1.379 . S
C703 N701 1.356 . S
N704 C696 1.356 . S
N704 H710 0.984 . S
N704 H711 0.984 . S
N705 C698 1.356 . S
N705 H708 0.984 . S
N705 H709 0.985 . S
H706 N701 0.984 . S
H707 N701 0.985 . S
H708 N705 0.984 . S
H709 N705 0.985 . S
H710 N704 0.984 . S
H711 N704 0.984 . S
H712 N700 0.984 . S
H713 N700 0.985 . S
C714 C715 1.363 . S
C714 C720 1.379 . S
C714 N722 1.356 . S
C715 C714 1.363 . S
C715 C721 1.363 . S
C716 C717 1.363 . S
C716 C721 1.379 . S
C716 N723 1.356 . S
C717 C716 1.363 . S
C717 C720 1.363 . S
N718 C720 1.356 . S
N718 H730 0.984 . S
N718 H731 0.985 . S
N719 C721 1.356 . S
N719 H724 0.984 . S
N719 H725 0.985 . S
C720 C714 1.379 . S
C720 C717 1.363 . S
C720 N718 1.356 . S
C721 C715 1.363 . S
C721 C716 1.379 . S
C721 N719 1.356 . S
N722 C714 1.356 . S
N722 H728 0.984 . S
N722 H729 0.984 . S
N723 C716 1.356 . S
N723 H726 0.984 . S
N723 H727 0.985 . S
H724 N719 0.984 . S
H725 N719 0.985 . S
H726 N723 0.984 . S
H727 N723 0.985 . S
H728 N722 0.984 . S
H729 N722 0.984 . S
H730 N718 0.984 . S
H731 N718 0.985 . S
C732 C733 1.363 . S
C732 C738 1.379 . S
C732 N740 1.356 . S
C733 C732 1.363 . S
C733 C739 1.363 . S
C734 C735 1.363 . S
C734 C739 1.379 . S
C734 N741 1.356 1_556 S
C735 C734 1.363 . S
C735 C738 1.363 . S
N736 C738 1.356 . S
N736 H748 0.984 . S
N736 H749 0.985 . S
N737 C739 1.356 . S
N737 H742 0.984 . S
N737 H743 0.985 1_556 S
C738 C732 1.379 . S
C738 C735 1.363 . S
C738 N736 1.356 . S
C739 C733 1.363 . S
C739 C734 1.379 . S
C739 N737 1.356 . S
N740 C732 1.356 . S
N740 H746 0.984 . S
N740 H747 0.984 . S
N741 C734 1.356 1_554 S
N741 H744 0.984 . S
N741 H745 0.985 . S
H742 N737 0.984 . S
H743 N737 0.985 1_554 S
H744 N741 0.984 . S
H745 N741 0.985 . S
H746 N740 0.984 . S
H747 N740 0.984 . S
H748 N736 0.984 . S
H749 N736 0.985 . S
C750 C751 1.363 . S
C750 C756 1.379 . S
C750 N758 1.356 . S
C751 C750 1.363 . S
C751 C757 1.363 . S
C752 C753 1.363 . S
C752 C757 1.379 . S
C752 N759 1.356 . S
C753 C752 1.363 . S
C753 C756 1.363 . S
N754 C756 1.356 . S
N754 H766 0.984 . S
N754 H767 0.985 . S
N755 C757 1.356 . S
N755 H760 0.984 . S
N755 H761 0.985 . S
C756 C750 1.379 . S
C756 C753 1.363 . S
C756 N754 1.356 . S
C757 C751 1.363 . S
C757 C752 1.379 . S
C757 N755 1.356 . S
N758 C750 1.356 . S
N758 H764 0.984 . S
N758 H765 0.984 . S
N759 C752 1.356 . S
N759 H762 0.984 . S
N759 H763 0.985 . S
H760 N755 0.984 . S
H761 N755 0.985 . S
H762 N759 0.984 . S
H763 N759 0.985 . S
H764 N758 0.984 . S
H765 N758 0.984 . S
H766 N754 0.984 . S
H767 N754 0.985 . S
C768 C769 1.363 . S
C768 C774 1.379 . S
C768 N776 1.356 . S
C769 C768 1.363 . S
C769 C775 1.363 . S
C770 C771 1.363 . S
C770 C775 1.379 . S
C770 N777 1.356 . S
C771 C770 1.363 . S
C771 C774 1.363 . S
N772 C774 1.356 . S
N772 H784 0.984 . S
N772 H785 0.985 . S
N773 C775 1.356 . S
N773 H778 0.984 . S
N773 H779 0.985 . S
C774 C768 1.379 . S
C774 C771 1.363 . S
C774 N772 1.356 . S
C775 C769 1.363 . S
C775 C770 1.379 . S
C775 N773 1.356 . S
N776 C768 1.356 . S
N776 H782 0.984 . S
N776 H783 0.984 . S
N777 C770 1.356 . S
N777 H780 0.984 . S
N777 H781 0.985 . S
H778 N773 0.984 . S
H779 N773 0.985 . S
H780 N777 0.984 . S
H781 N777 0.985 . S
H782 N776 0.984 . S
H783 N776 0.984 . S
H784 N772 0.984 . S
H785 N772 0.985 . S
C786 C787 1.363 . S
C786 C792 1.379 . S
C786 N794 1.356 . S
C787 C786 1.363 . S
C787 C793 1.363 . S
C788 C789 1.363 . S
C788 C793 1.379 . S
C788 N795 1.356 . S
C789 C788 1.363 . S
C789 C792 1.363 . S
N790 C792 1.356 . S
N790 H802 0.984 . S
N790 H803 0.985 . S
N791 C793 1.356 . S
N791 H796 0.984 . S
N791 H797 0.985 . S
C792 C786 1.379 . S
C792 C789 1.363 . S
C792 N790 1.356 . S
C793 C787 1.363 . S
C793 C788 1.379 . S
C793 N791 1.356 . S
N794 C786 1.356 . S
N794 H800 0.984 . S
N794 H801 0.984 . S
N795 C788 1.356 . S
N795 H798 0.984 . S
N795 H799 0.985 . S
H796 N791 0.984 . S
H797 N791 0.985 . S
H798 N795 0.984 . S
H799 N795 0.985 . S
H800 N794 0.984 . S
H801 N794 0.984 . S
H802 N790 0.984 . S
H803 N790 0.985 . S
C804 C805 1.363 . S
C804 C810 1.379 . S
C804 N812 1.356 . S
C805 C804 1.363 . S
C805 C811 1.363 . S
C806 C807 1.363 . S
C806 C811 1.379 . S
C806 N813 1.356 . S
C807 C806 1.363 . S
C807 C810 1.363 . S
N808 C810 1.356 . S
N808 H820 0.984 . S
N808 H821 0.985 . S
N809 C811 1.356 . S
N809 H814 0.984 . S
N809 H815 0.985 . S
C810 C804 1.379 . S
C810 C807 1.363 . S
C810 N808 1.356 . S
C811 C805 1.363 . S
C811 C806 1.379 . S
C811 N809 1.356 . S
N812 C804 1.356 . S
N812 H818 0.984 . S
N812 H819 0.984 . S
N813 C806 1.356 . S
N813 H816 0.985 1_455 S
N813 H817 0.985 . S
H814 N809 0.984 . S
H815 N809 0.985 . S
H816 N813 0.985 1_655 S
H817 N813 0.985 . S
H818 N812 0.984 . S
H819 N812 0.984 . S
H820 N808 0.984 . S
H821 N808 0.985 . S
C822 C823 1.363 . S
C822 C828 1.379 . S
C822 N830 1.356 . S
C823 C822 1.363 . S
C823 C829 1.363 . S
C824 C825 1.363 . S
C824 C829 1.379 . S
C824 N831 1.356 . S
C825 C824 1.363 . S
C825 C828 1.363 . S
N826 C828 1.356 . S
N826 H838 0.984 . S
N826 H839 0.985 . S
N827 C829 1.356 . S
N827 H832 0.984 . S
N827 H833 0.985 . S
C828 C822 1.379 . S
C828 C825 1.363 . S
C828 N826 1.356 . S
C829 C823 1.363 . S
C829 C824 1.379 . S
C829 N827 1.356 . S
N830 C822 1.356 . S
N830 H836 0.984 . S
N830 H837 0.984 . S
N831 C824 1.356 . S
N831 H834 0.984 . S
N831 H835 0.985 . S
H832 N827 0.984 . S
H833 N827 0.985 . S
H834 N831 0.984 . S
H835 N831 0.985 . S
H836 N830 0.984 . S
H837 N830 0.984 . S
H838 N826 0.984 . S
H839 N826 0.985 . S
C840 C841 1.363 . S
C840 C846 1.379 . S
C840 N848 1.356 . S
C841 C840 1.363 . S
C841 C847 1.363 . S
C842 C843 1.363 . S
C842 C847 1.379 . S
C842 N849 1.356 . S
C843 C842 1.363 . S
C843 C846 1.363 . S
N844 C846 1.356 . S
N844 H856 0.984 . S
N844 H857 0.985 . S
N845 C847 1.356 . S
N845 H850 0.984 . S
N845 H851 0.985 . S
C846 C840 1.379 . S
C846 C843 1.363 . S
C846 N844 1.356 . S
C847 C841 1.363 . S
C847 C842 1.379 . S
C847 N845 1.356 . S
N848 C840 1.356 . S
N848 H854 0.984 . S
N848 H855 0.984 . S
N849 C842 1.356 . S
N849 H852 0.984 . S
N849 H853 0.985 . S
H850 N845 0.984 . S
H851 N845 0.985 . S
H852 N849 0.984 . S
H853 N849 0.985 . S
H854 N848 0.984 . S
H855 N848 0.984 . S
H856 N844 0.984 . S
H857 N844 0.985 . S
C858 C859 1.363 . S
C858 C864 1.379 . S
C858 N866 1.356 . S
C859 C858 1.363 . S
C859 C865 1.363 . S
C860 C861 1.363 . S
C860 C865 1.379 . S
C860 N867 1.356 . S
C861 C860 1.363 . S
C861 C864 1.363 . S
N862 C864 1.356 . S
N862 H874 0.984 . S
N862 H875 0.985 . S
N863 C865 1.356 1_556 S
N863 H868 0.984 . S
N863 H869 0.985 . S
C864 C858 1.379 . S
C864 C861 1.363 . S
C864 N862 1.356 . S
C865 C859 1.363 . S
C865 C860 1.379 . S
C865 N863 1.356 1_554 S
N866 C858 1.356 . S
N866 H872 0.984 . S
N866 H873 0.984 . S
N867 C860 1.356 . S
N867 H870 0.965 1_655 S
N867 H871 0.985 . S
H868 N863 0.984 . S
H869 N863 0.985 . S
H870 N867 0.965 1_455 S
H871 N867 0.985 . S
H872 N866 0.984 . S
H873 N866 0.984 . S
H874 N862 0.984 . S
H875 N862 0.985 . S
C876 C877 1.363 . S
C876 C882 1.379 . S
C876 N884 1.356 . S
C877 C876 1.363 . S
C877 C883 1.363 . S
C878 C879 1.363 . S
C878 C883 1.379 . S
C878 N885 1.356 . S
C879 C878 1.363 . S
C879 C882 1.363 . S
N880 C882 1.356 . S
N880 H892 0.984 . S
N880 H893 0.985 . S
N881 C883 1.356 . S
N881 H886 0.984 . S
N881 H887 0.985 . S
C882 C876 1.379 . S
C882 C879 1.363 . S
C882 N880 1.356 . S
C883 C877 1.363 . S
C883 C878 1.379 . S
C883 N881 1.356 . S
N884 C876 1.356 . S
N884 H890 0.984 . S
N884 H891 0.984 . S
N885 C878 1.356 . S
N885 H888 0.984 . S
N885 H889 0.985 . S
H886 N881 0.984 . S
H887 N881 0.985 . S
H888 N885 0.984 . S
H889 N885 0.985 . S
H890 N884 0.984 . S
H891 N884 0.984 . S
H892 N880 0.984 . S
H893 N880 0.985 . S
C894 C895 1.363 . S
C894 C900 1.379 . S
C894 N902 1.356 . S
C895 C894 1.363 . S
C895 C901 1.363 . S
C896 C897 1.363 . S
C896 C901 1.379 . S
C896 N903 1.356 . S
C897 C896 1.363 . S
C897 C900 1.363 . S
N898 C900 1.356 . S
N898 H910 0.984 . S
N898 H911 0.985 . S
N899 C901 1.356 . S
N899 H904 0.984 . S
N899 H905 0.985 . S
C900 C894 1.379 . S
C900 C897 1.363 . S
C900 N898 1.356 . S
C901 C895 1.363 . S
C901 C896 1.379 . S
C901 N899 1.356 . S
N902 C894 1.356 . S
N902 H908 0.984 . S
N902 H909 0.984 . S
N903 C896 1.356 . S
N903 H906 0.984 . S
N903 H907 0.985 . S
H904 N899 0.984 . S
H905 N899 0.985 . S
H906 N903 0.984 . S
H907 N903 0.985 . S
H908 N902 0.984 . S
H909 N902 0.984 . S
H910 N898 0.984 . S
H911 N898 0.985 . S
C912 C913 1.363 . S
C912 C918 1.379 . S
C912 N920 1.356 . S
C913 C912 1.363 . S
C913 C919 1.363 . S
C914 C915 1.363 . S
C914 C919 1.379 . S
C914 N921 1.356 . S
C915 C914 1.363 . S
C915 C918 1.363 . S
N916 C918 1.356 . S
N916 H928 0.984 . S
N916 H929 0.985 . S
N917 C919 1.356 . S
N917 H922 0.984 . S
N917 H923 0.985 . S
C918 C912 1.379 . S
C918 C915 1.363 . S
C918 N916 1.356 . S
C919 C913 1.363 . S
C919 C914 1.379 . S
C919 N917 1.356 . S
N920 C912 1.356 . S
N920 H926 0.984 . S
N920 H927 0.984 . S
N921 C914 1.356 . S
N921 H924 0.984 . S
N921 H925 0.985 . S
H922 N917 0.984 . S
H923 N917 0.985 . S
H924 N921 0.984 . S
H925 N921 0.985 . S
H926 N920 0.984 . S
H927 N920 0.984 . S
H928 N916 0.984 . S
H929 N916 0.985 . S
C930 C931 1.363 . S
C930 C936 1.379 . S
C930 N938 1.356 . S
C931 C930 1.363 . S
C931 C937 1.363 . S
C932 C933 1.363 . S
C932 C937 1.379 . S
C932 N939 1.356 . S
C933 C932 1.363 . S
C933 C936 1.363 . S
N934 C936 1.356 . S
N934 H946 0.984 . S
N934 H947 0.985 . S
N935 C937 1.356 . S
N935 H940 0.984 . S
N935 H941 0.985 . S
C936 C930 1.379 . S
C936 C933 1.363 . S
C936 N934 1.356 . S
C937 C931 1.363 . S
C937 C932 1.379 . S
C937 N935 1.356 . S
N938 C930 1.356 . S
N938 H944 0.984 . S
N938 H945 0.984 . S
N939 C932 1.356 . S
N939 H942 0.984 . S
N939 H943 0.985 . S
H940 N935 0.984 . S
H941 N935 0.985 . S
H942 N939 0.984 . S
H943 N939 0.985 . S
H944 N938 0.984 . S
H945 N938 0.984 . S
H946 N934 0.984 . S
H947 N934 0.985 . S
C409 C349 0.945 . S
C411 C9 0.945 . S
C427 C43 0.945 . S
C429 C383 0.945 . S
C445 C77 0.945 . S
C447 C213 0.945 . S
C463 C111 0.945 . S
C465 C247 0.945 . S
C481 C145 0.945 . S
C483 C281 0.945 . S
C499 C179 0.945 . S
C501 C315 0.945 . S
C517 C33 1.422 . S
C519 C305 1.422 . S
C535 C339 1.422 . S
C537 C67 1.422 . S
C553 C101 1.422 . S
C555 C373 1.422 . S
C571 C135 1.422 . S
C573 C407 1.422 . S
C589 C169 1.422 . S
C591 C237 1.422 . S
C607 C203 1.422 . S
C609 C271 1.422 . S
C625 C379 1.585 1_455 S
C627 C5 1.585 1_655 S
C643 C209 1.585 1_545 S
C645 C39 1.585 1_565 S
C661 C243 1.585 . S
C663 C73 1.585 . S
C679 C107 1.585 1_455 S
C681 C277 1.585 1_655 S
C697 C141 1.585 1_545 S
C699 C311 1.585 1_565 S
C715 C345 1.585 . S
C717 C175 1.585 . S
C733 C172 2.088 . S
C735 C20 2.069 . S
C751 C2 2.088 . S
C753 C54 2.069 . S
C769 C88 2.069 . S
C771 C36 2.088 . S
C787 C70 2.088 . S
C789 C122 2.069 . S
C805 C156 2.069 . S
C807 C104 2.088 . S
C823 C190 2.069 . S
C825 C138 2.088 . S
C841 C240 2.088 . S
C843 C224 2.069 . S
C859 C258 2.069 . S
C861 C274 2.088 . S
C877 C292 2.069 . S
C879 C308 2.088 . S
C895 C342 2.088 . S
C897 C326 2.069 . S
C913 C376 2.088 . S
C915 C360 2.069 . S
C931 C394 2.069 . S
C933 C206 2.088 . S
