# Generated by pormake.
# Topology fnt, (5)-cn, num edge types: 1
# Building blocks:
#     Node 0, Type 0, BuildingBlock: XOMCOT_clean_sbu_0, # of connection points: 5
#     Node 1, Type 0, BuildingBlock: XOMCOT_clean_sbu_0, # of connection points: 5
#     Node 2, Type 0, BuildingBlock: XOMCOT_clean_sbu_0, # of connection points: 5
#     Node 3, Type 0, BuildingBlock: XOMCOT_clean_sbu_0, # of connection points: 5
#     Node 4, Type 0, BuildingBlock: XOMCOT_clean_sbu_0, # of connection points: 5
#     Node 5, Type 0, BuildingBlock: XOMCOT_clean_sbu_0, # of connection points: 5
#     Edge 6, Type (0, 0), BuildingBlock: FUNLAD_clean_linker_0, # of connection points: 2
#     Edge 7, Type (0, 0), BuildingBlock: FUNLAD_clean_linker_0, # of connection points: 2
#     Edge 8, Type (0, 0), BuildingBlock: FUNLAD_clean_linker_0, # of connection points: 2
#     Edge 9, Type (0, 0), BuildingBlock: FUNLAD_clean_linker_0, # of connection points: 2
#     Edge 10, Type (0, 0), BuildingBlock: FUNLAD_clean_linker_0, # of connection points: 2
#     Edge 11, Type (0, 0), BuildingBlock: FUNLAD_clean_linker_0, # of connection points: 2
#     Edge 12, Type (0, 0), BuildingBlock: FUNLAD_clean_linker_0, # of connection points: 2
#     Edge 13, Type (0, 0), BuildingBlock: FUNLAD_clean_linker_0, # of connection points: 2
#     Edge 14, Type (0, 0), BuildingBlock: FUNLAD_clean_linker_0, # of connection points: 2
#     Edge 15, Type (0, 0), BuildingBlock: FUNLAD_clean_linker_0, # of connection points: 2
#     Edge 16, Type (0, 0), BuildingBlock: FUNLAD_clean_linker_0, # of connection points: 2
#     Edge 17, Type (0, 0), BuildingBlock: FUNLAD_clean_linker_0, # of connection points: 2
#     Edge 18, Type (0, 0), BuildingBlock: FUNLAD_clean_linker_0, # of connection points: 2
#     Edge 19, Type (0, 0), BuildingBlock: FUNLAD_clean_linker_0, # of connection points: 2
#     Edge 20, Type (0, 0), BuildingBlock: FUNLAD_clean_linker_0, # of connection points: 2
# Relax obj value: 0.136
# Max RMSD: 0.164
# Mean RMSD: 0.164
data_MOF--net-fnt--node1-XOMCOT_clean_sbu_0--edge1-FUNLAD_clean_linker_0
_symmetry_space_group_name_H-M    P1
_symmetry_Int_Tables_number       1
_symmetry_cell_setting            triclinic
loop_
_symmetry_equiv_pos_as_xyz
'x, y, z'
_cell_length_a     32.000894
_cell_length_b     32.154971
_cell_length_c     54.319984
_cell_angle_alpha  90.098094
_cell_angle_beta   90.132767
_cell_angle_gamma 120.49116
loop_
_atom_site_label
_atom_site_type_symbol
_atom_site_fract_x
_atom_site_fract_y
_atom_site_fract_z
_atom_type_partial_charge
Co0 Co 0.17064 0.29763 0.04152 0.0
C1 C 0.1485 0.2826 0.09521 0.0
C2 C 0.21745 0.34569 0.08822 0.0
C3 C 0.20782 0.34386 0.113 0.0
N4 N 0.1803 0.30723 0.07697 0.0
N5 N 0.16425 0.30434 0.11736 0.0
H6 H 0.11293 0.25144 0.09219 0.0
H7 H 0.24813 0.37487 0.07897 0.0
C8 C 0.27208 0.35431 1.01895 0.0
O9 O 0.25423 0.3484 0.99664 0.0
N10 N 0.15941 0.28689 1.00631 0.0
C11 C 0.13047 0.29656 0.99236 0.0
C12 C 0.12791 0.27878 0.96899 0.0
C13 C 0.17206 0.26124 0.99151 0.0
N14 N 0.15438 0.25689 0.96844 0.0
C15 C 0.12863 0.3533 0.05449 0.0
C16 C 0.17874 0.42899 1.02219 0.0
C17 C 0.1424 0.42791 0.03694 0.0
C18 C 0.11782 0.38998 0.05352 0.0
C19 C 0.18943 0.39196 1.02424 0.0
N20 N 0.1638 0.35425 0.03996 0.0
H21 H 0.10762 0.3232 0.06658 0.0
H22 H 0.21644 0.39272 1.01229 0.0
H23 H 0.11161 0.31444 0.99876 0.0
H24 H 0.19412 0.24643 0.99752 0.0
O25 O 0.10335 0.25014 0.04587 0.0
O26 O 0.16316 0.23419 0.04467 0.0
O27 O 0.24402 0.33762 0.03764 0.0
C28 C 0.11679 0.21822 0.04649 0.0
H29 H 0.23044 0.37063 0.12656 0.0
H30 H 0.10845 0.28221 0.95355 0.0
H31 H 0.19808 0.45771 1.009 0.0
H32 H 0.08891 0.38756 0.06491 0.0
Co33 Co 0.86343 0.17238 0.37051 0.0
C34 C 0.84277 0.13937 0.42218 0.0
C35 C 0.90103 0.21287 0.41952 0.0
C36 C 0.89484 0.1995 0.44391 0.0
N37 N 0.86834 0.1752 0.40598 0.0
N38 N 0.85828 0.15324 0.44557 0.0
H39 H 0.81449 0.10353 0.41683 0.0
H40 H 0.92815 0.24735 0.41215 0.0
C41 C 0.86875 0.26437 0.35636 0.0
O42 O 0.83113 0.23915 0.34196 0.0
N43 N 0.86025 0.17024 0.3344 0.0
C44 C 0.82187 0.15519 0.31903 0.0
C45 C 0.83746 0.16015 0.29507 0.0
C46 C 0.89867 0.18467 0.3192 0.0
N47 N 0.8858 0.17851 0.29516 0.0
C48 C 0.76274 0.10576 0.36679 0.0
C49 C 0.73114 0.15829 0.393 0.0
C50 C 0.69732 0.11114 0.38542 0.0
C51 C 0.7138 0.08501 0.37211 0.0
C52 C 0.78021 0.17799 0.38709 0.0
N53 N 0.79528 0.15203 0.37366 0.0
H54 H 0.77462 0.08426 0.35711 0.0
H55 H 0.80625 0.21318 0.39426 0.0
H56 H 0.78507 0.1433 0.3243 0.0
H57 H 0.93548 0.19907 0.32559 0.0
O58 O 0.85593 0.1094 0.3709 0.0
O59 O 0.92663 0.17773 0.36916 0.0
O60 O 0.88507 0.24314 0.36976 0.0
C61 C 0.90275 0.13069 0.36967 0.0
H62 H 0.91585 0.22215 0.4592 0.0
H63 H 0.81489 0.15191 0.27884 0.0
H64 H 0.71996 0.17941 0.40369 0.0
H65 H 0.68931 0.04798 0.36655 0.0
Co66 Co 0.6841 0.86815 0.7033 0.0
C67 C 0.70454 0.84559 0.75337 0.0
C68 C 0.69063 0.90428 0.75348 0.0
C69 C 0.70026 0.89673 0.77722 0.0
N70 N 0.69302 0.87207 0.73861 0.0
N71 N 0.70896 0.85978 0.7772 0.0
H72 H 0.70921 0.81643 0.74678 0.0
H73 H 0.68313 0.93187 0.74743 0.0
C74 C 0.59022 0.86723 0.69822 0.0
O75 O 0.57254 0.82692 0.68562 0.0
N76 N 0.67554 0.86609 0.66738 0.0
C77 C 0.64355 0.82935 0.65286 0.0
C78 C 0.6486 0.84494 0.62893 0.0
C79 C 0.69916 0.90374 0.6517 0.0
N80 N 0.68358 0.89175 0.62819 0.0
C81 C 0.65135 0.7696 0.69497 0.0
C82 C 0.57469 0.73094 0.72759 0.0
C83 C 0.58653 0.70006 0.71507 0.0
C84 C 0.62539 0.72011 0.69863 0.0
C85 C 0.60149 0.78078 0.72307 0.0
N86 N 0.6386 0.79932 0.70643 0.0
H87 H 0.68205 0.78426 0.68268 0.0
H88 H 0.59351 0.80458 0.73348 0.0
H89 H 0.6166 0.79376 0.65889 0.0
H90 H 0.72622 0.93978 0.65738 0.0
O91 O 0.74102 0.86337 0.69943 0.0
O92 O 0.74124 0.93233 0.70085 0.0
O93 O 0.63314 0.88711 0.70711 0.0
C94 C 0.76567 0.91008 0.69881 0.0
H95 H 0.70189 0.91773 0.79316 0.0
H96 H 0.62779 0.82336 0.61332 0.0
H97 H 0.54545 0.71681 0.74083 0.0
H98 H 0.63675 0.69782 0.68916 0.0
Co99 Co 0.81307 0.69687 0.04227 0.0
C100 C 0.82892 0.70515 0.09664 0.0
C101 C 0.76345 0.64031 0.08663 0.0
C102 C 0.77071 0.63956 0.11158 0.0
N103 N 0.79993 0.68152 0.07715 0.0
N104 N 0.81211 0.68022 0.11786 0.0
H105 H 0.86341 0.7383 0.09517 0.0
H106 H 0.73481 0.61131 0.07609 0.0
C107 C 0.71848 0.62969 1.01499 0.0
O108 O 0.74113 0.63869 0.99385 0.0
N109 N 0.82769 0.71339 1.00772 0.0
C110 C 0.86171 0.71097 0.99425 0.0
C111 C 0.86212 0.72799 0.97098 0.0
C112 C 0.80963 0.73417 0.99279 0.0
N113 N 0.82899 0.74213 0.96995 0.0
C114 C 0.87224 0.65818 0.054 0.0
C115 C 0.83492 0.58236 1.02091 0.0
C116 C 0.87652 0.59303 0.0345 0.0
C117 C 0.89442 0.63085 0.05159 0.0
C118 C 0.81338 0.61058 1.02408 0.0
N119 N 0.83301 0.64896 0.03997 0.0
H120 H 0.88805 0.68823 0.06666 0.0
H121 H 0.7825 0.60239 1.01296 0.0
H122 H 0.88513 0.69826 1.00088 0.0
H123 H 0.78127 0.74113 0.9983 0.0
O124 O 0.87554 0.75146 0.04979 0.0
O125 O 0.80772 0.75396 0.04685 0.0
O126 O 0.74202 0.64811 0.03501 0.0
C127 C 0.85439 0.77678 0.05084 0.0
H128 H 0.74793 0.61046 0.12395 0.0
H129 H 0.88547 0.73015 0.95606 0.0
H130 H 0.81968 0.55307 1.00766 0.0
H131 H 0.92681 0.64089 0.06229 0.0
Co132 Co 0.09443 0.80539 0.37881 0.0
C133 C 0.11694 0.83911 0.43039 0.0
C134 C 0.05624 0.76679 0.42791 0.0
C135 C 0.0638 0.78058 0.45229 0.0
N136 N 0.08963 0.80346 0.41426 0.0
N137 N 0.10192 0.82612 0.45385 0.0
H138 H 0.14631 0.8742 0.42493 0.0
H139 H 0.0279 0.73268 0.42063 0.0
C140 C 0.08365 0.71056 0.36474 0.0
O141 O 0.11898 0.73322 0.34888 0.0
N142 N 0.09792 0.80704 0.34273 0.0
C143 C 0.13679 0.82225 0.32784 0.0
C144 C 0.12205 0.8179 0.30371 0.0
C145 C 0.06 0.79316 0.32708 0.0
N146 N 0.07376 0.79982 0.30319 0.0
C147 C 0.19575 0.86994 0.37661 0.0
C148 C 0.22429 0.81316 0.40117 0.0
C149 C 0.25906 0.86086 0.39526 0.0
C150 C 0.2443 0.88905 0.38259 0.0
C151 C 0.17557 0.79537 0.39496 0.0
N152 N 0.16199 0.82347 0.38237 0.0
H153 H 0.18525 0.89282 0.36725 0.0
H154 H 0.14871 0.75996 0.40134 0.0
H155 H 0.17339 0.83406 0.33356 0.0
H156 H 0.02302 0.779 0.33302 0.0
O157 O 0.1039 0.86924 0.37908 0.0
O158 O 0.03223 0.80203 0.37699 0.0
O159 O 0.07053 0.73414 0.37846 0.0
C160 C 0.05714 0.84904 0.37778 0.0
H161 H 0.04273 0.75863 0.46765 0.0
H162 H 0.14518 0.82649 0.28776 0.0
H163 H 0.23435 0.79058 0.41133 0.0
H164 H 0.27012 0.92589 0.3774 0.0
Co165 Co 0.28806 0.10379 0.7123 0.0
C166 C 0.27335 0.12126 0.7641 0.0
C167 C 0.28257 0.05989 0.76039 0.0
C168 C 0.27535 0.06546 0.78487 0.0
N169 N 0.28153 0.09501 0.74748 0.0
N170 N 0.26954 0.10406 0.7872 0.0
H171 H 0.27056 0.15242 0.75933 0.0
H172 H 0.28756 0.0318 0.75251 0.0
C173 C 0.37512 0.09687 0.69988 0.0
O174 O 0.38975 0.13512 0.68597 0.0
N175 N 0.29372 0.11083 0.67649 0.0
C176 C 0.31611 0.15077 0.6623 0.0
C177 C 0.31018 0.13715 0.63791 0.0
C178 C 0.27493 0.07363 0.66029 0.0
N179 N 0.28411 0.08862 0.63666 0.0
C180 C 0.32492 0.20464 0.71295 0.0
C181 C 0.40886 0.23157 0.73934 0.0
C182 C 0.39573 0.26607 0.7341 0.0
C183 C 0.35349 0.25222 0.72061 0.0
C184 C 0.37852 0.18366 0.73163 0.0
N185 N 0.33762 0.17092 0.71806 0.0
H186 H 0.29199 0.19483 0.70296 0.0
H187 H 0.38681 0.15665 0.73762 0.0
H188 H 0.33671 0.18752 0.66868 0.0
H189 H 0.25561 0.03611 0.6657 0.0
O190 O 0.23313 0.11274 0.7117 0.0
O191 O 0.22846 0.04196 0.70808 0.0
O192 O 0.33596 0.08048 0.71223 0.0
C193 C 0.20622 0.06648 0.70888 0.0
H194 H 0.27341 0.04212 0.7997 0.0
H195 H 0.32375 0.16129 0.62231 0.0
H196 H 0.44101 0.24109 0.75014 0.0
H197 H 0.34234 0.27803 0.71618 0.0
C198 C 0.3559 0.39759 1.00165 0.0
C199 C 0.32544 0.38334 1.02232 0.0
C200 C 0.40607 0.42649 1.00428 0.0
C201 C 0.42726 0.44265 1.02769 0.0
C202 C 0.397 0.42708 0.04845 0.0
C203 C 0.3466 0.39776 0.04582 0.0
C204 C 0.48066 0.4748 1.03097 0.0
C205 C 0.50942 0.50449 1.01306 0.0
C206 C 0.56308 0.53552 1.01477 0.0
C207 C 0.58928 0.55086 0.99273 0.0
C208 C 0.63953 0.58086 0.99296 0.0
C209 C 0.66511 0.59694 1.01531 0.0
H210 H 0.56952 0.54134 0.05466 0.0
C211 C 0.63902 0.58196 0.0375 0.0
C212 C 0.58846 0.55141 0.03726 0.0
H213 H 0.65753 0.594 0.05504 0.0
H214 H 0.34105 0.38637 0.98329 0.0
H215 H 0.42794 0.43548 0.98784 0.0
H216 H 0.41231 0.43823 0.06674 0.0
H217 H 0.32431 0.38698 0.06217 0.0
H218 H 0.49622 0.47399 0.04861 0.0
H219 H 0.49324 0.50572 0.9957 0.0
H220 H 0.57077 0.53945 0.97513 0.0
H221 H 0.65822 0.59178 0.97548 0.0
C222 C 0.92746 0.34508 0.37475 0.0
C223 C 0.89292 0.31765 0.35658 0.0
C224 C 0.9515 0.39553 0.3743 0.0
C225 C 0.94163 0.41951 0.35555 0.0
C226 C 0.90722 0.39206 0.33741 0.0
C227 C 0.88278 0.3417 0.33803 0.0
C228 C 0.96817 0.47293 0.35361 0.0
C229 C 0.98575 0.50263 0.37323 0.0
C230 C 0.01155 0.55595 0.37083 0.0
C231 C 0.00708 0.58358 0.38954 0.0
C232 C 0.03038 0.63381 0.38757 0.0
C233 C 0.05949 0.6575 0.36705 0.0
H234 H 0.04651 0.55956 0.33603 0.0
C235 C 0.065 0.62992 0.34864 0.0
C236 C 0.04118 0.57967 0.35045 0.0
H237 H 0.08735 0.6471 0.33266 0.0
H238 H 0.93622 0.32761 0.38924 0.0
H239 H 0.97867 0.41556 0.38824 0.0
H240 H 0.89921 0.40965 0.32267 0.0
H241 H 0.85663 0.32167 0.32365 0.0
H242 H 0.97111 0.48818 0.33541 0.0
H243 H 0.97858 0.48761 0.39167 0.0
H244 H 0.98487 0.56618 0.40553 0.0
H245 H 0.02574 0.65407 0.40218 0.0
C246 C 0.38779 0.02993 0.71455 0.0
C247 C 0.4049 0.0736 0.70176 0.0
C248 C 0.41563 0.00761 0.71582 0.0
C249 C 0.46127 0.02856 0.70434 0.0
C250 C 0.47872 0.0727 0.69207 0.0
C251 C 0.45078 0.0948 0.69063 0.0
C252 C 0.49203 0.00603 0.70504 0.0
C253 C 0.47386 0.95807 0.70703 0.0
C254 C 0.50438 0.93533 0.70576 0.0
C255 C 0.48359 0.8879 0.69683 0.0
C256 C 0.51132 0.8657 0.69461 0.0
C257 C 0.56044 0.89017 0.70166 0.0
H258 H 0.57019 -0.00442 0.72104 0.0
C259 C 0.58093 0.93714 0.71136 0.0
C260 C 0.55326 0.95953 0.71336 0.0
H261 H 0.61857 0.9569 0.71713 0.0
H262 H 0.35276 0.0128 0.7235 0.0
H263 H 0.40149 0.97435 0.72607 0.0
H264 H 0.51389 0.08989 0.68325 0.0
H265 H 0.46527 0.12856 0.68077 0.0
H266 H 0.53064 0.02958 0.70198 0.0
H267 H 0.43482 0.93403 0.70768 0.0
H268 H 0.44593 0.86821 0.69108 0.0
H269 H 0.49423 0.82937 0.68724 0.0
C270 C 0.5536 0.6287 0.74346 0.0
C271 C 0.56076 0.64732 0.71947 0.0
C272 C 0.53645 0.5795 0.74723 0.0
C273 C 0.52594 0.54819 0.72699 0.0
C274 C 0.53135 0.56676 0.70311 0.0
C275 C 0.54832 0.61561 0.69939 0.0
C276 C 0.51129 0.49656 0.72958 0.0
C277 C 0.49107 0.46991 0.74987 0.0
C278 C 0.47145 0.41705 0.74963 0.0
C279 C 0.42626 0.38664 0.76046 0.0
C280 C 0.40284 0.33681 0.7567 0.0
C281 C 0.42482 0.31658 0.74255 0.0
H282 H 0.53052 0.41906 0.72902 0.0
C283 C 0.47186 0.34646 0.73358 0.0
C284 C 0.49502 0.39644 0.73702 0.0
H285 H 0.48938 0.33152 0.72261 0.0
H286 H 0.56355 0.65252 0.75926 0.0
H287 H 0.53346 0.56676 0.76592 0.0
H288 H 0.52324 0.54351 0.68719 0.0
H289 H 0.55308 0.62892 0.68069 0.0
H290 H 0.51436 0.47875 0.71322 0.0
H291 H 0.48319 0.48548 0.76566 0.0
H292 H 0.40763 0.40163 0.77044 0.0
H293 H 0.36654 0.31423 0.76384 0.0
C294 C 0.92422 0.5565 0.05004 0.0
C295 C 0.90366 0.56766 1.0301 0.0
C296 C 0.95634 0.54 0.04603 0.0
C297 C 0.96861 0.53424 1.02194 0.0
C298 C 0.94555 0.54208 1.002 0.0
C299 C 0.91354 0.55902 1.00602 0.0
C300 C 0.00476 0.51927 1.0175 0.0
C301 C 0.04377 0.53424 0.03225 0.0
C302 C 0.07603 0.51371 1.03156 0.0
C303 C 0.09842 0.51261 0.05359 0.0
C304 C 0.12303 0.48725 0.05495 0.0
C305 C 0.12656 0.4634 0.03412 0.0
H306 H 0.06714 0.49425 0.99275 0.0
C307 C 0.10783 0.46783 1.01153 0.0
C308 C 0.08256 0.49273 1.01023 0.0
H309 H 0.11013 0.44957 0.99526 0.0
H310 H 0.91631 0.56159 0.06882 0.0
H311 H 0.97173 0.53205 0.06184 0.0
H312 H 0.95376 0.53693 0.98329 0.0
H313 H 0.89835 0.56743 0.99028 0.0
H314 H -0.00178 0.49479 1.00227 0.0
H315 H 0.04975 0.55938 0.04711 0.0
H316 H 0.09445 0.529 0.0702 0.0
H317 H 0.13736 0.48433 0.07254 0.0
C318 C 0.33625 0.92899 0.412 0.0
C319 C 0.31075 0.88219 0.40201 0.0
C320 C 0.38662 0.95326 0.41416 0.0
C321 C 0.4126 0.93102 0.40648 0.0
C322 C 0.38665 0.88296 0.3981 0.0
C323 C 0.33612 0.85863 0.39597 0.0
C324 C 0.46618 0.95845 0.40373 0.0
C325 C 0.49572 0.00253 0.41347 0.0
C326 C 0.54716 0.03213 0.406 0.0
C327 C 0.58215 0.06377 0.42293 0.0
C328 C 0.63099 0.09104 0.41611 0.0
C329 C 0.64535 0.08751 0.39212 0.0
H330 H 0.53493 0.00817 0.36787 0.0
C331 C 0.60978 0.05786 0.37487 0.0
C332 C 0.5613 0.03047 0.38171 0.0
H333 H 0.61955 0.05534 0.35607 0.0
H334 H 0.31735 0.9477 0.41708 0.0
H335 H 0.40479 0.99029 0.42046 0.0
H336 H 0.40569 0.86493 0.39203 0.0
H337 H 0.31728 0.82259 0.38818 0.0
H338 H 0.48178 0.94242 0.392 0.0
H339 H 0.48242 0.01766 0.4271 0.0
H340 H 0.5719 0.06633 0.44162 0.0
H341 H 0.65762 0.11346 0.42983 0.0
C342 C 0.09476 0.13207 0.05174 0.0
C343 C 0.08051 0.16644 0.04875 0.0
C344 C 0.0599 0.083 0.05325 0.0
C345 C 0.01012 0.06749 0.05175 0.0
C346 C -0.00394 0.10192 0.0486 0.0
C347 C 0.03083 0.15091 0.04733 0.0
C348 C 0.97221 0.01564 0.0519 0.0
C349 C 0.9775 0.98231 0.06419 0.0
C350 C 0.94296 0.92955 0.06234 0.0
C351 C 0.96033 0.89848 0.06795 0.0
C352 C 0.93093 0.84884 0.06473 0.0
C353 C 0.88314 0.82894 0.05607 0.0
H354 H 0.87896 0.93205 0.05091 0.0
C355 C 0.86465 0.85954 0.05156 0.0
C356 C 0.89432 0.90953 0.05465 0.0
H357 H 0.82777 0.84502 0.04508 0.0
H358 H 0.1328 0.143 0.05271 0.0
H359 H 0.07217 0.05735 0.05488 0.0
H360 H 0.95803 0.09088 0.04713 0.0
H361 H 0.01869 0.17655 0.04487 0.0
H362 H 0.93959 0.0051 0.04125 0.0
H363 H 0.01016 -0.00617 0.07505 0.0
H364 H -0.00263 0.91275 0.07416 0.0
H365 H 0.94605 0.8261 0.06868 0.0
C366 C 0.06341 0.92918 0.37976 0.0
C367 C 0.03433 0.87887 0.3772 0.0
C368 C 0.04284 0.9583 0.37906 0.0
C369 C -0.00736 0.93773 0.37553 0.0
C370 C 0.96343 0.88732 0.3734 0.0
C371 C 0.9841 0.85807 0.37413 0.0
C372 C 0.96942 0.96753 0.37481 0.0
C373 C -0.007 0.01446 0.36827 0.0
C374 C 0.96953 0.04407 0.36788 0.0
C375 C -0.00168 0.09445 0.37047 0.0
C376 C 0.97702 0.12319 0.37082 0.0
C377 C 0.92657 0.10183 0.36852 0.0
H378 H 0.8959 0.98485 0.36149 0.0
C379 C 0.89802 0.05167 0.36519 0.0
C380 C 0.91922 0.02314 0.36468 0.0
H381 H 0.85907 0.03423 0.36287 0.0
H382 H 0.10224 0.94625 0.38248 0.0
H383 H 0.06643 -0.00329 0.38176 0.0
H384 H 0.92456 0.87056 0.37094 0.0
H385 H 0.96084 0.81936 0.37221 0.0
H386 H 0.93136 0.9496 0.37975 0.0
H387 H 0.0311 0.03246 0.3634 0.0
H388 H 0.03728 0.11152 0.37263 0.0
H389 H -0.00014 0.16184 0.37323 0.0
C390 C 0.13175 0.07254 0.70952 0.0
C391 C 0.1531 0.04392 0.70669 0.0
C392 C 0.0817 0.05231 0.70748 0.0
C393 C 0.05171 0.00286 0.7023 0.0
C394 C 0.07305 0.97413 0.69973 0.0
C395 C 0.12332 -0.00554 0.70183 0.0
C396 C -0.00192 0.97962 0.70051 0.0
C397 C 0.97457 0.00378 0.69588 0.0
C398 C 0.92083 0.97995 0.69508 0.0
C399 C 0.89863 0.00712 0.70037 0.0
C400 C 0.84799 0.98503 0.701 0.0
C401 C 0.81886 0.93542 0.69627 0.0
H402 H 0.90682 0.909 0.68385 0.0
C403 C 0.84108 0.90882 0.68993 0.0
C404 C 0.89139 0.9308 0.68916 0.0
H405 H 0.81957 0.87065 0.68568 0.0
H406 H 0.15368 0.11075 0.71356 0.0
H407 H 0.06694 0.07557 0.71051 0.0
H408 H 0.05077 0.93583 0.69598 0.0
H409 H 0.13878 0.97153 0.69961 0.0
H410 H 0.97745 0.94088 0.70331 0.0
H411 H -0.00514 0.04256 0.69325 0.0
H412 H 0.9205 0.04524 0.70463 0.0
H413 H 0.83178 0.00643 0.7058 0.0
C414 C 0.20796 0.23656 0.94505 0.0
C415 C 0.16391 0.23598 0.94721 0.0
C416 C 0.21859 0.21925 0.92371 0.0
C417 C 0.18502 0.20037 0.9041 0.0
C418 C 0.14079 0.19933 0.90648 0.0
C419 C 0.13033 0.21684 0.92774 0.0
C420 C 0.19516 0.18337 0.8805 0.0
C421 C 0.23049 0.17261 0.87754 0.0
C422 C 0.24009 0.15563 0.85382 0.0
C423 C 0.26471 0.12987 0.85434 0.0
C424 C 0.2745 0.1132 0.83256 0.0
C425 C 0.26024 0.1222 0.80962 0.0
H426 H 0.20899 0.18659 0.82944 0.0
C427 C 0.23646 0.14888 0.80902 0.0
C428 C 0.22661 0.16553 0.83082 0.0
H429 H 0.22485 0.15645 0.79173 0.0
H430 H 0.235 0.25193 0.95951 0.0
H431 H 0.25368 0.22214 0.92256 0.0
H432 H 0.11422 0.18516 0.89174 0.0
H433 H 0.09589 0.21546 0.9289 0.0
H434 H 0.17112 0.178 0.86516 0.0
H435 H 0.25206 0.17396 0.89328 0.0
H436 H 0.27618 0.12227 0.8717 0.0
H437 H 0.2937 0.09362 0.83375 0.0
C438 C 0.10078 0.2437 0.14476 0.0
C439 C 0.13718 0.29164 0.14009 0.0
C440 C 0.07312 0.2318 0.16631 0.0
C441 C 0.08097 0.26778 0.18363 0.0
C442 C 0.11808 0.31541 0.17917 0.0
C443 C 0.14572 0.32725 0.15769 0.0
C444 C 0.05199 0.25745 0.20664 0.0
C445 C 0.00762 0.21819 0.2098 0.0
C446 C 0.97749 0.209 0.23232 0.0
C447 C 0.92761 0.17529 0.23088 0.0
C448 C 0.89771 0.1654 0.25138 0.0
C449 C 0.91689 0.18886 0.274 0.0
H450 H 0.0353 0.25724 0.25733 0.0
C451 C 0.96697 0.22221 0.27557 0.0
C452 C -0.00305 0.23203 0.25505 0.0
H453 H 0.98314 0.24117 0.29258 0.0
H454 H 0.09388 0.21523 0.13184 0.0
H455 H 0.04615 0.19434 0.16932 0.0
H456 H 0.12526 0.34389 0.19218 0.0
H457 H 0.17299 0.36462 0.15467 0.0
H458 H 0.06696 0.28503 0.22084 0.0
H459 H -0.00892 0.1926 0.19478 0.0
H460 H 0.91155 0.15653 0.21376 0.0
H461 H 0.85959 0.13883 0.24951 0.0
C462 C 0.79357 0.08497 0.46913 0.0
C463 C 0.84126 0.1243 0.46761 0.0
C464 C 0.77727 0.05699 0.49053 0.0
C465 C 0.80838 0.06782 0.51098 0.0
C466 C 0.85614 0.10674 0.50927 0.0
C467 C 0.87232 0.13474 0.48796 0.0
C468 C 0.79336 0.03875 0.53405 0.0
C469 C 0.74685 0.01065 0.54118 0.0
C470 C 0.73189 0.98111 0.56409 0.0
C471 C 0.6843 0.94183 0.56562 0.0
C472 C 0.6685 0.91279 0.5866 0.0
C473 C 0.69979 0.92253 0.60677 0.0
H474 H 0.79956 0.02222 0.58449 0.0
C475 C 0.74716 0.96247 0.60553 0.0
C476 C 0.76307 0.9915 0.58447 0.0
H477 H 0.77223 0.97097 0.62071 0.0
H478 H 0.76867 0.07598 0.45383 0.0
H479 H 0.74063 0.02654 0.49067 0.0
H480 H 0.88113 0.11567 0.52455 0.0
H481 H 0.90953 0.16414 0.48732 0.0
H482 H 0.82225 0.04125 0.5456 0.0
H483 H 0.71795 0.00814 0.52962 0.0
H484 H 0.65924 0.93324 0.5504 0.0
H485 H 0.63151 0.88294 0.58706 0.0
C486 C 0.70812 0.84662 0.82217 0.0
C487 C 0.72142 0.84079 0.79829 0.0
C488 C 0.72158 0.82998 0.84276 0.0
C489 C 0.74899 0.80719 0.84003 0.0
C490 C 0.76115 0.80019 0.81614 0.0
C491 C 0.74772 0.8169 0.79552 0.0
C492 C 0.76446 0.78917 0.86147 0.0
C493 C 0.7696 0.80676 0.8846 0.0
C494 C 0.78545 0.78942 0.90622 0.0
C495 C 0.77771 0.80134 0.93004 0.0
C496 C 0.79211 0.78617 0.95089 0.0
C497 C 0.815 0.75888 0.94848 0.0
H498 H 0.81701 0.75354 0.88597 0.0
C499 C 0.8233 0.74745 0.92464 0.0
C500 C 0.80894 0.76261 0.90381 0.0
H501 H 0.8404 0.72616 0.92196 0.0
H502 H 0.68676 0.86363 0.82501 0.0
H503 H 0.70965 0.83445 0.86066 0.0
H504 H 0.78181 0.78233 0.81341 0.0
H505 H 0.75882 0.81192 0.77749 0.0
H506 H 0.7726 0.76094 0.85765 0.0
H507 H 0.76177 0.83533 0.88816 0.0
H508 H 0.76019 0.82236 0.93256 0.0
H509 H 0.78565 0.79626 0.96888 0.0
C510 C 0.87017 0.73986 0.14795 0.0
C511 C 0.8365 0.69179 0.14149 0.0
C512 C 0.8953 0.75083 0.1704 0.0
C513 C 0.88763 0.71384 0.18691 0.0
C514 C 0.85313 0.66601 0.18068 0.0
C515 C 0.82803 0.65507 0.15828 0.0
C516 C 0.91426 0.72332 0.21079 0.0
C517 C 0.95742 0.76337 0.21548 0.0
C518 C 0.9859 0.7718 0.23866 0.0
C519 C 0.03554 0.80658 0.2385 0.0
C520 C 0.06409 0.81573 0.25957 0.0
C521 C 0.04377 0.79051 0.28156 0.0
H522 H 0.92689 0.72091 0.26205 0.0
C523 C -0.00616 0.75627 0.28194 0.0
C524 C 0.96519 0.74705 0.26079 0.0
H525 H 0.9769 0.73611 0.29849 0.0
H526 H 0.8769 0.76915 0.13573 0.0
H527 H 0.9202 0.78836 0.17475 0.0
H528 H 0.84612 0.63673 0.19302 0.0
H529 H 0.80283 0.6176 0.15395 0.0
H530 H 0.89893 0.69457 0.22429 0.0
H531 H 0.97451 0.79027 0.20115 0.0
H532 H 0.05253 0.82668 0.22189 0.0
H533 H 0.1021 0.84305 0.25864 0.0
C534 C 0.22632 0.01339 0.61464 0.0
C535 C 0.26868 0.05913 0.61468 0.0
C536 C 0.21066 0.98541 0.59315 0.0
C537 C 0.23697 0.00263 0.57109 0.0
C538 C 0.27986 0.04783 0.57131 0.0
C539 C 0.29539 0.07588 0.59276 0.0
C540 C 0.22163 0.97422 0.54772 0.0
C541 C 0.17513 0.94083 0.54249 0.0
C542 C 0.15819 0.91201 0.51921 0.0
C543 C 0.10996 0.8737 0.51801 0.0
C544 C 0.09168 0.84565 0.49671 0.0
C545 C 0.1211 0.85517 0.47586 0.0
H546 H 0.22484 0.95122 0.49796 0.0
C547 C 0.16934 0.89365 0.4769 0.0
C548 C 0.18772 0.92179 0.49827 0.0
H549 H 0.19315 0.90185 0.46127 0.0
H550 H 0.20478 -0.00059 0.63115 0.0
H551 H 0.17829 0.95015 0.59407 0.0
H552 H 0.30125 0.0618 0.55472 0.0
H553 H 0.3286 0.11053 0.5922 0.0
H554 H 0.24982 0.98254 0.53432 0.0
H555 H 0.14735 0.93409 0.55593 0.0
H556 H 0.08609 0.86534 0.53367 0.0
H557 H 0.05415 0.81692 0.49653 0.0
loop_
_geom_bond_atom_site_label_1
_geom_bond_atom_site_label_2
_geom_bond_distance
_geom_bond_site_symmetry_2
_ccdc_geom_bond_type
Co0 N4 2.148 . S
Co0 N10 2.128 1_554 S
Co0 N20 2.194 . S
Co0 O25 2.351 . S
Co0 O26 2.155 . S
Co0 O27 2.096 . S
C1 N4 1.301 . S
C1 N5 1.328 . S
C1 H6 0.930 . S
C2 C3 1.333 . S
C2 N4 1.317 . S
C2 H7 0.930 . S
C3 C2 1.333 . S
C3 N5 1.350 . S
C3 H29 0.931 . S
N4 Co0 2.148 . S
N4 C1 1.301 . S
N4 C2 1.317 . S
N5 C1 1.328 . S
N5 C3 1.350 . S
H6 C1 0.930 . S
H7 C2 0.930 . S
C8 O9 1.224 . S
C8 O27 1.247 . S
O9 C8 1.224 . S
N10 Co0 2.128 1_556 S
N10 C11 1.355 . S
N10 C13 1.311 . S
C11 N10 1.355 . S
C11 C12 1.363 . S
C11 H23 0.929 . S
C12 C11 1.363 . S
C12 N14 1.375 . S
C12 H30 0.931 . S
C13 N10 1.311 . S
C13 N14 1.347 . S
C13 H24 0.929 . S
N14 C12 1.375 . S
N14 C13 1.347 . S
C15 C18 1.365 . S
C15 N20 1.328 . S
C15 H21 0.929 . S
C16 C17 1.360 1_554 S
C16 C19 1.385 . S
C16 H31 0.924 1_554 S
C17 C16 1.360 1_556 S
C17 C18 1.361 1_556 S
C18 C15 1.365 . S
C18 C17 1.361 1_554 S
C18 H32 0.930 . S
C19 C16 1.385 . S
C19 N20 1.315 . S
C19 H22 0.930 . S
N20 Co0 2.194 . S
N20 C15 1.328 . S
N20 C19 1.315 . S
H21 C15 0.929 . S
H22 C19 0.930 . S
H23 C11 0.929 . S
H24 C13 0.929 . S
O25 Co0 2.351 . S
O25 C28 1.244 . S
O26 Co0 2.155 . S
O26 C28 1.240 . S
O27 Co0 2.096 . S
O27 C8 1.247 . S
C28 O25 1.244 . S
C28 O26 1.240 . S
H29 C3 0.931 . S
H30 C12 0.931 . S
H31 C16 0.924 1_556 S
H32 C18 0.930 . S
Co33 N37 2.148 . S
Co33 N43 2.128 . S
Co33 N53 2.194 . S
Co33 O58 2.351 . S
Co33 O59 2.155 . S
Co33 O60 2.096 . S
C34 N37 1.301 . S
C34 N38 1.328 . S
C34 H39 0.930 . S
C35 C36 1.333 . S
C35 N37 1.317 . S
C35 H40 0.930 . S
C36 C35 1.333 . S
C36 N38 1.350 . S
C36 H62 0.931 . S
N37 Co33 2.148 . S
N37 C34 1.301 . S
N37 C35 1.317 . S
N38 C34 1.328 . S
N38 C36 1.350 . S
H39 C34 0.930 . S
H40 C35 0.930 . S
C41 O42 1.224 . S
C41 O60 1.247 . S
O42 C41 1.224 . S
N43 Co33 2.128 . S
N43 C44 1.355 . S
N43 C46 1.311 . S
C44 N43 1.355 . S
C44 C45 1.363 . S
C44 H56 0.929 . S
C45 C44 1.363 . S
C45 N47 1.375 . S
C45 H63 0.931 . S
C46 N43 1.311 . S
C46 N47 1.347 . S
C46 H57 0.929 . S
N47 C45 1.375 . S
N47 C46 1.347 . S
C48 C51 1.365 . S
C48 N53 1.328 . S
C48 H54 0.929 . S
C49 C50 1.362 . S
C49 C52 1.378 . S
C49 H64 0.929 . S
C50 C49 1.362 . S
C50 C51 1.366 . S
C51 C48 1.365 . S
C51 C50 1.366 . S
C51 H65 0.930 . S
C52 C49 1.378 . S
C52 N53 1.315 . S
C52 H55 0.930 . S
N53 Co33 2.194 . S
N53 C48 1.328 . S
N53 C52 1.315 . S
H54 C48 0.929 . S
H55 C52 0.930 . S
H56 C44 0.929 . S
H57 C46 0.929 . S
O58 Co33 2.351 . S
O58 C61 1.244 . S
O59 Co33 2.155 . S
O59 C61 1.240 . S
O60 Co33 2.096 . S
O60 C41 1.247 . S
C61 O58 1.244 . S
C61 O59 1.240 . S
H62 C36 0.931 . S
H63 C45 0.931 . S
H64 C49 0.929 . S
H65 C51 0.930 . S
Co66 N70 2.148 . S
Co66 N76 2.128 . S
Co66 N86 2.194 . S
Co66 O91 2.351 . S
Co66 O92 2.155 . S
Co66 O93 2.096 . S
C67 N70 1.301 . S
C67 N71 1.328 . S
C67 H72 0.930 . S
C68 C69 1.333 . S
C68 N70 1.317 . S
C68 H73 0.930 . S
C69 C68 1.333 . S
C69 N71 1.350 . S
C69 H95 0.931 . S
N70 Co66 2.148 . S
N70 C67 1.301 . S
N70 C68 1.317 . S
N71 C67 1.328 . S
N71 C69 1.350 . S
H72 C67 0.930 . S
H73 C68 0.930 . S
C74 O75 1.224 . S
C74 O93 1.247 . S
O75 C74 1.224 . S
N76 Co66 2.128 . S
N76 C77 1.355 . S
N76 C79 1.311 . S
C77 N76 1.355 . S
C77 C78 1.363 . S
C77 H89 0.929 . S
C78 C77 1.363 . S
C78 N80 1.375 . S
C78 H96 0.931 . S
C79 N76 1.311 . S
C79 N80 1.347 . S
C79 H90 0.929 . S
N80 C78 1.375 . S
N80 C79 1.347 . S
C81 C84 1.365 . S
C81 N86 1.328 . S
C81 H87 0.929 . S
C82 C83 1.362 . S
C82 C85 1.378 . S
C82 H97 0.929 . S
C83 C82 1.362 . S
C83 C84 1.366 . S
C84 C81 1.365 . S
C84 C83 1.366 . S
C84 H98 0.930 . S
C85 C82 1.378 . S
C85 N86 1.315 . S
C85 H88 0.930 . S
N86 Co66 2.194 . S
N86 C81 1.328 . S
N86 C85 1.315 . S
H87 C81 0.929 . S
H88 C85 0.930 . S
H89 C77 0.929 . S
H90 C79 0.929 . S
O91 Co66 2.351 . S
O91 C94 1.244 . S
O92 Co66 2.155 . S
O92 C94 1.240 . S
O93 Co66 2.096 . S
O93 C74 1.247 . S
C94 O91 1.244 . S
C94 O92 1.240 . S
H95 C69 0.931 . S
H96 C78 0.931 . S
H97 C82 0.929 . S
H98 C84 0.930 . S
Co99 N103 2.148 . S
Co99 N109 2.128 1_554 S
Co99 N119 2.194 . S
Co99 O124 2.351 . S
Co99 O125 2.155 . S
Co99 O126 2.096 . S
C100 N103 1.301 . S
C100 N104 1.328 . S
C100 H105 0.930 . S
C101 C102 1.333 . S
C101 N103 1.317 . S
C101 H106 0.930 . S
C102 C101 1.333 . S
C102 N104 1.350 . S
C102 H128 0.931 . S
N103 Co99 2.148 . S
N103 C100 1.301 . S
N103 C101 1.317 . S
N104 C100 1.328 . S
N104 C102 1.350 . S
H105 C100 0.930 . S
H106 C101 0.930 . S
C107 O108 1.224 . S
C107 O126 1.247 . S
O108 C107 1.224 . S
N109 Co99 2.128 1_556 S
N109 C110 1.355 . S
N109 C112 1.311 . S
C110 N109 1.355 . S
C110 C111 1.363 . S
C110 H122 0.929 . S
C111 C110 1.363 . S
C111 N113 1.375 . S
C111 H129 0.931 . S
C112 N109 1.311 . S
C112 N113 1.347 . S
C112 H123 0.929 . S
N113 C111 1.375 . S
N113 C112 1.347 . S
C114 C117 1.365 . S
C114 N119 1.328 . S
C114 H120 0.929 . S
C115 C116 1.360 1_554 S
C115 C118 1.385 . S
C115 H130 0.924 1_554 S
C116 C115 1.360 1_556 S
C116 C117 1.361 1_556 S
C117 C114 1.365 . S
C117 C116 1.361 1_554 S
C117 H131 0.930 . S
C118 C115 1.385 . S
C118 N119 1.315 . S
C118 H121 0.930 . S
N119 Co99 2.194 . S
N119 C114 1.328 . S
N119 C118 1.315 . S
H120 C114 0.929 . S
H121 C118 0.930 . S
H122 C110 0.929 . S
H123 C112 0.929 . S
O124 Co99 2.351 . S
O124 C127 1.244 . S
O125 Co99 2.155 . S
O125 C127 1.240 . S
O126 Co99 2.096 . S
O126 C107 1.247 . S
C127 O124 1.244 . S
C127 O125 1.240 . S
H128 C102 0.931 . S
H129 C111 0.931 . S
H130 C115 0.924 1_556 S
H131 C117 0.930 . S
Co132 N136 2.148 . S
Co132 N142 2.128 . S
Co132 N152 2.194 . S
Co132 O157 2.351 . S
Co132 O158 2.155 . S
Co132 O159 2.096 . S
C133 N136 1.301 . S
C133 N137 1.328 . S
C133 H138 0.930 . S
C134 C135 1.333 . S
C134 N136 1.317 . S
C134 H139 0.930 . S
C135 C134 1.333 . S
C135 N137 1.350 . S
C135 H161 0.931 . S
N136 Co132 2.148 . S
N136 C133 1.301 . S
N136 C134 1.317 . S
N137 C133 1.328 . S
N137 C135 1.350 . S
H138 C133 0.930 . S
H139 C134 0.930 . S
C140 O141 1.224 . S
C140 O159 1.247 . S
O141 C140 1.224 . S
N142 Co132 2.128 . S
N142 C143 1.355 . S
N142 C145 1.311 . S
C143 N142 1.355 . S
C143 C144 1.363 . S
C143 H155 0.929 . S
C144 C143 1.363 . S
C144 N146 1.375 . S
C144 H162 0.931 . S
C145 N142 1.311 . S
C145 N146 1.347 . S
C145 H156 0.929 . S
N146 C144 1.375 . S
N146 C145 1.347 . S
C147 C150 1.365 . S
C147 N152 1.328 . S
C147 H153 0.929 . S
C148 C149 1.362 . S
C148 C151 1.378 . S
C148 H163 0.929 . S
C149 C148 1.362 . S
C149 C150 1.366 . S
C150 C147 1.365 . S
C150 C149 1.366 . S
C150 H164 0.930 . S
C151 C148 1.378 . S
C151 N152 1.315 . S
C151 H154 0.930 . S
N152 Co132 2.194 . S
N152 C147 1.328 . S
N152 C151 1.315 . S
H153 C147 0.929 . S
H154 C151 0.930 . S
H155 C143 0.929 . S
H156 C145 0.929 . S
O157 Co132 2.351 . S
O157 C160 1.244 . S
O158 Co132 2.155 . S
O158 C160 1.240 . S
O159 Co132 2.096 . S
O159 C140 1.247 . S
C160 O157 1.244 . S
C160 O158 1.240 . S
H161 C135 0.931 . S
H162 C144 0.931 . S
H163 C148 0.929 . S
H164 C150 0.930 . S
Co165 N169 2.148 . S
Co165 N175 2.128 . S
Co165 N185 2.194 . S
Co165 O190 2.351 . S
Co165 O191 2.155 . S
Co165 O192 2.096 . S
C166 N169 1.301 . S
C166 N170 1.328 . S
C166 H171 0.930 . S
C167 C168 1.333 . S
C167 N169 1.317 . S
C167 H172 0.930 . S
C168 C167 1.333 . S
C168 N170 1.350 . S
C168 H194 0.931 . S
N169 Co165 2.148 . S
N169 C166 1.301 . S
N169 C167 1.317 . S
N170 C166 1.328 . S
N170 C168 1.350 . S
H171 C166 0.930 . S
H172 C167 0.930 . S
C173 O174 1.224 . S
C173 O192 1.247 . S
O174 C173 1.224 . S
N175 Co165 2.128 . S
N175 C176 1.355 . S
N175 C178 1.311 . S
C176 N175 1.355 . S
C176 C177 1.363 . S
C176 H188 0.929 . S
C177 C176 1.363 . S
C177 N179 1.375 . S
C177 H195 0.931 . S
C178 N175 1.311 . S
C178 N179 1.347 . S
C178 H189 0.929 . S
N179 C177 1.375 . S
N179 C178 1.347 . S
C180 C183 1.365 . S
C180 N185 1.328 . S
C180 H186 0.929 . S
C181 C182 1.362 . S
C181 C184 1.378 . S
C181 H196 0.929 . S
C182 C181 1.362 . S
C182 C183 1.366 . S
C183 C180 1.365 . S
C183 C182 1.366 . S
C183 H197 0.930 . S
C184 C181 1.378 . S
C184 N185 1.315 . S
C184 H187 0.930 . S
N185 Co165 2.194 . S
N185 C180 1.328 . S
N185 C184 1.315 . S
H186 C180 0.929 . S
H187 C184 0.930 . S
H188 C176 0.929 . S
H189 C178 0.929 . S
O190 Co165 2.351 . S
O190 C193 1.244 . S
O191 Co165 2.155 . S
O191 C193 1.240 . S
O192 Co165 2.096 . S
O192 C173 1.247 . S
C193 O190 1.244 . S
C193 O191 1.240 . S
H194 C168 0.931 . S
H195 C177 0.931 . S
H196 C181 0.929 . S
H197 C183 0.930 . S
C198 C199 1.386 . S
C198 C200 1.383 . S
C198 H214 0.951 1_554 S
C199 C198 1.386 . S
C199 C203 1.383 . S
C200 C198 1.383 . S
C200 C201 1.402 . S
C200 H215 0.972 . S
C201 C200 1.402 . S
C201 C202 1.375 . S
C201 C204 1.481 . S
C202 C201 1.375 . S
C202 C203 1.367 . S
C202 H216 0.951 . S
C203 C199 1.383 . S
C203 C202 1.367 . S
C203 H217 0.950 . S
C204 C201 1.481 . S
C204 C205 1.297 . S
C204 H218 0.950 . S
C205 C204 1.297 . S
C205 C206 1.479 . S
C205 H219 0.950 . S
C206 C205 1.479 . S
C206 C207 1.375 . S
C206 C212 1.404 . S
C207 C206 1.375 . S
C207 C208 1.369 . S
C207 H220 0.950 1_554 S
C208 C207 1.369 . S
C208 C209 1.392 . S
C208 H221 0.951 1_554 S
C209 C208 1.392 . S
C209 C211 1.384 . S
H210 C212 0.949 . S
C211 C209 1.384 . S
C211 C212 1.385 . S
C211 H213 0.950 . S
C212 C206 1.404 . S
C212 H210 0.949 . S
C212 C211 1.385 . S
H213 C211 0.950 . S
H214 C198 0.951 1_556 S
H215 C200 0.972 . S
H216 C202 0.951 . S
H217 C203 0.950 . S
H218 C204 0.950 . S
H219 C205 0.950 . S
H220 C207 0.950 1_556 S
H221 C208 0.951 1_556 S
C222 C223 1.386 . S
C222 C224 1.383 . S
C222 H238 0.951 . S
C223 C222 1.386 . S
C223 C227 1.383 . S
C224 C222 1.383 . S
C224 C225 1.402 . S
C224 H239 0.951 . S
C225 C224 1.402 . S
C225 C226 1.375 . S
C225 C228 1.481 1_655 S
C226 C225 1.375 . S
C226 C227 1.367 . S
C226 H240 0.951 . S
C227 C223 1.383 . S
C227 C226 1.367 . S
C227 H241 0.950 . S
C228 C225 1.481 1_455 S
C228 C229 1.297 . S
C228 H242 0.950 . S
C229 C228 1.297 . S
C229 C230 1.479 . S
C229 H243 0.950 . S
C230 C229 1.479 . S
C230 C231 1.375 . S
C230 C236 1.404 . S
C231 C230 1.375 . S
C231 C232 1.369 . S
C231 H244 0.950 . S
C232 C231 1.369 . S
C232 C233 1.392 . S
C232 H245 0.951 . S
C233 C232 1.392 . S
C233 C235 1.384 . S
H234 C236 0.949 . S
C235 C233 1.384 . S
C235 C236 1.385 . S
C235 H237 0.950 . S
C236 C230 1.404 . S
C236 H234 0.949 . S
C236 C235 1.385 . S
H237 C235 0.950 . S
H238 C222 0.951 . S
H239 C224 0.951 . S
H240 C226 0.951 . S
H241 C227 0.950 . S
H242 C228 0.950 . S
H243 C229 0.950 . S
H244 C231 0.950 . S
H245 C232 0.951 . S
C246 C247 1.386 . S
C246 C248 1.383 . S
C246 H262 0.951 1_545 S
C247 C246 1.386 . S
C247 C251 1.383 . S
C248 C246 1.383 . S
C248 C249 1.402 . S
C248 H263 0.951 1_545 S
C249 C248 1.402 . S
C249 C250 1.375 . S
C249 C252 1.481 . S
C250 C249 1.375 . S
C250 C251 1.367 . S
C250 H264 0.951 . S
C251 C247 1.383 . S
C251 C250 1.367 . S
C251 H265 0.950 . S
C252 C249 1.481 . S
C252 C253 1.297 1_545 S
C252 H266 0.950 . S
C253 C252 1.297 1_565 S
C253 C254 1.479 . S
C253 H267 0.950 . S
C254 C253 1.479 . S
C254 C255 1.375 . S
C254 C260 1.404 1_565 S
C255 C254 1.375 . S
C255 C256 1.369 . S
C255 H268 0.950 . S
C256 C255 1.369 . S
C256 C257 1.392 . S
C256 H269 0.951 . S
C257 C256 1.392 . S
C257 C259 1.384 . S
H258 C260 0.949 . S
C259 C257 1.384 . S
C259 C260 1.385 1_565 S
C259 H261 0.950 1_565 S
C260 C254 1.404 1_545 S
C260 H258 0.949 . S
C260 C259 1.385 1_545 S
H261 C259 0.950 1_545 S
H262 C246 0.951 1_565 S
H263 C248 0.951 1_565 S
H264 C250 0.951 . S
H265 C251 0.950 . S
H266 C252 0.950 . S
H267 C253 0.950 . S
H268 C255 0.950 . S
H269 C256 0.951 . S
C270 C271 1.386 . S
C270 C272 1.383 . S
C270 H286 0.951 . S
C271 C270 1.386 . S
C271 C275 1.383 . S
C272 C270 1.383 . S
C272 C273 1.402 . S
C272 H287 0.951 . S
C273 C272 1.402 . S
C273 C274 1.375 . S
C273 C276 1.481 . S
C274 C273 1.375 . S
C274 C275 1.367 . S
C274 H288 0.951 . S
C275 C271 1.383 . S
C275 C274 1.367 . S
C275 H289 0.950 . S
C276 C273 1.481 . S
C276 C277 1.297 . S
C276 H290 0.950 . S
C277 C276 1.297 . S
C277 C278 1.479 . S
C277 H291 0.950 . S
C278 C277 1.479 . S
C278 C279 1.375 . S
C278 C284 1.404 . S
C279 C278 1.375 . S
C279 C280 1.369 . S
C279 H292 0.950 . S
C280 C279 1.369 . S
C280 C281 1.392 . S
C280 H293 0.951 . S
C281 C280 1.392 . S
C281 C283 1.384 . S
H282 C284 0.949 . S
C283 C281 1.384 . S
C283 C284 1.385 . S
C283 H285 0.950 . S
C284 C278 1.404 . S
C284 H282 0.949 . S
C284 C283 1.385 . S
H285 C283 0.950 . S
H286 C270 0.951 . S
H287 C272 0.951 . S
H288 C274 0.951 . S
H289 C275 0.950 . S
H290 C276 0.950 . S
H291 C277 0.950 . S
H292 C279 0.950 . S
H293 C280 0.951 . S
C294 C295 1.386 1_554 S
C294 C296 1.383 . S
C294 H310 0.951 . S
C295 C294 1.386 1_556 S
C295 C299 1.383 . S
C296 C294 1.383 . S
C296 C297 1.402 1_554 S
C296 H311 0.951 . S
C297 C296 1.402 1_556 S
C297 C298 1.375 . S
C297 C300 1.481 . S
C298 C297 1.375 . S
C298 C299 1.367 . S
C298 H312 0.951 . S
C299 C295 1.383 . S
C299 C298 1.367 . S
C299 H313 0.950 . S
C300 C297 1.481 . S
C300 C301 1.297 1_556 S
C300 H314 0.950 . S
C301 C300 1.297 1_554 S
C301 C302 1.479 1_655 S
C301 H315 0.950 . S
C302 C301 1.479 1_455 S
C302 C303 1.375 . S
C302 C308 1.404 1_554 S
C303 C302 1.375 . S
C303 C304 1.369 . S
C303 H316 0.950 . S
C304 C303 1.369 . S
C304 C305 1.392 1_554 S
C304 H317 0.951 . S
C305 C304 1.392 1_556 S
C305 C307 1.384 . S
H306 C308 0.949 1_655 S
C307 C305 1.384 . S
C307 C308 1.385 . S
C307 H309 0.950 . S
C308 C302 1.404 1_556 S
C308 H306 0.949 1_455 S
C308 C307 1.385 . S
H309 C307 0.950 . S
H310 C294 0.951 . S
H311 C296 0.951 . S
H312 C298 0.951 . S
H313 C299 0.950 . S
H314 C300 0.950 . S
H315 C301 0.950 . S
H316 C303 0.950 . S
H317 C304 0.951 . S
C318 C319 1.386 . S
C318 C320 1.383 . S
C318 H334 0.951 . S
C319 C318 1.386 . S
C319 C323 1.383 . S
C320 C318 1.383 . S
C320 C321 1.402 . S
C320 H335 0.951 . S
C321 C320 1.402 . S
C321 C322 1.375 . S
C321 C324 1.481 . S
C322 C321 1.375 . S
C322 C323 1.367 . S
C322 H336 0.951 . S
C323 C319 1.383 . S
C323 C322 1.367 . S
C323 H337 0.950 . S
C324 C321 1.481 . S
C324 C325 1.297 . S
C324 H338 0.950 . S
C325 C324 1.297 . S
C325 C326 1.479 1_565 S
C325 H339 0.950 . S
C326 C325 1.479 1_545 S
C326 C327 1.375 . S
C326 C332 1.404 . S
C327 C326 1.375 . S
C327 C328 1.369 . S
C327 H340 0.950 . S
C328 C327 1.369 . S
C328 C329 1.392 . S
C328 H341 0.951 . S
C329 C328 1.392 . S
C329 C331 1.384 . S
H330 C332 0.949 1_565 S
C331 C329 1.384 . S
C331 C332 1.385 . S
C331 H333 0.950 . S
C332 C326 1.404 . S
C332 H330 0.949 1_545 S
C332 C331 1.385 . S
H333 C331 0.950 . S
H334 C318 0.951 . S
H335 C320 0.951 . S
H336 C322 0.951 . S
H337 C323 0.950 . S
H338 C324 0.950 . S
H339 C325 0.950 . S
H340 C327 0.950 . S
H341 C328 0.951 . S
C342 C343 1.386 . S
C342 C344 1.383 . S
C342 H358 0.951 . S
C343 C342 1.386 . S
C343 C347 1.383 . S
C344 C342 1.383 . S
C344 C345 1.402 . S
C344 H359 0.951 . S
C345 C344 1.402 . S
C345 C346 1.375 . S
C345 C348 1.481 1_455 S
C346 C345 1.375 . S
C346 C347 1.367 . S
C346 H360 0.951 1_455 S
C347 C343 1.383 . S
C347 C346 1.367 . S
C347 H361 0.950 . S
C348 C345 1.481 1_655 S
C348 C349 1.297 1_645 S
C348 H362 0.950 . S
C349 C348 1.297 1_465 S
C349 C350 1.479 1_455 S
C349 H363 0.950 . S
C350 C349 1.479 1_655 S
C350 C351 1.375 . S
C350 C356 1.404 . S
C351 C350 1.375 . S
C351 C352 1.369 . S
C351 H364 0.950 1_655 S
C352 C351 1.369 . S
C352 C353 1.392 . S
C352 H365 0.951 . S
C353 C352 1.392 . S
C353 C355 1.384 . S
H354 C356 0.949 . S
C355 C353 1.384 . S
C355 C356 1.385 . S
C355 H357 0.950 . S
C356 C350 1.404 . S
C356 H354 0.949 . S
C356 C355 1.385 . S
H357 C355 0.950 . S
H358 C342 0.951 . S
H359 C344 0.951 . S
H360 C346 0.951 1_655 S
H361 C347 0.950 . S
H362 C348 0.950 . S
H363 C349 0.950 . S
H364 C351 0.950 1_455 S
H365 C352 0.951 . S
C366 C367 1.386 . S
C366 C368 1.383 . S
C366 H382 0.951 . S
C367 C366 1.386 . S
C367 C371 1.383 . S
C368 C366 1.383 . S
C368 C369 1.402 . S
C368 H383 0.951 . S
C369 C368 1.402 . S
C369 C370 1.375 . S
C369 C372 1.481 1_565 S
C370 C369 1.375 . S
C370 C371 1.367 . S
C370 H384 0.951 . S
C371 C367 1.383 . S
C371 C370 1.367 . S
C371 H385 0.950 . S
C372 C369 1.481 1_545 S
C372 C373 1.297 . S
C372 H386 0.950 . S
C373 C372 1.297 . S
C373 C374 1.479 1_455 S
C373 H387 0.950 . S
C374 C373 1.479 1_655 S
C374 C375 1.375 . S
C374 C380 1.404 . S
C375 C374 1.375 . S
C375 C376 1.369 . S
C375 H388 0.950 . S
C376 C375 1.369 . S
C376 C377 1.392 . S
C376 H389 0.951 . S
C377 C376 1.392 . S
C377 C379 1.384 . S
H378 C380 0.949 . S
C379 C377 1.384 . S
C379 C380 1.385 . S
C379 H381 0.950 . S
C380 C374 1.404 . S
C380 H378 0.949 . S
C380 C379 1.385 . S
H381 C379 0.950 . S
H382 C366 0.951 . S
H383 C368 0.951 . S
H384 C370 0.951 . S
H385 C371 0.950 . S
H386 C372 0.950 . S
H387 C373 0.950 . S
H388 C375 0.950 . S
H389 C376 0.951 . S
C390 C391 1.386 . S
C390 C392 1.383 . S
C390 H406 0.951 . S
C391 C390 1.386 . S
C391 C395 1.383 . S
C392 C390 1.383 . S
C392 C393 1.402 . S
C392 H407 0.951 . S
C393 C392 1.402 . S
C393 C394 1.375 . S
C393 C396 1.481 . S
C394 C393 1.375 . S
C394 C395 1.367 . S
C394 H408 0.951 . S
C395 C391 1.383 . S
C395 C394 1.367 . S
C395 H409 0.950 . S
C396 C393 1.481 . S
C396 C397 1.297 1_455 S
C396 H410 0.950 . S
C397 C396 1.297 1_655 S
C397 C398 1.479 1_545 S
C397 H411 0.950 . S
C398 C397 1.479 1_565 S
C398 C399 1.375 . S
C398 C404 1.404 . S
C399 C398 1.375 . S
C399 C400 1.369 . S
C399 H412 0.950 . S
C400 C399 1.369 . S
C400 C401 1.392 . S
C400 H413 0.951 . S
C401 C400 1.392 . S
C401 C403 1.384 . S
H402 C404 0.949 . S
C403 C401 1.384 . S
C403 C404 1.385 . S
C403 H405 0.950 . S
C404 C398 1.404 . S
C404 H402 0.949 . S
C404 C403 1.385 . S
H405 C403 0.950 . S
H406 C390 0.951 . S
H407 C392 0.951 . S
H408 C394 0.951 . S
H409 C395 0.950 . S
H410 C396 0.950 . S
H411 C397 0.950 . S
H412 C399 0.950 . S
H413 C400 0.951 . S
C414 C415 1.386 . S
C414 C416 1.383 . S
C414 H430 0.951 . S
C415 C414 1.386 . S
C415 C419 1.383 . S
C416 C414 1.383 . S
C416 C417 1.402 . S
C416 H431 0.951 . S
C417 C416 1.402 . S
C417 C418 1.375 . S
C417 C420 1.481 . S
C418 C417 1.375 . S
C418 C419 1.367 . S
C418 H432 0.951 . S
C419 C415 1.383 . S
C419 C418 1.367 . S
C419 H433 0.950 . S
C420 C417 1.481 . S
C420 C421 1.297 . S
C420 H434 0.950 . S
C421 C420 1.297 . S
C421 C422 1.479 . S
C421 H435 0.950 . S
C422 C421 1.479 . S
C422 C423 1.375 . S
C422 C428 1.404 . S
C423 C422 1.375 . S
C423 C424 1.369 . S
C423 H436 0.950 . S
C424 C423 1.369 . S
C424 C425 1.392 . S
C424 H437 0.951 . S
C425 C424 1.392 . S
C425 C427 1.384 . S
H426 C428 0.949 . S
C427 C425 1.384 . S
C427 C428 1.385 . S
C427 H429 0.950 . S
C428 C422 1.404 . S
C428 H426 0.949 . S
C428 C427 1.385 . S
H429 C427 0.950 . S
H430 C414 0.951 . S
H431 C416 0.951 . S
H432 C418 0.951 . S
H433 C419 0.950 . S
H434 C420 0.950 . S
H435 C421 0.950 . S
H436 C423 0.950 . S
H437 C424 0.951 . S
C438 C439 1.386 . S
C438 C440 1.383 . S
C438 H454 0.951 . S
C439 C438 1.386 . S
C439 C443 1.383 . S
C440 C438 1.383 . S
C440 C441 1.402 . S
C440 H455 0.951 . S
C441 C440 1.402 . S
C441 C442 1.375 . S
C441 C444 1.481 . S
C442 C441 1.375 . S
C442 C443 1.367 . S
C442 H456 0.951 . S
C443 C439 1.383 . S
C443 C442 1.367 . S
C443 H457 0.950 . S
C444 C441 1.481 . S
C444 C445 1.297 . S
C444 H458 0.950 . S
C445 C444 1.297 . S
C445 C446 1.479 1_455 S
C445 H459 0.950 1_455 S
C446 C445 1.479 1_655 S
C446 C447 1.375 . S
C446 C452 1.404 . S
C447 C446 1.375 . S
C447 C448 1.369 . S
C447 H460 0.950 . S
C448 C447 1.369 . S
C448 C449 1.392 . S
C448 H461 0.951 . S
C449 C448 1.392 . S
C449 C451 1.384 . S
H450 C452 0.949 1_455 S
C451 C449 1.384 . S
C451 C452 1.385 . S
C451 H453 0.950 . S
C452 C446 1.404 . S
C452 H450 0.949 1_655 S
C452 C451 1.385 . S
H453 C451 0.950 . S
H454 C438 0.951 . S
H455 C440 0.951 . S
H456 C442 0.951 . S
H457 C443 0.950 . S
H458 C444 0.950 . S
H459 C445 0.950 1_655 S
H460 C447 0.950 . S
H461 C448 0.951 . S
C462 C463 1.386 . S
C462 C464 1.383 . S
C462 H478 0.951 . S
C463 C462 1.386 . S
C463 C467 1.383 . S
C464 C462 1.383 . S
C464 C465 1.402 . S
C464 H479 0.951 . S
C465 C464 1.402 . S
C465 C466 1.375 . S
C465 C468 1.481 . S
C466 C465 1.375 . S
C466 C467 1.367 . S
C466 H480 0.951 . S
C467 C463 1.383 . S
C467 C466 1.367 . S
C467 H481 0.950 . S
C468 C465 1.481 . S
C468 C469 1.297 1_545 S
C468 H482 0.950 . S
C469 C468 1.297 1_565 S
C469 C470 1.479 . S
C469 H483 0.950 . S
C470 C469 1.479 . S
C470 C471 1.375 . S
C470 C476 1.404 . S
C471 C470 1.375 . S
C471 C472 1.369 . S
C471 H484 0.950 . S
C472 C471 1.369 . S
C472 C473 1.392 . S
C472 H485 0.951 . S
C473 C472 1.392 . S
C473 C475 1.384 . S
H474 C476 0.949 . S
C475 C473 1.384 . S
C475 C476 1.385 . S
C475 H477 0.950 . S
C476 C470 1.404 . S
C476 H474 0.949 . S
C476 C475 1.385 . S
H477 C475 0.950 . S
H478 C462 0.951 . S
H479 C464 0.951 . S
H480 C466 0.951 . S
H481 C467 0.950 . S
H482 C468 0.950 . S
H483 C469 0.950 . S
H484 C471 0.950 . S
H485 C472 0.951 . S
C486 C487 1.386 . S
C486 C488 1.383 . S
C486 H502 0.951 . S
C487 C486 1.386 . S
C487 C491 1.383 . S
C488 C486 1.383 . S
C488 C489 1.402 . S
C488 H503 0.951 . S
C489 C488 1.402 . S
C489 C490 1.375 . S
C489 C492 1.481 . S
C490 C489 1.375 . S
C490 C491 1.367 . S
C490 H504 0.951 . S
C491 C487 1.383 . S
C491 C490 1.367 . S
C491 H505 0.950 . S
C492 C489 1.481 . S
C492 C493 1.297 . S
C492 H506 0.950 . S
C493 C492 1.297 . S
C493 C494 1.479 . S
C493 H507 0.950 . S
C494 C493 1.479 . S
C494 C495 1.375 . S
C494 C500 1.404 . S
C495 C494 1.375 . S
C495 C496 1.369 . S
C495 H508 0.950 . S
C496 C495 1.369 . S
C496 C497 1.392 . S
C496 H509 0.951 . S
C497 C496 1.392 . S
C497 C499 1.384 . S
H498 C500 0.949 . S
C499 C497 1.384 . S
C499 C500 1.385 . S
C499 H501 0.950 . S
C500 C494 1.404 . S
C500 H498 0.949 . S
C500 C499 1.385 . S
H501 C499 0.950 . S
H502 C486 0.951 . S
H503 C488 0.951 . S
H504 C490 0.951 . S
H505 C491 0.950 . S
H506 C492 0.950 . S
H507 C493 0.950 . S
H508 C495 0.950 . S
H509 C496 0.951 . S
C510 C511 1.386 . S
C510 C512 1.383 . S
C510 H526 0.951 . S
C511 C510 1.386 . S
C511 C515 1.383 . S
C512 C510 1.383 . S
C512 C513 1.402 . S
C512 H527 0.951 . S
C513 C512 1.402 . S
C513 C514 1.375 . S
C513 C516 1.481 . S
C514 C513 1.375 . S
C514 C515 1.367 . S
C514 H528 0.951 . S
C515 C511 1.383 . S
C515 C514 1.367 . S
C515 H529 0.950 . S
C516 C513 1.481 . S
C516 C517 1.297 . S
C516 H530 0.950 . S
C517 C516 1.297 . S
C517 C518 1.479 1_655 S
C517 H531 0.950 . S
C518 C517 1.479 1_455 S
C518 C519 1.375 . S
C518 C524 1.404 . S
C519 C518 1.375 . S
C519 C520 1.369 . S
C519 H532 0.950 . S
C520 C519 1.369 . S
C520 C521 1.392 . S
C520 H533 0.951 . S
C521 C520 1.392 . S
C521 C523 1.384 . S
H522 C524 0.949 1_655 S
C523 C521 1.384 . S
C523 C524 1.385 . S
C523 H525 0.950 . S
C524 C518 1.404 . S
C524 H522 0.949 1_455 S
C524 C523 1.385 . S
H525 C523 0.950 . S
H526 C510 0.951 . S
H527 C512 0.951 . S
H528 C514 0.951 . S
H529 C515 0.950 . S
H530 C516 0.950 . S
H531 C517 0.950 . S
H532 C519 0.950 . S
H533 C520 0.951 . S
C534 C535 1.386 . S
C534 C536 1.383 . S
C534 H550 0.951 . S
C535 C534 1.386 . S
C535 C539 1.383 . S
C536 C534 1.383 . S
C536 C537 1.402 . S
C536 H551 0.951 . S
C537 C536 1.402 . S
C537 C538 1.375 . S
C537 C540 1.481 . S
C538 C537 1.375 . S
C538 C539 1.367 . S
C538 H552 0.951 . S
C539 C535 1.383 . S
C539 C538 1.367 . S
C539 H553 0.950 . S
C540 C537 1.481 . S
C540 C541 1.298 1_545 S
C540 H554 0.950 . S
C541 C540 1.298 1_565 S
C541 C542 1.491 . S
C541 H555 0.937 1_565 S
C542 C541 1.491 . S
C542 C543 1.375 . S
C542 C548 1.404 . S
C543 C542 1.375 . S
C543 C544 1.369 . S
C543 H556 0.950 . S
C544 C543 1.369 . S
C544 C545 1.392 . S
C544 H557 0.951 . S
C545 C544 1.392 . S
C545 C547 1.384 . S
H546 C548 0.949 . S
C547 C545 1.384 . S
C547 C548 1.385 . S
C547 H549 0.950 . S
C548 C542 1.404 . S
C548 H546 0.949 . S
C548 C547 1.385 . S
H549 C547 0.950 . S
H550 C534 0.951 . S
H551 C536 0.951 . S
H552 C538 0.951 . S
H553 C539 0.950 . S
H554 C540 0.950 . S
H555 C541 0.937 1_545 S
H556 C543 0.950 . S
H557 C544 0.951 . S
C199 C8 1.922 . S
C209 C107 1.922 . S
C223 C41 1.921 . S
C233 C140 1.894 . S
C247 C173 1.906 . S
C257 C74 1.898 . S
C271 C83 0.687 . S
C281 C182 0.686 . S
C295 C116 0.682 . S
C305 C17 0.653 . S
C319 C149 0.671 . S
C329 C50 0.647 . S
C343 C28 0.643 . S
C353 C127 0.660 . S
C367 C160 0.617 . S
C377 C61 0.607 . S
C391 C193 0.622 . S
C401 C94 0.614 . S
C415 N14 1.652 . S
C425 N170 1.752 . S
C439 N5 1.762 . S
C449 N47 1.630 . S
C463 N38 1.772 . S
C473 N80 1.649 . S
C487 N71 1.770 . S
C497 N113 1.722 . S
C511 N104 1.762 . S
C521 N146 1.640 . S
C535 N179 1.699 . S
C545 N137 1.771 . S
