# Generated by pormake.
# Topology und, (4)-cn, num edge types: 1
# Building blocks:
#     Node 0, Type 0, BuildingBlock: QUQFOY_clean_sbu_3, # of connection points: 4
#     Node 1, Type 0, BuildingBlock: QUQFOY_clean_sbu_3, # of connection points: 4
#     Node 2, Type 0, BuildingBlock: QUQFOY_clean_sbu_3, # of connection points: 4
#     Node 3, Type 0, BuildingBlock: QUQFOY_clean_sbu_3, # of connection points: 4
#     Node 4, Type 0, BuildingBlock: QUQFOY_clean_sbu_3, # of connection points: 4
#     Node 5, Type 0, BuildingBlock: QUQFOY_clean_sbu_3, # of connection points: 4
#     Node 6, Type 0, BuildingBlock: QUQFOY_clean_sbu_3, # of connection points: 4
#     Node 7, Type 0, BuildingBlock: QUQFOY_clean_sbu_3, # of connection points: 4
#     Node 8, Type 0, BuildingBlock: QUQFOY_clean_sbu_3, # of connection points: 4
#     Node 9, Type 0, BuildingBlock: QUQFOY_clean_sbu_3, # of connection points: 4
#     Node 10, Type 0, BuildingBlock: QUQFOY_clean_sbu_3, # of connection points: 4
#     Node 11, Type 0, BuildingBlock: QUQFOY_clean_sbu_3, # of connection points: 4
#     Node 12, Type 0, BuildingBlock: QUQFOY_clean_sbu_3, # of connection points: 4
#     Node 13, Type 0, BuildingBlock: QUQFOY_clean_sbu_3, # of connection points: 4
#     Node 14, Type 0, BuildingBlock: QUQFOY_clean_sbu_3, # of connection points: 4
#     Node 15, Type 0, BuildingBlock: QUQFOY_clean_sbu_3, # of connection points: 4
#     Edge 16, Type (0, 0), BuildingBlock: UVAHIK_clean_linker_0, # of connection points: 2
#     Edge 17, Type (0, 0), BuildingBlock: UVAHIK_clean_linker_0, # of connection points: 2
#     Edge 18, Type (0, 0), BuildingBlock: UVAHIK_clean_linker_0, # of connection points: 2
#     Edge 19, Type (0, 0), BuildingBlock: UVAHIK_clean_linker_0, # of connection points: 2
#     Edge 20, Type (0, 0), BuildingBlock: UVAHIK_clean_linker_0, # of connection points: 2
#     Edge 21, Type (0, 0), BuildingBlock: UVAHIK_clean_linker_0, # of connection points: 2
#     Edge 22, Type (0, 0), BuildingBlock: UVAHIK_clean_linker_0, # of connection points: 2
#     Edge 23, Type (0, 0), BuildingBlock: UVAHIK_clean_linker_0, # of connection points: 2
#     Edge 24, Type (0, 0), BuildingBlock: UVAHIK_clean_linker_0, # of connection points: 2
#     Edge 25, Type (0, 0), BuildingBlock: UVAHIK_clean_linker_0, # of connection points: 2
#     Edge 26, Type (0, 0), BuildingBlock: UVAHIK_clean_linker_0, # of connection points: 2
#     Edge 27, Type (0, 0), BuildingBlock: UVAHIK_clean_linker_0, # of connection points: 2
#     Edge 28, Type (0, 0), BuildingBlock: UVAHIK_clean_linker_0, # of connection points: 2
#     Edge 29, Type (0, 0), BuildingBlock: UVAHIK_clean_linker_0, # of connection points: 2
#     Edge 30, Type (0, 0), BuildingBlock: UVAHIK_clean_linker_0, # of connection points: 2
#     Edge 31, Type (0, 0), BuildingBlock: UVAHIK_clean_linker_0, # of connection points: 2
#     Edge 32, Type (0, 0), BuildingBlock: UVAHIK_clean_linker_0, # of connection points: 2
#     Edge 33, Type (0, 0), BuildingBlock: UVAHIK_clean_linker_0, # of connection points: 2
#     Edge 34, Type (0, 0), BuildingBlock: UVAHIK_clean_linker_0, # of connection points: 2
#     Edge 35, Type (0, 0), BuildingBlock: UVAHIK_clean_linker_0, # of connection points: 2
#     Edge 36, Type (0, 0), BuildingBlock: UVAHIK_clean_linker_0, # of connection points: 2
#     Edge 37, Type (0, 0), BuildingBlock: UVAHIK_clean_linker_0, # of connection points: 2
#     Edge 38, Type (0, 0), BuildingBlock: UVAHIK_clean_linker_0, # of connection points: 2
#     Edge 39, Type (0, 0), BuildingBlock: UVAHIK_clean_linker_0, # of connection points: 2
#     Edge 40, Type (0, 0), BuildingBlock: UVAHIK_clean_linker_0, # of connection points: 2
#     Edge 41, Type (0, 0), BuildingBlock: UVAHIK_clean_linker_0, # of connection points: 2
#     Edge 42, Type (0, 0), BuildingBlock: UVAHIK_clean_linker_0, # of connection points: 2
#     Edge 43, Type (0, 0), BuildingBlock: UVAHIK_clean_linker_0, # of connection points: 2
#     Edge 44, Type (0, 0), BuildingBlock: UVAHIK_clean_linker_0, # of connection points: 2
#     Edge 45, Type (0, 0), BuildingBlock: UVAHIK_clean_linker_0, # of connection points: 2
#     Edge 46, Type (0, 0), BuildingBlock: UVAHIK_clean_linker_0, # of connection points: 2
#     Edge 47, Type (0, 0), BuildingBlock: UVAHIK_clean_linker_0, # of connection points: 2
# Relax obj value: 0.006
# Max RMSD: 0.046
# Mean RMSD: 0.046
data_MOF--net-und--node1-QUQFOY_clean_sbu_3--edge1-UVAHIK_clean_linker_0
_symmetry_space_group_name_H-M    P1
_symmetry_Int_Tables_number       1
_symmetry_cell_setting            triclinic
loop_
_symmetry_equiv_pos_as_xyz
'x, y, z'
_cell_length_a     78.72204
_cell_length_b     78.701908
_cell_length_c     29.279193
_cell_angle_alpha  89.954851
_cell_angle_beta   89.979861
_cell_angle_gamma 94.636911
loop_
_atom_site_label
_atom_site_type_symbol
_atom_site_fract_x
_atom_site_fract_y
_atom_site_fract_z
_atom_type_partial_charge
C0 C 0.25557 0.32014 0.08637 0.0
O1 O 0.27026 0.32532 0.07159 0.0
Cd2 Cd 0.27411 0.3447 0.00782 0.0
O3 O 0.24228 0.32579 0.06926 0.0
Cd4 Cd 0.23289 0.34584 0.01213 0.0
C5 C 0.24891 0.32154 0.92984 0.0
O6 O 0.25643 0.36763 0.0204 0.0
O7 O 0.23915 0.37083 0.96435 0.0
O8 O 0.21276 0.35306 0.07005 0.0
C9 C 0.25226 0.37643 0.98645 0.0
O10 O 0.26367 0.32747 0.94273 0.0
C11 C 0.19978 0.35168 0.04419 0.0
O12 O 0.23556 0.32549 0.95058 0.0
O13 O 0.20216 0.34746 0.00292 0.0
C14 C 0.92667 -0.00324 0.17591 0.0
O15 O 0.92129 0.98196 0.18939 0.0
Cd16 Cd 0.90429 0.9781 0.2575 0.0
O17 O 0.92227 0.00991 0.19665 0.0
Cd18 Cd 0.9044 0.01869 0.25983 0.0
C19 C 0.93122 0.00109 0.33194 0.0
O20 O 0.88128 -0.00368 0.2535 0.0
O21 O 0.88212 0.01117 0.31559 0.0
O22 O 0.89591 0.03955 0.20574 0.0
C23 C 0.87444 -0.00037 0.29138 0.0
O24 O 0.92421 0.98673 0.31903 0.0
C25 C 0.89784 0.05222 0.23253 0.0
O26 O 0.92706 0.01492 0.31412 0.0
O27 O 0.90288 0.04936 0.27286 0.0
C28 C 0.23365 0.68893 0.59106 0.0
O29 O 0.21896 0.68339 0.57716 0.0
Cd30 Cd 0.21566 0.66539 0.51074 0.0
O31 O 0.24695 0.68417 0.57181 0.0
Cd32 Cd 0.25613 0.66534 0.51133 0.0
C33 C 0.23934 0.69114 0.43497 0.0
O34 O 0.23367 0.64228 0.51806 0.0
O35 O 0.24906 0.64257 0.45691 0.0
O36 O 0.27669 0.65716 0.56677 0.0
C37 C 0.23732 0.63509 0.48093 0.0
O38 O 0.22483 0.68437 0.44753 0.0
C39 C 0.28952 0.65911 0.54047 0.0
O40 O 0.25296 0.6872 0.45436 0.0
O41 O 0.28687 0.66399 0.49989 0.0
C42 C 0.55951 0.01809 0.68566 0.0
O43 O 0.56492 0.03278 0.69995 0.0
Cd44 Cd 0.58407 0.03585 0.76441 0.0
O45 O 0.56491 0.00478 0.7033 0.0
Cd46 Cd 0.58461 -0.00547 0.75984 0.0
C47 C 0.56003 0.01051 0.84114 0.0
O48 O 0.60676 0.01781 0.7521 0.0
O49 O 0.60957 0.00018 0.80769 0.0
O50 O 0.58995 0.97533 0.69821 0.0
C51 C 0.61541 0.01334 0.78604 0.0
O52 O 0.56626 0.02519 0.82829 0.0
C53 C 0.58984 0.96201 0.72271 0.0
O54 O 0.56392 -0.00295 0.82077 0.0
O55 O 0.58727 0.96373 0.76529 0.0
C56 C 0.72952 0.68945 0.92815 0.0
O57 O 0.71483 0.68409 0.94245 0.0
Cd58 Cd 0.71202 0.66609 0.00905 0.0
O59 O 0.7428 0.68437 0.94677 0.0
Cd60 Cd 0.75237 0.66509 0.00566 0.0
C61 C 0.73719 0.69137 0.08311 0.0
O62 O 0.72933 0.64251 9e-05 0.0
O63 O 0.74539 0.64225 0.05988 0.0
O64 O 0.77152 0.65778 0.9457 0.0
C65 C 0.73324 0.6351 0.03672 0.0
O66 O 0.72249 0.68492 0.0712 0.0
C67 C 0.78472 0.65798 0.97055 0.0
O68 O 0.75057 0.6871 0.0631 0.0
O69 O 0.78299 0.6615 0.01259 0.0
C70 C 0.05865 0.01734 0.83638 0.0
O71 O 0.06451 0.03189 0.82216 0.0
Cd72 Cd 0.08386 0.03433 0.75832 0.0
O73 O 0.06385 0.00385 0.81919 0.0
Cd74 Cd 0.08399 0.99362 0.76349 0.0
C75 C 0.05976 0.00921 0.68152 0.0
O76 O 0.10663 0.01642 0.77181 0.0
O77 O 0.10822 -2e-05 0.71318 0.0
O78 O 0.08959 0.97422 0.82462 0.0
C79 C 0.11483 0.01231 0.73671 0.0
O80 O 0.06618 0.02388 0.69383 0.0
C81 C 0.08953 0.96102 0.79979 0.0
O82 O 0.06337 -0.00419 0.70266 0.0
O83 O 0.08689 0.96288 0.75731 0.0
C84 C 0.75378 0.32357 0.42113 0.0
O85 O 0.76842 0.32908 0.43548 0.0
Cd86 Cd 0.77165 0.34572 0.50446 0.0
O87 O 0.74041 0.32763 0.44146 0.0
Cd88 Cd 0.73082 0.3448 0.50492 0.0
C89 C 0.74864 0.31795 0.57687 0.0
O90 O 0.75292 0.36831 0.5015 0.0
O91 O 0.73717 0.36673 0.56203 0.0
O92 O 0.71013 0.35341 0.45053 0.0
C93 C 0.74906 0.37471 0.53955 0.0
O94 O 0.76297 0.3253 0.56485 0.0
C95 C 0.69728 0.35075 0.47651 0.0
O96 O 0.73483 0.32193 0.55856 0.0
O97 O 0.69998 0.34527 0.5165 0.0
C98 C 0.42785 -0.00564 0.34595 0.0
O99 O 0.42252 0.97961 0.33203 0.0
Cd100 Cd 0.40499 0.97658 0.26445 0.0
O101 O 0.42308 0.00757 0.32629 0.0
Cd102 Cd 0.4047 0.01734 0.26585 0.0
C103 C 0.4312 0.00098 0.19065 0.0
O104 O 0.38183 -0.00543 0.27085 0.0
O105 O 0.38189 0.01091 0.21149 0.0
O106 O 0.39788 0.03684 0.32529 0.0
C107 C 0.37467 -0.00141 0.23395 0.0
O108 O 0.42445 0.98642 0.20294 0.0
C109 C 0.3985 0.05003 0.30022 0.0
O110 O 0.42702 0.01458 0.2097 0.0
O111 O 0.40194 0.04812 0.25818 0.0
C112 C 0.75329 0.82198 0.59045 0.0
O113 O 0.76807 0.82725 0.57664 0.0
Cd114 Cd 0.77187 0.84511 0.50989 0.0
O115 O 0.74012 0.82691 0.57091 0.0
Cd116 Cd 0.73136 0.84573 0.50993 0.0
C117 C 0.74802 0.8196 0.43403 0.0
O118 O 0.7542 0.86851 0.51608 0.0
O119 O 0.73855 0.86839 0.45545 0.0
O120 O 0.71101 0.85435 0.56536 0.0
C121 C 0.75055 0.87569 0.4789 0.0
O122 O 0.76255 0.8262 0.44684 0.0
C123 C 0.69816 0.85265 0.53914 0.0
O124 O 0.7344 0.82372 0.45312 0.0
O125 O 0.70068 0.84764 0.49861 0.0
C126 C 0.42901 0.49568 0.68729 0.0
O127 O 0.4234 0.48103 0.70145 0.0
Cd128 Cd 0.40372 0.47777 0.76459 0.0
O129 O 0.42361 0.50907 0.70454 0.0
Cd130 Cd 0.40361 0.51941 0.76034 0.0
C131 C 0.42722 0.5028 0.84302 0.0
O132 O 0.38168 0.49629 0.75042 0.0
O133 O 0.37766 0.51364 0.80553 0.0
O134 O 0.39926 0.53908 0.69894 0.0
C135 C 0.37242 0.50041 0.7834 0.0
O136 O 0.42102 0.4882 0.82954 0.0
C137 C 0.39911 0.55222 0.72395 0.0
O138 O 0.42363 0.51637 0.82264 0.0
O139 O 0.40107 0.5502 0.76666 0.0
C140 C 0.73341 0.19137 0.08262 0.0
O141 O 0.71882 0.18568 0.06831 0.0
Cd142 Cd 0.7162 0.16601 0.00503 0.0
O143 O 0.74685 0.18596 0.0657 0.0
Cd144 Cd 0.75739 0.16584 0.01074 0.0
C145 C 0.74155 0.18955 0.92739 0.0
O146 O 0.73433 0.14356 0.01931 0.0
O147 O 0.75192 0.14042 0.964 0.0
O148 O 0.7765 0.16102 0.07311 0.0
C149 C 0.73878 0.13468 0.98587 0.0
O150 O 0.72688 0.18331 0.9403 0.0
C151 C 0.78987 0.16106 0.04891 0.0
O152 O 0.75499 0.18599 0.94839 0.0
O153 O 0.78825 0.16334 0.00618 0.0
C154 C 0.06002 0.51564 0.18649 0.0
O155 O 0.06561 0.53025 0.20086 0.0
Cd156 Cd 0.08393 0.5328 0.26689 0.0
O157 O 0.06493 0.50223 0.20484 0.0
Cd158 Cd 0.08401 0.49205 0.26323 0.0
C159 C 0.05859 0.50801 0.34185 0.0
O160 O 0.10688 0.51477 0.25701 0.0
O161 O 0.10751 0.4982 0.31574 0.0
O162 O 0.09016 0.47254 0.20301 0.0
C163 C 0.11451 0.51058 0.29302 0.0
O164 O 0.06523 0.52263 0.32971 0.0
C165 C 0.0898 0.45936 0.22806 0.0
O166 O 0.06247 0.49453 0.32164 0.0
O167 O 0.08677 0.46128 0.27031 0.0
C168 C 0.23292 0.18766 0.42426 0.0
O169 O 0.21821 0.18237 0.43854 0.0
Cd170 Cd 0.21497 0.16581 0.50777 0.0
O171 O 0.24617 0.18334 0.44463 0.0
Cd172 Cd 0.25548 0.16591 0.50787 0.0
C173 C 0.23854 0.19328 0.57959 0.0
O174 O 0.23307 0.14262 0.50519 0.0
O175 O 0.24875 0.1444 0.56585 0.0
O176 O 0.27569 0.15669 0.45301 0.0
C177 C 0.2369 0.13635 0.54346 0.0
O178 O 0.22409 0.18617 0.56777 0.0
C179 C 0.28868 0.15906 0.47858 0.0
O180 O 0.25223 0.189 0.56122 0.0
O181 O 0.28628 0.16467 0.51859 0.0
C182 C 0.56046 0.51592 0.34594 0.0
O183 O 0.56615 0.53052 0.33166 0.0
Cd184 Cd 0.58352 0.53301 0.26373 0.0
O185 O 0.56476 0.5025 0.32639 0.0
Cd186 Cd 0.58254 0.49194 0.26567 0.0
C187 C 0.55639 0.50916 0.19096 0.0
O188 O 0.60591 0.51413 0.27025 0.0
O189 O 0.60552 0.49768 0.21117 0.0
O190 O 0.58868 0.47214 0.32518 0.0
C191 C 0.61296 0.50994 0.23337 0.0
O192 O 0.56359 0.52356 0.20294 0.0
C193 C 0.58769 0.45897 0.30009 0.0
O194 O 0.56025 0.49542 0.20999 0.0
O195 O 0.58438 0.46102 0.25803 0.0
C196 C 0.2549 0.82194 0.92747 0.0
O197 O 0.26962 0.82732 0.9415 0.0
Cd198 Cd 0.27312 0.84506 0.00834 0.0
O199 O 0.24164 0.82677 0.94679 0.0
Cd200 Cd 0.23268 0.84554 0.00769 0.0
C201 C 0.24912 0.81928 0.08342 0.0
O202 O 0.2554 0.86841 0.00177 0.0
O203 O 0.23997 0.86799 0.06285 0.0
O204 O 0.21224 0.85425 0.95256 0.0
C205 C 0.25181 0.87546 0.03915 0.0
O206 O 0.26369 0.82596 0.07104 0.0
C207 C 0.19941 0.85237 0.97888 0.0
O208 O 0.23557 0.82342 0.06411 0.0
O209 O 0.20201 0.84726 0.01929 0.0
C210 C 0.92749 0.49289 0.84911 0.0
O211 O 0.92227 0.47808 0.83545 0.0
Cd212 Cd 0.90468 0.47421 0.76841 0.0
O213 O 0.92256 0.50602 0.82933 0.0
Cd214 Cd 0.90369 0.51443 0.76795 0.0
C215 C 0.93033 0.49817 0.69298 0.0
O216 O 0.88096 0.4915 0.77402 0.0
O217 O 0.88153 0.50669 0.71243 0.0
O218 O 0.89446 0.53463 0.82294 0.0
C219 C 0.874 0.49496 0.73639 0.0
O220 O 0.92375 0.48361 0.70572 0.0
C221 C 0.89594 0.54746 0.79654 0.0
O222 O 0.92603 0.51176 0.71185 0.0
O223 O 0.90118 0.54501 0.75619 0.0
C224 C 0.23731 0.30138 0.13874 0.0
C225 C 0.25363 0.30691 0.12235 0.0
C226 C 0.2352 0.28824 0.17071 0.0
C227 C 0.25798 0.26504 0.25747 0.0
H228 H 0.22071 0.23025 0.24048 0.0
C229 C 0.25128 0.20472 0.3685 0.0
C230 C 0.23493 0.1997 0.38545 0.0
C231 C 0.25353 0.21719 0.33471 0.0
C232 C 0.23107 0.23995 0.2459 0.0
H233 H 0.28056 0.30314 0.12738 0.0
H234 H 0.27684 0.28009 0.18322 0.0
H235 H 0.22491 0.25358 0.18568 0.0
H236 H 0.20803 0.20346 0.37912 0.0
H237 H 0.21199 0.22539 0.32017 0.0
H238 H 0.26411 0.25147 0.31777 0.0
C239 C 0.2657 0.28604 0.17145 0.0
C240 C 0.23348 0.25331 0.21456 0.0
C241 C 0.26783 0.29921 0.13937 0.0
C242 C 0.22079 0.20703 0.36675 0.0
C243 C 0.22305 0.21955 0.33289 0.0
C244 C 0.25557 0.25169 0.2888 0.0
C245 C 0.24934 0.28031 0.18709 0.0
C246 C 0.24694 0.26602 0.22008 0.0
C247 C 0.23948 0.22496 0.31708 0.0
C248 C 0.24209 0.239 0.28338 0.0
H249 H 0.22608 0.30709 0.12658 0.0
H250 H 0.22246 0.28432 0.18272 0.0
H251 H 0.26831 0.27477 0.263 0.0
H252 H 0.26245 0.19924 0.38185 0.0
H253 H 0.26631 0.22084 0.32258 0.0
C254 C 0.94931 0.98648 0.38765 0.0
C255 C 0.9446 0.00163 0.36749 0.0
C256 C 0.96212 0.98695 0.42065 0.0
C257 C -0.00083 0.01379 0.4634 0.0
H258 H 0.99298 0.98578 0.57212 0.0
C259 C 0.04307 0.02256 0.62033 0.0
C260 C 0.04755 0.00783 0.64309 0.0
C261 C 0.03103 0.02139 0.5853 0.0
C262 C -0.005 0.9935 0.54165 0.0
H263 H 0.94961 0.02916 0.36645 0.0
H264 H 0.97188 0.02995 0.42436 0.0
H265 H 0.97074 0.98462 0.51404 0.0
H266 H 0.0431 0.98027 0.6462 0.0
H267 H 0.02218 0.97824 0.58468 0.0
H268 H 0.0234 0.02273 0.4911 0.0
C269 C 0.96578 0.01771 0.41417 0.0
C270 C 0.98225 0.99285 0.50844 0.0
C271 C 0.95294 0.01726 0.38121 0.0
C272 C 0.0399 0.99188 0.62951 0.0
C273 C 0.02784 0.99071 0.59445 0.0
C274 C 0.01192 0.01443 0.49659 0.0
C275 C 0.97052 0.00256 0.43417 0.0
C276 C 0.98417 0.00305 0.46908 0.0
C277 C 0.0232 0.00547 0.5722 0.0
C278 C 0.00993 0.00436 0.53618 0.0
H279 H 0.94317 0.97422 0.37781 0.0
H280 H 0.96563 0.97506 0.43512 0.0
H281 H 0.00112 0.02159 0.43306 0.0
H282 H 0.04869 0.03506 0.62994 0.0
H283 H 0.02757 0.03301 0.56919 0.0
C284 C 0.22121 0.70875 0.64678 0.0
C285 C 0.23552 0.70166 0.62824 0.0
C286 C 0.22324 0.72167 0.67954 0.0
C287 C 0.25496 0.75506 0.72126 0.0
H288 H 0.22491 0.75607 0.82597 0.0
C289 C 0.2672 0.80218 0.87136 0.0
C290 C 0.25294 0.8093 0.89009 0.0
C291 C 0.2651 0.78932 0.83846 0.0
C292 C 0.23328 0.75607 0.79661 0.0
H293 H 0.26313 0.7022 0.6307 0.0
H294 H 0.2666 0.72452 0.68806 0.0
H295 H 0.22104 0.73265 0.77153 0.0
H296 H 0.22533 0.80886 0.88781 0.0
H297 H 0.22174 0.78664 0.83019 0.0
H298 H 0.26721 0.77848 0.74635 0.0
C299 C 0.25385 0.72034 0.67669 0.0
C300 C 0.23107 0.74265 0.76547 0.0
C301 C 0.25184 0.70745 0.64401 0.0
C302 C 0.2366 0.80359 0.87435 0.0
C303 C 0.23451 0.79076 0.84152 0.0
C304 C 0.25717 0.76848 0.7524 0.0
C305 C 0.23961 0.72774 0.69437 0.0
C306 C 0.2419 0.74199 0.7275 0.0
C307 C 0.24871 0.78333 0.82365 0.0
C308 C 0.24636 0.76913 0.7904 0.0
H309 H 0.20847 0.7046 0.6353 0.0
H310 H 0.21203 0.72722 0.69231 0.0
H311 H 0.26333 0.75506 0.69191 0.0
H312 H 0.27996 0.80626 0.88281 0.0
H313 H 0.27629 0.78375 0.82555 0.0
C314 C 0.44909 0.98707 0.13314 0.0
C315 C 0.44434 0.00199 0.15441 0.0
C316 C 0.46174 0.98793 0.09964 0.0
C317 C 0.48411 0.01735 0.01769 0.0
H318 H 0.51806 0.98426 0.01872 0.0
C319 C 0.54314 0.02405 0.9015 0.0
C320 C 0.54762 0.00924 0.87917 0.0
C321 C 0.53084 0.02303 0.93589 0.0
C322 C 0.50857 0.99348 0.01774 0.0
H323 H 0.44914 0.02952 0.15696 0.0
H324 H 0.47132 0.03098 0.0987 0.0
H325 H 0.49579 0.98281 0.07692 0.0
H326 H 0.54288 0.98171 0.87611 0.0
H327 H 0.52129 0.97998 0.93606 0.0
H328 H 0.49687 0.02801 0.95853 0.0
C329 C 0.46511 0.01864 0.10765 0.0
C330 C 0.49582 0.99265 0.05102 0.0
C331 C 0.45245 0.01779 0.14119 0.0
C332 C 0.53974 0.99336 0.89263 0.0
C333 C 0.52743 0.99235 0.92711 0.0
C334 C 0.49686 0.01818 0.98444 0.0
C335 C 0.46992 0.00371 0.08664 0.0
C336 C 0.48346 0.00459 0.05134 0.0
C337 C 0.52274 0.0072 0.94877 0.0
C338 C 0.50923 0.00627 0.98415 0.0
H339 H 0.44307 0.97468 0.14237 0.0
H340 H 0.465 0.97623 0.0836 0.0
H341 H 0.47461 0.02656 0.01661 0.0
H342 H 0.54901 0.03649 0.89219 0.0
H343 H 0.52769 0.03467 0.95247 0.0
C344 C 0.23212 0.79851 0.13378 0.0
C345 C 0.24801 0.80633 0.12015 0.0
C346 C 0.23112 0.78605 0.16784 0.0
C347 C 0.25666 0.75517 0.22514 0.0
H348 H 0.22162 0.75509 0.3183 0.0
C349 C 0.25617 0.71182 0.38404 0.0
C350 C 0.24033 0.70397 0.39795 0.0
C351 C 0.25706 0.72419 0.34973 0.0
C352 C 0.23135 0.75484 0.29221 0.0
H353 H 0.2753 0.80729 0.13202 0.0
H354 H 0.2735 0.78567 0.1917 0.0
H355 H 0.22325 0.7771 0.25944 0.0
H356 H 0.21302 0.70285 0.38634 0.0
H357 H 0.21463 0.72432 0.32623 0.0
H358 H 0.26478 0.73292 0.25793 0.0
C359 C 0.26185 0.78903 0.17559 0.0
C360 C 0.23229 0.76744 0.25853 0.0
C361 C 0.26286 0.80149 0.14156 0.0
C362 C 0.22543 0.70868 0.37657 0.0
C363 C 0.22632 0.72105 0.3423 0.0
C364 C 0.25573 0.74257 0.25881 0.0
C365 C 0.24598 0.78113 0.18897 0.0
C366 C 0.24496 0.76775 0.22468 0.0
C367 C 0.24214 0.72897 0.32863 0.0
C368 C 0.24307 0.74228 0.29271 0.0
H369 H 0.22044 0.80191 0.11793 0.0
H370 H 0.21873 0.78006 0.17709 0.0
H371 H 0.2664 0.75493 0.19907 0.0
H372 H 0.2679 0.70853 0.39985 0.0
H373 H 0.26942 0.73021 0.34027 0.0
C374 C 0.44771 0.98244 0.40261 0.0
C375 C 0.44023 -0.00351 0.38393 0.0
C376 C 0.46027 0.98482 0.43627 0.0
C377 C 0.49209 0.0176 0.48079 0.0
H378 H 0.49356 0.98717 0.58461 0.0
C379 C 0.53878 0.03031 0.63193 0.0
C380 C 0.54642 0.01614 0.64938 0.0
C381 C 0.52577 0.02812 0.59941 0.0
C382 C 0.49341 -0.00432 0.55554 0.0
H383 H 0.43966 0.02402 0.38713 0.0
H384 H 0.46133 0.02809 0.44598 0.0
H385 H 0.4706 0.98269 0.52893 0.0
H386 H 0.54669 0.98859 0.64541 0.0
H387 H 0.52425 0.98487 0.58858 0.0
H388 H 0.51492 0.03057 0.50734 0.0
C389 C 0.45776 0.01528 0.43404 0.0
C390 C 0.48027 0.9931 0.52368 0.0
C391 C 0.44525 0.01291 0.40047 0.0
C392 C 0.54102 -0.0002 0.63298 0.0
C393 C 0.52806 -0.00238 0.60058 0.0
C394 C 0.50523 0.02018 0.51266 0.0
C395 C 0.46558 0.0013 0.45188 0.0
C396 C 0.47947 0.00403 0.48594 0.0
C397 C 0.52017 0.01172 0.58377 0.0
C398 C 0.50606 0.00921 0.5503 0.0
H399 H 0.44414 0.96964 0.39054 0.0
H400 H 0.46616 0.97381 0.44917 0.0
H401 H 0.49197 0.02608 0.45166 0.0
H402 H 0.54262 0.04306 0.64392 0.0
H403 H 0.51985 0.03922 0.58728 0.0
C404 C 0.25511 0.21501 0.62803 0.0
C405 C 0.23936 0.20682 0.61471 0.0
C406 C 0.25582 0.22788 0.66092 0.0
C407 C 0.23138 0.2446 0.75568 0.0
H408 H 0.26185 0.28535 0.73871 0.0
C409 C 0.2313 0.30214 0.87727 0.0
C410 C 0.24735 0.30945 0.89113 0.0
C411 C 0.22995 0.29017 0.842 0.0
C412 C 0.25338 0.27398 0.74408 0.0
H413 H 0.212 0.20576 0.6255 0.0
H414 H 0.21327 0.22829 0.68259 0.0
H415 H 0.26032 0.26316 0.68038 0.0
H416 H 0.27457 0.31012 0.87822 0.0
H417 H 0.2722 0.28916 0.81707 0.0
H418 H 0.22452 0.25535 0.81949 0.0
C419 C 0.22507 0.22462 0.66795 0.0
C420 C 0.25252 0.26128 0.71073 0.0
C421 C 0.22435 0.21177 0.63505 0.0
C422 C 0.262 0.30475 0.86841 0.0
C423 C 0.26064 0.29281 0.83315 0.0
C424 C 0.23224 0.2573 0.78902 0.0
C425 C 0.2408 0.23282 0.68121 0.0
C426 C 0.24156 0.24642 0.71627 0.0
C427 C 0.24463 0.28529 0.81982 0.0
C428 C 0.2433 0.27209 0.78366 0.0
H429 H 0.26691 0.21148 0.61312 0.0
H430 H 0.26815 0.23382 0.67088 0.0
H431 H 0.22298 0.23318 0.76121 0.0
H432 H 0.21976 0.30552 0.89392 0.0
H433 H 0.21742 0.28475 0.83205 0.0
C434 C 0.03899 -0.0004 0.88764 0.0
C435 C 0.04528 0.0158 0.87199 0.0
C436 C 0.02581 -0.0021 0.91953 0.0
C437 C 0.00398 0.02119 0.0078 0.0
H438 H 0.96775 0.98539 0.9899 0.0
C439 C 0.94429 0.01537 0.12175 0.0
C440 C 0.93878 -0.00107 0.13732 0.0
C441 C 0.95664 0.01763 0.08764 0.0
C442 C 0.97785 -0.00466 -0.00443 0.0
H443 H 0.0428 0.04296 0.87817 0.0
H444 H 0.01966 0.03996 0.93394 0.0
H445 H 0.99085 0.98916 0.93437 0.0
H446 H 0.94163 0.97194 0.12839 0.0
H447 H 0.96333 0.97592 0.06897 0.0
H448 H 0.99106 0.0273 0.06916 0.0
C449 C 0.02505 0.02859 0.92161 0.0
C450 C 0.99107 -0.00249 0.9638 0.0
C451 C 0.03827 0.0303 0.88959 0.0
C452 C 0.94558 0.98477 0.11712 0.0
C453 C 0.95796 0.98705 0.08296 0.0
C454 C 0.99076 0.01902 0.03959 0.0
C455 C 0.0186 0.01235 0.93658 0.0
C456 C 0.00433 0.01039 0.96971 0.0
C457 C 0.96378 0.00352 0.0683 0.0
C458 C 0.97758 0.00603 0.0339 0.0
H459 H 0.04415 0.98815 0.87502 0.0
H460 H 0.02132 0.98524 0.93101 0.0
H461 H 0.01413 0.03109 0.01359 0.0
H462 H 0.93925 0.02656 0.13633 0.0
H463 H 0.96064 0.03046 0.0765 0.0
C464 C 0.71727 0.70954 0.8727 0.0
C465 C 0.73148 0.70219 0.89096 0.0
C466 C 0.71943 0.72236 0.83961 0.0
C467 C 0.75024 0.74139 0.75494 0.0
H468 H 0.7247 0.78123 0.7679 0.0
C469 C 0.76522 0.802 0.64671 0.0
C470 C 0.75112 0.80937 0.62794 0.0
C471 C 0.76289 0.7892 0.67977 0.0
C472 C 0.73182 0.77013 0.76361 0.0
H473 H 0.75906 0.7023 0.888 0.0
H474 H 0.76277 0.72465 0.8308 0.0
H475 H 0.72002 0.75769 0.82186 0.0
H476 H 0.72354 0.80938 0.63011 0.0
H477 H 0.71952 0.78706 0.68739 0.0
H478 H 0.76205 0.75383 0.69673 0.0
C479 C 0.74997 0.72043 0.84167 0.0
C480 C 0.72909 0.75662 0.79441 0.0
C481 C 0.74782 0.70767 0.8747 0.0
C482 C 0.7347 0.80398 0.6438 0.0
C483 C 0.73238 0.79123 0.67685 0.0
C484 C 0.75296 0.75489 0.72416 0.0
C485 C 0.73582 0.72803 0.82405 0.0
C486 C 0.7383 0.74212 0.79045 0.0
C487 C 0.74642 0.78356 0.69482 0.0
C488 C 0.7438 0.76941 0.72819 0.0
H489 H 0.70451 0.70559 0.88443 0.0
H490 H 0.70827 0.72784 0.82623 0.0
H491 H 0.75736 0.73029 0.75063 0.0
H492 H 0.77804 0.80589 0.63531 0.0
H493 H 0.77398 0.78368 0.69348 0.0
C494 C 0.73577 0.30605 0.36556 0.0
C495 C 0.75204 0.31159 0.3822 0.0
C496 C 0.73387 0.29367 0.33149 0.0
C497 C 0.75544 0.2582 0.28345 0.0
H498 H 0.72258 0.26052 0.1854 0.0
C499 C 0.75137 0.21067 0.13412 0.0
C500 C 0.7351 0.20472 0.11824 0.0
C501 C 0.75325 0.22373 0.16628 0.0
C502 C 0.73165 0.2596 0.21292 0.0
H503 H 0.77912 0.30888 0.37495 0.0
H504 H 0.77577 0.2873 0.31504 0.0
H505 H 0.72669 0.28402 0.23968 0.0
H506 H 0.70804 0.2077 0.12422 0.0
H507 H 0.71135 0.23048 0.18098 0.0
H508 H 0.76036 0.23378 0.25693 0.0
C509 C 0.76449 0.29241 0.32892 0.0
C510 C 0.73405 0.27308 0.24389 0.0
C511 C 0.76641 0.30485 0.36299 0.0
C512 C 0.72074 0.21201 0.13571 0.0
C513 C 0.72264 0.22513 0.16797 0.0
C514 C 0.75304 0.24474 0.25254 0.0
C515 C 0.74817 0.28653 0.31328 0.0
C516 C 0.74598 0.27252 0.27946 0.0
C517 C 0.73894 0.23116 0.18343 0.0
C518 C 0.74114 0.2453 0.2169 0.0
H519 H 0.72442 0.31099 0.37953 0.0
H520 H 0.72112 0.2893 0.32047 0.0
H521 H 0.76449 0.25725 0.31102 0.0
H522 H 0.76273 0.20539 0.12136 0.0
H523 H 0.76599 0.22824 0.17702 0.0
C524 C 0.72797 0.20568 0.86555 0.0
C525 C 0.74278 0.20166 0.88866 0.0
C526 C 0.72888 0.21781 0.83072 0.0
C527 C 0.75824 0.24056 0.74928 0.0
H528 H 0.72432 0.27368 0.74942 0.0
C529 C 0.76319 0.30007 0.63323 0.0
C530 C 0.74809 0.3045 0.61227 0.0
C531 C 0.7627 0.28732 0.66648 0.0
C532 C 0.73377 0.26441 0.74859 0.0
H533 H 0.77023 0.20697 0.89252 0.0
H534 H 0.77178 0.22827 0.83172 0.0
H535 H 0.72328 0.25156 0.80778 0.0
H536 H 0.72065 0.29894 0.60973 0.0
H537 H 0.71984 0.2766 0.66746 0.0
H538 H 0.76872 0.25346 0.69003 0.0
C539 C 0.75949 0.22192 0.84046 0.0
C540 C 0.73317 0.25174 0.78201 0.0
C541 C 0.75858 0.20977 0.8754 0.0
C542 C 0.73251 0.29589 0.6253 0.0
C543 C 0.73203 0.28314 0.65855 0.0
C544 C 0.75883 0.25325 0.71578 0.0
C545 C 0.74461 0.2262 0.81816 0.0
C546 C 0.74537 0.23966 0.78264 0.0
C547 C 0.74712 0.27873 0.67951 0.0
C548 C 0.74657 0.26528 0.71506 0.0
H549 H 0.71559 0.19961 0.87465 0.0
H550 H 0.71724 0.22063 0.81361 0.0
H551 H 0.7677 0.23131 0.74862 0.0
H552 H 0.77542 0.30647 0.62409 0.0
H553 H 0.77452 0.28435 0.68244 0.0
C554 C 0.75461 0.71199 0.13297 0.0
C555 C 0.73862 0.70428 0.11987 0.0
C556 C 0.75583 0.72452 0.16684 0.0
C557 C 0.73066 0.75574 0.22408 0.0
H558 H 0.76575 0.75573 0.31701 0.0
C559 C 0.73118 0.799 0.38294 0.0
C560 C 0.74701 0.80678 0.39701 0.0
C561 C 0.73029 0.78667 0.34858 0.0
C562 C 0.756 0.75601 0.29097 0.0
H563 H 0.71139 0.70357 0.13256 0.0
H564 H 0.71357 0.72528 0.19182 0.0
H565 H 0.76403 0.73371 0.25823 0.0
H566 H 0.77434 0.80781 0.38562 0.0
H567 H 0.77274 0.78642 0.32542 0.0
H568 H 0.72262 0.77802 0.25681 0.0
C569 C 0.72513 0.7218 0.17545 0.0
C570 C 0.75502 0.74341 0.25734 0.0
C571 C 0.72391 0.70928 0.14167 0.0
C572 C 0.76193 0.80203 0.37574 0.0
C573 C 0.76104 0.7897 0.34141 0.0
C574 C 0.73165 0.76834 0.25768 0.0
C575 C 0.74109 0.72962 0.18824 0.0
C576 C 0.7423 0.74311 0.22363 0.0
C577 C 0.74522 0.78185 0.32757 0.0
C578 C 0.7443 0.76859 0.29155 0.0
H579 H 0.76619 0.70846 0.11681 0.0
H580 H 0.7683 0.73043 0.17569 0.0
H581 H 0.7209 0.756 0.1981 0.0
H582 H 0.71944 0.80233 0.39867 0.0
H583 H 0.71793 0.78071 0.339 0.0
C584 C 0.53868 0.52356 0.13397 0.0
C585 C 0.54311 0.5085 0.15515 0.0
C586 C 0.52589 0.52303 0.10089 0.0
C587 C 0.50253 0.49412 0.01973 0.0
H588 H 0.46953 0.52815 0.02134 0.0
C589 C 0.44341 0.48889 0.90419 0.0
C590 C 0.43938 0.50382 0.8816 0.0
C591 C 0.45563 0.48962 0.93874 0.0
C592 C 0.47875 0.51867 0.02021 0.0
H593 H 0.53759 0.48105 0.158 0.0
H594 H 0.51518 0.48016 0.10048 0.0
H595 H 0.49195 0.52904 0.07903 0.0
H596 H 0.44477 0.53128 0.87843 0.0
H597 H 0.46623 0.5325 0.93868 0.0
H598 H 0.48938 0.48376 0.96091 0.0
C599 C 0.52174 0.49236 0.10917 0.0
C600 C 0.49159 0.51917 0.0532 0.0
C601 C 0.53453 0.49288 0.14228 0.0
C602 C 0.44757 0.51954 0.89514 0.0
C603 C 0.45981 0.52026 0.92978 0.0
C604 C 0.4897 0.49361 0.98679 0.0
C605 C 0.51726 0.50744 0.08823 0.0
C606 C 0.50361 0.5069 0.05329 0.0
C607 C 0.4641 0.50527 0.95154 0.0
C608 C 0.47767 0.50586 0.98671 0.0
H609 H 0.54506 0.53581 0.14295 0.0
H610 H 0.52288 0.53484 0.08489 0.0
H611 H 0.51177 0.48465 0.01847 0.0
H612 H 0.43728 0.47657 0.89486 0.0
H613 H 0.45846 0.47789 0.95543 0.0
C614 C 0.03812 0.49089 0.39284 0.0
C615 C 0.0459 0.50679 0.37921 0.0
C616 C 0.0258 0.48984 0.42726 0.0
C617 C 0.00958 0.51376 0.5241 0.0
H618 H 0.96871 0.48345 0.50749 0.0
C619 C 0.95119 0.51508 0.64264 0.0
C620 C 0.94333 0.49923 0.6564 0.0
C621 C 0.96372 0.51599 0.60875 0.0
C622 C 0.98013 0.49185 0.51282 0.0
H623 H 0.0469 0.53407 0.39139 0.0
H624 H 0.02532 0.53223 0.45106 0.0
H625 H 0.99084 0.4849 0.449 0.0
H626 H 0.94241 0.4719 0.64509 0.0
H627 H 0.96432 0.47352 0.58624 0.0
H628 H -0.00115 0.52073 0.58788 0.0
C629 C 0.02889 0.52055 0.43549 0.0
C630 C 0.99281 0.49266 0.47937 0.0
C631 C 0.0412 0.52161 0.40109 0.0
C632 C 0.94818 0.48433 0.63527 0.0
C633 C 0.96067 0.48525 0.60135 0.0
C634 C -0.0031 0.51296 0.55754 0.0
C635 C 0.021 0.50468 0.4488 0.0
C636 C 0.00766 0.50364 0.48464 0.0
C637 C 0.96861 0.50108 0.58784 0.0
C638 C 0.98204 0.502 0.55223 0.0
H639 H 0.04148 0.47922 0.3768 0.0
H640 H 0.0201 0.4774 0.43721 0.0
H641 H 0.021 0.52217 0.52943 0.0
H642 H 0.94773 0.52681 0.65813 0.0
H643 H 0.96947 0.52839 0.59862 0.0
C644 C 0.04008 0.52827 0.13129 0.0
C645 C 0.04724 0.51392 0.14939 0.0
C646 C 0.02727 0.52632 0.09816 0.0
C647 C 0.00805 0.49582 0.01312 0.0
H648 H 0.96844 0.52169 0.02603 0.0
C649 C 0.94738 0.48101 0.90559 0.0
C650 C 0.94007 0.49511 0.88659 0.0
C651 C 0.9602 0.48336 0.93854 0.0
C652 C 0.97949 0.51448 0.02175 0.0
H653 H 0.04679 0.48631 0.14615 0.0
H654 H 0.02448 0.48297 0.08892 0.0
H655 H 0.99199 0.52617 0.08 0.0
H656 H 0.94017 0.52271 0.88825 0.0
H657 H 0.96253 0.52676 0.94539 0.0
H658 H -0.00445 0.48409 0.95497 0.0
C659 C 0.02883 0.49572 0.09992 0.0
C660 C 0.99299 0.51709 0.05255 0.0
C661 C 0.04157 0.49765 0.13298 0.0
C662 C 0.94553 0.51156 0.90213 0.0
C663 C 0.95829 0.51389 0.93509 0.0
C664 C -0.00544 0.4932 0.98236 0.0
C665 C 0.02144 0.51001 0.0824 0.0
C666 C 0.00739 0.50774 0.04865 0.0
C667 C 0.96592 0.49985 0.95324 0.0
C668 C 0.98011 0.50247 0.98642 0.0
H669 H 0.04418 0.54097 0.14315 0.0
H670 H 0.02195 0.53759 0.08487 0.0
H671 H 0.01909 0.48859 0.00882 0.0
H672 H 0.94345 0.46818 0.89445 0.0
H673 H 0.96568 0.47227 0.95241 0.0
C674 C 0.44953 0.48313 0.63368 0.0
C675 C 0.44225 0.49747 0.65138 0.0
C676 C 0.46253 0.48509 0.60111 0.0
C677 C 0.49556 0.51679 0.5568 0.0
H678 H 0.4958 0.48636 0.45281 0.0
C679 C 0.54121 0.52857 0.40287 0.0
C680 C 0.54817 0.51423 0.38422 0.0
C681 C 0.52869 0.52662 0.4368 0.0
C682 C 0.49602 0.49485 0.48195 0.0
H683 H 0.44273 0.52509 0.64804 0.0
H684 H 0.4652 0.52841 0.59108 0.0
H685 H 0.47293 0.48254 0.50891 0.0
H686 H 0.54789 0.48663 0.38779 0.0
H687 H 0.5263 0.48331 0.44708 0.0
H688 H 0.51864 0.52913 0.52973 0.0
C689 C 0.46107 0.5157 0.60289 0.0
C690 C 0.48292 0.49264 0.51407 0.0
C691 C 0.4481 0.51376 0.63535 0.0
C692 C 0.5427 0.49796 0.40109 0.0
C693 C 0.53024 0.49603 0.43491 0.0
C694 C 0.50866 0.519 0.52467 0.0
C695 C 0.46852 0.50141 0.58565 0.0
C696 C 0.48254 0.50361 0.5518 0.0
C697 C 0.52292 0.5103 0.45269 0.0
C698 C 0.50904 0.50804 0.48692 0.0
H699 H 0.44535 0.47042 0.64538 0.0
H700 H 0.46813 0.47384 0.58871 0.0
H701 H 0.49574 0.5253 0.5859 0.0
H702 H 0.54513 0.54127 0.39056 0.0
H703 H 0.52319 0.53786 0.44966 0.0
C704 C 0.10153 0.43095 0.23575 0.0
C705 C 0.09379 0.44287 0.20881 0.0
C706 C 0.10788 0.41666 0.21555 0.0
C707 C 0.12382 0.40428 0.10304 0.0
H708 H 0.13204 0.36265 0.16731 0.0
C709 C 0.16975 0.35862 0.03015 0.0
C710 C 0.18294 0.35589 0.06093 0.0
C711 C 0.15472 0.36497 0.04568 0.0
C712 C 0.12968 0.37415 0.14881 0.0
H713 H 0.08504 0.44851 0.14073 0.0
H714 H 0.09532 0.42322 0.10579 0.0
H715 H 0.1122 0.38182 0.19934 0.0
H716 H 0.19027 0.35638 0.13237 0.0
H717 H 0.16406 0.36745 0.15938 0.0
H718 H 0.14158 0.39686 0.05319 0.0
C719 C 0.09724 0.42518 0.14209 0.0
C720 C 0.11842 0.38519 0.16723 0.0
C721 C 0.09125 0.43962 0.1621 0.0
C722 C 0.18037 0.35851 0.1078 0.0
C723 C 0.1653 0.36469 0.12334 0.0
C724 C 0.13488 0.39319 0.08445 0.0
C725 C 0.1063 0.41391 0.16814 0.0
C726 C 0.11579 0.40068 0.1453 0.0
C727 C 0.15256 0.36852 0.09227 0.0
C728 C 0.13835 0.37829 0.10784 0.0
H729 H 0.10364 0.43319 0.27189 0.0
H730 H 0.1149 0.4084 0.23674 0.0
H731 H 0.12244 0.41619 0.08544 0.0
H732 H 0.17135 0.35662 0.99386 0.0
H733 H 0.14503 0.36772 0.02107 0.0
C734 C 0.77325 0.89964 0.48823 0.0
C735 C 0.76122 0.8904 0.4605 0.0
C736 C 0.784 0.91291 0.46975 0.0
C737 C 0.80462 0.92597 0.36365 0.0
H738 H 0.81159 0.97087 0.41812 0.0
C739 C 0.84953 0.97826 0.28014 0.0
C740 C 0.85968 0.98894 0.30935 0.0
C741 C 0.83617 0.96742 0.29769 0.0
C742 C 0.80997 0.95834 0.40277 0.0
H743 H 0.75078 0.888 0.39198 0.0
H744 H 0.76983 0.91091 0.35966 0.0
H745 H 0.79098 0.94961 0.45187 0.0
H746 H 0.86371 -0.00316 0.3797 0.0
H747 H 0.84094 0.9775 0.41057 0.0
H748 H 0.82401 0.9342 0.31581 0.0
C749 C 0.77085 0.90793 0.39564 0.0
C750 C 0.79811 0.94622 0.42203 0.0
C751 C 0.75993 0.89488 0.41422 0.0
C752 C 0.85604 0.98881 0.35631 0.0
C753 C 0.84288 0.97777 0.37397 0.0
C754 C 0.81667 0.93795 0.34484 0.0
C755 C 0.78307 0.91694 0.42312 0.0
C756 C 0.79535 0.92995 0.40259 0.0
C757 C 0.83286 0.9668 0.34496 0.0
C758 C 0.81953 0.9543 0.36415 0.0
H759 H 0.77448 0.89649 0.52403 0.0
H760 H 0.79341 0.91965 0.49152 0.0
H761 H 0.80286 0.91341 0.3484 0.0
H762 H 0.85197 0.97823 0.24372 0.0
H763 H 0.8285 0.95947 0.27413 0.0
C764 C 0.31951 0.65236 0.52461 0.0
C765 C 0.30651 0.65496 0.55612 0.0
C766 C 0.33475 0.64621 0.53934 0.0
C767 C 0.36061 0.63762 0.64148 0.0
H768 H 0.36781 0.59538 0.5792 0.0
C769 C 0.38789 0.58091 0.73038 0.0
C770 C 0.39559 0.56877 0.70408 0.0
C771 C 0.3819 0.59525 0.70954 0.0
C772 C 0.36645 0.60735 0.59646 0.0
H773 H 0.29972 0.65444 0.62794 0.0
H774 H 0.32627 0.64375 0.65356 0.0
H775 H 0.34854 0.61456 0.54671 0.0
H776 H 0.40464 0.56283 0.63651 0.0
H777 H 0.39489 0.58819 0.60045 0.0
H778 H 0.37818 0.63014 0.69202 0.0
C779 C 0.32474 0.64645 0.61757 0.0
C780 C 0.35531 0.61836 0.57773 0.0
C781 C 0.30946 0.6524 0.60283 0.0
C782 C 0.39846 0.57188 0.6574 0.0
C783 C 0.39279 0.58637 0.63674 0.0
C784 C 0.37193 0.62668 0.66004 0.0
C785 C 0.33732 0.64278 0.58585 0.0
C786 C 0.3518 0.63328 0.60087 0.0
C787 C 0.38376 0.59785 0.66213 0.0
C788 C 0.37449 0.61109 0.63861 0.0
H789 H 0.3176 0.65431 0.4884 0.0
H790 H 0.3443 0.64356 0.51423 0.0
H791 H 0.35825 0.64916 0.65974 0.0
H792 H 0.38553 0.5788 0.76647 0.0
H793 H 0.37488 0.60368 0.73022 0.0
C794 C 0.71163 0.1158 0.98736 0.0
C795 C 0.7279 0.11989 0.96877 0.0
C796 C 0.70075 0.10282 0.96818 0.0
C797 C 0.68292 0.06966 0.93377 0.0
H798 H 0.68084 0.06781 0.80147 0.0
C799 C 0.63973 0.01846 0.84036 0.0
C800 C 0.63027 0.02406 0.80338 0.0
C801 C 0.6529 0.02909 0.85944 0.0
C802 C 0.68122 0.06821 0.83843 0.0
H803 H 0.74582 0.11313 0.91684 0.0
H804 H 0.72695 0.09031 0.88392 0.0
H805 H 0.70122 0.08827 0.83859 0.0
H806 H 0.62747 0.04501 0.75657 0.0
H807 H 0.65033 0.06369 0.7903 0.0
H808 H 0.66248 0.05004 0.93363 0.0
C809 C 0.72245 0.09735 0.91265 0.0
C810 C 0.69304 0.07979 0.85974 0.0
C811 C 0.7333 0.11036 0.93171 0.0
C812 C 0.63457 0.04032 0.78498 0.0
C813 C 0.64772 0.051 0.8042 0.0
C814 C 0.67107 0.05811 0.91247 0.0
C815 C 0.70594 0.09364 0.93015 0.0
C816 C 0.69394 0.08073 0.90765 0.0
C817 C 0.65686 0.04558 0.84209 0.0
C818 C 0.67 0.05733 0.86455 0.0
H819 H 0.7071 0.12296 0.01584 0.0
H820 H 0.68805 0.1004 0.9822 0.0
H821 H 0.6834 0.06995 0.97073 0.0
H822 H 0.6368 0.00593 0.85508 0.0
H823 H 0.6599 0.02441 0.88805 0.0
C824 C 0.13831 0.53346 0.28417 0.0
C825 C 0.12927 0.52113 0.31148 0.0
C826 C 0.15156 0.54416 0.30285 0.0
C827 C 0.1645 0.56435 0.40908 0.0
H828 H 0.20948 0.5717 0.35519 0.0
C829 C 0.21608 0.61008 0.49254 0.0
C830 C 0.22679 0.62018 0.46327 0.0
C831 C 0.20543 0.59655 0.47518 0.0
C832 C 0.19692 0.56999 0.37038 0.0
H833 H 0.1272 0.5101 0.37943 0.0
H834 H 0.15005 0.52909 0.41215 0.0
H835 H 0.18844 0.55098 0.32112 0.0
H836 H 0.23494 0.62399 0.393 0.0
H837 H 0.21589 0.60097 0.3624 0.0
H838 H 0.17244 0.5838 0.45694 0.0
C839 C 0.14695 0.53035 0.37632 0.0
C840 C 0.18494 0.55805 0.35095 0.0
C841 C 0.13393 0.51947 0.35751 0.0
C842 C 0.22688 0.61635 0.41645 0.0
C843 C 0.21601 0.60304 0.39896 0.0
C844 C 0.17633 0.57649 0.42801 0.0
C845 C 0.15575 0.54288 0.34928 0.0
C846 C 0.16864 0.55516 0.37015 0.0
C847 C 0.20502 0.59304 0.42801 0.0
C848 C 0.19271 0.57953 0.40889 0.0
H849 H 0.13501 0.53497 0.24857 0.0
H850 H 0.15814 0.55381 0.28144 0.0
H851 H 0.15191 0.56246 0.42414 0.0
H852 H 0.21588 0.61267 0.52887 0.0
H853 H 0.19745 0.58891 0.4988 0.0
C854 C 0.60094 0.93325 0.72888 0.0
C855 C 0.5936 0.9456 0.70248 0.0
C856 C 0.60701 0.91896 0.708 0.0
C857 C 0.62314 0.90699 0.5954 0.0
H858 H 0.62974 0.86457 0.65782 0.0
C859 C 0.66852 0.86046 0.52319 0.0
C860 C 0.68133 0.85728 0.55475 0.0
C861 C 0.65354 0.86715 0.53792 0.0
C862 C 0.62783 0.87629 0.63981 0.0
H863 H 0.58532 0.95203 0.63449 0.0
H864 H 0.59519 0.92678 0.59831 0.0
H865 H 0.61024 0.88406 0.68993 0.0
H866 H 0.688 0.85736 0.62662 0.0
H867 H 0.66189 0.86895 0.65224 0.0
H868 H 0.64103 0.89944 0.546 0.0
C869 C 0.59696 0.92838 0.63477 0.0
C870 C 0.61676 0.88751 0.65828 0.0
C871 C 0.59122 0.94281 0.6555 0.0
C872 C 0.67841 0.85982 0.60148 0.0
C873 C 0.66338 0.86631 0.61622 0.0
C874 C 0.63401 0.89571 0.57673 0.0
C875 C 0.60557 0.91663 0.66041 0.0
C876 C 0.61475 0.90328 0.63713 0.0
C877 C 0.65104 0.87054 0.58447 0.0
C878 C 0.63691 0.88053 0.59954 0.0
H879 H 0.60292 0.93512 0.7652 0.0
H880 H 0.61371 0.91033 0.72888 0.0
H881 H 0.62221 0.9191 0.57839 0.0
H882 H 0.67041 0.85855 0.48697 0.0
H883 H 0.64417 0.87024 0.51279 0.0
C884 C 0.34766 0.49416 0.83586 0.0
C885 C 0.35801 0.48894 0.80025 0.0
C886 C 0.33511 0.48277 0.85502 0.0
C887 C 0.32546 0.43721 0.87382 0.0
H888 H 0.28013 0.44954 0.90464 0.0
C889 C 0.27993 0.39447 0.98673 0.0
C890 C 0.26338 0.39106 0.96935 0.0
C891 C 0.29098 0.4073 0.9674 0.0
C892 C 0.29274 0.44594 0.89615 0.0
H893 H 0.36297 0.4679 0.75567 0.0
H894 H 0.34105 0.44798 0.78932 0.0
H895 H 0.29998 0.47011 0.86505 0.0
H896 H 0.24516 0.39884 0.91944 0.0
H897 H 0.26444 0.4213 0.88596 0.0
H898 H 0.31827 0.41305 0.90471 0.0
C899 C 0.34275 0.46085 0.80256 0.0
C900 C 0.3041 0.45771 0.87375 0.0
C901 C 0.3552 0.47228 0.78313 0.0
C902 C 0.25787 0.40114 0.93348 0.0
C903 C 0.26886 0.41406 0.91444 0.0
C904 C 0.31418 0.42551 0.89656 0.0
C905 C 0.33277 0.46591 0.83917 0.0
C906 C 0.32055 0.45342 0.86221 0.0
C907 C 0.28562 0.41705 0.93065 0.0
C908 C 0.2977 0.42974 0.90787 0.0
H909 H 0.34951 0.50694 0.84969 0.0
H910 H 0.32766 0.48698 0.88337 0.0
H911 H 0.33813 0.43364 0.86583 0.0
H912 H 0.28452 0.38693 0.01439 0.0
H913 H 0.30378 0.40948 0.9809 0.0
C914 C 0.80885 0.15991 0.11672 0.0
C915 C 0.80625 0.15747 0.06967 0.0
C916 C 0.82324 0.15428 0.13793 0.0
C917 C 0.86431 0.13467 0.11577 0.0
H918 H 0.85184 0.11003 0.22715 0.0
C919 C 0.8912 0.07253 0.17101 0.0
C920 C 0.89349 0.06925 0.21767 0.0
C921 C 0.88498 0.08775 0.1568 0.0
C922 C 0.85573 0.11716 0.19672 0.0
H923 H 0.81707 0.14821 0.00734 0.0
H924 H 0.84181 0.13765 0.04447 0.0
H925 H 0.83238 0.12901 0.19458 0.0
H926 H 0.89206 0.0797 0.28591 0.0
H927 H 0.88081 0.10631 0.261 0.0
H928 H 0.8872 0.12163 0.11664 0.0
C929 C 0.83304 0.14429 0.06505 0.0
C930 C 0.84455 0.12812 0.17793 0.0
C931 C 0.81878 0.15023 0.0437 0.0
C932 C 0.89034 0.08188 0.24974 0.0
C933 C 0.8839 0.09707 0.23553 0.0
C934 C 0.87542 0.12352 0.13436 0.0
C935 C 0.83516 0.14575 0.11271 0.0
C936 C 0.84844 0.13661 0.13643 0.0
C937 C 0.88075 0.09994 0.189 0.0
C938 C 0.87097 0.11427 0.17426 0.0
H939 H 0.79949 0.16573 0.13741 0.0
H940 H 0.82468 0.15606 0.17443 0.0
H941 H 0.86789 0.14127 0.08434 0.0
H942 H 0.89366 0.06307 0.14549 0.0
H943 H 0.88251 0.08952 0.12078 0.0
C944 C 0.81304 0.64607 0.97908 0.0
C945 C 0.80102 0.65334 0.95138 0.0
C946 C 0.82722 0.63933 0.95946 0.0
C947 C 0.83966 0.62158 0.84892 0.0
H948 H 0.88183 0.6157 0.91319 0.0
C949 C 0.88787 0.56707 0.85827 0.0
C950 C 0.89077 0.56416 0.81169 0.0
C951 C 0.8809 0.58193 0.87247 0.0
C952 C 0.87017 0.61739 0.8947 0.0
H953 H 0.79508 0.66072 0.88226 0.0
H954 H 0.82018 0.64971 0.84823 0.0
H955 H 0.8621 0.63536 0.94337 0.0
H956 H 0.88959 0.5749 0.74367 0.0
H957 H 0.87706 0.60083 0.76855 0.0
H958 H 0.84755 0.60338 0.80086 0.0
C959 C 0.81837 0.6485 0.88478 0.0
C960 C 0.85881 0.62855 0.91208 0.0
C961 C 0.80404 0.6549 0.90427 0.0
C962 C 0.88742 0.5768 0.77978 0.0
C963 C 0.88024 0.59159 0.79396 0.0
C964 C 0.85108 0.61063 0.83133 0.0
C965 C 0.8298 0.64002 0.91184 0.0
C966 C 0.84316 0.63038 0.89013 0.0
C967 C 0.87653 0.59408 0.84033 0.0
C968 C 0.8662 0.60803 0.85474 0.0
H969 H 0.81097 0.6447 0.01552 0.0
H970 H 0.83561 0.63276 0.98142 0.0
H971 H 0.82764 0.62235 0.83138 0.0
H972 H 0.89045 0.5576 0.88368 0.0
H973 H 0.87802 0.58342 0.90836 0.0
C974 C 0.22758 0.11864 0.61104 0.0
C975 C 0.22662 0.12178 0.56388 0.0
C976 C 0.21705 0.10562 0.6312 0.0
C977 C 0.19229 0.06542 0.61023 0.0
H978 H 0.1635 0.07878 0.70926 0.0
C979 C 0.13478 0.02202 0.67401 0.0
C980 C 0.12978 0.02301 0.7199 0.0
C981 C 0.14799 0.03309 0.65684 0.0
C982 C 0.17167 0.07468 0.68238 0.0
H983 H 0.21436 0.11341 0.50058 0.0
H984 H 0.19616 0.0903 0.53592 0.0
H985 H 0.18428 0.0997 0.67556 0.0
H986 H 0.13518 0.03576 0.78442 0.0
H987 H 0.15879 0.05462 0.75508 0.0
H988 H 0.18004 0.04033 0.61743 0.0
C989 C 0.20499 0.09806 0.55713 0.0
C990 C 0.18349 0.08672 0.6629 0.0
C991 C 0.21533 0.11129 0.53702 0.0
C992 C 0.13868 0.03484 0.74877 0.0
C993 C 0.15212 0.04573 0.7318 0.0
C994 C 0.18067 0.05326 0.63025 0.0
C995 C 0.2056 0.09531 0.60448 0.0
C996 C 0.19374 0.08225 0.62633 0.0
C997 C 0.15674 0.04522 0.68537 0.0
C998 C 0.17003 0.05779 0.6662 0.0
H999 H 0.23616 0.12652 0.63263 0.0
H1000 H 0.21778 0.10366 0.66776 0.0
H1001 H 0.2002 0.06167 0.5823 0.0
H1002 H 0.12809 0.01308 0.65084 0.0
H1003 H 0.15093 0.03246 0.62079 0.0
C1004 C 0.67722 0.35771 0.41473 0.0
C1005 C 0.68022 0.35481 0.46126 0.0
C1006 C 0.6619 0.36372 0.40047 0.0
C1007 C 0.63161 0.39164 0.4421 0.0
H1008 H 0.60836 0.38075 0.3278 0.0
C1009 C 0.58871 0.43904 0.36581 0.0
C1010 C 0.59125 0.44231 0.31909 0.0
C1011 C 0.59435 0.42439 0.38562 0.0
C1012 C 0.61473 0.38398 0.35978 0.0
H1013 H 0.66918 0.35489 0.52911 0.0
H1014 H 0.64242 0.36578 0.50415 0.0
H1015 H 0.62822 0.36137 0.35875 0.0
H1016 H 0.6007 0.43246 0.25577 0.0
H1017 H 0.6114 0.4073 0.29056 0.0
H1018 H 0.61935 0.41476 0.44193 0.0
C1019 C 0.65195 0.36333 0.4788 0.0
C1020 C 0.62599 0.37282 0.3776 0.0
C1021 C 0.66723 0.3571 0.49304 0.0
C1022 C 0.59861 0.4302 0.29192 0.0
C1023 C 0.60462 0.41571 0.31193 0.0
C1024 C 0.62055 0.40288 0.42409 0.0
C1025 C 0.64935 0.36712 0.43252 0.0
C1026 C 0.63491 0.37682 0.41824 0.0
C1027 C 0.60308 0.41292 0.35936 0.0
C1028 C 0.61236 0.39947 0.38196 0.0
H1029 H 0.68695 0.35591 0.38942 0.0
H1030 H 0.66034 0.36669 0.36466 0.0
H1031 H 0.63849 0.3952 0.47315 0.0
H1032 H 0.58278 0.44807 0.38734 0.0
H1033 H 0.59247 0.42243 0.42194 0.0
C1034 C 0.35073 0.97577 0.2415 0.0
C1035 C 0.36011 0.98799 0.21459 0.0
C1036 C 0.33761 0.9651 0.22209 0.0
C1037 C 0.32529 0.94492 0.11516 0.0
H1038 H 0.27988 0.93817 0.16671 0.0
C1039 C 0.27356 0.90014 0.02878 0.0
C1040 C 0.26251 0.89015 0.05745 0.0
C1041 C 0.28434 0.91345 0.04679 0.0
C1042 C 0.29255 0.93972 0.15217 0.0
H1043 H 0.36294 -0.00117 0.14655 0.0
H1044 H 0.3403 0.97991 0.1126 0.0
H1045 H 0.30094 0.95859 0.20187 0.0
H1046 H 0.2539 0.8863 0.12734 0.0
H1047 H 0.27313 0.90894 0.15904 0.0
H1048 H 0.31741 0.92561 0.0668 0.0
C1049 C 0.34304 0.9787 0.14866 0.0
C1050 C 0.30455 0.95148 0.17223 0.0
C1051 C 0.35594 0.98954 0.16818 0.0
C1052 C 0.26223 0.89387 0.10433 0.0
C1053 C 0.2732 0.90696 0.12246 0.0
C1054 C 0.31342 0.93295 0.09558 0.0
C1055 C 0.33388 0.9663 0.17534 0.0
C1056 C 0.321 0.95415 0.15388 0.0
C1057 C 0.28452 0.91685 0.09402 0.0
C1058 C 0.29689 0.93015 0.11385 0.0
H1059 H 0.35365 0.97433 0.27738 0.0
H1060 H 0.33074 0.95556 0.24324 0.0
H1061 H 0.33799 0.94664 0.10073 0.0
H1062 H 0.27392 0.89763 0.99243 0.0
H1063 H 0.29258 0.92101 0.02362 0.0
C1064 C 0.77141 0.39911 0.53339 0.0
C1065 C 0.75952 0.38915 0.55994 0.0
C1066 C 0.78208 0.41203 0.55362 0.0
C1067 C 0.80292 0.42287 0.66086 0.0
H1068 H 0.80988 0.4687 0.61202 0.0
C1069 C 0.84918 0.47339 0.74732 0.0
C1070 C 0.85911 0.48444 0.71849 0.0
C1071 C 0.83557 0.46291 0.72968 0.0
C1072 C 0.80826 0.45591 0.62581 0.0
H1073 H 0.74924 0.38513 0.62825 0.0
H1074 H 0.76815 0.40746 0.6636 0.0
H1075 H 0.78894 0.44822 0.57668 0.0
H1076 H 0.86255 0.49332 0.64872 0.0
H1077 H 0.83936 0.47464 0.61764 0.0
H1078 H 0.82267 0.43009 0.70858 0.0
C1079 C 0.76912 0.4053 0.62718 0.0
C1080 C 0.7962 0.44424 0.60566 0.0
C1081 C 0.75827 0.39259 0.60688 0.0
C1082 C 0.85505 0.485 0.67185 0.0
C1083 C 0.84164 0.47434 0.65409 0.0
C1084 C 0.81517 0.43442 0.68054 0.0
C1085 C 0.78122 0.41501 0.60083 0.0
C1086 C 0.79348 0.42762 0.62294 0.0
C1087 C 0.83177 0.46307 0.68268 0.0
C1088 C 0.81808 0.45107 0.66315 0.0
H1089 H 0.77262 0.39676 0.49713 0.0
H1090 H 0.7914 0.41931 0.53267 0.0
H1091 H 0.80118 0.41004 0.67445 0.0
H1092 H 0.85195 0.47281 0.78351 0.0
H1093 H 0.82805 0.45466 0.75294 0.0
C1094 C 0.30827 0.15157 0.41624 0.0
C1095 C 0.30553 0.15456 0.46285 0.0
C1096 C 0.32337 0.14523 0.40152 0.0
C1097 C 0.35344 0.11683 0.44216 0.0
H1098 H 0.37666 0.12777 0.32775 0.0
C1099 C 0.39682 0.06977 0.36604 0.0
C1100 C 0.39448 0.06653 0.31926 0.0
C1101 C 0.39088 0.08428 0.38581 0.0
C1102 C 0.37029 0.12452 0.35973 0.0
H1103 H 0.31682 0.15426 0.53035 0.0
H1104 H 0.3432 0.1428 0.50459 0.0
H1105 H 0.35691 0.14721 0.35895 0.0
H1106 H 0.38499 0.07628 0.25583 0.0
H1107 H 0.37378 0.10119 0.29053 0.0
H1108 H 0.36562 0.09366 0.4418 0.0
C1109 C 0.33363 0.14543 0.47954 0.0
C1110 C 0.35908 0.13571 0.37769 0.0
C1111 C 0.31857 0.15199 0.49423 0.0
C1112 C 0.38695 0.07852 0.29202 0.0
C1113 C 0.38064 0.09286 0.31198 0.0
C1114 C 0.36444 0.10556 0.42401 0.0
C1115 C 0.33597 0.14159 0.43319 0.0
C1116 C 0.35021 0.13171 0.41844 0.0
C1117 C 0.38205 0.09563 0.35942 0.0
C1118 C 0.37264 0.10901 0.38189 0.0
H1119 H 0.29849 0.15357 0.39122 0.0
H1120 H 0.32474 0.14223 0.36567 0.0
H1121 H 0.34659 0.11328 0.47327 0.0
H1122 H 0.40287 0.06084 0.38764 0.0
H1123 H 0.39265 0.08623 0.42215 0.0
C1124 C 0.63133 0.51901 0.16682 0.0
C1125 C 0.62747 0.52047 0.21346 0.0
C1126 C 0.64405 0.52994 0.14677 0.0
C1127 C 0.68251 0.55742 0.16845 0.0
H1128 H 0.66832 0.58387 0.06547 0.0
C1129 C 0.72346 0.61609 0.10135 0.0
C1130 C 0.72274 0.62023 0.05478 0.0
C1131 C 0.71279 0.60272 0.11934 0.0
C1132 C 0.67268 0.57637 0.09351 0.0
H1133 H 0.63434 0.534 0.27609 0.0
H1134 H 0.65694 0.55292 0.24102 0.0
H1135 H 0.64833 0.56231 0.09966 0.0
H1136 H 0.71082 0.61324 0.99008 0.0
H1137 H 0.69268 0.58938 0.02095 0.0
H1138 H 0.70696 0.5711 0.16192 0.0
C1139 C 0.64997 0.54339 0.2201 0.0
C1140 C 0.66115 0.5641 0.11324 0.0
C1141 C 0.63702 0.53264 0.24005 0.0
C1142 C 0.71152 0.61041 0.02621 0.0
C1143 C 0.70104 0.59681 0.04405 0.0
C1144 C 0.69417 0.56948 0.14819 0.0
C1145 C 0.65335 0.54232 0.17314 0.0
C1146 C 0.66591 0.55467 0.15116 0.0
C1147 C 0.70134 0.59295 0.09102 0.0
C1148 C 0.68934 0.57929 0.1108 0.0
H1149 H 0.62418 0.50976 0.14542 0.0
H1150 H 0.64652 0.52885 0.11053 0.0
H1151 H 0.68649 0.55016 0.19746 0.0
H1152 H 0.73192 0.62351 0.12428 0.0
H1153 H 0.7132 0.6004 0.15576 0.0
C1154 C 0.16964 0.85966 -0.0047 0.0
C1155 C 0.18251 0.85689 0.96354 0.0
C1156 C 0.15453 0.86618 0.98093 0.0
C1157 C 0.12858 0.87545 0.87963 0.0
H1158 H 0.12235 0.91779 0.94257 0.0
C1159 C 0.1009 0.93241 0.79265 0.0
C1160 C 0.09345 0.94456 0.8195 0.0
C1161 C 0.10712 0.9181 0.81304 0.0
C1162 C 0.12345 0.9058 0.92514 0.0
H1163 H 0.18917 0.85749 0.89164 0.0
H1164 H 0.16282 0.86878 0.86664 0.0
H1165 H 0.1415 0.89827 0.97411 0.0
H1166 H 0.08513 0.95057 0.88773 0.0
H1167 H 0.09525 0.92526 0.92304 0.0
H1168 H 0.11083 0.88321 0.82995 0.0
C1169 C 0.16437 0.86596 0.90255 0.0
C1170 C 0.13451 0.8946 0.94332 0.0
C1171 C 0.17953 0.85965 0.91693 0.0
C1172 C 0.09111 0.94152 0.86639 0.0
C1173 C 0.09699 0.92705 0.88662 0.0
C1174 C 0.11732 0.88658 0.86166 0.0
C1175 C 0.15196 0.86979 0.93454 0.0
C1176 C 0.13764 0.87962 0.91996 0.0
C1177 C 0.10572 0.91553 0.86056 0.0
C1178 C 0.11509 0.90219 0.88336 0.0
H1179 H 0.17157 0.85757 0.03143 0.0
H1180 H 0.1451 0.86896 0.00624 0.0
H1181 H 0.13067 0.86387 0.8612 0.0
H1182 H 0.10285 0.93448 0.75638 0.0
H1183 H 0.1139 0.90964 0.79183 0.0
loop_
_geom_bond_atom_site_label_1
_geom_bond_atom_site_label_2
_geom_bond_distance
_geom_bond_site_symmetry_2
_ccdc_geom_bond_type
C0 O1 1.306 . S
C0 O3 1.160 . S
O1 C0 1.306 . S
O1 Cd2 2.228 . S
Cd2 O1 2.228 . S
Cd2 O6 2.273 . S
Cd2 O10 2.277 1_554 S
O3 C0 1.160 . S
O3 Cd4 2.203 . S
Cd4 O3 2.203 . S
Cd4 O6 2.411 . S
Cd4 O7 2.333 1_554 S
Cd4 O8 2.352 . S
Cd4 O12 2.277 1_554 S
Cd4 O13 2.356 . S
C5 O10 1.209 . S
C5 O12 1.226 . S
O6 Cd2 2.273 . S
O6 Cd4 2.411 . S
O6 C9 1.320 1_554 S
O7 Cd4 2.333 1_556 S
O7 C9 1.214 . S
O8 Cd4 2.352 . S
O8 C11 1.258 . S
C9 O6 1.320 1_556 S
C9 O7 1.214 . S
O10 Cd2 2.277 1_556 S
O10 C5 1.209 . S
C11 O8 1.258 . S
C11 O13 1.282 . S
O12 Cd4 2.277 1_556 S
O12 C5 1.226 . S
O13 Cd4 2.356 . S
O13 C11 1.282 . S
C14 O15 1.306 1_545 S
C14 O17 1.160 . S
O15 C14 1.306 1_565 S
O15 Cd16 2.228 . S
Cd16 O15 2.228 . S
Cd16 O20 2.273 . S
Cd16 O24 2.259 1_565 S
O17 C14 1.160 . S
O17 Cd18 2.203 . S
Cd18 O17 2.203 . S
Cd18 O20 2.411 1_545 S
Cd18 O21 2.333 . S
Cd18 O22 2.352 . S
Cd18 O26 2.277 . S
Cd18 O27 2.356 . S
C19 O24 1.229 . S
C19 O26 1.226 . S
O20 Cd16 2.273 . S
O20 Cd18 2.411 1_565 S
O20 C23 1.320 . S
O21 Cd18 2.333 . S
O21 C23 1.214 1_545 S
O22 Cd18 2.352 . S
O22 C25 1.258 . S
C23 O20 1.320 . S
C23 O21 1.214 1_565 S
O24 Cd16 2.259 1_545 S
O24 C19 1.229 . S
C25 O22 1.258 . S
C25 O27 1.282 . S
O26 Cd18 2.277 . S
O26 C19 1.226 . S
O27 Cd18 2.356 . S
O27 C25 1.282 . S
C28 O29 1.306 . S
C28 O31 1.160 . S
O29 C28 1.306 . S
O29 Cd30 2.228 . S
Cd30 O29 2.228 . S
Cd30 O34 2.273 . S
Cd30 O38 2.277 . S
O31 C28 1.160 . S
O31 Cd32 2.203 . S
Cd32 O31 2.203 . S
Cd32 O34 2.411 . S
Cd32 O35 2.333 . S
Cd32 O36 2.352 . S
Cd32 O40 2.277 . S
Cd32 O41 2.356 . S
C33 O38 1.209 . S
C33 O40 1.226 . S
O34 Cd30 2.273 . S
O34 Cd32 2.411 . S
O34 C37 1.320 . S
O35 Cd32 2.333 . S
O35 C37 1.214 . S
O36 Cd32 2.352 . S
O36 C39 1.258 . S
C37 O34 1.320 . S
C37 O35 1.214 . S
O38 Cd30 2.277 . S
O38 C33 1.209 . S
C39 O36 1.258 . S
C39 O41 1.282 . S
O40 Cd32 2.277 . S
O40 C33 1.226 . S
O41 Cd32 2.356 . S
O41 C39 1.282 . S
C42 O43 1.306 . S
C42 O45 1.161 . S
O43 C42 1.306 . S
O43 Cd44 2.228 . S
Cd44 O43 2.228 . S
Cd44 O48 2.273 . S
Cd44 O52 2.277 . S
O45 C42 1.161 . S
O45 Cd46 2.203 . S
Cd46 O45 2.203 . S
Cd46 O48 2.411 . S
Cd46 O49 2.333 . S
Cd46 O50 2.352 1_545 S
Cd46 O54 2.277 1_545 S
Cd46 O55 2.356 1_545 S
C47 O52 1.209 . S
C47 O54 1.226 1_545 S
O48 Cd44 2.273 . S
O48 Cd46 2.411 . S
O48 C51 1.320 . S
O49 Cd46 2.333 . S
O49 C51 1.214 . S
O50 Cd46 2.352 1_565 S
O50 C53 1.258 . S
C51 O48 1.320 . S
C51 O49 1.214 . S
O52 Cd44 2.277 . S
O52 C47 1.209 . S
C53 O50 1.258 . S
C53 O55 1.282 . S
O54 Cd46 2.277 1_565 S
O54 C47 1.226 1_565 S
O55 Cd46 2.356 1_565 S
O55 C53 1.282 . S
C56 O57 1.306 . S
C56 O59 1.160 . S
O57 C56 1.306 . S
O57 Cd58 2.228 1_556 S
Cd58 O57 2.228 1_554 S
Cd58 O62 2.273 . S
Cd58 O66 2.277 . S
O59 C56 1.160 . S
O59 Cd60 2.203 1_556 S
Cd60 O59 2.203 1_554 S
Cd60 O62 2.411 . S
Cd60 O63 2.333 . S
Cd60 O64 2.352 1_554 S
Cd60 O68 2.277 . S
Cd60 O69 2.356 . S
C61 O66 1.209 . S
C61 O68 1.226 . S
O62 Cd58 2.273 . S
O62 Cd60 2.411 . S
O62 C65 1.320 . S
O63 Cd60 2.333 . S
O63 C65 1.214 . S
O64 Cd60 2.352 1_556 S
O64 C67 1.258 . S
C65 O62 1.320 . S
C65 O63 1.214 . S
O66 Cd58 2.277 . S
O66 C61 1.209 . S
C67 O64 1.258 . S
C67 O69 1.282 1_556 S
O68 Cd60 2.277 . S
O68 C61 1.226 . S
O69 Cd60 2.356 . S
O69 C67 1.282 1_554 S
C70 O71 1.306 . S
C70 O73 1.161 . S
O71 C70 1.306 . S
O71 Cd72 2.228 . S
Cd72 O71 2.228 . S
Cd72 O76 2.273 . S
Cd72 O80 2.277 . S
O73 C70 1.161 . S
O73 Cd74 2.203 . S
Cd74 O73 2.203 . S
Cd74 O76 2.411 . S
Cd74 O77 2.333 . S
Cd74 O78 2.352 1_545 S
Cd74 O82 2.277 1_545 S
Cd74 O83 2.356 1_545 S
C75 O80 1.209 . S
C75 O82 1.226 1_545 S
O76 Cd72 2.273 . S
O76 Cd74 2.411 . S
O76 C79 1.320 . S
O77 Cd74 2.333 . S
O77 C79 1.214 . S
O78 Cd74 2.352 1_565 S
O78 C81 1.258 . S
C79 O76 1.320 . S
C79 O77 1.214 . S
O80 Cd72 2.277 . S
O80 C75 1.209 . S
C81 O78 1.258 . S
C81 O83 1.282 . S
O82 Cd74 2.277 1_565 S
O82 C75 1.226 1_565 S
O83 Cd74 2.356 1_565 S
O83 C81 1.282 . S
C84 O85 1.306 . S
C84 O87 1.160 . S
O85 C84 1.306 . S
O85 Cd86 2.228 . S
Cd86 O85 2.228 . S
Cd86 O90 2.273 . S
Cd86 O94 2.277 . S
O87 C84 1.160 . S
O87 Cd88 2.203 . S
Cd88 O87 2.203 . S
Cd88 O90 2.411 . S
Cd88 O91 2.333 . S
Cd88 O92 2.352 . S
Cd88 O96 2.277 . S
Cd88 O97 2.356 . S
C89 O94 1.209 . S
C89 O96 1.226 . S
O90 Cd86 2.273 . S
O90 Cd88 2.411 . S
O90 C93 1.320 . S
O91 Cd88 2.333 . S
O91 C93 1.214 . S
O92 Cd88 2.352 . S
O92 C95 1.258 . S
C93 O90 1.320 . S
C93 O91 1.214 . S
O94 Cd86 2.277 . S
O94 C89 1.209 . S
C95 O92 1.258 . S
C95 O97 1.282 . S
O96 Cd88 2.277 . S
O96 C89 1.226 . S
O97 Cd88 2.356 . S
O97 C95 1.282 . S
C98 O99 1.306 1_545 S
C98 O101 1.160 . S
O99 C98 1.306 1_565 S
O99 Cd100 2.228 . S
Cd100 O99 2.228 . S
Cd100 O104 2.273 . S
Cd100 O108 2.259 1_565 S
O101 C98 1.160 . S
O101 Cd102 2.203 . S
Cd102 O101 2.203 . S
Cd102 O104 2.411 1_545 S
Cd102 O105 2.333 . S
Cd102 O106 2.352 . S
Cd102 O110 2.277 . S
Cd102 O111 2.356 . S
C103 O108 1.228 . S
C103 O110 1.226 . S
O104 Cd100 2.273 . S
O104 Cd102 2.411 1_565 S
O104 C107 1.320 . S
O105 Cd102 2.333 . S
O105 C107 1.214 1_545 S
O106 Cd102 2.352 . S
O106 C109 1.258 . S
C107 O104 1.320 . S
C107 O105 1.214 1_565 S
O108 Cd100 2.259 1_545 S
O108 C103 1.228 . S
C109 O106 1.258 . S
C109 O111 1.282 . S
O110 Cd102 2.277 . S
O110 C103 1.226 . S
O111 Cd102 2.356 . S
O111 C109 1.282 . S
C112 O113 1.306 . S
C112 O115 1.160 . S
O113 C112 1.306 . S
O113 Cd114 2.228 . S
Cd114 O113 2.228 . S
Cd114 O118 2.273 . S
Cd114 O122 2.277 . S
O115 C112 1.160 . S
O115 Cd116 2.203 . S
Cd116 O115 2.203 . S
Cd116 O118 2.411 . S
Cd116 O119 2.333 . S
Cd116 O120 2.352 . S
Cd116 O124 2.277 . S
Cd116 O125 2.356 . S
C117 O122 1.209 . S
C117 O124 1.226 . S
O118 Cd114 2.273 . S
O118 Cd116 2.411 . S
O118 C121 1.320 . S
O119 Cd116 2.333 . S
O119 C121 1.214 . S
O120 Cd116 2.352 . S
O120 C123 1.258 . S
C121 O118 1.320 . S
C121 O119 1.214 . S
O122 Cd114 2.277 . S
O122 C117 1.209 . S
C123 O120 1.258 . S
C123 O125 1.282 . S
O124 Cd116 2.277 . S
O124 C117 1.226 . S
O125 Cd116 2.356 . S
O125 C123 1.282 . S
C126 O127 1.306 . S
C126 O129 1.160 . S
O127 C126 1.306 . S
O127 Cd128 2.228 . S
Cd128 O127 2.228 . S
Cd128 O132 2.273 . S
Cd128 O136 2.277 . S
O129 C126 1.160 . S
O129 Cd130 2.203 . S
Cd130 O129 2.203 . S
Cd130 O132 2.411 . S
Cd130 O133 2.333 . S
Cd130 O134 2.352 . S
Cd130 O138 2.277 . S
Cd130 O139 2.356 . S
C131 O136 1.209 . S
C131 O138 1.226 . S
O132 Cd128 2.273 . S
O132 Cd130 2.411 . S
O132 C135 1.320 . S
O133 Cd130 2.333 . S
O133 C135 1.214 . S
O134 Cd130 2.352 . S
O134 C137 1.258 . S
C135 O132 1.320 . S
C135 O133 1.214 . S
O136 Cd128 2.277 . S
O136 C131 1.209 . S
C137 O134 1.258 . S
C137 O139 1.282 . S
O138 Cd130 2.277 . S
O138 C131 1.226 . S
O139 Cd130 2.356 . S
O139 C137 1.282 . S
C140 O141 1.306 . S
C140 O143 1.160 . S
O141 C140 1.306 . S
O141 Cd142 2.228 . S
Cd142 O141 2.228 . S
Cd142 O146 2.273 . S
Cd142 O150 2.277 1_554 S
O143 C140 1.160 . S
O143 Cd144 2.203 . S
Cd144 O143 2.203 . S
Cd144 O146 2.411 . S
Cd144 O147 2.333 1_554 S
Cd144 O148 2.352 . S
Cd144 O152 2.277 1_554 S
Cd144 O153 2.356 . S
C145 O150 1.209 . S
C145 O152 1.226 . S
O146 Cd142 2.273 . S
O146 Cd144 2.411 . S
O146 C149 1.320 1_554 S
O147 Cd144 2.333 1_556 S
O147 C149 1.214 . S
O148 Cd144 2.352 . S
O148 C151 1.258 . S
C149 O146 1.320 1_556 S
C149 O147 1.214 . S
O150 Cd142 2.277 1_556 S
O150 C145 1.209 . S
C151 O148 1.258 . S
C151 O153 1.282 . S
O152 Cd144 2.277 1_556 S
O152 C145 1.226 . S
O153 Cd144 2.356 . S
O153 C151 1.282 . S
C154 O155 1.306 . S
C154 O157 1.160 . S
O155 C154 1.306 . S
O155 Cd156 2.228 . S
Cd156 O155 2.228 . S
Cd156 O160 2.273 . S
Cd156 O164 2.277 . S
O157 C154 1.160 . S
O157 Cd158 2.203 . S
Cd158 O157 2.203 . S
Cd158 O160 2.411 . S
Cd158 O161 2.333 . S
Cd158 O162 2.352 . S
Cd158 O166 2.277 . S
Cd158 O167 2.356 . S
C159 O164 1.209 . S
C159 O166 1.226 . S
O160 Cd156 2.273 . S
O160 Cd158 2.411 . S
O160 C163 1.320 . S
O161 Cd158 2.333 . S
O161 C163 1.214 . S
O162 Cd158 2.352 . S
O162 C165 1.258 . S
C163 O160 1.320 . S
C163 O161 1.214 . S
O164 Cd156 2.277 . S
O164 C159 1.209 . S
C165 O162 1.258 . S
C165 O167 1.282 . S
O166 Cd158 2.277 . S
O166 C159 1.226 . S
O167 Cd158 2.356 . S
O167 C165 1.282 . S
C168 O169 1.306 . S
C168 O171 1.160 . S
O169 C168 1.306 . S
O169 Cd170 2.228 . S
Cd170 O169 2.228 . S
Cd170 O174 2.273 . S
Cd170 O178 2.277 . S
O171 C168 1.160 . S
O171 Cd172 2.203 . S
Cd172 O171 2.203 . S
Cd172 O174 2.411 . S
Cd172 O175 2.333 . S
Cd172 O176 2.352 . S
Cd172 O180 2.277 . S
Cd172 O181 2.356 . S
C173 O178 1.209 . S
C173 O180 1.226 . S
O174 Cd170 2.273 . S
O174 Cd172 2.411 . S
O174 C177 1.320 . S
O175 Cd172 2.333 . S
O175 C177 1.214 . S
O176 Cd172 2.352 . S
O176 C179 1.258 . S
C177 O174 1.320 . S
C177 O175 1.214 . S
O178 Cd170 2.277 . S
O178 C173 1.209 . S
C179 O176 1.258 . S
C179 O181 1.282 . S
O180 Cd172 2.277 . S
O180 C173 1.226 . S
O181 Cd172 2.356 . S
O181 C179 1.282 . S
C182 O183 1.306 . S
C182 O185 1.160 . S
O183 C182 1.306 . S
O183 Cd184 2.228 . S
Cd184 O183 2.228 . S
Cd184 O188 2.273 . S
Cd184 O192 2.277 . S
O185 C182 1.160 . S
O185 Cd186 2.203 . S
Cd186 O185 2.203 . S
Cd186 O188 2.411 . S
Cd186 O189 2.333 . S
Cd186 O190 2.352 . S
Cd186 O194 2.277 . S
Cd186 O195 2.356 . S
C187 O192 1.209 . S
C187 O194 1.226 . S
O188 Cd184 2.273 . S
O188 Cd186 2.411 . S
O188 C191 1.320 . S
O189 Cd186 2.333 . S
O189 C191 1.214 . S
O190 Cd186 2.352 . S
O190 C193 1.258 . S
C191 O188 1.320 . S
C191 O189 1.214 . S
O192 Cd184 2.277 . S
O192 C187 1.209 . S
C193 O190 1.258 . S
C193 O195 1.282 . S
O194 Cd186 2.277 . S
O194 C187 1.226 . S
O195 Cd186 2.356 . S
O195 C193 1.282 . S
C196 O197 1.306 . S
C196 O199 1.160 . S
O197 C196 1.306 . S
O197 Cd198 2.228 1_556 S
Cd198 O197 2.228 1_554 S
Cd198 O202 2.273 . S
Cd198 O206 2.277 . S
O199 C196 1.160 . S
O199 Cd200 2.203 1_556 S
Cd200 O199 2.203 1_554 S
Cd200 O202 2.411 . S
Cd200 O203 2.333 . S
Cd200 O204 2.352 1_554 S
Cd200 O208 2.277 . S
Cd200 O209 2.356 . S
C201 O206 1.209 . S
C201 O208 1.226 . S
O202 Cd198 2.273 . S
O202 Cd200 2.411 . S
O202 C205 1.320 . S
O203 Cd200 2.333 . S
O203 C205 1.214 . S
O204 Cd200 2.352 1_556 S
O204 C207 1.258 . S
C205 O202 1.320 . S
C205 O203 1.214 . S
O206 Cd198 2.277 . S
O206 C201 1.209 . S
C207 O204 1.258 . S
C207 O209 1.282 1_556 S
O208 Cd200 2.277 . S
O208 C201 1.226 . S
O209 Cd200 2.356 . S
O209 C207 1.282 1_554 S
C210 O211 1.306 . S
C210 O213 1.160 . S
O211 C210 1.306 . S
O211 Cd212 2.228 . S
Cd212 O211 2.228 . S
Cd212 O216 2.273 . S
Cd212 O220 2.277 . S
O213 C210 1.160 . S
O213 Cd214 2.203 . S
Cd214 O213 2.203 . S
Cd214 O216 2.411 . S
Cd214 O217 2.333 . S
Cd214 O218 2.352 . S
Cd214 O222 2.277 . S
Cd214 O223 2.356 . S
C215 O220 1.209 . S
C215 O222 1.226 . S
O216 Cd212 2.273 . S
O216 Cd214 2.411 . S
O216 C219 1.320 . S
O217 Cd214 2.333 . S
O217 C219 1.214 . S
O218 Cd214 2.352 . S
O218 C221 1.258 . S
C219 O216 1.320 . S
C219 O217 1.214 . S
O220 Cd212 2.277 . S
O220 C215 1.209 . S
C221 O218 1.258 . S
C221 O223 1.282 . S
O222 Cd214 2.277 . S
O222 C215 1.226 . S
O223 Cd214 2.356 . S
O223 C221 1.282 . S
C224 C225 1.349 . S
C224 C226 1.327 . S
C224 H249 0.950 . S
C225 C224 1.349 . S
C225 C241 1.349 . S
C226 C224 1.327 . S
C226 C245 1.429 . S
C226 H250 0.950 . S
C227 C244 1.574 . S
C227 C246 1.368 . S
C227 H251 0.949 . S
H228 C232 0.949 . S
C229 C230 1.349 . S
C229 C231 1.327 . S
C229 H252 0.950 . S
C230 C229 1.349 . S
C230 C242 1.349 . S
C231 C229 1.327 . S
C231 C247 1.429 . S
C231 H253 0.950 . S
C232 H228 0.949 . S
C232 C240 1.574 . S
C232 C248 1.368 . S
H233 C241 0.950 . S
H234 C239 0.950 . S
H235 C240 0.949 . S
H236 C242 0.950 . S
H237 C243 0.950 . S
H238 C244 0.949 . S
C239 H234 0.950 . S
C239 C241 1.327 . S
C239 C245 1.429 . S
C240 C232 1.574 . S
C240 H235 0.949 . S
C240 C246 1.368 . S
C241 C225 1.349 . S
C241 H233 0.950 . S
C241 C239 1.327 . S
C242 C230 1.349 . S
C242 H236 0.950 . S
C242 C243 1.327 . S
C243 H237 0.950 . S
C243 C242 1.327 . S
C243 C247 1.429 . S
C244 C227 1.574 . S
C244 H238 0.949 . S
C244 C248 1.368 . S
C245 C226 1.429 . S
C245 C239 1.429 . S
C245 C246 1.523 . S
C246 C227 1.368 . S
C246 C240 1.368 . S
C246 C245 1.523 . S
C247 C231 1.429 . S
C247 C243 1.429 . S
C247 C248 1.523 . S
C248 C232 1.368 . S
C248 C244 1.368 . S
C248 C247 1.523 . S
H249 C224 0.950 . S
H250 C226 0.950 . S
H251 C227 0.949 . S
H252 C229 0.950 . S
H253 C231 0.950 . S
C254 C255 1.383 . S
C254 C256 1.321 1_545 S
C254 H279 0.920 1_545 S
C255 C254 1.383 . S
C255 C271 1.349 . S
C256 C254 1.321 1_565 S
C256 C275 1.409 1_565 S
C256 H280 0.974 . S
C257 C274 1.574 1_655 S
C257 C276 1.368 . S
C257 H281 0.949 . S
H258 C262 0.949 . S
C259 C260 1.349 . S
C259 C261 1.327 . S
C259 H282 0.950 . S
C260 C259 1.349 . S
C260 C272 1.349 1_545 S
C261 C259 1.327 . S
C261 C277 1.429 . S
C261 H283 0.950 . S
C262 H258 0.949 . S
C262 C270 1.574 1_455 S
C262 C278 1.368 1_565 S
H263 C271 0.950 . S
H264 C269 0.950 . S
H265 C270 0.949 . S
H266 C272 0.950 . S
H267 C273 0.950 . S
H268 C274 0.949 . S
C269 H264 0.950 . S
C269 C271 1.327 . S
C269 C275 1.429 . S
C270 C262 1.574 1_655 S
C270 H265 0.949 . S
C270 C276 1.368 1_565 S
C271 C255 1.349 . S
C271 H263 0.950 . S
C271 C269 1.327 . S
C272 C260 1.349 1_565 S
C272 H266 0.950 . S
C272 C273 1.327 . S
C273 H267 0.950 . S
C273 C272 1.327 . S
C273 C277 1.429 1_565 S
C274 C257 1.574 1_455 S
C274 H268 0.949 . S
C274 C278 1.368 . S
C275 C256 1.409 1_545 S
C275 C269 1.429 . S
C275 C276 1.523 . S
C276 C257 1.368 . S
C276 C270 1.368 1_545 S
C276 C275 1.523 . S
C277 C261 1.429 . S
C277 C273 1.429 1_545 S
C277 C278 1.523 . S
C278 C262 1.368 1_545 S
C278 C274 1.368 . S
C278 C277 1.523 . S
H279 C254 0.920 1_565 S
H280 C256 0.974 . S
H281 C257 0.949 . S
H282 C259 0.950 . S
H283 C261 0.950 . S
C284 C285 1.349 . S
C284 C286 1.327 . S
C284 H309 0.950 . S
C285 C284 1.349 . S
C285 C301 1.349 . S
C286 C284 1.327 . S
C286 C305 1.429 . S
C286 H310 0.950 . S
C287 C304 1.574 . S
C287 C306 1.368 . S
C287 H311 0.949 . S
H288 C292 0.949 . S
C289 C290 1.349 . S
C289 C291 1.327 . S
C289 H312 0.950 . S
C290 C289 1.349 . S
C290 C302 1.349 . S
C291 C289 1.327 . S
C291 C307 1.429 . S
C291 H313 0.950 . S
C292 H288 0.949 . S
C292 C300 1.574 . S
C292 C308 1.368 . S
H293 C301 0.950 . S
H294 C299 0.950 . S
H295 C300 0.949 . S
H296 C302 0.950 . S
H297 C303 0.950 . S
H298 C304 0.949 . S
C299 H294 0.950 . S
C299 C301 1.327 . S
C299 C305 1.429 . S
C300 C292 1.574 . S
C300 H295 0.949 . S
C300 C306 1.368 . S
C301 C285 1.349 . S
C301 H293 0.950 . S
C301 C299 1.327 . S
C302 C290 1.349 . S
C302 H296 0.950 . S
C302 C303 1.327 . S
C303 H297 0.950 . S
C303 C302 1.327 . S
C303 C307 1.429 . S
C304 C287 1.574 . S
C304 H298 0.949 . S
C304 C308 1.368 . S
C305 C286 1.429 . S
C305 C299 1.429 . S
C305 C306 1.523 . S
C306 C287 1.368 . S
C306 C300 1.368 . S
C306 C305 1.523 . S
C307 C291 1.429 . S
C307 C303 1.429 . S
C307 C308 1.523 . S
C308 C292 1.368 . S
C308 C304 1.368 . S
C308 C307 1.523 . S
H309 C284 0.950 . S
H310 C286 0.950 . S
H311 C287 0.949 . S
H312 C289 0.950 . S
H313 C291 0.950 . S
C314 C315 1.349 . S
C314 C316 1.327 . S
C314 H339 0.950 . S
C315 C314 1.349 . S
C315 C331 1.349 . S
C316 C314 1.327 . S
C316 C335 1.429 . S
C316 H340 0.950 . S
C317 C334 1.574 . S
C317 C336 1.368 . S
C317 H341 0.949 . S
H318 C322 0.949 . S
C319 C320 1.349 . S
C319 C321 1.327 . S
C319 H342 0.950 . S
C320 C319 1.349 . S
C320 C332 1.349 . S
C321 C319 1.327 . S
C321 C337 1.429 . S
C321 H343 0.950 . S
C322 H318 0.949 . S
C322 C330 1.574 1_556 S
C322 C338 1.368 . S
H323 C331 0.950 . S
H324 C329 0.950 . S
H325 C330 0.949 . S
H326 C332 0.950 . S
H327 C333 0.950 . S
H328 C334 0.949 . S
C329 H324 0.950 . S
C329 C331 1.327 . S
C329 C335 1.429 . S
C330 C322 1.574 1_554 S
C330 H325 0.949 . S
C330 C336 1.368 . S
C331 C315 1.349 . S
C331 H323 0.950 . S
C331 C329 1.327 . S
C332 C320 1.349 . S
C332 H326 0.950 . S
C332 C333 1.327 . S
C333 H327 0.950 . S
C333 C332 1.327 . S
C333 C337 1.429 . S
C334 C317 1.574 . S
C334 H328 0.949 . S
C334 C338 1.368 1_554 S
C335 C316 1.429 . S
C335 C329 1.429 . S
C335 C336 1.523 . S
C336 C317 1.368 . S
C336 C330 1.368 . S
C336 C335 1.523 . S
C337 C321 1.429 . S
C337 C333 1.429 . S
C337 C338 1.523 . S
C338 C322 1.368 . S
C338 C334 1.368 1_556 S
C338 C337 1.523 . S
H339 C314 0.950 . S
H340 C316 0.950 . S
H341 C317 0.949 . S
H342 C319 0.950 . S
H343 C321 0.950 . S
C344 C345 1.349 . S
C344 C346 1.327 . S
C344 H369 0.950 . S
C345 C344 1.349 . S
C345 C361 1.349 . S
C346 C344 1.327 . S
C346 C365 1.429 . S
C346 H370 0.950 . S
C347 C364 1.574 . S
C347 C366 1.368 . S
C347 H371 0.949 . S
H348 C352 0.949 . S
C349 C350 1.349 . S
C349 C351 1.327 . S
C349 H372 0.950 . S
C350 C349 1.349 . S
C350 C362 1.349 . S
C351 C349 1.327 . S
C351 C367 1.429 . S
C351 H373 0.950 . S
C352 H348 0.949 . S
C352 C360 1.574 . S
C352 C368 1.368 . S
H353 C361 0.950 . S
H354 C359 0.950 . S
H355 C360 0.949 . S
H356 C362 0.950 . S
H357 C363 0.950 . S
H358 C364 0.949 . S
C359 H354 0.950 . S
C359 C361 1.327 . S
C359 C365 1.429 . S
C360 C352 1.574 . S
C360 H355 0.949 . S
C360 C366 1.368 . S
C361 C345 1.349 . S
C361 H353 0.950 . S
C361 C359 1.327 . S
C362 C350 1.349 . S
C362 H356 0.950 . S
C362 C363 1.327 . S
C363 H357 0.950 . S
C363 C362 1.327 . S
C363 C367 1.429 . S
C364 C347 1.574 . S
C364 H358 0.949 . S
C364 C368 1.368 . S
C365 C346 1.429 . S
C365 C359 1.429 . S
C365 C366 1.523 . S
C366 C347 1.368 . S
C366 C360 1.368 . S
C366 C365 1.523 . S
C367 C351 1.429 . S
C367 C363 1.429 . S
C367 C368 1.523 . S
C368 C352 1.368 . S
C368 C364 1.368 . S
C368 C367 1.523 . S
H369 C344 0.950 . S
H370 C346 0.950 . S
H371 C347 0.949 . S
H372 C349 0.950 . S
H373 C351 0.950 . S
C374 C375 1.349 . S
C374 C376 1.327 . S
C374 H399 0.950 1_545 S
C375 C374 1.349 . S
C375 C391 1.349 . S
C376 C374 1.327 . S
C376 C395 1.429 . S
C376 H400 0.950 1_545 S
C377 C394 1.574 . S
C377 C396 1.368 . S
C377 H401 0.949 . S
H378 C382 0.949 1_565 S
C379 C380 1.349 . S
C379 C381 1.327 . S
C379 H402 0.950 . S
C380 C379 1.349 . S
C380 C392 1.349 . S
C381 C379 1.327 . S
C381 C397 1.429 . S
C381 H403 0.950 . S
C382 H378 0.949 1_545 S
C382 C390 1.574 . S
C382 C398 1.368 . S
H383 C391 0.950 . S
H384 C389 0.950 . S
H385 C390 0.949 1_565 S
H386 C392 0.950 1_565 S
H387 C393 0.950 1_565 S
H388 C394 0.949 . S
C389 H384 0.950 . S
C389 C391 1.327 . S
C389 C395 1.429 . S
C390 C382 1.574 . S
C390 H385 0.949 1_545 S
C390 C396 1.368 . S
C391 C375 1.349 . S
C391 H383 0.950 . S
C391 C389 1.327 . S
C392 C380 1.349 . S
C392 H386 0.950 1_545 S
C392 C393 1.327 . S
C393 H387 0.950 1_545 S
C393 C392 1.327 . S
C393 C397 1.429 . S
C394 C377 1.574 . S
C394 H388 0.949 . S
C394 C398 1.368 . S
C395 C376 1.429 . S
C395 C389 1.429 . S
C395 C396 1.523 . S
C396 C377 1.368 . S
C396 C390 1.368 . S
C396 C395 1.523 . S
C397 C381 1.429 . S
C397 C393 1.429 . S
C397 C398 1.523 . S
C398 C382 1.368 . S
C398 C394 1.368 . S
C398 C397 1.523 . S
H399 C374 0.950 1_565 S
H400 C376 0.950 1_565 S
H401 C377 0.949 . S
H402 C379 0.950 . S
H403 C381 0.950 . S
C404 C405 1.349 . S
C404 C406 1.327 . S
C404 H429 0.950 . S
C405 C404 1.349 . S
C405 C421 1.349 . S
C406 C404 1.327 . S
C406 C425 1.429 . S
C406 H430 0.950 . S
C407 C424 1.574 . S
C407 C426 1.368 . S
C407 H431 0.949 . S
H408 C412 0.949 . S
C409 C410 1.349 . S
C409 C411 1.327 . S
C409 H432 0.950 . S
C410 C409 1.349 . S
C410 C422 1.349 . S
C411 C409 1.327 . S
C411 C427 1.429 . S
C411 H433 0.950 . S
C412 H408 0.949 . S
C412 C420 1.574 . S
C412 C428 1.368 . S
H413 C421 0.950 . S
H414 C419 0.950 . S
H415 C420 0.949 . S
H416 C422 0.950 . S
H417 C423 0.950 . S
H418 C424 0.949 . S
C419 H414 0.950 . S
C419 C421 1.327 . S
C419 C425 1.429 . S
C420 C412 1.574 . S
C420 H415 0.949 . S
C420 C426 1.368 . S
C421 C405 1.349 . S
C421 H413 0.950 . S
C421 C419 1.327 . S
C422 C410 1.349 . S
C422 H416 0.950 . S
C422 C423 1.327 . S
C423 H417 0.950 . S
C423 C422 1.327 . S
C423 C427 1.429 . S
C424 C407 1.574 . S
C424 H418 0.949 . S
C424 C428 1.368 . S
C425 C406 1.429 . S
C425 C419 1.429 . S
C425 C426 1.523 . S
C426 C407 1.368 . S
C426 C420 1.368 . S
C426 C425 1.523 . S
C427 C411 1.429 . S
C427 C423 1.429 . S
C427 C428 1.523 . S
C428 C412 1.368 . S
C428 C424 1.368 . S
C428 C427 1.523 . S
H429 C404 0.950 . S
H430 C406 0.950 . S
H431 C407 0.949 . S
H432 C409 0.950 . S
H433 C411 0.950 . S
C434 C435 1.349 1_565 S
C434 C436 1.327 . S
C434 H459 0.950 . S
C435 C434 1.349 1_545 S
C435 C451 1.349 . S
C436 C434 1.327 . S
C436 C455 1.429 1_565 S
C436 H460 0.950 . S
C437 C454 1.540 1_456 S
C437 C456 1.402 . S
C437 H461 0.951 . S
H438 C442 0.951 . S
C439 C440 1.349 . S
C439 C441 1.327 . S
C439 H462 0.950 . S
C440 C439 1.349 . S
C440 C452 1.349 1_545 S
C441 C439 1.327 . S
C441 C457 1.429 . S
C441 H463 0.950 . S
C442 H438 0.951 . S
C442 C450 1.540 1_655 S
C442 C458 1.403 1_565 S
H443 C451 0.950 . S
H444 C449 0.950 . S
H445 C450 0.949 . S
H446 C452 0.950 . S
H447 C453 0.950 . S
H448 C454 0.949 . S
C449 H444 0.950 . S
C449 C451 1.327 . S
C449 C455 1.429 . S
C450 C442 1.540 1_455 S
C450 H445 0.949 . S
C450 C456 1.368 1_564 S
C451 C435 1.349 . S
C451 H443 0.950 . S
C451 C449 1.327 . S
C452 C440 1.349 1_565 S
C452 H446 0.950 . S
C452 C453 1.327 . S
C453 H447 0.950 . S
C453 C452 1.327 . S
C453 C457 1.429 1_565 S
C454 C437 1.540 1_654 S
C454 H448 0.949 . S
C454 C458 1.368 . S
C455 C436 1.429 1_545 S
C455 C449 1.429 . S
C455 C456 1.523 . S
C456 C437 1.402 . S
C456 C450 1.368 1_546 S
C456 C455 1.523 . S
C457 C441 1.429 . S
C457 C453 1.429 1_545 S
C457 C458 1.523 . S
C458 C442 1.403 1_545 S
C458 C454 1.368 . S
C458 C457 1.523 . S
H459 C434 0.950 . S
H460 C436 0.950 . S
H461 C437 0.951 . S
H462 C439 0.950 . S
H463 C441 0.950 . S
C464 C465 1.349 . S
C464 C466 1.327 . S
C464 H489 0.950 . S
C465 C464 1.349 . S
C465 C481 1.349 . S
C466 C464 1.327 . S
C466 C485 1.429 . S
C466 H490 0.950 . S
C467 C484 1.574 . S
C467 C486 1.368 . S
C467 H491 0.949 . S
H468 C472 0.949 . S
C469 C470 1.349 . S
C469 C471 1.327 . S
C469 H492 0.950 . S
C470 C469 1.349 . S
C470 C482 1.349 . S
C471 C469 1.327 . S
C471 C487 1.429 . S
C471 H493 0.950 . S
C472 H468 0.949 . S
C472 C480 1.574 . S
C472 C488 1.368 . S
H473 C481 0.950 . S
H474 C479 0.950 . S
H475 C480 0.949 . S
H476 C482 0.950 . S
H477 C483 0.950 . S
H478 C484 0.949 . S
C479 H474 0.950 . S
C479 C481 1.327 . S
C479 C485 1.429 . S
C480 C472 1.574 . S
C480 H475 0.949 . S
C480 C486 1.368 . S
C481 C465 1.349 . S
C481 H473 0.950 . S
C481 C479 1.327 . S
C482 C470 1.349 . S
C482 H476 0.950 . S
C482 C483 1.327 . S
C483 H477 0.950 . S
C483 C482 1.327 . S
C483 C487 1.429 . S
C484 C467 1.574 . S
C484 H478 0.949 . S
C484 C488 1.368 . S
C485 C466 1.429 . S
C485 C479 1.429 . S
C485 C486 1.523 . S
C486 C467 1.368 . S
C486 C480 1.368 . S
C486 C485 1.523 . S
C487 C471 1.429 . S
C487 C483 1.429 . S
C487 C488 1.523 . S
C488 C472 1.368 . S
C488 C484 1.368 . S
C488 C487 1.523 . S
H489 C464 0.950 . S
H490 C466 0.950 . S
H491 C467 0.949 . S
H492 C469 0.950 . S
H493 C471 0.950 . S
C494 C495 1.349 . S
C494 C496 1.327 . S
C494 H519 0.950 . S
C495 C494 1.349 . S
C495 C511 1.349 . S
C496 C494 1.327 . S
C496 C515 1.429 . S
C496 H520 0.950 . S
C497 C514 1.574 . S
C497 C516 1.368 . S
C497 H521 0.949 . S
H498 C502 0.949 . S
C499 C500 1.349 . S
C499 C501 1.327 . S
C499 H522 0.950 . S
C500 C499 1.349 . S
C500 C512 1.349 . S
C501 C499 1.327 . S
C501 C517 1.429 . S
C501 H523 0.950 . S
C502 H498 0.949 . S
C502 C510 1.574 . S
C502 C518 1.368 . S
H503 C511 0.950 . S
H504 C509 0.950 . S
H505 C510 0.949 . S
H506 C512 0.950 . S
H507 C513 0.950 . S
H508 C514 0.949 . S
C509 H504 0.950 . S
C509 C511 1.327 . S
C509 C515 1.429 . S
C510 C502 1.574 . S
C510 H505 0.949 . S
C510 C516 1.368 . S
C511 C495 1.349 . S
C511 H503 0.950 . S
C511 C509 1.327 . S
C512 C500 1.349 . S
C512 H506 0.950 . S
C512 C513 1.327 . S
C513 H507 0.950 . S
C513 C512 1.327 . S
C513 C517 1.429 . S
C514 C497 1.574 . S
C514 H508 0.949 . S
C514 C518 1.368 . S
C515 C496 1.429 . S
C515 C509 1.429 . S
C515 C516 1.523 . S
C516 C497 1.368 . S
C516 C510 1.368 . S
C516 C515 1.523 . S
C517 C501 1.429 . S
C517 C513 1.429 . S
C517 C518 1.523 . S
C518 C502 1.368 . S
C518 C514 1.368 . S
C518 C517 1.523 . S
H519 C494 0.950 . S
H520 C496 0.950 . S
H521 C497 0.949 . S
H522 C499 0.950 . S
H523 C501 0.950 . S
C524 C525 1.349 . S
C524 C526 1.327 . S
C524 H549 0.950 . S
C525 C524 1.349 . S
C525 C541 1.349 . S
C526 C524 1.327 . S
C526 C545 1.429 . S
C526 H550 0.950 . S
C527 C544 1.574 . S
C527 C546 1.368 . S
C527 H551 0.949 . S
H528 C532 0.949 . S
C529 C530 1.349 . S
C529 C531 1.327 . S
C529 H552 0.950 . S
C530 C529 1.349 . S
C530 C542 1.349 . S
C531 C529 1.327 . S
C531 C547 1.429 . S
C531 H553 0.950 . S
C532 H528 0.949 . S
C532 C540 1.574 . S
C532 C548 1.368 . S
H533 C541 0.950 . S
H534 C539 0.950 . S
H535 C540 0.949 . S
H536 C542 0.950 . S
H537 C543 0.950 . S
H538 C544 0.949 . S
C539 H534 0.950 . S
C539 C541 1.327 . S
C539 C545 1.429 . S
C540 C532 1.574 . S
C540 H535 0.949 . S
C540 C546 1.368 . S
C541 C525 1.349 . S
C541 H533 0.950 . S
C541 C539 1.327 . S
C542 C530 1.349 . S
C542 H536 0.950 . S
C542 C543 1.327 . S
C543 H537 0.950 . S
C543 C542 1.327 . S
C543 C547 1.429 . S
C544 C527 1.574 . S
C544 H538 0.949 . S
C544 C548 1.368 . S
C545 C526 1.429 . S
C545 C539 1.429 . S
C545 C546 1.523 . S
C546 C527 1.368 . S
C546 C540 1.368 . S
C546 C545 1.523 . S
C547 C531 1.429 . S
C547 C543 1.429 . S
C547 C548 1.523 . S
C548 C532 1.368 . S
C548 C544 1.368 . S
C548 C547 1.523 . S
H549 C524 0.950 . S
H550 C526 0.950 . S
H551 C527 0.949 . S
H552 C529 0.950 . S
H553 C531 0.950 . S
C554 C555 1.349 . S
C554 C556 1.327 . S
C554 H579 0.950 . S
C555 C554 1.349 . S
C555 C571 1.349 . S
C556 C554 1.327 . S
C556 C575 1.429 . S
C556 H580 0.950 . S
C557 C574 1.574 . S
C557 C576 1.368 . S
C557 H581 0.949 . S
H558 C562 0.949 . S
C559 C560 1.349 . S
C559 C561 1.327 . S
C559 H582 0.950 . S
C560 C559 1.349 . S
C560 C572 1.349 . S
C561 C559 1.327 . S
C561 C577 1.429 . S
C561 H583 0.950 . S
C562 H558 0.949 . S
C562 C570 1.574 . S
C562 C578 1.368 . S
H563 C571 0.950 . S
H564 C569 0.950 . S
H565 C570 0.949 . S
H566 C572 0.950 . S
H567 C573 0.950 . S
H568 C574 0.949 . S
C569 H564 0.950 . S
C569 C571 1.327 . S
C569 C575 1.429 . S
C570 C562 1.574 . S
C570 H565 0.949 . S
C570 C576 1.368 . S
C571 C555 1.349 . S
C571 H563 0.950 . S
C571 C569 1.327 . S
C572 C560 1.349 . S
C572 H566 0.950 . S
C572 C573 1.327 . S
C573 H567 0.950 . S
C573 C572 1.327 . S
C573 C577 1.429 . S
C574 C557 1.574 . S
C574 H568 0.949 . S
C574 C578 1.368 . S
C575 C556 1.429 . S
C575 C569 1.429 . S
C575 C576 1.523 . S
C576 C557 1.368 . S
C576 C570 1.368 . S
C576 C575 1.523 . S
C577 C561 1.429 . S
C577 C573 1.429 . S
C577 C578 1.523 . S
C578 C562 1.368 . S
C578 C574 1.368 . S
C578 C577 1.523 . S
H579 C554 0.950 . S
H580 C556 0.950 . S
H581 C557 0.949 . S
H582 C559 0.950 . S
H583 C561 0.950 . S
C584 C585 1.349 . S
C584 C586 1.327 . S
C584 H609 0.950 . S
C585 C584 1.349 . S
C585 C601 1.349 . S
C586 C584 1.327 . S
C586 C605 1.429 . S
C586 H610 0.950 . S
C587 C604 1.574 . S
C587 C606 1.368 . S
C587 H611 0.949 . S
H588 C592 0.949 . S
C589 C590 1.349 . S
C589 C591 1.327 . S
C589 H612 0.950 . S
C590 C589 1.349 . S
C590 C602 1.349 . S
C591 C589 1.327 . S
C591 C607 1.429 . S
C591 H613 0.950 . S
C592 H588 0.949 . S
C592 C600 1.574 1_556 S
C592 C608 1.368 . S
H593 C601 0.950 . S
H594 C599 0.950 . S
H595 C600 0.949 . S
H596 C602 0.950 . S
H597 C603 0.950 . S
H598 C604 0.949 1_556 S
C599 H594 0.950 . S
C599 C601 1.327 . S
C599 C605 1.429 . S
C600 C592 1.574 1_554 S
C600 H595 0.949 . S
C600 C606 1.368 . S
C601 C585 1.349 . S
C601 H593 0.950 . S
C601 C599 1.327 . S
C602 C590 1.349 . S
C602 H596 0.950 . S
C602 C603 1.327 . S
C603 H597 0.950 . S
C603 C602 1.327 . S
C603 C607 1.429 . S
C604 C587 1.574 . S
C604 H598 0.949 1_554 S
C604 C608 1.368 1_554 S
C605 C586 1.429 . S
C605 C599 1.429 . S
C605 C606 1.523 . S
C606 C587 1.368 . S
C606 C600 1.368 . S
C606 C605 1.523 . S
C607 C591 1.429 . S
C607 C603 1.429 . S
C607 C608 1.523 . S
C608 C592 1.368 . S
C608 C604 1.368 1_556 S
C608 C607 1.523 . S
H609 C584 0.950 . S
H610 C586 0.950 . S
H611 C587 0.949 . S
H612 C589 0.950 . S
H613 C591 0.950 . S
C614 C615 1.349 . S
C614 C616 1.327 . S
C614 H639 0.950 . S
C615 C614 1.349 . S
C615 C631 1.349 . S
C616 C614 1.327 . S
C616 C635 1.429 . S
C616 H640 0.950 . S
C617 C634 1.548 1_455 S
C617 C636 1.394 . S
C617 H641 0.950 . S
H618 C622 0.950 . S
C619 C620 1.349 . S
C619 C621 1.327 . S
C619 H642 0.950 . S
C620 C619 1.349 . S
C620 C632 1.349 . S
C621 C619 1.327 . S
C621 C637 1.429 . S
C621 H643 0.950 . S
C622 H618 0.950 . S
C622 C630 1.548 1_655 S
C622 C638 1.394 . S
H623 C631 0.950 . S
H624 C629 0.950 . S
H625 C630 0.949 . S
H626 C632 0.950 . S
H627 C633 0.950 . S
H628 C634 0.949 . S
C629 H624 0.950 . S
C629 C631 1.327 . S
C629 C635 1.429 . S
C630 C622 1.548 1_455 S
C630 H625 0.949 . S
C630 C636 1.368 . S
C631 C615 1.349 . S
C631 H623 0.950 . S
C631 C629 1.327 . S
C632 C620 1.349 . S
C632 H626 0.950 . S
C632 C633 1.327 . S
C633 H627 0.950 . S
C633 C632 1.327 . S
C633 C637 1.429 . S
C634 C617 1.548 1_655 S
C634 H628 0.949 . S
C634 C638 1.368 . S
C635 C616 1.429 . S
C635 C629 1.429 . S
C635 C636 1.523 . S
C636 C617 1.394 . S
C636 C630 1.368 . S
C636 C635 1.523 . S
C637 C621 1.429 . S
C637 C633 1.429 . S
C637 C638 1.523 . S
C638 C622 1.394 . S
C638 C634 1.368 . S
C638 C637 1.523 . S
H639 C614 0.950 . S
H640 C616 0.950 . S
H641 C617 0.950 . S
H642 C619 0.950 . S
H643 C621 0.950 . S
C644 C645 1.349 . S
C644 C646 1.327 . S
C644 H669 0.950 . S
C645 C644 1.349 . S
C645 C661 1.349 . S
C646 C644 1.327 . S
C646 C665 1.429 . S
C646 H670 0.950 . S
C647 C664 1.619 . S
C647 C666 1.326 1_655 S
C647 H671 0.950 . S
H648 C652 0.950 . S
C649 C650 1.349 . S
C649 C651 1.327 . S
C649 H672 0.950 . S
C650 C649 1.349 . S
C650 C662 1.349 . S
C651 C649 1.327 . S
C651 C667 1.429 . S
C651 H673 0.950 . S
C652 H648 0.950 . S
C652 C660 1.620 1_556 S
C652 C668 1.326 1_455 S
H653 C661 0.950 . S
H654 C659 0.950 . S
H655 C660 0.949 . S
H656 C662 0.950 . S
H657 C663 0.950 . S
H658 C664 0.949 . S
C659 H654 0.950 . S
C659 C661 1.327 . S
C659 C665 1.429 . S
C660 C652 1.620 1_554 S
C660 H655 0.949 . S
C660 C666 1.368 . S
C661 C645 1.349 . S
C661 H653 0.950 . S
C661 C659 1.327 . S
C662 C650 1.349 . S
C662 H656 0.950 . S
C662 C663 1.327 . S
C663 H657 0.950 . S
C663 C662 1.327 . S
C663 C667 1.429 . S
C664 C647 1.619 . S
C664 H658 0.949 . S
C664 C668 1.368 1_554 S
C665 C646 1.429 . S
C665 C659 1.429 . S
C665 C666 1.523 . S
C666 C647 1.326 1_455 S
C666 C660 1.368 . S
C666 C665 1.523 . S
C667 C651 1.429 . S
C667 C663 1.429 . S
C667 C668 1.523 . S
C668 C652 1.326 1_655 S
C668 C664 1.368 1_556 S
C668 C667 1.523 . S
H669 C644 0.950 . S
H670 C646 0.950 . S
H671 C647 0.950 . S
H672 C649 0.950 . S
H673 C651 0.950 . S
C674 C675 1.349 . S
C674 C676 1.327 . S
C674 H699 0.950 . S
C675 C674 1.349 . S
C675 C691 1.349 . S
C676 C674 1.327 . S
C676 C695 1.429 . S
C676 H700 0.950 . S
C677 C694 1.574 . S
C677 C696 1.368 . S
C677 H701 0.949 . S
H678 C682 0.949 . S
C679 C680 1.349 . S
C679 C681 1.327 . S
C679 H702 0.950 . S
C680 C679 1.349 . S
C680 C692 1.349 . S
C681 C679 1.327 . S
C681 C697 1.429 . S
C681 H703 0.950 . S
C682 H678 0.949 . S
C682 C690 1.574 . S
C682 C698 1.368 . S
H683 C691 0.950 . S
H684 C689 0.950 . S
H685 C690 0.949 . S
H686 C692 0.950 . S
H687 C693 0.950 . S
H688 C694 0.949 . S
C689 H684 0.950 . S
C689 C691 1.327 . S
C689 C695 1.429 . S
C690 C682 1.574 . S
C690 H685 0.949 . S
C690 C696 1.368 . S
C691 C675 1.349 . S
C691 H683 0.950 . S
C691 C689 1.327 . S
C692 C680 1.349 . S
C692 H686 0.950 . S
C692 C693 1.327 . S
C693 H687 0.950 . S
C693 C692 1.327 . S
C693 C697 1.429 . S
C694 C677 1.574 . S
C694 H688 0.949 . S
C694 C698 1.368 . S
C695 C676 1.429 . S
C695 C689 1.429 . S
C695 C696 1.523 . S
C696 C677 1.368 . S
C696 C690 1.368 . S
C696 C695 1.523 . S
C697 C681 1.429 . S
C697 C693 1.429 . S
C697 C698 1.523 . S
C698 C682 1.368 . S
C698 C694 1.368 . S
C698 C697 1.523 . S
H699 C674 0.950 . S
H700 C676 0.950 . S
H701 C677 0.949 . S
H702 C679 0.950 . S
H703 C681 0.950 . S
C704 C705 1.349 . S
C704 C706 1.327 . S
C704 H729 0.950 . S
C705 C704 1.349 . S
C705 C721 1.349 . S
C706 C704 1.327 . S
C706 C725 1.429 . S
C706 H730 0.950 . S
C707 C724 1.574 . S
C707 C726 1.368 . S
C707 H731 0.949 . S
H708 C712 0.949 . S
C709 C710 1.349 . S
C709 C711 1.327 . S
C709 H732 0.950 . S
C710 C709 1.349 . S
C710 C722 1.349 . S
C711 C709 1.327 . S
C711 C727 1.429 . S
C711 H733 0.950 . S
C712 H708 0.949 . S
C712 C720 1.574 . S
C712 C728 1.368 . S
H713 C721 0.950 . S
H714 C719 0.950 . S
H715 C720 0.949 . S
H716 C722 0.950 . S
H717 C723 0.950 . S
H718 C724 0.949 . S
C719 H714 0.950 . S
C719 C721 1.327 . S
C719 C725 1.429 . S
C720 C712 1.574 . S
C720 H715 0.949 . S
C720 C726 1.368 . S
C721 C705 1.349 . S
C721 H713 0.950 . S
C721 C719 1.327 . S
C722 C710 1.349 . S
C722 H716 0.950 . S
C722 C723 1.327 . S
C723 H717 0.950 . S
C723 C722 1.327 . S
C723 C727 1.429 . S
C724 C707 1.574 . S
C724 H718 0.949 . S
C724 C728 1.368 . S
C725 C706 1.429 . S
C725 C719 1.429 . S
C725 C726 1.523 . S
C726 C707 1.368 . S
C726 C720 1.368 . S
C726 C725 1.523 . S
C727 C711 1.429 . S
C727 C723 1.429 . S
C727 C728 1.523 . S
C728 C712 1.368 . S
C728 C724 1.368 . S
C728 C727 1.523 . S
H729 C704 0.950 . S
H730 C706 0.950 . S
H731 C707 0.949 . S
H732 C709 0.950 . S
H733 C711 0.950 . S
C734 C735 1.349 . S
C734 C736 1.327 . S
C734 H759 0.950 . S
C735 C734 1.349 . S
C735 C751 1.349 . S
C736 C734 1.327 . S
C736 C755 1.429 . S
C736 H760 0.950 . S
C737 C754 1.574 . S
C737 C756 1.368 . S
C737 H761 0.949 . S
H738 C742 0.949 . S
C739 C740 1.349 . S
C739 C741 1.327 . S
C739 H762 0.950 . S
C740 C739 1.349 . S
C740 C752 1.349 . S
C741 C739 1.327 . S
C741 C757 1.429 . S
C741 H763 0.950 . S
C742 H738 0.949 . S
C742 C750 1.574 . S
C742 C758 1.368 . S
H743 C751 0.950 . S
H744 C749 0.950 . S
H745 C750 0.949 . S
H746 C752 0.950 . S
H747 C753 0.950 . S
H748 C754 0.949 . S
C749 H744 0.950 . S
C749 C751 1.327 . S
C749 C755 1.429 . S
C750 C742 1.574 . S
C750 H745 0.949 . S
C750 C756 1.368 . S
C751 C735 1.349 . S
C751 H743 0.950 . S
C751 C749 1.327 . S
C752 C740 1.349 . S
C752 H746 0.950 . S
C752 C753 1.327 . S
C753 H747 0.950 . S
C753 C752 1.327 . S
C753 C757 1.429 . S
C754 C737 1.574 . S
C754 H748 0.949 . S
C754 C758 1.368 . S
C755 C736 1.429 . S
C755 C749 1.429 . S
C755 C756 1.523 . S
C756 C737 1.368 . S
C756 C750 1.368 . S
C756 C755 1.523 . S
C757 C741 1.429 . S
C757 C753 1.429 . S
C757 C758 1.523 . S
C758 C742 1.368 . S
C758 C754 1.368 . S
C758 C757 1.523 . S
H759 C734 0.950 . S
H760 C736 0.950 . S
H761 C737 0.949 . S
H762 C739 0.950 . S
H763 C741 0.950 . S
C764 C765 1.349 . S
C764 C766 1.327 . S
C764 H789 0.950 . S
C765 C764 1.349 . S
C765 C781 1.349 . S
C766 C764 1.327 . S
C766 C785 1.429 . S
C766 H790 0.950 . S
C767 C784 1.574 . S
C767 C786 1.368 . S
C767 H791 0.949 . S
H768 C772 0.949 . S
C769 C770 1.349 . S
C769 C771 1.327 . S
C769 H792 0.950 . S
C770 C769 1.349 . S
C770 C782 1.349 . S
C771 C769 1.327 . S
C771 C787 1.429 . S
C771 H793 0.950 . S
C772 H768 0.949 . S
C772 C780 1.574 . S
C772 C788 1.368 . S
H773 C781 0.950 . S
H774 C779 0.950 . S
H775 C780 0.949 . S
H776 C782 0.950 . S
H777 C783 0.950 . S
H778 C784 0.949 . S
C779 H774 0.950 . S
C779 C781 1.327 . S
C779 C785 1.429 . S
C780 C772 1.574 . S
C780 H775 0.949 . S
C780 C786 1.368 . S
C781 C765 1.349 . S
C781 H773 0.950 . S
C781 C779 1.327 . S
C782 C770 1.349 . S
C782 H776 0.950 . S
C782 C783 1.327 . S
C783 H777 0.950 . S
C783 C782 1.327 . S
C783 C787 1.429 . S
C784 C767 1.574 . S
C784 H778 0.949 . S
C784 C788 1.368 . S
C785 C766 1.429 . S
C785 C779 1.429 . S
C785 C786 1.523 . S
C786 C767 1.368 . S
C786 C780 1.368 . S
C786 C785 1.523 . S
C787 C771 1.429 . S
C787 C783 1.429 . S
C787 C788 1.523 . S
C788 C772 1.368 . S
C788 C784 1.368 . S
C788 C787 1.523 . S
H789 C764 0.950 . S
H790 C766 0.950 . S
H791 C767 0.949 . S
H792 C769 0.950 . S
H793 C771 0.950 . S
C794 C795 1.349 . S
C794 C796 1.327 . S
C794 H819 0.950 . S
C795 C794 1.349 . S
C795 C811 1.349 . S
C796 C794 1.327 . S
C796 C815 1.429 . S
C796 H820 0.950 . S
C797 C814 1.574 . S
C797 C816 1.368 . S
C797 H821 0.949 . S
H798 C802 0.949 . S
C799 C800 1.349 . S
C799 C801 1.327 . S
C799 H822 0.950 . S
C800 C799 1.349 . S
C800 C812 1.349 . S
C801 C799 1.327 . S
C801 C817 1.429 . S
C801 H823 0.950 . S
C802 H798 0.949 . S
C802 C810 1.574 . S
C802 C818 1.368 . S
H803 C811 0.950 . S
H804 C809 0.950 . S
H805 C810 0.949 . S
H806 C812 0.950 . S
H807 C813 0.950 . S
H808 C814 0.949 . S
C809 H804 0.950 . S
C809 C811 1.327 . S
C809 C815 1.429 . S
C810 C802 1.574 . S
C810 H805 0.949 . S
C810 C816 1.368 . S
C811 C795 1.349 . S
C811 H803 0.950 . S
C811 C809 1.327 . S
C812 C800 1.349 . S
C812 H806 0.950 . S
C812 C813 1.327 . S
C813 H807 0.950 . S
C813 C812 1.327 . S
C813 C817 1.429 . S
C814 C797 1.574 . S
C814 H808 0.949 . S
C814 C818 1.368 . S
C815 C796 1.429 . S
C815 C809 1.429 . S
C815 C816 1.523 . S
C816 C797 1.368 . S
C816 C810 1.368 . S
C816 C815 1.523 . S
C817 C801 1.429 . S
C817 C813 1.429 . S
C817 C818 1.523 . S
C818 C802 1.368 . S
C818 C814 1.368 . S
C818 C817 1.523 . S
H819 C794 0.950 . S
H820 C796 0.950 . S
H821 C797 0.949 . S
H822 C799 0.950 . S
H823 C801 0.950 . S
C824 C825 1.349 . S
C824 C826 1.327 . S
C824 H849 0.950 . S
C825 C824 1.349 . S
C825 C841 1.349 . S
C826 C824 1.327 . S
C826 C845 1.429 . S
C826 H850 0.950 . S
C827 C844 1.574 . S
C827 C846 1.368 . S
C827 H851 0.949 . S
H828 C832 0.949 . S
C829 C830 1.349 . S
C829 C831 1.327 . S
C829 H852 0.950 . S
C830 C829 1.349 . S
C830 C842 1.349 . S
C831 C829 1.327 . S
C831 C847 1.429 . S
C831 H853 0.950 . S
C832 H828 0.949 . S
C832 C840 1.574 . S
C832 C848 1.368 . S
H833 C841 0.950 . S
H834 C839 0.950 . S
H835 C840 0.949 . S
H836 C842 0.950 . S
H837 C843 0.950 . S
H838 C844 0.949 . S
C839 H834 0.950 . S
C839 C841 1.327 . S
C839 C845 1.429 . S
C840 C832 1.574 . S
C840 H835 0.949 . S
C840 C846 1.368 . S
C841 C825 1.349 . S
C841 H833 0.950 . S
C841 C839 1.327 . S
C842 C830 1.349 . S
C842 H836 0.950 . S
C842 C843 1.327 . S
C843 H837 0.950 . S
C843 C842 1.327 . S
C843 C847 1.429 . S
C844 C827 1.574 . S
C844 H838 0.949 . S
C844 C848 1.368 . S
C845 C826 1.429 . S
C845 C839 1.429 . S
C845 C846 1.523 . S
C846 C827 1.368 . S
C846 C840 1.368 . S
C846 C845 1.523 . S
C847 C831 1.429 . S
C847 C843 1.429 . S
C847 C848 1.523 . S
C848 C832 1.368 . S
C848 C844 1.368 . S
C848 C847 1.523 . S
H849 C824 0.950 . S
H850 C826 0.950 . S
H851 C827 0.949 . S
H852 C829 0.950 . S
H853 C831 0.950 . S
C854 C855 1.349 . S
C854 C856 1.327 . S
C854 H879 0.950 . S
C855 C854 1.349 . S
C855 C871 1.349 . S
C856 C854 1.327 . S
C856 C875 1.429 . S
C856 H880 0.950 . S
C857 C874 1.574 . S
C857 C876 1.368 . S
C857 H881 0.949 . S
H858 C862 0.949 . S
C859 C860 1.349 . S
C859 C861 1.327 . S
C859 H882 0.950 . S
C860 C859 1.349 . S
C860 C872 1.349 . S
C861 C859 1.327 . S
C861 C877 1.429 . S
C861 H883 0.950 . S
C862 H858 0.949 . S
C862 C870 1.574 . S
C862 C878 1.368 . S
H863 C871 0.950 . S
H864 C869 0.950 . S
H865 C870 0.949 . S
H866 C872 0.950 . S
H867 C873 0.950 . S
H868 C874 0.949 . S
C869 H864 0.950 . S
C869 C871 1.327 . S
C869 C875 1.429 . S
C870 C862 1.574 . S
C870 H865 0.949 . S
C870 C876 1.368 . S
C871 C855 1.349 . S
C871 H863 0.950 . S
C871 C869 1.327 . S
C872 C860 1.349 . S
C872 H866 0.950 . S
C872 C873 1.327 . S
C873 H867 0.950 . S
C873 C872 1.327 . S
C873 C877 1.429 . S
C874 C857 1.574 . S
C874 H868 0.949 . S
C874 C878 1.368 . S
C875 C856 1.429 . S
C875 C869 1.429 . S
C875 C876 1.523 . S
C876 C857 1.368 . S
C876 C870 1.368 . S
C876 C875 1.523 . S
C877 C861 1.429 . S
C877 C873 1.429 . S
C877 C878 1.523 . S
C878 C862 1.368 . S
C878 C874 1.368 . S
C878 C877 1.523 . S
H879 C854 0.950 . S
H880 C856 0.950 . S
H881 C857 0.949 . S
H882 C859 0.950 . S
H883 C861 0.950 . S
C884 C885 1.349 . S
C884 C886 1.327 . S
C884 H909 0.950 . S
C885 C884 1.349 . S
C885 C901 1.349 . S
C886 C884 1.327 . S
C886 C905 1.429 . S
C886 H910 0.950 . S
C887 C904 1.574 . S
C887 C906 1.368 . S
C887 H911 0.949 . S
H888 C892 0.949 . S
C889 C890 1.349 . S
C889 C891 1.327 . S
C889 H912 0.950 . S
C890 C889 1.349 . S
C890 C902 1.349 . S
C891 C889 1.327 . S
C891 C907 1.429 . S
C891 H913 0.950 . S
C892 H888 0.949 . S
C892 C900 1.574 . S
C892 C908 1.368 . S
H893 C901 0.950 . S
H894 C899 0.950 . S
H895 C900 0.949 . S
H896 C902 0.950 . S
H897 C903 0.950 . S
H898 C904 0.949 . S
C899 H894 0.950 . S
C899 C901 1.327 . S
C899 C905 1.429 . S
C900 C892 1.574 . S
C900 H895 0.949 . S
C900 C906 1.368 . S
C901 C885 1.349 . S
C901 H893 0.950 . S
C901 C899 1.327 . S
C902 C890 1.349 . S
C902 H896 0.950 . S
C902 C903 1.327 . S
C903 H897 0.950 . S
C903 C902 1.327 . S
C903 C907 1.429 . S
C904 C887 1.574 . S
C904 H898 0.949 . S
C904 C908 1.368 . S
C905 C886 1.429 . S
C905 C899 1.429 . S
C905 C906 1.523 . S
C906 C887 1.368 . S
C906 C900 1.368 . S
C906 C905 1.523 . S
C907 C891 1.429 . S
C907 C903 1.429 . S
C907 C908 1.523 . S
C908 C892 1.368 . S
C908 C904 1.368 . S
C908 C907 1.523 . S
H909 C884 0.950 . S
H910 C886 0.950 . S
H911 C887 0.949 . S
H912 C889 0.950 . S
H913 C891 0.950 . S
C914 C915 1.349 . S
C914 C916 1.327 . S
C914 H939 0.950 . S
C915 C914 1.349 . S
C915 C931 1.349 . S
C916 C914 1.327 . S
C916 C935 1.429 . S
C916 H940 0.950 . S
C917 C934 1.574 . S
C917 C936 1.368 . S
C917 H941 0.949 . S
H918 C922 0.949 . S
C919 C920 1.349 . S
C919 C921 1.327 . S
C919 H942 0.950 . S
C920 C919 1.349 . S
C920 C932 1.349 . S
C921 C919 1.327 . S
C921 C937 1.429 . S
C921 H943 0.950 . S
C922 H918 0.949 . S
C922 C930 1.574 . S
C922 C938 1.368 . S
H923 C931 0.950 . S
H924 C929 0.950 . S
H925 C930 0.949 . S
H926 C932 0.950 . S
H927 C933 0.950 . S
H928 C934 0.949 . S
C929 H924 0.950 . S
C929 C931 1.327 . S
C929 C935 1.429 . S
C930 C922 1.574 . S
C930 H925 0.949 . S
C930 C936 1.368 . S
C931 C915 1.349 . S
C931 H923 0.950 . S
C931 C929 1.327 . S
C932 C920 1.349 . S
C932 H926 0.950 . S
C932 C933 1.327 . S
C933 H927 0.950 . S
C933 C932 1.327 . S
C933 C937 1.429 . S
C934 C917 1.574 . S
C934 H928 0.949 . S
C934 C938 1.368 . S
C935 C916 1.429 . S
C935 C929 1.429 . S
C935 C936 1.523 . S
C936 C917 1.368 . S
C936 C930 1.368 . S
C936 C935 1.523 . S
C937 C921 1.429 . S
C937 C933 1.429 . S
C937 C938 1.523 . S
C938 C922 1.368 . S
C938 C934 1.368 . S
C938 C937 1.523 . S
H939 C914 0.950 . S
H940 C916 0.950 . S
H941 C917 0.949 . S
H942 C919 0.950 . S
H943 C921 0.950 . S
C944 C945 1.349 . S
C944 C946 1.327 . S
C944 H969 0.950 . S
C945 C944 1.349 . S
C945 C961 1.349 . S
C946 C944 1.327 . S
C946 C965 1.429 . S
C946 H970 0.950 . S
C947 C964 1.574 . S
C947 C966 1.368 . S
C947 H971 0.949 . S
H948 C952 0.949 . S
C949 C950 1.349 . S
C949 C951 1.327 . S
C949 H972 0.950 . S
C950 C949 1.349 . S
C950 C962 1.349 . S
C951 C949 1.327 . S
C951 C967 1.429 . S
C951 H973 0.950 . S
C952 H948 0.949 . S
C952 C960 1.574 . S
C952 C968 1.368 . S
H953 C961 0.950 . S
H954 C959 0.950 . S
H955 C960 0.949 . S
H956 C962 0.950 . S
H957 C963 0.950 . S
H958 C964 0.949 . S
C959 H954 0.950 . S
C959 C961 1.327 . S
C959 C965 1.429 . S
C960 C952 1.574 . S
C960 H955 0.949 . S
C960 C966 1.368 . S
C961 C945 1.349 . S
C961 H953 0.950 . S
C961 C959 1.327 . S
C962 C950 1.349 . S
C962 H956 0.950 . S
C962 C963 1.327 . S
C963 H957 0.950 . S
C963 C962 1.327 . S
C963 C967 1.429 . S
C964 C947 1.574 . S
C964 H958 0.949 . S
C964 C968 1.368 . S
C965 C946 1.429 . S
C965 C959 1.429 . S
C965 C966 1.523 . S
C966 C947 1.368 . S
C966 C960 1.368 . S
C966 C965 1.523 . S
C967 C951 1.429 . S
C967 C963 1.429 . S
C967 C968 1.523 . S
C968 C952 1.368 . S
C968 C964 1.368 . S
C968 C967 1.523 . S
H969 C944 0.950 . S
H970 C946 0.950 . S
H971 C947 0.949 . S
H972 C949 0.950 . S
H973 C951 0.950 . S
C974 C975 1.349 . S
C974 C976 1.327 . S
C974 H999 0.950 . S
C975 C974 1.349 . S
C975 C991 1.349 . S
C976 C974 1.327 . S
C976 C995 1.429 . S
C976 H1000 0.950 . S
C977 C994 1.574 . S
C977 C996 1.368 . S
C977 H1001 0.949 . S
H978 C982 0.949 . S
C979 C980 1.349 . S
C979 C981 1.327 . S
C979 H1002 0.950 . S
C980 C979 1.349 . S
C980 C992 1.349 . S
C981 C979 1.327 . S
C981 C997 1.429 . S
C981 H1003 0.950 . S
C982 H978 0.949 . S
C982 C990 1.574 . S
C982 C998 1.368 . S
H983 C991 0.950 . S
H984 C989 0.950 . S
H985 C990 0.949 . S
H986 C992 0.950 . S
H987 C993 0.950 . S
H988 C994 0.949 . S
C989 H984 0.950 . S
C989 C991 1.327 . S
C989 C995 1.429 . S
C990 C982 1.574 . S
C990 H985 0.949 . S
C990 C996 1.368 . S
C991 C975 1.349 . S
C991 H983 0.950 . S
C991 C989 1.327 . S
C992 C980 1.349 . S
C992 H986 0.950 . S
C992 C993 1.327 . S
C993 H987 0.950 . S
C993 C992 1.327 . S
C993 C997 1.429 . S
C994 C977 1.574 . S
C994 H988 0.949 . S
C994 C998 1.368 . S
C995 C976 1.429 . S
C995 C989 1.429 . S
C995 C996 1.523 . S
C996 C977 1.368 . S
C996 C990 1.368 . S
C996 C995 1.523 . S
C997 C981 1.429 . S
C997 C993 1.429 . S
C997 C998 1.523 . S
C998 C982 1.368 . S
C998 C994 1.368 . S
C998 C997 1.523 . S
H999 C974 0.950 . S
H1000 C976 0.950 . S
H1001 C977 0.949 . S
H1002 C979 0.950 . S
H1003 C981 0.950 . S
C1004 C1005 1.349 . S
C1004 C1006 1.327 . S
C1004 H1029 0.950 . S
C1005 C1004 1.349 . S
C1005 C1021 1.349 . S
C1006 C1004 1.327 . S
C1006 C1025 1.429 . S
C1006 H1030 0.950 . S
C1007 C1024 1.574 . S
C1007 C1026 1.368 . S
C1007 H1031 0.949 . S
H1008 C1012 0.949 . S
C1009 C1010 1.349 . S
C1009 C1011 1.327 . S
C1009 H1032 0.950 . S
C1010 C1009 1.349 . S
C1010 C1022 1.349 . S
C1011 C1009 1.327 . S
C1011 C1027 1.429 . S
C1011 H1033 0.950 . S
C1012 H1008 0.949 . S
C1012 C1020 1.574 . S
C1012 C1028 1.368 . S
H1013 C1021 0.950 . S
H1014 C1019 0.950 . S
H1015 C1020 0.949 . S
H1016 C1022 0.950 . S
H1017 C1023 0.950 . S
H1018 C1024 0.949 . S
C1019 H1014 0.950 . S
C1019 C1021 1.327 . S
C1019 C1025 1.429 . S
C1020 C1012 1.574 . S
C1020 H1015 0.949 . S
C1020 C1026 1.368 . S
C1021 C1005 1.349 . S
C1021 H1013 0.950 . S
C1021 C1019 1.327 . S
C1022 C1010 1.349 . S
C1022 H1016 0.950 . S
C1022 C1023 1.327 . S
C1023 H1017 0.950 . S
C1023 C1022 1.327 . S
C1023 C1027 1.429 . S
C1024 C1007 1.574 . S
C1024 H1018 0.949 . S
C1024 C1028 1.368 . S
C1025 C1006 1.429 . S
C1025 C1019 1.429 . S
C1025 C1026 1.523 . S
C1026 C1007 1.368 . S
C1026 C1020 1.368 . S
C1026 C1025 1.523 . S
C1027 C1011 1.429 . S
C1027 C1023 1.429 . S
C1027 C1028 1.523 . S
C1028 C1012 1.368 . S
C1028 C1024 1.368 . S
C1028 C1027 1.523 . S
H1029 C1004 0.950 . S
H1030 C1006 0.950 . S
H1031 C1007 0.949 . S
H1032 C1009 0.950 . S
H1033 C1011 0.950 . S
C1034 C1035 1.349 . S
C1034 C1036 1.327 . S
C1034 H1059 0.950 . S
C1035 C1034 1.349 . S
C1035 C1051 1.349 . S
C1036 C1034 1.327 . S
C1036 C1055 1.429 . S
C1036 H1060 0.950 . S
C1037 C1054 1.574 . S
C1037 C1056 1.368 . S
C1037 H1061 0.949 . S
H1038 C1042 0.949 . S
C1039 C1040 1.349 . S
C1039 C1041 1.327 . S
C1039 H1062 0.950 . S
C1040 C1039 1.349 . S
C1040 C1052 1.349 . S
C1041 C1039 1.327 . S
C1041 C1057 1.429 . S
C1041 H1063 0.950 . S
C1042 H1038 0.949 . S
C1042 C1050 1.574 . S
C1042 C1058 1.368 . S
H1043 C1051 0.950 . S
H1044 C1049 0.950 . S
H1045 C1050 0.949 . S
H1046 C1052 0.950 . S
H1047 C1053 0.950 . S
H1048 C1054 0.949 . S
C1049 H1044 0.950 . S
C1049 C1051 1.327 . S
C1049 C1055 1.429 . S
C1050 C1042 1.574 . S
C1050 H1045 0.949 . S
C1050 C1056 1.368 . S
C1051 C1035 1.349 . S
C1051 H1043 0.950 . S
C1051 C1049 1.327 . S
C1052 C1040 1.349 . S
C1052 H1046 0.950 . S
C1052 C1053 1.327 . S
C1053 H1047 0.950 . S
C1053 C1052 1.327 . S
C1053 C1057 1.429 . S
C1054 C1037 1.574 . S
C1054 H1048 0.949 . S
C1054 C1058 1.368 . S
C1055 C1036 1.429 . S
C1055 C1049 1.429 . S
C1055 C1056 1.523 . S
C1056 C1037 1.368 . S
C1056 C1050 1.368 . S
C1056 C1055 1.523 . S
C1057 C1041 1.429 . S
C1057 C1053 1.429 . S
C1057 C1058 1.523 . S
C1058 C1042 1.368 . S
C1058 C1054 1.368 . S
C1058 C1057 1.523 . S
H1059 C1034 0.950 . S
H1060 C1036 0.950 . S
H1061 C1037 0.949 . S
H1062 C1039 0.950 . S
H1063 C1041 0.950 . S
C1064 C1065 1.349 . S
C1064 C1066 1.327 . S
C1064 H1089 0.950 . S
C1065 C1064 1.349 . S
C1065 C1081 1.349 . S
C1066 C1064 1.327 . S
C1066 C1085 1.429 . S
C1066 H1090 0.950 . S
C1067 C1084 1.574 . S
C1067 C1086 1.368 . S
C1067 H1091 0.949 . S
H1068 C1072 0.949 . S
C1069 C1070 1.349 . S
C1069 C1071 1.327 . S
C1069 H1092 0.950 . S
C1070 C1069 1.349 . S
C1070 C1082 1.349 . S
C1071 C1069 1.327 . S
C1071 C1087 1.429 . S
C1071 H1093 0.950 . S
C1072 H1068 0.949 . S
C1072 C1080 1.574 . S
C1072 C1088 1.368 . S
H1073 C1081 0.950 . S
H1074 C1079 0.950 . S
H1075 C1080 0.949 . S
H1076 C1082 0.950 . S
H1077 C1083 0.950 . S
H1078 C1084 0.949 . S
C1079 H1074 0.950 . S
C1079 C1081 1.327 . S
C1079 C1085 1.429 . S
C1080 C1072 1.574 . S
C1080 H1075 0.949 . S
C1080 C1086 1.368 . S
C1081 C1065 1.349 . S
C1081 H1073 0.950 . S
C1081 C1079 1.327 . S
C1082 C1070 1.349 . S
C1082 H1076 0.950 . S
C1082 C1083 1.327 . S
C1083 H1077 0.950 . S
C1083 C1082 1.327 . S
C1083 C1087 1.429 . S
C1084 C1067 1.574 . S
C1084 H1078 0.949 . S
C1084 C1088 1.368 . S
C1085 C1066 1.429 . S
C1085 C1079 1.429 . S
C1085 C1086 1.523 . S
C1086 C1067 1.368 . S
C1086 C1080 1.368 . S
C1086 C1085 1.523 . S
C1087 C1071 1.429 . S
C1087 C1083 1.429 . S
C1087 C1088 1.523 . S
C1088 C1072 1.368 . S
C1088 C1084 1.368 . S
C1088 C1087 1.523 . S
H1089 C1064 0.950 . S
H1090 C1066 0.950 . S
H1091 C1067 0.949 . S
H1092 C1069 0.950 . S
H1093 C1071 0.950 . S
C1094 C1095 1.349 . S
C1094 C1096 1.327 . S
C1094 H1119 0.950 . S
C1095 C1094 1.349 . S
C1095 C1111 1.349 . S
C1096 C1094 1.327 . S
C1096 C1115 1.429 . S
C1096 H1120 0.950 . S
C1097 C1114 1.574 . S
C1097 C1116 1.368 . S
C1097 H1121 0.949 . S
H1098 C1102 0.949 . S
C1099 C1100 1.349 . S
C1099 C1101 1.327 . S
C1099 H1122 0.950 . S
C1100 C1099 1.349 . S
C1100 C1112 1.349 . S
C1101 C1099 1.327 . S
C1101 C1117 1.429 . S
C1101 H1123 0.950 . S
C1102 H1098 0.949 . S
C1102 C1110 1.574 . S
C1102 C1118 1.368 . S
H1103 C1111 0.950 . S
H1104 C1109 0.950 . S
H1105 C1110 0.949 . S
H1106 C1112 0.950 . S
H1107 C1113 0.950 . S
H1108 C1114 0.949 . S
C1109 H1104 0.950 . S
C1109 C1111 1.327 . S
C1109 C1115 1.429 . S
C1110 C1102 1.574 . S
C1110 H1105 0.949 . S
C1110 C1116 1.368 . S
C1111 C1095 1.349 . S
C1111 H1103 0.950 . S
C1111 C1109 1.327 . S
C1112 C1100 1.349 . S
C1112 H1106 0.950 . S
C1112 C1113 1.327 . S
C1113 H1107 0.950 . S
C1113 C1112 1.327 . S
C1113 C1117 1.429 . S
C1114 C1097 1.574 . S
C1114 H1108 0.949 . S
C1114 C1118 1.368 . S
C1115 C1096 1.429 . S
C1115 C1109 1.429 . S
C1115 C1116 1.523 . S
C1116 C1097 1.368 . S
C1116 C1110 1.368 . S
C1116 C1115 1.523 . S
C1117 C1101 1.429 . S
C1117 C1113 1.429 . S
C1117 C1118 1.523 . S
C1118 C1102 1.368 . S
C1118 C1114 1.368 . S
C1118 C1117 1.523 . S
H1119 C1094 0.950 . S
H1120 C1096 0.950 . S
H1121 C1097 0.949 . S
H1122 C1099 0.950 . S
H1123 C1101 0.950 . S
C1124 C1125 1.349 . S
C1124 C1126 1.327 . S
C1124 H1149 0.950 . S
C1125 C1124 1.349 . S
C1125 C1141 1.349 . S
C1126 C1124 1.327 . S
C1126 C1145 1.429 . S
C1126 H1150 0.950 . S
C1127 C1144 1.574 . S
C1127 C1146 1.368 . S
C1127 H1151 0.949 . S
H1128 C1132 0.949 . S
C1129 C1130 1.349 . S
C1129 C1131 1.327 . S
C1129 H1152 0.950 . S
C1130 C1129 1.349 . S
C1130 C1142 1.349 . S
C1131 C1129 1.327 . S
C1131 C1147 1.429 . S
C1131 H1153 0.950 . S
C1132 H1128 0.949 . S
C1132 C1140 1.574 . S
C1132 C1148 1.368 . S
H1133 C1141 0.950 . S
H1134 C1139 0.950 . S
H1135 C1140 0.949 . S
H1136 C1142 0.950 . S
H1137 C1143 0.950 . S
H1138 C1144 0.949 . S
C1139 H1134 0.950 . S
C1139 C1141 1.327 . S
C1139 C1145 1.429 . S
C1140 C1132 1.574 . S
C1140 H1135 0.949 . S
C1140 C1146 1.368 . S
C1141 C1125 1.349 . S
C1141 H1133 0.950 . S
C1141 C1139 1.327 . S
C1142 C1130 1.349 . S
C1142 H1136 0.950 . S
C1142 C1143 1.327 . S
C1143 H1137 0.950 . S
C1143 C1142 1.327 . S
C1143 C1147 1.429 . S
C1144 C1127 1.574 . S
C1144 H1138 0.949 . S
C1144 C1148 1.368 . S
C1145 C1126 1.429 . S
C1145 C1139 1.429 . S
C1145 C1146 1.523 . S
C1146 C1127 1.368 . S
C1146 C1140 1.368 . S
C1146 C1145 1.523 . S
C1147 C1131 1.429 . S
C1147 C1143 1.429 . S
C1147 C1148 1.523 . S
C1148 C1132 1.368 . S
C1148 C1144 1.368 . S
C1148 C1147 1.523 . S
H1149 C1124 0.950 . S
H1150 C1126 0.950 . S
H1151 C1127 0.949 . S
H1152 C1129 0.950 . S
H1153 C1131 0.950 . S
C1154 C1155 1.349 . S
C1154 C1156 1.327 . S
C1154 H1179 0.950 1_556 S
C1155 C1154 1.349 . S
C1155 C1171 1.349 . S
C1156 C1154 1.327 . S
C1156 C1175 1.429 . S
C1156 H1180 0.950 . S
C1157 C1174 1.574 . S
C1157 C1176 1.368 . S
C1157 H1181 0.949 . S
H1158 C1162 0.949 . S
C1159 C1160 1.349 . S
C1159 C1161 1.327 . S
C1159 H1182 0.950 . S
C1160 C1159 1.349 . S
C1160 C1172 1.349 . S
C1161 C1159 1.327 . S
C1161 C1177 1.429 . S
C1161 H1183 0.950 . S
C1162 H1158 0.949 . S
C1162 C1170 1.574 . S
C1162 C1178 1.368 . S
H1163 C1171 0.950 . S
H1164 C1169 0.950 . S
H1165 C1170 0.949 . S
H1166 C1172 0.950 . S
H1167 C1173 0.950 . S
H1168 C1174 0.949 . S
C1169 H1164 0.950 . S
C1169 C1171 1.327 . S
C1169 C1175 1.429 . S
C1170 C1162 1.574 . S
C1170 H1165 0.949 . S
C1170 C1176 1.368 . S
C1171 C1155 1.349 . S
C1171 H1163 0.950 . S
C1171 C1169 1.327 . S
C1172 C1160 1.349 . S
C1172 H1166 0.950 . S
C1172 C1173 1.327 . S
C1173 H1167 0.950 . S
C1173 C1172 1.327 . S
C1173 C1177 1.429 . S
C1174 C1157 1.574 . S
C1174 H1168 0.949 . S
C1174 C1178 1.368 . S
C1175 C1156 1.429 . S
C1175 C1169 1.429 . S
C1175 C1176 1.523 . S
C1176 C1157 1.368 . S
C1176 C1170 1.368 . S
C1176 C1175 1.523 . S
C1177 C1161 1.429 . S
C1177 C1173 1.429 . S
C1177 C1178 1.523 . S
C1178 C1162 1.368 . S
C1178 C1174 1.368 . S
C1178 C1177 1.523 . S
H1179 C1154 0.950 1_554 S
H1180 C1156 0.950 . S
H1181 C1157 0.949 . S
H1182 C1159 0.950 . S
H1183 C1161 0.950 . S
C225 C0 1.390 . S
C230 C168 1.390 . S
C255 C19 1.377 . S
C260 C75 1.377 . S
C285 C28 1.390 . S
C290 C196 1.390 . S
C315 C103 1.377 . S
C320 C47 1.377 . S
C345 C201 1.377 . S
C350 C33 1.377 . S
C375 C98 1.390 . S
C380 C42 1.390 . S
C405 C173 1.377 . S
C410 C5 1.377 . S
C435 C70 1.390 . S
C440 C14 1.390 . S
C465 C56 1.390 . S
C470 C112 1.390 . S
C495 C84 1.390 . S
C500 C140 1.390 . S
C525 C145 1.377 . S
C530 C89 1.377 . S
C555 C61 1.377 . S
C560 C117 1.377 . S
C585 C187 1.377 . S
C590 C131 1.377 . S
C615 C159 1.377 . S
C620 C215 1.377 . S
C645 C154 1.390 . S
C650 C210 1.390 . S
C675 C126 1.390 . S
C680 C182 1.390 . S
C705 C165 1.476 . S
C710 C11 1.476 . S
C735 C121 1.472 . S
C740 C23 1.472 . S
C765 C39 1.476 . S
C770 C137 1.476 . S
C795 C149 1.472 . S
C800 C51 1.472 . S
C825 C163 1.472 . S
C830 C37 1.472 . S
C855 C53 1.476 . S
C860 C123 1.476 . S
C885 C135 1.472 . S
C890 C9 1.472 . S
C915 C151 1.476 . S
C920 C25 1.476 . S
C945 C67 1.476 . S
C950 C221 1.476 . S
C975 C177 1.472 . S
C980 C79 1.472 . S
C1005 C95 1.476 . S
C1010 C193 1.476 . S
C1035 C107 1.472 . S
C1040 C205 1.472 . S
C1065 C93 1.472 . S
C1070 C219 1.472 . S
C1095 C179 1.476 . S
C1100 C109 1.476 . S
C1125 C191 1.472 . S
C1130 C65 1.472 . S
C1155 C207 1.476 . S
C1160 C81 1.476 . S
