# Generated by pormake.
# Topology fst, (5)-cn, num edge types: 1
# Building blocks:
#     Node 0, Type 0, BuildingBlock: BEQFEK_clean_sbu_0, # of connection points: 5
#     Node 1, Type 0, BuildingBlock: BEQFEK_clean_sbu_0, # of connection points: 5
#     Node 2, Type 0, BuildingBlock: BEQFEK_clean_sbu_0, # of connection points: 5
#     Node 3, Type 0, BuildingBlock: BEQFEK_clean_sbu_0, # of connection points: 5
#     Node 4, Type 0, BuildingBlock: BEQFEK_clean_sbu_0, # of connection points: 5
#     Node 5, Type 0, BuildingBlock: BEQFEK_clean_sbu_0, # of connection points: 5
#     Node 6, Type 0, BuildingBlock: BEQFEK_clean_sbu_0, # of connection points: 5
#     Node 7, Type 0, BuildingBlock: BEQFEK_clean_sbu_0, # of connection points: 5
#     Node 8, Type 0, BuildingBlock: BEQFEK_clean_sbu_0, # of connection points: 5
#     Node 9, Type 0, BuildingBlock: BEQFEK_clean_sbu_0, # of connection points: 5
#     Node 10, Type 0, BuildingBlock: BEQFEK_clean_sbu_0, # of connection points: 5
#     Node 11, Type 0, BuildingBlock: BEQFEK_clean_sbu_0, # of connection points: 5
#     Edge 12, Type (0, 0), BuildingBlock: XIVTED_clean_linker_0, # of connection points: 2
#     Edge 13, Type (0, 0), BuildingBlock: XIVTED_clean_linker_0, # of connection points: 2
#     Edge 14, Type (0, 0), BuildingBlock: XIVTED_clean_linker_0, # of connection points: 2
#     Edge 15, Type (0, 0), BuildingBlock: XIVTED_clean_linker_0, # of connection points: 2
#     Edge 16, Type (0, 0), BuildingBlock: XIVTED_clean_linker_0, # of connection points: 2
#     Edge 17, Type (0, 0), BuildingBlock: XIVTED_clean_linker_0, # of connection points: 2
#     Edge 18, Type (0, 0), BuildingBlock: XIVTED_clean_linker_0, # of connection points: 2
#     Edge 19, Type (0, 0), BuildingBlock: XIVTED_clean_linker_0, # of connection points: 2
#     Edge 20, Type (0, 0), BuildingBlock: XIVTED_clean_linker_0, # of connection points: 2
#     Edge 21, Type (0, 0), BuildingBlock: XIVTED_clean_linker_0, # of connection points: 2
#     Edge 22, Type (0, 0), BuildingBlock: XIVTED_clean_linker_0, # of connection points: 2
#     Edge 23, Type (0, 0), BuildingBlock: XIVTED_clean_linker_0, # of connection points: 2
#     Edge 24, Type (0, 0), BuildingBlock: XIVTED_clean_linker_0, # of connection points: 2
#     Edge 25, Type (0, 0), BuildingBlock: XIVTED_clean_linker_0, # of connection points: 2
#     Edge 26, Type (0, 0), BuildingBlock: XIVTED_clean_linker_0, # of connection points: 2
#     Edge 27, Type (0, 0), BuildingBlock: XIVTED_clean_linker_0, # of connection points: 2
#     Edge 28, Type (0, 0), BuildingBlock: XIVTED_clean_linker_0, # of connection points: 2
#     Edge 29, Type (0, 0), BuildingBlock: XIVTED_clean_linker_0, # of connection points: 2
#     Edge 30, Type (0, 0), BuildingBlock: XIVTED_clean_linker_0, # of connection points: 2
#     Edge 31, Type (0, 0), BuildingBlock: XIVTED_clean_linker_0, # of connection points: 2
#     Edge 32, Type (0, 0), BuildingBlock: XIVTED_clean_linker_0, # of connection points: 2
#     Edge 33, Type (0, 0), BuildingBlock: XIVTED_clean_linker_0, # of connection points: 2
#     Edge 34, Type (0, 0), BuildingBlock: XIVTED_clean_linker_0, # of connection points: 2
#     Edge 35, Type (0, 0), BuildingBlock: XIVTED_clean_linker_0, # of connection points: 2
#     Edge 36, Type (0, 0), BuildingBlock: XIVTED_clean_linker_0, # of connection points: 2
#     Edge 37, Type (0, 0), BuildingBlock: XIVTED_clean_linker_0, # of connection points: 2
#     Edge 38, Type (0, 0), BuildingBlock: XIVTED_clean_linker_0, # of connection points: 2
#     Edge 39, Type (0, 0), BuildingBlock: XIVTED_clean_linker_0, # of connection points: 2
#     Edge 40, Type (0, 0), BuildingBlock: XIVTED_clean_linker_0, # of connection points: 2
#     Edge 41, Type (0, 0), BuildingBlock: XIVTED_clean_linker_0, # of connection points: 2
# Relax obj value: 0.025
# Max RMSD: 0.072
# Mean RMSD: 0.072
data_MOF--net-fst--node1-BEQFEK_clean_sbu_0--edge1-XIVTED_clean_linker_0
_symmetry_space_group_name_H-M    P1
_symmetry_Int_Tables_number       1
_symmetry_cell_setting            triclinic
loop_
_symmetry_equiv_pos_as_xyz
'x, y, z'
_cell_length_a     75.677772
_cell_length_b     75.61352
_cell_length_c     19.702997
_cell_angle_alpha  90.01163
_cell_angle_beta   89.976834
_cell_angle_gamma 119.99071
loop_
_atom_site_label
_atom_site_type_symbol
_atom_site_fract_x
_atom_site_fract_y
_atom_site_fract_z
_atom_type_partial_charge
Co0 Co 0.10752 0.45403 0.26817 0.0
Co1 Co 0.10822 0.45333 0.11034 0.0
C2 C 0.07117 0.424 0.18391 0.0
O3 O 0.08008 0.43187 0.23994 0.0
O4 O 0.08025 0.43056 0.12718 0.0
C5 C 0.10152 0.4368 0.40296 0.0
O6 O 0.09122 0.41889 0.37344 0.0
C7 C 0.10565 0.44744 0.9607 0.0
C8 C 0.13585 0.47332 0.93214 0.0
C9 C 0.11813 0.45737 0.90541 0.0
N10 N 0.11578 0.45707 0.01743 0.0
N11 N 0.13375 0.47249 -0.00015 0.0
C12 C 0.08394 0.43048 0.95993 0.0
H13 H 0.08341 0.41596 0.97326 0.0
H14 H 0.07682 0.42889 0.90945 0.0
H15 H 0.07504 0.4334 -0.00148 0.0
C16 C 0.14408 0.44961 0.24918 0.0
N17 N 0.12824 0.45116 0.22532 0.0
N18 N 0.12738 0.44908 0.15905 0.0
C19 C 0.14201 0.44506 0.1387 0.0
C20 C 0.15338 0.4456 0.19496 0.0
C21 C 0.15083 0.45333 0.32174 0.0
H22 H 0.14725 0.46455 0.34485 0.0
H23 H 0.14252 0.43879 0.35035 0.0
H24 H 0.16747 0.45922 0.32609 0.0
O25 O 0.11026 0.4807 0.24775 0.0
O26 O 0.10987 0.47963 0.13556 0.0
H27 H 0.15393 0.45258 0.03777 0.0
H28 H 0.15014 0.42847 0.06806 0.0
C29 C 0.14371 0.43882 0.06792 0.0
H30 H 0.12849 0.43091 0.04337 0.0
H31 H 0.14452 0.48266 0.03434 0.0
O32 O 0.10953 0.45292 0.36712 0.0
C33 C 0.11073 0.48876 0.19075 0.0
Co34 Co 0.65236 0.11029 0.26673 0.0
Co35 Co 0.65118 0.11065 0.10728 0.0
C36 C 0.64363 0.07341 0.18187 0.0
O37 O 0.64567 0.08253 0.23818 0.0
O38 O 0.64568 0.08246 0.12528 0.0
C39 C 0.66027 0.1007 0.40194 0.0
O40 O 0.65929 0.08455 0.3733 0.0
C41 C 0.65939 0.10992 0.95992 0.0
C42 C 0.64986 0.13141 0.92203 0.0
C43 C 0.65776 0.11926 0.90123 0.0
N44 N 0.65281 0.11642 0.01264 0.0
N45 N 0.64704 0.12913 0.98941 0.0
C46 C 0.66817 0.09617 0.96709 0.0
H47 H 0.67429 0.09732 0.01911 0.0
H48 H 0.68043 0.1001 0.92912 0.0
H49 H 0.65594 0.08015 0.95858 0.0
C50 C 0.69334 0.14576 0.24102 0.0
N51 N 0.6755 0.13017 0.21898 0.0
N52 N 0.67519 0.13037 0.15222 0.0
C53 C 0.69283 0.14622 0.12956 0.0
C54 C 0.70493 0.15651 0.18515 0.0
C55 C 0.69917 0.14994 0.31432 0.0
H56 H 0.69723 0.13586 0.33864 0.0
H57 H 0.71521 0.1623 0.32095 0.0
H58 H 0.68881 0.1542 0.34031 0.0
O59 O 0.62836 0.11379 0.25034 0.0
O60 O 0.62754 0.11285 0.13798 0.0
H61 H 0.71202 0.16646 0.04925 0.0
H62 H 0.69686 0.13978 0.02689 0.0
C63 C 0.69711 0.15237 0.05652 0.0
H64 H 0.68501 0.1551 0.03651 0.0
H65 H 0.64137 0.13648 0.01987 0.0
O66 O 0.65784 0.11327 0.36588 0.0
C67 C 0.62015 0.1142 0.1944 0.0
Co68 Co 0.5399 0.65412 0.28434 0.0
Co69 Co 0.5384 0.65296 0.12524 0.0
C70 C 0.5678 0.64503 0.19907 0.0
O71 O 0.5609 0.64724 0.25553 0.0
O72 O 0.56075 0.64709 0.14269 0.0
C73 C 0.55715 0.66128 0.41969 0.0
O74 O 0.57155 0.65878 0.3921 0.0
C75 C 0.54729 0.65995 0.97794 0.0
C76 C 0.51724 0.65391 0.94039 0.0
C77 C 0.53681 0.65947 0.91931 0.0
N78 N 0.53441 0.65493 0.03085 0.0
N79 N 0.51649 0.65125 0.00792 0.0
C80 C 0.5694 0.66651 0.98494 0.0
H81 H 0.57497 0.67296 0.03624 0.0
H82 H 0.5786 0.67802 0.9458 0.0
H83 H 0.57137 0.65301 0.97846 0.0
C84 C 0.54525 0.69512 0.25861 0.0
N85 N 0.54315 0.67729 0.23681 0.0
N86 N 0.54315 0.67709 0.17007 0.0
C87 C 0.54547 0.69491 0.14715 0.0
C88 C 0.54677 0.70689 0.20243 0.0
C89 C 0.54417 0.69993 0.33168 0.0
H90 H 0.53112 0.68664 0.35642 0.0
H91 H 0.55832 0.70271 0.35777 0.0
H92 H 0.54236 0.71352 0.33763 0.0
O93 O 0.51236 0.63023 0.26858 0.0
O94 O 0.51233 0.62952 0.15615 0.0
H95 H 0.53153 0.69195 0.05035 0.0
H96 H 0.55282 0.71714 0.06698 0.0
C97 C 0.54689 0.70055 0.07373 0.0
H98 H 0.55718 0.69637 0.04717 0.0
H99 H 0.50377 0.64711 0.03865 0.0
O100 O 0.5427 0.6599 0.383 0.0
C101 C 0.50363 0.62214 0.21267 0.0
Co102 Co 0.88512 0.54203 0.28108 0.0
Co103 Co 0.88316 0.54188 0.12351 0.0
C104 C 0.92064 0.57199 0.19494 0.0
O105 O 0.91226 0.56437 0.25183 0.0
O106 O 0.91112 0.56499 0.13917 0.0
C107 C 0.89061 0.55894 0.4165 0.0
O108 O 0.8994 0.57702 0.3876 0.0
C109 C 0.88562 0.54894 0.97506 0.0
C110 C 0.85704 0.52143 0.94338 0.0
C111 C 0.874 0.5387 0.91862 0.0
N112 N 0.87575 0.5382 0.03058 0.0
N113 N 0.85873 0.52182 0.01121 0.0
C114 C 0.9066 0.56722 0.97659 0.0
H115 H 0.91667 0.56375 0.00788 0.0
H116 H 0.90596 0.58012 0.00102 0.0
H117 H 0.91329 0.57178 0.92514 0.0
C118 C 0.84806 0.54583 0.26516 0.0
N119 N 0.86396 0.54458 0.23996 0.0
N120 N 0.86375 0.5455 0.17335 0.0
C121 C 0.84802 0.54793 0.15403 0.0
C122 C 0.8374 0.54795 0.2114 0.0
C123 C 0.84252 0.54366 0.3388 0.0
H124 H 0.84531 0.53197 0.36249 0.0
H125 H 0.8523 0.55845 0.36469 0.0
H126 H 0.82629 0.53926 0.34612 0.0
O127 O 0.88254 0.51531 0.26029 0.0
O128 O 0.88197 0.51587 0.14815 0.0
H129 H 0.83442 0.53632 0.0572 0.0
H130 H 0.83531 0.55973 0.08079 0.0
C131 C 0.84382 0.5513 0.08236 0.0
H132 H 0.85832 0.5601 0.05403 0.0
H133 H 0.84842 0.51068 0.04448 0.0
O134 O 0.88359 0.543 0.38007 0.0
C135 C 0.88164 0.50702 0.20334 0.0
Co136 Co 0.33894 0.88484 0.27126 0.0
Co137 Co 0.34036 0.88556 0.11206 0.0
C138 C 0.34791 0.92232 0.1893 0.0
O139 O 0.34581 0.9128 0.24474 0.0
O140 O 0.34586 0.91367 0.13192 0.0
C141 C 0.33029 0.89365 0.4062 0.0
O142 O 0.33096 0.90969 0.37784 0.0
C143 C 0.33219 0.8868 0.96506 0.0
C144 C 0.34204 0.86569 0.92589 0.0
C145 C 0.33392 0.8777 0.90591 0.0
N146 N 0.33891 0.88028 0.01724 0.0
N147 N 0.34489 0.8678 0.99326 0.0
C148 C 0.32313 0.90029 0.97319 0.0
H149 H 0.3172 0.89906 0.02556 0.0
H150 H 0.31068 0.89617 0.93588 0.0
H151 H 0.33515 0.91637 0.96435 0.0
C152 C 0.29791 0.84967 0.24379 0.0
N153 N 0.31583 0.86533 0.22258 0.0
N154 N 0.31622 0.86562 0.15582 0.0
C155 C 0.29853 0.85004 0.1323 0.0
C156 C 0.28634 0.83942 0.18733 0.0
C157 C 0.292 0.84498 0.31688 0.0
H158 H 0.29367 0.85883 0.34222 0.0
H159 H 0.27602 0.83242 0.32294 0.0
H160 H 0.30248 0.84079 0.3423 0.0
O161 O 0.36288 0.88128 0.25432 0.0
O162 O 0.3639 0.8831 0.1421 0.0
H163 H 0.2793 0.83043 0.05094 0.0
H164 H 0.29444 0.85728 0.03076 0.0
C165 C 0.29421 0.84447 0.05885 0.0
H166 H 0.30631 0.8419 0.03765 0.0
H167 H 0.35067 0.86046 0.02322 0.0
O168 O 0.3332 0.88139 0.37007 0.0
C169 C 0.37117 0.88128 0.19808 0.0
Co170 Co 0.4508 0.34101 0.26673 0.0
Co171 Co 0.4523 0.3422 0.10728 0.0
C172 C 0.42263 0.3497 0.18142 0.0
O173 O 0.42964 0.34755 0.2377 0.0
O174 O 0.42971 0.34781 0.12481 0.0
C175 C 0.43309 0.33301 0.40172 0.0
O176 O 0.41795 0.334 0.37299 0.0
C177 C 0.44371 0.33497 0.95943 0.0
C178 C 0.47394 0.34118 0.92325 0.0
C179 C 0.45441 0.33543 0.90132 0.0
N180 N 0.45643 0.34018 0.01285 0.0
N181 N 0.47446 0.34397 0.99067 0.0
C182 C 0.42153 0.32827 0.96551 0.0
H183 H 0.41587 0.32205 0.01699 0.0
H184 H 0.4125 0.31653 0.92673 0.0
H185 H 0.41944 0.34164 0.95765 0.0
C186 C 0.44587 0.30024 0.24131 0.0
N187 N 0.44779 0.31797 0.21932 0.0
N188 N 0.44781 0.31815 0.15256 0.0
C189 C 0.44567 0.30037 0.12985 0.0
C190 C 0.44447 0.28848 0.18528 0.0
C191 C 0.44705 0.29556 0.31444 0.0
H192 H 0.45992 0.30901 0.33917 0.0
H193 H 0.43278 0.29248 0.34044 0.0
H194 H 0.44921 0.28219 0.32055 0.0
O195 O 0.47817 0.36496 0.25033 0.0
O196 O 0.47829 0.36593 0.13791 0.0
H197 H 0.45967 0.30335 0.03314 0.0
H198 H 0.43851 0.2781 0.04996 0.0
C199 C 0.44432 0.29468 0.0565 0.0
H200 H 0.43396 0.29874 0.02979 0.0
H201 H 0.48711 0.34824 0.02189 0.0
O202 O 0.44812 0.33546 0.36579 0.0
C203 C 0.48691 0.37324 0.1946 0.0
Co204 Co 0.53959 0.88534 0.1153 0.0
Co205 Co 0.53862 0.88457 0.27477 0.0
C206 C 0.56788 0.92206 0.20069 0.0
O207 O 0.56065 0.91304 0.14436 0.0
O208 O 0.56111 0.91289 0.25724 0.0
C209 C 0.55687 0.89532 0.9799 0.0
O210 O 0.572 0.91145 0.00868 0.0
C211 C 0.54773 0.88535 0.42198 0.0
C212 C 0.5171 0.86262 0.45946 0.0
C213 C 0.53696 0.87556 0.48051 0.0
N214 N 0.53473 0.87838 0.36916 0.0
N215 N 0.51647 0.8649 0.39212 0.0
C216 C 0.57008 0.90006 0.41509 0.0
H217 H 0.57536 0.89914 0.36333 0.0
H218 H 0.57885 0.89688 0.45353 0.0
H219 H 0.57293 0.91581 0.42296 0.0
C220 C 0.54546 0.84996 0.13815 0.0
N221 N 0.54314 0.86541 0.16139 0.0
N222 N 0.54304 0.86515 0.22816 0.0
C223 C 0.54532 0.84947 0.24964 0.0
C224 C 0.54689 0.83931 0.19324 0.0
C225 C 0.54659 0.84581 0.06446 0.0
H226 H 0.55884 0.8598 0.03999 0.0
H227 H 0.54985 0.83319 0.05668 0.0
H228 H 0.53196 0.84197 0.03949 0.0
O229 O 0.51212 0.88165 0.13337 0.0
O230 O 0.51258 0.88227 0.24577 0.0
H231 H 0.52914 0.83957 0.34346 0.0
H232 H 0.54629 0.83 0.32904 0.0
C233 C 0.54424 0.84341 0.32252 0.0
H234 H 0.55613 0.85646 0.35184 0.0
H235 H 0.50356 0.85709 0.36152 0.0
O236 O 0.54192 0.88264 0.01592 0.0
C237 C 0.50365 0.88103 0.18987 0.0
Co238 Co 0.65278 0.54195 0.12288 0.0
Co239 Co 0.65087 0.53927 0.28188 0.0
C240 C 0.64372 0.56955 0.20883 0.0
O241 O 0.64611 0.56302 0.1519 0.0
O242 O 0.6454 0.56199 0.26471 0.0
C243 C 0.65965 0.55885 0.98676 0.0
O244 O 0.65671 0.57306 0.01364 0.0
C245 C 0.65891 0.54843 0.42851 0.0
C246 C 0.64898 0.5175 0.4682 0.0
C247 C 0.65704 0.53767 0.48789 0.0
N248 N 0.65228 0.53513 0.37648 0.0
N249 N 0.64628 0.51669 0.4007 0.0
C250 C 0.66797 0.57097 0.42005 0.0
H251 H 0.67436 0.57567 0.36818 0.0
H252 H 0.68008 0.57938 0.45837 0.0
H253 H 0.65583 0.57497 0.42692 0.0
C254 C 0.69366 0.54733 0.14944 0.0
N255 N 0.67571 0.54489 0.17109 0.0
N256 N 0.67507 0.54385 0.23777 0.0
C257 C 0.69262 0.54552 0.26078 0.0
C258 C 0.70499 0.54777 0.20549 0.0
C259 C 0.69983 0.5495 0.07637 0.0
H260 H 0.69776 0.56164 0.05262 0.0
H261 H 0.71598 0.55348 0.07032 0.0
H262 H 0.68978 0.53498 0.04941 0.0
O263 O 0.62862 0.51442 0.13761 0.0
O264 O 0.62735 0.51351 0.24995 0.0
H265 H 0.6842 0.52831 0.35289 0.0
H266 H 0.71131 0.54356 0.34095 0.0
C267 C 0.69659 0.54313 0.33369 0.0
H268 H 0.69657 0.55548 0.36401 0.0
H269 H 0.64051 0.50354 0.37088 0.0
O270 O 0.65866 0.54467 0.02413 0.0
C271 C 0.62019 0.5053 0.1927 0.0
Co272 Co 0.10697 0.6533 0.11017 0.0
Co273 Co 0.10861 0.6542 0.2678 0.0
C274 C 0.0713 0.64735 0.19605 0.0
O275 O 0.07977 0.64841 0.13908 0.0
O276 O 0.08072 0.64954 0.25185 0.0
C277 C 0.10138 0.66467 0.97459 0.0
O278 O 0.09104 0.67245 0.00272 0.0
C279 C 0.10622 0.65836 0.41678 0.0
C280 C 0.13494 0.65954 0.44722 0.0
C281 C 0.11808 0.65988 0.47274 0.0
N282 N 0.11591 0.65745 0.36081 0.0
N283 N 0.13299 0.65809 0.37948 0.0
C284 C 0.08527 0.65572 0.4162 0.0
H285 H 0.07543 0.6432 0.38095 0.0
H286 H 0.08615 0.66997 0.39735 0.0
H287 H 0.07819 0.65204 0.46729 0.0
C288 C 0.14403 0.69398 0.12841 0.0
N289 N 0.12806 0.67673 0.15274 0.0
N290 N 0.12817 0.6775 0.2194 0.0
C291 C 0.14392 0.69553 0.23966 0.0
C292 C 0.15465 0.70646 0.18284 0.0
C293 C 0.14966 0.69772 0.05489 0.0
H294 H 0.14742 0.68348 0.03083 0.0
H295 H 0.13951 0.70225 0.02909 0.0
H296 H 0.16574 0.70996 0.04788 0.0
O297 O 0.10937 0.62898 0.12925 0.0
O298 O 0.10977 0.62951 0.24144 0.0
H299 H 0.15747 0.69705 0.33622 0.0
H300 H 0.15662 0.71968 0.31422 0.0
C301 C 0.14809 0.70275 0.31173 0.0
H302 H 0.13357 0.69694 0.34007 0.0
H303 H 0.14322 0.65732 0.34574 0.0
O304 O 0.10909 0.65651 0.01151 0.0
C305 C 0.11015 0.62126 0.18565 0.0
Co306 Co 0.4515 0.10977 0.11737 0.0
Co307 Co 0.4528 0.1112 0.27622 0.0
C308 C 0.42311 0.07353 0.20396 0.0
O309 O 0.43014 0.08239 0.14731 0.0
O310 O 0.43026 0.08277 0.26011 0.0
C311 C 0.44002 0.09644 0.97974 0.0
O312 O 0.43283 0.07809 0.00553 0.0
C313 C 0.44394 0.10947 0.42328 0.0
C314 C 0.47354 0.13449 0.46025 0.0
C315 C 0.45427 0.11981 0.48157 0.0
N316 N 0.4566 0.11776 0.37011 0.0
N317 N 0.47427 0.13261 0.39268 0.0
C318 C 0.4222 0.09283 0.41716 0.0
H319 H 0.41583 0.094 0.36773 0.0
H320 H 0.41285 0.09359 0.45925 0.0
H321 H 0.42153 0.07784 0.41903 0.0
C322 C 0.44568 0.14522 0.13809 0.0
N323 N 0.44819 0.12997 0.16217 0.0
N324 N 0.44822 0.13041 0.22889 0.0
C325 C 0.44562 0.14597 0.24955 0.0
C326 C 0.44401 0.15591 0.1926 0.0
C327 C 0.44444 0.14904 0.06417 0.0
H328 H 0.43236 0.13486 0.04011 0.0
H329 H 0.4409 0.16145 0.05572 0.0
H330 H 0.45914 0.15305 0.03936 0.0
O331 O 0.47887 0.11326 0.13509 0.0
O332 O 0.47886 0.11342 0.24753 0.0
H333 H 0.44244 0.16431 0.32838 0.0
H334 H 0.43545 0.13855 0.35241 0.0
C335 C 0.44625 0.15205 0.32222 0.0
H336 H 0.46182 0.15766 0.34244 0.0
H337 H 0.48683 0.14154 0.36171 0.0
O338 O 0.4487 0.11193 0.01843 0.0
C339 C 0.48755 0.11423 0.19144 0.0
Co340 Co 0.33996 0.45518 0.12514 0.0
Co341 Co 0.33825 0.45338 0.2828 0.0
C342 C 0.34699 0.42514 0.2071 0.0
O343 O 0.34587 0.43335 0.15196 0.0
O344 O 0.3441 0.43106 0.26455 0.0
C345 C 0.32879 0.43801 0.99082 0.0
O346 O 0.32104 0.42018 0.021 0.0
C347 C 0.33488 0.44709 0.43241 0.0
C348 C 0.33025 0.47278 0.46139 0.0
C349 C 0.33229 0.45695 0.48786 0.0
N350 N 0.33419 0.45668 0.37582 0.0
N351 N 0.33142 0.47197 0.39366 0.0
C352 C 0.33983 0.43026 0.43289 0.0
H353 H 0.35165 0.43329 0.39418 0.0
H354 H 0.32592 0.4157 0.41949 0.0
H355 H 0.3454 0.42868 0.48333 0.0
C356 C 0.29866 0.4499 0.14441 0.0
N357 N 0.3161 0.4515 0.16804 0.0
N358 N 0.31476 0.44895 0.23413 0.0
C359 C 0.29602 0.44458 0.25452 0.0
C360 C 0.28521 0.44537 0.19855 0.0
C361 C 0.29574 0.45414 0.07231 0.0
H362 H 0.31057 0.46546 0.04973 0.0
H363 H 0.28949 0.43978 0.04259 0.0
H364 H 0.28503 0.4601 0.06888 0.0
O365 O 0.36339 0.48203 0.147 0.0
O366 O 0.36263 0.48008 0.25906 0.0
H367 H 0.29136 0.45146 0.35605 0.0
H368 H 0.27126 0.42743 0.32446 0.0
C369 C 0.28802 0.43791 0.32501 0.0
H370 H 0.29545 0.43002 0.34887 0.0
H371 H 0.33068 0.48209 0.35932 0.0
O372 O 0.33696 0.45423 0.02615 0.0
C373 C 0.37081 0.48974 0.20454 0.0
Co374 Co 0.88471 0.34285 0.11013 0.0
Co375 Co 0.88293 0.34057 0.26996 0.0
C376 C 0.9204 0.34872 0.1971 0.0
O377 O 0.91178 0.34778 0.1406 0.0
O378 O 0.91106 0.34613 0.2533 0.0
C379 C 0.88669 0.32728 0.97788 0.0
O380 O 0.88853 0.31341 0.01228 0.0
C381 C 0.88626 0.33528 0.41839 0.0
C382 C 0.8563 0.33021 0.45331 0.0
C383 C 0.87417 0.33138 0.47571 0.0
N384 N 0.87585 0.33617 0.36431 0.0
N385 N 0.85808 0.33336 0.38586 0.0
C386 C 0.90695 0.33737 0.41438 0.0
H387 H 0.9071 0.32737 0.37343 0.0
H388 H 0.91133 0.33329 0.46315 0.0
H389 H 0.9183 0.35336 0.40102 0.0
C390 C 0.84734 0.30203 0.12701 0.0
N391 N 0.86355 0.31902 0.15185 0.0
N392 N 0.86382 0.31754 0.21843 0.0
C393 C 0.84832 0.2992 0.2376 0.0
C394 C 0.83721 0.28891 0.18057 0.0
C395 C 0.84055 0.29921 0.05454 0.0
H396 H 0.8458 0.31421 0.02994 0.0
H397 H 0.84709 0.291 0.02701 0.0
H398 H 0.82368 0.28991 0.05105 0.0
O399 O 0.88196 0.36676 0.13302 0.0
O400 O 0.88126 0.36524 0.24547 0.0
H401 H 0.83477 0.29542 0.33565 0.0
H402 H 0.8372 0.2741 0.30821 0.0
C403 C 0.84483 0.29102 0.30852 0.0
H404 H 0.85952 0.29725 0.33601 0.0
H405 H 0.84706 0.33343 0.35421 0.0
O406 O 0.88444 0.34069 0.00949 0.0
C407 C 0.88093 0.3739 0.19043 0.0
H408 H 0.11239 0.6006 0.29649 0.0
H409 H 0.11143 0.51069 0.07874 0.0
H410 H 0.11046 0.59852 0.0774 0.0
H411 H 0.11248 0.51272 0.29786 0.0
H412 H 0.11217 0.54336 0.07685 0.0
H413 H 0.11349 0.56893 0.29751 0.0
C414 C 0.11222 0.59352 0.24852 0.0
C415 C 0.11126 0.60225 0.18673 0.0
C416 C 0.11229 0.53668 0.12533 0.0
C417 C 0.11253 0.56587 0.18763 0.0
C418 C 0.11187 0.51801 0.12648 0.0
C419 C 0.11183 0.50887 0.18859 0.0
C420 C 0.11266 0.54631 0.1867 0.0
C421 C 0.11245 0.51913 0.24877 0.0
C422 C 0.11286 0.5754 0.24918 0.0
C423 C 0.11115 0.59235 0.12625 0.0
N424 N 0.11279 0.53725 0.24629 0.0
N425 N 0.11173 0.57467 0.12824 0.0
H426 H 0.59948 0.11651 0.0841 0.0
H427 H 0.51052 0.11683 0.30238 0.0
H428 H 0.59806 0.11558 0.30329 0.0
H429 H 0.511 0.11529 0.08326 0.0
H430 H 0.54338 0.11816 0.30378 0.0
H431 H 0.56801 0.11787 0.08322 0.0
C432 C 0.59259 0.11664 0.13218 0.0
C433 C 0.60144 0.11583 0.19396 0.0
C434 C 0.53634 0.11759 0.25539 0.0
C435 C 0.56523 0.11737 0.1931 0.0
C436 C 0.51754 0.11683 0.25446 0.0
C437 C 0.50788 0.11585 0.19252 0.0
C438 C 0.54562 0.11737 0.19398 0.0
C439 C 0.51782 0.11598 0.13219 0.0
C440 C 0.57458 0.11742 0.13155 0.0
C441 C 0.5918 0.11614 0.25448 0.0
N442 N 0.5361 0.11666 0.13447 0.0
N443 N 0.57418 0.11682 0.25252 0.0
H444 H 0.39198 0.51092 0.31785 0.0
H445 H 0.47977 0.60252 0.10287 0.0
H446 H 0.39241 0.51491 0.09912 0.0
H447 H 0.48082 0.59927 0.32158 0.0
H448 H 0.44689 0.57118 0.1019 0.0
H449 H 0.4236 0.5439 0.32145 0.0
C450 C 0.39866 0.51873 0.27058 0.0
C451 C 0.38953 0.51004 0.20803 0.0
C452 C 0.45425 0.57731 0.1502 0.0
C453 C 0.42574 0.5478 0.2119 0.0
C454 C 0.47308 0.59526 0.15084 0.0
C455 C 0.48319 0.60354 0.21244 0.0
C456 C 0.44535 0.56743 0.21157 0.0
C457 C 0.47362 0.59343 0.2729 0.0
C458 C 0.41672 0.53757 0.27273 0.0
C459 C 0.39889 0.52093 0.14851 0.0
N460 N 0.45527 0.57584 0.27092 0.0
N461 N 0.41648 0.53917 0.15196 0.0
H462 H 0.87933 0.39429 0.30337 0.0
H463 H 0.87963 0.48472 0.091 0.0
H464 H 0.87998 0.39689 0.08433 0.0
H465 H 0.88096 0.48332 0.31003 0.0
H466 H 0.87844 0.45189 0.08785 0.0
H467 H 0.87857 0.42618 0.30697 0.0
C468 C 0.87925 0.40151 0.25599 0.0
C469 C 0.87978 0.39288 0.19341 0.0
C470 C 0.87896 0.45874 0.13662 0.0
C471 C 0.87894 0.42948 0.19729 0.0
C472 C 0.87964 0.47751 0.1385 0.0
C473 C 0.88046 0.48687 0.20092 0.0
C474 C 0.8791 0.44918 0.19757 0.0
C475 C 0.88038 0.47673 0.26074 0.0
C476 C 0.87883 0.41975 0.25813 0.0
C477 C 0.87963 0.40297 0.13375 0.0
N478 N 0.87976 0.45846 0.25755 0.0
N479 N 0.87926 0.42073 0.1372 0.0
H480 H 0.39175 0.87936 0.08675 0.0
H481 H 0.48087 0.87833 0.30144 0.0
H482 H 0.39323 0.87926 0.30591 0.0
H483 H 0.47993 0.87989 0.08237 0.0
H484 H 0.44801 0.87697 0.30398 0.0
H485 H 0.42314 0.87787 0.08443 0.0
C486 C 0.39863 0.87898 0.13452 0.0
C487 C 0.38983 0.87955 0.19673 0.0
C488 C 0.45495 0.87755 0.25534 0.0
C489 C 0.42595 0.87784 0.1942 0.0
C490 C 0.47375 0.87833 0.25375 0.0
C491 C 0.48329 0.87934 0.1915 0.0
C492 C 0.44554 0.87779 0.19428 0.0
C493 C 0.47321 0.87919 0.13152 0.0
C494 C 0.4166 0.87812 0.13306 0.0
C495 C 0.39946 0.87891 0.2568 0.0
N496 N 0.45493 0.87851 0.13443 0.0
N497 N 0.41704 0.87816 0.25402 0.0
H498 H 0.59858 0.48298 0.08139 0.0
H499 H 0.51034 0.39407 0.30472 0.0
H500 H 0.59884 0.48132 0.30052 0.0
H501 H 0.51 0.39507 0.08554 0.0
H502 H 0.54343 0.42547 0.30379 0.0
H503 H 0.56676 0.45014 0.08141 0.0
C504 C 0.59202 0.4757 0.12947 0.0
C505 C 0.60139 0.48501 0.19103 0.0
C506 C 0.53614 0.41879 0.25588 0.0
C507 C 0.56494 0.44744 0.19142 0.0
C508 C 0.51723 0.40084 0.25639 0.0
C509 C 0.50729 0.39192 0.19515 0.0
C510 C 0.54521 0.42795 0.19371 0.0
C511 C 0.51702 0.4014 0.13406 0.0
C512 C 0.57384 0.45695 0.12945 0.0
C513 C 0.59216 0.47481 0.25176 0.0
N514 N 0.53539 0.41891 0.13493 0.0
N515 N 0.57445 0.45665 0.25039 0.0
H516 H 0.25487 0.42649 0.10324 0.0
H517 H 0.16442 0.42605 0.28917 0.0
H518 H 0.26867 0.45958 0.2925 0.0
H519 H 0.18457 0.46052 0.1027 0.0
H520 H 0.19614 0.42458 0.29142 0.0
H521 H 0.22175 0.42518 0.10115 0.0
C522 C 0.25098 0.43343 0.14432 0.0
C523 C 0.26464 0.44325 0.19799 0.0
C524 C 0.19333 0.43223 0.24986 0.0
C525 C 0.22664 0.44081 0.19732 0.0
C526 C 0.17543 0.43327 0.24876 0.0
C527 C 0.17186 0.44352 0.1958 0.0
C528 C 0.20732 0.4409 0.19656 0.0
C529 C 0.18643 0.4521 0.14372 0.0
C530 C 0.23208 0.43248 0.14328 0.0
C531 C 0.25851 0.45148 0.25088 0.0
N532 N 0.20351 0.45049 0.14513 0.0
N533 N 0.23988 0.44997 0.24946 0.0
H534 H 0.82685 0.25599 0.09824 0.0
H535 H 0.71414 0.19144 0.25239 0.0
H536 H 0.8036 0.27752 0.25858 0.0
H537 H 0.73997 0.16549 0.11742 0.0
H538 H 0.74644 0.22376 0.25068 0.0
H539 H 0.79454 0.22336 0.09847 0.0
C540 C 0.81489 0.25381 0.13328 0.0
C541 C 0.81783 0.26929 0.17879 0.0
C542 C 0.74512 0.21102 0.2215 0.0
C543 C 0.78107 0.23226 0.17958 0.0
C544 C 0.72673 0.19259 0.22273 0.0
C545 C 0.72454 0.1759 0.18514 0.0
C546 C 0.76139 0.21279 0.18203 0.0
C547 C 0.74113 0.17815 0.14674 0.0
C548 C 0.79655 0.23521 0.13369 0.0
C549 C 0.802 0.2658 0.22345 0.0
N550 N 0.7589 0.19631 0.146 0.0
N551 N 0.78429 0.24766 0.22269 0.0
H552 H 0.57343 0.74202 0.26845 0.0
H553 H 0.52048 0.80396 0.12958 0.0
H554 H 0.52164 0.7166 0.13382 0.0
H555 H 0.5744 0.83117 0.25459 0.0
H556 H 0.52083 0.77179 0.13041 0.0
H557 H 0.57412 0.77482 0.2653 0.0
C558 C 0.56221 0.74341 0.23836 0.0
C559 C 0.54749 0.72675 0.20123 0.0
C560 C 0.53264 0.78477 0.15759 0.0
C561 C 0.54816 0.76397 0.19703 0.0
C562 C 0.53247 0.80311 0.15685 0.0
C563 C 0.54743 0.82008 0.19208 0.0
C564 C 0.54788 0.78342 0.19406 0.0
C565 C 0.56254 0.81828 0.22723 0.0
C566 C 0.56263 0.76208 0.23632 0.0
C567 C 0.53334 0.72922 0.16263 0.0
N568 N 0.56237 0.80022 0.2275 0.0
N569 N 0.534 0.74748 0.16158 0.0
H570 H 0.71455 0.52252 0.13697 0.0
H571 H 0.82774 0.57203 0.28875 0.0
H572 H 0.73973 0.57353 0.27508 0.0
H573 H 0.80311 0.52422 0.13845 0.0
H574 H 0.79542 0.57231 0.28824 0.0
H575 H 0.74687 0.52258 0.13912 0.0
C576 C 0.72701 0.53381 0.16743 0.0
C577 C 0.72463 0.54806 0.20577 0.0
C578 C 0.7971 0.56178 0.25534 0.0
C579 C 0.76154 0.54816 0.20931 0.0
C580 C 0.81546 0.56157 0.25591 0.0
C581 C 0.81801 0.54816 0.21334 0.0
C582 C 0.78124 0.54841 0.21207 0.0
C583 C 0.80179 0.53497 0.17135 0.0
C584 C 0.74541 0.53381 0.16895 0.0
C585 C 0.74105 0.56224 0.24513 0.0
N586 N 0.7841 0.53542 0.17177 0.0
N587 N 0.75886 0.56193 0.246 0.0
H588 H 0.18885 0.71615 0.25482 0.0
H589 H 0.25139 0.83154 0.12143 0.0
H590 H 0.16456 0.74087 0.10894 0.0
H591 H 0.27675 0.80374 0.25008 0.0
H592 H 0.21902 0.79901 0.11831 0.0
H593 H 0.22081 0.7487 0.25633 0.0
C594 C 0.19029 0.72854 0.22324 0.0
C595 C 0.17413 0.72597 0.18195 0.0
C596 C 0.23166 0.80003 0.14725 0.0
C597 C 0.21064 0.76322 0.18292 0.0
C598 C 0.25006 0.81853 0.14895 0.0
C599 C 0.2666 0.82018 0.18612 0.0
C600 C 0.22986 0.78315 0.1832 0.0
C601 C 0.26422 0.80305 0.22135 0.0
C602 C 0.20855 0.74707 0.22384 0.0
C603 C 0.17679 0.74231 0.1412 0.0
N604 N 0.24619 0.78524 0.21906 0.0
N605 N 0.19472 0.76033 0.14283 0.0
H606 H 0.41568 0.16347 0.25077 0.0
H607 H 0.46979 0.27896 0.11687 0.0
H608 H 0.4703 0.19132 0.12906 0.0
H609 H 0.41812 0.25339 0.25217 0.0
H610 H 0.4691 0.2463 0.11638 0.0
H611 H 0.41519 0.19568 0.24835 0.0
C612 C 0.42756 0.17644 0.22366 0.0
C613 C 0.4431 0.17493 0.19032 0.0
C614 C 0.45787 0.24776 0.14617 0.0
C615 C 0.44263 0.21158 0.18674 0.0
C616 C 0.45822 0.26636 0.14617 0.0
C617 C 0.44396 0.26872 0.18448 0.0
C618 C 0.44312 0.23141 0.18482 0.0
C619 C 0.42943 0.2521 0.22229 0.0
C620 C 0.42728 0.19475 0.22211 0.0
C621 C 0.45803 0.19195 0.15515 0.0
N622 N 0.42936 0.23408 0.22153 0.0
N623 N 0.45745 0.2096 0.15434 0.0
H624 H 0.08614 0.40616 0.4988 0.0
H625 H 0.12902 0.48574 0.80687 0.0
H626 H 0.12108 0.47175 0.47703 0.0
H627 H 0.09854 0.42056 0.83763 0.0
H628 H 0.12443 0.48021 0.68514 0.0
H629 H 0.08901 0.41038 0.62261 0.0
C630 C 0.09442 0.42141 0.51996 0.0
C631 C 0.10336 0.43863 0.47752 0.0
C632 C 0.1186 0.46704 0.71826 0.0
C633 C 0.10658 0.44352 0.61838 0.0
C634 C 0.12122 0.47021 0.78782 0.0
C635 C 0.11392 0.45358 0.83225 0.0
C636 C 0.10877 0.44705 0.69255 0.0
C637 C 0.10396 0.43378 0.80501 0.0
C638 C 0.09602 0.42379 0.5905 0.0
C639 C 0.11391 0.45801 0.50758 0.0
N640 N 0.1017 0.43104 0.73662 0.0
N641 N 0.11518 0.4599 0.57597 0.0
H642 H 0.65899 0.07389 0.49841 0.0
H643 H 0.67272 0.14893 0.80556 0.0
H644 H 0.66867 0.13486 0.4742 0.0
H645 H 0.65328 0.0852 0.83389 0.0
H646 H 0.67664 0.14525 0.68454 0.0
H647 H 0.66193 0.07897 0.62162 0.0
C648 C 0.66188 0.08839 0.51892 0.0
C649 C 0.66336 0.1039 0.476 0.0
C650 C 0.67175 0.13209 0.71721 0.0
C651 C 0.66681 0.1098 0.61664 0.0
C652 C 0.66953 0.13419 0.78638 0.0
C653 C 0.66274 0.11737 0.82997 0.0
C654 C 0.66694 0.11294 0.69099 0.0
C655 C 0.6589 0.09866 0.80242 0.0
C656 C 0.66353 0.09125 0.58923 0.0
C657 C 0.66719 0.12239 0.50534 0.0
N658 N 0.66088 0.09689 0.73444 0.0
N659 N 0.66869 0.12478 0.57376 0.0
H660 H 0.53383 0.67339 0.48921 0.0
H661 H 0.5641 0.65118 0.85353 0.0
H662 H 0.58014 0.65668 0.51824 0.0
H663 H 0.52456 0.67628 0.82183 0.0
H664 H 0.57205 0.65505 0.73227 0.0
H665 H 0.53181 0.67628 0.61176 0.0
C666 C 0.54365 0.67041 0.52141 0.0
C667 C 0.55701 0.66457 0.49352 0.0
C668 C 0.56189 0.66 0.75209 0.0
C669 C 0.55472 0.66775 0.6342 0.0
C670 C 0.5575 0.65799 0.82153 0.0
C671 C 0.54379 0.66361 0.848 0.0
C672 C 0.55231 0.66747 0.70893 0.0
C673 C 0.53514 0.67167 0.8035 0.0
C674 C 0.54254 0.67212 0.59146 0.0
C675 C 0.56954 0.66113 0.53767 0.0
N676 N 0.53944 0.67323 0.73622 0.0
N677 N 0.56794 0.66256 0.60596 0.0
H678 H 0.87649 0.5239 0.48907 0.0
H679 H 0.88927 0.57565 0.85303 0.0
H680 H 0.90125 0.58884 0.51359 0.0
H681 H 0.86832 0.51181 0.81933 0.0
H682 H 0.89465 0.58161 0.73019 0.0
H683 H 0.87391 0.51988 0.61116 0.0
C684 C 0.88137 0.53737 0.5202 0.0
C685 C 0.88906 0.55675 0.49098 0.0
C686 C 0.88906 0.56636 0.7499 0.0
C687 C 0.88612 0.55222 0.63182 0.0
C688 C 0.88617 0.563 0.81985 0.0
C689 C 0.87864 0.54327 0.84606 0.0
C690 C 0.88421 0.54981 0.70643 0.0
C691 C 0.87419 0.52726 0.80105 0.0
C692 C 0.87994 0.53506 0.59018 0.0
C693 C 0.89522 0.57362 0.53411 0.0
N694 N 0.87705 0.53088 0.73355 0.0
N695 N 0.89357 0.57096 0.60263 0.0
H696 H 0.33748 0.9116 0.83999 0.0
H697 H 0.32125 0.85912 0.47702 0.0
H698 H 0.31946 0.84827 0.80947 0.0
H699 H 0.33182 0.92034 0.50351 0.0
H700 H 0.31829 0.85443 0.59963 0.0
H701 H 0.33291 0.91469 0.71842 0.0
C702 C 0.33206 0.89822 0.80818 0.0
C703 C 0.32874 0.87961 0.83497 0.0
C704 C 0.32112 0.86887 0.57878 0.0
C705 C 0.32406 0.88319 0.69574 0.0
C706 C 0.32288 0.87157 0.50868 0.0
C707 C 0.32702 0.89023 0.48006 0.0
C708 C 0.32374 0.88501 0.62086 0.0
C709 C 0.32872 0.90573 0.52353 0.0
C710 C 0.32964 0.90004 0.7386 0.0
C711 C 0.32232 0.86295 0.79085 0.0
N712 N 0.32729 0.90286 0.5919 0.0
N713 N 0.32034 0.86517 0.72349 0.0
H714 H 0.40824 0.33543 0.49829 0.0
H715 H 0.46727 0.31859 0.80587 0.0
H716 H 0.45831 0.32392 0.47397 0.0
H717 H 0.42699 0.34303 0.83294 0.0
H718 H 0.45965 0.31494 0.68484 0.0
H719 H 0.41058 0.33287 0.62162 0.0
C720 C 0.41961 0.3322 0.51881 0.0
C721 C 0.43325 0.33009 0.47584 0.0
C722 C 0.45228 0.32089 0.7173 0.0
C723 C 0.43592 0.32708 0.61653 0.0
C724 C 0.45661 0.32297 0.78646 0.0
C725 C 0.44766 0.33101 0.82976 0.0
C726 C 0.439 0.32705 0.69082 0.0
C727 C 0.43391 0.33636 0.80183 0.0
C728 C 0.42095 0.33079 0.58916 0.0
C729 C 0.44763 0.32588 0.50518 0.0
N730 N 0.4301 0.33442 0.73392 0.0
N731 N 0.44862 0.32458 0.57363 0.0
H732 H 0.52338 0.84601 0.57652 0.0
H733 H 0.58208 0.92237 0.88344 0.0
H734 H 0.56524 0.91035 0.54786 0.0
H735 H 0.53167 0.86095 0.90778 0.0
H736 H 0.58027 0.91716 0.76029 0.0
H737 H 0.53069 0.85016 0.69774 0.0
C738 C 0.53434 0.86099 0.59567 0.0
C739 C 0.54378 0.87784 0.55191 0.0
C740 C 0.5697 0.90481 0.79272 0.0
C741 C 0.55205 0.88277 0.69106 0.0
C742 C 0.57073 0.90775 0.86297 0.0
C743 C 0.55685 0.89214 0.90588 0.0
C744 C 0.5548 0.88608 0.76538 0.0
C745 C 0.54252 0.8735 0.87662 0.0
C746 C 0.53848 0.86335 0.66493 0.0
C747 C 0.55791 0.89687 0.57943 0.0
N748 N 0.54183 0.87102 0.80826 0.0
N749 N 0.5615 0.89887 0.64748 0.0
H750 H 0.67144 0.5351 0.91806 0.0
H751 H 0.65271 0.56779 0.5518 0.0
H752 H 0.65577 0.58214 0.88747 0.0
H753 H 0.67144 0.5232 0.58626 0.0
H754 H 0.65701 0.57595 0.67299 0.0
H755 H 0.67454 0.53299 0.79567 0.0
C756 C 0.66873 0.54506 0.88557 0.0
C757 C 0.66309 0.55864 0.913 0.0
C758 C 0.66048 0.5646 0.65381 0.0
C759 C 0.66654 0.55625 0.77242 0.0
C760 C 0.65823 0.56009 0.58443 0.0
C761 C 0.66187 0.54489 0.55881 0.0
C762 C 0.66625 0.55371 0.69769 0.0
C763 C 0.66836 0.53495 0.60397 0.0
C764 C 0.67055 0.54388 0.81558 0.0
C765 C 0.66003 0.57136 0.86844 0.0
N766 N 0.67022 0.53945 0.67113 0.0
N767 N 0.66159 0.56971 0.80022 0.0
H768 H 0.1016 0.68071 0.53714 0.0
H769 H 0.12084 0.6486 0.90381 0.0
H770 H 0.12616 0.64093 0.57391 0.0
H771 H 0.08736 0.68054 0.87612 0.0
H772 H 0.12409 0.64744 0.78193 0.0
H773 H 0.09682 0.6821 0.65996 0.0
C774 C 0.10561 0.67198 0.57095 0.0
C775 C 0.11394 0.66038 0.54553 0.0
C776 C 0.11599 0.6547 0.80219 0.0
C777 C 0.10913 0.66239 0.68521 0.0
C778 C 0.11416 0.65542 0.87205 0.0
C779 C 0.10374 0.66463 0.9003 0.0
C780 C 0.10742 0.6633 0.75973 0.0
C781 C 0.09548 0.67325 0.85636 0.0
C782 C 0.10307 0.67294 0.6409 0.0
C783 C 0.11963 0.65 0.59146 0.0
N784 N 0.0975 0.67238 0.78797 0.0
N785 N 0.11712 0.65126 0.65895 0.0
H786 H 0.4631 0.14819 0.5794 0.0
H787 H 0.42361 0.06695 0.88117 0.0
H788 H 0.43137 0.08308 0.5468 0.0
H789 H 0.45315 0.1322 0.91051 0.0
H790 H 0.42337 0.07217 0.75876 0.0
H791 H 0.45649 0.14232 0.70084 0.0
C792 C 0.45445 0.13264 0.59786 0.0
C793 C 0.44764 0.1161 0.55308 0.0
C794 C 0.42977 0.08532 0.79206 0.0
C795 C 0.44033 0.10921 0.69214 0.0
C796 C 0.42995 0.08236 0.86194 0.0
C797 C 0.43864 0.09918 0.90608 0.0
C798 C 0.43839 0.10525 0.7662 0.0
C799 C 0.44648 0.11879 0.87838 0.0
C800 C 0.45069 0.12928 0.66716 0.0
C801 C 0.43655 0.09626 0.57944 0.0
N802 N 0.44629 0.12128 0.81023 0.0
N803 N 0.43342 0.09335 0.64748 0.0
H804 H 0.31309 0.40703 0.89624 0.0
H805 H 0.35045 0.48556 0.58515 0.0
H806 H 0.34493 0.47273 0.91529 0.0
H807 H 0.31529 0.42033 0.55665 0.0
H808 H 0.34984 0.48041 0.70699 0.0
H809 H 0.31458 0.4108 0.77225 0.0
C810 C 0.32035 0.42221 0.87445 0.0
C811 C 0.3289 0.43959 0.91617 0.0
C812 C 0.34233 0.46714 0.67437 0.0
C813 C 0.33075 0.44398 0.77511 0.0
C814 C 0.34269 0.4701 0.60475 0.0
C815 C 0.33307 0.45334 0.56095 0.0
C816 C 0.33206 0.44724 0.7008 0.0
C817 C 0.32324 0.43363 0.58883 0.0
C818 C 0.32122 0.42434 0.8038 0.0
C819 C 0.33812 0.45888 0.88531 0.0
N820 N 0.32291 0.43109 0.65732 0.0
N821 N 0.33881 0.46052 0.81684 0.0
H822 H 0.87355 0.29436 0.89343 0.0
H823 H 0.90684 0.35876 0.55046 0.0
H824 H 0.89989 0.35982 0.89233 0.0
H825 H 0.85155 0.30043 0.56321 0.0
H826 H 0.91174 0.35735 0.67347 0.0
H827 H 0.87239 0.29447 0.76866 0.0
C828 C 0.87926 0.30875 0.86687 0.0
C829 C 0.8867 0.3271 0.90297 0.0
C830 C 0.89871 0.34476 0.64896 0.0
C831 C 0.88583 0.32735 0.76123 0.0
C832 C 0.89601 0.34549 0.57904 0.0
C833 C 0.87884 0.32963 0.54717 0.0
C834 C 0.88434 0.32789 0.68656 0.0
C835 C 0.865 0.31291 0.58629 0.0
C836 C 0.87854 0.30878 0.79599 0.0
C837 C 0.89387 0.34533 0.86628 0.0
N838 N 0.86808 0.31241 0.65407 0.0
N839 N 0.89336 0.34502 0.79731 0.0
H840 H 0.04578 0.40481 0.07582 0.0
H841 H 0.9457 0.35605 0.30643 0.0
H842 H 0.0467 0.4068 0.29497 0.0
H843 H 0.94493 0.3548 0.08722 0.0
H844 H 0.9826 0.37005 0.30369 0.0
H845 H 0.0089 0.38196 0.0795 0.0
C846 C 0.03829 0.40029 0.12473 0.0
C847 C 0.04935 0.40804 0.18512 0.0
C848 C 0.97432 0.3665 0.25621 0.0
C849 C 0.00707 0.38196 0.18969 0.0
C850 C 0.95322 0.35848 0.25775 0.0
C851 C 0.94221 0.35456 0.19696 0.0
C852 C 0.98448 0.37069 0.19347 0.0
C853 C 0.9528 0.35786 0.13541 0.0
C854 C 0.0172 0.38723 0.1268 0.0
C855 C 0.0388 0.40145 0.24703 0.0
N856 N 0.97335 0.36594 0.13525 0.0
N857 N 0.01824 0.38899 0.24767 0.0
H858 H 0.58576 0.94802 0.30884 0.0
H859 H 0.63547 0.04741 0.07385 0.0
H860 H 0.5854 0.94637 0.08967 0.0
H861 H 0.63696 0.04915 0.293 0.0
H862 H 0.62089 0.01039 0.07859 0.0
H863 H 0.60825 0.98504 0.30419 0.0
C864 C 0.59056 0.95537 0.25978 0.0
C865 C 0.58342 0.94405 0.19958 0.0
C866 C 0.62461 0.01891 0.12563 0.0
C867 C 0.60907 0.98643 0.19387 0.0
C868 C 0.63296 0.04007 0.12293 0.0
C869 C 0.6372 0.05142 0.1831 0.0
C870 C 0.62039 0.00903 0.18893 0.0
C871 C 0.63375 0.04106 0.24524 0.0
C872 C 0.6034 0.97653 0.25714 0.0
C873 C 0.59031 0.95443 0.13747 0.0
N874 N 0.62535 0.02045 0.24652 0.0
N875 N 0.60255 0.97503 0.13625 0.0
H876 H 0.63519 0.5864 0.31879 0.0
H877 H 0.58606 0.63789 0.09017 0.0
H878 H 0.63737 0.58809 0.09968 0.0
H879 H 0.5848 0.63717 0.30937 0.0
H880 H 0.60856 0.62339 0.09298 0.0
H881 H 0.6205 0.60875 0.31681 0.0
C882 C 0.6328 0.59163 0.2703 0.0
C883 C 0.63727 0.58509 0.20929 0.0
C884 C 0.60352 0.6266 0.14048 0.0
C885 C 0.62034 0.61058 0.20665 0.0
C886 C 0.59066 0.63489 0.1389 0.0
C887 C 0.58328 0.63852 0.1996 0.0
C888 C 0.60896 0.62182 0.20318 0.0
C889 C 0.58992 0.63447 0.26123 0.0
C890 C 0.62439 0.60439 0.26919 0.0
C891 C 0.63398 0.59252 0.14801 0.0
N892 N 0.6022 0.62615 0.2614 0.0
N893 N 0.62552 0.60468 0.14826 0.0
H894 H 0.0468 0.64131 0.3067 0.0
H895 H 0.94513 0.59058 0.08433 0.0
H896 H 0.04609 0.64052 0.08749 0.0
H897 H 0.94589 0.59023 0.30353 0.0
H898 H 0.982 0.61361 0.08457 0.0
H899 H 0.00993 0.62745 0.30649 0.0
C900 C 0.03896 0.63845 0.25851 0.0
C901 C 0.04955 0.64174 0.19705 0.0
C902 C 0.97406 0.60867 0.13262 0.0
C903 C 0.00728 0.62577 0.19646 0.0
C904 C 0.95298 0.59551 0.13252 0.0
C905 C 0.9424 0.58813 0.19397 0.0
C906 C 0.98467 0.61444 0.19458 0.0
C907 C 0.95341 0.59526 0.25485 0.0
C908 C 0.01788 0.63052 0.25842 0.0
C909 C 0.03856 0.63796 0.13618 0.0
N910 N 0.97395 0.60781 0.25357 0.0
N911 N 0.01801 0.62994 0.13745 0.0
H912 H 0.35454 0.94576 0.30267 0.0
H913 H 0.40236 0.05007 0.09454 0.0
H914 H 0.35594 0.94909 0.08369 0.0
H915 H 0.40797 0.04691 0.31175 0.0
H916 H 0.38009 0.01318 0.09151 0.0
H917 H 0.36876 0.98258 0.30791 0.0
C918 C 0.35762 0.95417 0.25556 0.0
C919 C 0.35427 0.94428 0.19253 0.0
C920 C 0.38604 0.02055 0.13992 0.0
C921 C 0.37069 0.9866 0.19846 0.0
C922 C 0.39879 0.04166 0.14179 0.0
C923 C 0.40739 0.05161 0.20341 0.0
C924 C 0.38182 0.00923 0.20006 0.0
C925 C 0.40188 0.03989 0.26301 0.0
C926 C 0.36579 0.97524 0.25871 0.0
C927 C 0.35845 0.95605 0.13339 0.0
N928 N 0.38962 0.01927 0.25974 0.0
N929 N 0.36663 0.97663 0.13782 0.0
H930 H 0.35374 0.4055 0.31268 0.0
H931 H 0.40548 0.35882 0.07364 0.0
H932 H 0.35465 0.4091 0.09378 0.0
H933 H 0.40413 0.35509 0.29252 0.0
H934 H 0.38288 0.37321 0.0791 0.0
H935 H 0.36814 0.38298 0.30548 0.0
C936 C 0.35675 0.4014 0.2631 0.0
C937 C 0.35327 0.40949 0.20383 0.0
C938 C 0.38737 0.36903 0.12588 0.0
C939 C 0.36988 0.38379 0.1952 0.0
C940 C 0.40027 0.3608 0.12278 0.0
C941 C 0.40698 0.356 0.18274 0.0
C942 C 0.38121 0.37256 0.18937 0.0
C943 C 0.39958 0.35876 0.24494 0.0
C944 C 0.365 0.38854 0.25899 0.0
C945 C 0.35732 0.40347 0.14094 0.0
N946 N 0.38729 0.36704 0.24663 0.0
N947 N 0.36561 0.39118 0.13833 0.0
loop_
_geom_bond_atom_site_label_1
_geom_bond_atom_site_label_2
_geom_bond_distance
_geom_bond_site_symmetry_2
_ccdc_geom_bond_type
Co0 O3 1.970 . S
Co0 N17 1.989 . S
Co0 O25 1.967 . S
Co0 O32 1.920 . S
Co1 O4 1.966 . S
Co1 N10 2.009 1_554 S
Co1 N18 1.993 . S
Co1 O26 1.941 . S
C2 O3 1.258 . S
C2 O4 1.263 . S
O3 Co0 1.970 . S
O3 C2 1.258 . S
O4 Co1 1.966 . S
O4 C2 1.263 . S
C5 O6 1.235 . S
C5 O32 1.289 . S
O6 C5 1.235 . S
C7 C9 1.400 . S
C7 N10 1.359 . S
C7 C12 1.501 . S
C8 C9 1.387 . S
C8 N11 1.341 . S
C9 C7 1.400 . S
C9 C8 1.387 . S
N10 Co1 2.009 1_556 S
N10 C7 1.359 . S
N10 N11 1.372 . S
N11 C8 1.341 . S
N11 N10 1.372 . S
N11 H31 0.862 . S
C12 C7 1.501 . S
C12 H13 0.961 1_556 S
C12 H14 0.961 . S
C12 H15 0.960 . S
H13 C12 0.961 1_554 S
H14 C12 0.961 . S
H15 C12 0.960 . S
C16 N17 1.342 . S
C16 C20 1.401 . S
C16 C21 1.499 . S
N17 Co0 1.989 . S
N17 C16 1.342 . S
N17 N18 1.388 . S
N18 Co1 1.993 . S
N18 N17 1.388 . S
N18 C19 1.346 . S
C19 N18 1.346 . S
C19 C20 1.396 . S
C19 C29 1.510 . S
C20 C16 1.401 . S
C20 C19 1.396 . S
C21 C16 1.499 . S
C21 H22 0.959 . S
C21 H23 0.960 . S
C21 H24 0.961 . S
H22 C21 0.959 . S
H23 C21 0.960 . S
H24 C21 0.961 . S
O25 Co0 1.967 . S
O25 C33 1.258 . S
O26 Co1 1.941 . S
O26 C33 1.266 . S
H27 C29 0.959 . S
H28 C29 0.961 . S
C29 C19 1.510 . S
C29 H27 0.959 . S
C29 H28 0.961 . S
C29 H30 0.960 . S
H30 C29 0.960 . S
H31 N11 0.862 . S
O32 Co0 1.920 . S
O32 C5 1.289 . S
C33 O25 1.258 . S
C33 O26 1.266 . S
Co34 O37 1.970 . S
Co34 N51 1.989 . S
Co34 O59 1.967 . S
Co34 O66 1.920 . S
Co35 O38 1.966 . S
Co35 N44 2.008 1_554 S
Co35 N52 1.993 . S
Co35 O60 1.941 . S
C36 O37 1.258 . S
C36 O38 1.263 . S
O37 Co34 1.970 . S
O37 C36 1.258 . S
O38 Co35 1.966 . S
O38 C36 1.263 . S
C39 O40 1.235 . S
C39 O66 1.289 . S
O40 C39 1.235 . S
C41 C43 1.400 . S
C41 N44 1.360 . S
C41 C46 1.501 . S
C42 C43 1.387 . S
C42 N45 1.341 . S
C43 C41 1.400 . S
C43 C42 1.387 . S
N44 Co35 2.008 1_556 S
N44 C41 1.360 . S
N44 N45 1.373 . S
N45 C42 1.341 . S
N45 N44 1.373 . S
N45 H65 0.862 . S
C46 C41 1.501 . S
C46 H47 0.961 1_556 S
C46 H48 0.961 . S
C46 H49 0.960 . S
H47 C46 0.961 1_554 S
H48 C46 0.961 . S
H49 C46 0.960 . S
C50 N51 1.342 . S
C50 C54 1.401 . S
C50 C55 1.499 . S
N51 Co34 1.989 . S
N51 C50 1.342 . S
N51 N52 1.388 . S
N52 Co35 1.993 . S
N52 N51 1.388 . S
N52 C53 1.346 . S
C53 N52 1.346 . S
C53 C54 1.396 . S
C53 C63 1.510 . S
C54 C50 1.401 . S
C54 C53 1.396 . S
C55 C50 1.499 . S
C55 H56 0.959 . S
C55 H57 0.960 . S
C55 H58 0.961 . S
H56 C55 0.959 . S
H57 C55 0.960 . S
H58 C55 0.961 . S
O59 Co34 1.967 . S
O59 C67 1.258 . S
O60 Co35 1.941 . S
O60 C67 1.266 . S
H61 C63 0.959 . S
H62 C63 0.961 . S
C63 C53 1.510 . S
C63 H61 0.959 . S
C63 H62 0.961 . S
C63 H64 0.960 . S
H64 C63 0.960 . S
H65 N45 0.862 . S
O66 Co34 1.920 . S
O66 C39 1.289 . S
C67 O59 1.258 . S
C67 O60 1.266 . S
Co68 O71 1.970 . S
Co68 N85 1.989 . S
Co68 O93 1.967 . S
Co68 O100 1.920 . S
Co69 O72 1.966 . S
Co69 N78 2.009 1_554 S
Co69 N86 1.993 . S
Co69 O94 1.941 . S
C70 O71 1.258 . S
C70 O72 1.263 . S
O71 Co68 1.970 . S
O71 C70 1.258 . S
O72 Co69 1.966 . S
O72 C70 1.263 . S
C73 O74 1.235 . S
C73 O100 1.289 . S
O74 C73 1.235 . S
C75 C77 1.400 . S
C75 N78 1.359 . S
C75 C80 1.501 . S
C76 C77 1.387 . S
C76 N79 1.341 . S
C77 C75 1.400 . S
C77 C76 1.387 . S
N78 Co69 2.009 1_556 S
N78 C75 1.359 . S
N78 N79 1.372 . S
N79 C76 1.341 . S
N79 N78 1.372 . S
N79 H99 0.862 . S
C80 C75 1.501 . S
C80 H81 0.961 1_556 S
C80 H82 0.961 . S
C80 H83 0.960 . S
H81 C80 0.961 1_554 S
H82 C80 0.961 . S
H83 C80 0.960 . S
C84 N85 1.342 . S
C84 C88 1.401 . S
C84 C89 1.499 . S
N85 Co68 1.989 . S
N85 C84 1.342 . S
N85 N86 1.388 . S
N86 Co69 1.993 . S
N86 N85 1.388 . S
N86 C87 1.346 . S
C87 N86 1.346 . S
C87 C88 1.396 . S
C87 C97 1.510 . S
C88 C84 1.401 . S
C88 C87 1.396 . S
C89 C84 1.499 . S
C89 H90 0.959 . S
C89 H91 0.960 . S
C89 H92 0.961 . S
H90 C89 0.959 . S
H91 C89 0.960 . S
H92 C89 0.961 . S
O93 Co68 1.967 . S
O93 C101 1.258 . S
O94 Co69 1.941 . S
O94 C101 1.266 . S
H95 C97 0.959 . S
H96 C97 0.961 . S
C97 C87 1.510 . S
C97 H95 0.959 . S
C97 H96 0.961 . S
C97 H98 0.960 . S
H98 C97 0.960 . S
H99 N79 0.862 . S
O100 Co68 1.920 . S
O100 C73 1.289 . S
C101 O93 1.258 . S
C101 O94 1.266 . S
Co102 O105 1.970 . S
Co102 N119 1.989 . S
Co102 O127 1.967 . S
Co102 O134 1.920 . S
Co103 O106 1.966 . S
Co103 N112 2.009 1_554 S
Co103 N120 1.993 . S
Co103 O128 1.941 . S
C104 O105 1.258 . S
C104 O106 1.263 . S
O105 Co102 1.970 . S
O105 C104 1.258 . S
O106 Co103 1.966 . S
O106 C104 1.263 . S
C107 O108 1.235 . S
C107 O134 1.289 . S
O108 C107 1.235 . S
C109 C111 1.400 . S
C109 N112 1.359 . S
C109 C114 1.501 . S
C110 C111 1.387 . S
C110 N113 1.341 . S
C111 C109 1.400 . S
C111 C110 1.387 . S
N112 Co103 2.009 1_556 S
N112 C109 1.359 . S
N112 N113 1.372 . S
N113 C110 1.341 . S
N113 N112 1.372 . S
N113 H133 0.862 . S
C114 C109 1.501 . S
C114 H115 0.961 1_556 S
C114 H116 0.961 . S
C114 H117 0.960 . S
H115 C114 0.961 1_554 S
H116 C114 0.961 . S
H117 C114 0.960 . S
C118 N119 1.342 . S
C118 C122 1.401 . S
C118 C123 1.499 . S
N119 Co102 1.989 . S
N119 C118 1.342 . S
N119 N120 1.388 . S
N120 Co103 1.993 . S
N120 N119 1.388 . S
N120 C121 1.346 . S
C121 N120 1.346 . S
C121 C122 1.396 . S
C121 C131 1.510 . S
C122 C118 1.401 . S
C122 C121 1.396 . S
C123 C118 1.499 . S
C123 H124 0.959 . S
C123 H125 0.960 . S
C123 H126 0.961 . S
H124 C123 0.959 . S
H125 C123 0.960 . S
H126 C123 0.961 . S
O127 Co102 1.967 . S
O127 C135 1.258 . S
O128 Co103 1.941 . S
O128 C135 1.266 . S
H129 C131 0.959 . S
H130 C131 0.961 . S
C131 C121 1.510 . S
C131 H129 0.959 . S
C131 H130 0.961 . S
C131 H132 0.960 . S
H132 C131 0.960 . S
H133 N113 0.862 . S
O134 Co102 1.920 . S
O134 C107 1.289 . S
C135 O127 1.258 . S
C135 O128 1.266 . S
Co136 O139 1.970 . S
Co136 N153 1.989 . S
Co136 O161 1.967 . S
Co136 O168 1.920 . S
Co137 O140 1.966 . S
Co137 N146 2.008 1_554 S
Co137 N154 1.993 . S
Co137 O162 1.941 . S
C138 O139 1.258 . S
C138 O140 1.263 . S
O139 Co136 1.970 . S
O139 C138 1.258 . S
O140 Co137 1.966 . S
O140 C138 1.263 . S
C141 O142 1.235 . S
C141 O168 1.289 . S
O142 C141 1.235 . S
C143 C145 1.400 . S
C143 N146 1.360 . S
C143 C148 1.501 . S
C144 C145 1.387 . S
C144 N147 1.341 . S
C145 C143 1.400 . S
C145 C144 1.387 . S
N146 Co137 2.008 1_556 S
N146 C143 1.360 . S
N146 N147 1.373 . S
N147 C144 1.341 . S
N147 N146 1.373 . S
N147 H167 0.862 . S
C148 C143 1.501 . S
C148 H149 0.961 1_556 S
C148 H150 0.961 . S
C148 H151 0.960 . S
H149 C148 0.961 1_554 S
H150 C148 0.961 . S
H151 C148 0.960 . S
C152 N153 1.342 . S
C152 C156 1.401 . S
C152 C157 1.499 . S
N153 Co136 1.989 . S
N153 C152 1.342 . S
N153 N154 1.388 . S
N154 Co137 1.993 . S
N154 N153 1.388 . S
N154 C155 1.346 . S
C155 N154 1.346 . S
C155 C156 1.396 . S
C155 C165 1.510 . S
C156 C152 1.401 . S
C156 C155 1.396 . S
C157 C152 1.499 . S
C157 H158 0.959 . S
C157 H159 0.960 . S
C157 H160 0.961 . S
H158 C157 0.959 . S
H159 C157 0.960 . S
H160 C157 0.961 . S
O161 Co136 1.967 . S
O161 C169 1.258 . S
O162 Co137 1.941 . S
O162 C169 1.266 . S
H163 C165 0.959 . S
H164 C165 0.961 . S
C165 C155 1.510 . S
C165 H163 0.959 . S
C165 H164 0.961 . S
C165 H166 0.960 . S
H166 C165 0.960 . S
H167 N147 0.862 . S
O168 Co136 1.920 . S
O168 C141 1.289 . S
C169 O161 1.258 . S
C169 O162 1.266 . S
Co170 O173 1.970 . S
Co170 N187 1.989 . S
Co170 O195 1.967 . S
Co170 O202 1.920 . S
Co171 O174 1.966 . S
Co171 N180 2.009 1_554 S
Co171 N188 1.993 . S
Co171 O196 1.941 . S
C172 O173 1.258 . S
C172 O174 1.263 . S
O173 Co170 1.970 . S
O173 C172 1.258 . S
O174 Co171 1.966 . S
O174 C172 1.263 . S
C175 O176 1.235 . S
C175 O202 1.289 . S
O176 C175 1.235 . S
C177 C179 1.400 . S
C177 N180 1.359 . S
C177 C182 1.501 . S
C178 C179 1.387 . S
C178 N181 1.341 . S
C179 C177 1.400 . S
C179 C178 1.387 . S
N180 Co171 2.009 1_556 S
N180 C177 1.359 . S
N180 N181 1.372 . S
N181 C178 1.341 . S
N181 N180 1.372 . S
N181 H201 0.862 . S
C182 C177 1.501 . S
C182 H183 0.961 1_556 S
C182 H184 0.961 . S
C182 H185 0.960 . S
H183 C182 0.961 1_554 S
H184 C182 0.961 . S
H185 C182 0.960 . S
C186 N187 1.342 . S
C186 C190 1.401 . S
C186 C191 1.499 . S
N187 Co170 1.989 . S
N187 C186 1.342 . S
N187 N188 1.388 . S
N188 Co171 1.993 . S
N188 N187 1.388 . S
N188 C189 1.346 . S
C189 N188 1.346 . S
C189 C190 1.396 . S
C189 C199 1.510 . S
C190 C186 1.401 . S
C190 C189 1.396 . S
C191 C186 1.499 . S
C191 H192 0.959 . S
C191 H193 0.960 . S
C191 H194 0.961 . S
H192 C191 0.959 . S
H193 C191 0.960 . S
H194 C191 0.961 . S
O195 Co170 1.967 . S
O195 C203 1.258 . S
O196 Co171 1.941 . S
O196 C203 1.266 . S
H197 C199 0.959 . S
H198 C199 0.961 . S
C199 C189 1.510 . S
C199 H197 0.959 . S
C199 H198 0.961 . S
C199 H200 0.960 . S
H200 C199 0.960 . S
H201 N181 0.862 . S
O202 Co170 1.920 . S
O202 C175 1.289 . S
C203 O195 1.258 . S
C203 O196 1.266 . S
Co204 O207 1.970 . S
Co204 N221 1.989 . S
Co204 O229 1.967 . S
Co204 O236 1.920 . S
Co205 O208 1.966 . S
Co205 N214 2.022 . S
Co205 N222 1.993 . S
Co205 O230 1.941 . S
C206 O207 1.258 . S
C206 O208 1.263 . S
O207 Co204 1.970 . S
O207 C206 1.258 . S
O208 Co205 1.966 . S
O208 C206 1.263 . S
C209 O210 1.235 1_556 S
C209 O236 1.289 1_556 S
O210 C209 1.235 1_554 S
C211 C213 1.400 . S
C211 N214 1.351 . S
C211 C216 1.501 . S
C212 C213 1.387 . S
C212 N215 1.341 . S
C213 C211 1.400 . S
C213 C212 1.387 . S
N214 Co205 2.022 . S
N214 C211 1.351 . S
N214 N215 1.365 . S
N215 C212 1.341 . S
N215 N214 1.365 . S
N215 H235 0.862 . S
C216 C211 1.501 . S
C216 H217 0.961 . S
C216 H218 0.961 . S
C216 H219 0.960 . S
H217 C216 0.961 . S
H218 C216 0.961 . S
H219 C216 0.960 . S
C220 N221 1.342 . S
C220 C224 1.401 . S
C220 C225 1.499 . S
N221 Co204 1.989 . S
N221 C220 1.342 . S
N221 N222 1.388 . S
N222 Co205 1.993 . S
N222 N221 1.388 . S
N222 C223 1.346 . S
C223 N222 1.346 . S
C223 C224 1.396 . S
C223 C233 1.510 . S
C224 C220 1.401 . S
C224 C223 1.396 . S
C225 C220 1.499 . S
C225 H226 0.959 . S
C225 H227 0.960 . S
C225 H228 0.961 . S
H226 C225 0.959 . S
H227 C225 0.960 . S
H228 C225 0.961 . S
O229 Co204 1.967 . S
O229 C237 1.258 . S
O230 Co205 1.941 . S
O230 C237 1.266 . S
H231 C233 0.959 . S
H232 C233 0.961 . S
C233 C223 1.510 . S
C233 H231 0.959 . S
C233 H232 0.961 . S
C233 H234 0.960 . S
H234 C233 0.960 . S
H235 N215 0.862 . S
O236 Co204 1.920 . S
O236 C209 1.289 1_554 S
C237 O229 1.258 . S
C237 O230 1.266 . S
Co238 O241 1.970 . S
Co238 N255 1.989 . S
Co238 O263 1.967 . S
Co238 O270 1.920 . S
Co239 O242 1.966 . S
Co239 N248 2.022 . S
Co239 N256 1.993 . S
Co239 O264 1.941 . S
C240 O241 1.258 . S
C240 O242 1.263 . S
O241 Co238 1.970 . S
O241 C240 1.258 . S
O242 Co239 1.966 . S
O242 C240 1.263 . S
C243 O244 1.235 1_556 S
C243 O270 1.289 1_556 S
O244 C243 1.235 1_554 S
C245 C247 1.400 . S
C245 N248 1.351 . S
C245 C250 1.501 . S
C246 C247 1.387 . S
C246 N249 1.341 . S
C247 C245 1.400 . S
C247 C246 1.387 . S
N248 Co239 2.022 . S
N248 C245 1.351 . S
N248 N249 1.365 . S
N249 C246 1.341 . S
N249 N248 1.365 . S
N249 H269 0.862 . S
C250 C245 1.501 . S
C250 H251 0.961 . S
C250 H252 0.961 . S
C250 H253 0.960 . S
H251 C250 0.961 . S
H252 C250 0.961 . S
H253 C250 0.960 . S
C254 N255 1.342 . S
C254 C258 1.401 . S
C254 C259 1.499 . S
N255 Co238 1.989 . S
N255 C254 1.342 . S
N255 N256 1.388 . S
N256 Co239 1.993 . S
N256 N255 1.388 . S
N256 C257 1.346 . S
C257 N256 1.346 . S
C257 C258 1.396 . S
C257 C267 1.510 . S
C258 C254 1.401 . S
C258 C257 1.396 . S
C259 C254 1.499 . S
C259 H260 0.959 . S
C259 H261 0.960 . S
C259 H262 0.961 . S
H260 C259 0.959 . S
H261 C259 0.960 . S
H262 C259 0.961 . S
O263 Co238 1.967 . S
O263 C271 1.258 . S
O264 Co239 1.941 . S
O264 C271 1.266 . S
H265 C267 0.959 . S
H266 C267 0.961 . S
C267 C257 1.510 . S
C267 H265 0.959 . S
C267 H266 0.961 . S
C267 H268 0.960 . S
H268 C267 0.960 . S
H269 N249 0.862 . S
O270 Co238 1.920 . S
O270 C243 1.289 1_554 S
C271 O263 1.258 . S
C271 O264 1.266 . S
Co272 O275 1.970 . S
Co272 N289 1.989 . S
Co272 O297 1.967 . S
Co272 O304 1.920 . S
Co273 O276 1.966 . S
Co273 N282 2.022 . S
Co273 N290 1.993 . S
Co273 O298 1.941 . S
C274 O275 1.258 . S
C274 O276 1.263 . S
O275 Co272 1.970 . S
O275 C274 1.258 . S
O276 Co273 1.966 . S
O276 C274 1.263 . S
C277 O278 1.235 1_556 S
C277 O304 1.289 1_556 S
O278 C277 1.235 1_554 S
C279 C281 1.400 . S
C279 N282 1.351 . S
C279 C284 1.501 . S
C280 C281 1.387 . S
C280 N283 1.341 . S
C281 C279 1.400 . S
C281 C280 1.387 . S
N282 Co273 2.022 . S
N282 C279 1.351 . S
N282 N283 1.365 . S
N283 C280 1.341 . S
N283 N282 1.365 . S
N283 H303 0.862 . S
C284 C279 1.501 . S
C284 H285 0.961 . S
C284 H286 0.961 . S
C284 H287 0.960 . S
H285 C284 0.961 . S
H286 C284 0.961 . S
H287 C284 0.960 . S
C288 N289 1.342 . S
C288 C292 1.401 . S
C288 C293 1.499 . S
N289 Co272 1.989 . S
N289 C288 1.342 . S
N289 N290 1.388 . S
N290 Co273 1.993 . S
N290 N289 1.388 . S
N290 C291 1.346 . S
C291 N290 1.346 . S
C291 C292 1.396 . S
C291 C301 1.510 . S
C292 C288 1.401 . S
C292 C291 1.396 . S
C293 C288 1.499 . S
C293 H294 0.959 . S
C293 H295 0.960 . S
C293 H296 0.961 . S
H294 C293 0.959 . S
H295 C293 0.960 . S
H296 C293 0.961 . S
O297 Co272 1.967 . S
O297 C305 1.258 . S
O298 Co273 1.941 . S
O298 C305 1.266 . S
H299 C301 0.959 . S
H300 C301 0.961 . S
C301 C291 1.510 . S
C301 H299 0.959 . S
C301 H300 0.961 . S
C301 H302 0.960 . S
H302 C301 0.960 . S
H303 N283 0.862 . S
O304 Co272 1.920 . S
O304 C277 1.289 1_554 S
C305 O297 1.258 . S
C305 O298 1.266 . S
Co306 O309 1.970 . S
Co306 N323 1.989 . S
Co306 O331 1.967 . S
Co306 O338 1.920 . S
Co307 O310 1.966 . S
Co307 N316 2.022 . S
Co307 N324 1.993 . S
Co307 O332 1.941 . S
C308 O309 1.258 . S
C308 O310 1.263 . S
O309 Co306 1.970 . S
O309 C308 1.258 . S
O310 Co307 1.966 . S
O310 C308 1.263 . S
C311 O312 1.235 1_556 S
C311 O338 1.289 1_556 S
O312 C311 1.235 1_554 S
C313 C315 1.400 . S
C313 N316 1.351 . S
C313 C318 1.501 . S
C314 C315 1.387 . S
C314 N317 1.341 . S
C315 C313 1.400 . S
C315 C314 1.387 . S
N316 Co307 2.022 . S
N316 C313 1.351 . S
N316 N317 1.365 . S
N317 C314 1.341 . S
N317 N316 1.365 . S
N317 H337 0.862 . S
C318 C313 1.501 . S
C318 H319 0.961 . S
C318 H320 0.961 . S
C318 H321 0.960 . S
H319 C318 0.961 . S
H320 C318 0.961 . S
H321 C318 0.960 . S
C322 N323 1.342 . S
C322 C326 1.401 . S
C322 C327 1.499 . S
N323 Co306 1.989 . S
N323 C322 1.342 . S
N323 N324 1.388 . S
N324 Co307 1.993 . S
N324 N323 1.388 . S
N324 C325 1.346 . S
C325 N324 1.346 . S
C325 C326 1.396 . S
C325 C335 1.510 . S
C326 C322 1.401 . S
C326 C325 1.396 . S
C327 C322 1.499 . S
C327 H328 0.959 . S
C327 H329 0.960 . S
C327 H330 0.961 . S
H328 C327 0.959 . S
H329 C327 0.960 . S
H330 C327 0.961 . S
O331 Co306 1.967 . S
O331 C339 1.258 . S
O332 Co307 1.941 . S
O332 C339 1.266 . S
H333 C335 0.959 . S
H334 C335 0.961 . S
C335 C325 1.510 . S
C335 H333 0.959 . S
C335 H334 0.961 . S
C335 H336 0.960 . S
H336 C335 0.960 . S
H337 N317 0.862 . S
O338 Co306 1.920 . S
O338 C311 1.289 1_554 S
C339 O331 1.258 . S
C339 O332 1.266 . S
Co340 O343 1.970 . S
Co340 N357 1.989 . S
Co340 O365 1.967 . S
Co340 O372 1.920 . S
Co341 O344 1.966 . S
Co341 N350 2.022 . S
Co341 N358 1.993 . S
Co341 O366 1.941 . S
C342 O343 1.258 . S
C342 O344 1.263 . S
O343 Co340 1.970 . S
O343 C342 1.258 . S
O344 Co341 1.966 . S
O344 C342 1.263 . S
C345 O346 1.235 1_556 S
C345 O372 1.289 1_556 S
O346 C345 1.235 1_554 S
C347 C349 1.400 . S
C347 N350 1.351 . S
C347 C352 1.501 . S
C348 C349 1.387 . S
C348 N351 1.341 . S
C349 C347 1.400 . S
C349 C348 1.387 . S
N350 Co341 2.022 . S
N350 C347 1.351 . S
N350 N351 1.365 . S
N351 C348 1.341 . S
N351 N350 1.365 . S
N351 H371 0.862 . S
C352 C347 1.501 . S
C352 H353 0.961 . S
C352 H354 0.961 . S
C352 H355 0.960 . S
H353 C352 0.961 . S
H354 C352 0.961 . S
H355 C352 0.960 . S
C356 N357 1.342 . S
C356 C360 1.401 . S
C356 C361 1.499 . S
N357 Co340 1.989 . S
N357 C356 1.342 . S
N357 N358 1.388 . S
N358 Co341 1.993 . S
N358 N357 1.388 . S
N358 C359 1.346 . S
C359 N358 1.346 . S
C359 C360 1.396 . S
C359 C369 1.510 . S
C360 C356 1.401 . S
C360 C359 1.396 . S
C361 C356 1.499 . S
C361 H362 0.959 . S
C361 H363 0.960 . S
C361 H364 0.961 . S
H362 C361 0.959 . S
H363 C361 0.960 . S
H364 C361 0.961 . S
O365 Co340 1.967 . S
O365 C373 1.258 . S
O366 Co341 1.941 . S
O366 C373 1.266 . S
H367 C369 0.959 . S
H368 C369 0.961 . S
C369 C359 1.510 . S
C369 H367 0.959 . S
C369 H368 0.961 . S
C369 H370 0.960 . S
H370 C369 0.960 . S
H371 N351 0.862 . S
O372 Co340 1.920 . S
O372 C345 1.289 1_554 S
C373 O365 1.258 . S
C373 O366 1.266 . S
Co374 O377 1.970 . S
Co374 N391 1.989 . S
Co374 O399 1.967 . S
Co374 O406 1.920 . S
Co375 O378 1.966 . S
Co375 N384 2.022 . S
Co375 N392 1.993 . S
Co375 O400 1.941 . S
C376 O377 1.258 . S
C376 O378 1.263 . S
O377 Co374 1.970 . S
O377 C376 1.258 . S
O378 Co375 1.966 . S
O378 C376 1.263 . S
C379 O380 1.235 1_556 S
C379 O406 1.289 1_556 S
O380 C379 1.235 1_554 S
C381 C383 1.400 . S
C381 N384 1.351 . S
C381 C386 1.501 . S
C382 C383 1.387 . S
C382 N385 1.341 . S
C383 C381 1.400 . S
C383 C382 1.387 . S
N384 Co375 2.022 . S
N384 C381 1.351 . S
N384 N385 1.365 . S
N385 C382 1.341 . S
N385 N384 1.365 . S
N385 H405 0.862 . S
C386 C381 1.501 . S
C386 H387 0.961 . S
C386 H388 0.961 . S
C386 H389 0.960 . S
H387 C386 0.961 . S
H388 C386 0.961 . S
H389 C386 0.960 . S
C390 N391 1.342 . S
C390 C394 1.401 . S
C390 C395 1.499 . S
N391 Co374 1.989 . S
N391 C390 1.342 . S
N391 N392 1.388 . S
N392 Co375 1.993 . S
N392 N391 1.388 . S
N392 C393 1.346 . S
C393 N392 1.346 . S
C393 C394 1.396 . S
C393 C403 1.510 . S
C394 C390 1.401 . S
C394 C393 1.396 . S
C395 C390 1.499 . S
C395 H396 0.959 . S
C395 H397 0.960 . S
C395 H398 0.961 . S
H396 C395 0.959 . S
H397 C395 0.960 . S
H398 C395 0.961 . S
O399 Co374 1.967 . S
O399 C407 1.258 . S
O400 Co375 1.941 . S
O400 C407 1.266 . S
H401 C403 0.959 . S
H402 C403 0.961 . S
C403 C393 1.510 . S
C403 H401 0.959 . S
C403 H402 0.961 . S
C403 H404 0.960 . S
H404 C403 0.960 . S
H405 N385 0.862 . S
O406 Co374 1.920 . S
O406 C379 1.289 1_554 S
C407 O399 1.258 . S
C407 O400 1.266 . S
H408 C414 0.930 . S
H409 C418 0.930 . S
H410 C423 0.929 . S
H411 C421 0.929 . S
H412 C416 0.929 . S
H413 C422 0.929 . S
C414 H408 0.930 . S
C414 C415 1.367 . S
C414 C422 1.378 . S
C415 C414 1.367 . S
C415 C423 1.433 . S
C416 H412 0.929 . S
C416 C418 1.378 . S
C416 C420 1.350 . S
C417 C420 1.463 . S
C417 C422 1.350 . S
C417 N425 1.427 . S
C418 H409 0.930 . S
C418 C416 1.378 . S
C418 C419 1.367 . S
C419 C418 1.367 . S
C419 C421 1.433 . S
C420 C416 1.350 . S
C420 C417 1.463 . S
C420 N424 1.427 . S
C421 H411 0.929 . S
C421 C419 1.433 . S
C421 N424 1.384 . S
C422 H413 0.929 . S
C422 C414 1.378 . S
C422 C417 1.350 . S
C423 H410 0.929 . S
C423 C415 1.433 . S
C423 N425 1.384 . S
N424 C420 1.427 . S
N424 C421 1.384 . S
N425 C417 1.427 . S
N425 C423 1.384 . S
H426 C432 0.930 . S
H427 C436 0.930 . S
H428 C441 0.929 . S
H429 C439 0.929 . S
H430 C434 0.929 . S
H431 C440 0.929 . S
C432 H426 0.930 . S
C432 C433 1.367 . S
C432 C440 1.378 . S
C433 C432 1.367 . S
C433 C441 1.433 . S
C434 H430 0.929 . S
C434 C436 1.378 . S
C434 C438 1.350 . S
C435 C438 1.463 . S
C435 C440 1.350 . S
C435 N443 1.427 . S
C436 H427 0.930 . S
C436 C434 1.378 . S
C436 C437 1.367 . S
C437 C436 1.367 . S
C437 C439 1.433 . S
C438 C434 1.350 . S
C438 C435 1.463 . S
C438 N442 1.427 . S
C439 H429 0.929 . S
C439 C437 1.433 . S
C439 N442 1.384 . S
C440 H431 0.929 . S
C440 C432 1.378 . S
C440 C435 1.350 . S
C441 H428 0.929 . S
C441 C433 1.433 . S
C441 N443 1.384 . S
N442 C438 1.427 . S
N442 C439 1.384 . S
N443 C435 1.427 . S
N443 C441 1.384 . S
H444 C450 0.930 . S
H445 C454 0.930 . S
H446 C459 0.929 . S
H447 C457 0.929 . S
H448 C452 0.929 . S
H449 C458 0.929 . S
C450 H444 0.930 . S
C450 C451 1.367 . S
C450 C458 1.378 . S
C451 C450 1.367 . S
C451 C459 1.433 . S
C452 H448 0.929 . S
C452 C454 1.378 . S
C452 C456 1.350 . S
C453 C456 1.463 . S
C453 C458 1.350 . S
C453 N461 1.427 . S
C454 H445 0.930 . S
C454 C452 1.378 . S
C454 C455 1.367 . S
C455 C454 1.367 . S
C455 C457 1.433 . S
C456 C452 1.350 . S
C456 C453 1.463 . S
C456 N460 1.427 . S
C457 H447 0.929 . S
C457 C455 1.433 . S
C457 N460 1.384 . S
C458 H449 0.929 . S
C458 C450 1.378 . S
C458 C453 1.350 . S
C459 H446 0.929 . S
C459 C451 1.433 . S
C459 N461 1.384 . S
N460 C456 1.427 . S
N460 C457 1.384 . S
N461 C453 1.427 . S
N461 C459 1.384 . S
H462 C468 0.930 . S
H463 C472 0.930 . S
H464 C477 0.929 . S
H465 C475 0.929 . S
H466 C470 0.929 . S
H467 C476 0.929 . S
C468 H462 0.930 . S
C468 C469 1.367 . S
C468 C476 1.378 . S
C469 C468 1.367 . S
C469 C477 1.433 . S
C470 H466 0.929 . S
C470 C472 1.378 . S
C470 C474 1.350 . S
C471 C474 1.463 . S
C471 C476 1.350 . S
C471 N479 1.427 . S
C472 H463 0.930 . S
C472 C470 1.378 . S
C472 C473 1.367 . S
C473 C472 1.367 . S
C473 C475 1.433 . S
C474 C470 1.350 . S
C474 C471 1.463 . S
C474 N478 1.427 . S
C475 H465 0.929 . S
C475 C473 1.433 . S
C475 N478 1.384 . S
C476 H467 0.929 . S
C476 C468 1.378 . S
C476 C471 1.350 . S
C477 H464 0.929 . S
C477 C469 1.433 . S
C477 N479 1.384 . S
N478 C474 1.427 . S
N478 C475 1.384 . S
N479 C471 1.427 . S
N479 C477 1.384 . S
H480 C486 0.930 . S
H481 C490 0.930 . S
H482 C495 0.929 . S
H483 C493 0.929 . S
H484 C488 0.929 . S
H485 C494 0.929 . S
C486 H480 0.930 . S
C486 C487 1.367 . S
C486 C494 1.378 . S
C487 C486 1.367 . S
C487 C495 1.433 . S
C488 H484 0.929 . S
C488 C490 1.378 . S
C488 C492 1.350 . S
C489 C492 1.463 . S
C489 C494 1.350 . S
C489 N497 1.427 . S
C490 H481 0.930 . S
C490 C488 1.378 . S
C490 C491 1.367 . S
C491 C490 1.367 . S
C491 C493 1.433 . S
C492 C488 1.350 . S
C492 C489 1.463 . S
C492 N496 1.427 . S
C493 H483 0.929 . S
C493 C491 1.433 . S
C493 N496 1.384 . S
C494 H485 0.929 . S
C494 C486 1.378 . S
C494 C489 1.350 . S
C495 H482 0.929 . S
C495 C487 1.433 . S
C495 N497 1.384 . S
N496 C492 1.427 . S
N496 C493 1.384 . S
N497 C489 1.427 . S
N497 C495 1.384 . S
H498 C504 0.930 . S
H499 C508 0.930 . S
H500 C513 0.929 . S
H501 C511 0.929 . S
H502 C506 0.929 . S
H503 C512 0.929 . S
C504 H498 0.930 . S
C504 C505 1.367 . S
C504 C512 1.378 . S
C505 C504 1.367 . S
C505 C513 1.433 . S
C506 H502 0.929 . S
C506 C508 1.378 . S
C506 C510 1.350 . S
C507 C510 1.463 . S
C507 C512 1.350 . S
C507 N515 1.427 . S
C508 H499 0.930 . S
C508 C506 1.378 . S
C508 C509 1.367 . S
C509 C508 1.367 . S
C509 C511 1.433 . S
C510 C506 1.350 . S
C510 C507 1.463 . S
C510 N514 1.427 . S
C511 H501 0.929 . S
C511 C509 1.433 . S
C511 N514 1.384 . S
C512 H503 0.929 . S
C512 C504 1.378 . S
C512 C507 1.350 . S
C513 H500 0.929 . S
C513 C505 1.433 . S
C513 N515 1.384 . S
N514 C510 1.427 . S
N514 C511 1.384 . S
N515 C507 1.427 . S
N515 C513 1.384 . S
H516 C522 0.930 . S
H517 C526 0.930 . S
H518 C531 0.929 . S
H519 C529 0.929 . S
H520 C524 0.929 . S
H521 C530 0.929 . S
C522 H516 0.930 . S
C522 C523 1.367 . S
C522 C530 1.378 . S
C523 C522 1.367 . S
C523 C531 1.433 . S
C524 H520 0.929 . S
C524 C526 1.378 . S
C524 C528 1.350 . S
C525 C528 1.463 . S
C525 C530 1.350 . S
C525 N533 1.427 . S
C526 H517 0.930 . S
C526 C524 1.378 . S
C526 C527 1.367 . S
C527 C526 1.367 . S
C527 C529 1.433 . S
C528 C524 1.350 . S
C528 C525 1.463 . S
C528 N532 1.427 . S
C529 H519 0.929 . S
C529 C527 1.433 . S
C529 N532 1.384 . S
C530 H521 0.929 . S
C530 C522 1.378 . S
C530 C525 1.350 . S
C531 H518 0.929 . S
C531 C523 1.433 . S
C531 N533 1.384 . S
N532 C528 1.427 . S
N532 C529 1.384 . S
N533 C525 1.427 . S
N533 C531 1.384 . S
H534 C540 0.930 . S
H535 C544 0.930 . S
H536 C549 0.929 . S
H537 C547 0.929 . S
H538 C542 0.929 . S
H539 C548 0.929 . S
C540 H534 0.930 . S
C540 C541 1.367 . S
C540 C548 1.378 . S
C541 C540 1.367 . S
C541 C549 1.433 . S
C542 H538 0.929 . S
C542 C544 1.378 . S
C542 C546 1.350 . S
C543 C546 1.463 . S
C543 C548 1.350 . S
C543 N551 1.427 . S
C544 H535 0.930 . S
C544 C542 1.378 . S
C544 C545 1.367 . S
C545 C544 1.367 . S
C545 C547 1.433 . S
C546 C542 1.350 . S
C546 C543 1.463 . S
C546 N550 1.427 . S
C547 H537 0.929 . S
C547 C545 1.433 . S
C547 N550 1.384 . S
C548 H539 0.929 . S
C548 C540 1.378 . S
C548 C543 1.350 . S
C549 H536 0.929 . S
C549 C541 1.433 . S
C549 N551 1.384 . S
N550 C546 1.427 . S
N550 C547 1.384 . S
N551 C543 1.427 . S
N551 C549 1.384 . S
H552 C558 0.930 . S
H553 C562 0.930 . S
H554 C567 0.929 . S
H555 C565 0.929 . S
H556 C560 0.929 . S
H557 C566 0.929 . S
C558 H552 0.930 . S
C558 C559 1.367 . S
C558 C566 1.378 . S
C559 C558 1.367 . S
C559 C567 1.433 . S
C560 H556 0.929 . S
C560 C562 1.378 . S
C560 C564 1.350 . S
C561 C564 1.463 . S
C561 C566 1.350 . S
C561 N569 1.427 . S
C562 H553 0.930 . S
C562 C560 1.378 . S
C562 C563 1.367 . S
C563 C562 1.367 . S
C563 C565 1.433 . S
C564 C560 1.350 . S
C564 C561 1.463 . S
C564 N568 1.427 . S
C565 H555 0.929 . S
C565 C563 1.433 . S
C565 N568 1.384 . S
C566 H557 0.929 . S
C566 C558 1.378 . S
C566 C561 1.350 . S
C567 H554 0.929 . S
C567 C559 1.433 . S
C567 N569 1.384 . S
N568 C564 1.427 . S
N568 C565 1.384 . S
N569 C561 1.427 . S
N569 C567 1.384 . S
H570 C576 0.930 . S
H571 C580 0.930 . S
H572 C585 0.929 . S
H573 C583 0.929 . S
H574 C578 0.929 . S
H575 C584 0.929 . S
C576 H570 0.930 . S
C576 C577 1.367 . S
C576 C584 1.378 . S
C577 C576 1.367 . S
C577 C585 1.433 . S
C578 H574 0.929 . S
C578 C580 1.378 . S
C578 C582 1.350 . S
C579 C582 1.463 . S
C579 C584 1.350 . S
C579 N587 1.427 . S
C580 H571 0.930 . S
C580 C578 1.378 . S
C580 C581 1.367 . S
C581 C580 1.367 . S
C581 C583 1.433 . S
C582 C578 1.350 . S
C582 C579 1.463 . S
C582 N586 1.427 . S
C583 H573 0.929 . S
C583 C581 1.433 . S
C583 N586 1.384 . S
C584 H575 0.929 . S
C584 C576 1.378 . S
C584 C579 1.350 . S
C585 H572 0.929 . S
C585 C577 1.433 . S
C585 N587 1.384 . S
N586 C582 1.427 . S
N586 C583 1.384 . S
N587 C579 1.427 . S
N587 C585 1.384 . S
H588 C594 0.930 . S
H589 C598 0.930 . S
H590 C603 0.929 . S
H591 C601 0.929 . S
H592 C596 0.929 . S
H593 C602 0.929 . S
C594 H588 0.930 . S
C594 C595 1.367 . S
C594 C602 1.378 . S
C595 C594 1.367 . S
C595 C603 1.433 . S
C596 H592 0.929 . S
C596 C598 1.378 . S
C596 C600 1.350 . S
C597 C600 1.463 . S
C597 C602 1.350 . S
C597 N605 1.427 . S
C598 H589 0.930 . S
C598 C596 1.378 . S
C598 C599 1.367 . S
C599 C598 1.367 . S
C599 C601 1.433 . S
C600 C596 1.350 . S
C600 C597 1.463 . S
C600 N604 1.427 . S
C601 H591 0.929 . S
C601 C599 1.433 . S
C601 N604 1.384 . S
C602 H593 0.929 . S
C602 C594 1.378 . S
C602 C597 1.350 . S
C603 H590 0.929 . S
C603 C595 1.433 . S
C603 N605 1.384 . S
N604 C600 1.427 . S
N604 C601 1.384 . S
N605 C597 1.427 . S
N605 C603 1.384 . S
H606 C612 0.930 . S
H607 C616 0.930 . S
H608 C621 0.929 . S
H609 C619 0.929 . S
H610 C614 0.929 . S
H611 C620 0.929 . S
C612 H606 0.930 . S
C612 C613 1.367 . S
C612 C620 1.378 . S
C613 C612 1.367 . S
C613 C621 1.433 . S
C614 H610 0.929 . S
C614 C616 1.378 . S
C614 C618 1.350 . S
C615 C618 1.463 . S
C615 C620 1.350 . S
C615 N623 1.427 . S
C616 H607 0.930 . S
C616 C614 1.378 . S
C616 C617 1.367 . S
C617 C616 1.367 . S
C617 C619 1.433 . S
C618 C614 1.350 . S
C618 C615 1.463 . S
C618 N622 1.427 . S
C619 H609 0.929 . S
C619 C617 1.433 . S
C619 N622 1.384 . S
C620 H611 0.929 . S
C620 C612 1.378 . S
C620 C615 1.350 . S
C621 H608 0.929 . S
C621 C613 1.433 . S
C621 N623 1.384 . S
N622 C618 1.427 . S
N622 C619 1.384 . S
N623 C615 1.427 . S
N623 C621 1.384 . S
H624 C630 0.930 . S
H625 C634 0.930 . S
H626 C639 0.929 . S
H627 C637 0.929 . S
H628 C632 0.929 . S
H629 C638 0.929 . S
C630 H624 0.930 . S
C630 C631 1.367 . S
C630 C638 1.378 . S
C631 C630 1.367 . S
C631 C639 1.433 . S
C632 H628 0.929 . S
C632 C634 1.378 . S
C632 C636 1.350 . S
C633 C636 1.463 . S
C633 C638 1.350 . S
C633 N641 1.427 . S
C634 H625 0.930 . S
C634 C632 1.378 . S
C634 C635 1.367 . S
C635 C634 1.367 . S
C635 C637 1.433 . S
C636 C632 1.350 . S
C636 C633 1.463 . S
C636 N640 1.427 . S
C637 H627 0.929 . S
C637 C635 1.433 . S
C637 N640 1.384 . S
C638 H629 0.929 . S
C638 C630 1.378 . S
C638 C633 1.350 . S
C639 H626 0.929 . S
C639 C631 1.433 . S
C639 N641 1.384 . S
N640 C636 1.427 . S
N640 C637 1.384 . S
N641 C633 1.427 . S
N641 C639 1.384 . S
H642 C648 0.930 . S
H643 C652 0.930 . S
H644 C657 0.929 . S
H645 C655 0.929 . S
H646 C650 0.929 . S
H647 C656 0.929 . S
C648 H642 0.930 . S
C648 C649 1.367 . S
C648 C656 1.378 . S
C649 C648 1.367 . S
C649 C657 1.433 . S
C650 H646 0.929 . S
C650 C652 1.378 . S
C650 C654 1.350 . S
C651 C654 1.463 . S
C651 C656 1.350 . S
C651 N659 1.427 . S
C652 H643 0.930 . S
C652 C650 1.378 . S
C652 C653 1.367 . S
C653 C652 1.367 . S
C653 C655 1.433 . S
C654 C650 1.350 . S
C654 C651 1.463 . S
C654 N658 1.427 . S
C655 H645 0.929 . S
C655 C653 1.433 . S
C655 N658 1.384 . S
C656 H647 0.929 . S
C656 C648 1.378 . S
C656 C651 1.350 . S
C657 H644 0.929 . S
C657 C649 1.433 . S
C657 N659 1.384 . S
N658 C654 1.427 . S
N658 C655 1.384 . S
N659 C651 1.427 . S
N659 C657 1.384 . S
H660 C666 0.930 . S
H661 C670 0.930 . S
H662 C675 0.929 . S
H663 C673 0.929 . S
H664 C668 0.929 . S
H665 C674 0.929 . S
C666 H660 0.930 . S
C666 C667 1.367 . S
C666 C674 1.378 . S
C667 C666 1.367 . S
C667 C675 1.433 . S
C668 H664 0.929 . S
C668 C670 1.378 . S
C668 C672 1.350 . S
C669 C672 1.463 . S
C669 C674 1.350 . S
C669 N677 1.427 . S
C670 H661 0.930 . S
C670 C668 1.378 . S
C670 C671 1.367 . S
C671 C670 1.367 . S
C671 C673 1.433 . S
C672 C668 1.350 . S
C672 C669 1.463 . S
C672 N676 1.427 . S
C673 H663 0.929 . S
C673 C671 1.433 . S
C673 N676 1.384 . S
C674 H665 0.929 . S
C674 C666 1.378 . S
C674 C669 1.350 . S
C675 H662 0.929 . S
C675 C667 1.433 . S
C675 N677 1.384 . S
N676 C672 1.427 . S
N676 C673 1.384 . S
N677 C669 1.427 . S
N677 C675 1.384 . S
H678 C684 0.930 . S
H679 C688 0.930 . S
H680 C693 0.929 . S
H681 C691 0.929 . S
H682 C686 0.929 . S
H683 C692 0.929 . S
C684 H678 0.930 . S
C684 C685 1.367 . S
C684 C692 1.378 . S
C685 C684 1.367 . S
C685 C693 1.433 . S
C686 H682 0.929 . S
C686 C688 1.378 . S
C686 C690 1.350 . S
C687 C690 1.463 . S
C687 C692 1.350 . S
C687 N695 1.427 . S
C688 H679 0.930 . S
C688 C686 1.378 . S
C688 C689 1.367 . S
C689 C688 1.367 . S
C689 C691 1.433 . S
C690 C686 1.350 . S
C690 C687 1.463 . S
C690 N694 1.427 . S
C691 H681 0.929 . S
C691 C689 1.433 . S
C691 N694 1.384 . S
C692 H683 0.929 . S
C692 C684 1.378 . S
C692 C687 1.350 . S
C693 H680 0.929 . S
C693 C685 1.433 . S
C693 N695 1.384 . S
N694 C690 1.427 . S
N694 C691 1.384 . S
N695 C687 1.427 . S
N695 C693 1.384 . S
H696 C702 0.930 . S
H697 C706 0.930 . S
H698 C711 0.929 . S
H699 C709 0.929 . S
H700 C704 0.929 . S
H701 C710 0.929 . S
C702 H696 0.930 . S
C702 C703 1.367 . S
C702 C710 1.378 . S
C703 C702 1.367 . S
C703 C711 1.433 . S
C704 H700 0.929 . S
C704 C706 1.378 . S
C704 C708 1.350 . S
C705 C708 1.463 . S
C705 C710 1.350 . S
C705 N713 1.427 . S
C706 H697 0.930 . S
C706 C704 1.378 . S
C706 C707 1.367 . S
C707 C706 1.367 . S
C707 C709 1.433 . S
C708 C704 1.350 . S
C708 C705 1.463 . S
C708 N712 1.427 . S
C709 H699 0.929 . S
C709 C707 1.433 . S
C709 N712 1.384 . S
C710 H701 0.929 . S
C710 C702 1.378 . S
C710 C705 1.350 . S
C711 H698 0.929 . S
C711 C703 1.433 . S
C711 N713 1.384 . S
N712 C708 1.427 . S
N712 C709 1.384 . S
N713 C705 1.427 . S
N713 C711 1.384 . S
H714 C720 0.930 . S
H715 C724 0.930 . S
H716 C729 0.929 . S
H717 C727 0.929 . S
H718 C722 0.929 . S
H719 C728 0.929 . S
C720 H714 0.930 . S
C720 C721 1.367 . S
C720 C728 1.378 . S
C721 C720 1.367 . S
C721 C729 1.433 . S
C722 H718 0.929 . S
C722 C724 1.378 . S
C722 C726 1.350 . S
C723 C726 1.463 . S
C723 C728 1.350 . S
C723 N731 1.427 . S
C724 H715 0.930 . S
C724 C722 1.378 . S
C724 C725 1.367 . S
C725 C724 1.367 . S
C725 C727 1.433 . S
C726 C722 1.350 . S
C726 C723 1.463 . S
C726 N730 1.427 . S
C727 H717 0.929 . S
C727 C725 1.433 . S
C727 N730 1.384 . S
C728 H719 0.929 . S
C728 C720 1.378 . S
C728 C723 1.350 . S
C729 H716 0.929 . S
C729 C721 1.433 . S
C729 N731 1.384 . S
N730 C726 1.427 . S
N730 C727 1.384 . S
N731 C723 1.427 . S
N731 C729 1.384 . S
H732 C738 0.930 . S
H733 C742 0.930 . S
H734 C747 0.929 . S
H735 C745 0.929 . S
H736 C740 0.929 . S
H737 C746 0.929 . S
C738 H732 0.930 . S
C738 C739 1.367 . S
C738 C746 1.378 . S
C739 C738 1.367 . S
C739 C747 1.433 . S
C740 H736 0.929 . S
C740 C742 1.378 . S
C740 C744 1.350 . S
C741 C744 1.463 . S
C741 C746 1.350 . S
C741 N749 1.427 . S
C742 H733 0.930 . S
C742 C740 1.378 . S
C742 C743 1.367 . S
C743 C742 1.367 . S
C743 C745 1.433 . S
C744 C740 1.350 . S
C744 C741 1.463 . S
C744 N748 1.427 . S
C745 H735 0.929 . S
C745 C743 1.433 . S
C745 N748 1.384 . S
C746 H737 0.929 . S
C746 C738 1.378 . S
C746 C741 1.350 . S
C747 H734 0.929 . S
C747 C739 1.433 . S
C747 N749 1.384 . S
N748 C744 1.427 . S
N748 C745 1.384 . S
N749 C741 1.427 . S
N749 C747 1.384 . S
H750 C756 0.930 . S
H751 C760 0.930 . S
H752 C765 0.929 . S
H753 C763 0.929 . S
H754 C758 0.929 . S
H755 C764 0.929 . S
C756 H750 0.930 . S
C756 C757 1.367 . S
C756 C764 1.378 . S
C757 C756 1.367 . S
C757 C765 1.433 . S
C758 H754 0.929 . S
C758 C760 1.378 . S
C758 C762 1.350 . S
C759 C762 1.463 . S
C759 C764 1.350 . S
C759 N767 1.427 . S
C760 H751 0.930 . S
C760 C758 1.378 . S
C760 C761 1.367 . S
C761 C760 1.367 . S
C761 C763 1.433 . S
C762 C758 1.350 . S
C762 C759 1.463 . S
C762 N766 1.427 . S
C763 H753 0.929 . S
C763 C761 1.433 . S
C763 N766 1.384 . S
C764 H755 0.929 . S
C764 C756 1.378 . S
C764 C759 1.350 . S
C765 H752 0.929 . S
C765 C757 1.433 . S
C765 N767 1.384 . S
N766 C762 1.427 . S
N766 C763 1.384 . S
N767 C759 1.427 . S
N767 C765 1.384 . S
H768 C774 0.930 . S
H769 C778 0.930 . S
H770 C783 0.929 . S
H771 C781 0.929 . S
H772 C776 0.929 . S
H773 C782 0.929 . S
C774 H768 0.930 . S
C774 C775 1.367 . S
C774 C782 1.378 . S
C775 C774 1.367 . S
C775 C783 1.433 . S
C776 H772 0.929 . S
C776 C778 1.378 . S
C776 C780 1.350 . S
C777 C780 1.463 . S
C777 C782 1.350 . S
C777 N785 1.427 . S
C778 H769 0.930 . S
C778 C776 1.378 . S
C778 C779 1.367 . S
C779 C778 1.367 . S
C779 C781 1.433 . S
C780 C776 1.350 . S
C780 C777 1.463 . S
C780 N784 1.427 . S
C781 H771 0.929 . S
C781 C779 1.433 . S
C781 N784 1.384 . S
C782 H773 0.929 . S
C782 C774 1.378 . S
C782 C777 1.350 . S
C783 H770 0.929 . S
C783 C775 1.433 . S
C783 N785 1.384 . S
N784 C780 1.427 . S
N784 C781 1.384 . S
N785 C777 1.427 . S
N785 C783 1.384 . S
H786 C792 0.930 . S
H787 C796 0.930 . S
H788 C801 0.929 . S
H789 C799 0.929 . S
H790 C794 0.929 . S
H791 C800 0.929 . S
C792 H786 0.930 . S
C792 C793 1.367 . S
C792 C800 1.378 . S
C793 C792 1.367 . S
C793 C801 1.433 . S
C794 H790 0.929 . S
C794 C796 1.378 . S
C794 C798 1.350 . S
C795 C798 1.463 . S
C795 C800 1.350 . S
C795 N803 1.427 . S
C796 H787 0.930 . S
C796 C794 1.378 . S
C796 C797 1.367 . S
C797 C796 1.367 . S
C797 C799 1.433 . S
C798 C794 1.350 . S
C798 C795 1.463 . S
C798 N802 1.427 . S
C799 H789 0.929 . S
C799 C797 1.433 . S
C799 N802 1.384 . S
C800 H791 0.929 . S
C800 C792 1.378 . S
C800 C795 1.350 . S
C801 H788 0.929 . S
C801 C793 1.433 . S
C801 N803 1.384 . S
N802 C798 1.427 . S
N802 C799 1.384 . S
N803 C795 1.427 . S
N803 C801 1.384 . S
H804 C810 0.930 . S
H805 C814 0.930 . S
H806 C819 0.929 . S
H807 C817 0.929 . S
H808 C812 0.929 . S
H809 C818 0.929 . S
C810 H804 0.930 . S
C810 C811 1.367 . S
C810 C818 1.378 . S
C811 C810 1.367 . S
C811 C819 1.433 . S
C812 H808 0.929 . S
C812 C814 1.378 . S
C812 C816 1.350 . S
C813 C816 1.463 . S
C813 C818 1.350 . S
C813 N821 1.427 . S
C814 H805 0.930 . S
C814 C812 1.378 . S
C814 C815 1.367 . S
C815 C814 1.367 . S
C815 C817 1.433 . S
C816 C812 1.350 . S
C816 C813 1.463 . S
C816 N820 1.427 . S
C817 H807 0.929 . S
C817 C815 1.433 . S
C817 N820 1.384 . S
C818 H809 0.929 . S
C818 C810 1.378 . S
C818 C813 1.350 . S
C819 H806 0.929 . S
C819 C811 1.433 . S
C819 N821 1.384 . S
N820 C816 1.427 . S
N820 C817 1.384 . S
N821 C813 1.427 . S
N821 C819 1.384 . S
H822 C828 0.930 . S
H823 C832 0.930 . S
H824 C837 0.929 . S
H825 C835 0.929 . S
H826 C830 0.929 . S
H827 C836 0.929 . S
C828 H822 0.930 . S
C828 C829 1.367 . S
C828 C836 1.378 . S
C829 C828 1.367 . S
C829 C837 1.433 . S
C830 H826 0.929 . S
C830 C832 1.378 . S
C830 C834 1.350 . S
C831 C834 1.463 . S
C831 C836 1.350 . S
C831 N839 1.427 . S
C832 H823 0.930 . S
C832 C830 1.378 . S
C832 C833 1.367 . S
C833 C832 1.367 . S
C833 C835 1.433 . S
C834 C830 1.350 . S
C834 C831 1.463 . S
C834 N838 1.427 . S
C835 H825 0.929 . S
C835 C833 1.433 . S
C835 N838 1.384 . S
C836 H827 0.929 . S
C836 C828 1.378 . S
C836 C831 1.350 . S
C837 H824 0.929 . S
C837 C829 1.433 . S
C837 N839 1.384 . S
N838 C834 1.427 . S
N838 C835 1.384 . S
N839 C831 1.427 . S
N839 C837 1.384 . S
H840 C846 0.930 . S
H841 C850 0.930 . S
H842 C855 0.929 . S
H843 C853 0.929 . S
H844 C848 0.929 . S
H845 C854 0.929 . S
C846 H840 0.930 . S
C846 C847 1.367 . S
C846 C854 1.378 . S
C847 C846 1.367 . S
C847 C855 1.433 . S
C848 H844 0.929 . S
C848 C850 1.378 . S
C848 C852 1.350 . S
C849 C852 1.463 1_455 S
C849 C854 1.350 . S
C849 N857 1.427 . S
C850 H841 0.930 . S
C850 C848 1.378 . S
C850 C851 1.367 . S
C851 C850 1.367 . S
C851 C853 1.433 . S
C852 C848 1.350 . S
C852 C849 1.463 1_655 S
C852 N856 1.427 . S
C853 H843 0.929 . S
C853 C851 1.433 . S
C853 N856 1.384 . S
C854 H845 0.929 . S
C854 C846 1.378 . S
C854 C849 1.350 . S
C855 H842 0.929 . S
C855 C847 1.433 . S
C855 N857 1.384 . S
N856 C852 1.427 . S
N856 C853 1.384 . S
N857 C849 1.427 . S
N857 C855 1.384 . S
H858 C864 0.930 . S
H859 C868 0.930 . S
H860 C873 0.929 . S
H861 C871 0.929 . S
H862 C866 0.929 . S
H863 C872 0.929 . S
C864 H858 0.930 . S
C864 C865 1.367 . S
C864 C872 1.378 . S
C865 C864 1.367 . S
C865 C873 1.433 . S
C866 H862 0.929 . S
C866 C868 1.378 . S
C866 C870 1.350 . S
C867 C870 1.463 1_565 S
C867 C872 1.350 . S
C867 N875 1.427 . S
C868 H859 0.930 . S
C868 C866 1.378 . S
C868 C869 1.367 . S
C869 C868 1.367 . S
C869 C871 1.433 . S
C870 C866 1.350 . S
C870 C867 1.463 1_545 S
C870 N874 1.427 . S
C871 H861 0.929 . S
C871 C869 1.433 . S
C871 N874 1.384 . S
C872 H863 0.929 . S
C872 C864 1.378 . S
C872 C867 1.350 . S
C873 H860 0.929 . S
C873 C865 1.433 . S
C873 N875 1.384 . S
N874 C870 1.427 . S
N874 C871 1.384 . S
N875 C867 1.427 . S
N875 C873 1.384 . S
H876 C882 0.930 . S
H877 C886 0.930 . S
H878 C891 0.929 . S
H879 C889 0.929 . S
H880 C884 0.929 . S
H881 C890 0.929 . S
C882 H876 0.930 . S
C882 C883 1.367 . S
C882 C890 1.378 . S
C883 C882 1.367 . S
C883 C891 1.433 . S
C884 H880 0.929 . S
C884 C886 1.378 . S
C884 C888 1.350 . S
C885 C888 1.463 . S
C885 C890 1.350 . S
C885 N893 1.427 . S
C886 H877 0.930 . S
C886 C884 1.378 . S
C886 C887 1.367 . S
C887 C886 1.367 . S
C887 C889 1.433 . S
C888 C884 1.350 . S
C888 C885 1.463 . S
C888 N892 1.427 . S
C889 H879 0.929 . S
C889 C887 1.433 . S
C889 N892 1.384 . S
C890 H881 0.929 . S
C890 C882 1.378 . S
C890 C885 1.350 . S
C891 H878 0.929 . S
C891 C883 1.433 . S
C891 N893 1.384 . S
N892 C888 1.427 . S
N892 C889 1.384 . S
N893 C885 1.427 . S
N893 C891 1.384 . S
H894 C900 0.930 . S
H895 C904 0.930 . S
H896 C909 0.929 . S
H897 C907 0.929 . S
H898 C902 0.929 . S
H899 C908 0.929 . S
C900 H894 0.930 . S
C900 C901 1.367 . S
C900 C908 1.378 . S
C901 C900 1.367 . S
C901 C909 1.433 . S
C902 H898 0.929 . S
C902 C904 1.378 . S
C902 C906 1.350 . S
C903 C906 1.463 1_455 S
C903 C908 1.350 . S
C903 N911 1.427 . S
C904 H895 0.930 . S
C904 C902 1.378 . S
C904 C905 1.367 . S
C905 C904 1.367 . S
C905 C907 1.433 . S
C906 C902 1.350 . S
C906 C903 1.463 1_655 S
C906 N910 1.427 . S
C907 H897 0.929 . S
C907 C905 1.433 . S
C907 N910 1.384 . S
C908 H899 0.929 . S
C908 C900 1.378 . S
C908 C903 1.350 . S
C909 H896 0.929 . S
C909 C901 1.433 . S
C909 N911 1.384 . S
N910 C906 1.427 . S
N910 C907 1.384 . S
N911 C903 1.427 . S
N911 C909 1.384 . S
H912 C918 0.930 . S
H913 C922 0.930 . S
H914 C927 0.929 . S
H915 C925 0.929 . S
H916 C920 0.929 . S
H917 C926 0.929 . S
C918 H912 0.930 . S
C918 C919 1.367 . S
C918 C926 1.378 . S
C919 C918 1.367 . S
C919 C927 1.433 . S
C920 H916 0.929 . S
C920 C922 1.378 . S
C920 C924 1.350 . S
C921 C924 1.463 1_565 S
C921 C926 1.350 . S
C921 N929 1.427 . S
C922 H913 0.930 . S
C922 C920 1.378 . S
C922 C923 1.367 . S
C923 C922 1.367 . S
C923 C925 1.433 . S
C924 C920 1.350 . S
C924 C921 1.463 1_545 S
C924 N928 1.427 . S
C925 H915 0.929 . S
C925 C923 1.433 . S
C925 N928 1.384 . S
C926 H917 0.929 . S
C926 C918 1.378 . S
C926 C921 1.350 . S
C927 H914 0.929 . S
C927 C919 1.433 . S
C927 N929 1.384 . S
N928 C924 1.427 . S
N928 C925 1.384 . S
N929 C921 1.427 . S
N929 C927 1.384 . S
H930 C936 0.930 . S
H931 C940 0.930 . S
H932 C945 0.929 . S
H933 C943 0.929 . S
H934 C938 0.929 . S
H935 C944 0.929 . S
C936 H930 0.930 . S
C936 C937 1.367 . S
C936 C944 1.378 . S
C937 C936 1.367 . S
C937 C945 1.433 . S
C938 H934 0.929 . S
C938 C940 1.378 . S
C938 C942 1.350 . S
C939 C942 1.463 . S
C939 C944 1.350 . S
C939 N947 1.427 . S
C940 H931 0.930 . S
C940 C938 1.378 . S
C940 C941 1.367 . S
C941 C940 1.367 . S
C941 C943 1.433 . S
C942 C938 1.350 . S
C942 C939 1.463 . S
C942 N946 1.427 . S
C943 H933 0.929 . S
C943 C941 1.433 . S
C943 N946 1.384 . S
C944 H935 0.929 . S
C944 C936 1.378 . S
C944 C939 1.350 . S
C945 H932 0.929 . S
C945 C937 1.433 . S
C945 N947 1.384 . S
N946 C942 1.427 . S
N946 C943 1.384 . S
N947 C939 1.427 . S
N947 C945 1.384 . S
C415 C305 1.496 . S
C419 C33 1.493 . S
C433 C67 1.494 . S
C437 C339 1.493 . S
C451 C373 1.493 . S
C455 C101 1.494 . S
C469 C407 1.493 . S
C473 C135 1.494 . S
C487 C169 1.493 . S
C491 C237 1.493 . S
C505 C271 1.497 . S
C509 C203 1.495 . S
C523 C360 1.478 . S
C527 C20 1.478 . S
C541 C394 1.477 . S
C545 C54 1.478 . S
C559 C88 1.478 . S
C563 C224 1.479 . S
C577 C258 1.479 . S
C581 C122 1.478 . S
C595 C292 1.482 . S
C599 C156 1.481 . S
C613 C326 1.482 . S
C617 C190 1.482 . S
C631 C5 1.492 . S
C635 C9 1.392 . S
C649 C39 1.493 . S
C653 C43 1.395 . S
C667 C73 1.494 . S
C671 C77 1.401 . S
C685 C107 1.497 . S
C689 C111 1.406 . S
C703 C145 1.400 . S
C707 C141 1.494 . S
C721 C175 1.492 . S
C725 C179 1.392 . S
C739 C213 1.396 . S
C743 C209 1.494 . S
C757 C243 1.494 . S
C761 C247 1.400 . S
C775 C281 1.409 . S
C779 C277 1.497 . S
C793 C315 1.399 . S
C797 C311 1.495 . S
C811 C345 1.492 . S
C815 C349 1.393 . S
C829 C379 1.493 . S
C833 C383 1.397 . S
C847 C2 1.481 . S
C851 C376 1.481 . S
C865 C206 1.481 . S
C869 C36 1.480 . S
C883 C240 1.481 . S
C887 C70 1.481 . S
C901 C274 1.477 . S
C905 C104 1.480 . S
C919 C138 1.476 . S
C923 C308 1.478 . S
C937 C342 1.479 . S
C941 C172 1.481 . S
