# Generated by pormake.
# Topology umr, (4)-cn, num edge types: 1
# Building blocks:
#     Node 0, Type 0, BuildingBlock: CEKHIL_clean_sbu_0, # of connection points: 4
#     Node 1, Type 0, BuildingBlock: CEKHIL_clean_sbu_0, # of connection points: 4
#     Node 2, Type 0, BuildingBlock: CEKHIL_clean_sbu_0, # of connection points: 4
#     Node 3, Type 0, BuildingBlock: CEKHIL_clean_sbu_0, # of connection points: 4
#     Node 4, Type 0, BuildingBlock: CEKHIL_clean_sbu_0, # of connection points: 4
#     Node 5, Type 0, BuildingBlock: CEKHIL_clean_sbu_0, # of connection points: 4
#     Node 6, Type 0, BuildingBlock: CEKHIL_clean_sbu_0, # of connection points: 4
#     Node 7, Type 0, BuildingBlock: CEKHIL_clean_sbu_0, # of connection points: 4
#     Node 8, Type 0, BuildingBlock: CEKHIL_clean_sbu_0, # of connection points: 4
#     Node 9, Type 0, BuildingBlock: CEKHIL_clean_sbu_0, # of connection points: 4
#     Node 10, Type 0, BuildingBlock: CEKHIL_clean_sbu_0, # of connection points: 4
#     Node 11, Type 0, BuildingBlock: CEKHIL_clean_sbu_0, # of connection points: 4
#     Node 12, Type 0, BuildingBlock: CEKHIL_clean_sbu_0, # of connection points: 4
#     Node 13, Type 0, BuildingBlock: CEKHIL_clean_sbu_0, # of connection points: 4
#     Node 14, Type 0, BuildingBlock: CEKHIL_clean_sbu_0, # of connection points: 4
#     Node 15, Type 0, BuildingBlock: CEKHIL_clean_sbu_0, # of connection points: 4
#     Node 16, Type 0, BuildingBlock: CEKHIL_clean_sbu_0, # of connection points: 4
#     Node 17, Type 0, BuildingBlock: CEKHIL_clean_sbu_0, # of connection points: 4
#     Node 18, Type 0, BuildingBlock: CEKHIL_clean_sbu_0, # of connection points: 4
#     Node 19, Type 0, BuildingBlock: CEKHIL_clean_sbu_0, # of connection points: 4
#     Node 20, Type 0, BuildingBlock: CEKHIL_clean_sbu_0, # of connection points: 4
#     Node 21, Type 0, BuildingBlock: CEKHIL_clean_sbu_0, # of connection points: 4
#     Node 22, Type 0, BuildingBlock: CEKHIL_clean_sbu_0, # of connection points: 4
#     Node 23, Type 0, BuildingBlock: CEKHIL_clean_sbu_0, # of connection points: 4
#     Node 24, Type 0, BuildingBlock: CEKHIL_clean_sbu_0, # of connection points: 4
#     Node 25, Type 0, BuildingBlock: CEKHIL_clean_sbu_0, # of connection points: 4
#     Node 26, Type 0, BuildingBlock: CEKHIL_clean_sbu_0, # of connection points: 4
#     Node 27, Type 0, BuildingBlock: CEKHIL_clean_sbu_0, # of connection points: 4
#     Node 28, Type 0, BuildingBlock: CEKHIL_clean_sbu_0, # of connection points: 4
#     Node 29, Type 0, BuildingBlock: CEKHIL_clean_sbu_0, # of connection points: 4
#     Node 30, Type 0, BuildingBlock: CEKHIL_clean_sbu_0, # of connection points: 4
#     Node 31, Type 0, BuildingBlock: CEKHIL_clean_sbu_0, # of connection points: 4
#     Edge 32, Type (0, 0), BuildingBlock: TEMPAE_clean_linker_10, # of connection points: 2
#     Edge 33, Type (0, 0), BuildingBlock: TEMPAE_clean_linker_10, # of connection points: 2
#     Edge 34, Type (0, 0), BuildingBlock: TEMPAE_clean_linker_10, # of connection points: 2
#     Edge 35, Type (0, 0), BuildingBlock: TEMPAE_clean_linker_10, # of connection points: 2
#     Edge 36, Type (0, 0), BuildingBlock: TEMPAE_clean_linker_10, # of connection points: 2
#     Edge 37, Type (0, 0), BuildingBlock: TEMPAE_clean_linker_10, # of connection points: 2
#     Edge 38, Type (0, 0), BuildingBlock: TEMPAE_clean_linker_10, # of connection points: 2
#     Edge 39, Type (0, 0), BuildingBlock: TEMPAE_clean_linker_10, # of connection points: 2
#     Edge 40, Type (0, 0), BuildingBlock: TEMPAE_clean_linker_10, # of connection points: 2
#     Edge 41, Type (0, 0), BuildingBlock: TEMPAE_clean_linker_10, # of connection points: 2
#     Edge 42, Type (0, 0), BuildingBlock: TEMPAE_clean_linker_10, # of connection points: 2
#     Edge 43, Type (0, 0), BuildingBlock: TEMPAE_clean_linker_10, # of connection points: 2
#     Edge 44, Type (0, 0), BuildingBlock: TEMPAE_clean_linker_10, # of connection points: 2
#     Edge 45, Type (0, 0), BuildingBlock: TEMPAE_clean_linker_10, # of connection points: 2
#     Edge 46, Type (0, 0), BuildingBlock: TEMPAE_clean_linker_10, # of connection points: 2
#     Edge 47, Type (0, 0), BuildingBlock: TEMPAE_clean_linker_10, # of connection points: 2
#     Edge 48, Type (0, 0), BuildingBlock: TEMPAE_clean_linker_10, # of connection points: 2
#     Edge 49, Type (0, 0), BuildingBlock: TEMPAE_clean_linker_10, # of connection points: 2
#     Edge 50, Type (0, 0), BuildingBlock: TEMPAE_clean_linker_10, # of connection points: 2
#     Edge 51, Type (0, 0), BuildingBlock: TEMPAE_clean_linker_10, # of connection points: 2
#     Edge 52, Type (0, 0), BuildingBlock: TEMPAE_clean_linker_10, # of connection points: 2
#     Edge 53, Type (0, 0), BuildingBlock: TEMPAE_clean_linker_10, # of connection points: 2
#     Edge 54, Type (0, 0), BuildingBlock: TEMPAE_clean_linker_10, # of connection points: 2
#     Edge 55, Type (0, 0), BuildingBlock: TEMPAE_clean_linker_10, # of connection points: 2
#     Edge 56, Type (0, 0), BuildingBlock: TEMPAE_clean_linker_10, # of connection points: 2
#     Edge 57, Type (0, 0), BuildingBlock: TEMPAE_clean_linker_10, # of connection points: 2
#     Edge 58, Type (0, 0), BuildingBlock: TEMPAE_clean_linker_10, # of connection points: 2
#     Edge 59, Type (0, 0), BuildingBlock: TEMPAE_clean_linker_10, # of connection points: 2
#     Edge 60, Type (0, 0), BuildingBlock: TEMPAE_clean_linker_10, # of connection points: 2
#     Edge 61, Type (0, 0), BuildingBlock: TEMPAE_clean_linker_10, # of connection points: 2
#     Edge 62, Type (0, 0), BuildingBlock: TEMPAE_clean_linker_10, # of connection points: 2
#     Edge 63, Type (0, 0), BuildingBlock: TEMPAE_clean_linker_10, # of connection points: 2
#     Edge 64, Type (0, 0), BuildingBlock: TEMPAE_clean_linker_10, # of connection points: 2
#     Edge 65, Type (0, 0), BuildingBlock: TEMPAE_clean_linker_10, # of connection points: 2
#     Edge 66, Type (0, 0), BuildingBlock: TEMPAE_clean_linker_10, # of connection points: 2
#     Edge 67, Type (0, 0), BuildingBlock: TEMPAE_clean_linker_10, # of connection points: 2
#     Edge 68, Type (0, 0), BuildingBlock: TEMPAE_clean_linker_10, # of connection points: 2
#     Edge 69, Type (0, 0), BuildingBlock: TEMPAE_clean_linker_10, # of connection points: 2
#     Edge 70, Type (0, 0), BuildingBlock: TEMPAE_clean_linker_10, # of connection points: 2
#     Edge 71, Type (0, 0), BuildingBlock: TEMPAE_clean_linker_10, # of connection points: 2
#     Edge 72, Type (0, 0), BuildingBlock: TEMPAE_clean_linker_10, # of connection points: 2
#     Edge 73, Type (0, 0), BuildingBlock: TEMPAE_clean_linker_10, # of connection points: 2
#     Edge 74, Type (0, 0), BuildingBlock: TEMPAE_clean_linker_10, # of connection points: 2
#     Edge 75, Type (0, 0), BuildingBlock: TEMPAE_clean_linker_10, # of connection points: 2
#     Edge 76, Type (0, 0), BuildingBlock: TEMPAE_clean_linker_10, # of connection points: 2
#     Edge 77, Type (0, 0), BuildingBlock: TEMPAE_clean_linker_10, # of connection points: 2
#     Edge 78, Type (0, 0), BuildingBlock: TEMPAE_clean_linker_10, # of connection points: 2
#     Edge 79, Type (0, 0), BuildingBlock: TEMPAE_clean_linker_10, # of connection points: 2
#     Edge 80, Type (0, 0), BuildingBlock: TEMPAE_clean_linker_10, # of connection points: 2
#     Edge 81, Type (0, 0), BuildingBlock: TEMPAE_clean_linker_10, # of connection points: 2
#     Edge 82, Type (0, 0), BuildingBlock: TEMPAE_clean_linker_10, # of connection points: 2
#     Edge 83, Type (0, 0), BuildingBlock: TEMPAE_clean_linker_10, # of connection points: 2
#     Edge 84, Type (0, 0), BuildingBlock: TEMPAE_clean_linker_10, # of connection points: 2
#     Edge 85, Type (0, 0), BuildingBlock: TEMPAE_clean_linker_10, # of connection points: 2
#     Edge 86, Type (0, 0), BuildingBlock: TEMPAE_clean_linker_10, # of connection points: 2
#     Edge 87, Type (0, 0), BuildingBlock: TEMPAE_clean_linker_10, # of connection points: 2
#     Edge 88, Type (0, 0), BuildingBlock: TEMPAE_clean_linker_10, # of connection points: 2
#     Edge 89, Type (0, 0), BuildingBlock: TEMPAE_clean_linker_10, # of connection points: 2
#     Edge 90, Type (0, 0), BuildingBlock: TEMPAE_clean_linker_10, # of connection points: 2
#     Edge 91, Type (0, 0), BuildingBlock: TEMPAE_clean_linker_10, # of connection points: 2
#     Edge 92, Type (0, 0), BuildingBlock: TEMPAE_clean_linker_10, # of connection points: 2
#     Edge 93, Type (0, 0), BuildingBlock: TEMPAE_clean_linker_10, # of connection points: 2
#     Edge 94, Type (0, 0), BuildingBlock: TEMPAE_clean_linker_10, # of connection points: 2
#     Edge 95, Type (0, 0), BuildingBlock: TEMPAE_clean_linker_10, # of connection points: 2
# Relax obj value: 0.090
# Max RMSD: 0.107
# Mean RMSD: 0.107
data_MOF--net-umr--node1-CEKHIL_clean_sbu_0--edge1-TEMPAE_clean_linker_10
_symmetry_space_group_name_H-M    P1
_symmetry_Int_Tables_number       1
_symmetry_cell_setting            triclinic
loop_
_symmetry_equiv_pos_as_xyz
'x, y, z'
_cell_length_a     83.964542
_cell_length_b     83.895404
_cell_length_c     26.818783
_cell_angle_alpha  89.999884
_cell_angle_beta   90.020551
_cell_angle_gamma 90.022788
loop_
_atom_site_label
_atom_site_type_symbol
_atom_site_fract_x
_atom_site_fract_y
_atom_site_fract_z
_atom_type_partial_charge
Co0 Co 0.16007 0.29476 0.03083 0.0
O1 O 0.13791 0.29999 0.04093 0.0
O2 O 0.1581 0.31597 0.05876 0.0
C3 C 0.15691 0.28446 0.95378 0.0
O4 O 0.18439 0.29415 0.02313 0.0
Co5 Co 0.17208 0.26011 0.01269 0.0
O6 O 0.1908 0.27127 0.98445 0.0
C7 C 0.16378 0.27063 0.11457 0.0
C8 C 0.14279 0.31371 0.05738 0.0
C9 C 0.19428 0.28529 -0.00102 0.0
O10 O 0.16128 0.28502 0.09967 0.0
O11 O 0.16747 0.25907 0.0857 0.0
O12 O 0.15794 0.29982 0.95974 0.0
O13 O 0.15667 0.27615 -0.00585 0.0
Co14 Co 0.96183 0.9106 0.28394 0.0
O15 O 0.95448 0.88908 0.29358 0.0
O16 O 0.9407 0.91061 0.31364 0.0
C17 C 0.97095 0.90668 0.20592 0.0
O18 O 0.96516 0.93467 0.27678 0.0
Co19 Co 0.9977 0.91787 0.2635 0.0
O20 O 0.98915 0.9388 0.24173 0.0
C21 C 0.98696 0.9097 0.36508 0.0
C22 C 0.94144 0.89513 0.31124 0.0
C23 C 0.97551 0.94381 0.2556 0.0
O24 O 0.97223 0.91058 0.35193 0.0
O25 O 0.99868 0.91093 0.33488 0.0
O26 O 0.95591 0.90956 0.21326 0.0
O27 O 0.97948 0.90512 0.24546 0.0
Co28 Co 0.34513 0.71192 0.52394 0.0
O29 O 0.36688 0.70526 0.53376 0.0
O30 O 0.34577 0.69142 0.55745 0.0
C31 C 0.34807 0.71971 0.44397 0.0
O32 O 0.32095 0.71448 0.51767 0.0
Co33 Co 0.33704 0.74737 0.49889 0.0
O34 O 0.31577 0.73839 0.48322 0.0
C35 C 0.34729 0.73854 0.59989 0.0
C36 C 0.3612 0.69243 0.5541 0.0
C37 C 0.3113 0.72464 0.49787 0.0
O38 O 0.3453 0.72364 0.58996 0.0
O39 O 0.34632 0.7496 0.56719 0.0
O40 O 0.34607 0.7047 0.45429 0.0
O41 O 0.34968 0.72899 0.48185 0.0
Co42 Co 0.54311 0.09566 0.77262 0.0
O43 O 0.54907 0.11764 0.78284 0.0
O44 O 0.56424 0.09693 0.80158 0.0
C45 C 0.53329 0.09905 0.69504 0.0
O46 O 0.54155 0.07135 0.76513 0.0
Co47 Co 0.50791 0.08535 0.75322 0.0
O48 O 0.51797 0.06533 0.73018 0.0
C49 C 0.51846 0.09327 0.85524 0.0
C50 C 0.56251 0.11233 0.80007 0.0
C51 C 0.53193 0.0614 0.74411 0.0
O52 O 0.53304 0.0948 0.84104 0.0
O53 O 0.50681 0.09043 0.82586 0.0
O54 O 0.54856 0.09749 0.70169 0.0
O55 O 0.52486 0.09975 0.73506 0.0
Co56 Co 0.15948 0.71031 0.44476 0.0
O57 O 0.13809 0.70339 0.42949 0.0
O58 O 0.15989 0.68907 0.41644 0.0
C59 C 0.15425 0.7198 0.5218 0.0
O60 O 0.18337 0.71306 0.45721 0.0
Co61 Co 0.16724 0.74609 0.46568 0.0
O62 O 0.18783 0.73738 0.48976 0.0
C63 C 0.1592 0.73532 0.36413 0.0
C64 C 0.14447 0.69018 0.41418 0.0
C65 C 0.19255 0.72342 0.47818 0.0
O66 O 0.16116 0.72062 0.37672 0.0
O67 O 0.15942 0.7469 0.39519 0.0
O68 O 0.15657 0.70462 0.51518 0.0
O69 O 0.15374 0.72822 0.48172 0.0
Co70 Co 0.54185 0.90893 0.71036 0.0
O71 O 0.54804 0.8872 0.6971 0.0
O72 O 0.56217 0.90841 0.67589 0.0
C73 C 0.53447 0.90436 0.78976 0.0
O74 O 0.54003 0.93309 0.71997 0.0
Co75 Co 0.50745 0.91845 0.74143 0.0
O76 O 0.51778 0.93851 0.76307 0.0
C77 C 0.51494 0.91224 0.63524 0.0
C78 C 0.5609 0.89296 0.67719 0.0
C79 C 0.53111 0.94277 0.74476 0.0
O80 O 0.52981 0.91002 0.64513 0.0
O81 O 0.50431 0.91506 0.66826 0.0
O82 O 0.54938 0.90688 0.77925 0.0
O83 O 0.52485 0.90384 0.75241 0.0
Co84 Co 0.34624 0.29437 0.95194 0.0
O85 O 0.368 0.30123 0.94389 0.0
O86 O 0.34692 0.31529 0.92109 0.0
C87 C 0.34881 0.28552 0.03091 0.0
O88 O 0.32205 0.29164 0.95708 0.0
Co89 Co 0.33834 0.25853 0.97155 0.0
O90 O 0.31672 0.26696 0.98542 0.0
C91 C 0.34897 0.26885 0.87259 0.0
C92 C 0.36234 0.31428 0.92494 0.0
C93 C 0.31227 0.28098 0.97344 0.0
O94 O 0.34665 0.28357 0.8844 0.0
O95 O 0.34814 0.25736 0.90378 0.0
O96 O 0.34685 0.30066 0.02248 0.0
O97 O 0.35068 0.27678 -0.00806 0.0
Co98 Co 0.96273 0.09621 0.20701 0.0
O99 O 0.95529 0.11758 0.19524 0.0
O100 O 0.94241 0.09579 0.17214 0.0
C101 C 0.9697 0.10042 0.28702 0.0
O102 O 0.96624 0.07223 0.21528 0.0
Co103 Co 0.99804 0.08969 0.23653 0.0
O104 O 0.9896 0.06832 0.25447 0.0
C105 C 0.98987 0.09802 0.13276 0.0
C106 C 0.94281 0.11129 0.17465 0.0
C107 C 0.97633 0.06316 0.23783 0.0
O108 O 0.97489 0.09631 0.14192 0.0
O109 O 1.00069 0.09745 0.16636 0.0
O110 O 0.95496 0.09718 0.27595 0.0
O111 O 0.9792 0.1021 0.2498 0.0
Co112 Co 0.84539 0.71172 0.95277 0.0
O113 O 0.86697 0.70488 0.94091 0.0
O114 O 0.84551 0.69083 0.92157 0.0
C115 C 0.85002 0.72037 0.03092 0.0
O116 O 0.82129 0.71421 0.96192 0.0
Co117 Co 0.83664 0.74688 0.97806 0.0
O118 O 0.81644 0.73728 0.00154 0.0
C119 C 0.84263 0.73739 0.87335 0.0
C120 C 0.86097 0.69183 0.92302 0.0
C121 C 0.81187 0.72375 0.98542 0.0
O122 O 0.84454 0.72266 0.88563 0.0
O123 O 0.84007 0.74865 0.9045 0.0
O124 O 0.84726 0.70533 0.02282 0.0
O125 O 0.85077 0.72931 -0.00799 0.0
Co126 Co 0.04276 0.09512 0.70685 0.0
O127 O 0.05039 0.11651 0.69649 0.0
O128 O 0.06303 0.09472 0.67179 0.0
C129 C 0.0358 0.09901 0.78702 0.0
O130 O 0.03909 0.07111 0.71369 0.0
Co131 Co 0.00744 0.08853 0.73598 0.0
O132 O 0.0158 0.06707 0.75314 0.0
C133 C 0.01564 0.0974 0.63264 0.0
C134 C 0.06274 0.11019 0.67533 0.0
C135 C 0.02901 0.06195 0.73598 0.0
O136 O 0.03062 0.09566 0.64176 0.0
O137 O 0.00481 0.09663 0.66615 0.0
O138 O 0.0505 0.09567 0.77591 0.0
O139 O 0.02631 0.10087 0.74983 0.0
Co140 Co 0.65822 0.29128 0.45655 0.0
O141 O 0.63648 0.29756 0.4443 0.0
O142 O 0.65762 0.31123 0.41984 0.0
C143 C 0.65421 0.28492 0.537 0.0
O144 O 0.68241 0.28924 0.46453 0.0
Co145 Co 0.66757 0.25714 0.49091 0.0
O146 O 0.68761 0.26773 0.5116 0.0
C147 C 0.66061 0.26346 0.38441 0.0
C148 C 0.64218 0.31015 0.42256 0.0
C149 C 0.69198 0.28068 0.49093 0.0
O150 O 0.65863 0.27847 0.39278 0.0
O151 O 0.66361 0.25317 0.41838 0.0
O152 O 0.65685 0.29967 0.52458 0.0
O153 O 0.65327 0.27486 0.5009 0.0
Co154 Co 0.46108 0.90952 0.20944 0.0
O155 O 0.45489 0.88756 0.20069 0.0
O156 O 0.44059 0.90827 0.17618 0.0
C157 C 0.46905 0.90714 0.28943 0.0
O158 O 0.46305 0.9338 0.21447 0.0
Co159 Co 0.49631 0.91865 0.23358 0.0
O160 O 0.4869 0.93986 0.24778 0.0
C161 C 0.48761 0.90767 0.13322 0.0
C162 C 0.44194 0.89288 0.18015 0.0
C163 C 0.47301 0.94387 0.2332 0.0
O164 O 0.47268 0.90935 0.14326 0.0
O165 O 0.49867 0.90906 0.16573 0.0
O166 O 0.45399 0.90873 0.27925 0.0
O167 O 0.4783 0.90559 0.25149 0.0
Co168 Co 0.84448 0.29248 0.52212 0.0
O169 O 0.86595 0.2997 0.53367 0.0
O170 O 0.84434 0.31337 0.5534 0.0
C171 C 0.84897 0.28395 0.44376 0.0
O172 O 0.82041 0.28944 0.51355 0.0
Co173 Co 0.8367 0.25698 0.49755 0.0
O174 O 0.81578 0.26575 0.47723 0.0
C175 C 0.84323 0.2667 0.60154 0.0
C176 C 0.85981 0.31263 0.55196 0.0
C177 C 0.811 0.27933 0.49235 0.0
O178 O 0.84405 0.28153 0.58924 0.0
O179 O 0.84125 0.25529 0.57054 0.0
O180 O 0.84599 0.29894 0.45202 0.0
O181 O 0.8501 0.27504 0.48264 0.0
Co182 Co 0.46021 0.0962 0.2723 0.0
O183 O 0.45436 0.11805 0.28509 0.0
O184 O 0.43908 0.09719 0.30132 0.0
C185 C 0.46999 0.10062 0.19526 0.0
O186 O 0.46159 0.07201 0.26186 0.0
Co187 Co 0.49519 0.08575 0.25073 0.0
O188 O 0.48476 0.06641 0.22386 0.0
C189 C 0.48487 0.09217 0.35424 0.0
C190 C 0.44087 0.11259 0.30142 0.0
C191 C 0.47088 0.06237 0.23827 0.0
O192 O 0.47034 0.09446 0.34047 0.0
O193 O 0.49637 0.08932 0.32429 0.0
O194 O 0.45472 0.09894 0.2017 0.0
O195 O 0.47845 0.1007 0.23529 0.0
Co196 Co 0.65941 0.71157 0.02521 0.0
O197 O 0.63772 0.70498 0.03685 0.0
O198 O 0.65896 0.69067 0.05631 0.0
C199 C 0.65514 0.72033 0.94693 0.0
O200 O 0.68356 0.71384 0.01655 0.0
Co201 Co 0.66851 0.74674 0.00056 0.0
O202 O 0.68864 0.73695 0.9773 0.0
C203 C 0.66188 0.73722 0.10479 0.0
C204 C 0.64352 0.69186 0.055 0.0
C205 C 0.69307 0.72335 -0.00671 0.0
O206 O 0.66019 0.72247 0.09237 0.0
O207 O 0.6645 0.74852 0.07384 0.0
O208 O 0.6576 0.70524 0.95504 0.0
O209 O 0.65436 0.72922 0.98594 0.0
Co210 Co 0.0441 0.90965 0.78402 0.0
O211 O 0.05143 0.8884 0.79921 0.0
O212 O 0.06524 0.91047 0.81318 0.0
C213 C 0.03507 0.90424 0.70658 0.0
O214 O 0.04071 0.93351 0.77197 0.0
Co215 Co 0.00818 0.91629 0.76153 0.0
O216 O 0.01628 0.93738 0.73963 0.0
C217 C 0.01882 0.9088 0.86371 0.0
C218 C 0.06444 0.895 0.81516 0.0
C219 C 0.03006 0.9425 0.7517 0.0
O220 O 0.03351 0.91101 0.85159 0.0
O221 O 0.00735 0.90865 0.83225 0.0
O222 O 0.05014 0.90704 0.71376 0.0
O223 O 0.02654 0.90342 0.74632 0.0
Co224 Co 0.65846 0.79394 0.52545 0.0
O225 O 0.63665 0.80013 0.53662 0.0
O226 O 0.65759 0.81491 0.55594 0.0
C227 C 0.65476 0.78478 0.44718 0.0
O228 O 0.68263 0.79194 0.5169 0.0
Co229 Co 0.66749 0.75847 0.50417 0.0
O230 O 0.68784 0.76813 0.48175 0.0
C231 C 0.65817 0.76846 0.60517 0.0
C232 C 0.64218 0.8134 0.55445 0.0
C233 C 0.69216 0.78205 0.49527 0.0
O234 O 0.65937 0.78327 0.59307 0.0
O235 O 0.65931 0.75696 0.57406 0.0
O236 O 0.65655 0.79999 0.45491 0.0
O237 O 0.6539 0.77611 0.48665 0.0
Co238 Co 0.46298 0.41082 0.77782 0.0
O239 O 0.45668 0.38917 0.79152 0.0
O240 O 0.44232 0.41042 0.81044 0.0
C241 C 0.47102 0.40579 0.69933 0.0
O242 O 0.46502 0.43495 0.76717 0.0
Co243 Co 0.49771 0.42 0.7492 0.0
O244 O 0.4876 0.43986 0.72498 0.0
C245 C 0.48917 0.41457 0.8551 0.0
C246 C 0.44362 0.39496 0.80987 0.0
C247 C 0.4742 0.44436 0.74222 0.0
O248 O 0.47441 0.41224 0.844 0.0
O249 O 0.50011 0.41718 0.82288 0.0
O250 O 0.45604 0.40842 0.70847 0.0
O251 O 0.48031 0.40546 0.7375 0.0
Co252 Co 0.84552 0.21029 0.02289 0.0
O253 O 0.8672 0.20346 0.03278 0.0
O254 O 0.84596 0.18936 0.05382 0.0
C255 C 0.84893 0.21914 0.94417 0.0
O256 O 0.82138 0.21299 0.01587 0.0
Co257 Co 0.83751 0.24599 0.0014 0.0
O258 O 0.8164 0.23716 0.98295 0.0
C259 C 0.84736 0.23595 0.10186 0.0
C260 C 0.86141 0.19039 0.05127 0.0
C261 C 0.81183 0.2233 -0.00369 0.0
O262 O 0.84541 0.22116 0.0903 0.0
O263 O 0.8465 0.24736 0.07034 0.0
O264 O 0.84673 0.20401 0.95237 0.0
O265 O 0.85035 0.22786 0.98337 0.0
Co266 Co 0.04283 0.59439 0.27639 0.0
O267 O 0.04988 0.61574 0.29133 0.0
O268 O 0.06358 0.59383 0.30825 0.0
C269 C 0.0349 0.59946 0.19771 0.0
O270 O 0.03971 0.57048 0.26534 0.0
Co271 Co 0.00735 0.58744 0.2497 0.0
O272 O 0.0157 0.56615 0.23069 0.0
C273 C 0.01654 0.59537 0.35292 0.0
C274 C 0.0627 0.60931 0.30935 0.0
C275 C 0.02937 0.56123 0.24469 0.0
O276 O 0.03139 0.59336 0.3426 0.0
O277 O 0.00546 0.59523 0.32013 0.0
O278 O 0.04981 0.59651 0.20694 0.0
O279 O 0.02576 0.60047 0.23607 0.0
Co280 Co 0.65908 0.21195 0.95618 0.0
O281 O 0.63721 0.20599 0.94437 0.0
O282 O 0.65808 0.1918 0.92075 0.0
C283 C 0.65578 0.21909 0.03662 0.0
O284 O 0.68329 0.21373 0.96419 0.0
Co285 Co 0.66814 0.24685 0.98512 0.0
O286 O 0.68889 0.23698 0.00225 0.0
C287 C 0.65842 0.23931 0.8825 0.0
C288 C 0.64267 0.1932 0.92321 0.0
C289 C 0.69306 0.22331 0.9862 0.0
O290 O 0.6597 0.22425 0.89127 0.0
O291 O 0.65964 0.25003 0.91621 0.0
O292 O 0.65744 0.20413 0.0251 0.0
O293 O 0.65474 0.22875 -0.00051 0.0
Co294 Co 0.04031 0.40841 0.20459 0.0
O295 O 0.04672 0.38674 0.19179 0.0
O296 O 0.06088 0.40801 0.1715 0.0
C297 C 0.03239 0.40378 0.28341 0.0
O298 O 0.03815 0.43256 0.21408 0.0
Co299 Co 0.00552 0.41751 0.23322 0.0
O300 O 0.01555 0.4376 0.256 0.0
C301 C 0.01395 0.41144 0.12769 0.0
C302 C 0.05967 0.39255 0.17271 0.0
C303 C 0.02893 0.44206 0.2385 0.0
O304 O 0.02876 0.40942 0.13862 0.0
O305 O 0.00301 0.4141 0.15983 0.0
O306 O 0.04736 0.4064 0.27397 0.0
O307 O 0.02307 0.40318 0.24537 0.0
Co308 Co 0.84458 0.79394 0.45171 0.0
O309 O 0.86625 0.80103 0.443 0.0
O310 O 0.84496 0.81494 0.4213 0.0
C311 C 0.84764 0.78492 0.5304 0.0
O312 O 0.82043 0.79099 0.45757 0.0
Co313 Co 0.83687 0.75807 0.4714 0.0
O314 O 0.81548 0.76653 0.4883 0.0
C315 C 0.84724 0.76856 0.37212 0.0
C316 C 0.8604 0.81407 0.42451 0.0
C317 C 0.81086 0.78044 0.47571 0.0
O318 O 0.8449 0.78326 0.384 0.0
O319 O 0.84644 0.75704 0.40325 0.0
O320 O 0.84542 0.80006 0.52242 0.0
O321 O 0.84935 0.7763 0.49111 0.0
Co322 Co 0.46173 0.59704 0.70903 0.0
O323 O 0.4546 0.61856 0.698 0.0
O324 O 0.44121 0.59703 0.67538 0.0
C325 C 0.46933 0.6011 0.78859 0.0
O326 O 0.46485 0.57297 0.71657 0.0
Co327 Co 0.49708 0.58974 0.73642 0.0
O328 O 0.48849 0.56834 0.75321 0.0
C329 C 0.48843 0.59864 0.63347 0.0
C330 C 0.44191 0.61251 0.67797 0.0
C331 C 0.47498 0.56354 0.73741 0.0
O332 O 0.47348 0.59703 0.64324 0.0
O333 O 0.4994 0.59784 0.66653 0.0
O334 O 0.45447 0.59809 0.77856 0.0
O335 O 0.4786 0.60256 0.75072 0.0
Co336 Co 0.34434 0.21264 0.45236 0.0
O337 O 0.36608 0.20651 0.43961 0.0
O338 O 0.34501 0.1919 0.42036 0.0
C339 C 0.34899 0.22112 0.53066 0.0
O340 O 0.32019 0.21435 0.46198 0.0
Co341 Co 0.33453 0.24736 0.47921 0.0
O342 O 0.31463 0.23711 0.5024 0.0
C343 C 0.34082 0.23854 0.37409 0.0
C344 C 0.36044 0.19337 0.42122 0.0
C345 C 0.31047 0.22351 0.48576 0.0
O346 O 0.34308 0.22381 0.38575 0.0
O347 O 0.33796 0.24959 0.40575 0.0
O348 O 0.34658 0.20604 0.52213 0.0
O349 O 0.3493 0.23023 0.49209 0.0
Co350 Co 0.54262 0.59681 0.20904 0.0
O351 O 0.55016 0.61827 0.19941 0.0
O352 O 0.5632 0.59664 0.1758 0.0
C353 C 0.5349 0.60033 0.28868 0.0
O354 O 0.53908 0.57279 0.21536 0.0
Co355 Co 0.50693 0.59027 0.234 0.0
O356 O 0.51422 0.56796 0.24315 0.0
C357 C 0.51623 0.59986 0.13268 0.0
C358 C 0.56276 0.61211 0.17917 0.0
C359 C 0.52808 0.56323 0.23056 0.0
O360 O 0.53104 0.59741 0.14286 0.0
O361 O 0.50515 0.59946 0.16538 0.0
O362 O 0.54975 0.59726 0.27872 0.0
O363 O 0.52575 0.60234 0.25074 0.0
Co364 Co 0.16074 0.79267 0.94496 0.0
O365 O 0.13928 0.7996 0.93094 0.0
O366 O 0.16095 0.81398 0.91689 0.0
C367 C 0.1558 0.78321 0.02203 0.0
O368 O 0.18474 0.78992 0.95588 0.0
Co369 Co 0.16878 0.757 0.96594 0.0
O370 O 0.18946 0.76573 0.9887 0.0
C371 C 0.16235 0.7678 0.86301 0.0
C372 C 0.14551 0.81284 0.91532 0.0
C373 C 0.19413 0.77963 0.97621 0.0
O374 O 0.16199 0.78251 0.87672 0.0
O375 O 0.16389 0.75604 0.89298 0.0
O376 O 0.15841 0.79834 0.01538 0.0
O377 O 0.15503 0.77469 0.98215 0.0
Co378 Co 0.95927 0.40957 0.70374 0.0
O379 O 0.9521 0.38795 0.69453 0.0
O380 O 0.93855 0.40932 0.67144 0.0
C381 C 0.96752 0.40648 0.78318 0.0
O382 O 0.96249 0.43371 0.70979 0.0
Co383 Co 0.99507 0.41672 0.72642 0.0
O384 O 0.98671 0.43817 0.74307 0.0
C385 C 0.98527 0.40667 0.62616 0.0
C386 C 0.93929 0.39386 0.67484 0.0
C387 C 0.97302 0.44306 0.72919 0.0
O388 O 0.97051 0.40912 0.63701 0.0
O389 O 0.99656 0.40731 0.65813 0.0
O390 O 0.9525 0.40884 0.77385 0.0
O391 O 0.97646 0.40461 0.74469 0.0
Co392 Co 0.34656 0.79234 0.02334 0.0
O393 O 0.36827 0.79852 0.0366 0.0
O394 O 0.34712 0.81262 0.05824 0.0
C395 C 0.35109 0.78514 0.9438 0.0
O396 O 0.32241 0.79045 0.01383 0.0
Co397 Co 0.33707 0.75796 -0.00857 0.0
O398 O 0.31733 0.76857 0.96828 0.0
C399 C 0.34328 0.76526 0.0978 0.0
C400 C 0.36256 0.81135 0.05683 0.0
C401 C 0.31294 0.78173 0.98753 0.0
O402 O 0.34553 0.78015 0.08823 0.0
O403 O 0.3404 0.75469 0.06459 0.0
O404 O 0.34855 0.80004 0.95462 0.0
O405 O 0.35164 0.77544 0.98093 0.0
Co406 Co 0.96182 0.59563 0.77635 0.0
O407 O 0.95508 0.61725 0.78782 0.0
O408 O 0.94113 0.59593 0.80886 0.0
C409 C 0.96983 0.59963 0.69717 0.0
O410 O 0.96451 0.57155 0.76799 0.0
Co411 Co 0.99718 0.58778 0.75055 0.0
O412 O 0.98799 0.56694 0.73025 0.0
C413 C 0.98819 0.59673 0.85318 0.0
C414 C 0.94214 0.61141 0.8069 0.0
C415 C 0.9744 0.56222 0.74558 0.0
O416 O 0.97327 0.59524 0.84273 0.0
O417 O 0.9993 0.59582 0.82062 0.0
O418 O 0.95487 0.59702 0.70661 0.0
O419 O 0.97896 0.6009 0.73548 0.0
Co420 Co 0.15843 0.2119 0.53013 0.0
O421 O 0.1367 0.20605 0.54492 0.0
O422 O 0.15759 0.19055 0.55763 0.0
C423 C 0.15342 0.22215 0.45393 0.0
O424 O 0.18251 0.2132 0.51766 0.0
Co425 Co 0.16894 0.24696 0.50947 0.0
O426 O 0.18817 0.23669 0.48156 0.0
C427 C 0.16346 0.23608 0.61302 0.0
C428 C 0.14222 0.19238 0.55962 0.0
C429 C 0.19216 0.22266 0.4947 0.0
O430 O 0.16088 0.22163 0.59872 0.0
O431 O 0.16612 0.24772 0.58337 0.0
O432 O 0.155 0.20683 0.45955 0.0
O433 O 0.15372 0.2304 0.49439 0.0
Co434 Co 0.54419 0.41021 0.2791 0.0
O435 O 0.5501 0.38808 0.28554 0.0
O436 O 0.56491 0.40839 0.31057 0.0
C437 C 0.53553 0.40869 0.19969 0.0
O438 O 0.54255 0.43453 0.27627 0.0
Co439 Co 0.50884 0.41999 0.25884 0.0
O440 O 0.51816 0.44146 0.24833 0.0
C441 C 0.51832 0.40786 0.35713 0.0
C442 C 0.56328 0.39305 0.30552 0.0
C443 C 0.53236 0.44493 0.26111 0.0
O444 O 0.53316 0.40964 0.3461 0.0
O445 O 0.507 0.40953 0.32564 0.0
O446 O 0.5507 0.40993 0.20877 0.0
O447 O 0.52656 0.40692 0.23818 0.0
C448 C 0.28896 0.29987 0.96515 0.0
C449 C 0.295 0.28478 0.97783 0.0
C450 C 0.27251 0.30313 0.96808 0.0
C451 C 0.26189 0.29102 0.98395 0.0
C452 C 0.26797 0.27591 -0.00236 0.0
C453 C 0.28436 0.273 -0.00553 0.0
C454 C 0.26647 0.31939 0.9533 0.0
C455 C 0.2571 0.26261 0.0147 0.0
C456 C 0.2197 0.29686 0.03147 0.0
C457 C 0.21092 0.29052 -0.00827 0.0
C458 C 0.23637 0.29829 0.0283 0.0
C459 C 0.2443 0.29355 0.98402 0.0
C460 C 0.23523 0.2886 0.94226 0.0
C461 C 0.21867 0.28693 0.94688 0.0
C462 C 0.24558 0.30349 0.07381 0.0
C463 C 0.2431 0.28376 0.89397 0.0
H464 H 0.29704 0.30909 0.95246 0.0
H465 H 0.28879 0.26131 0.00459 0.0
H466 H 0.25867 0.31833 0.92006 0.0
H467 H 0.25914 0.32453 0.98374 0.0
H468 H 0.27631 0.32779 0.94455 0.0
H469 H 0.26378 0.25178 0.02611 0.0
H470 H 0.24975 0.26665 0.04666 0.0
H471 H 0.24883 0.2593 0.98411 0.0
H472 H 0.21371 0.29954 0.06628 0.0
H473 H 0.21184 0.28214 0.91599 0.0
H474 H 0.2552 0.31193 0.06349 0.0
H475 H 0.25128 0.29293 0.0912 0.0
H476 H 0.23776 0.30923 0.102 0.0
H477 H 0.25242 0.29249 0.88329 0.0
H478 H 0.23438 0.28277 0.86296 0.0
H479 H 0.24898 0.27203 0.89887 0.0
C480 C 0.9608 0.96885 0.27918 0.0
C481 C 0.97207 0.96106 0.24924 0.0
C482 C 0.959 0.98554 0.27718 0.0
C483 C 0.96861 0.99457 0.24418 0.0
C484 C 0.9793 0.98663 0.21181 0.0
C485 C 0.98094 0.97003 0.21488 0.0
C486 C 0.94745 0.99354 0.31221 0.0
C487 C 0.98963 0.99575 0.17555 0.0
C488 C 0.96125 0.03834 0.21367 0.0
C489 C 0.97295 0.04583 0.24292 0.0
C490 C 0.95916 0.02169 0.21517 0.0
C491 C 0.96891 0.01234 0.24686 0.0
C492 C 0.98016 0.01994 0.27823 0.0
C493 C 0.98206 0.03653 0.27577 0.0
C494 C 0.94702 0.01405 0.18122 0.0
C495 C 0.9907 0.01047 0.31296 0.0
H496 H 0.95386 0.96202 0.30574 0.0
H497 H 0.9895 0.9641 0.19097 0.0
H498 H 0.95417 1.00006 0.34143 0.0
H499 H 0.9401 1.00241 0.29194 0.0
H500 H 0.93942 0.98483 0.33073 0.0
H501 H 0.99619 0.98773 0.14978 0.0
H502 H 0.98228 0.00407 0.15311 0.0
H503 H 0.99843 0.00301 0.19647 0.0
H504 H 0.95412 0.04541 0.18827 0.0
H505 H 0.99096 0.04218 0.29911 0.0
H506 H 0.93959 0.00542 0.20221 0.0
H507 H 0.95323 0.00731 0.15142 0.0
H508 H 0.93909 0.023 0.16343 0.0
H509 H 0.9834 1.0024 0.33644 0.0
H510 H 0.99792 0.01824 0.33776 0.0
H511 H 0.99892 0.00291 0.29082 0.0
C512 C 0.21847 0.72846 0.52114 0.0
C513 C 0.2096 0.71957 0.48657 0.0
C514 C 0.23502 0.7266 0.52522 0.0
C515 C 0.24299 0.71569 0.49362 0.0
C516 C 0.234 0.70596 0.4608 0.0
C517 C 0.21738 0.70797 0.45782 0.0
C518 C 0.24407 0.73705 0.5613 0.0
C519 C 0.24203 0.69417 0.42658 0.0
C520 C 0.28457 0.72953 0.46018 0.0
C521 C 0.2941 0.72074 0.49321 0.0
C522 C 0.26803 0.72737 0.4583 0.0
C523 C 0.26072 0.71617 0.49047 0.0
C524 C 0.27031 0.70668 0.52227 0.0
C525 C 0.28693 0.70904 0.52316 0.0
C526 C 0.25832 0.73762 0.42335 0.0
C527 C 0.26297 0.6946 0.55701 0.0
H528 H 0.21252 0.73725 0.54416 0.0
H529 H 0.21061 0.70101 0.43113 0.0
H530 H 0.2525 0.72981 0.58367 0.0
H531 H 0.25118 0.74593 0.5402 0.0
H532 H 0.23602 0.74354 0.58713 0.0
H533 H 0.23335 0.68587 0.40912 0.0
H534 H 0.24833 0.7007 0.3965 0.0
H535 H 0.25106 0.68711 0.44715 0.0
H536 H 0.29001 0.73842 0.43627 0.0
H537 H 0.2942 0.70216 0.5487 0.0
H538 H 0.25071 0.74584 0.44531 0.0
H539 H 0.25031 0.73008 0.40038 0.0
H540 H 0.26591 0.74484 0.39803 0.0
H541 H 0.25645 0.70087 0.58715 0.0
H542 H 0.27207 0.68674 0.57432 0.0
H543 H 0.25421 0.68708 0.53683 0.0
C544 C 0.52773 0.03446 0.70692 0.0
C545 C 0.53638 0.04433 0.73939 0.0
C546 C 0.5298 0.01788 0.70704 0.0
C547 C 0.54081 0.01089 0.74052 0.0
C548 C 0.55039 0.02084 0.77098 0.0
C549 C 0.54808 0.03747 0.77003 0.0
C550 C 0.51943 0.0078 0.6735 0.0
C551 C 0.5624 0.01387 0.80672 0.0
C552 C 0.52721 0.9699 0.78145 0.0
C553 C 0.5356 0.95988 0.74877 0.0
C554 C 0.52958 0.98644 0.78125 0.0
C555 C 0.54064 0.99325 0.74755 0.0
C556 C 0.54992 0.98315 0.71677 0.0
C557 C 0.5473 0.96657 0.71773 0.0
C558 C 0.51951 0.99672 0.81508 0.0
C559 C 0.56197 0.98991 0.68077 0.0
H560 H 0.51886 0.03965 0.68243 0.0
H561 H 0.55487 0.04499 0.79511 0.0
H562 H 0.52678 0.99911 0.6525 0.0
H563 H 0.51088 1.00089 0.69651 0.0
H564 H 0.51257 0.01509 0.64642 0.0
H565 H 0.57071 0.02307 0.82126 0.0
H566 H 0.55606 0.00842 0.83877 0.0
H567 H 0.56941 0.00431 0.78843 0.0
H568 H 0.51834 0.96487 0.80622 0.0
H569 H 0.55393 0.95895 0.69254 0.0
H570 H 0.51105 0.00381 0.7923 0.0
H571 H 0.5271 0.00524 0.83595 0.0
H572 H 0.51257 0.98954 0.84228 0.0
H573 H 0.55566 0.99557 0.64902 0.0
H574 H 0.57001 0.98055 0.66579 0.0
H575 H 0.56927 0.99926 0.69902 0.0
C576 C 0.71739 0.70788 0.01946 0.0
C577 C 0.7102 0.7192 0.98816 0.0
C578 C 0.73402 0.70568 0.01932 0.0
C579 C 0.74363 0.71497 0.987 0.0
C580 C 0.7363 0.72562 0.95311 0.0
C581 C 0.71973 0.72762 0.95416 0.0
C582 C 0.74136 0.6941 0.05572 0.0
C583 C 0.74604 0.73565 0.91761 0.0
C584 C 0.78506 0.72862 0.02295 0.0
C585 C 0.79472 0.71967 -0.00929 0.0
C586 C 0.76851 0.7265 0.02413 0.0
C587 C 0.76132 0.71514 -0.00776 0.0
C588 C 0.77104 0.70536 0.96177 0.0
C589 C 0.78765 0.70773 0.96138 0.0
C590 C 0.75863 0.73709 0.05758 0.0
C591 C 0.76386 0.69302 0.92759 0.0
H592 H 0.71013 0.70128 0.04573 0.0
H593 H 0.71428 0.7362 0.92922 0.0
H594 H 0.75059 0.68675 0.03715 0.0
H595 H 0.74729 0.70082 0.08614 0.0
H596 H 0.73231 0.68608 0.07257 0.0
H597 H 0.73848 0.74223 0.89054 0.0
H598 H 0.75315 0.74444 0.93908 0.0
H599 H 0.75452 0.72807 0.89657 0.0
H600 H 0.79039 0.7377 0.0464 0.0
H601 H 0.795 0.70069 0.93651 0.0
H602 H 0.75025 0.72983 0.08008 0.0
H603 H 0.7514 0.74533 0.03441 0.0
H604 H 0.76609 0.74431 0.08329 0.0
H605 H 0.75473 0.68589 0.94755 0.0
H606 H 0.77301 0.68482 0.91219 0.0
H607 H 0.75782 0.69906 0.89603 0.0
C608 C 0.02375 0.96877 0.71233 0.0
C609 C 0.03332 0.95977 0.74473 0.0
C610 C 0.02524 0.98539 0.70936 0.0
C611 C 0.03651 0.99333 0.73983 0.0
C612 C 0.04678 0.98428 0.77076 0.0
C613 C 0.04511 0.96758 0.7727 0.0
C614 C 0.01419 0.99453 0.67534 0.0
C615 C 0.05895 0.99227 0.80378 0.0
C616 C 0.04346 0.03713 0.70876 0.0
C617 C 0.03236 0.0446 0.74014 0.0
C618 C 0.04547 0.02046 0.70951 0.0
C619 C 0.03627 0.01109 0.74272 0.0
C620 C 0.02565 0.01868 0.77615 0.0
C621 C 0.02378 0.03528 0.7743 0.0
C622 C 0.05691 0.01284 0.67326 0.0
C623 C 0.01575 0.00919 0.81264 0.0
H624 H 0.01476 0.96284 0.68999 0.0
H625 H 0.05258 0.96074 0.7978 0.0
H626 H 0.00579 1.00172 0.69805 0.0
H627 H 0.02105 0.00292 0.65169 0.0
H628 H 0.00715 0.98653 0.65073 0.0
H629 H 0.06731 0.98357 0.82076 0.0
H630 H 0.0659 1.00118 0.78233 0.0
H631 H 0.05277 0.99875 0.8342 0.0
H632 H 0.05017 0.04422 0.6823 0.0
H633 H 0.01535 0.04094 0.79924 0.0
H634 H 0.05011 0.00606 0.64481 0.0
H635 H 0.06477 0.00424 0.69279 0.0
H636 H 0.06443 0.02179 0.65387 0.0
H637 H 0.0071 1.00168 0.79197 0.0
H638 H 0.00905 0.01695 0.83881 0.0
H639 H 0.02346 1.00107 0.83464 0.0
C640 C 0.71843 0.27895 0.53319 0.0
C641 C 0.7091 0.28499 0.4941 0.0
C642 C 0.73504 0.28076 0.53335 0.0
C643 C 0.74259 0.28867 0.49316 0.0
C644 C 0.73317 0.29569 0.45518 0.0
C645 C 0.71651 0.29384 0.45622 0.0
C646 C 0.74456 0.27329 0.57502 0.0
C647 C 0.74075 0.30426 0.41177 0.0
C648 C 0.78702 0.29658 0.51011 0.0
C649 C 0.79367 0.28292 0.48814 0.0
C650 C 0.77042 0.29907 0.51013 0.0
C651 C 0.76025 0.28761 0.48788 0.0
C652 C 0.76697 0.27419 0.46381 0.0
C653 C 0.78352 0.27204 0.46412 0.0
C654 C 0.76373 0.31363 0.53569 0.0
C655 C 0.75661 0.26166 0.4395 0.0
H656 H 0.71277 0.27233 0.56305 0.0
H657 H 0.70939 0.29856 0.42592 0.0
H658 H 0.75125 0.26288 0.56041 0.0
H659 H 0.7534 0.28189 0.58989 0.0
H660 H 0.73687 0.26918 0.60619 0.0
H661 H 0.73187 0.31109 0.38968 0.0
H662 H 0.75015 0.31255 0.42492 0.0
H663 H 0.74651 0.29544 0.38682 0.0
H664 H 0.79471 0.30512 0.52852 0.0
H665 H 0.78846 0.26152 0.44652 0.0
H666 H 0.7575 0.30999 0.57036 0.0
H667 H 0.75483 0.3196 0.51147 0.0
H668 H 0.77317 0.32235 0.5456 0.0
H669 H 0.74928 0.25563 0.4683 0.0
H670 H 0.7637 0.25248 0.41958 0.0
H671 H 0.74831 0.26729 0.41255 0.0
C672 C 0.45613 0.96743 0.20816 0.0
C673 C 0.46871 0.96103 0.23631 0.0
C674 C 0.45327 0.98398 0.2073 0.0
C675 C 0.46318 0.99432 0.23533 0.0
C676 C 0.47531 0.98781 0.26584 0.0
C677 C 0.47791 0.97131 0.2659 0.0
C678 C 0.44014 0.99044 0.17462 0.0
C679 C 0.48609 0.99834 0.29671 0.0
C680 C 0.47407 0.03615 0.19556 0.0
C681 C 0.46626 0.04542 0.23157 0.0
C682 C 0.47215 0.01956 0.19393 0.0
C683 C 0.46222 0.01197 0.22936 0.0
C684 C 0.45332 0.02136 0.26333 0.0
C685 C 0.45542 0.03802 0.26397 0.0
C686 C 0.48171 0.01007 0.15659 0.0
C687 C 0.44248 0.01376 0.30135 0.0
H688 H 0.4489 0.9596 0.18533 0.0
H689 H 0.48749 0.96651 0.28847 0.0
H690 H 0.43305 0.9995 0.19498 0.0
H691 H 0.44544 0.99642 0.14165 0.0
H692 H 0.43203 0.98088 0.16131 0.0
H693 H 0.49414 0.99135 0.32125 0.0
H694 H 0.49349 0.00583 0.2717 0.0
H695 H 0.47891 0.00648 0.32028 0.0
H696 H 0.48226 0.0418 0.16976 0.0
H697 H 0.44927 0.0451 0.29177 0.0
H698 H 0.47405 1.00117 0.13758 0.0
H699 H 0.49126 0.00344 0.17629 0.0
H700 H 0.48732 0.01779 0.12789 0.0
H701 H 0.43525 0.00416 0.28409 0.0
H702 H 0.43435 0.0226 0.31875 0.0
H703 H 0.44978 0.00824 0.33121 0.0
C704 C 0.71711 0.79625 0.52198 0.0
C705 C 0.70913 0.78633 0.48808 0.0
C706 C 0.73376 0.79814 0.51966 0.0
C707 C 0.74254 0.79008 0.4822 0.0
C708 C 0.73434 0.78108 0.44566 0.0
C709 C 0.71778 0.77922 0.44928 0.0
C710 C 0.74204 0.80785 0.55931 0.0
C711 C 0.74314 0.77251 0.40453 0.0
C712 C 0.78668 0.79728 0.45681 0.0
C713 C 0.79361 0.78412 0.48089 0.0
C714 C 0.7701 0.79984 0.45849 0.0
C715 C 0.76026 0.78904 0.48498 0.0
C716 C 0.76729 0.77619 0.51114 0.0
C717 C 0.7838 0.77389 0.50873 0.0
C718 C 0.76306 0.81371 0.43027 0.0
C719 C 0.7573 0.76442 0.54017 0.0
H720 H 0.71048 0.80179 0.55201 0.0
H721 H 0.71164 0.77175 0.42244 0.0
H722 H 0.7482 0.79971 0.58564 0.0
H723 H 0.75123 0.81569 0.54251 0.0
H724 H 0.73354 0.81531 0.58082 0.0
H725 H 0.73494 0.76772 0.37568 0.0
H726 H 0.75179 0.78063 0.38627 0.0
H727 H 0.74999 0.76243 0.42059 0.0
H728 H 0.79414 0.80529 0.43535 0.0
H729 H 0.789 0.76382 0.52812 0.0
H730 H 0.75457 0.82036 0.45415 0.0
H731 H 0.75629 0.80921 0.39765 0.0
H732 H 0.77236 0.82208 0.41672 0.0
H733 H 0.74945 0.7708 0.56679 0.0
H734 H 0.76468 0.75576 0.56132 0.0
H735 H 0.74951 0.75768 0.5142 0.0
C736 C 0.47791 0.47085 0.70128 0.0
C737 C 0.47005 0.4615 0.73702 0.0
C738 C 0.47615 0.48747 0.70029 0.0
C739 C 0.46633 0.49503 0.73607 0.0
C740 C 0.45753 0.4856 0.77021 0.0
C741 C 0.45946 0.46892 0.77021 0.0
C742 C 0.48561 0.49701 0.6628 0.0
C743 C 0.44684 0.49317 0.80871 0.0
C744 C 0.48104 0.53631 0.77056 0.0
C745 C 0.47138 0.5462 0.74107 0.0
C746 C 0.47895 0.51973 0.77105 0.0
C747 C 0.46692 0.51273 0.74122 0.0
C748 C 0.45662 0.52266 0.71316 0.0
C749 C 0.45895 0.53929 0.71346 0.0
C750 C 0.49013 0.50963 0.8019 0.0
C751 C 0.4436 0.51567 0.68108 0.0
H752 H 0.48592 0.46522 0.67493 0.0
H753 H 0.4533 0.4618 0.79787 0.0
H754 H 0.47782 0.50571 0.64348 0.0
H755 H 0.49502 0.50388 0.6824 0.0
H756 H 0.49138 0.48931 0.63436 0.0
H757 H 0.43904 0.48427 0.82727 0.0
H758 H 0.45425 0.49904 0.83762 0.0
H759 H 0.43927 0.5025 0.79147 0.0
H760 H 0.49054 0.5415 0.79262 0.0
H761 H 0.45138 0.5468 0.69069 0.0
H762 H 0.49767 0.50228 0.7769 0.0
H763 H 0.48328 0.50135 0.82595 0.0
H764 H 0.49806 0.51695 0.82594 0.0
H765 H 0.44899 0.5094 0.6488 0.0
H766 H 0.43536 0.52496 0.66673 0.0
H767 H 0.43662 0.50675 0.70239 0.0
C768 C 0.7174 0.20827 0.95792 0.0
C769 C 0.71012 0.21894 -0.00883 0.0
C770 C 0.73403 0.20601 0.95838 0.0
C771 C 0.74351 0.21453 -0.00689 0.0
C772 C 0.73605 0.22441 0.02894 0.0
C773 C 0.7195 0.22653 0.0274 0.0
C774 C 0.74151 0.19529 0.91978 0.0
C775 C 0.74563 0.23355 0.06709 0.0
C776 C 0.78758 0.20689 0.01757 0.0
C777 C 0.79461 0.21948 -0.00899 0.0
C778 C 0.77097 0.2045 0.01662 0.0
C779 C 0.76121 0.21492 0.98837 0.0
C780 C 0.76837 0.22705 0.95931 0.0
C781 C 0.78491 0.22918 0.96103 0.0
C782 C 0.76381 0.19136 0.04782 0.0
C783 C 0.75847 0.23836 0.92829 0.0
H784 H 0.71023 0.20232 0.92993 0.0
H785 H 0.71394 0.23456 0.05385 0.0
H786 H 0.74751 0.20269 0.8911 0.0
H787 H 0.75071 0.18756 0.93699 0.0
H788 H 0.73253 0.18765 0.90094 0.0
H789 H 0.73796 0.23937 0.0955 0.0
H790 H 0.75412 0.22552 0.08641 0.0
H791 H 0.75273 0.24292 0.04807 0.0
H792 H 0.79496 0.19928 0.04065 0.0
H793 H 0.79022 0.23878 0.93966 0.0
H794 H 0.75477 0.18465 0.02613 0.0
H795 H 0.75767 0.19663 0.08052 0.0
H796 H 0.77298 0.18289 0.06152 0.0
H797 H 0.7502 0.23161 0.90391 0.0
H798 H 0.76592 0.24625 0.90457 0.0
H799 H 0.75113 0.24595 0.95319 0.0
C800 C 0.02519 0.46874 0.27825 0.0
C801 C 0.03309 0.45922 0.24302 0.0
C802 C 0.02711 0.48534 0.27891 0.0
C803 C 0.03713 0.49271 0.24328 0.0
C804 C 0.0459 0.48313 0.20952 0.0
C805 C 0.04381 0.46647 0.20987 0.0
C806 C 0.01769 0.49505 0.31603 0.0
C807 C 0.05678 0.49052 0.17118 0.0
C808 C 0.02317 0.5343 0.20951 0.0
C809 C 0.03289 0.54393 0.23963 0.0
C810 C 0.02505 0.51769 0.20837 0.0
C811 C 0.03691 0.51043 0.23825 0.0
C812 C 0.04732 0.52011 0.26677 0.0
C813 C 0.04521 0.53676 0.26704 0.0
C814 C 0.01379 0.50786 0.17697 0.0
C815 C 0.06015 0.51284 0.29894 0.0
H816 H 0.01707 0.46324 0.30457 0.0
H817 H 0.05 0.45923 0.18258 0.0
H818 H 0.02558 0.50358 0.33574 0.0
H819 H 0.00852 0.50212 0.29607 0.0
H820 H 0.01163 0.48746 0.34418 0.0
H821 H 0.06443 0.48149 0.15265 0.0
H822 H 0.04952 0.49656 0.14223 0.0
H823 H 0.06451 0.4997 0.18858 0.0
H824 H 0.01376 0.53971 0.1876 0.0
H825 H 0.05283 0.54407 0.29033 0.0
H826 H 0.00597 0.50067 0.20161 0.0
H827 H 0.02056 0.49944 0.15318 0.0
H828 H 0.00614 0.51537 0.15264 0.0
H829 H 0.05459 0.50669 0.33117 0.0
H830 H 0.06858 0.52195 0.31338 0.0
H831 H 0.06696 0.50376 0.27771 0.0
C832 C 0.28354 0.22737 0.52349 0.0
C833 C 0.29342 0.21895 0.49055 0.0
C834 C 0.26702 0.22495 0.52404 0.0
C835 C 0.26011 0.21381 0.49079 0.0
C836 C 0.27008 0.20451 0.45966 0.0
C837 C 0.28665 0.20718 0.45991 0.0
C838 C 0.25688 0.23503 0.55825 0.0
C839 C 0.2632 0.19239 0.42408 0.0
C840 C 0.21622 0.20626 0.51726 0.0
C841 C 0.20907 0.218 0.48743 0.0
C842 C 0.23283 0.2039 0.51639 0.0
C843 C 0.24244 0.21348 0.48493 0.0
C844 C 0.23511 0.22445 0.45204 0.0
C845 C 0.21856 0.22657 0.45372 0.0
C846 C 0.24015 0.19192 0.55152 0.0
C847 C 0.24483 0.2348 0.41742 0.0
H848 H 0.28865 0.2363 0.54794 0.0
H849 H 0.29417 0.20054 0.43448 0.0
H850 H 0.24956 0.24336 0.53572 0.0
H851 H 0.24858 0.2274 0.57985 0.0
H852 H 0.26415 0.24212 0.58482 0.0
H853 H 0.2725 0.18435 0.4088 0.0
H854 H 0.25395 0.18508 0.44279 0.0
H855 H 0.25739 0.19865 0.3925 0.0
H856 H 0.20899 0.19952 0.54326 0.0
H857 H 0.21312 0.23547 0.42985 0.0
H858 H 0.24579 0.19829 0.5832 0.0
H859 H 0.2496 0.18497 0.53249 0.0
H860 H 0.23112 0.18354 0.5667 0.0
H861 H 0.2518 0.24352 0.43965 0.0
H862 H 0.23727 0.24148 0.39063 0.0
H863 H 0.25344 0.22745 0.39608 0.0
C864 C 0.53366 0.47161 0.30063 0.0
C865 C 0.53684 0.46185 0.25955 0.0
C866 C 0.53467 0.48828 0.29666 0.0
C867 C 0.53883 0.49527 0.25033 0.0
C868 C 0.54299 0.48534 0.20961 0.0
C869 C 0.54184 0.4687 0.21465 0.0
C870 C 0.53017 0.49839 0.34102 0.0
C871 C 0.54754 0.49227 0.15967 0.0
C872 C 0.51897 0.53504 0.22432 0.0
C873 C 0.53135 0.5459 0.23301 0.0
C874 C 0.52145 0.51856 0.22839 0.0
C875 C 0.53661 0.51275 0.24269 0.0
C876 C 0.54924 0.52364 0.25104 0.0
C877 C 0.54651 0.54011 0.24553 0.0
C878 C 0.50772 0.50739 0.21804 0.0
C879 C 0.56549 0.51791 0.2671 0.0
H880 H 0.52959 0.46622 0.33512 0.0
H881 H 0.5441 0.46106 0.1828 0.0
H882 H 0.53904 0.50802 0.34678 0.0
H883 H 0.51849 0.50416 0.33399 0.0
H884 H 0.52924 0.49125 0.37578 0.0
H885 H 0.55263 0.48312 0.13433 0.0
H886 H 0.53682 0.49744 0.14166 0.0
H887 H 0.55633 0.50202 0.16432 0.0
H888 H 0.50728 0.53945 0.21407 0.0
H889 H 0.55608 0.54849 0.25258 0.0
H890 H 0.50464 0.5007 0.2524 0.0
H891 H 0.51118 0.49852 0.18932 0.0
H892 H 0.49693 0.51379 0.2049 0.0
H893 H 0.56461 0.5121 0.30417 0.0
H894 H 0.57426 0.5278 0.26956 0.0
H895 H 0.57003 0.50884 0.2406 0.0
C896 C 0.28685 0.78005 0.94323 0.0
C897 C 0.29588 0.78609 0.983 0.0
C898 C 0.27025 0.7818 0.94192 0.0
C899 C 0.26239 0.78963 0.98168 0.0
C900 C 0.27151 0.79667 0.02034 0.0
C901 C 0.28819 0.79489 0.02041 0.0
C902 C 0.26105 0.77434 0.89952 0.0
C903 C 0.26361 0.80514 0.06333 0.0
C904 C 0.21807 0.79723 0.96147 0.0
C905 C 0.21135 0.78343 0.98244 0.0
C906 C 0.23463 0.79988 0.96293 0.0
C907 C 0.2447 0.78845 0.98576 0.0
C908 C 0.23789 0.77493 0.00904 0.0
C909 C 0.22137 0.77261 0.00718 0.0
C910 C 0.24141 0.81453 0.93814 0.0
C911 C 0.24814 0.76246 0.03403 0.0
H912 H 0.29275 0.77346 0.91376 0.0
H913 H 0.29508 0.7996 0.05126 0.0
H914 H 0.25432 0.76387 0.91354 0.0
H915 H 0.25226 0.78291 0.88419 0.0
H916 H 0.26897 0.77033 0.86881 0.0
H917 H 0.27229 0.81204 0.08597 0.0
H918 H 0.25421 0.81335 0.04969 0.0
H919 H 0.25777 0.79625 0.08791 0.0
H920 H 0.21046 0.80573 0.9425 0.0
H921 H 0.21636 0.762 0.0241 0.0
H922 H 0.24782 0.81101 0.90369 0.0
H923 H 0.25016 0.82047 0.96297 0.0
H924 H 0.23199 0.82325 0.928 0.0
H925 H 0.25569 0.75647 0.00571 0.0
H926 H 0.24095 0.75323 0.05343 0.0
H927 H 0.25623 0.76812 0.06155 0.0
C928 C 0.9577 0.46786 0.70615 0.0
C929 C 0.96968 0.46039 0.7342 0.0
C930 C 0.9558 0.48455 0.7073 0.0
C931 C 0.96606 0.49393 0.73736 0.0
C932 C 0.9776 0.48634 0.76763 0.0
C933 C 0.97927 0.46973 0.76561 0.0
C934 C 0.94331 0.49219 0.67465 0.0
C935 C 0.9887 0.49581 0.80063 0.0
C936 C 0.97858 0.53595 0.70367 0.0
C937 C 0.97043 0.54508 0.73931 0.0
C938 C 0.97642 0.5194 0.70053 0.0
C939 C 0.96596 0.51169 0.73418 0.0
C940 C 0.95702 0.52092 0.76844 0.0
C941 C 0.9593 0.53754 0.77046 0.0
C942 C 0.98603 0.51007 0.66293 0.0
C943 C 0.94574 0.51317 0.8049 0.0
H944 H 0.9502 0.46076 0.68189 0.0
H945 H 0.9884 0.46409 0.78809 0.0
H946 H 0.93633 0.50106 0.69614 0.0
H947 H 0.9492 0.49865 0.64363 0.0
H948 H 0.935 0.48326 0.6585 0.0
H949 H 0.99617 0.48805 0.82471 0.0
H950 H 0.9967 0.50322 0.77718 0.0
H951 H 0.98181 0.50403 0.8248 0.0
H952 H 0.98698 0.5417 0.67882 0.0
H953 H 0.95291 0.5445 0.79798 0.0
H954 H 0.97823 0.50181 0.6418 0.0
H955 H 0.99505 0.50274 0.68265 0.0
H956 H 0.9923 0.51796 0.63604 0.0
H957 H 0.93803 0.50435 0.78569 0.0
H958 H 0.93806 0.52204 0.82405 0.0
H959 H 0.95268 0.50663 0.83356 0.0
C960 C 0.16176 0.26042 0.90157 0.0
C961 C 0.15775 0.27663 0.90456 0.0
C962 C 0.16292 0.25267 0.85552 0.0
C963 C 0.15946 0.26119 0.81141 0.0
C964 C 0.15506 0.27748 0.81414 0.0
C965 C 0.15448 0.2851 0.86077 0.0
C966 C 0.16813 0.23544 0.85405 0.0
C967 C 0.15097 0.28685 0.76782 0.0
C968 C 0.17624 0.24792 0.68721 0.0
C969 C 0.16321 0.23995 0.66629 0.0
C970 C 0.17538 0.25433 0.73533 0.0
C971 C 0.16094 0.25318 0.76228 0.0
C972 C 0.14787 0.24473 0.74174 0.0
C973 C 0.14924 0.23801 0.69397 0.0
C974 C 0.18975 0.26277 0.75663 0.0
C975 C 0.1322 0.24351 0.76908 0.0
H976 H 0.16426 0.25377 0.93524 0.0
H977 H 0.15125 0.29758 0.86303 0.0
H978 H 0.15883 0.22802 0.83601 0.0
H979 H 0.17911 0.23428 0.83131 0.0
H980 H 0.17053 0.23056 0.89182 0.0
H981 H 0.14693 0.29915 0.77656 0.0
H982 H 0.16153 0.28761 0.7431 0.0
H983 H 0.14144 0.28067 0.74664 0.0
H984 H 0.187 0.24945 0.66533 0.0
H985 H 0.13911 0.23206 0.67711 0.0
H986 H 0.19251 0.25811 0.79438 0.0
H987 H 0.18719 0.27568 0.76055 0.0
H988 H 0.20046 0.26136 0.73271 0.0
H989 H 0.13405 0.23844 0.80683 0.0
H990 H 0.12343 0.23599 0.74885 0.0
H991 H 0.12708 0.2556 0.774 0.0
C992 C 0.01957 0.91805 0.95195 0.0
C993 C 0.01443 0.90697 0.91642 0.0
C994 C 0.01307 0.91805 0.00023 0.0
C995 C 1.00153 0.90642 0.01318 0.0
C996 C 0.99702 0.89467 0.97806 0.0
C997 C 0.00336 0.89525 0.92982 0.0
C998 C 0.01794 0.93092 0.03648 0.0
C999 C 0.98515 0.88179 -0.00909 0.0
C1000 C 0.993 0.89865 0.14977 0.0
C1001 C 0.97839 0.90647 0.15622 0.0
C1002 C 1.00068 0.89854 0.10341 0.0
C1003 C 0.99374 0.90677 0.06287 0.0
C1004 C 0.97906 0.91486 0.06933 0.0
C1005 C 0.97143 0.91444 0.11592 0.0
C1006 C 0.01609 0.88944 0.09767 0.0
C1007 C 0.97146 0.92401 0.02709 0.0
H1008 H 0.02798 0.92724 0.94115 0.0
H1009 H 0.99943 0.88669 0.9021 0.0
H1010 H 0.00748 0.93849 0.0454 0.0
H1011 H 0.0221 0.92556 0.07198 0.0
H1012 H 0.02755 0.93864 0.02139 0.0
H1013 H 0.98397 0.87279 0.96073 0.0
H1014 H 0.98875 0.87561 0.02572 0.0
H1015 H 0.97329 0.88719 -0.00234 0.0
H1016 H 0.99837 0.89243 0.18097 0.0
H1017 H 0.96023 0.92063 0.12111 0.0
H1018 H 0.02571 0.89758 0.08525 0.0
H1019 H 0.01473 0.88014 0.06854 0.0
H1020 H 0.01987 0.88361 0.13293 0.0
H1021 H 0.97997 0.93293 0.01217 0.0
H1022 H 0.96042 0.93027 0.03886 0.0
H1023 H 0.96845 0.91576 -0.00385 0.0
C1024 C 0.34189 0.74183 0.3855 0.0
C1025 C 0.34721 0.72618 0.39295 0.0
C1026 C 0.34106 0.74843 0.33768 0.0
C1027 C 0.34631 0.73937 0.29642 0.0
C1028 C 0.35195 0.72362 0.30369 0.0
C1029 C 0.35206 0.71708 0.35195 0.0
C1030 C 0.33439 0.76504 0.33131 0.0
C1031 C 0.35804 0.71377 0.26062 0.0
C1032 C 0.3313 0.75019 0.16763 0.0
C1033 C 0.34371 0.75976 0.14971 0.0
C1034 C 0.3319 0.74368 0.21566 0.0
C1035 C 0.34551 0.74634 0.24562 0.0
C1036 C 0.35812 0.75599 0.22755 0.0
C1037 C 0.35693 0.76284 0.1799 0.0
C1038 C 0.31795 0.73399 0.23433 0.0
C1039 C 0.37298 0.75877 0.25806 0.0
H1040 H 0.3381 0.74892 0.41699 0.0
H1041 H 0.35633 0.70502 0.35779 0.0
H1042 H 0.34357 0.77302 0.31517 0.0
H1043 H 0.32421 0.76479 0.3049 0.0
H1044 H 0.33026 0.77024 0.36713 0.0
H1045 H 0.3627 0.70201 0.27286 0.0
H1046 H 0.34835 0.71176 0.23322 0.0
H1047 H 0.36768 0.7203 0.24103 0.0
H1048 H 0.32108 0.74787 0.14398 0.0
H1049 H 0.36659 0.77008 0.16547 0.0
H1050 H 0.31346 0.73908 0.26985 0.0
H1051 H 0.32178 0.7216 0.24215 0.0
H1052 H 0.30799 0.73364 0.20706 0.0
H1053 H 0.36991 0.76483 0.29353 0.0
H1054 H 0.38189 0.76614 0.23793 0.0
H1055 H 0.3785 0.74717 0.26786 0.0
C1056 C 0.53445 0.10039 0.60181 0.0
C1057 C 0.5256 0.09837 0.64557 0.0
C1058 C 0.52699 0.09984 0.55493 0.0
C1059 C 0.5104 0.09681 0.552 0.0
C1060 C 0.50146 0.09467 0.5961 0.0
C1061 C 0.50913 0.09571 0.64231 0.0
C1062 C 0.53683 0.10248 0.50856 0.0
C1063 C 0.48385 0.091 0.59448 0.0
C1064 C 0.48837 0.10737 0.43278 0.0
C1065 C 0.48895 0.09286 0.40725 0.0
C1066 C 0.49524 0.10884 0.48031 0.0
C1067 C 0.50246 0.09537 0.50277 0.0
C1068 C 0.50231 0.08049 0.47788 0.0
C1069 C 0.49578 0.07949 0.42993 0.0
C1070 C 0.49542 0.12495 0.50542 0.0
C1071 C 0.50943 0.06575 0.50126 0.0
H1072 H 0.54716 0.10257 0.60423 0.0
H1073 H 0.50217 0.09419 0.67594 0.0
H1074 H 0.53672 0.09157 0.48521 0.0
H1075 H 0.5316 0.11224 0.48595 0.0
H1076 H 0.5494 0.10554 0.51734 0.0
H1077 H 0.47864 0.08959 0.6323 0.0
H1078 H 0.47738 0.10066 0.57485 0.0
H1079 H 0.48179 0.07984 0.5732 0.0
H1080 H 0.48333 0.11773 0.41446 0.0
H1081 H 0.49629 0.06833 0.40959 0.0
H1082 H 0.50791 0.12899 0.51023 0.0
H1083 H 0.49007 0.12412 0.54313 0.0
H1084 H 0.48884 0.13409 0.48367 0.0
H1085 H 0.52247 0.0673 0.50558 0.0
H1086 H 0.50723 0.05489 0.47856 0.0
H1087 H 0.5044 0.06385 0.53905 0.0
C1088 C 0.17452 0.75869 0.7842 0.0
C1089 C 0.16102 0.76385 0.81005 0.0
C1090 C 0.17316 0.75214 0.73629 0.0
C1091 C 0.15788 0.7504 0.71458 0.0
C1092 C 0.14423 0.75596 0.74032 0.0
C1093 C 0.14599 0.76272 0.78789 0.0
C1094 C 0.18801 0.74665 0.70961 0.0
C1095 C 0.12775 0.75415 0.71856 0.0
C1096 C 0.15544 0.74412 0.57493 0.0
C1097 C 0.15446 0.72745 0.57142 0.0
C1098 C 0.15652 0.75173 0.62126 0.0
C1099 C 0.15621 0.7425 0.6653 0.0
C1100 C 0.15476 0.72569 0.66216 0.0
C1101 C 0.15406 0.71833 0.61513 0.0
C1102 C 0.15834 0.76964 0.62303 0.0
C1103 C 0.15411 0.71548 0.70848 0.0
H1104 H 0.18608 0.75939 0.8021 0.0
H1105 H 0.13557 0.76645 0.80873 0.0
H1106 H 0.18768 0.73352 0.70474 0.0
H1107 H 0.1886 0.75203 0.67185 0.0
H1108 H 0.19904 0.74983 0.73026 0.0
H1109 H 0.11846 0.75968 0.74246 0.0
H1110 H 0.1272 0.75967 0.68102 0.0
H1111 H 0.12493 0.74131 0.714 0.0
H1112 H 0.15567 0.75128 0.54136 0.0
H1113 H 0.15321 0.70547 0.61259 0.0
H1114 H 0.16972 0.7728 0.64161 0.0
H1115 H 0.1486 0.77499 0.64538 0.0
H1116 H 0.15822 0.77511 0.5853 0.0
H1117 H 0.16542 0.71661 0.72952 0.0
H1118 H 0.15212 0.70269 0.69972 0.0
H1119 H 0.1444 0.71964 0.73333 0.0
C1120 C 0.50521 0.89446 0.0716 0.0
C1121 C 0.4927 0.90505 0.08142 0.0
C1122 C 0.51189 0.89336 0.02387 0.0
C1123 C 0.50625 0.90349 0.98558 0.0
C1124 C 0.49337 0.91398 -0.00494 0.0
C1125 C 0.48657 0.91446 0.04288 0.0
C1126 C 0.52522 0.88164 0.01478 0.0
C1127 C 0.48724 0.92517 0.95534 0.0
C1128 C 0.53472 0.91267 0.87915 0.0
C1129 C 0.52825 0.90338 0.84088 0.0
C1130 C 0.52758 0.91292 0.92654 0.0
C1131 C 0.51402 0.90328 0.93586 0.0
C1132 C 0.50785 0.89346 0.89761 0.0
C1133 C 0.5149 0.89383 0.85033 0.0
C1134 C 0.53428 0.9238 0.96618 0.0
C1135 C 0.49374 0.88265 0.90652 0.0
H1136 H 0.50991 0.88718 0.10159 0.0
H1137 H 0.47705 0.92282 0.05083 0.0
H1138 H 0.52246 0.8741 0.98188 0.0
H1139 H 0.5364 0.88816 0.00648 0.0
H1140 H 0.52733 0.87375 0.04741 0.0
H1141 H 0.47701 0.93242 0.96852 0.0
H1142 H 0.49693 0.93334 0.94352 0.0
H1143 H 0.48348 0.91835 0.92193 0.0
H1144 H 0.54492 0.92019 0.87147 0.0
H1145 H 0.50996 0.88661 0.82056 0.0
H1146 H 0.53789 0.91676 -0.00071 0.0
H1147 H 0.52497 0.93232 0.97855 0.0
H1148 H 0.54474 0.93067 0.95276 0.0
H1149 H 0.49609 0.87476 0.93891 0.0
H1150 H 0.49098 0.8751 0.87357 0.0
H1151 H 0.48307 0.88986 0.91561 0.0
C1152 C 0.34267 0.26246 0.08585 0.0
C1153 C 0.34753 0.27837 0.08095 0.0
C1154 C 0.34131 0.25529 0.13277 0.0
C1155 C 0.3455 0.26408 0.17576 0.0
C1156 C 0.35069 0.28009 0.17108 0.0
C1157 C 0.35138 0.28716 0.12362 0.0
C1158 C 0.33517 0.23839 0.13633 0.0
C1159 C 0.35562 0.2897 0.21612 0.0
C1160 C 0.32886 0.25223 0.30159 0.0
C1161 C 0.34144 0.24335 0.32158 0.0
C1162 C 0.32986 0.25865 0.25352 0.0
C1163 C 0.34402 0.25661 0.2257 0.0
C1164 C 0.35672 0.24747 0.24561 0.0
C1165 C 0.35516 0.2407 0.29327 0.0
C1166 C 0.31584 0.26781 0.23284 0.0
C1167 C 0.37212 0.24533 0.21738 0.0
H1168 H 0.33962 0.25561 0.05306 0.0
H1169 H 0.35528 0.29942 0.11979 0.0
H1170 H 0.34426 0.23062 0.15387 0.0
H1171 H 0.32443 0.23803 0.16042 0.0
H1172 H 0.33204 0.23336 0.09929 0.0
H1173 H 0.36015 0.3017 0.20586 0.0
H1174 H 0.34534 0.29117 0.24167 0.0
H1175 H 0.36504 0.28327 0.23704 0.0
H1176 H 0.31827 0.25424 0.32387 0.0
H1177 H 0.36495 0.23401 0.30936 0.0
H1178 H 0.31237 0.26293 0.19593 0.0
H1179 H 0.31919 0.28047 0.22719 0.0
H1180 H 0.30533 0.26735 0.25795 0.0
H1181 H 0.3698 0.23975 0.18062 0.0
H1182 H 0.38081 0.23784 0.23805 0.0
H1183 H 0.3776 0.25715 0.21019 0.0
C1184 C 0.01675 0.09019 0.54253 0.0
C1185 C 0.01025 0.09947 0.5808 0.0
C1186 C 0.01008 0.09041 0.49449 0.0
C1187 C 0.99695 0.10053 0.48445 0.0
C1188 C 0.99083 0.11044 0.52256 0.0
C1189 C 0.99739 0.1096 0.57052 0.0
C1190 C 0.01671 0.07943 0.45501 0.0
C1191 C 0.97719 0.12176 0.51288 0.0
C1192 C 0.98895 0.11071 0.34912 0.0
C1193 C 0.97583 0.10098 0.33836 0.0
C1194 C 0.99575 0.1109 0.3968 0.0
C1195 C 0.98956 0.10073 0.43412 0.0
C1196 C 0.97629 0.09084 0.42339 0.0
C1197 C 0.9694 0.09127 0.37565 0.0
C1198 C 0.00957 0.12195 0.40717 0.0
C1199 C 0.96962 0.07957 0.46197 0.0
H1200 H 0.02655 0.08219 0.55077 0.0
H1201 H 0.99241 0.1168 0.60023 0.0
H1202 H 0.00726 0.07115 0.44208 0.0
H1203 H 0.02066 0.08642 0.42216 0.0
H1204 H 0.02695 0.0723 0.46886 0.0
H1205 H 0.97449 0.12935 0.54576 0.0
H1206 H 0.98003 0.1296 0.48077 0.0
H1207 H 0.96633 0.11493 0.503 0.0
H1208 H 0.99387 0.11826 0.32015 0.0
H1209 H 0.95938 0.0836 0.36698 0.0
H1210 H 0.02029 0.11493 0.41709 0.0
H1211 H 0.00677 0.12972 0.4395 0.0
H1212 H 0.01247 0.12962 0.37466 0.0
H1213 H 0.97907 0.07127 0.4747 0.0
H1214 H 0.95946 0.07247 0.4474 0.0
H1215 H 0.96554 0.08634 0.4951 0.0
C1216 C 0.85945 0.74165 0.08775 0.0
C1217 C 0.85092 0.72744 0.08102 0.0
C1218 C 0.85988 0.74927 0.13417 0.0
C1219 C 0.8512 0.74274 0.17443 0.0
C1220 C 0.84255 0.72837 0.16784 0.0
C1221 C 0.84269 0.72075 0.1212 0.0
C1222 C 0.86961 0.7643 0.1401 0.0
C1223 C 0.83293 0.72121 0.20978 0.0
C1224 C 0.86147 0.75272 0.30827 0.0
C1225 C 0.8499 0.76417 0.31976 0.0
C1226 C 0.86248 0.74617 0.26036 0.0
C1227 C 0.85131 0.75083 0.22365 0.0
C1228 C 0.83993 0.7628 0.23464 0.0
C1229 C 0.8395 0.76952 0.28261 0.0
C1230 C 0.87513 0.73384 0.2496 0.0
C1231 C 0.82767 0.76788 0.19663 0.0
H1232 H 0.86589 0.74679 0.05659 0.0
H1233 H 0.83596 0.70985 0.11574 0.0
H1234 H 0.86175 0.7744 0.1504 0.0
H1235 H 0.87836 0.76281 0.17076 0.0
H1236 H 0.87614 0.7675 0.10548 0.0
H1237 H 0.82655 0.71021 0.1982 0.0
H1238 H 0.84083 0.71827 0.24163 0.0
H1239 H 0.82406 0.73001 0.22334 0.0
H1240 H 0.86949 0.74862 0.33725 0.0
H1241 H 0.83041 0.7782 0.29192 0.0
H1242 H 0.88168 0.73697 0.21504 0.0
H1243 H 0.86946 0.72207 0.2434 0.0
H1244 H 0.88381 0.7327 0.28065 0.0
H1245 H 0.83358 0.7717 0.16163 0.0
H1246 H 0.82008 0.77781 0.21034 0.0
H1247 H 0.81989 0.75761 0.18727 0.0
C1248 C 0.98872 0.09038 0.04296 0.0
C1249 C 0.99529 0.09979 0.08084 0.0
C1250 C 0.99542 0.09031 -0.00503 0.0
C1251 C 0.00866 0.10024 0.98455 0.0
C1252 C 0.01487 0.11028 0.02223 0.0
C1253 C 0.00826 0.10974 0.07016 0.0
C1254 C 0.98868 0.07922 0.95594 0.0
C1255 C 0.02863 0.12142 0.01212 0.0
C1256 C 0.03606 0.09021 0.87606 0.0
C1257 C 0.02971 0.09981 0.83837 0.0
C1258 C 0.02921 0.09008 0.92388 0.0
C1259 C 0.01605 0.10015 0.93422 0.0
C1260 C 0.00995 0.11022 0.89649 0.0
C1261 C 0.01671 0.10973 0.84879 0.0
C1262 C 0.03579 0.07894 0.96295 0.0
C1263 C 0.99628 0.12147 0.90642 0.0
H1264 H 0.97883 0.08252 0.0515 0.0
H1265 H 0.0133 0.11705 0.09955 0.0
H1266 H 0.9848 0.0861 0.92279 0.0
H1267 H 0.99805 0.0708 0.94338 0.0
H1268 H 0.97838 0.07224 0.97006 0.0
H1269 H 0.0314 0.12914 0.04466 0.0
H1270 H 0.03942 0.11445 0.00258 0.0
H1271 H 0.02588 0.12915 0.97964 0.0
H1272 H 0.046 0.08241 0.86769 0.0
H1273 H 0.01186 0.11722 0.81954 0.0
H1274 H 0.02627 0.07077 0.97605 0.0
H1275 H 0.03994 0.08583 -0.00423 0.0
H1276 H 0.04588 0.07169 0.94869 0.0
H1277 H 0.98547 0.11461 0.91663 0.0
H1278 H 0.99345 0.12904 0.87359 0.0
H1279 H 0.99917 0.12934 0.93842 0.0
C1280 C 0.64329 0.26683 0.60107 0.0
C1281 C 0.65362 0.27933 0.5888 0.0
C1282 C 0.64328 0.26019 0.64894 0.0
C1283 C 0.65427 0.26585 0.68477 0.0
C1284 C 0.66473 0.27854 0.67255 0.0
C1285 C 0.6641 0.28533 0.6247 0.0
C1286 C 0.6316 0.24704 0.66101 0.0
C1287 C 0.67685 0.28462 0.70951 0.0
C1288 C 0.64671 0.25837 0.822 0.0
C1289 C 0.6562 0.24494 0.83098 0.0
C1290 C 0.6457 0.26509 0.77431 0.0
C1291 C 0.65477 0.25846 0.73503 0.0
C1292 C 0.66424 0.24475 0.74373 0.0
C1293 C 0.66466 0.23799 0.79163 0.0
C1294 C 0.63508 0.27938 0.76611 0.0
C1295 C 0.67429 0.23754 0.70287 0.0
H1296 H 0.63518 0.26224 0.57304 0.0
H1297 H 0.67225 0.29484 0.61469 0.0
H1298 H 0.63812 0.23589 0.66975 0.0
H1299 H 0.62455 0.25025 0.69453 0.0
H1300 H 0.62326 0.24463 0.62972 0.0
H1301 H 0.68421 0.29446 0.694 0.0
H1302 H 0.6708 0.28897 0.74364 0.0
H1303 H 0.68487 0.27475 0.7209 0.0
H1304 H 0.64012 0.2637 0.85252 0.0
H1305 H 0.67215 0.22772 0.79883 0.0
H1306 H 0.62663 0.27699 0.73519 0.0
H1307 H 0.64238 0.28983 0.75512 0.0
H1308 H 0.62817 0.28255 0.8 0.0
H1309 H 0.66665 0.23394 0.67107 0.0
H1310 H 0.68107 0.22696 0.71584 0.0
H1311 H 0.68284 0.24656 0.68869 0.0
C1312 C 0.49112 0.91385 0.34749 0.0
C1313 C 0.47557 0.90821 0.34036 0.0
C1314 C 0.49784 0.91474 0.39516 0.0
C1315 C 0.48899 0.90929 0.4366 0.0
C1316 C 0.47331 0.90339 0.42967 0.0
C1317 C 0.46666 0.90319 0.38155 0.0
C1318 C 0.51434 0.92167 0.40118 0.0
C1319 C 0.46368 0.89711 0.47294 0.0
C1320 C 0.51275 0.89876 0.55271 0.0
C1321 C 0.50952 0.91188 0.5832 0.0
C1322 C 0.5059 0.89759 0.50504 0.0
C1323 C 0.49608 0.91012 0.48727 0.0
C1324 C 0.4933 0.92365 0.51749 0.0
C1325 C 0.49983 0.92422 0.5655 0.0
C1326 C 0.50883 0.88283 0.47422 0.0
C1327 C 0.48341 0.93751 0.49919 0.0
H1328 H 0.49805 0.9178 0.31584 0.0
H1329 H 0.45469 0.89869 0.37596 0.0
H1330 H 0.51402 0.93182 0.42771 0.0
H1331 H 0.52249 0.91259 0.41701 0.0
H1332 H 0.51938 0.92593 0.36527 0.0
H1333 H 0.45194 0.89234 0.46098 0.0
H1334 H 0.47037 0.8875 0.49218 0.0
H1335 H 0.46166 0.90674 0.50056 0.0
H1336 H 0.52009 0.88914 0.56694 0.0
H1337 H 0.49739 0.93437 0.58936 0.0
H1338 H 0.5147 0.88606 0.4386 0.0
H1339 H 0.4973 0.8771 0.46474 0.0
H1340 H 0.51642 0.87401 0.49398 0.0
H1341 H 0.48834 0.9421 0.46358 0.0
H1342 H 0.48302 0.94745 0.52655 0.0
H1343 H 0.47105 0.93353 0.49168 0.0
C1344 C 0.83949 0.23479 0.19128 0.0
C1345 C 0.84971 0.24053 0.15423 0.0
C1346 C 0.83966 0.24148 0.23931 0.0
C1347 C 0.85061 0.25384 0.25047 0.0
C1348 C 0.86159 0.25896 0.21382 0.0
C1349 C 0.86083 0.25241 0.16586 0.0
C1350 C 0.8276 0.2359 0.27724 0.0
C1351 C 0.87379 0.27173 0.22474 0.0
C1352 C 0.84129 0.28342 0.35375 0.0
C1353 C 0.84985 0.27692 0.3936 0.0
C1354 C 0.84123 0.27586 0.307 0.0
C1355 C 0.85031 0.26179 0.29993 0.0
C1356 C 0.85928 0.25545 0.33987 0.0
C1357 C 0.85876 0.26298 0.38644 0.0
C1358 C 0.83127 0.28279 0.26543 0.0
C1359 C 0.86947 0.24075 0.3334 0.0
H1360 H 0.83074 0.22576 0.18188 0.0
H1361 H 0.86873 0.25682 0.13698 0.0
H1362 H 0.83366 0.23217 0.31208 0.0
H1363 H 0.81952 0.2459 0.28697 0.0
H1364 H 0.82031 0.22579 0.26329 0.0
H1365 H 0.88236 0.27332 0.19358 0.0
H1366 H 0.8677 0.28326 0.23148 0.0
H1367 H 0.88054 0.26873 0.25906 0.0
H1368 H 0.83427 0.2941 0.35956 0.0
H1369 H 0.86544 0.258 0.41734 0.0
H1370 H 0.8227 0.27371 0.25176 0.0
H1371 H 0.839 0.2861 0.23355 0.0
H1372 H 0.82453 0.29351 0.27745 0.0
H1373 H 0.86191 0.23045 0.32281 0.0
H1374 H 0.87612 0.23766 0.36788 0.0
H1375 H 0.87814 0.24263 0.30275 0.0
C1376 C 0.49435 0.09947 0.1427 0.0
C1377 C 0.47769 0.10049 0.14579 0.0
C1378 C 0.50208 0.09867 0.09657 0.0
C1379 C 0.49296 0.09923 0.05236 0.0
C1380 C 0.47616 0.10068 0.05508 0.0
C1381 C 0.46869 0.10116 0.10192 0.0
C1382 C 0.51998 0.09686 0.0952 0.0
C1383 C 0.46609 0.10153 0.00851 0.0
C1384 C 0.51355 0.1096 0.93059 0.0
C1385 C 0.51456 0.09459 0.90817 0.0
C1386 C 0.50669 0.11131 0.97801 0.0
C1387 C 0.50097 0.09763 0.00333 0.0
C1388 C 0.50266 0.08237 0.98146 0.0
C1389 C 0.50926 0.08107 0.93369 0.0
C1390 C 0.50492 0.12778 -1e-05 0.0
C1391 C 0.49704 0.06748 0.0078 0.0
H1392 H 0.50143 0.09904 0.17645 0.0
H1393 H 0.45583 0.10205 0.10418 0.0
H1394 H 0.52317 0.08549 0.07657 0.0
H1395 H 0.52539 0.10663 0.0731 0.0
H1396 H 0.52536 0.09692 0.13307 0.0
H1397 H 0.4533 0.10356 0.017 0.0
H1398 H 0.47037 0.1113 0.98406 0.0
H1399 H 0.46721 0.09026 0.98718 0.0
H1400 H 0.51739 0.12004 0.91 0.0
H1401 H 0.5099 0.06952 0.9156 0.0
H1402 H 0.51026 0.12822 0.0378 0.0
H1403 H 0.49209 0.13068 0.004 0.0
H1404 H 0.51063 0.13708 0.97652 0.0
H1405 H 0.50233 0.06681 0.04568 0.0
H1406 H 0.50022 0.05646 0.98707 0.0
H1407 H 0.48392 0.06785 0.01235 0.0
C1408 C 0.64793 0.74266 0.89072 0.0
C1409 C 0.65468 0.7275 0.8968 0.0
C1410 C 0.64786 0.75022 0.84419 0.0
C1411 C 0.655 0.74255 0.80296 0.0
C1412 C 0.66186 0.72722 0.80883 0.0
C1413 C 0.66146 0.71977 0.85575 0.0
C1414 C 0.64012 0.7664 0.83917 0.0
C1415 C 0.66979 0.7188 0.76575 0.0
C1416 C 0.64357 0.75394 0.67105 0.0
C1417 C 0.65613 0.76402 0.65764 0.0
C1418 C 0.64273 0.74735 0.71897 0.0
C1419 C 0.65509 0.7505 0.75349 0.0
C1420 C 0.66766 0.76098 0.74035 0.0
C1421 C 0.66791 0.76781 0.69255 0.0
C1422 C 0.62889 0.73665 0.73212 0.0
C1423 C 0.68119 0.76437 0.77589 0.0
H1424 H 0.64261 0.74863 0.92246 0.0
H1425 H 0.6668 0.70811 0.86057 0.0
H1426 H 0.64905 0.77532 0.82694 0.0
H1427 H 0.63069 0.76598 0.8102 0.0
H1428 H 0.63473 0.77055 0.8747 0.0
H1429 H 0.67486 0.70709 0.77676 0.0
H1430 H 0.66107 0.71686 0.73526 0.0
H1431 H 0.6795 0.72635 0.75052 0.0
H1432 H 0.63455 0.75098 0.64361 0.0
H1433 H 0.67777 0.77538 0.68152 0.0
H1434 H 0.62328 0.74068 0.76741 0.0
H1435 H 0.63319 0.7243 0.73816 0.0
H1436 H 0.61966 0.73645 0.70243 0.0
H1437 H 0.67652 0.76904 0.81169 0.0
H1438 H 0.68982 0.77311 0.76044 0.0
H1439 H 0.68763 0.75314 0.78434 0.0
C1440 C 0.99185 0.92151 0.44809 0.0
C1441 C 0.99097 0.90796 0.41788 0.0
C1442 C 0.99859 0.92065 0.4959 0.0
C1443 C 0.00445 0.90586 0.51359 0.0
C1444 C 0.00297 0.89202 0.4837 0.0
C1445 C 0.99638 0.89328 0.43579 0.0
C1446 C 1.00003 0.93568 0.52658 0.0
C1447 C 0.00885 0.87601 0.50161 0.0
C1448 C 0.03653 0.90682 0.6136 0.0
C1449 C 0.02758 0.90404 0.65675 0.0
C1450 C 0.02916 0.90731 0.56657 0.0
C1451 C 0.01248 0.90496 0.56286 0.0
C1452 C 0.00344 0.90196 0.60628 0.0
C1453 C 0.0111 0.9015 0.65266 0.0
C1454 C 0.03918 0.91054 0.52093 0.0
C1455 C 0.98565 0.89939 0.60383 0.0
H1456 H 0.98791 0.93289 0.43341 0.0
H1457 H 0.99587 0.88291 0.41172 0.0
H1458 H 0.99455 0.93392 0.5638 0.0
H1459 H 0.0128 0.93851 0.53268 0.0
H1460 H 0.99426 0.94606 0.50829 0.0
H1461 H 0.00586 0.86626 0.47518 0.0
H1462 H 0.02197 0.87639 0.5064 0.0
H1463 H 0.00361 0.87316 0.53851 0.0
H1464 H 0.04926 0.90878 0.6166 0.0
H1465 H 0.00409 0.89929 0.68587 0.0
H1466 H 0.03506 0.92162 0.50244 0.0
H1467 H 0.03778 0.90069 0.49367 0.0
H1468 H 0.05203 0.91182 0.53005 0.0
H1469 H 0.97978 0.91015 0.58833 0.0
H1470 H 0.98041 0.89683 0.641 0.0
H1471 H 0.98287 0.88932 0.57845 0.0
C1472 C 0.6582 0.76101 0.39282 0.0
C1473 C 0.65539 0.77744 0.3972 0.0
C1474 C 0.65924 0.75367 0.34611 0.0
C1475 C 0.6569 0.76288 0.30263 0.0
C1476 C 0.65368 0.77942 0.3067 0.0
C1477 C 0.65318 0.78657 0.35407 0.0
C1478 C 0.66315 0.73611 0.34329 0.0
C1479 C 0.65079 0.78953 0.26104 0.0
C1480 C 0.67425 0.74885 0.17993 0.0
C1481 C 0.66101 0.74173 0.15743 0.0
C1482 C 0.67318 0.7554 0.22784 0.0
C1483 C 0.65834 0.75526 0.2529 0.0
C1484 C 0.64496 0.74785 0.23044 0.0
C1485 C 0.64652 0.74098 0.18296 0.0
C1486 C 0.68783 0.76271 0.25121 0.0
C1487 C 0.6289 0.74774 0.25573 0.0
H1488 H 0.65987 0.75384 0.42594 0.0
H1489 H 0.65088 0.79924 0.35737 0.0
H1490 H 0.65352 0.72962 0.32354 0.0
H1491 H 0.67426 0.73435 0.32158 0.0
H1492 H 0.66475 0.73068 0.38074 0.0
H1493 H 0.64756 0.802 0.27071 0.0
H1494 H 0.66164 0.78975 0.23746 0.0
H1495 H 0.64107 0.78429 0.23829 0.0
H1496 H 0.6854 0.74948 0.1596 0.0
H1497 H 0.63625 0.73569 0.16479 0.0
H1498 H 0.68995 0.75746 0.28861 0.0
H1499 H 0.68601 0.7757 0.25647 0.0
H1500 H 0.69865 0.76091 0.22806 0.0
H1501 H 0.62981 0.74205 0.29294 0.0
H1502 H 0.61976 0.7413 0.23354 0.0
H1503 H 0.62481 0.76017 0.2617 0.0
C1504 C 0.47105 0.41305 0.60908 0.0
C1505 C 0.47762 0.40448 0.64877 0.0
C1506 C 0.47837 0.41292 0.56201 0.0
C1507 C 0.49227 0.40362 0.55449 0.0
C1508 C 0.49859 0.39452 0.59419 0.0
C1509 C 0.49132 0.39526 0.6411 0.0
C1510 C 0.4715 0.42304 0.52073 0.0
C1511 C 0.51307 0.38408 0.58722 0.0
C1512 C 0.50164 0.39397 0.41973 0.0
C1513 C 0.51364 0.40505 0.40914 0.0
C1514 C 0.49507 0.39287 0.46762 0.0
C1515 C 0.50027 0.40353 0.50514 0.0
C1516 C 0.51274 0.41445 0.49495 0.0
C1517 C 0.51946 0.41492 0.44705 0.0
C1518 C 0.48222 0.38068 0.47755 0.0
C1519 C 0.51837 0.4262 0.53379 0.0
H1520 H 0.46055 0.4203 0.61533 0.0
H1521 H 0.49634 0.38857 0.67193 0.0
H1522 H 0.48059 0.43167 0.50754 0.0
H1523 H 0.46822 0.41544 0.48849 0.0
H1524 H 0.46078 0.42975 0.53288 0.0
H1525 H 0.51592 0.37705 0.62118 0.0
H1526 H 0.51114 0.37572 0.55572 0.0
H1527 H 0.52355 0.39153 0.5777 0.0
H1528 H 0.49718 0.38636 0.39016 0.0
H1529 H 0.52858 0.42365 0.43843 0.0
H1530 H 0.47071 0.38681 0.48421 0.0
H1531 H 0.48507 0.37374 0.51163 0.0
H1532 H 0.48069 0.37227 0.44591 0.0
H1533 H 0.50842 0.43425 0.54419 0.0
H1534 H 0.5285 0.43357 0.52038 0.0
H1535 H 0.5221 0.41985 0.56812 0.0
C1536 C 0.85868 0.26166 0.67877 0.0
C1537 C 0.84401 0.26225 0.6542 0.0
C1538 C 0.8599 0.25475 0.7263 0.0
C1539 C 0.84607 0.24855 0.74956 0.0
C1540 C 0.83113 0.24969 0.72532 0.0
C1541 C 0.83033 0.25635 0.6775 0.0
C1542 C 0.87604 0.25358 0.75083 0.0
C1543 C 0.81606 0.24357 0.74942 0.0
C1544 C 0.84958 0.21708 0.85098 0.0
C1545 C 0.84833 0.22641 0.89407 0.0
C1546 C 0.84919 0.22417 0.80351 0.0
C1547 C 0.84715 0.24089 0.79933 0.0
C1548 C 0.84576 0.25031 0.84277 0.0
C1549 C 0.84658 0.24298 0.88955 0.0
C1550 C 0.85099 0.2138 0.75786 0.0
C1551 C 0.84318 0.26811 0.83986 0.0
H1552 H 0.86925 0.26599 0.65992 0.0
H1553 H 0.81905 0.25669 0.65778 0.0
H1554 H 0.87579 0.25939 0.78796 0.0
H1555 H 0.87913 0.24086 0.75689 0.0
H1556 H 0.88557 0.2592 0.72809 0.0
H1557 H 0.80531 0.24615 0.72665 0.0
H1558 H 0.81691 0.23049 0.75492 0.0
H1559 H 0.81451 0.24905 0.78676 0.0
H1560 H 0.85105 0.20429 0.85438 0.0
H1561 H 0.84565 0.2503 0.92264 0.0
H1562 H 0.86105 0.21815 0.73471 0.0
H1563 H 0.84008 0.21453 0.73466 0.0
H1564 H 0.85316 0.20111 0.76753 0.0
H1565 H 0.85318 0.27382 0.81961 0.0
H1566 H 0.84217 0.2737 0.87729 0.0
H1567 H 0.83214 0.2707 0.81858 0.0
C1568 C 0.01453 0.60918 0.13804 0.0
C1569 C 0.02822 0.60007 0.14702 0.0
C1570 C 0.00737 0.60943 0.09084 0.0
C1571 C 0.01379 0.59993 0.05218 0.0
C1572 C 0.02758 0.59061 0.06119 0.0
C1573 C 0.0348 0.59098 0.10845 0.0
C1574 C 0.99299 0.61989 0.0823 0.0
C1575 C 0.03454 0.58004 0.02118 0.0
C1576 C 0.98705 0.58901 0.9429 0.0
C1577 C 0.99319 0.59883 0.90536 0.0
C1578 C 0.9936 0.58926 -0.00888 0.0
C1579 C 0.00622 0.59994 0.00207 0.0
C1580 C 0.01187 0.61044 0.96476 0.0
C1581 C 0.00546 0.60956 0.91661 0.0
C1582 C 0.98751 0.57765 0.02967 0.0
C1583 C 0.02493 0.62235 0.97539 0.0
H1584 H 0.00948 0.61623 0.16799 0.0
H1585 H 0.04526 0.58378 0.11569 0.0
H1586 H 0.9953 0.6282 0.05093 0.0
H1587 H 0.98259 0.61248 0.07176 0.0
H1588 H 0.98983 0.62698 0.11586 0.0
H1589 H 0.04497 0.57314 0.0347 0.0
H1590 H 0.02535 0.57156 0.00769 0.0
H1591 H 0.03829 0.58735 0.9888 0.0
H1592 H 0.9777 0.58056 0.93386 0.0
H1593 H 0.01017 0.61717 0.88742 0.0
H1594 H 0.98352 0.58412 0.06348 0.0
H1595 H 0.99728 0.56954 0.04119 0.0
H1596 H 0.97744 0.57035 0.01549 0.0
H1597 H 0.02185 0.62961 0.00861 0.0
H1598 H 0.02707 0.63049 0.94341 0.0
H1599 H 0.03618 0.61599 0.98392 0.0
C1600 C 0.67188 0.24743 0.31551 0.0
C1601 C 0.65983 0.25752 0.33299 0.0
C1602 C 0.67114 0.24087 0.26756 0.0
C1603 C 0.65773 0.24403 0.23721 0.0
C1604 C 0.6454 0.25407 0.25503 0.0
C1605 C 0.64675 0.26096 0.30259 0.0
C1606 C 0.68482 0.23077 0.24917 0.0
C1607 C 0.63073 0.25736 0.22413 0.0
C1608 C 0.66213 0.24053 0.09732 0.0
C1609 C 0.65645 0.22509 0.08824 0.0
C1610 C 0.66281 0.24671 0.14569 0.0
C1611 C 0.65704 0.23747 0.18585 0.0
C1612 C 0.65101 0.22194 0.17695 0.0
C1613 C 0.65106 0.2158 0.12816 0.0
C1614 C 0.6699 0.26307 0.1538 0.0
C1615 C 0.64434 0.21194 0.21879 0.0
H1616 H 0.68201 0.24484 0.33928 0.0
H1617 H 0.63736 0.2686 0.31666 0.0
H1618 H 0.68055 0.21862 0.23984 0.0
H1619 H 0.68983 0.236 0.21452 0.0
H1620 H 0.69452 0.22974 0.27717 0.0
H1621 H 0.62183 0.26465 0.24459 0.0
H1622 H 0.63408 0.26376 0.1895 0.0
H1623 H 0.62508 0.24596 0.21283 0.0
H1624 H 0.66632 0.24778 0.0667 0.0
H1625 H 0.6465 0.20392 0.12105 0.0
H1626 H 0.67986 0.26235 0.18093 0.0
H1627 H 0.66083 0.27119 0.16983 0.0
H1628 H 0.67446 0.26843 0.1187 0.0
H1629 H 0.65375 0.20945 0.24673 0.0
H1630 H 0.63946 0.20041 0.20531 0.0
H1631 H 0.63473 0.21858 0.23818 0.0
C1632 C 0.98441 0.41427 0.53653 0.0
C1633 C 0.98997 0.40411 0.57403 0.0
C1634 C 0.99113 0.41384 0.48861 0.0
C1635 C 0.00333 0.40267 0.478 0.0
C1636 C 0.00829 0.39178 0.51513 0.0
C1637 C 1.00172 0.39281 0.56299 0.0
C1638 C 0.98573 0.42582 0.45013 0.0
C1639 C 0.02088 0.37935 0.50475 0.0
C1640 C 0.01186 0.39399 0.34209 0.0
C1641 C 0.0258 0.40282 0.33408 0.0
C1642 C 0.00459 0.39359 0.38902 0.0
C1643 C 0.01119 0.40261 0.42845 0.0
C1644 C 0.02532 0.41153 0.42061 0.0
C1645 C 0.03262 0.41135 0.37348 0.0
C1646 C 0.98982 0.38357 0.39632 0.0
C1647 C 0.03252 0.42153 0.46164 0.0
H1648 H 0.97548 0.42316 0.54547 0.0
H1649 H 0.00598 0.38495 0.59222 0.0
H1650 H 0.99587 0.43362 0.43968 0.0
H1651 H 0.98176 0.41963 0.41575 0.0
H1652 H 0.97583 0.43341 0.46389 0.0
H1653 H 0.02239 0.37093 0.53636 0.0
H1654 H 0.01775 0.37245 0.47083 0.0
H1655 H 0.03247 0.38526 0.49755 0.0
H1656 H 0.00664 0.38734 0.3115 0.0
H1657 H 0.0433 0.41831 0.36698 0.0
H1658 H 0.9796 0.3913 0.40636 0.0
H1659 H 0.99162 0.3751 0.42761 0.0
H1660 H 0.98664 0.37668 0.36236 0.0
H1661 H 0.02366 0.43038 0.47494 0.0
H1662 H 0.04337 0.42798 0.44921 0.0
H1663 H 0.03568 0.41388 0.49389 0.0
C1664 C 0.85698 0.74045 0.79282 0.0
C1665 C 0.84298 0.74194 0.82061 0.0
C1666 C 0.85811 0.74727 0.74511 0.0
C1667 C 0.84478 0.75535 0.72473 0.0
C1668 C 0.83039 0.75619 0.75206 0.0
C1669 C 0.82976 0.7497 0.80011 0.0
C1670 C 0.87373 0.74639 0.71736 0.0
C1671 C 0.81576 0.76421 0.73097 0.0
C1672 C 0.85 0.78656 0.62328 0.0
C1673 C 0.84687 0.7776 0.58036 0.0
C1674 C 0.84976 0.77937 0.67061 0.0
C1675 C 0.84582 0.76299 0.67492 0.0
C1676 C 0.84241 0.75399 0.63169 0.0
C1677 C 0.84325 0.76135 0.58493 0.0
C1678 C 0.85379 0.78925 0.71593 0.0
C1679 C 0.83765 0.73665 0.63483 0.0
H1680 H 0.86724 0.73465 0.80936 0.0
H1681 H 0.81898 0.75086 0.82209 0.0
H1682 H 0.87195 0.74078 0.68034 0.0
H1683 H 0.87833 0.75862 0.71075 0.0
H1684 H 0.88288 0.7395 0.73811 0.0
H1685 H 0.80522 0.76286 0.75568 0.0
H1686 H 0.81809 0.77711 0.72562 0.0
H1687 H 0.81283 0.75913 0.69387 0.0
H1688 H 0.85294 0.7991 0.61976 0.0
H1689 H 0.8408 0.75434 0.55197 0.0
H1690 H 0.86364 0.78355 0.73702 0.0
H1691 H 0.84336 0.78986 0.74121 0.0
H1692 H 0.85739 0.80159 0.70599 0.0
H1693 H 0.84726 0.72962 0.65274 0.0
H1694 H 0.83511 0.73142 0.59761 0.0
H1695 H 0.82687 0.73538 0.65842 0.0
C1696 C 0.49873 0.61251 0.06949 0.0
C1697 C 0.51121 0.60201 0.08053 0.0
C1698 C 0.49209 0.61313 0.0216 0.0
C1699 C 0.49778 0.60265 0.98433 0.0
C1700 C 0.51066 0.59226 -0.00502 0.0
C1701 C 0.51739 0.59223 0.04294 0.0
C1702 C 0.47875 0.62474 0.01124 0.0
C1703 C 0.51685 0.58073 0.95639 0.0
C1704 C 0.46938 0.59285 0.87816 0.0
C1705 C 0.47581 0.60199 0.83948 0.0
C1706 C 0.47655 0.59279 0.92553 0.0
C1707 C 0.49012 0.60245 0.93441 0.0
C1708 C 0.49633 0.61204 0.89566 0.0
C1709 C 0.48923 0.6115 0.84845 0.0
C1710 C 0.46982 0.58215 0.96574 0.0
C1711 C 0.51046 0.62286 0.90404 0.0
H1712 H 0.49398 0.62009 0.09868 0.0
H1713 H 0.52689 0.58395 0.05179 0.0
H1714 H 0.48158 0.63203 0.97788 0.0
H1715 H 0.46761 0.61812 0.00306 0.0
H1716 H 0.47652 0.63286 0.0432 0.0
H1717 H 0.52709 0.57362 0.97036 0.0
H1718 H 0.50719 0.57243 0.94518 0.0
H1719 H 0.52064 0.58724 0.92242 0.0
H1720 H 0.45911 0.58536 0.87092 0.0
H1721 H 0.49414 0.61864 0.81844 0.0
H1722 H 0.46606 0.58942 -0.00179 0.0
H1723 H 0.47914 0.57379 0.97902 0.0
H1724 H 0.45943 0.57512 0.95251 0.0
H1725 H 0.50803 0.6311 0.93551 0.0
H1726 H 0.5134 0.63005 0.87047 0.0
H1727 H 0.52106 0.61569 0.91434 0.0
C1728 C 0.35919 0.24201 0.58749 0.0
C1729 C 0.35036 0.22799 0.58092 0.0
C1730 C 0.36009 0.24946 0.63411 0.0
C1731 C 0.35156 0.24297 0.67473 0.0
C1732 C 0.34261 0.22877 0.66831 0.0
C1733 C 0.3423 0.22129 0.62144 0.0
C1734 C 0.37014 0.26429 0.63983 0.0
C1735 C 0.33311 0.22168 0.71064 0.0
C1736 C 0.36264 0.25274 0.80814 0.0
C1737 C 0.35136 0.26442 0.82014 0.0
C1738 C 0.36329 0.24615 0.7602 0.0
C1739 C 0.35203 0.25101 0.72403 0.0
C1740 C 0.34093 0.26319 0.73553 0.0
C1741 C 0.34088 0.26994 0.78346 0.0
C1742 C 0.37566 0.23359 0.74884 0.0
C1743 C 0.32857 0.26849 0.69813 0.0
H1744 H 0.36549 0.24713 0.55605 0.0
H1745 H 0.33534 0.21053 0.61608 0.0
H1746 H 0.36252 0.27453 0.6505 0.0
H1747 H 0.37898 0.26259 0.67015 0.0
H1748 H 0.3766 0.26739 0.605 0.0
H1749 H 0.32652 0.21079 0.69922 0.0
H1750 H 0.34113 0.21859 0.74204 0.0
H1751 H 0.32444 0.23058 0.72476 0.0
H1752 H 0.37072 0.24849 0.83675 0.0
H1753 H 0.332 0.27879 0.79317 0.0
H1754 H 0.3821 0.23661 0.71397 0.0
H1755 H 0.36975 0.22192 0.74292 0.0
H1756 H 0.38447 0.23229 0.77947 0.0
H1757 H 0.33437 0.27228 0.66294 0.0
H1758 H 0.32117 0.27849 0.7123 0.0
H1759 H 0.32061 0.25833 0.68897 0.0
C1760 C 0.48707 0.59111 0.54365 0.0
C1761 C 0.49365 0.60055 0.58143 0.0
C1762 C 0.49369 0.59109 0.49556 0.0
C1763 C 0.50686 0.6011 0.48499 0.0
C1764 C 0.51303 0.61121 0.52255 0.0
C1765 C 0.5065 0.61062 0.57056 0.0
C1766 C 0.48701 0.57992 0.45667 0.0
C1767 C 0.52671 0.62244 0.51229 0.0
C1768 C 0.53465 0.59127 0.37741 0.0
C1769 C 0.5284 0.60086 0.33954 0.0
C1770 C 0.52758 0.59101 0.42489 0.0
C1771 C 0.5143 0.60096 0.43476 0.0
C1772 C 0.50824 0.61097 0.3968 0.0
C1773 C 0.51521 0.6106 0.34941 0.0
C1774 C 0.53412 0.57991 0.46418 0.0
C1775 C 0.49443 0.6221 0.40629 0.0
H1776 H 0.47727 0.58316 0.55237 0.0
H1777 H 0.51155 0.61795 0.59991 0.0
H1778 H 0.48323 0.58671 0.42324 0.0
H1779 H 0.49639 0.57144 0.44456 0.0
H1780 H 0.47666 0.573 0.47075 0.0
H1781 H 0.52938 0.63026 0.54465 0.0
H1782 H 0.53757 0.61551 0.50314 0.0
H1783 H 0.52396 0.63004 0.47955 0.0
H1784 H 0.54474 0.58361 0.36946 0.0
H1785 H 0.51043 0.61808 0.32002 0.0
H1786 H 0.52457 0.57181 0.47748 0.0
H1787 H 0.53831 0.58687 0.49683 0.0
H1788 H 0.54418 0.5726 0.45005 0.0
H1789 H 0.4837 0.61517 0.4168 0.0
H1790 H 0.49153 0.62951 0.37318 0.0
H1791 H 0.49725 0.63013 0.43799 0.0
C1792 C 0.14538 0.7508 0.29863 0.0
C1793 C 0.15702 0.73957 0.31139 0.0
C1794 C 0.14449 0.75703 0.25028 0.0
C1795 C 0.15584 0.75224 0.2143 0.0
C1796 C 0.16734 0.7405 0.22659 0.0
C1797 C 0.16766 0.73412 0.27505 0.0
C1798 C 0.13174 0.76914 0.23827 0.0
C1799 C 0.1798 0.73533 0.18942 0.0
C1800 C 0.14749 0.76117 0.07812 0.0
C1801 C 0.15553 0.77566 0.07159 0.0
C1802 C 0.14745 0.75341 0.12441 0.0
C1803 C 0.15604 0.7601 0.16466 0.0
C1804 C 0.16437 0.77466 0.15804 0.0
C1805 C 0.16382 0.7824 0.11165 0.0
C1806 C 0.13805 0.73818 0.13041 0.0
C1807 C 0.17393 0.78199 0.19986 0.0
H1808 H 0.13715 0.75497 0.32694 0.0
H1809 H 0.17678 0.72558 0.28532 0.0
H1810 H 0.13731 0.78093 0.23143 0.0
H1811 H 0.12532 0.7657 0.20374 0.0
H1812 H 0.12295 0.77042 0.26895 0.0
H1813 H 0.18736 0.7255 0.20392 0.0
H1814 H 0.1741 0.73136 0.15425 0.0
H1815 H 0.18758 0.74561 0.18011 0.0
H1816 H 0.14105 0.75598 0.04705 0.0
H1817 H 0.17021 0.7935 0.10635 0.0
H1818 H 0.12899 0.73968 0.16017 0.0
H1819 H 0.14604 0.72834 0.14211 0.0
H1820 H 0.1319 0.73461 0.09545 0.0
H1821 H 0.16595 0.78513 0.2313 0.0
H1822 H 0.18037 0.7929 0.18788 0.0
H1823 H 0.18273 0.77324 0.21415 0.0
C1824 C 0.96505 0.40431 0.8759 0.0
C1825 C 0.97439 0.40731 0.83371 0.0
C1826 C 0.97184 0.40457 0.9238 0.0
C1827 C 0.98819 0.40843 0.92938 0.0
C1828 C 0.99755 0.41176 0.88689 0.0
C1829 C 0.9906 0.41088 0.83958 0.0
C1830 C 0.9616 0.4006 0.96834 0.0
C1831 C 0.01488 0.41644 0.89139 0.0
C1832 C 1.00119 0.42428 0.05514 0.0
C1833 C 0.00897 0.41104 0.0754 0.0
C1834 C 0.99467 0.4237 0.00712 0.0
C1835 C 0.99549 0.40932 0.97967 0.0
C1836 C 0.00344 0.39591 2e-05 0.0
C1837 C 0.01032 0.39701 0.04762 0.0
C1838 C 0.9868 0.43842 0.98599 0.0
C1839 C 0.00425 0.38029 0.97217 0.0
H1840 H 0.95255 0.40142 0.87137 0.0
H1841 H 0.9979 0.41324 0.8072 0.0
H1842 H 0.96701 0.39064 0.98964 0.0
H1843 H 0.96095 0.41101 -0.00624 0.0
H1844 H 0.94929 0.39718 0.95746 0.0
H1845 H 0.02036 0.41911 0.85464 0.0
H1846 H 0.01603 0.42713 0.91551 0.0
H1847 H 0.02173 0.40671 0.90934 0.0
H1848 H 1.00015 0.43509 0.07713 0.0
H1849 H 0.01615 0.38673 0.064 0.0
H1850 H 0.97396 0.4361 0.97957 0.0
H1851 H 0.99216 0.44147 0.94938 0.0
H1852 H 0.98797 0.44888 0.01114 0.0
H1853 H 0.99202 0.37596 0.96423 0.0
H1854 H 0.01073 0.37097 -0.00655 0.0
H1855 H 0.01028 0.382 0.93578 0.0
C1856 C 0.36137 0.7656 0.88277 0.0
C1857 C 0.35194 0.77901 0.89257 0.0
C1858 C 0.36159 0.7586 0.83541 0.0
C1859 C 0.35173 0.76487 0.79745 0.0
C1860 C 0.3422 0.77848 0.80712 0.0
C1861 C 0.3426 0.78556 0.85459 0.0
C1862 C 0.37227 0.74442 0.82613 0.0
C1863 C 0.33129 0.78529 0.76776 0.0
C1864 C 0.36048 0.75613 0.66166 0.0
C1865 C 0.34983 0.74366 0.65172 0.0
C1866 C 0.36158 0.7628 0.7094 0.0
C1867 C 0.35142 0.75718 0.74761 0.0
C1868 C 0.34086 0.74435 0.73802 0.0
C1869 C 0.34036 0.73756 0.69017 0.0
C1870 C 0.37335 0.7761 0.71861 0.0
C1871 C 0.32966 0.73824 0.77768 0.0
H1872 H 0.36863 0.76059 0.91232 0.0
H1873 H 0.33515 0.7958 0.86256 0.0
H1874 H 0.36497 0.73381 0.81686 0.0
H1875 H 0.38014 0.74678 0.79373 0.0
H1876 H 0.37981 0.74153 0.85896 0.0
H1877 H 0.32452 0.79579 0.78145 0.0
H1878 H 0.33829 0.78891 0.73458 0.0
H1879 H 0.3227 0.77604 0.75543 0.0
H1880 H 0.36781 0.7608 0.63176 0.0
H1881 H 0.33197 0.72807 0.68213 0.0
H1882 H 0.38093 0.77324 0.75131 0.0
H1883 H 0.36688 0.78728 0.72731 0.0
H1884 H 0.38117 0.77827 0.68591 0.0
H1885 H 0.33646 0.73438 0.811 0.0
H1886 H 0.32233 0.72807 0.76438 0.0
H1887 H 0.32158 0.74797 0.7897 0.0
C1888 C 0.96903 0.59183 0.6072 0.0
C1889 C 0.97657 0.5998 0.64649 0.0
C1890 C 0.97613 0.59114 0.55981 0.0
C1891 C 0.99088 0.59894 0.55155 0.0
C1892 C 0.99834 0.60728 0.59098 0.0
C1893 C 0.99118 0.60743 0.63813 0.0
C1894 C 0.96798 0.58188 0.51881 0.0
C1895 C 0.01384 0.61609 0.58333 0.0
C1896 C 0.01641 0.58637 0.44138 0.0
C1897 C 0.01157 0.59732 0.40508 0.0
C1898 C 0.00975 0.58672 0.48941 0.0
C1899 C 0.9984 0.59862 0.50145 0.0
C1900 C 0.99408 0.61015 0.4654 0.0
C1901 C 1.00053 0.60918 0.41732 0.0
C1902 C 0.01437 0.57403 0.52659 0.0
C1903 C 0.98245 0.62334 0.47731 0.0
H1904 H 0.95781 0.58578 0.61385 0.0
H1905 H 0.997 0.61366 0.66854 0.0
H1906 H 0.96513 0.58992 0.48721 0.0
H1907 H 0.9761 0.57252 0.5044 0.0
H1908 H 0.9568 0.57613 0.53169 0.0
H1909 H 0.01785 0.62237 0.61759 0.0
H1910 H 0.0233 0.60764 0.57178 0.0
H1911 H 0.01251 0.62497 0.55294 0.0
H1912 H 0.02479 0.57706 0.43145 0.0
H1913 H 0.99683 0.61764 0.389 0.0
H1914 H 0.00369 0.56704 0.53735 0.0
H1915 H 0.01912 0.57959 0.56104 0.0
H1916 H 0.02348 0.56572 0.51152 0.0
H1917 H 0.97056 0.6182 0.48541 0.0
H1918 H 0.98122 0.63198 0.44615 0.0
H1919 H 0.98635 0.62988 0.51114 0.0
C1920 C 0.14701 0.26698 0.18977 0.0
C1921 C 0.16206 0.26676 0.16752 0.0
C1922 C 0.14467 0.26024 0.23714 0.0
C1923 C 0.1578 0.25352 0.26281 0.0
C1924 C 0.17318 0.25407 0.24128 0.0
C1925 C 0.17507 0.26045 0.19339 0.0
C1926 C 0.12805 0.2596 0.25855 0.0
C1927 C 0.18756 0.24747 0.26814 0.0
C1928 C 0.15536 0.24668 0.40209 0.0
C1929 C 0.15357 0.23006 0.40475 0.0
C1930 C 0.15654 0.2545 0.35613 0.0
C1931 C 0.1555 0.24553 0.31167 0.0
C1932 C 0.1531 0.22882 0.31398 0.0
C1933 C 0.15233 0.22124 0.36063 0.0
C1934 C 0.15942 0.27228 0.35523 0.0
C1935 C 0.15161 0.21893 0.26718 0.0
H1936 H 0.13694 0.27161 0.16898 0.0
H1937 H 0.18667 0.26021 0.17559 0.0
H1938 H 0.1242 0.24699 0.26184 0.0
H1939 H 0.12787 0.26478 0.29659 0.0
H1940 H 0.11929 0.26609 0.23505 0.0
H1941 H 0.19883 0.24998 0.2479 0.0
H1942 H 0.18841 0.25264 0.30613 0.0
H1943 H 0.18633 0.23438 0.27242 0.0
H1944 H 0.15621 0.25363 0.43602 0.0
H1945 H 0.15081 0.20842 0.36254 0.0
H1946 H 0.15015 0.27831 0.33259 0.0
H1947 H 0.17108 0.2748 0.33742 0.0
H1948 H 0.15942 0.27758 0.39319 0.0
H1949 H 0.14232 0.22401 0.24243 0.0
H1950 H 0.14855 0.20631 0.27536 0.0
H1951 H 0.16301 0.21919 0.24633 0.0
C1952 C 0.51326 0.41633 0.14354 0.0
C1953 C 0.52867 0.41017 0.14937 0.0
C1954 C 0.5062 0.41748 0.09638 0.0
C1955 C 0.51456 0.4118 0.05423 0.0
C1956 C 0.53009 0.40544 0.05988 0.0
C1957 C 0.53709 0.40495 0.10746 0.0
C1958 C 0.48988 0.42489 0.09166 0.0
C1959 C 0.53921 0.39895 0.01583 0.0
C1960 C 0.49042 0.4016 0.93859 0.0
C1961 C 0.49412 0.41449 0.9076 0.0
C1962 C 0.49705 0.40051 0.98658 0.0
C1963 C 0.50715 0.41286 0.00407 0.0
C1964 C 0.51027 0.42625 0.97351 0.0
C1965 C 0.50393 0.42675 0.92525 0.0
C1966 C 0.49373 0.38592 0.01782 0.0
C1967 C 0.52047 0.43993 -0.00852 0.0
H1968 H 0.50673 0.42046 0.17581 0.0
H1969 H 0.54895 0.40007 0.11208 0.0
H1970 H 0.49031 0.43508 0.06533 0.0
H1971 H 0.48135 0.41609 0.07619 0.0
H1972 H 0.48522 0.42921 0.12801 0.0
H1973 H 0.55088 0.39381 0.02685 0.0
H1974 H 0.53209 0.38958 -0.00306 0.0
H1975 H 0.54133 0.40857 0.98822 0.0
H1976 H 0.48297 0.39206 0.92444 0.0
H1977 H 0.5067 0.43673 0.90104 0.0
H1978 H 0.48835 0.38942 0.05395 0.0
H1979 H 0.50508 0.3797 0.02627 0.0
H1980 H 0.48558 0.37743 -0.00117 0.0
H1981 H 0.51591 0.44448 0.0276 0.0
H1982 H 0.5208 0.44993 0.96436 0.0
H1983 H 0.53283 0.43575 -0.00211 0.0
C1984 C 0.13562 0.33777 0.10812 0.0
C1985 C 0.13135 0.32621 0.0728 0.0
C1986 C 0.12456 0.34928 0.12425 0.0
C1987 C 0.10904 0.34953 0.10339 0.0
C1988 C 0.1049 0.33819 0.06643 0.0
C1989 C 0.11601 0.32653 0.0522 0.0
C1990 C 0.12932 0.36085 0.1647 0.0
C1991 C 0.08865 0.33827 0.04225 0.0
C1992 C 0.07411 0.36663 0.17597 0.0
C1993 C 0.07259 0.3819 0.15526 0.0
C1994 C 0.08622 0.35622 0.16047 0.0
C1995 C 0.09681 0.36097 0.12215 0.0
C1996 C 0.0953 0.37639 0.10094 0.0
C1997 C 0.08334 0.38677 0.11832 0.0
C1998 C 0.08765 0.34008 0.18508 0.0
C1999 C 0.10606 0.38175 0.05911 0.0
H2000 H 0.14746 0.33752 0.12423 0.0
H2001 H 0.11272 0.31773 0.02444 0.0
H2002 H 0.12756 0.37329 0.15183 0.0
H2003 H 0.12161 0.3591 0.19784 0.0
H2004 H 0.14195 0.35935 0.17623 0.0
H2005 H 0.08775 0.32952 0.01128 0.0
H2006 H 0.07941 0.33538 0.07038 0.0
H2007 H 0.08593 0.35032 0.02746 0.0
H2008 H 0.06593 0.36288 0.20496 0.0
H2009 H 0.08215 0.39855 0.10213 0.0
H2010 H 0.09993 0.33834 0.19939 0.0
H2011 H 0.08535 0.33054 0.15736 0.0
H2012 H 0.07915 0.33861 0.21649 0.0
H2013 H 0.11869 0.38114 0.07103 0.0
H2014 H 0.10341 0.39412 0.04682 0.0
H2015 H 0.10469 0.37363 0.02672 0.0
C2016 C 0.88621 0.8287 0.43009 0.0
C2017 C 0.87098 0.82733 0.40906 0.0
C2018 C 0.89668 0.84089 0.41548 0.0
C2019 C 0.892 0.85176 0.37782 0.0
C2020 C 0.87655 0.85056 0.3568 0.0
C2021 C 0.86613 0.83847 0.37318 0.0
C2022 C 0.91288 0.84192 0.43973 0.0
C2023 C 0.87123 0.86166 0.31578 0.0
C2024 C 0.91696 0.88953 0.36241 0.0
C2025 C 0.9281 0.88464 0.3266 0.0
C2026 C 0.90493 0.87907 0.37897 0.0
C2027 C 0.90378 0.86356 0.35822 0.0
C2028 C 0.91464 0.85887 0.32059 0.0
C2029 C 0.92676 0.86937 0.30578 0.0
C2030 C 0.89382 0.88441 0.41991 0.0
C2031 C 0.91366 0.84261 0.29657 0.0
H2032 H 0.88995 0.82023 0.4583 0.0
H2033 H 0.85438 0.83744 0.35676 0.0
H2034 H 0.92226 0.83921 0.41187 0.0
H2035 H 0.91506 0.8542 0.45354 0.0
H2036 H 0.91415 0.83349 0.47142 0.0
H2037 H 0.8586 0.85971 0.30511 0.0
H2038 H 0.87273 0.87425 0.32753 0.0
H2039 H 0.87881 0.85985 0.28236 0.0
H2040 H 0.91798 0.90131 0.37867 0.0
H2041 H 0.93523 0.8656 0.27763 0.0
H2042 H 0.89566 0.87688 0.45345 0.0
H2043 H 0.88124 0.88285 0.40818 0.0
H2044 H 0.89573 0.89708 0.43038 0.0
H2045 H 0.91638 0.83327 0.32458 0.0
H2046 H 0.9221 0.84132 0.26494 0.0
H2047 H 0.9014 0.84038 0.28273 0.0
C2048 C 0.36696 0.66843 0.60722 0.0
C2049 C 0.37192 0.6795 0.57125 0.0
C2050 C 0.37742 0.65656 0.62484 0.0
C2051 C 0.39305 0.65553 0.60508 0.0
C2052 C 0.39788 0.66636 0.5675 0.0
C2053 C 0.38734 0.67831 0.55155 0.0
C2054 C 0.37193 0.64549 0.6657 0.0
C2055 C 0.41429 0.6655 0.54464 0.0
C2056 C 0.42724 0.63832 0.68073 0.0
C2057 C 0.42882 0.62298 0.66051 0.0
C2058 C 0.41525 0.64873 0.66437 0.0
C2059 C 0.40479 0.64389 0.62582 0.0
C2060 C 0.40622 0.62834 0.60552 0.0
C2061 C 0.4181 0.61798 0.62359 0.0
C2062 C 0.41396 0.66504 0.68789 0.0
C2063 C 0.39553 0.62285 0.56365 0.0
H2064 H 0.35506 0.66931 0.6226 0.0
H2065 H 0.39118 0.68672 0.5233 0.0
H2066 H 0.37355 0.6329 0.65418 0.0
H2067 H 0.3793 0.64739 0.69955 0.0
H2068 H 0.35922 0.64738 0.6756 0.0
H2069 H 0.41574 0.67393 0.51302 0.0
H2070 H 0.42341 0.66833 0.57327 0.0
H2071 H 0.41672 0.65324 0.5311 0.0
H2072 H 0.43537 0.64218 0.70971 0.0
H2073 H 0.41931 0.60615 0.60779 0.0
H2074 H 0.4016 0.66718 0.70085 0.0
H2075 H 0.41677 0.67434 0.65984 0.0
H2076 H 0.42218 0.66651 0.72005 0.0
H2077 H 0.38285 0.62418 0.5744 0.0
H2078 H 0.39773 0.61022 0.55326 0.0
H2079 H 0.39752 0.63043 0.53031 0.0
C2080 C 0.63645 0.17007 0.86694 0.0
C2081 C 0.63173 0.18068 0.90452 0.0
C2082 C 0.62587 0.15843 0.84852 0.0
C2083 C 0.61039 0.15709 0.86923 0.0
C2084 C 0.60576 0.16754 0.90808 0.0
C2085 C 0.61638 0.17933 0.9247 0.0
C2086 C 0.63114 0.14781 0.8062 0.0
C2087 C 0.58953 0.1663 0.93209 0.0
C2088 C 0.57592 0.13888 0.79678 0.0
C2089 C 0.57522 0.12342 0.81647 0.0
C2090 C 0.58769 0.14972 0.81221 0.0
C2091 C 0.59877 0.14517 0.8494 0.0
C2092 C 0.59817 0.12951 0.86929 0.0
C2093 C 0.58653 0.11875 0.85203 0.0
C2094 C 0.58815 0.16612 0.78904 0.0
C2095 C 0.60948 0.12431 0.90988 0.0
H2096 H 0.64828 0.17112 0.85113 0.0
H2097 H 0.61273 0.1874 0.95414 0.0
H2098 H 0.63027 0.13512 0.8174 0.0
H2099 H 0.62312 0.1495 0.77372 0.0
H2100 H 0.64356 0.15031 0.79433 0.0
H2101 H 0.58812 0.17468 0.96386 0.0
H2102 H 0.58014 0.1689 0.90417 0.0
H2103 H 0.58751 0.15398 0.94574 0.0
H2104 H 0.5673 0.14249 0.76887 0.0
H2105 H 0.58599 0.10681 0.86746 0.0
H2106 H 0.60028 0.16872 0.77479 0.0
H2107 H 0.58535 0.17525 0.81765 0.0
H2108 H 0.57952 0.16737 0.75787 0.0
H2109 H 0.62198 0.12592 0.89757 0.0
H2110 H 0.60771 0.11164 0.9206 0.0
H2111 H 0.60775 0.13187 0.9434 0.0
C2112 C 0.07221 0.63285 0.35733 0.0
C2113 C 0.07575 0.61939 0.32859 0.0
C2114 C 0.08427 0.64334 0.37285 0.0
C2115 C 0.10019 0.64068 0.35737 0.0
C2116 C 0.10383 0.62698 0.32856 0.0
C2117 C 0.09159 0.61631 0.31531 0.0
C2118 C 0.07992 0.65744 0.4051 0.0
C2119 C 0.12052 0.62398 0.30985 0.0
C2120 C 0.12524 0.67847 0.35384 0.0
C2121 C 0.13444 0.67687 0.39702 0.0
C2122 C 0.11465 0.66637 0.33912 0.0
C2123 C 0.11276 0.65266 0.36953 0.0
C2124 C 0.12219 0.65099 0.41308 0.0
C2125 C 0.13312 0.66303 0.42588 0.0
C2126 C 0.10522 0.66842 0.29161 0.0
C2127 C 0.1202 0.63687 0.4474 0.0
H2128 H 0.05994 0.63518 0.36772 0.0
H2129 H 0.09427 0.60599 0.29252 0.0
H2130 H 0.08781 0.65796 0.43825 0.0
H2131 H 0.08165 0.66865 0.38389 0.0
H2132 H 0.06735 0.65693 0.41795 0.0
H2133 H 0.12151 0.61252 0.28934 0.0
H2134 H 0.12414 0.63381 0.28455 0.0
H2135 H 0.12906 0.62387 0.34137 0.0
H2136 H 0.1263 0.68923 0.33169 0.0
H2137 H 0.14015 0.66196 0.45964 0.0
H2138 H 0.09244 0.67007 0.30061 0.0
H2139 H 0.10622 0.65758 0.26813 0.0
H2140 H 0.10931 0.67887 0.26957 0.0
H2141 H 0.108 0.63691 0.46328 0.0
H2142 H 0.12892 0.63699 0.47859 0.0
H2143 H 0.1216 0.62557 0.42639 0.0
C2144 C 0.61584 0.8271 0.551 0.0
C2145 C 0.63125 0.82622 0.57101 0.0
C2146 C 0.60508 0.8389 0.56655 0.0
C2147 C 0.60964 0.84983 0.60418 0.0
C2148 C 0.62524 0.84908 0.6243 0.0
C2149 C 0.63595 0.83741 0.60693 0.0
C2150 C 0.58872 0.8395 0.54316 0.0
C2151 C 0.63045 0.86025 0.6653 0.0
C2152 C 0.58442 0.88727 0.62211 0.0
C2153 C 0.57368 0.88227 0.65895 0.0
C2154 C 0.59628 0.8769 0.60401 0.0
C2155 C 0.5977 0.86135 0.62434 0.0
C2156 C 0.58715 0.85648 0.66261 0.0
C2157 C 0.57515 0.8669 0.67888 0.0
C2158 C 0.607 0.88241 0.56229 0.0
C2159 C 0.58846 0.84018 0.6862 0.0
H2160 H 0.61221 0.81859 0.52278 0.0
H2161 H 0.64784 0.83673 0.62257 0.0
H2162 H 0.57956 0.83656 0.5715 0.0
H2163 H 0.58616 0.85172 0.52947 0.0
H2164 H 0.5875 0.83103 0.51154 0.0
H2165 H 0.64312 0.85849 0.67583 0.0
H2166 H 0.62877 0.87281 0.65356 0.0
H2167 H 0.62293 0.85832 0.69881 0.0
H2168 H 0.58329 0.89914 0.60654 0.0
H2169 H 0.56699 0.86304 0.70781 0.0
H2170 H 0.60533 0.87462 0.52925 0.0
H2171 H 0.61967 0.88141 0.57364 0.0
H2172 H 0.60459 0.89493 0.55119 0.0
H2173 H 0.58587 0.83085 0.65803 0.0
H2174 H 0.5801 0.83865 0.71794 0.0
H2175 H 0.60078 0.83816 0.69979 0.0
C2176 C 0.42976 0.3687 0.80806 0.0
C2177 C 0.43068 0.38425 0.82697 0.0
C2178 C 0.4177 0.35819 0.82334 0.0
C2179 C 0.40649 0.36317 0.85955 0.0
C2180 C 0.40731 0.3789 0.87875 0.0
C2181 C 0.41928 0.38935 0.86168 0.0
C2182 C 0.41707 0.34167 0.801 0.0
C2183 C 0.39583 0.38455 0.91825 0.0
C2184 C 0.36866 0.33827 0.87249 0.0
C2185 C 0.3731 0.32741 0.90971 0.0
C2186 C 0.37928 0.35019 0.85627 0.0
C2187 C 0.3945 0.35155 0.87887 0.0
C2188 C 0.39873 0.34099 0.91789 0.0
C2189 C 0.38808 0.32893 0.93228 0.0
C2190 C 0.37445 0.36094 0.81375 0.0
C2191 C 0.41464 0.34224 0.94387 0.0
H2192 H 0.43841 0.36475 0.78074 0.0
H2193 H 0.41997 0.40136 0.87644 0.0
H2194 H 0.41941 0.33264 0.83032 0.0
H2195 H 0.40501 0.33927 0.7858 0.0
H2196 H 0.42593 0.34005 0.77066 0.0
H2197 H 0.39777 0.39725 0.92838 0.0
H2198 H 0.38339 0.38309 0.90517 0.0
H2199 H 0.3972 0.37715 0.95228 0.0
H2200 H 0.35709 0.3371 0.85489 0.0
H2201 H 0.39149 0.32068 0.96154 0.0
H2202 H 0.38244 0.35887 0.78142 0.0
H2203 H 0.37577 0.37362 0.82466 0.0
H2204 H 0.36196 0.35886 0.80173 0.0
H2205 H 0.42433 0.33926 0.91737 0.0
H2206 H 0.41552 0.3341 0.97644 0.0
H2207 H 0.41668 0.35464 0.95679 0.0
C2208 C 0.88744 0.17616 0.04745 0.0
C2209 C 0.87207 0.17731 0.06751 0.0
C2210 C 0.89803 0.16421 0.06305 0.0
C2211 C 0.89331 0.15336 0.1007 0.0
C2212 C 0.87769 0.1543 0.12062 0.0
C2213 C 0.86717 0.16615 0.1033 0.0
C2214 C 0.91442 0.16344 0.03998 0.0
C2215 C 0.87231 0.1432 0.16155 0.0
C2216 C 0.91894 0.11624 0.12 0.0
C2217 C 0.92958 0.1215 0.15678 0.0
C2218 C 0.90687 0.12636 0.10174 0.0
C2219 C 0.9052 0.14194 0.12169 0.0
C2220 C 0.9156 0.14704 0.1601 0.0
C2221 C 0.92775 0.13686 0.17666 0.0
C2222 C 0.89626 0.1206 0.06006 0.0
C2223 C 0.91406 0.16338 0.18322 0.0
H2224 H 0.89122 0.18463 0.01931 0.0
H2225 H 0.8553 0.16702 0.11895 0.0
H2226 H 0.92353 0.16651 0.06836 0.0
H2227 H 0.91697 0.15116 0.02689 0.0
H2228 H 0.91572 0.17176 0.00801 0.0
H2229 H 0.85954 0.14486 0.17108 0.0
H2230 H 0.87422 0.13061 0.15038 0.0
H2231 H 0.87955 0.14533 0.19554 0.0
H2232 H 0.92033 0.10439 0.10449 0.0
H2233 H 0.93582 0.14093 0.20555 0.0
H2234 H 0.89815 0.1281 0.02648 0.0
H2235 H 0.88356 0.12181 0.07077 0.0
H2236 H 0.89862 0.10797 0.05008 0.0
H2237 H 0.91673 0.17265 0.15493 0.0
H2238 H 0.92226 0.16506 0.21533 0.0
H2239 H 0.90167 0.16537 0.19615 0.0
C2240 C 0.88537 0.67542 0.93418 0.0
C2241 C 0.87141 0.67857 0.90729 0.0
C2242 C 0.89584 0.66326 0.91947 0.0
C2243 C 0.8926 0.65442 0.87564 0.0
C2244 C 0.87839 0.65744 0.8486 0.0
C2245 C 0.8678 0.66932 0.86532 0.0
C2246 C 0.91057 0.66013 0.95029 0.0
C2247 C 0.87472 0.64862 0.80092 0.0
C2248 C 0.92941 0.63826 0.81068 0.0
C2249 C 0.92913 0.62208 0.8239 0.0
C2250 C 0.91735 0.64873 0.82604 0.0
C2251 C 0.90476 0.643 0.85621 0.0
C2252 C 0.90432 0.62665 0.86952 0.0
C2253 C 0.91645 0.61634 0.85284 0.0
C2254 C 0.91821 0.66601 0.81037 0.0
C2255 C 0.89124 0.62013 0.9023 0.0
H2256 H 0.88806 0.68245 0.96707 0.0
H2257 H 0.85702 0.67181 0.84444 0.0
H2258 H 0.91159 0.64723 0.95882 0.0
H2259 H 0.92132 0.66359 0.92885 0.0
H2260 H 0.91051 0.66688 0.98593 0.0
H2261 H 0.86282 0.65176 0.7857 0.0
H2262 H 0.88387 0.65152 0.77248 0.0
H2263 H 0.87519 0.63557 0.80723 0.0
H2264 H 0.93909 0.64279 0.78795 0.0
H2265 H 0.91615 0.60385 0.86317 0.0
H2266 H 0.91979 0.67369 0.84367 0.0
H2267 H 0.9069 0.66962 0.79216 0.0
H2268 H 0.92819 0.66834 0.78421 0.0
H2269 H 0.89158 0.62614 0.93916 0.0
H2270 H 0.89233 0.60707 0.90813 0.0
H2271 H 0.87943 0.62268 0.88556 0.0
C2272 C 0.11485 0.18157 0.57469 0.0
C2273 C 0.13141 0.17942 0.57642 0.0
C2274 C 0.10437 0.16941 0.58961 0.0
C2275 C 0.11056 0.15474 0.60712 0.0
C2276 C 0.12727 0.15246 0.60887 0.0
C2277 C 0.1375 0.16481 0.59334 0.0
C2278 C 0.08664 0.17234 0.58691 0.0
C2279 C 0.13435 0.13707 0.62781 0.0
C2280 C 0.08213 0.13192 0.69109 0.0
C2281 C 0.07605 0.12035 0.65863 0.0
C2282 C 0.094 0.14261 0.67551 0.0
C2283 C 0.09946 0.14213 0.62557 0.0
C2284 C 0.09347 0.13028 0.59276 0.0
C2285 C 0.082 0.11932 0.61001 0.0
C2286 C 0.10039 0.15467 0.71221 0.0
C2287 C 0.09865 0.12963 0.53892 0.0
H2288 H 0.11002 0.19278 0.56151 0.0
H2289 H 0.15028 0.16303 0.5947 0.0
H2290 H 0.08083 0.16287 0.56447 0.0
H2291 H 0.08143 0.17184 0.62488 0.0
H2292 H 0.08374 0.1841 0.57021 0.0
H2293 H 0.14757 0.13705 0.62597 0.0
H2294 H 0.13067 0.13508 0.66705 0.0
H2295 H 0.12979 0.12688 0.60565 0.0
H2296 H 0.07756 0.13262 0.72884 0.0
H2297 H 0.07716 0.11044 0.58486 0.0
H2298 H 0.09668 0.16683 0.70082 0.0
H2299 H 0.1136 0.15444 0.71242 0.0
H2300 H 0.09605 0.15247 0.75074 0.0
H2301 H 0.09485 0.14069 0.5196 0.0
H2302 H 0.09349 0.11924 0.5189 0.0
H2303 H 0.11182 0.12902 0.5364 0.0
C2304 C 0.58719 0.38583 0.35703 0.0
C2305 C 0.57587 0.38167 0.32084 0.0
C2306 C 0.59872 0.37478 0.37308 0.0
C2307 C 0.5992 0.35936 0.35146 0.0
C2308 C 0.58812 0.35534 0.31366 0.0
C2309 C 0.57648 0.36645 0.29932 0.0
C2310 C 0.61007 0.37943 0.41426 0.0
C2311 C 0.58842 0.33919 0.28879 0.0
C2312 C 0.63642 0.33371 0.36751 0.0
C2313 C 0.63145 0.32289 0.40418 0.0
C2314 C 0.62607 0.34567 0.34985 0.0
C2315 C 0.61057 0.34708 0.37037 0.0
C2316 C 0.60567 0.33637 0.40819 0.0
C2317 C 0.61607 0.3243 0.4241 0.0
C2318 C 0.63161 0.35659 0.30865 0.0
C2319 C 0.5894 0.33764 0.43189 0.0
H2320 H 0.58674 0.39757 0.37384 0.0
H2321 H 0.56787 0.36323 0.2709 0.0
H2322 H 0.60815 0.3716 0.44708 0.0
H2323 H 0.62256 0.37772 0.40198 0.0
H2324 H 0.6085 0.39203 0.42607 0.0
H2325 H 0.57985 0.33838 0.25732 0.0
H2326 H 0.60055 0.33659 0.27452 0.0
H2327 H 0.58543 0.3298 0.31637 0.0
H2328 H 0.64828 0.33263 0.35193 0.0
H2329 H 0.61222 0.31608 0.45286 0.0
H2330 H 0.63095 0.36919 0.32103 0.0
H2331 H 0.62364 0.35536 0.27586 0.0
H2332 H 0.64402 0.35399 0.29678 0.0
H2333 H 0.58757 0.34984 0.4468 0.0
H2334 H 0.58775 0.32895 0.46273 0.0
H2335 H 0.58004 0.33551 0.40347 0.0
C2336 C 0.38883 0.82522 0.05648 0.0
C2337 C 0.37329 0.82408 0.07529 0.0
C2338 C 0.39929 0.83718 0.07289 0.0
C2339 C 0.39428 0.84804 0.11012 0.0
C2340 C 0.37858 0.84695 0.12935 0.0
C2341 C 0.36819 0.83511 0.11118 0.0
C2342 C 0.41578 0.83811 0.05051 0.0
C2343 C 0.3729 0.85805 0.16989 0.0
C2344 C 0.42811 0.86657 0.18453 0.0
C2345 C 0.42928 0.88181 0.16331 0.0
C2346 C 0.41637 0.85574 0.16894 0.0
C2347 C 0.40577 0.86006 0.13012 0.0
C2348 C 0.40682 0.87548 0.10873 0.0
C2349 C 0.41843 0.88626 0.12608 0.0
C2350 C 0.41544 0.83959 0.19361 0.0
C2351 C 0.39601 0.88042 0.06649 0.0
H2352 H 0.39278 0.81685 0.0283 0.0
H2353 H 0.3562 0.83424 0.1259 0.0
H2354 H 0.41802 0.85029 0.03597 0.0
H2355 H 0.42484 0.83572 0.07965 0.0
H2356 H 0.41748 0.82944 0.01968 0.0
H2357 H 0.3603 0.8558 0.18039 0.0
H2358 H 0.38047 0.8566 0.20352 0.0
H2359 H 0.37407 0.87062 0.15759 0.0
H2360 H 0.43635 0.86314 0.21375 0.0
H2361 H 0.41932 0.89801 0.10951 0.0
H2362 H 0.41845 0.83015 0.16623 0.0
H2363 H 0.40312 0.83727 0.20674 0.0
H2364 H 0.42369 0.83855 0.22584 0.0
H2365 H 0.39806 0.87256 0.03383 0.0
H2366 H 0.398 0.89297 0.05493 0.0
H2367 H 0.38336 0.87899 0.07753 0.0
C2368 C 0.9246 0.36806 0.67914 0.0
C2369 C 0.92616 0.3833 0.65818 0.0
C2370 C 0.91264 0.35753 0.66316 0.0
C2371 C 0.90222 0.36214 0.62423 0.0
C2372 C 0.90359 0.37762 0.60335 0.0
C2373 C 0.91543 0.3881 0.62106 0.0
C2374 C 0.9114 0.34131 0.68732 0.0
C2375 C 0.89295 0.38288 0.56109 0.0
C2376 C 0.88565 0.32728 0.55006 0.0
C2377 C 0.87015 0.32589 0.56901 0.0
C2378 C 0.89592 0.33944 0.56619 0.0
C2379 C 0.89074 0.35028 0.60327 0.0
C2380 C 0.87502 0.34906 0.62222 0.0
C2381 C 0.86482 0.33698 0.60436 0.0
C2382 C 0.91243 0.3405 0.54413 0.0
C2383 C 0.86915 0.36014 0.66254 0.0
H2384 H 0.93274 0.36436 0.70829 0.0
H2385 H 0.91663 0.39986 0.6047 0.0
H2386 H 0.89899 0.33907 0.69964 0.0
H2387 H 0.9145 0.33194 0.65983 0.0
H2388 H 0.91944 0.3401 0.72 0.0
H2389 H 0.89493 0.39554 0.55074 0.0
H2390 H 0.89522 0.37533 0.52785 0.0
H2391 H 0.88026 0.38128 0.57134 0.0
H2392 H 0.88977 0.31885 0.52228 0.0
H2393 H 0.85286 0.33593 0.61918 0.0
H2394 H 0.92144 0.33786 0.57326 0.0
H2395 H 0.91475 0.35277 0.53045 0.0
H2396 H 0.91416 0.33203 0.51275 0.0
H2397 H 0.87631 0.35836 0.69688 0.0
H2398 H 0.8564 0.35813 0.67163 0.0
H2399 H 0.87074 0.37273 0.65095 0.0
C2400 C 0.38645 0.17914 0.42491 0.0
C2401 C 0.37123 0.18057 0.40387 0.0
C2402 C 0.39703 0.16722 0.40913 0.0
C2403 C 0.39251 0.15676 0.37016 0.0
C2404 C 0.37712 0.15814 0.34876 0.0
C2405 C 0.36655 0.16989 0.36646 0.0
C2406 C 0.41313 0.16591 0.43394 0.0
C2407 C 0.37199 0.14752 0.30625 0.0
C2408 C 0.42735 0.13904 0.29867 0.0
C2409 C 0.42808 0.12353 0.31794 0.0
C2410 C 0.41543 0.14972 0.31387 0.0
C2411 C 0.40424 0.14496 0.35045 0.0
C2412 C 0.40488 0.12926 0.36994 0.0
C2413 C 0.41666 0.11864 0.35286 0.0
C2414 C 0.41494 0.16618 0.29111 0.0
C2415 C 0.39345 0.12385 0.40994 0.0
H2416 H 0.39003 0.18727 0.45428 0.0
H2417 H 0.35481 0.17101 0.35003 0.0
H2418 H 0.41513 0.15353 0.44709 0.0
H2419 H 0.42265 0.16871 0.40665 0.0
H2420 H 0.41434 0.17414 0.46619 0.0
H2421 H 0.35954 0.14988 0.29439 0.0
H2422 H 0.37999 0.1494 0.27382 0.0
H2423 H 0.37303 0.13482 0.31715 0.0
H2424 H 0.43605 0.1428 0.27119 0.0
H2425 H 0.41722 0.10666 0.36792 0.0
H2426 H 0.4176 0.17525 0.32005 0.0
H2427 H 0.40284 0.16874 0.27653 0.0
H2428 H 0.42365 0.16758 0.26025 0.0
H2429 H 0.39504 0.1313 0.44378 0.0
H2430 H 0.39524 0.11116 0.42027 0.0
H2431 H 0.38098 0.12545 0.39725 0.0
C2432 C 0.63802 0.66755 0.10699 0.0
C2433 C 0.63286 0.67887 0.07209 0.0
C2434 C 0.62761 0.65567 0.12478 0.0
C2435 C 0.61181 0.65488 0.10623 0.0
C2436 C 0.60677 0.66595 0.06963 0.0
C2437 C 0.61728 0.67792 0.05355 0.0
C2438 C 0.63333 0.64433 0.16462 0.0
C2439 C 0.59017 0.66535 0.04801 0.0
C2440 C 0.58643 0.61752 0.12425 0.0
C2441 C 0.57599 0.62245 0.162 0.0
C2442 C 0.59836 0.62783 0.10614 0.0
C2443 C 0.60013 0.64323 0.12723 0.0
C2444 C 0.58998 0.64797 0.16672 0.0
C2445 C 0.57793 0.63762 0.1831 0.0
C2446 C 0.60869 0.62245 0.06329 0.0
C2447 C 0.59165 0.66411 0.19111 0.0
H2448 H 0.65006 0.66827 0.12148 0.0
H2449 H 0.61328 0.68653 0.02612 0.0
H2450 H 0.62628 0.64614 0.19916 0.0
H2451 H 0.63146 0.63182 0.15264 0.0
H2452 H 0.64614 0.64605 0.17354 0.0
H2453 H 0.58855 0.67395 0.01692 0.0
H2454 H 0.58752 0.65318 0.03406 0.0
H2455 H 0.58132 0.66811 0.07746 0.0
H2456 H 0.58494 0.60582 0.10777 0.0
H2457 H 0.57001 0.64142 0.21271 0.0
H2458 H 0.62146 0.62368 0.07315 0.0
H2459 H 0.6065 0.63018 0.03042 0.0
H2460 H 0.60634 0.60988 0.05256 0.0
H2461 H 0.60415 0.66606 0.20314 0.0
H2462 H 0.58373 0.66544 0.22403 0.0
H2463 H 0.58868 0.67361 0.16387 0.0
C2464 C 0.09211 0.8847 0.80601 0.0
C2465 C 0.07782 0.88514 0.83283 0.0
C2466 C 0.10415 0.87373 0.81842 0.0
C2467 C 0.10201 0.86336 0.85966 0.0
C2468 C 0.08785 0.86439 0.88827 0.0
C2469 C 0.07577 0.87503 0.8738 0.0
C2470 C 0.11878 0.87266 0.78587 0.0
C2471 C 0.08527 0.85398 0.93348 0.0
C2472 C 0.1223 0.82287 0.86677 0.0
C2473 C 0.13531 0.82606 0.89788 0.0
C2474 C 0.11184 0.83508 0.85218 0.0
C2475 C 0.11401 0.85072 0.87104 0.0
C2476 C 0.12722 0.85398 0.90243 0.0
C2477 C 0.1379 0.84165 0.91466 0.0
C2478 C 0.09831 0.83117 0.81712 0.0
C2479 C 0.12966 0.87031 0.92482 0.0
H2480 H 0.09352 0.8924 0.77384 0.0
H2481 H 0.06465 0.87539 0.89435 0.0
H2482 H 0.12973 0.87369 0.80876 0.0
H2483 H 0.11912 0.86084 0.76736 0.0
H2484 H 0.119 0.88206 0.7567 0.0
H2485 H 0.0745 0.8575 0.95484 0.0
H2486 H 0.0839 0.84138 0.92172 0.0
H2487 H 0.09577 0.8546 0.95857 0.0
H2488 H 0.12036 0.8108 0.85363 0.0
H2489 H 0.14788 0.84405 0.93923 0.0
H2490 H 0.09813 0.83973 0.78555 0.0
H2491 H 0.08679 0.8323 0.83697 0.0
H2492 H 0.09923 0.81889 0.80189 0.0
H2493 H 0.13014 0.87948 0.89509 0.0
H2494 H 0.14075 0.87104 0.94727 0.0
H2495 H 0.1194 0.87329 0.94919 0.0
loop_
_geom_bond_atom_site_label_1
_geom_bond_atom_site_label_2
_geom_bond_distance
_geom_bond_site_symmetry_2
_ccdc_geom_bond_type
Co0 O1 2.216 . S
Co0 O2 2.091 . S
Co0 O4 2.004 . S
Co0 O10 2.021 . S
Co0 O12 2.137 1_554 S
Co0 O13 2.244 . S
O1 Co0 2.216 . S
O1 C8 1.247 . S
O2 Co0 2.091 . S
O2 C8 1.261 . S
C3 O12 1.247 . S
C3 O13 1.272 1_556 S
O4 Co0 2.004 . S
O4 C9 1.259 . S
Co5 O6 2.061 . S
Co5 O11 2.052 . S
Co5 O13 2.135 . S
O6 Co5 2.061 . S
O6 C9 1.235 . S
C7 O10 1.238 . S
C7 O11 1.241 . S
C8 O1 1.247 . S
C8 O2 1.261 . S
C9 O4 1.259 . S
C9 O6 1.235 . S
O10 Co0 2.021 . S
O10 C7 1.238 . S
O11 Co5 2.052 . S
O11 C7 1.241 . S
O12 Co0 2.137 1_556 S
O12 C3 1.247 . S
O13 Co0 2.244 . S
O13 C3 1.272 1_554 S
O13 Co5 2.135 . S
Co14 O15 2.216 . S
Co14 O16 2.091 . S
Co14 O18 2.004 . S
Co14 O24 2.021 . S
Co14 O26 2.137 . S
Co14 O27 2.244 . S
O15 Co14 2.216 . S
O15 C22 1.247 . S
O16 Co14 2.091 . S
O16 C22 1.261 . S
C17 O26 1.247 . S
C17 O27 1.272 . S
O18 Co14 2.004 . S
O18 C23 1.259 . S
Co19 O20 2.061 . S
Co19 O25 2.052 . S
Co19 O27 2.135 . S
O20 Co19 2.061 . S
O20 C23 1.235 . S
C21 O24 1.238 . S
C21 O25 1.241 . S
C22 O15 1.247 . S
C22 O16 1.261 . S
C23 O18 1.259 . S
C23 O20 1.235 . S
O24 Co14 2.021 . S
O24 C21 1.238 . S
O25 Co19 2.052 . S
O25 C21 1.241 . S
O26 Co14 2.137 . S
O26 C17 1.247 . S
O27 Co14 2.244 . S
O27 C17 1.272 . S
O27 Co19 2.135 . S
Co28 O29 2.216 . S
Co28 O30 2.091 . S
Co28 O32 2.004 . S
Co28 O38 2.021 . S
Co28 O40 2.137 . S
Co28 O41 2.244 . S
O29 Co28 2.216 . S
O29 C36 1.247 . S
O30 Co28 2.091 . S
O30 C36 1.261 . S
C31 O40 1.247 . S
C31 O41 1.272 . S
O32 Co28 2.004 . S
O32 C37 1.259 . S
Co33 O34 2.061 . S
Co33 O39 2.052 . S
Co33 O41 2.135 . S
O34 Co33 2.061 . S
O34 C37 1.235 . S
C35 O38 1.238 . S
C35 O39 1.241 . S
C36 O29 1.247 . S
C36 O30 1.261 . S
C37 O32 1.259 . S
C37 O34 1.235 . S
O38 Co28 2.021 . S
O38 C35 1.238 . S
O39 Co33 2.052 . S
O39 C35 1.241 . S
O40 Co28 2.137 . S
O40 C31 1.247 . S
O41 Co28 2.244 . S
O41 C31 1.272 . S
O41 Co33 2.135 . S
Co42 O43 2.216 . S
Co42 O44 2.091 . S
Co42 O46 2.004 . S
Co42 O52 2.021 . S
Co42 O54 2.137 . S
Co42 O55 2.244 . S
O43 Co42 2.216 . S
O43 C50 1.247 . S
O44 Co42 2.091 . S
O44 C50 1.261 . S
C45 O54 1.247 . S
C45 O55 1.272 . S
O46 Co42 2.004 . S
O46 C51 1.259 . S
Co47 O48 2.061 . S
Co47 O53 2.052 . S
Co47 O55 2.135 . S
O48 Co47 2.061 . S
O48 C51 1.235 . S
C49 O52 1.238 . S
C49 O53 1.241 . S
C50 O43 1.247 . S
C50 O44 1.261 . S
C51 O46 1.259 . S
C51 O48 1.235 . S
O52 Co42 2.021 . S
O52 C49 1.238 . S
O53 Co47 2.052 . S
O53 C49 1.241 . S
O54 Co42 2.137 . S
O54 C45 1.247 . S
O55 Co42 2.244 . S
O55 C45 1.272 . S
O55 Co47 2.135 . S
Co56 O57 2.216 . S
Co56 O58 2.091 . S
Co56 O60 2.004 . S
Co56 O66 2.021 . S
Co56 O68 2.137 . S
Co56 O69 2.244 . S
O57 Co56 2.216 . S
O57 C64 1.247 . S
O58 Co56 2.091 . S
O58 C64 1.261 . S
C59 O68 1.247 . S
C59 O69 1.272 . S
O60 Co56 2.004 . S
O60 C65 1.259 . S
Co61 O62 2.061 . S
Co61 O67 2.052 . S
Co61 O69 2.135 . S
O62 Co61 2.061 . S
O62 C65 1.235 . S
C63 O66 1.238 . S
C63 O67 1.241 . S
C64 O57 1.247 . S
C64 O58 1.261 . S
C65 O60 1.259 . S
C65 O62 1.235 . S
O66 Co56 2.021 . S
O66 C63 1.238 . S
O67 Co61 2.052 . S
O67 C63 1.241 . S
O68 Co56 2.137 . S
O68 C59 1.247 . S
O69 Co56 2.244 . S
O69 C59 1.272 . S
O69 Co61 2.135 . S
Co70 O71 2.216 . S
Co70 O72 2.091 . S
Co70 O74 2.004 . S
Co70 O80 2.021 . S
Co70 O82 2.137 . S
Co70 O83 2.244 . S
O71 Co70 2.216 . S
O71 C78 1.247 . S
O72 Co70 2.091 . S
O72 C78 1.261 . S
C73 O82 1.247 . S
C73 O83 1.272 . S
O74 Co70 2.004 . S
O74 C79 1.259 . S
Co75 O76 2.061 . S
Co75 O81 2.052 . S
Co75 O83 2.135 . S
O76 Co75 2.061 . S
O76 C79 1.235 . S
C77 O80 1.238 . S
C77 O81 1.241 . S
C78 O71 1.247 . S
C78 O72 1.261 . S
C79 O74 1.259 . S
C79 O76 1.235 . S
O80 Co70 2.021 . S
O80 C77 1.238 . S
O81 Co75 2.052 . S
O81 C77 1.241 . S
O82 Co70 2.137 . S
O82 C73 1.247 . S
O83 Co70 2.244 . S
O83 C73 1.272 . S
O83 Co75 2.135 . S
Co84 O85 2.216 . S
Co84 O86 2.091 . S
Co84 O88 2.004 . S
Co84 O94 2.021 . S
Co84 O96 2.137 1_556 S
Co84 O97 2.244 . S
O85 Co84 2.216 . S
O85 C92 1.247 . S
O86 Co84 2.091 . S
O86 C92 1.261 . S
C87 O96 1.247 . S
C87 O97 1.272 1_554 S
O88 Co84 2.004 . S
O88 C93 1.259 . S
Co89 O90 2.061 . S
Co89 O95 2.052 . S
Co89 O97 2.135 . S
O90 Co89 2.061 . S
O90 C93 1.235 . S
C91 O94 1.238 . S
C91 O95 1.241 . S
C92 O85 1.247 . S
C92 O86 1.261 . S
C93 O88 1.259 . S
C93 O90 1.235 . S
O94 Co84 2.021 . S
O94 C91 1.238 . S
O95 Co89 2.052 . S
O95 C91 1.241 . S
O96 Co84 2.137 1_554 S
O96 C87 1.247 . S
O97 Co84 2.244 . S
O97 C87 1.272 1_556 S
O97 Co89 2.135 . S
Co98 O99 2.216 . S
Co98 O100 2.091 . S
Co98 O102 2.004 . S
Co98 O108 2.021 . S
Co98 O110 2.137 . S
Co98 O111 2.244 . S
O99 Co98 2.216 . S
O99 C106 1.247 . S
O100 Co98 2.091 . S
O100 C106 1.261 . S
C101 O110 1.247 . S
C101 O111 1.272 . S
O102 Co98 2.004 . S
O102 C107 1.259 . S
Co103 O104 2.061 . S
Co103 O109 2.052 . S
Co103 O111 2.135 . S
O104 Co103 2.061 . S
O104 C107 1.235 . S
C105 O108 1.238 . S
C105 O109 1.241 . S
C106 O99 1.247 . S
C106 O100 1.261 . S
C107 O102 1.259 . S
C107 O104 1.235 . S
O108 Co98 2.021 . S
O108 C105 1.238 . S
O109 Co103 2.052 . S
O109 C105 1.241 . S
O110 Co98 2.137 . S
O110 C101 1.247 . S
O111 Co98 2.244 . S
O111 C101 1.272 . S
O111 Co103 2.135 . S
Co112 O113 2.216 . S
Co112 O114 2.091 . S
Co112 O116 2.004 . S
Co112 O122 2.021 . S
Co112 O124 2.137 1_556 S
Co112 O125 2.244 . S
O113 Co112 2.216 . S
O113 C120 1.247 . S
O114 Co112 2.091 . S
O114 C120 1.261 . S
C115 O124 1.247 . S
C115 O125 1.272 1_554 S
O116 Co112 2.004 . S
O116 C121 1.259 . S
Co117 O118 2.061 . S
Co117 O123 2.052 . S
Co117 O125 2.135 . S
O118 Co117 2.061 . S
O118 C121 1.235 . S
C119 O122 1.238 . S
C119 O123 1.241 . S
C120 O113 1.247 . S
C120 O114 1.261 . S
C121 O116 1.259 . S
C121 O118 1.235 . S
O122 Co112 2.021 . S
O122 C119 1.238 . S
O123 Co117 2.052 . S
O123 C119 1.241 . S
O124 Co112 2.137 1_554 S
O124 C115 1.247 . S
O125 Co112 2.244 . S
O125 C115 1.272 1_556 S
O125 Co117 2.135 . S
Co126 O127 2.216 . S
Co126 O128 2.091 . S
Co126 O130 2.004 . S
Co126 O136 2.021 . S
Co126 O138 2.137 . S
Co126 O139 2.244 . S
O127 Co126 2.216 . S
O127 C134 1.247 . S
O128 Co126 2.091 . S
O128 C134 1.261 . S
C129 O138 1.247 . S
C129 O139 1.272 . S
O130 Co126 2.004 . S
O130 C135 1.259 . S
Co131 O132 2.061 . S
Co131 O137 2.052 . S
Co131 O139 2.135 . S
O132 Co131 2.061 . S
O132 C135 1.235 . S
C133 O136 1.238 . S
C133 O137 1.241 . S
C134 O127 1.247 . S
C134 O128 1.261 . S
C135 O130 1.259 . S
C135 O132 1.235 . S
O136 Co126 2.021 . S
O136 C133 1.238 . S
O137 Co131 2.052 . S
O137 C133 1.241 . S
O138 Co126 2.137 . S
O138 C129 1.247 . S
O139 Co126 2.244 . S
O139 C129 1.272 . S
O139 Co131 2.135 . S
Co140 O141 2.216 . S
Co140 O142 2.091 . S
Co140 O144 2.004 . S
Co140 O150 2.021 . S
Co140 O152 2.137 . S
Co140 O153 2.244 . S
O141 Co140 2.216 . S
O141 C148 1.247 . S
O142 Co140 2.091 . S
O142 C148 1.261 . S
C143 O152 1.247 . S
C143 O153 1.272 . S
O144 Co140 2.004 . S
O144 C149 1.259 . S
Co145 O146 2.061 . S
Co145 O151 2.052 . S
Co145 O153 2.135 . S
O146 Co145 2.061 . S
O146 C149 1.235 . S
C147 O150 1.238 . S
C147 O151 1.241 . S
C148 O141 1.247 . S
C148 O142 1.261 . S
C149 O144 1.259 . S
C149 O146 1.235 . S
O150 Co140 2.021 . S
O150 C147 1.238 . S
O151 Co145 2.052 . S
O151 C147 1.241 . S
O152 Co140 2.137 . S
O152 C143 1.247 . S
O153 Co140 2.244 . S
O153 C143 1.272 . S
O153 Co145 2.135 . S
Co154 O155 2.216 . S
Co154 O156 2.091 . S
Co154 O158 2.004 . S
Co154 O164 2.021 . S
Co154 O166 2.137 . S
Co154 O167 2.244 . S
O155 Co154 2.216 . S
O155 C162 1.247 . S
O156 Co154 2.091 . S
O156 C162 1.261 . S
C157 O166 1.247 . S
C157 O167 1.272 . S
O158 Co154 2.004 . S
O158 C163 1.259 . S
Co159 O160 2.061 . S
Co159 O165 2.052 . S
Co159 O167 2.135 . S
O160 Co159 2.061 . S
O160 C163 1.235 . S
C161 O164 1.238 . S
C161 O165 1.241 . S
C162 O155 1.247 . S
C162 O156 1.261 . S
C163 O158 1.259 . S
C163 O160 1.235 . S
O164 Co154 2.021 . S
O164 C161 1.238 . S
O165 Co159 2.052 . S
O165 C161 1.241 . S
O166 Co154 2.137 . S
O166 C157 1.247 . S
O167 Co154 2.244 . S
O167 C157 1.272 . S
O167 Co159 2.135 . S
Co168 O169 2.216 . S
Co168 O170 2.091 . S
Co168 O172 2.004 . S
Co168 O178 2.021 . S
Co168 O180 2.137 . S
Co168 O181 2.244 . S
O169 Co168 2.216 . S
O169 C176 1.247 . S
O170 Co168 2.091 . S
O170 C176 1.261 . S
C171 O180 1.247 . S
C171 O181 1.272 . S
O172 Co168 2.004 . S
O172 C177 1.259 . S
Co173 O174 2.061 . S
Co173 O179 2.052 . S
Co173 O181 2.135 . S
O174 Co173 2.061 . S
O174 C177 1.235 . S
C175 O178 1.238 . S
C175 O179 1.241 . S
C176 O169 1.247 . S
C176 O170 1.261 . S
C177 O172 1.259 . S
C177 O174 1.235 . S
O178 Co168 2.021 . S
O178 C175 1.238 . S
O179 Co173 2.052 . S
O179 C175 1.241 . S
O180 Co168 2.137 . S
O180 C171 1.247 . S
O181 Co168 2.244 . S
O181 C171 1.272 . S
O181 Co173 2.135 . S
Co182 O183 2.216 . S
Co182 O184 2.091 . S
Co182 O186 2.004 . S
Co182 O192 2.021 . S
Co182 O194 2.137 . S
Co182 O195 2.244 . S
O183 Co182 2.216 . S
O183 C190 1.247 . S
O184 Co182 2.091 . S
O184 C190 1.261 . S
C185 O194 1.247 . S
C185 O195 1.272 . S
O186 Co182 2.004 . S
O186 C191 1.259 . S
Co187 O188 2.061 . S
Co187 O193 2.052 . S
Co187 O195 2.135 . S
O188 Co187 2.061 . S
O188 C191 1.235 . S
C189 O192 1.238 . S
C189 O193 1.241 . S
C190 O183 1.247 . S
C190 O184 1.261 . S
C191 O186 1.259 . S
C191 O188 1.235 . S
O192 Co182 2.021 . S
O192 C189 1.238 . S
O193 Co187 2.052 . S
O193 C189 1.241 . S
O194 Co182 2.137 . S
O194 C185 1.247 . S
O195 Co182 2.244 . S
O195 C185 1.272 . S
O195 Co187 2.135 . S
Co196 O197 2.216 . S
Co196 O198 2.091 . S
Co196 O200 2.004 . S
Co196 O206 2.021 . S
Co196 O208 2.137 1_554 S
Co196 O209 2.244 . S
O197 Co196 2.216 . S
O197 C204 1.247 . S
O198 Co196 2.091 . S
O198 C204 1.261 . S
C199 O208 1.247 . S
C199 O209 1.272 1_556 S
O200 Co196 2.004 . S
O200 C205 1.259 . S
Co201 O202 2.061 . S
Co201 O207 2.052 . S
Co201 O209 2.135 . S
O202 Co201 2.061 . S
O202 C205 1.235 . S
C203 O206 1.238 . S
C203 O207 1.241 . S
C204 O197 1.247 . S
C204 O198 1.261 . S
C205 O200 1.259 . S
C205 O202 1.235 . S
O206 Co196 2.021 . S
O206 C203 1.238 . S
O207 Co201 2.052 . S
O207 C203 1.241 . S
O208 Co196 2.137 1_556 S
O208 C199 1.247 . S
O209 Co196 2.244 . S
O209 C199 1.272 1_554 S
O209 Co201 2.135 . S
Co210 O211 2.216 . S
Co210 O212 2.091 . S
Co210 O214 2.004 . S
Co210 O220 2.021 . S
Co210 O222 2.137 . S
Co210 O223 2.244 . S
O211 Co210 2.216 . S
O211 C218 1.247 . S
O212 Co210 2.091 . S
O212 C218 1.261 . S
C213 O222 1.247 . S
C213 O223 1.272 . S
O214 Co210 2.004 . S
O214 C219 1.259 . S
Co215 O216 2.061 . S
Co215 O221 2.052 . S
Co215 O223 2.135 . S
O216 Co215 2.061 . S
O216 C219 1.235 . S
C217 O220 1.238 . S
C217 O221 1.241 . S
C218 O211 1.247 . S
C218 O212 1.261 . S
C219 O214 1.259 . S
C219 O216 1.235 . S
O220 Co210 2.021 . S
O220 C217 1.238 . S
O221 Co215 2.052 . S
O221 C217 1.241 . S
O222 Co210 2.137 . S
O222 C213 1.247 . S
O223 Co210 2.244 . S
O223 C213 1.272 . S
O223 Co215 2.135 . S
Co224 O225 2.216 . S
Co224 O226 2.091 . S
Co224 O228 2.004 . S
Co224 O234 2.021 . S
Co224 O236 2.137 . S
Co224 O237 2.244 . S
O225 Co224 2.216 . S
O225 C232 1.247 . S
O226 Co224 2.091 . S
O226 C232 1.261 . S
C227 O236 1.247 . S
C227 O237 1.272 . S
O228 Co224 2.004 . S
O228 C233 1.259 . S
Co229 O230 2.061 . S
Co229 O235 2.052 . S
Co229 O237 2.135 . S
O230 Co229 2.061 . S
O230 C233 1.235 . S
C231 O234 1.238 . S
C231 O235 1.241 . S
C232 O225 1.247 . S
C232 O226 1.261 . S
C233 O228 1.259 . S
C233 O230 1.235 . S
O234 Co224 2.021 . S
O234 C231 1.238 . S
O235 Co229 2.052 . S
O235 C231 1.241 . S
O236 Co224 2.137 . S
O236 C227 1.247 . S
O237 Co224 2.244 . S
O237 C227 1.272 . S
O237 Co229 2.135 . S
Co238 O239 2.216 . S
Co238 O240 2.091 . S
Co238 O242 2.004 . S
Co238 O248 2.021 . S
Co238 O250 2.137 . S
Co238 O251 2.244 . S
O239 Co238 2.216 . S
O239 C246 1.247 . S
O240 Co238 2.091 . S
O240 C246 1.261 . S
C241 O250 1.247 . S
C241 O251 1.272 . S
O242 Co238 2.004 . S
O242 C247 1.259 . S
Co243 O244 2.061 . S
Co243 O249 2.052 . S
Co243 O251 2.135 . S
O244 Co243 2.061 . S
O244 C247 1.235 . S
C245 O248 1.238 . S
C245 O249 1.241 . S
C246 O239 1.247 . S
C246 O240 1.261 . S
C247 O242 1.259 . S
C247 O244 1.235 . S
O248 Co238 2.021 . S
O248 C245 1.238 . S
O249 Co243 2.052 . S
O249 C245 1.241 . S
O250 Co238 2.137 . S
O250 C241 1.247 . S
O251 Co238 2.244 . S
O251 C241 1.272 . S
O251 Co243 2.135 . S
Co252 O253 2.216 . S
Co252 O254 2.091 . S
Co252 O256 2.004 . S
Co252 O262 2.021 . S
Co252 O264 2.137 1_554 S
Co252 O265 2.244 . S
O253 Co252 2.216 . S
O253 C260 1.247 . S
O254 Co252 2.091 . S
O254 C260 1.261 . S
C255 O264 1.247 . S
C255 O265 1.272 1_556 S
O256 Co252 2.004 . S
O256 C261 1.259 . S
Co257 O258 2.061 . S
Co257 O263 2.052 . S
Co257 O265 2.135 . S
O258 Co257 2.061 . S
O258 C261 1.235 . S
C259 O262 1.238 . S
C259 O263 1.241 . S
C260 O253 1.247 . S
C260 O254 1.261 . S
C261 O256 1.259 . S
C261 O258 1.235 . S
O262 Co252 2.021 . S
O262 C259 1.238 . S
O263 Co257 2.052 . S
O263 C259 1.241 . S
O264 Co252 2.137 1_556 S
O264 C255 1.247 . S
O265 Co252 2.244 . S
O265 C255 1.272 1_554 S
O265 Co257 2.135 . S
Co266 O267 2.216 . S
Co266 O268 2.091 . S
Co266 O270 2.004 . S
Co266 O276 2.021 . S
Co266 O278 2.137 . S
Co266 O279 2.244 . S
O267 Co266 2.216 . S
O267 C274 1.247 . S
O268 Co266 2.091 . S
O268 C274 1.261 . S
C269 O278 1.247 . S
C269 O279 1.272 . S
O270 Co266 2.004 . S
O270 C275 1.259 . S
Co271 O272 2.061 . S
Co271 O277 2.052 . S
Co271 O279 2.135 . S
O272 Co271 2.061 . S
O272 C275 1.235 . S
C273 O276 1.238 . S
C273 O277 1.241 . S
C274 O267 1.247 . S
C274 O268 1.261 . S
C275 O270 1.259 . S
C275 O272 1.235 . S
O276 Co266 2.021 . S
O276 C273 1.238 . S
O277 Co271 2.052 . S
O277 C273 1.241 . S
O278 Co266 2.137 . S
O278 C269 1.247 . S
O279 Co266 2.244 . S
O279 C269 1.272 . S
O279 Co271 2.135 . S
Co280 O281 2.216 . S
Co280 O282 2.091 . S
Co280 O284 2.004 . S
Co280 O290 2.021 . S
Co280 O292 2.137 1_556 S
Co280 O293 2.244 . S
O281 Co280 2.216 . S
O281 C288 1.247 . S
O282 Co280 2.091 . S
O282 C288 1.261 . S
C283 O292 1.247 . S
C283 O293 1.272 1_554 S
O284 Co280 2.004 . S
O284 C289 1.259 . S
Co285 O286 2.061 . S
Co285 O291 2.052 . S
Co285 O293 2.135 . S
O286 Co285 2.061 . S
O286 C289 1.235 . S
C287 O290 1.238 . S
C287 O291 1.241 . S
C288 O281 1.247 . S
C288 O282 1.261 . S
C289 O284 1.259 . S
C289 O286 1.235 . S
O290 Co280 2.021 . S
O290 C287 1.238 . S
O291 Co285 2.052 . S
O291 C287 1.241 . S
O292 Co280 2.137 1_554 S
O292 C283 1.247 . S
O293 Co280 2.244 . S
O293 C283 1.272 1_556 S
O293 Co285 2.135 . S
Co294 O295 2.216 . S
Co294 O296 2.091 . S
Co294 O298 2.004 . S
Co294 O304 2.021 . S
Co294 O306 2.137 . S
Co294 O307 2.244 . S
O295 Co294 2.216 . S
O295 C302 1.247 . S
O296 Co294 2.091 . S
O296 C302 1.261 . S
C297 O306 1.247 . S
C297 O307 1.272 . S
O298 Co294 2.004 . S
O298 C303 1.259 . S
Co299 O300 2.061 . S
Co299 O305 2.052 . S
Co299 O307 2.135 . S
O300 Co299 2.061 . S
O300 C303 1.235 . S
C301 O304 1.238 . S
C301 O305 1.241 . S
C302 O295 1.247 . S
C302 O296 1.261 . S
C303 O298 1.259 . S
C303 O300 1.235 . S
O304 Co294 2.021 . S
O304 C301 1.238 . S
O305 Co299 2.052 . S
O305 C301 1.241 . S
O306 Co294 2.137 . S
O306 C297 1.247 . S
O307 Co294 2.244 . S
O307 C297 1.272 . S
O307 Co299 2.135 . S
Co308 O309 2.216 . S
Co308 O310 2.091 . S
Co308 O312 2.004 . S
Co308 O318 2.021 . S
Co308 O320 2.137 . S
Co308 O321 2.244 . S
O309 Co308 2.216 . S
O309 C316 1.247 . S
O310 Co308 2.091 . S
O310 C316 1.261 . S
C311 O320 1.247 . S
C311 O321 1.272 . S
O312 Co308 2.004 . S
O312 C317 1.259 . S
Co313 O314 2.061 . S
Co313 O319 2.052 . S
Co313 O321 2.135 . S
O314 Co313 2.061 . S
O314 C317 1.235 . S
C315 O318 1.238 . S
C315 O319 1.241 . S
C316 O309 1.247 . S
C316 O310 1.261 . S
C317 O312 1.259 . S
C317 O314 1.235 . S
O318 Co308 2.021 . S
O318 C315 1.238 . S
O319 Co313 2.052 . S
O319 C315 1.241 . S
O320 Co308 2.137 . S
O320 C311 1.247 . S
O321 Co308 2.244 . S
O321 C311 1.272 . S
O321 Co313 2.135 . S
Co322 O323 2.216 . S
Co322 O324 2.091 . S
Co322 O326 2.004 . S
Co322 O332 2.021 . S
Co322 O334 2.137 . S
Co322 O335 2.244 . S
O323 Co322 2.216 . S
O323 C330 1.247 . S
O324 Co322 2.091 . S
O324 C330 1.261 . S
C325 O334 1.247 . S
C325 O335 1.272 . S
O326 Co322 2.004 . S
O326 C331 1.259 . S
Co327 O328 2.061 . S
Co327 O333 2.052 . S
Co327 O335 2.135 . S
O328 Co327 2.061 . S
O328 C331 1.235 . S
C329 O332 1.238 . S
C329 O333 1.241 . S
C330 O323 1.247 . S
C330 O324 1.261 . S
C331 O326 1.259 . S
C331 O328 1.235 . S
O332 Co322 2.021 . S
O332 C329 1.238 . S
O333 Co327 2.052 . S
O333 C329 1.241 . S
O334 Co322 2.137 . S
O334 C325 1.247 . S
O335 Co322 2.244 . S
O335 C325 1.272 . S
O335 Co327 2.135 . S
Co336 O337 2.216 . S
Co336 O338 2.091 . S
Co336 O340 2.004 . S
Co336 O346 2.021 . S
Co336 O348 2.137 . S
Co336 O349 2.244 . S
O337 Co336 2.216 . S
O337 C344 1.247 . S
O338 Co336 2.091 . S
O338 C344 1.261 . S
C339 O348 1.247 . S
C339 O349 1.272 . S
O340 Co336 2.004 . S
O340 C345 1.259 . S
Co341 O342 2.061 . S
Co341 O347 2.052 . S
Co341 O349 2.135 . S
O342 Co341 2.061 . S
O342 C345 1.235 . S
C343 O346 1.238 . S
C343 O347 1.241 . S
C344 O337 1.247 . S
C344 O338 1.261 . S
C345 O340 1.259 . S
C345 O342 1.235 . S
O346 Co336 2.021 . S
O346 C343 1.238 . S
O347 Co341 2.052 . S
O347 C343 1.241 . S
O348 Co336 2.137 . S
O348 C339 1.247 . S
O349 Co336 2.244 . S
O349 C339 1.272 . S
O349 Co341 2.135 . S
Co350 O351 2.216 . S
Co350 O352 2.091 . S
Co350 O354 2.004 . S
Co350 O360 2.021 . S
Co350 O362 2.137 . S
Co350 O363 2.244 . S
O351 Co350 2.216 . S
O351 C358 1.247 . S
O352 Co350 2.091 . S
O352 C358 1.261 . S
C353 O362 1.247 . S
C353 O363 1.272 . S
O354 Co350 2.004 . S
O354 C359 1.259 . S
Co355 O356 2.061 . S
Co355 O361 2.052 . S
Co355 O363 2.135 . S
O356 Co355 2.061 . S
O356 C359 1.235 . S
C357 O360 1.238 . S
C357 O361 1.241 . S
C358 O351 1.247 . S
C358 O352 1.261 . S
C359 O354 1.259 . S
C359 O356 1.235 . S
O360 Co350 2.021 . S
O360 C357 1.238 . S
O361 Co355 2.052 . S
O361 C357 1.241 . S
O362 Co350 2.137 . S
O362 C353 1.247 . S
O363 Co350 2.244 . S
O363 C353 1.272 . S
O363 Co355 2.135 . S
Co364 O365 2.216 . S
Co364 O366 2.091 . S
Co364 O368 2.004 . S
Co364 O374 2.021 . S
Co364 O376 2.137 1_556 S
Co364 O377 2.244 . S
O365 Co364 2.216 . S
O365 C372 1.247 . S
O366 Co364 2.091 . S
O366 C372 1.261 . S
C367 O376 1.247 . S
C367 O377 1.272 1_554 S
O368 Co364 2.004 . S
O368 C373 1.259 . S
Co369 O370 2.061 . S
Co369 O375 2.052 . S
Co369 O377 2.135 . S
O370 Co369 2.061 . S
O370 C373 1.235 . S
C371 O374 1.238 . S
C371 O375 1.241 . S
C372 O365 1.247 . S
C372 O366 1.261 . S
C373 O368 1.259 . S
C373 O370 1.235 . S
O374 Co364 2.021 . S
O374 C371 1.238 . S
O375 Co369 2.052 . S
O375 C371 1.241 . S
O376 Co364 2.137 1_554 S
O376 C367 1.247 . S
O377 Co364 2.244 . S
O377 C367 1.272 1_556 S
O377 Co369 2.135 . S
Co378 O379 2.216 . S
Co378 O380 2.091 . S
Co378 O382 2.004 . S
Co378 O388 2.021 . S
Co378 O390 2.137 . S
Co378 O391 2.244 . S
O379 Co378 2.216 . S
O379 C386 1.247 . S
O380 Co378 2.091 . S
O380 C386 1.261 . S
C381 O390 1.247 . S
C381 O391 1.272 . S
O382 Co378 2.004 . S
O382 C387 1.259 . S
Co383 O384 2.061 . S
Co383 O389 2.052 . S
Co383 O391 2.135 . S
O384 Co383 2.061 . S
O384 C387 1.235 . S
C385 O388 1.238 . S
C385 O389 1.241 . S
C386 O379 1.247 . S
C386 O380 1.261 . S
C387 O382 1.259 . S
C387 O384 1.235 . S
O388 Co378 2.021 . S
O388 C385 1.238 . S
O389 Co383 2.052 . S
O389 C385 1.241 . S
O390 Co378 2.137 . S
O390 C381 1.247 . S
O391 Co378 2.244 . S
O391 C381 1.272 . S
O391 Co383 2.135 . S
Co392 O393 2.216 . S
Co392 O394 2.091 . S
Co392 O396 2.004 . S
Co392 O402 2.021 . S
Co392 O404 2.137 1_554 S
Co392 O405 2.244 . S
O393 Co392 2.216 . S
O393 C400 1.247 . S
O394 Co392 2.091 . S
O394 C400 1.261 . S
C395 O404 1.247 . S
C395 O405 1.272 1_556 S
O396 Co392 2.004 . S
O396 C401 1.259 . S
Co397 O398 2.061 . S
Co397 O403 2.052 . S
Co397 O405 2.135 . S
O398 Co397 2.061 . S
O398 C401 1.235 . S
C399 O402 1.238 . S
C399 O403 1.241 . S
C400 O393 1.247 . S
C400 O394 1.261 . S
C401 O396 1.259 . S
C401 O398 1.235 . S
O402 Co392 2.021 . S
O402 C399 1.238 . S
O403 Co397 2.052 . S
O403 C399 1.241 . S
O404 Co392 2.137 1_556 S
O404 C395 1.247 . S
O405 Co392 2.244 . S
O405 C395 1.272 1_554 S
O405 Co397 2.135 . S
Co406 O407 2.216 . S
Co406 O408 2.091 . S
Co406 O410 2.004 . S
Co406 O416 2.021 . S
Co406 O418 2.137 . S
Co406 O419 2.244 . S
O407 Co406 2.216 . S
O407 C414 1.247 . S
O408 Co406 2.091 . S
O408 C414 1.261 . S
C409 O418 1.247 . S
C409 O419 1.272 . S
O410 Co406 2.004 . S
O410 C415 1.259 . S
Co411 O412 2.061 . S
Co411 O417 2.052 . S
Co411 O419 2.135 . S
O412 Co411 2.061 . S
O412 C415 1.235 . S
C413 O416 1.238 . S
C413 O417 1.241 . S
C414 O407 1.247 . S
C414 O408 1.261 . S
C415 O410 1.259 . S
C415 O412 1.235 . S
O416 Co406 2.021 . S
O416 C413 1.238 . S
O417 Co411 2.052 . S
O417 C413 1.241 . S
O418 Co406 2.137 . S
O418 C409 1.247 . S
O419 Co406 2.244 . S
O419 C409 1.272 . S
O419 Co411 2.135 . S
Co420 O421 2.216 . S
Co420 O422 2.091 . S
Co420 O424 2.004 . S
Co420 O430 2.021 . S
Co420 O432 2.137 . S
Co420 O433 2.244 . S
O421 Co420 2.216 . S
O421 C428 1.247 . S
O422 Co420 2.091 . S
O422 C428 1.261 . S
C423 O432 1.247 . S
C423 O433 1.272 . S
O424 Co420 2.004 . S
O424 C429 1.259 . S
Co425 O426 2.061 . S
Co425 O431 2.052 . S
Co425 O433 2.135 . S
O426 Co425 2.061 . S
O426 C429 1.235 . S
C427 O430 1.238 . S
C427 O431 1.241 . S
C428 O421 1.247 . S
C428 O422 1.261 . S
C429 O424 1.259 . S
C429 O426 1.235 . S
O430 Co420 2.021 . S
O430 C427 1.238 . S
O431 Co425 2.052 . S
O431 C427 1.241 . S
O432 Co420 2.137 . S
O432 C423 1.247 . S
O433 Co420 2.244 . S
O433 C423 1.272 . S
O433 Co425 2.135 . S
Co434 O435 2.216 . S
Co434 O436 2.091 . S
Co434 O438 2.004 . S
Co434 O444 2.021 . S
Co434 O446 2.137 . S
Co434 O447 2.244 . S
O435 Co434 2.216 . S
O435 C442 1.247 . S
O436 Co434 2.091 . S
O436 C442 1.261 . S
C437 O446 1.247 . S
C437 O447 1.272 . S
O438 Co434 2.004 . S
O438 C443 1.259 . S
Co439 O440 2.061 . S
Co439 O445 2.052 . S
Co439 O447 2.135 . S
O440 Co439 2.061 . S
O440 C443 1.235 . S
C441 O444 1.238 . S
C441 O445 1.241 . S
C442 O435 1.247 . S
C442 O436 1.261 . S
C443 O438 1.259 . S
C443 O440 1.235 . S
O444 Co434 2.021 . S
O444 C441 1.238 . S
O445 Co439 2.052 . S
O445 C441 1.241 . S
O446 Co434 2.137 . S
O446 C437 1.247 . S
O447 Co434 2.244 . S
O447 C437 1.272 . S
O447 Co439 2.135 . S
C448 C449 1.391 . S
C448 C450 1.392 1_556 S
C448 H464 0.929 1_556 S
C449 C448 1.391 . S
C449 C453 1.376 . S
C450 C448 1.392 1_554 S
C450 C451 1.366 1_554 S
C450 C454 1.535 . S
C451 C450 1.366 1_556 S
C451 C452 1.410 . S
C451 C459 1.503 1_556 S
C452 C451 1.410 . S
C452 C453 1.392 . S
C452 C455 1.511 . S
C453 C449 1.376 . S
C453 C452 1.392 . S
C453 H465 0.929 . S
C454 C450 1.535 . S
C454 H466 0.960 . S
C454 H467 0.962 . S
C454 H468 0.960 . S
C455 C452 1.511 . S
C455 H469 0.961 . S
C455 H470 0.961 . S
C455 H471 0.961 . S
C456 C457 1.370 . S
C456 C458 1.363 . S
C456 H472 0.931 . S
C457 C456 1.370 . S
C457 C461 1.408 1_554 S
C458 C456 1.363 . S
C458 C459 1.370 . S
C458 C462 1.524 . S
C459 C451 1.503 1_554 S
C459 C458 1.370 . S
C459 C460 1.403 1_554 S
C460 C459 1.403 1_556 S
C460 C461 1.404 . S
C460 C463 1.539 . S
C461 C457 1.408 1_556 S
C461 C460 1.404 . S
C461 H473 0.930 . S
C462 C458 1.524 . S
C462 H474 0.956 . S
C462 H475 0.961 . S
C462 H476 0.961 . S
C463 C460 1.539 . S
C463 H477 0.958 . S
C463 H478 0.961 . S
C463 H479 0.960 . S
H464 C448 0.929 1_554 S
H465 C453 0.929 . S
H466 C454 0.960 . S
H467 C454 0.962 . S
H468 C454 0.960 . S
H469 C455 0.961 . S
H470 C455 0.961 . S
H471 C455 0.961 . S
H472 C456 0.931 . S
H473 C461 0.930 . S
H474 C462 0.956 . S
H475 C462 0.961 . S
H476 C462 0.961 . S
H477 C463 0.958 . S
H478 C463 0.961 . S
H479 C463 0.960 . S
C480 C481 1.391 . S
C480 C482 1.394 . S
C480 H496 0.931 . S
C481 C480 1.391 . S
C481 C485 1.376 . S
C482 C480 1.394 . S
C482 C483 1.369 . S
C482 C486 1.531 . S
C483 C482 1.369 . S
C483 C484 1.410 . S
C483 C491 1.503 1_565 S
C484 C483 1.410 . S
C484 C485 1.392 . S
C484 C487 1.511 . S
C485 C481 1.376 . S
C485 C484 1.392 . S
C485 H497 0.929 . S
C486 C482 1.531 . S
C486 H498 0.960 1_565 S
C486 H499 0.962 . S
C486 H500 0.960 . S
C487 C484 1.511 . S
C487 H501 0.961 . S
C487 H502 0.961 . S
C487 H503 0.961 . S
C488 C489 1.370 . S
C488 C490 1.363 . S
C488 H504 0.931 . S
C489 C488 1.370 . S
C489 C493 1.408 . S
C490 C488 1.363 . S
C490 C491 1.370 . S
C490 C494 1.527 1_545 S
C491 C483 1.503 1_545 S
C491 C490 1.370 . S
C491 C492 1.403 . S
C492 C491 1.403 . S
C492 C493 1.404 . S
C492 C495 1.539 . S
C493 C489 1.408 . S
C493 C492 1.404 . S
C493 H505 0.930 . S
C494 C490 1.527 1_565 S
C494 H506 0.955 . S
C494 H507 0.958 . S
C494 H508 0.962 1_565 S
C495 C492 1.539 . S
C495 H509 0.958 . S
C495 H510 0.961 . S
C495 H511 0.960 . S
H496 C480 0.931 . S
H497 C485 0.929 . S
H498 C486 0.960 1_545 S
H499 C486 0.962 . S
H500 C486 0.960 . S
H501 C487 0.961 . S
H502 C487 0.961 . S
H503 C487 0.961 . S
H504 C488 0.931 . S
H505 C493 0.930 . S
H506 C494 0.955 . S
H507 C494 0.958 . S
H508 C494 0.962 1_545 S
H509 C495 0.958 . S
H510 C495 0.961 . S
H511 C495 0.960 . S
C512 C513 1.391 . S
C512 C514 1.394 . S
C512 H528 0.931 . S
C513 C512 1.391 . S
C513 C517 1.376 . S
C514 C512 1.394 . S
C514 C515 1.369 . S
C514 C518 1.531 . S
C515 C514 1.369 . S
C515 C516 1.410 . S
C515 C523 1.503 . S
C516 C515 1.410 . S
C516 C517 1.392 . S
C516 C519 1.511 . S
C517 C513 1.376 . S
C517 C516 1.392 . S
C517 H529 0.929 . S
C518 C514 1.531 . S
C518 H530 0.960 . S
C518 H531 0.962 . S
C518 H532 0.960 . S
C519 C516 1.511 . S
C519 H533 0.961 . S
C519 H534 0.961 . S
C519 H535 0.961 . S
C520 C521 1.370 . S
C520 C522 1.363 . S
C520 H536 0.931 . S
C521 C520 1.370 . S
C521 C525 1.408 . S
C522 C520 1.363 . S
C522 C523 1.370 . S
C522 C526 1.524 . S
C523 C515 1.503 . S
C523 C522 1.370 . S
C523 C524 1.403 . S
C524 C523 1.403 . S
C524 C525 1.404 . S
C524 C527 1.539 . S
C525 C521 1.408 . S
C525 C524 1.404 . S
C525 H537 0.930 . S
C526 C522 1.524 . S
C526 H538 0.956 . S
C526 H539 0.961 . S
C526 H540 0.961 . S
C527 C524 1.539 . S
C527 H541 0.958 . S
C527 H542 0.961 . S
C527 H543 0.960 . S
H528 C512 0.931 . S
H529 C517 0.929 . S
H530 C518 0.960 . S
H531 C518 0.962 . S
H532 C518 0.960 . S
H533 C519 0.961 . S
H534 C519 0.961 . S
H535 C519 0.961 . S
H536 C520 0.931 . S
H537 C525 0.930 . S
H538 C526 0.956 . S
H539 C526 0.961 . S
H540 C526 0.961 . S
H541 C527 0.958 . S
H542 C527 0.961 . S
H543 C527 0.960 . S
C544 C545 1.391 . S
C544 C546 1.394 . S
C544 H560 0.931 . S
C545 C544 1.391 . S
C545 C549 1.376 . S
C546 C544 1.394 . S
C546 C547 1.369 . S
C546 C550 1.531 . S
C547 C546 1.369 . S
C547 C548 1.410 . S
C547 C555 1.503 1_545 S
C548 C547 1.410 . S
C548 C549 1.392 . S
C548 C551 1.511 . S
C549 C545 1.376 . S
C549 C548 1.392 . S
C549 H561 0.929 . S
C550 C546 1.531 . S
C550 H562 0.960 . S
C550 H563 0.962 . S
C550 H564 0.960 . S
C551 C548 1.511 . S
C551 H565 0.961 . S
C551 H566 0.961 1_545 S
C551 H567 0.961 . S
C552 C553 1.370 . S
C552 C554 1.363 . S
C552 H568 0.931 . S
C553 C552 1.370 . S
C553 C557 1.408 . S
C554 C552 1.363 . S
C554 C555 1.370 . S
C554 C558 1.524 . S
C555 C547 1.503 1_565 S
C555 C554 1.370 . S
C555 C556 1.403 . S
C556 C555 1.403 . S
C556 C557 1.404 . S
C556 C559 1.539 . S
C557 C553 1.408 . S
C557 C556 1.404 . S
C557 H569 0.930 . S
C558 C554 1.524 . S
C558 H570 0.956 . S
C558 H571 0.961 . S
C558 H572 0.961 . S
C559 C556 1.539 . S
C559 H573 0.958 1_565 S
C559 H574 0.961 . S
C559 H575 0.960 1_565 S
H560 C544 0.931 . S
H561 C549 0.929 . S
H562 C550 0.960 . S
H563 C550 0.962 . S
H564 C550 0.960 . S
H565 C551 0.961 . S
H566 C551 0.961 1_565 S
H567 C551 0.961 . S
H568 C552 0.931 . S
H569 C557 0.930 . S
H570 C558 0.956 . S
H571 C558 0.961 . S
H572 C558 0.961 . S
H573 C559 0.958 1_545 S
H574 C559 0.961 . S
H575 C559 0.960 1_545 S
C576 C577 1.391 . S
C576 C578 1.394 . S
C576 H592 0.931 . S
C577 C576 1.391 . S
C577 C581 1.376 1_554 S
C578 C576 1.394 . S
C578 C579 1.369 . S
C578 C582 1.531 . S
C579 C578 1.369 . S
C579 C580 1.410 1_554 S
C579 C587 1.503 1_554 S
C580 C579 1.410 1_556 S
C580 C581 1.392 . S
C580 C583 1.511 . S
C581 C577 1.376 1_556 S
C581 C580 1.392 . S
C581 H593 0.929 . S
C582 C578 1.531 . S
C582 H594 0.960 . S
C582 H595 0.962 . S
C582 H596 0.960 . S
C583 C580 1.511 . S
C583 H597 0.961 . S
C583 H598 0.961 . S
C583 H599 0.961 . S
C584 C585 1.370 . S
C584 C586 1.363 . S
C584 H600 0.931 . S
C585 C584 1.370 . S
C585 C589 1.408 . S
C586 C584 1.363 . S
C586 C587 1.370 . S
C586 C590 1.524 . S
C587 C579 1.503 1_556 S
C587 C586 1.370 . S
C587 C588 1.403 . S
C588 C587 1.403 . S
C588 C589 1.404 . S
C588 C591 1.539 1_556 S
C589 C585 1.408 . S
C589 C588 1.404 . S
C589 H601 0.930 . S
C590 C586 1.524 . S
C590 H602 0.956 1_556 S
C590 H603 0.961 . S
C590 H604 0.961 . S
C591 C588 1.539 1_554 S
C591 H605 0.958 . S
C591 H606 0.961 1_554 S
C591 H607 0.960 . S
H592 C576 0.931 . S
H593 C581 0.929 . S
H594 C582 0.960 . S
H595 C582 0.962 . S
H596 C582 0.960 . S
H597 C583 0.961 . S
H598 C583 0.961 . S
H599 C583 0.961 . S
H600 C584 0.931 . S
H601 C589 0.930 . S
H602 C590 0.956 1_554 S
H603 C590 0.961 . S
H604 C590 0.961 . S
H605 C591 0.958 . S
H606 C591 0.961 1_556 S
H607 C591 0.960 . S
C608 C609 1.391 . S
C608 C610 1.394 . S
C608 H624 0.931 . S
C609 C608 1.391 . S
C609 C613 1.376 . S
C610 C608 1.394 . S
C610 C611 1.369 . S
C610 C614 1.531 . S
C611 C610 1.369 . S
C611 C612 1.410 . S
C611 C619 1.503 1_565 S
C612 C611 1.410 . S
C612 C613 1.392 . S
C612 C615 1.511 . S
C613 C609 1.376 . S
C613 C612 1.392 . S
C613 H625 0.929 . S
C614 C610 1.531 . S
C614 H626 0.960 1_565 S
C614 H627 0.962 . S
C614 H628 0.960 . S
C615 C612 1.511 . S
C615 H629 0.961 . S
C615 H630 0.961 . S
C615 H631 0.961 . S
C616 C617 1.370 . S
C616 C618 1.363 . S
C616 H632 0.931 . S
C617 C616 1.370 . S
C617 C621 1.408 . S
C618 C616 1.363 . S
C618 C619 1.370 . S
C618 C622 1.479 1_545 S
C619 C611 1.503 1_545 S
C619 C618 1.370 . S
C619 C620 1.403 . S
C620 C619 1.403 . S
C620 C621 1.404 . S
C620 C623 1.539 . S
C621 C617 1.408 . S
C621 C620 1.404 . S
C621 H633 0.930 . S
C622 C618 1.479 1_565 S
C622 H634 0.984 . S
C622 H635 1.005 . S
C622 H636 0.939 1_565 S
C623 C620 1.539 . S
C623 H637 0.958 . S
C623 H638 0.961 . S
C623 H639 0.960 . S
H624 C608 0.931 . S
H625 C613 0.929 . S
H626 C614 0.960 1_545 S
H627 C614 0.962 . S
H628 C614 0.960 . S
H629 C615 0.961 . S
H630 C615 0.961 . S
H631 C615 0.961 . S
H632 C616 0.931 . S
H633 C621 0.930 . S
H634 C622 0.984 . S
H635 C622 1.005 . S
H636 C622 0.939 1_545 S
H637 C623 0.958 . S
H638 C623 0.961 . S
H639 C623 0.960 . S
C640 C641 1.391 . S
C640 C642 1.394 . S
C640 H656 0.931 . S
C641 C640 1.391 . S
C641 C645 1.376 . S
C642 C640 1.394 . S
C642 C643 1.369 . S
C642 C646 1.531 . S
C643 C642 1.369 . S
C643 C644 1.410 . S
C643 C651 1.503 . S
C644 C643 1.410 . S
C644 C645 1.392 . S
C644 C647 1.511 . S
C645 C641 1.376 . S
C645 C644 1.392 . S
C645 H657 0.929 . S
C646 C642 1.531 . S
C646 H658 0.960 . S
C646 H659 0.962 . S
C646 H660 0.960 . S
C647 C644 1.511 . S
C647 H661 0.961 . S
C647 H662 0.961 . S
C647 H663 0.961 . S
C648 C649 1.370 . S
C648 C650 1.363 . S
C648 H664 0.931 . S
C649 C648 1.370 . S
C649 C653 1.408 . S
C650 C648 1.363 . S
C650 C651 1.370 . S
C650 C654 1.524 . S
C651 C643 1.503 . S
C651 C650 1.370 . S
C651 C652 1.403 . S
C652 C651 1.403 . S
C652 C653 1.404 . S
C652 C655 1.539 . S
C653 C649 1.408 . S
C653 C652 1.404 . S
C653 H665 0.930 . S
C654 C650 1.524 . S
C654 H666 0.956 . S
C654 H667 0.961 . S
C654 H668 0.961 . S
C655 C652 1.539 . S
C655 H669 0.958 . S
C655 H670 0.961 . S
C655 H671 0.960 . S
H656 C640 0.931 . S
H657 C645 0.929 . S
H658 C646 0.960 . S
H659 C646 0.962 . S
H660 C646 0.960 . S
H661 C647 0.961 . S
H662 C647 0.961 . S
H663 C647 0.961 . S
H664 C648 0.931 . S
H665 C653 0.930 . S
H666 C654 0.956 . S
H667 C654 0.961 . S
H668 C654 0.961 . S
H669 C655 0.958 . S
H670 C655 0.961 . S
H671 C655 0.960 . S
C672 C673 1.391 . S
C672 C674 1.394 . S
C672 H688 0.931 . S
C673 C672 1.391 . S
C673 C677 1.376 . S
C674 C672 1.394 . S
C674 C675 1.369 . S
C674 C678 1.531 . S
C675 C674 1.369 . S
C675 C676 1.410 . S
C675 C683 1.503 1_565 S
C676 C675 1.410 . S
C676 C677 1.392 . S
C676 C679 1.511 . S
C677 C673 1.376 . S
C677 C676 1.392 . S
C677 H689 0.929 . S
C678 C674 1.531 . S
C678 H690 0.976 . S
C678 H691 0.962 . S
C678 H692 0.960 . S
C679 C676 1.511 . S
C679 H693 0.961 . S
C679 H694 0.906 1_565 S
C679 H695 0.961 . S
C680 C681 1.370 . S
C680 C682 1.363 . S
C680 H696 0.931 . S
C681 C680 1.370 . S
C681 C685 1.408 . S
C682 C680 1.363 . S
C682 C683 1.370 . S
C682 C686 1.524 . S
C683 C675 1.503 1_545 S
C683 C682 1.370 . S
C683 C684 1.403 . S
C684 C683 1.403 . S
C684 C685 1.404 . S
C684 C687 1.577 . S
C685 C681 1.408 . S
C685 C684 1.404 . S
C685 H697 0.930 . S
C686 C682 1.524 . S
C686 H698 0.956 . S
C686 H699 0.961 . S
C686 H700 0.961 . S
C687 C684 1.577 . S
C687 H701 0.949 1_545 S
C687 H702 0.984 . S
C687 H703 0.912 1_545 S
H688 C672 0.931 . S
H689 C677 0.929 . S
H690 C678 0.976 . S
H691 C678 0.962 . S
H692 C678 0.960 . S
H693 C679 0.961 . S
H694 C679 0.906 1_545 S
H695 C679 0.961 . S
H696 C680 0.931 . S
H697 C685 0.930 . S
H698 C686 0.956 . S
H699 C686 0.961 . S
H700 C686 0.961 . S
H701 C687 0.949 1_565 S
H702 C687 0.984 . S
H703 C687 0.912 1_565 S
C704 C705 1.391 . S
C704 C706 1.394 . S
C704 H720 0.931 . S
C705 C704 1.391 . S
C705 C709 1.376 . S
C706 C704 1.394 . S
C706 C707 1.369 . S
C706 C710 1.531 . S
C707 C706 1.369 . S
C707 C708 1.410 . S
C707 C715 1.503 . S
C708 C707 1.410 . S
C708 C709 1.392 . S
C708 C711 1.511 . S
C709 C705 1.376 . S
C709 C708 1.392 . S
C709 H721 0.929 . S
C710 C706 1.531 . S
C710 H722 0.960 . S
C710 H723 0.962 . S
C710 H724 0.960 . S
C711 C708 1.511 . S
C711 H725 0.961 . S
C711 H726 0.961 . S
C711 H727 0.961 . S
C712 C713 1.370 . S
C712 C714 1.363 . S
C712 H728 0.931 . S
C713 C712 1.370 . S
C713 C717 1.408 . S
C714 C712 1.363 . S
C714 C715 1.370 . S
C714 C718 1.524 . S
C715 C707 1.503 . S
C715 C714 1.370 . S
C715 C716 1.403 . S
C716 C715 1.403 . S
C716 C717 1.404 . S
C716 C719 1.539 . S
C717 C713 1.408 . S
C717 C716 1.404 . S
C717 H729 0.930 . S
C718 C714 1.524 . S
C718 H730 0.956 . S
C718 H731 0.961 . S
C718 H732 0.961 . S
C719 C716 1.539 . S
C719 H733 0.958 . S
C719 H734 0.961 . S
C719 H735 0.960 . S
H720 C704 0.931 . S
H721 C709 0.929 . S
H722 C710 0.960 . S
H723 C710 0.962 . S
H724 C710 0.960 . S
H725 C711 0.961 . S
H726 C711 0.961 . S
H727 C711 0.961 . S
H728 C712 0.931 . S
H729 C717 0.930 . S
H730 C718 0.956 . S
H731 C718 0.961 . S
H732 C718 0.961 . S
H733 C719 0.958 . S
H734 C719 0.961 . S
H735 C719 0.960 . S
C736 C737 1.391 . S
C736 C738 1.394 . S
C736 H752 0.931 . S
C737 C736 1.391 . S
C737 C741 1.376 . S
C738 C736 1.394 . S
C738 C739 1.369 . S
C738 C742 1.531 . S
C739 C738 1.369 . S
C739 C740 1.410 . S
C739 C747 1.503 . S
C740 C739 1.410 . S
C740 C741 1.392 . S
C740 C743 1.511 . S
C741 C737 1.376 . S
C741 C740 1.392 . S
C741 H753 0.929 . S
C742 C738 1.531 . S
C742 H754 0.960 . S
C742 H755 0.962 . S
C742 H756 0.960 . S
C743 C740 1.511 . S
C743 H757 0.961 . S
C743 H758 0.961 . S
C743 H759 0.961 . S
C744 C745 1.370 . S
C744 C746 1.363 . S
C744 H760 0.931 . S
C745 C744 1.370 . S
C745 C749 1.408 . S
C746 C744 1.363 . S
C746 C747 1.370 . S
C746 C750 1.524 . S
C747 C739 1.503 . S
C747 C746 1.370 . S
C747 C748 1.403 . S
C748 C747 1.403 . S
C748 C749 1.404 . S
C748 C751 1.539 . S
C749 C745 1.408 . S
C749 C748 1.404 . S
C749 H761 0.930 . S
C750 C746 1.524 . S
C750 H762 0.956 . S
C750 H763 0.961 . S
C750 H764 0.961 . S
C751 C748 1.539 . S
C751 H765 0.958 . S
C751 H766 0.961 . S
C751 H767 0.960 . S
H752 C736 0.931 . S
H753 C741 0.929 . S
H754 C742 0.960 . S
H755 C742 0.962 . S
H756 C742 0.960 . S
H757 C743 0.961 . S
H758 C743 0.961 . S
H759 C743 0.961 . S
H760 C744 0.931 . S
H761 C749 0.930 . S
H762 C750 0.956 . S
H763 C750 0.961 . S
H764 C750 0.961 . S
H765 C751 0.958 . S
H766 C751 0.961 . S
H767 C751 0.960 . S
C768 C769 1.391 . S
C768 C770 1.394 . S
C768 H784 0.931 . S
C769 C768 1.391 . S
C769 C773 1.376 1_556 S
C770 C768 1.394 . S
C770 C771 1.369 . S
C770 C774 1.531 . S
C771 C770 1.369 . S
C771 C772 1.410 1_556 S
C771 C779 1.503 1_556 S
C772 C771 1.410 1_554 S
C772 C773 1.392 . S
C772 C775 1.511 . S
C773 C769 1.376 1_554 S
C773 C772 1.392 . S
C773 H785 0.929 . S
C774 C770 1.531 . S
C774 H786 0.960 . S
C774 H787 0.962 . S
C774 H788 0.960 . S
C775 C772 1.511 . S
C775 H789 0.961 . S
C775 H790 0.961 . S
C775 H791 0.961 . S
C776 C777 1.370 . S
C776 C778 1.363 . S
C776 H792 0.931 . S
C777 C776 1.370 . S
C777 C781 1.408 . S
C778 C776 1.363 . S
C778 C779 1.370 . S
C778 C782 1.524 1_554 S
C779 C771 1.503 1_554 S
C779 C778 1.370 . S
C779 C780 1.403 . S
C780 C779 1.403 . S
C780 C781 1.404 . S
C780 C783 1.539 . S
C781 C777 1.408 . S
C781 C780 1.404 . S
C781 H793 0.930 . S
C782 C778 1.524 1_556 S
C782 H794 0.956 . S
C782 H795 0.961 1_556 S
C782 H796 0.961 . S
C783 C780 1.539 . S
C783 H797 0.958 . S
C783 H798 0.961 . S
C783 H799 0.960 . S
H784 C768 0.931 . S
H785 C773 0.929 . S
H786 C774 0.960 . S
H787 C774 0.962 . S
H788 C774 0.960 . S
H789 C775 0.961 . S
H790 C775 0.961 . S
H791 C775 0.961 . S
H792 C776 0.931 . S
H793 C781 0.930 . S
H794 C782 0.956 . S
H795 C782 0.961 1_554 S
H796 C782 0.961 . S
H797 C783 0.958 . S
H798 C783 0.961 . S
H799 C783 0.960 . S
C800 C801 1.391 . S
C800 C802 1.394 . S
C800 H816 0.931 . S
C801 C800 1.391 . S
C801 C805 1.376 . S
C802 C800 1.394 . S
C802 C803 1.369 . S
C802 C806 1.531 . S
C803 C802 1.369 . S
C803 C804 1.410 . S
C803 C811 1.503 . S
C804 C803 1.410 . S
C804 C805 1.392 . S
C804 C807 1.511 . S
C805 C801 1.376 . S
C805 C804 1.392 . S
C805 H817 0.929 . S
C806 C802 1.531 . S
C806 H818 0.960 . S
C806 H819 0.962 . S
C806 H820 0.960 . S
C807 C804 1.511 . S
C807 H821 0.961 . S
C807 H822 0.961 . S
C807 H823 0.961 . S
C808 C809 1.370 . S
C808 C810 1.363 . S
C808 H824 0.931 . S
C809 C808 1.370 . S
C809 C813 1.408 . S
C810 C808 1.363 . S
C810 C811 1.370 . S
C810 C814 1.524 . S
C811 C803 1.503 . S
C811 C810 1.370 . S
C811 C812 1.403 . S
C812 C811 1.403 . S
C812 C813 1.404 . S
C812 C815 1.539 . S
C813 C809 1.408 . S
C813 C812 1.404 . S
C813 H825 0.930 . S
C814 C810 1.524 . S
C814 H826 0.956 . S
C814 H827 0.961 . S
C814 H828 0.961 . S
C815 C812 1.539 . S
C815 H829 0.958 . S
C815 H830 0.961 . S
C815 H831 0.960 . S
H816 C800 0.931 . S
H817 C805 0.929 . S
H818 C806 0.960 . S
H819 C806 0.962 . S
H820 C806 0.960 . S
H821 C807 0.961 . S
H822 C807 0.961 . S
H823 C807 0.961 . S
H824 C808 0.931 . S
H825 C813 0.930 . S
H826 C814 0.956 . S
H827 C814 0.961 . S
H828 C814 0.961 . S
H829 C815 0.958 . S
H830 C815 0.961 . S
H831 C815 0.960 . S
C832 C833 1.391 . S
C832 C834 1.394 . S
C832 H848 0.931 . S
C833 C832 1.391 . S
C833 C837 1.376 . S
C834 C832 1.394 . S
C834 C835 1.369 . S
C834 C838 1.531 . S
C835 C834 1.369 . S
C835 C836 1.410 . S
C835 C843 1.503 . S
C836 C835 1.410 . S
C836 C837 1.392 . S
C836 C839 1.511 . S
C837 C833 1.376 . S
C837 C836 1.392 . S
C837 H849 0.929 . S
C838 C834 1.531 . S
C838 H850 0.960 . S
C838 H851 0.962 . S
C838 H852 0.960 . S
C839 C836 1.511 . S
C839 H853 0.961 . S
C839 H854 0.961 . S
C839 H855 0.961 . S
C840 C841 1.370 . S
C840 C842 1.363 . S
C840 H856 0.931 . S
C841 C840 1.370 . S
C841 C845 1.408 . S
C842 C840 1.363 . S
C842 C843 1.370 . S
C842 C846 1.524 . S
C843 C835 1.503 . S
C843 C842 1.370 . S
C843 C844 1.403 . S
C844 C843 1.403 . S
C844 C845 1.404 . S
C844 C847 1.539 . S
C845 C841 1.408 . S
C845 C844 1.404 . S
C845 H857 0.930 . S
C846 C842 1.524 . S
C846 H858 0.956 . S
C846 H859 0.961 . S
C846 H860 0.961 . S
C847 C844 1.539 . S
C847 H861 0.958 . S
C847 H862 0.961 . S
C847 H863 0.960 . S
H848 C832 0.931 . S
H849 C837 0.929 . S
H850 C838 0.960 . S
H851 C838 0.962 . S
H852 C838 0.960 . S
H853 C839 0.961 . S
H854 C839 0.961 . S
H855 C839 0.961 . S
H856 C840 0.931 . S
H857 C845 0.930 . S
H858 C846 0.956 . S
H859 C846 0.961 . S
H860 C846 0.961 . S
H861 C847 0.958 . S
H862 C847 0.961 . S
H863 C847 0.960 . S
C864 C865 1.391 . S
C864 C866 1.394 . S
C864 H880 0.931 . S
C865 C864 1.391 . S
C865 C869 1.376 . S
C866 C864 1.394 . S
C866 C867 1.369 . S
C866 C870 1.531 . S
C867 C866 1.369 . S
C867 C868 1.410 . S
C867 C875 1.503 . S
C868 C867 1.410 . S
C868 C869 1.392 . S
C868 C871 1.511 . S
C869 C865 1.376 . S
C869 C868 1.392 . S
C869 H881 0.929 . S
C870 C866 1.531 . S
C870 H882 0.960 . S
C870 H883 0.962 . S
C870 H884 0.960 . S
C871 C868 1.511 . S
C871 H885 0.961 . S
C871 H886 0.961 . S
C871 H887 0.961 . S
C872 C873 1.370 . S
C872 C874 1.363 . S
C872 H888 0.931 . S
C873 C872 1.370 . S
C873 C877 1.408 . S
C874 C872 1.363 . S
C874 C875 1.370 . S
C874 C878 1.524 . S
C875 C867 1.503 . S
C875 C874 1.370 . S
C875 C876 1.403 . S
C876 C875 1.403 . S
C876 C877 1.404 . S
C876 C879 1.539 . S
C877 C873 1.408 . S
C877 C876 1.404 . S
C877 H889 0.930 . S
C878 C874 1.524 . S
C878 H890 0.956 . S
C878 H891 0.961 . S
C878 H892 0.961 . S
C879 C876 1.539 . S
C879 H893 0.958 . S
C879 H894 0.961 . S
C879 H895 0.960 . S
H880 C864 0.931 . S
H881 C869 0.929 . S
H882 C870 0.960 . S
H883 C870 0.962 . S
H884 C870 0.960 . S
H885 C871 0.961 . S
H886 C871 0.961 . S
H887 C871 0.961 . S
H888 C872 0.931 . S
H889 C877 0.930 . S
H890 C878 0.956 . S
H891 C878 0.961 . S
H892 C878 0.961 . S
H893 C879 0.958 . S
H894 C879 0.961 . S
H895 C879 0.960 . S
C896 C897 1.391 1_556 S
C896 C898 1.394 . S
C896 H912 0.931 . S
C897 C896 1.391 1_554 S
C897 C901 1.376 . S
C898 C896 1.394 . S
C898 C899 1.378 . S
C898 C902 1.531 . S
C899 C898 1.378 . S
C899 C900 1.394 1_556 S
C899 C907 1.508 . S
C900 C899 1.394 1_554 S
C900 C901 1.392 . S
C900 C903 1.511 . S
C901 C897 1.376 . S
C901 C900 1.392 . S
C901 H913 0.929 . S
C902 C898 1.531 . S
C902 H914 0.960 . S
C902 H915 0.962 . S
C902 H916 0.960 . S
C903 C900 1.511 . S
C903 H917 0.961 . S
C903 H918 0.961 . S
C903 H919 0.961 . S
C904 C905 1.370 . S
C904 C906 1.363 1_556 S
C904 H920 0.931 1_556 S
C905 C904 1.370 . S
C905 C909 1.408 . S
C906 C904 1.363 1_554 S
C906 C907 1.370 1_554 S
C906 C910 1.524 . S
C907 C899 1.508 . S
C907 C906 1.370 1_556 S
C907 C908 1.403 . S
C908 C907 1.403 . S
C908 C909 1.404 . S
C908 C911 1.539 . S
C909 C905 1.408 . S
C909 C908 1.404 . S
C909 H921 0.930 . S
C910 C906 1.524 . S
C910 H922 0.956 . S
C910 H923 0.961 . S
C910 H924 0.961 . S
C911 C908 1.539 . S
C911 H925 0.958 . S
C911 H926 0.961 . S
C911 H927 0.960 . S
H912 C896 0.931 . S
H913 C901 0.929 . S
H914 C902 0.960 . S
H915 C902 0.962 . S
H916 C902 0.960 . S
H917 C903 0.961 . S
H918 C903 0.961 . S
H919 C903 0.961 . S
H920 C904 0.931 1_554 S
H921 C909 0.930 . S
H922 C910 0.956 . S
H923 C910 0.961 . S
H924 C910 0.961 . S
H925 C911 0.958 . S
H926 C911 0.961 . S
H927 C911 0.960 . S
C928 C929 1.391 . S
C928 C930 1.394 . S
C928 H944 0.931 . S
C929 C928 1.391 . S
C929 C933 1.376 . S
C930 C928 1.394 . S
C930 C931 1.369 . S
C930 C934 1.531 . S
C931 C930 1.369 . S
C931 C932 1.410 . S
C931 C939 1.503 . S
C932 C931 1.410 . S
C932 C933 1.392 . S
C932 C935 1.511 . S
C933 C929 1.376 . S
C933 C932 1.392 . S
C933 H945 0.929 . S
C934 C930 1.531 . S
C934 H946 0.960 . S
C934 H947 0.962 . S
C934 H948 0.960 . S
C935 C932 1.511 . S
C935 H949 0.961 . S
C935 H950 0.961 . S
C935 H951 1.014 . S
C936 C937 1.370 . S
C936 C938 1.363 . S
C936 H952 0.931 . S
C937 C936 1.370 . S
C937 C941 1.408 . S
C938 C936 1.363 . S
C938 C939 1.370 . S
C938 C942 1.524 . S
C939 C931 1.503 . S
C939 C938 1.370 . S
C939 C940 1.403 . S
C940 C939 1.403 . S
C940 C941 1.404 . S
C940 C943 1.539 . S
C941 C937 1.408 . S
C941 C940 1.404 . S
C941 H953 0.930 . S
C942 C938 1.524 . S
C942 H954 0.956 . S
C942 H955 0.961 . S
C942 H956 0.961 . S
C943 C940 1.539 . S
C943 H957 0.958 . S
C943 H958 0.961 . S
C943 H959 0.960 . S
H944 C928 0.931 . S
H945 C933 0.929 . S
H946 C934 0.960 . S
H947 C934 0.962 . S
H948 C934 0.960 . S
H949 C935 0.961 . S
H950 C935 0.961 . S
H951 C935 1.014 . S
H952 C936 0.931 . S
H953 C941 0.930 . S
H954 C942 0.956 . S
H955 C942 0.961 . S
H956 C942 0.961 . S
H957 C943 0.958 . S
H958 C943 0.961 . S
H959 C943 0.960 . S
C960 C961 1.391 . S
C960 C962 1.394 . S
C960 H976 0.931 . S
C961 C960 1.391 . S
C961 C965 1.376 . S
C962 C960 1.394 . S
C962 C963 1.369 . S
C962 C966 1.531 . S
C963 C962 1.369 . S
C963 C964 1.410 . S
C963 C971 1.503 . S
C964 C963 1.410 . S
C964 C965 1.392 . S
C964 C967 1.511 . S
C965 C961 1.376 . S
C965 C964 1.392 . S
C965 H977 0.929 . S
C966 C962 1.531 . S
C966 H978 0.960 . S
C966 H979 0.962 . S
C966 H980 0.960 . S
C967 C964 1.511 . S
C967 H981 0.961 . S
C967 H982 0.961 . S
C967 H983 0.961 . S
C968 C969 1.370 . S
C968 C970 1.363 . S
C968 H984 0.931 . S
C969 C968 1.370 . S
C969 C973 1.408 . S
C970 C968 1.363 . S
C970 C971 1.370 . S
C970 C974 1.524 . S
C971 C963 1.503 . S
C971 C970 1.370 . S
C971 C972 1.403 . S
C972 C971 1.403 . S
C972 C973 1.404 . S
C972 C975 1.539 . S
C973 C969 1.408 . S
C973 C972 1.404 . S
C973 H985 0.930 . S
C974 C970 1.524 . S
C974 H986 0.956 . S
C974 H987 0.961 . S
C974 H988 0.961 . S
C975 C972 1.539 . S
C975 H989 0.958 . S
C975 H990 0.961 . S
C975 H991 0.960 . S
H976 C960 0.931 . S
H977 C965 0.929 . S
H978 C966 0.960 . S
H979 C966 0.962 . S
H980 C966 0.960 . S
H981 C967 0.961 . S
H982 C967 0.961 . S
H983 C967 0.961 . S
H984 C968 0.931 . S
H985 C973 0.930 . S
H986 C974 0.956 . S
H987 C974 0.961 . S
H988 C974 0.961 . S
H989 C975 0.958 . S
H990 C975 0.961 . S
H991 C975 0.960 . S
C992 C993 1.391 . S
C992 C994 1.394 1_556 S
C992 H1008 0.931 . S
C993 C992 1.391 . S
C993 C997 1.376 . S
C994 C992 1.394 1_554 S
C994 C995 1.363 1_455 S
C994 C998 1.531 . S
C995 C994 1.363 1_655 S
C995 C996 1.412 1_554 S
C995 C1003 1.507 . S
C996 C995 1.412 1_556 S
C996 C997 1.392 1_655 S
C996 C999 1.511 1_556 S
C997 C993 1.376 . S
C997 C996 1.392 1_455 S
C997 H1009 0.929 . S
C998 C994 1.531 . S
C998 H1010 0.960 . S
C998 H1011 0.962 . S
C998 H1012 0.960 . S
C999 C996 1.511 1_554 S
C999 H1013 0.961 1_554 S
C999 H1014 0.961 . S
C999 H1015 0.961 1_554 S
C1000 C1001 1.370 . S
C1000 C1002 1.363 1_655 S
C1000 H1016 0.931 1_655 S
C1001 C1000 1.370 . S
C1001 C1005 1.408 . S
C1002 C1000 1.363 1_455 S
C1002 C1003 1.370 1_455 S
C1002 C1006 1.524 . S
C1003 C995 1.507 . S
C1003 C1002 1.370 1_655 S
C1003 C1004 1.403 . S
C1004 C1003 1.403 . S
C1004 C1005 1.404 . S
C1004 C1007 1.539 . S
C1005 C1001 1.408 . S
C1005 C1004 1.404 . S
C1005 H1017 0.930 . S
C1006 C1002 1.524 . S
C1006 H1018 0.956 . S
C1006 H1019 0.961 . S
C1006 H1020 0.961 . S
C1007 C1004 1.539 . S
C1007 H1021 0.958 . S
C1007 H1022 0.961 . S
C1007 H1023 0.960 . S
H1008 C992 0.931 . S
H1009 C997 0.929 . S
H1010 C998 0.960 . S
H1011 C998 0.962 . S
H1012 C998 0.960 . S
H1013 C999 0.961 1_556 S
H1014 C999 0.961 . S
H1015 C999 0.961 1_556 S
H1016 C1000 0.931 1_455 S
H1017 C1005 0.930 . S
H1018 C1006 0.956 . S
H1019 C1006 0.961 . S
H1020 C1006 0.961 . S
H1021 C1007 0.958 . S
H1022 C1007 0.961 . S
H1023 C1007 0.960 . S
C1024 C1025 1.391 . S
C1024 C1026 1.394 . S
C1024 H1040 0.931 . S
C1025 C1024 1.391 . S
C1025 C1029 1.376 . S
C1026 C1024 1.394 . S
C1026 C1027 1.369 . S
C1026 C1030 1.531 . S
C1027 C1026 1.369 . S
C1027 C1028 1.410 . S
C1027 C1035 1.503 . S
C1028 C1027 1.410 . S
C1028 C1029 1.392 . S
C1028 C1031 1.511 . S
C1029 C1025 1.376 . S
C1029 C1028 1.392 . S
C1029 H1041 0.929 . S
C1030 C1026 1.531 . S
C1030 H1042 0.960 . S
C1030 H1043 0.962 . S
C1030 H1044 0.960 . S
C1031 C1028 1.511 . S
C1031 H1045 0.961 . S
C1031 H1046 0.961 . S
C1031 H1047 0.961 . S
C1032 C1033 1.370 . S
C1032 C1034 1.363 . S
C1032 H1048 0.931 . S
C1033 C1032 1.370 . S
C1033 C1037 1.408 . S
C1034 C1032 1.363 . S
C1034 C1035 1.370 . S
C1034 C1038 1.524 . S
C1035 C1027 1.503 . S
C1035 C1034 1.370 . S
C1035 C1036 1.403 . S
C1036 C1035 1.403 . S
C1036 C1037 1.404 . S
C1036 C1039 1.539 . S
C1037 C1033 1.408 . S
C1037 C1036 1.404 . S
C1037 H1049 0.930 . S
C1038 C1034 1.524 . S
C1038 H1050 0.956 . S
C1038 H1051 0.961 . S
C1038 H1052 0.961 . S
C1039 C1036 1.539 . S
C1039 H1053 0.958 . S
C1039 H1054 0.961 . S
C1039 H1055 0.960 . S
H1040 C1024 0.931 . S
H1041 C1029 0.929 . S
H1042 C1030 0.960 . S
H1043 C1030 0.962 . S
H1044 C1030 0.960 . S
H1045 C1031 0.961 . S
H1046 C1031 0.961 . S
H1047 C1031 0.961 . S
H1048 C1032 0.931 . S
H1049 C1037 0.930 . S
H1050 C1038 0.956 . S
H1051 C1038 0.961 . S
H1052 C1038 0.961 . S
H1053 C1039 0.958 . S
H1054 C1039 0.961 . S
H1055 C1039 0.960 . S
C1056 C1057 1.391 . S
C1056 C1058 1.394 . S
C1056 H1072 0.931 . S
C1057 C1056 1.391 . S
C1057 C1061 1.376 . S
C1058 C1056 1.394 . S
C1058 C1059 1.369 . S
C1058 C1062 1.531 . S
C1059 C1058 1.369 . S
C1059 C1060 1.410 . S
C1059 C1067 1.503 . S
C1060 C1059 1.410 . S
C1060 C1061 1.392 . S
C1060 C1063 1.511 . S
C1061 C1057 1.376 . S
C1061 C1060 1.392 . S
C1061 H1073 0.929 . S
C1062 C1058 1.531 . S
C1062 H1074 0.960 . S
C1062 H1075 0.962 . S
C1062 H1076 0.960 . S
C1063 C1060 1.511 . S
C1063 H1077 0.961 . S
C1063 H1078 0.961 . S
C1063 H1079 0.961 . S
C1064 C1065 1.370 . S
C1064 C1066 1.363 . S
C1064 H1080 0.931 . S
C1065 C1064 1.370 . S
C1065 C1069 1.408 . S
C1066 C1064 1.363 . S
C1066 C1067 1.370 . S
C1066 C1070 1.524 . S
C1067 C1059 1.503 . S
C1067 C1066 1.370 . S
C1067 C1068 1.403 . S
C1068 C1067 1.403 . S
C1068 C1069 1.404 . S
C1068 C1071 1.539 . S
C1069 C1065 1.408 . S
C1069 C1068 1.404 . S
C1069 H1081 0.930 . S
C1070 C1066 1.524 . S
C1070 H1082 0.956 . S
C1070 H1083 0.961 . S
C1070 H1084 0.961 . S
C1071 C1068 1.539 . S
C1071 H1085 0.958 . S
C1071 H1086 0.961 . S
C1071 H1087 0.960 . S
H1072 C1056 0.931 . S
H1073 C1061 0.929 . S
H1074 C1062 0.960 . S
H1075 C1062 0.962 . S
H1076 C1062 0.960 . S
H1077 C1063 0.961 . S
H1078 C1063 0.961 . S
H1079 C1063 0.961 . S
H1080 C1064 0.931 . S
H1081 C1069 0.930 . S
H1082 C1070 0.956 . S
H1083 C1070 0.961 . S
H1084 C1070 0.961 . S
H1085 C1071 0.958 . S
H1086 C1071 0.961 . S
H1087 C1071 0.960 . S
C1088 C1089 1.391 . S
C1088 C1090 1.394 . S
C1088 H1104 0.931 . S
C1089 C1088 1.391 . S
C1089 C1093 1.376 . S
C1090 C1088 1.394 . S
C1090 C1091 1.369 . S
C1090 C1094 1.531 . S
C1091 C1090 1.369 . S
C1091 C1092 1.410 . S
C1091 C1099 1.503 . S
C1092 C1091 1.410 . S
C1092 C1093 1.392 . S
C1092 C1095 1.511 . S
C1093 C1089 1.376 . S
C1093 C1092 1.392 . S
C1093 H1105 0.929 . S
C1094 C1090 1.531 . S
C1094 H1106 0.960 . S
C1094 H1107 0.962 . S
C1094 H1108 0.960 . S
C1095 C1092 1.511 . S
C1095 H1109 0.961 . S
C1095 H1110 0.961 . S
C1095 H1111 0.961 . S
C1096 C1097 1.370 . S
C1096 C1098 1.363 . S
C1096 H1112 0.931 . S
C1097 C1096 1.370 . S
C1097 C1101 1.408 . S
C1098 C1096 1.363 . S
C1098 C1099 1.370 . S
C1098 C1102 1.524 . S
C1099 C1091 1.503 . S
C1099 C1098 1.370 . S
C1099 C1100 1.403 . S
C1100 C1099 1.403 . S
C1100 C1101 1.404 . S
C1100 C1103 1.539 . S
C1101 C1097 1.408 . S
C1101 C1100 1.404 . S
C1101 H1113 0.930 . S
C1102 C1098 1.524 . S
C1102 H1114 0.956 . S
C1102 H1115 0.961 . S
C1102 H1116 0.961 . S
C1103 C1100 1.539 . S
C1103 H1117 0.958 . S
C1103 H1118 0.961 . S
C1103 H1119 0.960 . S
H1104 C1088 0.931 . S
H1105 C1093 0.929 . S
H1106 C1094 0.960 . S
H1107 C1094 0.962 . S
H1108 C1094 0.960 . S
H1109 C1095 0.961 . S
H1110 C1095 0.961 . S
H1111 C1095 0.961 . S
H1112 C1096 0.931 . S
H1113 C1101 0.930 . S
H1114 C1102 0.956 . S
H1115 C1102 0.961 . S
H1116 C1102 0.961 . S
H1117 C1103 0.958 . S
H1118 C1103 0.961 . S
H1119 C1103 0.960 . S
C1120 C1121 1.391 . S
C1120 C1122 1.394 . S
C1120 H1136 0.931 . S
C1121 C1120 1.391 . S
C1121 C1125 1.376 . S
C1122 C1120 1.394 . S
C1122 C1123 1.369 1_554 S
C1122 C1126 1.532 . S
C1123 C1122 1.369 1_556 S
C1123 C1124 1.410 . S
C1123 C1131 1.503 . S
C1124 C1123 1.410 . S
C1124 C1125 1.392 1_556 S
C1124 C1127 1.511 . S
C1125 C1121 1.376 . S
C1125 C1124 1.392 1_554 S
C1125 H1137 0.929 . S
C1126 C1122 1.532 . S
C1126 H1138 0.948 1_554 S
C1126 H1139 0.962 . S
C1126 H1140 0.971 . S
C1127 C1124 1.511 . S
C1127 H1141 0.961 . S
C1127 H1142 0.961 . S
C1127 H1143 0.961 . S
C1128 C1129 1.370 . S
C1128 C1130 1.363 . S
C1128 H1144 0.931 . S
C1129 C1128 1.370 . S
C1129 C1133 1.408 . S
C1130 C1128 1.363 . S
C1130 C1131 1.370 . S
C1130 C1134 1.524 . S
C1131 C1123 1.503 . S
C1131 C1130 1.370 . S
C1131 C1132 1.403 . S
C1132 C1131 1.403 . S
C1132 C1133 1.404 . S
C1132 C1135 1.539 . S
C1133 C1129 1.408 . S
C1133 C1132 1.404 . S
C1133 H1145 0.930 . S
C1134 C1130 1.524 . S
C1134 H1146 0.956 . S
C1134 H1147 0.961 . S
C1134 H1148 0.961 . S
C1135 C1132 1.539 . S
C1135 H1149 0.958 . S
C1135 H1150 0.961 . S
C1135 H1151 0.960 . S
H1136 C1120 0.931 . S
H1137 C1125 0.929 . S
H1138 C1126 0.948 1_556 S
H1139 C1126 0.962 . S
H1140 C1126 0.971 . S
H1141 C1127 0.961 . S
H1142 C1127 0.961 . S
H1143 C1127 0.961 . S
H1144 C1128 0.931 . S
H1145 C1133 0.930 . S
H1146 C1134 0.956 . S
H1147 C1134 0.961 . S
H1148 C1134 0.961 . S
H1149 C1135 0.958 . S
H1150 C1135 0.961 . S
H1151 C1135 0.960 . S
C1152 C1153 1.391 . S
C1152 C1154 1.394 . S
C1152 H1168 0.931 . S
C1153 C1152 1.391 . S
C1153 C1157 1.376 . S
C1154 C1152 1.394 . S
C1154 C1155 1.369 . S
C1154 C1158 1.531 . S
C1155 C1154 1.369 . S
C1155 C1156 1.410 . S
C1155 C1163 1.503 . S
C1156 C1155 1.410 . S
C1156 C1157 1.392 . S
C1156 C1159 1.511 . S
C1157 C1153 1.376 . S
C1157 C1156 1.392 . S
C1157 H1169 0.929 . S
C1158 C1154 1.531 . S
C1158 H1170 0.960 . S
C1158 H1171 0.962 . S
C1158 H1172 0.960 . S
C1159 C1156 1.511 . S
C1159 H1173 0.961 . S
C1159 H1174 0.961 . S
C1159 H1175 0.961 . S
C1160 C1161 1.370 . S
C1160 C1162 1.363 . S
C1160 H1176 0.931 . S
C1161 C1160 1.370 . S
C1161 C1165 1.408 . S
C1162 C1160 1.363 . S
C1162 C1163 1.370 . S
C1162 C1166 1.524 . S
C1163 C1155 1.503 . S
C1163 C1162 1.370 . S
C1163 C1164 1.403 . S
C1164 C1163 1.403 . S
C1164 C1165 1.404 . S
C1164 C1167 1.539 . S
C1165 C1161 1.408 . S
C1165 C1164 1.404 . S
C1165 H1177 0.930 . S
C1166 C1162 1.524 . S
C1166 H1178 0.956 . S
C1166 H1179 0.961 . S
C1166 H1180 0.961 . S
C1167 C1164 1.539 . S
C1167 H1181 0.958 . S
C1167 H1182 0.961 . S
C1167 H1183 0.960 . S
H1168 C1152 0.931 . S
H1169 C1157 0.929 . S
H1170 C1158 0.960 . S
H1171 C1158 0.962 . S
H1172 C1158 0.960 . S
H1173 C1159 0.961 . S
H1174 C1159 0.961 . S
H1175 C1159 0.961 . S
H1176 C1160 0.931 . S
H1177 C1165 0.930 . S
H1178 C1166 0.956 . S
H1179 C1166 0.961 . S
H1180 C1166 0.961 . S
H1181 C1167 0.958 . S
H1182 C1167 0.961 . S
H1183 C1167 0.960 . S
C1184 C1185 1.391 . S
C1184 C1186 1.394 . S
C1184 H1200 0.931 . S
C1185 C1184 1.391 . S
C1185 C1189 1.376 . S
C1186 C1184 1.394 . S
C1186 C1187 1.366 . S
C1186 C1190 1.531 . S
C1187 C1186 1.366 . S
C1187 C1188 1.411 1_455 S
C1187 C1195 1.505 1_455 S
C1188 C1187 1.411 1_655 S
C1188 C1189 1.392 1_655 S
C1188 C1191 1.511 . S
C1189 C1185 1.376 . S
C1189 C1188 1.392 1_455 S
C1189 H1201 0.911 1_455 S
C1190 C1186 1.531 . S
C1190 H1202 0.960 . S
C1190 H1203 0.962 . S
C1190 H1204 0.960 . S
C1191 C1188 1.511 . S
C1191 H1205 0.961 . S
C1191 H1206 0.961 . S
C1191 H1207 0.961 . S
C1192 C1193 1.370 . S
C1192 C1194 1.363 1_655 S
C1192 H1208 0.907 1_655 S
C1193 C1192 1.370 . S
C1193 C1197 1.408 . S
C1194 C1192 1.363 1_455 S
C1194 C1195 1.370 1_455 S
C1194 C1198 1.524 . S
C1195 C1187 1.505 1_655 S
C1195 C1194 1.370 1_655 S
C1195 C1196 1.403 . S
C1196 C1195 1.403 . S
C1196 C1197 1.404 . S
C1196 C1199 1.539 . S
C1197 C1193 1.408 . S
C1197 C1196 1.404 . S
C1197 H1209 0.930 . S
C1198 C1194 1.524 . S
C1198 H1210 0.956 . S
C1198 H1211 0.961 . S
C1198 H1212 0.961 . S
C1199 C1196 1.539 . S
C1199 H1213 0.958 . S
C1199 H1214 0.961 . S
C1199 H1215 0.960 . S
H1200 C1184 0.931 . S
H1201 C1189 0.911 1_655 S
H1202 C1190 0.960 . S
H1203 C1190 0.962 . S
H1204 C1190 0.960 . S
H1205 C1191 0.961 . S
H1206 C1191 0.961 . S
H1207 C1191 0.961 . S
H1208 C1192 0.907 1_455 S
H1209 C1197 0.930 . S
H1210 C1198 0.956 . S
H1211 C1198 0.961 . S
H1212 C1198 0.961 . S
H1213 C1199 0.958 . S
H1214 C1199 0.961 . S
H1215 C1199 0.960 . S
C1216 C1217 1.391 . S
C1216 C1218 1.394 . S
C1216 H1232 0.931 . S
C1217 C1216 1.391 . S
C1217 C1221 1.376 . S
C1218 C1216 1.394 . S
C1218 C1219 1.369 . S
C1218 C1222 1.531 . S
C1219 C1218 1.369 . S
C1219 C1220 1.410 . S
C1219 C1227 1.503 . S
C1220 C1219 1.410 . S
C1220 C1221 1.392 . S
C1220 C1223 1.511 . S
C1221 C1217 1.376 . S
C1221 C1220 1.392 . S
C1221 H1233 0.929 . S
C1222 C1218 1.531 . S
C1222 H1234 0.960 . S
C1222 H1235 0.962 . S
C1222 H1236 0.960 . S
C1223 C1220 1.511 . S
C1223 H1237 0.961 . S
C1223 H1238 0.961 . S
C1223 H1239 0.961 . S
C1224 C1225 1.370 . S
C1224 C1226 1.363 . S
C1224 H1240 0.931 . S
C1225 C1224 1.370 . S
C1225 C1229 1.408 . S
C1226 C1224 1.363 . S
C1226 C1227 1.370 . S
C1226 C1230 1.524 . S
C1227 C1219 1.503 . S
C1227 C1226 1.370 . S
C1227 C1228 1.403 . S
C1228 C1227 1.403 . S
C1228 C1229 1.404 . S
C1228 C1231 1.539 . S
C1229 C1225 1.408 . S
C1229 C1228 1.404 . S
C1229 H1241 0.930 . S
C1230 C1226 1.524 . S
C1230 H1242 0.956 . S
C1230 H1243 0.961 . S
C1230 H1244 0.961 . S
C1231 C1228 1.539 . S
C1231 H1245 0.958 . S
C1231 H1246 0.961 . S
C1231 H1247 0.960 . S
H1232 C1216 0.931 . S
H1233 C1221 0.929 . S
H1234 C1222 0.960 . S
H1235 C1222 0.962 . S
H1236 C1222 0.960 . S
H1237 C1223 0.961 . S
H1238 C1223 0.961 . S
H1239 C1223 0.961 . S
H1240 C1224 0.931 . S
H1241 C1229 0.930 . S
H1242 C1230 0.956 . S
H1243 C1230 0.961 . S
H1244 C1230 0.961 . S
H1245 C1231 0.958 . S
H1246 C1231 0.961 . S
H1247 C1231 0.960 . S
C1248 C1249 1.391 . S
C1248 C1250 1.394 1_554 S
C1248 H1264 0.931 . S
C1249 C1248 1.391 . S
C1249 C1253 1.376 . S
C1250 C1248 1.394 1_556 S
C1250 C1251 1.369 . S
C1250 C1254 1.531 . S
C1251 C1250 1.369 . S
C1251 C1252 1.410 1_656 S
C1251 C1259 1.503 1_655 S
C1252 C1251 1.410 1_454 S
C1252 C1253 1.392 1_455 S
C1252 C1255 1.511 1_554 S
C1253 C1249 1.376 . S
C1253 C1252 1.392 1_655 S
C1253 H1265 0.903 1_655 S
C1254 C1250 1.531 . S
C1254 H1266 0.960 . S
C1254 H1267 0.962 . S
C1254 H1268 0.960 . S
C1255 C1252 1.511 1_556 S
C1255 H1269 0.961 1_556 S
C1255 H1270 0.961 . S
C1255 H1271 0.961 . S
C1256 C1257 1.370 . S
C1256 C1258 1.363 . S
C1256 H1272 0.931 . S
C1257 C1256 1.370 . S
C1257 C1261 1.408 . S
C1258 C1256 1.363 . S
C1258 C1259 1.370 . S
C1258 C1262 1.524 . S
C1259 C1251 1.503 1_455 S
C1259 C1258 1.370 . S
C1259 C1260 1.403 1_455 S
C1260 C1259 1.403 1_655 S
C1260 C1261 1.404 1_655 S
C1260 C1263 1.539 . S
C1261 C1257 1.408 . S
C1261 C1260 1.404 1_455 S
C1261 H1273 0.930 . S
C1262 C1258 1.524 . S
C1262 H1274 0.956 . S
C1262 H1275 0.961 . S
C1262 H1276 0.961 . S
C1263 C1260 1.539 . S
C1263 H1277 0.958 . S
C1263 H1278 0.961 . S
C1263 H1279 0.960 . S
H1264 C1248 0.931 . S
H1265 C1253 0.903 1_455 S
H1266 C1254 0.960 . S
H1267 C1254 0.962 . S
H1268 C1254 0.960 . S
H1269 C1255 0.961 1_554 S
H1270 C1255 0.961 . S
H1271 C1255 0.961 . S
H1272 C1256 0.931 . S
H1273 C1261 0.930 . S
H1274 C1262 0.956 . S
H1275 C1262 0.961 . S
H1276 C1262 0.961 . S
H1277 C1263 0.958 . S
H1278 C1263 0.961 . S
H1279 C1263 0.960 . S
C1280 C1281 1.391 . S
C1280 C1282 1.394 . S
C1280 H1296 0.931 . S
C1281 C1280 1.391 . S
C1281 C1285 1.376 . S
C1282 C1280 1.394 . S
C1282 C1283 1.369 . S
C1282 C1286 1.531 . S
C1283 C1282 1.369 . S
C1283 C1284 1.410 . S
C1283 C1291 1.503 . S
C1284 C1283 1.410 . S
C1284 C1285 1.392 . S
C1284 C1287 1.511 . S
C1285 C1281 1.376 . S
C1285 C1284 1.392 . S
C1285 H1297 0.929 . S
C1286 C1282 1.531 . S
C1286 H1298 0.960 . S
C1286 H1299 0.962 . S
C1286 H1300 0.960 . S
C1287 C1284 1.511 . S
C1287 H1301 0.961 . S
C1287 H1302 0.961 . S
C1287 H1303 0.961 . S
C1288 C1289 1.370 . S
C1288 C1290 1.363 . S
C1288 H1304 0.931 . S
C1289 C1288 1.370 . S
C1289 C1293 1.408 . S
C1290 C1288 1.363 . S
C1290 C1291 1.370 . S
C1290 C1294 1.524 . S
C1291 C1283 1.503 . S
C1291 C1290 1.370 . S
C1291 C1292 1.403 . S
C1292 C1291 1.403 . S
C1292 C1293 1.404 . S
C1292 C1295 1.539 . S
C1293 C1289 1.408 . S
C1293 C1292 1.404 . S
C1293 H1305 0.930 . S
C1294 C1290 1.524 . S
C1294 H1306 0.956 . S
C1294 H1307 0.961 . S
C1294 H1308 0.961 . S
C1295 C1292 1.539 . S
C1295 H1309 0.958 . S
C1295 H1310 0.961 . S
C1295 H1311 0.960 . S
H1296 C1280 0.931 . S
H1297 C1285 0.929 . S
H1298 C1286 0.960 . S
H1299 C1286 0.962 . S
H1300 C1286 0.960 . S
H1301 C1287 0.961 . S
H1302 C1287 0.961 . S
H1303 C1287 0.961 . S
H1304 C1288 0.931 . S
H1305 C1293 0.930 . S
H1306 C1294 0.956 . S
H1307 C1294 0.961 . S
H1308 C1294 0.961 . S
H1309 C1295 0.958 . S
H1310 C1295 0.961 . S
H1311 C1295 0.960 . S
C1312 C1313 1.391 . S
C1312 C1314 1.394 . S
C1312 H1328 0.931 . S
C1313 C1312 1.391 . S
C1313 C1317 1.376 . S
C1314 C1312 1.394 . S
C1314 C1315 1.369 . S
C1314 C1318 1.531 . S
C1315 C1314 1.369 . S
C1315 C1316 1.410 . S
C1315 C1323 1.503 . S
C1316 C1315 1.410 . S
C1316 C1317 1.392 . S
C1316 C1319 1.511 . S
C1317 C1313 1.376 . S
C1317 C1316 1.392 . S
C1317 H1329 0.929 . S
C1318 C1314 1.531 . S
C1318 H1330 0.960 . S
C1318 H1331 0.962 . S
C1318 H1332 0.960 . S
C1319 C1316 1.511 . S
C1319 H1333 0.961 . S
C1319 H1334 0.961 . S
C1319 H1335 0.961 . S
C1320 C1321 1.370 . S
C1320 C1322 1.363 . S
C1320 H1336 0.931 . S
C1321 C1320 1.370 . S
C1321 C1325 1.408 . S
C1322 C1320 1.363 . S
C1322 C1323 1.370 . S
C1322 C1326 1.524 . S
C1323 C1315 1.503 . S
C1323 C1322 1.370 . S
C1323 C1324 1.403 . S
C1324 C1323 1.403 . S
C1324 C1325 1.404 . S
C1324 C1327 1.539 . S
C1325 C1321 1.408 . S
C1325 C1324 1.404 . S
C1325 H1337 0.930 . S
C1326 C1322 1.524 . S
C1326 H1338 0.956 . S
C1326 H1339 0.961 . S
C1326 H1340 0.961 . S
C1327 C1324 1.539 . S
C1327 H1341 0.958 . S
C1327 H1342 0.961 . S
C1327 H1343 0.960 . S
H1328 C1312 0.931 . S
H1329 C1317 0.929 . S
H1330 C1318 0.960 . S
H1331 C1318 0.962 . S
H1332 C1318 0.960 . S
H1333 C1319 0.961 . S
H1334 C1319 0.961 . S
H1335 C1319 0.961 . S
H1336 C1320 0.931 . S
H1337 C1325 0.930 . S
H1338 C1326 0.956 . S
H1339 C1326 0.961 . S
H1340 C1326 0.961 . S
H1341 C1327 0.958 . S
H1342 C1327 0.961 . S
H1343 C1327 0.960 . S
C1344 C1345 1.391 . S
C1344 C1346 1.394 . S
C1344 H1360 0.931 . S
C1345 C1344 1.391 . S
C1345 C1349 1.376 . S
C1346 C1344 1.394 . S
C1346 C1347 1.369 . S
C1346 C1350 1.531 . S
C1347 C1346 1.369 . S
C1347 C1348 1.410 . S
C1347 C1355 1.503 . S
C1348 C1347 1.410 . S
C1348 C1349 1.392 . S
C1348 C1351 1.511 . S
C1349 C1345 1.376 . S
C1349 C1348 1.392 . S
C1349 H1361 0.929 . S
C1350 C1346 1.531 . S
C1350 H1362 0.960 . S
C1350 H1363 0.962 . S
C1350 H1364 0.960 . S
C1351 C1348 1.511 . S
C1351 H1365 0.961 . S
C1351 H1366 0.961 . S
C1351 H1367 0.961 . S
C1352 C1353 1.370 . S
C1352 C1354 1.363 . S
C1352 H1368 0.931 . S
C1353 C1352 1.370 . S
C1353 C1357 1.408 . S
C1354 C1352 1.363 . S
C1354 C1355 1.370 . S
C1354 C1358 1.524 . S
C1355 C1347 1.503 . S
C1355 C1354 1.370 . S
C1355 C1356 1.403 . S
C1356 C1355 1.403 . S
C1356 C1357 1.404 . S
C1356 C1359 1.539 . S
C1357 C1353 1.408 . S
C1357 C1356 1.404 . S
C1357 H1369 0.930 . S
C1358 C1354 1.524 . S
C1358 H1370 0.956 . S
C1358 H1371 0.961 . S
C1358 H1372 0.961 . S
C1359 C1356 1.539 . S
C1359 H1373 0.958 . S
C1359 H1374 0.961 . S
C1359 H1375 0.960 . S
H1360 C1344 0.931 . S
H1361 C1349 0.929 . S
H1362 C1350 0.960 . S
H1363 C1350 0.962 . S
H1364 C1350 0.960 . S
H1365 C1351 0.961 . S
H1366 C1351 0.961 . S
H1367 C1351 0.961 . S
H1368 C1352 0.931 . S
H1369 C1357 0.930 . S
H1370 C1358 0.956 . S
H1371 C1358 0.961 . S
H1372 C1358 0.961 . S
H1373 C1359 0.958 . S
H1374 C1359 0.961 . S
H1375 C1359 0.960 . S
C1376 C1377 1.391 . S
C1376 C1378 1.394 . S
C1376 H1392 0.931 . S
C1377 C1376 1.391 . S
C1377 C1381 1.376 . S
C1378 C1376 1.394 . S
C1378 C1379 1.369 . S
C1378 C1382 1.531 . S
C1379 C1378 1.369 . S
C1379 C1380 1.410 . S
C1379 C1387 1.503 . S
C1380 C1379 1.410 . S
C1380 C1381 1.392 . S
C1380 C1383 1.511 . S
C1381 C1377 1.376 . S
C1381 C1380 1.392 . S
C1381 H1393 0.929 . S
C1382 C1378 1.531 . S
C1382 H1394 0.960 . S
C1382 H1395 0.962 . S
C1382 H1396 0.960 . S
C1383 C1380 1.511 . S
C1383 H1397 0.961 . S
C1383 H1398 0.961 . S
C1383 H1399 0.961 . S
C1384 C1385 1.370 . S
C1384 C1386 1.363 1_556 S
C1384 H1400 0.931 . S
C1385 C1384 1.370 . S
C1385 C1389 1.408 . S
C1386 C1384 1.363 1_554 S
C1386 C1387 1.370 . S
C1386 C1390 1.524 . S
C1387 C1379 1.503 . S
C1387 C1386 1.370 . S
C1387 C1388 1.403 1_554 S
C1388 C1387 1.403 1_556 S
C1388 C1389 1.404 . S
C1388 C1391 1.539 1_556 S
C1389 C1385 1.408 . S
C1389 C1388 1.404 . S
C1389 H1401 0.930 . S
C1390 C1386 1.524 . S
C1390 H1402 0.956 . S
C1390 H1403 0.961 . S
C1390 H1404 0.961 . S
C1391 C1388 1.539 1_554 S
C1391 H1405 0.958 . S
C1391 H1406 0.961 1_554 S
C1391 H1407 0.960 . S
H1392 C1376 0.931 . S
H1393 C1381 0.929 . S
H1394 C1382 0.960 . S
H1395 C1382 0.962 . S
H1396 C1382 0.960 . S
H1397 C1383 0.961 . S
H1398 C1383 0.961 . S
H1399 C1383 0.961 . S
H1400 C1384 0.931 . S
H1401 C1389 0.930 . S
H1402 C1390 0.956 . S
H1403 C1390 0.961 . S
H1404 C1390 0.961 . S
H1405 C1391 0.958 . S
H1406 C1391 0.961 1_556 S
H1407 C1391 0.960 . S
C1408 C1409 1.391 . S
C1408 C1410 1.394 . S
C1408 H1424 0.931 . S
C1409 C1408 1.391 . S
C1409 C1413 1.376 . S
C1410 C1408 1.394 . S
C1410 C1411 1.369 . S
C1410 C1414 1.531 . S
C1411 C1410 1.369 . S
C1411 C1412 1.410 . S
C1411 C1419 1.503 . S
C1412 C1411 1.410 . S
C1412 C1413 1.392 . S
C1412 C1415 1.511 . S
C1413 C1409 1.376 . S
C1413 C1412 1.392 . S
C1413 H1425 0.929 . S
C1414 C1410 1.531 . S
C1414 H1426 0.960 . S
C1414 H1427 0.962 . S
C1414 H1428 0.960 . S
C1415 C1412 1.511 . S
C1415 H1429 0.961 . S
C1415 H1430 0.961 . S
C1415 H1431 0.961 . S
C1416 C1417 1.370 . S
C1416 C1418 1.363 . S
C1416 H1432 0.931 . S
C1417 C1416 1.370 . S
C1417 C1421 1.408 . S
C1418 C1416 1.363 . S
C1418 C1419 1.370 . S
C1418 C1422 1.524 . S
C1419 C1411 1.503 . S
C1419 C1418 1.370 . S
C1419 C1420 1.403 . S
C1420 C1419 1.403 . S
C1420 C1421 1.404 . S
C1420 C1423 1.539 . S
C1421 C1417 1.408 . S
C1421 C1420 1.404 . S
C1421 H1433 0.930 . S
C1422 C1418 1.524 . S
C1422 H1434 0.956 . S
C1422 H1435 0.961 . S
C1422 H1436 0.961 . S
C1423 C1420 1.539 . S
C1423 H1437 0.958 . S
C1423 H1438 0.961 . S
C1423 H1439 0.960 . S
H1424 C1408 0.931 . S
H1425 C1413 0.929 . S
H1426 C1414 0.960 . S
H1427 C1414 0.962 . S
H1428 C1414 0.960 . S
H1429 C1415 0.961 . S
H1430 C1415 0.961 . S
H1431 C1415 0.961 . S
H1432 C1416 0.931 . S
H1433 C1421 0.930 . S
H1434 C1422 0.956 . S
H1435 C1422 0.961 . S
H1436 C1422 0.961 . S
H1437 C1423 0.958 . S
H1438 C1423 0.961 . S
H1439 C1423 0.960 . S
C1440 C1441 1.391 . S
C1440 C1442 1.394 . S
C1440 H1456 0.931 . S
C1441 C1440 1.391 . S
C1441 C1445 1.376 . S
C1442 C1440 1.394 . S
C1442 C1443 1.369 . S
C1442 C1446 1.531 1_655 S
C1443 C1442 1.369 . S
C1443 C1444 1.410 . S
C1443 C1451 1.503 1_655 S
C1444 C1443 1.410 . S
C1444 C1445 1.392 . S
C1444 C1447 1.511 . S
C1445 C1441 1.376 . S
C1445 C1444 1.392 . S
C1445 H1457 0.929 . S
C1446 C1442 1.531 1_455 S
C1446 H1458 0.960 . S
C1446 H1459 0.962 . S
C1446 H1460 0.960 . S
C1447 C1444 1.511 . S
C1447 H1461 0.961 . S
C1447 H1462 0.961 . S
C1447 H1463 0.961 . S
C1448 C1449 1.370 . S
C1448 C1450 1.363 . S
C1448 H1464 0.931 . S
C1449 C1448 1.370 . S
C1449 C1453 1.408 . S
C1450 C1448 1.363 . S
C1450 C1451 1.370 . S
C1450 C1454 1.524 . S
C1451 C1443 1.503 1_455 S
C1451 C1450 1.370 . S
C1451 C1452 1.403 1_455 S
C1452 C1451 1.403 1_655 S
C1452 C1453 1.404 1_655 S
C1452 C1455 1.539 . S
C1453 C1449 1.408 . S
C1453 C1452 1.404 1_455 S
C1453 H1465 0.930 1_455 S
C1454 C1450 1.524 . S
C1454 H1466 0.956 . S
C1454 H1467 0.961 . S
C1454 H1468 0.961 . S
C1455 C1452 1.539 . S
C1455 H1469 0.958 . S
C1455 H1470 0.961 . S
C1455 H1471 0.960 . S
H1456 C1440 0.931 . S
H1457 C1445 0.929 . S
H1458 C1446 0.960 . S
H1459 C1446 0.962 . S
H1460 C1446 0.960 . S
H1461 C1447 0.961 . S
H1462 C1447 0.961 . S
H1463 C1447 0.961 . S
H1464 C1448 0.931 . S
H1465 C1453 0.930 1_655 S
H1466 C1454 0.956 . S
H1467 C1454 0.961 . S
H1468 C1454 0.961 . S
H1469 C1455 0.958 . S
H1470 C1455 0.961 . S
H1471 C1455 0.960 . S
C1472 C1473 1.391 . S
C1472 C1474 1.394 . S
C1472 H1488 0.931 . S
C1473 C1472 1.391 . S
C1473 C1477 1.376 . S
C1474 C1472 1.394 . S
C1474 C1475 1.369 . S
C1474 C1478 1.531 . S
C1475 C1474 1.369 . S
C1475 C1476 1.410 . S
C1475 C1483 1.503 . S
C1476 C1475 1.410 . S
C1476 C1477 1.392 . S
C1476 C1479 1.511 . S
C1477 C1473 1.376 . S
C1477 C1476 1.392 . S
C1477 H1489 0.929 . S
C1478 C1474 1.531 . S
C1478 H1490 0.960 . S
C1478 H1491 0.962 . S
C1478 H1492 0.960 . S
C1479 C1476 1.511 . S
C1479 H1493 0.961 . S
C1479 H1494 0.961 . S
C1479 H1495 0.961 . S
C1480 C1481 1.370 . S
C1480 C1482 1.363 . S
C1480 H1496 0.931 . S
C1481 C1480 1.370 . S
C1481 C1485 1.408 . S
C1482 C1480 1.363 . S
C1482 C1483 1.370 . S
C1482 C1486 1.524 . S
C1483 C1475 1.503 . S
C1483 C1482 1.370 . S
C1483 C1484 1.403 . S
C1484 C1483 1.403 . S
C1484 C1485 1.404 . S
C1484 C1487 1.539 . S
C1485 C1481 1.408 . S
C1485 C1484 1.404 . S
C1485 H1497 0.930 . S
C1486 C1482 1.524 . S
C1486 H1498 0.956 . S
C1486 H1499 0.961 . S
C1486 H1500 0.961 . S
C1487 C1484 1.539 . S
C1487 H1501 0.958 . S
C1487 H1502 0.961 . S
C1487 H1503 0.960 . S
H1488 C1472 0.931 . S
H1489 C1477 0.929 . S
H1490 C1478 0.960 . S
H1491 C1478 0.962 . S
H1492 C1478 0.960 . S
H1493 C1479 0.961 . S
H1494 C1479 0.961 . S
H1495 C1479 0.961 . S
H1496 C1480 0.931 . S
H1497 C1485 0.930 . S
H1498 C1486 0.956 . S
H1499 C1486 0.961 . S
H1500 C1486 0.961 . S
H1501 C1487 0.958 . S
H1502 C1487 0.961 . S
H1503 C1487 0.960 . S
C1504 C1505 1.391 . S
C1504 C1506 1.394 . S
C1504 H1520 0.931 . S
C1505 C1504 1.391 . S
C1505 C1509 1.376 . S
C1506 C1504 1.394 . S
C1506 C1507 1.369 . S
C1506 C1510 1.531 . S
C1507 C1506 1.369 . S
C1507 C1508 1.410 . S
C1507 C1515 1.503 . S
C1508 C1507 1.410 . S
C1508 C1509 1.392 . S
C1508 C1511 1.511 . S
C1509 C1505 1.376 . S
C1509 C1508 1.392 . S
C1509 H1521 0.929 . S
C1510 C1506 1.531 . S
C1510 H1522 0.960 . S
C1510 H1523 0.962 . S
C1510 H1524 0.960 . S
C1511 C1508 1.511 . S
C1511 H1525 0.961 . S
C1511 H1526 0.961 . S
C1511 H1527 0.961 . S
C1512 C1513 1.370 . S
C1512 C1514 1.363 . S
C1512 H1528 0.931 . S
C1513 C1512 1.370 . S
C1513 C1517 1.408 . S
C1514 C1512 1.363 . S
C1514 C1515 1.370 . S
C1514 C1518 1.524 . S
C1515 C1507 1.503 . S
C1515 C1514 1.370 . S
C1515 C1516 1.403 . S
C1516 C1515 1.403 . S
C1516 C1517 1.404 . S
C1516 C1519 1.539 . S
C1517 C1513 1.408 . S
C1517 C1516 1.404 . S
C1517 H1529 0.930 . S
C1518 C1514 1.524 . S
C1518 H1530 0.956 . S
C1518 H1531 0.961 . S
C1518 H1532 0.961 . S
C1519 C1516 1.539 . S
C1519 H1533 0.958 . S
C1519 H1534 0.961 . S
C1519 H1535 0.960 . S
H1520 C1504 0.931 . S
H1521 C1509 0.929 . S
H1522 C1510 0.960 . S
H1523 C1510 0.962 . S
H1524 C1510 0.960 . S
H1525 C1511 0.961 . S
H1526 C1511 0.961 . S
H1527 C1511 0.961 . S
H1528 C1512 0.931 . S
H1529 C1517 0.930 . S
H1530 C1518 0.956 . S
H1531 C1518 0.961 . S
H1532 C1518 0.961 . S
H1533 C1519 0.958 . S
H1534 C1519 0.961 . S
H1535 C1519 0.960 . S
C1536 C1537 1.391 . S
C1536 C1538 1.394 . S
C1536 H1552 0.931 . S
C1537 C1536 1.391 . S
C1537 C1541 1.376 . S
C1538 C1536 1.394 . S
C1538 C1539 1.369 . S
C1538 C1542 1.531 . S
C1539 C1538 1.369 . S
C1539 C1540 1.410 . S
C1539 C1547 1.503 . S
C1540 C1539 1.410 . S
C1540 C1541 1.392 . S
C1540 C1543 1.511 . S
C1541 C1537 1.376 . S
C1541 C1540 1.392 . S
C1541 H1553 0.929 . S
C1542 C1538 1.531 . S
C1542 H1554 0.960 . S
C1542 H1555 0.962 . S
C1542 H1556 0.960 . S
C1543 C1540 1.511 . S
C1543 H1557 0.961 . S
C1543 H1558 0.961 . S
C1543 H1559 0.961 . S
C1544 C1545 1.370 . S
C1544 C1546 1.363 . S
C1544 H1560 0.931 . S
C1545 C1544 1.370 . S
C1545 C1549 1.408 . S
C1546 C1544 1.363 . S
C1546 C1547 1.370 . S
C1546 C1550 1.524 . S
C1547 C1539 1.503 . S
C1547 C1546 1.370 . S
C1547 C1548 1.403 . S
C1548 C1547 1.403 . S
C1548 C1549 1.404 . S
C1548 C1551 1.539 . S
C1549 C1545 1.408 . S
C1549 C1548 1.404 . S
C1549 H1561 0.930 . S
C1550 C1546 1.524 . S
C1550 H1562 0.956 . S
C1550 H1563 0.961 . S
C1550 H1564 0.961 . S
C1551 C1548 1.539 . S
C1551 H1565 0.958 . S
C1551 H1566 0.961 . S
C1551 H1567 0.960 . S
H1552 C1536 0.931 . S
H1553 C1541 0.929 . S
H1554 C1542 0.960 . S
H1555 C1542 0.962 . S
H1556 C1542 0.960 . S
H1557 C1543 0.961 . S
H1558 C1543 0.961 . S
H1559 C1543 0.961 . S
H1560 C1544 0.931 . S
H1561 C1549 0.930 . S
H1562 C1550 0.956 . S
H1563 C1550 0.961 . S
H1564 C1550 0.961 . S
H1565 C1551 0.958 . S
H1566 C1551 0.961 . S
H1567 C1551 0.960 . S
C1568 C1569 1.391 . S
C1568 C1570 1.394 . S
C1568 H1584 0.931 . S
C1569 C1568 1.391 . S
C1569 C1573 1.376 . S
C1570 C1568 1.394 . S
C1570 C1571 1.369 . S
C1570 C1574 1.531 . S
C1571 C1570 1.369 . S
C1571 C1572 1.410 . S
C1571 C1579 1.505 1_455 S
C1572 C1571 1.410 . S
C1572 C1573 1.392 . S
C1572 C1575 1.511 . S
C1573 C1569 1.376 . S
C1573 C1572 1.392 . S
C1573 H1585 0.929 . S
C1574 C1570 1.531 . S
C1574 H1586 0.960 . S
C1574 H1587 0.962 1_455 S
C1574 H1588 0.960 . S
C1575 C1572 1.511 . S
C1575 H1589 0.961 . S
C1575 H1590 0.961 1_455 S
C1575 H1591 0.961 . S
C1576 C1577 1.370 . S
C1576 C1578 1.363 1_556 S
C1576 H1592 0.931 . S
C1577 C1576 1.370 . S
C1577 C1581 1.408 1_655 S
C1578 C1576 1.363 1_554 S
C1578 C1579 1.366 . S
C1578 C1582 1.524 . S
C1579 C1571 1.505 1_655 S
C1579 C1578 1.366 . S
C1579 C1580 1.405 1_654 S
C1580 C1579 1.405 1_456 S
C1580 C1581 1.404 . S
C1580 C1583 1.539 . S
C1581 C1577 1.408 1_455 S
C1581 C1580 1.404 . S
C1581 H1593 0.930 . S
C1582 C1578 1.524 . S
C1582 H1594 0.956 . S
C1582 H1595 0.961 . S
C1582 H1596 0.961 . S
C1583 C1580 1.539 . S
C1583 H1597 0.958 . S
C1583 H1598 0.961 . S
C1583 H1599 0.960 1_556 S
H1584 C1568 0.931 . S
H1585 C1573 0.929 . S
H1586 C1574 0.960 . S
H1587 C1574 0.962 1_655 S
H1588 C1574 0.960 . S
H1589 C1575 0.961 . S
H1590 C1575 0.961 1_655 S
H1591 C1575 0.961 . S
H1592 C1576 0.931 . S
H1593 C1581 0.930 . S
H1594 C1582 0.956 . S
H1595 C1582 0.961 . S
H1596 C1582 0.961 . S
H1597 C1583 0.958 . S
H1598 C1583 0.961 . S
H1599 C1583 0.960 1_554 S
C1600 C1601 1.391 . S
C1600 C1602 1.394 . S
C1600 H1616 0.931 . S
C1601 C1600 1.391 . S
C1601 C1605 1.376 . S
C1602 C1600 1.394 . S
C1602 C1603 1.369 . S
C1602 C1606 1.531 . S
C1603 C1602 1.369 . S
C1603 C1604 1.410 . S
C1603 C1611 1.503 . S
C1604 C1603 1.410 . S
C1604 C1605 1.392 . S
C1604 C1607 1.511 . S
C1605 C1601 1.376 . S
C1605 C1604 1.392 . S
C1605 H1617 0.929 . S
C1606 C1602 1.531 . S
C1606 H1618 0.960 . S
C1606 H1619 0.962 . S
C1606 H1620 0.960 . S
C1607 C1604 1.511 . S
C1607 H1621 0.961 . S
C1607 H1622 0.961 . S
C1607 H1623 0.961 . S
C1608 C1609 1.370 . S
C1608 C1610 1.363 . S
C1608 H1624 0.931 . S
C1609 C1608 1.370 . S
C1609 C1613 1.408 . S
C1610 C1608 1.363 . S
C1610 C1611 1.370 . S
C1610 C1614 1.524 . S
C1611 C1603 1.503 . S
C1611 C1610 1.370 . S
C1611 C1612 1.403 . S
C1612 C1611 1.403 . S
C1612 C1613 1.404 . S
C1612 C1615 1.539 . S
C1613 C1609 1.408 . S
C1613 C1612 1.404 . S
C1613 H1625 0.930 . S
C1614 C1610 1.524 . S
C1614 H1626 0.956 . S
C1614 H1627 0.961 . S
C1614 H1628 0.961 . S
C1615 C1612 1.539 . S
C1615 H1629 0.958 . S
C1615 H1630 0.961 . S
C1615 H1631 0.960 . S
H1616 C1600 0.931 . S
H1617 C1605 0.929 . S
H1618 C1606 0.960 . S
H1619 C1606 0.962 . S
H1620 C1606 0.960 . S
H1621 C1607 0.961 . S
H1622 C1607 0.961 . S
H1623 C1607 0.961 . S
H1624 C1608 0.931 . S
H1625 C1613 0.930 . S
H1626 C1614 0.956 . S
H1627 C1614 0.961 . S
H1628 C1614 0.961 . S
H1629 C1615 0.958 . S
H1630 C1615 0.961 . S
H1631 C1615 0.960 . S
C1632 C1633 1.391 . S
C1632 C1634 1.394 . S
C1632 H1648 0.931 . S
C1633 C1632 1.391 . S
C1633 C1637 1.376 . S
C1634 C1632 1.394 . S
C1634 C1635 1.351 1_655 S
C1634 C1638 1.531 . S
C1635 C1634 1.351 1_455 S
C1635 C1636 1.414 . S
C1635 C1643 1.515 . S
C1636 C1635 1.414 . S
C1636 C1637 1.392 1_455 S
C1636 C1639 1.511 . S
C1637 C1633 1.376 . S
C1637 C1636 1.392 1_655 S
C1637 H1649 0.929 . S
C1638 C1634 1.531 . S
C1638 H1650 1.012 . S
C1638 H1651 0.962 . S
C1638 H1652 0.960 . S
C1639 C1636 1.511 . S
C1639 H1653 0.961 . S
C1639 H1654 0.961 . S
C1639 H1655 0.961 . S
C1640 C1641 1.370 . S
C1640 C1642 1.363 1_455 S
C1640 H1656 0.931 1_455 S
C1641 C1640 1.370 . S
C1641 C1645 1.408 . S
C1642 C1640 1.363 1_655 S
C1642 C1643 1.370 1_655 S
C1642 C1646 1.524 . S
C1643 C1635 1.515 . S
C1643 C1642 1.370 1_455 S
C1643 C1644 1.403 . S
C1644 C1643 1.403 . S
C1644 C1645 1.404 . S
C1644 C1647 1.539 . S
C1645 C1641 1.408 . S
C1645 C1644 1.404 . S
C1645 H1657 0.930 . S
C1646 C1642 1.524 . S
C1646 H1658 0.956 . S
C1646 H1659 0.961 . S
C1646 H1660 0.961 . S
C1647 C1644 1.539 . S
C1647 H1661 0.958 . S
C1647 H1662 0.961 . S
C1647 H1663 0.960 . S
H1648 C1632 0.931 . S
H1649 C1637 0.929 . S
H1650 C1638 1.012 . S
H1651 C1638 0.962 . S
H1652 C1638 0.960 . S
H1653 C1639 0.961 . S
H1654 C1639 0.961 . S
H1655 C1639 0.961 . S
H1656 C1640 0.931 1_655 S
H1657 C1645 0.930 . S
H1658 C1646 0.956 . S
H1659 C1646 0.961 . S
H1660 C1646 0.961 . S
H1661 C1647 0.958 . S
H1662 C1647 0.961 . S
H1663 C1647 0.960 . S
C1664 C1665 1.391 . S
C1664 C1666 1.394 . S
C1664 H1680 0.931 . S
C1665 C1664 1.391 . S
C1665 C1669 1.376 . S
C1666 C1664 1.394 . S
C1666 C1667 1.369 . S
C1666 C1670 1.531 . S
C1667 C1666 1.369 . S
C1667 C1668 1.410 . S
C1667 C1675 1.503 . S
C1668 C1667 1.410 . S
C1668 C1669 1.392 . S
C1668 C1671 1.511 . S
C1669 C1665 1.376 . S
C1669 C1668 1.392 . S
C1669 H1681 0.929 . S
C1670 C1666 1.531 . S
C1670 H1682 0.960 . S
C1670 H1683 0.962 . S
C1670 H1684 0.960 . S
C1671 C1668 1.511 . S
C1671 H1685 0.961 . S
C1671 H1686 0.961 . S
C1671 H1687 0.961 . S
C1672 C1673 1.370 . S
C1672 C1674 1.363 . S
C1672 H1688 0.931 . S
C1673 C1672 1.370 . S
C1673 C1677 1.408 . S
C1674 C1672 1.363 . S
C1674 C1675 1.370 . S
C1674 C1678 1.524 . S
C1675 C1667 1.503 . S
C1675 C1674 1.370 . S
C1675 C1676 1.403 . S
C1676 C1675 1.403 . S
C1676 C1677 1.404 . S
C1676 C1679 1.539 . S
C1677 C1673 1.408 . S
C1677 C1676 1.404 . S
C1677 H1689 0.930 . S
C1678 C1674 1.524 . S
C1678 H1690 0.956 . S
C1678 H1691 0.961 . S
C1678 H1692 0.961 . S
C1679 C1676 1.539 . S
C1679 H1693 0.958 . S
C1679 H1694 0.961 . S
C1679 H1695 0.960 . S
H1680 C1664 0.931 . S
H1681 C1669 0.929 . S
H1682 C1670 0.960 . S
H1683 C1670 0.962 . S
H1684 C1670 0.960 . S
H1685 C1671 0.961 . S
H1686 C1671 0.961 . S
H1687 C1671 0.961 . S
H1688 C1672 0.931 . S
H1689 C1677 0.930 . S
H1690 C1678 0.956 . S
H1691 C1678 0.961 . S
H1692 C1678 0.961 . S
H1693 C1679 0.958 . S
H1694 C1679 0.961 . S
H1695 C1679 0.960 . S
C1696 C1697 1.391 . S
C1696 C1698 1.394 . S
C1696 H1712 0.931 . S
C1697 C1696 1.391 . S
C1697 C1701 1.376 . S
C1698 C1696 1.394 . S
C1698 C1699 1.369 1_554 S
C1698 C1702 1.530 1_554 S
C1699 C1698 1.369 1_556 S
C1699 C1700 1.410 . S
C1699 C1707 1.503 . S
C1700 C1699 1.410 . S
C1700 C1701 1.392 1_556 S
C1700 C1703 1.511 . S
C1701 C1697 1.376 . S
C1701 C1700 1.392 1_554 S
C1701 H1713 0.929 . S
C1702 C1698 1.530 1_556 S
C1702 H1714 0.964 . S
C1702 H1715 0.962 . S
C1702 H1716 0.957 1_556 S
C1703 C1700 1.511 . S
C1703 H1717 0.961 . S
C1703 H1718 0.961 . S
C1703 H1719 0.961 . S
C1704 C1705 1.370 . S
C1704 C1706 1.363 . S
C1704 H1720 0.931 . S
C1705 C1704 1.370 . S
C1705 C1709 1.408 . S
C1706 C1704 1.363 . S
C1706 C1707 1.370 . S
C1706 C1710 1.524 . S
C1707 C1699 1.503 . S
C1707 C1706 1.370 . S
C1707 C1708 1.403 . S
C1708 C1707 1.403 . S
C1708 C1709 1.404 . S
C1708 C1711 1.539 . S
C1709 C1705 1.408 . S
C1709 C1708 1.404 . S
C1709 H1721 0.930 . S
C1710 C1706 1.524 . S
C1710 H1722 0.956 . S
C1710 H1723 0.961 . S
C1710 H1724 0.961 . S
C1711 C1708 1.539 . S
C1711 H1725 0.958 . S
C1711 H1726 0.961 . S
C1711 H1727 0.960 . S
H1712 C1696 0.931 . S
H1713 C1701 0.929 . S
H1714 C1702 0.964 . S
H1715 C1702 0.962 . S
H1716 C1702 0.957 1_554 S
H1717 C1703 0.961 . S
H1718 C1703 0.961 . S
H1719 C1703 0.961 . S
H1720 C1704 0.931 . S
H1721 C1709 0.930 . S
H1722 C1710 0.956 . S
H1723 C1710 0.961 . S
H1724 C1710 0.961 . S
H1725 C1711 0.958 . S
H1726 C1711 0.961 . S
H1727 C1711 0.960 . S
C1728 C1729 1.391 . S
C1728 C1730 1.394 . S
C1728 H1744 0.931 . S
C1729 C1728 1.391 . S
C1729 C1733 1.376 . S
C1730 C1728 1.394 . S
C1730 C1731 1.369 . S
C1730 C1734 1.531 . S
C1731 C1730 1.369 . S
C1731 C1732 1.410 . S
C1731 C1739 1.503 . S
C1732 C1731 1.410 . S
C1732 C1733 1.392 . S
C1732 C1735 1.511 . S
C1733 C1729 1.376 . S
C1733 C1732 1.392 . S
C1733 H1745 0.929 . S
C1734 C1730 1.531 . S
C1734 H1746 0.960 . S
C1734 H1747 0.962 . S
C1734 H1748 0.960 . S
C1735 C1732 1.511 . S
C1735 H1749 0.961 . S
C1735 H1750 0.961 . S
C1735 H1751 0.961 . S
C1736 C1737 1.370 . S
C1736 C1738 1.363 . S
C1736 H1752 0.931 . S
C1737 C1736 1.370 . S
C1737 C1741 1.408 . S
C1738 C1736 1.363 . S
C1738 C1739 1.370 . S
C1738 C1742 1.524 . S
C1739 C1731 1.503 . S
C1739 C1738 1.370 . S
C1739 C1740 1.403 . S
C1740 C1739 1.403 . S
C1740 C1741 1.404 . S
C1740 C1743 1.539 . S
C1741 C1737 1.408 . S
C1741 C1740 1.404 . S
C1741 H1753 0.930 . S
C1742 C1738 1.524 . S
C1742 H1754 0.956 . S
C1742 H1755 0.961 . S
C1742 H1756 0.961 . S
C1743 C1740 1.539 . S
C1743 H1757 0.958 . S
C1743 H1758 0.961 . S
C1743 H1759 0.960 . S
H1744 C1728 0.931 . S
H1745 C1733 0.929 . S
H1746 C1734 0.960 . S
H1747 C1734 0.962 . S
H1748 C1734 0.960 . S
H1749 C1735 0.961 . S
H1750 C1735 0.961 . S
H1751 C1735 0.961 . S
H1752 C1736 0.931 . S
H1753 C1741 0.930 . S
H1754 C1742 0.956 . S
H1755 C1742 0.961 . S
H1756 C1742 0.961 . S
H1757 C1743 0.958 . S
H1758 C1743 0.961 . S
H1759 C1743 0.960 . S
C1760 C1761 1.391 . S
C1760 C1762 1.394 . S
C1760 H1776 0.931 . S
C1761 C1760 1.391 . S
C1761 C1765 1.376 . S
C1762 C1760 1.394 . S
C1762 C1763 1.369 . S
C1762 C1766 1.531 . S
C1763 C1762 1.369 . S
C1763 C1764 1.410 . S
C1763 C1771 1.503 . S
C1764 C1763 1.410 . S
C1764 C1765 1.392 . S
C1764 C1767 1.511 . S
C1765 C1761 1.376 . S
C1765 C1764 1.392 . S
C1765 H1777 0.929 . S
C1766 C1762 1.531 . S
C1766 H1778 0.960 . S
C1766 H1779 0.962 . S
C1766 H1780 0.960 . S
C1767 C1764 1.511 . S
C1767 H1781 0.961 . S
C1767 H1782 0.961 . S
C1767 H1783 0.961 . S
C1768 C1769 1.370 . S
C1768 C1770 1.363 . S
C1768 H1784 0.931 . S
C1769 C1768 1.370 . S
C1769 C1773 1.408 . S
C1770 C1768 1.363 . S
C1770 C1771 1.370 . S
C1770 C1774 1.524 . S
C1771 C1763 1.503 . S
C1771 C1770 1.370 . S
C1771 C1772 1.403 . S
C1772 C1771 1.403 . S
C1772 C1773 1.404 . S
C1772 C1775 1.539 . S
C1773 C1769 1.408 . S
C1773 C1772 1.404 . S
C1773 H1785 0.930 . S
C1774 C1770 1.524 . S
C1774 H1786 0.956 . S
C1774 H1787 0.961 . S
C1774 H1788 0.961 . S
C1775 C1772 1.539 . S
C1775 H1789 0.958 . S
C1775 H1790 0.961 . S
C1775 H1791 0.960 . S
H1776 C1760 0.931 . S
H1777 C1765 0.929 . S
H1778 C1766 0.960 . S
H1779 C1766 0.962 . S
H1780 C1766 0.960 . S
H1781 C1767 0.961 . S
H1782 C1767 0.961 . S
H1783 C1767 0.961 . S
H1784 C1768 0.931 . S
H1785 C1773 0.930 . S
H1786 C1774 0.956 . S
H1787 C1774 0.961 . S
H1788 C1774 0.961 . S
H1789 C1775 0.958 . S
H1790 C1775 0.961 . S
H1791 C1775 0.960 . S
C1792 C1793 1.391 . S
C1792 C1794 1.394 . S
C1792 H1808 0.931 . S
C1793 C1792 1.391 . S
C1793 C1797 1.376 . S
C1794 C1792 1.394 . S
C1794 C1795 1.369 . S
C1794 C1798 1.531 . S
C1795 C1794 1.369 . S
C1795 C1796 1.410 . S
C1795 C1803 1.503 . S
C1796 C1795 1.410 . S
C1796 C1797 1.392 . S
C1796 C1799 1.511 . S
C1797 C1793 1.376 . S
C1797 C1796 1.392 . S
C1797 H1809 0.929 . S
C1798 C1794 1.531 . S
C1798 H1810 0.960 . S
C1798 H1811 0.962 . S
C1798 H1812 0.960 . S
C1799 C1796 1.511 . S
C1799 H1813 0.961 . S
C1799 H1814 0.961 . S
C1799 H1815 0.961 . S
C1800 C1801 1.370 . S
C1800 C1802 1.363 . S
C1800 H1816 0.931 . S
C1801 C1800 1.370 . S
C1801 C1805 1.408 . S
C1802 C1800 1.363 . S
C1802 C1803 1.370 . S
C1802 C1806 1.524 . S
C1803 C1795 1.503 . S
C1803 C1802 1.370 . S
C1803 C1804 1.403 . S
C1804 C1803 1.403 . S
C1804 C1805 1.404 . S
C1804 C1807 1.539 . S
C1805 C1801 1.408 . S
C1805 C1804 1.404 . S
C1805 H1817 0.930 . S
C1806 C1802 1.524 . S
C1806 H1818 0.956 . S
C1806 H1819 0.961 . S
C1806 H1820 0.961 . S
C1807 C1804 1.539 . S
C1807 H1821 0.958 . S
C1807 H1822 0.961 . S
C1807 H1823 0.960 . S
H1808 C1792 0.931 . S
H1809 C1797 0.929 . S
H1810 C1798 0.960 . S
H1811 C1798 0.962 . S
H1812 C1798 0.960 . S
H1813 C1799 0.961 . S
H1814 C1799 0.961 . S
H1815 C1799 0.961 . S
H1816 C1800 0.931 . S
H1817 C1805 0.930 . S
H1818 C1806 0.956 . S
H1819 C1806 0.961 . S
H1820 C1806 0.961 . S
H1821 C1807 0.958 . S
H1822 C1807 0.961 . S
H1823 C1807 0.960 . S
C1824 C1825 1.391 . S
C1824 C1826 1.394 . S
C1824 H1840 0.931 . S
C1825 C1824 1.391 . S
C1825 C1829 1.376 . S
C1826 C1824 1.394 . S
C1826 C1827 1.369 . S
C1826 C1830 1.531 . S
C1827 C1826 1.369 . S
C1827 C1828 1.410 1_655 S
C1827 C1835 1.503 1_655 S
C1828 C1827 1.410 1_455 S
C1828 C1829 1.392 1_455 S
C1828 C1831 1.511 . S
C1829 C1825 1.376 . S
C1829 C1828 1.392 1_655 S
C1829 H1841 0.929 1_655 S
C1830 C1826 1.531 . S
C1830 H1842 0.960 . S
C1830 H1843 0.962 . S
C1830 H1844 0.960 . S
C1831 C1828 1.511 . S
C1831 H1845 0.961 . S
C1831 H1846 0.961 . S
C1831 H1847 0.961 . S
C1832 C1833 1.370 . S
C1832 C1834 1.347 1_454 S
C1832 H1848 0.931 . S
C1833 C1832 1.370 . S
C1833 C1837 1.408 . S
C1834 C1832 1.347 1_656 S
C1834 C1835 1.358 1_655 S
C1834 C1838 1.556 . S
C1835 C1827 1.503 1_455 S
C1835 C1834 1.358 1_455 S
C1835 C1836 1.403 . S
C1836 C1835 1.403 . S
C1836 C1837 1.404 1_556 S
C1836 C1839 1.539 . S
C1837 C1833 1.408 . S
C1837 C1836 1.404 1_554 S
C1837 H1849 0.930 . S
C1838 C1834 1.556 . S
C1838 H1850 0.956 . S
C1838 H1851 0.961 . S
C1838 H1852 0.961 . S
C1839 C1836 1.539 . S
C1839 H1853 0.958 . S
C1839 H1854 0.961 . S
C1839 H1855 0.960 . S
H1840 C1824 0.931 . S
H1841 C1829 0.929 1_455 S
H1842 C1830 0.960 . S
H1843 C1830 0.962 . S
H1844 C1830 0.960 . S
H1845 C1831 0.961 . S
H1846 C1831 0.961 . S
H1847 C1831 0.961 . S
H1848 C1832 0.931 . S
H1849 C1837 0.930 . S
H1850 C1838 0.956 . S
H1851 C1838 0.961 . S
H1852 C1838 0.961 . S
H1853 C1839 0.958 . S
H1854 C1839 0.961 . S
H1855 C1839 0.960 . S
C1856 C1857 1.391 . S
C1856 C1858 1.394 . S
C1856 H1872 0.931 . S
C1857 C1856 1.391 . S
C1857 C1861 1.376 . S
C1858 C1856 1.394 . S
C1858 C1859 1.369 . S
C1858 C1862 1.531 . S
C1859 C1858 1.369 . S
C1859 C1860 1.410 . S
C1859 C1867 1.503 . S
C1860 C1859 1.410 . S
C1860 C1861 1.392 . S
C1860 C1863 1.511 . S
C1861 C1857 1.376 . S
C1861 C1860 1.392 . S
C1861 H1873 0.929 . S
C1862 C1858 1.531 . S
C1862 H1874 0.960 . S
C1862 H1875 0.962 . S
C1862 H1876 0.960 . S
C1863 C1860 1.511 . S
C1863 H1877 0.961 . S
C1863 H1878 0.961 . S
C1863 H1879 0.961 . S
C1864 C1865 1.370 . S
C1864 C1866 1.363 . S
C1864 H1880 0.931 . S
C1865 C1864 1.370 . S
C1865 C1869 1.408 . S
C1866 C1864 1.363 . S
C1866 C1867 1.370 . S
C1866 C1870 1.524 . S
C1867 C1859 1.503 . S
C1867 C1866 1.370 . S
C1867 C1868 1.403 . S
C1868 C1867 1.403 . S
C1868 C1869 1.404 . S
C1868 C1871 1.539 . S
C1869 C1865 1.408 . S
C1869 C1868 1.404 . S
C1869 H1881 0.930 . S
C1870 C1866 1.524 . S
C1870 H1882 0.956 . S
C1870 H1883 0.961 . S
C1870 H1884 0.961 . S
C1871 C1868 1.539 . S
C1871 H1885 0.958 . S
C1871 H1886 0.961 . S
C1871 H1887 0.960 . S
H1872 C1856 0.931 . S
H1873 C1861 0.929 . S
H1874 C1862 0.960 . S
H1875 C1862 0.962 . S
H1876 C1862 0.960 . S
H1877 C1863 0.961 . S
H1878 C1863 0.961 . S
H1879 C1863 0.961 . S
H1880 C1864 0.931 . S
H1881 C1869 0.930 . S
H1882 C1870 0.956 . S
H1883 C1870 0.961 . S
H1884 C1870 0.961 . S
H1885 C1871 0.958 . S
H1886 C1871 0.961 . S
H1887 C1871 0.960 . S
C1888 C1889 1.391 . S
C1888 C1890 1.394 . S
C1888 H1904 0.931 . S
C1889 C1888 1.391 . S
C1889 C1893 1.376 . S
C1890 C1888 1.394 . S
C1890 C1891 1.369 . S
C1890 C1894 1.531 . S
C1891 C1890 1.369 . S
C1891 C1892 1.410 1_655 S
C1891 C1899 1.503 1_655 S
C1892 C1891 1.410 1_455 S
C1892 C1893 1.392 1_455 S
C1892 C1895 1.511 . S
C1893 C1889 1.376 . S
C1893 C1892 1.392 1_655 S
C1893 H1905 0.929 1_655 S
C1894 C1890 1.531 . S
C1894 H1906 0.960 . S
C1894 H1907 0.962 . S
C1894 H1908 0.960 . S
C1895 C1892 1.511 . S
C1895 H1909 0.961 . S
C1895 H1910 0.961 . S
C1895 H1911 0.961 . S
C1896 C1897 1.370 . S
C1896 C1898 1.363 . S
C1896 H1912 0.931 . S
C1897 C1896 1.370 . S
C1897 C1901 1.408 . S
C1898 C1896 1.363 . S
C1898 C1899 1.370 . S
C1898 C1902 1.524 . S
C1899 C1891 1.503 1_455 S
C1899 C1898 1.370 . S
C1899 C1900 1.403 . S
C1900 C1899 1.403 . S
C1900 C1901 1.404 . S
C1900 C1903 1.539 . S
C1901 C1897 1.408 . S
C1901 C1900 1.404 . S
C1901 H1913 0.930 . S
C1902 C1898 1.524 . S
C1902 H1914 0.956 1_455 S
C1902 H1915 0.961 . S
C1902 H1916 0.961 . S
C1903 C1900 1.539 . S
C1903 H1917 0.958 1_455 S
C1903 H1918 0.961 . S
C1903 H1919 0.960 . S
H1904 C1888 0.931 . S
H1905 C1893 0.929 1_455 S
H1906 C1894 0.960 . S
H1907 C1894 0.962 . S
H1908 C1894 0.960 . S
H1909 C1895 0.961 . S
H1910 C1895 0.961 . S
H1911 C1895 0.961 . S
H1912 C1896 0.931 . S
H1913 C1901 0.930 . S
H1914 C1902 0.956 1_655 S
H1915 C1902 0.961 . S
H1916 C1902 0.961 . S
H1917 C1903 0.958 1_655 S
H1918 C1903 0.961 . S
H1919 C1903 0.960 . S
C1920 C1921 1.391 . S
C1920 C1922 1.394 . S
C1920 H1936 0.931 . S
C1921 C1920 1.391 . S
C1921 C1925 1.376 . S
C1922 C1920 1.394 . S
C1922 C1923 1.369 . S
C1922 C1926 1.531 . S
C1923 C1922 1.369 . S
C1923 C1924 1.410 . S
C1923 C1931 1.503 . S
C1924 C1923 1.410 . S
C1924 C1925 1.392 . S
C1924 C1927 1.511 . S
C1925 C1921 1.376 . S
C1925 C1924 1.392 . S
C1925 H1937 0.929 . S
C1926 C1922 1.531 . S
C1926 H1938 0.960 . S
C1926 H1939 0.962 . S
C1926 H1940 0.960 . S
C1927 C1924 1.511 . S
C1927 H1941 0.961 . S
C1927 H1942 0.961 . S
C1927 H1943 0.961 . S
C1928 C1929 1.370 . S
C1928 C1930 1.363 . S
C1928 H1944 0.931 . S
C1929 C1928 1.370 . S
C1929 C1933 1.408 . S
C1930 C1928 1.363 . S
C1930 C1931 1.370 . S
C1930 C1934 1.524 . S
C1931 C1923 1.503 . S
C1931 C1930 1.370 . S
C1931 C1932 1.403 . S
C1932 C1931 1.403 . S
C1932 C1933 1.404 . S
C1932 C1935 1.539 . S
C1933 C1929 1.408 . S
C1933 C1932 1.404 . S
C1933 H1945 0.930 . S
C1934 C1930 1.524 . S
C1934 H1946 0.956 . S
C1934 H1947 0.961 . S
C1934 H1948 0.961 . S
C1935 C1932 1.539 . S
C1935 H1949 0.958 . S
C1935 H1950 0.961 . S
C1935 H1951 0.960 . S
H1936 C1920 0.931 . S
H1937 C1925 0.929 . S
H1938 C1926 0.960 . S
H1939 C1926 0.962 . S
H1940 C1926 0.960 . S
H1941 C1927 0.961 . S
H1942 C1927 0.961 . S
H1943 C1927 0.961 . S
H1944 C1928 0.931 . S
H1945 C1933 0.930 . S
H1946 C1934 0.956 . S
H1947 C1934 0.961 . S
H1948 C1934 0.961 . S
H1949 C1935 0.958 . S
H1950 C1935 0.961 . S
H1951 C1935 0.960 . S
C1952 C1953 1.391 . S
C1952 C1954 1.394 . S
C1952 H1968 0.931 . S
C1953 C1952 1.391 . S
C1953 C1957 1.376 . S
C1954 C1952 1.394 . S
C1954 C1955 1.369 . S
C1954 C1958 1.531 . S
C1955 C1954 1.369 . S
C1955 C1956 1.410 . S
C1955 C1963 1.503 . S
C1956 C1955 1.410 . S
C1956 C1957 1.392 . S
C1956 C1959 1.511 . S
C1957 C1953 1.376 . S
C1957 C1956 1.392 . S
C1957 H1969 0.929 . S
C1958 C1954 1.531 . S
C1958 H1970 0.960 . S
C1958 H1971 0.962 . S
C1958 H1972 0.960 . S
C1959 C1956 1.511 . S
C1959 H1973 0.961 . S
C1959 H1974 0.961 . S
C1959 H1975 0.961 . S
C1960 C1961 1.370 . S
C1960 C1962 1.363 1_556 S
C1960 H1976 0.931 . S
C1961 C1960 1.370 . S
C1961 C1965 1.408 . S
C1962 C1960 1.363 1_554 S
C1962 C1963 1.370 . S
C1962 C1966 1.524 . S
C1963 C1955 1.503 . S
C1963 C1962 1.370 . S
C1963 C1964 1.403 1_554 S
C1964 C1963 1.403 1_556 S
C1964 C1965 1.404 . S
C1964 C1967 1.539 1_556 S
C1965 C1961 1.408 . S
C1965 C1964 1.404 . S
C1965 H1977 0.930 . S
C1966 C1962 1.524 . S
C1966 H1978 0.956 . S
C1966 H1979 0.961 . S
C1966 H1980 0.961 . S
C1967 C1964 1.539 1_554 S
C1967 H1981 0.958 . S
C1967 H1982 0.962 1_554 S
C1967 H1983 0.959 . S
H1968 C1952 0.931 . S
H1969 C1957 0.929 . S
H1970 C1958 0.960 . S
H1971 C1958 0.962 . S
H1972 C1958 0.960 . S
H1973 C1959 0.961 . S
H1974 C1959 0.961 . S
H1975 C1959 0.961 . S
H1976 C1960 0.931 . S
H1977 C1965 0.930 . S
H1978 C1966 0.956 . S
H1979 C1966 0.961 . S
H1980 C1966 0.961 . S
H1981 C1967 0.958 . S
H1982 C1967 0.962 1_556 S
H1983 C1967 0.959 . S
C1984 C1985 1.391 . S
C1984 C1986 1.394 . S
C1984 H2000 0.931 . S
C1985 C1984 1.391 . S
C1985 C1989 1.376 . S
C1986 C1984 1.394 . S
C1986 C1987 1.369 . S
C1986 C1990 1.531 . S
C1987 C1986 1.369 . S
C1987 C1988 1.410 . S
C1987 C1995 1.503 . S
C1988 C1987 1.410 . S
C1988 C1989 1.392 . S
C1988 C1991 1.511 . S
C1989 C1985 1.376 . S
C1989 C1988 1.392 . S
C1989 H2001 0.929 . S
C1990 C1986 1.531 . S
C1990 H2002 0.960 . S
C1990 H2003 0.962 . S
C1990 H2004 0.960 . S
C1991 C1988 1.511 . S
C1991 H2005 0.961 . S
C1991 H2006 0.961 . S
C1991 H2007 0.961 . S
C1992 C1993 1.370 . S
C1992 C1994 1.363 . S
C1992 H2008 0.931 . S
C1993 C1992 1.370 . S
C1993 C1997 1.408 . S
C1994 C1992 1.363 . S
C1994 C1995 1.370 . S
C1994 C1998 1.524 . S
C1995 C1987 1.503 . S
C1995 C1994 1.370 . S
C1995 C1996 1.403 . S
C1996 C1995 1.403 . S
C1996 C1997 1.404 . S
C1996 C1999 1.539 . S
C1997 C1993 1.408 . S
C1997 C1996 1.404 . S
C1997 H2009 0.930 . S
C1998 C1994 1.524 . S
C1998 H2010 0.956 . S
C1998 H2011 0.961 . S
C1998 H2012 0.961 . S
C1999 C1996 1.539 . S
C1999 H2013 0.958 . S
C1999 H2014 0.961 . S
C1999 H2015 0.960 . S
H2000 C1984 0.931 . S
H2001 C1989 0.929 . S
H2002 C1990 0.960 . S
H2003 C1990 0.962 . S
H2004 C1990 0.960 . S
H2005 C1991 0.961 . S
H2006 C1991 0.961 . S
H2007 C1991 0.961 . S
H2008 C1992 0.931 . S
H2009 C1997 0.930 . S
H2010 C1998 0.956 . S
H2011 C1998 0.961 . S
H2012 C1998 0.961 . S
H2013 C1999 0.958 . S
H2014 C1999 0.961 . S
H2015 C1999 0.960 . S
C2016 C2017 1.391 . S
C2016 C2018 1.394 . S
C2016 H2032 0.931 . S
C2017 C2016 1.391 . S
C2017 C2021 1.376 . S
C2018 C2016 1.394 . S
C2018 C2019 1.369 . S
C2018 C2022 1.531 . S
C2019 C2018 1.369 . S
C2019 C2020 1.410 . S
C2019 C2027 1.503 . S
C2020 C2019 1.410 . S
C2020 C2021 1.392 . S
C2020 C2023 1.511 . S
C2021 C2017 1.376 . S
C2021 C2020 1.392 . S
C2021 H2033 0.929 . S
C2022 C2018 1.531 . S
C2022 H2034 0.960 . S
C2022 H2035 0.962 . S
C2022 H2036 0.960 . S
C2023 C2020 1.511 . S
C2023 H2037 0.961 . S
C2023 H2038 0.961 . S
C2023 H2039 0.961 . S
C2024 C2025 1.370 . S
C2024 C2026 1.363 . S
C2024 H2040 0.931 . S
C2025 C2024 1.370 . S
C2025 C2029 1.408 . S
C2026 C2024 1.363 . S
C2026 C2027 1.370 . S
C2026 C2030 1.524 . S
C2027 C2019 1.503 . S
C2027 C2026 1.370 . S
C2027 C2028 1.403 . S
C2028 C2027 1.403 . S
C2028 C2029 1.404 . S
C2028 C2031 1.539 . S
C2029 C2025 1.408 . S
C2029 C2028 1.404 . S
C2029 H2041 0.930 . S
C2030 C2026 1.524 . S
C2030 H2042 0.956 . S
C2030 H2043 0.961 . S
C2030 H2044 0.961 . S
C2031 C2028 1.539 . S
C2031 H2045 0.958 . S
C2031 H2046 0.961 . S
C2031 H2047 0.960 . S
H2032 C2016 0.931 . S
H2033 C2021 0.929 . S
H2034 C2022 0.960 . S
H2035 C2022 0.962 . S
H2036 C2022 0.960 . S
H2037 C2023 0.961 . S
H2038 C2023 0.961 . S
H2039 C2023 0.961 . S
H2040 C2024 0.931 . S
H2041 C2029 0.930 . S
H2042 C2030 0.956 . S
H2043 C2030 0.961 . S
H2044 C2030 0.961 . S
H2045 C2031 0.958 . S
H2046 C2031 0.961 . S
H2047 C2031 0.960 . S
C2048 C2049 1.391 . S
C2048 C2050 1.394 . S
C2048 H2064 0.931 . S
C2049 C2048 1.391 . S
C2049 C2053 1.376 . S
C2050 C2048 1.394 . S
C2050 C2051 1.369 . S
C2050 C2054 1.531 . S
C2051 C2050 1.369 . S
C2051 C2052 1.410 . S
C2051 C2059 1.503 . S
C2052 C2051 1.410 . S
C2052 C2053 1.392 . S
C2052 C2055 1.511 . S
C2053 C2049 1.376 . S
C2053 C2052 1.392 . S
C2053 H2065 0.929 . S
C2054 C2050 1.531 . S
C2054 H2066 0.960 . S
C2054 H2067 0.962 . S
C2054 H2068 0.960 . S
C2055 C2052 1.511 . S
C2055 H2069 0.961 . S
C2055 H2070 0.961 . S
C2055 H2071 0.961 . S
C2056 C2057 1.370 . S
C2056 C2058 1.363 . S
C2056 H2072 0.931 . S
C2057 C2056 1.370 . S
C2057 C2061 1.408 . S
C2058 C2056 1.363 . S
C2058 C2059 1.370 . S
C2058 C2062 1.524 . S
C2059 C2051 1.503 . S
C2059 C2058 1.370 . S
C2059 C2060 1.403 . S
C2060 C2059 1.403 . S
C2060 C2061 1.404 . S
C2060 C2063 1.539 . S
C2061 C2057 1.408 . S
C2061 C2060 1.404 . S
C2061 H2073 0.930 . S
C2062 C2058 1.524 . S
C2062 H2074 0.956 . S
C2062 H2075 0.961 . S
C2062 H2076 0.961 . S
C2063 C2060 1.539 . S
C2063 H2077 0.958 . S
C2063 H2078 0.961 . S
C2063 H2079 0.960 . S
H2064 C2048 0.931 . S
H2065 C2053 0.929 . S
H2066 C2054 0.960 . S
H2067 C2054 0.962 . S
H2068 C2054 0.960 . S
H2069 C2055 0.961 . S
H2070 C2055 0.961 . S
H2071 C2055 0.961 . S
H2072 C2056 0.931 . S
H2073 C2061 0.930 . S
H2074 C2062 0.956 . S
H2075 C2062 0.961 . S
H2076 C2062 0.961 . S
H2077 C2063 0.958 . S
H2078 C2063 0.961 . S
H2079 C2063 0.960 . S
C2080 C2081 1.391 . S
C2080 C2082 1.394 . S
C2080 H2096 0.931 . S
C2081 C2080 1.391 . S
C2081 C2085 1.376 . S
C2082 C2080 1.394 . S
C2082 C2083 1.369 . S
C2082 C2086 1.531 . S
C2083 C2082 1.369 . S
C2083 C2084 1.410 . S
C2083 C2091 1.503 . S
C2084 C2083 1.410 . S
C2084 C2085 1.392 . S
C2084 C2087 1.511 . S
C2085 C2081 1.376 . S
C2085 C2084 1.392 . S
C2085 H2097 0.929 . S
C2086 C2082 1.531 . S
C2086 H2098 0.960 . S
C2086 H2099 0.962 . S
C2086 H2100 0.960 . S
C2087 C2084 1.511 . S
C2087 H2101 0.961 . S
C2087 H2102 0.961 . S
C2087 H2103 0.961 . S
C2088 C2089 1.370 . S
C2088 C2090 1.363 . S
C2088 H2104 0.931 . S
C2089 C2088 1.370 . S
C2089 C2093 1.408 . S
C2090 C2088 1.363 . S
C2090 C2091 1.370 . S
C2090 C2094 1.524 . S
C2091 C2083 1.503 . S
C2091 C2090 1.370 . S
C2091 C2092 1.403 . S
C2092 C2091 1.403 . S
C2092 C2093 1.404 . S
C2092 C2095 1.539 . S
C2093 C2089 1.408 . S
C2093 C2092 1.404 . S
C2093 H2105 0.930 . S
C2094 C2090 1.524 . S
C2094 H2106 0.956 . S
C2094 H2107 0.961 . S
C2094 H2108 0.961 . S
C2095 C2092 1.539 . S
C2095 H2109 0.958 . S
C2095 H2110 0.961 . S
C2095 H2111 0.960 . S
H2096 C2080 0.931 . S
H2097 C2085 0.929 . S
H2098 C2086 0.960 . S
H2099 C2086 0.962 . S
H2100 C2086 0.960 . S
H2101 C2087 0.961 . S
H2102 C2087 0.961 . S
H2103 C2087 0.961 . S
H2104 C2088 0.931 . S
H2105 C2093 0.930 . S
H2106 C2094 0.956 . S
H2107 C2094 0.961 . S
H2108 C2094 0.961 . S
H2109 C2095 0.958 . S
H2110 C2095 0.961 . S
H2111 C2095 0.960 . S
C2112 C2113 1.391 . S
C2112 C2114 1.394 . S
C2112 H2128 0.931 . S
C2113 C2112 1.391 . S
C2113 C2117 1.376 . S
C2114 C2112 1.394 . S
C2114 C2115 1.369 . S
C2114 C2118 1.531 . S
C2115 C2114 1.369 . S
C2115 C2116 1.410 . S
C2115 C2123 1.503 . S
C2116 C2115 1.410 . S
C2116 C2117 1.392 . S
C2116 C2119 1.511 . S
C2117 C2113 1.376 . S
C2117 C2116 1.392 . S
C2117 H2129 0.929 . S
C2118 C2114 1.531 . S
C2118 H2130 0.960 . S
C2118 H2131 0.962 . S
C2118 H2132 0.960 . S
C2119 C2116 1.511 . S
C2119 H2133 0.961 . S
C2119 H2134 0.961 . S
C2119 H2135 0.961 . S
C2120 C2121 1.370 . S
C2120 C2122 1.363 . S
C2120 H2136 0.931 . S
C2121 C2120 1.370 . S
C2121 C2125 1.408 . S
C2122 C2120 1.363 . S
C2122 C2123 1.370 . S
C2122 C2126 1.524 . S
C2123 C2115 1.503 . S
C2123 C2122 1.370 . S
C2123 C2124 1.403 . S
C2124 C2123 1.403 . S
C2124 C2125 1.404 . S
C2124 C2127 1.539 . S
C2125 C2121 1.408 . S
C2125 C2124 1.404 . S
C2125 H2137 0.930 . S
C2126 C2122 1.524 . S
C2126 H2138 0.956 . S
C2126 H2139 0.961 . S
C2126 H2140 0.961 . S
C2127 C2124 1.539 . S
C2127 H2141 0.958 . S
C2127 H2142 0.961 . S
C2127 H2143 0.960 . S
H2128 C2112 0.931 . S
H2129 C2117 0.929 . S
H2130 C2118 0.960 . S
H2131 C2118 0.962 . S
H2132 C2118 0.960 . S
H2133 C2119 0.961 . S
H2134 C2119 0.961 . S
H2135 C2119 0.961 . S
H2136 C2120 0.931 . S
H2137 C2125 0.930 . S
H2138 C2126 0.956 . S
H2139 C2126 0.961 . S
H2140 C2126 0.961 . S
H2141 C2127 0.958 . S
H2142 C2127 0.961 . S
H2143 C2127 0.960 . S
C2144 C2145 1.391 . S
C2144 C2146 1.394 . S
C2144 H2160 0.931 . S
C2145 C2144 1.391 . S
C2145 C2149 1.376 . S
C2146 C2144 1.394 . S
C2146 C2147 1.369 . S
C2146 C2150 1.531 . S
C2147 C2146 1.369 . S
C2147 C2148 1.410 . S
C2147 C2155 1.503 . S
C2148 C2147 1.410 . S
C2148 C2149 1.392 . S
C2148 C2151 1.511 . S
C2149 C2145 1.376 . S
C2149 C2148 1.392 . S
C2149 H2161 0.929 . S
C2150 C2146 1.531 . S
C2150 H2162 0.960 . S
C2150 H2163 0.962 . S
C2150 H2164 0.960 . S
C2151 C2148 1.511 . S
C2151 H2165 0.961 . S
C2151 H2166 0.961 . S
C2151 H2167 0.961 . S
C2152 C2153 1.370 . S
C2152 C2154 1.363 . S
C2152 H2168 0.931 . S
C2153 C2152 1.370 . S
C2153 C2157 1.408 . S
C2154 C2152 1.363 . S
C2154 C2155 1.370 . S
C2154 C2158 1.524 . S
C2155 C2147 1.503 . S
C2155 C2154 1.370 . S
C2155 C2156 1.403 . S
C2156 C2155 1.403 . S
C2156 C2157 1.404 . S
C2156 C2159 1.539 . S
C2157 C2153 1.408 . S
C2157 C2156 1.404 . S
C2157 H2169 0.930 . S
C2158 C2154 1.524 . S
C2158 H2170 0.956 . S
C2158 H2171 0.961 . S
C2158 H2172 0.961 . S
C2159 C2156 1.539 . S
C2159 H2173 0.958 . S
C2159 H2174 0.961 . S
C2159 H2175 0.960 . S
H2160 C2144 0.931 . S
H2161 C2149 0.929 . S
H2162 C2150 0.960 . S
H2163 C2150 0.962 . S
H2164 C2150 0.960 . S
H2165 C2151 0.961 . S
H2166 C2151 0.961 . S
H2167 C2151 0.961 . S
H2168 C2152 0.931 . S
H2169 C2157 0.930 . S
H2170 C2158 0.956 . S
H2171 C2158 0.961 . S
H2172 C2158 0.961 . S
H2173 C2159 0.958 . S
H2174 C2159 0.961 . S
H2175 C2159 0.960 . S
C2176 C2177 1.391 . S
C2176 C2178 1.394 . S
C2176 H2192 0.931 . S
C2177 C2176 1.391 . S
C2177 C2181 1.376 . S
C2178 C2176 1.394 . S
C2178 C2179 1.369 . S
C2178 C2182 1.531 . S
C2179 C2178 1.369 . S
C2179 C2180 1.410 . S
C2179 C2187 1.503 . S
C2180 C2179 1.410 . S
C2180 C2181 1.392 . S
C2180 C2183 1.511 . S
C2181 C2177 1.376 . S
C2181 C2180 1.392 . S
C2181 H2193 0.929 . S
C2182 C2178 1.531 . S
C2182 H2194 0.960 . S
C2182 H2195 0.962 . S
C2182 H2196 0.960 . S
C2183 C2180 1.511 . S
C2183 H2197 0.961 . S
C2183 H2198 0.961 . S
C2183 H2199 0.961 . S
C2184 C2185 1.370 . S
C2184 C2186 1.363 . S
C2184 H2200 0.931 . S
C2185 C2184 1.370 . S
C2185 C2189 1.408 . S
C2186 C2184 1.363 . S
C2186 C2187 1.370 . S
C2186 C2190 1.524 . S
C2187 C2179 1.503 . S
C2187 C2186 1.370 . S
C2187 C2188 1.403 . S
C2188 C2187 1.403 . S
C2188 C2189 1.404 . S
C2188 C2191 1.539 . S
C2189 C2185 1.408 . S
C2189 C2188 1.404 . S
C2189 H2201 0.930 . S
C2190 C2186 1.524 . S
C2190 H2202 0.956 . S
C2190 H2203 0.961 . S
C2190 H2204 0.961 . S
C2191 C2188 1.539 . S
C2191 H2205 0.958 . S
C2191 H2206 0.961 1_556 S
C2191 H2207 0.960 . S
H2192 C2176 0.931 . S
H2193 C2181 0.929 . S
H2194 C2182 0.960 . S
H2195 C2182 0.962 . S
H2196 C2182 0.960 . S
H2197 C2183 0.961 . S
H2198 C2183 0.961 . S
H2199 C2183 0.961 . S
H2200 C2184 0.931 . S
H2201 C2189 0.930 . S
H2202 C2190 0.956 . S
H2203 C2190 0.961 . S
H2204 C2190 0.961 . S
H2205 C2191 0.958 . S
H2206 C2191 0.961 1_554 S
H2207 C2191 0.960 . S
C2208 C2209 1.391 . S
C2208 C2210 1.394 . S
C2208 H2224 0.931 . S
C2209 C2208 1.391 . S
C2209 C2213 1.376 . S
C2210 C2208 1.394 . S
C2210 C2211 1.369 . S
C2210 C2214 1.531 . S
C2211 C2210 1.369 . S
C2211 C2212 1.410 . S
C2211 C2219 1.503 . S
C2212 C2211 1.410 . S
C2212 C2213 1.392 . S
C2212 C2215 1.511 . S
C2213 C2209 1.376 . S
C2213 C2212 1.392 . S
C2213 H2225 0.929 . S
C2214 C2210 1.531 . S
C2214 H2226 0.960 . S
C2214 H2227 0.962 . S
C2214 H2228 0.960 1_554 S
C2215 C2212 1.511 . S
C2215 H2229 0.961 . S
C2215 H2230 0.961 . S
C2215 H2231 0.961 . S
C2216 C2217 1.370 . S
C2216 C2218 1.363 . S
C2216 H2232 0.931 . S
C2217 C2216 1.370 . S
C2217 C2221 1.408 . S
C2218 C2216 1.363 . S
C2218 C2219 1.370 . S
C2218 C2222 1.524 . S
C2219 C2211 1.503 . S
C2219 C2218 1.370 . S
C2219 C2220 1.403 . S
C2220 C2219 1.403 . S
C2220 C2221 1.404 . S
C2220 C2223 1.539 . S
C2221 C2217 1.408 . S
C2221 C2220 1.404 . S
C2221 H2233 0.930 . S
C2222 C2218 1.524 . S
C2222 H2234 0.956 . S
C2222 H2235 0.961 . S
C2222 H2236 0.961 . S
C2223 C2220 1.539 . S
C2223 H2237 0.958 . S
C2223 H2238 0.961 . S
C2223 H2239 0.960 . S
H2224 C2208 0.931 . S
H2225 C2213 0.929 . S
H2226 C2214 0.960 . S
H2227 C2214 0.962 . S
H2228 C2214 0.960 1_556 S
H2229 C2215 0.961 . S
H2230 C2215 0.961 . S
H2231 C2215 0.961 . S
H2232 C2216 0.931 . S
H2233 C2221 0.930 . S
H2234 C2222 0.956 . S
H2235 C2222 0.961 . S
H2236 C2222 0.961 . S
H2237 C2223 0.958 . S
H2238 C2223 0.961 . S
H2239 C2223 0.960 . S
C2240 C2241 1.391 . S
C2240 C2242 1.394 . S
C2240 H2256 0.931 . S
C2241 C2240 1.391 . S
C2241 C2245 1.376 . S
C2242 C2240 1.394 . S
C2242 C2243 1.369 . S
C2242 C2246 1.531 . S
C2243 C2242 1.369 . S
C2243 C2244 1.410 . S
C2243 C2251 1.503 . S
C2244 C2243 1.410 . S
C2244 C2245 1.392 . S
C2244 C2247 1.511 . S
C2245 C2241 1.376 . S
C2245 C2244 1.392 . S
C2245 H2257 0.929 . S
C2246 C2242 1.531 . S
C2246 H2258 0.960 . S
C2246 H2259 0.962 . S
C2246 H2260 0.960 . S
C2247 C2244 1.511 . S
C2247 H2261 0.961 . S
C2247 H2262 0.961 . S
C2247 H2263 0.961 . S
C2248 C2249 1.370 . S
C2248 C2250 1.363 . S
C2248 H2264 0.931 . S
C2249 C2248 1.370 . S
C2249 C2253 1.408 . S
C2250 C2248 1.363 . S
C2250 C2251 1.370 . S
C2250 C2254 1.524 . S
C2251 C2243 1.503 . S
C2251 C2250 1.370 . S
C2251 C2252 1.403 . S
C2252 C2251 1.403 . S
C2252 C2253 1.404 . S
C2252 C2255 1.539 . S
C2253 C2249 1.408 . S
C2253 C2252 1.404 . S
C2253 H2265 0.930 . S
C2254 C2250 1.524 . S
C2254 H2266 0.956 . S
C2254 H2267 0.961 . S
C2254 H2268 0.961 . S
C2255 C2252 1.539 . S
C2255 H2269 0.958 . S
C2255 H2270 0.961 . S
C2255 H2271 0.960 . S
H2256 C2240 0.931 . S
H2257 C2245 0.929 . S
H2258 C2246 0.960 . S
H2259 C2246 0.962 . S
H2260 C2246 0.960 . S
H2261 C2247 0.961 . S
H2262 C2247 0.961 . S
H2263 C2247 0.961 . S
H2264 C2248 0.931 . S
H2265 C2253 0.930 . S
H2266 C2254 0.956 . S
H2267 C2254 0.961 . S
H2268 C2254 0.961 . S
H2269 C2255 0.958 . S
H2270 C2255 0.961 . S
H2271 C2255 0.960 . S
C2272 C2273 1.391 . S
C2272 C2274 1.394 . S
C2272 H2288 0.931 . S
C2273 C2272 1.391 . S
C2273 C2277 1.376 . S
C2274 C2272 1.394 . S
C2274 C2275 1.369 . S
C2274 C2278 1.531 . S
C2275 C2274 1.369 . S
C2275 C2276 1.410 . S
C2275 C2283 1.503 . S
C2276 C2275 1.410 . S
C2276 C2277 1.392 . S
C2276 C2279 1.511 . S
C2277 C2273 1.376 . S
C2277 C2276 1.392 . S
C2277 H2289 0.929 . S
C2278 C2274 1.531 . S
C2278 H2290 0.960 . S
C2278 H2291 0.962 . S
C2278 H2292 0.960 . S
C2279 C2276 1.511 . S
C2279 H2293 0.961 . S
C2279 H2294 0.961 . S
C2279 H2295 0.961 . S
C2280 C2281 1.370 . S
C2280 C2282 1.363 . S
C2280 H2296 0.931 . S
C2281 C2280 1.370 . S
C2281 C2285 1.408 . S
C2282 C2280 1.363 . S
C2282 C2283 1.370 . S
C2282 C2286 1.524 . S
C2283 C2275 1.503 . S
C2283 C2282 1.370 . S
C2283 C2284 1.403 . S
C2284 C2283 1.403 . S
C2284 C2285 1.404 . S
C2284 C2287 1.539 . S
C2285 C2281 1.408 . S
C2285 C2284 1.404 . S
C2285 H2297 0.930 . S
C2286 C2282 1.524 . S
C2286 H2298 0.956 . S
C2286 H2299 0.961 . S
C2286 H2300 0.961 . S
C2287 C2284 1.539 . S
C2287 H2301 0.958 . S
C2287 H2302 0.961 . S
C2287 H2303 0.960 . S
H2288 C2272 0.931 . S
H2289 C2277 0.929 . S
H2290 C2278 0.960 . S
H2291 C2278 0.962 . S
H2292 C2278 0.960 . S
H2293 C2279 0.961 . S
H2294 C2279 0.961 . S
H2295 C2279 0.961 . S
H2296 C2280 0.931 . S
H2297 C2285 0.930 . S
H2298 C2286 0.956 . S
H2299 C2286 0.961 . S
H2300 C2286 0.961 . S
H2301 C2287 0.958 . S
H2302 C2287 0.961 . S
H2303 C2287 0.960 . S
C2304 C2305 1.391 . S
C2304 C2306 1.394 . S
C2304 H2320 0.931 . S
C2305 C2304 1.391 . S
C2305 C2309 1.376 . S
C2306 C2304 1.394 . S
C2306 C2307 1.369 . S
C2306 C2310 1.531 . S
C2307 C2306 1.369 . S
C2307 C2308 1.410 . S
C2307 C2315 1.503 . S
C2308 C2307 1.410 . S
C2308 C2309 1.392 . S
C2308 C2311 1.511 . S
C2309 C2305 1.376 . S
C2309 C2308 1.392 . S
C2309 H2321 0.929 . S
C2310 C2306 1.531 . S
C2310 H2322 0.960 . S
C2310 H2323 0.962 . S
C2310 H2324 0.960 . S
C2311 C2308 1.511 . S
C2311 H2325 0.961 . S
C2311 H2326 0.961 . S
C2311 H2327 0.961 . S
C2312 C2313 1.370 . S
C2312 C2314 1.363 . S
C2312 H2328 0.931 . S
C2313 C2312 1.370 . S
C2313 C2317 1.408 . S
C2314 C2312 1.363 . S
C2314 C2315 1.370 . S
C2314 C2318 1.524 . S
C2315 C2307 1.503 . S
C2315 C2314 1.370 . S
C2315 C2316 1.403 . S
C2316 C2315 1.403 . S
C2316 C2317 1.404 . S
C2316 C2319 1.539 . S
C2317 C2313 1.408 . S
C2317 C2316 1.404 . S
C2317 H2329 0.930 . S
C2318 C2314 1.524 . S
C2318 H2330 0.956 . S
C2318 H2331 0.961 . S
C2318 H2332 0.961 . S
C2319 C2316 1.539 . S
C2319 H2333 0.958 . S
C2319 H2334 0.961 . S
C2319 H2335 0.960 . S
H2320 C2304 0.931 . S
H2321 C2309 0.929 . S
H2322 C2310 0.960 . S
H2323 C2310 0.962 . S
H2324 C2310 0.960 . S
H2325 C2311 0.961 . S
H2326 C2311 0.961 . S
H2327 C2311 0.961 . S
H2328 C2312 0.931 . S
H2329 C2317 0.930 . S
H2330 C2318 0.956 . S
H2331 C2318 0.961 . S
H2332 C2318 0.961 . S
H2333 C2319 0.958 . S
H2334 C2319 0.961 . S
H2335 C2319 0.960 . S
C2336 C2337 1.391 . S
C2336 C2338 1.394 . S
C2336 H2352 0.931 . S
C2337 C2336 1.391 . S
C2337 C2341 1.376 . S
C2338 C2336 1.394 . S
C2338 C2339 1.369 . S
C2338 C2342 1.531 . S
C2339 C2338 1.369 . S
C2339 C2340 1.410 . S
C2339 C2347 1.503 . S
C2340 C2339 1.410 . S
C2340 C2341 1.392 . S
C2340 C2343 1.511 . S
C2341 C2337 1.376 . S
C2341 C2340 1.392 . S
C2341 H2353 0.929 . S
C2342 C2338 1.531 . S
C2342 H2354 0.960 . S
C2342 H2355 0.962 . S
C2342 H2356 0.960 . S
C2343 C2340 1.511 . S
C2343 H2357 0.961 . S
C2343 H2358 0.961 . S
C2343 H2359 0.961 . S
C2344 C2345 1.370 . S
C2344 C2346 1.363 . S
C2344 H2360 0.931 . S
C2345 C2344 1.370 . S
C2345 C2349 1.408 . S
C2346 C2344 1.363 . S
C2346 C2347 1.370 . S
C2346 C2350 1.524 . S
C2347 C2339 1.503 . S
C2347 C2346 1.370 . S
C2347 C2348 1.403 . S
C2348 C2347 1.403 . S
C2348 C2349 1.404 . S
C2348 C2351 1.539 . S
C2349 C2345 1.408 . S
C2349 C2348 1.404 . S
C2349 H2361 0.930 . S
C2350 C2346 1.524 . S
C2350 H2362 0.956 . S
C2350 H2363 0.961 . S
C2350 H2364 0.961 . S
C2351 C2348 1.539 . S
C2351 H2365 0.958 . S
C2351 H2366 0.961 . S
C2351 H2367 0.960 . S
H2352 C2336 0.931 . S
H2353 C2341 0.929 . S
H2354 C2342 0.960 . S
H2355 C2342 0.962 . S
H2356 C2342 0.960 . S
H2357 C2343 0.961 . S
H2358 C2343 0.961 . S
H2359 C2343 0.961 . S
H2360 C2344 0.931 . S
H2361 C2349 0.930 . S
H2362 C2350 0.956 . S
H2363 C2350 0.961 . S
H2364 C2350 0.961 . S
H2365 C2351 0.958 . S
H2366 C2351 0.961 . S
H2367 C2351 0.960 . S
C2368 C2369 1.391 . S
C2368 C2370 1.394 . S
C2368 H2384 0.931 . S
C2369 C2368 1.391 . S
C2369 C2373 1.376 . S
C2370 C2368 1.394 . S
C2370 C2371 1.369 . S
C2370 C2374 1.531 . S
C2371 C2370 1.369 . S
C2371 C2372 1.410 . S
C2371 C2379 1.503 . S
C2372 C2371 1.410 . S
C2372 C2373 1.392 . S
C2372 C2375 1.511 . S
C2373 C2369 1.376 . S
C2373 C2372 1.392 . S
C2373 H2385 0.929 . S
C2374 C2370 1.531 . S
C2374 H2386 0.960 . S
C2374 H2387 0.962 . S
C2374 H2388 0.960 . S
C2375 C2372 1.511 . S
C2375 H2389 0.961 . S
C2375 H2390 0.961 . S
C2375 H2391 0.961 . S
C2376 C2377 1.370 . S
C2376 C2378 1.363 . S
C2376 H2392 0.931 . S
C2377 C2376 1.370 . S
C2377 C2381 1.408 . S
C2378 C2376 1.363 . S
C2378 C2379 1.370 . S
C2378 C2382 1.524 . S
C2379 C2371 1.503 . S
C2379 C2378 1.370 . S
C2379 C2380 1.403 . S
C2380 C2379 1.403 . S
C2380 C2381 1.404 . S
C2380 C2383 1.539 . S
C2381 C2377 1.408 . S
C2381 C2380 1.404 . S
C2381 H2393 0.930 . S
C2382 C2378 1.524 . S
C2382 H2394 0.956 . S
C2382 H2395 0.961 . S
C2382 H2396 0.961 . S
C2383 C2380 1.539 . S
C2383 H2397 0.958 . S
C2383 H2398 0.961 . S
C2383 H2399 0.960 . S
H2384 C2368 0.931 . S
H2385 C2373 0.929 . S
H2386 C2374 0.960 . S
H2387 C2374 0.962 . S
H2388 C2374 0.960 . S
H2389 C2375 0.961 . S
H2390 C2375 0.961 . S
H2391 C2375 0.961 . S
H2392 C2376 0.931 . S
H2393 C2381 0.930 . S
H2394 C2382 0.956 . S
H2395 C2382 0.961 . S
H2396 C2382 0.961 . S
H2397 C2383 0.958 . S
H2398 C2383 0.961 . S
H2399 C2383 0.960 . S
C2400 C2401 1.391 . S
C2400 C2402 1.394 . S
C2400 H2416 0.931 . S
C2401 C2400 1.391 . S
C2401 C2405 1.376 . S
C2402 C2400 1.394 . S
C2402 C2403 1.369 . S
C2402 C2406 1.531 . S
C2403 C2402 1.369 . S
C2403 C2404 1.410 . S
C2403 C2411 1.503 . S
C2404 C2403 1.410 . S
C2404 C2405 1.392 . S
C2404 C2407 1.511 . S
C2405 C2401 1.376 . S
C2405 C2404 1.392 . S
C2405 H2417 0.929 . S
C2406 C2402 1.531 . S
C2406 H2418 0.960 . S
C2406 H2419 0.962 . S
C2406 H2420 0.960 . S
C2407 C2404 1.511 . S
C2407 H2421 0.961 . S
C2407 H2422 0.961 . S
C2407 H2423 0.961 . S
C2408 C2409 1.370 . S
C2408 C2410 1.363 . S
C2408 H2424 0.931 . S
C2409 C2408 1.370 . S
C2409 C2413 1.408 . S
C2410 C2408 1.363 . S
C2410 C2411 1.370 . S
C2410 C2414 1.524 . S
C2411 C2403 1.503 . S
C2411 C2410 1.370 . S
C2411 C2412 1.403 . S
C2412 C2411 1.403 . S
C2412 C2413 1.404 . S
C2412 C2415 1.539 . S
C2413 C2409 1.408 . S
C2413 C2412 1.404 . S
C2413 H2425 0.930 . S
C2414 C2410 1.524 . S
C2414 H2426 0.956 . S
C2414 H2427 0.961 . S
C2414 H2428 0.961 . S
C2415 C2412 1.539 . S
C2415 H2429 0.958 . S
C2415 H2430 0.961 . S
C2415 H2431 0.960 . S
H2416 C2400 0.931 . S
H2417 C2405 0.929 . S
H2418 C2406 0.960 . S
H2419 C2406 0.962 . S
H2420 C2406 0.960 . S
H2421 C2407 0.961 . S
H2422 C2407 0.961 . S
H2423 C2407 0.961 . S
H2424 C2408 0.931 . S
H2425 C2413 0.930 . S
H2426 C2414 0.956 . S
H2427 C2414 0.961 . S
H2428 C2414 0.961 . S
H2429 C2415 0.958 . S
H2430 C2415 0.961 . S
H2431 C2415 0.960 . S
C2432 C2433 1.391 . S
C2432 C2434 1.394 . S
C2432 H2448 0.931 . S
C2433 C2432 1.391 . S
C2433 C2437 1.376 . S
C2434 C2432 1.394 . S
C2434 C2435 1.369 . S
C2434 C2438 1.531 . S
C2435 C2434 1.369 . S
C2435 C2436 1.410 . S
C2435 C2443 1.503 . S
C2436 C2435 1.410 . S
C2436 C2437 1.392 . S
C2436 C2439 1.511 . S
C2437 C2433 1.376 . S
C2437 C2436 1.392 . S
C2437 H2449 0.929 . S
C2438 C2434 1.531 . S
C2438 H2450 0.960 . S
C2438 H2451 0.962 . S
C2438 H2452 0.960 . S
C2439 C2436 1.511 . S
C2439 H2453 0.961 1_554 S
C2439 H2454 0.961 . S
C2439 H2455 0.961 . S
C2440 C2441 1.370 . S
C2440 C2442 1.363 . S
C2440 H2456 0.931 . S
C2441 C2440 1.370 . S
C2441 C2445 1.408 . S
C2442 C2440 1.363 . S
C2442 C2443 1.370 . S
C2442 C2446 1.524 . S
C2443 C2435 1.503 . S
C2443 C2442 1.370 . S
C2443 C2444 1.403 . S
C2444 C2443 1.403 . S
C2444 C2445 1.404 . S
C2444 C2447 1.539 . S
C2445 C2441 1.408 . S
C2445 C2444 1.404 . S
C2445 H2457 0.930 . S
C2446 C2442 1.524 . S
C2446 H2458 0.956 . S
C2446 H2459 0.961 . S
C2446 H2460 0.961 . S
C2447 C2444 1.539 . S
C2447 H2461 0.958 . S
C2447 H2462 0.961 . S
C2447 H2463 0.960 . S
H2448 C2432 0.931 . S
H2449 C2437 0.929 . S
H2450 C2438 0.960 . S
H2451 C2438 0.962 . S
H2452 C2438 0.960 . S
H2453 C2439 0.961 1_556 S
H2454 C2439 0.961 . S
H2455 C2439 0.961 . S
H2456 C2440 0.931 . S
H2457 C2445 0.930 . S
H2458 C2446 0.956 . S
H2459 C2446 0.961 . S
H2460 C2446 0.961 . S
H2461 C2447 0.958 . S
H2462 C2447 0.961 . S
H2463 C2447 0.960 . S
C2464 C2465 1.391 . S
C2464 C2466 1.394 . S
C2464 H2480 0.931 . S
C2465 C2464 1.391 . S
C2465 C2469 1.376 . S
C2466 C2464 1.394 . S
C2466 C2467 1.369 . S
C2466 C2470 1.531 . S
C2467 C2466 1.369 . S
C2467 C2468 1.410 . S
C2467 C2475 1.503 . S
C2468 C2467 1.410 . S
C2468 C2469 1.392 . S
C2468 C2471 1.511 . S
C2469 C2465 1.376 . S
C2469 C2468 1.392 . S
C2469 H2481 0.929 . S
C2470 C2466 1.531 . S
C2470 H2482 0.960 . S
C2470 H2483 0.962 . S
C2470 H2484 0.960 . S
C2471 C2468 1.511 . S
C2471 H2485 0.961 . S
C2471 H2486 0.961 . S
C2471 H2487 0.961 . S
C2472 C2473 1.370 . S
C2472 C2474 1.363 . S
C2472 H2488 0.931 . S
C2473 C2472 1.370 . S
C2473 C2477 1.408 . S
C2474 C2472 1.363 . S
C2474 C2475 1.370 . S
C2474 C2478 1.524 . S
C2475 C2467 1.503 . S
C2475 C2474 1.370 . S
C2475 C2476 1.403 . S
C2476 C2475 1.403 . S
C2476 C2477 1.404 . S
C2476 C2479 1.539 . S
C2477 C2473 1.408 . S
C2477 C2476 1.404 . S
C2477 H2489 0.930 . S
C2478 C2474 1.524 . S
C2478 H2490 0.956 . S
C2478 H2491 0.961 . S
C2478 H2492 0.961 . S
C2479 C2476 1.539 . S
C2479 H2493 0.958 . S
C2479 H2494 0.961 . S
C2479 H2495 0.960 . S
H2480 C2464 0.931 . S
H2481 C2469 0.929 . S
H2482 C2470 0.960 . S
H2483 C2470 0.962 . S
H2484 C2470 0.960 . S
H2485 C2471 0.961 . S
H2486 C2471 0.961 . S
H2487 C2471 0.961 . S
H2488 C2472 0.931 . S
H2489 C2477 0.930 . S
H2490 C2478 0.956 . S
H2491 C2478 0.961 . S
H2492 C2478 0.961 . S
H2493 C2479 0.958 . S
H2494 C2479 0.961 . S
H2495 C2479 0.960 . S
C449 C93 1.487 . S
C457 C9 1.468 . S
C481 C23 1.465 . S
C489 C107 1.460 . S
C513 C65 1.487 . S
C521 C37 1.476 . S
C545 C51 1.461 . S
C553 C79 1.478 . S
C577 C205 1.488 . S
C585 C121 1.477 . S
C609 C219 1.484 . S
C617 C135 1.469 . S
C641 C149 1.442 . S
C649 C177 1.465 . S
C673 C163 1.456 . S
C681 C191 1.474 . S
C705 C233 1.442 . S
C713 C317 1.465 . S
C737 C247 1.487 . S
C745 C331 1.476 . S
C769 C289 1.443 . S
C777 C261 1.464 . S
C801 C303 1.459 . S
C809 C275 1.478 . S
C833 C345 1.452 . S
C841 C429 1.459 . S
C865 C443 1.489 . S
C873 C359 1.473 . S
C897 C401 1.442 . S
C905 C373 1.465 . S
C929 C387 1.444 . S
C937 C415 1.468 . S
C961 C3 1.245 . S
C969 C427 1.243 . S
C993 C217 1.207 . S
C1001 C17 1.227 . S
C1025 C31 1.246 . S
C1033 C399 1.243 . S
C1057 C45 1.212 . S
C1065 C189 1.224 . S
C1089 C371 1.230 . S
C1097 C59 1.241 . S
C1121 C161 1.249 . S
C1129 C73 1.244 . S
C1153 C87 1.249 . S
C1161 C343 1.243 . S
C1185 C133 1.207 . S
C1193 C101 1.227 . S
C1217 C115 1.228 . S
C1225 C315 1.236 . S
C1249 C105 1.252 . S
C1257 C129 1.243 . S
C1281 C143 1.240 . S
C1289 C287 1.241 . S
C1313 C157 1.211 . S
C1321 C77 1.224 . S
C1345 C259 1.244 . S
C1353 C171 1.243 . S
C1377 C185 1.211 . S
C1385 C49 1.224 . S
C1409 C199 1.212 . S
C1417 C231 1.228 . S
C1441 C21 1.244 . S
C1449 C213 1.236 . S
C1473 C227 1.250 . S
C1481 C203 1.243 . S
C1505 C241 1.215 . S
C1513 C441 1.233 . S
C1537 C175 1.239 . S
C1545 C255 1.230 . S
C1569 C269 1.221 . S
C1577 C413 1.224 . S
C1601 C147 1.228 . S
C1609 C283 1.240 . S
C1633 C385 1.207 . S
C1641 C297 1.228 . S
C1665 C119 1.234 . S
C1673 C311 1.229 . S
C1697 C357 1.250 . S
C1705 C325 1.243 . S
C1729 C339 1.217 . S
C1737 C91 1.231 . S
C1761 C329 1.241 . S
C1769 C353 1.242 . S
C1793 C63 1.218 . S
C1801 C367 1.226 . S
C1825 C381 1.253 . S
C1833 C301 1.242 . S
C1857 C395 1.229 . S
C1865 C35 1.237 . S
C1889 C409 1.252 . S
C1897 C273 1.239 . S
C1921 C7 1.229 . S
C1929 C423 1.238 . S
C1953 C437 1.212 . S
C1961 C245 1.224 . S
C1985 C8 1.419 . S
C1993 C302 1.415 . S
C2017 C316 1.409 . S
C2025 C22 1.422 . S
C2049 C36 1.419 . S
C2057 C330 1.415 . S
C2081 C288 1.421 . S
C2089 C50 1.416 . S
C2113 C274 1.406 . S
C2121 C64 1.419 . S
C2145 C232 1.412 . S
C2153 C78 1.422 . S
C2177 C246 1.408 . S
C2185 C92 1.422 . S
C2209 C260 1.420 . S
C2217 C106 1.421 . S
C2241 C120 1.407 . S
C2249 C414 1.419 . S
C2273 C428 1.424 . S
C2281 C134 1.416 . S
C2305 C442 1.407 . S
C2313 C148 1.422 . S
C2337 C400 1.421 . S
C2345 C162 1.415 . S
C2369 C386 1.414 . S
C2377 C176 1.415 . S
C2401 C344 1.411 . S
C2409 C190 1.417 . S
C2433 C204 1.420 . S
C2441 C358 1.421 . S
C2465 C218 1.406 . S
C2473 C372 1.420 . S
