# Generated by pormake.
# Topology dia, (4)-cn, num edge types: 1
# Building blocks:
#     Node 0, Type 0, BuildingBlock: AZAVOO_clean_sbu_0, # of connection points: 4
#     Node 1, Type 0, BuildingBlock: AZAVOO_clean_sbu_0, # of connection points: 4
#     Node 2, Type 0, BuildingBlock: AZAVOO_clean_sbu_0, # of connection points: 4
#     Node 3, Type 0, BuildingBlock: AZAVOO_clean_sbu_0, # of connection points: 4
#     Node 4, Type 0, BuildingBlock: AZAVOO_clean_sbu_0, # of connection points: 4
#     Node 5, Type 0, BuildingBlock: AZAVOO_clean_sbu_0, # of connection points: 4
#     Node 6, Type 0, BuildingBlock: AZAVOO_clean_sbu_0, # of connection points: 4
#     Node 7, Type 0, BuildingBlock: AZAVOO_clean_sbu_0, # of connection points: 4
#     Edge 8, Type (0, 0), BuildingBlock: KIFKEQ_clean_linker_1, # of connection points: 2
#     Edge 9, Type (0, 0), BuildingBlock: KIFKEQ_clean_linker_1, # of connection points: 2
#     Edge 10, Type (0, 0), BuildingBlock: KIFKEQ_clean_linker_1, # of connection points: 2
#     Edge 11, Type (0, 0), BuildingBlock: KIFKEQ_clean_linker_1, # of connection points: 2
#     Edge 12, Type (0, 0), BuildingBlock: KIFKEQ_clean_linker_1, # of connection points: 2
#     Edge 13, Type (0, 0), BuildingBlock: KIFKEQ_clean_linker_1, # of connection points: 2
#     Edge 14, Type (0, 0), BuildingBlock: KIFKEQ_clean_linker_1, # of connection points: 2
#     Edge 15, Type (0, 0), BuildingBlock: KIFKEQ_clean_linker_1, # of connection points: 2
#     Edge 16, Type (0, 0), BuildingBlock: KIFKEQ_clean_linker_1, # of connection points: 2
#     Edge 17, Type (0, 0), BuildingBlock: KIFKEQ_clean_linker_1, # of connection points: 2
#     Edge 18, Type (0, 0), BuildingBlock: KIFKEQ_clean_linker_1, # of connection points: 2
#     Edge 19, Type (0, 0), BuildingBlock: KIFKEQ_clean_linker_1, # of connection points: 2
#     Edge 20, Type (0, 0), BuildingBlock: KIFKEQ_clean_linker_1, # of connection points: 2
#     Edge 21, Type (0, 0), BuildingBlock: KIFKEQ_clean_linker_1, # of connection points: 2
#     Edge 22, Type (0, 0), BuildingBlock: KIFKEQ_clean_linker_1, # of connection points: 2
#     Edge 23, Type (0, 0), BuildingBlock: KIFKEQ_clean_linker_1, # of connection points: 2
# Relax obj value: 0.001
# Max RMSD: 0.026
# Mean RMSD: 0.026
data_MOF--net-dia--node1-AZAVOO_clean_sbu_0--edge1-KIFKEQ_clean_linker_1
_symmetry_space_group_name_H-M    P1
_symmetry_Int_Tables_number       1
_symmetry_cell_setting            triclinic
loop_
_symmetry_equiv_pos_as_xyz
'x, y, z'
_cell_length_a     36.1885
_cell_length_b     35.320196
_cell_length_c     36.189064
_cell_angle_alpha  95.731869
_cell_angle_beta   98.015862
_cell_angle_gamma 95.396517
loop_
_atom_site_label
_atom_site_type_symbol
_atom_site_fract_x
_atom_site_fract_y
_atom_site_fract_z
_atom_type_partial_charge
Mg0 Mg 0.13845 0.17916 0.63689 0.0
O1 O 0.09273 0.13783 0.5979 0.0
O2 O 0.04966 0.17322 0.57319 0.0
Mg3 Mg 0.06662 0.236 0.5963 0.0
C4 C 0.06209 0.14089 0.57659 0.0
C5 C 0.20014 0.1361 0.67281 0.0
O6 O 0.20124 0.1675 0.6959 0.0
O7 O 0.16185 0.20017 0.58638 0.0
O8 O 0.11821 0.23714 0.56577 0.0
O9 O 0.10741 0.17474 0.68542 0.0
O10 O 0.09961 0.21803 0.64587 0.0
C11 C 0.1495 0.2235 0.56404 0.0
C12 C 0.09019 0.20318 0.67472 0.0
O13 O 0.17715 0.13185 0.64233 0.0
Mg14 Mg 0.83821 0.36391 0.84455 0.0
O15 O 0.87807 0.40223 0.89158 0.0
O16 O 0.90215 0.36451 0.93258 0.0
Mg17 Mg 0.87662 0.30255 0.91324 0.0
C18 C 0.8995 0.39754 0.9216 0.0
C19 C 0.80444 0.40978 0.78409 0.0
O20 O 0.78179 0.37783 0.78018 0.0
O21 O 0.88843 0.34249 0.81981 0.0
O22 O 0.90562 0.30159 0.8609 0.0
O23 O 0.7899 0.36757 0.87699 0.0
O24 O 0.82856 0.32302 0.88069 0.0
C25 C 0.90855 0.31655 0.83056 0.0
C26 C 0.80017 0.33753 0.89164 0.0
O27 O 0.83377 0.41349 0.80861 0.0
Mg28 Mg 0.63294 0.16773 0.13737 0.0
O29 O 0.58536 0.12777 0.09933 0.0
O30 O 0.54331 0.16479 0.07569 0.0
Mg31 Mg 0.56297 0.22734 0.09796 0.0
C32 C 0.55457 0.1319 0.07879 0.0
C33 C 0.69541 0.1247 0.17143 0.0
O34 O 0.6993 0.15784 0.19238 0.0
O35 O 0.65621 0.18721 0.08595 0.0
O36 O 0.61338 0.22541 0.0661 0.0
O37 O 0.60188 0.16597 0.18661 0.0
O38 O 0.59677 0.2089 0.14646 0.0
C39 C 0.64397 0.21061 0.06359 0.0
C40 C 0.5867 0.1955 0.17567 0.0
O41 O 0.66988 0.11888 0.14287 0.0
Mg42 Mg 0.84169 0.86953 0.3573 0.0
O43 O 0.88398 0.90935 0.40109 0.0
O44 O 0.90831 0.87341 0.44375 0.0
Mg45 Mg 0.88068 0.81158 0.42887 0.0
C46 C 0.9062 0.90568 0.43093 0.0
C47 C 0.80691 0.91065 0.29395 0.0
O48 O 0.78391 0.87948 0.29363 0.0
O49 O 0.88973 0.84412 0.33204 0.0
O50 O 0.90743 0.8054 0.37511 0.0
O51 O 0.79513 0.87769 0.3913 0.0
O52 O 0.83246 0.83209 0.39661 0.0
C53 C 0.90941 0.81816 0.34353 0.0
C54 C 0.80506 0.84844 0.40759 0.0
O55 O 0.83702 0.91581 0.31749 0.0
Mg56 Mg 0.12388 0.66941 0.13943 0.0
O57 O 0.07893 0.62764 0.09987 0.0
O58 O 0.03498 0.66267 0.07622 0.0
Mg59 Mg 0.05013 0.72524 0.10095 0.0
C60 C 0.04813 0.63056 0.07873 0.0
C61 C 0.18874 0.62927 0.17322 0.0
O62 O 0.18903 0.66043 0.19641 0.0
O63 O 0.14606 0.69281 0.08936 0.0
O64 O 0.10156 0.72948 0.07026 0.0
O65 O 0.09359 0.66296 0.1884 0.0
O66 O 0.08405 0.70658 0.14952 0.0
C67 C 0.13316 0.71672 0.06797 0.0
C68 C 0.07557 0.69115 0.1784 0.0
O69 O 0.1647 0.62383 0.14347 0.0
Mg70 Mg 0.34694 0.37386 0.34614 0.0
O71 O 0.3864 0.41354 0.39287 0.0
O72 O 0.40981 0.37672 0.43514 0.0
Mg73 Mg 0.38594 0.31444 0.41629 0.0
C74 C 0.40722 0.40946 0.4235 0.0
C75 C 0.31379 0.41599 0.28272 0.0
O76 O 0.29301 0.38284 0.27874 0.0
O77 O 0.39718 0.35222 0.32212 0.0
O78 O 0.41695 0.31429 0.36513 0.0
O79 O 0.2986 0.37817 0.37809 0.0
O80 O 0.33749 0.33383 0.3831 0.0
C81 C 0.41918 0.3284 0.33423 0.0
C82 C 0.30899 0.34861 0.39355 0.0
O83 O 0.342 0.42209 0.30863 0.0
Mg84 Mg 0.33171 0.86915 0.85177 0.0
O85 O 0.37252 0.90704 0.89834 0.0
O86 O 0.39511 0.86922 0.93999 0.0
Mg87 Mg 0.36738 0.80781 0.92172 0.0
C88 C 0.39367 0.90215 0.92846 0.0
C89 C 0.30143 0.91387 0.78868 0.0
O90 O 0.27818 0.88232 0.78455 0.0
O91 O 0.38112 0.84504 0.8278 0.0
O92 O 0.39664 0.80422 0.86953 0.0
O93 O 0.2833 0.8753 0.88394 0.0
O94 O 0.32053 0.82956 0.88851 0.0
C95 C 0.40019 0.81851 0.83896 0.0
C96 C 0.29252 0.84514 0.89902 0.0
O97 O 0.32962 0.91778 0.81456 0.0
Mg98 Mg 0.62932 0.67762 0.64709 0.0
O99 O 0.58481 0.63767 0.60528 0.0
O100 O 0.54247 0.6739 0.58071 0.0
Mg101 Mg 0.55861 0.73594 0.60679 0.0
C102 C 0.55487 0.64144 0.58322 0.0
C103 C 0.69116 0.63354 0.68204 0.0
O104 O 0.69195 0.66396 0.70634 0.0
O105 O 0.65463 0.70138 0.59876 0.0
O106 O 0.61152 0.73901 0.57838 0.0
O107 O 0.59626 0.67088 0.69402 0.0
O108 O 0.59 0.71582 0.6561 0.0
C109 C 0.64303 0.72571 0.57719 0.0
C110 C 0.57946 0.69979 0.68386 0.0
O111 O 0.66823 0.63032 0.65157 0.0
H112 H 0.3182 0.28091 0.42188 0.0
H113 H 0.25233 0.37667 0.4269 0.0
H114 H 0.28009 0.24898 0.46226 0.0
H115 H 0.21479 0.34519 0.46833 0.0
H116 H 0.12812 0.26149 0.50397 0.0
H117 H 0.16797 0.29165 0.46403 0.0
H118 H 0.26489 0.25049 0.52468 0.0
H119 H 0.22473 0.21925 0.56404 0.0
C120 C 0.29599 0.29548 0.43216 0.0
C121 C 0.28823 0.33132 0.42116 0.0
C122 C 0.27415 0.27715 0.4554 0.0
C123 C 0.24417 0.29434 0.46832 0.0
C124 C 0.23718 0.33077 0.45823 0.0
C125 C 0.25889 0.349 0.43477 0.0
C126 C 0.15789 0.25855 0.5086 0.0
C127 C 0.17326 0.23806 0.5373 0.0
C128 C 0.18081 0.27619 0.48591 0.0
C129 C 0.21973 0.27404 0.49152 0.0
C130 C 0.23499 0.25254 0.51946 0.0
C131 C 0.21196 0.23461 0.54202 0.0
H132 H 0.73938 0.63119 0.74657 0.0
H133 H 0.69391 0.56459 0.64057 0.0
H134 H 0.77096 0.57744 0.76671 0.0
H135 H 0.72655 0.51086 0.66038 0.0
H136 H 0.84154 0.48204 0.7886 0.0
H137 H 0.8193 0.53665 0.75912 0.0
H138 H 0.71928 0.46529 0.70429 0.0
H139 H 0.7419 0.41079 0.73273 0.0
C140 C 0.73661 0.60526 0.72725 0.0
C141 C 0.71377 0.60211 0.69208 0.0
C142 C 0.75503 0.57443 0.73874 0.0
C143 C 0.75123 0.53963 0.71529 0.0
C144 C 0.72964 0.53702 0.67942 0.0
C145 C 0.71109 0.5679 0.66795 0.0
C146 C 0.81509 0.47793 0.7698 0.0
C147 C 0.79339 0.4421 0.76329 0.0
C148 C 0.8022 0.50929 0.75307 0.0
C149 C 0.76731 0.50554 0.72951 0.0
C150 C 0.74645 0.46926 0.72185 0.0
C151 C 0.75935 0.43797 0.73846 0.0
H152 H 0.57115 0.05737 0.0713 0.0
H153 H 0.48461 0.12886 0.03792 0.0
H154 H 0.53288 1.00194 0.03485 0.0
H155 H 0.44614 0.07348 0.00247 0.0
H156 H 0.40358 0.97565 0.91046 0.0
H157 H 0.44296 0.03028 0.94662 0.0
H158 H 0.47648 0.95955 0.03348 0.0
H159 H 0.43788 0.90463 -0.00312 0.0
C160 C 0.5439 0.06127 0.05643 0.0
C161 C 0.53111 0.0977 0.05751 0.0
C162 C 0.52185 0.02941 0.03565 0.0
C163 C 0.48641 0.03317 0.01555 0.0
C164 C 0.47353 0.06955 0.01699 0.0
C165 C 0.49558 0.10136 0.03759 0.0
C166 C 0.41932 0.97168 0.93727 0.0
C167 C 0.41745 0.93564 0.95069 0.0
C168 C 0.44181 1.00312 0.95814 0.0
C169 C 0.4629 0.99945 -0.00691 0.0
C170 C 0.46107 0.96338 0.00648 0.0
C171 C 0.43868 0.93189 0.98555 0.0
H172 H 0.93154 0.74703 0.3448 0.0
H173 H 0.94048 0.84715 0.28577 0.0
H174 H 0.96854 0.71469 0.30335 0.0
H175 H 0.97968 0.81546 0.24521 0.0
H176 H 0.02136 0.73712 0.15709 0.0
H177 H 0.9801 0.76704 0.19596 0.0
H178 H 0.02912 0.71285 0.29029 0.0
H179 H 0.06869 0.68137 0.25071 0.0
C180 C 0.94199 0.76241 0.32327 0.0
C181 C 0.93332 0.79978 0.31872 0.0
C182 C 0.96343 0.74386 0.29951 0.0
C183 C 0.97749 0.76242 0.27097 0.0
C184 C 0.96889 0.79997 0.26647 0.0
C185 C 0.94671 0.81832 0.28989 0.0
C186 C 0.02294 0.73122 0.18596 0.0
C187 C 0.04816 0.70673 0.20076 0.0
C188 C -0.00046 0.74874 0.20845 0.0
C189 C 0.00131 0.7427 0.24646 0.0
C190 C 0.02633 0.71775 0.26103 0.0
C191 C 0.04918 0.6997 0.23834 0.0
H192 H 0.34141 0.98442 0.79127 0.0
H193 H 0.24071 0.91509 0.73514 0.0
H194 H 0.32273 0.03825 0.75828 0.0
H195 H 0.22155 0.9689 0.70323 0.0
H196 H 0.20183 0.0653 0.63436 0.0
H197 H 0.23203 1.01149 0.65757 0.0
H198 H 0.27635 0.08173 0.76192 0.0
H199 H 0.24731 0.13552 0.73837 0.0
C200 C 0.31546 0.98056 0.7717 0.0
C201 C 0.29243 0.94553 0.76611 0.0
C202 C 0.30462 1.01148 0.75293 0.0
C203 C 0.27046 1.0081 0.72823 0.0
C204 C 0.24826 0.97254 0.72159 0.0
C205 C 0.25914 0.94166 0.7402 0.0
C206 C 0.21853 0.06938 0.66201 0.0
C207 C 0.22184 0.10463 0.68462 0.0
C208 C 0.23566 0.03846 0.67543 0.0
C209 C 0.25638 0.04206 0.7118 0.0
C210 C 0.26103 0.07789 0.73364 0.0
C211 C 0.24407 0.10876 0.72019 0.0
H212 H 0.90661 0.4717 0.90498 0.0
H213 H 0.94357 0.40029 0.99013 0.0
H214 H 0.9434 0.52714 0.94249 0.0
H215 H 0.97955 0.45597 0.02808 0.0
H216 H 0.06905 0.55771 0.06979 0.0
H217 H 0.03411 0.50147 0.03142 0.0
H218 H 0.94356 0.56851 -0.00105 0.0
H219 H 0.97869 0.62471 0.0363 0.0
C220 C 0.92241 0.4678 0.93177 0.0
C221 C 0.92199 0.43143 0.94448 0.0
C222 C 0.9434 0.4997 0.95343 0.0
C223 C 0.96441 0.49615 0.98846 0.0
C224 C 0.96415 0.45974 0.00106 0.0
C225 C 0.94326 0.4278 0.97934 0.0
C226 C 0.04168 0.56044 0.05447 0.0
C227 C 0.02682 0.59587 0.05612 0.0
C228 C 0.02154 0.52812 0.03258 0.0
C229 C 0.986 0.5304 0.01191 0.0
C230 C 0.9711 0.56577 0.01387 0.0
C231 C -0.00877 0.59804 0.03557 0.0
H232 H 0.47989 0.29153 0.35625 0.0
H233 H 0.41872 0.33089 0.25869 0.0
H234 H 0.51939 0.2598 0.31669 0.0
H235 H 0.4577 0.29809 0.2188 0.0
H236 H 0.55916 0.2634 0.1649 0.0
H237 H 0.51982 0.29772 0.20276 0.0
H238 H 0.51381 0.20452 0.27132 0.0
H239 H 0.55417 0.17062 0.23397 0.0
C240 C 0.47496 0.29354 0.32633 0.0
C241 C 0.44602 0.31358 0.31059 0.0
C242 C 0.4974 0.27501 0.30359 0.0
C243 C 0.49129 0.27577 0.26449 0.0
C244 C 0.46327 0.29705 0.24885 0.0
C245 C 0.44094 0.3159 0.2717 0.0
C246 C 0.54911 0.25 0.18778 0.0
C247 C 0.55979 0.21427 0.19648 0.0
C248 C 0.52648 0.2697 0.20947 0.0
C249 C 0.51389 0.25407 0.24028 0.0
C250 C 0.52368 0.21777 0.24826 0.0
C251 C 0.54652 0.19815 0.22668 0.0
H252 H 0.74983 0.87911 0.44149 0.0
H253 H 0.81367 0.78173 0.43786 0.0
H254 H 0.71218 0.84947 0.48401 0.0
H255 H 0.77551 0.7517 0.4792 0.0
H256 H 0.71855 0.72188 0.57906 0.0
H257 H 0.7599 0.75381 0.54124 0.0
H258 H 0.66445 0.79689 0.47998 0.0
H259 H 0.62344 0.76607 0.51844 0.0
C260 C 0.75599 0.85154 0.44997 0.0
C261 C 0.7847 0.8328 0.43633 0.0
C262 C 0.73423 0.83437 0.47406 0.0
C263 C 0.74055 0.79798 0.48472 0.0
C264 C 0.7701 0.77988 0.47195 0.0
C265 C 0.79197 0.79714 0.44813 0.0
C266 C 0.70638 0.73789 0.5573 0.0
C267 C 0.66772 0.7415 0.55184 0.0
C268 C 0.73009 0.75624 0.53562 0.0
C269 C 0.71557 0.7783 0.50783 0.0
C270 C 0.67674 0.78096 0.50176 0.0
C271 C 0.65315 0.76292 0.52357 0.0
H272 H 0.23813 0.63094 0.23765 0.0
H273 H 0.19476 0.56023 0.13339 0.0
H274 H 0.27286 0.57983 0.25922 0.0
H275 H 0.23073 0.5092 0.15455 0.0
H276 H 0.25171 0.41247 0.22982 0.0
H277 H 0.22652 0.46457 0.19924 0.0
H278 H 0.32295 0.54162 0.25358 0.0
H279 H 0.34764 0.48941 0.28535 0.0
C280 C 0.23652 0.60469 0.21898 0.0
C281 C 0.21329 0.59956 0.18393 0.0
C282 C 0.25678 0.57538 0.23129 0.0
C283 C 0.25455 0.54017 0.20878 0.0
C284 C 0.23263 0.53567 0.17293 0.0
C285 C 0.21216 0.56501 0.16068 0.0
C286 C 0.26784 0.4404 0.23498 0.0
C287 C 0.30151 0.44683 0.26043 0.0
C288 C 0.25347 0.47033 0.21713 0.0
C289 C 0.27249 0.50751 0.22406 0.0
C290 C 0.30718 0.51352 0.24809 0.0
C291 C 0.32148 0.48354 0.26615 0.0
H292 H 0.81021 0.26947 0.91891 0.0
H293 H 0.74315 0.3642 0.92549 0.0
H294 H 0.77293 0.23652 0.95932 0.0
H295 H 0.70631 0.33157 0.96682 0.0
H296 H 0.6213 0.24662 0.00261 0.0
H297 H 0.66027 0.27688 0.962 0.0
H298 H 0.75843 0.23765 0.02237 0.0
H299 H 0.71913 0.20639 0.06257 0.0
C300 C 0.7879 0.28359 0.92952 0.0
C301 C 0.77963 0.3195 0.91902 0.0
C302 C 0.76654 0.26466 0.95275 0.0
C303 C 0.73645 0.28122 0.96609 0.0
C304 C 0.72884 0.31765 0.95641 0.0
C305 C 0.75013 0.33653 0.933 0.0
C306 C 0.65115 0.24407 0.00702 0.0
C307 C 0.66715 0.22426 0.03598 0.0
C308 C 0.67355 0.26177 0.98394 0.0
C309 C 0.71257 0.26034 0.98937 0.0
C310 C 0.72844 0.23921 0.01735 0.0
C311 C 0.70592 0.22123 0.04037 0.0
H312 H 0.84595 0.98002 0.28855 0.0
H313 H 0.74201 0.90917 0.24529 0.0
H314 H 0.82398 0.03127 0.25345 0.0
H315 H 0.71967 0.96047 0.21141 0.0
H316 H 0.74799 0.1279 0.23373 0.0
H317 H 0.77881 0.07571 0.2585 0.0
H318 H 0.72482 0.99892 0.16152 0.0
H319 H 0.69285 0.05123 0.13722 0.0
C320 C 0.81856 0.97526 0.27136 0.0
C321 C 0.79564 0.94059 0.26999 0.0
C322 C 0.80585 1.00472 0.2514 0.0
C323 C 0.76988 1.00022 0.22974 0.0
C324 C 0.74767 0.96493 0.22731 0.0
C325 C 0.76043 0.93551 0.24707 0.0
C326 C 0.74294 0.10001 0.2174 0.0
C327 C 0.71758 0.09369 0.18365 0.0
C328 C 0.76092 0.07003 0.23153 0.0
C329 C 0.75422 0.03291 0.2122 0.0
C330 C 0.73017 0.02698 0.17751 0.0
C331 C 0.712 0.05701 0.16343 0.0
H332 H 0.91504 0.97815 0.40998 0.0
H333 H 0.95166 0.91087 0.49889 0.0
H334 H 0.95384 0.03421 0.44427 0.0
H335 H -0.0104 0.96716 0.53358 0.0
H336 H 0.08126 0.06727 0.57015 0.0
H337 H 0.04488 1.01056 0.53405 0.0
H338 H 0.95612 0.07879 0.49893 0.0
H339 H -0.00726 0.13545 0.534 0.0
C340 C 0.93122 0.97529 0.4369 0.0
C341 C 0.93009 0.9399 0.45162 0.0
C342 C 0.95337 1.00755 0.45669 0.0
C343 C 0.97483 1.00534 0.49183 0.0
C344 C 0.97389 0.96988 0.50641 0.0
C345 C 0.95188 0.93758 0.48655 0.0
C346 C 0.054 0.07018 0.55469 0.0
C347 C 0.04004 0.10604 0.55501 0.0
C348 C 0.03303 0.03759 0.53411 0.0
C349 C -0.00248 0.04001 0.51345 0.0
C350 C 0.98359 0.07587 0.51391 0.0
C351 C 0.00457 0.10842 0.53431 0.0
H352 H 0.94452 0.35168 0.77886 0.0
H353 H 0.92996 0.24516 0.82697 0.0
H354 H 0.98817 0.32441 0.74038 0.0
H355 H 0.97137 0.21735 0.78749 0.0
H356 H 0.0774 0.18981 0.74467 0.0
H357 H 0.03427 0.2187 0.78167 0.0
H358 H -0.00541 0.28013 0.689 0.0
H359 H 0.03952 0.2528 0.65286 0.0
C360 C 0.95043 0.3224 0.78095 0.0
C361 C 0.93432 0.30077 0.80629 0.0
C362 C 0.9752 0.30662 0.75875 0.0
C363 C 0.98369 0.26868 0.76102 0.0
C364 C 0.96654 0.24694 0.78569 0.0
C365 C 0.94256 0.26288 0.80827 0.0
C366 C 0.0593 0.20929 0.73209 0.0
C367 C 0.06172 0.21877 0.69571 0.0
C368 C 0.03436 0.2258 0.75326 0.0
C369 C 0.01061 0.25167 0.73833 0.0
C370 C 0.01277 0.26081 0.70169 0.0
C371 C 0.03828 0.24477 0.68074 0.0
H372 H 0.56547 0.68558 0.75332 0.0
H373 H 0.52889 0.74922 0.66161 0.0
H374 H 0.52257 0.71515 0.79023 0.0
H375 H 0.4843 0.77721 0.69755 0.0
H376 H 0.43706 0.85154 0.78683 0.0
H377 H 0.47964 0.82222 0.74851 0.0
H378 H 0.4601 0.7164 0.79708 0.0
H379 H 0.41971 0.7463 0.83648 0.0
C380 C 0.54766 0.7053 0.74072 0.0
C381 C 0.55054 0.71494 0.70447 0.0
C382 C 0.52287 0.72222 0.76184 0.0
C383 C 0.49977 0.74868 0.74696 0.0
C384 C 0.50209 0.75758 0.71028 0.0
C385 C 0.52742 0.74115 0.68942 0.0
C386 C 0.44213 0.82209 0.78928 0.0
C387 C 0.4255 0.8014 0.81496 0.0
C388 C 0.46628 0.80512 0.76716 0.0
C389 C 0.47362 0.76689 0.76979 0.0
C390 C 0.45609 0.74613 0.79492 0.0
C391 C 0.4327 0.76327 0.81745 0.0
H392 H 0.20823 0.71298 0.06687 0.0
H393 H 0.11141 0.75802 0.01039 0.0
H394 H 0.24794 0.74573 0.02823 0.0
H395 H 0.15087 0.78972 0.97099 0.0
H396 H 0.23634 0.874 0.93301 0.0
H397 H 0.1985 0.8425 0.97439 0.0
H398 H 0.26159 0.74477 0.96579 0.0
H399 H 0.29983 0.77655 0.92568 0.0
C400 C 0.1953 0.72932 0.04579 0.0
C401 C 0.15666 0.73292 0.04179 0.0
C402 C 0.21808 0.74813 0.02361 0.0
C403 C 0.20267 0.77067 -0.00331 0.0
C404 C 0.16383 0.77336 0.99202 0.0
C405 C 0.14113 0.75482 0.01437 0.0
C406 C 0.24232 0.84599 0.94037 0.0
C407 C 0.27118 0.82789 0.92625 0.0
C408 C 0.22047 0.82777 0.96379 0.0
C409 C 0.22688 0.79097 0.97328 0.0
C410 C 0.2562 0.77329 0.95957 0.0
C411 C 0.27812 0.79156 0.93646 0.0
H412 H 0.41532 0.48344 0.40605 0.0
H413 H 0.44908 0.41294 0.4931 0.0
H414 H 0.45186 0.53905 0.44381 0.0
H415 H 0.48465 0.46859 0.53114 0.0
H416 H 0.57469 0.56823 0.57455 0.0
H417 H 0.53993 0.51266 0.53515 0.0
H418 H 0.45182 0.58152 0.49968 0.0
H419 H 0.48692 0.63718 0.53815 0.0
C420 C 0.43034 0.47978 0.43328 0.0
C421 C 0.42918 0.44361 0.44644 0.0
C422 C 0.45118 0.51175 0.45506 0.0
C423 C 0.47127 0.5084 0.49061 0.0
C424 C 0.47008 0.47221 0.5037 0.0
C425 C 0.4494 0.44026 0.4819 0.0
C426 C 0.54792 0.57154 0.55834 0.0
C427 C 0.5337 0.60728 0.55959 0.0
C428 C 0.52786 0.53959 0.53585 0.0
C429 C 0.493 0.54251 0.51415 0.0
C430 C 0.47881 0.57826 0.51548 0.0
C431 C 0.4989 0.6102 0.53781 0.0
loop_
_geom_bond_atom_site_label_1
_geom_bond_atom_site_label_2
_geom_bond_distance
_geom_bond_site_symmetry_2
_ccdc_geom_bond_type
Mg0 O1 2.028 . S
Mg0 O7 1.986 . S
Mg0 O9 2.114 . S
Mg0 O10 2.251 . S
Mg0 O13 2.010 . S
O1 Mg0 2.028 . S
O1 C4 1.250 . S
O2 Mg3 2.028 . S
O2 C4 1.248 . S
Mg3 O2 2.028 . S
Mg3 O8 2.032 . S
Mg3 O10 2.079 . S
C4 O1 1.250 . S
C4 O2 1.248 . S
C5 O6 1.264 . S
C5 O13 1.249 . S
O6 C5 1.264 . S
O7 Mg0 1.986 . S
O7 C11 1.246 . S
O8 Mg3 2.032 . S
O8 C11 1.259 . S
O9 Mg0 2.114 . S
O9 C12 1.252 . S
O10 Mg0 2.251 . S
O10 Mg3 2.079 . S
O10 C12 1.273 . S
C11 O7 1.246 . S
C11 O8 1.259 . S
C12 O9 1.252 . S
C12 O10 1.273 . S
O13 Mg0 2.010 . S
O13 C5 1.249 . S
Mg14 O15 2.028 . S
Mg14 O21 1.986 . S
Mg14 O23 2.114 . S
Mg14 O24 2.251 . S
Mg14 O27 2.010 . S
O15 Mg14 2.028 . S
O15 C18 1.250 . S
O16 Mg17 2.028 . S
O16 C18 1.248 . S
Mg17 O16 2.028 . S
Mg17 O22 2.032 . S
Mg17 O24 2.079 . S
C18 O15 1.250 . S
C18 O16 1.248 . S
C19 O20 1.264 . S
C19 O27 1.249 . S
O20 C19 1.264 . S
O21 Mg14 1.986 . S
O21 C25 1.246 . S
O22 Mg17 2.032 . S
O22 C25 1.259 . S
O23 Mg14 2.114 . S
O23 C26 1.252 . S
O24 Mg14 2.251 . S
O24 Mg17 2.079 . S
O24 C26 1.273 . S
C25 O21 1.246 . S
C25 O22 1.259 . S
C26 O23 1.252 . S
C26 O24 1.273 . S
O27 Mg14 2.010 . S
O27 C19 1.249 . S
Mg28 O29 2.028 . S
Mg28 O35 1.986 . S
Mg28 O37 2.114 . S
Mg28 O38 2.251 . S
Mg28 O41 2.010 . S
O29 Mg28 2.028 . S
O29 C32 1.250 . S
O30 Mg31 2.028 . S
O30 C32 1.248 . S
Mg31 O30 2.028 . S
Mg31 O36 2.032 . S
Mg31 O38 2.079 . S
C32 O29 1.250 . S
C32 O30 1.248 . S
C33 O34 1.264 . S
C33 O41 1.249 . S
O34 C33 1.264 . S
O35 Mg28 1.986 . S
O35 C39 1.246 . S
O36 Mg31 2.032 . S
O36 C39 1.259 . S
O37 Mg28 2.114 . S
O37 C40 1.252 . S
O38 Mg28 2.251 . S
O38 Mg31 2.079 . S
O38 C40 1.273 . S
C39 O35 1.246 . S
C39 O36 1.259 . S
C40 O37 1.252 . S
C40 O38 1.273 . S
O41 Mg28 2.010 . S
O41 C33 1.249 . S
Mg42 O43 2.028 . S
Mg42 O49 1.986 . S
Mg42 O51 2.114 . S
Mg42 O52 2.251 . S
Mg42 O55 2.010 . S
O43 Mg42 2.028 . S
O43 C46 1.250 . S
O44 Mg45 2.028 . S
O44 C46 1.248 . S
Mg45 O44 2.028 . S
Mg45 O50 2.032 . S
Mg45 O52 2.079 . S
C46 O43 1.250 . S
C46 O44 1.248 . S
C47 O48 1.264 . S
C47 O55 1.249 . S
O48 C47 1.264 . S
O49 Mg42 1.986 . S
O49 C53 1.246 . S
O50 Mg45 2.032 . S
O50 C53 1.259 . S
O51 Mg42 2.114 . S
O51 C54 1.252 . S
O52 Mg42 2.251 . S
O52 Mg45 2.079 . S
O52 C54 1.273 . S
C53 O49 1.246 . S
C53 O50 1.259 . S
C54 O51 1.252 . S
C54 O52 1.273 . S
O55 Mg42 2.010 . S
O55 C47 1.249 . S
Mg56 O57 2.028 . S
Mg56 O63 1.986 . S
Mg56 O65 2.114 . S
Mg56 O66 2.251 . S
Mg56 O69 2.010 . S
O57 Mg56 2.028 . S
O57 C60 1.250 . S
O58 Mg59 2.028 . S
O58 C60 1.248 . S
Mg59 O58 2.028 . S
Mg59 O64 2.032 . S
Mg59 O66 2.079 . S
C60 O57 1.250 . S
C60 O58 1.248 . S
C61 O62 1.264 . S
C61 O69 1.249 . S
O62 C61 1.264 . S
O63 Mg56 1.986 . S
O63 C67 1.246 . S
O64 Mg59 2.032 . S
O64 C67 1.259 . S
O65 Mg56 2.114 . S
O65 C68 1.252 . S
O66 Mg56 2.251 . S
O66 Mg59 2.079 . S
O66 C68 1.273 . S
C67 O63 1.246 . S
C67 O64 1.259 . S
C68 O65 1.252 . S
C68 O66 1.273 . S
O69 Mg56 2.010 . S
O69 C61 1.249 . S
Mg70 O71 2.028 . S
Mg70 O77 1.986 . S
Mg70 O79 2.114 . S
Mg70 O80 2.251 . S
Mg70 O83 2.010 . S
O71 Mg70 2.028 . S
O71 C74 1.250 . S
O72 Mg73 2.028 . S
O72 C74 1.248 . S
Mg73 O72 2.028 . S
Mg73 O78 2.032 . S
Mg73 O80 2.079 . S
C74 O71 1.250 . S
C74 O72 1.248 . S
C75 O76 1.264 . S
C75 O83 1.249 . S
O76 C75 1.264 . S
O77 Mg70 1.986 . S
O77 C81 1.246 . S
O78 Mg73 2.032 . S
O78 C81 1.259 . S
O79 Mg70 2.114 . S
O79 C82 1.252 . S
O80 Mg70 2.251 . S
O80 Mg73 2.079 . S
O80 C82 1.273 . S
C81 O77 1.246 . S
C81 O78 1.259 . S
C82 O79 1.252 . S
C82 O80 1.273 . S
O83 Mg70 2.010 . S
O83 C75 1.249 . S
Mg84 O85 2.028 . S
Mg84 O91 1.986 . S
Mg84 O93 2.114 . S
Mg84 O94 2.251 . S
Mg84 O97 2.010 . S
O85 Mg84 2.028 . S
O85 C88 1.250 . S
O86 Mg87 2.028 . S
O86 C88 1.248 . S
Mg87 O86 2.028 . S
Mg87 O92 2.032 . S
Mg87 O94 2.079 . S
C88 O85 1.250 . S
C88 O86 1.248 . S
C89 O90 1.264 . S
C89 O97 1.249 . S
O90 C89 1.264 . S
O91 Mg84 1.986 . S
O91 C95 1.246 . S
O92 Mg87 2.032 . S
O92 C95 1.259 . S
O93 Mg84 2.114 . S
O93 C96 1.252 . S
O94 Mg84 2.251 . S
O94 Mg87 2.079 . S
O94 C96 1.273 . S
C95 O91 1.246 . S
C95 O92 1.259 . S
C96 O93 1.252 . S
C96 O94 1.273 . S
O97 Mg84 2.010 . S
O97 C89 1.249 . S
Mg98 O99 2.028 . S
Mg98 O105 1.986 . S
Mg98 O107 2.114 . S
Mg98 O108 2.251 . S
Mg98 O111 2.010 . S
O99 Mg98 2.028 . S
O99 C102 1.250 . S
O100 Mg101 2.028 . S
O100 C102 1.248 . S
Mg101 O100 2.028 . S
Mg101 O106 2.032 . S
Mg101 O108 2.079 . S
C102 O99 1.250 . S
C102 O100 1.248 . S
C103 O104 1.264 . S
C103 O111 1.249 . S
O104 C103 1.264 . S
O105 Mg98 1.986 . S
O105 C109 1.246 . S
O106 Mg101 2.032 . S
O106 C109 1.259 . S
O107 Mg98 2.114 . S
O107 C110 1.252 . S
O108 Mg98 2.251 . S
O108 Mg101 2.079 . S
O108 C110 1.273 . S
C109 O105 1.246 . S
C109 O106 1.259 . S
C110 O107 1.252 . S
C110 O108 1.273 . S
O111 Mg98 2.010 . S
O111 C103 1.249 . S
H112 C120 0.950 . S
H113 C125 0.950 . S
H114 C122 0.950 . S
H115 C124 0.950 . S
H116 C126 0.950 . S
H117 C128 0.950 . S
H118 C130 0.950 . S
H119 C131 0.950 . S
C120 H112 0.950 . S
C120 C121 1.386 . S
C120 C122 1.391 . S
C121 C120 1.386 . S
C121 C125 1.393 . S
C122 H114 0.950 . S
C122 C120 1.391 . S
C122 C123 1.400 . S
C123 C122 1.400 . S
C123 C124 1.398 . S
C123 C129 1.491 . S
C124 H115 0.950 . S
C124 C123 1.398 . S
C124 C125 1.391 . S
C125 H113 0.950 . S
C125 C121 1.393 . S
C125 C124 1.391 . S
C126 H116 0.950 . S
C126 C127 1.386 . S
C126 C128 1.391 . S
C127 C126 1.386 . S
C127 C131 1.393 . S
C128 H117 0.950 . S
C128 C126 1.391 . S
C128 C129 1.400 . S
C129 C123 1.491 . S
C129 C128 1.400 . S
C129 C130 1.398 . S
C130 H118 0.950 . S
C130 C129 1.398 . S
C130 C131 1.391 . S
C131 H119 0.950 . S
C131 C127 1.393 . S
C131 C130 1.391 . S
H132 C140 0.950 . S
H133 C145 0.950 . S
H134 C142 0.950 . S
H135 C144 0.950 . S
H136 C146 0.950 . S
H137 C148 0.950 . S
H138 C150 0.950 . S
H139 C151 0.950 . S
C140 H132 0.950 . S
C140 C141 1.386 . S
C140 C142 1.391 . S
C141 C140 1.386 . S
C141 C145 1.393 . S
C142 H134 0.950 . S
C142 C140 1.391 . S
C142 C143 1.400 . S
C143 C142 1.400 . S
C143 C144 1.398 . S
C143 C149 1.491 . S
C144 H135 0.950 . S
C144 C143 1.398 . S
C144 C145 1.391 . S
C145 H133 0.950 . S
C145 C141 1.393 . S
C145 C144 1.391 . S
C146 H136 0.950 . S
C146 C147 1.386 . S
C146 C148 1.391 . S
C147 C146 1.386 . S
C147 C151 1.393 . S
C148 H137 0.950 . S
C148 C146 1.391 . S
C148 C149 1.400 . S
C149 C143 1.491 . S
C149 C148 1.400 . S
C149 C150 1.398 . S
C150 H138 0.950 . S
C150 C149 1.398 . S
C150 C151 1.391 . S
C151 H139 0.950 . S
C151 C147 1.393 . S
C151 C150 1.391 . S
H152 C160 0.950 . S
H153 C165 0.950 . S
H154 C162 0.940 1_565 S
H155 C164 0.930 1_556 S
H156 C166 0.950 . S
H157 C168 0.940 1_545 S
H158 C170 0.950 . S
H159 C171 0.950 . S
C160 H152 0.950 . S
C160 C161 1.386 . S
C160 C162 1.391 . S
C161 C160 1.386 . S
C161 C165 1.393 . S
C162 H154 0.940 1_545 S
C162 C160 1.391 . S
C162 C163 1.400 . S
C163 C162 1.400 . S
C163 C164 1.407 . S
C163 C169 1.491 1_544 S
C164 H155 0.930 1_554 S
C164 C163 1.407 . S
C164 C165 1.401 . S
C165 H153 0.950 . S
C165 C161 1.393 . S
C165 C164 1.401 . S
C166 H156 0.950 . S
C166 C167 1.386 . S
C166 C168 1.391 . S
C167 C166 1.386 . S
C167 C171 1.393 . S
C168 H157 0.940 1_565 S
C168 C166 1.391 . S
C168 C169 1.400 . S
C169 C163 1.491 1_566 S
C169 C168 1.400 . S
C169 C170 1.398 1_556 S
C170 H158 0.950 . S
C170 C169 1.398 1_554 S
C170 C171 1.391 1_554 S
C171 H159 0.950 . S
C171 C167 1.393 . S
C171 C170 1.391 1_556 S
H172 C180 0.950 . S
H173 C185 0.950 . S
H174 C182 0.950 . S
H175 C184 0.950 . S
H176 C186 0.950 . S
H177 C188 0.950 . S
H178 C190 0.950 . S
H179 C191 0.950 . S
C180 H172 0.950 . S
C180 C181 1.386 . S
C180 C182 1.391 . S
C181 C180 1.386 . S
C181 C185 1.393 . S
C182 H174 0.950 . S
C182 C180 1.391 . S
C182 C183 1.400 . S
C183 C182 1.400 . S
C183 C184 1.398 . S
C183 C189 1.491 1_655 S
C184 H175 0.950 . S
C184 C183 1.398 . S
C184 C185 1.391 . S
C185 H173 0.950 . S
C185 C181 1.393 . S
C185 C184 1.391 . S
C186 H176 0.950 . S
C186 C187 1.386 . S
C186 C188 1.391 . S
C187 C186 1.386 . S
C187 C191 1.393 . S
C188 H177 0.950 . S
C188 C186 1.391 . S
C188 C189 1.400 . S
C189 C183 1.491 1_455 S
C189 C188 1.400 . S
C189 C190 1.398 . S
C190 H178 0.950 . S
C190 C189 1.398 . S
C190 C191 1.391 . S
C191 H179 0.950 . S
C191 C187 1.393 . S
C191 C190 1.391 . S
H192 C200 0.950 . S
H193 C205 0.950 . S
H194 C202 0.950 1_545 S
H195 C204 0.950 . S
H196 C206 0.950 . S
H197 C208 0.950 1_565 S
H198 C210 0.950 . S
H199 C211 0.950 . S
C200 H192 0.950 . S
C200 C201 1.386 . S
C200 C202 1.391 . S
C201 C200 1.386 . S
C201 C205 1.393 . S
C202 H194 0.950 1_565 S
C202 C200 1.391 . S
C202 C203 1.400 . S
C203 C202 1.400 . S
C203 C204 1.398 . S
C203 C209 1.491 1_565 S
C204 H195 0.950 . S
C204 C203 1.398 . S
C204 C205 1.391 . S
C205 H193 0.950 . S
C205 C201 1.393 . S
C205 C204 1.391 . S
C206 H196 0.950 . S
C206 C207 1.386 . S
C206 C208 1.391 . S
C207 C206 1.386 . S
C207 C211 1.393 . S
C208 H197 0.950 1_545 S
C208 C206 1.391 . S
C208 C209 1.400 . S
C209 C203 1.491 1_545 S
C209 C208 1.400 . S
C209 C210 1.398 . S
C210 H198 0.950 . S
C210 C209 1.398 . S
C210 C211 1.391 . S
C211 H199 0.950 . S
C211 C207 1.393 . S
C211 C210 1.391 . S
H212 C220 0.950 . S
H213 C225 0.950 . S
H214 C222 0.950 . S
H215 C224 0.950 . S
H216 C226 0.950 . S
H217 C228 0.950 . S
H218 C230 0.920 1_556 S
H219 C231 0.950 . S
C220 H212 0.950 . S
C220 C221 1.386 . S
C220 C222 1.391 . S
C221 C220 1.386 . S
C221 C225 1.393 . S
C222 H214 0.950 . S
C222 C220 1.391 . S
C222 C223 1.400 . S
C223 C222 1.400 . S
C223 C224 1.398 1_556 S
C223 C229 1.491 1_656 S
C224 H215 0.950 . S
C224 C223 1.398 1_554 S
C224 C225 1.391 1_554 S
C225 H213 0.950 . S
C225 C221 1.393 . S
C225 C224 1.391 1_556 S
C226 H216 0.950 . S
C226 C227 1.386 . S
C226 C228 1.391 . S
C227 C226 1.386 . S
C227 C231 1.393 . S
C228 H217 0.950 . S
C228 C226 1.391 . S
C228 C229 1.400 . S
C229 C223 1.491 1_454 S
C229 C228 1.400 . S
C229 C230 1.412 . S
C230 H218 0.920 1_554 S
C230 C229 1.412 . S
C230 C231 1.407 . S
C231 H219 0.950 . S
C231 C227 1.393 . S
C231 C230 1.407 . S
H232 C240 0.950 . S
H233 C245 0.950 . S
H234 C242 0.950 . S
H235 C244 0.950 . S
H236 C246 0.950 . S
H237 C248 0.950 . S
H238 C250 0.950 . S
H239 C251 0.950 . S
C240 H232 0.950 . S
C240 C241 1.386 . S
C240 C242 1.391 . S
C241 C240 1.386 . S
C241 C245 1.393 . S
C242 H234 0.950 . S
C242 C240 1.391 . S
C242 C243 1.400 . S
C243 C242 1.400 . S
C243 C244 1.398 . S
C243 C249 1.491 . S
C244 H235 0.950 . S
C244 C243 1.398 . S
C244 C245 1.391 . S
C245 H233 0.950 . S
C245 C241 1.393 . S
C245 C244 1.391 . S
C246 H236 0.950 . S
C246 C247 1.386 . S
C246 C248 1.391 . S
C247 C246 1.386 . S
C247 C251 1.393 . S
C248 H237 0.950 . S
C248 C246 1.391 . S
C248 C249 1.400 . S
C249 C243 1.491 . S
C249 C248 1.400 . S
C249 C250 1.398 . S
C250 H238 0.950 . S
C250 C249 1.398 . S
C250 C251 1.391 . S
C251 H239 0.950 . S
C251 C247 1.393 . S
C251 C250 1.391 . S
H252 C260 0.950 . S
H253 C265 0.950 . S
H254 C262 0.950 . S
H255 C264 0.950 . S
H256 C266 0.950 . S
H257 C268 0.950 . S
H258 C270 0.950 . S
H259 C271 0.950 . S
C260 H252 0.950 . S
C260 C261 1.386 . S
C260 C262 1.391 . S
C261 C260 1.386 . S
C261 C265 1.393 . S
C262 H254 0.950 . S
C262 C260 1.391 . S
C262 C263 1.400 . S
C263 C262 1.400 . S
C263 C264 1.398 . S
C263 C269 1.491 . S
C264 H255 0.950 . S
C264 C263 1.398 . S
C264 C265 1.391 . S
C265 H253 0.950 . S
C265 C261 1.393 . S
C265 C264 1.391 . S
C266 H256 0.950 . S
C266 C267 1.386 . S
C266 C268 1.391 . S
C267 C266 1.386 . S
C267 C271 1.393 . S
C268 H257 0.950 . S
C268 C266 1.391 . S
C268 C269 1.400 . S
C269 C263 1.491 . S
C269 C268 1.400 . S
C269 C270 1.398 . S
C270 H258 0.950 . S
C270 C269 1.398 . S
C270 C271 1.391 . S
C271 H259 0.950 . S
C271 C267 1.393 . S
C271 C270 1.391 . S
H272 C280 0.950 . S
H273 C285 0.950 . S
H274 C282 0.950 . S
H275 C284 0.950 . S
H276 C286 0.950 . S
H277 C288 0.950 . S
H278 C290 0.950 . S
H279 C291 0.950 . S
C280 H272 0.950 . S
C280 C281 1.386 . S
C280 C282 1.391 . S
C281 C280 1.386 . S
C281 C285 1.393 . S
C282 H274 0.950 . S
C282 C280 1.391 . S
C282 C283 1.400 . S
C283 C282 1.400 . S
C283 C284 1.398 . S
C283 C289 1.491 . S
C284 H275 0.950 . S
C284 C283 1.398 . S
C284 C285 1.391 . S
C285 H273 0.950 . S
C285 C281 1.393 . S
C285 C284 1.391 . S
C286 H276 0.950 . S
C286 C287 1.386 . S
C286 C288 1.391 . S
C287 C286 1.386 . S
C287 C291 1.393 . S
C288 H277 0.950 . S
C288 C286 1.391 . S
C288 C289 1.400 . S
C289 C283 1.491 . S
C289 C288 1.400 . S
C289 C290 1.398 . S
C290 H278 0.950 . S
C290 C289 1.398 . S
C290 C291 1.391 . S
C291 H279 0.950 . S
C291 C287 1.393 . S
C291 C290 1.391 . S
H292 C300 0.950 . S
H293 C305 0.950 . S
H294 C302 0.950 1_554 S
H295 C304 0.950 . S
H296 C306 0.950 . S
H297 C308 0.950 1_556 S
H298 C310 0.950 . S
H299 C311 0.950 . S
C300 H292 0.950 . S
C300 C301 1.386 . S
C300 C302 1.391 . S
C301 C300 1.386 . S
C301 C305 1.393 . S
C302 H294 0.950 1_556 S
C302 C300 1.391 . S
C302 C303 1.400 . S
C303 C302 1.400 . S
C303 C304 1.398 . S
C303 C309 1.491 1_556 S
C304 H295 0.950 . S
C304 C303 1.398 . S
C304 C305 1.391 . S
C305 H293 0.950 . S
C305 C301 1.393 . S
C305 C304 1.391 . S
C306 H296 0.950 . S
C306 C307 1.386 . S
C306 C308 1.391 . S
C307 C306 1.386 . S
C307 C311 1.393 . S
C308 H297 0.950 1_554 S
C308 C306 1.391 . S
C308 C309 1.400 . S
C309 C303 1.491 1_554 S
C309 C308 1.400 . S
C309 C310 1.398 . S
C310 H298 0.950 . S
C310 C309 1.398 . S
C310 C311 1.391 . S
C311 H299 0.950 . S
C311 C307 1.393 . S
C311 C310 1.391 . S
H312 C320 0.950 . S
H313 C325 0.950 . S
H314 C322 0.950 . S
H315 C324 0.950 . S
H316 C326 0.950 . S
H317 C328 0.950 . S
H318 C330 0.950 . S
H319 C331 0.950 . S
C320 H312 0.950 . S
C320 C321 1.386 . S
C320 C322 1.391 . S
C321 C320 1.386 . S
C321 C325 1.393 . S
C322 H314 0.950 . S
C322 C320 1.391 . S
C322 C323 1.400 . S
C323 C322 1.400 . S
C323 C324 1.398 . S
C323 C329 1.491 1_565 S
C324 H315 0.950 . S
C324 C323 1.398 . S
C324 C325 1.391 . S
C325 H313 0.950 . S
C325 C321 1.393 . S
C325 C324 1.391 . S
C326 H316 0.950 . S
C326 C327 1.386 . S
C326 C328 1.391 . S
C327 C326 1.386 . S
C327 C331 1.393 . S
C328 H317 0.950 . S
C328 C326 1.391 . S
C328 C329 1.400 . S
C329 C323 1.491 1_545 S
C329 C328 1.400 . S
C329 C330 1.398 . S
C330 H318 0.950 . S
C330 C329 1.398 . S
C330 C331 1.391 . S
C331 H319 0.950 . S
C331 C327 1.393 . S
C331 C330 1.391 . S
H332 C340 0.950 . S
H333 C345 0.950 . S
H334 C342 0.950 1_545 S
H335 C344 0.950 1_455 S
H336 C346 0.950 . S
H337 C348 0.950 1_565 S
H338 C350 0.950 1_655 S
H339 C351 0.950 . S
C340 H332 0.950 . S
C340 C341 1.386 . S
C340 C342 1.391 . S
C341 C340 1.386 . S
C341 C345 1.393 . S
C342 H334 0.950 1_565 S
C342 C340 1.391 . S
C342 C343 1.400 . S
C343 C342 1.400 . S
C343 C344 1.398 . S
C343 C349 1.491 1_665 S
C344 H335 0.950 1_655 S
C344 C343 1.398 . S
C344 C345 1.391 . S
C345 H333 0.950 . S
C345 C341 1.393 . S
C345 C344 1.391 . S
C346 H336 0.950 . S
C346 C347 1.386 . S
C346 C348 1.391 . S
C347 C346 1.386 . S
C347 C351 1.393 . S
C348 H337 0.950 1_545 S
C348 C346 1.391 . S
C348 C349 1.400 . S
C349 C343 1.491 1_445 S
C349 C348 1.400 . S
C349 C350 1.398 . S
C350 H338 0.950 1_455 S
C350 C349 1.398 . S
C350 C351 1.391 . S
C351 H339 0.950 . S
C351 C347 1.393 . S
C351 C350 1.391 . S
H352 C360 0.950 . S
H353 C365 0.950 . S
H354 C362 0.957 . S
H355 C364 0.950 . S
H356 C366 0.950 . S
H357 C368 0.949 1_655 S
H358 C370 0.950 . S
H359 C371 0.950 . S
C360 H352 0.950 . S
C360 C361 1.386 . S
C360 C362 1.385 1_655 S
C361 C360 1.386 . S
C361 C365 1.393 . S
C362 H354 0.957 . S
C362 C360 1.385 1_455 S
C362 C363 1.399 1_455 S
C363 C362 1.399 1_655 S
C363 C364 1.398 . S
C363 C369 1.491 1_655 S
C364 H355 0.950 . S
C364 C363 1.398 . S
C364 C365 1.391 . S
C365 H353 0.950 . S
C365 C361 1.393 . S
C365 C364 1.391 . S
C366 H356 0.950 . S
C366 C367 1.386 . S
C366 C368 1.392 . S
C367 C366 1.386 . S
C367 C371 1.393 . S
C368 H357 0.949 1_455 S
C368 C366 1.392 . S
C368 C369 1.400 . S
C369 C363 1.491 1_455 S
C369 C368 1.400 . S
C369 C370 1.398 . S
C370 H358 0.950 . S
C370 C369 1.398 . S
C370 C371 1.391 . S
C371 H359 0.950 . S
C371 C367 1.393 . S
C371 C370 1.391 . S
H372 C380 0.950 . S
H373 C385 0.950 . S
H374 C382 0.950 . S
H375 C384 0.950 . S
H376 C386 0.950 . S
H377 C388 0.950 . S
H378 C390 0.950 . S
H379 C391 0.950 . S
C380 H372 0.950 . S
C380 C381 1.386 . S
C380 C382 1.391 . S
C381 C380 1.386 . S
C381 C385 1.393 . S
C382 H374 0.950 . S
C382 C380 1.391 . S
C382 C383 1.400 . S
C383 C382 1.400 . S
C383 C384 1.398 . S
C383 C389 1.491 . S
C384 H375 0.950 . S
C384 C383 1.398 . S
C384 C385 1.391 . S
C385 H373 0.950 . S
C385 C381 1.393 . S
C385 C384 1.391 . S
C386 H376 0.950 . S
C386 C387 1.386 . S
C386 C388 1.391 . S
C387 C386 1.386 . S
C387 C391 1.393 . S
C388 H377 0.950 . S
C388 C386 1.391 . S
C388 C389 1.400 . S
C389 C383 1.491 . S
C389 C388 1.400 . S
C389 C390 1.398 . S
C390 H378 0.950 . S
C390 C389 1.398 . S
C390 C391 1.391 . S
C391 H379 0.950 . S
C391 C387 1.393 . S
C391 C390 1.391 . S
H392 C400 0.950 . S
H393 C405 0.950 . S
H394 C402 0.950 . S
H395 C404 0.950 . S
H396 C406 0.950 . S
H397 C408 0.950 . S
H398 C410 0.950 . S
H399 C411 0.950 . S
C400 H392 0.950 . S
C400 C401 1.386 . S
C400 C402 1.391 . S
C401 C400 1.386 . S
C401 C405 1.393 . S
C402 H394 0.950 . S
C402 C400 1.391 . S
C402 C403 1.400 . S
C403 C402 1.400 . S
C403 C404 1.398 . S
C403 C409 1.491 1_554 S
C404 H395 0.950 . S
C404 C403 1.398 . S
C404 C405 1.391 . S
C405 H393 0.950 . S
C405 C401 1.393 . S
C405 C404 1.391 . S
C406 H396 0.950 . S
C406 C407 1.386 . S
C406 C408 1.391 . S
C407 C406 1.386 . S
C407 C411 1.393 . S
C408 H397 0.950 . S
C408 C406 1.391 . S
C408 C409 1.400 . S
C409 C403 1.491 1_556 S
C409 C408 1.400 . S
C409 C410 1.398 . S
C410 H398 0.950 . S
C410 C409 1.398 . S
C410 C411 1.391 . S
C411 H399 0.950 . S
C411 C407 1.393 . S
C411 C410 1.391 . S
H412 C420 0.950 . S
H413 C425 0.950 . S
H414 C422 0.950 . S
H415 C424 0.950 . S
H416 C426 0.950 . S
H417 C428 0.950 . S
H418 C430 0.950 . S
H419 C431 0.950 . S
C420 H412 0.950 . S
C420 C421 1.386 . S
C420 C422 1.391 . S
C421 C420 1.386 . S
C421 C425 1.393 . S
C422 H414 0.950 . S
C422 C420 1.391 . S
C422 C423 1.400 . S
C423 C422 1.400 . S
C423 C424 1.398 . S
C423 C429 1.491 . S
C424 H415 0.950 . S
C424 C423 1.398 . S
C424 C425 1.391 . S
C425 H413 0.950 . S
C425 C421 1.393 . S
C425 C424 1.391 . S
C426 H416 0.950 . S
C426 C427 1.386 . S
C426 C428 1.391 . S
C427 C426 1.386 . S
C427 C431 1.393 . S
C428 H417 0.950 . S
C428 C426 1.391 . S
C428 C429 1.400 . S
C429 C423 1.491 . S
C429 C428 1.400 . S
C429 C430 1.398 . S
C430 H418 0.950 . S
C430 C429 1.398 . S
C430 C431 1.391 . S
C431 H419 0.950 . S
C431 C427 1.393 . S
C431 C430 1.391 . S
C121 C82 1.499 . S
C127 C11 1.478 . S
C141 C103 1.289 . S
C147 C19 1.288 . S
C161 C32 1.450 . S
C167 C88 1.449 . S
C181 C53 1.480 . S
C187 C68 1.498 . S
C201 C89 1.241 . S
C207 C5 1.240 . S
C221 C18 1.468 . S
C227 C60 1.468 . S
C241 C81 1.478 . S
C247 C40 1.498 . S
C261 C54 1.499 . S
C267 C109 1.467 . S
C281 C61 1.255 . S
C287 C75 1.257 . S
C301 C26 1.499 . S
C307 C39 1.477 . S
C321 C47 1.238 . S
C327 C33 1.239 . S
C341 C46 1.455 . S
C347 C4 1.454 . S
C361 C25 1.464 . S
C367 C12 1.500 . S
C381 C110 1.498 . S
C387 C95 1.482 . S
C401 C67 1.469 . S
C407 C96 1.500 . S
C421 C74 1.454 . S
C427 C102 1.454 . S
