# Generated by pormake.
# Topology ukd, (4)-cn, num edge types: 1
# Building blocks:
#     Node 0, Type 0, BuildingBlock: GALJAG_clean_sbu_0, # of connection points: 4
#     Node 1, Type 0, BuildingBlock: GALJAG_clean_sbu_0, # of connection points: 4
#     Node 2, Type 0, BuildingBlock: GALJAG_clean_sbu_0, # of connection points: 4
#     Node 3, Type 0, BuildingBlock: GALJAG_clean_sbu_0, # of connection points: 4
#     Node 4, Type 0, BuildingBlock: GALJAG_clean_sbu_0, # of connection points: 4
#     Node 5, Type 0, BuildingBlock: GALJAG_clean_sbu_0, # of connection points: 4
#     Node 6, Type 0, BuildingBlock: GALJAG_clean_sbu_0, # of connection points: 4
#     Node 7, Type 0, BuildingBlock: GALJAG_clean_sbu_0, # of connection points: 4
#     Node 8, Type 0, BuildingBlock: GALJAG_clean_sbu_0, # of connection points: 4
#     Node 9, Type 0, BuildingBlock: GALJAG_clean_sbu_0, # of connection points: 4
#     Node 10, Type 0, BuildingBlock: GALJAG_clean_sbu_0, # of connection points: 4
#     Node 11, Type 0, BuildingBlock: GALJAG_clean_sbu_0, # of connection points: 4
#     Node 12, Type 0, BuildingBlock: GALJAG_clean_sbu_0, # of connection points: 4
#     Node 13, Type 0, BuildingBlock: GALJAG_clean_sbu_0, # of connection points: 4
#     Node 14, Type 0, BuildingBlock: GALJAG_clean_sbu_0, # of connection points: 4
#     Node 15, Type 0, BuildingBlock: GALJAG_clean_sbu_0, # of connection points: 4
#     Node 16, Type 0, BuildingBlock: GALJAG_clean_sbu_0, # of connection points: 4
#     Node 17, Type 0, BuildingBlock: GALJAG_clean_sbu_0, # of connection points: 4
#     Node 18, Type 0, BuildingBlock: GALJAG_clean_sbu_0, # of connection points: 4
#     Node 19, Type 0, BuildingBlock: GALJAG_clean_sbu_0, # of connection points: 4
#     Node 20, Type 0, BuildingBlock: GALJAG_clean_sbu_0, # of connection points: 4
#     Node 21, Type 0, BuildingBlock: GALJAG_clean_sbu_0, # of connection points: 4
#     Node 22, Type 0, BuildingBlock: GALJAG_clean_sbu_0, # of connection points: 4
#     Node 23, Type 0, BuildingBlock: GALJAG_clean_sbu_0, # of connection points: 4
#     Node 24, Type 0, BuildingBlock: GALJAG_clean_sbu_0, # of connection points: 4
#     Node 25, Type 0, BuildingBlock: GALJAG_clean_sbu_0, # of connection points: 4
#     Node 26, Type 0, BuildingBlock: GALJAG_clean_sbu_0, # of connection points: 4
#     Node 27, Type 0, BuildingBlock: GALJAG_clean_sbu_0, # of connection points: 4
#     Node 28, Type 0, BuildingBlock: GALJAG_clean_sbu_0, # of connection points: 4
#     Node 29, Type 0, BuildingBlock: GALJAG_clean_sbu_0, # of connection points: 4
#     Node 30, Type 0, BuildingBlock: GALJAG_clean_sbu_0, # of connection points: 4
#     Node 31, Type 0, BuildingBlock: GALJAG_clean_sbu_0, # of connection points: 4
#     Edge 32, Type (0, 0), BuildingBlock: EZIPEK_clean_linker_0, # of connection points: 2
#     Edge 33, Type (0, 0), BuildingBlock: EZIPEK_clean_linker_0, # of connection points: 2
#     Edge 34, Type (0, 0), BuildingBlock: EZIPEK_clean_linker_0, # of connection points: 2
#     Edge 35, Type (0, 0), BuildingBlock: EZIPEK_clean_linker_0, # of connection points: 2
#     Edge 36, Type (0, 0), BuildingBlock: EZIPEK_clean_linker_0, # of connection points: 2
#     Edge 37, Type (0, 0), BuildingBlock: EZIPEK_clean_linker_0, # of connection points: 2
#     Edge 38, Type (0, 0), BuildingBlock: EZIPEK_clean_linker_0, # of connection points: 2
#     Edge 39, Type (0, 0), BuildingBlock: EZIPEK_clean_linker_0, # of connection points: 2
#     Edge 40, Type (0, 0), BuildingBlock: EZIPEK_clean_linker_0, # of connection points: 2
#     Edge 41, Type (0, 0), BuildingBlock: EZIPEK_clean_linker_0, # of connection points: 2
#     Edge 42, Type (0, 0), BuildingBlock: EZIPEK_clean_linker_0, # of connection points: 2
#     Edge 43, Type (0, 0), BuildingBlock: EZIPEK_clean_linker_0, # of connection points: 2
#     Edge 44, Type (0, 0), BuildingBlock: EZIPEK_clean_linker_0, # of connection points: 2
#     Edge 45, Type (0, 0), BuildingBlock: EZIPEK_clean_linker_0, # of connection points: 2
#     Edge 46, Type (0, 0), BuildingBlock: EZIPEK_clean_linker_0, # of connection points: 2
#     Edge 47, Type (0, 0), BuildingBlock: EZIPEK_clean_linker_0, # of connection points: 2
#     Edge 48, Type (0, 0), BuildingBlock: EZIPEK_clean_linker_0, # of connection points: 2
#     Edge 49, Type (0, 0), BuildingBlock: EZIPEK_clean_linker_0, # of connection points: 2
#     Edge 50, Type (0, 0), BuildingBlock: EZIPEK_clean_linker_0, # of connection points: 2
#     Edge 51, Type (0, 0), BuildingBlock: EZIPEK_clean_linker_0, # of connection points: 2
#     Edge 52, Type (0, 0), BuildingBlock: EZIPEK_clean_linker_0, # of connection points: 2
#     Edge 53, Type (0, 0), BuildingBlock: EZIPEK_clean_linker_0, # of connection points: 2
#     Edge 54, Type (0, 0), BuildingBlock: EZIPEK_clean_linker_0, # of connection points: 2
#     Edge 55, Type (0, 0), BuildingBlock: EZIPEK_clean_linker_0, # of connection points: 2
#     Edge 56, Type (0, 0), BuildingBlock: EZIPEK_clean_linker_0, # of connection points: 2
#     Edge 57, Type (0, 0), BuildingBlock: EZIPEK_clean_linker_0, # of connection points: 2
#     Edge 58, Type (0, 0), BuildingBlock: EZIPEK_clean_linker_0, # of connection points: 2
#     Edge 59, Type (0, 0), BuildingBlock: EZIPEK_clean_linker_0, # of connection points: 2
#     Edge 60, Type (0, 0), BuildingBlock: EZIPEK_clean_linker_0, # of connection points: 2
#     Edge 61, Type (0, 0), BuildingBlock: EZIPEK_clean_linker_0, # of connection points: 2
#     Edge 62, Type (0, 0), BuildingBlock: EZIPEK_clean_linker_0, # of connection points: 2
#     Edge 63, Type (0, 0), BuildingBlock: EZIPEK_clean_linker_0, # of connection points: 2
#     Edge 64, Type (0, 0), BuildingBlock: EZIPEK_clean_linker_0, # of connection points: 2
#     Edge 65, Type (0, 0), BuildingBlock: EZIPEK_clean_linker_0, # of connection points: 2
#     Edge 66, Type (0, 0), BuildingBlock: EZIPEK_clean_linker_0, # of connection points: 2
#     Edge 67, Type (0, 0), BuildingBlock: EZIPEK_clean_linker_0, # of connection points: 2
#     Edge 68, Type (0, 0), BuildingBlock: EZIPEK_clean_linker_0, # of connection points: 2
#     Edge 69, Type (0, 0), BuildingBlock: EZIPEK_clean_linker_0, # of connection points: 2
#     Edge 70, Type (0, 0), BuildingBlock: EZIPEK_clean_linker_0, # of connection points: 2
#     Edge 71, Type (0, 0), BuildingBlock: EZIPEK_clean_linker_0, # of connection points: 2
#     Edge 72, Type (0, 0), BuildingBlock: EZIPEK_clean_linker_0, # of connection points: 2
#     Edge 73, Type (0, 0), BuildingBlock: EZIPEK_clean_linker_0, # of connection points: 2
#     Edge 74, Type (0, 0), BuildingBlock: EZIPEK_clean_linker_0, # of connection points: 2
#     Edge 75, Type (0, 0), BuildingBlock: EZIPEK_clean_linker_0, # of connection points: 2
#     Edge 76, Type (0, 0), BuildingBlock: EZIPEK_clean_linker_0, # of connection points: 2
#     Edge 77, Type (0, 0), BuildingBlock: EZIPEK_clean_linker_0, # of connection points: 2
#     Edge 78, Type (0, 0), BuildingBlock: EZIPEK_clean_linker_0, # of connection points: 2
#     Edge 79, Type (0, 0), BuildingBlock: EZIPEK_clean_linker_0, # of connection points: 2
#     Edge 80, Type (0, 0), BuildingBlock: EZIPEK_clean_linker_0, # of connection points: 2
#     Edge 81, Type (0, 0), BuildingBlock: EZIPEK_clean_linker_0, # of connection points: 2
#     Edge 82, Type (0, 0), BuildingBlock: EZIPEK_clean_linker_0, # of connection points: 2
#     Edge 83, Type (0, 0), BuildingBlock: EZIPEK_clean_linker_0, # of connection points: 2
#     Edge 84, Type (0, 0), BuildingBlock: EZIPEK_clean_linker_0, # of connection points: 2
#     Edge 85, Type (0, 0), BuildingBlock: EZIPEK_clean_linker_0, # of connection points: 2
#     Edge 86, Type (0, 0), BuildingBlock: EZIPEK_clean_linker_0, # of connection points: 2
#     Edge 87, Type (0, 0), BuildingBlock: EZIPEK_clean_linker_0, # of connection points: 2
#     Edge 88, Type (0, 0), BuildingBlock: EZIPEK_clean_linker_0, # of connection points: 2
#     Edge 89, Type (0, 0), BuildingBlock: EZIPEK_clean_linker_0, # of connection points: 2
#     Edge 90, Type (0, 0), BuildingBlock: EZIPEK_clean_linker_0, # of connection points: 2
#     Edge 91, Type (0, 0), BuildingBlock: EZIPEK_clean_linker_0, # of connection points: 2
#     Edge 92, Type (0, 0), BuildingBlock: EZIPEK_clean_linker_0, # of connection points: 2
#     Edge 93, Type (0, 0), BuildingBlock: EZIPEK_clean_linker_0, # of connection points: 2
#     Edge 94, Type (0, 0), BuildingBlock: EZIPEK_clean_linker_0, # of connection points: 2
#     Edge 95, Type (0, 0), BuildingBlock: EZIPEK_clean_linker_0, # of connection points: 2
# Relax obj value: 0.105
# Max RMSD: 0.103
# Mean RMSD: 0.103
data_MOF--net-ukd--node1-GALJAG_clean_sbu_0--edge1-EZIPEK_clean_linker_0
_symmetry_space_group_name_H-M    P1
_symmetry_Int_Tables_number       1
_symmetry_cell_setting            triclinic
loop_
_symmetry_equiv_pos_as_xyz
'x, y, z'
_cell_length_a     33.657746
_cell_length_b     33.587446
_cell_length_c     52.258007
_cell_angle_alpha  90.029282
_cell_angle_beta   90.014503
_cell_angle_gamma 90.01411
loop_
_atom_site_label
_atom_site_type_symbol
_atom_site_fract_x
_atom_site_fract_y
_atom_site_fract_z
_atom_type_partial_charge
In0 In 0.20859 0.17968 0.34126 0.0
O1 O 0.1595 0.13726 0.32787 0.0
O2 O 0.16129 0.15355 0.36717 0.0
C3 C 0.234 0.21004 0.29694 0.0
C4 C 0.26874 0.13174 0.3557 0.0
C5 C 0.18071 0.2483 0.36054 0.0
O6 O 0.20471 0.18659 0.29823 0.0
O7 O 0.25132 0.21731 0.31788 0.0
O8 O 0.20496 0.22691 0.37295 0.0
O9 O 0.17155 0.23524 0.33871 0.0
C10 C 0.14386 0.13442 0.34974 0.0
O11 O 0.2594 0.16244 0.36832 0.0
O12 O 0.24842 0.1259 0.33581 0.0
In13 In 0.05365 0.96143 0.59524 0.0
O14 O 0.069 0.02153 0.61269 0.0
O15 O 0.11462 0.98989 0.59278 0.0
C16 C 0.98622 0.94697 0.62143 0.0
C17 C 0.09754 0.89662 0.60603 0.0
C18 C 0.02583 0.97885 0.54816 0.0
O19 O 0.01142 0.97186 0.62942 0.0
O20 O 0.99467 0.93063 0.60053 0.0
O21 O 0.03031 0.94372 0.55603 0.0
O22 O 0.03681 0.00537 0.5637 0.0
C23 C 0.10495 0.02029 0.60563 0.0
O24 O 0.08771 0.90548 0.58342 0.0
O25 O 0.08614 0.92099 0.62286 0.0
In26 In 0.28766 0.81879 0.84207 0.0
O27 O 0.23633 0.83073 0.86966 0.0
O28 O 0.24844 0.87389 0.84104 0.0
C29 C 0.3147 0.7493 0.86062 0.0
C30 C 0.35241 0.86324 0.85121 0.0
C31 C 0.26461 0.79191 0.79593 0.0
O32 O 0.28098 0.76282 0.86671 0.0
O33 O 0.33464 0.77124 0.84588 0.0
O34 O 0.28804 0.82097 0.79834 0.0
O35 O 0.25179 0.77758 0.81657 0.0
C36 C 0.22721 0.86374 0.85979 0.0
O37 O 0.3405 0.8556 0.82883 0.0
O38 O 0.33101 0.84959 0.86904 0.0
In39 In 0.4319 0.04291 0.08709 0.0
O40 O 0.41553 0.99883 0.1188 0.0
O41 O 0.38419 0.99533 0.08351 0.0
C42 C 0.49932 0.07399 0.10691 0.0
C43 C 0.38132 0.10372 0.09237 0.0
C44 C 0.45992 0.02334 0.04072 0.0
O45 O 0.4941 0.0369 0.10495 0.0
O46 O 0.47027 0.09478 0.09981 0.0
O47 O 0.43253 0.04856 0.04362 0.0
O48 O 0.47242 0.00735 0.06097 0.0
C49 C 0.38866 0.98212 0.10584 0.0
O50 O 0.39284 0.09192 0.07062 0.0
O51 O 0.39426 0.08409 0.11122 0.0
In52 In 0.21566 0.81625 0.15477 0.0
O53 O 0.25715 0.84337 0.12478 0.0
O54 O 0.26337 0.86244 0.16334 0.0
C55 C 0.19324 0.74861 0.13137 0.0
C56 C 0.15189 0.86407 0.15025 0.0
C57 C 0.23642 0.78303 0.19935 0.0
O58 O 0.22688 0.76409 0.12739 0.0
O59 O 0.17107 0.76742 0.14658 0.0
O60 O 0.20903 0.80852 0.19769 0.0
O61 O 0.25383 0.77463 0.17867 0.0
C62 C 0.27485 0.86565 0.14051 0.0
O63 O 0.16749 0.85635 0.17163 0.0
O64 O 0.16895 0.84854 0.13122 0.0
In65 In 0.4387 0.9593 0.39945 0.0
O66 O 0.41888 0.01099 0.37407 0.0
O67 O 0.38407 0.99739 0.40693 0.0
C68 C 0.50624 0.93838 0.37556 0.0
C69 C 0.39348 0.8953 0.38884 0.0
C70 C 0.46817 0.978 0.44567 0.0
O71 O 0.49044 0.97202 0.37204 0.0
O72 O 0.48798 0.9156 0.39064 0.0
O73 O 0.44184 0.95171 0.44269 0.0
O74 O 0.47906 0.99549 0.42554 0.0
C75 C 0.38873 0.01895 0.38744 0.0
O76 O 0.40576 0.90275 0.41116 0.0
O77 O 0.40361 0.92026 0.372 0.0
In78 In 0.28703 0.1808 0.64907 0.0
O79 O 0.33197 0.13529 0.66354 0.0
O80 O 0.33429 0.15176 0.6242 0.0
C81 C 0.2672 0.2127 0.69455 0.0
C82 C 0.227 0.13316 0.63408 0.0
C83 C 0.31017 0.24796 0.62552 0.0
O84 O 0.29985 0.1954 0.69078 0.0
O85 O 0.24404 0.21342 0.67561 0.0
O86 O 0.27816 0.2306 0.61964 0.0
O87 O 0.33039 0.23126 0.64271 0.0
C88 C 0.34916 0.13172 0.64222 0.0
O89 O 0.23657 0.16408 0.62184 0.0
O90 O 0.24744 0.12648 0.65384 0.0
In91 In 0.06568 0.03836 0.9107 0.0
O92 O 0.10048 0.09522 0.91808 0.0
O93 O 0.10159 0.07036 0.88046 0.0
C94 C 0.04267 0.02069 0.95848 0.0
C95 C 0.10938 0.97569 0.89551 0.0
C96 C 0.99752 0.06832 0.89187 0.0
O97 O 0.07199 0.04307 0.95409 0.0
O98 O 0.02604 0.00627 0.939 0.0
O99 O 0.00809 0.0329 0.88726 0.0
O100 O 0.02147 0.08807 0.90535 0.0
C101 C 0.11227 0.09822 0.89519 0.0
O102 O 0.07536 0.98272 0.88631 0.0
O103 O 0.12047 -0.00058 0.91282 0.0
In104 In 0.78718 0.81344 0.65603 0.0
O105 O 0.73963 0.82903 0.6265 0.0
O106 O 0.74783 0.86797 0.65831 0.0
C107 C 0.81686 0.74582 0.63595 0.0
C108 C 0.84786 0.86493 0.65205 0.0
C109 C 0.75637 0.78303 0.69925 0.0
O110 O 0.78639 0.76249 0.62678 0.0
O111 O 0.83241 0.76338 0.65474 0.0
O112 O 0.79009 0.79933 0.6985 0.0
O113 O 0.73755 0.78308 0.67841 0.0
C114 C 0.72919 0.86052 0.63792 0.0
O115 O 0.83173 0.85712 0.67327 0.0
O116 O 0.83311 0.8473 0.63294 0.0
In117 In 0.93071 0.03562 0.40252 0.0
O118 O 0.97923 0.02965 0.3721 0.0
O119 O 0.98242 0.07807 0.39855 0.0
C120 C 0.88814 0.97192 0.388 0.0
C121 C 0.95547 0.01484 0.44972 0.0
C122 C 0.88617 0.09942 0.39068 0.0
O123 O 0.92295 0.97796 0.37992 0.0
O124 O 0.87534 0.99739 0.40367 0.0
O125 O 0.9007 0.09456 0.41273 0.0
O126 O 0.89347 0.07191 0.37494 0.0
C127 C 0.99768 0.06021 0.37974 0.0
O128 O 0.92183 0.03028 0.44588 0.0
O129 O 0.97569 0.00918 0.42983 0.0
In130 In 0.71166 0.19349 0.14783 0.0
O131 O 0.6546 0.16124 0.15928 0.0
O132 O 0.6707 0.16188 0.1199 0.0
C133 C 0.7303 0.22111 0.19455 0.0
C134 C 0.7712 0.14239 0.13798 0.0
C135 C 0.69475 0.26061 0.12195 0.0
O136 O 0.69892 0.20174 0.19024 0.0
O137 O 0.75277 0.22594 0.17549 0.0
O138 O 0.71917 0.23541 0.11344 0.0
O139 O 0.67952 0.25224 0.14327 0.0
C140 C 0.64601 0.15115 0.13669 0.0
O141 O 0.77074 0.17742 0.12929 0.0
O142 O 0.74204 0.13331 0.15195 0.0
In143 In 0.56941 0.96039 0.90114 0.0
O144 O 0.51492 0.96881 0.87537 0.0
O145 O 0.52271 0.91299 0.89401 0.0
C146 C 0.61643 0.02024 0.88483 0.0
C147 C 0.53717 0.9829 0.94588 0.0
C148 C 0.61914 0.8985 0.89597 0.0
O149 O 0.58796 0.00708 0.87156 0.0
O150 O 0.62097 0.00337 0.90618 0.0
O151 O 0.61133 0.9137 0.91749 0.0
O152 O 0.60293 0.91521 0.877 0.0
C153 C 0.50153 0.93437 0.87971 0.0
O154 O 0.55759 0.95164 0.94367 0.0
O155 O 0.53401 0.00347 0.92584 0.0
In156 In 0.78978 0.19344 0.84797 0.0
O157 O 0.85088 0.16699 0.83951 0.0
O158 O 0.82474 0.15497 0.87575 0.0
C159 C 0.77271 0.21942 0.80056 0.0
C160 C 0.72925 0.14275 0.8568 0.0
C161 C 0.80695 0.26056 0.87398 0.0
O162 O 0.80123 0.19603 0.80494 0.0
O163 O 0.75227 0.22882 0.81983 0.0
O164 O 0.78092 0.23647 0.88184 0.0
O165 O 0.82385 0.25085 0.85345 0.0
C166 C 0.85403 0.15012 0.861 0.0
O167 O 0.72845 0.17865 0.86399 0.0
O168 O 0.75999 0.13287 0.84454 0.0
In169 In 0.56239 0.03416 0.59087 0.0
O170 O 0.55653 0.04494 0.54804 0.0
O171 O 0.53149 0.99176 0.56339 0.0
C172 C 0.60392 0.10029 0.6016 0.0
C173 C 0.49345 0.05457 0.61328 0.0
C174 C 0.61169 0.9747 0.60466 0.0
O175 O 0.60118 0.08693 0.57908 0.0
O176 O 0.58627 0.08021 0.61852 0.0
O177 O 0.57531 0.97477 0.61048 0.0
O178 O 0.62298 0.00423 0.59169 0.0
C179 C 0.53718 0.0134 0.54403 0.0
O180 O 0.51793 0.03163 0.62414 0.0
O181 O 0.50352 0.06671 0.59145 0.0
In182 In 0.71131 0.81129 0.33988 0.0
O183 O 0.66305 0.85207 0.3242 0.0
O184 O 0.66756 0.84522 0.36469 0.0
C185 C 0.73634 0.77897 0.29584 0.0
C186 C 0.77326 0.85582 0.35519 0.0
C187 C 0.67979 0.74656 0.36191 0.0
O188 O 0.70842 0.80397 0.29671 0.0
O189 O 0.75248 0.77109 0.317 0.0
O190 O 0.70656 0.76672 0.37285 0.0
O191 O 0.66894 0.7593 0.34036 0.0
C192 C 0.64943 0.86062 0.34603 0.0
O193 O 0.76684 0.82151 0.3641 0.0
O194 O 0.74896 0.86722 0.33837 0.0
In195 In 0.93914 0.96406 0.10078 0.0
O196 O 0.9446 0.95961 0.05745 0.0
O197 O 0.97836 0.00432 0.07655 0.0
C198 C 0.8936 0.8999 0.11025 0.0
C199 C 0.00588 0.94049 0.12459 0.0
C200 C 0.88924 0.02381 0.11242 0.0
O201 O 0.90985 0.9057 0.08881 0.0
O202 O 0.89972 0.92682 0.12665 0.0
O203 O 0.92146 0.01838 0.12432 0.0
O204 O 0.88263 -0.00041 0.09444 0.0
C205 C 0.9697 0.98739 0.05577 0.0
O206 O 0.98662 0.97052 0.13214 0.0
O207 O 0.99138 0.92255 0.10564 0.0
In208 In 0.71079 0.68384 0.844 0.0
O209 O 0.75963 0.65935 0.86973 0.0
O210 O 0.75634 0.63778 0.83143 0.0
C211 C 0.69329 0.75175 0.86916 0.0
C212 C 0.64997 0.635 0.85553 0.0
C213 C 0.72131 0.71238 0.7966 0.0
O214 O 0.72832 0.73846 0.86818 0.0
O215 O 0.66753 0.73017 0.85861 0.0
O216 O 0.69623 0.68551 0.80149 0.0
O217 O 0.74158 0.72417 0.81544 0.0
C218 C 0.77344 0.63617 0.8529 0.0
O219 O 0.6504 0.65612 0.83557 0.0
O220 O 0.68066 0.63768 0.86928 0.0
In221 In 0.5638 0.46157 0.0904 0.0
O222 O 0.58529 0.50444 0.12132 0.0
O223 O 0.61153 0.50843 0.08429 0.0
C224 C 0.49857 0.43289 0.11352 0.0
C225 C 0.61631 0.40166 0.09253 0.0
C226 C 0.52817 0.48433 0.04699 0.0
O227 O 0.51014 0.46823 0.11696 0.0
O228 O 0.52018 0.41206 0.09916 0.0
O229 O 0.54943 0.45351 0.04831 0.0
O230 O 0.52548 0.50427 0.06735 0.0
C231 C 0.6103 0.52123 0.10694 0.0
O232 O 0.60596 0.4172 0.07157 0.0
O233 O 0.60116 0.417 0.1123 0.0
In234 In 0.785 0.31601 0.34015 0.0
O235 O 0.73969 0.33341 0.37088 0.0
O236 O 0.74365 0.36911 0.33733 0.0
C237 C 0.81104 0.2462 0.35943 0.0
C238 C 0.84805 0.36322 0.34776 0.0
C239 C 0.76487 0.28885 0.29356 0.0
O240 O 0.77451 0.25475 0.35898 0.0
O241 O 0.83352 0.27301 0.35102 0.0
O242 O 0.79474 0.31082 0.29712 0.0
O243 O 0.74448 0.28158 0.31321 0.0
C244 C 0.72739 0.3634 0.3587 0.0
O245 O 0.83419 0.35713 0.32561 0.0
O246 O 0.82992 0.34604 0.36581 0.0
In247 In 0.93504 0.53364 0.59522 0.0
O248 O 0.9202 0.47904 0.61958 0.0
O249 O 0.87723 0.49848 0.59251 0.0
C250 C 0.00353 0.55555 0.6173 0.0
C251 C 0.89078 0.59851 0.60522 0.0
C252 C 0.96483 0.51324 0.54931 0.0
O253 O 0.98279 0.52745 0.62624 0.0
O254 O 0.98978 0.57228 0.59765 0.0
O255 O 0.94582 0.5451 0.55283 0.0
O256 O 0.9676 0.49091 0.5686 0.0
C257 C 0.88628 0.47395 0.60981 0.0
O258 O 0.89161 0.58259 0.58334 0.0
O259 O 0.91116 0.58105 0.62208 0.0
In260 In 0.70659 0.31347 0.65692 0.0
O261 O 0.76336 0.32402 0.63373 0.0
O262 O 0.74254 0.37066 0.65787 0.0
C263 C 0.67778 0.24566 0.63632 0.0
C264 C 0.64085 0.35725 0.64862 0.0
C265 C 0.73319 0.28707 0.70222 0.0
O266 O 0.69611 0.2711 0.62297 0.0
O267 O 0.67527 0.25406 0.6597 0.0
O268 O 0.70627 0.31322 0.7005 0.0
O269 O 0.74769 0.27545 0.68121 0.0
C270 C 0.76823 0.35908 0.64195 0.0
O271 O 0.65009 0.34495 0.67067 0.0
O272 O 0.66515 0.34859 0.63116 0.0
In273 In 0.93674 0.46337 0.90322 0.0
O274 O 0.91768 0.50382 0.87016 0.0
O275 O 0.88944 0.51135 0.90629 0.0
C276 C 0.00434 0.43429 0.88269 0.0
C277 C 0.88412 0.40344 0.9015 0.0
C278 C 0.96841 0.48485 0.94832 0.0
O279 O 0.99701 0.47111 0.8832 0.0
O280 O 0.97714 0.41256 0.89151 0.0
O281 O 0.94718 0.45416 0.94584 0.0
O282 O 0.97271 0.5054 0.92835 0.0
C283 C 0.89197 0.52202 0.88326 0.0
O284 O 0.89348 0.42026 0.92229 0.0
O285 O 0.90032 0.41759 0.88169 0.0
In286 In 0.79084 0.68062 0.15226 0.0
O287 O 0.74356 0.66104 0.12346 0.0
O288 O 0.74405 0.63402 0.16036 0.0
C289 C 0.8168 0.75058 0.13363 0.0
C290 C 0.85189 0.63317 0.13997 0.0
C291 C 0.77413 0.70504 0.19966 0.0
O292 O 0.78084 0.74019 0.13141 0.0
O293 O 0.83903 0.72525 0.14407 0.0
O294 O 0.79642 0.67546 0.19552 0.0
O295 O 0.75949 0.72131 0.18007 0.0
C296 C 0.7285 0.63563 0.13843 0.0
O297 O 0.84806 0.64799 0.16206 0.0
O298 O 0.82409 0.64093 0.12454 0.0
In299 In 0.55969 0.53692 0.40354 0.0
O300 O 0.59525 0.59114 0.41616 0.0
O301 O 0.58932 0.58027 0.37612 0.0
C302 C 0.52967 0.51768 0.44938 0.0
C303 C 0.61166 0.47887 0.39187 0.0
C304 C 0.49184 0.55549 0.37943 0.0
O305 O 0.55082 0.54815 0.44598 0.0
O306 O 0.52421 0.49628 0.42987 0.0
O307 O 0.51099 0.52434 0.37392 0.0
O308 O 0.50679 0.57682 0.39674 0.0
C309 C 0.60286 0.60224 0.39365 0.0
O310 O 0.58068 0.48496 0.37889 0.0
O311 O 0.6163 0.50162 0.41083 0.0
In312 In 0.28921 0.3117 0.15359 0.0
O313 O 0.22853 0.32563 0.13633 0.0
O314 O 0.26031 0.37292 0.15403 0.0
C315 C 0.30724 0.24548 0.12719 0.0
C316 C 0.35446 0.35517 0.14434 0.0
C317 C 0.27143 0.28336 0.20024 0.0
O318 O 0.28334 0.27105 0.11853 0.0
O319 O 0.32163 0.25312 0.14886 0.0
O320 O 0.30347 0.30135 0.19564 0.0
O321 O 0.24787 0.28037 0.18159 0.0
C322 C 0.22974 0.36213 0.14196 0.0
O323 O 0.3419 0.34901 0.16674 0.0
O324 O 0.33392 0.34002 0.12664 0.0
In325 In 0.43222 0.53742 0.9029 0.0
O326 O 0.42588 0.54349 0.94612 0.0
O327 O 0.46984 0.50376 0.93156 0.0
C328 C 0.38785 0.60083 0.89016 0.0
C329 C 0.50272 0.55979 0.88335 0.0
C330 C 0.38556 0.47689 0.88814 0.0
O331 O 0.40544 0.59809 0.91141 0.0
O332 O 0.3919 0.5711 0.87561 0.0
O333 O 0.41535 0.4877 0.87516 0.0
O334 O 0.37984 0.496 0.9086 0.0
C335 C 0.45388 0.51964 0.95081 0.0
O336 O 0.48976 0.52475 0.88049 0.0
O337 O 0.47985 0.58297 0.8952 0.0
In338 In 0.20814 0.68321 0.65471 0.0
O339 O 0.25619 0.66886 0.62497 0.0
O340 O 0.25321 0.63335 0.65852 0.0
C341 C 0.17636 0.75017 0.63502 0.0
C342 C 0.14734 0.63302 0.64749 0.0
C343 C 0.2276 0.71344 0.70067 0.0
O344 O 0.21314 0.74296 0.63361 0.0
O345 O 0.15605 0.72316 0.64541 0.0
O346 O 0.20507 0.68364 0.69839 0.0
O347 O 0.24103 0.72717 0.68 0.0
C348 C 0.26995 0.63974 0.63739 0.0
O349 O 0.15965 0.64218 0.66958 0.0
O350 O 0.16648 0.6482 0.62911 0.0
In351 In 0.06113 0.45892 0.40488 0.0
O352 O 0.0629 0.45091 0.44805 0.0
O353 O 0.02664 0.49741 0.43267 0.0
C354 C 0.10353 0.39389 0.39207 0.0
C355 C 0.99187 0.43563 0.38385 0.0
C356 C 0.10773 0.5208 0.39238 0.0
O357 O 0.09297 0.40075 0.41483 0.0
O358 O 0.0934 0.41993 0.37601 0.0
O359 O 0.07216 0.51846 0.38484 0.0
O360 O 0.11934 0.4926 0.4064 0.0
C361 C 0.03836 0.47865 0.4522 0.0
O362 O 0.01723 0.45535 0.37135 0.0
O363 O 0.00094 0.42897 0.4068 0.0
In364 In 0.28681 0.67926 0.34256 0.0
O365 O 0.24324 0.65717 0.37318 0.0
O366 O 0.23711 0.63518 0.33523 0.0
C367 C 0.31478 0.74755 0.36313 0.0
C368 C 0.34675 0.62746 0.34787 0.0
C369 C 0.27151 0.70915 0.29614 0.0
O370 O 0.27804 0.74166 0.36013 0.0
O371 O 0.33643 0.71847 0.35729 0.0
O372 O 0.30064 0.68635 0.3002 0.0
O373 O 0.24978 0.71622 0.31526 0.0
C374 C 0.22496 0.63433 0.35801 0.0
O375 O 0.3344 0.63838 0.32613 0.0
O376 O 0.32784 0.64128 0.36677 0.0
In377 In 0.072 0.54105 0.09105 0.0
O378 O 0.05978 0.55529 0.04909 0.0
O379 O 0.04495 0.49745 0.06262 0.0
C380 C 0.12046 0.60306 0.09889 0.0
C381 C 0.00173 0.5637 0.11092 0.0
C382 C 0.11841 0.48233 0.10892 0.0
O383 O 0.11283 0.59022 0.07668 0.0
O384 O 0.1047 0.58399 0.11708 0.0
O385 O 0.08794 0.49408 0.12083 0.0
O386 O 0.12526 0.50006 0.0881 0.0
C387 C 0.04479 0.52173 0.04428 0.0
O388 O 0.01201 0.52762 0.11022 0.0
O389 O 0.02729 0.5878 0.10269 0.0
In390 In 0.21252 0.31184 0.83898 0.0
O391 O 0.26229 0.32959 0.86633 0.0
O392 O 0.2521 0.36566 0.83332 0.0
C393 C 0.18667 0.24284 0.85935 0.0
C394 C 0.15092 0.35843 0.85164 0.0
C395 C 0.23179 0.28478 0.79224 0.0
O396 O 0.22291 0.25258 0.86006 0.0
O397 O 0.16419 0.2682 0.84921 0.0
O398 O 0.20312 0.30841 0.79575 0.0
O399 O 0.25143 0.27617 0.812 0.0
C400 C 0.27185 0.36004 0.85353 0.0
O401 O 0.15619 0.34613 0.82899 0.0
O402 O 0.17749 0.34842 0.86747 0.0
In403 In 0.43 0.45907 0.59248 0.0
O404 O 0.4312 0.45659 0.54903 0.0
O405 O 0.47064 0.49692 0.56769 0.0
C406 C 0.38491 0.39364 0.59686 0.0
C407 C 0.49472 0.4308 0.61678 0.0
C408 C 0.38464 0.52178 0.60627 0.0
O409 O 0.39614 0.40675 0.57542 0.0
O410 O 0.39548 0.41396 0.61601 0.0
O411 O 0.42122 0.52002 0.61138 0.0
O412 O 0.37121 0.49219 0.59427 0.0
C413 C 0.45851 0.48209 0.54694 0.0
O414 O 0.47 0.45298 0.62808 0.0
O415 O 0.48651 0.42315 0.59381 0.0
C416 C 0.16407 0.35 0.39185 0.0
C417 C 0.12408 0.35685 0.38445 0.0
C418 C 0.12013 0.2896 0.367 0.0
C419 C 0.1615 0.28455 0.37099 0.0
N420 N 0.22455 0.31301 0.38356 0.0
N421 N 0.06724 0.3364 0.35933 0.0
C422 C 0.18404 0.31542 0.38266 0.0
C423 C 0.10309 0.32771 0.37024 0.0
N424 N 0.18319 0.37678 0.40723 0.0
N425 N 0.09663 0.25761 0.36118 0.0
H426 H 0.05398 0.36432 0.36054 0.0
H427 H 0.05273 0.31708 0.34681 0.0
H428 H 0.10742 0.22852 0.36035 0.0
H429 H 0.06573 0.2593 0.36034 0.0
H430 H 0.21077 0.3712 0.41553 0.0
H431 H 0.17033 0.40355 0.41305 0.0
H432 H 0.24263 0.33649 0.3894 0.0
H433 H 0.2405 0.28898 0.37628 0.0
C434 C 0.91244 0.94566 0.62401 0.0
C435 C 0.94957 0.93608 0.63518 0.0
C436 C 0.91856 0.88439 0.66138 0.0
C437 C 0.88162 0.89277 0.64936 0.0
N438 N 0.84074 0.93788 0.62507 0.0
N439 N 0.98668 0.9051 0.66909 0.0
C440 C 0.87772 0.92564 0.63254 0.0
C441 C 0.95204 0.90862 0.65564 0.0
N442 N 0.91081 0.97289 0.60461 0.0
N443 N 0.92245 0.85159 0.67668 0.0
H444 H 0.01179 0.92213 0.66499 0.0
H445 H 0.98949 0.88817 0.68567 0.0
H446 H 0.89886 0.83282 0.68125 0.0
H447 H 0.94963 0.84122 0.68345 0.0
H448 H 0.88573 0.97771 0.59337 0.0
H449 H 0.93541 0.9898 0.59913 0.0
H450 H 0.83554 0.96365 0.61454 0.0
H451 H 0.81475 0.92412 0.63143 0.0
C452 C 0.37114 0.65267 0.85722 0.0
C453 C 0.36623 0.63725 0.88231 0.0
C454 C 0.32741 0.69627 0.89397 0.0
C455 C 0.32915 0.70939 0.86819 0.0
N456 N 0.34117 0.69224 0.82394 0.0
N457 N 0.33021 0.63945 0.92233 0.0
C458 C 0.34739 0.68512 0.84937 0.0
C459 C 0.34146 0.65753 0.90007 0.0
N460 N 0.40001 0.63833 0.8413 0.0
N461 N 0.31427 0.72113 0.91286 0.0
H462 H 0.33809 0.61028 0.92691 0.0
H463 H 0.30936 0.65174 0.93479 0.0
H464 H 0.30494 0.75022 0.90946 0.0
H465 H 0.31635 0.7141 0.93223 0.0
H466 H 0.40653 0.65142 0.8237 0.0
H467 H 0.42066 0.61686 0.84676 0.0
H468 H 0.35141 0.67323 0.80961 0.0
H469 H 0.32164 0.71408 0.8174 0.0
C470 C 0.55266 0.12482 0.10022 0.0
C471 C 0.53754 0.09239 0.11469 0.0
C472 C 0.59618 0.0957 0.1425 0.0
C473 C 0.60824 0.13117 0.12992 0.0
N474 N 0.59105 0.18537 0.10165 0.0
N475 N 0.54127 0.052 0.1529 0.0
C476 C 0.58449 0.14747 0.11018 0.0
C477 C 0.55829 0.07908 0.13677 0.0
N478 N 0.538 0.13309 0.07642 0.0
N479 N 0.6213 0.07707 0.15917 0.0
H480 H 0.51303 0.04014 0.14994 0.0
H481 H 0.55351 0.04438 0.17054 0.0
H482 H 0.64961 0.08779 0.16346 0.0
H483 H 0.61552 0.04903 0.16684 0.0
H484 H 0.55072 0.15425 0.06435 0.0
H485 H 0.51644 0.11571 0.06749 0.0
H486 H 0.57215 0.19974 0.08882 0.0
H487 H 0.61234 0.2041 0.10973 0.0
C488 C 0.14619 0.71299 0.10267 0.0
C489 C 0.17974 0.71144 0.119 0.0
C490 C 0.17971 0.63853 0.11658 0.0
C491 C 0.14291 0.64016 0.10344 0.0
N492 N 0.08892 0.67848 0.08552 0.0
N493 N 0.22841 0.67343 0.14247 0.0
C494 C 0.12577 0.67726 0.09655 0.0
C495 C 0.19693 0.6744 0.12594 0.0
N496 N 0.13431 0.74872 0.09273 0.0
N497 N 0.19834 0.60269 0.11974 0.0
H498 H 0.24262 0.69904 0.14906 0.0
H499 H 0.23913 0.64745 0.15083 0.0
H500 H 0.18634 0.57596 0.11309 0.0
H501 H 0.22702 0.5997 0.12695 0.0
H502 H 0.11251 0.75149 0.0787 0.0
H503 H 0.14896 0.7754 0.09671 0.0
H504 H 0.0728 0.70464 0.08299 0.0
H505 H 0.07293 0.65307 0.0805 0.0
C506 C 0.54216 0.89572 0.3445 0.0
C507 C 0.54368 0.92586 0.36334 0.0
C508 C 0.61612 0.92023 0.36499 0.0
C509 C 0.61364 0.88539 0.3497 0.0
N510 N 0.57375 0.83737 0.32664 0.0
N511 N 0.58133 0.96778 0.39183 0.0
C512 C 0.57661 0.8727 0.33953 0.0
C513 C 0.58054 0.93885 0.37344 0.0
N514 N 0.50775 0.88951 0.33122 0.0
N515 N 0.6525 0.93581 0.37097 0.0
H516 H 0.55599 0.98334 0.3975 0.0
H517 H 0.60659 0.97504 0.40234 0.0
H518 H 0.67908 0.92308 0.36474 0.0
H519 H 0.65635 0.96311 0.38007 0.0
H520 H 0.50557 0.87024 0.31566 0.0
H521 H 0.48245 0.90691 0.33415 0.0
H522 H 0.54673 0.82456 0.32147 0.0
H523 H 0.59802 0.81899 0.32295 0.0
C524 C 0.3601 0.28339 0.59896 0.0
C525 C 0.3242 0.28476 0.61304 0.0
C526 C 0.32338 0.35752 0.60997 0.0
C527 C 0.36228 0.35625 0.59962 0.0
N528 N 0.41871 0.31861 0.58444 0.0
N529 N 0.27049 0.32214 0.63183 0.0
C530 C 0.38072 0.31936 0.59373 0.0
C531 C 0.30509 0.32154 0.61816 0.0
N532 N 0.374 0.24759 0.59029 0.0
N533 N 0.30377 0.39311 0.61145 0.0
H534 H 0.25519 0.29635 0.63692 0.0
H535 H 0.25775 0.34798 0.63915 0.0
H536 H 0.31639 0.41988 0.6054 0.0
H537 H 0.27401 0.39582 0.61656 0.0
H538 H 0.39796 0.24466 0.57784 0.0
H539 H 0.35913 0.22082 0.59363 0.0
H540 H 0.43561 0.29277 0.58292 0.0
H541 H 0.43456 0.3442 0.57968 0.0
C542 C 0.94529 0.08282 0.85827 0.0
C543 C 0.95885 0.08545 0.88394 0.0
C544 C 0.90621 0.13324 0.89355 0.0
C545 C 0.88993 0.12747 0.86878 0.0
N546 N 0.88884 0.08856 0.82982 0.0
N547 N 0.94419 0.10356 0.92772 0.0
C548 C 0.90792 0.09983 0.85174 0.0
C549 C 0.9368 0.10767 0.90213 0.0
N550 N 0.96861 0.06591 0.83984 0.0
N551 N 0.89431 0.16448 0.90845 0.0
H552 H 0.96473 0.08322 0.93496 0.0
H553 H 0.92653 0.11677 0.94174 0.0
H554 H 0.87426 0.18597 0.90219 0.0
H555 H 0.90808 0.17175 0.9257 0.0
H556 H 0.96166 0.06706 0.82042 0.0
H557 H 0.99665 0.05412 0.84356 0.0
H558 H 0.89912 0.06574 0.81804 0.0
H559 H 0.86062 0.09879 0.82488 0.0
C560 C 0.87409 0.67039 0.59631 0.0
C561 C 0.86813 0.63525 0.61099 0.0
C562 C 0.82856 0.67283 0.64197 0.0
C563 C 0.83233 0.70734 0.62649 0.0
N564 N 0.85252 0.73769 0.58676 0.0
N565 N 0.83142 0.60088 0.64388 0.0
C566 C 0.85279 0.70557 0.60281 0.0
C567 C 0.84287 0.63584 0.63268 0.0
N568 N 0.9021 0.67112 0.57736 0.0
N569 N 0.81205 0.67547 0.6658 0.0
H570 H 0.84016 0.57305 0.63702 0.0
H571 H 0.80995 0.59923 0.6582 0.0
H572 H 0.80054 0.70184 0.67318 0.0
H573 H 0.81263 0.65228 0.67903 0.0
H574 H 0.91083 0.69706 0.56801 0.0
H575 H 0.91945 0.64661 0.57245 0.0
H576 H 0.86316 0.73664 0.56806 0.0
H577 H 0.8389 0.76462 0.59141 0.0
C578 C 0.07223 0.11789 0.34065 0.0
C579 C 0.10753 0.11089 0.35492 0.0
C580 C 0.07121 0.06634 0.38376 0.0
C581 C 0.03632 0.07276 0.36917 0.0
N582 N 0.00525 0.09618 0.33053 0.0
N583 N 0.14272 0.07192 0.38645 0.0
C584 C 0.03747 0.09559 0.34644 0.0
C585 C 0.10764 0.08312 0.37541 0.0
N586 N 0.07092 0.14781 0.32293 0.0
N587 N 0.06933 0.04485 0.40594 0.0
H588 H 0.17004 0.08369 0.38104 0.0
H589 H 0.1453 0.04856 0.39943 0.0
H590 H 0.04396 0.02943 0.41161 0.0
H591 H 0.09223 0.04376 0.41931 0.0
H592 H 0.04481 0.15715 0.31408 0.0
H593 H 0.09511 0.16601 0.31868 0.0
H594 H 0.00556 0.10924 0.31246 0.0
H595 H 0.9793 0.08029 0.33441 0.0
C596 C 0.63056 0.32949 0.08394 0.0
C597 C 0.6428 0.36672 0.09417 0.0
C598 C 0.69704 0.33444 0.11739 0.0
C599 C 0.68353 0.29718 0.10818 0.0
N600 N 0.64685 0.25998 0.07675 0.0
N601 N 0.69385 0.40645 0.11381 0.0
C602 C 0.65355 0.29504 0.08928 0.0
C603 C 0.67816 0.36976 0.10875 0.0
N604 N 0.59558 0.32645 0.07077 0.0
N605 N 0.72725 0.33577 0.13484 0.0
H606 H 0.68124 0.43255 0.10665 0.0
H607 H 0.72109 0.41088 0.12281 0.0
H608 H 0.74348 0.31051 0.13994 0.0
H609 H 0.73536 0.36138 0.14478 0.0
H610 H 0.58281 0.29936 0.06563 0.0
H611 H 0.57767 0.35083 0.06644 0.0
H612 H 0.62769 0.25726 0.06121 0.0
H613 H 0.66346 0.23438 0.08038 0.0
C614 C 0.42711 0.93519 0.88001 0.0
C615 C 0.46309 0.92003 0.86976 0.0
C616 C 0.42655 0.86781 0.84709 0.0
C617 C 0.3903 0.88413 0.8563 0.0
N618 N 0.35525 0.93778 0.87704 0.0
N619 N 0.49698 0.87774 0.83965 0.0
C620 C 0.39033 0.9192 0.87143 0.0
C621 C 0.46273 0.88817 0.85202 0.0
N622 N 0.42813 0.96348 0.89883 0.0
N623 N 0.4268 0.83168 0.835 0.0
H624 H 0.52403 0.89209 0.84289 0.0
H625 H 0.49789 0.85753 0.82454 0.0
H626 H 0.40119 0.81522 0.83134 0.0
H627 H 0.45272 0.81625 0.83056 0.0
H628 H 0.40321 0.97217 0.90923 0.0
H629 H 0.45444 0.97629 0.90545 0.0
H630 H 0.35357 0.96559 0.88579 0.0
H631 H 0.32777 0.9271 0.87082 0.0
C632 C 0.82373 0.37059 0.88374 0.0
C633 C 0.8573 0.36862 0.90007 0.0
C634 C 0.84464 0.29767 0.9073 0.0
C635 C 0.81697 0.29826 0.88696 0.0
N636 N 0.77753 0.33467 0.85654 0.0
N637 N 0.90104 0.33004 0.92716 0.0
C638 C 0.80534 0.3347 0.8756 0.0
C639 C 0.86765 0.33229 0.91232 0.0
N640 N 0.80924 0.40687 0.87647 0.0
N641 N 0.84919 0.26384 0.92148 0.0
H642 H 0.91904 0.35446 0.93123 0.0
H643 H 0.91259 0.30334 0.93401 0.0
H644 H 0.83214 0.2384 0.91823 0.0
H645 H 0.86658 0.26233 0.93793 0.0
H646 H 0.78309 0.41065 0.86612 0.0
H647 H 0.82148 0.43353 0.88305 0.0
H648 H 0.77124 0.35935 0.8452 0.0
H649 H 0.76166 0.30914 0.85148 0.0
C650 C 0.38398 0.07434 0.62148 0.0
C651 C 0.38517 0.10717 0.63859 0.0
C652 C 0.45738 0.10003 0.64313 0.0
C653 C 0.45623 0.0682 0.62533 0.0
N654 N 0.41927 0.01876 0.60215 0.0
N655 N 0.42105 0.14736 0.66924 0.0
C656 C 0.41965 0.05337 0.61594 0.0
C657 C 0.42123 0.11849 0.65076 0.0
N658 N 0.34879 0.06373 0.61027 0.0
N659 N 0.49326 0.11399 0.65156 0.0
H660 H 0.39589 0.16371 0.67416 0.0
H661 H 0.44529 0.15377 0.6809 0.0
H662 H 0.5201 0.09997 0.64735 0.0
H663 H 0.49693 0.14035 0.66175 0.0
H664 H 0.34642 0.04333 0.59537 0.0
H665 H 0.32164 0.07655 0.61528 0.0
H666 H 0.39352 0.00426 0.59627 0.0
H667 H 0.44506 0.00253 0.59837 0.0
C668 C 0.61908 0.71039 0.37588 0.0
C669 C 0.66103 0.71116 0.37346 0.0
C670 C 0.66489 0.64259 0.38925 0.0
C671 C 0.6229 0.64023 0.38813 0.0
N672 N 0.55943 0.67039 0.37886 0.0
N673 N 0.72417 0.67706 0.37507 0.0
C674 C 0.59978 0.67374 0.38104 0.0
C675 C 0.68418 0.67719 0.37971 0.0
N676 N 0.59786 0.74503 0.37413 0.0
N677 N 0.68624 0.61178 0.39938 0.0
H678 H 0.73945 0.70159 0.36784 0.0
H679 H 0.74179 0.65168 0.37646 0.0
H680 H 0.67302 0.58565 0.40602 0.0
H681 H 0.71658 0.61335 0.40315 0.0
H682 H 0.56763 0.74707 0.37814 0.0
H683 H 0.61119 0.7727 0.37114 0.0
H684 H 0.54154 0.69221 0.37063 0.0
H685 H 0.5439 0.64467 0.3838 0.0
C686 C 0.11628 0.92109 0.1299 0.0
C687 C 0.11577 0.8888 0.1474 0.0
C688 C 0.04524 0.90122 0.15603 0.0
C689 C 0.04446 0.92837 0.13539 0.0
N690 N 0.07826 0.96421 0.10192 0.0
N691 N 0.07877 0.84523 0.17555 0.0
C692 C 0.07981 0.93864 0.12225 0.0
C693 C 0.08015 0.87845 0.16045 0.0
N694 N 0.15172 0.93554 0.12111 0.0
N695 N 0.01242 0.89698 0.17117 0.0
H696 H 0.10316 0.82685 0.17879 0.0
H697 H 0.05253 0.83383 0.18315 0.0
H698 H 0.98657 0.91351 0.16826 0.0
H699 H 0.01216 0.88025 0.18795 0.0
H700 H 0.15427 0.96137 0.11023 0.0
H701 H 0.17906 0.92386 0.12676 0.0
H702 H 0.10197 0.96889 0.08948 0.0
H703 H 0.05242 0.9793 0.09667 0.0
C704 C 0.65259 0.79056 0.8999 0.0
C705 C 0.68229 0.79037 0.88075 0.0
C706 C 0.67783 0.86305 0.87752 0.0
C707 C 0.64338 0.86208 0.89311 0.0
N708 N 0.5956 0.82441 0.91778 0.0
N709 N 0.72332 0.82607 0.85057 0.0
C710 C 0.63044 0.82582 0.90434 0.0
C711 C 0.69554 0.8266 0.86964 0.0
N712 N 0.64586 0.75688 0.91392 0.0
N713 N 0.69383 0.89887 0.87057 0.0
H714 H 0.73798 0.80029 0.84479 0.0
H715 H 0.73024 0.8508 0.83942 0.0
H716 H 0.68162 0.92605 0.87622 0.0
H717 H 0.72106 0.90172 0.8613 0.0
H718 H 0.62709 0.75595 0.92975 0.0
H719 H 0.6624 0.73091 0.9113 0.0
H720 H 0.58245 0.79795 0.92378 0.0
H721 H 0.57793 0.8493 0.92124 0.0
C722 C 0.46322 0.3855 0.14222 0.0
C723 C 0.46134 0.41705 0.1243 0.0
C724 C 0.38874 0.41283 0.12383 0.0
C725 C 0.39102 0.37795 0.13903 0.0
N726 N 0.43041 0.32799 0.1605 0.0
N727 N 0.42321 0.45848 0.09565 0.0
C728 C 0.42822 0.36362 0.14791 0.0
C729 C 0.42432 0.43043 0.1146 0.0
N730 N 0.49844 0.37688 0.15403 0.0
N731 N 0.35259 0.42964 0.11874 0.0
H732 H 0.44856 0.47247 0.08852 0.0
H733 H 0.39748 0.46581 0.08563 0.0
H734 H 0.32591 0.41773 0.12543 0.0
H735 H 0.34923 0.45726 0.10996 0.0
H736 H 0.50098 0.35692 0.16918 0.0
H737 H 0.52462 0.39246 0.15025 0.0
H738 H 0.4571 0.31385 0.16483 0.0
H739 H 0.40556 0.31074 0.16485 0.0
C740 C 0.83266 0.15098 0.397 0.0
C741 C 0.86565 0.13641 0.3829 0.0
C742 C 0.85628 0.18888 0.35118 0.0
C743 C 0.82708 0.20687 0.36702 0.0
N744 N 0.79196 0.20822 0.40737 0.0
N745 N 0.91495 0.1478 0.35007 0.0
C746 C 0.81623 0.18873 0.39056 0.0
C747 C 0.87915 0.15704 0.36092 0.0
N748 N 0.81627 0.12836 0.41598 0.0
N749 N 0.86151 0.20128 0.32649 0.0
H750 H 0.93402 0.12631 0.35754 0.0
H751 H 0.92777 0.16469 0.33552 0.0
H752 H 0.84435 0.22348 0.31802 0.0
H753 H 0.8798 0.18638 0.31355 0.0
H754 H 0.78975 0.13575 0.4251 0.0
H755 H 0.8271 0.10032 0.42097 0.0
H756 H 0.78659 0.19812 0.42589 0.0
H757 H 0.78008 0.2363 0.40377 0.0
C758 C 0.07449 0.62012 0.6542 0.0
C759 C 0.11138 0.60861 0.64317 0.0
C760 C 0.07762 0.55803 0.6173 0.0
C761 C 0.04113 0.56893 0.62883 0.0
N762 N 0.00559 0.60306 0.66224 0.0
N763 N 0.14957 0.5607 0.61916 0.0
C764 C 0.03995 0.59737 0.64879 0.0
C765 C 0.11341 0.57567 0.62621 0.0
N766 N 0.07167 0.65447 0.66817 0.0
N767 N 0.07789 0.53168 0.59734 0.0
H768 H 0.17637 0.57237 0.62586 0.0
H769 H 0.15303 0.53453 0.60871 0.0
H770 H 0.05243 0.51672 0.59117 0.0
H771 H 0.10278 0.52628 0.58604 0.0
H772 H 0.04473 0.66659 0.6741 0.0
H773 H 0.09568 0.67314 0.67192 0.0
H774 H 0.00394 0.62049 0.6787 0.0
H775 H 0.97952 0.58738 0.65834 0.0
C776 C 0.66445 0.14387 0.60495 0.0
C777 C 0.62287 0.13878 0.60768 0.0
C778 C 0.61743 0.20304 0.62936 0.0
C779 C 0.65885 0.20946 0.62555 0.0
N780 N 0.72131 0.18813 0.60725 0.0
N781 N 0.55851 0.16722 0.61608 0.0
C782 C 0.68214 0.18071 0.6123 0.0
C783 C 0.59901 0.16946 0.61803 0.0
N784 N 0.68727 0.11272 0.59669 0.0
N785 N 0.59551 0.22845 0.64417 0.0
H786 H 0.54391 0.14348 0.60727 0.0
H787 H 0.53956 0.19065 0.62072 0.0
H788 H 0.60648 0.25471 0.65201 0.0
H789 H 0.56674 0.22208 0.65027 0.0
H790 H 0.71819 0.11271 0.59708 0.0
H791 H 0.67529 0.08547 0.591 0.0
H792 H 0.73844 0.17076 0.59499 0.0
H793 H 0.73648 0.21288 0.61425 0.0
C794 C 0.09359 0.3662 0.88183 0.0
C795 C 0.11428 0.37943 0.85974 0.0
C796 C 0.06154 0.42818 0.85154 0.0
C797 C 0.04331 0.41756 0.87507 0.0
N798 N 0.04959 0.38498 0.91615 0.0
N799 N 0.12241 0.42916 0.82679 0.0
C800 C 0.06164 0.38918 0.89131 0.0
C801 C 0.09959 0.41226 0.84548 0.0
N802 N 0.10272 0.3306 0.89307 0.0
N803 N 0.04199 0.45193 0.83446 0.0
H804 H 0.15095 0.41922 0.82239 0.0
H805 H 0.11467 0.45551 0.81754 0.0
H806 H 0.0137 0.4634 0.83784 0.0
H807 H 0.05229 0.45716 0.81597 0.0
H808 H 0.08569 0.31823 0.90771 0.0
H809 H 0.12413 0.31114 0.88596 0.0
H810 H 0.06469 0.36723 0.92931 0.0
H811 H 0.02763 0.40267 0.92445 0.0
C812 C 0.8792 0.84287 0.13973 0.0
C813 C 0.87144 0.86294 0.11637 0.0
C814 C 0.82637 0.80895 0.1036 0.0
C815 C 0.83166 0.79111 0.12795 0.0
N816 N 0.85264 0.79889 0.1719 0.0
N817 N 0.83009 0.86976 0.07879 0.0
C818 C 0.85475 0.81057 0.14688 0.0
C819 C 0.84276 0.8474 0.09904 0.0
N820 N 0.91134 0.85274 0.15441 0.0
N821 N 0.80733 0.78874 0.08451 0.0
H822 H 0.84014 0.89865 0.07539 0.0
H823 H 0.80661 0.86128 0.06699 0.0
H824 H 0.79525 0.76044 0.08702 0.0
H825 H 0.80648 0.79871 0.06564 0.0
H826 H 0.91993 0.83631 0.1704 0.0
H827 H 0.93223 0.87401 0.14899 0.0
H828 H 0.86649 0.81445 0.18669 0.0
H829 H 0.83323 0.77675 0.17821 0.0
C830 C 0.41838 0.55009 0.37338 0.0
C831 C 0.45506 0.56756 0.36632 0.0
C832 C 0.4207 0.62155 0.34413 0.0
C833 C 0.38376 0.60445 0.35141 0.0
N834 N 0.34677 0.54883 0.36807 0.0
N835 N 0.49196 0.61287 0.33982 0.0
C836 C 0.38243 0.56745 0.36448 0.0
C837 C 0.4564 0.60097 0.3499 0.0
N838 N 0.41797 0.51809 0.38954 0.0
N839 N 0.42195 0.65866 0.33337 0.0
H840 H 0.51858 0.59813 0.34375 0.0
H841 H 0.49464 0.63469 0.32578 0.0
H842 H 0.39669 0.67516 0.32889 0.0
H843 H 0.44814 0.67461 0.33064 0.0
H844 H 0.39235 0.50699 0.3981 0.0
H845 H 0.44382 0.50358 0.3954 0.0
H846 H 0.34385 0.5201 0.37526 0.0
H847 H 0.32004 0.56107 0.36184 0.0
C848 C 0.32106 0.137 0.10995 0.0
C849 C 0.35713 0.13991 0.09607 0.0
C850 C 0.3511 0.21257 0.09536 0.0
C851 C 0.31927 0.20967 0.11292 0.0
N852 N 0.27246 0.1703 0.1368 0.0
N853 N 0.40858 0.18036 0.07683 0.0
C854 C 0.30349 0.17216 0.11997 0.0
C855 C 0.37237 0.17762 0.08859 0.0
N856 N 0.30348 0.10063 0.11313 0.0
N857 N 0.36133 0.24886 0.08551 0.0
H858 H 0.42559 0.15574 0.07168 0.0
H859 H 0.42337 0.20719 0.07386 0.0
H860 H 0.34665 0.27509 0.0905 0.0
H861 H 0.38171 0.25252 0.07071 0.0
H862 H 0.27554 0.09663 0.12126 0.0
H863 H 0.31541 0.07453 0.10547 0.0
H864 H 0.26265 0.14404 0.14527 0.0
H865 H 0.25739 0.19563 0.1431 0.0
C866 C 0.55739 0.5704 0.85094 0.0
C867 C 0.54341 0.57244 0.87649 0.0
C868 C 0.59924 0.61508 0.88833 0.0
C869 C 0.61473 0.61139 0.86317 0.0
N870 N 0.61396 0.57706 0.82255 0.0
N871 N 0.55801 0.58526 0.92093 0.0
C872 C 0.59547 0.5864 0.84504 0.0
C873 C 0.56669 0.59104 0.89565 0.0
N874 N 0.53376 0.55504 0.83211 0.0
N875 N 0.61349 0.64336 0.90478 0.0
H876 H 0.53525 0.56641 0.92702 0.0
H877 H 0.57621 0.59539 0.93571 0.0
H878 H 0.63556 0.6637 0.89991 0.0
H879 H 0.60019 0.6496 0.92234 0.0
H880 H 0.54072 0.55697 0.81273 0.0
H881 H 0.50574 0.54303 0.83567 0.0
H882 H 0.60287 0.5561 0.8097 0.0
H883 H 0.64241 0.58712 0.81799 0.0
C884 C 0.16772 0.80729 0.60384 0.0
C885 C 0.15825 0.78869 0.62746 0.0
C886 C 0.10543 0.83728 0.63444 0.0
C887 C 0.11831 0.85915 0.61277 0.0
N888 N 0.16811 0.86904 0.57999 0.0
N889 N 0.1264 0.79461 0.66883 0.0
C890 C 0.15131 0.84537 0.59828 0.0
C891 C 0.12958 0.80623 0.64386 0.0
N892 N 0.19086 0.78818 0.58623 0.0
N893 N 0.06931 0.84464 0.64542 0.0
H894 H 0.14578 0.77426 0.67721 0.0
H895 H 0.10797 0.80903 0.68191 0.0
H896 H 0.04888 0.8648 0.63788 0.0
H897 H 0.05766 0.82701 0.66003 0.0
H898 H 0.19529 0.799 0.56776 0.0
H899 H 0.20228 0.75969 0.58906 0.0
H900 H 0.19446 0.86168 0.57066 0.0
H901 H 0.15829 0.89783 0.57611 0.0
C902 C 0.9525 0.37589 0.3708 0.0
C903 C 0.95599 0.41802 0.3721 0.0
C904 C 0.88887 0.4251 0.35421 0.0
C905 C 0.88646 0.38313 0.35223 0.0
N906 N 0.92014 0.32007 0.35036 0.0
N907 N 0.93023 0.48321 0.3619 0.0
C908 C 0.91961 0.359 0.35797 0.0
C909 C 0.92514 0.44285 0.36255 0.0
N910 N 0.97989 0.35176 0.38232 0.0
N911 N 0.85611 0.44771 0.34899 0.0
H912 H 0.95534 0.49736 0.36924 0.0
H913 H 0.91064 0.50258 0.35283 0.0
H914 H 0.82993 0.43551 0.3417 0.0
H915 H 0.85414 0.47803 0.35289 0.0
H916 H 0.97593 0.32117 0.38441 0.0
H917 H 0.00515 0.36223 0.39162 0.0
H918 H 0.94507 0.30185 0.35192 0.0
H919 H 0.89733 0.30757 0.33952 0.0
C920 C 0.36387 0.8012 0.3538 0.0
C921 C 0.33227 0.78691 0.36927 0.0
C922 C 0.33691 0.8472 0.39562 0.0
C923 C 0.37208 0.85812 0.38236 0.0
N924 N 0.42438 0.83949 0.35304 0.0
N925 N 0.29208 0.79369 0.40731 0.0
C926 C 0.38705 0.8335 0.36258 0.0
C927 C 0.31947 0.80925 0.39082 0.0
N928 N 0.371 0.78498 0.33024 0.0
N929 N 0.31946 0.87344 0.41214 0.0
H930 H 0.27915 0.76577 0.40472 0.0
H931 H 0.28481 0.80694 0.42472 0.0
H932 H 0.33097 0.90172 0.41576 0.0
H933 H 0.29169 0.8686 0.42037 0.0
H934 H 0.39142 0.79704 0.31739 0.0
H935 H 0.35347 0.76261 0.32225 0.0
H936 H 0.43796 0.81989 0.34028 0.0
H937 H 0.44354 0.86117 0.36017 0.0
C938 C 0.9414 0.60305 0.10045 0.0
C939 C 0.96123 0.57711 0.1176 0.0
C940 C 0.90478 0.58144 0.14703 0.0
C941 C 0.88854 0.61248 0.13184 0.0
N942 N 0.89711 0.65898 0.09679 0.0
N943 N 0.96403 0.54481 0.15884 0.0
C944 C 0.90821 0.62488 0.10918 0.0
C945 C 0.94346 0.56683 0.14131 0.0
N946 N 0.95363 0.60624 0.07559 0.0
N947 N 0.88291 0.56519 0.16642 0.0
H948 H 0.99258 0.53398 0.15553 0.0
H949 H 0.95409 0.54016 0.17748 0.0
H950 H 0.85406 0.57441 0.17068 0.0
H951 H 0.8918 0.54 0.17653 0.0
H952 H 0.93763 0.62191 0.06179 0.0
H953 H 0.97702 0.58961 0.06804 0.0
H954 H 0.91335 0.67102 0.08167 0.0
H955 H 0.87472 0.67785 0.10327 0.0
C956 C 0.14252 0.1841 0.85244 0.0
C957 C 0.17111 0.20378 0.86794 0.0
C958 C 0.16639 0.14962 0.8992 0.0
C959 C 0.13338 0.13387 0.88564 0.0
N960 N 0.08388 0.14309 0.85249 0.0
N961 N 0.20522 0.20844 0.90861 0.0
C962 C 0.11975 0.15289 0.86307 0.0
C963 C 0.18196 0.18736 0.892 0.0
N964 N 0.13763 0.19435 0.82733 0.0
N965 N 0.18359 0.12818 0.91845 0.0
H966 H 0.21606 0.23682 0.90465 0.0
H967 H 0.21047 0.19936 0.92737 0.0
H968 H 0.1738 0.0999 0.92375 0.0
H969 H 0.21003 0.13669 0.92729 0.0
H970 H 0.11983 0.17805 0.81479 0.0
H971 H 0.15461 0.21608 0.81824 0.0
H972 H 0.07126 0.15906 0.83744 0.0
H973 H 0.06446 0.12239 0.8605 0.0
C974 C 0.55931 0.43514 0.64152 0.0
C975 C 0.52939 0.41202 0.62938 0.0
C976 C 0.57293 0.3539 0.6295 0.0
C977 C 0.60215 0.37606 0.64291 0.0
N978 N 0.62089 0.43552 0.66581 0.0
N979 N 0.50305 0.34698 0.6199 0.0
C980 C 0.59443 0.41591 0.65049 0.0
C981 C 0.53479 0.3706 0.6259 0.0
N982 N 0.55543 0.47556 0.64307 0.0
N983 N 0.58169 0.31734 0.61949 0.0
H984 H 0.47419 0.35812 0.6186 0.0
H985 H 0.50457 0.316 0.61931 0.0
H986 H 0.60941 0.30391 0.62132 0.0
H987 H 0.56254 0.30195 0.60733 0.0
H988 H 0.57822 0.49436 0.64906 0.0
H989 H 0.53039 0.49077 0.63662 0.0
H990 H 0.61497 0.46308 0.67412 0.0
H991 H 0.64769 0.42293 0.67173 0.0
C992 C 0.25502 0.28922 0.24674 0.0
C993 C 0.26323 0.26482 0.22525 0.0
C994 C 0.2578 0.20492 0.25181 0.0
C995 C 0.24581 0.22908 0.27267 0.0
N996 N 0.22763 0.29354 0.28952 0.0
N997 N 0.2702 0.19966 0.20624 0.0
C998 C 0.24332 0.27112 0.27013 0.0
C999 C 0.26384 0.22269 0.22745 0.0
N1000 N 0.2583 0.3297 0.24478 0.0
N1001 N 0.26513 0.1653 0.25562 0.0
H1002 H 0.27771 0.21145 0.18845 0.0
H1003 H 0.26599 0.16896 0.20586 0.0
H1004 H 0.26168 0.15142 0.27334 0.0
H1005 H 0.2779 0.14677 0.24194 0.0
H1006 H 0.25749 0.34882 0.26045 0.0
H1007 H 0.26449 0.34424 0.2276 0.0
H1008 H 0.2207 0.32361 0.28774 0.0
H1009 H 0.2184 0.28157 0.30692 0.0
C1010 C 0.97913 0.01944 0.521 0.0
C1011 C 0.00726 0.98806 0.52311 0.0
C1012 C 0.99357 0.96943 0.47876 0.0
C1013 C 0.97106 0.00479 0.47546 0.0
N1014 N 0.95092 0.06866 0.49279 0.0
N1015 N 0.04799 0.93903 0.50153 0.0
C1016 C 0.96609 0.03134 0.49637 0.0
C1017 C 0.01643 0.96461 0.5013 0.0
N1018 N 0.96331 0.03679 0.54234 0.0
N1019 N 0.9921 0.93973 0.46091 0.0
H1020 H 0.06737 0.93644 0.517 0.0
H1021 H 0.05764 0.92399 0.48522 0.0
H1022 H 0.97358 0.94081 0.44492 0.0
H1023 H 0.00551 0.91208 0.46367 0.0
H1024 H 0.94013 0.05733 0.54147 0.0
H1025 H 0.96965 0.02729 0.56087 0.0
H1026 H 0.95035 0.09 0.50728 0.0
H1027 H 0.94326 0.07999 0.47491 0.0
C1028 C 0.20576 0.75059 0.73979 0.0
C1029 C 0.23673 0.7321 0.7256 0.0
C1030 C 0.28613 0.75437 0.75705 0.0
C1031 C 0.25531 0.77348 0.77099 0.0
N1032 N 0.18605 0.78857 0.77734 0.0
N1033 N 0.30629 0.71832 0.71898 0.0
C1034 C 0.21515 0.77122 0.76282 0.0
C1035 C 0.2769 0.73464 0.73373 0.0
N1036 N 0.16775 0.75024 0.73043 0.0
N1037 N 0.32375 0.7528 0.767 0.0
H1038 H 0.30059 0.70033 0.70314 0.0
H1039 H 0.33644 0.72379 0.72163 0.0
H1040 H 0.33205 0.76692 0.78394 0.0
H1041 H 0.34647 0.73525 0.75962 0.0
H1042 H 0.14431 0.76649 0.73806 0.0
H1043 H 0.15942 0.73482 0.71399 0.0
H1044 H 0.15576 0.78449 0.77451 0.0
H1045 H 0.19213 0.8066 0.79311 0.0
C1046 C 0.47097 0.97597 0.00452 0.0
C1047 C 0.47735 0.01401 0.01556 0.0
C1048 C 0.52499 0.03057 0.98181 0.0
C1049 C 0.51664 0.99362 0.96984 0.0
N1050 N 0.47574 0.93477 0.96657 0.0
N1051 N 0.50472 0.08032 0.0127 0.0
C1052 C 0.48805 0.96719 0.98032 0.0
C1053 C 0.50242 0.04229 0.00348 0.0
N1054 N 0.44865 0.94823 0.01718 0.0
N1055 N 0.55588 0.05345 0.97329 0.0
H1056 H 0.48944 0.08986 0.02891 0.0
H1057 H 0.51913 0.10334 0.00311 0.0
H1058 H 0.57381 0.04525 0.95791 0.0
H1059 H 0.56619 0.07861 0.98287 0.0
H1060 H 0.44701 0.91847 0.01166 0.0
H1061 H 0.43354 0.95434 0.03416 0.0
H1062 H 0.45197 0.9168 0.97198 0.0
H1063 H 0.48677 0.92781 0.94847 0.0
C1064 C 0.26883 0.76949 0.26826 0.0
C1065 C 0.2641 0.72769 0.27104 0.0
C1066 C 0.23984 0.72247 0.22699 0.0
C1067 C 0.24681 0.76382 0.22377 0.0
N1068 N 0.27402 0.82565 0.23929 0.0
N1069 N 0.25034 0.66323 0.25261 0.0
C1070 C 0.26289 0.78712 0.24387 0.0
C1071 C 0.25149 0.70377 0.25019 0.0
N1072 N 0.2788 0.79236 0.28897 0.0
N1073 N 0.22006 0.70159 0.20845 0.0
H1074 H 0.25626 0.64849 0.26975 0.0
H1075 H 0.24602 0.64395 0.23726 0.0
H1076 H 0.21023 0.71449 0.19144 0.0
H1077 H 0.21031 0.67239 0.2107 0.0
H1078 H 0.27791 0.82334 0.28895 0.0
H1079 H 0.28582 0.78049 0.30683 0.0
H1080 H 0.28991 0.84297 0.25225 0.0
H1081 H 0.27033 0.83949 0.22158 0.0
C1082 C 0.52698 0.98024 0.47488 0.0
C1083 C 0.4858 0.9869 0.47087 0.0
C1084 C 0.47792 0.00774 0.51547 0.0
C1085 C 0.51963 0.00409 0.51889 0.0
N1086 N 0.58485 0.99161 0.50158 0.0
N1087 N 0.42295 0.01256 0.48562 0.0
C1088 C 0.54451 0.99196 0.49845 0.0
C1089 C 0.4614 0.00194 0.49074 0.0
N1090 N 0.54884 0.9608 0.45668 0.0
N1091 N 0.45409 0.01684 0.53585 0.0
H1092 H 0.4099 0.0092 0.46765 0.0
H1093 H 0.40488 0.02779 0.49849 0.0
H1094 H 0.46515 0.02408 0.55387 0.0
H1095 H 0.42323 0.01493 0.53537 0.0
H1096 H 0.57801 0.95146 0.45945 0.0
H1097 H 0.53674 0.95065 0.4395 0.0
H1098 H 0.6048 0.98765 0.48657 0.0
H1099 H 0.59868 0.99788 0.51899 0.0
C1100 C 0.2488 0.29107 0.74572 0.0
C1101 C 0.24046 0.26649 0.76712 0.0
C1102 C 0.2515 0.20663 0.74111 0.0
C1103 C 0.25717 0.23118 0.71936 0.0
N1104 N 0.25793 0.29624 0.69982 0.0
N1105 N 0.22774 0.20115 0.78468 0.0
C1106 C 0.25453 0.27327 0.7213 0.0
C1107 C 0.24037 0.22431 0.76474 0.0
N1108 N 0.25355 0.3312 0.74905 0.0
N1109 N 0.25685 0.16635 0.73921 0.0
H1110 H 0.21951 0.21263 0.80241 0.0
H1111 H 0.22229 0.17074 0.78317 0.0
H1112 H 0.262 0.15179 0.72189 0.0
H1113 H 0.25849 0.14746 0.75496 0.0
H1114 H 0.26383 0.35032 0.73485 0.0
H1115 H 0.25046 0.34525 0.76674 0.0
H1116 H 0.25129 0.3265 0.69931 0.0
H1117 H 0.26538 0.28464 0.68197 0.0
C1118 C 0.00738 0.04434 0.99772 0.0
C1119 C 0.02721 0.01327 0.98443 0.0
C1120 C 0.01386 0.9672 0.01967 0.0
C1121 C 0.99029 0.9969 0.0316 0.0
N1122 N 0.9615 0.0626 0.03153 0.0
N1123 N 0.04709 0.94446 0.98123 0.0
C1124 C 0.98654 0.03536 0.02066 0.0
C1125 C 0.02976 0.97447 0.99496 0.0
N1126 N 0.00821 0.08233 0.98829 0.0
N1127 N 0.02264 0.93281 0.03251 0.0
H1128 H 0.06135 0.9491 0.96377 0.0
H1129 H 0.0454 0.91456 0.98638 0.0
H1130 H 0.01234 0.92674 0.05092 0.0
H1131 H 0.0431 0.91188 0.02601 0.0
H1132 H 0.99835 0.10706 -0.00153 0.0
H1133 H 0.02114 0.08982 0.97083 0.0
H1134 H 0.95365 0.08944 0.02298 0.0
H1135 H 0.94613 0.05721 0.04847 0.0
C1136 C 0.73508 0.72364 0.72476 0.0
C1137 C 0.74047 0.76545 0.72302 0.0
C1138 C 0.7234 0.77227 0.76831 0.0
C1139 C 0.72552 0.73028 0.77095 0.0
N1140 N 0.73844 0.66579 0.75219 0.0
N1141 N 0.73999 0.83027 0.74294 0.0
C1142 C 0.73225 0.70577 0.74928 0.0
C1143 C 0.73474 0.79001 0.74478 0.0
N1144 N 0.73262 0.70091 0.70313 0.0
N1145 N 0.70873 0.79498 0.78787 0.0
H1146 H 0.74489 0.84476 0.72557 0.0
H1147 H 0.74126 0.84905 0.75878 0.0
H1148 H 0.69803 0.78273 0.80486 0.0
H1149 H 0.70316 0.82538 0.7863 0.0
H1150 H 0.72495 0.67086 0.70337 0.0
H1151 H 0.73413 0.71275 0.68475 0.0
H1152 H 0.74794 0.64738 0.73736 0.0
H1153 H 0.7379 0.65151 0.76989 0.0
C1154 C 0.74669 0.21279 0.24093 0.0
C1155 C 0.73919 0.23839 0.2199 0.0
C1156 C 0.7453 0.29696 0.24772 0.0
C1157 C 0.75536 0.27149 0.26834 0.0
N1158 N 0.77043 0.20591 0.28452 0.0
N1159 N 0.73351 0.30453 0.2022 0.0
C1160 C 0.75707 0.22955 0.265 0.0
C1161 C 0.73936 0.28043 0.22296 0.0
N1162 N 0.74388 0.17242 0.23786 0.0
N1163 N 0.73939 0.33669 0.25215 0.0
H1164 H 0.72542 0.29376 0.18425 0.0
H1165 H 0.73842 0.33512 0.20234 0.0
H1166 H 0.74302 0.34977 0.27011 0.0
H1167 H 0.72791 0.35636 0.23868 0.0
H1168 H 0.74389 0.15229 0.25299 0.0
H1169 H 0.73937 0.1588 0.22016 0.0
H1170 H 0.77707 0.17583 0.28248 0.0
H1171 H 0.77766 0.21683 0.30259 0.0
C1172 C 0.76977 0.27779 0.77083 0.0
C1173 C 0.76478 0.23626 0.77495 0.0
C1174 C 0.73872 0.22816 0.7315 0.0
C1175 C 0.74513 0.26942 0.727 0.0
N1176 N 0.77259 0.33231 0.74038 0.0
N1177 N 0.75011 0.17071 0.75863 0.0
C1178 C 0.76212 0.29399 0.74616 0.0
C1179 C 0.75124 0.21104 0.75502 0.0
N1180 N 0.78193 0.30172 0.79052 0.0
N1181 N 0.71852 0.20576 0.71391 0.0
H1182 H 0.7564 0.15712 0.7761 0.0
H1183 H 0.74546 0.15035 0.7439 0.0
H1184 H 0.70863 0.21694 0.69648 0.0
H1185 H 0.70861 0.17689 0.71732 0.0
H1186 H 0.78108 0.33268 0.78991 0.0
H1187 H 0.7914 0.29065 0.80812 0.0
H1188 H 0.78896 0.35062 0.7525 0.0
H1189 H 0.76768 0.34506 0.72246 0.0
C1190 C 0.71797 0.73412 0.25965 0.0
C1191 C 0.74704 0.75787 0.27207 0.0
C1192 C 0.79612 0.74001 0.23942 0.0
C1193 C 0.76573 0.72023 0.22552 0.0
N1194 N 0.69732 0.69989 0.22105 0.0
N1195 N 0.81254 0.7869 0.2731 0.0
C1196 C 0.7265 0.71773 0.23524 0.0
C1197 C 0.78597 0.76142 0.26195 0.0
N1198 N 0.68291 0.72569 0.27175 0.0
N1199 N 0.83457 0.73859 0.23099 0.0
H1200 H 0.80618 0.80304 0.28963 0.0
H1201 H 0.83978 0.79448 0.26504 0.0
H1202 H 0.84299 0.72485 0.21395 0.0
H1203 H 0.85867 0.74856 0.2417 0.0
H1204 H 0.6623 0.70515 0.26494 0.0
H1205 H 0.67582 0.73644 0.28989 0.0
H1206 H 0.66722 0.70176 0.22548 0.0
H1207 H 0.70292 0.68481 0.20397 0.0
C1208 C 0.47809 0.46816 0.0134 0.0
C1209 C 0.50649 0.49514 0.02353 0.0
C1210 C 0.49342 0.54175 0.98855 0.0
C1211 C 0.46899 0.51255 0.97681 0.0
N1212 N 0.43962 0.44709 0.97658 0.0
N1213 N 0.54469 0.55567 0.01991 0.0
C1214 C 0.46172 0.47548 0.98883 0.0
C1215 C 0.51481 0.53169 0.01107 0.0
N1216 N 0.46565 0.43645 0.02774 0.0
N1217 N 0.49636 0.57896 0.9781 0.0
H1218 H 0.56128 0.54921 0.03624 0.0
H1219 H 0.5553 0.58037 0.01002 0.0
H1220 H 0.48235 0.58706 0.96108 0.0
H1221 H 0.51022 0.60279 0.98721 0.0
H1222 H 0.44211 0.41804 0.02254 0.0
H1223 H 0.47637 0.43061 0.0461 0.0
H1224 H 0.43731 0.41779 0.9829 0.0
H1225 H 0.42529 0.45222 0.95918 0.0
C1226 C 0.03094 0.52228 0.49068 0.0
C1227 C 0.02148 0.48642 0.47775 0.0
C1228 C 0.97314 0.46922 0.51105 0.0
C1229 C 0.98442 0.50382 0.52477 0.0
N1230 N 0.02931 0.55919 0.53051 0.0
N1231 N 0.98786 0.42285 0.47682 0.0
C1232 C 0.01471 0.52936 0.51535 0.0
C1233 C 0.99407 0.45885 0.4884 0.0
N1234 N 0.05529 0.54967 0.47931 0.0
N1235 N 0.94105 0.44745 0.51894 0.0
H1236 H 0.00085 0.41481 0.45948 0.0
H1237 H 0.97197 0.39972 0.48524 0.0
H1238 H 0.92464 0.45448 0.53524 0.0
H1239 H 0.92846 0.42451 0.50826 0.0
H1240 H 0.05939 0.57841 0.4863 0.0
H1241 H 0.06966 0.54453 0.46193 0.0
H1242 H 0.05426 0.57602 0.52587 0.0
H1243 H 0.01875 0.56491 0.54889 0.0
C1244 C 0.98342 0.50842 0.0187 0.0
C1245 C 0.02541 0.51262 0.01963 0.0
C1246 C 0.03012 0.49661 0.97401 0.0
C1247 C 0.98799 0.49518 0.97271 0.0
N1248 N 0.92415 0.50629 0.99234 0.0
N1249 N 0.08869 0.51575 -0.0019 0.0
C1250 C 0.96449 0.5027 0.99469 0.0
C1251 C 0.04874 0.50846 0.99721 0.0
N1252 N 0.96159 0.50988 0.04077 0.0
N1253 N 0.05236 0.4846 0.95349 0.0
H1254 H 0.10384 0.52216 0.01502 0.0
H1255 H 0.10649 0.51797 0.98187 0.0
H1256 H 0.03995 0.47536 0.9362 0.0
H1257 H 0.083 0.48056 0.95417 0.0
H1258 H 0.93168 0.50212 0.04175 0.0
H1259 H 0.97378 0.51647 0.05861 0.0
H1260 H 0.90568 0.5161 0.00701 0.0
H1261 H 0.90925 0.50287 0.97497 0.0
C1262 C 0.46995 0.51382 0.47762 0.0
C1263 C 0.51148 0.50858 0.4743 0.0
C1264 C 0.51779 0.48395 0.51815 0.0
C1265 C 0.47678 0.49184 0.52208 0.0
N1266 N 0.41489 0.51972 0.50732 0.0
N1267 N 0.57616 0.49383 0.49176 0.0
C1268 C 0.45303 0.50805 0.50224 0.0
C1269 C 0.53581 0.4954 0.49473 0.0
N1270 N 0.44676 0.52446 0.45723 0.0
N1271 N 0.539 0.46347 0.53619 0.0
H1272 H 0.59038 0.49963 0.47443 0.0
H1273 H 0.59583 0.48933 0.50687 0.0
H1274 H 0.52686 0.4538 0.55344 0.0
H1275 H 0.5677 0.45288 0.53323 0.0
H1276 H 0.41585 0.52393 0.45755 0.0
H1277 H 0.45838 0.53179 0.43935 0.0
H1278 H 0.39731 0.53561 0.49452 0.0
H1279 H 0.40166 0.51645 0.52524 0.0
C1280 C 0.33903 0.11665 0.36911 0.0
C1281 C 0.29974 0.10324 0.36413 0.0
C1282 C 0.32042 0.0343 0.37195 0.0
C1283 C 0.35851 0.04814 0.37931 0.0
N1284 N 0.40304 0.10246 0.38847 0.0
N1285 N 0.25127 0.05008 0.36512 0.0
C1286 C 0.36759 0.08935 0.37888 0.0
C1287 C 0.28996 0.06225 0.36669 0.0
N1288 N 0.34959 0.15492 0.36334 0.0
N1289 N 0.31371 0.99436 0.369 0.0
H1290 H 0.22787 0.06931 0.36116 0.0
H1291 H 0.24187 0.02152 0.36998 0.0
H1292 H 0.33524 0.97274 0.37254 0.0
H1293 H 0.288 0.98278 0.36077 0.0
H1294 H 0.37875 0.16523 0.36401 0.0
H1295 H 0.32983 0.17557 0.35562 0.0
H1296 H 0.40966 0.13243 0.39131 0.0
H1297 H 0.42475 0.08323 0.39557 0.0
C1298 C 0.15953 0.06751 0.59343 0.0
C1299 C 0.13422 0.05148 0.61255 0.0
C1300 C 0.16495 0.09527 0.64438 0.0
C1301 C 0.19406 0.10662 0.62616 0.0
N1302 N 0.22324 0.09755 0.58428 0.0
N1303 N 0.11843 0.04451 0.65752 0.0
C1304 C 0.19246 0.09129 0.60086 0.0
C1305 C 0.13825 0.06393 0.6384 0.0
N1306 N 0.15146 0.06112 0.56812 0.0
N1307 N 0.16194 0.11517 0.66712 0.0
H1308 H 0.09995 0.02012 0.65433 0.0
H1309 H 0.12368 0.04994 0.67686 0.0
H1310 H 0.18002 0.13929 0.6719 0.0
H1311 H 0.13873 0.11056 0.67998 0.0
H1312 H 0.1668 0.07532 0.5534 0.0
H1313 H 0.12676 0.04509 0.56185 0.0
H1314 H 0.22529 0.08345 0.56656 0.0
H1315 H 0.2487 0.11353 0.58914 0.0
C1316 C 0.16774 0.90667 0.85138 0.0
C1317 C 0.19408 0.88888 0.86924 0.0
C1318 C 0.15684 0.91992 0.90418 0.0
C1319 C 0.13564 0.94334 0.88618 0.0
N1320 N 0.12695 0.96387 0.84206 0.0
N1321 N 0.2178 0.88462 0.91292 0.0
C1322 C 0.14241 0.93792 0.85957 0.0
C1323 C 0.18964 0.89683 0.89578 0.0
N1324 N 0.16607 0.89312 0.82674 0.0
N1325 N 0.14518 0.91901 0.92921 0.0
H1326 H 0.24356 0.86952 0.90766 0.0
H1327 H 0.21765 0.8933 0.93207 0.0
H1328 H 0.12028 0.9343 0.93588 0.0
H1329 H 0.15745 0.89959 0.9426 0.0
H1330 H 0.14475 0.90277 0.81367 0.0
H1331 H 0.18282 0.86903 0.82026 0.0
H1332 H 0.13465 0.96324 0.82275 0.0
H1333 H 0.10995 0.98861 0.84698 0.0
C1334 C 0.29979 0.9359 0.13869 0.0
C1335 C 0.30526 0.89502 0.13263 0.0
C1336 C 0.36599 0.91129 0.1089 0.0
C1337 C 0.36188 0.95159 0.11651 0.0
N1338 N 0.32903 0.00161 0.14203 0.0
N1339 N 0.34714 0.84256 0.11629 0.0
C1340 C 0.3302 0.96362 0.13262 0.0
C1341 C 0.33934 0.88231 0.11887 0.0
N1342 N 0.26451 0.94872 0.14877 0.0
N1343 N 0.3951 0.90081 0.09194 0.0
H1344 H 0.32879 0.82046 0.12383 0.0
H1345 H 0.37353 0.83143 0.10876 0.0
H1346 H 0.41638 0.92086 0.08525 0.0
H1347 H 0.39671 0.87292 0.08329 0.0
H1348 H 0.25709 0.97864 0.15079 0.0
H1349 H 0.24087 0.92975 0.15289 0.0
H1350 H 0.30919 0.01081 0.15613 0.0
H1351 H 0.34992 0.0233 0.13729 0.0
C1352 C 0.69756 0.90153 0.6031 0.0
C1353 C 0.69704 0.88684 0.62856 0.0
C1354 C 0.64125 0.93085 0.63874 0.0
C1355 C 0.63949 0.94289 0.61272 0.0
N1356 N 0.65952 0.93163 0.56892 0.0
N1357 N 0.66169 0.87972 0.66852 0.0
C1358 C 0.6657 0.92578 0.5945 0.0
C1359 C 0.6668 0.8991 0.64576 0.0
N1360 N 0.72934 0.89425 0.58751 0.0
N1361 N 0.62042 0.95102 0.65708 0.0
H1362 H 0.67886 0.8553 0.67399 0.0
H1363 H 0.63767 0.88505 0.68062 0.0
H1364 H 0.60266 0.97568 0.65314 0.0
H1365 H 0.62408 0.94588 0.6766 0.0
H1366 H 0.73293 0.90788 0.56975 0.0
H1367 H 0.75406 0.87782 0.59323 0.0
H1368 H 0.67556 0.91673 0.55481 0.0
H1369 H 0.63559 0.94793 0.56178 0.0
C1370 C 0.84389 0.91438 0.39796 0.0
C1371 C 0.86322 0.93827 0.37939 0.0
C1372 C 0.8308 0.9003 0.34533 0.0
C1373 C 0.80641 0.88145 0.36385 0.0
N1374 N 0.78572 0.87534 0.40805 0.0
N1375 N 0.87059 0.95798 0.3351 0.0
C1376 C 0.81205 0.88939 0.3903 0.0
C1377 C 0.85585 0.93214 0.35294 0.0
N1378 N 0.85644 0.91504 0.42283 0.0
N1379 N 0.83072 0.88726 0.32056 0.0
H1380 H 0.88811 0.98254 0.3397 0.0
H1381 H 0.86229 0.95722 0.3159 0.0
H1382 H 0.81352 0.86328 0.3144 0.0
H1383 H 0.85078 0.89739 0.30684 0.0
H1384 H 0.84587 0.89539 0.43667 0.0
H1385 H 0.88044 0.93225 0.42899 0.0
H1386 H 0.78628 0.88398 0.4272 0.0
H1387 H 0.76093 0.85824 0.40339 0.0
C1388 C 0.82248 0.0925 0.15141 0.0
C1389 C 0.80285 0.11353 0.13157 0.0
C1390 C 0.84489 0.0805 0.0998 0.0
C1391 C 0.86066 0.05565 0.11927 0.0
N1392 N 0.85807 0.03275 0.16313 0.0
N1393 N 0.78975 0.12153 0.08636 0.0
C1394 C 0.84788 0.06026 0.14501 0.0
C1395 C 0.81256 0.10603 0.10559 0.0
N1396 N 0.81788 0.10403 0.17633 0.0
N1397 N 0.86154 0.08078 0.07596 0.0
H1398 H 0.7648 0.13919 0.08963 0.0
H1399 H 0.79314 0.11345 0.06723 0.0
H1400 H 0.88598 0.06334 0.07109 0.0
H1401 H 0.85378 0.10131 0.06188 0.0
H1402 H 0.83466 0.09222 0.19127 0.0
H1403 H 0.80037 0.12821 0.18177 0.0
H1404 H 0.84608 0.03264 0.18151 0.0
H1405 H 0.87514 0.00761 0.15918 0.0
C1406 C 0.65067 0.08489 0.89389 0.0
C1407 C 0.64231 0.05358 0.8765 0.0
C1408 C 0.68394 0.08645 0.84438 0.0
C1409 C 0.6976 0.11363 0.86327 0.0
N1410 N 0.6995 0.1326 0.90802 0.0
N1411 N 0.65689 0.02095 0.8363 0.0
C1412 C 0.68237 0.11141 0.88859 0.0
C1413 C 0.66035 0.05339 0.85194 0.0
N1414 N 0.62764 0.09012 0.91516 0.0
N1415 N 0.69239 0.09277 0.81913 0.0
H1416 H 0.64128 0.99535 0.84138 0.0
H1417 H 0.67293 0.01789 0.81936 0.0
H1418 H 0.708 0.11763 0.81267 0.0
H1419 H 0.68007 0.07578 0.80444 0.0
H1420 H 0.63042 0.11469 0.92722 0.0
H1421 H 0.60278 0.07259 0.91899 0.0
H1422 H 0.69164 0.12875 0.92715 0.0
H1423 H 0.72447 0.15054 0.90562 0.0
C1424 C 0.79999 0.56631 0.85339 0.0
C1425 C 0.80573 0.60749 0.85846 0.0
C1426 C 0.86979 0.59282 0.87873 0.0
C1427 C 0.86488 0.5521 0.87235 0.0
N1428 N 0.83015 0.50128 0.8486 0.0
N1429 N 0.84971 0.66099 0.87065 0.0
C1430 C 0.83166 0.53931 0.85788 0.0
C1431 C 0.84171 0.62111 0.86964 0.0
N1432 N 0.76349 0.55244 0.84607 0.0
N1433 N 0.90103 0.60437 0.89372 0.0
H1434 H 0.83036 0.68252 0.86347 0.0
H1435 H 0.87703 0.67258 0.8763 0.0
H1436 H 0.92337 0.5848 0.89953 0.0
H1437 H 0.90361 0.63274 0.9016 0.0
H1438 H 0.75658 0.52227 0.84486 0.0
H1439 H 0.73871 0.57068 0.84373 0.0
H1440 H 0.80859 0.49155 0.83573 0.0
H1441 H 0.85248 0.48039 0.85188 0.0
C1442 C 0.70383 0.56567 0.13472 0.0
C1443 C 0.69757 0.60693 0.13034 0.0
C1444 C 0.63398 0.59188 0.10954 0.0
C1445 C 0.63869 0.55129 0.11635 0.0
N1446 N 0.67408 0.50066 0.13989 0.0
N1447 N 0.6536 0.66019 0.11767 0.0
C1448 C 0.67225 0.53859 0.13049 0.0
C1449 C 0.66182 0.62038 0.11877 0.0
N1450 N 0.74069 0.55191 0.14134 0.0
N1451 N 0.60305 0.60313 0.09421 0.0
H1452 H 0.67274 0.68192 0.12484 0.0
H1453 H 0.62629 0.67155 0.11181 0.0
H1454 H 0.58105 0.58337 0.08814 0.0
H1455 H 0.60061 0.63141 0.0862 0.0
H1456 H 0.74776 0.52175 0.1422 0.0
H1457 H 0.76552 0.57029 0.14309 0.0
H1458 H 0.696 0.49119 0.15258 0.0
H1459 H 0.65178 0.47962 0.1369 0.0
C1460 C 0.65839 0.37975 0.37369 0.0
C1461 C 0.6982 0.39177 0.36928 0.0
C1462 C 0.68072 0.46099 0.37854 0.0
C1463 C 0.64151 0.4487 0.3846 0.0
N1464 N 0.59465 0.39586 0.39271 0.0
N1465 N 0.74947 0.44156 0.37325 0.0
C1466 C 0.63076 0.40788 0.38355 0.0
C1467 C 0.71003 0.43176 0.37343 0.0
N1468 N 0.64661 0.34199 0.3675 0.0
N1469 N 0.68954 0.50061 0.37641 0.0
H1470 H 0.7719 0.42064 0.37022 0.0
H1471 H 0.76016 0.46942 0.37868 0.0
H1472 H 0.66865 0.52308 0.37928 0.0
H1473 H 0.71652 0.51115 0.36938 0.0
H1474 H 0.61705 0.33284 0.36754 0.0
H1475 H 0.66607 0.32049 0.36041 0.0
H1476 H 0.58673 0.36609 0.39493 0.0
H1477 H 0.57379 0.41561 0.40026 0.0
C1478 C 0.84928 0.43746 0.64454 0.0
C1479 C 0.85864 0.44207 0.61821 0.0
C1480 C 0.80818 0.39228 0.60712 0.0
C1481 C 0.80123 0.38532 0.63355 0.0
N1482 N 0.82291 0.39385 0.67724 0.0
N1483 N 0.85418 0.41649 0.57513 0.0
C1484 C 0.82418 0.40564 0.65223 0.0
C1485 C 0.84026 0.41722 0.59969 0.0
N1486 N 0.86238 0.46461 0.66212 0.0
N1487 N 0.78298 0.37702 0.58909 0.0
H1488 H 0.87849 0.43331 0.56915 0.0
H1489 H 0.84439 0.39608 0.56149 0.0
H1490 H 0.75828 0.35968 0.59357 0.0
H1491 H 0.78436 0.38484 0.56982 0.0
H1492 H 0.85284 0.46479 0.68109 0.0
H1493 H 0.87946 0.48939 0.65734 0.0
H1494 H 0.84188 0.4052 0.69121 0.0
H1495 H 0.80604 0.36967 0.68345 0.0
C1496 C 0.15973 0.45058 0.1435 0.0
C1497 C 0.14414 0.44972 0.11826 0.0
C1498 C 0.1858 0.39214 0.10819 0.0
C1499 C 0.19863 0.39074 0.13407 0.0
N1500 N 0.18988 0.41263 0.17773 0.0
N1501 N 0.13426 0.41315 0.07896 0.0
C1502 C 0.18318 0.41815 0.15218 0.0
C1503 C 0.15468 0.41847 0.10132 0.0
N1504 N 0.15409 0.48315 0.15877 0.0
N1505 N 0.20469 0.37023 0.08981 0.0
H1506 H 0.11019 0.43088 0.07365 0.0
H1507 H 0.13835 0.38848 0.06715 0.0
H1508 H 0.229 0.35194 0.09355 0.0
H1509 H 0.19893 0.37352 0.07033 0.0
H1510 H 0.1684 0.48684 0.1763 0.0
H1511 H 0.13839 0.5083 0.15294 0.0
H1512 H 0.17611 0.42963 0.19186 0.0
H1513 H 0.20574 0.38841 0.18492 0.0
C1514 C 0.31725 0.45823 0.87399 0.0
C1515 C 0.35704 0.44667 0.87895 0.0
C1516 C 0.34178 0.37843 0.86545 0.0
C1517 C 0.30128 0.38934 0.86272 0.0
N1518 N 0.24887 0.43739 0.86919 0.0
N1519 N 0.4064 0.39507 0.8831 0.0
C1520 C 0.28855 0.42864 0.8683 0.0
C1521 C 0.36919 0.40655 0.87565 0.0
N1522 N 0.30714 0.49768 0.87368 0.0
N1523 N 0.35426 0.34173 0.85748 0.0
H1524 H 0.42723 0.41488 0.89063 0.0
H1525 H 0.41558 0.36549 0.88377 0.0
H1526 H 0.33498 0.32039 0.84997 0.0
H1527 H 0.38404 0.33354 0.85638 0.0
H1528 H 0.27968 0.50805 0.86734 0.0
H1529 H 0.32733 0.5205 0.87739 0.0
H1530 H 0.23777 0.46435 0.87597 0.0
H1531 H 0.22669 0.41648 0.86551 0.0
C1532 C 0.33252 0.5719 0.59497 0.0
C1533 C 0.35899 0.55589 0.61344 0.0
C1534 C 0.33379 0.60349 0.64496 0.0
C1535 C 0.30258 0.61396 0.62799 0.0
N1536 N 0.26861 0.6025 0.58779 0.0
N1537 N 0.38042 0.55254 0.65762 0.0
C1538 C 0.30105 0.59697 0.60312 0.0
C1539 C 0.35878 0.57082 0.63886 0.0
N1540 N 0.33798 0.56401 0.56956 0.0
N1541 N 0.34014 0.6253 0.66666 0.0
H1542 H 0.39792 0.52745 0.65444 0.0
H1543 H 0.37781 0.55989 0.67692 0.0
H1544 H 0.32338 0.65043 0.67123 0.0
H1545 H 0.36471 0.62115 0.6785 0.0
H1546 H 0.32165 0.57793 0.55517 0.0
H1547 H 0.36174 0.54715 0.56273 0.0
H1548 H 0.26452 0.58716 0.57065 0.0
H1549 H 0.24389 0.61913 0.59321 0.0
C1550 C 0.13289 0.59119 0.3904 0.0
C1551 C 0.13577 0.5509 0.38258 0.0
C1552 C 0.1981 0.56489 0.36036 0.0
C1553 C 0.19396 0.60591 0.3665 0.0
N1554 N 0.15376 0.65943 0.38325 0.0
N1555 N 0.16568 0.5011 0.35546 0.0
C1556 C 0.16035 0.61951 0.38044 0.0
C1557 C 0.16676 0.53827 0.36616 0.0
N1558 N 0.10474 0.60213 0.40788 0.0
N1559 N 0.23275 0.55079 0.35014 0.0
H1560 H 0.14295 0.48073 0.35901 0.0
H1561 H 0.1851 0.49189 0.34111 0.0
H1562 H 0.25696 0.56884 0.34584 0.0
H1563 H 0.23902 0.52057 0.34821 0.0
H1564 H 0.10394 0.63005 0.41653 0.0
H1565 H 0.08378 0.58225 0.41517 0.0
H1566 H 0.12776 0.67119 0.39096 0.0
H1567 H 0.1727 0.68105 0.37575 0.0
loop_
_geom_bond_atom_site_label_1
_geom_bond_atom_site_label_2
_geom_bond_distance
_geom_bond_site_symmetry_2
_ccdc_geom_bond_type
In0 O1 2.294 . S
In0 O2 2.326 . S
In0 O6 2.266 . S
In0 O7 2.326 . S
In0 O8 2.266 . S
In0 O9 2.326 . S
In0 O11 2.294 . S
In0 O12 2.326 . S
O1 In0 2.294 . S
O1 C10 1.240 . S
O2 In0 2.326 . S
O2 C10 1.252 . S
C3 O6 1.252 . S
C3 O7 1.260 . S
C4 O11 1.240 . S
C4 O12 1.252 . S
C5 O8 1.252 . S
C5 O9 1.260 . S
O6 In0 2.266 . S
O6 C3 1.252 . S
O7 In0 2.326 . S
O7 C3 1.260 . S
O8 In0 2.266 . S
O8 C5 1.252 . S
O9 In0 2.326 . S
O9 C5 1.260 . S
C10 O1 1.240 . S
C10 O2 1.252 . S
O11 In0 2.294 . S
O11 C4 1.240 . S
O12 In0 2.326 . S
O12 C4 1.252 . S
In13 O14 2.294 1_565 S
In13 O15 2.326 . S
In13 O19 2.266 . S
In13 O20 2.326 . S
In13 O21 2.266 . S
In13 O22 2.326 1_565 S
In13 O24 2.294 . S
In13 O25 2.326 . S
O14 In13 2.294 1_545 S
O14 C23 1.240 . S
O15 In13 2.326 . S
O15 C23 1.252 1_565 S
C16 O19 1.252 1_655 S
C16 O20 1.260 1_655 S
C17 O24 1.240 . S
C17 O25 1.252 . S
C18 O21 1.252 . S
C18 O22 1.260 1_565 S
O19 In13 2.266 . S
O19 C16 1.252 1_455 S
O20 In13 2.326 . S
O20 C16 1.260 1_455 S
O21 In13 2.266 . S
O21 C18 1.252 . S
O22 In13 2.326 1_545 S
O22 C18 1.260 1_545 S
C23 O14 1.240 . S
C23 O15 1.252 1_545 S
O24 In13 2.294 . S
O24 C17 1.240 . S
O25 In13 2.326 . S
O25 C17 1.252 . S
In26 O27 2.294 . S
In26 O28 2.326 . S
In26 O32 2.266 . S
In26 O33 2.326 . S
In26 O34 2.266 . S
In26 O35 2.326 . S
In26 O37 2.294 . S
In26 O38 2.326 . S
O27 In26 2.294 . S
O27 C36 1.240 . S
O28 In26 2.326 . S
O28 C36 1.252 . S
C29 O32 1.252 . S
C29 O33 1.260 . S
C30 O37 1.240 . S
C30 O38 1.252 . S
C31 O34 1.252 . S
C31 O35 1.260 . S
O32 In26 2.266 . S
O32 C29 1.252 . S
O33 In26 2.326 . S
O33 C29 1.260 . S
O34 In26 2.266 . S
O34 C31 1.252 . S
O35 In26 2.326 . S
O35 C31 1.260 . S
C36 O27 1.240 . S
C36 O28 1.252 . S
O37 In26 2.294 . S
O37 C30 1.240 . S
O38 In26 2.326 . S
O38 C30 1.252 . S
In39 O40 2.294 1_545 S
In39 O41 2.326 . S
In39 O45 2.266 . S
In39 O46 2.326 . S
In39 O47 2.266 . S
In39 O48 2.326 1_545 S
In39 O50 2.294 . S
In39 O51 2.326 . S
O40 In39 2.294 1_565 S
O40 C49 1.240 . S
O41 In39 2.326 . S
O41 C49 1.252 1_545 S
C42 O45 1.252 . S
C42 O46 1.260 . S
C43 O50 1.240 . S
C43 O51 1.252 . S
C44 O47 1.252 . S
C44 O48 1.260 1_545 S
O45 In39 2.266 . S
O45 C42 1.252 . S
O46 In39 2.326 . S
O46 C42 1.260 . S
O47 In39 2.266 . S
O47 C44 1.252 . S
O48 In39 2.326 1_565 S
O48 C44 1.260 1_565 S
C49 O40 1.240 . S
C49 O41 1.252 1_565 S
O50 In39 2.294 . S
O50 C43 1.240 . S
O51 In39 2.326 . S
O51 C43 1.252 . S
In52 O53 2.294 . S
In52 O54 2.326 . S
In52 O58 2.266 . S
In52 O59 2.326 . S
In52 O60 2.266 . S
In52 O61 2.326 . S
In52 O63 2.294 . S
In52 O64 2.326 . S
O53 In52 2.294 . S
O53 C62 1.240 . S
O54 In52 2.326 . S
O54 C62 1.252 . S
C55 O58 1.252 . S
C55 O59 1.260 . S
C56 O63 1.240 . S
C56 O64 1.252 . S
C57 O60 1.252 . S
C57 O61 1.260 . S
O58 In52 2.266 . S
O58 C55 1.252 . S
O59 In52 2.326 . S
O59 C55 1.260 . S
O60 In52 2.266 . S
O60 C57 1.252 . S
O61 In52 2.326 . S
O61 C57 1.260 . S
C62 O53 1.240 . S
C62 O54 1.252 . S
O63 In52 2.294 . S
O63 C56 1.240 . S
O64 In52 2.326 . S
O64 C56 1.252 . S
In65 O66 2.294 1_565 S
In65 O67 2.326 . S
In65 O71 2.266 . S
In65 O72 2.326 . S
In65 O73 2.266 . S
In65 O74 2.326 1_565 S
In65 O76 2.294 . S
In65 O77 2.326 . S
O66 In65 2.294 1_545 S
O66 C75 1.240 . S
O67 In65 2.326 . S
O67 C75 1.252 1_565 S
C68 O71 1.252 . S
C68 O72 1.260 . S
C69 O76 1.240 . S
C69 O77 1.252 . S
C70 O73 1.252 . S
C70 O74 1.260 1_565 S
O71 In65 2.266 . S
O71 C68 1.252 . S
O72 In65 2.326 . S
O72 C68 1.260 . S
O73 In65 2.266 . S
O73 C70 1.252 . S
O74 In65 2.326 1_545 S
O74 C70 1.260 1_545 S
C75 O66 1.240 . S
C75 O67 1.252 1_545 S
O76 In65 2.294 . S
O76 C69 1.240 . S
O77 In65 2.326 . S
O77 C69 1.252 . S
In78 O79 2.294 . S
In78 O80 2.326 . S
In78 O84 2.266 . S
In78 O85 2.326 . S
In78 O86 2.266 . S
In78 O87 2.326 . S
In78 O89 2.294 . S
In78 O90 2.326 . S
O79 In78 2.294 . S
O79 C88 1.240 . S
O80 In78 2.326 . S
O80 C88 1.252 . S
C81 O84 1.252 . S
C81 O85 1.260 . S
C82 O89 1.240 . S
C82 O90 1.252 . S
C83 O86 1.252 . S
C83 O87 1.260 . S
O84 In78 2.266 . S
O84 C81 1.252 . S
O85 In78 2.326 . S
O85 C81 1.260 . S
O86 In78 2.266 . S
O86 C83 1.252 . S
O87 In78 2.326 . S
O87 C83 1.260 . S
C88 O79 1.240 . S
C88 O80 1.252 . S
O89 In78 2.294 . S
O89 C82 1.240 . S
O90 In78 2.326 . S
O90 C82 1.252 . S
In91 O92 2.294 . S
In91 O93 2.326 . S
In91 O97 2.266 . S
In91 O98 2.326 1_545 S
In91 O99 2.266 . S
In91 O100 2.326 . S
In91 O102 2.294 1_545 S
In91 O103 2.326 . S
O92 In91 2.294 . S
O92 C101 1.240 . S
O93 In91 2.326 . S
O93 C101 1.252 . S
C94 O97 1.252 . S
C94 O98 1.260 1_545 S
C95 O102 1.240 . S
C95 O103 1.252 1_565 S
C96 O99 1.252 1_655 S
C96 O100 1.260 1_655 S
O97 In91 2.266 . S
O97 C94 1.252 . S
O98 In91 2.326 1_565 S
O98 C94 1.260 1_565 S
O99 In91 2.266 . S
O99 C96 1.252 1_455 S
O100 In91 2.326 . S
O100 C96 1.260 1_455 S
C101 O92 1.240 . S
C101 O93 1.252 . S
O102 In91 2.294 1_565 S
O102 C95 1.240 . S
O103 In91 2.326 . S
O103 C95 1.252 1_545 S
In104 O105 2.294 . S
In104 O106 2.326 . S
In104 O110 2.266 . S
In104 O111 2.326 . S
In104 O112 2.266 . S
In104 O113 2.326 . S
In104 O115 2.294 . S
In104 O116 2.326 . S
O105 In104 2.294 . S
O105 C114 1.240 . S
O106 In104 2.326 . S
O106 C114 1.252 . S
C107 O110 1.252 . S
C107 O111 1.260 . S
C108 O115 1.240 . S
C108 O116 1.252 . S
C109 O112 1.252 . S
C109 O113 1.260 . S
O110 In104 2.266 . S
O110 C107 1.252 . S
O111 In104 2.326 . S
O111 C107 1.260 . S
O112 In104 2.266 . S
O112 C109 1.252 . S
O113 In104 2.326 . S
O113 C109 1.260 . S
C114 O105 1.240 . S
C114 O106 1.252 . S
O115 In104 2.294 . S
O115 C108 1.240 . S
O116 In104 2.326 . S
O116 C108 1.252 . S
In117 O118 2.294 . S
In117 O119 2.326 . S
In117 O123 2.266 1_545 S
In117 O124 2.326 . S
In117 O125 2.266 . S
In117 O126 2.326 . S
In117 O128 2.294 . S
In117 O129 2.326 1_545 S
O118 In117 2.294 . S
O118 C127 1.240 1_655 S
O119 In117 2.326 . S
O119 C127 1.252 1_655 S
C120 O123 1.252 . S
C120 O124 1.260 1_565 S
C121 O128 1.240 . S
C121 O129 1.252 1_545 S
C122 O125 1.252 . S
C122 O126 1.260 . S
O123 In117 2.266 1_565 S
O123 C120 1.252 . S
O124 In117 2.326 . S
O124 C120 1.260 1_545 S
O125 In117 2.266 . S
O125 C122 1.252 . S
O126 In117 2.326 . S
O126 C122 1.260 . S
C127 O118 1.240 1_455 S
C127 O119 1.252 1_455 S
O128 In117 2.294 . S
O128 C121 1.240 . S
O129 In117 2.326 1_565 S
O129 C121 1.252 1_565 S
In130 O131 2.294 . S
In130 O132 2.326 . S
In130 O136 2.266 . S
In130 O137 2.326 . S
In130 O138 2.266 . S
In130 O139 2.326 . S
In130 O141 2.294 . S
In130 O142 2.326 . S
O131 In130 2.294 . S
O131 C140 1.240 . S
O132 In130 2.326 . S
O132 C140 1.252 . S
C133 O136 1.252 . S
C133 O137 1.260 . S
C134 O141 1.240 . S
C134 O142 1.252 . S
C135 O138 1.252 . S
C135 O139 1.260 . S
O136 In130 2.266 . S
O136 C133 1.252 . S
O137 In130 2.326 . S
O137 C133 1.260 . S
O138 In130 2.266 . S
O138 C135 1.252 . S
O139 In130 2.326 . S
O139 C135 1.260 . S
C140 O131 1.240 . S
C140 O132 1.252 . S
O141 In130 2.294 . S
O141 C134 1.240 . S
O142 In130 2.326 . S
O142 C134 1.252 . S
In143 O144 2.294 . S
In143 O145 2.326 . S
In143 O149 2.266 1_565 S
In143 O150 2.326 . S
In143 O151 2.266 . S
In143 O152 2.326 . S
In143 O154 2.294 . S
In143 O155 2.326 1_565 S
O144 In143 2.294 . S
O144 C153 1.240 . S
O145 In143 2.326 . S
O145 C153 1.252 . S
C146 O149 1.252 . S
C146 O150 1.260 1_545 S
C147 O154 1.240 . S
C147 O155 1.252 1_565 S
C148 O151 1.252 . S
C148 O152 1.260 . S
O149 In143 2.266 1_545 S
O149 C146 1.252 . S
O150 In143 2.326 . S
O150 C146 1.260 1_565 S
O151 In143 2.266 . S
O151 C148 1.252 . S
O152 In143 2.326 . S
O152 C148 1.260 . S
C153 O144 1.240 . S
C153 O145 1.252 . S
O154 In143 2.294 . S
O154 C147 1.240 . S
O155 In143 2.326 1_545 S
O155 C147 1.252 1_545 S
In156 O157 2.294 . S
In156 O158 2.326 . S
In156 O162 2.266 . S
In156 O163 2.326 . S
In156 O164 2.266 . S
In156 O165 2.326 . S
In156 O167 2.294 . S
In156 O168 2.326 . S
O157 In156 2.294 . S
O157 C166 1.240 . S
O158 In156 2.326 . S
O158 C166 1.252 . S
C159 O162 1.252 . S
C159 O163 1.260 . S
C160 O167 1.240 . S
C160 O168 1.252 . S
C161 O164 1.252 . S
C161 O165 1.260 . S
O162 In156 2.266 . S
O162 C159 1.252 . S
O163 In156 2.326 . S
O163 C159 1.260 . S
O164 In156 2.266 . S
O164 C161 1.252 . S
O165 In156 2.326 . S
O165 C161 1.260 . S
C166 O157 1.240 . S
C166 O158 1.252 . S
O167 In156 2.294 . S
O167 C160 1.240 . S
O168 In156 2.326 . S
O168 C160 1.252 . S
In169 O170 2.294 . S
In169 O171 2.326 1_545 S
In169 O175 2.266 . S
In169 O176 2.326 . S
In169 O177 2.266 1_545 S
In169 O178 2.326 . S
In169 O180 2.294 . S
In169 O181 2.326 . S
O170 In169 2.294 . S
O170 C179 1.240 . S
O171 In169 2.326 1_565 S
O171 C179 1.252 1_565 S
C172 O175 1.252 . S
C172 O176 1.260 . S
C173 O180 1.240 . S
C173 O181 1.252 . S
C174 O177 1.252 . S
C174 O178 1.260 1_565 S
O175 In169 2.266 . S
O175 C172 1.252 . S
O176 In169 2.326 . S
O176 C172 1.260 . S
O177 In169 2.266 1_565 S
O177 C174 1.252 . S
O178 In169 2.326 . S
O178 C174 1.260 1_545 S
C179 O170 1.240 . S
C179 O171 1.252 1_545 S
O180 In169 2.294 . S
O180 C173 1.240 . S
O181 In169 2.326 . S
O181 C173 1.252 . S
In182 O183 2.294 . S
In182 O184 2.326 . S
In182 O188 2.266 . S
In182 O189 2.326 . S
In182 O190 2.266 . S
In182 O191 2.326 . S
In182 O193 2.294 . S
In182 O194 2.326 . S
O183 In182 2.294 . S
O183 C192 1.240 . S
O184 In182 2.326 . S
O184 C192 1.252 . S
C185 O188 1.252 . S
C185 O189 1.260 . S
C186 O193 1.240 . S
C186 O194 1.252 . S
C187 O190 1.252 . S
C187 O191 1.260 . S
O188 In182 2.266 . S
O188 C185 1.252 . S
O189 In182 2.326 . S
O189 C185 1.260 . S
O190 In182 2.266 . S
O190 C187 1.252 . S
O191 In182 2.326 . S
O191 C187 1.260 . S
C192 O183 1.240 . S
C192 O184 1.252 . S
O193 In182 2.294 . S
O193 C186 1.240 . S
O194 In182 2.326 . S
O194 C186 1.252 . S
In195 O196 2.294 . S
In195 O197 2.326 1_565 S
In195 O201 2.266 . S
In195 O202 2.326 . S
In195 O203 2.266 1_565 S
In195 O204 2.326 . S
In195 O206 2.294 . S
In195 O207 2.326 . S
O196 In195 2.294 . S
O196 C205 1.240 . S
O197 In195 2.326 1_545 S
O197 C205 1.252 1_545 S
C198 O201 1.252 . S
C198 O202 1.260 . S
C199 O206 1.240 1_455 S
C199 O207 1.252 1_455 S
C200 O203 1.252 . S
C200 O204 1.260 1_545 S
O201 In195 2.266 . S
O201 C198 1.252 . S
O202 In195 2.326 . S
O202 C198 1.260 . S
O203 In195 2.266 1_545 S
O203 C200 1.252 . S
O204 In195 2.326 . S
O204 C200 1.260 1_565 S
C205 O196 1.240 . S
C205 O197 1.252 1_565 S
O206 In195 2.294 . S
O206 C199 1.240 1_655 S
O207 In195 2.326 . S
O207 C199 1.252 1_655 S
In208 O209 2.294 . S
In208 O210 2.326 . S
In208 O214 2.266 . S
In208 O215 2.326 . S
In208 O216 2.266 . S
In208 O217 2.326 . S
In208 O219 2.294 . S
In208 O220 2.326 . S
O209 In208 2.294 . S
O209 C218 1.240 . S
O210 In208 2.326 . S
O210 C218 1.252 . S
C211 O214 1.252 . S
C211 O215 1.260 . S
C212 O219 1.240 . S
C212 O220 1.252 . S
C213 O216 1.252 . S
C213 O217 1.260 . S
O214 In208 2.266 . S
O214 C211 1.252 . S
O215 In208 2.326 . S
O215 C211 1.260 . S
O216 In208 2.266 . S
O216 C213 1.252 . S
O217 In208 2.326 . S
O217 C213 1.260 . S
C218 O209 1.240 . S
C218 O210 1.252 . S
O219 In208 2.294 . S
O219 C212 1.240 . S
O220 In208 2.326 . S
O220 C212 1.252 . S
In221 O222 2.294 . S
In221 O223 2.326 . S
In221 O227 2.266 . S
In221 O228 2.326 . S
In221 O229 2.266 . S
In221 O230 2.326 . S
In221 O232 2.294 . S
In221 O233 2.326 . S
O222 In221 2.294 . S
O222 C231 1.240 . S
O223 In221 2.326 . S
O223 C231 1.252 . S
C224 O227 1.252 . S
C224 O228 1.260 . S
C225 O232 1.240 . S
C225 O233 1.252 . S
C226 O229 1.252 . S
C226 O230 1.260 . S
O227 In221 2.266 . S
O227 C224 1.252 . S
O228 In221 2.326 . S
O228 C224 1.260 . S
O229 In221 2.266 . S
O229 C226 1.252 . S
O230 In221 2.326 . S
O230 C226 1.260 . S
C231 O222 1.240 . S
C231 O223 1.252 . S
O232 In221 2.294 . S
O232 C225 1.240 . S
O233 In221 2.326 . S
O233 C225 1.252 . S
In234 O235 2.294 . S
In234 O236 2.326 . S
In234 O240 2.266 . S
In234 O241 2.326 . S
In234 O242 2.266 . S
In234 O243 2.326 . S
In234 O245 2.294 . S
In234 O246 2.326 . S
O235 In234 2.294 . S
O235 C244 1.240 . S
O236 In234 2.326 . S
O236 C244 1.252 . S
C237 O240 1.252 . S
C237 O241 1.260 . S
C238 O245 1.240 . S
C238 O246 1.252 . S
C239 O242 1.252 . S
C239 O243 1.260 . S
O240 In234 2.266 . S
O240 C237 1.252 . S
O241 In234 2.326 . S
O241 C237 1.260 . S
O242 In234 2.266 . S
O242 C239 1.252 . S
O243 In234 2.326 . S
O243 C239 1.260 . S
C244 O235 1.240 . S
C244 O236 1.252 . S
O245 In234 2.294 . S
O245 C238 1.240 . S
O246 In234 2.326 . S
O246 C238 1.252 . S
In247 O248 2.294 . S
In247 O249 2.326 . S
In247 O253 2.266 . S
In247 O254 2.326 . S
In247 O255 2.266 . S
In247 O256 2.326 . S
In247 O258 2.294 . S
In247 O259 2.326 . S
O248 In247 2.294 . S
O248 C257 1.240 . S
O249 In247 2.326 . S
O249 C257 1.252 . S
C250 O253 1.252 1_455 S
C250 O254 1.260 1_455 S
C251 O258 1.240 . S
C251 O259 1.252 . S
C252 O255 1.252 . S
C252 O256 1.260 . S
O253 In247 2.266 . S
O253 C250 1.252 1_655 S
O254 In247 2.326 . S
O254 C250 1.260 1_655 S
O255 In247 2.266 . S
O255 C252 1.252 . S
O256 In247 2.326 . S
O256 C252 1.260 . S
C257 O248 1.240 . S
C257 O249 1.252 . S
O258 In247 2.294 . S
O258 C251 1.240 . S
O259 In247 2.326 . S
O259 C251 1.252 . S
In260 O261 2.294 . S
In260 O262 2.326 . S
In260 O266 2.266 . S
In260 O267 2.326 . S
In260 O268 2.266 . S
In260 O269 2.326 . S
In260 O271 2.294 . S
In260 O272 2.326 . S
O261 In260 2.294 . S
O261 C270 1.240 . S
O262 In260 2.326 . S
O262 C270 1.252 . S
C263 O266 1.252 . S
C263 O267 1.260 . S
C264 O271 1.240 . S
C264 O272 1.252 . S
C265 O268 1.252 . S
C265 O269 1.260 . S
O266 In260 2.266 . S
O266 C263 1.252 . S
O267 In260 2.326 . S
O267 C263 1.260 . S
O268 In260 2.266 . S
O268 C265 1.252 . S
O269 In260 2.326 . S
O269 C265 1.260 . S
C270 O261 1.240 . S
C270 O262 1.252 . S
O271 In260 2.294 . S
O271 C264 1.240 . S
O272 In260 2.326 . S
O272 C264 1.252 . S
In273 O274 2.294 . S
In273 O275 2.326 . S
In273 O279 2.266 . S
In273 O280 2.326 . S
In273 O281 2.266 . S
In273 O282 2.326 . S
In273 O284 2.294 . S
In273 O285 2.326 . S
O274 In273 2.294 . S
O274 C283 1.240 . S
O275 In273 2.326 . S
O275 C283 1.252 . S
C276 O279 1.252 1_455 S
C276 O280 1.260 1_455 S
C277 O284 1.240 . S
C277 O285 1.252 . S
C278 O281 1.252 . S
C278 O282 1.260 . S
O279 In273 2.266 . S
O279 C276 1.252 1_655 S
O280 In273 2.326 . S
O280 C276 1.260 1_655 S
O281 In273 2.266 . S
O281 C278 1.252 . S
O282 In273 2.326 . S
O282 C278 1.260 . S
C283 O274 1.240 . S
C283 O275 1.252 . S
O284 In273 2.294 . S
O284 C277 1.240 . S
O285 In273 2.326 . S
O285 C277 1.252 . S
In286 O287 2.294 . S
In286 O288 2.326 . S
In286 O292 2.266 . S
In286 O293 2.326 . S
In286 O294 2.266 . S
In286 O295 2.326 . S
In286 O297 2.294 . S
In286 O298 2.326 . S
O287 In286 2.294 . S
O287 C296 1.240 . S
O288 In286 2.326 . S
O288 C296 1.252 . S
C289 O292 1.252 . S
C289 O293 1.260 . S
C290 O297 1.240 . S
C290 O298 1.252 . S
C291 O294 1.252 . S
C291 O295 1.260 . S
O292 In286 2.266 . S
O292 C289 1.252 . S
O293 In286 2.326 . S
O293 C289 1.260 . S
O294 In286 2.266 . S
O294 C291 1.252 . S
O295 In286 2.326 . S
O295 C291 1.260 . S
C296 O287 1.240 . S
C296 O288 1.252 . S
O297 In286 2.294 . S
O297 C290 1.240 . S
O298 In286 2.326 . S
O298 C290 1.252 . S
In299 O300 2.294 . S
In299 O301 2.326 . S
In299 O305 2.266 . S
In299 O306 2.326 . S
In299 O307 2.266 . S
In299 O308 2.326 . S
In299 O310 2.294 . S
In299 O311 2.326 . S
O300 In299 2.294 . S
O300 C309 1.240 . S
O301 In299 2.326 . S
O301 C309 1.252 . S
C302 O305 1.252 . S
C302 O306 1.260 . S
C303 O310 1.240 . S
C303 O311 1.252 . S
C304 O307 1.252 . S
C304 O308 1.260 . S
O305 In299 2.266 . S
O305 C302 1.252 . S
O306 In299 2.326 . S
O306 C302 1.260 . S
O307 In299 2.266 . S
O307 C304 1.252 . S
O308 In299 2.326 . S
O308 C304 1.260 . S
C309 O300 1.240 . S
C309 O301 1.252 . S
O310 In299 2.294 . S
O310 C303 1.240 . S
O311 In299 2.326 . S
O311 C303 1.252 . S
In312 O313 2.294 . S
In312 O314 2.326 . S
In312 O318 2.266 . S
In312 O319 2.326 . S
In312 O320 2.266 . S
In312 O321 2.326 . S
In312 O323 2.294 . S
In312 O324 2.326 . S
O313 In312 2.294 . S
O313 C322 1.240 . S
O314 In312 2.326 . S
O314 C322 1.252 . S
C315 O318 1.252 . S
C315 O319 1.260 . S
C316 O323 1.240 . S
C316 O324 1.252 . S
C317 O320 1.252 . S
C317 O321 1.260 . S
O318 In312 2.266 . S
O318 C315 1.252 . S
O319 In312 2.326 . S
O319 C315 1.260 . S
O320 In312 2.266 . S
O320 C317 1.252 . S
O321 In312 2.326 . S
O321 C317 1.260 . S
C322 O313 1.240 . S
C322 O314 1.252 . S
O323 In312 2.294 . S
O323 C316 1.240 . S
O324 In312 2.326 . S
O324 C316 1.252 . S
In325 O326 2.294 . S
In325 O327 2.326 . S
In325 O331 2.266 . S
In325 O332 2.326 . S
In325 O333 2.266 . S
In325 O334 2.326 . S
In325 O336 2.294 . S
In325 O337 2.326 . S
O326 In325 2.294 . S
O326 C335 1.240 . S
O327 In325 2.326 . S
O327 C335 1.252 . S
C328 O331 1.252 . S
C328 O332 1.260 . S
C329 O336 1.240 . S
C329 O337 1.252 . S
C330 O333 1.252 . S
C330 O334 1.260 . S
O331 In325 2.266 . S
O331 C328 1.252 . S
O332 In325 2.326 . S
O332 C328 1.260 . S
O333 In325 2.266 . S
O333 C330 1.252 . S
O334 In325 2.326 . S
O334 C330 1.260 . S
C335 O326 1.240 . S
C335 O327 1.252 . S
O336 In325 2.294 . S
O336 C329 1.240 . S
O337 In325 2.326 . S
O337 C329 1.252 . S
In338 O339 2.294 . S
In338 O340 2.326 . S
In338 O344 2.266 . S
In338 O345 2.326 . S
In338 O346 2.266 . S
In338 O347 2.326 . S
In338 O349 2.294 . S
In338 O350 2.326 . S
O339 In338 2.294 . S
O339 C348 1.240 . S
O340 In338 2.326 . S
O340 C348 1.252 . S
C341 O344 1.252 . S
C341 O345 1.260 . S
C342 O349 1.240 . S
C342 O350 1.252 . S
C343 O346 1.252 . S
C343 O347 1.260 . S
O344 In338 2.266 . S
O344 C341 1.252 . S
O345 In338 2.326 . S
O345 C341 1.260 . S
O346 In338 2.266 . S
O346 C343 1.252 . S
O347 In338 2.326 . S
O347 C343 1.260 . S
C348 O339 1.240 . S
C348 O340 1.252 . S
O349 In338 2.294 . S
O349 C342 1.240 . S
O350 In338 2.326 . S
O350 C342 1.252 . S
In351 O352 2.294 . S
In351 O353 2.326 . S
In351 O357 2.266 . S
In351 O358 2.326 . S
In351 O359 2.266 . S
In351 O360 2.326 . S
In351 O362 2.294 . S
In351 O363 2.326 . S
O352 In351 2.294 . S
O352 C361 1.240 . S
O353 In351 2.326 . S
O353 C361 1.252 . S
C354 O357 1.252 . S
C354 O358 1.260 . S
C355 O362 1.240 1_655 S
C355 O363 1.252 1_655 S
C356 O359 1.252 . S
C356 O360 1.260 . S
O357 In351 2.266 . S
O357 C354 1.252 . S
O358 In351 2.326 . S
O358 C354 1.260 . S
O359 In351 2.266 . S
O359 C356 1.252 . S
O360 In351 2.326 . S
O360 C356 1.260 . S
C361 O352 1.240 . S
C361 O353 1.252 . S
O362 In351 2.294 . S
O362 C355 1.240 1_455 S
O363 In351 2.326 . S
O363 C355 1.252 1_455 S
In364 O365 2.294 . S
In364 O366 2.326 . S
In364 O370 2.266 . S
In364 O371 2.326 . S
In364 O372 2.266 . S
In364 O373 2.326 . S
In364 O375 2.294 . S
In364 O376 2.326 . S
O365 In364 2.294 . S
O365 C374 1.240 . S
O366 In364 2.326 . S
O366 C374 1.252 . S
C367 O370 1.252 . S
C367 O371 1.260 . S
C368 O375 1.240 . S
C368 O376 1.252 . S
C369 O372 1.252 . S
C369 O373 1.260 . S
O370 In364 2.266 . S
O370 C367 1.252 . S
O371 In364 2.326 . S
O371 C367 1.260 . S
O372 In364 2.266 . S
O372 C369 1.252 . S
O373 In364 2.326 . S
O373 C369 1.260 . S
C374 O365 1.240 . S
C374 O366 1.252 . S
O375 In364 2.294 . S
O375 C368 1.240 . S
O376 In364 2.326 . S
O376 C368 1.252 . S
In377 O378 2.294 . S
In377 O379 2.326 . S
In377 O383 2.266 . S
In377 O384 2.326 . S
In377 O385 2.266 . S
In377 O386 2.326 . S
In377 O388 2.294 . S
In377 O389 2.326 . S
O378 In377 2.294 . S
O378 C387 1.240 . S
O379 In377 2.326 . S
O379 C387 1.252 . S
C380 O383 1.252 . S
C380 O384 1.260 . S
C381 O388 1.240 1_655 S
C381 O389 1.252 1_655 S
C382 O385 1.252 . S
C382 O386 1.260 . S
O383 In377 2.266 . S
O383 C380 1.252 . S
O384 In377 2.326 . S
O384 C380 1.260 . S
O385 In377 2.266 . S
O385 C382 1.252 . S
O386 In377 2.326 . S
O386 C382 1.260 . S
C387 O378 1.240 . S
C387 O379 1.252 . S
O388 In377 2.294 . S
O388 C381 1.240 1_455 S
O389 In377 2.326 . S
O389 C381 1.252 1_455 S
In390 O391 2.294 . S
In390 O392 2.326 . S
In390 O396 2.266 . S
In390 O397 2.326 . S
In390 O398 2.266 . S
In390 O399 2.326 . S
In390 O401 2.294 . S
In390 O402 2.326 . S
O391 In390 2.294 . S
O391 C400 1.240 . S
O392 In390 2.326 . S
O392 C400 1.252 . S
C393 O396 1.252 . S
C393 O397 1.260 . S
C394 O401 1.240 . S
C394 O402 1.252 . S
C395 O398 1.252 . S
C395 O399 1.260 . S
O396 In390 2.266 . S
O396 C393 1.252 . S
O397 In390 2.326 . S
O397 C393 1.260 . S
O398 In390 2.266 . S
O398 C395 1.252 . S
O399 In390 2.326 . S
O399 C395 1.260 . S
C400 O391 1.240 . S
C400 O392 1.252 . S
O401 In390 2.294 . S
O401 C394 1.240 . S
O402 In390 2.326 . S
O402 C394 1.252 . S
In403 O404 2.294 . S
In403 O405 2.326 . S
In403 O409 2.266 . S
In403 O410 2.326 . S
In403 O411 2.266 . S
In403 O412 2.326 . S
In403 O414 2.294 . S
In403 O415 2.326 . S
O404 In403 2.294 . S
O404 C413 1.240 . S
O405 In403 2.326 . S
O405 C413 1.252 . S
C406 O409 1.252 . S
C406 O410 1.260 . S
C407 O414 1.240 . S
C407 O415 1.252 . S
C408 O411 1.252 . S
C408 O412 1.260 . S
O409 In403 2.266 . S
O409 C406 1.252 . S
O410 In403 2.326 . S
O410 C406 1.260 . S
O411 In403 2.266 . S
O411 C408 1.252 . S
O412 In403 2.326 . S
O412 C408 1.260 . S
C413 O404 1.240 . S
C413 O405 1.252 . S
O414 In403 2.294 . S
O414 C407 1.240 . S
O415 In403 2.326 . S
O415 C407 1.252 . S
C416 C417 1.363 . S
C416 C422 1.379 . S
C416 N424 1.356 . S
C417 C416 1.363 . S
C417 C423 1.363 . S
C418 C419 1.363 . S
C418 C423 1.379 . S
C418 N425 1.356 . S
C419 C418 1.363 . S
C419 C422 1.363 . S
N420 C422 1.356 . S
N420 H432 0.984 . S
N420 H433 0.985 . S
N421 C423 1.356 . S
N421 H426 0.984 . S
N421 H427 0.985 . S
C422 C416 1.379 . S
C422 C419 1.363 . S
C422 N420 1.356 . S
C423 C417 1.363 . S
C423 C418 1.379 . S
C423 N421 1.356 . S
N424 C416 1.356 . S
N424 H430 0.984 . S
N424 H431 0.984 . S
N425 C418 1.356 . S
N425 H428 0.984 . S
N425 H429 0.985 . S
H426 N421 0.984 . S
H427 N421 0.985 . S
H428 N425 0.984 . S
H429 N425 0.985 . S
H430 N424 0.984 . S
H431 N424 0.984 . S
H432 N420 0.984 . S
H433 N420 0.985 . S
C434 C435 1.363 . S
C434 C440 1.379 . S
C434 N442 1.356 . S
C435 C434 1.363 . S
C435 C441 1.363 . S
C436 C437 1.363 . S
C436 C441 1.379 . S
C436 N443 1.356 . S
C437 C436 1.363 . S
C437 C440 1.363 . S
N438 C440 1.356 . S
N438 H450 0.984 . S
N438 H451 0.985 . S
N439 C441 1.356 . S
N439 H444 0.984 1_655 S
N439 H445 0.985 . S
C440 C434 1.379 . S
C440 C437 1.363 . S
C440 N438 1.356 . S
C441 C435 1.363 . S
C441 C436 1.379 . S
C441 N439 1.356 . S
N442 C434 1.356 . S
N442 H448 0.984 . S
N442 H449 0.984 . S
N443 C436 1.356 . S
N443 H446 0.984 . S
N443 H447 0.985 . S
H444 N439 0.984 1_455 S
H445 N439 0.985 . S
H446 N443 0.984 . S
H447 N443 0.985 . S
H448 N442 0.984 . S
H449 N442 0.984 . S
H450 N438 0.984 . S
H451 N438 0.985 . S
C452 C453 1.363 . S
C452 C458 1.379 . S
C452 N460 1.356 . S
C453 C452 1.363 . S
C453 C459 1.363 . S
C454 C455 1.363 . S
C454 C459 1.379 . S
C454 N461 1.356 . S
C455 C454 1.363 . S
C455 C458 1.363 . S
N456 C458 1.356 . S
N456 H468 0.984 . S
N456 H469 0.985 . S
N457 C459 1.356 . S
N457 H462 0.984 . S
N457 H463 0.985 . S
C458 C452 1.379 . S
C458 C455 1.363 . S
C458 N456 1.356 . S
C459 C453 1.363 . S
C459 C454 1.379 . S
C459 N457 1.356 . S
N460 C452 1.356 . S
N460 H466 0.984 . S
N460 H467 0.984 . S
N461 C454 1.356 . S
N461 H464 0.984 . S
N461 H465 0.985 . S
H462 N457 0.984 . S
H463 N457 0.985 . S
H464 N461 0.984 . S
H465 N461 0.985 . S
H466 N460 0.984 . S
H467 N460 0.984 . S
H468 N456 0.984 . S
H469 N456 0.985 . S
C470 C471 1.363 . S
C470 C476 1.379 . S
C470 N478 1.356 . S
C471 C470 1.363 . S
C471 C477 1.363 . S
C472 C473 1.363 . S
C472 C477 1.379 . S
C472 N479 1.356 . S
C473 C472 1.363 . S
C473 C476 1.363 . S
N474 C476 1.356 . S
N474 H486 0.984 . S
N474 H487 0.985 . S
N475 C477 1.356 . S
N475 H480 0.984 . S
N475 H481 0.985 . S
C476 C470 1.379 . S
C476 C473 1.363 . S
C476 N474 1.356 . S
C477 C471 1.363 . S
C477 C472 1.379 . S
C477 N475 1.356 . S
N478 C470 1.356 . S
N478 H484 0.984 . S
N478 H485 0.984 . S
N479 C472 1.356 . S
N479 H482 0.984 . S
N479 H483 0.985 . S
H480 N475 0.984 . S
H481 N475 0.985 . S
H482 N479 0.984 . S
H483 N479 0.985 . S
H484 N478 0.984 . S
H485 N478 0.984 . S
H486 N474 0.984 . S
H487 N474 0.985 . S
C488 C489 1.363 . S
C488 C494 1.379 . S
C488 N496 1.356 . S
C489 C488 1.363 . S
C489 C495 1.363 . S
C490 C491 1.363 . S
C490 C495 1.379 . S
C490 N497 1.356 . S
C491 C490 1.363 . S
C491 C494 1.363 . S
N492 C494 1.356 . S
N492 H504 0.984 . S
N492 H505 0.985 . S
N493 C495 1.356 . S
N493 H498 0.984 . S
N493 H499 0.985 . S
C494 C488 1.379 . S
C494 C491 1.363 . S
C494 N492 1.356 . S
C495 C489 1.363 . S
C495 C490 1.379 . S
C495 N493 1.356 . S
N496 C488 1.356 . S
N496 H502 0.984 . S
N496 H503 0.984 . S
N497 C490 1.356 . S
N497 H500 0.984 . S
N497 H501 0.985 . S
H498 N493 0.984 . S
H499 N493 0.985 . S
H500 N497 0.984 . S
H501 N497 0.985 . S
H502 N496 0.984 . S
H503 N496 0.984 . S
H504 N492 0.984 . S
H505 N492 0.985 . S
C506 C507 1.363 . S
C506 C512 1.379 . S
C506 N514 1.356 . S
C507 C506 1.363 . S
C507 C513 1.363 . S
C508 C509 1.363 . S
C508 C513 1.379 . S
C508 N515 1.356 . S
C509 C508 1.363 . S
C509 C512 1.363 . S
N510 C512 1.356 . S
N510 H522 0.984 . S
N510 H523 0.985 . S
N511 C513 1.356 . S
N511 H516 0.984 . S
N511 H517 0.985 . S
C512 C506 1.379 . S
C512 C509 1.363 . S
C512 N510 1.356 . S
C513 C507 1.363 . S
C513 C508 1.379 . S
C513 N511 1.356 . S
N514 C506 1.356 . S
N514 H520 0.984 . S
N514 H521 0.984 . S
N515 C508 1.356 . S
N515 H518 0.984 . S
N515 H519 0.985 . S
H516 N511 0.984 . S
H517 N511 0.985 . S
H518 N515 0.984 . S
H519 N515 0.985 . S
H520 N514 0.984 . S
H521 N514 0.984 . S
H522 N510 0.984 . S
H523 N510 0.985 . S
C524 C525 1.363 . S
C524 C530 1.379 . S
C524 N532 1.356 . S
C525 C524 1.363 . S
C525 C531 1.363 . S
C526 C527 1.363 . S
C526 C531 1.379 . S
C526 N533 1.356 . S
C527 C526 1.363 . S
C527 C530 1.363 . S
N528 C530 1.356 . S
N528 H540 0.984 . S
N528 H541 0.985 . S
N529 C531 1.356 . S
N529 H534 0.984 . S
N529 H535 0.985 . S
C530 C524 1.379 . S
C530 C527 1.363 . S
C530 N528 1.356 . S
C531 C525 1.363 . S
C531 C526 1.379 . S
C531 N529 1.356 . S
N532 C524 1.356 . S
N532 H538 0.984 . S
N532 H539 0.984 . S
N533 C526 1.356 . S
N533 H536 0.984 . S
N533 H537 0.985 . S
H534 N529 0.984 . S
H535 N529 0.985 . S
H536 N533 0.984 . S
H537 N533 0.985 . S
H538 N532 0.984 . S
H539 N532 0.984 . S
H540 N528 0.984 . S
H541 N528 0.985 . S
C542 C543 1.363 . S
C542 C548 1.379 . S
C542 N550 1.356 . S
C543 C542 1.363 . S
C543 C549 1.363 . S
C544 C545 1.363 . S
C544 C549 1.379 . S
C544 N551 1.356 . S
C545 C544 1.363 . S
C545 C548 1.363 . S
N546 C548 1.356 . S
N546 H558 0.984 . S
N546 H559 0.985 . S
N547 C549 1.356 . S
N547 H552 0.984 . S
N547 H553 0.985 . S
C548 C542 1.379 . S
C548 C545 1.363 . S
C548 N546 1.356 . S
C549 C543 1.363 . S
C549 C544 1.379 . S
C549 N547 1.356 . S
N550 C542 1.356 . S
N550 H556 0.984 . S
N550 H557 0.984 . S
N551 C544 1.356 . S
N551 H554 0.984 . S
N551 H555 0.985 . S
H552 N547 0.984 . S
H553 N547 0.985 . S
H554 N551 0.984 . S
H555 N551 0.985 . S
H556 N550 0.984 . S
H557 N550 0.984 . S
H558 N546 0.984 . S
H559 N546 0.985 . S
C560 C561 1.363 . S
C560 C566 1.379 . S
C560 N568 1.356 . S
C561 C560 1.363 . S
C561 C567 1.363 . S
C562 C563 1.363 . S
C562 C567 1.379 . S
C562 N569 1.356 . S
C563 C562 1.363 . S
C563 C566 1.363 . S
N564 C566 1.356 . S
N564 H576 0.984 . S
N564 H577 0.985 . S
N565 C567 1.356 . S
N565 H570 0.984 . S
N565 H571 0.985 . S
C566 C560 1.379 . S
C566 C563 1.363 . S
C566 N564 1.356 . S
C567 C561 1.363 . S
C567 C562 1.379 . S
C567 N565 1.356 . S
N568 C560 1.356 . S
N568 H574 0.984 . S
N568 H575 0.984 . S
N569 C562 1.356 . S
N569 H572 0.984 . S
N569 H573 0.985 . S
H570 N565 0.984 . S
H571 N565 0.985 . S
H572 N569 0.984 . S
H573 N569 0.985 . S
H574 N568 0.984 . S
H575 N568 0.984 . S
H576 N564 0.984 . S
H577 N564 0.985 . S
C578 C579 1.363 . S
C578 C584 1.379 . S
C578 N586 1.356 . S
C579 C578 1.363 . S
C579 C585 1.363 . S
C580 C581 1.363 . S
C580 C585 1.379 . S
C580 N587 1.356 . S
C581 C580 1.363 . S
C581 C584 1.363 . S
N582 C584 1.356 . S
N582 H594 0.984 . S
N582 H595 0.985 . S
N583 C585 1.356 . S
N583 H588 0.984 . S
N583 H589 0.985 . S
C584 C578 1.379 . S
C584 C581 1.363 . S
C584 N582 1.356 . S
C585 C579 1.363 . S
C585 C580 1.379 . S
C585 N583 1.356 . S
N586 C578 1.356 . S
N586 H592 0.984 . S
N586 H593 0.984 . S
N587 C580 1.356 . S
N587 H590 0.984 . S
N587 H591 0.985 . S
H588 N583 0.984 . S
H589 N583 0.985 . S
H590 N587 0.984 . S
H591 N587 0.985 . S
H592 N586 0.984 . S
H593 N586 0.984 . S
H594 N582 0.984 . S
H595 N582 0.985 . S
C596 C597 1.363 . S
C596 C602 1.379 . S
C596 N604 1.356 . S
C597 C596 1.363 . S
C597 C603 1.363 . S
C598 C599 1.363 . S
C598 C603 1.379 . S
C598 N605 1.356 . S
C599 C598 1.363 . S
C599 C602 1.363 . S
N600 C602 1.356 . S
N600 H612 0.984 . S
N600 H613 0.985 . S
N601 C603 1.356 . S
N601 H606 0.984 . S
N601 H607 0.985 . S
C602 C596 1.379 . S
C602 C599 1.363 . S
C602 N600 1.356 . S
C603 C597 1.363 . S
C603 C598 1.379 . S
C603 N601 1.356 . S
N604 C596 1.356 . S
N604 H610 0.984 . S
N604 H611 0.984 . S
N605 C598 1.356 . S
N605 H608 0.984 . S
N605 H609 0.985 . S
H606 N601 0.984 . S
H607 N601 0.985 . S
H608 N605 0.984 . S
H609 N605 0.985 . S
H610 N604 0.984 . S
H611 N604 0.984 . S
H612 N600 0.984 . S
H613 N600 0.985 . S
C614 C615 1.363 . S
C614 C620 1.379 . S
C614 N622 1.356 . S
C615 C614 1.363 . S
C615 C621 1.363 . S
C616 C617 1.363 . S
C616 C621 1.379 . S
C616 N623 1.356 . S
C617 C616 1.363 . S
C617 C620 1.363 . S
N618 C620 1.356 . S
N618 H630 0.984 . S
N618 H631 0.985 . S
N619 C621 1.356 . S
N619 H624 0.984 . S
N619 H625 0.985 . S
C620 C614 1.379 . S
C620 C617 1.363 . S
C620 N618 1.356 . S
C621 C615 1.363 . S
C621 C616 1.379 . S
C621 N619 1.356 . S
N622 C614 1.356 . S
N622 H628 0.984 . S
N622 H629 0.984 . S
N623 C616 1.356 . S
N623 H626 0.984 . S
N623 H627 0.985 . S
H624 N619 0.984 . S
H625 N619 0.985 . S
H626 N623 0.984 . S
H627 N623 0.985 . S
H628 N622 0.984 . S
H629 N622 0.984 . S
H630 N618 0.984 . S
H631 N618 0.985 . S
C632 C633 1.363 . S
C632 C638 1.379 . S
C632 N640 1.356 . S
C633 C632 1.363 . S
C633 C639 1.363 . S
C634 C635 1.363 . S
C634 C639 1.379 . S
C634 N641 1.356 . S
C635 C634 1.363 . S
C635 C638 1.363 . S
N636 C638 1.356 . S
N636 H648 0.984 . S
N636 H649 0.985 . S
N637 C639 1.356 . S
N637 H642 0.984 . S
N637 H643 0.985 . S
C638 C632 1.379 . S
C638 C635 1.363 . S
C638 N636 1.356 . S
C639 C633 1.363 . S
C639 C634 1.379 . S
C639 N637 1.356 . S
N640 C632 1.356 . S
N640 H646 0.984 . S
N640 H647 0.984 . S
N641 C634 1.356 . S
N641 H644 0.984 . S
N641 H645 0.985 . S
H642 N637 0.984 . S
H643 N637 0.985 . S
H644 N641 0.984 . S
H645 N641 0.985 . S
H646 N640 0.984 . S
H647 N640 0.984 . S
H648 N636 0.984 . S
H649 N636 0.985 . S
C650 C651 1.363 . S
C650 C656 1.379 . S
C650 N658 1.356 . S
C651 C650 1.363 . S
C651 C657 1.363 . S
C652 C653 1.363 . S
C652 C657 1.379 . S
C652 N659 1.356 . S
C653 C652 1.363 . S
C653 C656 1.363 . S
N654 C656 1.356 . S
N654 H666 0.984 . S
N654 H667 0.985 . S
N655 C657 1.356 . S
N655 H660 0.984 . S
N655 H661 0.985 . S
C656 C650 1.379 . S
C656 C653 1.363 . S
C656 N654 1.356 . S
C657 C651 1.363 . S
C657 C652 1.379 . S
C657 N655 1.356 . S
N658 C650 1.356 . S
N658 H664 0.984 . S
N658 H665 0.984 . S
N659 C652 1.356 . S
N659 H662 0.984 . S
N659 H663 0.985 . S
H660 N655 0.984 . S
H661 N655 0.985 . S
H662 N659 0.984 . S
H663 N659 0.985 . S
H664 N658 0.984 . S
H665 N658 0.984 . S
H666 N654 0.984 . S
H667 N654 0.985 . S
C668 C669 1.363 . S
C668 C674 1.379 . S
C668 N676 1.356 . S
C669 C668 1.363 . S
C669 C675 1.363 . S
C670 C671 1.363 . S
C670 C675 1.379 . S
C670 N677 1.356 . S
C671 C670 1.363 . S
C671 C674 1.363 . S
N672 C674 1.356 . S
N672 H684 0.984 . S
N672 H685 0.985 . S
N673 C675 1.356 . S
N673 H678 0.984 . S
N673 H679 0.985 . S
C674 C668 1.379 . S
C674 C671 1.363 . S
C674 N672 1.356 . S
C675 C669 1.363 . S
C675 C670 1.379 . S
C675 N673 1.356 . S
N676 C668 1.356 . S
N676 H682 0.984 . S
N676 H683 0.984 . S
N677 C670 1.356 . S
N677 H680 0.984 . S
N677 H681 0.985 . S
H678 N673 0.984 . S
H679 N673 0.985 . S
H680 N677 0.984 . S
H681 N677 0.985 . S
H682 N676 0.984 . S
H683 N676 0.984 . S
H684 N672 0.984 . S
H685 N672 0.985 . S
C686 C687 1.363 . S
C686 C692 1.379 . S
C686 N694 1.356 . S
C687 C686 1.363 . S
C687 C693 1.363 . S
C688 C689 1.363 . S
C688 C693 1.379 . S
C688 N695 1.356 . S
C689 C688 1.363 . S
C689 C692 1.363 . S
N690 C692 1.356 . S
N690 H702 0.984 . S
N690 H703 0.985 . S
N691 C693 1.356 . S
N691 H696 0.984 . S
N691 H697 0.985 . S
C692 C686 1.379 . S
C692 C689 1.363 . S
C692 N690 1.356 . S
C693 C687 1.363 . S
C693 C688 1.379 . S
C693 N691 1.356 . S
N694 C686 1.356 . S
N694 H700 0.984 . S
N694 H701 0.984 . S
N695 C688 1.356 . S
N695 H698 0.984 . S
N695 H699 0.985 . S
H696 N691 0.984 . S
H697 N691 0.985 . S
H698 N695 0.984 . S
H699 N695 0.985 . S
H700 N694 0.984 . S
H701 N694 0.984 . S
H702 N690 0.984 . S
H703 N690 0.985 . S
C704 C705 1.363 . S
C704 C710 1.379 . S
C704 N712 1.356 . S
C705 C704 1.363 . S
C705 C711 1.363 . S
C706 C707 1.363 . S
C706 C711 1.379 . S
C706 N713 1.356 . S
C707 C706 1.363 . S
C707 C710 1.363 . S
N708 C710 1.356 . S
N708 H720 0.984 . S
N708 H721 0.985 . S
N709 C711 1.356 . S
N709 H714 0.984 . S
N709 H715 0.985 . S
C710 C704 1.379 . S
C710 C707 1.363 . S
C710 N708 1.356 . S
C711 C705 1.363 . S
C711 C706 1.379 . S
C711 N709 1.356 . S
N712 C704 1.356 . S
N712 H718 0.984 . S
N712 H719 0.984 . S
N713 C706 1.356 . S
N713 H716 0.984 . S
N713 H717 0.985 . S
H714 N709 0.984 . S
H715 N709 0.985 . S
H716 N713 0.984 . S
H717 N713 0.985 . S
H718 N712 0.984 . S
H719 N712 0.984 . S
H720 N708 0.984 . S
H721 N708 0.985 . S
C722 C723 1.363 . S
C722 C728 1.379 . S
C722 N730 1.356 . S
C723 C722 1.363 . S
C723 C729 1.363 . S
C724 C725 1.363 . S
C724 C729 1.379 . S
C724 N731 1.356 . S
C725 C724 1.363 . S
C725 C728 1.363 . S
N726 C728 1.356 . S
N726 H738 0.984 . S
N726 H739 0.985 . S
N727 C729 1.356 . S
N727 H732 0.984 . S
N727 H733 0.985 . S
C728 C722 1.379 . S
C728 C725 1.363 . S
C728 N726 1.356 . S
C729 C723 1.363 . S
C729 C724 1.379 . S
C729 N727 1.356 . S
N730 C722 1.356 . S
N730 H736 0.984 . S
N730 H737 0.984 . S
N731 C724 1.356 . S
N731 H734 0.984 . S
N731 H735 0.985 . S
H732 N727 0.984 . S
H733 N727 0.985 . S
H734 N731 0.984 . S
H735 N731 0.985 . S
H736 N730 0.984 . S
H737 N730 0.984 . S
H738 N726 0.984 . S
H739 N726 0.985 . S
C740 C741 1.363 . S
C740 C746 1.379 . S
C740 N748 1.356 . S
C741 C740 1.363 . S
C741 C747 1.363 . S
C742 C743 1.363 . S
C742 C747 1.379 . S
C742 N749 1.356 . S
C743 C742 1.363 . S
C743 C746 1.363 . S
N744 C746 1.356 . S
N744 H756 0.984 . S
N744 H757 0.985 . S
N745 C747 1.356 . S
N745 H750 0.984 . S
N745 H751 0.985 . S
C746 C740 1.379 . S
C746 C743 1.363 . S
C746 N744 1.356 . S
C747 C741 1.363 . S
C747 C742 1.379 . S
C747 N745 1.356 . S
N748 C740 1.356 . S
N748 H754 0.984 . S
N748 H755 0.984 . S
N749 C742 1.356 . S
N749 H752 0.984 . S
N749 H753 0.985 . S
H750 N745 0.984 . S
H751 N745 0.985 . S
H752 N749 0.984 . S
H753 N749 0.985 . S
H754 N748 0.984 . S
H755 N748 0.984 . S
H756 N744 0.984 . S
H757 N744 0.985 . S
C758 C759 1.363 . S
C758 C764 1.379 . S
C758 N766 1.356 . S
C759 C758 1.363 . S
C759 C765 1.363 . S
C760 C761 1.363 . S
C760 C765 1.379 . S
C760 N767 1.356 . S
C761 C760 1.363 . S
C761 C764 1.363 . S
N762 C764 1.356 . S
N762 H774 0.984 . S
N762 H775 0.985 1_455 S
N763 C765 1.356 . S
N763 H768 0.984 . S
N763 H769 0.985 . S
C764 C758 1.379 . S
C764 C761 1.363 . S
C764 N762 1.356 . S
C765 C759 1.363 . S
C765 C760 1.379 . S
C765 N763 1.356 . S
N766 C758 1.356 . S
N766 H772 0.984 . S
N766 H773 0.984 . S
N767 C760 1.356 . S
N767 H770 0.984 . S
N767 H771 0.985 . S
H768 N763 0.984 . S
H769 N763 0.985 . S
H770 N767 0.984 . S
H771 N767 0.985 . S
H772 N766 0.984 . S
H773 N766 0.984 . S
H774 N762 0.984 . S
H775 N762 0.985 1_655 S
C776 C777 1.363 . S
C776 C782 1.379 . S
C776 N784 1.356 . S
C777 C776 1.363 . S
C777 C783 1.363 . S
C778 C779 1.363 . S
C778 C783 1.379 . S
C778 N785 1.356 . S
C779 C778 1.363 . S
C779 C782 1.363 . S
N780 C782 1.356 . S
N780 H792 0.984 . S
N780 H793 0.985 . S
N781 C783 1.356 . S
N781 H786 0.984 . S
N781 H787 0.985 . S
C782 C776 1.379 . S
C782 C779 1.363 . S
C782 N780 1.356 . S
C783 C777 1.363 . S
C783 C778 1.379 . S
C783 N781 1.356 . S
N784 C776 1.356 . S
N784 H790 0.984 . S
N784 H791 0.984 . S
N785 C778 1.356 . S
N785 H788 0.984 . S
N785 H789 0.985 . S
H786 N781 0.984 . S
H787 N781 0.985 . S
H788 N785 0.984 . S
H789 N785 0.985 . S
H790 N784 0.984 . S
H791 N784 0.984 . S
H792 N780 0.984 . S
H793 N780 0.985 . S
C794 C795 1.363 . S
C794 C800 1.379 . S
C794 N802 1.356 . S
C795 C794 1.363 . S
C795 C801 1.363 . S
C796 C797 1.363 . S
C796 C801 1.379 . S
C796 N803 1.356 . S
C797 C796 1.363 . S
C797 C800 1.363 . S
N798 C800 1.356 . S
N798 H810 0.984 . S
N798 H811 0.985 . S
N799 C801 1.356 . S
N799 H804 0.984 . S
N799 H805 0.985 . S
C800 C794 1.379 . S
C800 C797 1.363 . S
C800 N798 1.356 . S
C801 C795 1.363 . S
C801 C796 1.379 . S
C801 N799 1.356 . S
N802 C794 1.356 . S
N802 H808 0.984 . S
N802 H809 0.984 . S
N803 C796 1.356 . S
N803 H806 0.984 . S
N803 H807 0.985 . S
H804 N799 0.984 . S
H805 N799 0.985 . S
H806 N803 0.984 . S
H807 N803 0.985 . S
H808 N802 0.984 . S
H809 N802 0.984 . S
H810 N798 0.984 . S
H811 N798 0.985 . S
C812 C813 1.363 . S
C812 C818 1.379 . S
C812 N820 1.356 . S
C813 C812 1.363 . S
C813 C819 1.363 . S
C814 C815 1.363 . S
C814 C819 1.379 . S
C814 N821 1.356 . S
C815 C814 1.363 . S
C815 C818 1.363 . S
N816 C818 1.356 . S
N816 H828 0.984 . S
N816 H829 0.985 . S
N817 C819 1.356 . S
N817 H822 0.984 . S
N817 H823 0.985 . S
C818 C812 1.379 . S
C818 C815 1.363 . S
C818 N816 1.356 . S
C819 C813 1.363 . S
C819 C814 1.379 . S
C819 N817 1.356 . S
N820 C812 1.356 . S
N820 H826 0.984 . S
N820 H827 0.984 . S
N821 C814 1.356 . S
N821 H824 0.984 . S
N821 H825 0.985 . S
H822 N817 0.984 . S
H823 N817 0.985 . S
H824 N821 0.984 . S
H825 N821 0.985 . S
H826 N820 0.984 . S
H827 N820 0.984 . S
H828 N816 0.984 . S
H829 N816 0.985 . S
C830 C831 1.363 . S
C830 C836 1.379 . S
C830 N838 1.356 . S
C831 C830 1.363 . S
C831 C837 1.363 . S
C832 C833 1.363 . S
C832 C837 1.379 . S
C832 N839 1.356 . S
C833 C832 1.363 . S
C833 C836 1.363 . S
N834 C836 1.356 . S
N834 H846 0.984 . S
N834 H847 0.985 . S
N835 C837 1.356 . S
N835 H840 0.984 . S
N835 H841 0.985 . S
C836 C830 1.379 . S
C836 C833 1.363 . S
C836 N834 1.356 . S
C837 C831 1.363 . S
C837 C832 1.379 . S
C837 N835 1.356 . S
N838 C830 1.356 . S
N838 H844 0.984 . S
N838 H845 0.984 . S
N839 C832 1.356 . S
N839 H842 0.984 . S
N839 H843 0.985 . S
H840 N835 0.984 . S
H841 N835 0.985 . S
H842 N839 0.984 . S
H843 N839 0.985 . S
H844 N838 0.984 . S
H845 N838 0.984 . S
H846 N834 0.984 . S
H847 N834 0.985 . S
C848 C849 1.363 . S
C848 C854 1.379 . S
C848 N856 1.356 . S
C849 C848 1.363 . S
C849 C855 1.363 . S
C850 C851 1.363 . S
C850 C855 1.379 . S
C850 N857 1.356 . S
C851 C850 1.363 . S
C851 C854 1.363 . S
N852 C854 1.356 . S
N852 H864 0.984 . S
N852 H865 0.985 . S
N853 C855 1.356 . S
N853 H858 0.984 . S
N853 H859 0.985 . S
C854 C848 1.379 . S
C854 C851 1.363 . S
C854 N852 1.356 . S
C855 C849 1.363 . S
C855 C850 1.379 . S
C855 N853 1.356 . S
N856 C848 1.356 . S
N856 H862 0.984 . S
N856 H863 0.984 . S
N857 C850 1.356 . S
N857 H860 0.984 . S
N857 H861 0.985 . S
H858 N853 0.984 . S
H859 N853 0.985 . S
H860 N857 0.984 . S
H861 N857 0.985 . S
H862 N856 0.984 . S
H863 N856 0.984 . S
H864 N852 0.984 . S
H865 N852 0.985 . S
C866 C867 1.363 . S
C866 C872 1.379 . S
C866 N874 1.356 . S
C867 C866 1.363 . S
C867 C873 1.363 . S
C868 C869 1.363 . S
C868 C873 1.379 . S
C868 N875 1.356 . S
C869 C868 1.363 . S
C869 C872 1.363 . S
N870 C872 1.356 . S
N870 H882 0.984 . S
N870 H883 0.985 . S
N871 C873 1.356 . S
N871 H876 0.984 . S
N871 H877 0.985 . S
C872 C866 1.379 . S
C872 C869 1.363 . S
C872 N870 1.356 . S
C873 C867 1.363 . S
C873 C868 1.379 . S
C873 N871 1.356 . S
N874 C866 1.356 . S
N874 H880 0.984 . S
N874 H881 0.984 . S
N875 C868 1.356 . S
N875 H878 0.984 . S
N875 H879 0.985 . S
H876 N871 0.984 . S
H877 N871 0.985 . S
H878 N875 0.984 . S
H879 N875 0.985 . S
H880 N874 0.984 . S
H881 N874 0.984 . S
H882 N870 0.984 . S
H883 N870 0.985 . S
C884 C885 1.363 . S
C884 C890 1.379 . S
C884 N892 1.356 . S
C885 C884 1.363 . S
C885 C891 1.363 . S
C886 C887 1.363 . S
C886 C891 1.379 . S
C886 N893 1.356 . S
C887 C886 1.363 . S
C887 C890 1.363 . S
N888 C890 1.356 . S
N888 H900 0.984 . S
N888 H901 0.985 . S
N889 C891 1.356 . S
N889 H894 0.984 . S
N889 H895 0.985 . S
C890 C884 1.379 . S
C890 C887 1.363 . S
C890 N888 1.356 . S
C891 C885 1.363 . S
C891 C886 1.379 . S
C891 N889 1.356 . S
N892 C884 1.356 . S
N892 H898 0.984 . S
N892 H899 0.984 . S
N893 C886 1.356 . S
N893 H896 0.984 . S
N893 H897 0.985 . S
H894 N889 0.984 . S
H895 N889 0.985 . S
H896 N893 0.984 . S
H897 N893 0.985 . S
H898 N892 0.984 . S
H899 N892 0.984 . S
H900 N888 0.984 . S
H901 N888 0.985 . S
C902 C903 1.363 . S
C902 C908 1.379 . S
C902 N910 1.356 . S
C903 C902 1.363 . S
C903 C909 1.363 . S
C904 C905 1.363 . S
C904 C909 1.379 . S
C904 N911 1.356 . S
C905 C904 1.363 . S
C905 C908 1.363 . S
N906 C908 1.356 . S
N906 H918 0.984 . S
N906 H919 0.985 . S
N907 C909 1.356 . S
N907 H912 0.984 . S
N907 H913 0.985 . S
C908 C902 1.379 . S
C908 C905 1.363 . S
C908 N906 1.356 . S
C909 C903 1.363 . S
C909 C904 1.379 . S
C909 N907 1.356 . S
N910 C902 1.356 . S
N910 H916 0.984 . S
N910 H917 0.984 1_655 S
N911 C904 1.356 . S
N911 H914 0.984 . S
N911 H915 0.985 . S
H912 N907 0.984 . S
H913 N907 0.985 . S
H914 N911 0.984 . S
H915 N911 0.985 . S
H916 N910 0.984 . S
H917 N910 0.984 1_455 S
H918 N906 0.984 . S
H919 N906 0.985 . S
C920 C921 1.363 . S
C920 C926 1.379 . S
C920 N928 1.356 . S
C921 C920 1.363 . S
C921 C927 1.363 . S
C922 C923 1.363 . S
C922 C927 1.379 . S
C922 N929 1.356 . S
C923 C922 1.363 . S
C923 C926 1.363 . S
N924 C926 1.356 . S
N924 H936 0.984 . S
N924 H937 0.985 . S
N925 C927 1.356 . S
N925 H930 0.984 . S
N925 H931 0.985 . S
C926 C920 1.379 . S
C926 C923 1.363 . S
C926 N924 1.356 . S
C927 C921 1.363 . S
C927 C922 1.379 . S
C927 N925 1.356 . S
N928 C920 1.356 . S
N928 H934 0.984 . S
N928 H935 0.984 . S
N929 C922 1.356 . S
N929 H932 0.984 . S
N929 H933 0.985 . S
H930 N925 0.984 . S
H931 N925 0.985 . S
H932 N929 0.984 . S
H933 N929 0.985 . S
H934 N928 0.984 . S
H935 N928 0.984 . S
H936 N924 0.984 . S
H937 N924 0.985 . S
C938 C939 1.363 . S
C938 C944 1.379 . S
C938 N946 1.356 . S
C939 C938 1.363 . S
C939 C945 1.363 . S
C940 C941 1.363 . S
C940 C945 1.379 . S
C940 N947 1.356 . S
C941 C940 1.363 . S
C941 C944 1.363 . S
N942 C944 1.356 . S
N942 H954 0.984 . S
N942 H955 0.985 . S
N943 C945 1.356 . S
N943 H948 0.984 . S
N943 H949 0.985 . S
C944 C938 1.379 . S
C944 C941 1.363 . S
C944 N942 1.356 . S
C945 C939 1.363 . S
C945 C940 1.379 . S
C945 N943 1.356 . S
N946 C938 1.356 . S
N946 H952 0.984 . S
N946 H953 0.984 . S
N947 C940 1.356 . S
N947 H950 0.984 . S
N947 H951 0.985 . S
H948 N943 0.984 . S
H949 N943 0.985 . S
H950 N947 0.984 . S
H951 N947 0.985 . S
H952 N946 0.984 . S
H953 N946 0.984 . S
H954 N942 0.984 . S
H955 N942 0.985 . S
C956 C957 1.363 . S
C956 C962 1.379 . S
C956 N964 1.356 . S
C957 C956 1.363 . S
C957 C963 1.363 . S
C958 C959 1.363 . S
C958 C963 1.379 . S
C958 N965 1.356 . S
C959 C958 1.363 . S
C959 C962 1.363 . S
N960 C962 1.356 . S
N960 H972 0.984 . S
N960 H973 0.985 . S
N961 C963 1.356 . S
N961 H966 0.984 . S
N961 H967 0.985 . S
C962 C956 1.379 . S
C962 C959 1.363 . S
C962 N960 1.356 . S
C963 C957 1.363 . S
C963 C958 1.379 . S
C963 N961 1.356 . S
N964 C956 1.356 . S
N964 H970 0.984 . S
N964 H971 0.984 . S
N965 C958 1.356 . S
N965 H968 0.984 . S
N965 H969 0.985 . S
H966 N961 0.984 . S
H967 N961 0.985 . S
H968 N965 0.984 . S
H969 N965 0.985 . S
H970 N964 0.984 . S
H971 N964 0.984 . S
H972 N960 0.984 . S
H973 N960 0.985 . S
C974 C975 1.363 . S
C974 C980 1.379 . S
C974 N982 1.356 . S
C975 C974 1.363 . S
C975 C981 1.363 . S
C976 C977 1.363 . S
C976 C981 1.379 . S
C976 N983 1.356 . S
C977 C976 1.363 . S
C977 C980 1.363 . S
N978 C980 1.356 . S
N978 H990 0.984 . S
N978 H991 0.985 . S
N979 C981 1.356 . S
N979 H984 0.984 . S
N979 H985 0.985 . S
C980 C974 1.379 . S
C980 C977 1.363 . S
C980 N978 1.356 . S
C981 C975 1.363 . S
C981 C976 1.379 . S
C981 N979 1.356 . S
N982 C974 1.356 . S
N982 H988 0.984 . S
N982 H989 0.984 . S
N983 C976 1.356 . S
N983 H986 0.984 . S
N983 H987 0.985 . S
H984 N979 0.984 . S
H985 N979 0.985 . S
H986 N983 0.984 . S
H987 N983 0.985 . S
H988 N982 0.984 . S
H989 N982 0.984 . S
H990 N978 0.984 . S
H991 N978 0.985 . S
C992 C993 1.363 . S
C992 C998 1.379 . S
C992 N1000 1.356 . S
C993 C992 1.363 . S
C993 C999 1.363 . S
C994 C995 1.363 . S
C994 C999 1.379 . S
C994 N1001 1.356 . S
C995 C994 1.363 . S
C995 C998 1.363 . S
N996 C998 1.356 . S
N996 H1008 0.984 . S
N996 H1009 0.985 . S
N997 C999 1.356 . S
N997 H1002 0.984 . S
N997 H1003 0.985 . S
C998 C992 1.379 . S
C998 C995 1.363 . S
C998 N996 1.356 . S
C999 C993 1.363 . S
C999 C994 1.379 . S
C999 N997 1.356 . S
N1000 C992 1.356 . S
N1000 H1006 0.984 . S
N1000 H1007 0.984 . S
N1001 C994 1.356 . S
N1001 H1004 0.984 . S
N1001 H1005 0.985 . S
H1002 N997 0.984 . S
H1003 N997 0.985 . S
H1004 N1001 0.984 . S
H1005 N1001 0.985 . S
H1006 N1000 0.984 . S
H1007 N1000 0.984 . S
H1008 N996 0.984 . S
H1009 N996 0.985 . S
C1010 C1011 1.363 1_645 S
C1010 C1016 1.379 . S
C1010 N1018 1.356 . S
C1011 C1010 1.363 1_465 S
C1011 C1017 1.363 . S
C1012 C1013 1.363 1_465 S
C1012 C1017 1.379 . S
C1012 N1019 1.356 . S
C1013 C1012 1.363 1_645 S
C1013 C1016 1.363 . S
N1014 C1016 1.356 . S
N1014 H1026 0.984 . S
N1014 H1027 0.985 . S
N1015 C1017 1.356 . S
N1015 H1020 0.984 . S
N1015 H1021 0.985 . S
C1016 C1010 1.379 . S
C1016 C1013 1.363 . S
C1016 N1014 1.356 . S
C1017 C1011 1.363 . S
C1017 C1012 1.379 . S
C1017 N1015 1.356 . S
N1018 C1010 1.356 . S
N1018 H1024 0.984 . S
N1018 H1025 0.984 1_655 S
N1019 C1012 1.356 . S
N1019 H1022 0.984 1_455 S
N1019 H1023 0.985 . S
H1020 N1015 0.984 . S
H1021 N1015 0.985 . S
H1022 N1019 0.984 1_655 S
H1023 N1019 0.985 . S
H1024 N1018 0.984 . S
H1025 N1018 0.984 1_455 S
H1026 N1014 0.984 . S
H1027 N1014 0.985 . S
C1028 C1029 1.363 . S
C1028 C1034 1.379 . S
C1028 N1036 1.356 . S
C1029 C1028 1.363 . S
C1029 C1035 1.363 . S
C1030 C1031 1.363 . S
C1030 C1035 1.379 . S
C1030 N1037 1.356 . S
C1031 C1030 1.363 . S
C1031 C1034 1.363 . S
N1032 C1034 1.356 . S
N1032 H1044 0.984 . S
N1032 H1045 0.985 . S
N1033 C1035 1.356 . S
N1033 H1038 0.984 . S
N1033 H1039 0.985 . S
C1034 C1028 1.379 . S
C1034 C1031 1.363 . S
C1034 N1032 1.356 . S
C1035 C1029 1.363 . S
C1035 C1030 1.379 . S
C1035 N1033 1.356 . S
N1036 C1028 1.356 . S
N1036 H1042 0.984 . S
N1036 H1043 0.984 . S
N1037 C1030 1.356 . S
N1037 H1040 0.984 . S
N1037 H1041 0.985 . S
H1038 N1033 0.984 . S
H1039 N1033 0.985 . S
H1040 N1037 0.984 . S
H1041 N1037 0.985 . S
H1042 N1036 0.984 . S
H1043 N1036 0.984 . S
H1044 N1032 0.984 . S
H1045 N1032 0.985 . S
C1046 C1047 1.363 1_565 S
C1046 C1052 1.379 1_554 S
C1046 N1054 1.356 . S
C1047 C1046 1.363 1_545 S
C1047 C1053 1.363 . S
C1048 C1049 1.363 1_545 S
C1048 C1053 1.379 1_556 S
C1048 N1055 1.356 . S
C1049 C1048 1.363 1_565 S
C1049 C1052 1.363 . S
N1050 C1052 1.356 . S
N1050 H1062 0.984 . S
N1050 H1063 0.985 . S
N1051 C1053 1.356 . S
N1051 H1056 0.984 . S
N1051 H1057 0.985 . S
C1052 C1046 1.379 1_556 S
C1052 C1049 1.363 . S
C1052 N1050 1.356 . S
C1053 C1047 1.363 . S
C1053 C1048 1.379 1_554 S
C1053 N1051 1.356 . S
N1054 C1046 1.356 . S
N1054 H1060 0.984 . S
N1054 H1061 0.984 . S
N1055 C1048 1.356 . S
N1055 H1058 0.984 . S
N1055 H1059 0.985 . S
H1056 N1051 0.984 . S
H1057 N1051 0.985 . S
H1058 N1055 0.984 . S
H1059 N1055 0.985 . S
H1060 N1054 0.984 . S
H1061 N1054 0.984 . S
H1062 N1050 0.984 . S
H1063 N1050 0.985 . S
C1064 C1065 1.363 . S
C1064 C1070 1.379 . S
C1064 N1072 1.356 . S
C1065 C1064 1.363 . S
C1065 C1071 1.363 . S
C1066 C1067 1.363 . S
C1066 C1071 1.379 . S
C1066 N1073 1.356 . S
C1067 C1066 1.363 . S
C1067 C1070 1.363 . S
N1068 C1070 1.356 . S
N1068 H1080 0.984 . S
N1068 H1081 0.985 . S
N1069 C1071 1.356 . S
N1069 H1074 0.984 . S
N1069 H1075 0.985 . S
C1070 C1064 1.379 . S
C1070 C1067 1.363 . S
C1070 N1068 1.356 . S
C1071 C1065 1.363 . S
C1071 C1066 1.379 . S
C1071 N1069 1.356 . S
N1072 C1064 1.356 . S
N1072 H1078 0.984 . S
N1072 H1079 0.984 . S
N1073 C1066 1.356 . S
N1073 H1076 0.984 . S
N1073 H1077 0.985 . S
H1074 N1069 0.984 . S
H1075 N1069 0.985 . S
H1076 N1073 0.984 . S
H1077 N1073 0.985 . S
H1078 N1072 0.984 . S
H1079 N1072 0.984 . S
H1080 N1068 0.984 . S
H1081 N1068 0.985 . S
C1082 C1083 1.363 1_545 S
C1082 C1088 1.379 . S
C1082 N1090 1.356 . S
C1083 C1082 1.363 1_565 S
C1083 C1089 1.363 . S
C1084 C1085 1.363 1_565 S
C1084 C1089 1.379 . S
C1084 N1091 1.356 . S
C1085 C1084 1.363 1_545 S
C1085 C1088 1.363 . S
N1086 C1088 1.356 . S
N1086 H1098 0.984 . S
N1086 H1099 0.985 . S
N1087 C1089 1.356 . S
N1087 H1092 0.984 . S
N1087 H1093 0.985 . S
C1088 C1082 1.379 . S
C1088 C1085 1.363 . S
C1088 N1086 1.356 . S
C1089 C1083 1.363 . S
C1089 C1084 1.379 . S
C1089 N1087 1.356 . S
N1090 C1082 1.356 . S
N1090 H1096 0.984 . S
N1090 H1097 0.984 . S
N1091 C1084 1.356 . S
N1091 H1094 0.984 . S
N1091 H1095 0.985 . S
H1092 N1087 0.984 . S
H1093 N1087 0.985 . S
H1094 N1091 0.984 . S
H1095 N1091 0.985 . S
H1096 N1090 0.984 . S
H1097 N1090 0.984 . S
H1098 N1086 0.984 . S
H1099 N1086 0.985 . S
C1100 C1101 1.363 . S
C1100 C1106 1.379 . S
C1100 N1108 1.356 . S
C1101 C1100 1.363 . S
C1101 C1107 1.363 . S
C1102 C1103 1.363 . S
C1102 C1107 1.379 . S
C1102 N1109 1.356 . S
C1103 C1102 1.363 . S
C1103 C1106 1.363 . S
N1104 C1106 1.356 . S
N1104 H1116 0.984 . S
N1104 H1117 0.985 . S
N1105 C1107 1.356 . S
N1105 H1110 0.984 . S
N1105 H1111 0.985 . S
C1106 C1100 1.379 . S
C1106 C1103 1.363 . S
C1106 N1104 1.356 . S
C1107 C1101 1.363 . S
C1107 C1102 1.379 . S
C1107 N1105 1.356 . S
N1108 C1100 1.356 . S
N1108 H1114 0.984 . S
N1108 H1115 0.984 . S
N1109 C1102 1.356 . S
N1109 H1112 0.984 . S
N1109 H1113 0.985 . S
H1110 N1105 0.984 . S
H1111 N1105 0.985 . S
H1112 N1109 0.984 . S
H1113 N1109 0.985 . S
H1114 N1108 0.984 . S
H1115 N1108 0.984 . S
H1116 N1104 0.984 . S
H1117 N1104 0.985 . S
C1118 C1119 1.363 . S
C1118 C1124 1.379 1_556 S
C1118 N1126 1.356 . S
C1119 C1118 1.363 . S
C1119 C1125 1.363 1_445 S
C1120 C1121 1.363 . S
C1120 C1125 1.379 1_554 S
C1120 N1127 1.356 . S
C1121 C1120 1.363 . S
C1121 C1124 1.363 1_665 S
N1122 C1124 1.356 . S
N1122 H1134 0.984 . S
N1122 H1135 0.985 1_455 S
N1123 C1125 1.356 . S
N1123 H1128 0.984 1_655 S
N1123 H1129 0.985 . S
C1124 C1118 1.379 1_554 S
C1124 C1121 1.363 1_445 S
C1124 N1122 1.356 . S
C1125 C1119 1.363 1_665 S
C1125 C1120 1.379 1_556 S
C1125 N1123 1.356 . S
N1126 C1118 1.356 . S
N1126 H1132 0.984 . S
N1126 H1133 0.984 . S
N1127 C1120 1.356 . S
N1127 H1130 0.984 . S
N1127 H1131 0.985 . S
H1128 N1123 0.984 1_455 S
H1129 N1123 0.985 . S
H1130 N1127 0.984 . S
H1131 N1127 0.985 . S
H1132 N1126 0.984 . S
H1133 N1126 0.984 . S
H1134 N1122 0.984 . S
H1135 N1122 0.985 1_655 S
C1136 C1137 1.363 . S
C1136 C1142 1.379 . S
C1136 N1144 1.356 . S
C1137 C1136 1.363 . S
C1137 C1143 1.363 . S
C1138 C1139 1.363 . S
C1138 C1143 1.379 . S
C1138 N1145 1.356 . S
C1139 C1138 1.363 . S
C1139 C1142 1.363 . S
N1140 C1142 1.356 . S
N1140 H1152 0.984 . S
N1140 H1153 0.985 . S
N1141 C1143 1.356 . S
N1141 H1146 0.984 . S
N1141 H1147 0.985 . S
C1142 C1136 1.379 . S
C1142 C1139 1.363 . S
C1142 N1140 1.356 . S
C1143 C1137 1.363 . S
C1143 C1138 1.379 . S
C1143 N1141 1.356 . S
N1144 C1136 1.356 . S
N1144 H1150 0.984 . S
N1144 H1151 0.984 . S
N1145 C1138 1.356 . S
N1145 H1148 0.984 . S
N1145 H1149 0.985 . S
H1146 N1141 0.984 . S
H1147 N1141 0.985 . S
H1148 N1145 0.984 . S
H1149 N1145 0.985 . S
H1150 N1144 0.984 . S
H1151 N1144 0.984 . S
H1152 N1140 0.984 . S
H1153 N1140 0.985 . S
C1154 C1155 1.363 . S
C1154 C1160 1.379 . S
C1154 N1162 1.356 . S
C1155 C1154 1.363 . S
C1155 C1161 1.363 . S
C1156 C1157 1.363 . S
C1156 C1161 1.379 . S
C1156 N1163 1.356 . S
C1157 C1156 1.363 . S
C1157 C1160 1.363 . S
N1158 C1160 1.356 . S
N1158 H1170 0.984 . S
N1158 H1171 0.985 . S
N1159 C1161 1.356 . S
N1159 H1164 0.984 . S
N1159 H1165 0.985 . S
C1160 C1154 1.379 . S
C1160 C1157 1.363 . S
C1160 N1158 1.356 . S
C1161 C1155 1.363 . S
C1161 C1156 1.379 . S
C1161 N1159 1.356 . S
N1162 C1154 1.356 . S
N1162 H1168 0.984 . S
N1162 H1169 0.984 . S
N1163 C1156 1.356 . S
N1163 H1166 0.984 . S
N1163 H1167 0.985 . S
H1164 N1159 0.984 . S
H1165 N1159 0.985 . S
H1166 N1163 0.984 . S
H1167 N1163 0.985 . S
H1168 N1162 0.984 . S
H1169 N1162 0.984 . S
H1170 N1158 0.984 . S
H1171 N1158 0.985 . S
C1172 C1173 1.363 . S
C1172 C1178 1.379 . S
C1172 N1180 1.356 . S
C1173 C1172 1.363 . S
C1173 C1179 1.363 . S
C1174 C1175 1.363 . S
C1174 C1179 1.379 . S
C1174 N1181 1.356 . S
C1175 C1174 1.363 . S
C1175 C1178 1.363 . S
N1176 C1178 1.356 . S
N1176 H1188 0.984 . S
N1176 H1189 0.985 . S
N1177 C1179 1.356 . S
N1177 H1182 0.984 . S
N1177 H1183 0.985 . S
C1178 C1172 1.379 . S
C1178 C1175 1.363 . S
C1178 N1176 1.356 . S
C1179 C1173 1.363 . S
C1179 C1174 1.379 . S
C1179 N1177 1.356 . S
N1180 C1172 1.356 . S
N1180 H1186 0.984 . S
N1180 H1187 0.984 . S
N1181 C1174 1.356 . S
N1181 H1184 0.984 . S
N1181 H1185 0.985 . S
H1182 N1177 0.984 . S
H1183 N1177 0.985 . S
H1184 N1181 0.984 . S
H1185 N1181 0.985 . S
H1186 N1180 0.984 . S
H1187 N1180 0.984 . S
H1188 N1176 0.984 . S
H1189 N1176 0.985 . S
C1190 C1191 1.363 . S
C1190 C1196 1.379 . S
C1190 N1198 1.356 . S
C1191 C1190 1.363 . S
C1191 C1197 1.363 . S
C1192 C1193 1.363 . S
C1192 C1197 1.379 . S
C1192 N1199 1.356 . S
C1193 C1192 1.363 . S
C1193 C1196 1.363 . S
N1194 C1196 1.356 . S
N1194 H1206 0.984 . S
N1194 H1207 0.985 . S
N1195 C1197 1.356 . S
N1195 H1200 0.984 . S
N1195 H1201 0.985 . S
C1196 C1190 1.379 . S
C1196 C1193 1.363 . S
C1196 N1194 1.356 . S
C1197 C1191 1.363 . S
C1197 C1192 1.379 . S
C1197 N1195 1.356 . S
N1198 C1190 1.356 . S
N1198 H1204 0.984 . S
N1198 H1205 0.984 . S
N1199 C1192 1.356 . S
N1199 H1202 0.984 . S
N1199 H1203 0.985 . S
H1200 N1195 0.984 . S
H1201 N1195 0.985 . S
H1202 N1199 0.984 . S
H1203 N1199 0.985 . S
H1204 N1198 0.984 . S
H1205 N1198 0.984 . S
H1206 N1194 0.984 . S
H1207 N1194 0.985 . S
C1208 C1209 1.363 . S
C1208 C1214 1.379 1_554 S
C1208 N1216 1.356 . S
C1209 C1208 1.363 . S
C1209 C1215 1.363 . S
C1210 C1211 1.363 . S
C1210 C1215 1.379 1_556 S
C1210 N1217 1.356 . S
C1211 C1210 1.363 . S
C1211 C1214 1.363 . S
N1212 C1214 1.356 . S
N1212 H1224 0.984 . S
N1212 H1225 0.985 . S
N1213 C1215 1.356 . S
N1213 H1218 0.984 . S
N1213 H1219 0.985 . S
C1214 C1208 1.379 1_556 S
C1214 C1211 1.363 . S
C1214 N1212 1.356 . S
C1215 C1209 1.363 . S
C1215 C1210 1.379 1_554 S
C1215 N1213 1.356 . S
N1216 C1208 1.356 . S
N1216 H1222 0.984 . S
N1216 H1223 0.984 . S
N1217 C1210 1.356 . S
N1217 H1220 0.984 . S
N1217 H1221 0.985 . S
H1218 N1213 0.984 . S
H1219 N1213 0.985 . S
H1220 N1217 0.984 . S
H1221 N1217 0.985 . S
H1222 N1216 0.984 . S
H1223 N1216 0.984 . S
H1224 N1212 0.984 . S
H1225 N1212 0.985 . S
C1226 C1227 1.363 . S
C1226 C1232 1.379 . S
C1226 N1234 1.356 . S
C1227 C1226 1.363 . S
C1227 C1233 1.363 1_455 S
C1228 C1229 1.363 . S
C1228 C1233 1.379 . S
C1228 N1235 1.356 . S
C1229 C1228 1.363 . S
C1229 C1232 1.363 1_655 S
N1230 C1232 1.356 . S
N1230 H1242 0.984 . S
N1230 H1243 0.970 1_455 S
N1231 C1233 1.356 . S
N1231 H1236 0.984 1_655 S
N1231 H1237 0.985 . S
C1232 C1226 1.379 . S
C1232 C1229 1.363 1_455 S
C1232 N1230 1.356 . S
C1233 C1227 1.363 1_655 S
C1233 C1228 1.379 . S
C1233 N1231 1.356 . S
N1234 C1226 1.356 . S
N1234 H1240 0.984 . S
N1234 H1241 0.984 . S
N1235 C1228 1.356 . S
N1235 H1238 0.984 . S
N1235 H1239 0.985 . S
H1236 N1231 0.984 1_455 S
H1237 N1231 0.985 . S
H1238 N1235 0.984 . S
H1239 N1235 0.985 . S
H1240 N1234 0.984 . S
H1241 N1234 0.984 . S
H1242 N1230 0.984 . S
H1243 N1230 0.970 1_655 S
C1244 C1245 1.363 1_655 S
C1244 C1250 1.379 1_554 S
C1244 N1252 1.356 . S
C1245 C1244 1.363 1_455 S
C1245 C1251 1.363 . S
C1246 C1247 1.363 1_455 S
C1246 C1251 1.379 1_556 S
C1246 N1253 1.356 . S
C1247 C1246 1.363 1_655 S
C1247 C1250 1.363 . S
N1248 C1250 1.356 . S
N1248 H1260 0.984 . S
N1248 H1261 0.985 . S
N1249 C1251 1.356 . S
N1249 H1254 0.984 . S
N1249 H1255 0.985 . S
C1250 C1244 1.379 1_556 S
C1250 C1247 1.363 . S
C1250 N1248 1.356 . S
C1251 C1245 1.363 . S
C1251 C1246 1.379 1_554 S
C1251 N1249 1.356 . S
N1252 C1244 1.356 . S
N1252 H1258 0.984 . S
N1252 H1259 0.984 . S
N1253 C1246 1.356 . S
N1253 H1256 0.984 . S
N1253 H1257 0.985 . S
H1254 N1249 0.984 . S
H1255 N1249 0.985 . S
H1256 N1253 0.984 . S
H1257 N1253 0.985 . S
H1258 N1252 0.984 . S
H1259 N1252 0.984 . S
H1260 N1248 0.984 . S
H1261 N1248 0.985 . S
C1262 C1263 1.363 . S
C1262 C1268 1.379 . S
C1262 N1270 1.356 . S
C1263 C1262 1.363 . S
C1263 C1269 1.363 . S
C1264 C1265 1.363 . S
C1264 C1269 1.379 . S
C1264 N1271 1.356 . S
C1265 C1264 1.363 . S
C1265 C1268 1.363 . S
N1266 C1268 1.356 . S
N1266 H1278 0.984 . S
N1266 H1279 0.985 . S
N1267 C1269 1.356 . S
N1267 H1272 0.984 . S
N1267 H1273 0.985 . S
C1268 C1262 1.379 . S
C1268 C1265 1.363 . S
C1268 N1266 1.356 . S
C1269 C1263 1.363 . S
C1269 C1264 1.379 . S
C1269 N1267 1.356 . S
N1270 C1262 1.356 . S
N1270 H1276 0.984 . S
N1270 H1277 0.984 . S
N1271 C1264 1.356 . S
N1271 H1274 0.984 . S
N1271 H1275 0.985 . S
H1272 N1267 0.984 . S
H1273 N1267 0.985 . S
H1274 N1271 0.984 . S
H1275 N1271 0.985 . S
H1276 N1270 0.984 . S
H1277 N1270 0.984 . S
H1278 N1266 0.984 . S
H1279 N1266 0.985 . S
C1280 C1281 1.363 . S
C1280 C1286 1.379 . S
C1280 N1288 1.356 . S
C1281 C1280 1.363 . S
C1281 C1287 1.363 . S
C1282 C1283 1.363 . S
C1282 C1287 1.379 . S
C1282 N1289 1.356 . S
C1283 C1282 1.363 . S
C1283 C1286 1.363 . S
N1284 C1286 1.356 . S
N1284 H1296 0.984 . S
N1284 H1297 0.985 . S
N1285 C1287 1.356 . S
N1285 H1290 0.984 . S
N1285 H1291 0.985 . S
C1286 C1280 1.379 . S
C1286 C1283 1.363 . S
C1286 N1284 1.356 . S
C1287 C1281 1.363 . S
C1287 C1282 1.379 . S
C1287 N1285 1.356 . S
N1288 C1280 1.356 . S
N1288 H1294 0.984 . S
N1288 H1295 0.984 . S
N1289 C1282 1.356 . S
N1289 H1292 0.984 1_545 S
N1289 H1293 0.985 1_545 S
H1290 N1285 0.984 . S
H1291 N1285 0.985 . S
H1292 N1289 0.984 1_565 S
H1293 N1289 0.985 1_565 S
H1294 N1288 0.984 . S
H1295 N1288 0.984 . S
H1296 N1284 0.984 . S
H1297 N1284 0.985 . S
C1298 C1299 1.363 . S
C1298 C1304 1.379 . S
C1298 N1306 1.356 . S
C1299 C1298 1.363 . S
C1299 C1305 1.363 . S
C1300 C1301 1.363 . S
C1300 C1305 1.379 . S
C1300 N1307 1.356 . S
C1301 C1300 1.363 . S
C1301 C1304 1.363 . S
N1302 C1304 1.356 . S
N1302 H1314 0.984 . S
N1302 H1315 0.985 . S
N1303 C1305 1.356 . S
N1303 H1308 0.984 . S
N1303 H1309 0.985 . S
C1304 C1298 1.379 . S
C1304 C1301 1.363 . S
C1304 N1302 1.356 . S
C1305 C1299 1.363 . S
C1305 C1300 1.379 . S
C1305 N1303 1.356 . S
N1306 C1298 1.356 . S
N1306 H1312 0.984 . S
N1306 H1313 0.984 . S
N1307 C1300 1.356 . S
N1307 H1310 0.984 . S
N1307 H1311 0.985 . S
H1308 N1303 0.984 . S
H1309 N1303 0.985 . S
H1310 N1307 0.984 . S
H1311 N1307 0.985 . S
H1312 N1306 0.984 . S
H1313 N1306 0.984 . S
H1314 N1302 0.984 . S
H1315 N1302 0.985 . S
C1316 C1317 1.363 . S
C1316 C1322 1.379 . S
C1316 N1324 1.356 . S
C1317 C1316 1.363 . S
C1317 C1323 1.363 . S
C1318 C1319 1.363 . S
C1318 C1323 1.379 . S
C1318 N1325 1.356 . S
C1319 C1318 1.363 . S
C1319 C1322 1.363 . S
N1320 C1322 1.356 . S
N1320 H1332 0.984 . S
N1320 H1333 0.985 1_565 S
N1321 C1323 1.356 . S
N1321 H1326 0.984 . S
N1321 H1327 0.985 . S
C1322 C1316 1.379 . S
C1322 C1319 1.363 . S
C1322 N1320 1.356 . S
C1323 C1317 1.363 . S
C1323 C1318 1.379 . S
C1323 N1321 1.356 . S
N1324 C1316 1.356 . S
N1324 H1330 0.984 . S
N1324 H1331 0.984 . S
N1325 C1318 1.356 . S
N1325 H1328 0.984 . S
N1325 H1329 0.985 . S
H1326 N1321 0.984 . S
H1327 N1321 0.985 . S
H1328 N1325 0.984 . S
H1329 N1325 0.985 . S
H1330 N1324 0.984 . S
H1331 N1324 0.984 . S
H1332 N1320 0.984 . S
H1333 N1320 0.985 1_545 S
C1334 C1335 1.363 . S
C1334 C1340 1.379 . S
C1334 N1342 1.356 . S
C1335 C1334 1.363 . S
C1335 C1341 1.363 . S
C1336 C1337 1.363 . S
C1336 C1341 1.379 . S
C1336 N1343 1.356 . S
C1337 C1336 1.363 . S
C1337 C1340 1.363 . S
N1338 C1340 1.379 . S
N1338 H1350 0.973 1_565 S
N1338 H1351 0.974 1_565 S
N1339 C1341 1.356 . S
N1339 H1344 0.984 . S
N1339 H1345 0.985 . S
C1340 C1334 1.379 . S
C1340 C1337 1.363 . S
C1340 N1338 1.379 . S
C1341 C1335 1.363 . S
C1341 C1336 1.379 . S
C1341 N1339 1.356 . S
N1342 C1334 1.356 . S
N1342 H1348 0.984 . S
N1342 H1349 0.984 . S
N1343 C1336 1.356 . S
N1343 H1346 0.984 . S
N1343 H1347 0.985 . S
H1344 N1339 0.984 . S
H1345 N1339 0.985 . S
H1346 N1343 0.984 . S
H1347 N1343 0.985 . S
H1348 N1342 0.984 . S
H1349 N1342 0.984 . S
H1350 N1338 0.973 1_545 S
H1351 N1338 0.974 1_545 S
C1352 C1353 1.363 . S
C1352 C1358 1.379 . S
C1352 N1360 1.356 . S
C1353 C1352 1.363 . S
C1353 C1359 1.363 . S
C1354 C1355 1.363 . S
C1354 C1359 1.379 . S
C1354 N1361 1.356 . S
C1355 C1354 1.363 . S
C1355 C1358 1.363 . S
N1356 C1358 1.356 . S
N1356 H1368 0.984 . S
N1356 H1369 0.985 . S
N1357 C1359 1.356 . S
N1357 H1362 0.984 . S
N1357 H1363 0.985 . S
C1358 C1352 1.379 . S
C1358 C1355 1.363 . S
C1358 N1356 1.356 . S
C1359 C1353 1.363 . S
C1359 C1354 1.379 . S
C1359 N1357 1.356 . S
N1360 C1352 1.356 . S
N1360 H1366 0.984 . S
N1360 H1367 0.984 . S
N1361 C1354 1.356 . S
N1361 H1364 0.984 . S
N1361 H1365 0.985 . S
H1362 N1357 0.984 . S
H1363 N1357 0.985 . S
H1364 N1361 0.984 . S
H1365 N1361 0.985 . S
H1366 N1360 0.984 . S
H1367 N1360 0.984 . S
H1368 N1356 0.984 . S
H1369 N1356 0.985 . S
C1370 C1371 1.363 . S
C1370 C1376 1.379 . S
C1370 N1378 1.356 . S
C1371 C1370 1.363 . S
C1371 C1377 1.363 . S
C1372 C1373 1.363 . S
C1372 C1377 1.379 . S
C1372 N1379 1.356 . S
C1373 C1372 1.363 . S
C1373 C1376 1.363 . S
N1374 C1376 1.356 . S
N1374 H1386 0.984 . S
N1374 H1387 0.985 . S
N1375 C1377 1.356 . S
N1375 H1380 0.984 1_565 S
N1375 H1381 0.976 1_565 S
C1376 C1370 1.379 . S
C1376 C1373 1.363 . S
C1376 N1374 1.356 . S
C1377 C1371 1.363 . S
C1377 C1372 1.379 . S
C1377 N1375 1.356 . S
N1378 C1370 1.356 . S
N1378 H1384 0.984 . S
N1378 H1385 0.984 . S
N1379 C1372 1.356 . S
N1379 H1382 0.984 . S
N1379 H1383 0.985 . S
H1380 N1375 0.984 1_545 S
H1381 N1375 0.976 1_545 S
H1382 N1379 0.984 . S
H1383 N1379 0.985 . S
H1384 N1378 0.984 . S
H1385 N1378 0.984 . S
H1386 N1374 0.984 . S
H1387 N1374 0.985 . S
C1388 C1389 1.363 . S
C1388 C1394 1.379 . S
C1388 N1396 1.356 . S
C1389 C1388 1.363 . S
C1389 C1395 1.363 . S
C1390 C1391 1.363 . S
C1390 C1395 1.379 . S
C1390 N1397 1.356 . S
C1391 C1390 1.363 . S
C1391 C1394 1.363 . S
N1392 C1394 1.356 . S
N1392 H1404 0.984 . S
N1392 H1405 0.985 . S
N1393 C1395 1.356 . S
N1393 H1398 0.984 . S
N1393 H1399 0.985 . S
C1394 C1388 1.379 . S
C1394 C1391 1.363 . S
C1394 N1392 1.356 . S
C1395 C1389 1.363 . S
C1395 C1390 1.379 . S
C1395 N1393 1.356 . S
N1396 C1388 1.356 . S
N1396 H1402 0.984 . S
N1396 H1403 0.984 . S
N1397 C1390 1.356 . S
N1397 H1400 0.984 . S
N1397 H1401 0.985 . S
H1398 N1393 0.984 . S
H1399 N1393 0.985 . S
H1400 N1397 0.984 . S
H1401 N1397 0.985 . S
H1402 N1396 0.984 . S
H1403 N1396 0.984 . S
H1404 N1392 0.984 . S
H1405 N1392 0.985 . S
C1406 C1407 1.363 . S
C1406 C1412 1.379 . S
C1406 N1414 1.356 . S
C1407 C1406 1.363 . S
C1407 C1413 1.363 . S
C1408 C1409 1.363 . S
C1408 C1413 1.379 . S
C1408 N1415 1.356 . S
C1409 C1408 1.363 . S
C1409 C1412 1.363 . S
N1410 C1412 1.356 . S
N1410 H1422 0.984 . S
N1410 H1423 0.985 . S
N1411 C1413 1.356 . S
N1411 H1416 0.984 1_545 S
N1411 H1417 0.985 1_545 S
C1412 C1406 1.379 . S
C1412 C1409 1.363 . S
C1412 N1410 1.356 . S
C1413 C1407 1.363 . S
C1413 C1408 1.379 . S
C1413 N1411 1.356 . S
N1414 C1406 1.356 . S
N1414 H1420 0.984 . S
N1414 H1421 0.984 . S
N1415 C1408 1.356 . S
N1415 H1418 0.984 . S
N1415 H1419 0.985 . S
H1416 N1411 0.984 1_565 S
H1417 N1411 0.985 1_565 S
H1418 N1415 0.984 . S
H1419 N1415 0.985 . S
H1420 N1414 0.984 . S
H1421 N1414 0.984 . S
H1422 N1410 0.984 . S
H1423 N1410 0.985 . S
C1424 C1425 1.363 . S
C1424 C1430 1.379 . S
C1424 N1432 1.356 . S
C1425 C1424 1.363 . S
C1425 C1431 1.363 . S
C1426 C1427 1.363 . S
C1426 C1431 1.379 . S
C1426 N1433 1.356 . S
C1427 C1426 1.363 . S
C1427 C1430 1.363 . S
N1428 C1430 1.356 . S
N1428 H1440 0.984 . S
N1428 H1441 0.985 . S
N1429 C1431 1.356 . S
N1429 H1434 0.984 . S
N1429 H1435 0.985 . S
C1430 C1424 1.379 . S
C1430 C1427 1.363 . S
C1430 N1428 1.356 . S
C1431 C1425 1.363 . S
C1431 C1426 1.379 . S
C1431 N1429 1.356 . S
N1432 C1424 1.356 . S
N1432 H1438 0.984 . S
N1432 H1439 0.984 . S
N1433 C1426 1.356 . S
N1433 H1436 0.984 . S
N1433 H1437 0.985 . S
H1434 N1429 0.984 . S
H1435 N1429 0.985 . S
H1436 N1433 0.984 . S
H1437 N1433 0.985 . S
H1438 N1432 0.984 . S
H1439 N1432 0.984 . S
H1440 N1428 0.984 . S
H1441 N1428 0.985 . S
C1442 C1443 1.363 . S
C1442 C1448 1.379 . S
C1442 N1450 1.356 . S
C1443 C1442 1.363 . S
C1443 C1449 1.363 . S
C1444 C1445 1.363 . S
C1444 C1449 1.379 . S
C1444 N1451 1.356 . S
C1445 C1444 1.363 . S
C1445 C1448 1.363 . S
N1446 C1448 1.356 . S
N1446 H1458 0.984 . S
N1446 H1459 0.985 . S
N1447 C1449 1.356 . S
N1447 H1452 0.984 . S
N1447 H1453 0.985 . S
C1448 C1442 1.379 . S
C1448 C1445 1.363 . S
C1448 N1446 1.356 . S
C1449 C1443 1.363 . S
C1449 C1444 1.379 . S
C1449 N1447 1.356 . S
N1450 C1442 1.356 . S
N1450 H1456 0.984 . S
N1450 H1457 0.984 . S
N1451 C1444 1.356 . S
N1451 H1454 0.984 . S
N1451 H1455 0.985 . S
H1452 N1447 0.984 . S
H1453 N1447 0.985 . S
H1454 N1451 0.984 . S
H1455 N1451 0.985 . S
H1456 N1450 0.984 . S
H1457 N1450 0.984 . S
H1458 N1446 0.984 . S
H1459 N1446 0.985 . S
C1460 C1461 1.363 . S
C1460 C1466 1.379 . S
C1460 N1468 1.356 . S
C1461 C1460 1.363 . S
C1461 C1467 1.363 . S
C1462 C1463 1.363 . S
C1462 C1467 1.379 . S
C1462 N1469 1.356 . S
C1463 C1462 1.363 . S
C1463 C1466 1.363 . S
N1464 C1466 1.356 . S
N1464 H1476 0.984 . S
N1464 H1477 0.985 . S
N1465 C1467 1.356 . S
N1465 H1470 0.984 . S
N1465 H1471 0.985 . S
C1466 C1460 1.379 . S
C1466 C1463 1.363 . S
C1466 N1464 1.356 . S
C1467 C1461 1.363 . S
C1467 C1462 1.379 . S
C1467 N1465 1.356 . S
N1468 C1460 1.356 . S
N1468 H1474 0.984 . S
N1468 H1475 0.984 . S
N1469 C1462 1.356 . S
N1469 H1472 0.984 . S
N1469 H1473 0.985 . S
H1470 N1465 0.984 . S
H1471 N1465 0.985 . S
H1472 N1469 0.984 . S
H1473 N1469 0.985 . S
H1474 N1468 0.984 . S
H1475 N1468 0.984 . S
H1476 N1464 0.984 . S
H1477 N1464 0.985 . S
C1478 C1479 1.363 . S
C1478 C1484 1.379 . S
C1478 N1486 1.356 . S
C1479 C1478 1.363 . S
C1479 C1485 1.363 . S
C1480 C1481 1.363 . S
C1480 C1485 1.379 . S
C1480 N1487 1.356 . S
C1481 C1480 1.363 . S
C1481 C1484 1.363 . S
N1482 C1484 1.356 . S
N1482 H1494 0.984 . S
N1482 H1495 0.985 . S
N1483 C1485 1.356 . S
N1483 H1488 0.984 . S
N1483 H1489 0.985 . S
C1484 C1478 1.379 . S
C1484 C1481 1.363 . S
C1484 N1482 1.356 . S
C1485 C1479 1.363 . S
C1485 C1480 1.379 . S
C1485 N1483 1.356 . S
N1486 C1478 1.356 . S
N1486 H1492 0.984 . S
N1486 H1493 0.984 . S
N1487 C1480 1.356 . S
N1487 H1490 0.984 . S
N1487 H1491 0.985 . S
H1488 N1483 0.984 . S
H1489 N1483 0.985 . S
H1490 N1487 0.984 . S
H1491 N1487 0.985 . S
H1492 N1486 0.984 . S
H1493 N1486 0.984 . S
H1494 N1482 0.984 . S
H1495 N1482 0.985 . S
C1496 C1497 1.363 . S
C1496 C1502 1.379 . S
C1496 N1504 1.356 . S
C1497 C1496 1.363 . S
C1497 C1503 1.363 . S
C1498 C1499 1.363 . S
C1498 C1503 1.379 . S
C1498 N1505 1.356 . S
C1499 C1498 1.363 . S
C1499 C1502 1.363 . S
N1500 C1502 1.356 . S
N1500 H1512 0.984 . S
N1500 H1513 0.985 . S
N1501 C1503 1.356 . S
N1501 H1506 0.984 . S
N1501 H1507 0.985 . S
C1502 C1496 1.379 . S
C1502 C1499 1.363 . S
C1502 N1500 1.356 . S
C1503 C1497 1.363 . S
C1503 C1498 1.379 . S
C1503 N1501 1.356 . S
N1504 C1496 1.356 . S
N1504 H1510 0.984 . S
N1504 H1511 0.984 . S
N1505 C1498 1.356 . S
N1505 H1508 0.984 . S
N1505 H1509 0.985 . S
H1506 N1501 0.984 . S
H1507 N1501 0.985 . S
H1508 N1505 0.984 . S
H1509 N1505 0.985 . S
H1510 N1504 0.984 . S
H1511 N1504 0.984 . S
H1512 N1500 0.984 . S
H1513 N1500 0.985 . S
C1514 C1515 1.363 . S
C1514 C1520 1.379 . S
C1514 N1522 1.356 . S
C1515 C1514 1.363 . S
C1515 C1521 1.363 . S
C1516 C1517 1.363 . S
C1516 C1521 1.379 . S
C1516 N1523 1.356 . S
C1517 C1516 1.363 . S
C1517 C1520 1.363 . S
N1518 C1520 1.356 . S
N1518 H1530 0.984 . S
N1518 H1531 0.985 . S
N1519 C1521 1.356 . S
N1519 H1524 0.984 . S
N1519 H1525 0.985 . S
C1520 C1514 1.379 . S
C1520 C1517 1.363 . S
C1520 N1518 1.356 . S
C1521 C1515 1.363 . S
C1521 C1516 1.379 . S
C1521 N1519 1.356 . S
N1522 C1514 1.356 . S
N1522 H1528 0.984 . S
N1522 H1529 0.984 . S
N1523 C1516 1.356 . S
N1523 H1526 0.984 . S
N1523 H1527 0.985 . S
H1524 N1519 0.984 . S
H1525 N1519 0.985 . S
H1526 N1523 0.984 . S
H1527 N1523 0.985 . S
H1528 N1522 0.984 . S
H1529 N1522 0.984 . S
H1530 N1518 0.984 . S
H1531 N1518 0.985 . S
C1532 C1533 1.363 . S
C1532 C1538 1.379 . S
C1532 N1540 1.356 . S
C1533 C1532 1.363 . S
C1533 C1539 1.363 . S
C1534 C1535 1.363 . S
C1534 C1539 1.379 . S
C1534 N1541 1.356 . S
C1535 C1534 1.363 . S
C1535 C1538 1.363 . S
N1536 C1538 1.356 . S
N1536 H1548 0.984 . S
N1536 H1549 0.985 . S
N1537 C1539 1.356 . S
N1537 H1542 0.984 . S
N1537 H1543 0.985 . S
C1538 C1532 1.379 . S
C1538 C1535 1.363 . S
C1538 N1536 1.356 . S
C1539 C1533 1.363 . S
C1539 C1534 1.379 . S
C1539 N1537 1.356 . S
N1540 C1532 1.356 . S
N1540 H1546 0.984 . S
N1540 H1547 0.984 . S
N1541 C1534 1.356 . S
N1541 H1544 0.984 . S
N1541 H1545 0.985 . S
H1542 N1537 0.984 . S
H1543 N1537 0.985 . S
H1544 N1541 0.984 . S
H1545 N1541 0.985 . S
H1546 N1540 0.984 . S
H1547 N1540 0.984 . S
H1548 N1536 0.984 . S
H1549 N1536 0.985 . S
C1550 C1551 1.363 . S
C1550 C1556 1.379 . S
C1550 N1558 1.356 . S
C1551 C1550 1.363 . S
C1551 C1557 1.363 . S
C1552 C1553 1.363 . S
C1552 C1557 1.379 . S
C1552 N1559 1.356 . S
C1553 C1552 1.363 . S
C1553 C1556 1.363 . S
N1554 C1556 1.356 . S
N1554 H1566 0.984 . S
N1554 H1567 0.985 . S
N1555 C1557 1.356 . S
N1555 H1560 0.984 . S
N1555 H1561 0.985 . S
C1556 C1550 1.379 . S
C1556 C1553 1.363 . S
C1556 N1554 1.356 . S
C1557 C1551 1.363 . S
C1557 C1552 1.379 . S
C1557 N1555 1.356 . S
N1558 C1550 1.356 . S
N1558 H1564 0.984 . S
N1558 H1565 0.984 . S
N1559 C1552 1.356 . S
N1559 H1562 0.984 . S
N1559 H1563 0.985 . S
H1560 N1555 0.984 . S
H1561 N1555 0.985 . S
H1562 N1559 0.984 . S
H1563 N1559 0.985 . S
H1564 N1558 0.984 . S
H1565 N1558 0.984 . S
H1566 N1554 0.984 . S
H1567 N1554 0.985 . S
C417 C354 1.514 . S
C419 C5 1.516 . S
C435 C16 1.508 . S
C437 C108 1.509 . S
C453 C328 1.514 . S
C455 C29 1.516 . S
C471 C42 1.508 . S
C473 C140 1.509 . S
C489 C55 1.516 . S
C491 C380 1.514 . S
C507 C68 1.508 . S
C509 C192 1.509 . S
C525 C83 1.516 . S
C527 C406 1.514 . S
C543 C96 1.508 . S
C545 C166 1.509 . S
C561 C251 1.518 . S
C563 C107 1.516 . S
C579 C10 1.508 . S
C581 C127 1.510 . S
C597 C225 1.518 . S
C599 C135 1.516 . S
C615 C153 1.510 . S
C617 C30 1.508 . S
C633 C277 1.518 . S
C635 C161 1.516 . S
C651 C88 1.508 . S
C653 C173 1.510 . S
C669 C187 1.516 . S
C671 C309 1.518 . S
C687 C56 1.508 . S
C689 C199 1.510 . S
C705 C211 1.516 . S
C707 C148 1.514 . S
C723 C224 1.508 . S
C725 C316 1.509 . S
C741 C122 1.514 . S
C743 C237 1.516 . S
C759 C342 1.509 . S
C761 C250 1.508 . S
C777 C172 1.514 . S
C779 C263 1.516 . S
C795 C394 1.509 . S
C797 C276 1.508 . S
C813 C198 1.514 . S
C815 C289 1.516 . S
C831 C304 1.508 . S
C833 C368 1.509 . S
C849 C43 1.518 . S
C851 C315 1.516 . S
C867 C329 1.510 . S
C869 C212 1.508 . S
C885 C341 1.516 . S
C887 C17 1.518 . S
C903 C355 1.510 . S
C905 C238 1.508 . S
C921 C367 1.516 . S
C923 C69 1.518 . S
C939 C381 1.510 . S
C941 C290 1.508 . S
C957 C393 1.516 . S
C959 C101 1.518 . S
C975 C407 1.510 . S
C977 C264 1.508 . S
C993 C317 1.534 . S
C995 C3 1.534 . S
C1011 C18 1.537 . S
C1013 C121 1.533 . S
C1029 C343 1.534 . S
C1031 C31 1.534 . S
C1047 C44 1.537 . S
C1049 C147 1.533 . S
C1065 C369 1.534 . S
C1067 C57 1.534 . S
C1083 C70 1.537 . S
C1085 C179 1.533 . S
C1101 C395 1.534 . S
C1103 C81 1.534 . S
C1119 C94 1.537 . S
C1121 C205 1.533 . S
C1137 C109 1.534 . S
C1139 C213 1.534 . S
C1155 C133 1.534 . S
C1157 C239 1.534 . S
C1173 C159 1.534 . S
C1175 C265 1.534 . S
C1191 C185 1.534 . S
C1193 C291 1.534 . S
C1209 C226 1.537 . S
C1211 C335 1.533 . S
C1227 C361 1.533 . S
C1229 C252 1.537 . S
C1245 C387 1.533 . S
C1247 C278 1.537 . S
C1263 C302 1.537 . S
C1265 C413 1.533 . S
C1281 C4 1.419 . S
C1283 C75 1.419 . S
C1299 C23 1.419 . S
C1301 C82 1.419 . S
C1317 C36 1.419 . S
C1319 C95 1.419 . S
C1335 C62 1.419 . S
C1337 C49 1.419 . S
C1353 C114 1.420 . S
C1355 C174 1.419 . S
C1371 C120 1.419 . S
C1373 C186 1.420 . S
C1389 C134 1.420 . S
C1391 C200 1.419 . S
C1407 C146 1.419 . S
C1409 C160 1.420 . S
C1425 C218 1.419 . S
C1427 C283 1.419 . S
C1443 C296 1.419 . S
C1445 C231 1.419 . S
C1461 C244 1.419 . S
C1463 C303 1.419 . S
C1479 C257 1.419 . S
C1481 C270 1.419 . S
C1497 C382 1.419 . S
C1499 C322 1.420 . S
C1515 C330 1.419 . S
C1517 C400 1.420 . S
C1533 C408 1.419 . S
C1535 C348 1.420 . S
C1551 C356 1.419 . S
C1553 C374 1.420 . S
