# Generated by pormake.
# Topology uow, (4)-cn, num edge types: 1
# Building blocks:
#     Node 0, Type 0, BuildingBlock: KUFVIS_clean_sbu_0, # of connection points: 4
#     Node 1, Type 0, BuildingBlock: KUFVIS_clean_sbu_0, # of connection points: 4
#     Node 2, Type 0, BuildingBlock: KUFVIS_clean_sbu_0, # of connection points: 4
#     Node 3, Type 0, BuildingBlock: KUFVIS_clean_sbu_0, # of connection points: 4
#     Node 4, Type 0, BuildingBlock: KUFVIS_clean_sbu_0, # of connection points: 4
#     Node 5, Type 0, BuildingBlock: KUFVIS_clean_sbu_0, # of connection points: 4
#     Node 6, Type 0, BuildingBlock: KUFVIS_clean_sbu_0, # of connection points: 4
#     Node 7, Type 0, BuildingBlock: KUFVIS_clean_sbu_0, # of connection points: 4
#     Node 8, Type 0, BuildingBlock: KUFVIS_clean_sbu_0, # of connection points: 4
#     Node 9, Type 0, BuildingBlock: KUFVIS_clean_sbu_0, # of connection points: 4
#     Node 10, Type 0, BuildingBlock: KUFVIS_clean_sbu_0, # of connection points: 4
#     Node 11, Type 0, BuildingBlock: KUFVIS_clean_sbu_0, # of connection points: 4
#     Node 12, Type 0, BuildingBlock: KUFVIS_clean_sbu_0, # of connection points: 4
#     Node 13, Type 0, BuildingBlock: KUFVIS_clean_sbu_0, # of connection points: 4
#     Node 14, Type 0, BuildingBlock: KUFVIS_clean_sbu_0, # of connection points: 4
#     Node 15, Type 0, BuildingBlock: KUFVIS_clean_sbu_0, # of connection points: 4
#     Node 16, Type 0, BuildingBlock: KUFVIS_clean_sbu_0, # of connection points: 4
#     Node 17, Type 0, BuildingBlock: KUFVIS_clean_sbu_0, # of connection points: 4
#     Node 18, Type 0, BuildingBlock: KUFVIS_clean_sbu_0, # of connection points: 4
#     Node 19, Type 0, BuildingBlock: KUFVIS_clean_sbu_0, # of connection points: 4
#     Node 20, Type 0, BuildingBlock: KUFVIS_clean_sbu_0, # of connection points: 4
#     Node 21, Type 0, BuildingBlock: KUFVIS_clean_sbu_0, # of connection points: 4
#     Node 22, Type 0, BuildingBlock: KUFVIS_clean_sbu_0, # of connection points: 4
#     Node 23, Type 0, BuildingBlock: KUFVIS_clean_sbu_0, # of connection points: 4
#     Node 24, Type 0, BuildingBlock: KUFVIS_clean_sbu_0, # of connection points: 4
#     Node 25, Type 0, BuildingBlock: KUFVIS_clean_sbu_0, # of connection points: 4
#     Node 26, Type 0, BuildingBlock: KUFVIS_clean_sbu_0, # of connection points: 4
#     Node 27, Type 0, BuildingBlock: KUFVIS_clean_sbu_0, # of connection points: 4
#     Node 28, Type 0, BuildingBlock: KUFVIS_clean_sbu_0, # of connection points: 4
#     Node 29, Type 0, BuildingBlock: KUFVIS_clean_sbu_0, # of connection points: 4
#     Node 30, Type 0, BuildingBlock: KUFVIS_clean_sbu_0, # of connection points: 4
#     Node 31, Type 0, BuildingBlock: KUFVIS_clean_sbu_0, # of connection points: 4
#     Edge 32, Type (0, 0), BuildingBlock: KIFKEQ_clean_linker_1, # of connection points: 2
#     Edge 33, Type (0, 0), BuildingBlock: KIFKEQ_clean_linker_1, # of connection points: 2
#     Edge 34, Type (0, 0), BuildingBlock: KIFKEQ_clean_linker_1, # of connection points: 2
#     Edge 35, Type (0, 0), BuildingBlock: KIFKEQ_clean_linker_1, # of connection points: 2
#     Edge 36, Type (0, 0), BuildingBlock: KIFKEQ_clean_linker_1, # of connection points: 2
#     Edge 37, Type (0, 0), BuildingBlock: KIFKEQ_clean_linker_1, # of connection points: 2
#     Edge 38, Type (0, 0), BuildingBlock: KIFKEQ_clean_linker_1, # of connection points: 2
#     Edge 39, Type (0, 0), BuildingBlock: KIFKEQ_clean_linker_1, # of connection points: 2
#     Edge 40, Type (0, 0), BuildingBlock: KIFKEQ_clean_linker_1, # of connection points: 2
#     Edge 41, Type (0, 0), BuildingBlock: KIFKEQ_clean_linker_1, # of connection points: 2
#     Edge 42, Type (0, 0), BuildingBlock: KIFKEQ_clean_linker_1, # of connection points: 2
#     Edge 43, Type (0, 0), BuildingBlock: KIFKEQ_clean_linker_1, # of connection points: 2
#     Edge 44, Type (0, 0), BuildingBlock: KIFKEQ_clean_linker_1, # of connection points: 2
#     Edge 45, Type (0, 0), BuildingBlock: KIFKEQ_clean_linker_1, # of connection points: 2
#     Edge 46, Type (0, 0), BuildingBlock: KIFKEQ_clean_linker_1, # of connection points: 2
#     Edge 47, Type (0, 0), BuildingBlock: KIFKEQ_clean_linker_1, # of connection points: 2
#     Edge 48, Type (0, 0), BuildingBlock: KIFKEQ_clean_linker_1, # of connection points: 2
#     Edge 49, Type (0, 0), BuildingBlock: KIFKEQ_clean_linker_1, # of connection points: 2
#     Edge 50, Type (0, 0), BuildingBlock: KIFKEQ_clean_linker_1, # of connection points: 2
#     Edge 51, Type (0, 0), BuildingBlock: KIFKEQ_clean_linker_1, # of connection points: 2
#     Edge 52, Type (0, 0), BuildingBlock: KIFKEQ_clean_linker_1, # of connection points: 2
#     Edge 53, Type (0, 0), BuildingBlock: KIFKEQ_clean_linker_1, # of connection points: 2
#     Edge 54, Type (0, 0), BuildingBlock: KIFKEQ_clean_linker_1, # of connection points: 2
#     Edge 55, Type (0, 0), BuildingBlock: KIFKEQ_clean_linker_1, # of connection points: 2
#     Edge 56, Type (0, 0), BuildingBlock: KIFKEQ_clean_linker_1, # of connection points: 2
#     Edge 57, Type (0, 0), BuildingBlock: KIFKEQ_clean_linker_1, # of connection points: 2
#     Edge 58, Type (0, 0), BuildingBlock: KIFKEQ_clean_linker_1, # of connection points: 2
#     Edge 59, Type (0, 0), BuildingBlock: KIFKEQ_clean_linker_1, # of connection points: 2
#     Edge 60, Type (0, 0), BuildingBlock: KIFKEQ_clean_linker_1, # of connection points: 2
#     Edge 61, Type (0, 0), BuildingBlock: KIFKEQ_clean_linker_1, # of connection points: 2
#     Edge 62, Type (0, 0), BuildingBlock: KIFKEQ_clean_linker_1, # of connection points: 2
#     Edge 63, Type (0, 0), BuildingBlock: KIFKEQ_clean_linker_1, # of connection points: 2
#     Edge 64, Type (0, 0), BuildingBlock: KIFKEQ_clean_linker_1, # of connection points: 2
#     Edge 65, Type (0, 0), BuildingBlock: KIFKEQ_clean_linker_1, # of connection points: 2
#     Edge 66, Type (0, 0), BuildingBlock: KIFKEQ_clean_linker_1, # of connection points: 2
#     Edge 67, Type (0, 0), BuildingBlock: KIFKEQ_clean_linker_1, # of connection points: 2
#     Edge 68, Type (0, 0), BuildingBlock: KIFKEQ_clean_linker_1, # of connection points: 2
#     Edge 69, Type (0, 0), BuildingBlock: KIFKEQ_clean_linker_1, # of connection points: 2
#     Edge 70, Type (0, 0), BuildingBlock: KIFKEQ_clean_linker_1, # of connection points: 2
#     Edge 71, Type (0, 0), BuildingBlock: KIFKEQ_clean_linker_1, # of connection points: 2
#     Edge 72, Type (0, 0), BuildingBlock: KIFKEQ_clean_linker_1, # of connection points: 2
#     Edge 73, Type (0, 0), BuildingBlock: KIFKEQ_clean_linker_1, # of connection points: 2
#     Edge 74, Type (0, 0), BuildingBlock: KIFKEQ_clean_linker_1, # of connection points: 2
#     Edge 75, Type (0, 0), BuildingBlock: KIFKEQ_clean_linker_1, # of connection points: 2
#     Edge 76, Type (0, 0), BuildingBlock: KIFKEQ_clean_linker_1, # of connection points: 2
#     Edge 77, Type (0, 0), BuildingBlock: KIFKEQ_clean_linker_1, # of connection points: 2
#     Edge 78, Type (0, 0), BuildingBlock: KIFKEQ_clean_linker_1, # of connection points: 2
#     Edge 79, Type (0, 0), BuildingBlock: KIFKEQ_clean_linker_1, # of connection points: 2
#     Edge 80, Type (0, 0), BuildingBlock: KIFKEQ_clean_linker_1, # of connection points: 2
#     Edge 81, Type (0, 0), BuildingBlock: KIFKEQ_clean_linker_1, # of connection points: 2
#     Edge 82, Type (0, 0), BuildingBlock: KIFKEQ_clean_linker_1, # of connection points: 2
#     Edge 83, Type (0, 0), BuildingBlock: KIFKEQ_clean_linker_1, # of connection points: 2
#     Edge 84, Type (0, 0), BuildingBlock: KIFKEQ_clean_linker_1, # of connection points: 2
#     Edge 85, Type (0, 0), BuildingBlock: KIFKEQ_clean_linker_1, # of connection points: 2
#     Edge 86, Type (0, 0), BuildingBlock: KIFKEQ_clean_linker_1, # of connection points: 2
#     Edge 87, Type (0, 0), BuildingBlock: KIFKEQ_clean_linker_1, # of connection points: 2
#     Edge 88, Type (0, 0), BuildingBlock: KIFKEQ_clean_linker_1, # of connection points: 2
#     Edge 89, Type (0, 0), BuildingBlock: KIFKEQ_clean_linker_1, # of connection points: 2
#     Edge 90, Type (0, 0), BuildingBlock: KIFKEQ_clean_linker_1, # of connection points: 2
#     Edge 91, Type (0, 0), BuildingBlock: KIFKEQ_clean_linker_1, # of connection points: 2
#     Edge 92, Type (0, 0), BuildingBlock: KIFKEQ_clean_linker_1, # of connection points: 2
#     Edge 93, Type (0, 0), BuildingBlock: KIFKEQ_clean_linker_1, # of connection points: 2
#     Edge 94, Type (0, 0), BuildingBlock: KIFKEQ_clean_linker_1, # of connection points: 2
#     Edge 95, Type (0, 0), BuildingBlock: KIFKEQ_clean_linker_1, # of connection points: 2
# Relax obj value: 0.132
# Max RMSD: 0.176
# Mean RMSD: 0.165
data_MOF--net-uow--node1-KUFVIS_clean_sbu_0--edge1-KIFKEQ_clean_linker_1
_symmetry_space_group_name_H-M    P1
_symmetry_Int_Tables_number       1
_symmetry_cell_setting            triclinic
loop_
_symmetry_equiv_pos_as_xyz
'x, y, z'
_cell_length_a     61.655237
_cell_length_b     63.530801
_cell_length_c     41.458971
_cell_angle_alpha  90.002915
_cell_angle_beta   89.975669
_cell_angle_gamma 89.99465
loop_
_atom_site_label
_atom_site_type_symbol
_atom_site_fract_x
_atom_site_fract_y
_atom_site_fract_z
_atom_type_partial_charge
Mn0 Mn 0.05339 0.37518 0.27831 0.0
Mn1 Mn 0.00769 0.37508 0.23369 0.0
C2 C 0.02027 0.36991 0.3028 0.0
C3 C 0.08271 0.35705 0.2996 0.0
C4 C 0.03213 0.41479 0.25219 0.0
O5 O 0.06456 0.37199 0.23235 0.0
O6 O 0.03289 0.36811 0.20574 0.0
C7 C 0.00569 0.32981 0.21702 0.0
N8 N 0.9964 0.34713 0.23059 0.0
C9 C 0.96462 0.32741 0.24553 0.0
C10 C 0.97377 0.3094 0.23147 0.0
C11 C 0.99441 0.31061 0.2172 0.0
C12 C 0.97655 0.34615 0.24439 0.0
H13 H 0.02162 0.33062 0.20627 0.0
C14 C 0.05368 0.36804 0.20683 0.0
O15 O 0.08333 0.37737 0.29628 0.0
O16 O 0.06544 0.34734 0.28977 0.0
N17 N 0.98214 0.38124 0.25823 0.0
C18 C 0.97615 0.39971 0.27237 0.0
C19 C 0.95619 0.40097 0.2886 0.0
C20 C 0.94258 0.38327 0.29003 0.0
C21 C 0.94899 0.36449 0.27504 0.0
C22 C 0.96896 0.36423 0.25892 0.0
H23 H 0.98656 0.41336 0.27147 0.0
O24 O 0.03684 0.3759 0.31972 0.0
O25 O 0.02375 0.36679 0.27228 0.0
O26 O 0.0462 0.40601 0.27024 0.0
O27 O 0.01779 0.40463 0.23626 0.0
C28 C 0.93656 0.3459 0.27604 0.0
C29 C 0.94437 0.32737 0.26131 0.0
H30 H 0.9652 0.29452 0.23178 0.0
H31 H 0.00164 0.29675 0.20649 0.0
H32 H 0.95137 0.41551 0.30014 0.0
H33 H 0.92732 0.38423 0.3029 0.0
H34 H 0.92111 0.34559 0.28848 0.0
H35 H 0.9348 0.31309 0.26264 0.0
Mn36 Mn 0.86482 0.80664 0.55515 0.0
Mn37 Mn 0.85729 0.85866 0.56835 0.0
C38 C 0.89061 0.82562 0.5824 0.0
C39 C 0.8605 0.77162 0.57065 0.0
C40 C 0.87486 0.84167 0.50573 0.0
O41 O 0.83299 0.81016 0.54475 0.0
O42 O 0.8305 0.84519 0.55131 0.0
C43 C 0.82684 0.85266 0.62283 0.0
N44 N 0.84554 0.86102 0.61089 0.0
C45 C 0.85425 0.87652 0.66225 0.0
C46 C 0.83502 0.86818 0.67504 0.0
C47 C 0.82128 0.85617 0.65524 0.0
C48 C 0.85897 0.87242 0.62982 0.0
H49 H 0.81627 0.84335 0.60776 0.0
C50 C 0.82248 0.82736 0.54329 0.0
O51 O 0.86439 0.77665 0.54081 0.0
O52 O 0.85809 0.78696 0.59095 0.0
N53 N 0.88135 0.87443 0.58473 0.0
C54 C 0.89866 0.88233 0.56824 0.0
C55 C 0.91382 0.89503 0.5844 0.0
C56 C 0.91077 0.89987 0.61714 0.0
C57 C 0.89236 0.89231 0.63325 0.0
C58 C 0.87775 0.87982 0.61582 0.0
H59 H 0.90105 0.87872 0.54305 0.0
O60 O 0.89542 0.80772 0.56933 0.0
O61 O 0.87043 0.83167 0.58054 0.0
O62 O 0.87291 0.82217 0.51314 0.0
O63 O 0.8701 0.85679 0.5249 0.0
C64 C 0.88791 0.89668 0.66589 0.0
C65 C 0.86893 0.8887 0.68044 0.0
H66 H 0.83066 0.87087 0.70001 0.0
H67 H 0.80645 0.84962 0.66496 0.0
H68 H 0.92786 0.90099 0.57169 0.0
H69 H 0.92259 0.90951 0.62961 0.0
H70 H 0.89896 0.90619 0.68002 0.0
H71 H 0.86572 0.89211 0.70559 0.0
Mn72 Mn 0.45453 0.62182 0.77043 0.0
Mn73 Mn 0.4985 0.6198 0.72212 0.0
C74 C 0.48881 0.62528 0.79206 0.0
C75 C 0.4271 0.64129 0.7945 0.0
C76 C 0.47301 0.58119 0.74279 0.0
O77 O 0.44175 0.62594 0.72575 0.0
O78 O 0.4724 0.62704 0.69604 0.0
C79 C 0.50097 0.66477 0.70379 0.0
N80 N 0.51033 0.64741 0.71712 0.0
C81 C 0.54304 0.66661 0.72888 0.0
C82 C 0.53381 0.68463 0.715 0.0
C83 C 0.51268 0.68371 0.70245 0.0
C84 C 0.53068 0.64812 0.72923 0.0
H85 H 0.48465 0.6642 0.69439 0.0
C86 C 0.45174 0.62853 0.69907 0.0
O87 O 0.42523 0.62106 0.79091 0.0
O88 O 0.44454 0.65014 0.78349 0.0
N89 N 0.5248 0.61334 0.74459 0.0
C90 C 0.53079 0.59498 0.75906 0.0
C91 C 0.55122 0.59351 0.77384 0.0
C92 C 0.56529 0.6109 0.77356 0.0
C93 C 0.55883 0.62958 0.75835 0.0
C94 C 0.53837 0.63005 0.74369 0.0
H95 H 0.51999 0.58162 0.75962 0.0
O96 O 0.47263 0.61983 0.81022 0.0
O97 O 0.48433 0.62884 0.76193 0.0
O98 O 0.45952 0.59074 0.76093 0.0
O99 O 0.48781 0.59058 0.72666 0.0
C100 C 0.57169 0.64791 0.75779 0.0
C101 C 0.56381 0.6664 0.74306 0.0
H102 H 0.54272 0.69932 0.71417 0.0
H103 H 0.50539 0.6976 0.69191 0.0
H104 H 0.55606 0.57906 0.78563 0.0
H105 H 0.58092 0.60979 0.78534 0.0
H106 H 0.58755 0.64804 0.76903 0.0
H107 H 0.57372 0.68048 0.74319 0.0
Mn108 Mn 0.62838 0.19095 0.0595 0.0
Mn109 Mn 0.63789 0.13866 0.06472 0.0
C110 C 0.60273 0.16926 0.08201 0.0
C111 C 0.63174 0.22451 0.08171 0.0
C112 C 0.62275 0.15998 0.00337 0.0
O113 O 0.66048 0.18888 0.04992 0.0
O114 O 0.6654 0.15401 0.05595 0.0
C115 C 0.66325 0.14017 0.12527 0.0
N116 N 0.64599 0.13271 0.10828 0.0
C117 C 0.63315 0.11314 0.15419 0.0
C118 C 0.65088 0.1205 0.17211 0.0
C119 C 0.66598 0.13409 0.15758 0.0
C120 C 0.63132 0.1197 0.12206 0.0
H121 H 0.67479 0.15077 0.11428 0.0
C122 C 0.67245 0.17255 0.04977 0.0
O123 O 0.62847 0.22194 0.05097 0.0
O124 O 0.63391 0.20764 0.09896 0.0
N125 N 0.61302 0.12147 0.07307 0.0
C126 C 0.59712 0.1154 0.05221 0.0
C127 C 0.5808 0.10162 0.06287 0.0
C128 C 0.58115 0.09402 0.09468 0.0
C129 C 0.59807 0.09994 0.11537 0.0
C130 C 0.61404 0.11349 0.10326 0.0
H131 H 0.59677 0.1212 0.02774 0.0
O132 O 0.59749 0.18792 0.07211 0.0
O133 O 0.62312 0.16411 0.07979 0.0
O134 O 0.62163 0.17865 0.01486 0.0
O135 O 0.62886 0.14395 0.01973 0.0
C136 C 0.59962 0.09308 0.1476 0.0
C137 C 0.6171 0.09974 0.16704 0.0
H138 H 0.653 0.11591 0.19707 0.0
H139 H 0.67965 0.13991 0.17131 0.0
H140 H 0.5679 0.09699 0.04667 0.0
H141 H 0.56839 0.08361 0.10294 0.0
H142 H 0.58738 0.08278 0.15775 0.0
H143 H 0.61804 0.09447 0.19185 0.0
Mn144 Mn 0.04471 0.61365 0.21841 0.0
Mn145 Mn 6e-05 0.61133 0.26511 0.0
C146 C 0.01087 0.6181 0.19571 0.0
C147 C 0.07289 0.6331 0.19655 0.0
C148 C 0.0258 0.5729 0.24427 0.0
O149 O 0.05669 0.61666 0.26395 0.0
O150 O 0.02549 0.61897 0.29223 0.0
C151 C 0.9964 0.65622 0.28352 0.0
N152 N 0.98764 0.63875 0.26962 0.0
C153 C 0.95499 0.65751 0.25602 0.0
C154 C 0.96358 0.67564 0.27046 0.0
C155 C 0.98439 0.67499 0.28423 0.0
C156 C 0.96762 0.63919 0.25635 0.0
H157 H 0.01247 0.65586 0.29384 0.0
C158 C 0.04623 0.61989 0.29012 0.0
O159 O 0.07432 0.61277 0.19911 0.0
O160 O 0.05545 0.64206 0.20734 0.0
N161 N 0.97441 0.60452 0.24125 0.0
C162 C 0.96909 0.5861 0.2264 0.0
C163 C 0.94909 0.58437 0.21041 0.0
C164 C 0.93478 0.60158 0.20989 0.0
C165 C 0.94056 0.62033 0.22551 0.0
C166 C 0.96059 0.62104 0.24138 0.0
H167 H 0.98006 0.57286 0.22653 0.0
O168 O 0.02727 0.6129 0.17781 0.0
O169 O 0.01494 0.62084 0.22615 0.0
O170 O 0.03899 0.5825 0.22576 0.0
O171 O 0.01137 0.58223 0.26121 0.0
C172 C 0.92743 0.63848 0.22532 0.0
C173 C 0.93464 0.65706 0.24058 0.0
H174 H 0.95446 0.69021 0.27077 0.0
H175 H 0.99119 0.68896 0.2952 0.0
H176 H 0.94477 0.56987 0.19833 0.0
H177 H 0.91949 0.60027 0.19718 0.0
H178 H 0.9119 0.63842 0.21311 0.0
H179 H 0.92454 0.671 0.23986 0.0
Mn180 Mn 0.62921 0.80855 0.43641 0.0
Mn181 Mn 0.63552 0.86138 0.43239 0.0
C182 C 0.60255 0.82895 0.4137 0.0
C183 C 0.63433 0.77525 0.41402 0.0
C184 C 0.62048 0.83895 0.49265 0.0
O185 O 0.66117 0.8122 0.44642 0.0
O186 O 0.66345 0.84747 0.44315 0.0
C187 C 0.6628 0.86121 0.37363 0.0
N188 N 0.64467 0.86781 0.38945 0.0
C189 C 0.63243 0.88706 0.34289 0.0
C190 C 0.65105 0.88059 0.32617 0.0
C191 C 0.66628 0.86758 0.34161 0.0
C192 C 0.62984 0.88019 0.37475 0.0
H193 H 0.67447 0.85109 0.38533 0.0
C194 C 0.67177 0.82934 0.44852 0.0
O195 O 0.63085 0.7776 0.44474 0.0
O196 O 0.63587 0.79224 0.39689 0.0
N197 N 0.61011 0.87741 0.4224 0.0
C198 C 0.59344 0.88288 0.44231 0.0
C199 C 0.57693 0.89611 0.43073 0.0
C200 C 0.57792 0.90387 0.39904 0.0
C201 C 0.59564 0.89864 0.37941 0.0
C202 C 0.61172 0.88557 0.39239 0.0
H203 H 0.59264 0.87702 0.46673 0.0
O204 O 0.59831 0.81001 0.42336 0.0
O205 O 0.62259 0.83523 0.41628 0.0
O206 O 0.62132 0.82026 0.48114 0.0
O207 O 0.6254 0.85548 0.47659 0.0
C208 C 0.59794 0.90579 0.34742 0.0
C209 C 0.61627 0.89993 0.32912 0.0
H210 H 0.65378 0.88544 0.30145 0.0
H211 H 0.68064 0.86244 0.32882 0.0
H212 H 0.56342 0.90024 0.44615 0.0
H213 H 0.56506 0.91389 0.39008 0.0
H214 H 0.58568 0.91576 0.33664 0.0
H215 H 0.61779 0.90543 0.3045 0.0
Mn216 Mn 0.45023 0.3819 0.72044 0.0
Mn217 Mn 0.49587 0.38395 0.76509 0.0
C218 C 0.4835 0.37631 0.69654 0.0
C219 C 0.42137 0.36259 0.7003 0.0
C220 C 0.47098 0.42269 0.74334 0.0
O221 O 0.43894 0.3799 0.76634 0.0
O222 O 0.47055 0.37822 0.79363 0.0
C223 C 0.49775 0.3395 0.78636 0.0
N224 N 0.50711 0.35618 0.77113 0.0
C225 C 0.53887 0.33578 0.75837 0.0
C226 C 0.52965 0.31844 0.77419 0.0
C227 C 0.50899 0.32031 0.7882 0.0
C228 C 0.52699 0.35456 0.75757 0.0
H229 H 0.48179 0.34079 0.79691 0.0
C230 C 0.44976 0.37755 0.79233 0.0
O231 O 0.42031 0.38298 0.70214 0.0
O232 O 0.43882 0.35354 0.71083 0.0
N233 N 0.52151 0.38898 0.74015 0.0
C234 C 0.52752 0.40674 0.72403 0.0
C235 C 0.5475 0.40724 0.70776 0.0
C236 C 0.56109 0.3895 0.70826 0.0
C237 C 0.55464 0.37146 0.72519 0.0
C238 C 0.53466 0.37196 0.74127 0.0
H239 H 0.51708 0.42037 0.72332 0.0
O240 O 0.46693 0.3817 0.67916 0.0
O241 O 0.47999 0.3741 0.72724 0.0
O242 O 0.45668 0.41308 0.72673 0.0
O243 O 0.48585 0.41329 0.75929 0.0
C244 C 0.56703 0.35283 0.72614 0.0
C245 C 0.55915 0.33501 0.74272 0.0
H246 H 0.53819 0.30356 0.77543 0.0
H247 H 0.5017 0.30696 0.80025 0.0
H248 H 0.55233 0.4212 0.69466 0.0
H249 H 0.57636 0.38985 0.69533 0.0
H250 H 0.58249 0.35195 0.7138 0.0
H251 H 0.56868 0.32069 0.74288 0.0
Mn252 Mn 0.86578 0.19257 0.94216 0.0
Mn253 Mn 0.85688 0.14014 0.93747 0.0
C254 C 0.89138 0.17114 0.91888 0.0
C255 C 0.86165 0.22606 0.9199 0.0
C256 C 0.87257 0.16181 0.99826 0.0
O257 O 0.83383 0.19011 0.9528 0.0
O258 O 0.8293 0.15519 0.94679 0.0
C259 C 0.83081 0.14111 0.87756 0.0
N260 N 0.84834 0.13391 0.89419 0.0
C261 C 0.86074 0.11405 0.8483 0.0
C262 C 0.84273 0.12115 0.83075 0.0
C263 C 0.82771 0.13476 0.84545 0.0
C264 C 0.86295 0.1209 0.88023 0.0
H265 H 0.81933 0.1517 0.8887 0.0
C266 C 0.82207 0.17363 0.95319 0.0
O267 O 0.86539 0.22358 0.95053 0.0
O268 O 0.85944 0.20912 0.9028 0.0
N269 N 0.88187 0.12321 0.92864 0.0
C270 C 0.89811 0.11746 0.94913 0.0
C271 C 0.9144 0.10371 0.93826 0.0
C272 C 0.91367 0.09581 0.90663 0.0
C273 C 0.89643 0.10143 0.88634 0.0
C274 C 0.88052 0.11498 0.89864 0.0
H275 H 0.89874 0.12345 0.97348 0.0
O276 O 0.89652 0.18988 0.92851 0.0
O277 O 0.8711 0.16574 0.92182 0.0
O278 O 0.87337 0.18046 0.98663 0.0
O279 O 0.86637 0.14569 0.98217 0.0
C280 C 0.89449 0.09426 0.85431 0.0
C281 C 0.8767 0.10063 0.83526 0.0
H282 H 0.84032 0.11633 0.80595 0.0
H283 H 0.81383 0.14038 0.83201 0.0
H284 H 0.92756 0.09932 0.95416 0.0
H285 H 0.92639 0.08542 0.89821 0.0
H286 H 0.90665 0.08394 0.84403 0.0
H287 H 0.87547 0.09514 0.8106 0.0
Mn288 Mn 0.93792 0.62175 0.71262 0.0
Mn289 Mn 0.97925 0.61 0.76286 0.0
C290 C 0.97221 0.61553 0.69233 0.0
C291 C 0.91752 0.64692 0.68519 0.0
C292 C 0.94365 0.57905 0.74525 0.0
O293 O 0.92675 0.63139 0.75637 0.0
O294 O 0.95625 0.6251 0.78717 0.0
C295 C 0.99502 0.65287 0.77804 0.0
N296 N -0.0012 0.63324 0.7661 0.0
C297 C 0.03605 0.6418 0.75467 0.0
C298 C 0.03258 0.66208 0.767 0.0
C299 C 0.01197 0.66764 0.7787 0.0
C300 C 0.01861 0.62768 0.75496 0.0
H301 H 0.97918 0.65725 0.78691 0.0
C302 C 0.93694 0.63216 0.78319 0.0
O303 O 0.90956 0.62841 0.69136 0.0
O304 O 0.93684 0.6509 0.69584 0.0
N305 N 0.00257 0.59569 0.74161 0.0
C306 C 0.00273 0.57614 0.72809 0.0
C307 C 0.02186 0.56855 0.71385 0.0
C308 C 0.04062 0.5811 0.71371 0.0
C309 C 0.04008 0.60113 0.72786 0.0
C310 C 0.02059 0.60781 0.7419 0.0
H311 H 0.98832 0.56648 0.72795 0.0
O312 O 0.95532 0.61332 0.67393 0.0
O313 O 0.96837 0.62097 0.72194 0.0
O314 O 0.93359 0.59083 0.7253 0.0
O315 O 0.96044 0.58494 0.76085 0.0
C316 C 0.05797 0.61492 0.72791 0.0
C317 C 0.05596 0.63524 0.74132 0.0
H318 H 0.04554 0.67358 0.76727 0.0
H319 H 0.00913 0.68329 0.7881 0.0
H320 H 0.02212 0.5531 0.70286 0.0
H321 H 0.05529 0.57527 0.7024 0.0
H322 H 0.07325 0.61019 0.71719 0.0
H323 H 0.06972 0.64583 0.7407 0.0
Mn324 Mn 0.12914 0.21192 0.45367 0.0
Mn325 Mn 0.1374 0.25086 0.50712 0.0
C326 C 0.13604 0.24541 0.43516 0.0
C327 C 0.10388 0.19216 0.4252 0.0
C328 C 0.17054 0.21683 0.49163 0.0
O329 O 0.11901 0.19969 0.4962 0.0
O330 O 0.12004 0.22831 0.52841 0.0
C331 C 0.09259 0.26648 0.51586 0.0
N332 N 0.1136 0.27011 0.5074 0.0
C333 C 0.10596 0.30644 0.49561 0.0
C334 C 0.08427 0.30315 0.50446 0.0
C335 C 0.07756 0.28308 0.5146 0.0
C336 C 0.12027 0.28939 0.4978 0.0
H337 H 0.08733 0.25103 0.52339 0.0
C338 C 0.11541 0.20894 0.52295 0.0
O339 O 0.12316 0.18472 0.43095 0.0
O340 O 0.09948 0.21073 0.43625 0.0
N341 N 0.15383 0.27358 0.48914 0.0
C342 C 0.17481 0.27364 0.4788 0.0
C343 C 0.18378 0.29227 0.46637 0.0
C344 C 0.17111 0.31061 0.46471 0.0
C345 C 0.14957 0.31018 0.47557 0.0
C346 C 0.14158 0.29122 0.48805 0.0
H347 H 0.18457 0.25956 0.4798 0.0
O348 O 0.13853 0.22931 0.41624 0.0
O349 O 0.12905 0.2413 0.4641 0.0
O350 O 0.16057 0.20829 0.46808 0.0
O351 O 0.16291 0.23208 0.50825 0.0
C352 C 0.13557 0.32766 0.47373 0.0
C353 C 0.11378 0.3258 0.48377 0.0
H354 H 0.07257 0.31584 0.50316 0.0
H355 H 0.06081 0.28038 0.52125 0.0
H356 H 0.20038 0.29245 0.4579 0.0
H357 H 0.17801 0.32488 0.45476 0.0
H358 H 0.14128 0.34251 0.46411 0.0
H359 H 0.10308 0.33926 0.48173 0.0
Mn360 Mn 0.55272 0.3771 0.21603 0.0
Mn361 Mn 0.51109 0.39011 0.26478 0.0
C362 C 0.51841 0.38107 0.19486 0.0
C363 C 0.57439 0.35081 0.19382 0.0
C364 C 0.54636 0.42066 0.2441 0.0
O365 O 0.56404 0.37088 0.26115 0.0
O366 O 0.53358 0.37543 0.29064 0.0
C367 C 0.49442 0.34804 0.28283 0.0
N368 N 0.49111 0.36729 0.26925 0.0
C369 C 0.45392 0.35884 0.2573 0.0
C370 C 0.4569 0.33896 0.27131 0.0
C371 C 0.47725 0.33355 0.28411 0.0
C372 C 0.47155 0.37274 0.25707 0.0
H373 H 0.51007 0.34377 0.29254 0.0
C374 C 0.55341 0.36961 0.28756 0.0
O375 O 0.58132 0.37008 0.19591 0.0
O376 O 0.55513 0.34692 0.20479 0.0
N377 N 0.48827 0.40403 0.24177 0.0
C378 C 0.48861 0.42307 0.22666 0.0
C379 C 0.46982 0.43039 0.21115 0.0
C380 C 0.45089 0.41809 0.21135 0.0
C381 C 0.45091 0.39857 0.22711 0.0
C382 C 0.47007 0.39216 0.2424 0.0
H383 H 0.50314 0.43254 0.22622 0.0
O384 O 0.53527 0.38224 0.17617 0.0
O385 O 0.52229 0.37755 0.22513 0.0
O386 O 0.55577 0.40878 0.22365 0.0
O387 O 0.5304 0.41485 0.26159 0.0
C388 C 0.43284 0.385 0.22757 0.0
C389 C 0.43433 0.36517 0.2427 0.0
H390 H 0.44377 0.32765 0.27203 0.0
H391 H 0.47971 0.31819 0.29481 0.0
H392 H 0.46996 0.44544 0.19891 0.0
H393 H 0.43651 0.42369 0.19905 0.0
H394 H 0.41783 0.38951 0.21588 0.0
H395 H 0.42044 0.35473 0.24241 0.0
Mn396 Mn 0.3702 0.78479 0.95124 0.0
Mn397 Mn 0.36365 0.74477 0.0036 0.0
C398 C 0.36658 0.75101 0.9321 0.0
C399 C 0.39358 0.80685 0.92328 0.0
C400 C 0.32776 0.77519 0.98554 0.0
O401 O 0.37886 0.79753 0.994 0.0
O402 O 0.37649 0.76933 0.02677 0.0
C403 C 0.40974 0.73531 0.0172 0.0
N404 N 0.38992 0.72893 0.00652 0.0
C405 C 0.40333 0.69411 0.99536 0.0
C406 C 0.42385 0.70026 0.00647 0.0
C407 C 0.42706 0.72096 0.01742 0.0
C408 C 0.38661 0.70902 0.99609 0.0
H409 H 0.41231 0.75126 0.02538 0.0
C410 C 0.3809 0.78877 0.02148 0.0
O411 O 0.37368 0.8125 0.92903 0.0
O412 O 0.39977 0.78873 0.93427 0.0
N413 N 0.35154 0.7201 0.98418 0.0
C414 C 0.33122 0.71716 0.97209 0.0
C415 C 0.3256 0.69754 0.95893 0.0
C416 C 0.3409 0.68115 0.95842 0.0
C417 C 0.36166 0.68451 0.9712 0.0
C418 C 0.36627 0.70433 0.9843 0.0
H419 H 0.31946 0.72975 0.9722 0.0
O420 O 0.36282 0.76697 0.91341 0.0
O421 O 0.37274 0.75539 0.96138 0.0
O422 O 0.33838 0.78575 0.96469 0.0
O423 O 0.33577 0.75991 0.00165 0.0
C424 C 0.37814 0.66915 0.97071 0.0
C425 C 0.39895 0.67393 0.9828 0.0
H426 H 0.43731 0.6893 0.00637 0.0
H427 H 0.44289 0.72586 0.02584 0.0
H428 H 0.30956 0.69509 0.94902 0.0
H429 H 0.33658 0.66611 0.94791 0.0
H430 H 0.37508 0.6537 0.96064 0.0
H431 H 0.41157 0.66209 0.98186 0.0
Mn432 Mn 0.93733 0.37982 0.78502 0.0
Mn433 Mn 0.97929 0.39343 0.73726 0.0
C434 C 0.97159 0.38364 0.80671 0.0
C435 C 0.91579 0.35323 0.80675 0.0
C436 C 0.9438 0.4238 0.75809 0.0
O437 O 0.92634 0.37373 0.73967 0.0
O438 O 0.9569 0.37912 0.71076 0.0
C439 C 0.99598 0.3516 0.71794 0.0
N440 N -0.00076 0.37064 0.73222 0.0
C441 C 0.03647 0.3621 0.74381 0.0
C442 C 0.03352 0.34243 0.72911 0.0
C443 C 0.01318 0.33716 0.71615 0.0
C444 C 0.01879 0.37594 0.7446 0.0
H445 H 0.98035 0.34745 0.70805 0.0
C446 C 0.93717 0.37293 0.71339 0.0
O447 O 0.90869 0.37246 0.80482 0.0
O448 O 0.93511 0.34956 0.79584 0.0
N449 N 0.00202 0.40698 0.76093 0.0
C450 C 0.00164 0.42581 0.77668 0.0
C451 C 0.02042 0.43294 0.79241 0.0
C452 C 0.03938 0.42069 0.79175 0.0
C453 C 0.03939 0.40139 0.77535 0.0
C454 C 0.02023 0.39515 0.75994 0.0
H455 H 0.98709 0.43524 0.77742 0.0
O456 O 0.95463 0.38478 0.82519 0.0
O457 O 0.96783 0.38042 0.77634 0.0
O458 O 0.93405 0.41157 0.77772 0.0
O459 O 0.96009 0.41816 0.7411 0.0
C460 C 0.05751 0.3879 0.77431 0.0
C461 C 0.05607 0.36829 0.7585 0.0
H462 H 0.04669 0.33117 0.72795 0.0
H463 H 0.01076 0.32197 0.7049 0.0
H464 H 0.02026 0.44782 0.80513 0.0
H465 H 0.05378 0.42618 0.80413 0.0
H466 H 0.07254 0.39231 0.78603 0.0
H467 H 0.07 0.35791 0.75833 0.0
Mn468 Mn 0.3737 0.21412 0.55004 0.0
Mn469 Mn 0.3576 0.25335 0.50061 0.0
C470 C 0.36783 0.24723 0.57063 0.0
C471 C 0.40176 0.19454 0.57232 0.0
C472 C 0.32731 0.21987 0.52645 0.0
O473 O 0.3798 0.2024 0.50581 0.0
O474 O 0.36956 0.22956 0.47449 0.0
C475 C 0.40086 0.26564 0.47596 0.0
N476 N 0.38201 0.27085 0.49113 0.0
C477 C 0.39382 0.30666 0.49816 0.0
C478 C 0.41329 0.30171 0.48238 0.0
C479 C 0.41682 0.2811 0.47126 0.0
C480 C 0.37842 0.29064 0.50186 0.0
H481 H 0.40371 0.24978 0.46757 0.0
C482 C 0.37723 0.21096 0.47832 0.0
O483 O 0.38223 0.18691 0.57049 0.0
O484 O 0.40486 0.2133 0.56094 0.0
N485 N 0.34597 0.27748 0.52224 0.0
C486 C 0.32682 0.27943 0.53836 0.0
C487 C 0.32114 0.2989 0.55197 0.0
C488 C 0.33511 0.31622 0.5486 0.0
C489 C 0.35456 0.31395 0.53143 0.0
C490 C 0.35928 0.29418 0.51818 0.0
H491 H 0.31605 0.26619 0.541 0.0
O492 O 0.36776 0.2309 0.58943 0.0
O493 O 0.37187 0.24374 0.54023 0.0
O494 O 0.34122 0.20963 0.5429 0.0
O495 O 0.33157 0.23639 0.51003 0.0
C496 C 0.36968 0.33038 0.52757 0.0
C497 C 0.3893 0.32674 0.51096 0.0
H498 H 0.42571 0.31355 0.47894 0.0
H499 H 0.43185 0.27713 0.45923 0.0
H500 H 0.30608 0.30053 0.56513 0.0
H501 H 0.33078 0.33117 0.55942 0.0
H502 H 0.36652 0.3458 0.53767 0.0
H503 H 0.40092 0.33943 0.5085 0.0
Mn504 Mn 0.55666 0.62092 0.28348 0.0
Mn505 Mn 0.51521 0.60616 0.23541 0.0
C506 C 0.52216 0.61789 0.30447 0.0
C507 C 0.57841 0.64777 0.30394 0.0
C508 C 0.54984 0.57622 0.25995 0.0
O509 O 0.56836 0.62546 0.23815 0.0
O510 O 0.5383 0.61922 0.20859 0.0
C511 C 0.49973 0.64767 0.21253 0.0
N512 N 0.4958 0.62912 0.22793 0.0
C513 C 0.45859 0.63872 0.23755 0.0
C514 C 0.46221 0.65788 0.22164 0.0
C515 C 0.48288 0.66237 0.20912 0.0
C516 C 0.47595 0.62458 0.23992 0.0
H517 H 0.51561 0.65124 0.203 0.0
C518 C 0.55802 0.62538 0.21144 0.0
O519 O 0.58517 0.6284 0.30342 0.0
O520 O 0.55927 0.65146 0.29233 0.0
N521 N 0.49177 0.59377 0.25909 0.0
C522 C 0.49142 0.57536 0.27596 0.0
C523 C 0.4722 0.56901 0.29131 0.0
C524 C 0.45353 0.58159 0.28908 0.0
C525 C 0.45424 0.60042 0.27149 0.0
C526 C 0.47382 0.60587 0.25649 0.0
H527 H 0.50571 0.56566 0.27784 0.0
O528 O 0.5389 0.61732 0.32344 0.0
O529 O 0.52621 0.62031 0.27398 0.0
O530 O 0.55958 0.58901 0.27865 0.0
O531 O 0.53384 0.58122 0.242 0.0
C532 C 0.43644 0.61421 0.26886 0.0
C533 C 0.43861 0.63335 0.25189 0.0
H534 H 0.44932 0.66935 0.21922 0.0
H535 H 0.48582 0.67717 0.19696 0.0
H536 H 0.4718 0.55448 0.30493 0.0
H537 H 0.4388 0.57671 0.30118 0.0
H538 H 0.42111 0.61043 0.28025 0.0
H539 H 0.42491 0.64399 0.25051 0.0
Mn540 Mn 0.12528 0.78019 0.04625 0.0
Mn541 Mn 0.13344 0.74088 0.99301 0.0
C542 C 0.13004 0.74637 0.06462 0.0
C543 C 0.10124 0.8013 0.07474 0.0
C544 C 0.16819 0.77222 0.01214 0.0
O545 O 0.11631 0.79307 0.00368 0.0
O546 O 0.11998 0.76529 0.97032 0.0
C547 C 0.08776 0.73021 0.97855 0.0
N548 N 0.10772 0.72429 0.98927 0.0
C549 C 0.09548 0.68888 -0.00114 0.0
C550 C 0.07482 0.69455 0.98769 0.0
C551 C 0.07095 0.71531 0.97752 0.0
C552 C 0.11166 0.70434 -0.00104 0.0
H553 H 0.08469 0.74619 0.97094 0.0
C554 C 0.11484 0.78452 0.97596 0.0
O555 O 0.12094 0.80755 0.06901 0.0
O556 O 0.09556 0.78313 0.06334 0.0
N557 N 0.14624 0.71635 0.01186 0.0
C558 C 0.16657 0.71388 0.02415 0.0
C559 C 0.17279 0.69424 0.03664 0.0
C560 C 0.15809 0.67736 0.03625 0.0
C561 C 0.1373 0.68024 0.02326 0.0
C562 C 0.13209 0.70012 0.01088 0.0
H563 H 0.17788 0.72685 0.02471 0.0
O564 O 0.13319 0.76227 0.0837 0.0
O565 O 0.12378 0.7508 0.0354 0.0
O566 O 0.15709 0.78228 0.03302 0.0
O567 O 0.16081 0.7568 0.99569 0.0
C568 C 0.12138 0.66434 0.02288 0.0
C569 C 0.10049 0.66865 0.01066 0.0
H570 H 0.06175 0.68315 0.98715 0.0
H571 H 0.05502 0.71983 0.96905 0.0
H572 H 0.18884 0.69215 0.04671 0.0
H573 H 0.16286 0.6623 0.04624 0.0
H574 H 0.12492 0.64884 0.03238 0.0
H575 H 0.08829 0.65638 0.01094 0.0
Mn576 Mn 0.54098 0.88034 0.77074 0.0
Mn577 Mn 0.49767 0.88561 0.7219 0.0
C578 C 0.50634 0.87931 0.79175 0.0
C579 C 0.56604 0.85833 0.79565 0.0
C580 C 0.52593 0.92227 0.74306 0.0
O581 O 0.55372 0.87519 0.72632 0.0
O582 O 0.52333 0.87668 0.69605 0.0
C583 C 0.49198 0.84101 0.70299 0.0
N584 N 0.48387 0.85889 0.71653 0.0
C585 C 0.44993 0.84183 0.72834 0.0
C586 C 0.45785 0.8233 0.71423 0.0
C587 C 0.47898 0.82289 0.70154 0.0
C588 C 0.46354 0.85948 0.72874 0.0
H589 H 0.50829 0.84054 0.69353 0.0
C590 C 0.54377 0.87356 0.69944 0.0
O591 O 0.57011 0.87827 0.79192 0.0
O592 O 0.54797 0.85133 0.78394 0.0
N593 N 0.47183 0.89374 0.74434 0.0
C594 C 0.46721 0.91234 0.75921 0.0
C595 C 0.447 0.91505 0.77426 0.0
C596 C 0.43176 0.89862 0.77391 0.0
C597 C 0.43685 0.87965 0.75838 0.0
C598 C 0.45715 0.87794 0.74344 0.0
H599 H 0.47894 0.92494 0.75987 0.0
O600 O 0.52269 0.88375 0.81019 0.0
O601 O 0.51087 0.87559 0.76171 0.0
O602 O 0.53872 0.91178 0.76113 0.0
O603 O 0.51048 0.91394 0.72691 0.0
C604 C 0.42276 0.86219 0.75779 0.0
C605 C 0.42929 0.8433 0.74276 0.0
H606 H 0.44796 0.80922 0.71336 0.0
H607 H 0.48527 0.8086 0.69084 0.0
H608 H 0.44324 0.92971 0.78633 0.0
H609 H 0.41629 0.90068 0.7859 0.0
H610 H 0.40698 0.86303 0.76923 0.0
H611 H 0.41843 0.8299 0.74287 0.0
Mn612 Mn 0.36598 0.30565 0.05124 0.0
Mn613 Mn 0.35545 0.35755 0.06077 0.0
C614 C 0.39031 0.32653 0.07818 0.0
C615 C 0.36239 0.27103 0.06889 0.0
C616 C 0.37376 0.33916 -0.00086 0.0
O617 O 0.33431 0.30776 0.0389 0.0
O618 O 0.32868 0.34225 0.0478 0.0
C619 C 0.32746 0.35301 0.11838 0.0
N620 N 0.34529 0.36146 0.10393 0.0
C621 C 0.35551 0.37937 0.15278 0.0
C622 C 0.33718 0.37096 0.16812 0.0
C623 C 0.32311 0.35771 0.15085 0.0
C624 C 0.359 0.37412 0.12039 0.0
H625 H 0.3167 0.34269 0.10526 0.0
C626 C 0.32214 0.32394 0.03926 0.0
O627 O 0.3669 0.27533 0.03898 0.0
O628 O 0.35904 0.28683 0.08804 0.0
N629 N 0.37949 0.37478 0.07327 0.0
C630 C 0.39601 0.3822 0.05459 0.0
C631 C 0.4114 0.3959 0.06811 0.0
C632 C 0.40945 0.40212 0.10049 0.0
C633 C 0.39187 0.39491 0.11888 0.0
C634 C 0.37691 0.38145 0.10399 0.0
H635 H 0.39756 0.37752 0.02965 0.0
O636 O 0.39617 0.30837 0.06699 0.0
O637 O 0.36997 0.33164 0.07474 0.0
O638 O 0.37451 0.32005 0.00883 0.0
O639 O 0.36663 0.35441 0.01634 0.0
C640 C 0.38866 0.40044 0.15145 0.0
C641 C 0.37054 0.3926 0.16843 0.0
H642 H 0.33379 0.37451 0.19318 0.0
H643 H 0.30898 0.35109 0.16256 0.0
H644 H 0.4248 0.40157 0.05365 0.0
H645 H 0.42149 0.4125 0.11095 0.0
H646 H 0.40007 0.41064 0.16369 0.0
H647 H 0.36831 0.39687 0.1935 0.0
Mn648 Mn 0.94988 0.12 0.2779 0.0
Mn649 Mn 0.99417 0.11871 0.2302 0.0
C650 C 0.98385 0.12459 0.3 0.0
C651 C 0.92162 0.1388 0.30091 0.0
C652 C 0.96931 0.07975 0.25094 0.0
O653 O 0.93741 0.12323 0.23272 0.0
O654 O 0.96832 0.12605 0.20387 0.0
C655 C 0.99677 0.16378 0.21252 0.0
N656 N 0.00603 0.14636 0.22579 0.0
C657 C 0.03868 0.16546 0.23822 0.0
C658 C 0.02956 0.18356 0.22441 0.0
C659 C 0.0085 0.18272 0.21156 0.0
C660 C 0.02629 0.14698 0.23821 0.0
H661 H 0.98051 0.16327 0.20288 0.0
C662 C 0.94759 0.12668 0.2064 0.0
O663 O 0.92049 0.11849 0.29783 0.0
O664 O 0.93879 0.14814 0.28991 0.0
N665 N 0.02027 0.11215 0.25313 0.0
C666 C 0.02617 0.09369 0.26738 0.0
C667 C 0.04651 0.09212 0.28242 0.0
C668 C 0.06059 0.10951 0.28257 0.0
C669 C 0.05424 0.12828 0.26751 0.0
C670 C 0.03386 0.12885 0.2526 0.0
H671 H 0.01539 0.0803 0.26749 0.0
O672 O 0.96767 0.11907 0.31811 0.0
O673 O 0.97951 0.12766 0.26971 0.0
O674 O 0.95603 0.08901 0.26972 0.0
O675 O 0.98347 0.08942 0.23396 0.0
C676 C 0.06713 0.14659 0.26732 0.0
C677 C 0.05936 0.16516 0.25268 0.0
H678 H 0.03849 0.19824 0.22388 0.0
H679 H 0.00129 0.19666 0.20108 0.0
H680 H 0.05128 0.07759 0.29404 0.0
H681 H 0.07616 0.10831 0.29453 0.0
H682 H 0.08292 0.14664 0.27878 0.0
H683 H 0.06929 0.17922 0.25311 0.0
Mn684 Mn 0.12704 0.68959 0.55351 0.0
Mn685 Mn 0.13672 0.63732 0.55877 0.0
C686 C 0.1017 0.66793 0.57688 0.0
C687 C 0.13087 0.72312 0.57587 0.0
C688 C 0.12063 0.65847 0.49772 0.0
O689 O 0.15901 0.6875 0.54285 0.0
O690 O 0.16411 0.6527 0.54936 0.0
C691 C 0.16271 0.639 0.61872 0.0
N692 N 0.14528 0.63147 0.60217 0.0
C693 C 0.13295 0.61199 0.64846 0.0
C694 C 0.15085 0.61942 0.66594 0.0
C695 C 0.16578 0.63299 0.651 0.0
C696 C 0.13077 0.61848 0.61635 0.0
H697 H 0.17411 0.64959 0.60742 0.0
C698 C 0.17105 0.67121 0.54275 0.0
O699 O 0.12704 0.72067 0.54525 0.0
O700 O 0.13326 0.70617 0.59285 0.0
N701 N 0.11198 0.62009 0.56776 0.0
C702 C 0.0959 0.61391 0.54728 0.0
C703 C 0.07973 0.60011 0.55837 0.0
C704 C 0.08041 0.5926 0.59023 0.0
C705 C 0.09751 0.59862 0.61051 0.0
C706 C 0.11332 0.61219 0.59797 0.0
H707 H 0.0953 0.61962 0.52277 0.0
O708 O 0.09635 0.6866 0.56721 0.0
O709 O 0.12205 0.66276 0.57401 0.0
O710 O 0.11953 0.67719 0.50909 0.0
O711 O 0.12717 0.64255 0.514 0.0
C712 C 0.0994 0.59184 0.64274 0.0
C713 C 0.11707 0.59858 0.66174 0.0
H714 H 0.15324 0.61488 0.69087 0.0
H715 H 0.17958 0.63887 0.66438 0.0
H716 H 0.06669 0.59539 0.54248 0.0
H717 H 0.06776 0.58218 0.59882 0.0
H718 H 0.0873 0.58154 0.65322 0.0
H719 H 0.11827 0.59338 0.68656 0.0
Mn720 Mn 0.55722 0.12024 0.71662 0.0
Mn721 Mn 0.51037 0.12029 0.75864 0.0
C722 C 0.52468 0.12569 0.69046 0.0
C723 C 0.58688 0.13851 0.69675 0.0
C724 C 0.5351 0.08052 0.74111 0.0
O725 O 0.56733 0.12342 0.76301 0.0
O726 O 0.53501 0.12646 0.78814 0.0
C727 C 0.50882 0.16539 0.7765 0.0
N728 N 0.49952 0.14839 0.76203 0.0
C729 C 0.46842 0.16884 0.74625 0.0
C730 C 0.47759 0.18651 0.76124 0.0
C731 C 0.49789 0.18478 0.77637 0.0
C732 C 0.48001 0.14989 0.74734 0.0
H733 H 0.5245 0.16417 0.78795 0.0
C734 C 0.55582 0.12675 0.78811 0.0
O735 O 0.58756 0.11819 0.70004 0.0
O736 O 0.56936 0.14812 0.70578 0.0
N737 N 0.48527 0.1149 0.73272 0.0
C738 C 0.47923 0.09669 0.71784 0.0
C739 C 0.45955 0.09594 0.70085 0.0
C740 C 0.44625 0.11386 0.6994 0.0
C741 C 0.45272 0.13237 0.7151 0.0
C742 C 0.4724 0.13212 0.73198 0.0
H743 H 0.48942 0.08289 0.71869 0.0
O744 O 0.54158 0.11954 0.6744 0.0
O745 O 0.52746 0.1287 0.72115 0.0
O746 O 0.55001 0.08937 0.72466 0.0
O747 O 0.52001 0.09066 0.7555 0.0
C748 C 0.44063 0.15118 0.71413 0.0
C749 C 0.44848 0.1694 0.72966 0.0
H750 H 0.46928 0.20154 0.76099 0.0
H751 H 0.50514 0.19838 0.7878 0.0
H752 H 0.45469 0.08161 0.68872 0.0
H753 H 0.43121 0.1133 0.68595 0.0
H754 H 0.42542 0.15188 0.70111 0.0
H755 H 0.43919 0.18385 0.72835 0.0
Mn756 Mn 0.12798 0.30399 0.93643 0.0
Mn757 Mn 0.13682 0.35646 0.93252 0.0
C758 C 0.10172 0.32573 0.91558 0.0
C759 C 0.13138 0.27079 0.91288 0.0
C760 C 0.12303 0.3341 0.99379 0.0
O761 O 0.16024 0.30631 0.94484 0.0
O762 O 0.16464 0.34128 0.93934 0.0
C763 C 0.1609 0.35621 0.87075 0.0
N764 N 0.14394 0.36323 0.88886 0.0
C765 C 0.13016 0.38375 0.84458 0.0
C766 C 0.14757 0.37686 0.82552 0.0
C767 C 0.16298 0.36301 0.83866 0.0
C768 C 0.12896 0.37647 0.8764 0.0
H769 H 0.17269 0.34545 0.88069 0.0
C770 C 0.17203 0.32277 0.94472 0.0
O771 O 0.12858 0.27286 0.94381 0.0
O772 O 0.13306 0.28794 0.89618 0.0
N773 N 0.1116 0.37352 0.92604 0.0
C774 C 0.09603 0.379 0.94784 0.0
C775 C 0.07945 0.39291 0.9386 0.0
C776 C 0.07921 0.40127 0.90723 0.0
C777 C 0.09577 0.39591 0.88555 0.0
C778 C 0.11201 0.38217 0.89625 0.0
H779 H 0.09616 0.37266 0.972 0.0
O780 O 0.09684 0.30688 0.92504 0.0
O781 O 0.12207 0.33106 0.91723 0.0
O782 O 0.1218 0.31559 0.98175 0.0
O783 O 0.12879 0.35038 0.97769 0.0
C784 C 0.09672 0.40354 0.85367 0.0
C785 C 0.11385 0.3974 0.83316 0.0
H786 H 0.14919 0.38202 0.80073 0.0
H787 H 0.1764 0.35754 0.82406 0.0
H788 H 0.06682 0.3971 0.95556 0.0
H789 H 0.06626 0.4118 0.90007 0.0
H790 H 0.08428 0.41403 0.84463 0.0
H791 H 0.11432 0.40324 0.80863 0.0
Mn792 Mn 0.95385 0.8802 0.22601 0.0
Mn793 Mn 0.99802 0.8836 0.27365 0.0
C794 C 0.98788 0.87534 0.20445 0.0
C795 C 0.92602 0.86047 0.2038 0.0
C796 C 0.9731 0.92159 0.2496 0.0
O797 O 0.94124 0.87783 0.27112 0.0
O798 O 0.97196 0.87805 0.30072 0.0
C799 C -0.00017 0.83948 0.29643 0.0
N800 N 0.00938 0.85603 0.28114 0.0
C801 C 0.0415 0.83569 0.27032 0.0
C802 C 0.03207 0.81847 0.28617 0.0
C803 C 0.01114 0.82038 0.29925 0.0
C804 C 0.02954 0.8544 0.26854 0.0
H805 H 0.98368 0.84082 0.3063 0.0
C806 C 0.95129 0.87654 0.29796 0.0
O807 O 0.92455 0.88083 0.20576 0.0
O808 O 0.94326 0.85164 0.21552 0.0
N809 N 0.02427 0.88863 0.25019 0.0
C810 C 0.03052 0.90631 0.23405 0.0
C811 C 0.05082 0.90676 0.21866 0.0
C812 C 0.06447 0.88908 0.22009 0.0
C813 C 0.05775 0.87114 0.23707 0.0
C814 C 0.03746 0.87169 0.25224 0.0
H815 H 0.02004 0.91989 0.23268 0.0
O816 O 0.97172 0.88039 0.18598 0.0
O817 O 0.98351 0.87305 0.23493 0.0
O818 O 0.95946 0.91152 0.23241 0.0
O819 O 0.98776 0.91271 0.2666 0.0
C820 C 0.0702 0.85259 0.23897 0.0
C821 C 0.06208 0.83488 0.25558 0.0
H822 H 0.04066 0.80366 0.28815 0.0
H823 H 0.0037 0.80712 0.31135 0.0
H824 H 0.05586 0.92065 0.20554 0.0
H825 H 0.07999 0.88939 0.20785 0.0
H826 H 0.08592 0.85167 0.22736 0.0
H827 H 0.07168 0.82061 0.2565 0.0
Mn828 Mn 0.36494 0.69374 0.43761 0.0
Mn829 Mn 0.35723 0.64113 0.43293 0.0
C830 C 0.39094 0.67295 0.414 0.0
C831 C 0.35997 0.72714 0.41551 0.0
C832 C 0.37311 0.66302 0.49341 0.0
O833 O 0.33312 0.6906 0.44872 0.0
O834 O 0.32942 0.65559 0.44293 0.0
C835 C 0.33053 0.6418 0.37362 0.0
N836 N 0.34838 0.63488 0.38979 0.0
C837 C 0.36072 0.61546 0.34344 0.0
C838 C 0.34239 0.62227 0.32636 0.0
C839 C 0.32725 0.63552 0.34151 0.0
C840 C 0.36312 0.62224 0.37537 0.0
H841 H 0.31894 0.65212 0.3851 0.0
C842 C 0.32177 0.67386 0.44935 0.0
O843 O 0.36392 0.72471 0.44609 0.0
O844 O 0.35795 0.71018 0.3984 0.0
N845 N 0.38243 0.62465 0.42343 0.0
C846 C 0.39886 0.61894 0.44361 0.0
C847 C 0.41526 0.60547 0.43231 0.0
C848 C 0.41442 0.59776 0.40058 0.0
C849 C 0.39696 0.60325 0.38064 0.0
C850 C 0.38097 0.61654 0.39336 0.0
H851 H 0.39956 0.62478 0.46805 0.0
O852 O 0.39562 0.69182 0.42354 0.0
O853 O 0.37081 0.66703 0.41713 0.0
O854 O 0.3732 0.68172 0.48191 0.0
O855 O 0.36711 0.64678 0.47742 0.0
C856 C 0.39484 0.59617 0.3486 0.0
C857 C 0.37679 0.60235 0.32995 0.0
H858 H 0.33983 0.61749 0.30157 0.0
H859 H 0.31311 0.64091 0.32844 0.0
H860 H 0.42858 0.60114 0.44795 0.0
H861 H 0.42722 0.58756 0.39183 0.0
H862 H 0.40705 0.58604 0.33802 0.0
H863 H 0.37542 0.59691 0.30528 0.0
Mn864 Mn 0.43846 0.1225 0.21622 0.0
Mn865 Mn 0.4795 0.11032 0.26666 0.0
C866 C 0.47282 0.11645 0.19616 0.0
C867 C 0.41822 0.14787 0.18906 0.0
C868 C 0.44401 0.07954 0.24794 0.0
O869 O 0.42704 0.13172 0.26003 0.0
O870 O 0.45642 0.12531 0.29103 0.0
C871 C 0.49532 0.15304 0.28277 0.0
N872 N 0.49911 0.13349 0.2705 0.0
C873 C 0.53639 0.1421 0.25939 0.0
C874 C 0.53291 0.16228 0.27206 0.0
C875 C 0.51229 0.16777 0.28378 0.0
C876 C 0.51893 0.12799 0.25936 0.0
H877 H 0.47947 0.15737 0.29165 0.0
C878 C 0.43711 0.13237 0.28696 0.0
O879 O 0.41023 0.12931 0.19476 0.0
O880 O 0.43746 0.15179 0.20009 0.0
N881 N 0.50288 0.09613 0.24535 0.0
C882 C 0.50304 0.07669 0.23146 0.0
C883 C 0.52219 0.06919 0.21715 0.0
C884 C 0.54097 0.08172 0.21731 0.0
C885 C 0.54042 0.10164 0.23184 0.0
C886 C 0.52092 0.10822 0.24594 0.0
H887 H 0.48863 0.06705 0.23105 0.0
O888 O 0.45602 0.11443 0.17754 0.0
O889 O 0.46885 0.12165 0.22584 0.0
O890 O 0.43409 0.09149 0.2281 0.0
O891 O 0.46066 0.08529 0.26399 0.0
C892 C 0.55832 0.11542 0.23219 0.0
C893 C 0.55631 0.13563 0.24597 0.0
H894 H 0.54589 0.17377 0.27258 0.0
H895 H 0.50945 0.18336 0.29344 0.0
H896 H 0.52246 0.05384 0.20586 0.0
H897 H 0.55564 0.07597 0.20595 0.0
H898 H 0.5736 0.11076 0.22141 0.0
H899 H 0.57008 0.14621 0.24558 0.0
Mn900 Mn 0.62622 0.71576 0.95553 0.0
Mn901 Mn 0.63091 0.75533 0.00892 0.0
C902 C 0.62975 0.74992 0.93753 0.0
C903 C 0.60309 0.69436 0.92571 0.0
C904 C 0.66772 0.72544 0.99234 0.0
O905 O 0.61664 0.70244 0.99748 0.0
O906 O 0.61798 0.73039 0.03094 0.0
C907 C 0.58437 0.76396 0.02025 0.0
N908 N 0.6043 0.77071 0.01055 0.0
C909 C 0.59037 0.80512 0.99797 0.0
C910 C 0.56973 0.79859 0.00806 0.0
C911 C 0.56672 0.77792 0.01923 0.0
C912 C 0.6074 0.7906 -0.0001 0.0
H913 H 0.58196 0.74802 0.02855 0.0
C914 C 0.61393 0.71094 0.02505 0.0
O915 O 0.62285 0.68838 0.93188 0.0
O916 O 0.597 0.7123 0.93732 0.0
N917 N 0.64304 0.78028 0.99034 0.0
C918 C 0.66362 0.78364 0.97954 0.0
C919 C 0.66915 0.80332 0.9665 0.0
C920 C 0.65347 0.81932 0.96472 0.0
C921 C 0.63242 0.81552 0.97614 0.0
C922 C 0.62793 0.79568 0.98923 0.0
H923 H 0.67568 0.77133 0.98059 0.0
O924 O 0.63431 0.73428 0.91858 0.0
O925 O 0.62314 0.74491 0.96629 0.0
O926 O 0.65779 0.71477 0.9708 0.0
O927 O 0.659 0.7406 0.00797 0.0
C928 C 0.6156 0.83049 0.97439 0.0
C929 C 0.59459 0.8253 0.98532 0.0
H930 H 0.55602 0.80924 0.007 0.0
H931 H 0.55081 0.77272 0.02687 0.0
H932 H 0.68541 0.8061 0.95764 0.0
H933 H 0.65772 0.8344 0.9543 0.0
H934 H 0.61857 0.84595 0.9643 0.0
H935 H 0.58173 0.83685 0.98345 0.0
Mn936 Mn 0.05611 0.87498 0.71691 0.0
Mn937 Mn 0.01439 0.88766 0.76583 0.0
C938 C 0.02157 0.87819 0.69613 0.0
C939 C 0.07789 0.84886 0.69424 0.0
C940 C 0.04856 0.91897 0.7436 0.0
O941 O 0.06788 0.86911 0.76188 0.0
O942 O 0.03771 0.87431 0.79175 0.0
C943 C -0.00027 0.84527 0.78588 0.0
N944 N 0.99544 0.86417 0.77175 0.0
C945 C 0.95843 0.85417 0.76145 0.0
C946 C 0.96242 0.83464 0.77605 0.0
C947 C 0.98317 0.83017 0.78829 0.0
C948 C 0.9755 0.86868 0.76005 0.0
H949 H 0.01568 0.84172 0.79518 0.0
C950 C 0.05752 0.86845 0.78858 0.0
O951 O 0.08462 0.86821 0.69611 0.0
O952 O 0.05886 0.84478 0.70588 0.0
N953 N 0.99074 0.9003 0.74299 0.0
C954 C 0.99007 0.91913 0.72727 0.0
C955 C 0.97075 0.92553 0.71226 0.0
C956 C 0.95232 0.91256 0.71362 0.0
C957 C 0.95337 0.8933 0.73005 0.0
C958 C 0.97302 0.88781 0.74475 0.0
H959 H 0.00421 0.92911 0.72598 0.0
O960 O 0.03829 0.87966 0.67725 0.0
O961 O 0.02566 0.8749 0.7264 0.0
O962 O 0.05866 0.90683 0.7242 0.0
O963 O 0.03256 0.91302 0.76093 0.0
C964 C 0.93584 0.87912 0.73176 0.0
C965 C 0.93837 0.85958 0.74746 0.0
H966 H 0.94976 0.82288 0.77768 0.0
H967 H 0.9864 0.81509 0.79944 0.0
H968 H 0.9701 0.94038 0.69952 0.0
H969 H 0.93752 0.91746 0.70171 0.0
H970 H 0.92045 0.88293 0.72062 0.0
H971 H 0.92488 0.84866 0.74811 0.0
Mn972 Mn 0.873 0.28381 0.45489 0.0
Mn973 Mn 0.86071 0.24548 0.50792 0.0
C974 C 0.86632 0.25034 0.43642 0.0
C975 C 0.89959 0.30306 0.42837 0.0
C976 C 0.82889 0.27921 0.48678 0.0
O977 O 0.88152 0.29625 0.49788 0.0
O978 O 0.8756 0.26886 0.53125 0.0
C979 C 0.90501 0.23135 0.52469 0.0
N980 N 0.88489 0.22697 0.51294 0.0
C981 C 0.89445 0.19073 0.50385 0.0
C982 C 0.91523 0.19481 0.51609 0.0
C983 C 0.92053 0.21521 0.52653 0.0
C984 C 0.87957 0.20738 0.503 0.0
H985 H 0.90919 0.24705 0.53251 0.0
C986 C 0.88197 0.28774 0.5257 0.0
O987 O 0.8802 0.3107 0.43233 0.0
O988 O 0.90339 0.28453 0.44012 0.0
N989 N 0.84638 0.22199 0.48843 0.0
C990 C 0.82622 0.22109 0.47506 0.0
C991 C 0.81873 0.20199 0.46216 0.0
C992 C 0.83201 0.18403 0.46322 0.0
C993 C 0.85265 0.18532 0.47728 0.0
C994 C 0.85916 0.20473 0.49003 0.0
H995 H 0.81601 0.23488 0.47398 0.0
O996 O 0.86496 0.26633 0.41706 0.0
O997 O 0.87204 0.25447 0.466 0.0
O998 O 0.84103 0.28819 0.466 0.0
O999 O 0.83483 0.26349 0.50387 0.0
C1000 C 0.86722 0.16825 0.4784 0.0
C1001 C 0.8881 0.17095 0.4917 0.0
H1002 H 0.92732 0.18246 0.51724 0.0
H1003 H 0.93658 0.21851 0.53582 0.0
H1004 H 0.80281 0.20113 0.45126 0.0
H1005 H 0.82627 0.16939 0.45293 0.0
H1006 H 0.86266 0.15307 0.46865 0.0
H1007 H 0.89927 0.15779 0.49199 0.0
Mn1008 Mn 0.43719 0.87989 0.28087 0.0
Mn1009 Mn 0.47912 0.8935 0.23304 0.0
C1010 C 0.47148 0.88338 0.30248 0.0
C1011 C 0.41533 0.85348 0.30233 0.0
C1012 C 0.44397 0.92398 0.25462 0.0
O1013 O 0.42605 0.87418 0.2355 0.0
O1014 O 0.45656 0.87947 0.20644 0.0
C1015 C 0.49549 0.85165 0.21317 0.0
N1016 N 0.49892 0.87062 0.22759 0.0
C1017 C 0.53614 0.86183 0.23879 0.0
C1018 C 0.53302 0.84224 0.22393 0.0
C1019 C 0.5126 0.83712 0.2111 0.0
C1020 C 0.51855 0.87576 0.23985 0.0
H1021 H 0.47979 0.84763 0.20339 0.0
C1022 C 0.43677 0.87345 0.20912 0.0
O1023 O 0.4085 0.8728 0.3006 0.0
O1024 O 0.4346 0.84959 0.29135 0.0
N1025 N 0.50201 0.9068 0.2567 0.0
C1026 C 0.50181 0.92556 0.27263 0.0
C1027 C 0.52069 0.93255 0.28823 0.0
C1028 C 0.53959 0.92021 0.28724 0.0
C1029 C 0.53942 0.90098 0.27066 0.0
C1030 C 0.52016 0.89489 0.25538 0.0
H1031 H 0.48732 0.93507 0.27361 0.0
O1032 O 0.45455 0.88449 0.32102 0.0
O1033 O 0.46771 0.88029 0.27207 0.0
O1034 O 0.43421 0.91167 0.27409 0.0
O1035 O 0.46011 0.91835 0.23734 0.0
C1036 C 0.55747 0.88741 0.26931 0.0
C1037 C 0.55584 0.86785 0.25337 0.0
H1038 H 0.54612 0.8309 0.22255 0.0
H1039 H 0.51004 0.82199 0.19974 0.0
H1040 H 0.52067 0.94737 0.30109 0.0
H1041 H 0.55407 0.92559 0.29951 0.0
H1042 H 0.57257 0.89169 0.28093 0.0
H1043 H 0.56971 0.85739 0.25299 0.0
Mn1044 Mn 0.87184 0.71577 0.04471 0.0
Mn1045 Mn 0.86449 0.7574 0.99548 0.0
C1046 C 0.86903 0.74898 0.06626 0.0
C1047 C 0.89599 0.69295 0.06993 0.0
C1048 C 0.82831 0.72761 0.01477 0.0
O1049 O 0.8792 0.70403 0.00088 0.0
O1050 O 0.87518 0.73286 0.9699 0.0
C1051 C 0.91037 0.765 0.97806 0.0
N1052 N 0.89134 0.77209 0.99072 0.0
C1053 C 0.90672 0.80621 0.00125 0.0
C1054 C 0.92644 0.79932 0.98809 0.0
C1055 C 0.92827 0.77862 0.97648 0.0
C1056 C 0.88937 0.79199 0.00186 0.0
H1057 H 0.91189 0.74906 0.96929 0.0
C1058 C 0.87984 0.71334 0.9737 0.0
O1059 O 0.87591 0.68746 0.06521 0.0
O1060 O 0.90183 0.7113 0.05953 0.0
N1061 N 0.85439 0.78227 0.0168 0.0
C1062 C 0.83472 0.78599 0.03067 0.0
C1063 C 0.83051 0.80573 0.04457 0.0
C1064 C 0.84651 0.82146 0.04391 0.0
C1065 C 0.86656 0.81734 0.02924 0.0
C1066 C 0.86976 0.79742 0.01554 0.0
H1067 H 0.82244 0.77389 0.03151 0.0
O1068 O 0.8656 0.73252 0.08404 0.0
O1069 O 0.87453 0.74548 0.03638 0.0
O1070 O 0.83954 0.71551 0.03287 0.0
O1071 O 0.83615 0.74348 -0.00019 0.0
C1072 C 0.88368 0.83201 0.02841 0.0
C1073 C 0.90375 0.82645 0.01442 0.0
H1074 H 0.94035 0.80973 0.98707 0.0
H1075 H 0.94348 0.77316 0.96645 0.0
H1076 H 0.81503 0.80877 0.05595 0.0
H1077 H 0.8433 0.83659 0.05499 0.0
H1078 H 0.88171 0.84751 0.03891 0.0
H1079 H 0.91688 0.83777 0.01431 0.0
Mn1080 Mn 0.05257 0.1187 0.77753 0.0
Mn1081 Mn 0.00953 0.10595 0.73158 0.0
C1082 C 0.01877 0.11505 0.8009 0.0
C1083 C 0.07483 0.14502 0.79847 0.0
C1084 C 0.04523 0.07509 0.75006 0.0
O1085 O 0.06271 0.12467 0.73167 0.0
O1086 O 0.03123 0.12082 0.70439 0.0
C1087 C 0.99235 0.14816 0.7153 0.0
N1088 N 0.9894 0.12876 0.72856 0.0
C1089 C 0.95244 0.13697 0.74245 0.0
C1090 C 0.95502 0.15695 0.7286 0.0
C1091 C 0.97509 0.16258 0.71504 0.0
C1092 C 0.97015 0.12317 0.74166 0.0
H1093 H 0.00781 0.15265 0.70521 0.0
C1094 C 0.05122 0.12633 0.70613 0.0
O1095 O 0.08169 0.12574 0.79602 0.0
O1096 O 0.05535 0.14891 0.78843 0.0
N1097 N 0.98741 0.09196 0.75597 0.0
C1098 C 0.98821 0.0729 0.77103 0.0
C1099 C 0.96984 0.06545 0.78748 0.0
C1100 C 0.95083 0.07763 0.78825 0.0
C1101 C 0.95036 0.09716 0.77255 0.0
C1102 C 0.96913 0.10372 0.75634 0.0
H1103 H 0.00279 0.06351 0.77068 0.0
O1104 O 0.03611 0.11378 0.81852 0.0
O1105 O 0.0219 0.11842 0.77041 0.0
O1106 O 0.05525 0.08701 0.76982 0.0
O1107 O 0.02888 0.08113 0.73351 0.0
C1108 C 0.93219 0.1106 0.773 0.0
C1109 C 0.93321 0.13047 0.75791 0.0
H1110 H 0.94182 0.1682 0.72867 0.0
H1111 H 0.97727 0.17804 0.70459 0.0
H1112 H 0.97036 0.0504 0.79966 0.0
H1113 H 0.93676 0.07191 0.80122 0.0
H1114 H 0.91747 0.10596 0.78538 0.0
H1115 H 0.91927 0.14082 0.75895 0.0
Mn1116 Mn 0.62792 0.2856 0.5442 0.0
Mn1117 Mn 0.63887 0.24662 0.49152 0.0
C1118 C 0.63576 0.25246 0.56319 0.0
C1119 C 0.60216 0.30508 0.57214 0.0
C1120 C 0.67093 0.28099 0.50903 0.0
O1121 O 0.61761 0.29726 0.50153 0.0
O1122 O 0.62277 0.26943 0.46875 0.0
C1123 C 0.59422 0.23167 0.47892 0.0
N1124 N 0.61483 0.22771 0.48904 0.0
C1125 C 0.60627 0.19142 0.49969 0.0
C1126 C 0.58498 0.19506 0.48915 0.0
C1127 C 0.57894 0.21528 0.47876 0.0
C1128 C 0.62086 0.2083 0.49894 0.0
H1129 H 0.58949 0.24722 0.47114 0.0
C1130 C 0.61624 0.28828 0.47413 0.0
O1131 O 0.62129 0.31278 0.56627 0.0
O1132 O 0.59811 0.2863 0.56152 0.0
N1133 N 0.65427 0.22358 0.51049 0.0
C1134 C 0.67491 0.22312 0.5222 0.0
C1135 C 0.6832 0.20427 0.53486 0.0
C1136 C 0.67023 0.18609 0.53525 0.0
C1137 C 0.64909 0.18692 0.52287 0.0
C1138 C 0.64177 0.2061 0.51026 0.0
H1139 H 0.6849 0.23708 0.52215 0.0
O1140 O 0.63758 0.26873 0.58193 0.0
O1141 O 0.62891 0.2561 0.534 0.0
O1142 O 0.65938 0.29013 0.53037 0.0
O1143 O 0.6646 0.26498 0.49291 0.0
C1144 C 0.63479 0.16962 0.52331 0.0
C1145 C 0.61341 0.17186 0.51172 0.0
H1146 H 0.57309 0.18252 0.4893 0.0
H1147 H 0.56251 0.21824 0.47078 0.0
H1148 H 0.69951 0.20377 0.54447 0.0
H1149 H 0.6766 0.17164 0.54539 0.0
H1150 H 0.63997 0.1546 0.53301 0.0
H1151 H 0.60247 0.15853 0.51265 0.0
H1152 H 0.03714 0.34954 0.15283 0.0
H1153 H 0.09698 0.37331 0.19326 0.0
H1154 H 0.0562 0.33985 0.10371 0.0
H1155 H 0.11606 0.36354 0.14367 0.0
H1156 H 0.13001 0.36863 0.03181 0.0
H1157 H 0.11496 0.37568 0.0851 0.0
H1158 H 0.08511 0.31422 0.08569 0.0
H1159 H 0.10008 0.30707 0.0323 0.0
C1160 C 0.05436 0.35272 0.15129 0.0
C1161 C 0.06551 0.36231 0.17699 0.0
C1162 C 0.06531 0.34696 0.12321 0.0
C1163 C 0.08761 0.35083 0.11998 0.0
C1164 C 0.09883 0.36044 0.14555 0.0
C1165 C 0.08791 0.36598 0.17391 0.0
C1166 C 0.12046 0.35649 0.04342 0.0
C1167 C 0.1161 0.33734 0.02764 0.0
C1168 C 0.11196 0.36051 0.07403 0.0
C1169 C 0.09876 0.34556 0.08937 0.0
C1170 C 0.09506 0.32611 0.0742 0.0
C1171 C 0.10375 0.32198 0.04372 0.0
H1172 H 0.91113 0.85843 0.30287 0.0
H1173 H 0.96294 0.88511 0.35998 0.0
H1174 H 0.89114 0.85012 0.35234 0.0
H1175 H 0.94285 0.877 0.40913 0.0
H1176 H 0.88931 0.88016 0.48562 0.0
H1177 H 0.90652 0.88902 0.4346 0.0
H1178 H 0.89818 0.82505 0.40189 0.0
H1179 H 0.88112 0.8159 0.45332 0.0
C1180 C 0.91814 0.86269 0.32592 0.0
C1181 C 0.9386 0.87244 0.32755 0.0
C1182 C 0.90678 0.8578 0.35415 0.0
C1183 C 0.91548 0.86295 0.38443 0.0
C1184 C 0.93572 0.87301 0.38603 0.0
C1185 C 0.94724 0.87756 0.35791 0.0
C1186 C 0.89102 0.86793 0.46763 0.0
C1187 C 0.88399 0.84723 0.47377 0.0
C1188 C 0.90093 0.87304 0.43843 0.0
C1189 C 0.90374 0.85769 0.41447 0.0
C1190 C 0.8961 0.83718 0.42 0.0
C1191 C 0.88645 0.83195 0.44948 0.0
H1192 H 0.40788 0.62447 0.68985 0.0
H1193 H 0.4666 0.64563 0.64284 0.0
H1194 H 0.38699 0.63418 0.64195 0.0
H1195 H 0.44567 0.65535 0.59533 0.0
H1196 H 0.39862 0.68955 0.52895 0.0
H1197 H 0.41636 0.68204 0.58032 0.0
H1198 H 0.38537 0.62115 0.58335 0.0
H1199 H 0.36764 0.62852 0.53198 0.0
C1200 C 0.41632 0.63122 0.6694 0.0
C1201 C 0.43893 0.6342 0.67015 0.0
C1202 C 0.40436 0.63672 0.642 0.0
C1203 C 0.41472 0.64561 0.61508 0.0
C1204 C 0.43725 0.64876 0.61593 0.0
C1205 C 0.44924 0.64301 0.64306 0.0
C1206 C 0.39531 0.67469 0.54077 0.0
C1207 C 0.3818 0.65959 0.52627 0.0
C1208 C 0.40558 0.67036 0.57006 0.0
C1209 C 0.40232 0.65098 0.58563 0.0
C1210 C 0.38807 0.63626 0.57192 0.0
C1211 C 0.37802 0.64046 0.54243 0.0
H1212 H 0.59877 0.12136 0.80347 0.0
H1213 H 0.53797 0.14419 0.84207 0.0
H1214 H 0.61678 0.13053 0.85415 0.0
H1215 H 0.556 0.15329 0.89233 0.0
H1216 H 0.59934 0.18656 0.9648 0.0
H1217 H 0.58457 0.17918 0.9114 0.0
H1218 H 0.61468 0.11784 0.91261 0.0
H1219 H 0.62951 0.1251 0.96599 0.0
C1220 C 0.58926 0.12834 0.82267 0.0
C1221 C 0.56692 0.13197 0.81873 0.0
C1222 C 0.59957 0.13352 0.85165 0.0
C1223 C 0.58779 0.14272 0.87701 0.0
C1224 C 0.56552 0.14647 0.87301 0.0
C1225 C 0.55518 0.14106 0.84428 0.0
C1226 C 0.60306 0.1716 0.95357 0.0
C1227 C 0.61551 0.15638 0.96978 0.0
C1228 C 0.59449 0.16735 0.92308 0.0
C1229 C 0.5984 0.1479 0.90803 0.0
C1230 C 0.61153 0.13301 0.92361 0.0
C1231 C 0.61991 0.13715 0.95425 0.0
H1232 H 0.09005 0.61657 0.30109 0.0
H1233 H 0.0302 0.63719 0.34547 0.0
H1234 H 0.10998 0.62734 0.34939 0.0
H1235 H 0.05014 0.64792 0.39332 0.0
H1236 H 0.09478 0.68385 0.46068 0.0
H1237 H 0.0782 0.67532 0.40881 0.0
H1238 H 0.11138 0.61548 0.40821 0.0
H1239 H 0.12799 0.6239 0.45999 0.0
C1240 C 0.08115 0.62339 0.32105 0.0
C1241 C 0.05851 0.62593 0.31941 0.0
C1242 C 0.09256 0.62952 0.34868 0.0
C1243 C 0.08161 0.63859 0.37495 0.0
C1244 C 0.05904 0.64124 0.37324 0.0
C1245 C 0.04761 0.63489 0.34589 0.0
C1246 C 0.09881 0.66901 0.44929 0.0
C1247 C 0.1126 0.65451 0.46461 0.0
C1248 C 0.08921 0.66409 0.4197 0.0
C1249 C 0.0934 0.64468 0.40465 0.0
C1250 C 0.10795 0.6306 0.41919 0.0
C1251 C 0.11736 0.6354 0.44894 0.0
H1252 H 0.59481 0.81224 0.5276 0.0
H1253 H 0.62687 0.87268 0.53223 0.0
H1254 H 0.57753 0.81928 0.57959 0.0
H1255 H 0.60969 0.87956 0.5842 0.0
H1256 H 0.58777 0.87546 0.69059 0.0
H1257 H 0.60828 0.86527 0.64253 0.0
H1258 H 0.54878 0.84693 0.59546 0.0
H1259 H 0.52823 0.85722 0.64313 0.0
C1260 C 0.59846 0.82685 0.53994 0.0
C1261 C 0.6121 0.84196 0.52574 0.0
C1262 C 0.58848 0.83091 0.56956 0.0
C1263 C 0.59223 0.84999 0.58573 0.0
C1264 C 0.60663 0.86467 0.57229 0.0
C1265 C 0.61636 0.86077 0.54248 0.0
C1266 C 0.57908 0.86919 0.67003 0.0
C1267 C 0.55636 0.86725 0.67063 0.0
C1268 C 0.59082 0.86341 0.64256 0.0
C1269 C 0.58009 0.85524 0.61544 0.0
C1270 C 0.55745 0.85296 0.61621 0.0
C1271 C 0.54569 0.85904 0.64342 0.0
H1272 H 0.40014 0.31463 0.96175 0.0
H1273 H 0.36822 0.37524 0.96396 0.0
H1274 H 0.41765 0.32418 0.91107 0.0
H1275 H 0.38575 0.38464 0.91312 0.0
H1276 H 0.40629 0.38241 0.80441 0.0
H1277 H 0.38658 0.37277 0.85347 0.0
H1278 H 0.44639 0.35179 0.89696 0.0
H1279 H 0.46615 0.36146 0.84831 0.0
C1280 C 0.39664 0.32988 0.95128 0.0
C1281 C 0.38282 0.3442 0.96699 0.0
C1282 C 0.40679 0.33537 0.92238 0.0
C1283 C 0.40314 0.35518 0.90837 0.0
C1284 C 0.38876 0.36924 0.92339 0.0
C1285 C 0.37881 0.36386 0.95254 0.0
C1286 C 0.41525 0.37582 0.82448 0.0
C1287 C 0.4378 0.37271 0.82241 0.0
C1288 C 0.40397 0.37037 0.85253 0.0
C1289 C 0.41497 0.36141 0.87882 0.0
C1290 C 0.43749 0.35843 0.87686 0.0
C1291 C 0.44881 0.36413 0.84906 0.0
H1292 H 0.86658 0.12702 0.0361 0.0
H1293 H 0.89679 0.18846 0.03559 0.0
H1294 H 0.88308 0.11959 0.08833 0.0
H1295 H 0.91323 0.18091 0.08785 0.0
H1296 H 0.96285 0.14481 0.15129 0.0
H1297 H 0.94253 0.15471 0.10342 0.0
H1298 H 0.88355 0.13184 0.14729 0.0
H1299 H 0.9039 0.12191 0.19567 0.0
C1300 C 0.87652 0.13904 0.04727 0.0
C1301 C 0.8805 0.15828 0.03152 0.0
C1302 C 0.88584 0.1348 0.07727 0.0
C1303 C 0.89953 0.14962 0.09196 0.0
C1304 C 0.9029 0.16914 0.07684 0.0
C1305 C 0.89338 0.17348 0.04701 0.0
C1306 C 0.94556 0.14186 0.15087 0.0
C1307 C 0.93502 0.13248 0.17732 0.0
C1308 C 0.9339 0.14772 0.12352 0.0
C1309 C 0.91147 0.14416 0.12177 0.0
C1310 C 0.90086 0.13472 0.14806 0.0
C1311 C 0.9125 0.12908 0.17571 0.0
H1312 H 0.95055 0.63207 0.84577 0.0
H1313 H 0.89988 0.65618 0.78378 0.0
H1314 H 0.93525 0.65123 0.891 0.0
H1315 H 0.88439 0.67524 0.82956 0.0
H1316 H 0.88323 0.72641 0.91075 0.0
H1317 H 0.89517 0.70576 0.86437 0.0
H1318 H 0.90285 0.65128 0.92559 0.0
H1319 H 0.89124 0.67178 0.97194 0.0
C1320 C 0.93602 0.6413 0.8418 0.0
C1321 C 0.92647 0.64259 0.81107 0.0
C1322 C 0.92718 0.6522 0.86783 0.0
C1323 C 0.90863 0.66473 0.86381 0.0
C1324 C 0.89883 0.66583 0.83326 0.0
C1325 C 0.90761 0.65479 0.80714 0.0
C1326 C 0.8874 0.71001 0.91433 0.0
C1327 C 0.88643 0.70083 0.94518 0.0
C1328 C 0.89408 0.69816 0.8877 0.0
C1329 C 0.90001 0.67694 0.89142 0.0
C1330 C 0.89864 0.66768 0.92208 0.0
C1331 C 0.89193 0.67946 0.94863 0.0
H1332 H 0.12018 0.16693 0.53339 0.0
H1333 H 0.08944 0.22264 0.57206 0.0
H1334 H 0.10509 0.14603 0.57764 0.0
H1335 H 0.07387 0.20146 0.61579 0.0
H1336 H 0.03002 0.14561 0.65652 0.0
H1337 H 0.04585 0.16564 0.61217 0.0
H1338 H 0.11004 0.15046 0.64624 0.0
H1339 H 0.09433 0.13086 0.69154 0.0
C1340 C 0.11007 0.17465 0.5512 0.0
C1341 C 0.10591 0.19639 0.54931 0.0
C1342 C 0.10159 0.16272 0.5765 0.0
C1343 C 0.08841 0.17224 0.59985 0.0
C1344 C 0.08401 0.19388 0.59787 0.0
C1345 C 0.09293 0.20593 0.57299 0.0
C1346 C 0.04751 0.14641 0.65459 0.0
C1347 C 0.06094 0.13671 0.67767 0.0
C1348 C 0.0565 0.15795 0.62929 0.0
C1349 C 0.07905 0.15958 0.62613 0.0
C1350 C 0.09256 0.14936 0.64839 0.0
C1351 C 0.08358 0.13819 0.67421 0.0
H1352 H 0.61344 0.2768 0.4105 0.0
H1353 H 0.59843 0.3277 0.47617 0.0
H1354 H 0.59918 0.29754 0.36581 0.0
H1355 H 0.5845 0.3484 0.4314 0.0
H1356 H 0.53792 0.36689 0.34921 0.0
H1357 H 0.55343 0.34752 0.39418 0.0
H1358 H 0.60815 0.32994 0.33495 0.0
H1359 H 0.59254 0.34911 0.28958 0.0
C1360 C 0.60712 0.29238 0.41546 0.0
C1361 C 0.60708 0.30054 0.44699 0.0
C1362 C 0.59912 0.30431 0.38979 0.0
C1363 C 0.59081 0.32461 0.39512 0.0
C1364 C 0.59064 0.33274 0.42661 0.0
C1365 C 0.5987 0.32086 0.45224 0.0
C1366 C 0.55335 0.35906 0.34575 0.0
C1367 C 0.56394 0.35954 0.3157 0.0
C1368 C 0.56227 0.34802 0.37161 0.0
C1369 C 0.58194 0.33713 0.36802 0.0
C1370 C 0.59281 0.33797 0.33826 0.0
C1371 C 0.58394 0.34911 0.31237 0.0
H1372 H 0.39871 0.85119 0.20662 0.0
H1373 H 0.45194 0.87276 0.14718 0.0
H1374 H 0.38423 0.83153 0.16088 0.0
H1375 H 0.43757 0.85292 0.10182 0.0
H1376 H 0.39478 0.82966 0.01957 0.0
H1377 H 0.40646 0.85157 0.06445 0.0
H1378 H 0.3959 0.7998 0.1301 0.0
H1379 H 0.38393 0.77782 0.0853 0.0
C1380 C 0.40719 0.85197 0.18376 0.0
C1381 C 0.42654 0.86352 0.18063 0.0
C1382 C 0.39899 0.84055 0.15767 0.0
C1383 C 0.40987 0.84057 0.12788 0.0
C1384 C 0.42874 0.85272 0.12441 0.0
C1385 C 0.43701 0.86403 0.15049 0.0
C1386 C 0.3949 0.82289 0.04354 0.0
C1387 C 0.38842 0.80193 0.04877 0.0
C1388 C 0.40167 0.83547 0.06924 0.0
C1389 C 0.40204 0.82742 0.10076 0.0
C1390 C 0.3955 0.80651 0.10609 0.0
C1391 C 0.38882 0.79388 0.08036 0.0
H1392 H 0.89889 0.35097 0.71044 0.0
H1393 H 0.95313 0.37127 0.65198 0.0
H1394 H 0.88477 0.33096 0.6648 0.0
H1395 H 0.93919 0.35105 0.60683 0.0
H1396 H 0.8975 0.32804 0.52372 0.0
H1397 H 0.90905 0.34988 0.56863 0.0
H1398 H 0.8957 0.29893 0.6347 0.0
H1399 H 0.88375 0.27702 0.58978 0.0
C1400 C 0.90768 0.35138 0.68783 0.0
C1401 C 0.92718 0.36272 0.68494 0.0
C1402 C 0.89969 0.33975 0.6618 0.0
C1403 C 0.91096 0.33932 0.63233 0.0
C1404 C 0.93004 0.3512 0.62914 0.0
C1405 C 0.93807 0.36274 0.65512 0.0
C1406 C 0.89702 0.3214 0.54777 0.0
C1407 C 0.88971 0.30071 0.55307 0.0
C1408 C 0.9037 0.33395 0.57351 0.0
C1409 C 0.90324 0.32614 0.60517 0.0
C1410 C 0.89595 0.30548 0.61057 0.0
C1411 C 0.88928 0.29287 0.58479 0.0
H1412 H 0.3987 0.15434 0.28807 0.0
H1413 H 0.45158 0.13396 0.34912 0.0
H1414 H 0.38249 0.17275 0.33389 0.0
H1415 H 0.43557 0.15252 0.39437 0.0
H1416 H 0.3915 0.17028 0.47632 0.0
H1417 H 0.40393 0.1505 0.42976 0.0
H1418 H 0.3908 0.20391 0.36835 0.0
H1419 H 0.37797 0.22381 0.41503 0.0
C1420 C 0.4068 0.15366 0.31121 0.0
C1421 C 0.42644 0.14262 0.31487 0.0
C1422 C 0.39759 0.16433 0.33737 0.0
C1423 C 0.40775 0.16405 0.3677 0.0
C1424 C 0.42719 0.15279 0.37141 0.0
C1425 C 0.43642 0.14223 0.34535 0.0
C1426 C 0.39114 0.17787 0.45293 0.0
C1427 C 0.38387 0.19875 0.44952 0.0
C1428 C 0.39834 0.16651 0.42625 0.0
C1429 C 0.39849 0.1757 0.39546 0.0
C1430 C 0.3907 0.19636 0.39177 0.0
C1431 C 0.38348 0.20779 0.41855 0.0
H1432 H 0.54337 0.62524 0.14917 0.0
H1433 H 0.59617 0.64745 0.20884 0.0
H1434 H 0.55778 0.64504 0.10374 0.0
H1435 H 0.61066 0.66706 0.16311 0.0
H1436 H 0.61004 0.72129 0.08893 0.0
H1437 H 0.59821 0.69874 0.13307 0.0
H1438 H 0.58895 0.64737 0.06627 0.0
H1439 H 0.60054 0.66988 0.02195 0.0
C1440 C 0.55824 0.63405 0.15251 0.0
C1441 C 0.56852 0.63484 0.18277 0.0
C1442 C 0.56652 0.64535 0.1264 0.0
C1443 C 0.58521 0.65776 0.12999 0.0
C1444 C 0.59602 0.65788 0.15981 0.0
C1445 C 0.58781 0.64648 0.18592 0.0
C1446 C 0.60545 0.70521 0.08357 0.0
C1447 C 0.60623 0.69744 0.05183 0.0
C1448 C 0.59887 0.69224 0.10894 0.0
C1449 C 0.5928 0.67126 0.10313 0.0
C1450 C 0.59343 0.66351 0.07143 0.0
C1451 C 0.60012 0.67643 0.04607 0.0
H1452 H 0.09575 0.84638 0.79051 0.0
H1453 H 0.04314 0.86824 0.85091 0.0
H1454 H 0.11078 0.82706 0.83621 0.0
H1455 H 0.05801 0.84872 0.89618 0.0
H1456 H 0.10092 0.82543 0.97795 0.0
H1457 H 0.08913 0.84732 0.9331 0.0
H1458 H 0.09959 0.79553 0.86743 0.0
H1459 H 0.11169 0.7736 0.91215 0.0
C1460 C 0.08753 0.84731 0.81356 0.0
C1461 C 0.06818 0.85881 0.81697 0.0
C1462 C 0.09605 0.83608 0.83964 0.0
C1463 C 0.08547 0.83625 0.86968 0.0
C1464 C 0.06662 0.8484 0.87341 0.0
C1465 C 0.05805 0.85953 0.84736 0.0
C1466 C 0.10074 0.81865 0.95398 0.0
C1467 C 0.10722 0.79769 0.94873 0.0
C1468 C 0.09393 0.83122 0.92829 0.0
C1469 C 0.0935 0.82316 0.89676 0.0
C1470 C 0.10006 0.80227 0.89142 0.0
C1471 C 0.1068 0.78965 0.91712 0.0
H1472 H 0.09942 0.31896 0.28438 0.0
H1473 H 0.10236 0.36844 0.35555 0.0
H1474 H 0.11969 0.29568 0.32044 0.0
H1475 H 0.12183 0.34471 0.39234 0.0
H1476 H 0.10317 0.2732 0.44006 0.0
H1477 H 0.098 0.30531 0.40868 0.0
H1478 H 0.15932 0.29494 0.36118 0.0
H1479 H 0.16523 0.26341 0.39452 0.0
C1480 C 0.10508 0.32503 0.30731 0.0
C1481 C 0.09946 0.3454 0.3173 0.0
C1482 C 0.11669 0.31179 0.32783 0.0
C1483 C 0.1223 0.31855 0.35893 0.0
C1484 C 0.11788 0.33936 0.36823 0.0
C1485 C 0.10681 0.35286 0.34725 0.0
C1486 C 0.11614 0.27851 0.42442 0.0
C1487 C 0.13503 0.26648 0.42073 0.0
C1488 C 0.11311 0.29673 0.40628 0.0
C1489 C 0.12847 0.30267 0.38306 0.0
C1490 C 0.14753 0.29083 0.37952 0.0
C1491 C 0.15084 0.27287 0.3984 0.0
H1492 H 0.89123 0.83587 0.64596 0.0
H1493 H 0.92857 0.83909 0.5581 0.0
H1494 H 0.92172 0.85139 0.67587 0.0
H1495 H 0.95877 0.85509 0.58766 0.0
H1496 H 0.0 0.90053 0.65008 0.0
H1497 H 0.96587 0.89046 0.62337 0.0
H1498 H 0.96217 0.83502 0.68331 0.0
H1499 H 0.99643 0.84465 0.70889 0.0
C1500 C 0.90579 0.84041 0.63307 0.0
C1501 C 0.90752 0.83703 0.59976 0.0
C1502 C 0.92315 0.84916 0.65006 0.0
C1503 C 0.9423 0.85473 0.63381 0.0
C1504 C 0.94395 0.85133 0.60048 0.0
C1505 C 0.92681 0.84216 0.58369 0.0
C1506 C 0.99162 0.8864 0.6577 0.0
C1507 C 0.00023 0.87371 0.68221 0.0
C1508 C 0.97223 0.88067 0.64258 0.0
C1509 C 0.96138 0.86218 0.6518 0.0
C1510 C 0.97002 0.84959 0.67637 0.0
C1511 C 0.98951 0.85513 0.69104 0.0
H1512 H 0.33978 0.73094 0.89025 0.0
H1513 H 0.40187 0.72612 0.93751 0.0
H1514 H 0.34903 0.7004 0.85643 0.0
H1515 H 0.41054 0.69505 0.90518 0.0
H1516 H 0.41575 0.68179 0.78378 0.0
H1517 H 0.3953 0.70481 0.82001 0.0
H1518 H 0.38384 0.65258 0.8842 0.0
H1519 H 0.40372 0.62917 0.84723 0.0
C1520 C 0.35495 0.72276 0.89431 0.0
C1521 C 0.36981 0.73028 0.91724 0.0
C1522 C 0.36016 0.70536 0.87516 0.0
C1523 C 0.38023 0.69529 0.8789 0.0
C1524 C 0.39472 0.70231 0.90261 0.0
C1525 C 0.38971 0.71993 0.92123 0.0
C1526 C 0.40826 0.67508 0.80508 0.0
C1527 C 0.41125 0.65378 0.81281 0.0
C1528 C 0.39655 0.68819 0.82566 0.0
C1529 C 0.38804 0.68029 0.85456 0.0
C1530 C 0.3901 0.65881 0.86172 0.0
C1531 C 0.4014 0.64551 0.84064 0.0
H1532 H 0.60314 0.15664 0.14434 0.0
H1533 H 0.56499 0.15528 0.0572 0.0
H1534 H 0.57321 0.13992 0.17389 0.0
H1535 H 0.53532 0.13801 0.08643 0.0
H1536 H 0.49401 0.09256 0.15121 0.0
H1537 H 0.52824 0.1016 0.12367 0.0
H1538 H 0.53269 0.15845 0.18024 0.0
H1539 H 0.49834 0.15 0.20632 0.0
C1540 C 0.58858 0.15213 0.13144 0.0
C1541 C 0.5864 0.15654 0.09848 0.0
C1542 C 0.57156 0.14265 0.14824 0.0
C1543 C 0.55227 0.13739 0.13215 0.0
C1544 C 0.55028 0.14151 0.09906 0.0
C1545 C 0.56709 0.15143 0.08247 0.0
C1546 C 0.50258 0.10679 0.15792 0.0
C1547 C 0.49416 0.12022 0.18167 0.0
C1548 C 0.52204 0.1119 0.14234 0.0
C1549 C 0.53314 0.13046 0.15049 0.0
C1550 C 0.52465 0.1438 0.17422 0.0
C1551 C 0.50512 0.13891 0.18921 0.0
H1552 H 0.08742 0.67193 0.21217 0.0
H1553 H 0.09379 0.62272 0.141 0.0
H1554 H 0.10785 0.69589 0.17733 0.0
H1555 H 0.11346 0.64713 0.10543 0.0
H1556 H 0.15755 0.72724 0.10648 0.0
H1557 H 0.14987 0.69568 0.13893 0.0
H1558 H 0.08919 0.68772 0.08871 0.0
H1559 H 0.09616 0.71984 0.05799 0.0
C1560 C 0.09376 0.66612 0.18947 0.0
C1561 C 0.08915 0.64558 0.17916 0.0
C1562 C 0.10547 0.67975 0.16967 0.0
C1563 C 0.1122 0.67318 0.13898 0.0
C1564 C 0.10861 0.65232 0.12926 0.0
C1565 C 0.09743 0.63844 0.14955 0.0
C1566 C 0.1429 0.71832 0.10185 0.0
C1567 C 0.1278 0.72536 0.07891 0.0
C1568 C 0.13859 0.70034 0.12022 0.0
C1569 C 0.11922 0.68918 0.11561 0.0
C1570 C 0.10451 0.69581 0.09192 0.0
C1571 C 0.10856 0.71403 0.07421 0.0
H1572 H 0.49239 0.90506 0.35006 0.0
H1573 H 0.49705 0.85029 0.28897 0.0
H1574 H 0.52642 0.89479 0.37699 0.0
H1575 H 0.53127 0.84063 0.31459 0.0
H1576 H 0.56401 0.84037 0.43886 0.0
H1577 H 0.5337 0.85725 0.41058 0.0
H1578 H 0.5717 0.85894 0.32317 0.0
H1579 H 0.60227 0.84263 0.35182 0.0
C1580 C 0.50099 0.89116 0.34197 0.0
C1581 C 0.49272 0.87886 0.31673 0.0
C1582 C 0.52033 0.88534 0.35721 0.0
C1583 C 0.53149 0.86719 0.34728 0.0
C1584 C 0.52316 0.85496 0.32207 0.0
C1585 C 0.50372 0.86054 0.30735 0.0
C1586 C 0.56595 0.84485 0.4138 0.0
C1587 C 0.5855 0.84098 0.39761 0.0
C1588 C 0.54876 0.85452 0.39776 0.0
C1589 C 0.55064 0.85965 0.36498 0.0
C1590 C 0.5701 0.8554 0.3486 0.0
C1591 C 0.58749 0.84618 0.36489 0.0
H1592 H 0.39794 0.2773 0.55983 0.0
H1593 H 0.34144 0.26296 0.61706 0.0
H1594 H 0.40332 0.30975 0.59044 0.0
H1595 H 0.34754 0.29497 0.64909 0.0
H1596 H 0.40079 0.37195 0.64414 0.0
H1597 H 0.38141 0.34681 0.60952 0.0
H1598 H 0.38592 0.2998 0.68434 0.0
H1599 H 0.40598 0.32453 0.71825 0.0
C1600 C 0.38618 0.2816 0.5781 0.0
C1601 C 0.36878 0.26821 0.58531 0.0
C1602 C 0.3893 0.30005 0.5957 0.0
C1603 C 0.3756 0.30492 0.62169 0.0
C1604 C 0.35803 0.29167 0.62873 0.0
C1605 C 0.35461 0.27343 0.61058 0.0
C1606 C 0.39691 0.35649 0.65352 0.0
C1607 C 0.40482 0.35003 0.68369 0.0
C1608 C 0.38593 0.34216 0.63375 0.0
C1609 C 0.38221 0.32151 0.64446 0.0
C1610 C 0.38841 0.31574 0.67579 0.0
C1611 C 0.39991 0.32982 0.6951 0.0
H1612 H -0.00159 0.0929 0.84859 0.0
H1613 H 0.99352 0.14867 0.78974 0.0
H1614 H 0.96503 0.10325 0.87731 0.0
H1615 H 0.95999 0.15846 0.81714 0.0
H1616 H 0.89013 0.15809 0.85677 0.0
H1617 H 0.91955 0.14101 0.82659 0.0
H1618 H 0.95891 0.14018 0.91264 0.0
H1619 H 0.92972 0.15778 0.94249 0.0
C1620 C 0.98989 0.10705 0.84139 0.0
C1621 C 0.99789 0.11962 0.81626 0.0
C1622 C 0.97092 0.11291 0.85764 0.0
C1623 C 0.95989 0.13139 0.84884 0.0
C1624 C 0.96797 0.14389 0.82375 0.0
C1625 C 0.98703 0.13824 0.80802 0.0
C1626 C 0.90492 0.15379 0.86923 0.0
C1627 C 0.90763 0.15853 0.90199 0.0
C1628 C 0.92167 0.14412 0.85207 0.0
C1629 C 0.94121 0.13901 0.86759 0.0
C1630 C 0.94377 0.14358 0.90046 0.0
C1631 C 0.92722 0.15367 0.91739 0.0
H1632 H 0.9355 0.67758 0.64883 0.0
H1633 H 0.87354 0.65162 0.67677 0.0
H1634 H 0.9172 0.70431 0.6167 0.0
H1635 H 0.85507 0.67907 0.645 0.0
H1636 H 0.84569 0.75561 0.62761 0.0
H1637 H 0.85607 0.72208 0.65217 0.0
H1638 H 0.89055 0.70506 0.56546 0.0
H1639 H 0.87987 0.73839 0.54055 0.0
C1640 C 0.91793 0.6776 0.64807 0.0
C1641 C 0.90592 0.66261 0.6654 0.0
C1642 C 0.90749 0.69277 0.62943 0.0
C1643 C 0.88477 0.69359 0.6282 0.0
C1644 C 0.87263 0.67862 0.64547 0.0
C1645 C 0.88316 0.66301 0.66359 0.0
C1646 C 0.8549 0.74442 0.61341 0.0
C1647 C 0.86215 0.74969 0.58228 0.0
C1648 C 0.86075 0.72522 0.62745 0.0
C1649 C 0.87423 0.71115 0.61076 0.0
C1650 C 0.88018 0.71574 0.5788 0.0
C1651 C 0.874 0.73476 0.56454 0.0
H1652 H 0.00071 0.1633 0.29314 0.0
H1653 H 0.0103 0.10426 0.34241 0.0
H1654 H 0.0317 0.17831 0.32152 0.0
H1655 H 0.04129 0.11941 0.37164 0.0
H1656 H 0.10724 0.15308 0.39672 0.0
H1657 H 0.07953 0.13523 0.36397 0.0
H1658 H 0.03595 0.18752 0.37919 0.0
H1659 H 0.06323 0.20524 0.41117 0.0
C1660 C 0.0098 0.15346 0.30966 0.0
C1661 C 0.00368 0.13254 0.31507 0.0
C1662 C 0.02735 0.16206 0.32612 0.0
C1663 C 0.03886 0.15001 0.3488 0.0
C1664 C 0.03287 0.12893 0.35397 0.0
C1665 C 0.01516 0.12033 0.33749 0.0
C1666 C 0.09171 0.16066 0.39303 0.0
C1667 C 0.08745 0.18059 0.40637 0.0
C1668 C 0.07589 0.15046 0.37442 0.0
C1669 C 0.05573 0.16014 0.3688 0.0
C1670 C 0.05149 0.17988 0.38258 0.0
C1671 C 0.06712 0.18996 0.40111 0.0
H1672 H 0.63775 0.23343 0.14522 0.0
H1673 H 0.62201 0.26266 0.05405 0.0
H1674 H 0.62816 0.26576 0.1733 0.0
H1675 H 0.61247 0.2952 0.08246 0.0
H1676 H 0.57046 0.309 0.20458 0.0
H1677 H 0.58942 0.28037 0.17764 0.0
H1678 H 0.62619 0.32531 0.12184 0.0
H1679 H 0.60728 0.35428 0.14946 0.0
C1680 C 0.6327 0.2469 0.13106 0.0
C1681 C 0.63031 0.24538 0.09743 0.0
C1682 C 0.62719 0.2654 0.14721 0.0
C1683 C 0.61932 0.28285 0.13008 0.0
C1684 C 0.61857 0.28197 0.09621 0.0
C1685 C 0.62396 0.26333 0.07999 0.0
C1686 C 0.58276 0.31282 0.18685 0.0
C1687 C 0.5874 0.33384 0.17907 0.0
C1688 C 0.5937 0.29643 0.17156 0.0
C1689 C 0.60932 0.30065 0.14775 0.0
C1690 C 0.61421 0.32168 0.14013 0.0
C1691 C 0.6035 0.33819 0.156 0.0
H1692 H 0.38657 0.84592 0.89638 0.0
H1693 H 0.43463 0.79676 0.90621 0.0
H1694 H 0.41164 0.86572 0.86154 0.0
H1695 H 0.45922 0.81632 0.87189 0.0
H1696 H 0.48083 0.89917 0.83617 0.0
H1697 H 0.45084 0.8833 0.86695 0.0
H1698 H 0.45816 0.82586 0.8123 0.0
H1699 H 0.48815 0.84146 0.78245 0.0
C1700 C 0.40244 0.83942 0.89126 0.0
C1701 C 0.40859 0.81975 0.90386 0.0
C1702 C 0.41672 0.85073 0.87144 0.0
C1703 C 0.43716 0.84234 0.86375 0.0
C1704 C 0.44338 0.82294 0.87695 0.0
C1705 C 0.4293 0.8118 0.89679 0.0
C1706 C 0.47557 0.88333 0.83045 0.0
C1707 C 0.48629 0.87162 0.80658 0.0
C1708 C 0.45845 0.87433 0.84783 0.0
C1709 C 0.45233 0.85337 0.84199 0.0
C1710 C 0.46266 0.84201 0.81735 0.0
C1711 C 0.47963 0.85098 0.80007 0.0
H1712 H 0.85478 0.23478 0.8565 0.0
H1713 H 0.87104 0.26441 0.94716 0.0
H1714 H 0.86339 0.26725 0.82809 0.0
H1715 H 0.87962 0.29708 0.91843 0.0
H1716 H 0.88325 0.3562 0.85178 0.0
H1717 H 0.86504 0.32692 0.87965 0.0
H1718 H 0.90161 0.2826 0.82239 0.0
H1719 H 0.91987 0.31153 0.79519 0.0
C1720 C 0.85974 0.24835 0.87049 0.0
C1721 C 0.86255 0.24692 0.90406 0.0
C1722 C 0.86469 0.26694 0.85415 0.0
C1723 C 0.87243 0.28456 0.87103 0.0
C1724 C 0.87361 0.28372 0.90487 0.0
C1725 C 0.86877 0.26501 0.92128 0.0
C1726 C 0.88711 0.34018 0.84495 0.0
C1727 C 0.90298 0.33609 0.82141 0.0
C1728 C 0.8768 0.32349 0.86096 0.0
C1729 C 0.88186 0.30253 0.85305 0.0
C1730 C 0.89719 0.29858 0.82872 0.0
C1731 C 0.90773 0.31515 0.81327 0.0
H1732 H 0.49906 0.10609 0.6461 0.0
H1733 H 0.50967 0.16527 0.69452 0.0
H1734 H 0.4687 0.12175 0.61596 0.0
H1735 H 0.47956 0.18091 0.66479 0.0
H1736 H 0.40089 0.15525 0.59998 0.0
H1737 H 0.43074 0.13743 0.62801 0.0
H1738 H 0.47289 0.18991 0.6068 0.0
H1739 H 0.44336 0.20769 0.57923 0.0
C1740 C 0.49472 0.12238 0.65035 0.0
C1741 C 0.50606 0.13441 0.67312 0.0
C1742 C 0.47742 0.13129 0.6333 0.0
C1743 C 0.47179 0.1525 0.63817 0.0
C1744 C 0.48362 0.16456 0.66045 0.0
C1745 C 0.50066 0.15561 0.67766 0.0
C1746 C 0.41659 0.16287 0.60116 0.0
C1747 C 0.41975 0.18291 0.58758 0.0
C1748 C 0.43364 0.15265 0.61704 0.0
C1749 C 0.45402 0.16239 0.61969 0.0
C1750 C 0.45725 0.18218 0.60548 0.0
C1751 C 0.44033 0.19231 0.58957 0.0
H1752 H 0.64007 0.76662 0.35029 0.0
H1753 H 0.62613 0.73679 0.44166 0.0
H1754 H 0.631 0.73411 0.32226 0.0
H1755 H 0.61708 0.70413 0.41335 0.0
H1756 H 0.61154 0.64505 0.34793 0.0
H1757 H 0.63037 0.67441 0.37453 0.0
H1758 H 0.59312 0.71851 0.31789 0.0
H1759 H 0.57428 0.68947 0.29185 0.0
C1760 C 0.63555 0.75299 0.36449 0.0
C1761 C 0.63349 0.75438 0.39819 0.0
C1762 C 0.63031 0.73439 0.34837 0.0
C1763 C 0.62305 0.71673 0.36561 0.0
C1764 C 0.62269 0.71752 0.39949 0.0
C1765 C 0.62782 0.73623 0.41567 0.0
C1766 C 0.60764 0.66104 0.34095 0.0
C1767 C 0.59142 0.66502 0.31793 0.0
C1768 C 0.61833 0.67778 0.35623 0.0
C1769 C 0.61326 0.6987 0.34815 0.0
C1770 C 0.59756 0.70255 0.32433 0.0
C1771 C 0.58667 0.68592 0.30956 0.0
H1772 H 0.06084 0.78973 0.09341 0.0
H1773 H 0.10704 0.8407 0.10083 0.0
H1774 H 0.03567 0.80899 0.12734 0.0
H1775 H 0.08152 0.8601 0.13529 0.0
H1776 H 0.01385 0.89374 0.15951 0.0
H1777 H 0.0435 0.87687 0.12948 0.0
H1778 H 0.03434 0.82008 0.18517 0.0
H1779 H 0.00464 0.83682 0.21447 0.0
C1780 C 0.06564 0.80508 0.10227 0.0
C1781 C 0.08595 0.81369 0.09448 0.0
C1782 C 0.05126 0.81604 0.12194 0.0
C1783 C 0.05677 0.83591 0.13422 0.0
C1784 C 0.07692 0.84478 0.12607 0.0
C1785 C 0.09148 0.83369 0.10645 0.0
C1786 C 0.01859 0.8778 0.16558 0.0
C1787 C 0.00752 0.86667 0.18971 0.0
C1788 C 0.03552 0.86821 0.14861 0.0
C1789 C 0.04113 0.84719 0.15501 0.0
C1790 C 0.03025 0.83627 0.17963 0.0
C1791 C 0.01346 0.84587 0.19662 0.0
H1792 H 0.59176 0.77042 0.94129 0.0
H1793 H 0.65539 0.77386 0.89836 0.0
H1794 H 0.5798 0.79985 0.90802 0.0
H1795 H 0.64322 0.80342 0.86439 0.0
H1796 H 0.60195 0.8684 0.83227 0.0
H1797 H 0.62095 0.845 0.87038 0.0
H1798 H 0.5799 0.79349 0.84101 0.0
H1799 H 0.56128 0.81631 0.80312 0.0
C1800 C 0.60343 0.7781 0.92568 0.0
C1801 C 0.62462 0.77034 0.92288 0.0
C1802 C 0.59655 0.79478 0.90651 0.0
C1803 C 0.61065 0.80379 0.88381 0.0
C1804 C 0.63222 0.79683 0.88208 0.0
C1805 C 0.63911 0.77998 0.90132 0.0
C1806 C 0.59733 0.85198 0.83358 0.0
C1807 C 0.57998 0.84424 0.81496 0.0
C1808 C 0.60814 0.83869 0.85534 0.0
C1809 C 0.60154 0.81766 0.85877 0.0
C1810 C 0.58501 0.80976 0.83901 0.0
C1811 C 0.57442 0.82285 0.81728 0.0
H1812 H 0.49288 0.34775 0.20683 0.0
H1813 H 0.49729 0.40398 0.14893 0.0
H1814 H 0.4588 0.3385 0.18053 0.0
H1815 H 0.46332 0.39425 0.12142 0.0
H1816 H 0.38911 0.33791 0.14121 0.0
H1817 H 0.41843 0.35479 0.17197 0.0
H1818 H 0.45697 0.35884 0.08522 0.0
H1819 H 0.42794 0.34153 0.05485 0.0
C1820 C 0.48615 0.35841 0.18906 0.0
C1821 C 0.49709 0.37696 0.18067 0.0
C1822 C 0.46676 0.35309 0.17398 0.0
C1823 C 0.4584 0.36587 0.14942 0.0
C1824 C 0.46943 0.38436 0.14067 0.0
C1825 C 0.48874 0.38987 0.15623 0.0
C1826 C 0.40369 0.34289 0.12878 0.0
C1827 C 0.40622 0.33915 0.09568 0.0
C1828 C 0.42038 0.35243 0.14626 0.0
C1829 C 0.43967 0.35838 0.13069 0.0
C1830 C 0.44202 0.35481 0.0975 0.0
C1831 C 0.42556 0.34487 0.08024 0.0
H1832 H 0.898 0.22155 0.44526 0.0
H1833 H 0.83882 0.23308 0.39279 0.0
H1834 H 0.90412 0.18958 0.41385 0.0
H1835 H 0.84574 0.2017 0.35967 0.0
H1836 H 0.90627 0.17762 0.28689 0.0
H1837 H 0.88583 0.20078 0.32292 0.0
H1838 H 0.88189 0.15102 0.39348 0.0
H1839 H 0.90158 0.12742 0.35669 0.0
C1840 C 0.88579 0.21665 0.42806 0.0
C1841 C 0.86748 0.22918 0.42232 0.0
C1842 C 0.88937 0.1985 0.40992 0.0
C1843 C 0.8752 0.19315 0.38477 0.0
C1844 C 0.85661 0.20538 0.3794 0.0
C1845 C 0.85273 0.22326 0.39819 0.0
C1846 C 0.9003 0.17142 0.30957 0.0
C1847 C 0.90539 0.15083 0.31913 0.0
C1848 C 0.88857 0.18459 0.33006 0.0
C1849 C 0.88231 0.17754 0.36075 0.0
C1850 C 0.8864 0.15661 0.36971 0.0
C1851 C 0.89758 0.14319 0.34873 0.0
H1852 H 0.06392 0.6538 0.55245 0.0
H1853 H 0.10244 0.65529 0.63922 0.0
H1854 H 0.03439 0.63655 0.582 0.0
H1855 H 0.07263 0.63861 0.6691 0.0
H1856 H 0.99772 0.64918 0.70167 0.0
H1857 H 0.03203 0.65741 0.67533 0.0
H1858 H 0.02748 0.60014 0.61979 0.0
H1859 H 0.99329 0.59131 0.64763 0.0
C1860 C 0.06614 0.64997 0.5777 0.0
C1861 C 0.08551 0.65513 0.59351 0.0
C1862 C 0.0494 0.64006 0.59447 0.0
C1863 C 0.05152 0.636 0.62756 0.0
C1864 C 0.07088 0.64128 0.64344 0.0
C1865 C 0.08783 0.65075 0.62646 0.0
C1866 C 0.00446 0.63796 0.68474 0.0
C1867 C 0.99349 0.6192 0.67759 0.0
C1868 C 0.02398 0.64272 0.6696 0.0
C1869 C 0.03244 0.62919 0.64609 0.0
C1870 C 0.0213 0.61058 0.6383 0.0
C1871 C 0.00187 0.60559 0.65404 0.0
H1872 H 0.66541 0.23603 0.60458 0.0
H1873 H 0.60442 0.22307 0.5578 0.0
H1874 H 0.66115 0.20401 0.63735 0.0
H1875 H 0.60088 0.19056 0.58874 0.0
H1876 H 0.60409 0.176 0.71387 0.0
H1877 H 0.6236 0.20018 0.67833 0.0
H1878 H 0.6249 0.15275 0.60389 0.0
H1879 H 0.60617 0.12813 0.64012 0.0
C1880 C 0.65161 0.22583 0.60039 0.0
C1881 C 0.63565 0.23144 0.57782 0.0
C1882 C 0.64925 0.20759 0.61893 0.0
C1883 C 0.63098 0.1947 0.61488 0.0
C1884 C 0.61543 0.19996 0.59154 0.0
C1885 C 0.61751 0.21843 0.5737 0.0
C1886 C 0.60949 0.17045 0.69049 0.0
C1887 C 0.60378 0.1503 0.67963 0.0
C1888 C 0.62066 0.18422 0.67024 0.0
C1889 C 0.62569 0.1782 0.63855 0.0
C1890 C 0.62135 0.15755 0.62841 0.0
C1891 C 0.61074 0.14352 0.6491 0.0
H1892 H 0.99647 0.35015 0.79318 0.0
H1893 H 0.993 0.40501 0.85426 0.0
H1894 H 0.03057 0.33992 0.81846 0.0
H1895 H 0.027 0.39419 0.88085 0.0
H1896 H 0.10125 0.33953 0.85387 0.0
H1897 H 0.07109 0.35707 0.82611 0.0
H1898 H 0.03415 0.3569 0.91456 0.0
H1899 H 0.06409 0.33884 0.94201 0.0
C1900 C 0.00337 0.36028 0.81151 0.0
C1901 C 0.99274 0.37879 0.82096 0.0
C1902 C 0.02276 0.35438 0.82603 0.0
C1903 C 0.03145 0.36649 0.85112 0.0
C1904 C 0.02064 0.38483 0.86118 0.0
C1905 C 0.00132 0.39096 0.84612 0.0
C1906 C 0.08683 0.3437 0.86738 0.0
C1907 C 0.08502 0.33854 0.90013 0.0
C1908 C 0.06966 0.35364 0.85159 0.0
C1909 C 0.05059 0.35861 0.86848 0.0
C1910 C 0.04893 0.35362 0.90133 0.0
C1911 C 0.0659 0.34326 0.9169 0.0
H1912 H 0.90339 0.77515 0.0611 0.0
H1913 H 0.84223 0.76708 0.11007 0.0
H1914 H 0.91088 0.8064 0.09372 0.0
H1915 H 0.85036 0.79775 0.14419 0.0
H1916 H 0.91233 0.8211 0.21808 0.0
H1917 H 0.89258 0.79717 0.18233 0.0
H1918 H 0.8862 0.84673 0.11187 0.0
H1919 H 0.90523 0.87106 0.14829 0.0
C1920 C 0.8912 0.78061 0.07796 0.0
C1921 C 0.87183 0.7694 0.08219 0.0
C1922 C 0.89553 0.79832 0.09673 0.0
C1923 C 0.88095 0.80454 0.12087 0.0
C1924 C 0.86154 0.7934 0.12516 0.0
C1925 C 0.85697 0.77594 0.10583 0.0
C1926 C 0.906 0.82706 0.19547 0.0
C1927 C 0.91019 0.84783 0.18583 0.0
C1928 C 0.8947 0.81345 0.17516 0.0
C1929 C 0.88794 0.82029 0.14463 0.0
C1930 C 0.89113 0.84132 0.13555 0.0
C1931 C 0.90191 0.85515 0.15633 0.0
H1932 H 0.39112 0.65937 0.35201 0.0
H1933 H 0.42902 0.66059 0.43939 0.0
H1934 H 0.42154 0.6427 0.32342 0.0
H1935 H 0.45916 0.64342 0.41121 0.0
H1936 H 0.50115 0.59649 0.35215 0.0
H1937 H 0.46683 0.60663 0.37832 0.0
H1938 H 0.46169 0.66 0.31435 0.0
H1939 H 0.49616 0.65039 0.28937 0.0
C1940 C 0.40577 0.6555 0.36517 0.0
C1941 C 0.4077 0.66052 0.39797 0.0
C1942 C 0.42308 0.64608 0.34891 0.0
C1943 C 0.44241 0.6415 0.3654 0.0
C1944 C 0.44421 0.6464 0.39827 0.0
C1945 C 0.4271 0.65624 0.41428 0.0
C1946 C 0.49241 0.61016 0.34353 0.0
C1947 C 0.5007 0.62227 0.31808 0.0
C1948 C 0.4729 0.61591 0.35834 0.0
C1949 C 0.46158 0.63384 0.34782 0.0
C1950 C 0.4699 0.64584 0.3223 0.0
C1951 C 0.4895 0.6403 0.30797 0.0
H1952 H 0.37436 0.15229 0.179 0.0
H1953 H 0.4366 0.17888 0.15391 0.0
H1954 H 0.35627 0.17953 0.14629 0.0
H1955 H 0.4187 0.20536 0.12085 0.0
H1956 H 0.3823 0.23727 0.04111 0.0
H1957 H 0.3927 0.2045 0.06788 0.0
H1958 H 0.35728 0.22327 0.15289 0.0
H1959 H 0.34717 0.2563 0.12646 0.0
C1960 C 0.38412 0.16379 0.1663 0.0
C1961 C 0.40684 0.16361 0.16912 0.0
C1962 C 0.37382 0.17928 0.14766 0.0
C1963 C 0.38617 0.1943 0.13087 0.0
C1964 C 0.40885 0.19377 0.13323 0.0
C1965 C 0.41906 0.17873 0.15239 0.0
C1966 C 0.37619 0.23416 0.06514 0.0
C1967 C 0.36414 0.24943 0.08185 0.0
C1968 C 0.38219 0.21544 0.08045 0.0
C1969 C 0.37586 0.21152 0.11243 0.0
C1970 C 0.36224 0.22593 0.12815 0.0
C1971 C 0.35655 0.24483 0.11306 0.0
H1972 H 0.50642 0.66367 0.78496 0.0
H1973 H 0.51473 0.60473 0.83503 0.0
H1974 H 0.5368 0.67866 0.81476 0.0
H1975 H 0.54508 0.61991 0.86574 0.0
H1976 H 0.56235 0.70549 0.90894 0.0
H1977 H 0.53734 0.68712 0.874 0.0
H1978 H 0.58395 0.63713 0.86082 0.0
H1979 H 0.60952 0.65576 0.89646 0.0
C1980 C 0.51518 0.65379 0.80181 0.0
C1981 C 0.50877 0.63295 0.80721 0.0
C1982 C 0.5324 0.66239 0.81906 0.0
C1983 C 0.54321 0.65043 0.84259 0.0
C1984 C 0.53716 0.62935 0.84745 0.0
C1985 C 0.51981 0.62074 0.83013 0.0
C1986 C 0.56742 0.69058 0.89874 0.0
C1987 C 0.588 0.68212 0.90538 0.0
C1988 C 0.55309 0.68013 0.87849 0.0
C1989 C 0.55885 0.66088 0.86436 0.0
C1990 C 0.5792 0.65201 0.87143 0.0
C1991 C 0.59377 0.66265 0.89172 0.0
H1992 H 0.10892 0.85264 0.64701 0.0
H1993 H 0.07516 0.80707 0.70575 0.0
H1994 H 0.12669 0.82382 0.6174 0.0
H1995 H 0.09299 0.77859 0.67682 0.0
H1996 H 0.11981 0.76142 0.54966 0.0
H1997 H 0.1115 0.79383 0.57933 0.0
H1998 H 0.13116 0.76395 0.6681 0.0
H1999 H 0.1395 0.73177 0.63877 0.0
C2000 C 0.10562 0.83652 0.65395 0.0
C2001 C 0.09066 0.83204 0.67861 0.0
C2002 C 0.11567 0.82009 0.63693 0.0
C2003 C 0.11127 0.799 0.64492 0.0
C2004 C 0.0969 0.79467 0.67037 0.0
C2005 C 0.0866 0.81098 0.68683 0.0
C2006 C 0.12288 0.76197 0.57537 0.0
C2007 C 0.12999 0.74393 0.59193 0.0
C2008 C 0.11819 0.78053 0.59231 0.0
C2009 C 0.12043 0.78126 0.62605 0.0
C2010 C 0.12903 0.76372 0.64216 0.0
C2011 C 0.13381 0.74529 0.6253 0.0
H2012 H 0.89723 0.34181 0.399 0.0
H2013 H 0.94067 0.28975 0.41735 0.0
H2014 H 0.92574 0.35921 0.36736 0.0
H2015 H 0.96884 0.30708 0.38633 0.0
H2016 H 0.99428 0.39027 0.34576 0.0
H2017 H 0.96378 0.37512 0.37617 0.0
H2018 H 0.974 0.31555 0.3282 0.0
H2019 H 0.00438 0.33065 0.29839 0.0
C2020 C 0.91284 0.33417 0.39646 0.0
C2021 C 0.91669 0.31439 0.41052 0.0
C2022 C 0.92912 0.34414 0.37849 0.0
C2023 C 0.94938 0.33437 0.37424 0.0
C2024 C 0.95325 0.3148 0.38878 0.0
C2025 C 0.93712 0.30493 0.40671 0.0
C2026 C 0.9897 0.37403 0.34164 0.0
C2027 C 0.00107 0.36169 0.31927 0.0
C2028 C 0.9723 0.36542 0.35882 0.0
C2029 C 0.96656 0.3442 0.35445 0.0
C2030 C 0.97816 0.33191 0.33217 0.0
C2031 C 0.99536 0.34056 0.31491 0.0
H2032 H 0.41894 0.81169 0.29095 0.0
H2033 H 0.38267 0.85691 0.347 0.0
H2034 H 0.40013 0.78304 0.31805 0.0
H2035 H 0.36392 0.82793 0.37476 0.0
H2036 H 0.35279 0.73581 0.35216 0.0
H2037 H 0.36163 0.76817 0.32359 0.0
H2038 H 0.37808 0.79806 0.41379 0.0
H2039 H 0.36929 0.76551 0.44267 0.0
C2040 C 0.40677 0.81549 0.30888 0.0
C2041 C 0.40227 0.8365 0.31692 0.0
C2042 C 0.3959 0.79909 0.32426 0.0
C2043 C 0.38052 0.80328 0.34842 0.0
C2044 C 0.37571 0.82431 0.3562 0.0
C2045 C 0.38634 0.84083 0.34026 0.0
C2046 C 0.35782 0.74939 0.36608 0.0
C2047 C 0.36068 0.74799 0.39965 0.0
C2048 C 0.36291 0.7679 0.34966 0.0
C2049 C 0.3708 0.78548 0.36645 0.0
C2050 C 0.37195 0.78473 0.40029 0.0
C2051 C 0.36698 0.76609 0.41679 0.0
H2052 H 0.9844 0.59899 0.15185 0.0
H2053 H 0.9948 0.65703 0.2035 0.0
H2054 H 0.95444 0.6155 0.1218 0.0
H2055 H 0.96501 0.6734 0.17407 0.0
H2056 H 0.938 0.70215 0.08226 0.0
H2057 H 0.96376 0.68232 0.11421 0.0
H2058 H 0.91585 0.63389 0.13019 0.0
H2059 H 0.88957 0.65397 0.09773 0.0
C2060 C 0.97992 0.61512 0.15713 0.0
C2061 C 0.99137 0.62668 0.18039 0.0
C2062 C 0.96282 0.62449 0.14017 0.0
C2063 C 0.95749 0.64569 0.14567 0.0
C2064 C 0.96886 0.65706 0.16929 0.0
C2065 C 0.98574 0.64768 0.1863 0.0
C2066 C 0.93284 0.68725 0.09239 0.0
C2067 C 0.91167 0.67969 0.08763 0.0
C2068 C 0.94761 0.67596 0.11085 0.0
C2069 C 0.94166 0.65676 0.12497 0.0
C2070 C 0.92075 0.64871 0.1195 0.0
C2071 C 0.90577 0.66017 0.10104 0.0
H2072 H 0.12244 0.2321 0.93938 0.0
H2073 H 0.13688 0.26287 0.84894 0.0
H2074 H 0.11324 0.19981 0.91008 0.0
H2075 H 0.12768 0.23078 0.81996 0.0
H2076 H 0.07081 0.18684 0.78792 0.0
H2077 H 0.08958 0.21544 0.81516 0.0
H2078 H 0.12687 0.17044 0.87004 0.0
H2079 H 0.10812 0.1415 0.84214 0.0
C2080 C 0.12417 0.23183 0.91339 0.0
C2081 C 0.13006 0.25013 0.89646 0.0
C2082 C 0.11898 0.21333 0.89664 0.0
C2083 C 0.11949 0.21292 0.86274 0.0
C2084 C 0.12688 0.23076 0.84607 0.0
C2085 C 0.13218 0.24913 0.86273 0.0
C2086 C 0.08322 0.183 0.80546 0.0
C2087 C 0.08801 0.16197 0.81294 0.0
C2088 C 0.09405 0.19939 0.82094 0.0
C2089 C 0.10972 0.19515 0.84465 0.0
C2090 C 0.11484 0.1741 0.85185 0.0
C2091 C 0.10423 0.1576 0.83581 0.0
H2092 H 0.60492 0.34488 0.59784 0.0
H2093 H 0.56187 0.29154 0.58815 0.0
H2094 H 0.57719 0.36327 0.62965 0.0
H2095 H 0.53442 0.30986 0.61929 0.0
H2096 H 0.49977 0.33743 0.70481 0.0
H2097 H 0.52992 0.32116 0.67595 0.0
H2098 H 0.53922 0.37847 0.62153 0.0
H2099 H 0.50906 0.39485 0.65111 0.0
C2100 C 0.58957 0.33714 0.60238 0.0
C2101 C 0.58559 0.31675 0.59059 0.0
C2102 C 0.57372 0.34767 0.62045 0.0
C2103 C 0.55376 0.3379 0.62709 0.0
C2104 C 0.5498 0.31763 0.61501 0.0
C2105 C 0.5655 0.30719 0.59697 0.0
C2106 C 0.50859 0.34664 0.68713 0.0
C2107 C 0.50269 0.3675 0.6807 0.0
C2108 C 0.52564 0.3373 0.67039 0.0
C2109 C 0.53689 0.34857 0.64651 0.0
C2110 C 0.531 0.36954 0.64013 0.0
C2111 C 0.51377 0.37885 0.65684 0.0
H2112 H 0.04791 0.44251 0.29659 0.0
H2113 H 0.01549 0.43946 0.20426 0.0
H2114 H 0.04629 0.48094 0.2948 0.0
H2115 H 0.01422 0.47793 0.20241 0.0
H2116 H 0.0423 0.54644 0.19869 0.0
H2117 H 0.04394 0.50804 0.20042 0.0
H2118 H 0.0139 0.50853 0.29446 0.0
H2119 H 0.0119 0.54699 0.29268 0.0
C2120 C 0.04061 0.45004 0.27581 0.0
C2121 C 0.03186 0.43799 0.25052 0.0
C2122 C 0.03956 0.47198 0.27494 0.0
C2123 C 0.03011 0.48226 0.2485 0.0
C2124 C 0.02166 0.47029 0.22298 0.0
C2125 C 0.02233 0.44833 0.22411 0.0
C2126 C 0.03609 0.53838 0.21978 0.0
C2127 C 0.027 0.54971 0.2456 0.0
C2128 C 0.03693 0.51644 0.22064 0.0
C2129 C 0.02906 0.50546 0.24756 0.0
C2130 C 0.02017 0.51673 0.27352 0.0
C2131 C 0.01895 0.53867 0.27242 0.0
H2132 H 0.80187 0.8595 0.51312 0.0
H2133 H 0.79348 0.79462 0.54166 0.0
H2134 H 0.76643 0.85928 0.48802 0.0
H2135 H 0.75718 0.79467 0.51799 0.0
H2136 H 0.70026 0.79608 0.44749 0.0
H2137 H 0.737 0.79515 0.46956 0.0
H2138 H 0.72996 0.85978 0.50072 0.0
H2139 H 0.6941 0.86098 0.4773 0.0
C2140 C 0.79224 0.84527 0.51454 0.0
C2141 C 0.80037 0.82713 0.52962 0.0
C2142 C 0.77182 0.84514 0.5002 0.0
C2143 C 0.75873 0.82702 0.50117 0.0
C2144 C 0.76688 0.80883 0.51635 0.0
C2145 C 0.78759 0.80884 0.53019 0.0
C2146 C 0.70675 0.81011 0.45877 0.0
C2147 C 0.69437 0.82866 0.46034 0.0
C2148 C 0.72772 0.80954 0.4717 0.0
C2149 C 0.73657 0.82741 0.48691 0.0
C2150 C 0.72402 0.84586 0.48852 0.0
C2151 C 0.70333 0.84654 0.47514 0.0
H2152 H 0.50303 0.44931 0.76366 0.0
H2153 H 0.43834 0.4488 0.72327 0.0
H2154 H 0.50299 0.48765 0.76242 0.0
H2155 H 0.43843 0.48722 0.72218 0.0
H2156 H 0.44013 0.55556 0.76339 0.0
H2157 H 0.43929 0.51715 0.7632 0.0
H2158 H 0.50261 0.51583 0.71878 0.0
H2159 H 0.50358 0.55419 0.71881 0.0
C2160 C 0.48878 0.45734 0.75461 0.0
C2161 C 0.4707 0.44597 0.7435 0.0
C2162 C 0.48884 0.47929 0.75373 0.0
C2163 C 0.47075 0.49034 0.74208 0.0
C2164 C 0.45254 0.47905 0.73141 0.0
C2165 C 0.45256 0.45707 0.73193 0.0
C2166 C 0.45386 0.5471 0.75346 0.0
C2167 C 0.47197 0.55796 0.74124 0.0
C2168 C 0.4533 0.52513 0.75324 0.0
C2169 C 0.47093 0.51359 0.74113 0.0
C2170 C 0.48891 0.52439 0.72857 0.0
C2171 C 0.48938 0.54635 0.72844 0.0
H2172 H 0.79025 0.14384 0.94971 0.0
H2173 H 0.8025 0.20736 0.9825 0.0
H2174 H 0.75446 0.14497 0.97422 0.0
H2175 H 0.76673 0.20828 0.0076 0.0
H2176 H 0.69187 0.20671 0.02149 0.0
H2177 H 0.72773 0.20817 0.99677 0.0
H2178 H 0.74048 0.1447 0.02901 0.0
H2179 H 0.70459 0.14303 0.05314 0.0
C2180 C 0.78529 0.1581 0.96199 0.0
C2181 C 0.79935 0.17544 0.96436 0.0
C2182 C 0.76482 0.15868 0.97629 0.0
C2183 C 0.75794 0.17657 0.99339 0.0
C2184 C 0.77157 0.19428 0.99456 0.0
C2185 C 0.79206 0.19373 0.98014 0.0
C2186 C 0.70243 0.19316 0.0237 0.0
C2187 C 0.69525 0.17466 0.03902 0.0
C2188 C 0.72298 0.19402 0.00951 0.0
C2189 C 0.73677 0.17642 0.01043 0.0
C2190 C 0.73 0.15833 0.02714 0.0
C2191 C 0.70948 0.15744 0.04122 0.0
H2192 H 0.92361 0.44802 0.80389 0.0
H2193 H 0.94881 0.44986 0.70668 0.0
H2194 H 0.91742 0.48612 0.80182 0.0
H2195 H 0.94257 0.48765 0.70462 0.0
H2196 H 0.9205 0.55465 0.70299 0.0
H2197 H 0.9144 0.51664 0.70643 0.0
H2198 H 0.94525 0.51556 0.79988 0.0
H2199 H 0.95138 0.55335 0.79652 0.0
C2200 C 0.92736 0.45646 0.78188 0.0
C2201 C 0.93691 0.44602 0.75558 0.0
C2202 C 0.9239 0.47823 0.78074 0.0
C2203 C 0.92955 0.48982 0.75308 0.0
C2204 C 0.93783 0.47912 0.72614 0.0
C2205 C 0.9416 0.4575 0.72744 0.0
C2206 C 0.92552 0.54636 0.72456 0.0
C2207 C 0.93666 0.55694 0.7493 0.0
C2208 C 0.9221 0.52462 0.72647 0.0
C2209 C 0.92944 0.51316 0.75335 0.0
C2210 C 0.93924 0.52399 0.779 0.0
C2211 C 0.94292 0.54562 0.77692 0.0
H2212 H 0.309 0.18721 0.49414 0.0
H2213 H 0.29508 0.23777 0.5603 0.0
H2214 H 0.27002 0.17987 0.48913 0.0
H2215 H 0.25647 0.23124 0.55468 0.0
H2216 H 0.18852 0.21455 0.55107 0.0
H2217 H 0.22653 0.20863 0.56411 0.0
H2218 H 0.24035 0.1981 0.46311 0.0
H2219 H 0.20202 0.20307 0.45042 0.0
C2220 C 0.29753 0.19644 0.508 0.0
C2221 C 0.30471 0.21309 0.5274 0.0
C2222 C 0.27531 0.1924 0.50499 0.0
C2223 C 0.26011 0.20501 0.52137 0.0
C2224 C 0.26764 0.22098 0.54207 0.0
C2225 C 0.28974 0.22494 0.54505 0.0
C2226 C 0.19965 0.21052 0.5318 0.0
C2227 C 0.19253 0.20962 0.4997 0.0
C2228 C 0.22141 0.20718 0.53922 0.0
C2229 C 0.23656 0.20336 0.51458 0.0
C2230 C 0.2291 0.20089 0.48271 0.0
C2231 C 0.20718 0.20386 0.47537 0.0
H2232 H 0.5389 0.54808 0.30558 0.0
H2233 H 0.57312 0.55443 0.21551 0.0
H2234 H 0.54221 0.51004 0.30246 0.0
H2235 H 0.57816 0.51627 0.21315 0.0
H2236 H 0.5546 0.44204 0.29922 0.0
H2237 H 0.5616 0.47957 0.30505 0.0
H2238 H 0.55846 0.4866 0.20125 0.0
H2239 H 0.55326 0.44876 0.19579 0.0
C2240 C 0.54783 0.5412 0.28566 0.0
C2241 C 0.55583 0.55394 0.26085 0.0
C2242 C 0.5499 0.51937 0.28385 0.0
C2243 C 0.56043 0.50981 0.25742 0.0
C2244 C 0.56952 0.52289 0.2335 0.0
C2245 C 0.56694 0.54475 0.23497 0.0
C2246 C 0.55592 0.45166 0.27773 0.0
C2247 C 0.55337 0.44268 0.2471 0.0
C2248 C 0.55969 0.47322 0.281 0.0
C2249 C 0.56019 0.48642 0.2537 0.0
C2250 C 0.55852 0.4771 0.22291 0.0
C2251 C 0.5554 0.4554 0.21966 0.0
H2252 H 0.19504 0.7927 0.05421 0.0
H2253 H 0.19302 0.7648 0.95914 0.0
H2254 H 0.23405 0.7986 0.0481 0.0
H2255 H 0.23182 0.7708 0.95312 0.0
H2256 H 0.3001 0.79536 0.94429 0.0
H2257 H 0.26091 0.79979 0.9507 0.0
H2258 H 0.26434 0.77078 0.04474 0.0
H2259 H 0.30332 0.76624 0.03844 0.0
C2260 C 0.20283 0.78819 0.03183 0.0
C2261 C 0.19108 0.77806 0.00729 0.0
C2262 C 0.2251 0.79153 0.0284 0.0
C2263 C 0.23583 0.78513 0.00017 0.0
C2264 C 0.22386 0.77606 0.97498 0.0
C2265 C 0.20171 0.77245 0.97858 0.0
C2266 C 0.29252 0.79027 0.96655 0.0
C2267 C 0.30469 0.78022 0.99071 0.0
C2268 C 0.27015 0.79278 0.97015 0.0
C2269 C 0.25971 0.7856 0.99817 0.0
C2270 C 0.27206 0.77663 0.02304 0.0
C2271 C 0.29432 0.77385 0.01927 0.0
H2272 H 0.55996 0.94611 0.76498 0.0
H2273 H 0.49744 0.9509 0.71818 0.0
H2274 H 0.56292 0.98448 0.76501 0.0
H2275 H 0.5005 0.98908 0.7184 0.0
H2276 H 0.5021 0.05529 0.76215 0.0
H2277 H 0.50079 0.01699 0.7623 0.0
H2278 H 0.56584 0.0146 0.72392 0.0
H2279 H 0.56728 0.05303 0.72361 0.0
C2280 C 0.5469 0.9553 0.75461 0.0
C2281 C 0.52843 0.94541 0.7417 0.0
C2282 C 0.54866 0.97723 0.75454 0.0
C2283 C 0.53186 0.98967 0.74192 0.0
C2284 C 0.51356 0.97983 0.72864 0.0
C2285 C 0.5119 0.95795 0.72836 0.0
C2286 C 0.5162 0.04666 0.75387 0.0
C2287 C 0.53477 0.05726 0.74271 0.0
C2288 C 0.51537 0.02473 0.7538 0.0
C2289 C 0.53317 0.0129 0.74293 0.0
C2290 C 0.55194 0.02339 0.73253 0.0
C2291 C 0.5527 0.04537 0.73223 0.0
H2292 H 0.2899 0.35338 0.04163 0.0
H2293 H 0.30351 0.29011 0.00882 0.0
H2294 H 0.25427 0.35163 0.01681 0.0
H2295 H 0.26784 0.28857 0.98345 0.0
H2296 H 0.19245 0.28885 0.97216 0.0
H2297 H 0.22878 0.28796 0.99539 0.0
H2298 H 0.24009 0.35142 0.96196 0.0
H2299 H 0.20376 0.35252 0.93927 0.0
C2300 C 0.2853 0.33906 0.02921 0.0
C2301 C 0.29967 0.32195 0.02704 0.0
C2302 C 0.26492 0.33813 0.01475 0.0
C2303 C 0.2584 0.3201 0.99768 0.0
C2304 C 0.2724 0.30267 0.99647 0.0
C2305 C 0.29284 0.30357 0.01102 0.0
C2306 C 0.2028 0.3025 0.96933 0.0
C2307 C 0.19508 0.32086 0.9542 0.0
C2308 C 0.22362 0.30197 0.98265 0.0
C2309 C 0.23712 0.31976 0.98103 0.0
C2310 C 0.22984 0.33766 0.96434 0.0
C2311 C 0.20906 0.33822 0.95112 0.0
H2312 H 0.98435 0.05413 0.2029 0.0
H2313 H 0.95354 0.05295 0.2966 0.0
H2314 H 0.98471 0.01561 0.20219 0.0
H2315 H 0.95425 0.01452 0.29591 0.0
H2316 H 0.98806 0.9485 0.29579 0.0
H2317 H 0.98643 0.98694 0.2955 0.0
H2318 H 0.95466 0.98553 0.20279 0.0
H2319 H 0.95594 0.94705 0.20312 0.0
C2320 C 0.97764 0.04567 0.22327 0.0
C2321 C 0.96889 0.05654 0.24978 0.0
C2322 C 0.97778 0.02368 0.22278 0.0
C2323 C 0.96956 0.01225 0.24904 0.0
C2324 C 0.96078 0.02307 0.27548 0.0
C2325 C 0.96028 0.04502 0.27574 0.0
C2326 C 0.98071 0.95638 0.27536 0.0
C2327 C 0.97207 0.94479 0.24952 0.0
C2328 C 0.97971 0.97832 0.27529 0.0
C2329 C 0.97042 0.98905 0.24913 0.0
C2330 C 0.96198 0.97753 0.22315 0.0
C2331 C 0.96261 0.95557 0.22346 0.0
H2332 H 0.30128 0.7073 0.47809 0.0
H2333 H 0.29067 0.64334 0.44604 0.0
H2334 H 0.26519 0.70773 0.50221 0.0
H2335 H 0.25456 0.64399 0.46952 0.0
H2336 H 0.19034 0.7053 0.51403 0.0
H2337 H 0.22646 0.707 0.4902 0.0
H2338 H 0.2395 0.64381 0.52348 0.0
H2339 H 0.20335 0.6419 0.54669 0.0
C2340 C 0.29116 0.69345 0.47573 0.0
C2341 C 0.29897 0.67521 0.46039 0.0
C2342 C 0.27046 0.69372 0.48955 0.0
C2343 C 0.25716 0.67578 0.48823 0.0
C2344 C 0.26464 0.65788 0.47169 0.0
C2345 C 0.28529 0.65758 0.45799 0.0
C2346 C 0.201 0.69186 0.51661 0.0
C2347 C 0.19385 0.67338 0.53201 0.0
C2348 C 0.22171 0.69285 0.50294 0.0
C2349 C 0.23571 0.67542 0.50449 0.0
C2350 C 0.2289 0.65732 0.52115 0.0
C2351 C 0.20821 0.65629 0.53468 0.0
H2352 H 0.42115 0.05577 0.20456 0.0
H2353 H 0.4517 0.05299 0.29825 0.0
H2354 H 0.41522 0.0177 0.20638 0.0
H2355 H 0.44573 0.01513 0.30001 0.0
H2356 H 0.42364 0.94755 0.30103 0.0
H2357 H 0.41768 0.98569 0.30041 0.0
H2358 H 0.44365 0.98879 0.20379 0.0
H2359 H 0.44968 0.95093 0.20439 0.0
C2360 C 0.42613 0.04714 0.22583 0.0
C2361 C 0.43711 0.05733 0.2511 0.0
C2362 C 0.42281 0.02536 0.2268 0.0
C2363 C 0.43011 0.01348 0.25326 0.0
C2364 C 0.43977 0.0239 0.27943 0.0
C2365 C 0.44335 0.04557 0.27828 0.0
C2366 C 0.42764 0.95634 0.27944 0.0
C2367 C 0.43733 0.94631 0.25288 0.0
C2368 C 0.4243 0.97814 0.27915 0.0
C2369 C 0.43023 0.99017 0.25207 0.0
C2370 C 0.4387 0.97991 0.22486 0.0
C2371 C 0.44234 0.95825 0.22533 0.0
H2372 H 0.80491 0.6924 0.03208 0.0
H2373 H 0.79827 0.75449 0.99016 0.0
H2374 H 0.76538 0.68764 0.02823 0.0
H2375 H 0.75929 0.74965 0.98699 0.0
H2376 H 0.69487 0.69786 0.9607 0.0
H2377 H 0.73424 0.6945 0.96781 0.0
H2378 H 0.73208 0.7396 0.04541 0.0
H2379 H 0.69307 0.743 0.03893 0.0
C2380 C 0.79513 0.70494 0.022 0.0
C2381 C 0.80475 0.72386 0.01158 0.0
C2382 C 0.77264 0.70214 0.0197 0.0
C2383 C 0.75962 0.71833 0.00735 0.0
C2384 C 0.76919 0.73701 0.99656 0.0
C2385 C 0.79151 0.73971 0.99843 0.0
C2386 C 0.70271 0.70673 0.97972 0.0
C2387 C 0.69085 0.72097 -0.00113 0.0
C2388 C 0.72514 0.70467 0.98385 0.0
C2389 C 0.73588 0.71679 0.00714 0.0
C2390 C 0.72396 0.73008 0.02739 0.0
C2391 C 0.70166 0.73208 0.02344 0.0
H2392 H 0.03658 0.0481 0.70056 0.0
H2393 H 0.06844 0.05143 0.79327 0.0
H2394 H 0.04302 0.0103 0.69879 0.0
H2395 H 0.07482 0.01343 0.79141 0.0
H2396 H 0.0429 0.94561 0.7942 0.0
H2397 H 0.04753 0.98366 0.79479 0.0
H2398 H 0.07185 0.98162 0.69716 0.0
H2399 H 0.0673 0.94328 0.69658 0.0
C2400 C 0.04525 0.04082 0.72036 0.0
C2401 C 0.0518 0.05275 0.74722 0.0
C2402 C 0.0491 0.01918 0.71918 0.0
C2403 C 0.05936 0.00893 0.745 0.0
C2404 C 0.06678 0.02095 0.77125 0.0
C2405 C 0.06318 0.0427 0.77224 0.0
C2406 C 0.0496 0.95321 0.77303 0.0
C2407 C 0.05457 0.94148 0.74524 0.0
C2408 C 0.05241 0.97499 0.77348 0.0
C2409 C 0.05998 0.9856 0.74599 0.0
C2410 C 0.06588 0.97381 0.71863 0.0
C2411 C 0.06338 0.9519 0.71836 0.0
H2412 H 0.69584 0.27477 0.45575 0.0
H2413 H 0.69665 0.30353 0.55025 0.0
H2414 H 0.7345 0.28136 0.45019 0.0
H2415 H 0.73554 0.31017 0.54453 0.0
H2416 H 0.80331 0.2747 0.53964 0.0
H2417 H 0.7648 0.28228 0.54413 0.0
H2418 H 0.76496 0.30808 0.44774 0.0
H2419 H 0.80378 0.30046 0.44314 0.0
C2420 C 0.70421 0.28288 0.47508 0.0
C2421 C 0.69333 0.2883 0.50368 0.0
C2422 C 0.72631 0.28686 0.47172 0.0
C2423 C 0.73799 0.29617 0.49702 0.0
C2424 C 0.72687 0.30287 0.52477 0.0
C2425 C 0.70465 0.29909 0.528 0.0
C2426 C 0.79523 0.28231 0.51957 0.0
C2427 C 0.80644 0.28668 0.49084 0.0
C2428 C 0.77323 0.28688 0.52231 0.0
C2429 C 0.76193 0.29572 0.49624 0.0
C2430 C 0.77335 0.3012 0.46812 0.0
C2431 C 0.79551 0.29686 0.46553 0.0
loop_
_geom_bond_atom_site_label_1
_geom_bond_atom_site_label_2
_geom_bond_distance
_geom_bond_site_symmetry_2
_ccdc_geom_bond_type
Mn0 O5 2.095 . S
Mn0 O15 2.162 . S
Mn0 O16 2.297 . S
Mn0 O24 2.385 . S
Mn0 O25 2.209 . S
Mn0 O26 2.094 . S
Mn1 O6 2.121 . S
Mn1 N8 2.257 . S
Mn1 N17 2.282 . S
Mn1 O25 2.215 . S
Mn1 O27 2.117 . S
C2 O24 1.234 . S
C2 O25 1.283 . S
C3 O15 1.281 . S
C3 O16 1.236 . S
C4 O26 1.240 . S
C4 O27 1.264 . S
O5 Mn0 2.095 . S
O5 C14 1.250 . S
O6 Mn1 2.121 . S
O6 C14 1.258 . S
C7 N8 1.326 . S
C7 C11 1.460 1_455 S
C7 H13 0.929 . S
N8 Mn1 2.257 . S
N8 C7 1.326 . S
N8 C12 1.362 1_455 S
C9 C10 1.258 . S
C9 C12 1.431 . S
C9 C29 1.449 . S
C10 C9 1.258 . S
C10 C11 1.477 . S
C10 H30 0.931 . S
C11 C7 1.460 1_655 S
C11 C10 1.477 . S
C11 H31 0.930 . S
C12 N8 1.362 1_655 S
C12 C9 1.431 . S
C12 C22 1.476 . S
H13 C7 0.929 . S
C14 O5 1.250 . S
C14 O6 1.258 . S
O15 Mn0 2.162 . S
O15 C3 1.281 . S
O16 Mn0 2.297 . S
O16 C3 1.236 . S
N17 Mn1 2.282 . S
N17 C18 1.328 . S
N17 C22 1.318 1_455 S
C18 N17 1.328 . S
C18 C19 1.457 1_455 S
C18 H23 0.929 . S
C19 C18 1.457 1_655 S
C19 C20 1.291 . S
C19 H32 0.931 . S
C20 C19 1.291 . S
C20 C21 1.373 . S
C20 H33 0.929 . S
C21 C20 1.373 . S
C21 C22 1.396 . S
C21 C28 1.403 . S
C22 C12 1.476 . S
C22 N17 1.318 1_655 S
C22 C21 1.396 . S
H23 C18 0.929 . S
O24 Mn0 2.385 . S
O24 C2 1.234 . S
O25 Mn0 2.209 . S
O25 Mn1 2.215 . S
O25 C2 1.283 . S
O26 Mn0 2.094 . S
O26 C4 1.240 . S
O27 Mn1 2.117 . S
O27 C4 1.264 . S
C28 C21 1.403 . S
C28 C29 1.399 . S
C28 H34 0.929 . S
C29 C9 1.449 . S
C29 C28 1.399 . S
C29 H35 0.930 . S
H30 C10 0.931 . S
H31 C11 0.930 . S
H32 C19 0.931 . S
H33 C20 0.929 . S
H34 C28 0.929 . S
H35 C29 0.930 . S
Mn36 O41 2.095 . S
Mn36 O51 2.162 . S
Mn36 O52 2.297 . S
Mn36 O60 2.385 . S
Mn36 O61 2.209 . S
Mn36 O62 2.094 . S
Mn37 O42 2.121 . S
Mn37 N44 2.257 . S
Mn37 N53 2.282 . S
Mn37 O61 2.215 . S
Mn37 O63 2.117 . S
C38 O60 1.234 . S
C38 O61 1.283 . S
C39 O51 1.281 . S
C39 O52 1.236 . S
C40 O62 1.240 . S
C40 O63 1.264 . S
O41 Mn36 2.095 . S
O41 C50 1.250 . S
O42 Mn37 2.121 . S
O42 C50 1.258 . S
C43 N44 1.326 . S
C43 C47 1.460 . S
C43 H49 0.929 . S
N44 Mn37 2.257 . S
N44 C43 1.326 . S
N44 C48 1.362 . S
C45 C46 1.258 . S
C45 C48 1.431 . S
C45 C65 1.449 . S
C46 C45 1.258 . S
C46 C47 1.477 . S
C46 H66 0.931 . S
C47 C43 1.460 . S
C47 C46 1.477 . S
C47 H67 0.930 . S
C48 N44 1.362 . S
C48 C45 1.431 . S
C48 C58 1.476 . S
H49 C43 0.929 . S
C50 O41 1.250 . S
C50 O42 1.258 . S
O51 Mn36 2.162 . S
O51 C39 1.281 . S
O52 Mn36 2.297 . S
O52 C39 1.236 . S
N53 Mn37 2.282 . S
N53 C54 1.328 . S
N53 C58 1.318 . S
C54 N53 1.328 . S
C54 C55 1.457 . S
C54 H59 0.929 . S
C55 C54 1.457 . S
C55 C56 1.291 . S
C55 H68 0.931 . S
C56 C55 1.291 . S
C56 C57 1.373 . S
C56 H69 0.929 . S
C57 C56 1.373 . S
C57 C58 1.396 . S
C57 C64 1.403 . S
C58 C48 1.476 . S
C58 N53 1.318 . S
C58 C57 1.396 . S
H59 C54 0.929 . S
O60 Mn36 2.385 . S
O60 C38 1.234 . S
O61 Mn36 2.209 . S
O61 Mn37 2.215 . S
O61 C38 1.283 . S
O62 Mn36 2.094 . S
O62 C40 1.240 . S
O63 Mn37 2.117 . S
O63 C40 1.264 . S
C64 C57 1.403 . S
C64 C65 1.399 . S
C64 H70 0.929 . S
C65 C45 1.449 . S
C65 C64 1.399 . S
C65 H71 0.930 . S
H66 C46 0.931 . S
H67 C47 0.930 . S
H68 C55 0.931 . S
H69 C56 0.929 . S
H70 C64 0.929 . S
H71 C65 0.930 . S
Mn72 O77 2.095 . S
Mn72 O87 2.162 . S
Mn72 O88 2.297 . S
Mn72 O96 2.385 . S
Mn72 O97 2.209 . S
Mn72 O98 2.094 . S
Mn73 O78 2.121 . S
Mn73 N80 2.257 . S
Mn73 N89 2.282 . S
Mn73 O97 2.215 . S
Mn73 O99 2.117 . S
C74 O96 1.234 . S
C74 O97 1.283 . S
C75 O87 1.281 . S
C75 O88 1.236 . S
C76 O98 1.240 . S
C76 O99 1.264 . S
O77 Mn72 2.095 . S
O77 C86 1.250 . S
O78 Mn73 2.121 . S
O78 C86 1.258 . S
C79 N80 1.326 . S
C79 C83 1.460 . S
C79 H85 0.929 . S
N80 Mn73 2.257 . S
N80 C79 1.326 . S
N80 C84 1.362 . S
C81 C82 1.258 . S
C81 C84 1.431 . S
C81 C101 1.449 . S
C82 C81 1.258 . S
C82 C83 1.477 . S
C82 H102 0.931 . S
C83 C79 1.460 . S
C83 C82 1.477 . S
C83 H103 0.930 . S
C84 N80 1.362 . S
C84 C81 1.431 . S
C84 C94 1.476 . S
H85 C79 0.929 . S
C86 O77 1.250 . S
C86 O78 1.258 . S
O87 Mn72 2.162 . S
O87 C75 1.281 . S
O88 Mn72 2.297 . S
O88 C75 1.236 . S
N89 Mn73 2.282 . S
N89 C90 1.328 . S
N89 C94 1.318 . S
C90 N89 1.328 . S
C90 C91 1.457 . S
C90 H95 0.929 . S
C91 C90 1.457 . S
C91 C92 1.291 . S
C91 H104 0.931 . S
C92 C91 1.291 . S
C92 C93 1.373 . S
C92 H105 0.929 . S
C93 C92 1.373 . S
C93 C94 1.396 . S
C93 C100 1.403 . S
C94 C84 1.476 . S
C94 N89 1.318 . S
C94 C93 1.396 . S
H95 C90 0.929 . S
O96 Mn72 2.385 . S
O96 C74 1.234 . S
O97 Mn72 2.209 . S
O97 Mn73 2.215 . S
O97 C74 1.283 . S
O98 Mn72 2.094 . S
O98 C76 1.240 . S
O99 Mn73 2.117 . S
O99 C76 1.264 . S
C100 C93 1.403 . S
C100 C101 1.399 . S
C100 H106 0.929 . S
C101 C81 1.449 . S
C101 C100 1.399 . S
C101 H107 0.930 . S
H102 C82 0.931 . S
H103 C83 0.930 . S
H104 C91 0.931 . S
H105 C92 0.929 . S
H106 C100 0.929 . S
H107 C101 0.930 . S
Mn108 O113 2.095 . S
Mn108 O123 2.162 . S
Mn108 O124 2.297 . S
Mn108 O132 2.385 . S
Mn108 O133 2.209 . S
Mn108 O134 2.094 1_554 S
Mn109 O114 2.121 . S
Mn109 N116 2.257 . S
Mn109 N125 2.282 . S
Mn109 O133 2.215 . S
Mn109 O135 2.117 1_554 S
C110 O132 1.234 . S
C110 O133 1.283 . S
C111 O123 1.281 . S
C111 O124 1.236 . S
C112 O134 1.240 . S
C112 O135 1.264 . S
O113 Mn108 2.095 . S
O113 C122 1.250 . S
O114 Mn109 2.121 . S
O114 C122 1.258 . S
C115 N116 1.326 . S
C115 C119 1.460 . S
C115 H121 0.929 . S
N116 Mn109 2.257 . S
N116 C115 1.326 . S
N116 C120 1.362 . S
C117 C118 1.258 . S
C117 C120 1.431 . S
C117 C137 1.449 . S
C118 C117 1.258 . S
C118 C119 1.477 . S
C118 H138 0.931 . S
C119 C115 1.460 . S
C119 C118 1.477 . S
C119 H139 0.930 . S
C120 N116 1.362 . S
C120 C117 1.431 . S
C120 C130 1.476 . S
H121 C115 0.929 . S
C122 O113 1.250 . S
C122 O114 1.258 . S
O123 Mn108 2.162 . S
O123 C111 1.281 . S
O124 Mn108 2.297 . S
O124 C111 1.236 . S
N125 Mn109 2.282 . S
N125 C126 1.328 . S
N125 C130 1.318 . S
C126 N125 1.328 . S
C126 C127 1.457 . S
C126 H131 0.929 . S
C127 C126 1.457 . S
C127 C128 1.291 . S
C127 H140 0.931 . S
C128 C127 1.291 . S
C128 C129 1.373 . S
C128 H141 0.929 . S
C129 C128 1.373 . S
C129 C130 1.396 . S
C129 C136 1.403 . S
C130 C120 1.476 . S
C130 N125 1.318 . S
C130 C129 1.396 . S
H131 C126 0.929 . S
O132 Mn108 2.385 . S
O132 C110 1.234 . S
O133 Mn108 2.209 . S
O133 Mn109 2.215 . S
O133 C110 1.283 . S
O134 Mn108 2.094 1_556 S
O134 C112 1.240 . S
O135 Mn109 2.117 1_556 S
O135 C112 1.264 . S
C136 C129 1.403 . S
C136 C137 1.399 . S
C136 H142 0.929 . S
C137 C117 1.449 . S
C137 C136 1.399 . S
C137 H143 0.930 . S
H138 C118 0.931 . S
H139 C119 0.930 . S
H140 C127 0.931 . S
H141 C128 0.929 . S
H142 C136 0.929 . S
H143 C137 0.930 . S
Mn144 O149 2.095 . S
Mn144 O159 2.162 . S
Mn144 O160 2.297 . S
Mn144 O168 2.385 . S
Mn144 O169 2.209 . S
Mn144 O170 2.094 . S
Mn145 O150 2.121 . S
Mn145 N152 2.257 . S
Mn145 N161 2.282 . S
Mn145 O169 2.215 . S
Mn145 O171 2.117 . S
C146 O168 1.234 . S
C146 O169 1.283 . S
C147 O159 1.281 . S
C147 O160 1.236 . S
C148 O170 1.240 . S
C148 O171 1.264 . S
O149 Mn144 2.095 . S
O149 C158 1.250 . S
O150 Mn145 2.121 . S
O150 C158 1.258 . S
C151 N152 1.326 . S
C151 C155 1.460 1_455 S
C151 H157 0.929 . S
N152 Mn145 2.257 . S
N152 C151 1.326 . S
N152 C156 1.362 1_455 S
C153 C154 1.258 . S
C153 C156 1.431 . S
C153 C173 1.449 . S
C154 C153 1.258 . S
C154 C155 1.477 . S
C154 H174 0.931 . S
C155 C151 1.460 1_655 S
C155 C154 1.477 . S
C155 H175 0.930 . S
C156 N152 1.362 1_655 S
C156 C153 1.431 . S
C156 C166 1.476 . S
H157 C151 0.929 . S
C158 O149 1.250 . S
C158 O150 1.258 . S
O159 Mn144 2.162 . S
O159 C147 1.281 . S
O160 Mn144 2.297 . S
O160 C147 1.236 . S
N161 Mn145 2.282 . S
N161 C162 1.328 . S
N161 C166 1.318 1_455 S
C162 N161 1.328 . S
C162 C163 1.457 1_455 S
C162 H167 0.929 . S
C163 C162 1.457 1_655 S
C163 C164 1.291 . S
C163 H176 0.931 . S
C164 C163 1.291 . S
C164 C165 1.373 . S
C164 H177 0.929 . S
C165 C164 1.373 . S
C165 C166 1.396 . S
C165 C172 1.403 . S
C166 C156 1.476 . S
C166 N161 1.318 1_655 S
C166 C165 1.396 . S
H167 C162 0.929 . S
O168 Mn144 2.385 . S
O168 C146 1.234 . S
O169 Mn144 2.209 . S
O169 Mn145 2.215 . S
O169 C146 1.283 . S
O170 Mn144 2.094 . S
O170 C148 1.240 . S
O171 Mn145 2.117 . S
O171 C148 1.264 . S
C172 C165 1.403 . S
C172 C173 1.399 . S
C172 H178 0.929 . S
C173 C153 1.449 . S
C173 C172 1.399 . S
C173 H179 0.930 . S
H174 C154 0.931 . S
H175 C155 0.930 . S
H176 C163 0.931 . S
H177 C164 0.929 . S
H178 C172 0.929 . S
H179 C173 0.930 . S
Mn180 O185 2.095 . S
Mn180 O195 2.162 . S
Mn180 O196 2.297 . S
Mn180 O204 2.385 . S
Mn180 O205 2.209 . S
Mn180 O206 2.094 . S
Mn181 O186 2.121 . S
Mn181 N188 2.257 . S
Mn181 N197 2.282 . S
Mn181 O205 2.215 . S
Mn181 O207 2.117 . S
C182 O204 1.234 . S
C182 O205 1.283 . S
C183 O195 1.281 . S
C183 O196 1.236 . S
C184 O206 1.240 . S
C184 O207 1.264 . S
O185 Mn180 2.095 . S
O185 C194 1.250 . S
O186 Mn181 2.121 . S
O186 C194 1.258 . S
C187 N188 1.326 . S
C187 C191 1.460 . S
C187 H193 0.929 . S
N188 Mn181 2.257 . S
N188 C187 1.326 . S
N188 C192 1.362 . S
C189 C190 1.258 . S
C189 C192 1.431 . S
C189 C209 1.449 . S
C190 C189 1.258 . S
C190 C191 1.477 . S
C190 H210 0.931 . S
C191 C187 1.460 . S
C191 C190 1.477 . S
C191 H211 0.930 . S
C192 N188 1.362 . S
C192 C189 1.431 . S
C192 C202 1.476 . S
H193 C187 0.929 . S
C194 O185 1.250 . S
C194 O186 1.258 . S
O195 Mn180 2.162 . S
O195 C183 1.281 . S
O196 Mn180 2.297 . S
O196 C183 1.236 . S
N197 Mn181 2.282 . S
N197 C198 1.328 . S
N197 C202 1.318 . S
C198 N197 1.328 . S
C198 C199 1.457 . S
C198 H203 0.929 . S
C199 C198 1.457 . S
C199 C200 1.291 . S
C199 H212 0.931 . S
C200 C199 1.291 . S
C200 C201 1.373 . S
C200 H213 0.929 . S
C201 C200 1.373 . S
C201 C202 1.396 . S
C201 C208 1.403 . S
C202 C192 1.476 . S
C202 N197 1.318 . S
C202 C201 1.396 . S
H203 C198 0.929 . S
O204 Mn180 2.385 . S
O204 C182 1.234 . S
O205 Mn180 2.209 . S
O205 Mn181 2.215 . S
O205 C182 1.283 . S
O206 Mn180 2.094 . S
O206 C184 1.240 . S
O207 Mn181 2.117 . S
O207 C184 1.264 . S
C208 C201 1.403 . S
C208 C209 1.399 . S
C208 H214 0.929 . S
C209 C189 1.449 . S
C209 C208 1.399 . S
C209 H215 0.930 . S
H210 C190 0.931 . S
H211 C191 0.930 . S
H212 C199 0.931 . S
H213 C200 0.929 . S
H214 C208 0.929 . S
H215 C209 0.930 . S
Mn216 O221 2.095 . S
Mn216 O231 2.162 . S
Mn216 O232 2.297 . S
Mn216 O240 2.385 . S
Mn216 O241 2.209 . S
Mn216 O242 2.094 . S
Mn217 O222 2.121 . S
Mn217 N224 2.257 . S
Mn217 N233 2.282 . S
Mn217 O241 2.215 . S
Mn217 O243 2.117 . S
C218 O240 1.234 . S
C218 O241 1.283 . S
C219 O231 1.281 . S
C219 O232 1.236 . S
C220 O242 1.240 . S
C220 O243 1.264 . S
O221 Mn216 2.095 . S
O221 C230 1.250 . S
O222 Mn217 2.121 . S
O222 C230 1.258 . S
C223 N224 1.326 . S
C223 C227 1.460 . S
C223 H229 0.929 . S
N224 Mn217 2.257 . S
N224 C223 1.326 . S
N224 C228 1.362 . S
C225 C226 1.258 . S
C225 C228 1.431 . S
C225 C245 1.449 . S
C226 C225 1.258 . S
C226 C227 1.477 . S
C226 H246 0.931 . S
C227 C223 1.460 . S
C227 C226 1.477 . S
C227 H247 0.930 . S
C228 N224 1.362 . S
C228 C225 1.431 . S
C228 C238 1.476 . S
H229 C223 0.929 . S
C230 O221 1.250 . S
C230 O222 1.258 . S
O231 Mn216 2.162 . S
O231 C219 1.281 . S
O232 Mn216 2.297 . S
O232 C219 1.236 . S
N233 Mn217 2.282 . S
N233 C234 1.328 . S
N233 C238 1.318 . S
C234 N233 1.328 . S
C234 C235 1.457 . S
C234 H239 0.929 . S
C235 C234 1.457 . S
C235 C236 1.291 . S
C235 H248 0.931 . S
C236 C235 1.291 . S
C236 C237 1.373 . S
C236 H249 0.929 . S
C237 C236 1.373 . S
C237 C238 1.396 . S
C237 C244 1.403 . S
C238 C228 1.476 . S
C238 N233 1.318 . S
C238 C237 1.396 . S
H239 C234 0.929 . S
O240 Mn216 2.385 . S
O240 C218 1.234 . S
O241 Mn216 2.209 . S
O241 Mn217 2.215 . S
O241 C218 1.283 . S
O242 Mn216 2.094 . S
O242 C220 1.240 . S
O243 Mn217 2.117 . S
O243 C220 1.264 . S
C244 C237 1.403 . S
C244 C245 1.399 . S
C244 H250 0.929 . S
C245 C225 1.449 . S
C245 C244 1.399 . S
C245 H251 0.930 . S
H246 C226 0.931 . S
H247 C227 0.930 . S
H248 C235 0.931 . S
H249 C236 0.929 . S
H250 C244 0.929 . S
H251 C245 0.930 . S
Mn252 O257 2.095 . S
Mn252 O267 2.162 . S
Mn252 O268 2.297 . S
Mn252 O276 2.385 . S
Mn252 O277 2.209 . S
Mn252 O278 2.094 1_556 S
Mn253 O258 2.121 . S
Mn253 N260 2.257 . S
Mn253 N269 2.282 . S
Mn253 O277 2.215 . S
Mn253 O279 2.117 1_556 S
C254 O276 1.234 . S
C254 O277 1.283 . S
C255 O267 1.281 . S
C255 O268 1.236 . S
C256 O278 1.240 . S
C256 O279 1.264 . S
O257 Mn252 2.095 . S
O257 C266 1.250 . S
O258 Mn253 2.121 . S
O258 C266 1.258 . S
C259 N260 1.326 . S
C259 C263 1.460 . S
C259 H265 0.929 . S
N260 Mn253 2.257 . S
N260 C259 1.326 . S
N260 C264 1.362 . S
C261 C262 1.258 . S
C261 C264 1.431 . S
C261 C281 1.449 . S
C262 C261 1.258 . S
C262 C263 1.477 . S
C262 H282 0.931 . S
C263 C259 1.460 . S
C263 C262 1.477 . S
C263 H283 0.930 . S
C264 N260 1.362 . S
C264 C261 1.431 . S
C264 C274 1.476 . S
H265 C259 0.929 . S
C266 O257 1.250 . S
C266 O258 1.258 . S
O267 Mn252 2.162 . S
O267 C255 1.281 . S
O268 Mn252 2.297 . S
O268 C255 1.236 . S
N269 Mn253 2.282 . S
N269 C270 1.328 . S
N269 C274 1.318 . S
C270 N269 1.328 . S
C270 C271 1.457 . S
C270 H275 0.929 . S
C271 C270 1.457 . S
C271 C272 1.291 . S
C271 H284 0.931 . S
C272 C271 1.291 . S
C272 C273 1.373 . S
C272 H285 0.929 . S
C273 C272 1.373 . S
C273 C274 1.396 . S
C273 C280 1.403 . S
C274 C264 1.476 . S
C274 N269 1.318 . S
C274 C273 1.396 . S
H275 C270 0.929 . S
O276 Mn252 2.385 . S
O276 C254 1.234 . S
O277 Mn252 2.209 . S
O277 Mn253 2.215 . S
O277 C254 1.283 . S
O278 Mn252 2.094 1_554 S
O278 C256 1.240 . S
O279 Mn253 2.117 1_554 S
O279 C256 1.264 . S
C280 C273 1.403 . S
C280 C281 1.399 . S
C280 H286 0.929 . S
C281 C261 1.449 . S
C281 C280 1.399 . S
C281 H287 0.930 . S
H282 C262 0.931 . S
H283 C263 0.930 . S
H284 C271 0.931 . S
H285 C272 0.929 . S
H286 C280 0.929 . S
H287 C281 0.930 . S
Mn288 O293 2.095 . S
Mn288 O303 2.162 . S
Mn288 O304 2.297 . S
Mn288 O312 2.385 . S
Mn288 O313 2.209 . S
Mn288 O314 2.094 . S
Mn289 O294 2.121 . S
Mn289 N296 2.257 1_655 S
Mn289 N305 2.282 1_655 S
Mn289 O313 2.215 . S
Mn289 O315 2.117 . S
C290 O312 1.234 . S
C290 O313 1.283 . S
C291 O303 1.281 . S
C291 O304 1.236 . S
C292 O314 1.240 . S
C292 O315 1.264 . S
O293 Mn288 2.095 . S
O293 C302 1.250 . S
O294 Mn289 2.121 . S
O294 C302 1.258 . S
C295 N296 1.326 . S
C295 C299 1.460 . S
C295 H301 0.929 1_455 S
N296 Mn289 2.257 1_455 S
N296 C295 1.326 . S
N296 C300 1.362 . S
C297 C298 1.258 . S
C297 C300 1.431 . S
C297 C317 1.449 . S
C298 C297 1.258 . S
C298 C299 1.477 . S
C298 H318 0.931 . S
C299 C295 1.460 . S
C299 C298 1.477 . S
C299 H319 0.930 . S
C300 N296 1.362 . S
C300 C297 1.431 . S
C300 C310 1.476 . S
H301 C295 0.929 1_655 S
C302 O293 1.250 . S
C302 O294 1.258 . S
O303 Mn288 2.162 . S
O303 C291 1.281 . S
O304 Mn288 2.297 . S
O304 C291 1.236 . S
N305 Mn289 2.282 1_455 S
N305 C306 1.328 . S
N305 C310 1.318 . S
C306 N305 1.328 . S
C306 C307 1.457 . S
C306 H311 0.929 1_455 S
C307 C306 1.457 . S
C307 C308 1.291 . S
C307 H320 0.931 . S
C308 C307 1.291 . S
C308 C309 1.373 . S
C308 H321 0.929 . S
C309 C308 1.373 . S
C309 C310 1.396 . S
C309 C316 1.403 . S
C310 C300 1.476 . S
C310 N305 1.318 . S
C310 C309 1.396 . S
H311 C306 0.929 1_655 S
O312 Mn288 2.385 . S
O312 C290 1.234 . S
O313 Mn288 2.209 . S
O313 Mn289 2.215 . S
O313 C290 1.283 . S
O314 Mn288 2.094 . S
O314 C292 1.240 . S
O315 Mn289 2.117 . S
O315 C292 1.264 . S
C316 C309 1.403 . S
C316 C317 1.399 . S
C316 H322 0.929 . S
C317 C297 1.449 . S
C317 C316 1.399 . S
C317 H323 0.930 . S
H318 C298 0.931 . S
H319 C299 0.930 . S
H320 C307 0.931 . S
H321 C308 0.929 . S
H322 C316 0.929 . S
H323 C317 0.930 . S
Mn324 O329 2.095 . S
Mn324 O339 2.162 . S
Mn324 O340 2.297 . S
Mn324 O348 2.385 . S
Mn324 O349 2.209 . S
Mn324 O350 2.094 . S
Mn325 O330 2.121 . S
Mn325 N332 2.257 . S
Mn325 N341 2.282 . S
Mn325 O349 2.215 . S
Mn325 O351 2.117 . S
C326 O348 1.234 . S
C326 O349 1.283 . S
C327 O339 1.281 . S
C327 O340 1.236 . S
C328 O350 1.240 . S
C328 O351 1.264 . S
O329 Mn324 2.095 . S
O329 C338 1.250 . S
O330 Mn325 2.121 . S
O330 C338 1.258 . S
C331 N332 1.326 . S
C331 C335 1.460 . S
C331 H337 0.929 . S
N332 Mn325 2.257 . S
N332 C331 1.326 . S
N332 C336 1.362 . S
C333 C334 1.258 . S
C333 C336 1.431 . S
C333 C353 1.449 . S
C334 C333 1.258 . S
C334 C335 1.477 . S
C334 H354 0.931 . S
C335 C331 1.460 . S
C335 C334 1.477 . S
C335 H355 0.930 . S
C336 N332 1.362 . S
C336 C333 1.431 . S
C336 C346 1.476 . S
H337 C331 0.929 . S
C338 O329 1.250 . S
C338 O330 1.258 . S
O339 Mn324 2.162 . S
O339 C327 1.281 . S
O340 Mn324 2.297 . S
O340 C327 1.236 . S
N341 Mn325 2.282 . S
N341 C342 1.328 . S
N341 C346 1.318 . S
C342 N341 1.328 . S
C342 C343 1.457 . S
C342 H347 0.929 . S
C343 C342 1.457 . S
C343 C344 1.291 . S
C343 H356 0.931 . S
C344 C343 1.291 . S
C344 C345 1.373 . S
C344 H357 0.929 . S
C345 C344 1.373 . S
C345 C346 1.396 . S
C345 C352 1.403 . S
C346 C336 1.476 . S
C346 N341 1.318 . S
C346 C345 1.396 . S
H347 C342 0.929 . S
O348 Mn324 2.385 . S
O348 C326 1.234 . S
O349 Mn324 2.209 . S
O349 Mn325 2.215 . S
O349 C326 1.283 . S
O350 Mn324 2.094 . S
O350 C328 1.240 . S
O351 Mn325 2.117 . S
O351 C328 1.264 . S
C352 C345 1.403 . S
C352 C353 1.399 . S
C352 H358 0.929 . S
C353 C333 1.449 . S
C353 C352 1.399 . S
C353 H359 0.930 . S
H354 C334 0.931 . S
H355 C335 0.930 . S
H356 C343 0.931 . S
H357 C344 0.929 . S
H358 C352 0.929 . S
H359 C353 0.930 . S
Mn360 O365 2.095 . S
Mn360 O375 2.162 . S
Mn360 O376 2.297 . S
Mn360 O384 2.385 . S
Mn360 O385 2.209 . S
Mn360 O386 2.094 . S
Mn361 O366 2.121 . S
Mn361 N368 2.257 . S
Mn361 N377 2.282 . S
Mn361 O385 2.215 . S
Mn361 O387 2.117 . S
C362 O384 1.234 . S
C362 O385 1.283 . S
C363 O375 1.281 . S
C363 O376 1.236 . S
C364 O386 1.240 . S
C364 O387 1.264 . S
O365 Mn360 2.095 . S
O365 C374 1.250 . S
O366 Mn361 2.121 . S
O366 C374 1.258 . S
C367 N368 1.326 . S
C367 C371 1.460 . S
C367 H373 0.929 . S
N368 Mn361 2.257 . S
N368 C367 1.326 . S
N368 C372 1.362 . S
C369 C370 1.258 . S
C369 C372 1.431 . S
C369 C389 1.449 . S
C370 C369 1.258 . S
C370 C371 1.477 . S
C370 H390 0.931 . S
C371 C367 1.460 . S
C371 C370 1.477 . S
C371 H391 0.930 . S
C372 N368 1.362 . S
C372 C369 1.431 . S
C372 C382 1.476 . S
H373 C367 0.929 . S
C374 O365 1.250 . S
C374 O366 1.258 . S
O375 Mn360 2.162 . S
O375 C363 1.281 . S
O376 Mn360 2.297 . S
O376 C363 1.236 . S
N377 Mn361 2.282 . S
N377 C378 1.328 . S
N377 C382 1.318 . S
C378 N377 1.328 . S
C378 C379 1.457 . S
C378 H383 0.929 . S
C379 C378 1.457 . S
C379 C380 1.291 . S
C379 H392 0.931 . S
C380 C379 1.291 . S
C380 C381 1.373 . S
C380 H393 0.929 . S
C381 C380 1.373 . S
C381 C382 1.396 . S
C381 C388 1.403 . S
C382 C372 1.476 . S
C382 N377 1.318 . S
C382 C381 1.396 . S
H383 C378 0.929 . S
O384 Mn360 2.385 . S
O384 C362 1.234 . S
O385 Mn360 2.209 . S
O385 Mn361 2.215 . S
O385 C362 1.283 . S
O386 Mn360 2.094 . S
O386 C364 1.240 . S
O387 Mn361 2.117 . S
O387 C364 1.264 . S
C388 C381 1.403 . S
C388 C389 1.399 . S
C388 H394 0.929 . S
C389 C369 1.449 . S
C389 C388 1.399 . S
C389 H395 0.930 . S
H390 C370 0.931 . S
H391 C371 0.930 . S
H392 C379 0.931 . S
H393 C380 0.929 . S
H394 C388 0.929 . S
H395 C389 0.930 . S
Mn396 O401 2.095 . S
Mn396 O411 2.162 . S
Mn396 O412 2.297 . S
Mn396 O420 2.385 . S
Mn396 O421 2.209 . S
Mn396 O422 2.094 . S
Mn397 O402 2.141 . S
Mn397 N404 2.270 . S
Mn397 N413 2.265 1_554 S
Mn397 O421 2.187 1_554 S
Mn397 O423 2.102 1_554 S
C398 O420 1.234 . S
C398 O421 1.283 . S
C399 O411 1.281 . S
C399 O412 1.236 . S
C400 O422 1.240 . S
C400 O423 1.264 . S
O401 Mn396 2.095 . S
O401 C410 1.250 1_556 S
O402 Mn397 2.141 . S
O402 C410 1.258 . S
C403 N404 1.326 . S
C403 C407 1.460 . S
C403 H409 0.929 . S
N404 Mn397 2.270 . S
N404 C403 1.326 . S
N404 C408 1.362 . S
C405 C406 1.258 . S
C405 C408 1.431 . S
C405 C425 1.449 . S
C406 C405 1.258 . S
C406 C407 1.477 . S
C406 H426 0.931 . S
C407 C403 1.460 . S
C407 C406 1.477 . S
C407 H427 0.930 . S
C408 N404 1.362 . S
C408 C405 1.431 . S
C408 C418 1.476 1_554 S
H409 C403 0.929 . S
C410 O401 1.250 1_554 S
C410 O402 1.258 . S
O411 Mn396 2.162 . S
O411 C399 1.281 . S
O412 Mn396 2.297 . S
O412 C399 1.236 . S
N413 Mn397 2.265 1_556 S
N413 C414 1.328 . S
N413 C418 1.318 . S
C414 N413 1.328 . S
C414 C415 1.457 . S
C414 H419 0.929 . S
C415 C414 1.457 . S
C415 C416 1.291 . S
C415 H428 0.931 . S
C416 C415 1.291 . S
C416 C417 1.373 . S
C416 H429 0.929 . S
C417 C416 1.373 . S
C417 C418 1.396 . S
C417 C424 1.403 . S
C418 C408 1.476 1_556 S
C418 N413 1.318 . S
C418 C417 1.396 . S
H419 C414 0.929 . S
O420 Mn396 2.385 . S
O420 C398 1.234 . S
O421 Mn396 2.209 . S
O421 Mn397 2.187 1_556 S
O421 C398 1.283 . S
O422 Mn396 2.094 . S
O422 C400 1.240 . S
O423 Mn397 2.102 1_556 S
O423 C400 1.264 . S
C424 C417 1.403 . S
C424 C425 1.399 1_556 S
C424 H430 0.929 . S
C425 C405 1.449 . S
C425 C424 1.399 1_554 S
C425 H431 0.930 . S
H426 C406 0.931 . S
H427 C407 0.930 . S
H428 C415 0.931 . S
H429 C416 0.929 . S
H430 C424 0.929 . S
H431 C425 0.930 . S
Mn432 O437 2.095 . S
Mn432 O447 2.162 . S
Mn432 O448 2.297 . S
Mn432 O456 2.385 . S
Mn432 O457 2.209 . S
Mn432 O458 2.094 . S
Mn433 O438 2.121 . S
Mn433 N440 2.257 1_655 S
Mn433 N449 2.282 1_655 S
Mn433 O457 2.215 . S
Mn433 O459 2.117 . S
C434 O456 1.234 . S
C434 O457 1.283 . S
C435 O447 1.281 . S
C435 O448 1.236 . S
C436 O458 1.240 . S
C436 O459 1.264 . S
O437 Mn432 2.095 . S
O437 C446 1.250 . S
O438 Mn433 2.121 . S
O438 C446 1.258 . S
C439 N440 1.326 . S
C439 C443 1.460 . S
C439 H445 0.929 1_455 S
N440 Mn433 2.257 1_455 S
N440 C439 1.326 . S
N440 C444 1.362 . S
C441 C442 1.258 . S
C441 C444 1.431 . S
C441 C461 1.449 . S
C442 C441 1.258 . S
C442 C443 1.477 . S
C442 H462 0.931 . S
C443 C439 1.460 . S
C443 C442 1.477 . S
C443 H463 0.930 . S
C444 N440 1.362 . S
C444 C441 1.431 . S
C444 C454 1.476 . S
H445 C439 0.929 1_655 S
C446 O437 1.250 . S
C446 O438 1.258 . S
O447 Mn432 2.162 . S
O447 C435 1.281 . S
O448 Mn432 2.297 . S
O448 C435 1.236 . S
N449 Mn433 2.282 1_455 S
N449 C450 1.328 . S
N449 C454 1.318 . S
C450 N449 1.328 . S
C450 C451 1.457 . S
C450 H455 0.929 1_455 S
C451 C450 1.457 . S
C451 C452 1.291 . S
C451 H464 0.931 . S
C452 C451 1.291 . S
C452 C453 1.373 . S
C452 H465 0.929 . S
C453 C452 1.373 . S
C453 C454 1.396 . S
C453 C460 1.403 . S
C454 C444 1.476 . S
C454 N449 1.318 . S
C454 C453 1.396 . S
H455 C450 0.929 1_655 S
O456 Mn432 2.385 . S
O456 C434 1.234 . S
O457 Mn432 2.209 . S
O457 Mn433 2.215 . S
O457 C434 1.283 . S
O458 Mn432 2.094 . S
O458 C436 1.240 . S
O459 Mn433 2.117 . S
O459 C436 1.264 . S
C460 C453 1.403 . S
C460 C461 1.399 . S
C460 H466 0.929 . S
C461 C441 1.449 . S
C461 C460 1.399 . S
C461 H467 0.930 . S
H462 C442 0.931 . S
H463 C443 0.930 . S
H464 C451 0.931 . S
H465 C452 0.929 . S
H466 C460 0.929 . S
H467 C461 0.930 . S
Mn468 O473 2.095 . S
Mn468 O483 2.162 . S
Mn468 O484 2.297 . S
Mn468 O492 2.385 . S
Mn468 O493 2.209 . S
Mn468 O494 2.094 . S
Mn469 O474 2.121 . S
Mn469 N476 2.257 . S
Mn469 N485 2.282 . S
Mn469 O493 2.215 . S
Mn469 O495 2.117 . S
C470 O492 1.234 . S
C470 O493 1.283 . S
C471 O483 1.281 . S
C471 O484 1.236 . S
C472 O494 1.240 . S
C472 O495 1.264 . S
O473 Mn468 2.095 . S
O473 C482 1.250 . S
O474 Mn469 2.121 . S
O474 C482 1.258 . S
C475 N476 1.326 . S
C475 C479 1.460 . S
C475 H481 0.929 . S
N476 Mn469 2.257 . S
N476 C475 1.326 . S
N476 C480 1.362 . S
C477 C478 1.258 . S
C477 C480 1.431 . S
C477 C497 1.449 . S
C478 C477 1.258 . S
C478 C479 1.477 . S
C478 H498 0.931 . S
C479 C475 1.460 . S
C479 C478 1.477 . S
C479 H499 0.930 . S
C480 N476 1.362 . S
C480 C477 1.431 . S
C480 C490 1.476 . S
H481 C475 0.929 . S
C482 O473 1.250 . S
C482 O474 1.258 . S
O483 Mn468 2.162 . S
O483 C471 1.281 . S
O484 Mn468 2.297 . S
O484 C471 1.236 . S
N485 Mn469 2.282 . S
N485 C486 1.328 . S
N485 C490 1.318 . S
C486 N485 1.328 . S
C486 C487 1.457 . S
C486 H491 0.929 . S
C487 C486 1.457 . S
C487 C488 1.291 . S
C487 H500 0.931 . S
C488 C487 1.291 . S
C488 C489 1.373 . S
C488 H501 0.929 . S
C489 C488 1.373 . S
C489 C490 1.396 . S
C489 C496 1.403 . S
C490 C480 1.476 . S
C490 N485 1.318 . S
C490 C489 1.396 . S
H491 C486 0.929 . S
O492 Mn468 2.385 . S
O492 C470 1.234 . S
O493 Mn468 2.209 . S
O493 Mn469 2.215 . S
O493 C470 1.283 . S
O494 Mn468 2.094 . S
O494 C472 1.240 . S
O495 Mn469 2.117 . S
O495 C472 1.264 . S
C496 C489 1.403 . S
C496 C497 1.399 . S
C496 H502 0.929 . S
C497 C477 1.449 . S
C497 C496 1.399 . S
C497 H503 0.930 . S
H498 C478 0.931 . S
H499 C479 0.930 . S
H500 C487 0.931 . S
H501 C488 0.929 . S
H502 C496 0.929 . S
H503 C497 0.930 . S
Mn504 O509 2.095 . S
Mn504 O519 2.162 . S
Mn504 O520 2.297 . S
Mn504 O528 2.385 . S
Mn504 O529 2.209 . S
Mn504 O530 2.094 . S
Mn505 O510 2.121 . S
Mn505 N512 2.257 . S
Mn505 N521 2.282 . S
Mn505 O529 2.215 . S
Mn505 O531 2.117 . S
C506 O528 1.234 . S
C506 O529 1.283 . S
C507 O519 1.281 . S
C507 O520 1.236 . S
C508 O530 1.240 . S
C508 O531 1.264 . S
O509 Mn504 2.095 . S
O509 C518 1.250 . S
O510 Mn505 2.121 . S
O510 C518 1.258 . S
C511 N512 1.326 . S
C511 C515 1.460 . S
C511 H517 0.929 . S
N512 Mn505 2.257 . S
N512 C511 1.326 . S
N512 C516 1.362 . S
C513 C514 1.258 . S
C513 C516 1.431 . S
C513 C533 1.449 . S
C514 C513 1.258 . S
C514 C515 1.477 . S
C514 H534 0.931 . S
C515 C511 1.460 . S
C515 C514 1.477 . S
C515 H535 0.930 . S
C516 N512 1.362 . S
C516 C513 1.431 . S
C516 C526 1.476 . S
H517 C511 0.929 . S
C518 O509 1.250 . S
C518 O510 1.258 . S
O519 Mn504 2.162 . S
O519 C507 1.281 . S
O520 Mn504 2.297 . S
O520 C507 1.236 . S
N521 Mn505 2.282 . S
N521 C522 1.328 . S
N521 C526 1.318 . S
C522 N521 1.328 . S
C522 C523 1.457 . S
C522 H527 0.929 . S
C523 C522 1.457 . S
C523 C524 1.291 . S
C523 H536 0.931 . S
C524 C523 1.291 . S
C524 C525 1.373 . S
C524 H537 0.929 . S
C525 C524 1.373 . S
C525 C526 1.396 . S
C525 C532 1.403 . S
C526 C516 1.476 . S
C526 N521 1.318 . S
C526 C525 1.396 . S
H527 C522 0.929 . S
O528 Mn504 2.385 . S
O528 C506 1.234 . S
O529 Mn504 2.209 . S
O529 Mn505 2.215 . S
O529 C506 1.283 . S
O530 Mn504 2.094 . S
O530 C508 1.240 . S
O531 Mn505 2.117 . S
O531 C508 1.264 . S
C532 C525 1.403 . S
C532 C533 1.399 . S
C532 H538 0.929 . S
C533 C513 1.449 . S
C533 C532 1.399 . S
C533 H539 0.930 . S
H534 C514 0.931 . S
H535 C515 0.930 . S
H536 C523 0.931 . S
H537 C524 0.929 . S
H538 C532 0.929 . S
H539 C533 0.930 . S
Mn540 O545 2.095 . S
Mn540 O555 2.162 . S
Mn540 O556 2.297 . S
Mn540 O564 2.385 . S
Mn540 O565 2.209 . S
Mn540 O566 2.094 . S
Mn541 O546 2.141 . S
Mn541 N548 2.270 . S
Mn541 N557 2.265 1_556 S
Mn541 O565 2.187 1_556 S
Mn541 O567 2.102 1_556 S
C542 O564 1.234 . S
C542 O565 1.283 . S
C543 O555 1.281 . S
C543 O556 1.236 . S
C544 O566 1.240 . S
C544 O567 1.264 . S
O545 Mn540 2.095 . S
O545 C554 1.250 1_554 S
O546 Mn541 2.141 . S
O546 C554 1.258 . S
C547 N548 1.326 . S
C547 C551 1.460 . S
C547 H553 0.929 . S
N548 Mn541 2.270 . S
N548 C547 1.326 . S
N548 C552 1.362 . S
C549 C550 1.258 . S
C549 C552 1.431 . S
C549 C569 1.449 . S
C550 C549 1.258 . S
C550 C551 1.477 . S
C550 H570 0.931 . S
C551 C547 1.460 . S
C551 C550 1.477 . S
C551 H571 0.930 . S
C552 N548 1.362 . S
C552 C549 1.431 . S
C552 C562 1.476 1_556 S
H553 C547 0.929 . S
C554 O545 1.250 1_556 S
C554 O546 1.258 . S
O555 Mn540 2.162 . S
O555 C543 1.281 . S
O556 Mn540 2.297 . S
O556 C543 1.236 . S
N557 Mn541 2.265 1_554 S
N557 C558 1.328 . S
N557 C562 1.318 . S
C558 N557 1.328 . S
C558 C559 1.457 . S
C558 H563 0.929 . S
C559 C558 1.457 . S
C559 C560 1.291 . S
C559 H572 0.931 . S
C560 C559 1.291 . S
C560 C561 1.373 . S
C560 H573 0.929 . S
C561 C560 1.373 . S
C561 C562 1.396 . S
C561 C568 1.403 . S
C562 C552 1.476 1_554 S
C562 N557 1.318 . S
C562 C561 1.396 . S
H563 C558 0.929 . S
O564 Mn540 2.385 . S
O564 C542 1.234 . S
O565 Mn540 2.209 . S
O565 Mn541 2.187 1_554 S
O565 C542 1.283 . S
O566 Mn540 2.094 . S
O566 C544 1.240 . S
O567 Mn541 2.102 1_554 S
O567 C544 1.264 . S
C568 C561 1.403 . S
C568 C569 1.399 1_554 S
C568 H574 0.929 . S
C569 C549 1.449 . S
C569 C568 1.399 1_556 S
C569 H575 0.930 . S
H570 C550 0.931 . S
H571 C551 0.930 . S
H572 C559 0.931 . S
H573 C560 0.929 . S
H574 C568 0.929 . S
H575 C569 0.930 . S
Mn576 O581 2.095 . S
Mn576 O591 2.162 . S
Mn576 O592 2.297 . S
Mn576 O600 2.385 . S
Mn576 O601 2.209 . S
Mn576 O602 2.094 . S
Mn577 O582 2.121 . S
Mn577 N584 2.257 . S
Mn577 N593 2.282 . S
Mn577 O601 2.215 . S
Mn577 O603 2.117 . S
C578 O600 1.234 . S
C578 O601 1.283 . S
C579 O591 1.281 . S
C579 O592 1.236 . S
C580 O602 1.240 . S
C580 O603 1.264 . S
O581 Mn576 2.095 . S
O581 C590 1.250 . S
O582 Mn577 2.121 . S
O582 C590 1.258 . S
C583 N584 1.326 . S
C583 C587 1.460 . S
C583 H589 0.929 . S
N584 Mn577 2.257 . S
N584 C583 1.326 . S
N584 C588 1.362 . S
C585 C586 1.258 . S
C585 C588 1.431 . S
C585 C605 1.449 . S
C586 C585 1.258 . S
C586 C587 1.477 . S
C586 H606 0.931 . S
C587 C583 1.460 . S
C587 C586 1.477 . S
C587 H607 0.930 . S
C588 N584 1.362 . S
C588 C585 1.431 . S
C588 C598 1.476 . S
H589 C583 0.929 . S
C590 O581 1.250 . S
C590 O582 1.258 . S
O591 Mn576 2.162 . S
O591 C579 1.281 . S
O592 Mn576 2.297 . S
O592 C579 1.236 . S
N593 Mn577 2.282 . S
N593 C594 1.328 . S
N593 C598 1.318 . S
C594 N593 1.328 . S
C594 C595 1.457 . S
C594 H599 0.929 . S
C595 C594 1.457 . S
C595 C596 1.291 . S
C595 H608 0.931 . S
C596 C595 1.291 . S
C596 C597 1.373 . S
C596 H609 0.929 . S
C597 C596 1.373 . S
C597 C598 1.396 . S
C597 C604 1.403 . S
C598 C588 1.476 . S
C598 N593 1.318 . S
C598 C597 1.396 . S
H599 C594 0.929 . S
O600 Mn576 2.385 . S
O600 C578 1.234 . S
O601 Mn576 2.209 . S
O601 Mn577 2.215 . S
O601 C578 1.283 . S
O602 Mn576 2.094 . S
O602 C580 1.240 . S
O603 Mn577 2.117 . S
O603 C580 1.264 . S
C604 C597 1.403 . S
C604 C605 1.399 . S
C604 H610 0.929 . S
C605 C585 1.449 . S
C605 C604 1.399 . S
C605 H611 0.930 . S
H606 C586 0.931 . S
H607 C587 0.930 . S
H608 C595 0.931 . S
H609 C596 0.929 . S
H610 C604 0.929 . S
H611 C605 0.930 . S
Mn612 O617 2.095 . S
Mn612 O627 2.162 . S
Mn612 O628 2.297 . S
Mn612 O636 2.385 . S
Mn612 O637 2.209 . S
Mn612 O638 2.094 1_554 S
Mn613 O618 2.121 . S
Mn613 N620 2.257 . S
Mn613 N629 2.282 . S
Mn613 O637 2.215 . S
Mn613 O639 2.117 1_554 S
C614 O636 1.234 . S
C614 O637 1.283 . S
C615 O627 1.281 . S
C615 O628 1.236 . S
C616 O638 1.240 . S
C616 O639 1.264 . S
O617 Mn612 2.095 . S
O617 C626 1.250 . S
O618 Mn613 2.121 . S
O618 C626 1.258 . S
C619 N620 1.326 . S
C619 C623 1.460 . S
C619 H625 0.929 . S
N620 Mn613 2.257 . S
N620 C619 1.326 . S
N620 C624 1.362 . S
C621 C622 1.258 . S
C621 C624 1.431 . S
C621 C641 1.449 . S
C622 C621 1.258 . S
C622 C623 1.477 . S
C622 H642 0.931 . S
C623 C619 1.460 . S
C623 C622 1.477 . S
C623 H643 0.930 . S
C624 N620 1.362 . S
C624 C621 1.431 . S
C624 C634 1.476 . S
H625 C619 0.929 . S
C626 O617 1.250 . S
C626 O618 1.258 . S
O627 Mn612 2.162 . S
O627 C615 1.281 . S
O628 Mn612 2.297 . S
O628 C615 1.236 . S
N629 Mn613 2.282 . S
N629 C630 1.328 . S
N629 C634 1.318 . S
C630 N629 1.328 . S
C630 C631 1.457 . S
C630 H635 0.929 . S
C631 C630 1.457 . S
C631 C632 1.291 . S
C631 H644 0.931 . S
C632 C631 1.291 . S
C632 C633 1.373 . S
C632 H645 0.929 . S
C633 C632 1.373 . S
C633 C634 1.396 . S
C633 C640 1.403 . S
C634 C624 1.476 . S
C634 N629 1.318 . S
C634 C633 1.396 . S
H635 C630 0.929 . S
O636 Mn612 2.385 . S
O636 C614 1.234 . S
O637 Mn612 2.209 . S
O637 Mn613 2.215 . S
O637 C614 1.283 . S
O638 Mn612 2.094 1_556 S
O638 C616 1.240 . S
O639 Mn613 2.117 1_556 S
O639 C616 1.264 . S
C640 C633 1.403 . S
C640 C641 1.399 . S
C640 H646 0.929 . S
C641 C621 1.449 . S
C641 C640 1.399 . S
C641 H647 0.930 . S
H642 C622 0.931 . S
H643 C623 0.930 . S
H644 C631 0.931 . S
H645 C632 0.929 . S
H646 C640 0.929 . S
H647 C641 0.930 . S
Mn648 O653 2.095 . S
Mn648 O663 2.162 . S
Mn648 O664 2.297 . S
Mn648 O672 2.385 . S
Mn648 O673 2.209 . S
Mn648 O674 2.094 . S
Mn649 O654 2.121 . S
Mn649 N656 2.257 . S
Mn649 N665 2.282 . S
Mn649 O673 2.215 . S
Mn649 O675 2.117 . S
C650 O672 1.234 . S
C650 O673 1.283 . S
C651 O663 1.281 . S
C651 O664 1.236 . S
C652 O674 1.240 . S
C652 O675 1.264 . S
O653 Mn648 2.095 . S
O653 C662 1.250 . S
O654 Mn649 2.121 . S
O654 C662 1.258 . S
C655 N656 1.326 . S
C655 C659 1.460 1_655 S
C655 H661 0.929 . S
N656 Mn649 2.257 . S
N656 C655 1.326 . S
N656 C660 1.362 1_655 S
C657 C658 1.258 . S
C657 C660 1.431 . S
C657 C677 1.449 . S
C658 C657 1.258 . S
C658 C659 1.477 . S
C658 H678 0.931 . S
C659 C655 1.460 1_455 S
C659 C658 1.477 . S
C659 H679 0.930 . S
C660 N656 1.362 1_455 S
C660 C657 1.431 . S
C660 C670 1.476 . S
H661 C655 0.929 . S
C662 O653 1.250 . S
C662 O654 1.258 . S
O663 Mn648 2.162 . S
O663 C651 1.281 . S
O664 Mn648 2.297 . S
O664 C651 1.236 . S
N665 Mn649 2.282 . S
N665 C666 1.328 . S
N665 C670 1.318 1_655 S
C666 N665 1.328 . S
C666 C667 1.457 1_655 S
C666 H671 0.929 . S
C667 C666 1.457 1_455 S
C667 C668 1.291 . S
C667 H680 0.931 . S
C668 C667 1.291 . S
C668 C669 1.373 . S
C668 H681 0.929 . S
C669 C668 1.373 . S
C669 C670 1.396 . S
C669 C676 1.403 . S
C670 C660 1.476 . S
C670 N665 1.318 1_455 S
C670 C669 1.396 . S
H671 C666 0.929 . S
O672 Mn648 2.385 . S
O672 C650 1.234 . S
O673 Mn648 2.209 . S
O673 Mn649 2.215 . S
O673 C650 1.283 . S
O674 Mn648 2.094 . S
O674 C652 1.240 . S
O675 Mn649 2.117 . S
O675 C652 1.264 . S
C676 C669 1.403 . S
C676 C677 1.399 . S
C676 H682 0.929 . S
C677 C657 1.449 . S
C677 C676 1.399 . S
C677 H683 0.930 . S
H678 C658 0.931 . S
H679 C659 0.930 . S
H680 C667 0.931 . S
H681 C668 0.929 . S
H682 C676 0.929 . S
H683 C677 0.930 . S
Mn684 O689 2.095 . S
Mn684 O699 2.162 . S
Mn684 O700 2.297 . S
Mn684 O708 2.385 . S
Mn684 O709 2.209 . S
Mn684 O710 2.094 . S
Mn685 O690 2.121 . S
Mn685 N692 2.257 . S
Mn685 N701 2.282 . S
Mn685 O709 2.215 . S
Mn685 O711 2.117 . S
C686 O708 1.234 . S
C686 O709 1.283 . S
C687 O699 1.281 . S
C687 O700 1.236 . S
C688 O710 1.240 . S
C688 O711 1.264 . S
O689 Mn684 2.095 . S
O689 C698 1.250 . S
O690 Mn685 2.121 . S
O690 C698 1.258 . S
C691 N692 1.326 . S
C691 C695 1.460 . S
C691 H697 0.929 . S
N692 Mn685 2.257 . S
N692 C691 1.326 . S
N692 C696 1.362 . S
C693 C694 1.258 . S
C693 C696 1.431 . S
C693 C713 1.449 . S
C694 C693 1.258 . S
C694 C695 1.477 . S
C694 H714 0.931 . S
C695 C691 1.460 . S
C695 C694 1.477 . S
C695 H715 0.930 . S
C696 N692 1.362 . S
C696 C693 1.431 . S
C696 C706 1.476 . S
H697 C691 0.929 . S
C698 O689 1.250 . S
C698 O690 1.258 . S
O699 Mn684 2.162 . S
O699 C687 1.281 . S
O700 Mn684 2.297 . S
O700 C687 1.236 . S
N701 Mn685 2.282 . S
N701 C702 1.328 . S
N701 C706 1.318 . S
C702 N701 1.328 . S
C702 C703 1.457 . S
C702 H707 0.929 . S
C703 C702 1.457 . S
C703 C704 1.291 . S
C703 H716 0.931 . S
C704 C703 1.291 . S
C704 C705 1.373 . S
C704 H717 0.929 . S
C705 C704 1.373 . S
C705 C706 1.396 . S
C705 C712 1.403 . S
C706 C696 1.476 . S
C706 N701 1.318 . S
C706 C705 1.396 . S
H707 C702 0.929 . S
O708 Mn684 2.385 . S
O708 C686 1.234 . S
O709 Mn684 2.209 . S
O709 Mn685 2.215 . S
O709 C686 1.283 . S
O710 Mn684 2.094 . S
O710 C688 1.240 . S
O711 Mn685 2.117 . S
O711 C688 1.264 . S
C712 C705 1.403 . S
C712 C713 1.399 . S
C712 H718 0.929 . S
C713 C693 1.449 . S
C713 C712 1.399 . S
C713 H719 0.930 . S
H714 C694 0.931 . S
H715 C695 0.930 . S
H716 C703 0.931 . S
H717 C704 0.929 . S
H718 C712 0.929 . S
H719 C713 0.930 . S
Mn720 O725 2.095 . S
Mn720 O735 2.162 . S
Mn720 O736 2.297 . S
Mn720 O744 2.385 . S
Mn720 O745 2.209 . S
Mn720 O746 2.094 . S
Mn721 O726 2.121 . S
Mn721 N728 2.257 . S
Mn721 N737 2.282 . S
Mn721 O745 2.215 . S
Mn721 O747 2.117 . S
C722 O744 1.234 . S
C722 O745 1.283 . S
C723 O735 1.281 . S
C723 O736 1.236 . S
C724 O746 1.240 . S
C724 O747 1.264 . S
O725 Mn720 2.095 . S
O725 C734 1.250 . S
O726 Mn721 2.121 . S
O726 C734 1.258 . S
C727 N728 1.326 . S
C727 C731 1.460 . S
C727 H733 0.929 . S
N728 Mn721 2.257 . S
N728 C727 1.326 . S
N728 C732 1.362 . S
C729 C730 1.258 . S
C729 C732 1.431 . S
C729 C749 1.449 . S
C730 C729 1.258 . S
C730 C731 1.477 . S
C730 H750 0.931 . S
C731 C727 1.460 . S
C731 C730 1.477 . S
C731 H751 0.930 . S
C732 N728 1.362 . S
C732 C729 1.431 . S
C732 C742 1.476 . S
H733 C727 0.929 . S
C734 O725 1.250 . S
C734 O726 1.258 . S
O735 Mn720 2.162 . S
O735 C723 1.281 . S
O736 Mn720 2.297 . S
O736 C723 1.236 . S
N737 Mn721 2.282 . S
N737 C738 1.328 . S
N737 C742 1.318 . S
C738 N737 1.328 . S
C738 C739 1.457 . S
C738 H743 0.929 . S
C739 C738 1.457 . S
C739 C740 1.291 . S
C739 H752 0.931 . S
C740 C739 1.291 . S
C740 C741 1.373 . S
C740 H753 0.929 . S
C741 C740 1.373 . S
C741 C742 1.396 . S
C741 C748 1.403 . S
C742 C732 1.476 . S
C742 N737 1.318 . S
C742 C741 1.396 . S
H743 C738 0.929 . S
O744 Mn720 2.385 . S
O744 C722 1.234 . S
O745 Mn720 2.209 . S
O745 Mn721 2.215 . S
O745 C722 1.283 . S
O746 Mn720 2.094 . S
O746 C724 1.240 . S
O747 Mn721 2.117 . S
O747 C724 1.264 . S
C748 C741 1.403 . S
C748 C749 1.399 . S
C748 H754 0.929 . S
C749 C729 1.449 . S
C749 C748 1.399 . S
C749 H755 0.930 . S
H750 C730 0.931 . S
H751 C731 0.930 . S
H752 C739 0.931 . S
H753 C740 0.929 . S
H754 C748 0.929 . S
H755 C749 0.930 . S
Mn756 O761 2.095 . S
Mn756 O771 2.162 . S
Mn756 O772 2.297 . S
Mn756 O780 2.385 . S
Mn756 O781 2.209 . S
Mn756 O782 2.094 1_556 S
Mn757 O762 2.121 . S
Mn757 N764 2.257 . S
Mn757 N773 2.282 . S
Mn757 O781 2.215 . S
Mn757 O783 2.117 1_556 S
C758 O780 1.234 . S
C758 O781 1.283 . S
C759 O771 1.281 . S
C759 O772 1.236 . S
C760 O782 1.240 . S
C760 O783 1.264 . S
O761 Mn756 2.095 . S
O761 C770 1.250 . S
O762 Mn757 2.121 . S
O762 C770 1.258 . S
C763 N764 1.326 . S
C763 C767 1.460 . S
C763 H769 0.929 . S
N764 Mn757 2.257 . S
N764 C763 1.326 . S
N764 C768 1.362 . S
C765 C766 1.258 . S
C765 C768 1.431 . S
C765 C785 1.449 . S
C766 C765 1.258 . S
C766 C767 1.477 . S
C766 H786 0.931 . S
C767 C763 1.460 . S
C767 C766 1.477 . S
C767 H787 0.930 . S
C768 N764 1.362 . S
C768 C765 1.431 . S
C768 C778 1.476 . S
H769 C763 0.929 . S
C770 O761 1.250 . S
C770 O762 1.258 . S
O771 Mn756 2.162 . S
O771 C759 1.281 . S
O772 Mn756 2.297 . S
O772 C759 1.236 . S
N773 Mn757 2.282 . S
N773 C774 1.328 . S
N773 C778 1.318 . S
C774 N773 1.328 . S
C774 C775 1.457 . S
C774 H779 0.929 . S
C775 C774 1.457 . S
C775 C776 1.291 . S
C775 H788 0.931 . S
C776 C775 1.291 . S
C776 C777 1.373 . S
C776 H789 0.929 . S
C777 C776 1.373 . S
C777 C778 1.396 . S
C777 C784 1.403 . S
C778 C768 1.476 . S
C778 N773 1.318 . S
C778 C777 1.396 . S
H779 C774 0.929 . S
O780 Mn756 2.385 . S
O780 C758 1.234 . S
O781 Mn756 2.209 . S
O781 Mn757 2.215 . S
O781 C758 1.283 . S
O782 Mn756 2.094 1_554 S
O782 C760 1.240 . S
O783 Mn757 2.117 1_554 S
O783 C760 1.264 . S
C784 C777 1.403 . S
C784 C785 1.399 . S
C784 H790 0.929 . S
C785 C765 1.449 . S
C785 C784 1.399 . S
C785 H791 0.930 . S
H786 C766 0.931 . S
H787 C767 0.930 . S
H788 C775 0.931 . S
H789 C776 0.929 . S
H790 C784 0.929 . S
H791 C785 0.930 . S
Mn792 O797 2.095 . S
Mn792 O807 2.162 . S
Mn792 O808 2.297 . S
Mn792 O816 2.385 . S
Mn792 O817 2.209 . S
Mn792 O818 2.094 . S
Mn793 O798 2.121 . S
Mn793 N800 2.257 . S
Mn793 N809 2.282 . S
Mn793 O817 2.215 . S
Mn793 O819 2.117 . S
C794 O816 1.234 . S
C794 O817 1.283 . S
C795 O807 1.281 . S
C795 O808 1.236 . S
C796 O818 1.240 . S
C796 O819 1.264 . S
O797 Mn792 2.095 . S
O797 C806 1.250 . S
O798 Mn793 2.121 . S
O798 C806 1.258 . S
C799 N800 1.326 . S
C799 C803 1.460 1_655 S
C799 H805 0.929 . S
N800 Mn793 2.257 . S
N800 C799 1.326 . S
N800 C804 1.362 1_655 S
C801 C802 1.258 . S
C801 C804 1.431 . S
C801 C821 1.449 . S
C802 C801 1.258 . S
C802 C803 1.477 . S
C802 H822 0.931 . S
C803 C799 1.460 1_455 S
C803 C802 1.477 . S
C803 H823 0.930 . S
C804 N800 1.362 1_455 S
C804 C801 1.431 . S
C804 C814 1.476 . S
H805 C799 0.929 . S
C806 O797 1.250 . S
C806 O798 1.258 . S
O807 Mn792 2.162 . S
O807 C795 1.281 . S
O808 Mn792 2.297 . S
O808 C795 1.236 . S
N809 Mn793 2.282 . S
N809 C810 1.328 . S
N809 C814 1.318 1_655 S
C810 N809 1.328 . S
C810 C811 1.457 1_655 S
C810 H815 0.929 . S
C811 C810 1.457 1_455 S
C811 C812 1.291 . S
C811 H824 0.931 . S
C812 C811 1.291 . S
C812 C813 1.373 . S
C812 H825 0.929 . S
C813 C812 1.373 . S
C813 C814 1.396 . S
C813 C820 1.403 . S
C814 C804 1.476 . S
C814 N809 1.318 1_455 S
C814 C813 1.396 . S
H815 C810 0.929 . S
O816 Mn792 2.385 . S
O816 C794 1.234 . S
O817 Mn792 2.209 . S
O817 Mn793 2.215 . S
O817 C794 1.283 . S
O818 Mn792 2.094 . S
O818 C796 1.240 . S
O819 Mn793 2.117 . S
O819 C796 1.264 . S
C820 C813 1.403 . S
C820 C821 1.399 . S
C820 H826 0.929 . S
C821 C801 1.449 . S
C821 C820 1.399 . S
C821 H827 0.930 . S
H822 C802 0.931 . S
H823 C803 0.930 . S
H824 C811 0.931 . S
H825 C812 0.929 . S
H826 C820 0.929 . S
H827 C821 0.930 . S
Mn828 O833 2.095 . S
Mn828 O843 2.162 . S
Mn828 O844 2.297 . S
Mn828 O852 2.385 . S
Mn828 O853 2.209 . S
Mn828 O854 2.094 . S
Mn829 O834 2.121 . S
Mn829 N836 2.257 . S
Mn829 N845 2.282 . S
Mn829 O853 2.215 . S
Mn829 O855 2.117 . S
C830 O852 1.234 . S
C830 O853 1.283 . S
C831 O843 1.281 . S
C831 O844 1.236 . S
C832 O854 1.240 . S
C832 O855 1.264 . S
O833 Mn828 2.095 . S
O833 C842 1.250 . S
O834 Mn829 2.121 . S
O834 C842 1.258 . S
C835 N836 1.326 . S
C835 C839 1.460 . S
C835 H841 0.929 . S
N836 Mn829 2.257 . S
N836 C835 1.326 . S
N836 C840 1.362 . S
C837 C838 1.258 . S
C837 C840 1.431 . S
C837 C857 1.449 . S
C838 C837 1.258 . S
C838 C839 1.477 . S
C838 H858 0.931 . S
C839 C835 1.460 . S
C839 C838 1.477 . S
C839 H859 0.930 . S
C840 N836 1.362 . S
C840 C837 1.431 . S
C840 C850 1.476 . S
H841 C835 0.929 . S
C842 O833 1.250 . S
C842 O834 1.258 . S
O843 Mn828 2.162 . S
O843 C831 1.281 . S
O844 Mn828 2.297 . S
O844 C831 1.236 . S
N845 Mn829 2.282 . S
N845 C846 1.328 . S
N845 C850 1.318 . S
C846 N845 1.328 . S
C846 C847 1.457 . S
C846 H851 0.929 . S
C847 C846 1.457 . S
C847 C848 1.291 . S
C847 H860 0.931 . S
C848 C847 1.291 . S
C848 C849 1.373 . S
C848 H861 0.929 . S
C849 C848 1.373 . S
C849 C850 1.396 . S
C849 C856 1.403 . S
C850 C840 1.476 . S
C850 N845 1.318 . S
C850 C849 1.396 . S
H851 C846 0.929 . S
O852 Mn828 2.385 . S
O852 C830 1.234 . S
O853 Mn828 2.209 . S
O853 Mn829 2.215 . S
O853 C830 1.283 . S
O854 Mn828 2.094 . S
O854 C832 1.240 . S
O855 Mn829 2.117 . S
O855 C832 1.264 . S
C856 C849 1.403 . S
C856 C857 1.399 . S
C856 H862 0.929 . S
C857 C837 1.449 . S
C857 C856 1.399 . S
C857 H863 0.930 . S
H858 C838 0.931 . S
H859 C839 0.930 . S
H860 C847 0.931 . S
H861 C848 0.929 . S
H862 C856 0.929 . S
H863 C857 0.930 . S
Mn864 O869 2.095 . S
Mn864 O879 2.162 . S
Mn864 O880 2.297 . S
Mn864 O888 2.385 . S
Mn864 O889 2.209 . S
Mn864 O890 2.094 . S
Mn865 O870 2.121 . S
Mn865 N872 2.257 . S
Mn865 N881 2.282 . S
Mn865 O889 2.215 . S
Mn865 O891 2.117 . S
C866 O888 1.234 . S
C866 O889 1.283 . S
C867 O879 1.281 . S
C867 O880 1.236 . S
C868 O890 1.240 . S
C868 O891 1.264 . S
O869 Mn864 2.095 . S
O869 C878 1.250 . S
O870 Mn865 2.121 . S
O870 C878 1.258 . S
C871 N872 1.326 . S
C871 C875 1.460 . S
C871 H877 0.929 . S
N872 Mn865 2.257 . S
N872 C871 1.326 . S
N872 C876 1.362 . S
C873 C874 1.258 . S
C873 C876 1.431 . S
C873 C893 1.449 . S
C874 C873 1.258 . S
C874 C875 1.477 . S
C874 H894 0.931 . S
C875 C871 1.460 . S
C875 C874 1.477 . S
C875 H895 0.930 . S
C876 N872 1.362 . S
C876 C873 1.431 . S
C876 C886 1.476 . S
H877 C871 0.929 . S
C878 O869 1.250 . S
C878 O870 1.258 . S
O879 Mn864 2.162 . S
O879 C867 1.281 . S
O880 Mn864 2.297 . S
O880 C867 1.236 . S
N881 Mn865 2.282 . S
N881 C882 1.328 . S
N881 C886 1.318 . S
C882 N881 1.328 . S
C882 C883 1.457 . S
C882 H887 0.929 . S
C883 C882 1.457 . S
C883 C884 1.291 . S
C883 H896 0.931 . S
C884 C883 1.291 . S
C884 C885 1.373 . S
C884 H897 0.929 . S
C885 C884 1.373 . S
C885 C886 1.396 . S
C885 C892 1.403 . S
C886 C876 1.476 . S
C886 N881 1.318 . S
C886 C885 1.396 . S
H887 C882 0.929 . S
O888 Mn864 2.385 . S
O888 C866 1.234 . S
O889 Mn864 2.209 . S
O889 Mn865 2.215 . S
O889 C866 1.283 . S
O890 Mn864 2.094 . S
O890 C868 1.240 . S
O891 Mn865 2.117 . S
O891 C868 1.264 . S
C892 C885 1.403 . S
C892 C893 1.399 . S
C892 H898 0.929 . S
C893 C873 1.449 . S
C893 C892 1.399 . S
C893 H899 0.930 . S
H894 C874 0.931 . S
H895 C875 0.930 . S
H896 C883 0.931 . S
H897 C884 0.929 . S
H898 C892 0.929 . S
H899 C893 0.930 . S
Mn900 O905 2.095 . S
Mn900 O915 2.162 . S
Mn900 O916 2.297 . S
Mn900 O924 2.385 . S
Mn900 O925 2.209 . S
Mn900 O926 2.094 . S
Mn901 O906 2.141 . S
Mn901 N908 2.270 . S
Mn901 N917 2.265 1_554 S
Mn901 O925 2.187 1_554 S
Mn901 O927 2.102 1_554 S
C902 O924 1.234 . S
C902 O925 1.283 . S
C903 O915 1.281 . S
C903 O916 1.236 . S
C904 O926 1.240 . S
C904 O927 1.264 . S
O905 Mn900 2.095 . S
O905 C914 1.250 1_556 S
O906 Mn901 2.141 . S
O906 C914 1.258 . S
C907 N908 1.326 . S
C907 C911 1.460 . S
C907 H913 0.929 . S
N908 Mn901 2.270 . S
N908 C907 1.326 . S
N908 C912 1.362 . S
C909 C910 1.258 . S
C909 C912 1.431 . S
C909 C929 1.449 . S
C910 C909 1.258 . S
C910 C911 1.477 . S
C910 H930 0.931 . S
C911 C907 1.460 . S
C911 C910 1.477 . S
C911 H931 0.930 . S
C912 N908 1.362 . S
C912 C909 1.431 . S
C912 C922 1.476 1_554 S
H913 C907 0.929 . S
C914 O905 1.250 1_554 S
C914 O906 1.258 . S
O915 Mn900 2.162 . S
O915 C903 1.281 . S
O916 Mn900 2.297 . S
O916 C903 1.236 . S
N917 Mn901 2.265 1_556 S
N917 C918 1.328 . S
N917 C922 1.318 . S
C918 N917 1.328 . S
C918 C919 1.457 . S
C918 H923 0.929 . S
C919 C918 1.457 . S
C919 C920 1.291 . S
C919 H932 0.931 . S
C920 C919 1.291 . S
C920 C921 1.373 . S
C920 H933 0.929 . S
C921 C920 1.373 . S
C921 C922 1.396 . S
C921 C928 1.403 . S
C922 C912 1.476 1_556 S
C922 N917 1.318 . S
C922 C921 1.396 . S
H923 C918 0.929 . S
O924 Mn900 2.385 . S
O924 C902 1.234 . S
O925 Mn900 2.209 . S
O925 Mn901 2.187 1_556 S
O925 C902 1.283 . S
O926 Mn900 2.094 . S
O926 C904 1.240 . S
O927 Mn901 2.102 1_556 S
O927 C904 1.264 . S
C928 C921 1.403 . S
C928 C929 1.399 1_556 S
C928 H934 0.929 . S
C929 C909 1.449 . S
C929 C928 1.399 1_554 S
C929 H935 0.930 . S
H930 C910 0.931 . S
H931 C911 0.930 . S
H932 C919 0.931 . S
H933 C920 0.929 . S
H934 C928 0.929 . S
H935 C929 0.930 . S
Mn936 O941 2.095 . S
Mn936 O951 2.162 . S
Mn936 O952 2.297 . S
Mn936 O960 2.385 . S
Mn936 O961 2.209 . S
Mn936 O962 2.094 . S
Mn937 O942 2.121 . S
Mn937 N944 2.257 1_455 S
Mn937 N953 2.282 1_455 S
Mn937 O961 2.215 . S
Mn937 O963 2.117 . S
C938 O960 1.234 . S
C938 O961 1.283 . S
C939 O951 1.281 . S
C939 O952 1.236 . S
C940 O962 1.240 . S
C940 O963 1.264 . S
O941 Mn936 2.095 . S
O941 C950 1.250 . S
O942 Mn937 2.121 . S
O942 C950 1.258 . S
C943 N944 1.326 . S
C943 C947 1.460 . S
C943 H949 0.929 1_655 S
N944 Mn937 2.257 1_655 S
N944 C943 1.326 . S
N944 C948 1.362 . S
C945 C946 1.258 . S
C945 C948 1.431 . S
C945 C965 1.449 . S
C946 C945 1.258 . S
C946 C947 1.477 . S
C946 H966 0.931 . S
C947 C943 1.460 . S
C947 C946 1.477 . S
C947 H967 0.930 . S
C948 N944 1.362 . S
C948 C945 1.431 . S
C948 C958 1.476 . S
H949 C943 0.929 1_455 S
C950 O941 1.250 . S
C950 O942 1.258 . S
O951 Mn936 2.162 . S
O951 C939 1.281 . S
O952 Mn936 2.297 . S
O952 C939 1.236 . S
N953 Mn937 2.282 1_655 S
N953 C954 1.328 . S
N953 C958 1.318 . S
C954 N953 1.328 . S
C954 C955 1.457 . S
C954 H959 0.929 1_655 S
C955 C954 1.457 . S
C955 C956 1.291 . S
C955 H968 0.931 . S
C956 C955 1.291 . S
C956 C957 1.373 . S
C956 H969 0.929 . S
C957 C956 1.373 . S
C957 C958 1.396 . S
C957 C964 1.403 . S
C958 C948 1.476 . S
C958 N953 1.318 . S
C958 C957 1.396 . S
H959 C954 0.929 1_455 S
O960 Mn936 2.385 . S
O960 C938 1.234 . S
O961 Mn936 2.209 . S
O961 Mn937 2.215 . S
O961 C938 1.283 . S
O962 Mn936 2.094 . S
O962 C940 1.240 . S
O963 Mn937 2.117 . S
O963 C940 1.264 . S
C964 C957 1.403 . S
C964 C965 1.399 . S
C964 H970 0.929 . S
C965 C945 1.449 . S
C965 C964 1.399 . S
C965 H971 0.930 . S
H966 C946 0.931 . S
H967 C947 0.930 . S
H968 C955 0.931 . S
H969 C956 0.929 . S
H970 C964 0.929 . S
H971 C965 0.930 . S
Mn972 O977 2.095 . S
Mn972 O987 2.162 . S
Mn972 O988 2.297 . S
Mn972 O996 2.385 . S
Mn972 O997 2.209 . S
Mn972 O998 2.094 . S
Mn973 O978 2.121 . S
Mn973 N980 2.257 . S
Mn973 N989 2.282 . S
Mn973 O997 2.215 . S
Mn973 O999 2.117 . S
C974 O996 1.234 . S
C974 O997 1.283 . S
C975 O987 1.281 . S
C975 O988 1.236 . S
C976 O998 1.240 . S
C976 O999 1.264 . S
O977 Mn972 2.095 . S
O977 C986 1.250 . S
O978 Mn973 2.121 . S
O978 C986 1.258 . S
C979 N980 1.326 . S
C979 C983 1.460 . S
C979 H985 0.929 . S
N980 Mn973 2.257 . S
N980 C979 1.326 . S
N980 C984 1.362 . S
C981 C982 1.258 . S
C981 C984 1.431 . S
C981 C1001 1.449 . S
C982 C981 1.258 . S
C982 C983 1.477 . S
C982 H1002 0.931 . S
C983 C979 1.460 . S
C983 C982 1.477 . S
C983 H1003 0.930 . S
C984 N980 1.362 . S
C984 C981 1.431 . S
C984 C994 1.476 . S
H985 C979 0.929 . S
C986 O977 1.250 . S
C986 O978 1.258 . S
O987 Mn972 2.162 . S
O987 C975 1.281 . S
O988 Mn972 2.297 . S
O988 C975 1.236 . S
N989 Mn973 2.282 . S
N989 C990 1.328 . S
N989 C994 1.318 . S
C990 N989 1.328 . S
C990 C991 1.457 . S
C990 H995 0.929 . S
C991 C990 1.457 . S
C991 C992 1.291 . S
C991 H1004 0.931 . S
C992 C991 1.291 . S
C992 C993 1.373 . S
C992 H1005 0.929 . S
C993 C992 1.373 . S
C993 C994 1.396 . S
C993 C1000 1.403 . S
C994 C984 1.476 . S
C994 N989 1.318 . S
C994 C993 1.396 . S
H995 C990 0.929 . S
O996 Mn972 2.385 . S
O996 C974 1.234 . S
O997 Mn972 2.209 . S
O997 Mn973 2.215 . S
O997 C974 1.283 . S
O998 Mn972 2.094 . S
O998 C976 1.240 . S
O999 Mn973 2.117 . S
O999 C976 1.264 . S
C1000 C993 1.403 . S
C1000 C1001 1.399 . S
C1000 H1006 0.929 . S
C1001 C981 1.449 . S
C1001 C1000 1.399 . S
C1001 H1007 0.930 . S
H1002 C982 0.931 . S
H1003 C983 0.930 . S
H1004 C991 0.931 . S
H1005 C992 0.929 . S
H1006 C1000 0.929 . S
H1007 C1001 0.930 . S
Mn1008 O1013 2.095 . S
Mn1008 O1023 2.162 . S
Mn1008 O1024 2.297 . S
Mn1008 O1032 2.385 . S
Mn1008 O1033 2.209 . S
Mn1008 O1034 2.094 . S
Mn1009 O1014 2.121 . S
Mn1009 N1016 2.257 . S
Mn1009 N1025 2.282 . S
Mn1009 O1033 2.215 . S
Mn1009 O1035 2.117 . S
C1010 O1032 1.234 . S
C1010 O1033 1.283 . S
C1011 O1023 1.281 . S
C1011 O1024 1.236 . S
C1012 O1034 1.240 . S
C1012 O1035 1.264 . S
O1013 Mn1008 2.095 . S
O1013 C1022 1.250 . S
O1014 Mn1009 2.121 . S
O1014 C1022 1.258 . S
C1015 N1016 1.326 . S
C1015 C1019 1.460 . S
C1015 H1021 0.929 . S
N1016 Mn1009 2.257 . S
N1016 C1015 1.326 . S
N1016 C1020 1.362 . S
C1017 C1018 1.258 . S
C1017 C1020 1.431 . S
C1017 C1037 1.449 . S
C1018 C1017 1.258 . S
C1018 C1019 1.477 . S
C1018 H1038 0.931 . S
C1019 C1015 1.460 . S
C1019 C1018 1.477 . S
C1019 H1039 0.930 . S
C1020 N1016 1.362 . S
C1020 C1017 1.431 . S
C1020 C1030 1.476 . S
H1021 C1015 0.929 . S
C1022 O1013 1.250 . S
C1022 O1014 1.258 . S
O1023 Mn1008 2.162 . S
O1023 C1011 1.281 . S
O1024 Mn1008 2.297 . S
O1024 C1011 1.236 . S
N1025 Mn1009 2.282 . S
N1025 C1026 1.328 . S
N1025 C1030 1.318 . S
C1026 N1025 1.328 . S
C1026 C1027 1.457 . S
C1026 H1031 0.929 . S
C1027 C1026 1.457 . S
C1027 C1028 1.291 . S
C1027 H1040 0.931 . S
C1028 C1027 1.291 . S
C1028 C1029 1.373 . S
C1028 H1041 0.929 . S
C1029 C1028 1.373 . S
C1029 C1030 1.396 . S
C1029 C1036 1.403 . S
C1030 C1020 1.476 . S
C1030 N1025 1.318 . S
C1030 C1029 1.396 . S
H1031 C1026 0.929 . S
O1032 Mn1008 2.385 . S
O1032 C1010 1.234 . S
O1033 Mn1008 2.209 . S
O1033 Mn1009 2.215 . S
O1033 C1010 1.283 . S
O1034 Mn1008 2.094 . S
O1034 C1012 1.240 . S
O1035 Mn1009 2.117 . S
O1035 C1012 1.264 . S
C1036 C1029 1.403 . S
C1036 C1037 1.399 . S
C1036 H1042 0.929 . S
C1037 C1017 1.449 . S
C1037 C1036 1.399 . S
C1037 H1043 0.930 . S
H1038 C1018 0.931 . S
H1039 C1019 0.930 . S
H1040 C1027 0.931 . S
H1041 C1028 0.929 . S
H1042 C1036 0.929 . S
H1043 C1037 0.930 . S
Mn1044 O1049 2.095 . S
Mn1044 O1059 2.162 . S
Mn1044 O1060 2.297 . S
Mn1044 O1068 2.385 . S
Mn1044 O1069 2.209 . S
Mn1044 O1070 2.094 . S
Mn1045 O1050 2.141 . S
Mn1045 N1052 2.270 . S
Mn1045 N1061 2.265 1_556 S
Mn1045 O1069 2.187 1_556 S
Mn1045 O1071 2.102 1_556 S
C1046 O1068 1.234 . S
C1046 O1069 1.283 . S
C1047 O1059 1.281 . S
C1047 O1060 1.236 . S
C1048 O1070 1.240 . S
C1048 O1071 1.264 . S
O1049 Mn1044 2.095 . S
O1049 C1058 1.250 1_554 S
O1050 Mn1045 2.141 . S
O1050 C1058 1.258 . S
C1051 N1052 1.326 . S
C1051 C1055 1.460 . S
C1051 H1057 0.929 . S
N1052 Mn1045 2.270 . S
N1052 C1051 1.326 . S
N1052 C1056 1.362 . S
C1053 C1054 1.258 . S
C1053 C1056 1.431 . S
C1053 C1073 1.449 . S
C1054 C1053 1.258 . S
C1054 C1055 1.477 . S
C1054 H1074 0.931 . S
C1055 C1051 1.460 . S
C1055 C1054 1.477 . S
C1055 H1075 0.930 . S
C1056 N1052 1.362 . S
C1056 C1053 1.431 . S
C1056 C1066 1.476 1_556 S
H1057 C1051 0.929 . S
C1058 O1049 1.250 1_556 S
C1058 O1050 1.258 . S
O1059 Mn1044 2.162 . S
O1059 C1047 1.281 . S
O1060 Mn1044 2.297 . S
O1060 C1047 1.236 . S
N1061 Mn1045 2.265 1_554 S
N1061 C1062 1.328 . S
N1061 C1066 1.318 . S
C1062 N1061 1.328 . S
C1062 C1063 1.457 . S
C1062 H1067 0.929 . S
C1063 C1062 1.457 . S
C1063 C1064 1.291 . S
C1063 H1076 0.931 . S
C1064 C1063 1.291 . S
C1064 C1065 1.373 . S
C1064 H1077 0.929 . S
C1065 C1064 1.373 . S
C1065 C1066 1.396 . S
C1065 C1072 1.403 . S
C1066 C1056 1.476 1_554 S
C1066 N1061 1.318 . S
C1066 C1065 1.396 . S
H1067 C1062 0.929 . S
O1068 Mn1044 2.385 . S
O1068 C1046 1.234 . S
O1069 Mn1044 2.209 . S
O1069 Mn1045 2.187 1_554 S
O1069 C1046 1.283 . S
O1070 Mn1044 2.094 . S
O1070 C1048 1.240 . S
O1071 Mn1045 2.102 1_554 S
O1071 C1048 1.264 . S
C1072 C1065 1.403 . S
C1072 C1073 1.399 1_554 S
C1072 H1078 0.929 . S
C1073 C1053 1.449 . S
C1073 C1072 1.399 1_556 S
C1073 H1079 0.930 . S
H1074 C1054 0.931 . S
H1075 C1055 0.930 . S
H1076 C1063 0.931 . S
H1077 C1064 0.929 . S
H1078 C1072 0.929 . S
H1079 C1073 0.930 . S
Mn1080 O1085 2.095 . S
Mn1080 O1095 2.162 . S
Mn1080 O1096 2.297 . S
Mn1080 O1104 2.385 . S
Mn1080 O1105 2.209 . S
Mn1080 O1106 2.094 . S
Mn1081 O1086 2.121 . S
Mn1081 N1088 2.257 1_455 S
Mn1081 N1097 2.282 1_455 S
Mn1081 O1105 2.215 . S
Mn1081 O1107 2.117 . S
C1082 O1104 1.234 . S
C1082 O1105 1.283 . S
C1083 O1095 1.281 . S
C1083 O1096 1.236 . S
C1084 O1106 1.240 . S
C1084 O1107 1.264 . S
O1085 Mn1080 2.095 . S
O1085 C1094 1.250 . S
O1086 Mn1081 2.121 . S
O1086 C1094 1.258 . S
C1087 N1088 1.326 . S
C1087 C1091 1.460 . S
C1087 H1093 0.929 1_655 S
N1088 Mn1081 2.257 1_655 S
N1088 C1087 1.326 . S
N1088 C1092 1.362 . S
C1089 C1090 1.258 . S
C1089 C1092 1.431 . S
C1089 C1109 1.449 . S
C1090 C1089 1.258 . S
C1090 C1091 1.477 . S
C1090 H1110 0.931 . S
C1091 C1087 1.460 . S
C1091 C1090 1.477 . S
C1091 H1111 0.930 . S
C1092 N1088 1.362 . S
C1092 C1089 1.431 . S
C1092 C1102 1.476 . S
H1093 C1087 0.929 1_455 S
C1094 O1085 1.250 . S
C1094 O1086 1.258 . S
O1095 Mn1080 2.162 . S
O1095 C1083 1.281 . S
O1096 Mn1080 2.297 . S
O1096 C1083 1.236 . S
N1097 Mn1081 2.282 1_655 S
N1097 C1098 1.328 . S
N1097 C1102 1.318 . S
C1098 N1097 1.328 . S
C1098 C1099 1.457 . S
C1098 H1103 0.929 1_655 S
C1099 C1098 1.457 . S
C1099 C1100 1.291 . S
C1099 H1112 0.931 . S
C1100 C1099 1.291 . S
C1100 C1101 1.373 . S
C1100 H1113 0.929 . S
C1101 C1100 1.373 . S
C1101 C1102 1.396 . S
C1101 C1108 1.403 . S
C1102 C1092 1.476 . S
C1102 N1097 1.318 . S
C1102 C1101 1.396 . S
H1103 C1098 0.929 1_455 S
O1104 Mn1080 2.385 . S
O1104 C1082 1.234 . S
O1105 Mn1080 2.209 . S
O1105 Mn1081 2.215 . S
O1105 C1082 1.283 . S
O1106 Mn1080 2.094 . S
O1106 C1084 1.240 . S
O1107 Mn1081 2.117 . S
O1107 C1084 1.264 . S
C1108 C1101 1.403 . S
C1108 C1109 1.399 . S
C1108 H1114 0.929 . S
C1109 C1089 1.449 . S
C1109 C1108 1.399 . S
C1109 H1115 0.930 . S
H1110 C1090 0.931 . S
H1111 C1091 0.930 . S
H1112 C1099 0.931 . S
H1113 C1100 0.929 . S
H1114 C1108 0.929 . S
H1115 C1109 0.930 . S
Mn1116 O1121 2.095 . S
Mn1116 O1131 2.162 . S
Mn1116 O1132 2.297 . S
Mn1116 O1140 2.385 . S
Mn1116 O1141 2.209 . S
Mn1116 O1142 2.094 . S
Mn1117 O1122 2.121 . S
Mn1117 N1124 2.257 . S
Mn1117 N1133 2.282 . S
Mn1117 O1141 2.215 . S
Mn1117 O1143 2.117 . S
C1118 O1140 1.234 . S
C1118 O1141 1.283 . S
C1119 O1131 1.281 . S
C1119 O1132 1.236 . S
C1120 O1142 1.240 . S
C1120 O1143 1.264 . S
O1121 Mn1116 2.095 . S
O1121 C1130 1.250 . S
O1122 Mn1117 2.121 . S
O1122 C1130 1.258 . S
C1123 N1124 1.326 . S
C1123 C1127 1.460 . S
C1123 H1129 0.929 . S
N1124 Mn1117 2.257 . S
N1124 C1123 1.326 . S
N1124 C1128 1.362 . S
C1125 C1126 1.258 . S
C1125 C1128 1.431 . S
C1125 C1145 1.449 . S
C1126 C1125 1.258 . S
C1126 C1127 1.477 . S
C1126 H1146 0.931 . S
C1127 C1123 1.460 . S
C1127 C1126 1.477 . S
C1127 H1147 0.930 . S
C1128 N1124 1.362 . S
C1128 C1125 1.431 . S
C1128 C1138 1.476 . S
H1129 C1123 0.929 . S
C1130 O1121 1.250 . S
C1130 O1122 1.258 . S
O1131 Mn1116 2.162 . S
O1131 C1119 1.281 . S
O1132 Mn1116 2.297 . S
O1132 C1119 1.236 . S
N1133 Mn1117 2.282 . S
N1133 C1134 1.328 . S
N1133 C1138 1.318 . S
C1134 N1133 1.328 . S
C1134 C1135 1.457 . S
C1134 H1139 0.929 . S
C1135 C1134 1.457 . S
C1135 C1136 1.291 . S
C1135 H1148 0.931 . S
C1136 C1135 1.291 . S
C1136 C1137 1.373 . S
C1136 H1149 0.929 . S
C1137 C1136 1.373 . S
C1137 C1138 1.396 . S
C1137 C1144 1.403 . S
C1138 C1128 1.476 . S
C1138 N1133 1.318 . S
C1138 C1137 1.396 . S
H1139 C1134 0.929 . S
O1140 Mn1116 2.385 . S
O1140 C1118 1.234 . S
O1141 Mn1116 2.209 . S
O1141 Mn1117 2.215 . S
O1141 C1118 1.283 . S
O1142 Mn1116 2.094 . S
O1142 C1120 1.240 . S
O1143 Mn1117 2.117 . S
O1143 C1120 1.264 . S
C1144 C1137 1.403 . S
C1144 C1145 1.399 . S
C1144 H1150 0.929 . S
C1145 C1125 1.449 . S
C1145 C1144 1.399 . S
C1145 H1151 0.930 . S
H1146 C1126 0.931 . S
H1147 C1127 0.930 . S
H1148 C1135 0.931 . S
H1149 C1136 0.929 . S
H1150 C1144 0.929 . S
H1151 C1145 0.930 . S
H1152 C1160 0.950 . S
H1153 C1165 0.950 . S
H1154 C1162 0.950 . S
H1155 C1164 0.950 . S
H1156 C1166 0.950 . S
H1157 C1168 0.950 . S
H1158 C1170 0.950 . S
H1159 C1171 0.950 . S
C1160 H1152 0.950 . S
C1160 C1161 1.386 . S
C1160 C1162 1.391 . S
C1161 C1160 1.386 . S
C1161 C1165 1.393 . S
C1162 H1154 0.950 . S
C1162 C1160 1.391 . S
C1162 C1163 1.400 . S
C1163 C1162 1.400 . S
C1163 C1164 1.398 . S
C1163 C1169 1.491 . S
C1164 H1155 0.950 . S
C1164 C1163 1.398 . S
C1164 C1165 1.391 . S
C1165 H1153 0.950 . S
C1165 C1161 1.393 . S
C1165 C1164 1.391 . S
C1166 H1156 0.950 . S
C1166 C1167 1.386 . S
C1166 C1168 1.391 . S
C1167 C1166 1.386 . S
C1167 C1171 1.393 . S
C1168 H1157 0.950 . S
C1168 C1166 1.391 . S
C1168 C1169 1.400 . S
C1169 C1163 1.491 . S
C1169 C1168 1.400 . S
C1169 C1170 1.398 . S
C1170 H1158 0.950 . S
C1170 C1169 1.398 . S
C1170 C1171 1.391 . S
C1171 H1159 0.950 . S
C1171 C1167 1.393 . S
C1171 C1170 1.391 . S
H1172 C1180 0.950 . S
H1173 C1185 0.950 . S
H1174 C1182 0.950 . S
H1175 C1184 0.950 . S
H1176 C1186 0.950 . S
H1177 C1188 0.950 . S
H1178 C1190 0.950 . S
H1179 C1191 0.950 . S
C1180 H1172 0.950 . S
C1180 C1181 1.386 . S
C1180 C1182 1.391 . S
C1181 C1180 1.386 . S
C1181 C1185 1.393 . S
C1182 H1174 0.950 . S
C1182 C1180 1.391 . S
C1182 C1183 1.400 . S
C1183 C1182 1.400 . S
C1183 C1184 1.398 . S
C1183 C1189 1.491 . S
C1184 H1175 0.950 . S
C1184 C1183 1.398 . S
C1184 C1185 1.391 . S
C1185 H1173 0.950 . S
C1185 C1181 1.393 . S
C1185 C1184 1.391 . S
C1186 H1176 0.950 . S
C1186 C1187 1.386 . S
C1186 C1188 1.391 . S
C1187 C1186 1.386 . S
C1187 C1191 1.393 . S
C1188 H1177 0.950 . S
C1188 C1186 1.391 . S
C1188 C1189 1.400 . S
C1189 C1183 1.491 . S
C1189 C1188 1.400 . S
C1189 C1190 1.398 . S
C1190 H1178 0.950 . S
C1190 C1189 1.398 . S
C1190 C1191 1.391 . S
C1191 H1179 0.950 . S
C1191 C1187 1.393 . S
C1191 C1190 1.391 . S
H1192 C1200 0.950 . S
H1193 C1205 0.950 . S
H1194 C1202 0.950 . S
H1195 C1204 0.950 . S
H1196 C1206 0.950 . S
H1197 C1208 0.950 . S
H1198 C1210 0.950 . S
H1199 C1211 0.950 . S
C1200 H1192 0.950 . S
C1200 C1201 1.386 . S
C1200 C1202 1.391 . S
C1201 C1200 1.386 . S
C1201 C1205 1.393 . S
C1202 H1194 0.950 . S
C1202 C1200 1.391 . S
C1202 C1203 1.400 . S
C1203 C1202 1.400 . S
C1203 C1204 1.398 . S
C1203 C1209 1.491 . S
C1204 H1195 0.950 . S
C1204 C1203 1.398 . S
C1204 C1205 1.391 . S
C1205 H1193 0.950 . S
C1205 C1201 1.393 . S
C1205 C1204 1.391 . S
C1206 H1196 0.950 . S
C1206 C1207 1.386 . S
C1206 C1208 1.391 . S
C1207 C1206 1.386 . S
C1207 C1211 1.393 . S
C1208 H1197 0.950 . S
C1208 C1206 1.391 . S
C1208 C1209 1.400 . S
C1209 C1203 1.491 . S
C1209 C1208 1.400 . S
C1209 C1210 1.398 . S
C1210 H1198 0.950 . S
C1210 C1209 1.398 . S
C1210 C1211 1.391 . S
C1211 H1199 0.950 . S
C1211 C1207 1.393 . S
C1211 C1210 1.391 . S
H1212 C1220 0.950 . S
H1213 C1225 0.950 . S
H1214 C1222 0.950 . S
H1215 C1224 0.950 . S
H1216 C1226 0.950 . S
H1217 C1228 0.950 . S
H1218 C1230 0.950 . S
H1219 C1231 0.950 . S
C1220 H1212 0.950 . S
C1220 C1221 1.386 . S
C1220 C1222 1.391 . S
C1221 C1220 1.386 . S
C1221 C1225 1.393 . S
C1222 H1214 0.950 . S
C1222 C1220 1.391 . S
C1222 C1223 1.400 . S
C1223 C1222 1.400 . S
C1223 C1224 1.398 . S
C1223 C1229 1.491 . S
C1224 H1215 0.950 . S
C1224 C1223 1.398 . S
C1224 C1225 1.391 . S
C1225 H1213 0.950 . S
C1225 C1221 1.393 . S
C1225 C1224 1.391 . S
C1226 H1216 0.950 . S
C1226 C1227 1.386 . S
C1226 C1228 1.391 . S
C1227 C1226 1.386 . S
C1227 C1231 1.393 . S
C1228 H1217 0.950 . S
C1228 C1226 1.391 . S
C1228 C1229 1.400 . S
C1229 C1223 1.491 . S
C1229 C1228 1.400 . S
C1229 C1230 1.398 . S
C1230 H1218 0.950 . S
C1230 C1229 1.398 . S
C1230 C1231 1.391 . S
C1231 H1219 0.950 . S
C1231 C1227 1.393 . S
C1231 C1230 1.391 . S
H1232 C1240 0.950 . S
H1233 C1245 0.950 . S
H1234 C1242 0.950 . S
H1235 C1244 0.950 . S
H1236 C1246 0.950 . S
H1237 C1248 0.950 . S
H1238 C1250 0.950 . S
H1239 C1251 0.950 . S
C1240 H1232 0.950 . S
C1240 C1241 1.386 . S
C1240 C1242 1.391 . S
C1241 C1240 1.386 . S
C1241 C1245 1.393 . S
C1242 H1234 0.950 . S
C1242 C1240 1.391 . S
C1242 C1243 1.400 . S
C1243 C1242 1.400 . S
C1243 C1244 1.398 . S
C1243 C1249 1.491 . S
C1244 H1235 0.950 . S
C1244 C1243 1.398 . S
C1244 C1245 1.391 . S
C1245 H1233 0.950 . S
C1245 C1241 1.393 . S
C1245 C1244 1.391 . S
C1246 H1236 0.950 . S
C1246 C1247 1.386 . S
C1246 C1248 1.391 . S
C1247 C1246 1.386 . S
C1247 C1251 1.393 . S
C1248 H1237 0.950 . S
C1248 C1246 1.391 . S
C1248 C1249 1.400 . S
C1249 C1243 1.491 . S
C1249 C1248 1.400 . S
C1249 C1250 1.398 . S
C1250 H1238 0.950 . S
C1250 C1249 1.398 . S
C1250 C1251 1.391 . S
C1251 H1239 0.950 . S
C1251 C1247 1.393 . S
C1251 C1250 1.391 . S
H1252 C1260 0.950 . S
H1253 C1265 0.950 . S
H1254 C1262 0.950 . S
H1255 C1264 0.950 . S
H1256 C1266 0.950 . S
H1257 C1268 0.950 . S
H1258 C1270 0.950 . S
H1259 C1271 0.950 . S
C1260 H1252 0.950 . S
C1260 C1261 1.386 . S
C1260 C1262 1.391 . S
C1261 C1260 1.386 . S
C1261 C1265 1.393 . S
C1262 H1254 0.950 . S
C1262 C1260 1.391 . S
C1262 C1263 1.400 . S
C1263 C1262 1.400 . S
C1263 C1264 1.398 . S
C1263 C1269 1.491 . S
C1264 H1255 0.950 . S
C1264 C1263 1.398 . S
C1264 C1265 1.391 . S
C1265 H1253 0.950 . S
C1265 C1261 1.393 . S
C1265 C1264 1.391 . S
C1266 H1256 0.950 . S
C1266 C1267 1.386 . S
C1266 C1268 1.391 . S
C1267 C1266 1.386 . S
C1267 C1271 1.393 . S
C1268 H1257 0.950 . S
C1268 C1266 1.391 . S
C1268 C1269 1.400 . S
C1269 C1263 1.491 . S
C1269 C1268 1.400 . S
C1269 C1270 1.398 . S
C1270 H1258 0.950 . S
C1270 C1269 1.398 . S
C1270 C1271 1.391 . S
C1271 H1259 0.950 . S
C1271 C1267 1.393 . S
C1271 C1270 1.391 . S
H1272 C1280 0.950 . S
H1273 C1285 0.950 . S
H1274 C1282 0.950 . S
H1275 C1284 0.950 . S
H1276 C1286 0.950 . S
H1277 C1288 0.950 . S
H1278 C1290 0.950 . S
H1279 C1291 0.950 . S
C1280 H1272 0.950 . S
C1280 C1281 1.386 . S
C1280 C1282 1.391 . S
C1281 C1280 1.386 . S
C1281 C1285 1.393 . S
C1282 H1274 0.950 . S
C1282 C1280 1.391 . S
C1282 C1283 1.400 . S
C1283 C1282 1.400 . S
C1283 C1284 1.398 . S
C1283 C1289 1.491 . S
C1284 H1275 0.950 . S
C1284 C1283 1.398 . S
C1284 C1285 1.391 . S
C1285 H1273 0.950 . S
C1285 C1281 1.393 . S
C1285 C1284 1.391 . S
C1286 H1276 0.950 . S
C1286 C1287 1.386 . S
C1286 C1288 1.391 . S
C1287 C1286 1.386 . S
C1287 C1291 1.393 . S
C1288 H1277 0.950 . S
C1288 C1286 1.391 . S
C1288 C1289 1.400 . S
C1289 C1283 1.491 . S
C1289 C1288 1.400 . S
C1289 C1290 1.398 . S
C1290 H1278 0.950 . S
C1290 C1289 1.398 . S
C1290 C1291 1.391 . S
C1291 H1279 0.950 . S
C1291 C1287 1.393 . S
C1291 C1290 1.391 . S
H1292 C1300 0.950 . S
H1293 C1305 0.950 . S
H1294 C1302 0.950 . S
H1295 C1304 0.950 . S
H1296 C1306 0.950 . S
H1297 C1308 0.950 . S
H1298 C1310 0.950 . S
H1299 C1311 0.950 . S
C1300 H1292 0.950 . S
C1300 C1301 1.386 . S
C1300 C1302 1.391 . S
C1301 C1300 1.386 . S
C1301 C1305 1.393 . S
C1302 H1294 0.950 . S
C1302 C1300 1.391 . S
C1302 C1303 1.400 . S
C1303 C1302 1.400 . S
C1303 C1304 1.398 . S
C1303 C1309 1.491 . S
C1304 H1295 0.950 . S
C1304 C1303 1.398 . S
C1304 C1305 1.391 . S
C1305 H1293 0.950 . S
C1305 C1301 1.393 . S
C1305 C1304 1.391 . S
C1306 H1296 0.950 . S
C1306 C1307 1.386 . S
C1306 C1308 1.391 . S
C1307 C1306 1.386 . S
C1307 C1311 1.393 . S
C1308 H1297 0.950 . S
C1308 C1306 1.391 . S
C1308 C1309 1.400 . S
C1309 C1303 1.491 . S
C1309 C1308 1.400 . S
C1309 C1310 1.398 . S
C1310 H1298 0.950 . S
C1310 C1309 1.398 . S
C1310 C1311 1.391 . S
C1311 H1299 0.950 . S
C1311 C1307 1.393 . S
C1311 C1310 1.391 . S
H1312 C1320 0.950 . S
H1313 C1325 0.950 . S
H1314 C1322 0.950 . S
H1315 C1324 0.950 . S
H1316 C1326 0.950 . S
H1317 C1328 0.950 . S
H1318 C1330 0.950 . S
H1319 C1331 0.950 . S
C1320 H1312 0.950 . S
C1320 C1321 1.386 . S
C1320 C1322 1.391 . S
C1321 C1320 1.386 . S
C1321 C1325 1.393 . S
C1322 H1314 0.950 . S
C1322 C1320 1.391 . S
C1322 C1323 1.400 . S
C1323 C1322 1.400 . S
C1323 C1324 1.398 . S
C1323 C1329 1.491 . S
C1324 H1315 0.950 . S
C1324 C1323 1.398 . S
C1324 C1325 1.391 . S
C1325 H1313 0.950 . S
C1325 C1321 1.393 . S
C1325 C1324 1.391 . S
C1326 H1316 0.950 . S
C1326 C1327 1.386 . S
C1326 C1328 1.391 . S
C1327 C1326 1.386 . S
C1327 C1331 1.393 . S
C1328 H1317 0.950 . S
C1328 C1326 1.391 . S
C1328 C1329 1.400 . S
C1329 C1323 1.491 . S
C1329 C1328 1.400 . S
C1329 C1330 1.398 . S
C1330 H1318 0.950 . S
C1330 C1329 1.398 . S
C1330 C1331 1.391 . S
C1331 H1319 0.950 . S
C1331 C1327 1.393 . S
C1331 C1330 1.391 . S
H1332 C1340 0.950 . S
H1333 C1345 0.950 . S
H1334 C1342 0.950 . S
H1335 C1344 0.950 . S
H1336 C1346 0.950 . S
H1337 C1348 0.950 . S
H1338 C1350 0.950 . S
H1339 C1351 0.950 . S
C1340 H1332 0.950 . S
C1340 C1341 1.386 . S
C1340 C1342 1.391 . S
C1341 C1340 1.386 . S
C1341 C1345 1.393 . S
C1342 H1334 0.950 . S
C1342 C1340 1.391 . S
C1342 C1343 1.400 . S
C1343 C1342 1.400 . S
C1343 C1344 1.398 . S
C1343 C1349 1.491 . S
C1344 H1335 0.950 . S
C1344 C1343 1.398 . S
C1344 C1345 1.391 . S
C1345 H1333 0.950 . S
C1345 C1341 1.393 . S
C1345 C1344 1.391 . S
C1346 H1336 0.950 . S
C1346 C1347 1.386 . S
C1346 C1348 1.391 . S
C1347 C1346 1.386 . S
C1347 C1351 1.393 . S
C1348 H1337 0.950 . S
C1348 C1346 1.391 . S
C1348 C1349 1.400 . S
C1349 C1343 1.491 . S
C1349 C1348 1.400 . S
C1349 C1350 1.398 . S
C1350 H1338 0.950 . S
C1350 C1349 1.398 . S
C1350 C1351 1.391 . S
C1351 H1339 0.950 . S
C1351 C1347 1.393 . S
C1351 C1350 1.391 . S
H1352 C1360 0.950 . S
H1353 C1365 0.950 . S
H1354 C1362 0.950 . S
H1355 C1364 0.950 . S
H1356 C1366 0.950 . S
H1357 C1368 0.950 . S
H1358 C1370 0.950 . S
H1359 C1371 0.950 . S
C1360 H1352 0.950 . S
C1360 C1361 1.386 . S
C1360 C1362 1.391 . S
C1361 C1360 1.386 . S
C1361 C1365 1.393 . S
C1362 H1354 0.950 . S
C1362 C1360 1.391 . S
C1362 C1363 1.400 . S
C1363 C1362 1.400 . S
C1363 C1364 1.398 . S
C1363 C1369 1.491 . S
C1364 H1355 0.950 . S
C1364 C1363 1.398 . S
C1364 C1365 1.391 . S
C1365 H1353 0.950 . S
C1365 C1361 1.393 . S
C1365 C1364 1.391 . S
C1366 H1356 0.950 . S
C1366 C1367 1.386 . S
C1366 C1368 1.391 . S
C1367 C1366 1.386 . S
C1367 C1371 1.393 . S
C1368 H1357 0.950 . S
C1368 C1366 1.391 . S
C1368 C1369 1.400 . S
C1369 C1363 1.491 . S
C1369 C1368 1.400 . S
C1369 C1370 1.398 . S
C1370 H1358 0.950 . S
C1370 C1369 1.398 . S
C1370 C1371 1.391 . S
C1371 H1359 0.950 . S
C1371 C1367 1.393 . S
C1371 C1370 1.391 . S
H1372 C1380 0.950 . S
H1373 C1385 0.950 . S
H1374 C1382 0.950 . S
H1375 C1384 0.950 . S
H1376 C1386 0.950 . S
H1377 C1388 0.950 . S
H1378 C1390 0.950 . S
H1379 C1391 0.950 . S
C1380 H1372 0.950 . S
C1380 C1381 1.386 . S
C1380 C1382 1.391 . S
C1381 C1380 1.386 . S
C1381 C1385 1.393 . S
C1382 H1374 0.950 . S
C1382 C1380 1.391 . S
C1382 C1383 1.400 . S
C1383 C1382 1.400 . S
C1383 C1384 1.398 . S
C1383 C1389 1.491 . S
C1384 H1375 0.950 . S
C1384 C1383 1.398 . S
C1384 C1385 1.391 . S
C1385 H1373 0.950 . S
C1385 C1381 1.393 . S
C1385 C1384 1.391 . S
C1386 H1376 0.950 . S
C1386 C1387 1.386 . S
C1386 C1388 1.391 . S
C1387 C1386 1.386 . S
C1387 C1391 1.393 . S
C1388 H1377 0.950 . S
C1388 C1386 1.391 . S
C1388 C1389 1.400 . S
C1389 C1383 1.491 . S
C1389 C1388 1.400 . S
C1389 C1390 1.398 . S
C1390 H1378 0.950 . S
C1390 C1389 1.398 . S
C1390 C1391 1.391 . S
C1391 H1379 0.950 . S
C1391 C1387 1.393 . S
C1391 C1390 1.391 . S
H1392 C1400 0.950 . S
H1393 C1405 0.950 . S
H1394 C1402 0.950 . S
H1395 C1404 0.950 . S
H1396 C1406 0.950 . S
H1397 C1408 0.950 . S
H1398 C1410 0.950 . S
H1399 C1411 0.950 . S
C1400 H1392 0.950 . S
C1400 C1401 1.386 . S
C1400 C1402 1.391 . S
C1401 C1400 1.386 . S
C1401 C1405 1.393 . S
C1402 H1394 0.950 . S
C1402 C1400 1.391 . S
C1402 C1403 1.400 . S
C1403 C1402 1.400 . S
C1403 C1404 1.398 . S
C1403 C1409 1.491 . S
C1404 H1395 0.950 . S
C1404 C1403 1.398 . S
C1404 C1405 1.391 . S
C1405 H1393 0.950 . S
C1405 C1401 1.393 . S
C1405 C1404 1.391 . S
C1406 H1396 0.950 . S
C1406 C1407 1.386 . S
C1406 C1408 1.391 . S
C1407 C1406 1.386 . S
C1407 C1411 1.393 . S
C1408 H1397 0.950 . S
C1408 C1406 1.391 . S
C1408 C1409 1.400 . S
C1409 C1403 1.491 . S
C1409 C1408 1.400 . S
C1409 C1410 1.398 . S
C1410 H1398 0.950 . S
C1410 C1409 1.398 . S
C1410 C1411 1.391 . S
C1411 H1399 0.950 . S
C1411 C1407 1.393 . S
C1411 C1410 1.391 . S
H1412 C1420 0.950 . S
H1413 C1425 0.950 . S
H1414 C1422 0.950 . S
H1415 C1424 0.950 . S
H1416 C1426 0.950 . S
H1417 C1428 0.950 . S
H1418 C1430 0.950 . S
H1419 C1431 0.950 . S
C1420 H1412 0.950 . S
C1420 C1421 1.386 . S
C1420 C1422 1.391 . S
C1421 C1420 1.386 . S
C1421 C1425 1.393 . S
C1422 H1414 0.950 . S
C1422 C1420 1.391 . S
C1422 C1423 1.400 . S
C1423 C1422 1.400 . S
C1423 C1424 1.398 . S
C1423 C1429 1.491 . S
C1424 H1415 0.950 . S
C1424 C1423 1.398 . S
C1424 C1425 1.391 . S
C1425 H1413 0.950 . S
C1425 C1421 1.393 . S
C1425 C1424 1.391 . S
C1426 H1416 0.950 . S
C1426 C1427 1.386 . S
C1426 C1428 1.391 . S
C1427 C1426 1.386 . S
C1427 C1431 1.393 . S
C1428 H1417 0.950 . S
C1428 C1426 1.391 . S
C1428 C1429 1.400 . S
C1429 C1423 1.491 . S
C1429 C1428 1.400 . S
C1429 C1430 1.398 . S
C1430 H1418 0.950 . S
C1430 C1429 1.398 . S
C1430 C1431 1.391 . S
C1431 H1419 0.950 . S
C1431 C1427 1.393 . S
C1431 C1430 1.391 . S
H1432 C1440 0.950 . S
H1433 C1445 0.950 . S
H1434 C1442 0.950 . S
H1435 C1444 0.950 . S
H1436 C1446 0.950 . S
H1437 C1448 0.950 . S
H1438 C1450 0.950 . S
H1439 C1451 0.950 . S
C1440 H1432 0.950 . S
C1440 C1441 1.386 . S
C1440 C1442 1.391 . S
C1441 C1440 1.386 . S
C1441 C1445 1.393 . S
C1442 H1434 0.950 . S
C1442 C1440 1.391 . S
C1442 C1443 1.400 . S
C1443 C1442 1.400 . S
C1443 C1444 1.398 . S
C1443 C1449 1.491 . S
C1444 H1435 0.950 . S
C1444 C1443 1.398 . S
C1444 C1445 1.391 . S
C1445 H1433 0.950 . S
C1445 C1441 1.393 . S
C1445 C1444 1.391 . S
C1446 H1436 0.950 . S
C1446 C1447 1.386 . S
C1446 C1448 1.391 . S
C1447 C1446 1.386 . S
C1447 C1451 1.393 . S
C1448 H1437 0.950 . S
C1448 C1446 1.391 . S
C1448 C1449 1.400 . S
C1449 C1443 1.491 . S
C1449 C1448 1.400 . S
C1449 C1450 1.398 . S
C1450 H1438 0.950 . S
C1450 C1449 1.398 . S
C1450 C1451 1.391 . S
C1451 H1439 0.950 . S
C1451 C1447 1.393 . S
C1451 C1450 1.391 . S
H1452 C1460 0.950 . S
H1453 C1465 0.950 . S
H1454 C1462 0.950 . S
H1455 C1464 0.950 . S
H1456 C1466 0.950 . S
H1457 C1468 0.950 . S
H1458 C1470 0.950 . S
H1459 C1471 0.950 . S
C1460 H1452 0.950 . S
C1460 C1461 1.386 . S
C1460 C1462 1.391 . S
C1461 C1460 1.386 . S
C1461 C1465 1.393 . S
C1462 H1454 0.950 . S
C1462 C1460 1.391 . S
C1462 C1463 1.400 . S
C1463 C1462 1.400 . S
C1463 C1464 1.398 . S
C1463 C1469 1.491 . S
C1464 H1455 0.950 . S
C1464 C1463 1.398 . S
C1464 C1465 1.391 . S
C1465 H1453 0.950 . S
C1465 C1461 1.393 . S
C1465 C1464 1.391 . S
C1466 H1456 0.950 . S
C1466 C1467 1.386 . S
C1466 C1468 1.391 . S
C1467 C1466 1.386 . S
C1467 C1471 1.393 . S
C1468 H1457 0.950 . S
C1468 C1466 1.391 . S
C1468 C1469 1.400 . S
C1469 C1463 1.491 . S
C1469 C1468 1.400 . S
C1469 C1470 1.398 . S
C1470 H1458 0.950 . S
C1470 C1469 1.398 . S
C1470 C1471 1.391 . S
C1471 H1459 0.950 . S
C1471 C1467 1.393 . S
C1471 C1470 1.391 . S
H1472 C1480 0.950 . S
H1473 C1485 0.950 . S
H1474 C1482 0.950 . S
H1475 C1484 0.950 . S
H1476 C1486 0.950 . S
H1477 C1488 0.950 . S
H1478 C1490 0.950 . S
H1479 C1491 0.950 . S
C1480 H1472 0.950 . S
C1480 C1481 1.386 . S
C1480 C1482 1.391 . S
C1481 C1480 1.386 . S
C1481 C1485 1.393 . S
C1482 H1474 0.950 . S
C1482 C1480 1.391 . S
C1482 C1483 1.400 . S
C1483 C1482 1.400 . S
C1483 C1484 1.398 . S
C1483 C1489 1.491 . S
C1484 H1475 0.950 . S
C1484 C1483 1.398 . S
C1484 C1485 1.391 . S
C1485 H1473 0.950 . S
C1485 C1481 1.393 . S
C1485 C1484 1.391 . S
C1486 H1476 0.950 . S
C1486 C1487 1.386 . S
C1486 C1488 1.391 . S
C1487 C1486 1.386 . S
C1487 C1491 1.393 . S
C1488 H1477 0.950 . S
C1488 C1486 1.391 . S
C1488 C1489 1.400 . S
C1489 C1483 1.491 . S
C1489 C1488 1.400 . S
C1489 C1490 1.398 . S
C1490 H1478 0.950 . S
C1490 C1489 1.398 . S
C1490 C1491 1.391 . S
C1491 H1479 0.950 . S
C1491 C1487 1.393 . S
C1491 C1490 1.391 . S
H1492 C1500 0.950 . S
H1493 C1505 0.950 . S
H1494 C1502 0.950 . S
H1495 C1504 0.950 . S
H1496 C1506 0.950 . S
H1497 C1508 0.950 . S
H1498 C1510 0.950 . S
H1499 C1511 0.950 . S
C1500 H1492 0.950 . S
C1500 C1501 1.386 . S
C1500 C1502 1.391 . S
C1501 C1500 1.386 . S
C1501 C1505 1.393 . S
C1502 H1494 0.950 . S
C1502 C1500 1.391 . S
C1502 C1503 1.400 . S
C1503 C1502 1.400 . S
C1503 C1504 1.398 . S
C1503 C1509 1.491 . S
C1504 H1495 0.950 . S
C1504 C1503 1.398 . S
C1504 C1505 1.391 . S
C1505 H1493 0.950 . S
C1505 C1501 1.393 . S
C1505 C1504 1.391 . S
C1506 H1496 0.950 . S
C1506 C1507 1.386 . S
C1506 C1508 1.391 1_455 S
C1507 C1506 1.386 . S
C1507 C1511 1.393 1_455 S
C1508 H1497 0.950 . S
C1508 C1506 1.391 1_655 S
C1508 C1509 1.400 . S
C1509 C1503 1.491 . S
C1509 C1508 1.400 . S
C1509 C1510 1.398 . S
C1510 H1498 0.950 . S
C1510 C1509 1.398 . S
C1510 C1511 1.391 . S
C1511 H1499 0.950 . S
C1511 C1507 1.393 1_655 S
C1511 C1510 1.391 . S
H1512 C1520 0.950 . S
H1513 C1525 0.950 . S
H1514 C1522 0.950 . S
H1515 C1524 0.950 . S
H1516 C1526 0.950 . S
H1517 C1528 0.950 . S
H1518 C1530 0.950 . S
H1519 C1531 0.950 . S
C1520 H1512 0.950 . S
C1520 C1521 1.386 . S
C1520 C1522 1.391 . S
C1521 C1520 1.386 . S
C1521 C1525 1.393 . S
C1522 H1514 0.950 . S
C1522 C1520 1.391 . S
C1522 C1523 1.400 . S
C1523 C1522 1.400 . S
C1523 C1524 1.398 . S
C1523 C1529 1.491 . S
C1524 H1515 0.950 . S
C1524 C1523 1.398 . S
C1524 C1525 1.391 . S
C1525 H1513 0.950 . S
C1525 C1521 1.393 . S
C1525 C1524 1.391 . S
C1526 H1516 0.950 . S
C1526 C1527 1.386 . S
C1526 C1528 1.391 . S
C1527 C1526 1.386 . S
C1527 C1531 1.393 . S
C1528 H1517 0.950 . S
C1528 C1526 1.391 . S
C1528 C1529 1.400 . S
C1529 C1523 1.491 . S
C1529 C1528 1.400 . S
C1529 C1530 1.398 . S
C1530 H1518 0.950 . S
C1530 C1529 1.398 . S
C1530 C1531 1.391 . S
C1531 H1519 0.950 . S
C1531 C1527 1.393 . S
C1531 C1530 1.391 . S
H1532 C1540 0.950 . S
H1533 C1545 0.950 . S
H1534 C1542 0.950 . S
H1535 C1544 0.950 . S
H1536 C1546 0.950 . S
H1537 C1548 0.950 . S
H1538 C1550 0.950 . S
H1539 C1551 0.950 . S
C1540 H1532 0.950 . S
C1540 C1541 1.386 . S
C1540 C1542 1.391 . S
C1541 C1540 1.386 . S
C1541 C1545 1.393 . S
C1542 H1534 0.950 . S
C1542 C1540 1.391 . S
C1542 C1543 1.400 . S
C1543 C1542 1.400 . S
C1543 C1544 1.398 . S
C1543 C1549 1.491 . S
C1544 H1535 0.950 . S
C1544 C1543 1.398 . S
C1544 C1545 1.391 . S
C1545 H1533 0.950 . S
C1545 C1541 1.393 . S
C1545 C1544 1.391 . S
C1546 H1536 0.950 . S
C1546 C1547 1.386 . S
C1546 C1548 1.391 . S
C1547 C1546 1.386 . S
C1547 C1551 1.393 . S
C1548 H1537 0.950 . S
C1548 C1546 1.391 . S
C1548 C1549 1.400 . S
C1549 C1543 1.491 . S
C1549 C1548 1.400 . S
C1549 C1550 1.398 . S
C1550 H1538 0.950 . S
C1550 C1549 1.398 . S
C1550 C1551 1.391 . S
C1551 H1539 0.950 . S
C1551 C1547 1.393 . S
C1551 C1550 1.391 . S
H1552 C1560 0.950 . S
H1553 C1565 0.950 . S
H1554 C1562 0.950 . S
H1555 C1564 0.950 . S
H1556 C1566 0.950 . S
H1557 C1568 0.950 . S
H1558 C1570 0.950 . S
H1559 C1571 0.950 . S
C1560 H1552 0.950 . S
C1560 C1561 1.386 . S
C1560 C1562 1.391 . S
C1561 C1560 1.386 . S
C1561 C1565 1.393 . S
C1562 H1554 0.950 . S
C1562 C1560 1.391 . S
C1562 C1563 1.400 . S
C1563 C1562 1.400 . S
C1563 C1564 1.398 . S
C1563 C1569 1.491 . S
C1564 H1555 0.950 . S
C1564 C1563 1.398 . S
C1564 C1565 1.391 . S
C1565 H1553 0.950 . S
C1565 C1561 1.393 . S
C1565 C1564 1.391 . S
C1566 H1556 0.950 . S
C1566 C1567 1.386 . S
C1566 C1568 1.391 . S
C1567 C1566 1.386 . S
C1567 C1571 1.393 . S
C1568 H1557 0.950 . S
C1568 C1566 1.391 . S
C1568 C1569 1.400 . S
C1569 C1563 1.491 . S
C1569 C1568 1.400 . S
C1569 C1570 1.398 . S
C1570 H1558 0.950 . S
C1570 C1569 1.398 . S
C1570 C1571 1.391 . S
C1571 H1559 0.950 . S
C1571 C1567 1.393 . S
C1571 C1570 1.391 . S
H1572 C1580 0.950 . S
H1573 C1585 0.950 . S
H1574 C1582 0.950 . S
H1575 C1584 0.950 . S
H1576 C1586 0.950 . S
H1577 C1588 0.950 . S
H1578 C1590 0.950 . S
H1579 C1591 0.950 . S
C1580 H1572 0.950 . S
C1580 C1581 1.386 . S
C1580 C1582 1.391 . S
C1581 C1580 1.386 . S
C1581 C1585 1.393 . S
C1582 H1574 0.950 . S
C1582 C1580 1.391 . S
C1582 C1583 1.400 . S
C1583 C1582 1.400 . S
C1583 C1584 1.398 . S
C1583 C1589 1.491 . S
C1584 H1575 0.950 . S
C1584 C1583 1.398 . S
C1584 C1585 1.391 . S
C1585 H1573 0.950 . S
C1585 C1581 1.393 . S
C1585 C1584 1.391 . S
C1586 H1576 0.950 . S
C1586 C1587 1.386 . S
C1586 C1588 1.391 . S
C1587 C1586 1.386 . S
C1587 C1591 1.393 . S
C1588 H1577 0.950 . S
C1588 C1586 1.391 . S
C1588 C1589 1.400 . S
C1589 C1583 1.491 . S
C1589 C1588 1.400 . S
C1589 C1590 1.398 . S
C1590 H1578 0.950 . S
C1590 C1589 1.398 . S
C1590 C1591 1.391 . S
C1591 H1579 0.950 . S
C1591 C1587 1.393 . S
C1591 C1590 1.391 . S
H1592 C1600 0.950 . S
H1593 C1605 0.950 . S
H1594 C1602 0.950 . S
H1595 C1604 0.950 . S
H1596 C1606 0.950 . S
H1597 C1608 0.950 . S
H1598 C1610 0.950 . S
H1599 C1611 0.950 . S
C1600 H1592 0.950 . S
C1600 C1601 1.386 . S
C1600 C1602 1.391 . S
C1601 C1600 1.386 . S
C1601 C1605 1.393 . S
C1602 H1594 0.950 . S
C1602 C1600 1.391 . S
C1602 C1603 1.400 . S
C1603 C1602 1.400 . S
C1603 C1604 1.398 . S
C1603 C1609 1.491 . S
C1604 H1595 0.950 . S
C1604 C1603 1.398 . S
C1604 C1605 1.391 . S
C1605 H1593 0.950 . S
C1605 C1601 1.393 . S
C1605 C1604 1.391 . S
C1606 H1596 0.950 . S
C1606 C1607 1.386 . S
C1606 C1608 1.391 . S
C1607 C1606 1.386 . S
C1607 C1611 1.393 . S
C1608 H1597 0.950 . S
C1608 C1606 1.391 . S
C1608 C1609 1.400 . S
C1609 C1603 1.491 . S
C1609 C1608 1.400 . S
C1609 C1610 1.398 . S
C1610 H1598 0.950 . S
C1610 C1609 1.398 . S
C1610 C1611 1.391 . S
C1611 H1599 0.950 . S
C1611 C1607 1.393 . S
C1611 C1610 1.391 . S
H1612 C1620 0.950 . S
H1613 C1625 0.950 . S
H1614 C1622 0.950 . S
H1615 C1624 0.950 . S
H1616 C1626 0.950 . S
H1617 C1628 0.950 . S
H1618 C1630 0.950 . S
H1619 C1631 0.950 . S
C1620 H1612 0.950 . S
C1620 C1621 1.386 . S
C1620 C1622 1.391 1_455 S
C1621 C1620 1.386 . S
C1621 C1625 1.393 1_455 S
C1622 H1614 0.950 . S
C1622 C1620 1.391 1_655 S
C1622 C1623 1.400 . S
C1623 C1622 1.400 . S
C1623 C1624 1.398 . S
C1623 C1629 1.491 . S
C1624 H1615 0.950 . S
C1624 C1623 1.398 . S
C1624 C1625 1.391 . S
C1625 H1613 0.950 . S
C1625 C1621 1.393 1_655 S
C1625 C1624 1.391 . S
C1626 H1616 0.950 . S
C1626 C1627 1.386 . S
C1626 C1628 1.391 . S
C1627 C1626 1.386 . S
C1627 C1631 1.393 . S
C1628 H1617 0.950 . S
C1628 C1626 1.391 . S
C1628 C1629 1.400 . S
C1629 C1623 1.491 . S
C1629 C1628 1.400 . S
C1629 C1630 1.398 . S
C1630 H1618 0.950 . S
C1630 C1629 1.398 . S
C1630 C1631 1.391 . S
C1631 H1619 0.950 . S
C1631 C1627 1.393 . S
C1631 C1630 1.391 . S
H1632 C1640 0.950 . S
H1633 C1645 0.950 . S
H1634 C1642 0.950 . S
H1635 C1644 0.950 . S
H1636 C1646 0.950 . S
H1637 C1648 0.950 . S
H1638 C1650 0.950 . S
H1639 C1651 0.950 . S
C1640 H1632 0.950 . S
C1640 C1641 1.386 . S
C1640 C1642 1.391 . S
C1641 C1640 1.386 . S
C1641 C1645 1.393 . S
C1642 H1634 0.950 . S
C1642 C1640 1.391 . S
C1642 C1643 1.400 . S
C1643 C1642 1.400 . S
C1643 C1644 1.398 . S
C1643 C1649 1.491 . S
C1644 H1635 0.950 . S
C1644 C1643 1.398 . S
C1644 C1645 1.391 . S
C1645 H1633 0.950 . S
C1645 C1641 1.393 . S
C1645 C1644 1.391 . S
C1646 H1636 0.950 . S
C1646 C1647 1.386 . S
C1646 C1648 1.391 . S
C1647 C1646 1.386 . S
C1647 C1651 1.393 . S
C1648 H1637 0.950 . S
C1648 C1646 1.391 . S
C1648 C1649 1.400 . S
C1649 C1643 1.491 . S
C1649 C1648 1.400 . S
C1649 C1650 1.398 . S
C1650 H1638 0.950 . S
C1650 C1649 1.398 . S
C1650 C1651 1.391 . S
C1651 H1639 0.950 . S
C1651 C1647 1.393 . S
C1651 C1650 1.391 . S
H1652 C1660 0.950 . S
H1653 C1665 0.950 . S
H1654 C1662 0.950 . S
H1655 C1664 0.950 . S
H1656 C1666 0.950 . S
H1657 C1668 0.950 . S
H1658 C1670 0.950 . S
H1659 C1671 0.950 . S
C1660 H1652 0.950 . S
C1660 C1661 1.386 . S
C1660 C1662 1.391 1_655 S
C1661 C1660 1.386 . S
C1661 C1665 1.393 . S
C1662 H1654 0.950 . S
C1662 C1660 1.391 1_455 S
C1662 C1663 1.400 . S
C1663 C1662 1.400 . S
C1663 C1664 1.398 . S
C1663 C1669 1.491 . S
C1664 H1655 0.950 . S
C1664 C1663 1.398 . S
C1664 C1665 1.391 1_455 S
C1665 H1653 0.950 . S
C1665 C1661 1.393 . S
C1665 C1664 1.391 1_655 S
C1666 H1656 0.950 . S
C1666 C1667 1.386 . S
C1666 C1668 1.391 . S
C1667 C1666 1.386 . S
C1667 C1671 1.393 . S
C1668 H1657 0.950 . S
C1668 C1666 1.391 . S
C1668 C1669 1.400 . S
C1669 C1663 1.491 . S
C1669 C1668 1.400 . S
C1669 C1670 1.398 . S
C1670 H1658 0.950 . S
C1670 C1669 1.398 . S
C1670 C1671 1.391 . S
C1671 H1659 0.950 . S
C1671 C1667 1.393 . S
C1671 C1670 1.391 . S
H1672 C1680 0.950 . S
H1673 C1685 0.950 . S
H1674 C1682 0.950 . S
H1675 C1684 0.950 . S
H1676 C1686 0.950 . S
H1677 C1688 0.950 . S
H1678 C1690 0.950 . S
H1679 C1691 0.950 . S
C1680 H1672 0.950 . S
C1680 C1681 1.386 . S
C1680 C1682 1.391 . S
C1681 C1680 1.386 . S
C1681 C1685 1.393 . S
C1682 H1674 0.950 . S
C1682 C1680 1.391 . S
C1682 C1683 1.400 . S
C1683 C1682 1.400 . S
C1683 C1684 1.398 . S
C1683 C1689 1.491 . S
C1684 H1675 0.950 . S
C1684 C1683 1.398 . S
C1684 C1685 1.391 . S
C1685 H1673 0.950 . S
C1685 C1681 1.393 . S
C1685 C1684 1.391 . S
C1686 H1676 0.950 . S
C1686 C1687 1.386 . S
C1686 C1688 1.391 . S
C1687 C1686 1.386 . S
C1687 C1691 1.393 . S
C1688 H1677 0.950 . S
C1688 C1686 1.391 . S
C1688 C1689 1.400 . S
C1689 C1683 1.491 . S
C1689 C1688 1.400 . S
C1689 C1690 1.398 . S
C1690 H1678 0.950 . S
C1690 C1689 1.398 . S
C1690 C1691 1.391 . S
C1691 H1679 0.950 . S
C1691 C1687 1.393 . S
C1691 C1690 1.391 . S
H1692 C1700 0.950 . S
H1693 C1705 0.950 . S
H1694 C1702 0.950 . S
H1695 C1704 0.950 . S
H1696 C1706 0.950 . S
H1697 C1708 0.950 . S
H1698 C1710 0.950 . S
H1699 C1711 0.950 . S
C1700 H1692 0.950 . S
C1700 C1701 1.386 . S
C1700 C1702 1.391 . S
C1701 C1700 1.386 . S
C1701 C1705 1.393 . S
C1702 H1694 0.950 . S
C1702 C1700 1.391 . S
C1702 C1703 1.400 . S
C1703 C1702 1.400 . S
C1703 C1704 1.398 . S
C1703 C1709 1.491 . S
C1704 H1695 0.950 . S
C1704 C1703 1.398 . S
C1704 C1705 1.391 . S
C1705 H1693 0.950 . S
C1705 C1701 1.393 . S
C1705 C1704 1.391 . S
C1706 H1696 0.950 . S
C1706 C1707 1.386 . S
C1706 C1708 1.391 . S
C1707 C1706 1.386 . S
C1707 C1711 1.393 . S
C1708 H1697 0.950 . S
C1708 C1706 1.391 . S
C1708 C1709 1.400 . S
C1709 C1703 1.491 . S
C1709 C1708 1.400 . S
C1709 C1710 1.398 . S
C1710 H1698 0.950 . S
C1710 C1709 1.398 . S
C1710 C1711 1.391 . S
C1711 H1699 0.950 . S
C1711 C1707 1.393 . S
C1711 C1710 1.391 . S
H1712 C1720 0.950 . S
H1713 C1725 0.950 . S
H1714 C1722 0.950 . S
H1715 C1724 0.950 . S
H1716 C1726 0.950 . S
H1717 C1728 0.950 . S
H1718 C1730 0.950 . S
H1719 C1731 0.950 . S
C1720 H1712 0.950 . S
C1720 C1721 1.386 . S
C1720 C1722 1.391 . S
C1721 C1720 1.386 . S
C1721 C1725 1.393 . S
C1722 H1714 0.950 . S
C1722 C1720 1.391 . S
C1722 C1723 1.400 . S
C1723 C1722 1.400 . S
C1723 C1724 1.398 . S
C1723 C1729 1.491 . S
C1724 H1715 0.950 . S
C1724 C1723 1.398 . S
C1724 C1725 1.391 . S
C1725 H1713 0.950 . S
C1725 C1721 1.393 . S
C1725 C1724 1.391 . S
C1726 H1716 0.950 . S
C1726 C1727 1.386 . S
C1726 C1728 1.391 . S
C1727 C1726 1.386 . S
C1727 C1731 1.393 . S
C1728 H1717 0.950 . S
C1728 C1726 1.391 . S
C1728 C1729 1.400 . S
C1729 C1723 1.491 . S
C1729 C1728 1.400 . S
C1729 C1730 1.398 . S
C1730 H1718 0.950 . S
C1730 C1729 1.398 . S
C1730 C1731 1.391 . S
C1731 H1719 0.950 . S
C1731 C1727 1.393 . S
C1731 C1730 1.391 . S
H1732 C1740 0.950 . S
H1733 C1745 0.950 . S
H1734 C1742 0.950 . S
H1735 C1744 0.950 . S
H1736 C1746 0.950 . S
H1737 C1748 0.950 . S
H1738 C1750 0.950 . S
H1739 C1751 0.950 . S
C1740 H1732 0.950 . S
C1740 C1741 1.386 . S
C1740 C1742 1.391 . S
C1741 C1740 1.386 . S
C1741 C1745 1.393 . S
C1742 H1734 0.950 . S
C1742 C1740 1.391 . S
C1742 C1743 1.400 . S
C1743 C1742 1.400 . S
C1743 C1744 1.398 . S
C1743 C1749 1.491 . S
C1744 H1735 0.950 . S
C1744 C1743 1.398 . S
C1744 C1745 1.391 . S
C1745 H1733 0.950 . S
C1745 C1741 1.393 . S
C1745 C1744 1.391 . S
C1746 H1736 0.950 . S
C1746 C1747 1.386 . S
C1746 C1748 1.391 . S
C1747 C1746 1.386 . S
C1747 C1751 1.393 . S
C1748 H1737 0.950 . S
C1748 C1746 1.391 . S
C1748 C1749 1.400 . S
C1749 C1743 1.491 . S
C1749 C1748 1.400 . S
C1749 C1750 1.398 . S
C1750 H1738 0.950 . S
C1750 C1749 1.398 . S
C1750 C1751 1.391 . S
C1751 H1739 0.950 . S
C1751 C1747 1.393 . S
C1751 C1750 1.391 . S
H1752 C1760 0.950 . S
H1753 C1765 0.950 . S
H1754 C1762 0.950 . S
H1755 C1764 0.950 . S
H1756 C1766 0.950 . S
H1757 C1768 0.950 . S
H1758 C1770 0.950 . S
H1759 C1771 0.950 . S
C1760 H1752 0.950 . S
C1760 C1761 1.386 . S
C1760 C1762 1.391 . S
C1761 C1760 1.386 . S
C1761 C1765 1.393 . S
C1762 H1754 0.950 . S
C1762 C1760 1.391 . S
C1762 C1763 1.400 . S
C1763 C1762 1.400 . S
C1763 C1764 1.398 . S
C1763 C1769 1.491 . S
C1764 H1755 0.950 . S
C1764 C1763 1.398 . S
C1764 C1765 1.391 . S
C1765 H1753 0.950 . S
C1765 C1761 1.393 . S
C1765 C1764 1.391 . S
C1766 H1756 0.950 . S
C1766 C1767 1.386 . S
C1766 C1768 1.391 . S
C1767 C1766 1.386 . S
C1767 C1771 1.393 . S
C1768 H1757 0.950 . S
C1768 C1766 1.391 . S
C1768 C1769 1.400 . S
C1769 C1763 1.491 . S
C1769 C1768 1.400 . S
C1769 C1770 1.398 . S
C1770 H1758 0.950 . S
C1770 C1769 1.398 . S
C1770 C1771 1.391 . S
C1771 H1759 0.950 . S
C1771 C1767 1.393 . S
C1771 C1770 1.391 . S
H1772 C1780 0.950 . S
H1773 C1785 0.950 . S
H1774 C1782 0.950 . S
H1775 C1784 0.950 . S
H1776 C1786 0.951 . S
H1777 C1788 0.950 . S
H1778 C1790 0.950 . S
H1779 C1791 0.950 . S
C1780 H1772 0.950 . S
C1780 C1781 1.386 . S
C1780 C1782 1.391 . S
C1781 C1780 1.386 . S
C1781 C1785 1.393 . S
C1782 H1774 0.950 . S
C1782 C1780 1.391 . S
C1782 C1783 1.400 . S
C1783 C1782 1.400 . S
C1783 C1784 1.398 . S
C1783 C1789 1.491 . S
C1784 H1775 0.950 . S
C1784 C1783 1.398 . S
C1784 C1785 1.391 . S
C1785 H1773 0.950 . S
C1785 C1781 1.393 . S
C1785 C1784 1.391 . S
C1786 H1776 0.951 . S
C1786 C1787 1.396 . S
C1786 C1788 1.380 1_655 S
C1787 C1786 1.396 . S
C1787 C1791 1.393 . S
C1788 H1777 0.950 . S
C1788 C1786 1.380 1_455 S
C1788 C1789 1.400 . S
C1789 C1783 1.491 . S
C1789 C1788 1.400 . S
C1789 C1790 1.398 . S
C1790 H1778 0.950 . S
C1790 C1789 1.398 . S
C1790 C1791 1.391 1_455 S
C1791 H1779 0.950 . S
C1791 C1787 1.393 . S
C1791 C1790 1.391 1_655 S
H1792 C1800 0.950 . S
H1793 C1805 0.950 . S
H1794 C1802 0.950 . S
H1795 C1804 0.950 . S
H1796 C1806 0.950 . S
H1797 C1808 0.950 . S
H1798 C1810 0.950 . S
H1799 C1811 0.950 . S
C1800 H1792 0.950 . S
C1800 C1801 1.386 . S
C1800 C1802 1.391 . S
C1801 C1800 1.386 . S
C1801 C1805 1.393 . S
C1802 H1794 0.950 . S
C1802 C1800 1.391 . S
C1802 C1803 1.400 . S
C1803 C1802 1.400 . S
C1803 C1804 1.398 . S
C1803 C1809 1.491 . S
C1804 H1795 0.950 . S
C1804 C1803 1.398 . S
C1804 C1805 1.391 . S
C1805 H1793 0.950 . S
C1805 C1801 1.393 . S
C1805 C1804 1.391 . S
C1806 H1796 0.950 . S
C1806 C1807 1.386 . S
C1806 C1808 1.391 . S
C1807 C1806 1.386 . S
C1807 C1811 1.393 . S
C1808 H1797 0.950 . S
C1808 C1806 1.391 . S
C1808 C1809 1.400 . S
C1809 C1803 1.491 . S
C1809 C1808 1.400 . S
C1809 C1810 1.398 . S
C1810 H1798 0.950 . S
C1810 C1809 1.398 . S
C1810 C1811 1.391 . S
C1811 H1799 0.950 . S
C1811 C1807 1.393 . S
C1811 C1810 1.391 . S
H1812 C1820 0.950 . S
H1813 C1825 0.950 . S
H1814 C1822 0.950 . S
H1815 C1824 0.950 . S
H1816 C1826 0.950 . S
H1817 C1828 0.950 . S
H1818 C1830 0.950 . S
H1819 C1831 0.950 . S
C1820 H1812 0.950 . S
C1820 C1821 1.386 . S
C1820 C1822 1.391 . S
C1821 C1820 1.386 . S
C1821 C1825 1.393 . S
C1822 H1814 0.950 . S
C1822 C1820 1.391 . S
C1822 C1823 1.400 . S
C1823 C1822 1.400 . S
C1823 C1824 1.398 . S
C1823 C1829 1.491 . S
C1824 H1815 0.950 . S
C1824 C1823 1.398 . S
C1824 C1825 1.391 . S
C1825 H1813 0.950 . S
C1825 C1821 1.393 . S
C1825 C1824 1.391 . S
C1826 H1816 0.950 . S
C1826 C1827 1.386 . S
C1826 C1828 1.391 . S
C1827 C1826 1.386 . S
C1827 C1831 1.393 . S
C1828 H1817 0.950 . S
C1828 C1826 1.391 . S
C1828 C1829 1.400 . S
C1829 C1823 1.491 . S
C1829 C1828 1.400 . S
C1829 C1830 1.398 . S
C1830 H1818 0.950 . S
C1830 C1829 1.398 . S
C1830 C1831 1.391 . S
C1831 H1819 0.950 . S
C1831 C1827 1.393 . S
C1831 C1830 1.391 . S
H1832 C1840 0.950 . S
H1833 C1845 0.950 . S
H1834 C1842 0.950 . S
H1835 C1844 0.950 . S
H1836 C1846 0.950 . S
H1837 C1848 0.950 . S
H1838 C1850 0.950 . S
H1839 C1851 0.950 . S
C1840 H1832 0.950 . S
C1840 C1841 1.386 . S
C1840 C1842 1.391 . S
C1841 C1840 1.386 . S
C1841 C1845 1.393 . S
C1842 H1834 0.950 . S
C1842 C1840 1.391 . S
C1842 C1843 1.400 . S
C1843 C1842 1.400 . S
C1843 C1844 1.398 . S
C1843 C1849 1.491 . S
C1844 H1835 0.950 . S
C1844 C1843 1.398 . S
C1844 C1845 1.391 . S
C1845 H1833 0.950 . S
C1845 C1841 1.393 . S
C1845 C1844 1.391 . S
C1846 H1836 0.950 . S
C1846 C1847 1.386 . S
C1846 C1848 1.391 . S
C1847 C1846 1.386 . S
C1847 C1851 1.393 . S
C1848 H1837 0.950 . S
C1848 C1846 1.391 . S
C1848 C1849 1.400 . S
C1849 C1843 1.491 . S
C1849 C1848 1.400 . S
C1849 C1850 1.398 . S
C1850 H1838 0.950 . S
C1850 C1849 1.398 . S
C1850 C1851 1.391 . S
C1851 H1839 0.950 . S
C1851 C1847 1.393 . S
C1851 C1850 1.391 . S
H1852 C1860 0.950 . S
H1853 C1865 0.950 . S
H1854 C1862 0.950 . S
H1855 C1864 0.950 . S
H1856 C1866 0.940 1_655 S
H1857 C1868 0.950 . S
H1858 C1870 0.950 . S
H1859 C1871 0.950 1_655 S
C1860 H1852 0.950 . S
C1860 C1861 1.386 . S
C1860 C1862 1.391 . S
C1861 C1860 1.386 . S
C1861 C1865 1.393 . S
C1862 H1854 0.950 . S
C1862 C1860 1.391 . S
C1862 C1863 1.400 . S
C1863 C1862 1.400 . S
C1863 C1864 1.398 . S
C1863 C1869 1.491 . S
C1864 H1855 0.950 . S
C1864 C1863 1.398 . S
C1864 C1865 1.391 . S
C1865 H1853 0.950 . S
C1865 C1861 1.393 . S
C1865 C1864 1.391 . S
C1866 H1856 0.940 1_455 S
C1866 C1867 1.386 1_455 S
C1866 C1868 1.391 . S
C1867 C1866 1.386 1_655 S
C1867 C1871 1.393 1_655 S
C1868 H1857 0.950 . S
C1868 C1866 1.391 . S
C1868 C1869 1.400 . S
C1869 C1863 1.491 . S
C1869 C1868 1.400 . S
C1869 C1870 1.398 . S
C1870 H1858 0.950 . S
C1870 C1869 1.398 . S
C1870 C1871 1.391 . S
C1871 H1859 0.950 1_455 S
C1871 C1867 1.393 1_455 S
C1871 C1870 1.391 . S
H1872 C1880 0.950 . S
H1873 C1885 0.950 . S
H1874 C1882 0.950 . S
H1875 C1884 0.950 . S
H1876 C1886 0.950 . S
H1877 C1888 0.950 . S
H1878 C1890 0.950 . S
H1879 C1891 0.950 . S
C1880 H1872 0.950 . S
C1880 C1881 1.386 . S
C1880 C1882 1.391 . S
C1881 C1880 1.386 . S
C1881 C1885 1.393 . S
C1882 H1874 0.950 . S
C1882 C1880 1.391 . S
C1882 C1883 1.400 . S
C1883 C1882 1.400 . S
C1883 C1884 1.398 . S
C1883 C1889 1.491 . S
C1884 H1875 0.950 . S
C1884 C1883 1.398 . S
C1884 C1885 1.391 . S
C1885 H1873 0.950 . S
C1885 C1881 1.393 . S
C1885 C1884 1.391 . S
C1886 H1876 0.950 . S
C1886 C1887 1.386 . S
C1886 C1888 1.391 . S
C1887 C1886 1.386 . S
C1887 C1891 1.393 . S
C1888 H1877 0.950 . S
C1888 C1886 1.391 . S
C1888 C1889 1.400 . S
C1889 C1883 1.491 . S
C1889 C1888 1.400 . S
C1889 C1890 1.398 . S
C1890 H1878 0.950 . S
C1890 C1889 1.398 . S
C1890 C1891 1.391 . S
C1891 H1879 0.950 . S
C1891 C1887 1.393 . S
C1891 C1890 1.391 . S
H1892 C1900 0.950 1_655 S
H1893 C1905 0.950 . S
H1894 C1902 0.950 . S
H1895 C1904 0.950 . S
H1896 C1906 0.950 . S
H1897 C1908 0.950 . S
H1898 C1910 0.950 . S
H1899 C1911 0.950 . S
C1900 H1892 0.950 1_455 S
C1900 C1901 1.386 1_455 S
C1900 C1902 1.391 . S
C1901 C1900 1.386 1_655 S
C1901 C1905 1.393 1_655 S
C1902 H1894 0.950 . S
C1902 C1900 1.391 . S
C1902 C1903 1.400 . S
C1903 C1902 1.400 . S
C1903 C1904 1.398 . S
C1903 C1909 1.491 . S
C1904 H1895 0.950 . S
C1904 C1903 1.398 . S
C1904 C1905 1.391 . S
C1905 H1893 0.950 . S
C1905 C1901 1.393 1_455 S
C1905 C1904 1.391 . S
C1906 H1896 0.950 . S
C1906 C1907 1.386 . S
C1906 C1908 1.391 . S
C1907 C1906 1.386 . S
C1907 C1911 1.393 . S
C1908 H1897 0.950 . S
C1908 C1906 1.391 . S
C1908 C1909 1.400 . S
C1909 C1903 1.491 . S
C1909 C1908 1.400 . S
C1909 C1910 1.398 . S
C1910 H1898 0.950 . S
C1910 C1909 1.398 . S
C1910 C1911 1.391 . S
C1911 H1899 0.950 . S
C1911 C1907 1.393 . S
C1911 C1910 1.391 . S
H1912 C1920 0.950 . S
H1913 C1925 0.950 . S
H1914 C1922 0.950 . S
H1915 C1924 0.950 . S
H1916 C1926 0.950 . S
H1917 C1928 0.950 . S
H1918 C1930 0.950 . S
H1919 C1931 0.950 . S
C1920 H1912 0.950 . S
C1920 C1921 1.386 . S
C1920 C1922 1.391 . S
C1921 C1920 1.386 . S
C1921 C1925 1.393 . S
C1922 H1914 0.950 . S
C1922 C1920 1.391 . S
C1922 C1923 1.400 . S
C1923 C1922 1.400 . S
C1923 C1924 1.398 . S
C1923 C1929 1.491 . S
C1924 H1915 0.950 . S
C1924 C1923 1.398 . S
C1924 C1925 1.391 . S
C1925 H1913 0.950 . S
C1925 C1921 1.393 . S
C1925 C1924 1.391 . S
C1926 H1916 0.950 . S
C1926 C1927 1.386 . S
C1926 C1928 1.391 . S
C1927 C1926 1.386 . S
C1927 C1931 1.393 . S
C1928 H1917 0.950 . S
C1928 C1926 1.391 . S
C1928 C1929 1.400 . S
C1929 C1923 1.491 . S
C1929 C1928 1.400 . S
C1929 C1930 1.398 . S
C1930 H1918 0.950 . S
C1930 C1929 1.398 . S
C1930 C1931 1.391 . S
C1931 H1919 0.950 . S
C1931 C1927 1.393 . S
C1931 C1930 1.391 . S
H1932 C1940 0.950 . S
H1933 C1945 0.950 . S
H1934 C1942 0.950 . S
H1935 C1944 0.950 . S
H1936 C1946 0.950 . S
H1937 C1948 0.950 . S
H1938 C1950 0.950 . S
H1939 C1951 0.950 . S
C1940 H1932 0.950 . S
C1940 C1941 1.386 . S
C1940 C1942 1.391 . S
C1941 C1940 1.386 . S
C1941 C1945 1.393 . S
C1942 H1934 0.950 . S
C1942 C1940 1.391 . S
C1942 C1943 1.400 . S
C1943 C1942 1.400 . S
C1943 C1944 1.398 . S
C1943 C1949 1.491 . S
C1944 H1935 0.950 . S
C1944 C1943 1.398 . S
C1944 C1945 1.391 . S
C1945 H1933 0.950 . S
C1945 C1941 1.393 . S
C1945 C1944 1.391 . S
C1946 H1936 0.950 . S
C1946 C1947 1.386 . S
C1946 C1948 1.391 . S
C1947 C1946 1.386 . S
C1947 C1951 1.393 . S
C1948 H1937 0.950 . S
C1948 C1946 1.391 . S
C1948 C1949 1.400 . S
C1949 C1943 1.491 . S
C1949 C1948 1.400 . S
C1949 C1950 1.398 . S
C1950 H1938 0.950 . S
C1950 C1949 1.398 . S
C1950 C1951 1.391 . S
C1951 H1939 0.950 . S
C1951 C1947 1.393 . S
C1951 C1950 1.391 . S
H1952 C1960 0.950 . S
H1953 C1965 0.950 . S
H1954 C1962 0.950 . S
H1955 C1964 0.950 . S
H1956 C1966 0.950 . S
H1957 C1968 0.950 . S
H1958 C1970 0.950 . S
H1959 C1971 0.950 . S
C1960 H1952 0.950 . S
C1960 C1961 1.386 . S
C1960 C1962 1.391 . S
C1961 C1960 1.386 . S
C1961 C1965 1.393 . S
C1962 H1954 0.950 . S
C1962 C1960 1.391 . S
C1962 C1963 1.400 . S
C1963 C1962 1.400 . S
C1963 C1964 1.398 . S
C1963 C1969 1.491 . S
C1964 H1955 0.950 . S
C1964 C1963 1.398 . S
C1964 C1965 1.391 . S
C1965 H1953 0.950 . S
C1965 C1961 1.393 . S
C1965 C1964 1.391 . S
C1966 H1956 0.950 . S
C1966 C1967 1.386 . S
C1966 C1968 1.391 . S
C1967 C1966 1.386 . S
C1967 C1971 1.393 . S
C1968 H1957 0.950 . S
C1968 C1966 1.391 . S
C1968 C1969 1.400 . S
C1969 C1963 1.491 . S
C1969 C1968 1.400 . S
C1969 C1970 1.398 . S
C1970 H1958 0.950 . S
C1970 C1969 1.398 . S
C1970 C1971 1.391 . S
C1971 H1959 0.950 . S
C1971 C1967 1.393 . S
C1971 C1970 1.391 . S
H1972 C1980 0.950 . S
H1973 C1985 0.950 . S
H1974 C1982 0.950 . S
H1975 C1984 0.950 . S
H1976 C1986 0.950 . S
H1977 C1988 0.950 . S
H1978 C1990 0.950 . S
H1979 C1991 0.950 . S
C1980 H1972 0.950 . S
C1980 C1981 1.386 . S
C1980 C1982 1.391 . S
C1981 C1980 1.386 . S
C1981 C1985 1.393 . S
C1982 H1974 0.950 . S
C1982 C1980 1.391 . S
C1982 C1983 1.400 . S
C1983 C1982 1.400 . S
C1983 C1984 1.398 . S
C1983 C1989 1.491 . S
C1984 H1975 0.950 . S
C1984 C1983 1.398 . S
C1984 C1985 1.391 . S
C1985 H1973 0.950 . S
C1985 C1981 1.393 . S
C1985 C1984 1.391 . S
C1986 H1976 0.950 . S
C1986 C1987 1.386 . S
C1986 C1988 1.391 . S
C1987 C1986 1.386 . S
C1987 C1991 1.393 . S
C1988 H1977 0.950 . S
C1988 C1986 1.391 . S
C1988 C1989 1.400 . S
C1989 C1983 1.491 . S
C1989 C1988 1.400 . S
C1989 C1990 1.398 . S
C1990 H1978 0.950 . S
C1990 C1989 1.398 . S
C1990 C1991 1.391 . S
C1991 H1979 0.950 . S
C1991 C1987 1.393 . S
C1991 C1990 1.391 . S
H1992 C2000 0.950 . S
H1993 C2005 0.950 . S
H1994 C2002 0.950 . S
H1995 C2004 0.950 . S
H1996 C2006 0.950 . S
H1997 C2008 0.950 . S
H1998 C2010 0.950 . S
H1999 C2011 0.950 . S
C2000 H1992 0.950 . S
C2000 C2001 1.386 . S
C2000 C2002 1.391 . S
C2001 C2000 1.386 . S
C2001 C2005 1.393 . S
C2002 H1994 0.950 . S
C2002 C2000 1.391 . S
C2002 C2003 1.400 . S
C2003 C2002 1.400 . S
C2003 C2004 1.398 . S
C2003 C2009 1.491 . S
C2004 H1995 0.950 . S
C2004 C2003 1.398 . S
C2004 C2005 1.391 . S
C2005 H1993 0.950 . S
C2005 C2001 1.393 . S
C2005 C2004 1.391 . S
C2006 H1996 0.950 . S
C2006 C2007 1.386 . S
C2006 C2008 1.391 . S
C2007 C2006 1.386 . S
C2007 C2011 1.393 . S
C2008 H1997 0.950 . S
C2008 C2006 1.391 . S
C2008 C2009 1.400 . S
C2009 C2003 1.491 . S
C2009 C2008 1.400 . S
C2009 C2010 1.398 . S
C2010 H1998 0.950 . S
C2010 C2009 1.398 . S
C2010 C2011 1.391 . S
C2011 H1999 0.950 . S
C2011 C2007 1.393 . S
C2011 C2010 1.391 . S
H2012 C2020 0.950 . S
H2013 C2025 0.950 . S
H2014 C2022 0.950 . S
H2015 C2024 0.950 . S
H2016 C2026 0.950 . S
H2017 C2028 0.950 . S
H2018 C2030 0.950 . S
H2019 C2031 0.950 . S
C2020 H2012 0.950 . S
C2020 C2021 1.386 . S
C2020 C2022 1.391 . S
C2021 C2020 1.386 . S
C2021 C2025 1.393 . S
C2022 H2014 0.950 . S
C2022 C2020 1.391 . S
C2022 C2023 1.400 . S
C2023 C2022 1.400 . S
C2023 C2024 1.398 . S
C2023 C2029 1.491 . S
C2024 H2015 0.950 . S
C2024 C2023 1.398 . S
C2024 C2025 1.391 . S
C2025 H2013 0.950 . S
C2025 C2021 1.393 . S
C2025 C2024 1.391 . S
C2026 H2016 0.950 . S
C2026 C2027 1.386 . S
C2026 C2028 1.391 1_455 S
C2027 C2026 1.386 . S
C2027 C2031 1.393 1_455 S
C2028 H2017 0.950 . S
C2028 C2026 1.391 1_655 S
C2028 C2029 1.400 . S
C2029 C2023 1.491 . S
C2029 C2028 1.400 . S
C2029 C2030 1.398 . S
C2030 H2018 0.950 . S
C2030 C2029 1.398 . S
C2030 C2031 1.391 . S
C2031 H2019 0.950 . S
C2031 C2027 1.393 1_655 S
C2031 C2030 1.391 . S
H2032 C2040 0.950 . S
H2033 C2045 0.950 . S
H2034 C2042 0.950 . S
H2035 C2044 0.950 . S
H2036 C2046 0.950 . S
H2037 C2048 0.950 . S
H2038 C2050 0.950 . S
H2039 C2051 0.950 . S
C2040 H2032 0.950 . S
C2040 C2041 1.386 . S
C2040 C2042 1.391 . S
C2041 C2040 1.386 . S
C2041 C2045 1.393 . S
C2042 H2034 0.950 . S
C2042 C2040 1.391 . S
C2042 C2043 1.400 . S
C2043 C2042 1.400 . S
C2043 C2044 1.398 . S
C2043 C2049 1.491 . S
C2044 H2035 0.950 . S
C2044 C2043 1.398 . S
C2044 C2045 1.391 . S
C2045 H2033 0.950 . S
C2045 C2041 1.393 . S
C2045 C2044 1.391 . S
C2046 H2036 0.950 . S
C2046 C2047 1.386 . S
C2046 C2048 1.391 . S
C2047 C2046 1.386 . S
C2047 C2051 1.393 . S
C2048 H2037 0.950 . S
C2048 C2046 1.391 . S
C2048 C2049 1.400 . S
C2049 C2043 1.491 . S
C2049 C2048 1.400 . S
C2049 C2050 1.398 . S
C2050 H2038 0.950 . S
C2050 C2049 1.398 . S
C2050 C2051 1.391 . S
C2051 H2039 0.950 . S
C2051 C2047 1.393 . S
C2051 C2050 1.391 . S
H2052 C2060 0.949 . S
H2053 C2065 0.950 . S
H2054 C2062 0.950 . S
H2055 C2064 0.950 . S
H2056 C2066 0.950 . S
H2057 C2068 0.950 . S
H2058 C2070 0.950 . S
H2059 C2071 0.950 . S
C2060 H2052 0.949 . S
C2060 C2061 1.353 1_655 S
C2060 C2062 1.426 . S
C2061 C2060 1.353 1_455 S
C2061 C2065 1.393 . S
C2062 H2054 0.950 . S
C2062 C2060 1.426 . S
C2062 C2063 1.400 . S
C2063 C2062 1.400 . S
C2063 C2064 1.398 . S
C2063 C2069 1.491 . S
C2064 H2055 0.950 . S
C2064 C2063 1.398 . S
C2064 C2065 1.391 1_655 S
C2065 H2053 0.950 . S
C2065 C2061 1.393 . S
C2065 C2064 1.391 1_455 S
C2066 H2056 0.950 . S
C2066 C2067 1.386 . S
C2066 C2068 1.391 . S
C2067 C2066 1.386 . S
C2067 C2071 1.393 . S
C2068 H2057 0.950 . S
C2068 C2066 1.391 . S
C2068 C2069 1.400 . S
C2069 C2063 1.491 . S
C2069 C2068 1.400 . S
C2069 C2070 1.398 . S
C2070 H2058 0.950 . S
C2070 C2069 1.398 . S
C2070 C2071 1.391 . S
C2071 H2059 0.950 . S
C2071 C2067 1.393 . S
C2071 C2070 1.391 . S
H2072 C2080 0.950 . S
H2073 C2085 0.950 . S
H2074 C2082 0.950 . S
H2075 C2084 0.950 . S
H2076 C2086 0.950 . S
H2077 C2088 0.950 . S
H2078 C2090 0.950 . S
H2079 C2091 0.950 . S
C2080 H2072 0.950 . S
C2080 C2081 1.386 . S
C2080 C2082 1.391 . S
C2081 C2080 1.386 . S
C2081 C2085 1.393 . S
C2082 H2074 0.950 . S
C2082 C2080 1.391 . S
C2082 C2083 1.400 . S
C2083 C2082 1.400 . S
C2083 C2084 1.398 . S
C2083 C2089 1.491 . S
C2084 H2075 0.950 . S
C2084 C2083 1.398 . S
C2084 C2085 1.391 . S
C2085 H2073 0.950 . S
C2085 C2081 1.393 . S
C2085 C2084 1.391 . S
C2086 H2076 0.950 . S
C2086 C2087 1.386 . S
C2086 C2088 1.391 . S
C2087 C2086 1.386 . S
C2087 C2091 1.393 . S
C2088 H2077 0.950 . S
C2088 C2086 1.391 . S
C2088 C2089 1.400 . S
C2089 C2083 1.491 . S
C2089 C2088 1.400 . S
C2089 C2090 1.398 . S
C2090 H2078 0.950 . S
C2090 C2089 1.398 . S
C2090 C2091 1.391 . S
C2091 H2079 0.950 . S
C2091 C2087 1.393 . S
C2091 C2090 1.391 . S
H2092 C2100 0.950 . S
H2093 C2105 0.950 . S
H2094 C2102 0.950 . S
H2095 C2104 0.950 . S
H2096 C2106 0.950 . S
H2097 C2108 0.950 . S
H2098 C2110 0.950 . S
H2099 C2111 0.950 . S
C2100 H2092 0.950 . S
C2100 C2101 1.386 . S
C2100 C2102 1.391 . S
C2101 C2100 1.386 . S
C2101 C2105 1.393 . S
C2102 H2094 0.950 . S
C2102 C2100 1.391 . S
C2102 C2103 1.400 . S
C2103 C2102 1.400 . S
C2103 C2104 1.398 . S
C2103 C2109 1.491 . S
C2104 H2095 0.950 . S
C2104 C2103 1.398 . S
C2104 C2105 1.391 . S
C2105 H2093 0.950 . S
C2105 C2101 1.393 . S
C2105 C2104 1.391 . S
C2106 H2096 0.950 . S
C2106 C2107 1.386 . S
C2106 C2108 1.391 . S
C2107 C2106 1.386 . S
C2107 C2111 1.393 . S
C2108 H2097 0.950 . S
C2108 C2106 1.391 . S
C2108 C2109 1.400 . S
C2109 C2103 1.491 . S
C2109 C2108 1.400 . S
C2109 C2110 1.398 . S
C2110 H2098 0.950 . S
C2110 C2109 1.398 . S
C2110 C2111 1.391 . S
C2111 H2099 0.950 . S
C2111 C2107 1.393 . S
C2111 C2110 1.391 . S
H2112 C2120 0.950 . S
H2113 C2125 0.950 . S
H2114 C2122 0.950 . S
H2115 C2124 0.950 . S
H2116 C2126 0.950 . S
H2117 C2128 0.950 . S
H2118 C2130 0.950 . S
H2119 C2131 0.950 . S
C2120 H2112 0.950 . S
C2120 C2121 1.386 . S
C2120 C2122 1.391 . S
C2121 C2120 1.386 . S
C2121 C2125 1.393 . S
C2122 H2114 0.950 . S
C2122 C2120 1.391 . S
C2122 C2123 1.400 . S
C2123 C2122 1.400 . S
C2123 C2124 1.398 . S
C2123 C2129 1.491 . S
C2124 H2115 0.950 . S
C2124 C2123 1.398 . S
C2124 C2125 1.391 . S
C2125 H2113 0.950 . S
C2125 C2121 1.393 . S
C2125 C2124 1.391 . S
C2126 H2116 0.950 . S
C2126 C2127 1.386 . S
C2126 C2128 1.391 . S
C2127 C2126 1.386 . S
C2127 C2131 1.393 . S
C2128 H2117 0.950 . S
C2128 C2126 1.391 . S
C2128 C2129 1.400 . S
C2129 C2123 1.491 . S
C2129 C2128 1.400 . S
C2129 C2130 1.398 . S
C2130 H2118 0.950 . S
C2130 C2129 1.398 . S
C2130 C2131 1.391 . S
C2131 H2119 0.950 . S
C2131 C2127 1.393 . S
C2131 C2130 1.391 . S
H2132 C2140 0.950 . S
H2133 C2145 0.950 . S
H2134 C2142 0.950 . S
H2135 C2144 0.950 . S
H2136 C2146 0.950 . S
H2137 C2148 0.950 . S
H2138 C2150 0.950 . S
H2139 C2151 0.950 . S
C2140 H2132 0.950 . S
C2140 C2141 1.386 . S
C2140 C2142 1.391 . S
C2141 C2140 1.386 . S
C2141 C2145 1.393 . S
C2142 H2134 0.950 . S
C2142 C2140 1.391 . S
C2142 C2143 1.400 . S
C2143 C2142 1.400 . S
C2143 C2144 1.398 . S
C2143 C2149 1.491 . S
C2144 H2135 0.950 . S
C2144 C2143 1.398 . S
C2144 C2145 1.391 . S
C2145 H2133 0.950 . S
C2145 C2141 1.393 . S
C2145 C2144 1.391 . S
C2146 H2136 0.950 . S
C2146 C2147 1.386 . S
C2146 C2148 1.391 . S
C2147 C2146 1.386 . S
C2147 C2151 1.393 . S
C2148 H2137 0.950 . S
C2148 C2146 1.391 . S
C2148 C2149 1.400 . S
C2149 C2143 1.491 . S
C2149 C2148 1.400 . S
C2149 C2150 1.398 . S
C2150 H2138 0.950 . S
C2150 C2149 1.398 . S
C2150 C2151 1.391 . S
C2151 H2139 0.950 . S
C2151 C2147 1.393 . S
C2151 C2150 1.391 . S
H2152 C2160 0.950 . S
H2153 C2165 0.950 . S
H2154 C2162 0.950 . S
H2155 C2164 0.950 . S
H2156 C2166 0.950 . S
H2157 C2168 0.950 . S
H2158 C2170 0.950 . S
H2159 C2171 0.950 . S
C2160 H2152 0.950 . S
C2160 C2161 1.386 . S
C2160 C2162 1.391 . S
C2161 C2160 1.386 . S
C2161 C2165 1.393 . S
C2162 H2154 0.950 . S
C2162 C2160 1.391 . S
C2162 C2163 1.400 . S
C2163 C2162 1.400 . S
C2163 C2164 1.398 . S
C2163 C2169 1.491 . S
C2164 H2155 0.950 . S
C2164 C2163 1.398 . S
C2164 C2165 1.391 . S
C2165 H2153 0.950 . S
C2165 C2161 1.393 . S
C2165 C2164 1.391 . S
C2166 H2156 0.950 . S
C2166 C2167 1.386 . S
C2166 C2168 1.391 . S
C2167 C2166 1.386 . S
C2167 C2171 1.393 . S
C2168 H2157 0.950 . S
C2168 C2166 1.391 . S
C2168 C2169 1.400 . S
C2169 C2163 1.491 . S
C2169 C2168 1.400 . S
C2169 C2170 1.398 . S
C2170 H2158 0.950 . S
C2170 C2169 1.398 . S
C2170 C2171 1.391 . S
C2171 H2159 0.950 . S
C2171 C2167 1.393 . S
C2171 C2170 1.391 . S
H2172 C2180 0.950 . S
H2173 C2185 0.950 . S
H2174 C2182 0.950 . S
H2175 C2184 0.950 1_554 S
H2176 C2186 0.950 . S
H2177 C2188 0.950 . S
H2178 C2190 0.950 1_556 S
H2179 C2191 0.950 . S
C2180 H2172 0.950 . S
C2180 C2181 1.386 . S
C2180 C2182 1.391 . S
C2181 C2180 1.386 . S
C2181 C2185 1.393 . S
C2182 H2174 0.950 . S
C2182 C2180 1.391 . S
C2182 C2183 1.400 . S
C2183 C2182 1.400 . S
C2183 C2184 1.398 . S
C2183 C2189 1.491 1_556 S
C2184 H2175 0.950 1_556 S
C2184 C2183 1.398 . S
C2184 C2185 1.391 . S
C2185 H2173 0.950 . S
C2185 C2181 1.393 . S
C2185 C2184 1.391 . S
C2186 H2176 0.950 . S
C2186 C2187 1.386 . S
C2186 C2188 1.391 . S
C2187 C2186 1.386 . S
C2187 C2191 1.393 . S
C2188 H2177 0.950 . S
C2188 C2186 1.391 . S
C2188 C2189 1.400 . S
C2189 C2183 1.491 1_554 S
C2189 C2188 1.400 . S
C2189 C2190 1.398 . S
C2190 H2178 0.950 1_554 S
C2190 C2189 1.398 . S
C2190 C2191 1.391 . S
C2191 H2179 0.950 . S
C2191 C2187 1.393 . S
C2191 C2190 1.391 . S
H2192 C2200 0.950 . S
H2193 C2205 0.950 . S
H2194 C2202 0.950 . S
H2195 C2204 0.950 . S
H2196 C2206 0.950 . S
H2197 C2208 0.950 . S
H2198 C2210 0.950 . S
H2199 C2211 0.950 . S
C2200 H2192 0.950 . S
C2200 C2201 1.386 . S
C2200 C2202 1.391 . S
C2201 C2200 1.386 . S
C2201 C2205 1.393 . S
C2202 H2194 0.950 . S
C2202 C2200 1.391 . S
C2202 C2203 1.400 . S
C2203 C2202 1.400 . S
C2203 C2204 1.398 . S
C2203 C2209 1.491 . S
C2204 H2195 0.950 . S
C2204 C2203 1.398 . S
C2204 C2205 1.391 . S
C2205 H2193 0.950 . S
C2205 C2201 1.393 . S
C2205 C2204 1.391 . S
C2206 H2196 0.950 . S
C2206 C2207 1.386 . S
C2206 C2208 1.391 . S
C2207 C2206 1.386 . S
C2207 C2211 1.393 . S
C2208 H2197 0.950 . S
C2208 C2206 1.391 . S
C2208 C2209 1.400 . S
C2209 C2203 1.491 . S
C2209 C2208 1.400 . S
C2209 C2210 1.398 . S
C2210 H2198 0.950 . S
C2210 C2209 1.398 . S
C2210 C2211 1.391 . S
C2211 H2199 0.950 . S
C2211 C2207 1.393 . S
C2211 C2210 1.391 . S
H2212 C2220 0.950 . S
H2213 C2225 0.950 . S
H2214 C2222 0.950 . S
H2215 C2224 0.950 . S
H2216 C2226 0.950 . S
H2217 C2228 0.950 . S
H2218 C2230 0.950 . S
H2219 C2231 0.950 . S
C2220 H2212 0.950 . S
C2220 C2221 1.386 . S
C2220 C2222 1.391 . S
C2221 C2220 1.386 . S
C2221 C2225 1.393 . S
C2222 H2214 0.950 . S
C2222 C2220 1.391 . S
C2222 C2223 1.400 . S
C2223 C2222 1.400 . S
C2223 C2224 1.398 . S
C2223 C2229 1.491 . S
C2224 H2215 0.950 . S
C2224 C2223 1.398 . S
C2224 C2225 1.391 . S
C2225 H2213 0.950 . S
C2225 C2221 1.393 . S
C2225 C2224 1.391 . S
C2226 H2216 0.950 . S
C2226 C2227 1.386 . S
C2226 C2228 1.391 . S
C2227 C2226 1.386 . S
C2227 C2231 1.393 . S
C2228 H2217 0.950 . S
C2228 C2226 1.391 . S
C2228 C2229 1.400 . S
C2229 C2223 1.491 . S
C2229 C2228 1.400 . S
C2229 C2230 1.398 . S
C2230 H2218 0.950 . S
C2230 C2229 1.398 . S
C2230 C2231 1.391 . S
C2231 H2219 0.950 . S
C2231 C2227 1.393 . S
C2231 C2230 1.391 . S
H2232 C2240 0.950 . S
H2233 C2245 0.950 . S
H2234 C2242 0.950 . S
H2235 C2244 0.950 . S
H2236 C2246 0.950 . S
H2237 C2248 0.950 . S
H2238 C2250 0.950 . S
H2239 C2251 0.950 . S
C2240 H2232 0.950 . S
C2240 C2241 1.386 . S
C2240 C2242 1.391 . S
C2241 C2240 1.386 . S
C2241 C2245 1.393 . S
C2242 H2234 0.950 . S
C2242 C2240 1.391 . S
C2242 C2243 1.400 . S
C2243 C2242 1.400 . S
C2243 C2244 1.398 . S
C2243 C2249 1.491 . S
C2244 H2235 0.950 . S
C2244 C2243 1.398 . S
C2244 C2245 1.391 . S
C2245 H2233 0.950 . S
C2245 C2241 1.393 . S
C2245 C2244 1.391 . S
C2246 H2236 0.950 . S
C2246 C2247 1.386 . S
C2246 C2248 1.391 . S
C2247 C2246 1.386 . S
C2247 C2251 1.393 . S
C2248 H2237 0.950 . S
C2248 C2246 1.391 . S
C2248 C2249 1.400 . S
C2249 C2243 1.491 . S
C2249 C2248 1.400 . S
C2249 C2250 1.398 . S
C2250 H2238 0.950 . S
C2250 C2249 1.398 . S
C2250 C2251 1.391 . S
C2251 H2239 0.950 . S
C2251 C2247 1.393 . S
C2251 C2250 1.391 . S
H2252 C2260 0.950 . S
H2253 C2265 0.950 . S
H2254 C2262 0.950 . S
H2255 C2264 0.950 1_556 S
H2256 C2266 0.950 . S
H2257 C2268 0.950 . S
H2258 C2270 0.950 1_554 S
H2259 C2271 0.950 . S
C2260 H2252 0.950 . S
C2260 C2261 1.386 . S
C2260 C2262 1.391 . S
C2261 C2260 1.386 . S
C2261 C2265 1.393 . S
C2262 H2254 0.950 . S
C2262 C2260 1.391 . S
C2262 C2263 1.400 . S
C2263 C2262 1.400 . S
C2263 C2264 1.398 . S
C2263 C2269 1.491 1_554 S
C2264 H2255 0.950 1_554 S
C2264 C2263 1.398 . S
C2264 C2265 1.391 . S
C2265 H2253 0.950 . S
C2265 C2261 1.393 . S
C2265 C2264 1.391 . S
C2266 H2256 0.950 . S
C2266 C2267 1.386 . S
C2266 C2268 1.391 . S
C2267 C2266 1.386 . S
C2267 C2271 1.393 . S
C2268 H2257 0.950 . S
C2268 C2266 1.391 . S
C2268 C2269 1.400 . S
C2269 C2263 1.491 1_556 S
C2269 C2268 1.400 . S
C2269 C2270 1.398 . S
C2270 H2258 0.950 1_556 S
C2270 C2269 1.398 . S
C2270 C2271 1.391 . S
C2271 H2259 0.950 . S
C2271 C2267 1.393 . S
C2271 C2270 1.391 . S
H2272 C2280 0.950 . S
H2273 C2285 0.950 . S
H2274 C2282 0.950 . S
H2275 C2284 0.950 . S
H2276 C2286 0.950 . S
H2277 C2288 0.950 . S
H2278 C2290 0.950 . S
H2279 C2291 0.950 . S
C2280 H2272 0.950 . S
C2280 C2281 1.386 . S
C2280 C2282 1.391 . S
C2281 C2280 1.386 . S
C2281 C2285 1.393 . S
C2282 H2274 0.950 . S
C2282 C2280 1.391 . S
C2282 C2283 1.400 . S
C2283 C2282 1.400 . S
C2283 C2284 1.398 . S
C2283 C2289 1.491 1_565 S
C2284 H2275 0.950 . S
C2284 C2283 1.398 . S
C2284 C2285 1.391 . S
C2285 H2273 0.950 . S
C2285 C2281 1.393 . S
C2285 C2284 1.391 . S
C2286 H2276 0.950 . S
C2286 C2287 1.386 . S
C2286 C2288 1.391 . S
C2287 C2286 1.386 . S
C2287 C2291 1.393 . S
C2288 H2277 0.950 . S
C2288 C2286 1.391 . S
C2288 C2289 1.400 . S
C2289 C2283 1.491 1_545 S
C2289 C2288 1.400 . S
C2289 C2290 1.398 . S
C2290 H2278 0.950 . S
C2290 C2289 1.398 . S
C2290 C2291 1.391 . S
C2291 H2279 0.950 . S
C2291 C2287 1.393 . S
C2291 C2290 1.391 . S
H2292 C2300 0.950 . S
H2293 C2305 0.950 . S
H2294 C2302 0.950 1_556 S
H2295 C2304 0.950 . S
H2296 C2306 0.950 . S
H2297 C2308 0.950 1_554 S
H2298 C2310 0.950 . S
H2299 C2311 0.950 . S
C2300 H2292 0.950 . S
C2300 C2301 1.386 . S
C2300 C2302 1.391 . S
C2301 C2300 1.386 . S
C2301 C2305 1.393 . S
C2302 H2294 0.950 1_554 S
C2302 C2300 1.391 . S
C2302 C2303 1.400 . S
C2303 C2302 1.400 . S
C2303 C2304 1.398 . S
C2303 C2309 1.491 1_554 S
C2304 H2295 0.950 . S
C2304 C2303 1.398 . S
C2304 C2305 1.391 . S
C2305 H2293 0.950 . S
C2305 C2301 1.393 . S
C2305 C2304 1.391 . S
C2306 H2296 0.950 . S
C2306 C2307 1.386 . S
C2306 C2308 1.391 . S
C2307 C2306 1.386 . S
C2307 C2311 1.393 . S
C2308 H2297 0.950 1_556 S
C2308 C2306 1.391 . S
C2308 C2309 1.400 . S
C2309 C2303 1.491 1_556 S
C2309 C2308 1.400 . S
C2309 C2310 1.398 . S
C2310 H2298 0.950 . S
C2310 C2309 1.398 . S
C2310 C2311 1.391 . S
C2311 H2299 0.950 . S
C2311 C2307 1.393 . S
C2311 C2310 1.391 . S
H2312 C2320 0.950 . S
H2313 C2325 0.950 . S
H2314 C2322 0.950 . S
H2315 C2324 0.950 . S
H2316 C2326 0.950 . S
H2317 C2328 0.950 . S
H2318 C2330 0.950 . S
H2319 C2331 0.950 . S
C2320 H2312 0.950 . S
C2320 C2321 1.386 . S
C2320 C2322 1.391 . S
C2321 C2320 1.386 . S
C2321 C2325 1.393 . S
C2322 H2314 0.950 . S
C2322 C2320 1.391 . S
C2322 C2323 1.400 . S
C2323 C2322 1.400 . S
C2323 C2324 1.398 . S
C2323 C2329 1.491 1_545 S
C2324 H2315 0.950 . S
C2324 C2323 1.398 . S
C2324 C2325 1.391 . S
C2325 H2313 0.950 . S
C2325 C2321 1.393 . S
C2325 C2324 1.391 . S
C2326 H2316 0.950 . S
C2326 C2327 1.386 . S
C2326 C2328 1.391 . S
C2327 C2326 1.386 . S
C2327 C2331 1.393 . S
C2328 H2317 0.950 . S
C2328 C2326 1.391 . S
C2328 C2329 1.400 . S
C2329 C2323 1.491 1_565 S
C2329 C2328 1.400 . S
C2329 C2330 1.398 . S
C2330 H2318 0.950 . S
C2330 C2329 1.398 . S
C2330 C2331 1.391 . S
C2331 H2319 0.950 . S
C2331 C2327 1.393 . S
C2331 C2330 1.391 . S
H2332 C2340 0.950 . S
H2333 C2345 0.950 . S
H2334 C2342 0.950 . S
H2335 C2344 0.950 . S
H2336 C2346 0.950 . S
H2337 C2348 0.950 . S
H2338 C2350 0.950 . S
H2339 C2351 0.950 . S
C2340 H2332 0.950 . S
C2340 C2341 1.386 . S
C2340 C2342 1.391 . S
C2341 C2340 1.386 . S
C2341 C2345 1.393 . S
C2342 H2334 0.950 . S
C2342 C2340 1.391 . S
C2342 C2343 1.400 . S
C2343 C2342 1.400 . S
C2343 C2344 1.398 . S
C2343 C2349 1.491 . S
C2344 H2335 0.950 . S
C2344 C2343 1.398 . S
C2344 C2345 1.391 . S
C2345 H2333 0.950 . S
C2345 C2341 1.393 . S
C2345 C2344 1.391 . S
C2346 H2336 0.950 . S
C2346 C2347 1.386 . S
C2346 C2348 1.391 . S
C2347 C2346 1.386 . S
C2347 C2351 1.393 . S
C2348 H2337 0.950 . S
C2348 C2346 1.391 . S
C2348 C2349 1.400 . S
C2349 C2343 1.491 . S
C2349 C2348 1.400 . S
C2349 C2350 1.398 . S
C2350 H2338 0.950 . S
C2350 C2349 1.398 . S
C2350 C2351 1.391 . S
C2351 H2339 0.950 . S
C2351 C2347 1.393 . S
C2351 C2350 1.391 . S
H2352 C2360 0.950 . S
H2353 C2365 0.950 . S
H2354 C2362 0.950 . S
H2355 C2364 0.950 . S
H2356 C2366 0.950 . S
H2357 C2368 0.950 . S
H2358 C2370 0.950 . S
H2359 C2371 0.950 . S
C2360 H2352 0.950 . S
C2360 C2361 1.386 . S
C2360 C2362 1.391 . S
C2361 C2360 1.386 . S
C2361 C2365 1.393 . S
C2362 H2354 0.950 . S
C2362 C2360 1.391 . S
C2362 C2363 1.400 . S
C2363 C2362 1.400 . S
C2363 C2364 1.398 . S
C2363 C2369 1.491 1_545 S
C2364 H2355 0.950 . S
C2364 C2363 1.398 . S
C2364 C2365 1.391 . S
C2365 H2353 0.950 . S
C2365 C2361 1.393 . S
C2365 C2364 1.391 . S
C2366 H2356 0.950 . S
C2366 C2367 1.386 . S
C2366 C2368 1.391 . S
C2367 C2366 1.386 . S
C2367 C2371 1.393 . S
C2368 H2357 0.950 . S
C2368 C2366 1.391 . S
C2368 C2369 1.400 . S
C2369 C2363 1.491 1_565 S
C2369 C2368 1.400 . S
C2369 C2370 1.398 . S
C2370 H2358 0.950 . S
C2370 C2369 1.398 . S
C2370 C2371 1.391 . S
C2371 H2359 0.950 . S
C2371 C2367 1.393 . S
C2371 C2370 1.391 . S
H2372 C2380 0.950 . S
H2373 C2385 0.950 . S
H2374 C2382 0.950 . S
H2375 C2384 0.950 1_556 S
H2376 C2386 0.950 . S
H2377 C2388 0.950 . S
H2378 C2390 0.950 1_554 S
H2379 C2391 0.950 . S
C2380 H2372 0.950 . S
C2380 C2381 1.386 . S
C2380 C2382 1.391 . S
C2381 C2380 1.386 . S
C2381 C2385 1.393 . S
C2382 H2374 0.950 . S
C2382 C2380 1.391 . S
C2382 C2383 1.400 . S
C2383 C2382 1.400 . S
C2383 C2384 1.398 . S
C2383 C2389 1.491 1_554 S
C2384 H2375 0.950 1_554 S
C2384 C2383 1.398 . S
C2384 C2385 1.391 . S
C2385 H2373 0.950 . S
C2385 C2381 1.393 . S
C2385 C2384 1.391 . S
C2386 H2376 0.950 . S
C2386 C2387 1.386 . S
C2386 C2388 1.391 . S
C2387 C2386 1.386 . S
C2387 C2391 1.393 . S
C2388 H2377 0.950 . S
C2388 C2386 1.391 . S
C2388 C2389 1.400 . S
C2389 C2383 1.491 1_556 S
C2389 C2388 1.400 . S
C2389 C2390 1.398 . S
C2390 H2378 0.950 1_556 S
C2390 C2389 1.398 . S
C2390 C2391 1.391 . S
C2391 H2379 0.950 . S
C2391 C2387 1.393 . S
C2391 C2390 1.391 . S
H2392 C2400 0.950 . S
H2393 C2405 0.950 . S
H2394 C2402 0.950 . S
H2395 C2404 0.950 . S
H2396 C2406 0.950 . S
H2397 C2408 0.950 . S
H2398 C2410 0.950 . S
H2399 C2411 0.950 . S
C2400 H2392 0.950 . S
C2400 C2401 1.386 . S
C2400 C2402 1.391 . S
C2401 C2400 1.386 . S
C2401 C2405 1.393 . S
C2402 H2394 0.950 . S
C2402 C2400 1.391 . S
C2402 C2403 1.400 . S
C2403 C2402 1.400 . S
C2403 C2404 1.398 . S
C2403 C2409 1.491 1_545 S
C2404 H2395 0.950 . S
C2404 C2403 1.398 . S
C2404 C2405 1.391 . S
C2405 H2393 0.950 . S
C2405 C2401 1.393 . S
C2405 C2404 1.391 . S
C2406 H2396 0.950 . S
C2406 C2407 1.386 . S
C2406 C2408 1.391 . S
C2407 C2406 1.386 . S
C2407 C2411 1.393 . S
C2408 H2397 0.950 . S
C2408 C2406 1.391 . S
C2408 C2409 1.400 . S
C2409 C2403 1.491 1_565 S
C2409 C2408 1.400 . S
C2409 C2410 1.398 . S
C2410 H2398 0.950 . S
C2410 C2409 1.398 . S
C2410 C2411 1.391 . S
C2411 H2399 0.950 . S
C2411 C2407 1.393 . S
C2411 C2410 1.391 . S
H2412 C2420 0.950 . S
H2413 C2425 0.950 . S
H2414 C2422 0.950 . S
H2415 C2424 0.950 . S
H2416 C2426 0.950 . S
H2417 C2428 0.950 . S
H2418 C2430 0.950 . S
H2419 C2431 0.950 . S
C2420 H2412 0.950 . S
C2420 C2421 1.386 . S
C2420 C2422 1.391 . S
C2421 C2420 1.386 . S
C2421 C2425 1.393 . S
C2422 H2414 0.950 . S
C2422 C2420 1.391 . S
C2422 C2423 1.400 . S
C2423 C2422 1.400 . S
C2423 C2424 1.398 . S
C2423 C2429 1.491 . S
C2424 H2415 0.950 . S
C2424 C2423 1.398 . S
C2424 C2425 1.391 . S
C2425 H2413 0.950 . S
C2425 C2421 1.393 . S
C2425 C2424 1.391 . S
C2426 H2416 0.950 . S
C2426 C2427 1.386 . S
C2426 C2428 1.391 . S
C2427 C2426 1.386 . S
C2427 C2431 1.393 . S
C2428 H2417 0.950 . S
C2428 C2426 1.391 . S
C2428 C2429 1.400 . S
C2429 C2423 1.491 . S
C2429 C2428 1.400 . S
C2429 C2430 1.398 . S
C2430 H2418 0.950 . S
C2430 C2429 1.398 . S
C2430 C2431 1.391 . S
C2431 H2419 0.950 . S
C2431 C2427 1.393 . S
C2431 C2430 1.391 . S
C1161 C14 1.216 . S
C1167 C760 1.250 . S
C1181 C806 1.214 . S
C1187 C40 1.247 . S
C1201 C86 1.225 . S
C1207 C832 1.243 . S
C1221 C734 1.221 . S
C1227 C112 1.244 . S
C1241 C158 1.232 . S
C1247 C688 1.243 . S
C1261 C184 1.252 . S
C1267 C590 1.209 . S
C1281 C616 1.249 . S
C1287 C230 1.220 . S
C1301 C256 1.241 . S
C1307 C662 1.231 . S
C1321 C302 1.330 . S
C1327 C1058 1.326 . S
C1341 C338 1.315 . S
C1347 C1094 1.317 . S
C1361 C1130 1.327 . S
C1367 C374 1.328 . S
C1381 C1022 1.319 . S
C1387 C410 1.318 . S
C1401 C446 1.334 . S
C1407 C986 1.334 . S
C1421 C878 1.330 . S
C1427 C482 1.330 . S
C1441 C518 1.324 . S
C1447 C914 1.319 . S
C1461 C950 1.327 . S
C1467 C554 1.327 . S
C1481 C3 1.392 . S
C1487 C326 1.402 . S
C1501 C38 1.308 . S
C1507 C938 1.370 . S
C1521 C398 1.395 . S
C1527 C75 1.396 . S
C1541 C110 1.305 . S
C1547 C866 1.373 . S
C1561 C147 1.384 . S
C1567 C542 1.406 . S
C1581 C1010 1.362 . S
C1587 C182 1.331 . S
C1601 C470 1.403 . S
C1607 C219 1.378 . S
C1621 C1082 1.372 . S
C1627 C254 1.329 . S
C1641 C291 1.261 . S
C1647 C39 1.261 . S
C1661 C650 1.214 . S
C1667 C327 1.221 . S
C1681 C111 1.262 . S
C1687 C363 1.245 . S
C1701 C399 1.222 . S
C1707 C578 1.221 . S
C1721 C255 1.265 . S
C1727 C435 1.246 . S
C1741 C722 1.221 . S
C1747 C471 1.212 . S
C1761 C183 1.265 . S
C1767 C507 1.258 . S
C1781 C543 1.220 . S
C1787 C794 1.215 . S
C1801 C902 1.402 . S
C1807 C579 1.378 . S
C1821 C362 1.378 . S
C1827 C614 1.308 . S
C1841 C974 1.396 . S
C1847 C651 1.383 . S
C1861 C686 1.334 . S
C1867 C290 1.362 . S
C1881 C1118 1.395 . S
C1887 C723 1.396 . S
C1901 C434 1.378 . S
C1907 C758 1.309 . S
C1921 C1046 1.397 . S
C1927 C795 1.382 . S
C1941 C830 1.305 . S
C1947 C506 1.373 . S
C1961 C867 1.246 . S
C1967 C615 1.265 . S
C1981 C74 1.218 . S
C1987 C903 1.225 . S
C2001 C939 1.245 . S
C2007 C687 1.263 . S
C2021 C975 1.217 . S
C2027 C2 1.225 . S
C2041 C1011 1.260 . S
C2047 C831 1.263 . S
C2061 C146 1.225 . S
C2067 C1047 1.218 . S
C2081 C759 1.259 . S
C2087 C1083 1.250 . S
C2101 C1119 1.210 . S
C2107 C218 1.229 . S
C2121 C4 1.281 . S
C2127 C148 1.271 . S
C2141 C50 1.198 . S
C2147 C194 1.217 . S
C2161 C220 1.282 . S
C2167 C76 1.271 . S
C2181 C266 1.195 . S
C2187 C122 1.202 . S
C2201 C436 1.182 . S
C2207 C292 1.190 . S
C2221 C472 1.241 . S
C2227 C328 1.225 . S
C2241 C508 1.189 . S
C2247 C364 1.182 . S
C2261 C544 1.238 . S
C2267 C400 1.245 . S
C2281 C580 1.289 . S
C2287 C724 1.274 . S
C2301 C626 1.205 . S
C2307 C770 1.195 . S
C2321 C652 1.296 . S
C2327 C796 1.301 . S
C2341 C842 1.231 . S
C2347 C698 1.211 . S
C2361 C868 1.202 . S
C2367 C1012 1.211 . S
C2381 C1048 1.236 . S
C2387 C904 1.246 . S
C2401 C1084 1.195 . S
C2407 C940 1.183 . S
C2421 C1120 1.245 . S
C2427 C976 1.235 . S
