# Generated by pormake.
# Topology unn, (4)-cn, num edge types: 1
# Building blocks:
#     Node 0, Type 0, BuildingBlock: NAWXER_clean_sbu_0, # of connection points: 4
#     Node 1, Type 0, BuildingBlock: NAWXER_clean_sbu_0, # of connection points: 4
#     Node 2, Type 0, BuildingBlock: NAWXER_clean_sbu_0, # of connection points: 4
#     Node 3, Type 0, BuildingBlock: NAWXER_clean_sbu_0, # of connection points: 4
#     Node 4, Type 0, BuildingBlock: NAWXER_clean_sbu_0, # of connection points: 4
#     Node 5, Type 0, BuildingBlock: NAWXER_clean_sbu_0, # of connection points: 4
#     Node 6, Type 0, BuildingBlock: NAWXER_clean_sbu_0, # of connection points: 4
#     Node 7, Type 0, BuildingBlock: NAWXER_clean_sbu_0, # of connection points: 4
#     Node 8, Type 0, BuildingBlock: NAWXER_clean_sbu_0, # of connection points: 4
#     Node 9, Type 0, BuildingBlock: NAWXER_clean_sbu_0, # of connection points: 4
#     Node 10, Type 0, BuildingBlock: NAWXER_clean_sbu_0, # of connection points: 4
#     Node 11, Type 0, BuildingBlock: NAWXER_clean_sbu_0, # of connection points: 4
#     Node 12, Type 0, BuildingBlock: NAWXER_clean_sbu_0, # of connection points: 4
#     Node 13, Type 0, BuildingBlock: NAWXER_clean_sbu_0, # of connection points: 4
#     Node 14, Type 0, BuildingBlock: NAWXER_clean_sbu_0, # of connection points: 4
#     Node 15, Type 0, BuildingBlock: NAWXER_clean_sbu_0, # of connection points: 4
#     Node 16, Type 0, BuildingBlock: NAWXER_clean_sbu_0, # of connection points: 4
#     Node 17, Type 0, BuildingBlock: NAWXER_clean_sbu_0, # of connection points: 4
#     Edge 18, Type (0, 0), BuildingBlock: ZUJKAS_clean_linker_0, # of connection points: 2
#     Edge 19, Type (0, 0), BuildingBlock: ZUJKAS_clean_linker_0, # of connection points: 2
#     Edge 20, Type (0, 0), BuildingBlock: ZUJKAS_clean_linker_0, # of connection points: 2
#     Edge 21, Type (0, 0), BuildingBlock: ZUJKAS_clean_linker_0, # of connection points: 2
#     Edge 22, Type (0, 0), BuildingBlock: ZUJKAS_clean_linker_0, # of connection points: 2
#     Edge 23, Type (0, 0), BuildingBlock: ZUJKAS_clean_linker_0, # of connection points: 2
#     Edge 24, Type (0, 0), BuildingBlock: ZUJKAS_clean_linker_0, # of connection points: 2
#     Edge 25, Type (0, 0), BuildingBlock: ZUJKAS_clean_linker_0, # of connection points: 2
#     Edge 26, Type (0, 0), BuildingBlock: ZUJKAS_clean_linker_0, # of connection points: 2
#     Edge 27, Type (0, 0), BuildingBlock: ZUJKAS_clean_linker_0, # of connection points: 2
#     Edge 28, Type (0, 0), BuildingBlock: ZUJKAS_clean_linker_0, # of connection points: 2
#     Edge 29, Type (0, 0), BuildingBlock: ZUJKAS_clean_linker_0, # of connection points: 2
#     Edge 30, Type (0, 0), BuildingBlock: ZUJKAS_clean_linker_0, # of connection points: 2
#     Edge 31, Type (0, 0), BuildingBlock: ZUJKAS_clean_linker_0, # of connection points: 2
#     Edge 32, Type (0, 0), BuildingBlock: ZUJKAS_clean_linker_0, # of connection points: 2
#     Edge 33, Type (0, 0), BuildingBlock: ZUJKAS_clean_linker_0, # of connection points: 2
#     Edge 34, Type (0, 0), BuildingBlock: ZUJKAS_clean_linker_0, # of connection points: 2
#     Edge 35, Type (0, 0), BuildingBlock: ZUJKAS_clean_linker_0, # of connection points: 2
#     Edge 36, Type (0, 0), BuildingBlock: ZUJKAS_clean_linker_0, # of connection points: 2
#     Edge 37, Type (0, 0), BuildingBlock: ZUJKAS_clean_linker_0, # of connection points: 2
#     Edge 38, Type (0, 0), BuildingBlock: ZUJKAS_clean_linker_0, # of connection points: 2
#     Edge 39, Type (0, 0), BuildingBlock: ZUJKAS_clean_linker_0, # of connection points: 2
#     Edge 40, Type (0, 0), BuildingBlock: ZUJKAS_clean_linker_0, # of connection points: 2
#     Edge 41, Type (0, 0), BuildingBlock: ZUJKAS_clean_linker_0, # of connection points: 2
#     Edge 42, Type (0, 0), BuildingBlock: ZUJKAS_clean_linker_0, # of connection points: 2
#     Edge 43, Type (0, 0), BuildingBlock: ZUJKAS_clean_linker_0, # of connection points: 2
#     Edge 44, Type (0, 0), BuildingBlock: ZUJKAS_clean_linker_0, # of connection points: 2
#     Edge 45, Type (0, 0), BuildingBlock: ZUJKAS_clean_linker_0, # of connection points: 2
#     Edge 46, Type (0, 0), BuildingBlock: ZUJKAS_clean_linker_0, # of connection points: 2
#     Edge 47, Type (0, 0), BuildingBlock: ZUJKAS_clean_linker_0, # of connection points: 2
#     Edge 48, Type (0, 0), BuildingBlock: ZUJKAS_clean_linker_0, # of connection points: 2
#     Edge 49, Type (0, 0), BuildingBlock: ZUJKAS_clean_linker_0, # of connection points: 2
#     Edge 50, Type (0, 0), BuildingBlock: ZUJKAS_clean_linker_0, # of connection points: 2
#     Edge 51, Type (0, 0), BuildingBlock: ZUJKAS_clean_linker_0, # of connection points: 2
#     Edge 52, Type (0, 0), BuildingBlock: ZUJKAS_clean_linker_0, # of connection points: 2
#     Edge 53, Type (0, 0), BuildingBlock: ZUJKAS_clean_linker_0, # of connection points: 2
# Relax obj value: 0.039
# Max RMSD: 0.205
# Mean RMSD: 0.205
data_MOF--net-unn--node1-NAWXER_clean_sbu_0--edge1-ZUJKAS_clean_linker_0
_symmetry_space_group_name_H-M    P1
_symmetry_Int_Tables_number       1
_symmetry_cell_setting            triclinic
loop_
_symmetry_equiv_pos_as_xyz
'x, y, z'
_cell_length_a     59.265819
_cell_length_b     59.161062
_cell_length_c     54.34938
_cell_angle_alpha  90.04475
_cell_angle_beta   90.027222
_cell_angle_gamma 120.02367
loop_
_atom_site_label
_atom_site_type_symbol
_atom_site_fract_x
_atom_site_fract_y
_atom_site_fract_z
_atom_type_partial_charge
C0 C 0.97961 0.73797 0.21963 0.0
C1 C 0.06565 0.78072 0.26017 0.0
O2 O 0.99288 0.76176 0.22624 0.0
Zn3 Zn 0.02271 0.76037 0.24001 0.0
O4 O 0.98866 0.72268 0.22371 0.0
Zn5 Zn 0.02241 0.72428 0.23954 0.0
O6 O 1.00827 0.70032 0.26641 0.0
O7 O 1.00669 0.73645 0.27216 0.0
O8 O 0.05652 0.75639 0.25566 0.0
O9 O 0.05242 0.7914 0.25403 0.0
O10 O 0.03974 0.75347 0.20802 0.0
O11 O 0.0364 0.71477 0.21234 0.0
C12 C 1.00239 0.71415 0.2799 0.0
C13 C 0.04365 0.73538 0.1998 0.0
C14 C 0.30246 0.25389 0.22207 0.0
C15 C 0.25911 0.29713 0.26157 0.0
O16 O 0.27867 0.24318 0.22856 0.0
Zn17 Zn 0.27975 0.27447 0.24181 0.0
O18 O 0.3175 0.27835 0.22597 0.0
Zn19 Zn 0.3155 0.3106 0.24138 0.0
O20 O 0.33951 0.32077 0.26819 0.0
O21 O 0.3038 0.28272 0.27393 0.0
O22 O 0.28338 0.31241 0.2572 0.0
O23 O 0.2486 0.27319 0.25545 0.0
O24 O 0.28695 0.29768 0.20926 0.0
O25 O 0.32476 0.33391 0.21409 0.0
C26 C 0.32601 0.30093 0.28162 0.0
C27 C 0.30475 0.31981 0.20104 0.0
C28 C 0.74317 0.97386 0.26296 0.0
C29 C 0.78417 0.05991 0.22253 0.0
O30 O 0.76694 0.98765 0.25662 0.0
Zn31 Zn 0.76468 0.01696 0.24266 0.0
O32 O 0.72746 0.98233 0.25862 0.0
Zn33 Zn 0.72817 0.01563 0.24265 0.0
O34 O 0.70447 1.00079 0.21573 0.0
O35 O 0.74108 1.00016 0.2104 0.0
O36 O 0.75977 0.0502 0.22676 0.0
O37 O 0.79531 0.04716 0.22887 0.0
O38 O 0.75679 0.03342 0.27454 0.0
O39 O 0.71777 0.02902 0.26962 0.0
C40 C 0.71865 0.99517 0.2025 0.0
C41 C 0.73822 0.03667 0.28247 0.0
C42 C 1.00098 0.30008 0.7823 0.0
C43 C 0.04121 0.3205 0.70175 0.0
O44 O 1.00535 0.2822 0.77434 0.0
Zn45 Zn 0.02147 0.27471 0.74203 0.0
O46 O 1.00698 0.32 0.76909 0.0
Zn47 Zn 0.02113 0.31049 0.74204 0.0
O48 O 0.98725 0.27809 0.72627 0.0
O49 O 0.99166 0.2433 0.72851 0.0
O50 O 0.03495 0.3342 0.71499 0.0
O51 O 0.03724 0.29839 0.70972 0.0
O52 O 0.05162 0.27383 0.75552 0.0
O53 O 0.05531 0.31273 0.75779 0.0
C54 C 0.97827 0.25373 0.72211 0.0
C55 C 0.06468 0.29771 0.76192 0.0
C56 C 0.73966 0.71418 0.78051 0.0
C57 C 0.7188 0.73547 0.70083 0.0
O58 O 0.75754 0.73651 0.77275 0.0
Zn59 Zn 0.76512 0.76044 0.74065 0.0
O60 O 0.71988 0.70032 0.76712 0.0
Zn61 Zn 0.7294 0.72432 0.74033 0.0
O62 O 0.76141 0.72277 0.72416 0.0
O63 O 0.79622 0.76187 0.72656 0.0
O64 O 0.70562 0.71482 0.71336 0.0
O65 O 0.74086 0.75356 0.70891 0.0
O66 O 0.76651 0.79145 0.75481 0.0
O67 O 0.72749 0.75638 0.75671 0.0
C68 C 0.78569 0.73808 0.71992 0.0
C69 C 0.74267 0.78072 0.76118 0.0
C70 C 0.30023 0.05941 0.72153 0.0
C71 C 0.25685 0.97346 0.76226 0.0
O72 O 0.3154 0.05032 0.72608 0.0
Zn73 Zn 0.31346 0.01655 0.74253 0.0
O74 O 0.27637 0.0462 0.72778 0.0
Zn75 Zn 0.27754 0.01641 0.74188 0.0
O76 O 0.30088 0.03281 0.77438 0.0
O77 O 0.33696 0.03102 0.7696 0.0
O78 O 0.24624 0.98655 0.7554 0.0
O79 O 0.28124 0.98268 0.75841 0.0
O80 O 0.32337 1.00204 0.71616 0.0
O81 O 0.28547 0.99983 0.71009 0.0
C82 C 0.32303 0.03719 0.78256 0.0
C83 C 0.30353 0.99551 0.70269 0.0
C84 C 0.64523 0.07236 0.55484 0.0
C85 C 0.73144 0.11539 0.59506 0.0
O86 O 0.65861 0.09628 0.56103 0.0
Zn87 Zn 0.68844 0.09494 0.57493 0.0
O88 O 0.65424 0.0571 0.55922 0.0
Zn89 Zn 0.68802 0.0588 0.57507 0.0
O90 O 0.67383 0.03518 0.60209 0.0
O91 O 0.67227 0.0714 0.6073 0.0
O92 O 0.7222 0.09098 0.5909 0.0
O93 O 0.71832 0.12609 0.58862 0.0
O94 O 0.70501 0.08731 0.54301 0.0
O95 O 0.70168 0.04869 0.54812 0.0
C96 C 0.66788 0.04915 0.61529 0.0
C97 C 0.70873 0.06897 0.53514 0.0
C98 C 0.99166 0.63327 0.61561 0.0
C99 C 0.97223 0.65345 0.53478 0.0
O100 O 1.0052 0.65356 0.60272 0.0
Zn101 Zn 0.98194 0.6436 0.57533 0.0
O102 O 0.96977 0.61501 0.6074 0.0
Zn103 Zn 0.9462 0.60756 0.57498 0.0
O104 O 0.94502 0.57639 0.56153 0.0
O105 O 0.9841 0.61136 0.55978 0.0
O106 O 0.95421 0.6312 0.54256 0.0
O107 O 0.99187 0.66734 0.54831 0.0
O108 O 0.94966 0.64535 0.59064 0.0
O109 O 0.91484 0.60625 0.58825 0.0
C110 C 0.96893 0.58698 0.55549 0.0
C111 C 0.92531 0.63011 0.59462 0.0
C112 C 0.45176 0.39363 0.55639 0.0
C113 C 0.40919 0.3077 0.59715 0.0
O114 O 0.46255 0.38063 0.56302 0.0
Zn115 Zn 0.43152 0.35078 0.57672 0.0
O116 O 0.42736 0.38427 0.56043 0.0
Zn117 Zn 0.39529 0.35005 0.57632 0.0
O118 O 0.38507 0.36395 0.60302 0.0
O119 O 0.42384 0.36783 0.60826 0.0
O120 O 0.39382 0.31652 0.59257 0.0
O121 O 0.43303 0.32116 0.59095 0.0
O122 O 0.4082 0.33435 0.54426 0.0
O123 O 0.37181 0.3355 0.54918 0.0
C124 C 0.40546 0.37151 0.61594 0.0
C125 C 0.38597 0.32973 0.5361 0.0
C126 C 0.66897 0.63288 0.11636 0.0
C127 C 0.70774 0.65319 0.03515 0.0
O128 O 0.67302 0.6149 0.10806 0.0
Zn129 Zn 0.68834 0.60726 0.07524 0.0
O130 O 0.67471 0.65277 0.10321 0.0
Zn131 Zn 0.68822 0.64314 0.07571 0.0
O132 O 0.65394 0.6109 0.06031 0.0
O133 O 0.65815 0.57598 0.06199 0.0
O134 O 0.70177 0.66693 0.04869 0.0
O135 O 0.70373 0.631 0.0429 0.0
O136 O 0.71859 0.60611 0.08811 0.0
O137 O 0.72252 0.64509 0.09081 0.0
C138 C 0.64475 0.58653 0.05604 0.0
C139 C 0.73183 0.62995 0.09458 0.0
C140 C 0.40929 0.05021 0.11603 0.0
C141 C 0.38728 0.069 0.03584 0.0
O142 O 0.42703 0.07237 0.10779 0.0
Zn143 Zn 0.43401 0.09548 0.07518 0.0
O144 O 0.38926 0.03608 0.10302 0.0
Zn145 Zn 0.39831 0.05939 0.07581 0.0
O146 O 0.43021 0.05754 0.05957 0.0
O147 O 0.46504 0.09672 0.06124 0.0
O148 O 0.37399 0.04916 0.04934 0.0
O149 O 0.40958 0.08723 0.04328 0.0
O150 O 0.43527 0.12683 0.08852 0.0
O151 O 0.39645 0.09166 0.09137 0.0
C152 C 0.45445 0.0728 0.05505 0.0
C153 C 0.41153 0.11613 0.0952 0.0
C154 C 0.96548 0.3932 0.05583 0.0
C155 C 0.92166 0.30723 0.09644 0.0
O156 O 0.98051 0.38387 0.06012 0.0
Zn157 Zn 0.97817 0.34964 0.07628 0.0
O158 O 0.94166 0.38019 0.06226 0.0
Zn159 Zn 0.94271 0.35034 0.07615 0.0
O160 O 0.96693 0.36718 0.10812 0.0
O161 O 1.00192 0.36341 0.10321 0.0
O162 O 0.91136 0.32074 0.09005 0.0
O163 O 0.9459 0.31605 0.09219 0.0
O164 O 0.98748 0.33501 0.04958 0.0
O165 O 0.94997 0.33376 0.04391 0.0
C166 C 0.98889 0.37079 0.11606 0.0
C167 C 0.96771 0.3291 0.0362 0.0
C168 C 0.31224 0.40772 0.88776 0.0
C169 C 0.39806 0.44947 0.92875 0.0
O170 O 0.32558 0.43144 0.89457 0.0
Zn171 Zn 0.35521 0.42962 0.90832 0.0
O172 O 0.32117 0.3923 0.8917 0.0
Zn173 Zn 0.35471 0.39348 0.90754 0.0
O174 O 0.34008 0.36906 0.93387 0.0
O175 O 0.33858 0.40517 0.94013 0.0
O176 O 0.3888 0.42516 0.92402 0.0
O177 O 0.38501 0.46036 0.92266 0.0
O178 O 0.37203 0.42274 0.87609 0.0
O179 O 0.36856 0.38398 0.88037 0.0
C180 C 0.33398 0.38264 0.94746 0.0
C181 C 0.37575 0.40455 0.8678 0.0
C182 C 0.6371 0.98573 0.86877 0.0
C183 C 0.65737 0.96431 0.94857 0.0
O184 O 0.65705 0.99921 0.88209 0.0
Zn185 Zn 0.64729 0.97506 0.90865 0.0
O186 O 0.61903 0.96343 0.87641 0.0
Zn187 Zn 0.61131 0.9393 0.90845 0.0
O188 O 0.58026 0.93814 0.92223 0.0
O189 O 0.61538 0.97704 0.92477 0.0
O190 O 0.63507 0.94647 0.94068 0.0
O191 O 0.67113 0.98432 0.93544 0.0
O192 O 0.64885 0.94292 0.89232 0.0
O193 O 0.60975 0.90807 0.89449 0.0
C194 C 0.59102 0.96194 0.92888 0.0
C195 C 0.63353 0.9186 0.88799 0.0
C196 C 0.11752 0.72595 0.88786 0.0
C197 C 0.0749 0.64055 0.92953 0.0
O198 O 0.12805 0.71259 0.89404 0.0
Zn199 Zn 0.09717 0.68328 0.90871 0.0
O200 O 0.09337 0.71714 0.89268 0.0
Zn201 Zn 0.06147 0.68358 0.90937 0.0
O202 O 0.0526 0.69819 0.93649 0.0
O203 O 0.09098 0.70093 0.94068 0.0
O204 O 0.0597 0.64969 0.92542 0.0
O205 O 0.09861 0.65365 0.92279 0.0
O206 O 0.07236 0.66618 0.87718 0.0
O207 O 0.03718 0.66947 0.88279 0.0
C208 C 0.07321 0.70526 0.94894 0.0
C209 C 0.05019 0.66231 0.86962 0.0
C210 C 0.33404 0.96335 0.44928 0.0
C211 C 0.37504 0.98612 0.36922 0.0
O212 O 0.33866 0.94578 0.44093 0.0
Zn213 Zn 0.35506 0.93919 0.4083 0.0
O214 O 0.33983 0.98343 0.4364 0.0
Zn215 Zn 0.3543 0.97472 0.40912 0.0
O216 O 0.32074 0.94257 0.39273 0.0
O217 O 0.32552 0.90799 0.39415 0.0
O218 O 0.36828 0.99922 0.38276 0.0
O219 O 0.37115 0.96384 0.37656 0.0
O220 O 0.38528 0.93828 0.42163 0.0
O221 O 0.38856 0.97696 0.42466 0.0
C222 C 0.31199 0.91836 0.38806 0.0
C223 C 0.39814 0.96206 0.4284 0.0
C224 C 0.07777 0.44927 0.42794 0.0
C225 C 0.12117 0.40661 0.38752 0.0
O226 O 0.0626 0.4249 0.42358 0.0
Zn227 Zn 0.06473 0.39284 0.40751 0.0
O228 O 0.10161 0.45997 0.42163 0.0
Zn229 Zn 0.10034 0.42892 0.40774 0.0
O230 O 0.07627 0.42166 0.3757 0.0
O231 O 0.04109 0.38295 0.3805 0.0
O232 O 0.1316 0.43045 0.39394 0.0
O233 O 0.09689 0.39127 0.3917 0.0
O234 O 0.05512 0.36889 0.43423 0.0
O235 O 0.09276 0.40507 0.43999 0.0
C236 C 0.05428 0.40336 0.36769 0.0
C237 C 0.07487 0.3827 0.44767 0.0
C238 C 0.63477 0.72677 0.38945 0.0
C239 C 0.59077 0.64106 0.4305 0.0
O240 O 0.64985 0.71763 0.3943 0.0
Zn241 Zn 0.64752 0.68362 0.41096 0.0
O242 O 0.61083 0.71363 0.39546 0.0
Zn243 Zn 0.61188 0.684 0.40992 0.0
O244 O 0.63549 0.70124 0.44211 0.0
O245 O 0.67078 0.69783 0.43827 0.0
O246 O 0.58044 0.65437 0.42357 0.0
O247 O 0.61512 0.65001 0.42671 0.0
O248 O 0.65746 0.66902 0.38461 0.0
O249 O 0.61991 0.66744 0.37818 0.0
C250 C 0.65738 0.70517 0.45058 0.0
C251 C 0.63788 0.66293 0.3709 0.0
H252 H 0.04084 0.69674 0.17039 0.0
H253 H 0.0557 0.70078 0.12796 0.0
H254 H 0.08808 0.78428 0.13147 0.0
H255 H 0.07223 0.78021 0.17368 0.0
H256 H 0.06013 0.76627 0.09222 0.0
H257 H 0.12421 0.72387 0.09638 0.0
H258 H 0.09316 0.7013 0.10928 0.0
H259 H 0.11313 0.73261 0.12379 0.0
C260 C 0.05152 0.71601 0.16227 0.0
C261 C 0.05532 0.73814 0.17528 0.0
C262 C 0.06023 0.71833 0.13806 0.0
C263 C 0.07346 0.7429 0.12665 0.0
C264 C 0.07803 0.76515 0.13994 0.0
H265 H 0.1181 0.73305 0.97524 0.0
H266 H 0.12244 0.74894 0.01751 0.0
C267 C 0.06895 0.76279 0.16402 0.0
C268 C 0.07991 0.74484 0.10015 0.0
H269 H 0.10377 0.7209 0.05662 0.0
C270 C 0.07019 0.75685 0.08447 0.0
C271 C 0.09363 0.7332 0.09 0.0
C272 C 0.10687 0.72232 0.10584 0.0
C273 C 0.07215 0.75584 0.05885 0.0
C274 C 0.08329 0.74165 0.04869 0.0
C275 C 0.09473 0.73134 0.06437 0.0
C276 C 0.08131 0.73526 0.02215 0.0
C277 C 0.06192 0.76969 0.04303 0.0
C278 C 0.0568 0.72255 0.01063 0.0
C279 C 0.05433 0.71383 0.9864 0.0
C280 C 0.07624 0.71707 0.97347 0.0
C281 C 0.10085 0.73021 0.98483 0.0
C282 C 0.10336 0.73931 0.00895 0.0
H283 H 0.06391 0.78722 0.05257 0.0
H284 H 0.0723 0.77583 0.02515 0.0
H285 H 0.04086 0.75639 0.03945 0.0
H286 H 0.03937 0.71842 0.02066 0.0
H287 H 0.03509 0.70353 0.97821 0.0
H288 H 0.31941 0.33515 0.96805 0.0
H289 H 0.307 0.3222 0.01082 0.0
H290 H 0.31312 0.39666 0.02597 0.0
H291 H 0.325 0.40958 0.98321 0.0
H292 H 0.33967 0.34795 0.04865 0.0
H293 H 0.2463 0.34665 0.0618 0.0
H294 H 0.25905 0.34623 0.03173 0.0
H295 H 0.27125 0.37643 0.04834 0.0
C296 C 0.31761 0.34857 0.98036 0.0
C297 C 0.32336 0.37346 0.97231 0.0
C298 C 0.31047 0.34112 0.00475 0.0
C299 C 0.30892 0.35838 0.02145 0.0
C300 C 0.31364 0.38283 0.01324 0.0
H301 H 0.33928 0.36458 0.17709 0.0
H302 H 0.3385 0.37475 0.1336 0.0
C303 C 0.32064 0.39025 0.98883 0.0
C304 C 0.30562 0.35218 0.04796 0.0
H305 H 0.2693 0.34753 0.09845 0.0
C306 C 0.32414 0.34762 0.05949 0.0
C307 C 0.28528 0.35169 0.06198 0.0
C308 C 0.26419 0.35526 0.0503 0.0
C309 C 0.32321 0.34307 0.08481 0.0
C310 C 0.30354 0.34365 0.09901 0.0
C311 C 0.2846 0.34757 0.08746 0.0
C312 C 0.30212 0.33945 0.12581 0.0
C313 C 0.34317 0.33744 0.09612 0.0
C314 C 0.28132 0.31684 0.13588 0.0
C315 C 0.28163 0.31101 0.16069 0.0
C316 C 0.30278 0.32776 0.17578 0.0
C317 C 0.32285 0.35117 0.1659 0.0
C318 C 0.32248 0.35699 0.14108 0.0
H319 H 0.35293 0.33168 0.08203 0.0
H320 H 0.35835 0.35527 0.10551 0.0
H321 H 0.33402 0.32162 0.11 0.0
H322 H 0.26541 0.30316 0.12431 0.0
H323 H 0.26576 0.2929 0.16779 0.0
H324 H 0.74612 0.98486 0.16842 0.0
H325 H 0.73521 0.974 0.12507 0.0
H326 H 0.66181 0.97116 0.13627 0.0
H327 H 0.67264 0.98239 0.17965 0.0
H328 H 0.69177 0.93253 0.09921 0.0
H329 H 0.7015 0.03013 0.08529 0.0
H330 H 0.71272 0.02174 0.11281 0.0
H331 H 0.67863 1.01052 0.10867 0.0
C332 C 0.72748 0.98158 0.16178 0.0
C333 C 0.71041 0.98491 0.17736 0.0
C334 C 0.72127 0.97529 0.13703 0.0
C335 C 0.69794 0.97225 0.12752 0.0
C336 C 0.6801 0.97387 0.14331 0.0
H337 H 0.63032 0.92679 0.98303 0.0
H338 H 0.64219 0.92688 0.02604 0.0
C339 C 0.68631 0.98024 0.16806 0.0
C340 C 0.69337 0.96968 0.10075 0.0
H341 H 0.68717 1.00146 0.05126 0.0
C342 C 0.69076 0.94755 0.08864 0.0
C343 C 0.69265 0.98963 0.0871 0.0
C344 C 0.69675 0.01448 0.09903 0.0
C345 C 0.68687 0.9446 0.06309 0.0
C346 C 0.68531 0.96419 0.04959 0.0
C347 C 0.68835 0.98647 0.06172 0.0
C348 C 0.67986 0.96195 0.02294 0.0
C349 C 0.68478 0.92078 0.05075 0.0
C350 C 0.69717 0.98161 0.00697 0.0
C351 C 0.69034 0.98181 0.98244 0.0
C352 C 0.66602 0.96237 0.97354 0.0
C353 C 0.64922 0.94204 0.98933 0.0
C354 C 0.65603 0.94192 0.01388 0.0
H355 H 0.69352 0.91158 0.0622 0.0
H356 H 0.6639 0.90617 0.04788 0.0
H357 H 0.69452 0.92577 0.03251 0.0
H358 H 0.71562 0.99729 0.01371 0.0
H359 H 0.70376 0.99767 0.97072 0.0
H360 H 0.73764 0.11295 0.50793 0.0
H361 H 0.75127 0.11534 0.46505 0.0
H362 H 0.71636 0.03148 0.46326 0.0
H363 H 0.70377 0.02909 0.50634 0.0
H364 H 0.76101 0.05433 0.43866 0.0
H365 H 0.7003 0.09706 0.40971 0.0
H366 H 0.72541 0.11644 0.43148 0.0
H367 H 0.69902 0.08494 0.44038 0.0
C368 C 0.73316 0.09507 0.49843 0.0
C369 C 0.71941 0.07079 0.51032 0.0
C370 C 0.7408 0.09646 0.47392 0.0
C371 C 0.7342 0.07354 0.46081 0.0
C372 C 0.72153 0.04941 0.47302 0.0
H373 H 0.69834 0.03071 0.3117 0.0
H374 H 0.70104 0.04393 0.35465 0.0
C375 C 0.71434 0.04806 0.49762 0.0
C376 C 0.73922 0.0742 0.4341 0.0
H377 H 0.72296 0.08908 0.37863 0.0
C378 C 0.75289 0.0621 0.42549 0.0
C379 C 0.72838 0.0842 0.41703 0.0
C380 C 0.71226 0.09618 0.42503 0.0
C381 C 0.75507 0.05868 0.40027 0.0
C382 C 0.74413 0.06858 0.3832 0.0
C383 C 0.73144 0.08168 0.39179 0.0
C384 C 0.74316 0.06312 0.35654 0.0
C385 C 0.76773 0.04316 0.3923 0.0
C386 C 0.76599 0.07025 0.34316 0.0
C387 C 0.76444 0.06226 0.31874 0.0
C388 C 0.74008 0.04761 0.3072 0.0
C389 C 0.71737 0.04197 0.32015 0.0
C390 C 0.7189 0.04953 0.34467 0.0
H391 H 0.76936 0.03175 0.40773 0.0
H392 H 0.75654 0.02945 0.37719 0.0
H393 H 0.78771 0.05673 0.38553 0.0
H394 H 0.78493 0.08142 0.35175 0.0
H395 H 0.78228 0.06718 0.30902 0.0
H396 H 1.00602 0.69973 0.51262 0.0
H397 H 1.00628 0.71137 0.46943 0.0
H398 H 0.9364 0.63756 0.45652 0.0
H399 H 0.93565 0.62596 0.49968 0.0
H400 H 1.01119 0.68388 0.4317 0.0
H401 H 0.9204 0.68814 0.42045 0.0
H402 H 0.93432 0.6889 0.45022 0.0
H403 H 0.91523 0.6584 0.43435 0.0
C404 C 0.99043 0.68618 0.5007 0.0
C405 C 0.97089 0.66188 0.50953 0.0
C406 C 0.9906 0.69287 0.47606 0.0
C407 C 0.97122 0.67543 0.45988 0.0
C408 C 0.95121 0.65153 0.46882 0.0
H409 H 0.99227 0.66894 0.303 0.0
H410 H 0.98205 0.65825 0.34653 0.0
C411 C 0.95095 0.64487 0.49347 0.0
C412 C 0.9735 0.68098 0.43323 0.0
H413 H 0.9414 0.68646 0.38347 0.0
C414 C 0.99601 0.68463 0.42119 0.0
C415 C 0.9537 0.68202 0.41963 0.0
C416 C 0.92965 0.67941 0.43185 0.0
C417 C 0.99914 0.68897 0.3958 0.0
C418 C 0.97895 0.68908 0.38205 0.0
C419 C 0.95662 0.68591 0.3941 0.0
C420 C 0.98138 0.6936 0.35525 0.0
C421 C 0.02423 0.6938 0.38398 0.0
C422 C 0.98309 0.71638 0.34566 0.0
C423 C 0.98876 0.72247 0.32082 0.0
C424 C 0.99279 0.70584 0.3052 0.0
C425 C 0.98953 0.68226 0.31461 0.0
C426 C 0.98378 0.67616 0.33946 0.0
H427 H 0.03995 0.69915 0.39778 0.0
H428 H 0.02086 0.67575 0.3745 0.0
H429 H 0.03104 0.70964 0.3701 0.0
H430 H 0.98116 0.72998 0.3576 0.0
H431 H 0.99097 0.74071 0.31412 0.0
H432 H 0.41345 0.31894 0.50244 0.0
H433 H 0.40349 0.30919 0.4588 0.0
H434 H 0.33094 0.30844 0.46871 0.0
H435 H 0.34083 0.31857 0.51238 0.0
H436 H 0.36042 0.26906 0.43195 0.0
H437 H 0.37266 0.36772 0.41867 0.0
H438 H 0.38286 0.35852 0.44635 0.0
H439 H 0.34906 0.34822 0.44158 0.0
C440 C 0.39519 0.31635 0.49545 0.0
C441 C 0.3781 0.31995 0.51077 0.0
C442 C 0.38953 0.31072 0.47053 0.0
C443 C 0.36675 0.3086 0.46059 0.0
C444 C 0.34884 0.31047 0.47609 0.0
H445 H 0.29937 0.26384 0.31647 0.0
H446 H 0.31165 0.26428 0.35935 0.0
C447 C 0.3545 0.31619 0.50101 0.0
C448 C 0.36275 0.30654 0.43373 0.0
H449 H 0.35769 0.33923 0.38441 0.0
C450 C 0.35987 0.28437 0.42147 0.0
C451 C 0.36267 0.32688 0.42019 0.0
C452 C 0.36722 0.35181 0.43228 0.0
C453 C 0.35617 0.2817 0.3959 0.0
C454 C 0.35503 0.30159 0.38251 0.0
C455 C 0.35852 0.32399 0.39477 0.0
C456 C 0.34924 0.2994 0.35592 0.0
C457 C 0.35376 0.2578 0.38344 0.0
C458 C 0.36631 0.31905 0.33979 0.0
C459 C 0.35921 0.31908 0.31531 0.0
C460 C 0.33488 0.29945 0.30662 0.0
C461 C 0.31828 0.27922 0.32259 0.0
C462 C 0.32535 0.27929 0.34708 0.0
H463 H 0.36277 0.24868 0.39464 0.0
H464 H 0.33282 0.24316 0.38104 0.0
H465 H 0.36307 0.26262 0.36501 0.0
H466 H 0.3848 0.33481 0.34636 0.0
H467 H 0.37245 0.33487 0.30344 0.0
H468 H 0.99102 0.33502 0.80591 0.0
H469 H 0.97982 0.33452 0.84929 0.0
H470 H 0.97743 0.26103 0.85906 0.0
H471 H 0.9883 0.26112 0.81571 0.0
H472 H 0.93708 0.26547 0.88454 0.0
H473 H 0.03687 0.34874 0.90126 0.0
H474 H 0.01893 0.35419 0.87761 0.0
H475 H 0.028 0.32966 0.87333 0.0
C476 C 0.98775 0.31856 0.81718 0.0
C477 C 0.99092 0.2983 0.80748 0.0
C478 C 0.9814 0.31834 0.84193 0.0
C479 C 0.97827 0.29796 0.85732 0.0
C480 C 0.9799 0.27697 0.84741 0.0
H481 H 0.99999 0.31415 0.01497 0.0
H482 H 1.00018 0.30214 0.97197 0.0
C483 C 0.9862 0.27713 0.82267 0.0
C484 C 0.97538 0.29953 0.8841 0.0
H485 H 1.0074 0.33549 0.93458 0.0
C486 C 0.95241 0.28071 0.89557 0.0
C487 C 0.99571 0.31913 0.89836 0.0
C488 C 0.02139 0.33896 0.88712 0.0
C489 C 0.94898 0.28139 0.92106 0.0
C490 C 0.96896 0.30159 0.93516 0.0
C491 C 0.99211 0.32005 0.92368 0.0
C492 C 0.96623 0.30472 0.96176 0.0
C493 C 0.9242 0.26039 0.93268 0.0
C494 C 0.94679 0.30966 0.97028 0.0
C495 C 0.94656 0.31643 -0.00516 0.0
C496 C 0.96599 0.31868 0.01118 0.0
C497 C 0.98484 0.31271 0.0028 0.0
C498 C 0.98495 0.3058 0.97828 0.0
H499 H 0.91461 0.24258 0.92102 0.0
H500 H 0.92804 0.25498 0.95113 0.0
H501 H 0.91039 0.26775 0.93491 0.0
H502 H 0.93252 0.30948 0.95771 0.0
H503 H 0.93182 0.32097 0.00071 0.0
H504 H 0.71764 0.62614 0.00024 0.0
H505 H 0.72895 0.638 0.95721 0.0
H506 H 0.73162 0.71128 0.96992 0.0
H507 H 0.71977 0.69937 0.01299 0.0
H508 H 0.69994 0.68373 0.93186 0.0
H509 H 0.79566 0.68923 0.92187 0.0
H510 H 0.77121 0.6593 0.93554 0.0
H511 H 0.78203 0.68969 0.95146 0.0
C512 C 0.72106 0.64499 -0.00598 0.0
C513 C 0.71764 0.66177 0.00998 0.0
C514 C 0.72773 0.6518 0.96944 0.0
C515 C 0.73141 0.67563 0.96048 0.0
C516 C 0.72897 0.69284 0.97657 0.0
H517 H 0.77747 0.74104 0.81481 0.0
H518 H 0.77655 0.7304 0.85832 0.0
C519 C 0.72217 0.686 0.00114 0.0
C520 C 0.73496 0.68128 0.93386 0.0
H521 H 0.77319 0.68716 0.88457 0.0
C522 C 0.71606 0.68467 0.92155 0.0
C523 C 0.75607 0.68258 0.92054 0.0
C524 C 0.77754 0.68026 0.93305 0.0
C525 C 0.71747 0.68898 0.89615 0.0
C526 C 0.73802 0.68931 0.88267 0.0
C527 C 0.75723 0.68643 0.89499 0.0
C528 C 0.74027 0.69374 0.85586 0.0
C529 C 0.69713 0.69351 0.88404 0.0
C530 C 0.72065 0.67611 0.84 0.0
C531 C 0.721 0.68217 0.81514 0.0
C532 C 0.7411 0.70589 0.80579 0.0
C533 C 0.7616 0.72269 0.82147 0.0
C534 C 0.76117 0.71664 0.84632 0.0
H535 H 0.68652 0.69875 0.89766 0.0
H536 H 0.70613 0.70933 0.87013 0.0
H537 H 0.68268 0.67538 0.87452 0.0
H538 H 0.7046 0.6581 0.84704 0.0
H539 H 0.70507 0.6687 0.80349 0.0
H540 H 0.41336 0.10588 0.00064 0.0
H541 H 0.40026 0.10519 0.95798 0.0
H542 H 0.32724 0.03493 0.97215 0.0
H543 H 0.34037 0.03513 0.01481 0.0
H544 H 0.35395 0.03009 0.93382 0.0
H545 H 0.34842 0.1204 0.92327 0.0
H546 H 0.37852 0.126 0.93659 0.0
H547 H 0.34846 0.10671 0.95296 0.0
C548 C 0.3943 0.09052 -0.00517 0.0
C549 C 0.37797 0.07042 0.01103 0.0
C550 C 0.38677 0.09031 0.97047 0.0
C551 C 0.36269 0.07018 0.96202 0.0
C552 C 0.34587 0.0507 0.97841 0.0
H553 H 0.29564 0.04786 0.81645 0.0
H554 H 0.30628 0.05839 0.85991 0.0
C555 C 0.35343 0.05082 0.00275 0.0
C556 C 0.35646 0.06767 0.93552 0.0
H557 H 0.34991 0.09943 0.88604 0.0
C558 C 0.35284 0.04515 0.92342 0.0
C559 C 0.35496 0.08733 0.92208 0.0
C560 C 0.35754 0.11137 0.93442 0.0
C561 C 0.3482 0.04192 0.89809 0.0
C562 C 0.34773 0.06201 0.88447 0.0
C563 C 0.35075 0.0843 0.89658 0.0
C564 C 0.34329 0.05958 0.85768 0.0
C565 C 0.34358 0.01688 0.88616 0.0
C566 C 0.3611 0.05777 0.84201 0.0
C567 C 0.35505 0.05159 0.81721 0.0
C568 C 0.33115 0.04731 0.80775 0.0
C569 C 0.31413 0.05085 0.82322 0.0
C570 C 0.32018 0.05694 0.84803 0.0
H571 H 0.33852 1.00117 0.89991 0.0
H572 H 0.32764 1.00989 0.87237 0.0
H573 H 0.36159 0.02047 0.87654 0.0
H574 H 0.37924 0.06018 0.84916 0.0
H575 H 0.36868 0.04928 0.80571 0.0
H576 H 0.26692 0.98522 0.66733 0.0
H577 H 0.26743 0.9725 0.62474 0.0
H578 H 0.33671 0.96816 0.63938 0.0
H579 H 0.33671 0.98142 0.68197 0.0
H580 H 0.3424 0.9998 0.60106 0.0
H581 H 0.251 0.90512 0.58994 0.0
H582 H 0.24591 0.93004 0.60313 0.0
H583 H 0.2646 0.91869 0.61973 0.0
C584 C 0.28201 0.9811 0.66164 0.0
C585 C 0.30193 0.98454 0.67795 0.0
C586 C 0.28212 0.9736 0.63733 0.0
C587 C 0.30193 0.96911 0.62902 0.0
C588 C 0.32118 0.97143 0.64553 0.0
H589 H 0.32307 0.92469 0.48262 0.0
H590 H 0.31285 0.92443 0.5262 0.0
C591 C 0.32118 0.97906 0.66982 0.0
C592 C 0.30442 0.9653 0.60254 0.0
H593 H 0.27213 0.92768 0.55278 0.0
C594 C 0.32714 0.98388 0.59056 0.0
C595 C 0.2845 0.94446 0.58895 0.0
C596 C 0.26023 0.92329 0.60113 0.0
C597 C 0.3303 0.98254 0.56521 0.0
C598 C 0.30994 0.96238 0.55145 0.0
C599 C 0.28747 0.94335 0.56344 0.0
C600 C 0.3122 0.96062 0.52461 0.0
C601 C 0.35549 1.00264 0.55339 0.0
C602 C 0.31422 0.98059 0.50927 0.0
C603 C 0.32019 0.98091 0.48441 0.0
C604 C 0.32409 0.96117 0.47455 0.0
C605 C 0.32038 0.9403 0.4897 0.0
C606 C 0.31446 0.94005 0.51457 0.0
H607 H 0.37125 0.01289 0.56719 0.0
H608 H 0.3621 0.99345 0.53948 0.0
H609 H 0.35235 0.01745 0.54393 0.0
H610 H 0.31213 0.99643 0.51674 0.0
H611 H 0.32266 0.99711 0.47317 0.0
H612 H 0.05095 0.36541 0.67832 0.0
H613 H 0.06206 0.37625 0.63494 0.0
H614 H 0.06453 0.30522 0.62478 0.0
H615 H 0.05381 0.29434 0.66812 0.0
H616 H 0.10464 0.3496 0.59945 0.0
H617 H 1.00534 0.33413 0.58279 0.0
H618 H 0.02346 0.35758 0.60638 0.0
H619 H 1.01403 0.32388 0.61074 0.0
C620 C 0.05421 0.35227 0.66695 0.0
C621 C 0.05114 0.32884 0.67655 0.0
C622 C 0.06049 0.35846 0.6422 0.0
C623 C 0.06362 0.34127 0.6267 0.0
C624 C 0.06206 0.31864 0.63651 0.0
H625 H 0.04202 0.33568 0.46905 0.0
H626 H 0.04156 0.32362 0.51212 0.0
C627 C 0.05585 0.31245 0.66125 0.0
C628 C 0.06657 0.34583 0.59994 0.0
H629 H 0.03485 0.35019 0.54947 0.0
C630 C 0.08942 0.34971 0.58844 0.0
C631 C 0.04638 0.34536 0.58569 0.0
C632 C 0.0208 0.33978 0.59693 0.0
C633 C 0.09288 0.35378 0.56295 0.0
C634 C 0.07305 0.35426 0.54887 0.0
C635 C 0.05003 0.34987 0.56037 0.0
C636 C 0.07582 0.36001 0.52226 0.0
C637 C 0.1175 0.35722 0.55132 0.0
C638 C 0.09551 0.38427 0.51369 0.0
C639 C 0.09589 0.39118 0.48909 0.0
C640 C 0.07637 0.37404 0.47276 0.0
C641 C 0.05725 0.34935 0.4812 0.0
C642 C 0.05698 0.34241 0.50577 0.0
H643 H 0.1269 0.34884 0.56299 0.0
H644 H 0.11352 0.34789 0.53288 0.0
H645 H 0.13154 0.37837 0.54906 0.0
H646 H 0.10989 0.39835 0.52623 0.0
H647 H 0.11085 0.41039 0.48317 0.0
H648 H 0.64026 0.73296 0.47688 0.0
H649 H 0.65191 0.74895 0.51912 0.0
H650 H 0.70445 0.71838 0.5223 0.0
H651 H 0.69372 0.70335 0.4799 0.0
H652 H 0.64279 0.72102 0.55841 0.0
H653 H 0.74882 0.78751 0.55374 0.0
H654 H 0.72886 0.77598 0.52643 0.0
H655 H 0.74105 0.75665 0.54066 0.0
C656 C 0.65467 0.73011 0.48647 0.0
C657 C 0.66611 0.71693 0.47513 0.0
C658 C 0.66131 0.73927 0.51057 0.0
C659 C 0.67937 0.73526 0.52376 0.0
C660 C 0.69111 0.72248 0.51227 0.0
H661 H 0.68269 0.69689 0.67157 0.0
H662 H 0.67136 0.70102 0.62935 0.0
C663 C 0.68479 0.71368 0.48808 0.0
C664 C 0.68394 0.74181 0.55025 0.0
H665 H 0.73201 0.76664 0.59348 0.0
C666 C 0.66231 0.73151 0.56605 0.0
C667 C 0.70932 0.75609 0.56026 0.0
C668 C 0.73326 0.76993 0.54429 0.0
C669 C 0.66545 0.73343 0.59166 0.0
C670 C 0.69088 0.74513 0.60166 0.0
C671 C 0.71247 0.75716 0.58586 0.0
C672 C 0.69562 0.74315 0.6281 0.0
C673 C 0.64146 0.72252 0.60765 0.0
C674 C 0.71339 0.76538 0.64135 0.0
C675 C 0.7204 0.76296 0.66531 0.0
C676 C 0.70958 0.73828 0.67647 0.0
C677 C 0.69112 0.71617 0.66352 0.0
C678 C 0.68446 0.71855 0.63944 0.0
H679 H 0.6256 0.72408 0.59833 0.0
H680 H 0.63421 0.7015 0.61104 0.0
H681 H 0.64561 0.73279 0.62562 0.0
H682 H 0.72234 0.78453 0.63292 0.0
H683 H 0.73461 0.78036 0.67493 0.0
H684 H 0.40434 0.44896 0.84098 0.0
H685 H 0.41841 0.45201 0.79817 0.0
H686 H 0.38452 0.36829 0.79562 0.0
H687 H 0.3715 0.36525 0.83858 0.0
H688 H 0.42947 0.39186 0.77163 0.0
H689 H 0.36815 0.43378 0.74221 0.0
H690 H 0.39298 0.45308 0.76425 0.0
H691 H 0.36662 0.42145 0.77283 0.0
C692 C 0.40017 0.43126 0.83132 0.0
C693 C 0.3866 0.40683 0.84297 0.0
C694 C 0.40807 0.43302 0.80685 0.0
C695 C 0.40191 0.41032 0.79355 0.0
C696 C 0.38938 0.38606 0.80552 0.0
H697 H 0.3658 0.36598 0.64524 0.0
H698 H 0.36888 0.38012 0.68793 0.0
C699 C 0.38192 0.38433 0.83007 0.0
C700 C 0.40728 0.41129 0.76688 0.0
H701 H 0.39076 0.42561 0.71128 0.0
C702 C 0.42123 0.39944 0.75839 0.0
C703 C 0.39631 0.42108 0.74973 0.0
C704 C 0.37999 0.43286 0.75762 0.0
C705 C 0.42343 0.39589 0.7332 0.0
C706 C 0.41223 0.40544 0.71603 0.0
C707 C 0.3994 0.41845 0.72451 0.0
C708 C 0.41104 0.39957 0.68945 0.0
C709 C 0.4363 0.38053 0.72539 0.0
C710 C 0.43374 0.40654 0.67593 0.0
C711 C 0.43198 0.39799 0.65169 0.0
C712 C 0.40751 0.38297 0.64044 0.0
C713 C 0.38491 0.37752 0.65347 0.0
C714 C 0.38666 0.38561 0.67784 0.0
H715 H 0.43822 0.36942 0.74094 0.0
H716 H 0.42508 0.36654 0.71046 0.0
H717 H 0.45617 0.39416 0.71842 0.0
H718 H 0.45277 0.41799 0.6843 0.0
H719 H 0.44973 0.40279 0.64187 0.0
H720 H 0.65626 0.07596 0.64909 0.0
H721 H 0.64591 0.06531 0.69254 0.0
H722 H 0.64653 0.99336 0.68206 0.0
H723 H 0.65721 1.00392 0.6386 0.0
H724 H 0.60552 0.02085 0.71849 0.0
H725 H 0.70489 0.03575 0.73315 0.0
H726 H 0.69578 0.04615 0.70553 0.0
H727 H 0.68625 0.01239 0.70966 0.0
C728 C 0.65385 0.05768 0.65591 0.0
C729 C 0.65796 0.04096 0.64051 0.0
C730 C 0.64786 0.05163 0.68071 0.0
C731 C 0.64592 0.02881 0.69044 0.0
C732 C 0.64837 0.01128 0.67484 0.0
H733 H 0.60061 0.95874 0.83346 0.0
H734 H 0.60106 0.97148 0.79071 0.0
C735 C 0.65442 0.01732 0.65004 0.0
C736 C 0.64348 0.02442 0.71723 0.0
H737 H 0.67593 0.01965 0.76689 0.0
C738 C 0.62087 0.02063 0.72917 0.0
C739 C 0.66386 0.02475 0.73103 0.0
C740 C 0.68919 0.03021 0.71929 0.0
C741 C 0.61783 0.01644 0.75466 0.0
C742 C 0.63781 0.01576 0.76828 0.0
C743 C 0.66062 0.02013 0.75635 0.0
C744 C 0.63536 1.00963 0.79481 0.0
C745 C 0.59343 0.01305 0.76678 0.0
C746 C 0.65453 0.02688 0.81126 0.0
C747 C 0.65456 0.01953 0.83563 0.0
C748 C 0.63542 0.99477 0.84392 0.0
C749 C 0.6156 0.97798 0.82765 0.0
C750 C 0.61568 0.9853 0.80325 0.0
H751 H 0.58402 0.02172 0.75554 0.0
H752 H 0.57929 0.9919 0.76885 0.0
H753 H 0.5977 0.02211 0.78535 0.0
H754 H 0.66995 0.04572 0.80501 0.0
H755 H 0.67001 0.03294 0.84775 0.0
H756 H 0.0642 0.63256 0.8424 0.0
H757 H 0.05295 0.61919 0.79943 0.0
H758 H 1.00559 0.65573 0.79769 0.0
H759 H 0.01575 0.66802 0.84087 0.0
H760 H 0.98319 0.61157 0.77241 0.0
H761 H 0.08713 0.67038 0.74471 0.0
H762 H 0.0806 0.64486 0.76623 0.0
H763 H 0.07617 0.67164 0.77533 0.0
C764 C 0.05111 0.63742 0.83289 0.0
C765 C 0.04105 0.65156 0.84482 0.0
C766 C 0.04486 0.62994 0.80833 0.0
C767 C 0.02905 0.63712 0.79518 0.0
C768 C 0.01797 0.65011 0.80746 0.0
H769 H 0.02584 0.67309 0.64494 0.0
H770 H 0.03518 0.67057 0.68827 0.0
C771 C 0.02378 0.65713 0.83213 0.0
C772 C 0.02491 0.6324 0.76838 0.0
H773 H 0.05676 0.64795 0.71329 0.0
C774 C 0.99925 0.61936 0.75945 0.0
C775 C 0.04596 0.64284 0.75155 0.0
C776 C 0.07401 0.65842 0.75986 0.0
C777 C 0.99399 0.61729 0.73415 0.0
C778 C 1.01505 0.62769 0.71732 0.0
C779 C 0.04069 0.63986 0.72625 0.0
C780 C 1.01101 0.6285 0.69053 0.0
C781 C 0.966 0.6053 0.72583 0.0
C782 C 0.99498 0.60562 0.67723 0.0
C783 C 0.98922 0.60708 0.65257 0.0
C784 C 0.99996 0.6314 0.6407 0.0
C785 C 0.01729 0.6541 0.65362 0.0
C786 C 0.02264 0.65267 0.67838 0.0
H787 H 0.95299 0.60432 0.74101 0.0
H788 H 0.96412 0.61658 0.71044 0.0
H789 H 0.95903 0.58508 0.71934 0.0
H790 H 0.98646 0.58671 0.68604 0.0
H791 H 0.97607 0.58923 0.64291 0.0
H792 H 0.60163 0.65325 0.33534 0.0
H793 H 0.60275 0.64172 0.29246 0.0
H794 H 0.67214 0.63753 0.30692 0.0
H795 H 0.67152 0.64962 0.34983 0.0
H796 H 0.67798 0.66973 0.26898 0.0
H797 H 0.58685 0.57505 0.2567 0.0
H798 H 0.58155 0.5997 0.2702 0.0
H799 H 0.60021 0.58821 0.28665 0.0
C800 C 0.61687 0.64941 0.32954 0.0
C801 C 0.63661 0.65253 0.34593 0.0
C802 C 0.61735 0.64261 0.30505 0.0
C803 C 0.63735 0.63849 0.29661 0.0
C804 C 0.65647 0.64052 0.31316 0.0
H805 H 0.65769 0.59434 0.1499 0.0
H806 H 0.64803 0.59453 0.19355 0.0
C807 C 0.6561 0.64745 0.33764 0.0
C808 C 0.64005 0.63514 0.27005 0.0
H809 H 0.6082 0.59811 0.21986 0.0
C810 C 0.66282 0.65394 0.25828 0.0
C811 C 0.62027 0.61446 0.2562 0.0
C812 C 0.59595 0.59306 0.26812 0.0
C813 C 0.66619 0.65292 0.23291 0.0
C814 C 0.64597 0.63288 0.2189 0.0
C815 C 0.62343 0.61369 0.23068 0.0
C816 C 0.64846 0.63127 0.19205 0.0
C817 C 0.69148 0.67316 0.22137 0.0
C818 C 0.65096 0.65145 0.17671 0.0
C819 C 0.6566 0.6515 0.15178 0.0
C820 C 0.65968 0.63126 0.14183 0.0
C821 C 0.65562 0.61031 0.15703 0.0
C822 C 0.65005 0.61033 0.18195 0.0
H823 H 0.70714 0.68318 0.23531 0.0
H824 H 0.69818 0.66418 0.20733 0.0
H825 H 0.68845 0.68816 0.21213 0.0
H826 H 0.64934 0.66755 0.1842 0.0
H827 H 0.65937 0.66779 0.14052 0.0
H828 H 0.37521 1.00505 0.13965 0.0
H829 H 0.37541 0.99508 0.18326 0.0
H830 H 0.44739 0.06763 0.19336 0.0
H831 H 0.44761 0.07771 0.14974 0.0
H832 H 0.44381 0.02368 0.22001 0.0
H833 H 0.35863 0.03765 0.23346 0.0
H834 H 0.3542 0.01416 0.21022 0.0
H835 H 0.37824 0.04794 0.20592 0.0
C836 C 0.3913 0.01871 0.15104 0.0
C837 C 0.41119 0.04235 0.14135 0.0
C838 C 0.39134 0.013 0.17593 0.0
C839 C 0.41117 0.03088 0.19146 0.0
C840 C 0.43188 0.0537 0.18159 0.0
H841 H 0.38862 0.03342 0.34871 0.0
H842 H 0.4021 0.04704 0.30624 0.0
C843 C 0.43191 0.05942 0.15669 0.0
C844 C 0.40916 0.02678 0.21828 0.0
H845 H 0.37124 0.02152 0.26746 0.0
C846 C 0.42805 0.02329 0.23049 0.0
C847 C 0.38888 0.02692 0.23182 0.0
C848 C 0.36895 0.03211 0.21978 0.0
C849 C 0.42667 0.01907 0.25598 0.0
C850 C 0.40569 0.01803 0.26933 0.0
C851 C 0.38727 0.02226 0.25714 0.0
C852 C 0.40157 0.01148 0.29574 0.0
C853 C 0.44771 0.01593 0.26839 0.0
C854 C 0.3972 0.98715 0.30392 0.0
C855 C 0.38961 0.97935 0.32816 0.0
C856 C 0.38591 0.99564 0.34452 0.0
C857 C 0.39118 0.02039 0.33651 0.0
C858 C 0.39893 0.02822 0.31229 0.0
H859 H 0.46601 0.02509 0.25747 0.0
H860 H 0.452 0.02468 0.28709 0.0
H861 H 0.44107 0.99483 0.27016 0.0
H862 H 0.39853 0.97369 0.29129 0.0
H863 H 0.38564 0.96014 0.33375 0.0
H864 H 0.0194 0.36373 0.33867 0.0
H865 H 1.00856 0.36653 0.29591 0.0
H866 H 0.0571 0.45041 0.29836 0.0
H867 H 0.06901 0.44761 0.34093 0.0
H868 H 0.98601 0.38925 0.27252 0.0
H869 H 0.08892 0.43331 0.24159 0.0
H870 H 0.07884 0.42088 0.27229 0.0
H871 H 0.08326 0.45226 0.26392 0.0
C872 C 0.0276 0.38279 0.33017 0.0
C873 C 0.04531 0.40542 0.34297 0.0
C874 C 0.02139 0.38438 0.30574 0.0
C875 C 0.03249 0.40863 0.29379 0.0
C876 C 0.04894 0.43144 0.30701 0.0
H877 H 0.97462 0.40065 0.14285 0.0
H878 H 0.9867 0.41541 0.1854 0.0
C879 C 0.05559 0.42982 0.33134 0.0
C880 C 0.02756 0.40953 0.26722 0.0
H881 H 0.05752 0.4248 0.2112 0.0
C882 C 1.00162 0.39721 0.25907 0.0
C883 C 0.04804 0.41982 0.24977 0.0
C884 C 0.07632 0.43211 0.25724 0.0
C885 C 0.99549 0.39371 0.23395 0.0
C886 C 0.01597 0.40377 0.2165 0.0
C887 C 0.04191 0.41724 0.22465 0.0
C888 C 1.011 0.39796 0.18992 0.0
C889 C 0.96719 0.37787 0.22648 0.0
C890 C 0.02189 0.38464 0.17793 0.0
C891 C 1.01559 0.37681 0.15351 0.0
C892 C 0.998 0.38187 0.14076 0.0
C893 C 0.98795 0.39618 0.15241 0.0
C894 C 0.99469 0.40447 0.17674 0.0
H895 H 0.95454 0.36651 0.24212 0.0
H896 H 0.96043 0.39121 0.21984 0.0
H897 H 0.96453 0.36407 0.21141 0.0
H898 H 0.03461 0.3795 0.18774 0.0
H899 H 0.02362 0.36582 0.14499 0.0
H900 H 0.27936 0.93583 0.37352 0.0
H901 H 0.23779 0.91187 0.35212 0.0
H902 H 0.24498 0.84287 0.35163 0.0
H903 H 0.28677 0.86674 0.37346 0.0
H904 H 0.22752 0.88799 0.30643 0.0
H905 H 0.17173 0.81596 0.37962 0.0
H906 H 0.20271 0.84496 0.3854 0.0
H907 H 0.20149 0.81716 0.37069 0.0
C908 C 0.27215 0.9155 0.36903 0.0
C909 C 0.28645 0.9032 0.37534 0.0
C910 C 0.24832 0.90184 0.35672 0.0
C911 C 0.23808 0.8755 0.35049 0.0
C912 C 0.25227 0.86307 0.35664 0.0
H913 H 0.0979 0.76272 0.27459 0.0
H914 H 0.13963 0.78638 0.29581 0.0
C915 C 0.27622 0.87677 0.36902 0.0
C916 C 0.21282 0.86145 0.33708 0.0
H917 H 0.15046 0.81033 0.34135 0.0
C918 C 0.21064 0.87103 0.31408 0.0
C919 C 0.1908 0.83937 0.3471 0.0
C920 C 0.1916 0.82882 0.37215 0.0
C921 C 0.18719 0.85892 0.30067 0.0
C922 C 0.16515 0.83688 0.31071 0.0
C923 C 0.16734 0.82727 0.33369 0.0
C924 C 0.13982 0.82299 0.2974 0.0
C925 C 0.18641 0.86947 0.27561 0.0
C926 C 0.12584 0.83565 0.29129 0.0
C927 C 0.10182 0.82213 0.27902 0.0
C928 C 0.09128 0.79565 0.27276 0.0
C929 C 0.10536 0.7831 0.27904 0.0
C930 C 0.12927 0.79658 0.29124 0.0
H931 H 0.20629 0.88212 0.26806 0.0
H932 H 0.1751 0.85334 0.2624 0.0
H933 H 0.17677 0.88137 0.2771 0.0
H934 H 0.13336 0.8559 0.29627 0.0
H935 H 0.09145 0.83236 0.27461 0.0
H936 H 0.20744 0.27121 0.27558 0.0
H937 H 0.18373 0.28958 0.29695 0.0
H938 H 0.25309 0.36547 0.29695 0.0
H939 H 0.27688 0.3474 0.27601 0.0
H940 H 0.2288 0.35213 0.34238 0.0
H941 H 0.15785 0.33657 0.26829 0.0
H942 H 0.15859 0.30776 0.27739 0.0
H943 H 0.18666 0.3342 0.26294 0.0
C944 C 0.21758 0.29182 0.28002 0.0
C945 C 0.24406 0.3078 0.27398 0.0
C946 C 0.20398 0.30233 0.29214 0.0
C947 C 0.21656 0.329 0.2983 0.0
C948 C 0.24295 0.34488 0.29235 0.0
H949 H 0.1729 0.43276 0.37365 0.0
H950 H 0.19677 0.41462 0.35218 0.0
C951 C 0.25651 0.33446 0.2803 0.0
C952 C 0.20261 0.34046 0.31144 0.0
H953 H 0.15187 0.35216 0.30647 0.0
C954 C 0.21201 0.3522 0.33451 0.0
C955 C 0.18077 0.34062 0.30113 0.0
C956 C 0.17044 0.32934 0.27598 0.0
C957 C 0.1999 0.36367 0.34773 0.0
C958 C 0.17805 0.36382 0.33742 0.0
C959 C 0.16866 0.35209 0.31434 0.0
C960 C 0.16401 0.37517 0.3506 0.0
C961 C 0.21021 0.37493 0.37288 0.0
C962 C 0.1376 0.3592 0.35646 0.0
C963 C 0.12395 0.36949 0.36855 0.0
C964 C 0.13633 0.39611 0.37502 0.0
C965 C 0.16282 0.41217 0.36908 0.0
C966 C 0.17651 0.4018 0.35691 0.0
H967 H 0.22282 0.36771 0.38056 0.0
H968 H 0.22203 0.3965 0.3715 0.0
H969 H 0.19399 0.37002 0.38593 0.0
H970 H 0.12752 0.33864 0.35174 0.0
H971 H 0.10358 0.35648 0.37275 0.0
H972 H 0.69344 0.94099 0.27819 0.0
H973 H 0.67639 0.89947 0.29954 0.0
H974 H 0.75241 0.90659 0.29761 0.0
H975 H 0.76992 0.94869 0.27635 0.0
H976 H 0.6748 0.85405 0.28445 0.0
H977 H 0.7325 0.89214 0.37045 0.0
H978 H 0.72983 0.91318 0.34802 0.0
H979 H 0.75139 0.90056 0.34266 0.0
C980 C 0.70668 0.93387 0.28229 0.0
C981 C 0.73315 0.94832 0.27559 0.0
C982 C 0.69682 0.91003 0.29451 0.0
C983 C 0.71314 0.90003 0.30048 0.0
C984 C 0.73954 0.91417 0.29361 0.0
H985 H 0.68498 0.7586 0.3747 0.0
H986 H 0.7032 0.80008 0.35297 0.0
C987 C 0.74949 0.93815 0.28132 0.0
C988 C 0.70214 0.87462 0.31358 0.0
H989 H 0.70587 0.84631 0.36706 0.0
C990 C 0.68157 0.85235 0.30253 0.0
C991 C 0.71094 0.87244 0.3372 0.0
C992 C 0.73222 0.89585 0.35045 0.0
C993 C 0.66979 0.82792 0.31428 0.0
C994 C 0.67849 0.82576 0.33795 0.0
C995 C 0.69915 0.848 0.34895 0.0
C996 C 0.66694 0.80047 0.35133 0.0
C997 C 0.64851 0.80452 0.30102 0.0
C998 C 0.64046 0.78693 0.35796 0.0
C999 C 0.62986 0.76301 0.37044 0.0
C1000 C 0.64561 0.75229 0.37663 0.0
C1001 C 0.67219 0.76616 0.37022 0.0
C1002 C 0.68271 0.78996 0.35779 0.0
H1003 H 0.64861 0.80809 0.28094 0.0
H1004 H 0.65054 0.78703 0.30384 0.0
H1005 H 0.62931 0.80019 0.30842 0.0
H1006 H 0.62801 0.79492 0.3536 0.0
H1007 H 0.60937 0.75295 0.3752 0.0
H1008 H 0.83585 0.08683 0.20874 0.0
H1009 H 0.85892 0.12917 0.18767 0.0
H1010 H 0.78826 0.13315 0.18665 0.0
H1011 H 0.76525 0.09131 0.20777 0.0
H1012 H 0.84745 0.14299 0.14152 0.0
H1013 H 0.84115 0.20383 0.21596 0.0
H1014 H 0.83516 0.17115 0.22122 0.0
H1015 H 0.81037 0.17617 0.20758 0.0
C1016 C 0.82529 0.09681 0.20417 0.0
C1017 C 0.79872 0.08568 0.21009 0.0
C1018 C 0.83848 0.12098 0.19211 0.0
C1019 C 0.82541 0.13454 0.18594 0.0
C1020 C 0.7989 0.12337 0.19169 0.0
H1021 H 0.86977 0.28151 0.10986 0.0
H1022 H 0.84555 0.23911 0.13075 0.0
C1023 C 0.78573 0.0993 0.20367 0.0
C1024 C 0.83914 0.15996 0.17279 0.0
H1025 H 0.85567 0.22411 0.17696 0.0
C1026 C 0.84939 0.16076 0.14933 0.0
C1027 C 0.84145 0.1831 0.1829 0.0
C1028 C 0.83167 0.18368 0.20839 0.0
C1029 C 0.86158 0.18397 0.13557 0.0
C1030 C 0.86402 0.20715 0.14572 0.0
C1031 C 0.85367 0.20632 0.16914 0.0
C1032 C 0.87838 0.23267 0.13282 0.0
C1033 C 0.87134 0.18335 0.11007 0.0
C1034 C 0.90489 0.24327 0.12737 0.0
C1035 C 0.91869 0.26733 0.1155 0.0
C1036 C 0.90638 0.28156 0.10889 0.0
C1037 C 0.87982 0.27105 0.11458 0.0
C1038 C 0.86598 0.24685 0.12653 0.0
H1039 H 0.86146 0.16326 0.10235 0.0
H1040 H 0.86831 0.19626 0.09733 0.0
H1041 H 0.89253 0.19034 0.11095 0.0
H1042 H 0.91503 0.23301 0.13253 0.0
H1043 H 0.93914 0.27482 0.11162 0.0
H1044 H 0.75842 0.60439 0.1071 0.0
H1045 H 0.80044 0.62269 0.12865 0.0
H1046 H 0.80548 0.69791 0.13121 0.0
H1047 H 0.76376 0.67995 0.11008 0.0
H1048 H 0.84984 0.66505 0.11499 0.0
H1049 H 0.81633 0.68534 0.20324 0.0
H1050 H 0.794 0.6641 0.17998 0.0
H1051 H 0.8093 0.69895 0.1768 0.0
C1052 C 0.76847 0.62481 0.11229 0.0
C1053 C 0.75758 0.64061 0.10696 0.0
C1054 C 0.79248 0.63524 0.1246 0.0
C1055 C 0.80588 0.66157 0.13195 0.0
C1056 C 0.79525 0.67742 0.12624 0.0
H1057 H 0.95334 0.76381 0.2069 0.0
H1058 H 0.91149 0.74576 0.18508 0.0
C1059 C 0.77139 0.66709 0.11397 0.0
C1060 C 0.83121 0.67277 0.14519 0.0
H1061 H 0.86204 0.70349 0.1985 0.0
C1062 C 0.85248 0.67329 0.13331 0.0
C1063 C 0.83468 0.68372 0.16904 0.0
C1064 C 0.81233 0.68284 0.18315 0.0
C1065 C 0.87721 0.68484 0.14444 0.0
C1066 C 0.88068 0.69577 0.16829 0.0
C1067 C 0.85941 0.69526 0.18017 0.0
C1068 C 0.90598 0.70686 0.18158 0.0
C1069 C 0.89956 0.68572 0.13033 0.0
C1070 C 0.91651 0.69092 0.18726 0.0
C1071 C 0.94027 0.70111 0.19968 0.0
C1072 C 0.95408 0.72753 0.2069 0.0
C1073 C 0.94329 0.74343 0.20156 0.0
C1074 C 0.91939 0.73314 0.18909 0.0
H1075 H 0.8956 0.68332 0.11023 0.0
H1076 H 0.91792 0.70441 0.13357 0.0
H1077 H 0.90251 0.66954 0.1366 0.0
H1078 H 0.90627 0.67047 0.18217 0.0
H1079 H 0.94781 0.68817 0.20358 0.0
H1080 H 0.27692 0.20196 0.20846 0.0
H1081 H 0.29556 0.17827 0.1874 0.0
H1082 H 0.37075 0.24843 0.18627 0.0
H1083 H 0.35258 0.27202 0.20736 0.0
H1084 H 0.32069 0.18923 0.14123 0.0
H1085 H 0.38762 0.19501 0.21547 0.0
H1086 H 0.36129 0.20146 0.22078 0.0
H1087 H 0.39128 0.22604 0.20721 0.0
C1088 C 0.29745 0.21227 0.20388 0.0
C1089 C 0.31323 0.23887 0.20975 0.0
C1090 C 0.30807 0.19873 0.19182 0.0
C1091 C 0.33466 0.21148 0.18562 0.0
C1092 C 0.35034 0.23802 0.19134 0.0
H1093 H 0.43718 0.16809 0.10873 0.0
H1094 H 0.41866 0.19185 0.12987 0.0
C1095 C 0.33981 0.25152 0.20331 0.0
C1096 C 0.34602 0.19746 0.17243 0.0
H1097 H 0.39358 0.18095 0.17622 0.0
C1098 C 0.3365 0.18724 0.14895 0.0
C1099 C 0.36681 0.19508 0.18243 0.0
C1100 C 0.37723 0.20476 0.20795 0.0
C1101 C 0.34746 0.1751 0.13502 0.0
C1102 C 0.36825 0.17271 0.14502 0.0
C1103 C 0.37778 0.18295 0.1685 0.0
C1104 C 0.37956 0.15865 0.13185 0.0
C1105 C 0.33704 0.16541 0.10951 0.0
C1106 C 0.36385 0.13209 0.12622 0.0
C1107 C 0.37432 0.11855 0.11421 0.0
C1108 C 0.40085 0.13118 0.10762 0.0
C1109 C 0.41667 0.1578 0.11342 0.0
C1110 C 0.40612 0.17138 0.12553 0.0
H1111 H 0.32662 0.17513 0.10199 0.0
H1112 H 0.35298 0.16873 0.09667 0.0
H1113 H 0.32302 0.14412 0.11025 0.0
H1114 H 0.34347 0.1217 0.13138 0.0
H1115 H 0.36152 0.09804 0.11022 0.0
H1116 H 0.7633 0.09727 0.61044 0.0
H1117 H 0.80476 0.12091 0.6321 0.0
H1118 H 0.7997 0.19109 0.62992 0.0
H1119 H 0.75774 0.16737 0.60838 0.0
H1120 H 0.85092 0.16416 0.61765 0.0
H1121 H 0.81292 0.185 0.7029 0.0
H1122 H 0.79186 0.1616 0.68024 0.0
H1123 H 0.80514 0.19595 0.67503 0.0
C1124 C 0.77088 0.11774 0.61455 0.0
C1125 C 0.75704 0.13037 0.60772 0.0
C1126 C 0.79468 0.13123 0.62694 0.0
C1127 C 0.80521 0.15767 0.63296 0.0
C1128 C 0.7917 0.17054 0.6259 0.0
H1129 H 0.94607 0.2714 0.70669 0.0
H1130 H 0.90462 0.24743 0.68511 0.0
C1131 C 0.76779 0.15701 0.61345 0.0
C1132 C 0.83048 0.17161 0.64637 0.0
H1133 H 0.85873 0.20413 0.69973 0.0
C1134 C 0.85263 0.17285 0.63563 0.0
C1135 C 0.83267 0.18284 0.66987 0.0
C1136 C 0.80937 0.18115 0.68285 0.0
C1137 C 0.87699 0.18544 0.64751 0.0
C1138 C 0.87919 0.19671 0.671 0.0
C1139 C 0.85702 0.19543 0.68176 0.0
C1140 C 0.90449 0.21083 0.68433 0.0
C1141 C 0.90029 0.18715 0.63452 0.0
C1142 C 0.91819 0.19816 0.69141 0.0
C1143 C 0.94212 0.21189 0.70382 0.0
C1144 C 0.95268 0.23851 0.70949 0.0
C1145 C 0.93864 0.25094 0.70264 0.0
C1146 C 0.91485 0.23726 0.69028 0.0
H1147 H 0.8967 0.18319 0.61449 0.0
H1148 H 0.91777 0.20674 0.63705 0.0
H1149 H 0.90461 0.17243 0.64241 0.0
H1150 H 0.91034 0.17763 0.68744 0.0
H1151 H 0.95233 0.20169 0.70891 0.0
H1152 H 0.94324 0.68008 0.6101 0.0
H1153 H 0.91943 0.69796 0.63127 0.0
H1154 H 0.84945 0.62263 0.62886 0.0
H1155 H 0.87323 0.60439 0.6073 0.0
H1156 H 0.8423 0.66505 0.61508 0.0
H1157 H 0.89612 0.68532 0.70336 0.0
H1158 H 0.91672 0.69887 0.67692 0.0
H1159 H 0.89717 0.66403 0.68013 0.0
C1160 C 0.92278 0.66717 0.61405 0.0
C1161 C 0.91019 0.64068 0.60707 0.0
C1162 C 0.90923 0.67746 0.62632 0.0
C1163 C 0.88279 0.66156 0.63208 0.0
C1164 C 0.86993 0.63522 0.62477 0.0
H1165 H 0.7676 0.68833 0.70367 0.0
H1166 H 0.79135 0.67059 0.68218 0.0
C1167 C 0.88353 0.62482 0.61246 0.0
C1168 C 0.86865 0.67274 0.64531 0.0
H1169 H 0.86856 0.7035 0.69859 0.0
C1170 C 0.84791 0.67329 0.6334 0.0
C1171 C 0.87612 0.68369 0.66916 0.0
C1172 C 0.8976 0.68279 0.68328 0.0
C1173 C 0.83475 0.68488 0.64451 0.0
C1174 C 0.84221 0.69581 0.66836 0.0
C1175 C 0.86296 0.69527 0.68027 0.0
C1176 C 0.82805 0.70695 0.68164 0.0
C1177 C 0.8133 0.6858 0.63038 0.0
C1178 C 0.84094 0.73322 0.68918 0.0
C1179 C 0.82737 0.74352 0.7017 0.0
C1180 C 0.8007 0.72764 0.70705 0.0
C1181 C 0.78806 0.70125 0.69977 0.0
C1182 C 0.80158 0.69104 0.6873 0.0
H1183 H 0.81488 0.68341 0.61028 0.0
H1184 H 0.79417 0.66963 0.63662 0.0
H1185 H 0.81365 0.70451 0.63361 0.0
H1186 H 0.86144 0.7458 0.68518 0.0
H1187 H 0.83772 0.76388 0.70709 0.0
H1188 H 0.27482 0.08596 0.70836 0.0
H1189 H 0.29329 0.12799 0.68678 0.0
H1190 H 0.36826 0.13275 0.68475 0.0
H1191 H 0.35013 0.091 0.70592 0.0
H1192 H 0.33548 0.17724 0.70094 0.0
H1193 H 0.35645 0.14421 0.61272 0.0
H1194 H 0.33503 0.1217 0.63572 0.0
H1195 H 0.36979 0.13695 0.63922 0.0
C1196 C 0.29521 0.09593 0.70325 0.0
C1197 C 0.31091 0.08497 0.70879 0.0
C1198 C 0.30574 0.11994 0.69093 0.0
C1199 C 0.33206 0.13329 0.68376 0.0
C1200 C 0.34779 0.12256 0.68959 0.0
H1201 H 0.43499 0.28153 0.61033 0.0
H1202 H 0.41682 0.23952 0.63195 0.0
C1203 C 0.33735 0.09869 0.70187 0.0
C1204 C 0.34343 0.15875 0.67071 0.0
H1205 H 0.37467 0.18999 0.61783 0.0
C1206 C 0.34389 0.18 0.6827 0.0
C1207 C 0.35459 0.16237 0.64698 0.0
C1208 C 0.35378 0.14006 0.63277 0.0
C1209 C 0.35557 0.20486 0.67178 0.0
C1210 C 0.36672 0.20848 0.64805 0.0
C1211 C 0.36628 0.18724 0.63607 0.0
C1212 C 0.37792 0.23389 0.63495 0.0
C1213 C 0.35634 0.22716 0.68598 0.0
C1214 C 0.36202 0.24442 0.62909 0.0
C1215 C 0.37228 0.26825 0.61679 0.0
C1216 C 0.39872 0.28216 0.60988 0.0
C1217 C 0.4146 0.27141 0.61544 0.0
C1218 C 0.40424 0.24741 0.62778 0.0
H1219 H 0.35372 0.22304 0.70604 0.0
H1220 H 0.37507 0.24555 0.683 0.0
H1221 H 0.34029 0.23022 0.67955 0.0
H1222 H 0.34155 0.23409 0.63393 0.0
H1223 H 0.35937 0.27577 0.61272 0.0
H1224 H 0.2047 0.94689 0.77464 0.0
H1225 H 0.18091 0.90497 0.79638 0.0
H1226 H 0.25112 0.90029 0.79991 0.0
H1227 H 0.27495 0.94192 0.77861 0.0
H1228 H 0.17401 0.85562 0.78303 0.0
H1229 H 0.22712 0.88946 0.87163 0.0
H1230 H 0.22846 0.91176 0.84825 0.0
H1231 H 0.24802 0.89648 0.84543 0.0
C1232 C 0.21506 0.93696 0.78011 0.0
C1233 C 0.24179 0.94791 0.77498 0.0
C1234 C 0.20145 0.91301 0.79252 0.0
C1235 C 0.21436 0.89973 0.80018 0.0
C1236 C 0.24088 0.91044 0.79471 0.0
H1237 H 0.16944 0.75226 0.87471 0.0
H1238 H 0.19304 0.79411 0.85284 0.0
C1239 C 0.25444 0.93424 0.78235 0.0
C1240 C 0.20017 0.87439 0.81339 0.0
H1241 H 0.19988 0.84358 0.86671 0.0
C1242 C 0.17953 0.85302 0.80139 0.0
C1243 C 0.20752 0.87097 0.8373 0.0
C1244 C 0.22883 0.89343 0.85154 0.0
C1245 C 0.16636 0.82824 0.81246 0.0
C1246 C 0.17374 0.82482 0.83634 0.0
C1247 C 0.19436 0.84618 0.84835 0.0
C1248 C 0.15962 0.79946 0.84953 0.0
C1249 C 0.14499 0.80578 0.79827 0.0
C1250 C 0.13317 0.78882 0.85528 0.0
C1251 C 0.11971 0.76506 0.86774 0.0
C1252 C 0.13241 0.75137 0.8749 0.0
C1253 C 0.15905 0.76222 0.86941 0.0
C1254 C 0.17255 0.78613 0.85693 0.0
H1255 H 0.14652 0.80981 0.77819 0.0
H1256 H 0.1455 0.7875 0.8014 0.0
H1257 H 0.12582 0.8026 0.80458 0.0
H1258 H 0.12291 0.799 0.85025 0.0
H1259 H 0.09926 0.75745 0.87173 0.0
H1260 H 0.09152 0.27251 0.77475 0.0
H1261 H 0.13364 0.2912 0.79606 0.0
H1262 H 0.13775 0.36599 0.79902 0.0
H1263 H 0.09615 0.34775 0.77757 0.0
H1264 H 0.18405 0.36985 0.78421 0.0
H1265 H 0.14718 0.3101 0.86904 0.0
H1266 H 0.13951 0.29153 0.84104 0.0
H1267 H 0.12577 0.31212 0.84663 0.0
C1268 C 0.1014 0.29292 0.77994 0.0
C1269 C 0.09034 0.30856 0.77449 0.0
C1270 C 0.1254 0.30355 0.79227 0.0
C1271 C 0.13869 0.32993 0.79948 0.0
C1272 C 0.12784 0.34559 0.79374 0.0
H1273 H 0.28605 0.43374 0.87533 0.0
H1274 H 0.24394 0.41575 0.85406 0.0
C1275 C 0.10397 0.33505 0.78146 0.0
C1276 C 0.16406 0.34153 0.81274 0.0
H1277 H 0.19293 0.33727 0.86562 0.0
C1278 C 0.18599 0.36278 0.80205 0.0
C1279 C 0.16655 0.33239 0.83607 0.0
C1280 C 0.14349 0.31044 0.84904 0.0
C1281 C 0.21044 0.37478 0.81379 0.0
C1282 C 0.21294 0.36557 0.83708 0.0
C1283 C 0.19099 0.34437 0.8478 0.0
C1284 C 0.23838 0.37685 0.85017 0.0
C1285 C 0.23351 0.39674 0.80085 0.0
C1286 C 0.24896 0.36089 0.85558 0.0
C1287 C 0.27281 0.37103 0.8678 0.0
C1288 C 0.28671 0.39742 0.87508 0.0
C1289 C 0.27596 0.41339 0.8699 0.0
C1290 C 0.25196 0.40316 0.85761 0.0
H1291 H 0.22971 0.39734 0.78091 0.0
H1292 H 0.23772 0.41561 0.80912 0.0
H1293 H 0.25112 0.39483 0.80299 0.0
H1294 H 0.23884 0.34054 0.85011 0.0
H1295 H 0.28038 0.35806 0.87147 0.0
H1296 H 0.76819 0.83272 0.77442 0.0
H1297 H 0.74984 0.85636 0.79594 0.0
H1298 H 0.67491 0.78592 0.79863 0.0
H1299 H 0.69283 0.76236 0.77698 0.0
H1300 H 0.67151 0.82877 0.78388 0.0
H1301 H 0.73094 0.85092 0.86891 0.0
H1302 H 0.7495 0.86175 0.84096 0.0
H1303 H 0.72873 0.82741 0.84644 0.0
C1304 C 0.74782 0.82228 0.77961 0.0
C1305 C 0.73205 0.7956 0.77401 0.0
C1306 C 0.73739 0.83577 0.79205 0.0
C1307 C 0.71106 0.82281 0.79923 0.0
C1308 C 0.69528 0.79632 0.79338 0.0
H1309 H 0.60767 0.8665 0.875 0.0
H1310 H 0.62574 0.84254 0.85357 0.0
C1311 C 0.70563 0.78286 0.78099 0.0
C1312 C 0.69964 0.83674 0.81251 0.0
H1313 H 0.704 0.86977 0.86554 0.0
C1314 C 0.67856 0.83768 0.80177 0.0
C1315 C 0.70878 0.84827 0.8359 0.0
C1316 C 0.73057 0.8469 0.84889 0.0
C1317 C 0.66671 0.85025 0.81353 0.0
C1318 C 0.67588 0.86182 0.8369 0.0
C1319 C 0.69694 0.86084 0.84766 0.0
C1320 C 0.6646 0.87592 0.85011 0.0
C1321 C 0.64491 0.85162 0.80054 0.0
C1322 C 0.68052 0.90243 0.85581 0.0
C1323 C 0.67033 0.91607 0.86814 0.0
C1324 C 0.64394 0.9035 0.87521 0.0
C1325 C 0.62802 0.87681 0.86973 0.0
C1326 C 0.63829 0.86313 0.85735 0.0
H1327 H 0.64444 0.84745 0.78055 0.0
H1328 H 0.62599 0.83688 0.80859 0.0
H1329 H 0.64685 0.87116 0.80289 0.0
H1330 H 0.70086 0.9127 0.8505 0.0
H1331 H 0.68324 0.93658 0.87204 0.0
H1332 H 0.43339 0.42508 0.54036 0.0
H1333 H 0.45697 0.46665 0.51883 0.0
H1334 H 0.52742 0.46239 0.52233 0.0
H1335 H 0.50378 0.42032 0.54374 0.0
H1336 H 0.49961 0.51306 0.53385 0.0
H1337 H 0.5223 0.47566 0.4492 0.0
H1338 H 0.4987 0.45436 0.47153 0.0
H1339 H 0.53294 0.46792 0.47728 0.0
C1340 C 0.4539 0.43286 0.53656 0.0
C1341 C 0.46665 0.41922 0.54372 0.0
C1342 C 0.46736 0.45671 0.52424 0.0
C1343 C 0.49387 0.4675 0.51865 0.0
C1344 C 0.50683 0.45418 0.52603 0.0
H1345 H 0.60829 0.60908 0.44697 0.0
H1346 H 0.58401 0.5675 0.4683 0.0
C1347 C 0.49334 0.43021 0.53839 0.0
C1348 C 0.50779 0.49285 0.50538 0.0
H1349 H 0.54118 0.52153 0.45261 0.0
C1350 C 0.50864 0.51491 0.51605 0.0
C1351 C 0.51946 0.49522 0.48211 0.0
C1352 C 0.51817 0.47201 0.46919 0.0
C1353 C 0.5213 0.53937 0.50433 0.0
C1354 C 0.53305 0.54175 0.48109 0.0
C1355 C 0.53212 0.51967 0.47039 0.0
C1356 C 0.54737 0.56718 0.468 0.0
C1357 C 0.52258 0.56258 0.51722 0.0
C1358 C 0.53479 0.58083 0.46045 0.0
C1359 C 0.5487 0.60483 0.44818 0.0
C1360 C 0.57542 0.61551 0.44315 0.0
C1361 C 0.58777 0.60155 0.45053 0.0
C1362 C 0.5739 0.57769 0.46274 0.0
H1363 H 0.51811 0.55884 0.53715 0.0
H1364 H 0.54217 0.58014 0.51514 0.0
H1365 H 0.50807 0.56691 0.50888 0.0
H1366 H 0.51419 0.57285 0.4639 0.0
H1367 H 0.53856 0.61497 0.44266 0.0
H1368 H 0.61916 0.0981 0.54104 0.0
H1369 H 0.57682 0.07946 0.52001 0.0
H1370 H 0.5714 1.00403 0.51893 0.0
H1371 H 0.61313 0.02219 0.54 0.0
H1372 H 0.56216 0.05412 0.47397 0.0
H1373 H 0.50147 0.98733 0.54843 0.0
H1374 H 0.53432 0.01366 0.55358 0.0
H1375 H 0.52865 0.98352 0.54001 0.0
C1376 C 0.60885 0.07752 0.53646 0.0
C1377 C 0.61953 0.06166 0.54238 0.0
C1378 C 0.58468 0.0669 0.52442 0.0
C1379 C 0.57071 0.04023 0.51827 0.0
C1380 C 0.58148 0.0245 0.52397 0.0
H1381 H 0.42479 0.9368 0.44178 0.0
H1382 H 0.46714 0.95573 0.46281 0.0
C1383 C 0.6055 0.03503 0.53594 0.0
C1384 C 0.54527 0.02881 0.50521 0.0
H1385 H 0.48128 0.98101 0.50921 0.0
C1386 C 0.54443 0.03827 0.48175 0.0
C1387 C 0.52216 1.00798 0.51528 0.0
C1388 C 0.52155 0.99765 0.5408 0.0
C1389 C 0.52126 0.02717 0.46791 0.0
C1390 C 0.49818 1.0063 0.47797 0.0
C1391 C 0.499 0.99686 0.50144 0.0
C1392 C 0.47276 0.99476 0.46485 0.0
C1393 C 0.52183 0.03752 0.44242 0.0
C1394 C 0.46173 1.01029 0.45931 0.0
C1395 C 0.43767 0.99959 0.44737 0.0
C1396 C 0.4239 0.97299 0.44077 0.0
C1397 C 0.43489 0.95735 0.44648 0.0
C1398 C 0.45907 0.96814 0.45852 0.0
H1399 H 0.54193 0.04811 0.43485 0.0
H1400 H 0.50926 0.02148 0.42959 0.0
H1401 H 0.51442 0.05141 0.44322 0.0
H1402 H 0.47162 0.03072 0.46447 0.0
H1403 H 0.42982 0.01226 0.44344 0.0
H1404 H 0.02762 0.43139 0.44257 0.0
H1405 H 1.00973 0.45516 0.4639 0.0
H1406 H 0.08553 0.52458 0.46404 0.0
H1407 H 0.1037 0.50092 0.44227 0.0
H1408 H 0.02316 0.4792 0.50941 0.0
H1409 H 0.03881 0.55094 0.43611 0.0
H1410 H 0.04113 0.52211 0.43041 0.0
H1411 H 0.06758 0.55012 0.44502 0.0
C1412 C 0.04057 0.45177 0.44697 0.0
C1413 C 0.06715 0.46426 0.44057 0.0
C1414 C 0.03025 0.46532 0.45924 0.0
C1415 C 0.04617 0.49173 0.46534 0.0
C1416 C 0.07275 0.50433 0.45911 0.0
H1417 H 0.01918 0.6047 0.54132 0.0
H1418 H 0.03711 0.58085 0.52018 0.0
C1419 C 0.08314 0.49075 0.44676 0.0
C1420 C 0.03486 0.5057 0.47873 0.0
H1421 H 0.02362 0.55687 0.47453 0.0
C1422 C 0.02319 0.49614 0.50176 0.0
C1423 C 0.03484 0.52776 0.46871 0.0
C1424 C 0.04604 0.53826 0.44361 0.0
C1425 C 1.01193 0.5083 0.51522 0.0
C1426 C 1.01193 0.53037 0.50521 0.0
C1427 C 0.02359 0.53992 0.48218 0.0
C1428 C 1.00062 0.54434 0.51859 0.0
C1429 C 1.0007 0.49779 0.54031 0.0
C1430 C 0.97401 0.53179 0.5247 0.0
C1431 C 0.96359 0.54542 0.53692 0.0
C1432 C 0.9796 0.5719 0.54312 0.0
C1433 C 1.00622 0.58433 0.5369 0.0
C1434 C 0.01656 0.57073 0.52475 0.0
H1435 H 1.00786 0.48505 0.5478 0.0
H1436 H 1.00566 0.51394 0.55352 0.0
H1437 H 0.97916 0.486 0.53889 0.0
H1438 H 0.96121 0.51155 0.51972 0.0
H1439 H 0.94301 0.53529 0.54128 0.0
H1440 H 0.42417 0.50103 0.94345 0.0
H1441 H 0.4663 0.52433 0.96485 0.0
H1442 H 0.47152 0.45422 0.96464 0.0
H1443 H 0.42992 0.431 0.94318 0.0
H1444 H 0.48043 0.51267 0.01072 0.0
H1445 H 0.5418 0.50827 0.93596 0.0
H1446 H 0.50902 0.50182 0.93076 0.0
H1447 H 0.51449 0.4771 0.94393 0.0
C1448 C 0.43438 0.49064 0.94782 0.0
C1449 C 0.42367 0.46417 0.94144 0.0
C1450 C 0.45843 0.50396 0.96008 0.0
C1451 C 0.47229 0.49113 0.96599 0.0
C1452 C 0.46152 0.4647 0.9598 0.0
H1453 H 0.61884 0.53479 0.04184 0.0
H1454 H 0.57648 0.51096 0.0209 0.0
C1455 C 0.43757 0.45141 0.94763 0.0
C1456 C 0.49763 0.505 0.97927 0.0
H1457 H 0.56182 0.52209 0.97521 0.0
C1458 C 0.49826 0.51489 0.0029 0.0
C1459 C 0.52087 0.5077 0.96913 0.0
C1460 C 0.52167 0.49838 0.94346 0.0
C1461 C 0.52137 0.52702 0.01682 0.0
C1462 C 0.54462 0.52977 0.00667 0.0
C1463 C 0.54398 0.51984 0.98305 0.0
C1464 C 0.57001 0.54386 0.01984 0.0
C1465 C 0.52056 0.53633 0.04248 0.0
C1466 C 0.58058 0.57029 0.02593 0.0
C1467 C 0.60465 0.58387 0.03785 0.0
C1468 C 0.6189 0.57142 0.04385 0.0
C1469 C 0.60836 0.54494 0.03761 0.0
C1470 C 0.58418 0.53132 0.02561 0.0
H1471 H 0.50045 0.52626 0.05005 0.0
H1472 H 0.53339 0.53312 0.05515 0.0
H1473 H 0.52748 0.55757 0.04198 0.0
H1474 H 0.57034 0.58056 0.02119 0.0
H1475 H 0.61215 0.60428 0.04219 0.0
H1476 H 0.60939 0.0119 0.94466 0.0
H1477 H 0.5859 0.02997 0.96612 0.0
H1478 H 0.51549 0.95501 0.96323 0.0
H1479 H 0.53905 0.93649 0.94186 0.0
H1480 H 0.54309 0.03337 0.95105 0.0
H1481 H 0.52102 0.97425 0.03627 0.0
H1482 H 0.54454 0.97641 0.01391 0.0
H1483 H 0.51027 0.9556 0.0083 0.0
C1484 C 0.58891 0.99912 0.94858 0.0
C1485 C 0.57615 0.97263 0.94158 0.0
C1486 C 0.5755 1.00956 0.96086 0.0
C1487 C 0.54903 0.99382 0.9666 0.0
C1488 C 0.53605 0.96743 0.95942 0.0
H1489 H 0.43625 0.02277 0.03957 0.0
H1490 H 0.45978 1.00476 0.01808 0.0
C1491 C 0.5495 0.9569 0.94707 0.0
C1492 C 0.53518 1.00536 0.9798 0.0
H1493 H 0.50253 1.0015 0.03287 0.0
C1494 C 0.53426 0.02645 0.96897 0.0
C1495 C 0.52376 0.99638 0.00322 0.0
C1496 C 0.52508 0.97457 0.01627 0.0
C1497 C 0.52185 0.03848 0.98069 0.0
C1498 C 0.51043 0.02951 0.00412 0.0
C1499 C 0.51135 1.00842 0.01495 0.0
C1500 C 0.49655 0.04102 0.01732 0.0
C1501 C 0.5205 0.06026 0.96761 0.0
C1502 C 0.50945 0.06746 0.02435 0.0
C1503 C 0.49597 0.07796 0.03669 0.0
C1504 C 0.46937 0.06214 0.04235 0.0
C1505 C 0.4567 0.03561 0.03552 0.0
C1506 C 0.47013 0.0252 0.02322 0.0
H1507 H 0.52445 0.0605 0.9476 0.0
H1508 H 0.50107 0.05847 0.97004 0.0
H1509 H 0.53537 0.07926 0.97549 0.0
H1510 H 0.52998 0.07994 0.02043 0.0
H1511 H 0.50635 0.09841 0.04178 0.0
H1512 H 0.02529 0.60897 0.94587 0.0
H1513 H 1.00764 0.56742 0.96736 0.0
H1514 H 0.08251 0.57206 0.96345 0.0
H1515 H 0.10059 0.61413 0.94207 0.0
H1516 H 1.00415 0.5212 0.95198 0.0
H1517 H 0.06438 0.55836 0.03663 0.0
H1518 H 0.06188 0.57973 0.01447 0.0
H1519 H 0.0826 0.56625 0.00845 0.0
C1520 C 0.03813 0.60129 0.94958 0.0
C1521 C 0.06446 0.61503 0.9423 0.0
C1522 C 0.02794 0.57744 0.96188 0.0
C1523 C 0.04378 0.56675 0.96733 0.0
C1524 C 0.07002 0.58019 0.95987 0.0
H1525 H 1.01532 0.42459 0.03987 0.0
H1526 H 0.03334 0.46616 0.01832 0.0
C1527 C 0.0803 0.60416 0.94752 0.0
C1528 C 0.0325 0.54134 0.98049 0.0
H1529 H 0.03713 0.51257 0.03328 0.0
C1530 C 1.01132 0.51931 0.96978 0.0
C1531 C 0.04182 0.53892 0.00375 0.0
C1532 C 0.06377 0.56208 0.01667 0.0
C1533 C 0.99949 0.49485 0.98149 0.0
C1534 C 1.00877 0.49243 0.00477 0.0
C1535 C 0.02998 0.51445 0.01546 0.0
C1536 C 0.99732 0.46706 0.01803 0.0
C1537 C 0.97755 0.47169 0.96856 0.0
C1538 C 0.97104 0.45377 0.02534 0.0
C1539 C 0.96055 0.4298 0.03771 0.0
C1540 C 0.97621 0.41878 0.04312 0.0
C1541 C 1.0026 0.43239 0.03601 0.0
C1542 C 1.01301 0.45624 0.02368 0.0
H1543 H 0.97709 0.47535 0.94856 0.0
H1544 H 0.97931 0.45399 0.97091 0.0
H1545 H 0.9587 0.46766 0.97661 0.0
H1546 H 0.95867 0.462 0.02161 0.0
H1547 H 0.94021 0.41993 0.04301 0.0
loop_
_geom_bond_atom_site_label_1
_geom_bond_atom_site_label_2
_geom_bond_distance
_geom_bond_site_symmetry_2
_ccdc_geom_bond_type
C0 O2 1.247 . S
C0 O4 1.258 . S
C1 O8 1.247 . S
C1 O9 1.258 . S
O2 C0 1.247 . S
O2 Zn3 2.028 1_655 S
Zn3 O2 2.028 1_455 S
Zn3 O7 2.035 1_455 S
Zn3 O9 2.035 . S
Zn3 O10 2.028 . S
O4 C0 1.258 . S
O4 Zn5 2.035 1_655 S
Zn5 O4 2.035 1_455 S
Zn5 O6 2.028 1_455 S
Zn5 O8 2.028 . S
Zn5 O11 2.035 . S
O6 Zn5 2.028 1_655 S
O6 C12 1.247 . S
O7 Zn3 2.035 1_655 S
O7 C12 1.258 . S
O8 C1 1.247 . S
O8 Zn5 2.028 . S
O9 C1 1.258 . S
O9 Zn3 2.035 . S
O10 Zn3 2.028 . S
O10 C13 1.247 . S
O11 Zn5 2.035 . S
O11 C13 1.258 . S
C12 O6 1.247 . S
C12 O7 1.258 . S
C13 O10 1.247 . S
C13 O11 1.258 . S
C14 O16 1.247 . S
C14 O18 1.258 . S
C15 O22 1.247 . S
C15 O23 1.258 . S
O16 C14 1.247 . S
O16 Zn17 2.028 . S
Zn17 O16 2.028 . S
Zn17 O21 2.035 . S
Zn17 O23 2.035 . S
Zn17 O24 2.028 . S
O18 C14 1.258 . S
O18 Zn19 2.035 . S
Zn19 O18 2.035 . S
Zn19 O20 2.028 . S
Zn19 O22 2.028 . S
Zn19 O25 2.035 . S
O20 Zn19 2.028 . S
O20 C26 1.247 . S
O21 Zn17 2.035 . S
O21 C26 1.258 . S
O22 C15 1.247 . S
O22 Zn19 2.028 . S
O23 C15 1.258 . S
O23 Zn17 2.035 . S
O24 Zn17 2.028 . S
O24 C27 1.247 . S
O25 Zn19 2.035 . S
O25 C27 1.258 . S
C26 O20 1.247 . S
C26 O21 1.258 . S
C27 O24 1.247 . S
C27 O25 1.258 . S
C28 O30 1.247 . S
C28 O32 1.258 . S
C29 O36 1.247 . S
C29 O37 1.258 . S
O30 C28 1.247 . S
O30 Zn31 2.028 1_565 S
Zn31 O30 2.028 1_545 S
Zn31 O35 2.035 1_545 S
Zn31 O37 2.035 . S
Zn31 O38 2.028 . S
O32 C28 1.258 . S
O32 Zn33 2.035 1_565 S
Zn33 O32 2.035 1_545 S
Zn33 O34 2.028 1_545 S
Zn33 O36 2.028 . S
Zn33 O39 2.035 . S
O34 Zn33 2.028 1_565 S
O34 C40 1.247 . S
O35 Zn31 2.035 1_565 S
O35 C40 1.258 . S
O36 C29 1.247 . S
O36 Zn33 2.028 . S
O37 C29 1.258 . S
O37 Zn31 2.035 . S
O38 Zn31 2.028 . S
O38 C41 1.247 . S
O39 Zn33 2.035 . S
O39 C41 1.258 . S
C40 O34 1.247 . S
C40 O35 1.258 . S
C41 O38 1.247 . S
C41 O39 1.258 . S
C42 O44 1.247 . S
C42 O46 1.258 . S
C43 O50 1.247 . S
C43 O51 1.258 . S
O44 C42 1.247 . S
O44 Zn45 2.028 1_655 S
Zn45 O44 2.028 1_455 S
Zn45 O49 2.035 1_455 S
Zn45 O51 2.035 . S
Zn45 O52 2.028 . S
O46 C42 1.258 . S
O46 Zn47 2.035 1_655 S
Zn47 O46 2.035 1_455 S
Zn47 O48 2.028 1_455 S
Zn47 O50 2.028 . S
Zn47 O53 2.035 . S
O48 Zn47 2.028 1_655 S
O48 C54 1.247 . S
O49 Zn45 2.035 1_655 S
O49 C54 1.258 . S
O50 C43 1.247 . S
O50 Zn47 2.028 . S
O51 C43 1.258 . S
O51 Zn45 2.035 . S
O52 Zn45 2.028 . S
O52 C55 1.247 . S
O53 Zn47 2.035 . S
O53 C55 1.258 . S
C54 O48 1.247 . S
C54 O49 1.258 . S
C55 O52 1.247 . S
C55 O53 1.258 . S
C56 O58 1.247 . S
C56 O60 1.258 . S
C57 O64 1.247 . S
C57 O65 1.258 . S
O58 C56 1.247 . S
O58 Zn59 2.028 . S
Zn59 O58 2.028 . S
Zn59 O63 2.035 . S
Zn59 O65 2.035 . S
Zn59 O66 2.028 . S
O60 C56 1.258 . S
O60 Zn61 2.035 . S
Zn61 O60 2.035 . S
Zn61 O62 2.028 . S
Zn61 O64 2.028 . S
Zn61 O67 2.035 . S
O62 Zn61 2.028 . S
O62 C68 1.247 . S
O63 Zn59 2.035 . S
O63 C68 1.258 . S
O64 C57 1.247 . S
O64 Zn61 2.028 . S
O65 C57 1.258 . S
O65 Zn59 2.035 . S
O66 Zn59 2.028 . S
O66 C69 1.247 . S
O67 Zn61 2.035 . S
O67 C69 1.258 . S
C68 O62 1.247 . S
C68 O63 1.258 . S
C69 O66 1.247 . S
C69 O67 1.258 . S
C70 O72 1.247 . S
C70 O74 1.258 . S
C71 O78 1.247 . S
C71 O79 1.258 . S
O72 C70 1.247 . S
O72 Zn73 2.028 . S
Zn73 O72 2.028 . S
Zn73 O77 2.035 . S
Zn73 O79 2.035 1_545 S
Zn73 O80 2.028 1_545 S
O74 C70 1.258 . S
O74 Zn75 2.035 . S
Zn75 O74 2.035 . S
Zn75 O76 2.028 . S
Zn75 O78 2.028 1_545 S
Zn75 O81 2.035 1_545 S
O76 Zn75 2.028 . S
O76 C82 1.247 . S
O77 Zn73 2.035 . S
O77 C82 1.258 . S
O78 C71 1.247 . S
O78 Zn75 2.028 1_565 S
O79 C71 1.258 . S
O79 Zn73 2.035 1_565 S
O80 Zn73 2.028 1_565 S
O80 C83 1.247 . S
O81 Zn75 2.035 1_565 S
O81 C83 1.258 . S
C82 O76 1.247 . S
C82 O77 1.258 . S
C83 O80 1.247 . S
C83 O81 1.258 . S
C84 O86 1.247 . S
C84 O88 1.258 . S
C85 O92 1.247 . S
C85 O93 1.258 . S
O86 C84 1.247 . S
O86 Zn87 2.028 . S
Zn87 O86 2.028 . S
Zn87 O91 2.035 . S
Zn87 O93 2.035 . S
Zn87 O94 2.028 . S
O88 C84 1.258 . S
O88 Zn89 2.035 . S
Zn89 O88 2.035 . S
Zn89 O90 2.028 . S
Zn89 O92 2.028 . S
Zn89 O95 2.035 . S
O90 Zn89 2.028 . S
O90 C96 1.247 . S
O91 Zn87 2.035 . S
O91 C96 1.258 . S
O92 C85 1.247 . S
O92 Zn89 2.028 . S
O93 C85 1.258 . S
O93 Zn87 2.035 . S
O94 Zn87 2.028 . S
O94 C97 1.247 . S
O95 Zn89 2.035 . S
O95 C97 1.258 . S
C96 O90 1.247 . S
C96 O91 1.258 . S
C97 O94 1.247 . S
C97 O95 1.258 . S
C98 O100 1.247 . S
C98 O102 1.258 . S
C99 O106 1.247 . S
C99 O107 1.258 . S
O100 C98 1.247 . S
O100 Zn101 2.028 . S
Zn101 O100 2.028 . S
Zn101 O105 2.035 . S
Zn101 O107 2.035 . S
Zn101 O108 2.028 . S
O102 C98 1.258 . S
O102 Zn103 2.035 . S
Zn103 O102 2.035 . S
Zn103 O104 2.028 . S
Zn103 O106 2.028 . S
Zn103 O109 2.035 . S
O104 Zn103 2.028 . S
O104 C110 1.247 . S
O105 Zn101 2.035 . S
O105 C110 1.258 . S
O106 C99 1.247 . S
O106 Zn103 2.028 . S
O107 C99 1.258 . S
O107 Zn101 2.035 . S
O108 Zn101 2.028 . S
O108 C111 1.247 . S
O109 Zn103 2.035 . S
O109 C111 1.258 . S
C110 O104 1.247 . S
C110 O105 1.258 . S
C111 O108 1.247 . S
C111 O109 1.258 . S
C112 O114 1.247 . S
C112 O116 1.258 . S
C113 O120 1.247 . S
C113 O121 1.258 . S
O114 C112 1.247 . S
O114 Zn115 2.028 . S
Zn115 O114 2.028 . S
Zn115 O119 2.035 . S
Zn115 O121 2.035 . S
Zn115 O122 2.028 . S
O116 C112 1.258 . S
O116 Zn117 2.035 . S
Zn117 O116 2.035 . S
Zn117 O118 2.028 . S
Zn117 O120 2.028 . S
Zn117 O123 2.035 . S
O118 Zn117 2.028 . S
O118 C124 1.247 . S
O119 Zn115 2.035 . S
O119 C124 1.258 . S
O120 C113 1.247 . S
O120 Zn117 2.028 . S
O121 C113 1.258 . S
O121 Zn115 2.035 . S
O122 Zn115 2.028 . S
O122 C125 1.247 . S
O123 Zn117 2.035 . S
O123 C125 1.258 . S
C124 O118 1.247 . S
C124 O119 1.258 . S
C125 O122 1.247 . S
C125 O123 1.258 . S
C126 O128 1.247 . S
C126 O130 1.258 . S
C127 O134 1.247 . S
C127 O135 1.258 . S
O128 C126 1.247 . S
O128 Zn129 2.028 . S
Zn129 O128 2.028 . S
Zn129 O133 2.035 . S
Zn129 O135 2.035 . S
Zn129 O136 2.028 . S
O130 C126 1.258 . S
O130 Zn131 2.035 . S
Zn131 O130 2.035 . S
Zn131 O132 2.028 . S
Zn131 O134 2.028 . S
Zn131 O137 2.035 . S
O132 Zn131 2.028 . S
O132 C138 1.247 . S
O133 Zn129 2.035 . S
O133 C138 1.258 . S
O134 C127 1.247 . S
O134 Zn131 2.028 . S
O135 C127 1.258 . S
O135 Zn129 2.035 . S
O136 Zn129 2.028 . S
O136 C139 1.247 . S
O137 Zn131 2.035 . S
O137 C139 1.258 . S
C138 O132 1.247 . S
C138 O133 1.258 . S
C139 O136 1.247 . S
C139 O137 1.258 . S
C140 O142 1.247 . S
C140 O144 1.258 . S
C141 O148 1.247 . S
C141 O149 1.258 . S
O142 C140 1.247 . S
O142 Zn143 2.028 . S
Zn143 O142 2.028 . S
Zn143 O147 2.035 . S
Zn143 O149 2.035 . S
Zn143 O150 2.028 . S
O144 C140 1.258 . S
O144 Zn145 2.035 . S
Zn145 O144 2.035 . S
Zn145 O146 2.028 . S
Zn145 O148 2.028 . S
Zn145 O151 2.035 . S
O146 Zn145 2.028 . S
O146 C152 1.247 . S
O147 Zn143 2.035 . S
O147 C152 1.258 . S
O148 C141 1.247 . S
O148 Zn145 2.028 . S
O149 C141 1.258 . S
O149 Zn143 2.035 . S
O150 Zn143 2.028 . S
O150 C153 1.247 . S
O151 Zn145 2.035 . S
O151 C153 1.258 . S
C152 O146 1.247 . S
C152 O147 1.258 . S
C153 O150 1.247 . S
C153 O151 1.258 . S
C154 O156 1.247 . S
C154 O158 1.258 . S
C155 O162 1.247 . S
C155 O163 1.258 . S
O156 C154 1.247 . S
O156 Zn157 2.028 . S
Zn157 O156 2.028 . S
Zn157 O161 2.035 . S
Zn157 O163 2.035 . S
Zn157 O164 2.028 . S
O158 C154 1.258 . S
O158 Zn159 2.035 . S
Zn159 O158 2.035 . S
Zn159 O160 2.028 . S
Zn159 O162 2.028 . S
Zn159 O165 2.035 . S
O160 Zn159 2.028 . S
O160 C166 1.247 . S
O161 Zn157 2.035 . S
O161 C166 1.258 . S
O162 C155 1.247 . S
O162 Zn159 2.028 . S
O163 C155 1.258 . S
O163 Zn157 2.035 . S
O164 Zn157 2.028 . S
O164 C167 1.247 . S
O165 Zn159 2.035 . S
O165 C167 1.258 . S
C166 O160 1.247 . S
C166 O161 1.258 . S
C167 O164 1.247 . S
C167 O165 1.258 . S
C168 O170 1.247 . S
C168 O172 1.258 . S
C169 O176 1.247 . S
C169 O177 1.258 . S
O170 C168 1.247 . S
O170 Zn171 2.028 . S
Zn171 O170 2.028 . S
Zn171 O175 2.035 . S
Zn171 O177 2.035 . S
Zn171 O178 2.028 . S
O172 C168 1.258 . S
O172 Zn173 2.035 . S
Zn173 O172 2.035 . S
Zn173 O174 2.028 . S
Zn173 O176 2.028 . S
Zn173 O179 2.035 . S
O174 Zn173 2.028 . S
O174 C180 1.247 . S
O175 Zn171 2.035 . S
O175 C180 1.258 . S
O176 C169 1.247 . S
O176 Zn173 2.028 . S
O177 C169 1.258 . S
O177 Zn171 2.035 . S
O178 Zn171 2.028 . S
O178 C181 1.247 . S
O179 Zn173 2.035 . S
O179 C181 1.258 . S
C180 O174 1.247 . S
C180 O175 1.258 . S
C181 O178 1.247 . S
C181 O179 1.258 . S
C182 O184 1.247 . S
C182 O186 1.258 . S
C183 O190 1.247 . S
C183 O191 1.258 . S
O184 C182 1.247 . S
O184 Zn185 2.028 . S
Zn185 O184 2.028 . S
Zn185 O189 2.035 . S
Zn185 O191 2.035 . S
Zn185 O192 2.028 . S
O186 C182 1.258 . S
O186 Zn187 2.035 . S
Zn187 O186 2.035 . S
Zn187 O188 2.028 . S
Zn187 O190 2.028 . S
Zn187 O193 2.035 . S
O188 Zn187 2.028 . S
O188 C194 1.247 . S
O189 Zn185 2.035 . S
O189 C194 1.258 . S
O190 C183 1.247 . S
O190 Zn187 2.028 . S
O191 C183 1.258 . S
O191 Zn185 2.035 . S
O192 Zn185 2.028 . S
O192 C195 1.247 . S
O193 Zn187 2.035 . S
O193 C195 1.258 . S
C194 O188 1.247 . S
C194 O189 1.258 . S
C195 O192 1.247 . S
C195 O193 1.258 . S
C196 O198 1.247 . S
C196 O200 1.258 . S
C197 O204 1.247 . S
C197 O205 1.258 . S
O198 C196 1.247 . S
O198 Zn199 2.028 . S
Zn199 O198 2.028 . S
Zn199 O203 2.035 . S
Zn199 O205 2.035 . S
Zn199 O206 2.028 . S
O200 C196 1.258 . S
O200 Zn201 2.035 . S
Zn201 O200 2.035 . S
Zn201 O202 2.028 . S
Zn201 O204 2.028 . S
Zn201 O207 2.035 . S
O202 Zn201 2.028 . S
O202 C208 1.247 . S
O203 Zn199 2.035 . S
O203 C208 1.258 . S
O204 C197 1.247 . S
O204 Zn201 2.028 . S
O205 C197 1.258 . S
O205 Zn199 2.035 . S
O206 Zn199 2.028 . S
O206 C209 1.247 . S
O207 Zn201 2.035 . S
O207 C209 1.258 . S
C208 O202 1.247 . S
C208 O203 1.258 . S
C209 O206 1.247 . S
C209 O207 1.258 . S
C210 O212 1.247 . S
C210 O214 1.258 . S
C211 O218 1.247 . S
C211 O219 1.258 . S
O212 C210 1.247 . S
O212 Zn213 2.028 . S
Zn213 O212 2.028 . S
Zn213 O217 2.035 . S
Zn213 O219 2.035 . S
Zn213 O220 2.028 . S
O214 C210 1.258 . S
O214 Zn215 2.035 . S
Zn215 O214 2.035 . S
Zn215 O216 2.028 . S
Zn215 O218 2.028 . S
Zn215 O221 2.035 . S
O216 Zn215 2.028 . S
O216 C222 1.247 . S
O217 Zn213 2.035 . S
O217 C222 1.258 . S
O218 C211 1.247 . S
O218 Zn215 2.028 . S
O219 C211 1.258 . S
O219 Zn213 2.035 . S
O220 Zn213 2.028 . S
O220 C223 1.247 . S
O221 Zn215 2.035 . S
O221 C223 1.258 . S
C222 O216 1.247 . S
C222 O217 1.258 . S
C223 O220 1.247 . S
C223 O221 1.258 . S
C224 O226 1.247 . S
C224 O228 1.258 . S
C225 O232 1.247 . S
C225 O233 1.258 . S
O226 C224 1.247 . S
O226 Zn227 2.028 . S
Zn227 O226 2.028 . S
Zn227 O231 2.035 . S
Zn227 O233 2.035 . S
Zn227 O234 2.028 . S
O228 C224 1.258 . S
O228 Zn229 2.035 . S
Zn229 O228 2.035 . S
Zn229 O230 2.028 . S
Zn229 O232 2.028 . S
Zn229 O235 2.035 . S
O230 Zn229 2.028 . S
O230 C236 1.247 . S
O231 Zn227 2.035 . S
O231 C236 1.258 . S
O232 C225 1.247 . S
O232 Zn229 2.028 . S
O233 C225 1.258 . S
O233 Zn227 2.035 . S
O234 Zn227 2.028 . S
O234 C237 1.247 . S
O235 Zn229 2.035 . S
O235 C237 1.258 . S
C236 O230 1.247 . S
C236 O231 1.258 . S
C237 O234 1.247 . S
C237 O235 1.258 . S
C238 O240 1.247 . S
C238 O242 1.258 . S
C239 O246 1.247 . S
C239 O247 1.258 . S
O240 C238 1.247 . S
O240 Zn241 2.028 . S
Zn241 O240 2.028 . S
Zn241 O245 2.035 . S
Zn241 O247 2.035 . S
Zn241 O248 2.028 . S
O242 C238 1.258 . S
O242 Zn243 2.035 . S
Zn243 O242 2.035 . S
Zn243 O244 2.028 . S
Zn243 O246 2.028 . S
Zn243 O249 2.035 . S
O244 Zn243 2.028 . S
O244 C250 1.247 . S
O245 Zn241 2.035 . S
O245 C250 1.258 . S
O246 C239 1.247 . S
O246 Zn243 2.028 . S
O247 C239 1.258 . S
O247 Zn241 2.035 . S
O248 Zn241 2.028 . S
O248 C251 1.247 . S
O249 Zn243 2.035 . S
O249 C251 1.258 . S
C250 O244 1.247 . S
C250 O245 1.258 . S
C251 O248 1.247 . S
C251 O249 1.258 . S
H252 C260 0.929 . S
H253 C262 0.930 . S
H254 C264 0.930 . S
H255 C267 0.929 . S
H256 C270 0.930 . S
H257 C272 0.960 . S
H258 C272 0.960 . S
H259 C272 0.960 . S
C260 H252 0.929 . S
C260 C261 1.377 . S
C260 C262 1.384 . S
C261 C260 1.377 . S
C261 C267 1.390 . S
C262 H253 0.930 . S
C262 C260 1.384 . S
C262 C263 1.372 . S
C263 C262 1.372 . S
C263 C264 1.400 . S
C263 C268 1.490 . S
C264 H254 0.930 . S
C264 C263 1.400 . S
C264 C267 1.386 . S
H265 C281 0.908 1_556 S
H266 C282 0.931 . S
C267 H255 0.929 . S
C267 C261 1.390 . S
C267 C264 1.386 . S
C268 C263 1.490 . S
C268 C270 1.395 . S
C268 C271 1.403 . S
H269 C275 0.930 . S
C270 H256 0.930 . S
C270 C268 1.395 . S
C270 C273 1.403 . S
C271 C268 1.403 . S
C271 C272 1.524 . S
C271 C275 1.400 . S
C272 H257 0.960 . S
C272 H258 0.960 . S
C272 H259 0.960 . S
C272 C271 1.524 . S
C273 C270 1.403 . S
C273 C274 1.392 . S
C273 C277 1.495 . S
C274 C273 1.392 . S
C274 C275 1.385 . S
C274 C276 1.478 . S
C275 H269 0.930 . S
C275 C271 1.400 . S
C275 C274 1.385 . S
C276 C274 1.478 . S
C276 C278 1.381 . S
C276 C282 1.383 . S
C277 C273 1.495 . S
C277 H283 0.959 . S
C277 H284 0.961 . S
C277 H285 0.960 . S
C278 C276 1.381 . S
C278 C279 1.394 . S
C278 H286 0.930 . S
C279 C278 1.394 . S
C279 C280 1.383 1_554 S
C279 H287 0.929 . S
C280 C279 1.383 1_556 S
C280 C281 1.366 1_556 S
C281 H265 0.908 1_554 S
C281 C280 1.366 1_554 S
C281 C282 1.413 . S
C282 H266 0.931 . S
C282 C276 1.383 . S
C282 C281 1.413 . S
H283 C277 0.959 . S
H284 C277 0.961 . S
H285 C277 0.960 . S
H286 C278 0.930 . S
H287 C279 0.929 . S
H288 C296 0.929 . S
H289 C298 0.930 . S
H290 C300 0.930 . S
H291 C303 0.929 . S
H292 C306 0.930 . S
H293 C308 0.960 . S
H294 C308 0.960 . S
H295 C308 0.960 . S
C296 H288 0.929 . S
C296 C297 1.377 . S
C296 C298 1.384 1_556 S
C297 C296 1.377 . S
C297 C303 1.390 1_556 S
C298 H289 0.930 . S
C298 C296 1.384 1_554 S
C298 C299 1.372 . S
C299 C298 1.372 . S
C299 C300 1.400 . S
C299 C304 1.490 . S
C300 H290 0.930 . S
C300 C299 1.400 . S
C300 C303 1.386 . S
H301 C317 0.930 . S
H302 C318 0.931 . S
C303 H291 0.929 . S
C303 C297 1.390 1_554 S
C303 C300 1.386 . S
C304 C299 1.490 . S
C304 C306 1.395 . S
C304 C307 1.403 . S
H305 C311 0.930 . S
C306 H292 0.930 . S
C306 C304 1.395 . S
C306 C309 1.403 . S
C307 C304 1.403 . S
C307 C308 1.524 . S
C307 C311 1.400 . S
C308 H293 0.960 . S
C308 H294 0.960 . S
C308 H295 0.960 . S
C308 C307 1.524 . S
C309 C306 1.403 . S
C309 C310 1.392 . S
C309 C313 1.495 . S
C310 C309 1.392 . S
C310 C311 1.385 . S
C310 C312 1.478 . S
C311 H305 0.930 . S
C311 C307 1.400 . S
C311 C310 1.385 . S
C312 C310 1.478 . S
C312 C314 1.381 . S
C312 C318 1.383 . S
C313 C309 1.495 . S
C313 H319 0.959 . S
C313 H320 0.961 . S
C313 H321 0.960 . S
C314 C312 1.381 . S
C314 C315 1.394 . S
C314 H322 0.930 . S
C315 C314 1.394 . S
C315 C316 1.383 . S
C315 H323 0.929 . S
C316 C315 1.383 . S
C316 C317 1.377 . S
C317 H301 0.930 . S
C317 C316 1.377 . S
C317 C318 1.379 . S
C318 H302 0.931 . S
C318 C312 1.383 . S
C318 C317 1.379 . S
H319 C313 0.959 . S
H320 C313 0.961 . S
H321 C313 0.960 . S
H322 C314 0.930 . S
H323 C315 0.929 . S
H324 C332 0.958 . S
H325 C334 0.930 1_545 S
H326 C336 0.930 . S
H327 C339 0.929 . S
H328 C342 0.930 . S
H329 C344 0.960 . S
H330 C344 0.960 . S
H331 C344 0.960 . S
C332 H324 0.958 . S
C332 C333 1.349 1_545 S
C332 C334 1.385 1_545 S
C333 C332 1.349 1_565 S
C333 C339 1.390 . S
C334 H325 0.930 1_565 S
C334 C332 1.385 1_565 S
C334 C335 1.372 . S
C335 C334 1.372 . S
C335 C336 1.400 . S
C335 C340 1.490 . S
C336 H326 0.930 . S
C336 C335 1.400 . S
C336 C339 1.386 . S
H337 C353 0.930 . S
H338 C354 0.931 . S
C339 H327 0.929 . S
C339 C333 1.390 . S
C339 C336 1.386 . S
C340 C335 1.490 . S
C340 C342 1.395 . S
C340 C343 1.403 . S
H341 C347 0.930 . S
C342 H328 0.930 . S
C342 C340 1.395 . S
C342 C345 1.403 . S
C343 C340 1.403 . S
C343 C344 1.524 . S
C343 C347 1.400 . S
C344 H329 0.960 . S
C344 H330 0.960 . S
C344 H331 0.960 . S
C344 C343 1.524 . S
C345 C342 1.403 . S
C345 C346 1.392 . S
C345 C349 1.495 . S
C346 C345 1.392 . S
C346 C347 1.385 . S
C346 C348 1.478 . S
C347 H341 0.930 . S
C347 C343 1.400 . S
C347 C346 1.385 . S
C348 C346 1.478 . S
C348 C350 1.381 . S
C348 C354 1.383 . S
C349 C345 1.495 . S
C349 H355 0.959 . S
C349 H356 0.961 . S
C349 H357 0.960 . S
C350 C348 1.381 . S
C350 C351 1.394 1_554 S
C350 H358 0.930 . S
C351 C350 1.394 1_556 S
C351 C352 1.383 . S
C351 H359 0.929 . S
C352 C351 1.383 . S
C352 C353 1.377 1_556 S
C353 H337 0.930 . S
C353 C352 1.377 1_554 S
C353 C354 1.379 . S
C354 H338 0.931 . S
C354 C348 1.383 . S
C354 C353 1.379 . S
H355 C349 0.959 . S
H356 C349 0.961 . S
H357 C349 0.960 . S
H358 C350 0.930 . S
H359 C351 0.929 . S
H360 C368 0.929 . S
H361 C370 0.930 . S
H362 C372 0.930 . S
H363 C375 0.929 . S
H364 C378 0.930 . S
H365 C380 0.960 . S
H366 C380 0.960 . S
H367 C380 0.960 . S
C368 H360 0.929 . S
C368 C369 1.377 . S
C368 C370 1.384 . S
C369 C368 1.377 . S
C369 C375 1.390 . S
C370 H361 0.930 . S
C370 C368 1.384 . S
C370 C371 1.372 . S
C371 C370 1.372 . S
C371 C372 1.400 . S
C371 C376 1.490 . S
C372 H362 0.930 . S
C372 C371 1.400 . S
C372 C375 1.386 . S
H373 C389 0.930 1_565 S
H374 C390 0.931 . S
C375 H363 0.929 . S
C375 C369 1.390 . S
C375 C372 1.386 . S
C376 C371 1.490 . S
C376 C378 1.395 . S
C376 C379 1.403 . S
H377 C383 0.930 . S
C378 H364 0.930 . S
C378 C376 1.395 . S
C378 C381 1.403 . S
C379 C376 1.403 . S
C379 C380 1.524 . S
C379 C383 1.400 . S
C380 H365 0.960 . S
C380 H366 0.960 . S
C380 H367 0.960 . S
C380 C379 1.524 . S
C381 C378 1.403 . S
C381 C382 1.392 . S
C381 C385 1.495 . S
C382 C381 1.392 . S
C382 C383 1.385 . S
C382 C384 1.478 . S
C383 H377 0.930 . S
C383 C379 1.400 . S
C383 C382 1.385 . S
C384 C382 1.478 . S
C384 C386 1.381 . S
C384 C390 1.383 . S
C385 C381 1.495 . S
C385 H391 0.959 . S
C385 H392 0.961 . S
C385 H393 0.960 . S
C386 C384 1.381 . S
C386 C387 1.394 . S
C386 H394 0.930 . S
C387 C386 1.394 . S
C387 C388 1.383 . S
C387 H395 0.929 . S
C388 C387 1.383 . S
C388 C389 1.377 . S
C389 H373 0.930 1_545 S
C389 C388 1.377 . S
C389 C390 1.379 . S
C390 H374 0.931 . S
C390 C384 1.383 . S
C390 C389 1.379 . S
H391 C385 0.959 . S
H392 C385 0.961 . S
H393 C385 0.960 . S
H394 C386 0.930 . S
H395 C387 0.929 . S
H396 C404 0.929 . S
H397 C406 0.930 . S
H398 C408 0.930 . S
H399 C411 0.929 . S
H400 C414 0.930 . S
H401 C416 0.960 . S
H402 C416 0.960 . S
H403 C416 0.960 . S
C404 H396 0.929 . S
C404 C405 1.377 . S
C404 C406 1.384 . S
C405 C404 1.377 . S
C405 C411 1.390 . S
C406 H397 0.930 . S
C406 C404 1.384 . S
C406 C407 1.372 . S
C407 C406 1.372 . S
C407 C408 1.400 . S
C407 C412 1.490 . S
C408 H398 0.930 . S
C408 C407 1.400 . S
C408 C411 1.386 . S
H409 C425 0.930 . S
H410 C426 0.931 . S
C411 H399 0.929 . S
C411 C405 1.390 . S
C411 C408 1.386 . S
C412 C407 1.490 . S
C412 C414 1.395 . S
C412 C415 1.403 . S
H413 C419 0.930 . S
C414 H400 0.930 . S
C414 C412 1.395 . S
C414 C417 1.403 . S
C415 C412 1.403 . S
C415 C416 1.524 . S
C415 C419 1.400 . S
C416 H401 0.960 . S
C416 H402 0.960 . S
C416 H403 0.960 . S
C416 C415 1.524 . S
C417 C414 1.403 . S
C417 C418 1.392 . S
C417 C421 1.495 . S
C418 C417 1.392 . S
C418 C419 1.385 . S
C418 C420 1.478 . S
C419 H413 0.930 . S
C419 C415 1.400 . S
C419 C418 1.385 . S
C420 C418 1.478 . S
C420 C422 1.381 . S
C420 C426 1.383 . S
C421 C417 1.495 . S
C421 H427 0.959 . S
C421 H428 0.961 . S
C421 H429 0.990 . S
C422 C420 1.381 . S
C422 C423 1.394 1_655 S
C422 H430 0.930 1_655 S
C423 C422 1.394 1_455 S
C423 C424 1.383 1_455 S
C423 H431 0.929 . S
C424 C423 1.383 1_655 S
C424 C425 1.377 . S
C425 H409 0.930 . S
C425 C424 1.377 . S
C425 C426 1.379 . S
C426 H410 0.931 . S
C426 C420 1.383 . S
C426 C425 1.379 . S
H427 C421 0.959 . S
H428 C421 0.961 . S
H429 C421 0.990 . S
H430 C422 0.930 1_455 S
H431 C423 0.929 . S
H432 C440 0.929 . S
H433 C442 0.930 . S
H434 C444 0.930 . S
H435 C447 0.929 . S
H436 C450 0.930 . S
H437 C452 0.960 . S
H438 C452 0.960 . S
H439 C452 0.960 . S
C440 H432 0.929 . S
C440 C441 1.377 . S
C440 C442 1.384 . S
C441 C440 1.377 . S
C441 C447 1.390 . S
C442 H433 0.930 . S
C442 C440 1.384 . S
C442 C443 1.372 . S
C443 C442 1.372 . S
C443 C444 1.400 . S
C443 C448 1.490 . S
C444 H434 0.930 . S
C444 C443 1.400 . S
C444 C447 1.386 . S
H445 C461 0.930 . S
H446 C462 0.931 . S
C447 H435 0.929 . S
C447 C441 1.390 . S
C447 C444 1.386 . S
C448 C443 1.490 . S
C448 C450 1.395 . S
C448 C451 1.403 . S
H449 C455 0.930 . S
C450 H436 0.930 . S
C450 C448 1.395 . S
C450 C453 1.403 . S
C451 C448 1.403 . S
C451 C452 1.524 . S
C451 C455 1.400 . S
C452 H437 0.960 . S
C452 H438 0.960 . S
C452 H439 0.960 . S
C452 C451 1.524 . S
C453 C450 1.403 . S
C453 C454 1.392 . S
C453 C457 1.495 . S
C454 C453 1.392 . S
C454 C455 1.385 . S
C454 C456 1.478 . S
C455 H449 0.930 . S
C455 C451 1.400 . S
C455 C454 1.385 . S
C456 C454 1.478 . S
C456 C458 1.381 . S
C456 C462 1.383 . S
C457 C453 1.495 . S
C457 H463 0.959 . S
C457 H464 0.961 . S
C457 H465 0.960 . S
C458 C456 1.381 . S
C458 C459 1.394 . S
C458 H466 0.930 . S
C459 C458 1.394 . S
C459 C460 1.383 . S
C459 H467 0.929 . S
C460 C459 1.383 . S
C460 C461 1.377 . S
C461 H445 0.930 . S
C461 C460 1.377 . S
C461 C462 1.379 . S
C462 H446 0.931 . S
C462 C456 1.383 . S
C462 C461 1.379 . S
H463 C457 0.959 . S
H464 C457 0.961 . S
H465 C457 0.960 . S
H466 C458 0.930 . S
H467 C459 0.929 . S
H468 C476 0.929 . S
H469 C478 0.930 . S
H470 C480 0.930 . S
H471 C483 0.929 . S
H472 C486 0.930 . S
H473 C488 0.972 . S
H474 C488 0.974 . S
H475 C488 0.988 1_655 S
C476 H468 0.929 . S
C476 C477 1.377 . S
C476 C478 1.384 . S
C477 C476 1.377 . S
C477 C483 1.390 . S
C478 H469 0.930 . S
C478 C476 1.384 . S
C478 C479 1.372 . S
C479 C478 1.372 . S
C479 C480 1.400 . S
C479 C484 1.490 . S
C480 H470 0.930 . S
C480 C479 1.400 . S
C480 C483 1.386 . S
H481 C497 0.930 . S
H482 C498 0.931 . S
C483 H471 0.929 . S
C483 C477 1.390 . S
C483 C480 1.386 . S
C484 C479 1.490 . S
C484 C486 1.395 . S
C484 C487 1.403 . S
H485 C491 0.930 . S
C486 H472 0.930 . S
C486 C484 1.395 . S
C486 C489 1.403 . S
C487 C484 1.403 . S
C487 C488 1.481 1_655 S
C487 C491 1.400 . S
C488 H473 0.972 . S
C488 H474 0.974 . S
C488 H475 0.988 1_455 S
C488 C487 1.481 1_455 S
C489 C486 1.403 . S
C489 C490 1.392 . S
C489 C493 1.495 . S
C490 C489 1.392 . S
C490 C491 1.385 . S
C490 C492 1.478 . S
C491 H485 0.930 . S
C491 C487 1.400 . S
C491 C490 1.385 . S
C492 C490 1.478 . S
C492 C494 1.381 . S
C492 C498 1.383 . S
C493 C489 1.495 . S
C493 H499 0.959 . S
C493 H500 0.961 . S
C493 H501 0.960 . S
C494 C492 1.381 . S
C494 C495 1.394 . S
C494 H502 0.930 . S
C495 C494 1.394 . S
C495 C496 1.383 1_556 S
C495 H503 0.929 . S
C496 C495 1.383 1_554 S
C496 C497 1.377 . S
C497 H481 0.930 . S
C497 C496 1.377 . S
C497 C498 1.379 1_554 S
C498 H482 0.931 . S
C498 C492 1.383 . S
C498 C497 1.379 1_556 S
H499 C493 0.959 . S
H500 C493 0.961 . S
H501 C493 0.960 . S
H502 C494 0.930 . S
H503 C495 0.929 . S
H504 C512 0.929 . S
H505 C514 0.930 . S
H506 C516 0.930 . S
H507 C519 0.929 . S
H508 C522 0.930 . S
H509 C524 0.960 . S
H510 C524 0.960 . S
H511 C524 0.960 . S
C512 H504 0.929 . S
C512 C513 1.377 1_556 S
C512 C514 1.384 . S
C513 C512 1.377 1_554 S
C513 C519 1.390 . S
C514 H505 0.930 . S
C514 C512 1.384 . S
C514 C515 1.372 . S
C515 C514 1.372 . S
C515 C516 1.400 . S
C515 C520 1.490 . S
C516 H506 0.930 . S
C516 C515 1.400 . S
C516 C519 1.386 1_556 S
H517 C533 0.930 . S
H518 C534 0.931 . S
C519 H507 0.929 . S
C519 C513 1.390 . S
C519 C516 1.386 1_554 S
C520 C515 1.490 . S
C520 C522 1.395 . S
C520 C523 1.403 . S
H521 C527 0.930 . S
C522 H508 0.930 . S
C522 C520 1.395 . S
C522 C525 1.403 . S
C523 C520 1.403 . S
C523 C524 1.524 . S
C523 C527 1.400 . S
C524 H509 0.960 . S
C524 H510 0.960 . S
C524 H511 0.960 . S
C524 C523 1.524 . S
C525 C522 1.403 . S
C525 C526 1.392 . S
C525 C529 1.495 . S
C526 C525 1.392 . S
C526 C527 1.385 . S
C526 C528 1.478 . S
C527 H521 0.930 . S
C527 C523 1.400 . S
C527 C526 1.385 . S
C528 C526 1.478 . S
C528 C530 1.381 . S
C528 C534 1.383 . S
C529 C525 1.495 . S
C529 H535 0.959 . S
C529 H536 0.961 . S
C529 H537 0.960 . S
C530 C528 1.381 . S
C530 C531 1.394 . S
C530 H538 0.930 . S
C531 C530 1.394 . S
C531 C532 1.383 . S
C531 H539 0.929 . S
C532 C531 1.383 . S
C532 C533 1.377 . S
C533 H517 0.930 . S
C533 C532 1.377 . S
C533 C534 1.379 . S
C534 H518 0.931 . S
C534 C528 1.383 . S
C534 C533 1.379 . S
H535 C529 0.959 . S
H536 C529 0.961 . S
H537 C529 0.960 . S
H538 C530 0.930 . S
H539 C531 0.929 . S
H540 C548 0.929 . S
H541 C550 0.930 . S
H542 C552 0.930 . S
H543 C555 0.929 . S
H544 C558 0.930 . S
H545 C560 0.960 . S
H546 C560 0.960 . S
H547 C560 0.960 . S
C548 H540 0.929 . S
C548 C549 1.377 1_556 S
C548 C550 1.384 . S
C549 C548 1.377 1_554 S
C549 C555 1.390 . S
C550 H541 0.930 . S
C550 C548 1.384 . S
C550 C551 1.372 . S
C551 C550 1.372 . S
C551 C552 1.400 . S
C551 C556 1.490 . S
C552 H542 0.930 . S
C552 C551 1.400 . S
C552 C555 1.386 1_556 S
H553 C569 0.930 1_565 S
H554 C570 0.931 . S
C555 H543 0.929 . S
C555 C549 1.390 . S
C555 C552 1.386 1_554 S
C556 C551 1.490 . S
C556 C558 1.395 . S
C556 C559 1.403 . S
H557 C563 0.930 . S
C558 H544 0.930 . S
C558 C556 1.395 . S
C558 C561 1.403 . S
C559 C556 1.403 . S
C559 C560 1.524 . S
C559 C563 1.400 . S
C560 H545 0.960 . S
C560 H546 0.960 . S
C560 H547 0.960 . S
C560 C559 1.524 . S
C561 C558 1.403 . S
C561 C562 1.392 . S
C561 C565 1.495 . S
C562 C561 1.392 . S
C562 C563 1.385 . S
C562 C564 1.478 . S
C563 H557 0.930 . S
C563 C559 1.400 . S
C563 C562 1.385 . S
C564 C562 1.478 . S
C564 C566 1.381 . S
C564 C570 1.383 . S
C565 C561 1.495 . S
C565 H571 0.959 . S
C565 H572 0.961 . S
C565 H573 0.960 . S
C566 C564 1.381 . S
C566 C567 1.394 . S
C566 H574 0.930 . S
C567 C566 1.394 . S
C567 C568 1.383 . S
C567 H575 0.929 . S
C568 C567 1.383 . S
C568 C569 1.377 . S
C569 H553 0.930 1_545 S
C569 C568 1.377 . S
C569 C570 1.379 . S
C570 H554 0.931 . S
C570 C564 1.383 . S
C570 C569 1.379 . S
H571 C565 0.959 . S
H572 C565 0.961 . S
H573 C565 0.960 . S
H574 C566 0.930 . S
H575 C567 0.929 . S
H576 C584 0.929 . S
H577 C586 0.930 . S
H578 C588 0.930 . S
H579 C591 0.929 . S
H580 C594 0.930 . S
H581 C596 0.960 . S
H582 C596 0.960 . S
H583 C596 0.960 . S
C584 H576 0.929 . S
C584 C585 1.377 . S
C584 C586 1.384 . S
C585 C584 1.377 . S
C585 C591 1.390 . S
C586 H577 0.930 . S
C586 C584 1.384 . S
C586 C587 1.372 . S
C587 C586 1.372 . S
C587 C588 1.400 . S
C587 C592 1.490 . S
C588 H578 0.930 . S
C588 C587 1.400 . S
C588 C591 1.386 . S
H589 C605 0.930 . S
H590 C606 0.931 . S
C591 H579 0.929 . S
C591 C585 1.390 . S
C591 C588 1.386 . S
C592 C587 1.490 . S
C592 C594 1.395 . S
C592 C595 1.403 . S
H593 C599 0.930 . S
C594 H580 0.930 . S
C594 C592 1.395 . S
C594 C597 1.403 . S
C595 C592 1.403 . S
C595 C596 1.524 . S
C595 C599 1.400 . S
C596 H581 0.960 . S
C596 H582 0.960 . S
C596 H583 0.960 . S
C596 C595 1.524 . S
C597 C594 1.403 . S
C597 C598 1.392 . S
C597 C601 1.495 . S
C598 C597 1.392 . S
C598 C599 1.385 . S
C598 C600 1.478 . S
C599 H593 0.930 . S
C599 C595 1.400 . S
C599 C598 1.385 . S
C600 C598 1.478 . S
C600 C602 1.381 . S
C600 C606 1.383 . S
C601 C597 1.495 . S
C601 H607 0.959 1_565 S
C601 H608 0.961 . S
C601 H609 0.960 . S
C602 C600 1.381 . S
C602 C603 1.394 . S
C602 H610 0.930 . S
C603 C602 1.394 . S
C603 C604 1.383 . S
C603 H611 0.929 . S
C604 C603 1.383 . S
C604 C605 1.377 . S
C605 H589 0.930 . S
C605 C604 1.377 . S
C605 C606 1.379 . S
C606 H590 0.931 . S
C606 C600 1.383 . S
C606 C605 1.379 . S
H607 C601 0.959 1_545 S
H608 C601 0.961 . S
H609 C601 0.960 . S
H610 C602 0.930 . S
H611 C603 0.929 . S
H612 C620 0.929 . S
H613 C622 0.930 . S
H614 C624 0.930 . S
H615 C627 0.929 . S
H616 C630 0.930 . S
H617 C632 0.960 . S
H618 C632 0.960 . S
H619 C632 0.960 . S
C620 H612 0.929 . S
C620 C621 1.377 . S
C620 C622 1.384 . S
C621 C620 1.377 . S
C621 C627 1.390 . S
C622 H613 0.930 . S
C622 C620 1.384 . S
C622 C623 1.372 . S
C623 C622 1.372 . S
C623 C624 1.400 . S
C623 C628 1.490 . S
C624 H614 0.930 . S
C624 C623 1.400 . S
C624 C627 1.386 . S
H625 C641 0.930 . S
H626 C642 0.931 . S
C627 H615 0.929 . S
C627 C621 1.390 . S
C627 C624 1.386 . S
C628 C623 1.490 . S
C628 C630 1.395 . S
C628 C631 1.403 . S
H629 C635 0.930 . S
C630 H616 0.930 . S
C630 C628 1.395 . S
C630 C633 1.403 . S
C631 C628 1.403 . S
C631 C632 1.524 . S
C631 C635 1.400 . S
C632 H617 0.960 . S
C632 H618 0.960 . S
C632 H619 0.960 . S
C632 C631 1.524 . S
C633 C630 1.403 . S
C633 C634 1.392 . S
C633 C637 1.495 . S
C634 C633 1.392 . S
C634 C635 1.385 . S
C634 C636 1.478 . S
C635 H629 0.930 . S
C635 C631 1.400 . S
C635 C634 1.385 . S
C636 C634 1.478 . S
C636 C638 1.381 . S
C636 C642 1.383 . S
C637 C633 1.495 . S
C637 H643 0.959 . S
C637 H644 0.961 . S
C637 H645 0.960 . S
C638 C636 1.381 . S
C638 C639 1.394 . S
C638 H646 0.930 . S
C639 C638 1.394 . S
C639 C640 1.383 . S
C639 H647 0.929 . S
C640 C639 1.383 . S
C640 C641 1.377 . S
C641 H625 0.930 . S
C641 C640 1.377 . S
C641 C642 1.379 . S
C642 H626 0.931 . S
C642 C636 1.383 . S
C642 C641 1.379 . S
H643 C637 0.959 . S
H644 C637 0.961 . S
H645 C637 0.960 . S
H646 C638 0.930 . S
H647 C639 0.929 . S
H648 C656 0.929 . S
H649 C658 0.930 . S
H650 C660 0.930 . S
H651 C663 0.929 . S
H652 C666 0.930 . S
H653 C668 0.960 . S
H654 C668 0.960 . S
H655 C668 0.960 . S
C656 H648 0.929 . S
C656 C657 1.377 . S
C656 C658 1.384 . S
C657 C656 1.377 . S
C657 C663 1.390 . S
C658 H649 0.930 . S
C658 C656 1.384 . S
C658 C659 1.372 . S
C659 C658 1.372 . S
C659 C660 1.400 . S
C659 C664 1.490 . S
C660 H650 0.930 . S
C660 C659 1.400 . S
C660 C663 1.386 . S
H661 C677 0.930 . S
H662 C678 0.931 . S
C663 H651 0.929 . S
C663 C657 1.390 . S
C663 C660 1.386 . S
C664 C659 1.490 . S
C664 C666 1.395 . S
C664 C667 1.403 . S
H665 C671 0.930 . S
C666 H652 0.930 . S
C666 C664 1.395 . S
C666 C669 1.403 . S
C667 C664 1.403 . S
C667 C668 1.524 . S
C667 C671 1.400 . S
C668 H653 0.960 . S
C668 H654 0.960 . S
C668 H655 0.960 . S
C668 C667 1.524 . S
C669 C666 1.403 . S
C669 C670 1.392 . S
C669 C673 1.495 . S
C670 C669 1.392 . S
C670 C671 1.385 . S
C670 C672 1.478 . S
C671 H665 0.930 . S
C671 C667 1.400 . S
C671 C670 1.385 . S
C672 C670 1.478 . S
C672 C674 1.381 . S
C672 C678 1.383 . S
C673 C669 1.495 . S
C673 H679 0.959 . S
C673 H680 0.961 . S
C673 H681 0.960 . S
C674 C672 1.381 . S
C674 C675 1.394 . S
C674 H682 0.930 . S
C675 C674 1.394 . S
C675 C676 1.383 . S
C675 H683 0.929 . S
C676 C675 1.383 . S
C676 C677 1.377 . S
C677 H661 0.930 . S
C677 C676 1.377 . S
C677 C678 1.379 . S
C678 H662 0.931 . S
C678 C672 1.383 . S
C678 C677 1.379 . S
H679 C673 0.959 . S
H680 C673 0.961 . S
H681 C673 0.960 . S
H682 C674 0.930 . S
H683 C675 0.929 . S
H684 C692 0.929 . S
H685 C694 0.930 . S
H686 C696 0.930 . S
H687 C699 0.929 . S
H688 C702 0.930 . S
H689 C704 0.960 . S
H690 C704 0.960 . S
H691 C704 0.960 . S
C692 H684 0.929 . S
C692 C693 1.377 . S
C692 C694 1.384 . S
C693 C692 1.377 . S
C693 C699 1.390 . S
C694 H685 0.930 . S
C694 C692 1.384 . S
C694 C695 1.372 . S
C695 C694 1.372 . S
C695 C696 1.400 . S
C695 C700 1.490 . S
C696 H686 0.930 . S
C696 C695 1.400 . S
C696 C699 1.386 . S
H697 C713 0.930 . S
H698 C714 0.931 . S
C699 H687 0.929 . S
C699 C693 1.390 . S
C699 C696 1.386 . S
C700 C695 1.490 . S
C700 C702 1.395 . S
C700 C703 1.403 . S
H701 C707 0.930 . S
C702 H688 0.930 . S
C702 C700 1.395 . S
C702 C705 1.403 . S
C703 C700 1.403 . S
C703 C704 1.524 . S
C703 C707 1.400 . S
C704 H689 0.960 . S
C704 H690 0.960 . S
C704 H691 0.960 . S
C704 C703 1.524 . S
C705 C702 1.403 . S
C705 C706 1.392 . S
C705 C709 1.495 . S
C706 C705 1.392 . S
C706 C707 1.385 . S
C706 C708 1.478 . S
C707 H701 0.930 . S
C707 C703 1.400 . S
C707 C706 1.385 . S
C708 C706 1.478 . S
C708 C710 1.381 . S
C708 C714 1.383 . S
C709 C705 1.495 . S
C709 H715 0.959 . S
C709 H716 0.961 . S
C709 H717 0.960 . S
C710 C708 1.381 . S
C710 C711 1.394 . S
C710 H718 0.930 . S
C711 C710 1.394 . S
C711 C712 1.383 . S
C711 H719 0.929 . S
C712 C711 1.383 . S
C712 C713 1.377 . S
C713 H697 0.930 . S
C713 C712 1.377 . S
C713 C714 1.379 . S
C714 H698 0.931 . S
C714 C708 1.383 . S
C714 C713 1.379 . S
H715 C709 0.959 . S
H716 C709 0.961 . S
H717 C709 0.960 . S
H718 C710 0.930 . S
H719 C711 0.929 . S
H720 C728 0.929 . S
H721 C730 0.930 . S
H722 C732 0.930 . S
H723 C735 0.929 . S
H724 C738 0.930 . S
H725 C740 0.960 . S
H726 C740 0.960 . S
H727 C740 0.960 . S
C728 H720 0.929 . S
C728 C729 1.377 . S
C728 C730 1.384 . S
C729 C728 1.377 . S
C729 C735 1.390 . S
C730 H721 0.930 . S
C730 C728 1.384 . S
C730 C731 1.372 . S
C731 C730 1.372 . S
C731 C732 1.400 . S
C731 C736 1.490 . S
C732 H722 0.930 . S
C732 C731 1.400 . S
C732 C735 1.386 . S
H733 C749 0.930 . S
H734 C750 0.931 . S
C735 H723 0.929 . S
C735 C729 1.390 . S
C735 C732 1.386 . S
C736 C731 1.490 . S
C736 C738 1.395 . S
C736 C739 1.403 . S
H737 C743 0.930 . S
C738 H724 0.930 . S
C738 C736 1.395 . S
C738 C741 1.403 1_545 S
C739 C736 1.403 . S
C739 C740 1.524 . S
C739 C743 1.400 . S
C740 H725 0.960 . S
C740 H726 0.960 . S
C740 H727 0.960 . S
C740 C739 1.524 . S
C741 C738 1.403 1_565 S
C741 C742 1.392 . S
C741 C745 1.495 . S
C742 C741 1.392 . S
C742 C743 1.385 1_565 S
C742 C744 1.478 . S
C743 H737 0.930 . S
C743 C739 1.400 . S
C743 C742 1.385 1_545 S
C744 C742 1.478 . S
C744 C746 1.381 . S
C744 C750 1.383 . S
C745 C741 1.495 . S
C745 H751 0.959 . S
C745 H752 0.961 . S
C745 H753 0.960 . S
C746 C744 1.381 . S
C746 C747 1.394 . S
C746 H754 0.930 . S
C747 C746 1.394 . S
C747 C748 1.383 . S
C747 H755 0.929 . S
C748 C747 1.383 . S
C748 C749 1.377 . S
C749 H733 0.930 . S
C749 C748 1.377 . S
C749 C750 1.379 . S
C750 H734 0.931 . S
C750 C744 1.383 . S
C750 C749 1.379 . S
H751 C745 0.959 . S
H752 C745 0.961 . S
H753 C745 0.960 . S
H754 C746 0.930 . S
H755 C747 0.929 . S
H756 C764 0.929 . S
H757 C766 0.930 . S
H758 C768 0.930 . S
H759 C771 0.929 . S
H760 C774 0.930 . S
H761 C776 0.960 . S
H762 C776 0.960 . S
H763 C776 0.960 . S
C764 H756 0.929 . S
C764 C765 1.377 . S
C764 C766 1.384 . S
C765 C764 1.377 . S
C765 C771 1.390 . S
C766 H757 0.930 . S
C766 C764 1.384 . S
C766 C767 1.372 . S
C767 C766 1.372 . S
C767 C768 1.400 . S
C767 C772 1.490 . S
C768 H758 0.930 . S
C768 C767 1.400 . S
C768 C771 1.386 . S
H769 C785 0.930 . S
H770 C786 0.931 . S
C771 H759 0.929 . S
C771 C765 1.390 . S
C771 C768 1.386 . S
C772 C767 1.490 . S
C772 C774 1.395 1_455 S
C772 C775 1.403 . S
H773 C779 0.930 . S
C774 H760 0.930 . S
C774 C772 1.395 1_655 S
C774 C777 1.403 . S
C775 C772 1.403 . S
C775 C776 1.524 . S
C775 C779 1.400 . S
C776 H761 0.960 . S
C776 H762 0.960 . S
C776 H763 0.960 . S
C776 C775 1.524 . S
C777 C774 1.403 . S
C777 C778 1.392 . S
C777 C781 1.495 . S
C778 C777 1.392 . S
C778 C779 1.385 1_655 S
C778 C780 1.478 . S
C779 H773 0.930 . S
C779 C775 1.400 . S
C779 C778 1.385 1_455 S
C780 C778 1.478 . S
C780 C782 1.381 . S
C780 C786 1.383 . S
C781 C777 1.495 . S
C781 H787 0.959 . S
C781 H788 0.961 . S
C781 H789 0.960 . S
C782 C780 1.381 . S
C782 C783 1.394 . S
C782 H790 0.930 . S
C783 C782 1.394 . S
C783 C784 1.383 . S
C783 H791 0.929 . S
C784 C783 1.383 . S
C784 C785 1.377 . S
C785 H769 0.930 . S
C785 C784 1.377 . S
C785 C786 1.379 . S
C786 H770 0.931 . S
C786 C780 1.383 . S
C786 C785 1.379 . S
H787 C781 0.959 . S
H788 C781 0.961 . S
H789 C781 0.960 . S
H790 C782 0.930 . S
H791 C783 0.929 . S
H792 C800 0.929 . S
H793 C802 0.930 . S
H794 C804 0.930 . S
H795 C807 0.929 . S
H796 C810 0.930 . S
H797 C812 0.960 . S
H798 C812 0.960 . S
H799 C812 0.960 . S
C800 H792 0.929 . S
C800 C801 1.377 . S
C800 C802 1.384 . S
C801 C800 1.377 . S
C801 C807 1.390 . S
C802 H793 0.930 . S
C802 C800 1.384 . S
C802 C803 1.372 . S
C803 C802 1.372 . S
C803 C804 1.400 . S
C803 C808 1.490 . S
C804 H794 0.930 . S
C804 C803 1.400 . S
C804 C807 1.386 . S
H805 C821 0.930 . S
H806 C822 0.931 . S
C807 H795 0.929 . S
C807 C801 1.390 . S
C807 C804 1.386 . S
C808 C803 1.490 . S
C808 C810 1.395 . S
C808 C811 1.403 . S
H809 C815 0.930 . S
C810 H796 0.930 . S
C810 C808 1.395 . S
C810 C813 1.403 . S
C811 C808 1.403 . S
C811 C812 1.524 . S
C811 C815 1.400 . S
C812 H797 0.960 . S
C812 H798 0.960 . S
C812 H799 0.960 . S
C812 C811 1.524 . S
C813 C810 1.403 . S
C813 C814 1.392 . S
C813 C817 1.495 . S
C814 C813 1.392 . S
C814 C815 1.385 . S
C814 C816 1.478 . S
C815 H809 0.930 . S
C815 C811 1.400 . S
C815 C814 1.385 . S
C816 C814 1.478 . S
C816 C818 1.381 . S
C816 C822 1.383 . S
C817 C813 1.495 . S
C817 H823 0.959 . S
C817 H824 0.961 . S
C817 H825 0.960 . S
C818 C816 1.381 . S
C818 C819 1.394 . S
C818 H826 0.930 . S
C819 C818 1.394 . S
C819 C820 1.383 . S
C819 H827 0.929 . S
C820 C819 1.383 . S
C820 C821 1.377 . S
C821 H805 0.930 . S
C821 C820 1.377 . S
C821 C822 1.379 . S
C822 H806 0.931 . S
C822 C816 1.383 . S
C822 C821 1.379 . S
H823 C817 0.959 . S
H824 C817 0.961 . S
H825 C817 0.960 . S
H826 C818 0.930 . S
H827 C819 0.929 . S
H828 C836 0.929 . S
H829 C838 0.930 . S
H830 C840 0.930 . S
H831 C843 0.929 . S
H832 C846 0.946 . S
H833 C848 0.960 . S
H834 C848 0.960 . S
H835 C848 0.960 . S
C836 H828 0.929 . S
C836 C837 1.377 . S
C836 C838 1.384 . S
C837 C836 1.377 . S
C837 C843 1.390 . S
C838 H829 0.930 . S
C838 C836 1.384 . S
C838 C839 1.372 . S
C839 C838 1.372 . S
C839 C840 1.400 . S
C839 C844 1.490 . S
C840 H830 0.930 . S
C840 C839 1.400 . S
C840 C843 1.386 . S
H841 C857 0.930 . S
H842 C858 0.931 1_545 S
C843 H831 0.929 . S
C843 C837 1.390 . S
C843 C840 1.386 . S
C844 C839 1.490 . S
C844 C846 1.359 1_545 S
C844 C847 1.403 . S
H845 C851 0.930 . S
C846 H832 0.946 . S
C846 C844 1.359 1_565 S
C846 C849 1.423 . S
C847 C844 1.403 . S
C847 C848 1.524 . S
C847 C851 1.400 . S
C848 H833 0.960 . S
C848 H834 0.960 . S
C848 H835 0.960 . S
C848 C847 1.524 . S
C849 C846 1.423 . S
C849 C850 1.392 . S
C849 C853 1.495 . S
C850 C849 1.392 . S
C850 C851 1.385 1_565 S
C850 C852 1.478 . S
C851 H845 0.930 . S
C851 C847 1.400 . S
C851 C850 1.385 1_545 S
C852 C850 1.478 . S
C852 C854 1.381 . S
C852 C858 1.383 . S
C853 C849 1.495 . S
C853 H859 0.959 . S
C853 H860 0.961 . S
C853 H861 0.960 . S
C854 C852 1.381 . S
C854 C855 1.394 . S
C854 H862 0.930 . S
C855 C854 1.394 . S
C855 C856 1.383 . S
C855 H863 0.929 . S
C856 C855 1.383 . S
C856 C857 1.377 . S
C857 H841 0.930 . S
C857 C856 1.377 . S
C857 C858 1.379 . S
C858 H842 0.931 1_565 S
C858 C852 1.383 . S
C858 C857 1.379 . S
H859 C853 0.959 . S
H860 C853 0.961 . S
H861 C853 0.960 . S
H862 C854 0.930 . S
H863 C855 0.929 . S
H864 C872 0.929 . S
H865 C874 0.930 . S
H866 C876 0.930 . S
H867 C879 0.929 . S
H868 C882 0.930 . S
H869 C884 0.960 . S
H870 C884 0.960 . S
H871 C884 0.960 . S
C872 H864 0.929 . S
C872 C873 1.377 . S
C872 C874 1.384 . S
C873 C872 1.377 . S
C873 C879 1.390 . S
C874 H865 0.930 . S
C874 C872 1.384 . S
C874 C875 1.372 . S
C875 C874 1.372 . S
C875 C876 1.400 . S
C875 C880 1.490 . S
C876 H866 0.930 . S
C876 C875 1.400 . S
C876 C879 1.386 . S
H877 C893 0.930 . S
H878 C894 0.931 . S
C879 H867 0.929 . S
C879 C873 1.390 . S
C879 C876 1.386 . S
C880 C875 1.490 . S
C880 C882 1.395 1_455 S
C880 C883 1.403 . S
H881 C887 0.930 . S
C882 H868 0.930 . S
C882 C880 1.395 1_655 S
C882 C885 1.403 . S
C883 C880 1.403 . S
C883 C884 1.524 . S
C883 C887 1.400 . S
C884 H869 0.960 . S
C884 H870 0.960 . S
C884 H871 0.960 . S
C884 C883 1.524 . S
C885 C882 1.403 . S
C885 C886 1.392 . S
C885 C889 1.495 . S
C886 C885 1.392 . S
C886 C887 1.385 1_655 S
C886 C888 1.478 . S
C887 H881 0.930 . S
C887 C883 1.400 . S
C887 C886 1.385 1_455 S
C888 C886 1.478 . S
C888 C890 1.381 . S
C888 C894 1.383 . S
C889 C885 1.495 . S
C889 H895 0.959 . S
C889 H896 0.961 . S
C889 H897 0.960 . S
C890 C888 1.381 . S
C890 C891 1.394 . S
C890 H898 0.930 . S
C891 C890 1.394 . S
C891 C892 1.383 . S
C891 H899 0.929 . S
C892 C891 1.383 . S
C892 C893 1.377 . S
C893 H877 0.930 . S
C893 C892 1.377 . S
C893 C894 1.379 . S
C894 H878 0.931 . S
C894 C888 1.383 . S
C894 C893 1.379 . S
H895 C889 0.959 . S
H896 C889 0.961 . S
H897 C889 0.960 . S
H898 C890 0.930 . S
H899 C891 0.929 . S
H900 C908 0.929 . S
H901 C910 0.930 . S
H902 C912 0.930 . S
H903 C915 0.929 . S
H904 C918 0.930 . S
H905 C920 0.960 . S
H906 C920 0.960 . S
H907 C920 0.960 . S
C908 H900 0.929 . S
C908 C909 1.377 . S
C908 C910 1.384 . S
C909 C908 1.377 . S
C909 C915 1.390 . S
C910 H901 0.930 . S
C910 C908 1.384 . S
C910 C911 1.372 . S
C911 C910 1.372 . S
C911 C912 1.400 . S
C911 C916 1.490 . S
C912 H902 0.930 . S
C912 C911 1.400 . S
C912 C915 1.386 . S
H913 C929 0.930 . S
H914 C930 0.931 . S
C915 H903 0.929 . S
C915 C909 1.390 . S
C915 C912 1.386 . S
C916 C911 1.490 . S
C916 C918 1.395 . S
C916 C919 1.403 . S
H917 C923 0.930 . S
C918 H904 0.930 . S
C918 C916 1.395 . S
C918 C921 1.403 . S
C919 C916 1.403 . S
C919 C920 1.524 . S
C919 C923 1.400 . S
C920 H905 0.960 . S
C920 H906 0.960 . S
C920 H907 0.960 . S
C920 C919 1.524 . S
C921 C918 1.403 . S
C921 C922 1.392 . S
C921 C925 1.495 . S
C922 C921 1.392 . S
C922 C923 1.385 . S
C922 C924 1.478 . S
C923 H917 0.930 . S
C923 C919 1.400 . S
C923 C922 1.385 . S
C924 C922 1.478 . S
C924 C926 1.381 . S
C924 C930 1.383 . S
C925 C921 1.495 . S
C925 H931 0.959 . S
C925 H932 0.961 . S
C925 H933 0.960 . S
C926 C924 1.381 . S
C926 C927 1.394 . S
C926 H934 0.930 . S
C927 C926 1.394 . S
C927 C928 1.383 . S
C927 H935 0.929 . S
C928 C927 1.383 . S
C928 C929 1.377 . S
C929 H913 0.930 . S
C929 C928 1.377 . S
C929 C930 1.379 . S
C930 H914 0.931 . S
C930 C924 1.383 . S
C930 C929 1.379 . S
H931 C925 0.959 . S
H932 C925 0.961 . S
H933 C925 0.960 . S
H934 C926 0.930 . S
H935 C927 0.929 . S
H936 C944 0.929 . S
H937 C946 0.930 . S
H938 C948 0.930 . S
H939 C951 0.929 . S
H940 C954 0.930 . S
H941 C956 0.960 . S
H942 C956 0.960 . S
H943 C956 0.960 . S
C944 H936 0.929 . S
C944 C945 1.377 . S
C944 C946 1.384 . S
C945 C944 1.377 . S
C945 C951 1.390 . S
C946 H937 0.930 . S
C946 C944 1.384 . S
C946 C947 1.372 . S
C947 C946 1.372 . S
C947 C948 1.400 . S
C947 C952 1.490 . S
C948 H938 0.930 . S
C948 C947 1.400 . S
C948 C951 1.386 . S
H949 C965 0.930 . S
H950 C966 0.931 . S
C951 H939 0.929 . S
C951 C945 1.390 . S
C951 C948 1.386 . S
C952 C947 1.490 . S
C952 C954 1.395 . S
C952 C955 1.403 . S
H953 C959 0.930 . S
C954 H940 0.930 . S
C954 C952 1.395 . S
C954 C957 1.403 . S
C955 C952 1.403 . S
C955 C956 1.524 . S
C955 C959 1.400 . S
C956 H941 0.960 . S
C956 H942 0.960 . S
C956 H943 0.960 . S
C956 C955 1.524 . S
C957 C954 1.403 . S
C957 C958 1.392 . S
C957 C961 1.495 . S
C958 C957 1.392 . S
C958 C959 1.385 . S
C958 C960 1.478 . S
C959 H953 0.930 . S
C959 C955 1.400 . S
C959 C958 1.385 . S
C960 C958 1.478 . S
C960 C962 1.381 . S
C960 C966 1.383 . S
C961 C957 1.495 . S
C961 H967 0.959 . S
C961 H968 0.961 . S
C961 H969 0.960 . S
C962 C960 1.381 . S
C962 C963 1.394 . S
C962 H970 0.930 . S
C963 C962 1.394 . S
C963 C964 1.383 . S
C963 H971 0.929 . S
C964 C963 1.383 . S
C964 C965 1.377 . S
C965 H949 0.930 . S
C965 C964 1.377 . S
C965 C966 1.379 . S
C966 H950 0.931 . S
C966 C960 1.383 . S
C966 C965 1.379 . S
H967 C961 0.959 . S
H968 C961 0.961 . S
H969 C961 0.960 . S
H970 C962 0.930 . S
H971 C963 0.929 . S
H972 C980 0.929 . S
H973 C982 0.930 . S
H974 C984 0.930 . S
H975 C987 0.929 . S
H976 C990 0.930 . S
H977 C992 0.960 . S
H978 C992 0.960 . S
H979 C992 0.960 . S
C980 H972 0.929 . S
C980 C981 1.377 . S
C980 C982 1.384 . S
C981 C980 1.377 . S
C981 C987 1.390 . S
C982 H973 0.930 . S
C982 C980 1.384 . S
C982 C983 1.372 . S
C983 C982 1.372 . S
C983 C984 1.400 . S
C983 C988 1.490 . S
C984 H974 0.930 . S
C984 C983 1.400 . S
C984 C987 1.386 . S
H985 C1001 0.930 . S
H986 C1002 0.931 . S
C987 H975 0.929 . S
C987 C981 1.390 . S
C987 C984 1.386 . S
C988 C983 1.490 . S
C988 C990 1.395 . S
C988 C991 1.403 . S
H989 C995 0.930 . S
C990 H976 0.930 . S
C990 C988 1.395 . S
C990 C993 1.403 . S
C991 C988 1.403 . S
C991 C992 1.524 . S
C991 C995 1.400 . S
C992 H977 0.960 . S
C992 H978 0.960 . S
C992 H979 0.960 . S
C992 C991 1.524 . S
C993 C990 1.403 . S
C993 C994 1.392 . S
C993 C997 1.495 . S
C994 C993 1.392 . S
C994 C995 1.385 . S
C994 C996 1.478 . S
C995 H989 0.930 . S
C995 C991 1.400 . S
C995 C994 1.385 . S
C996 C994 1.478 . S
C996 C998 1.381 . S
C996 C1002 1.383 . S
C997 C993 1.495 . S
C997 H1003 0.959 . S
C997 H1004 0.961 . S
C997 H1005 0.960 . S
C998 C996 1.381 . S
C998 C999 1.394 . S
C998 H1006 0.930 . S
C999 C998 1.394 . S
C999 C1000 1.383 . S
C999 H1007 0.929 . S
C1000 C999 1.383 . S
C1000 C1001 1.377 . S
C1001 H985 0.930 . S
C1001 C1000 1.377 . S
C1001 C1002 1.379 . S
C1002 H986 0.931 . S
C1002 C996 1.383 . S
C1002 C1001 1.379 . S
H1003 C997 0.959 . S
H1004 C997 0.961 . S
H1005 C997 0.960 . S
H1006 C998 0.930 . S
H1007 C999 0.929 . S
H1008 C1016 0.929 . S
H1009 C1018 0.930 . S
H1010 C1020 0.930 . S
H1011 C1023 0.929 . S
H1012 C1026 0.930 . S
H1013 C1028 0.960 . S
H1014 C1028 0.960 . S
H1015 C1028 0.960 . S
C1016 H1008 0.929 . S
C1016 C1017 1.377 . S
C1016 C1018 1.384 . S
C1017 C1016 1.377 . S
C1017 C1023 1.390 . S
C1018 H1009 0.930 . S
C1018 C1016 1.384 . S
C1018 C1019 1.372 . S
C1019 C1018 1.372 . S
C1019 C1020 1.400 . S
C1019 C1024 1.490 . S
C1020 H1010 0.930 . S
C1020 C1019 1.400 . S
C1020 C1023 1.386 . S
H1021 C1037 0.930 . S
H1022 C1038 0.931 . S
C1023 H1011 0.929 . S
C1023 C1017 1.390 . S
C1023 C1020 1.386 . S
C1024 C1019 1.490 . S
C1024 C1026 1.395 . S
C1024 C1027 1.403 . S
H1025 C1031 0.930 . S
C1026 H1012 0.930 . S
C1026 C1024 1.395 . S
C1026 C1029 1.403 . S
C1027 C1024 1.403 . S
C1027 C1028 1.524 . S
C1027 C1031 1.400 . S
C1028 H1013 0.960 . S
C1028 H1014 0.960 . S
C1028 H1015 0.960 . S
C1028 C1027 1.524 . S
C1029 C1026 1.403 . S
C1029 C1030 1.392 . S
C1029 C1033 1.495 . S
C1030 C1029 1.392 . S
C1030 C1031 1.385 . S
C1030 C1032 1.478 . S
C1031 H1025 0.930 . S
C1031 C1027 1.400 . S
C1031 C1030 1.385 . S
C1032 C1030 1.478 . S
C1032 C1034 1.381 . S
C1032 C1038 1.383 . S
C1033 C1029 1.495 . S
C1033 H1039 0.959 . S
C1033 H1040 0.961 . S
C1033 H1041 0.960 . S
C1034 C1032 1.381 . S
C1034 C1035 1.394 . S
C1034 H1042 0.930 . S
C1035 C1034 1.394 . S
C1035 C1036 1.383 . S
C1035 H1043 0.929 . S
C1036 C1035 1.383 . S
C1036 C1037 1.377 . S
C1037 H1021 0.930 . S
C1037 C1036 1.377 . S
C1037 C1038 1.379 . S
C1038 H1022 0.931 . S
C1038 C1032 1.383 . S
C1038 C1037 1.379 . S
H1039 C1033 0.959 . S
H1040 C1033 0.961 . S
H1041 C1033 0.960 . S
H1042 C1034 0.930 . S
H1043 C1035 0.929 . S
H1044 C1052 0.929 . S
H1045 C1054 0.930 . S
H1046 C1056 0.930 . S
H1047 C1059 0.929 . S
H1048 C1062 0.930 . S
H1049 C1064 0.960 . S
H1050 C1064 0.960 . S
H1051 C1064 0.960 . S
C1052 H1044 0.929 . S
C1052 C1053 1.377 . S
C1052 C1054 1.384 . S
C1053 C1052 1.377 . S
C1053 C1059 1.390 . S
C1054 H1045 0.930 . S
C1054 C1052 1.384 . S
C1054 C1055 1.372 . S
C1055 C1054 1.372 . S
C1055 C1056 1.400 . S
C1055 C1060 1.490 . S
C1056 H1046 0.930 . S
C1056 C1055 1.400 . S
C1056 C1059 1.386 . S
H1057 C1073 0.930 . S
H1058 C1074 0.931 . S
C1059 H1047 0.929 . S
C1059 C1053 1.390 . S
C1059 C1056 1.386 . S
C1060 C1055 1.490 . S
C1060 C1062 1.395 . S
C1060 C1063 1.403 . S
H1061 C1067 0.930 . S
C1062 H1048 0.930 . S
C1062 C1060 1.395 . S
C1062 C1065 1.403 . S
C1063 C1060 1.403 . S
C1063 C1064 1.524 . S
C1063 C1067 1.400 . S
C1064 H1049 0.960 . S
C1064 H1050 0.960 . S
C1064 H1051 0.960 . S
C1064 C1063 1.524 . S
C1065 C1062 1.403 . S
C1065 C1066 1.392 . S
C1065 C1069 1.495 . S
C1066 C1065 1.392 . S
C1066 C1067 1.385 . S
C1066 C1068 1.478 . S
C1067 H1061 0.930 . S
C1067 C1063 1.400 . S
C1067 C1066 1.385 . S
C1068 C1066 1.478 . S
C1068 C1070 1.381 . S
C1068 C1074 1.383 . S
C1069 C1065 1.495 . S
C1069 H1075 0.959 . S
C1069 H1076 0.961 . S
C1069 H1077 0.960 . S
C1070 C1068 1.381 . S
C1070 C1071 1.394 . S
C1070 H1078 0.930 . S
C1071 C1070 1.394 . S
C1071 C1072 1.383 . S
C1071 H1079 0.929 . S
C1072 C1071 1.383 . S
C1072 C1073 1.377 . S
C1073 H1057 0.930 . S
C1073 C1072 1.377 . S
C1073 C1074 1.379 . S
C1074 H1058 0.931 . S
C1074 C1068 1.383 . S
C1074 C1073 1.379 . S
H1075 C1069 0.959 . S
H1076 C1069 0.961 . S
H1077 C1069 0.960 . S
H1078 C1070 0.930 . S
H1079 C1071 0.929 . S
H1080 C1088 0.929 . S
H1081 C1090 0.930 . S
H1082 C1092 0.930 . S
H1083 C1095 0.929 . S
H1084 C1098 0.930 . S
H1085 C1100 0.960 . S
H1086 C1100 0.960 . S
H1087 C1100 0.960 . S
C1088 H1080 0.929 . S
C1088 C1089 1.377 . S
C1088 C1090 1.384 . S
C1089 C1088 1.377 . S
C1089 C1095 1.390 . S
C1090 H1081 0.930 . S
C1090 C1088 1.384 . S
C1090 C1091 1.372 . S
C1091 C1090 1.372 . S
C1091 C1092 1.400 . S
C1091 C1096 1.490 . S
C1092 H1082 0.930 . S
C1092 C1091 1.400 . S
C1092 C1095 1.386 . S
H1093 C1109 0.930 . S
H1094 C1110 0.931 . S
C1095 H1083 0.929 . S
C1095 C1089 1.390 . S
C1095 C1092 1.386 . S
C1096 C1091 1.490 . S
C1096 C1098 1.395 . S
C1096 C1099 1.403 . S
H1097 C1103 0.930 . S
C1098 H1084 0.930 . S
C1098 C1096 1.395 . S
C1098 C1101 1.403 . S
C1099 C1096 1.403 . S
C1099 C1100 1.524 . S
C1099 C1103 1.400 . S
C1100 H1085 0.960 . S
C1100 H1086 0.960 . S
C1100 H1087 0.960 . S
C1100 C1099 1.524 . S
C1101 C1098 1.403 . S
C1101 C1102 1.392 . S
C1101 C1105 1.495 . S
C1102 C1101 1.392 . S
C1102 C1103 1.385 . S
C1102 C1104 1.478 . S
C1103 H1097 0.930 . S
C1103 C1099 1.400 . S
C1103 C1102 1.385 . S
C1104 C1102 1.478 . S
C1104 C1106 1.381 . S
C1104 C1110 1.383 . S
C1105 C1101 1.495 . S
C1105 H1111 0.959 . S
C1105 H1112 0.961 . S
C1105 H1113 0.960 . S
C1106 C1104 1.381 . S
C1106 C1107 1.394 . S
C1106 H1114 0.930 . S
C1107 C1106 1.394 . S
C1107 C1108 1.383 . S
C1107 H1115 0.929 . S
C1108 C1107 1.383 . S
C1108 C1109 1.377 . S
C1109 H1093 0.930 . S
C1109 C1108 1.377 . S
C1109 C1110 1.379 . S
C1110 H1094 0.931 . S
C1110 C1104 1.383 . S
C1110 C1109 1.379 . S
H1111 C1105 0.959 . S
H1112 C1105 0.961 . S
H1113 C1105 0.960 . S
H1114 C1106 0.930 . S
H1115 C1107 0.929 . S
H1116 C1124 0.929 . S
H1117 C1126 0.930 . S
H1118 C1128 0.930 . S
H1119 C1131 0.929 . S
H1120 C1134 0.930 . S
H1121 C1136 0.960 . S
H1122 C1136 0.960 . S
H1123 C1136 0.960 . S
C1124 H1116 0.929 . S
C1124 C1125 1.377 . S
C1124 C1126 1.384 . S
C1125 C1124 1.377 . S
C1125 C1131 1.390 . S
C1126 H1117 0.930 . S
C1126 C1124 1.384 . S
C1126 C1127 1.372 . S
C1127 C1126 1.372 . S
C1127 C1128 1.400 . S
C1127 C1132 1.490 . S
C1128 H1118 0.930 . S
C1128 C1127 1.400 . S
C1128 C1131 1.386 . S
H1129 C1145 0.930 . S
H1130 C1146 0.931 . S
C1131 H1119 0.929 . S
C1131 C1125 1.390 . S
C1131 C1128 1.386 . S
C1132 C1127 1.490 . S
C1132 C1134 1.395 . S
C1132 C1135 1.403 . S
H1133 C1139 0.930 . S
C1134 H1120 0.930 . S
C1134 C1132 1.395 . S
C1134 C1137 1.403 . S
C1135 C1132 1.403 . S
C1135 C1136 1.524 . S
C1135 C1139 1.400 . S
C1136 H1121 0.960 . S
C1136 H1122 0.960 . S
C1136 H1123 0.960 . S
C1136 C1135 1.524 . S
C1137 C1134 1.403 . S
C1137 C1138 1.392 . S
C1137 C1141 1.495 . S
C1138 C1137 1.392 . S
C1138 C1139 1.385 . S
C1138 C1140 1.478 . S
C1139 H1133 0.930 . S
C1139 C1135 1.400 . S
C1139 C1138 1.385 . S
C1140 C1138 1.478 . S
C1140 C1142 1.381 . S
C1140 C1146 1.383 . S
C1141 C1137 1.495 . S
C1141 H1147 0.959 . S
C1141 H1148 0.961 . S
C1141 H1149 0.960 . S
C1142 C1140 1.381 . S
C1142 C1143 1.394 . S
C1142 H1150 0.930 . S
C1143 C1142 1.394 . S
C1143 C1144 1.383 . S
C1143 H1151 0.929 . S
C1144 C1143 1.383 . S
C1144 C1145 1.377 . S
C1145 H1129 0.930 . S
C1145 C1144 1.377 . S
C1145 C1146 1.379 . S
C1146 H1130 0.931 . S
C1146 C1140 1.383 . S
C1146 C1145 1.379 . S
H1147 C1141 0.959 . S
H1148 C1141 0.961 . S
H1149 C1141 0.960 . S
H1150 C1142 0.930 . S
H1151 C1143 0.929 . S
H1152 C1160 0.929 . S
H1153 C1162 0.930 . S
H1154 C1164 0.930 . S
H1155 C1167 0.929 . S
H1156 C1170 0.930 . S
H1157 C1172 0.960 . S
H1158 C1172 0.960 . S
H1159 C1172 0.960 . S
C1160 H1152 0.929 . S
C1160 C1161 1.377 . S
C1160 C1162 1.384 . S
C1161 C1160 1.377 . S
C1161 C1167 1.390 . S
C1162 H1153 0.930 . S
C1162 C1160 1.384 . S
C1162 C1163 1.372 . S
C1163 C1162 1.372 . S
C1163 C1164 1.400 . S
C1163 C1168 1.490 . S
C1164 H1154 0.930 . S
C1164 C1163 1.400 . S
C1164 C1167 1.386 . S
H1165 C1181 0.930 . S
H1166 C1182 0.931 . S
C1167 H1155 0.929 . S
C1167 C1161 1.390 . S
C1167 C1164 1.386 . S
C1168 C1163 1.490 . S
C1168 C1170 1.395 . S
C1168 C1171 1.403 . S
H1169 C1175 0.930 . S
C1170 H1156 0.930 . S
C1170 C1168 1.395 . S
C1170 C1173 1.403 . S
C1171 C1168 1.403 . S
C1171 C1172 1.524 . S
C1171 C1175 1.400 . S
C1172 H1157 0.960 . S
C1172 H1158 0.960 . S
C1172 H1159 0.960 . S
C1172 C1171 1.524 . S
C1173 C1170 1.403 . S
C1173 C1174 1.392 . S
C1173 C1177 1.495 . S
C1174 C1173 1.392 . S
C1174 C1175 1.385 . S
C1174 C1176 1.478 . S
C1175 H1169 0.930 . S
C1175 C1171 1.400 . S
C1175 C1174 1.385 . S
C1176 C1174 1.478 . S
C1176 C1178 1.381 . S
C1176 C1182 1.383 . S
C1177 C1173 1.495 . S
C1177 H1183 0.959 . S
C1177 H1184 0.961 . S
C1177 H1185 0.960 . S
C1178 C1176 1.381 . S
C1178 C1179 1.394 . S
C1178 H1186 0.930 . S
C1179 C1178 1.394 . S
C1179 C1180 1.383 . S
C1179 H1187 0.929 . S
C1180 C1179 1.383 . S
C1180 C1181 1.377 . S
C1181 H1165 0.930 . S
C1181 C1180 1.377 . S
C1181 C1182 1.379 . S
C1182 H1166 0.931 . S
C1182 C1176 1.383 . S
C1182 C1181 1.379 . S
H1183 C1177 0.959 . S
H1184 C1177 0.961 . S
H1185 C1177 0.960 . S
H1186 C1178 0.930 . S
H1187 C1179 0.929 . S
H1188 C1196 0.929 . S
H1189 C1198 0.930 . S
H1190 C1200 0.930 . S
H1191 C1203 0.929 . S
H1192 C1206 0.930 . S
H1193 C1208 0.960 . S
H1194 C1208 0.960 . S
H1195 C1208 0.960 . S
C1196 H1188 0.929 . S
C1196 C1197 1.377 . S
C1196 C1198 1.384 . S
C1197 C1196 1.377 . S
C1197 C1203 1.390 . S
C1198 H1189 0.930 . S
C1198 C1196 1.384 . S
C1198 C1199 1.372 . S
C1199 C1198 1.372 . S
C1199 C1200 1.400 . S
C1199 C1204 1.490 . S
C1200 H1190 0.930 . S
C1200 C1199 1.400 . S
C1200 C1203 1.386 . S
H1201 C1217 0.930 . S
H1202 C1218 0.931 . S
C1203 H1191 0.929 . S
C1203 C1197 1.390 . S
C1203 C1200 1.386 . S
C1204 C1199 1.490 . S
C1204 C1206 1.395 . S
C1204 C1207 1.403 . S
H1205 C1211 0.930 . S
C1206 H1192 0.930 . S
C1206 C1204 1.395 . S
C1206 C1209 1.403 . S
C1207 C1204 1.403 . S
C1207 C1208 1.524 . S
C1207 C1211 1.400 . S
C1208 H1193 0.960 . S
C1208 H1194 0.960 . S
C1208 H1195 0.960 . S
C1208 C1207 1.524 . S
C1209 C1206 1.403 . S
C1209 C1210 1.392 . S
C1209 C1213 1.495 . S
C1210 C1209 1.392 . S
C1210 C1211 1.385 . S
C1210 C1212 1.478 . S
C1211 H1205 0.930 . S
C1211 C1207 1.400 . S
C1211 C1210 1.385 . S
C1212 C1210 1.478 . S
C1212 C1214 1.381 . S
C1212 C1218 1.383 . S
C1213 C1209 1.495 . S
C1213 H1219 0.959 . S
C1213 H1220 0.961 . S
C1213 H1221 0.960 . S
C1214 C1212 1.381 . S
C1214 C1215 1.394 . S
C1214 H1222 0.930 . S
C1215 C1214 1.394 . S
C1215 C1216 1.383 . S
C1215 H1223 0.929 . S
C1216 C1215 1.383 . S
C1216 C1217 1.377 . S
C1217 H1201 0.930 . S
C1217 C1216 1.377 . S
C1217 C1218 1.379 . S
C1218 H1202 0.931 . S
C1218 C1212 1.383 . S
C1218 C1217 1.379 . S
H1219 C1213 0.959 . S
H1220 C1213 0.961 . S
H1221 C1213 0.960 . S
H1222 C1214 0.930 . S
H1223 C1215 0.929 . S
H1224 C1232 0.929 . S
H1225 C1234 0.930 . S
H1226 C1236 0.930 . S
H1227 C1239 0.929 . S
H1228 C1242 0.930 . S
H1229 C1244 0.960 . S
H1230 C1244 0.960 . S
H1231 C1244 0.960 . S
C1232 H1224 0.929 . S
C1232 C1233 1.377 . S
C1232 C1234 1.384 . S
C1233 C1232 1.377 . S
C1233 C1239 1.390 . S
C1234 H1225 0.930 . S
C1234 C1232 1.384 . S
C1234 C1235 1.372 . S
C1235 C1234 1.372 . S
C1235 C1236 1.400 . S
C1235 C1240 1.490 . S
C1236 H1226 0.930 . S
C1236 C1235 1.400 . S
C1236 C1239 1.386 . S
H1237 C1253 0.930 . S
H1238 C1254 0.931 . S
C1239 H1227 0.929 . S
C1239 C1233 1.390 . S
C1239 C1236 1.386 . S
C1240 C1235 1.490 . S
C1240 C1242 1.395 . S
C1240 C1243 1.403 . S
H1241 C1247 0.930 . S
C1242 H1228 0.930 . S
C1242 C1240 1.395 . S
C1242 C1245 1.403 . S
C1243 C1240 1.403 . S
C1243 C1244 1.524 . S
C1243 C1247 1.400 . S
C1244 H1229 0.960 . S
C1244 H1230 0.960 . S
C1244 H1231 0.960 . S
C1244 C1243 1.524 . S
C1245 C1242 1.403 . S
C1245 C1246 1.392 . S
C1245 C1249 1.495 . S
C1246 C1245 1.392 . S
C1246 C1247 1.385 . S
C1246 C1248 1.478 . S
C1247 H1241 0.930 . S
C1247 C1243 1.400 . S
C1247 C1246 1.385 . S
C1248 C1246 1.478 . S
C1248 C1250 1.381 . S
C1248 C1254 1.383 . S
C1249 C1245 1.495 . S
C1249 H1255 0.959 . S
C1249 H1256 0.961 . S
C1249 H1257 0.960 . S
C1250 C1248 1.381 . S
C1250 C1251 1.394 . S
C1250 H1258 0.930 . S
C1251 C1250 1.394 . S
C1251 C1252 1.383 . S
C1251 H1259 0.929 . S
C1252 C1251 1.383 . S
C1252 C1253 1.377 . S
C1253 H1237 0.930 . S
C1253 C1252 1.377 . S
C1253 C1254 1.379 . S
C1254 H1238 0.931 . S
C1254 C1248 1.383 . S
C1254 C1253 1.379 . S
H1255 C1249 0.959 . S
H1256 C1249 0.961 . S
H1257 C1249 0.960 . S
H1258 C1250 0.930 . S
H1259 C1251 0.929 . S
H1260 C1268 0.929 . S
H1261 C1270 0.930 . S
H1262 C1272 0.930 . S
H1263 C1275 0.929 . S
H1264 C1278 0.930 . S
H1265 C1280 0.960 . S
H1266 C1280 0.960 . S
H1267 C1280 0.960 . S
C1268 H1260 0.929 . S
C1268 C1269 1.377 . S
C1268 C1270 1.384 . S
C1269 C1268 1.377 . S
C1269 C1275 1.390 . S
C1270 H1261 0.930 . S
C1270 C1268 1.384 . S
C1270 C1271 1.372 . S
C1271 C1270 1.372 . S
C1271 C1272 1.400 . S
C1271 C1276 1.490 . S
C1272 H1262 0.930 . S
C1272 C1271 1.400 . S
C1272 C1275 1.386 . S
H1273 C1289 0.930 . S
H1274 C1290 0.931 . S
C1275 H1263 0.929 . S
C1275 C1269 1.390 . S
C1275 C1272 1.386 . S
C1276 C1271 1.490 . S
C1276 C1278 1.395 . S
C1276 C1279 1.403 . S
H1277 C1283 0.930 . S
C1278 H1264 0.930 . S
C1278 C1276 1.395 . S
C1278 C1281 1.403 . S
C1279 C1276 1.403 . S
C1279 C1280 1.524 . S
C1279 C1283 1.400 . S
C1280 H1265 0.960 . S
C1280 H1266 0.960 . S
C1280 H1267 0.960 . S
C1280 C1279 1.524 . S
C1281 C1278 1.403 . S
C1281 C1282 1.392 . S
C1281 C1285 1.495 . S
C1282 C1281 1.392 . S
C1282 C1283 1.385 . S
C1282 C1284 1.478 . S
C1283 H1277 0.930 . S
C1283 C1279 1.400 . S
C1283 C1282 1.385 . S
C1284 C1282 1.478 . S
C1284 C1286 1.381 . S
C1284 C1290 1.383 . S
C1285 C1281 1.495 . S
C1285 H1291 0.959 . S
C1285 H1292 0.961 . S
C1285 H1293 0.960 . S
C1286 C1284 1.381 . S
C1286 C1287 1.394 . S
C1286 H1294 0.930 . S
C1287 C1286 1.394 . S
C1287 C1288 1.383 . S
C1287 H1295 0.929 . S
C1288 C1287 1.383 . S
C1288 C1289 1.377 . S
C1289 H1273 0.930 . S
C1289 C1288 1.377 . S
C1289 C1290 1.379 . S
C1290 H1274 0.931 . S
C1290 C1284 1.383 . S
C1290 C1289 1.379 . S
H1291 C1285 0.959 . S
H1292 C1285 0.961 . S
H1293 C1285 0.960 . S
H1294 C1286 0.930 . S
H1295 C1287 0.929 . S
H1296 C1304 0.929 . S
H1297 C1306 0.930 . S
H1298 C1308 0.930 . S
H1299 C1311 0.929 . S
H1300 C1314 0.930 . S
H1301 C1316 0.960 . S
H1302 C1316 0.960 . S
H1303 C1316 0.960 . S
C1304 H1296 0.929 . S
C1304 C1305 1.377 . S
C1304 C1306 1.384 . S
C1305 C1304 1.377 . S
C1305 C1311 1.390 . S
C1306 H1297 0.930 . S
C1306 C1304 1.384 . S
C1306 C1307 1.372 . S
C1307 C1306 1.372 . S
C1307 C1308 1.400 . S
C1307 C1312 1.490 . S
C1308 H1298 0.930 . S
C1308 C1307 1.400 . S
C1308 C1311 1.386 . S
H1309 C1325 0.930 . S
H1310 C1326 0.931 . S
C1311 H1299 0.929 . S
C1311 C1305 1.390 . S
C1311 C1308 1.386 . S
C1312 C1307 1.490 . S
C1312 C1314 1.395 . S
C1312 C1315 1.403 . S
H1313 C1319 0.930 . S
C1314 H1300 0.930 . S
C1314 C1312 1.395 . S
C1314 C1317 1.403 . S
C1315 C1312 1.403 . S
C1315 C1316 1.524 . S
C1315 C1319 1.400 . S
C1316 H1301 0.960 . S
C1316 H1302 0.960 . S
C1316 H1303 0.960 . S
C1316 C1315 1.524 . S
C1317 C1314 1.403 . S
C1317 C1318 1.392 . S
C1317 C1321 1.495 . S
C1318 C1317 1.392 . S
C1318 C1319 1.385 . S
C1318 C1320 1.478 . S
C1319 H1313 0.930 . S
C1319 C1315 1.400 . S
C1319 C1318 1.385 . S
C1320 C1318 1.478 . S
C1320 C1322 1.381 . S
C1320 C1326 1.383 . S
C1321 C1317 1.495 . S
C1321 H1327 0.959 . S
C1321 H1328 0.961 . S
C1321 H1329 0.960 . S
C1322 C1320 1.381 . S
C1322 C1323 1.394 . S
C1322 H1330 0.930 . S
C1323 C1322 1.394 . S
C1323 C1324 1.383 . S
C1323 H1331 0.929 . S
C1324 C1323 1.383 . S
C1324 C1325 1.377 . S
C1325 H1309 0.930 . S
C1325 C1324 1.377 . S
C1325 C1326 1.379 . S
C1326 H1310 0.931 . S
C1326 C1320 1.383 . S
C1326 C1325 1.379 . S
H1327 C1321 0.959 . S
H1328 C1321 0.961 . S
H1329 C1321 0.960 . S
H1330 C1322 0.930 . S
H1331 C1323 0.929 . S
H1332 C1340 0.929 . S
H1333 C1342 0.930 . S
H1334 C1344 0.930 . S
H1335 C1347 0.929 . S
H1336 C1350 0.930 . S
H1337 C1352 0.960 . S
H1338 C1352 0.960 . S
H1339 C1352 0.960 . S
C1340 H1332 0.929 . S
C1340 C1341 1.377 . S
C1340 C1342 1.384 . S
C1341 C1340 1.377 . S
C1341 C1347 1.390 . S
C1342 H1333 0.930 . S
C1342 C1340 1.384 . S
C1342 C1343 1.372 . S
C1343 C1342 1.372 . S
C1343 C1344 1.400 . S
C1343 C1348 1.490 . S
C1344 H1334 0.930 . S
C1344 C1343 1.400 . S
C1344 C1347 1.386 . S
H1345 C1361 0.930 . S
H1346 C1362 0.931 . S
C1347 H1335 0.929 . S
C1347 C1341 1.390 . S
C1347 C1344 1.386 . S
C1348 C1343 1.490 . S
C1348 C1350 1.395 . S
C1348 C1351 1.403 . S
H1349 C1355 0.930 . S
C1350 H1336 0.930 . S
C1350 C1348 1.395 . S
C1350 C1353 1.403 . S
C1351 C1348 1.403 . S
C1351 C1352 1.524 . S
C1351 C1355 1.400 . S
C1352 H1337 0.960 . S
C1352 H1338 0.960 . S
C1352 H1339 0.960 . S
C1352 C1351 1.524 . S
C1353 C1350 1.403 . S
C1353 C1354 1.392 . S
C1353 C1357 1.495 . S
C1354 C1353 1.392 . S
C1354 C1355 1.385 . S
C1354 C1356 1.478 . S
C1355 H1349 0.930 . S
C1355 C1351 1.400 . S
C1355 C1354 1.385 . S
C1356 C1354 1.478 . S
C1356 C1358 1.381 . S
C1356 C1362 1.383 . S
C1357 C1353 1.495 . S
C1357 H1363 0.959 . S
C1357 H1364 0.961 . S
C1357 H1365 0.960 . S
C1358 C1356 1.381 . S
C1358 C1359 1.394 . S
C1358 H1366 0.930 . S
C1359 C1358 1.394 . S
C1359 C1360 1.383 . S
C1359 H1367 0.929 . S
C1360 C1359 1.383 . S
C1360 C1361 1.377 . S
C1361 H1345 0.930 . S
C1361 C1360 1.377 . S
C1361 C1362 1.379 . S
C1362 H1346 0.931 . S
C1362 C1356 1.383 . S
C1362 C1361 1.379 . S
H1363 C1357 0.959 . S
H1364 C1357 0.961 . S
H1365 C1357 0.960 . S
H1366 C1358 0.930 . S
H1367 C1359 0.929 . S
H1368 C1376 0.929 . S
H1369 C1378 0.930 . S
H1370 C1380 0.930 . S
H1371 C1383 0.929 . S
H1372 C1386 0.930 . S
H1373 C1388 0.960 . S
H1374 C1388 0.960 . S
H1375 C1388 0.960 . S
C1376 H1368 0.929 . S
C1376 C1377 1.377 . S
C1376 C1378 1.384 . S
C1377 C1376 1.377 . S
C1377 C1383 1.390 . S
C1378 H1369 0.930 . S
C1378 C1376 1.384 . S
C1378 C1379 1.372 . S
C1379 C1378 1.372 . S
C1379 C1380 1.400 . S
C1379 C1384 1.490 . S
C1380 H1370 0.930 . S
C1380 C1379 1.400 . S
C1380 C1383 1.386 . S
H1381 C1397 0.930 . S
H1382 C1398 0.931 . S
C1383 H1371 0.929 . S
C1383 C1377 1.390 . S
C1383 C1380 1.386 . S
C1384 C1379 1.490 . S
C1384 C1386 1.395 . S
C1384 C1387 1.403 1_545 S
H1385 C1391 0.930 . S
C1386 H1372 0.930 . S
C1386 C1384 1.395 . S
C1386 C1389 1.403 . S
C1387 C1384 1.403 1_565 S
C1387 C1388 1.524 . S
C1387 C1391 1.400 . S
C1388 H1373 0.960 . S
C1388 H1374 0.960 . S
C1388 H1375 0.960 . S
C1388 C1387 1.524 . S
C1389 C1386 1.403 . S
C1389 C1390 1.380 1_545 S
C1389 C1393 1.495 . S
C1390 C1389 1.380 1_565 S
C1390 C1391 1.399 . S
C1390 C1392 1.477 . S
C1391 H1385 0.930 . S
C1391 C1387 1.400 . S
C1391 C1390 1.399 . S
C1392 C1390 1.477 . S
C1392 C1394 1.381 . S
C1392 C1398 1.383 . S
C1393 C1389 1.495 . S
C1393 H1399 0.959 . S
C1393 H1400 0.961 . S
C1393 H1401 0.960 . S
C1394 C1392 1.381 . S
C1394 C1395 1.394 . S
C1394 H1402 0.930 . S
C1395 C1394 1.394 . S
C1395 C1396 1.383 . S
C1395 H1403 0.929 . S
C1396 C1395 1.383 . S
C1396 C1397 1.377 . S
C1397 H1381 0.930 . S
C1397 C1396 1.377 . S
C1397 C1398 1.379 . S
C1398 H1382 0.931 . S
C1398 C1392 1.383 . S
C1398 C1397 1.379 . S
H1399 C1393 0.959 . S
H1400 C1393 0.961 . S
H1401 C1393 0.960 . S
H1402 C1394 0.930 . S
H1403 C1395 0.929 . S
H1404 C1412 0.929 . S
H1405 C1414 0.934 . S
H1406 C1416 0.930 . S
H1407 C1419 0.929 . S
H1408 C1422 0.930 . S
H1409 C1424 0.960 . S
H1410 C1424 0.960 . S
H1411 C1424 0.960 . S
C1412 H1404 0.929 . S
C1412 C1413 1.377 . S
C1412 C1414 1.384 . S
C1413 C1412 1.377 . S
C1413 C1419 1.390 . S
C1414 H1405 0.934 . S
C1414 C1412 1.384 . S
C1414 C1415 1.372 . S
C1415 C1414 1.372 . S
C1415 C1416 1.400 . S
C1415 C1420 1.490 . S
C1416 H1406 0.930 . S
C1416 C1415 1.400 . S
C1416 C1419 1.386 . S
H1417 C1433 0.930 . S
H1418 C1434 0.931 1_455 S
C1419 H1407 0.929 . S
C1419 C1413 1.390 . S
C1419 C1416 1.386 . S
C1420 C1415 1.490 . S
C1420 C1422 1.395 1_455 S
C1420 C1423 1.403 . S
H1421 C1427 0.930 . S
C1422 H1408 0.930 . S
C1422 C1420 1.395 1_655 S
C1422 C1425 1.403 . S
C1423 C1420 1.403 . S
C1423 C1424 1.524 . S
C1423 C1427 1.400 . S
C1424 H1409 0.960 . S
C1424 H1410 0.960 . S
C1424 H1411 0.960 . S
C1424 C1423 1.524 . S
C1425 C1422 1.403 . S
C1425 C1426 1.392 . S
C1425 C1429 1.495 . S
C1426 C1425 1.392 . S
C1426 C1427 1.385 1_655 S
C1426 C1428 1.478 . S
C1427 H1421 0.930 . S
C1427 C1423 1.400 . S
C1427 C1426 1.385 1_455 S
C1428 C1426 1.478 . S
C1428 C1430 1.381 . S
C1428 C1434 1.383 . S
C1429 C1425 1.495 . S
C1429 H1435 0.959 . S
C1429 H1436 0.961 . S
C1429 H1437 0.960 . S
C1430 C1428 1.381 . S
C1430 C1431 1.394 . S
C1430 H1438 0.930 . S
C1431 C1430 1.394 . S
C1431 C1432 1.383 . S
C1431 H1439 0.929 . S
C1432 C1431 1.383 . S
C1432 C1433 1.377 . S
C1433 H1417 0.930 . S
C1433 C1432 1.377 . S
C1433 C1434 1.379 . S
C1434 H1418 0.931 1_655 S
C1434 C1428 1.383 . S
C1434 C1433 1.379 . S
H1435 C1429 0.959 . S
H1436 C1429 0.961 . S
H1437 C1429 0.960 . S
H1438 C1430 0.930 . S
H1439 C1431 0.929 . S
H1440 C1448 0.929 . S
H1441 C1450 0.930 . S
H1442 C1452 0.930 . S
H1443 C1455 0.929 . S
H1444 C1458 0.930 . S
H1445 C1460 0.960 . S
H1446 C1460 0.960 . S
H1447 C1460 0.960 . S
C1448 H1440 0.929 . S
C1448 C1449 1.377 . S
C1448 C1450 1.384 . S
C1449 C1448 1.377 . S
C1449 C1455 1.390 . S
C1450 H1441 0.930 . S
C1450 C1448 1.384 . S
C1450 C1451 1.372 . S
C1451 C1450 1.372 . S
C1451 C1452 1.400 . S
C1451 C1456 1.490 . S
C1452 H1442 0.930 . S
C1452 C1451 1.400 . S
C1452 C1455 1.386 . S
H1453 C1469 0.930 . S
H1454 C1470 0.931 . S
C1455 H1443 0.929 . S
C1455 C1449 1.390 . S
C1455 C1452 1.386 . S
C1456 C1451 1.490 . S
C1456 C1458 1.395 1_556 S
C1456 C1459 1.403 . S
H1457 C1463 0.930 . S
C1458 H1444 0.930 . S
C1458 C1456 1.395 1_554 S
C1458 C1461 1.403 . S
C1459 C1456 1.403 . S
C1459 C1460 1.524 . S
C1459 C1463 1.400 . S
C1460 H1445 0.960 . S
C1460 H1446 0.960 . S
C1460 H1447 0.960 . S
C1460 C1459 1.524 . S
C1461 C1458 1.403 . S
C1461 C1462 1.392 . S
C1461 C1465 1.495 . S
C1462 C1461 1.392 . S
C1462 C1463 1.385 1_554 S
C1462 C1464 1.478 . S
C1463 H1457 0.930 . S
C1463 C1459 1.400 . S
C1463 C1462 1.385 1_556 S
C1464 C1462 1.478 . S
C1464 C1466 1.381 . S
C1464 C1470 1.383 . S
C1465 C1461 1.495 . S
C1465 H1471 0.959 . S
C1465 H1472 0.961 . S
C1465 H1473 0.960 . S
C1466 C1464 1.381 . S
C1466 C1467 1.394 . S
C1466 H1474 0.930 . S
C1467 C1466 1.394 . S
C1467 C1468 1.383 . S
C1467 H1475 0.929 . S
C1468 C1467 1.383 . S
C1468 C1469 1.377 . S
C1469 H1453 0.930 . S
C1469 C1468 1.377 . S
C1469 C1470 1.379 . S
C1470 H1454 0.931 . S
C1470 C1464 1.383 . S
C1470 C1469 1.379 . S
H1471 C1465 0.959 . S
H1472 C1465 0.961 . S
H1473 C1465 0.960 . S
H1474 C1466 0.930 . S
H1475 C1467 0.929 . S
H1476 C1484 0.929 . S
H1477 C1486 0.930 1_545 S
H1478 C1488 0.930 . S
H1479 C1491 0.929 . S
H1480 C1494 0.930 . S
H1481 C1496 0.960 . S
H1482 C1496 0.960 . S
H1483 C1496 0.960 . S
C1484 H1476 0.929 . S
C1484 C1485 1.377 . S
C1484 C1486 1.384 . S
C1485 C1484 1.377 . S
C1485 C1491 1.390 . S
C1486 H1477 0.930 1_565 S
C1486 C1484 1.384 . S
C1486 C1487 1.372 . S
C1487 C1486 1.372 . S
C1487 C1488 1.400 . S
C1487 C1492 1.490 . S
C1488 H1478 0.930 . S
C1488 C1487 1.400 . S
C1488 C1491 1.386 . S
H1489 C1505 0.930 . S
H1490 C1506 0.931 1_565 S
C1491 H1479 0.929 . S
C1491 C1485 1.390 . S
C1491 C1488 1.386 . S
C1492 C1487 1.490 . S
C1492 C1494 1.395 1_565 S
C1492 C1495 1.403 1_556 S
H1493 C1499 0.930 . S
C1494 H1480 0.930 . S
C1494 C1492 1.395 1_545 S
C1494 C1497 1.403 . S
C1495 C1492 1.403 1_554 S
C1495 C1496 1.524 . S
C1495 C1499 1.400 1_565 S
C1496 H1481 0.960 . S
C1496 H1482 0.960 . S
C1496 H1483 0.960 . S
C1496 C1495 1.524 . S
C1497 C1494 1.403 . S
C1497 C1498 1.392 1_556 S
C1497 C1501 1.495 . S
C1498 C1497 1.392 1_554 S
C1498 C1499 1.385 . S
C1498 C1500 1.478 . S
C1499 H1493 0.930 . S
C1499 C1495 1.400 1_545 S
C1499 C1498 1.385 . S
C1500 C1498 1.478 . S
C1500 C1502 1.381 . S
C1500 C1506 1.383 . S
C1501 C1497 1.495 . S
C1501 H1507 0.959 . S
C1501 H1508 0.961 . S
C1501 H1509 0.960 . S
C1502 C1500 1.381 . S
C1502 C1503 1.394 . S
C1502 H1510 0.930 . S
C1503 C1502 1.394 . S
C1503 C1504 1.383 . S
C1503 H1511 0.929 . S
C1504 C1503 1.383 . S
C1504 C1505 1.377 . S
C1505 H1489 0.930 . S
C1505 C1504 1.377 . S
C1505 C1506 1.379 . S
C1506 H1490 0.931 1_545 S
C1506 C1500 1.383 . S
C1506 C1505 1.379 . S
H1507 C1501 0.959 . S
H1508 C1501 0.961 . S
H1509 C1501 0.960 . S
H1510 C1502 0.930 . S
H1511 C1503 0.929 . S
H1512 C1520 0.929 . S
H1513 C1522 0.930 1_554 S
H1514 C1524 0.930 . S
H1515 C1527 0.929 . S
H1516 C1530 0.930 . S
H1517 C1532 0.960 . S
H1518 C1532 0.960 . S
H1519 C1532 0.960 . S
C1520 H1512 0.929 . S
C1520 C1521 1.377 . S
C1520 C1522 1.384 . S
C1521 C1520 1.377 . S
C1521 C1527 1.390 . S
C1522 H1513 0.930 1_556 S
C1522 C1520 1.384 . S
C1522 C1523 1.372 . S
C1523 C1522 1.372 . S
C1523 C1524 1.400 . S
C1523 C1528 1.490 . S
C1524 H1514 0.930 . S
C1524 C1523 1.400 . S
C1524 C1527 1.386 . S
H1525 C1541 0.930 . S
H1526 C1542 0.931 1_556 S
C1527 H1515 0.929 . S
C1527 C1521 1.390 . S
C1527 C1524 1.386 . S
C1528 C1523 1.490 . S
C1528 C1530 1.395 1_455 S
C1528 C1531 1.403 . S
H1529 C1535 0.930 . S
C1530 H1516 0.930 . S
C1530 C1528 1.395 1_655 S
C1530 C1533 1.403 1_556 S
C1531 C1528 1.403 . S
C1531 C1532 1.524 . S
C1531 C1535 1.400 1_556 S
C1532 H1517 0.960 . S
C1532 H1518 0.960 . S
C1532 H1519 0.960 . S
C1532 C1531 1.524 . S
C1533 C1530 1.403 1_554 S
C1533 C1534 1.392 . S
C1533 C1537 1.495 . S
C1534 C1533 1.392 . S
C1534 C1535 1.385 1_655 S
C1534 C1536 1.478 . S
C1535 H1529 0.930 . S
C1535 C1531 1.400 1_554 S
C1535 C1534 1.385 1_455 S
C1536 C1534 1.478 . S
C1536 C1538 1.381 . S
C1536 C1542 1.383 . S
C1537 C1533 1.495 . S
C1537 H1543 0.959 . S
C1537 H1544 0.961 . S
C1537 H1545 0.960 . S
C1538 C1536 1.381 . S
C1538 C1539 1.394 . S
C1538 H1546 0.930 . S
C1539 C1538 1.394 . S
C1539 C1540 1.383 . S
C1539 H1547 0.929 . S
C1540 C1539 1.383 . S
C1540 C1541 1.377 . S
C1541 H1525 0.930 . S
C1541 C1540 1.377 . S
C1541 C1542 1.379 . S
C1542 H1526 0.931 1_554 S
C1542 C1536 1.383 . S
C1542 C1541 1.379 . S
H1543 C1537 0.959 . S
H1544 C1537 0.961 . S
H1545 C1537 0.960 . S
H1546 C1538 0.930 . S
H1547 C1539 0.929 . S
C261 C13 1.904 . S
C280 C208 1.882 . S
C297 C180 1.902 . S
C316 C27 1.898 . S
C333 C40 1.902 . S
C352 C183 1.888 . S
C369 C97 1.912 . S
C388 C41 1.921 . S
C405 C99 1.904 . S
C424 C12 1.883 . S
C441 C125 1.907 . S
C460 C26 1.888 . S
C477 C42 1.906 . S
C496 C167 1.920 . S
C513 C127 1.906 . S
C532 C56 1.885 . S
C549 C141 1.905 . S
C568 C82 1.885 . S
C585 C83 1.908 . S
C604 C210 1.888 . S
C621 C43 1.901 . S
C640 C237 1.906 . S
C657 C250 1.907 . S
C676 C57 1.884 . S
C693 C181 1.912 . S
C712 C124 1.921 . S
C729 C96 1.909 . S
C748 C182 1.917 . S
C765 C209 1.911 . S
C784 C98 1.919 . S
C801 C251 1.909 . S
C820 C126 1.892 . S
C837 C140 1.905 . S
C856 C211 1.918 . S
C873 C236 1.909 . S
C892 C166 1.922 . S
C909 C222 1.575 . S
C928 C1 1.571 . S
C945 C15 1.575 . S
C964 C225 1.570 . S
C981 C28 1.575 . S
C1000 C238 1.572 . S
C1017 C29 1.575 . S
C1036 C155 1.571 . S
C1053 C139 1.575 . S
C1072 C0 1.572 . S
C1089 C14 1.575 . S
C1108 C153 1.571 . S
C1125 C85 1.575 . S
C1144 C54 1.571 . S
C1161 C111 1.575 . S
C1180 C68 1.572 . S
C1197 C70 1.575 . S
C1216 C113 1.572 . S
C1233 C71 1.575 . S
C1252 C196 1.572 . S
C1269 C55 1.575 . S
C1288 C168 1.571 . S
C1305 C69 1.575 . S
C1324 C195 1.571 . S
C1341 C112 1.575 . S
C1360 C239 1.572 . S
C1377 C84 1.575 . S
C1396 C223 1.572 . S
C1413 C224 1.575 . S
C1432 C110 1.570 . S
C1449 C169 1.575 . S
C1468 C138 1.572 . S
C1485 C194 1.575 . S
C1504 C152 1.572 . S
C1521 C197 1.575 . S
C1540 C154 1.571 . S
