# Generated by pormake.
# Topology smu, (6)-cn, num edge types: 1
# Building blocks:
#     Node 0, Type 0, BuildingBlock: CUKXOW_clean_sbu_0, # of connection points: 6
#     Node 1, Type 0, BuildingBlock: CUKXOW_clean_sbu_0, # of connection points: 6
#     Node 2, Type 0, BuildingBlock: CUKXOW_clean_sbu_0, # of connection points: 6
#     Node 3, Type 0, BuildingBlock: CUKXOW_clean_sbu_0, # of connection points: 6
#     Node 4, Type 0, BuildingBlock: CUKXOW_clean_sbu_0, # of connection points: 6
#     Node 5, Type 0, BuildingBlock: CUKXOW_clean_sbu_0, # of connection points: 6
#     Edge 6, Type (0, 0), BuildingBlock: XUDNAN_clean_linker_2, # of connection points: 2
#     Edge 7, Type (0, 0), BuildingBlock: XUDNAN_clean_linker_2, # of connection points: 2
#     Edge 8, Type (0, 0), BuildingBlock: XUDNAN_clean_linker_2, # of connection points: 2
#     Edge 9, Type (0, 0), BuildingBlock: XUDNAN_clean_linker_2, # of connection points: 2
#     Edge 10, Type (0, 0), BuildingBlock: XUDNAN_clean_linker_2, # of connection points: 2
#     Edge 11, Type (0, 0), BuildingBlock: XUDNAN_clean_linker_2, # of connection points: 2
#     Edge 12, Type (0, 0), BuildingBlock: XUDNAN_clean_linker_2, # of connection points: 2
#     Edge 13, Type (0, 0), BuildingBlock: XUDNAN_clean_linker_2, # of connection points: 2
#     Edge 14, Type (0, 0), BuildingBlock: XUDNAN_clean_linker_2, # of connection points: 2
#     Edge 15, Type (0, 0), BuildingBlock: XUDNAN_clean_linker_2, # of connection points: 2
#     Edge 16, Type (0, 0), BuildingBlock: XUDNAN_clean_linker_2, # of connection points: 2
#     Edge 17, Type (0, 0), BuildingBlock: XUDNAN_clean_linker_2, # of connection points: 2
#     Edge 18, Type (0, 0), BuildingBlock: XUDNAN_clean_linker_2, # of connection points: 2
#     Edge 19, Type (0, 0), BuildingBlock: XUDNAN_clean_linker_2, # of connection points: 2
#     Edge 20, Type (0, 0), BuildingBlock: XUDNAN_clean_linker_2, # of connection points: 2
#     Edge 21, Type (0, 0), BuildingBlock: XUDNAN_clean_linker_2, # of connection points: 2
#     Edge 22, Type (0, 0), BuildingBlock: XUDNAN_clean_linker_2, # of connection points: 2
#     Edge 23, Type (0, 0), BuildingBlock: XUDNAN_clean_linker_2, # of connection points: 2
# Relax obj value: 0.192
# Max RMSD: 0.297
# Mean RMSD: 0.276
data_MOF--net-smu--node1-CUKXOW_clean_sbu_0--edge1-XUDNAN_clean_linker_2
_symmetry_space_group_name_H-M    P1
_symmetry_Int_Tables_number       1
_symmetry_cell_setting            triclinic
loop_
_symmetry_equiv_pos_as_xyz
'x, y, z'
_cell_length_a     30.149933
_cell_length_b     30.296098
_cell_length_c     28.143649
_cell_angle_alpha  93.446764
_cell_angle_beta   90.453405
_cell_angle_gamma 119.89525
loop_
_atom_site_label
_atom_site_type_symbol
_atom_site_fract_x
_atom_site_fract_y
_atom_site_fract_z
_atom_type_partial_charge
Tb0 Tb 0.42508 0.17284 0.30447 0.0
C1 C 0.38151 0.10478 0.39373 0.0
Tb2 Tb 0.33591 0.0636 0.29336 0.0
O3 O 0.37571 0.19922 0.27659 0.0
O4 O 0.34524 0.13575 0.3167 0.0
O5 O 0.42407 0.13888 0.3735 0.0
C6 C 0.23972 0.99075 0.27203 0.0
O7 O 0.33752 0.07996 0.36889 0.0
C8 C 0.42807 0.07368 0.29652 0.0
C9 C 0.385 0.11922 0.19983 0.0
O10 O 0.27188 0.98568 0.29915 0.0
O11 O 0.26216 0.03593 0.25666 0.0
O12 O 0.38775 0.03289 0.30936 0.0
O13 O 0.41394 0.10169 0.27931 0.0
O14 O 0.34449 0.08267 0.21934 0.0
O15 O 0.42529 0.15565 0.22637 0.0
C16 C 0.50127 0.26839 0.32907 0.0
O17 O 0.5016 0.23883 0.29362 0.0
O18 O 0.4595 0.24297 0.35133 0.0
C19 C 0.3343 0.1628 0.29229 0.0
Tb20 Tb 0.7763 0.72779 0.27351 0.0
C21 C 0.79267 0.69066 0.36871 0.0
Tb22 Tb 0.79849 0.63915 0.26996 0.0
O23 O 0.70363 0.67994 0.30944 0.0
O24 O 0.73417 0.64745 0.26308 0.0
O25 O 0.80259 0.73077 0.34523 0.0
C26 C 0.82084 0.56539 0.24904 0.0
O27 O 0.78193 0.64596 0.34634 0.0
C28 C 0.87855 0.73136 0.28231 0.0
C29 C 0.76426 0.67091 0.17443 0.0
O30 O 0.79022 0.5641 0.28219 0.0
O31 O 0.83651 0.60678 0.22734 0.0
O32 O 0.87475 0.69195 0.30121 0.0
O33 O 0.83904 0.71728 0.25628 0.0
O34 O 0.76853 0.63473 0.19585 0.0
O35 O 0.76899 0.71235 0.1976 0.0
C36 C 0.8024 0.82513 0.26976 0.0
O37 O 0.75614 0.78677 0.26023 0.0
O38 O 0.83232 0.80837 0.28248 0.0
C39 C 0.69915 0.63706 0.29138 0.0
Tb40 Tb 0.88716 0.2674 0.26418 0.0
C41 C 0.93386 0.26277 0.36449 0.0
Tb42 Tb 0.99296 0.27734 0.26953 0.0
O43 O 0.85146 0.18717 0.27701 0.0
O44 O 0.91921 0.22119 0.24092 0.0
O45 O 0.89919 0.27022 0.34228 0.0
C46 C 0.0597 0.24529 0.28149 0.0
O47 O 0.97184 0.26173 0.34246 0.0
C48 C 0.99084 0.3637 0.28103 0.0
C49 C 0.95983 0.29912 0.17569 0.0
O50 O 1.01257 0.22221 0.29364 0.0
O51 O 0.07015 0.28754 0.26271 0.0
O52 O 1.0299 0.36124 0.26451 0.0
O53 O 0.95958 0.32059 0.29372 0.0
O54 O 0.98004 0.27357 0.19391 0.0
O55 O 0.92453 0.30575 0.19863 0.0
C56 C 0.79685 0.26453 0.26342 0.0
O57 O 0.83522 0.29152 0.29352 0.0
O58 O 0.81135 0.24248 0.23115 0.0
C59 C 0.88726 0.18084 0.25903 0.0
Tb60 Tb 0.05417 0.31187 0.7787 0.0
C61 C 0.09624 0.3276 0.67887 0.0
Tb62 Tb 0.16043 0.39507 0.768 0.0
O63 O 1.02933 0.36857 0.79415 0.0
O64 O 0.08826 0.38409 0.7492 0.0
O65 O 0.07479 0.29317 0.7101 0.0
C66 C 0.2536 0.47597 0.7595 0.0
O67 O 0.12645 0.37625 0.69442 0.0
C68 C 0.15181 0.30509 0.77718 0.0
C69 C 0.10708 0.37834 0.87017 0.0
O70 O 0.23647 0.4309 0.73895 0.0
O71 O 0.21779 0.47617 0.78484 0.0
O72 O 0.18505 0.33954 0.75192 0.0
O73 O 0.12771 0.32334 0.79921 0.0
O74 O 0.14589 0.40985 0.84406 0.0
O75 O 0.07039 0.33339 0.85264 0.0
C76 C 0.9734 0.21799 0.77655 0.0
O77 O 0.9818 0.25077 0.74521 0.0
O78 O 1.00907 0.23915 0.80992 0.0
C79 C 0.06506 0.40359 0.77028 0.0
Tb80 Tb 0.28629 0.98017 0.78535 0.0
C81 C 0.29467 0.93054 0.68999 0.0
Tb82 Tb 0.27157 0.87421 0.78742 0.0
O83 O 0.36722 1.01264 0.76469 0.0
O84 O 0.33239 0.94852 0.80287 0.0
O85 O 0.27892 0.96056 0.70995 0.0
C86 C 0.25961 0.77967 0.78742 0.0
O87 O 0.30071 0.89725 0.71477 0.0
C88 C 0.18645 0.87976 0.79416 0.0
C89 C 0.28733 0.9398 0.88355 0.0
O90 O 0.24942 0.79868 0.75157 0.0
O91 O 0.27922 0.81512 0.82196 0.0
O92 O 0.19577 0.84854 0.81531 0.0
O93 O 0.22368 0.90457 0.76856 0.0
O94 O 0.29972 0.90776 0.86091 0.0
O95 O 0.26785 0.96258 0.85921 0.0
C96 C 0.26791 0.05806 0.79323 0.0
O97 O 0.29818 0.05183 0.82159 0.0
O98 O 0.24921 0.0213 0.75993 0.0
C99 C 0.37175 0.97566 0.78103 0.0
Tb100 Tb 0.72982 0.74147 0.76725 0.0
C101 C 0.69407 0.76365 0.67424 0.0
Tb102 Tb 0.66704 0.79603 0.77578 0.0
O103 O 0.65879 0.66592 0.74745 0.0
O104 O 0.65671 0.72444 0.78578 0.0
O105 O 0.73203 0.76217 0.69592 0.0
C106 C 0.60835 0.83936 0.76782 0.0
O107 O 0.65976 0.77077 0.69825 0.0
C108 C 0.76682 0.85487 0.78736 0.0
C109 C 0.7003 0.76482 0.86982 0.0
O110 O 0.59318 0.79457 0.78335 0.0
O111 O 0.65583 0.85889 0.75701 0.0
O112 O 0.73332 0.86029 0.81175 0.0
O113 O 0.74308 0.8167 0.7576 0.0
O114 O 0.66658 0.77577 0.85028 0.0
O115 O 0.7319 0.75563 0.84413 0.0
C116 C 0.81515 0.73512 0.77161 0.0
O117 O 0.77791 0.71093 0.73957 0.0
O118 O 0.80283 0.76056 0.80207 0.0
C119 C 0.62882 0.68207 0.76453 0.0
H120 H 0.24798 0.97873 0.95062 0.0
H121 H 0.37642 0.95485 0.92558 0.0
H122 H 0.42067 1.00826 0.99956 0.0
H123 H 0.31788 0.10746 0.99896 0.0
H124 H 0.27291 0.10038 0.04383 0.0
H125 H 0.25109 0.06033 0.98903 0.0
H126 H 0.21205 0.97906 0.03605 0.0
H127 H 0.2323 1.01892 0.0909 0.0
H128 H 0.25166 0.97188 0.0797 0.0
H129 H 0.45338 0.06983 0.07459 0.0
H130 H 0.4626 0.11611 0.15297 0.0
H131 H 0.31051 0.09446 0.13147 0.0
C132 C 0.28501 0.98397 0.96122 0.0
C133 C 0.3086 0.96233 0.93245 0.0
C134 C 0.35721 0.97031 0.9474 0.0
C135 C 0.38298 1.00128 0.98903 0.0
C136 C 0.35938 0.02347 1.01577 0.0
C137 C 0.31076 1.01384 1.00316 0.0
C138 C 0.29252 0.03977 0.03934 0.0
C139 C 0.28305 0.07932 1.0164 0.0
C140 C 0.2443 1.00005 0.0629 0.0
C141 C 0.3384 0.06554 0.07433 0.0
C142 C 0.37714 0.05679 0.05959 0.0
C143 C 0.42315 0.0767 0.08645 0.0
C144 C 0.42847 0.10367 0.13068 0.0
C145 C 0.38764 0.10952 0.14801 0.0
C146 C 0.34278 0.09149 0.11864 0.0
H147 H 0.6462 0.68163 0.60758 0.0
H148 H 0.75503 0.84377 0.62568 0.0
H149 H 0.79746 0.83699 0.55356 0.0
H150 H 0.72442 0.63837 0.56662 0.0
H151 H 0.68301 0.59247 0.51982 0.0
H152 H 0.65587 0.60891 0.56992 0.0
H153 H 0.60597 0.63562 0.51417 0.0
H154 H 0.63074 0.6164 0.46393 0.0
H155 H 0.6398 0.67998 0.46994 0.0
H156 H 0.84014 0.80914 0.49416 0.0
H157 H 0.86054 0.77237 0.42342 0.0
H158 H 0.71642 0.63095 0.43031 0.0
C159 C 0.67673 0.71622 0.59443 0.0
C160 C 0.69704 0.76355 0.62203 0.0
C161 C 0.73834 0.80754 0.60474 0.0
C162 C 0.76335 0.80379 0.56431 0.0
C163 C 0.74518 0.75601 0.54026 0.0
C164 C 0.70087 0.71357 0.55246 0.0
C165 C 0.68904 0.66742 0.51846 0.0
C166 C 0.68802 0.62425 0.54535 0.0
C167 C 0.63839 0.64877 0.48991 0.0
C168 C 0.73466 0.69048 0.48654 0.0
C169 C 0.76726 0.74117 0.5014 0.0
C170 C 0.81401 0.7701 0.48096 0.0
C171 C 0.82568 0.74843 0.44127 0.0
C172 C 0.78988 0.69907 0.42077 0.0
C173 C 0.74473 0.66862 0.44514 0.0
H174 H 0.92529 0.30529 0.08533 0.0
H175 H 0.06147 0.36214 0.17723 0.0
H176 H 0.11573 0.40375 0.1109 0.0
H177 H 0.97246 0.27084 0.98912 0.0
H178 H 0.94335 0.28887 0.94367 0.0
H179 H 0.91459 0.27272 1.00032 0.0
H180 H 0.91873 0.36029 1.01108 0.0
H181 H 0.94774 0.37675 0.95427 0.0
H182 H 0.97919 0.41815 1.00707 0.0
H183 H 0.15657 0.42641 0.03166 0.0
H184 H 0.1779 0.42606 0.94646 0.0
H185 H 1.01686 0.35763 0.90587 0.0
C186 C 0.96634 0.32834 0.09175 0.0
C187 C 0.98898 0.33123 0.13676 0.0
C188 C 0.04312 0.36002 0.14329 0.0
C189 C 0.07447 0.38396 0.10574 0.0
C190 C 0.05145 0.37913 0.06131 0.0
C191 C 0.99854 0.35246 0.05416 0.0
C192 C 0.98396 0.34813 1.00172 0.0
C193 C 0.95172 0.29182 0.98261 0.0
C194 C 0.95573 0.37759 0.99303 0.0
C195 C 0.03656 0.37393 0.98067 0.0
C196 C 0.0752 0.39251 1.01553 0.0
C197 C 0.12668 0.41315 1.00398 0.0
C198 C 0.13869 0.41319 0.95555 0.0
C199 C 0.09923 0.39223 0.91961 0.0
C200 C 0.04799 0.3744 0.93263 0.0
H201 H 0.2998 0.05492 0.44943 0.0
H202 H 0.46323 0.1122 0.44762 0.0
H203 H 0.45746 0.06497 0.51866 0.0
H204 H 0.29373 0.06409 0.57839 0.0
H205 H 0.23119 1.00789 0.57738 0.0
H206 H 0.25018 0.0469 0.52744 0.0
H207 H 0.22966 0.96705 0.47182 0.0
H208 H 0.21221 0.92816 0.52188 0.0
H209 H 0.26102 0.93112 0.48345 0.0
H210 H 0.43051 1.00501 0.58911 0.0
H211 H 0.38977 0.95515 0.65873 0.0
H212 H 0.2456 0.94185 0.61443 0.0
C213 C 0.33473 0.05821 0.46412 0.0
C214 C 0.38195 0.08671 0.44205 0.0
C215 C 0.42652 0.09024 0.46321 0.0
C216 C 0.42345 0.06318 0.50351 0.0
C217 C 0.37564 0.03339 0.52284 0.0
C218 C 0.3324 0.03213 0.50437 0.0
C219 C 0.28573 0.99931 0.5322 0.0
C220 C 0.26395 0.03146 0.55523 0.0
C221 C 0.24475 0.95372 0.50043 0.0
C222 C 0.30904 0.98179 0.56935 0.0
C223 C 0.36079 1.00102 0.56319 0.0
C224 C 0.39004 0.98993 0.59399 0.0
C225 C 0.36641 0.96078 0.63309 0.0
C226 C 0.31421 0.94355 0.64148 0.0
C227 C 0.28522 0.95332 0.60831 0.0
H228 H 0.78045 0.79356 0.93212 0.0
H229 H 0.61506 0.70313 0.91765 0.0
H230 H 0.61412 0.66113 0.99103 0.0
H231 H 0.80355 0.69944 0.97007 0.0
H232 H 0.85498 0.7405 1.01252 0.0
H233 H 0.84261 0.76648 0.96148 0.0
H234 H 0.83216 0.83259 1.01591 0.0
H235 H 0.84682 0.80833 0.06695 0.0
H236 H 0.78845 0.81094 0.06373 0.0
H237 H 0.63319 0.62381 0.06271 0.0
H238 H 0.66833 0.60858 0.13597 0.0
H239 H 0.82074 0.72499 0.10312 0.0
C240 C 0.74392 0.76621 0.94543 0.0
C241 C 0.69773 0.75211 0.91986 0.0
C242 C 0.6507 0.71539 0.93754 0.0
C243 C 0.64997 0.69073 0.97865 0.0
C244 C 0.69658 0.70369 1.00169 0.0
C245 C 0.74254 0.74179 0.98646 0.0
C246 C 0.78737 0.74937 1.01754 0.0
C247 C 0.82428 0.73828 0.98865 0.0
C248 C 0.81533 0.8035 0.04253 0.0
C249 C 0.75969 0.70927 0.05256 0.0
C250 C 0.7074 0.68267 0.0425 0.0
C251 C 0.67406 0.64435 0.07074 0.0
C252 C 0.69438 0.63519 0.11176 0.0
C253 C 0.74737 0.66438 0.12411 0.0
C254 C 0.78039 0.70079 0.09338 0.0
H255 H 0.98073 0.34547 0.42786 0.0
H256 H 0.90147 0.18027 0.4149 0.0
H257 H 0.93682 0.1803 0.4944 0.0
H258 H 0.09267 0.36363 0.47778 0.0
H259 H 0.10665 0.41723 0.51908 0.0
H260 H 0.06846 0.40564 0.46535 0.0
H261 H 0.99447 0.40227 0.514 0.0
H262 H 0.03319 0.41593 0.56788 0.0
H263 H 0.97016 0.36028 0.56172 0.0
H264 H 0.99196 0.19805 0.56638 0.0
H265 H 0.04853 0.2311 0.63836 0.0
H266 H 0.09145 0.38617 0.60863 0.0
C267 C 0.96846 0.30942 0.44326 0.0
C268 C 0.93686 0.26269 0.41639 0.0
C269 C 0.92396 0.21617 0.43596 0.0
C270 C 0.94455 0.21596 0.48067 0.0
C271 C 0.97794 0.26268 0.50517 0.0
C272 C 0.98869 0.30863 0.48806 0.0
C273 C 1.02814 0.35334 0.52059 0.0
C274 C 0.07685 0.38693 0.49409 0.0
C275 C 1.00511 0.38481 0.54236 0.0
C276 C 0.03859 0.32526 0.55805 0.0
C277 C 1.00955 0.27304 0.54785 0.0
C278 C 1.01397 0.23879 0.57539 0.0
C279 C 0.04671 0.25812 0.61603 0.0
C280 C 0.07418 0.31127 0.62948 0.0
C281 C 0.07123 0.34544 0.59923 0.0
H282 H 0.49293 0.09844 0.22469 0.0
H283 H 0.48534 0.08549 0.37688 0.0
H284 H 0.58015 0.13816 0.38541 0.0
H285 H 0.61257 0.09139 0.21257 0.0
H286 H 0.63405 0.13502 0.16605 0.0
H287 H 0.56653 0.09362 0.17297 0.0
H288 H 0.55488 0.17278 0.17883 0.0
H289 H 0.62254 0.21481 0.17399 0.0
H290 H 0.5904 0.22333 0.22446 0.0
H291 H 0.67386 0.20389 0.37738 0.0
H292 H 0.76246 0.25772 0.35295 0.0
H293 H 0.70996 0.21943 0.20442 0.0
C294 C 0.51153 0.10511 0.25952 0.0
C295 C 0.48231 0.08801 0.30028 0.0
C296 C 0.5074 0.09797 0.34543 0.0
C297 C 0.56105 0.12826 0.35049 0.0
C298 C 0.58868 0.14691 0.30971 0.0
C299 C 0.56491 0.13394 0.26486 0.0
C300 C 0.60322 0.15823 0.22664 0.0
C301 C 0.60416 0.11712 0.19255 0.0
C302 C 0.59206 0.19442 0.1994 0.0
C303 C 0.65238 0.1877 0.25698 0.0
C304 C 0.64294 0.18168 0.30488 0.0
C305 C 0.6818 0.2079 0.33997 0.0
C306 C 0.73192 0.23897 0.3257 0.0
C307 C 0.743 0.2426 0.27677 0.0
C308 C 0.70251 0.21732 0.24203 0.0
H309 H 0.68609 0.54865 0.24801 0.0
H310 H 0.63843 0.60748 0.36932 0.0
H311 H 0.58833 0.51962 0.39597 0.0
H312 H 0.56636 0.43332 0.22396 0.0
H313 H 0.59545 0.39579 0.20599 0.0
H314 H 0.62841 0.46322 0.19836 0.0
H315 H 0.70636 0.47307 0.2462 0.0
H316 H 0.6736 0.40625 0.25643 0.0
H317 H 0.69932 0.45349 0.30623 0.0
H318 H 0.54275 0.42455 0.40818 0.0
H319 H 0.4994 0.33041 0.40191 0.0
H320 H 0.57612 0.33372 0.2714 0.0
C321 C 0.66507 0.54309 0.28023 0.0
C322 C 0.66611 0.58485 0.30677 0.0
C323 C 0.63793 0.57599 0.34847 0.0
C324 C 0.60973 0.52629 0.36393 0.0
C325 C 0.61001 0.486 0.3371 0.0
C326 C 0.63662 0.49392 0.29585 0.0
C327 C 0.62909 0.44412 0.27217 0.0
C328 C 0.60328 0.43349 0.22217 0.0
C329 C 0.68014 0.44428 0.2702 0.0
C330 C 0.59364 0.40653 0.30631 0.0
C331 C 0.58354 0.43154 0.34379 0.0
C332 C 0.55062 0.40477 0.37909 0.0
C333 C 0.5263 0.35122 0.3753 0.0
C334 C 0.53464 0.32467 0.33636 0.0
C335 C 0.5696 0.35292 0.30196 0.0
H336 H 0.92398 0.38268 0.32989 0.0
H337 H 1.02233 0.42933 0.20968 0.0
H338 H 0.98505 0.48191 0.18606 0.0
H339 H 0.81349 0.3725 0.27605 0.0
H340 H 0.79638 0.40098 0.32531 0.0
H341 H 0.83101 0.36837 0.33654 0.0
H342 H 0.90415 0.44725 0.38264 0.0
H343 H 0.86883 0.48008 0.37516 0.0
H344 H 0.93381 0.50785 0.35647 0.0
H345 H 0.93315 0.52458 0.17291 0.0
H346 H 0.88024 0.56568 0.17741 0.0
H347 H 0.81741 0.49429 0.30827 0.0
C348 C 0.93809 0.40459 0.29895 0.0
C349 C 0.97592 0.40203 0.27141 0.0
C350 C 0.99373 0.43121 0.23136 0.0
C351 C 0.97238 0.46069 0.2175 0.0
C352 C 0.93396 0.46115 0.24461 0.0
C353 C 0.91779 0.43482 0.28516 0.0
C354 C 0.87746 0.44351 0.30909 0.0
C355 C 0.8266 0.39329 0.31183 0.0
C356 C 0.89725 0.47134 0.35878 0.0
C357 C 0.87227 0.47756 0.27484 0.0
C358 C 0.9051 0.48704 0.23783 0.0
C359 C 0.90757 0.51763 0.20185 0.0
C360 C 0.87708 0.54053 0.20459 0.0
C361 C 0.84457 0.53297 0.24307 0.0
C362 C 0.8414 0.50021 0.27815 0.0
H363 H 0.12006 0.47886 0.71097 0.0
H364 H 0.06443 0.4542 0.85397 0.0
H365 H 0.11372 0.54745 0.87488 0.0
H366 H 0.24621 0.58432 0.74052 0.0
H367 H 0.2482 0.61859 0.68968 0.0
H368 H 0.21 0.54993 0.68639 0.0
H369 H 0.12954 0.55493 0.66208 0.0
H370 H 0.16768 0.62352 0.66484 0.0
H371 H 0.11132 0.5933 0.69932 0.0
H372 H 0.17432 0.64281 0.8816 0.0
H373 H 0.22719 0.7347 0.87018 0.0
H374 H 0.23575 0.69945 0.72007 0.0
C375 C 0.11782 0.4933 0.7465 0.0
C376 C 0.08844 0.45943 0.78094 0.0
C377 C 0.08633 0.47951 0.82701 0.0
C378 C 0.11463 0.53237 0.83928 0.0
C379 C 0.14398 0.56472 0.80475 0.0
C380 C 0.14467 0.5461 0.75891 0.0
C381 C 0.17705 0.58935 0.72782 0.0
C382 C 0.22309 0.58528 0.71005 0.0
C383 C 0.14445 0.59033 0.68605 0.0
C384 C 0.19426 0.63535 0.76323 0.0
C385 C 0.1759 0.62003 0.80772 0.0
C386 C 0.18831 0.6552 0.8468 0.0
C387 C 0.21876 0.70737 0.84 0.0
C388 C 0.23549 0.72427 0.79424 0.0
C389 C 0.22344 0.68763 0.75543 0.0
H390 H 0.37589 0.89297 0.80862 0.0
H391 H 0.4614 0.03129 0.73552 0.0
H392 H 0.53033 1.01021 0.72285 0.0
H393 H 0.48216 0.89597 0.86874 0.0
H394 H 0.45615 0.82783 0.86182 0.0
H395 H 0.41377 0.85369 0.86445 0.0
H396 H 0.37022 0.80474 0.78379 0.0
H397 H 0.4125 0.7788 0.78056 0.0
H398 H 0.40853 0.81366 0.73256 0.0
H399 H 0.59064 0.97482 0.72038 0.0
H400 H 0.63758 0.9279 0.7266 0.0
H401 H 0.5115 0.81072 0.79955 0.0
C402 C 0.40909 0.91883 0.78988 0.0
C403 C 0.4135 0.96397 0.77317 0.0
C404 C 0.45744 0.99672 0.74876 0.0
C405 C 0.49663 0.98493 0.74135 0.0
C406 C 0.49104 0.94007 0.75835 0.0
C407 C 0.44822 0.90742 0.78192 0.0
C408 C 0.45143 0.86162 0.79666 0.0
C409 C 0.45086 0.8597 0.85115 0.0
C410 C 0.4081 0.81176 0.7719 0.0
C411 C 0.50317 0.8738 0.77821 0.0
C412 C 0.52529 0.91924 0.75621 0.0
C413 C 0.57352 0.93914 0.73728 0.0
C414 C 0.59991 0.91216 0.74105 0.0
C415 C 0.57816 0.86557 0.7634 0.0
C416 C 0.52894 0.84605 0.78199 0.0
H417 H 0.33082 0.47427 0.71069 0.0
H418 H 0.29836 0.56821 0.81072 0.0
H419 H 0.3909 0.63099 0.81998 0.0
H420 H 0.44205 0.49257 0.76998 0.0
H421 H 0.47686 0.49565 0.71734 0.0
H422 H 0.40791 0.45999 0.71447 0.0
H423 H 0.40564 0.51272 0.6464 0.0
H424 H 0.47466 0.54812 0.64853 0.0
H425 H 0.4392 0.58142 0.65487 0.0
H426 H 0.4846 0.67694 0.82589 0.0
H427 H 0.57654 0.71168 0.82212 0.0
H428 H 0.55267 0.59199 0.71467 0.0
C429 C 0.34323 0.50863 0.73379 0.0
C430 C 0.30764 0.51669 0.76005 0.0
C431 C 0.32506 0.56162 0.79024 0.0
C432 C 0.37747 0.59729 0.79576 0.0
C433 C 0.41167 0.58747 0.77053 0.0
C434 C 0.39548 0.54479 0.73953 0.0
C435 C 0.44081 0.54303 0.71794 0.0
C436 C 0.44195 0.49495 0.73071 0.0
C437 C 0.44002 0.54654 0.66371 0.0
C438 C 0.48515 0.59092 0.74261 0.0
C439 C 0.4669 0.61552 0.77276 0.0
C440 C 0.49934 0.65879 0.80157 0.0
C441 C 0.55187 0.67835 0.79891 0.0
C442 C 0.57229 0.65559 0.7671 0.0
C443 C 0.53834 0.61065 0.73887 0.0
H444 H 0.31474 0.23113 0.25313 0.0
H445 H 0.24451 0.09497 0.33148 0.0
H446 H 0.16489 0.09989 0.335 0.0
H447 H 0.26463 0.2976 0.31878 0.0
H448 H 0.25549 0.32667 0.26838 0.0
H449 H 0.30494 0.30985 0.26859 0.0
H450 H 0.26694 0.25494 0.18891 0.0
H451 H 0.21758 0.27194 0.18819 0.0
H452 H 0.20049 0.20568 0.1844 0.0
H453 H 0.09498 0.12241 0.3327 0.0
H454 H 0.03916 0.15979 0.32453 0.0
H455 H 0.15701 0.28304 0.24983 0.0
C456 C 0.28239 0.20196 0.27055 0.0
C457 C 0.28542 0.16255 0.29193 0.0
C458 C 0.24262 0.1253 0.31473 0.0
C459 C 0.19744 0.12787 0.31691 0.0
C460 C 0.19611 0.16797 0.29622 0.0
C461 C 0.23744 0.20424 0.27336 0.0
C462 C 0.22722 0.24469 0.25571 0.0
C463 C 0.26533 0.29783 0.27929 0.0
C464 C 0.2281 0.24426 0.20106 0.0
C465 C 0.17377 0.22599 0.27272 0.0
C466 C 0.15637 0.18147 0.29568 0.0
C467 C 0.10816 0.15714 0.31473 0.0
C468 C 0.07687 0.17875 0.31001 0.0
C469 C 0.09408 0.22438 0.28676 0.0
C470 C 0.14313 0.24827 0.26794 0.0
H471 H 0.96818 0.75878 0.32987 0.0
H472 H 0.90114 0.80627 0.22129 0.0
H473 H 0.98702 0.87841 0.20698 0.0
H474 H 0.06724 0.88586 0.37606 0.0
H475 H 0.11372 0.86592 0.38505 0.0
H476 H 0.0465 0.82102 0.38912 0.0
H477 H 0.05381 0.75991 0.32526 0.0
H478 H 0.12084 0.80492 0.32042 0.0
H479 H 0.07838 0.78261 0.26813 0.0
H480 H 0.08039 0.94249 0.20222 0.0
H481 H 0.17447 0.99693 0.20966 0.0
H482 H 0.18071 0.90502 0.31911 0.0
C483 C 0.97151 0.78486 0.3036 0.0
C484 C 0.92818 0.77755 0.27704 0.0
C485 C 0.93389 0.8119 0.24256 0.0
C486 C 0.98249 0.85265 0.23397 0.0
C487 C 1.02468 0.85803 0.26001 0.0
C488 C 1.01963 0.82526 0.29432 0.0
C489 C 0.07112 0.83822 0.3162 0.0
C490 C 0.07485 0.85369 0.36978 0.0
C491 C 0.08164 0.79376 0.30693 0.0
C492 C 0.10612 0.88327 0.2886 0.0
C493 C 0.07853 0.89414 0.25647 0.0
C494 C 0.10237 0.93436 0.22723 0.0
C495 C 0.15574 0.96487 0.23158 0.0
C496 C 0.18457 0.95474 0.26469 0.0
C497 C 0.15951 0.91309 0.29313 0.0
H498 H 0.80707 0.09042 0.28026 0.0
H499 H 0.95835 0.15739 0.22282 0.0
H500 H 0.95212 0.07245 0.21805 0.0
H501 H 0.81457 1.00156 0.35027 0.0
H502 H 0.74942 0.95163 0.33673 0.0
H503 H 0.76616 1.01748 0.33557 0.0
H504 H 0.7294 1.00033 0.24863 0.0
H505 H 0.71238 0.93432 0.2495 0.0
H506 H 0.75244 0.97244 0.20393 0.0
H507 H 0.93144 0.98178 0.22617 0.0
H508 H 0.89538 0.89045 0.23871 0.0
H509 H 0.75349 0.88094 0.28244 0.0
C510 C 0.83889 0.08726 0.26647 0.0
C511 C 0.88379 0.13056 0.25295 0.0
C512 C 0.9242 0.12483 0.23441 0.0
C513 C 0.92078 0.07674 0.2313 0.0
C514 C 0.87609 0.0349 0.2456 0.0
C515 C 0.83551 0.03958 0.26198 0.0
C516 C 0.79134 0.98869 0.27432 0.0
C517 C 0.77972 0.98994 0.32737 0.0
C518 C 0.74357 0.97303 0.24217 0.0
C519 C 0.81369 0.95449 0.26324 0.0
C520 C 0.86281 0.98206 0.24713 0.0
C521 C 0.89275 0.9597 0.23787 0.0
C522 C 0.87199 0.90792 0.24526 0.0
C523 C 0.82152 0.87886 0.2609 0.0
C524 C 0.79177 0.90224 0.26952 0.0
H525 H 0.16047 0.23715 0.71746 0.0
H526 H 0.15938 0.27896 0.86712 0.0
H527 H 0.18828 0.21863 0.8884 0.0
H528 H 0.11443 0.09949 0.73244 0.0
H529 H 0.15325 0.09629 0.68547 0.0
H530 H 0.12846 0.13937 0.68332 0.0
H531 H 0.22068 0.21446 0.67578 0.0
H532 H 0.24594 0.17196 0.67902 0.0
H533 H 0.26932 0.22716 0.72077 0.0
H534 H 0.23001 0.1634 0.89169 0.0
H535 H 0.26562 0.10572 0.8779 0.0
H536 H 0.23169 0.0948 0.72631 0.0
C537 C 0.16489 0.23233 0.75472 0.0
C538 C 0.15754 0.26209 0.79078 0.0
C539 C 0.16415 0.25568 0.83916 0.0
C540 C 0.18094 0.2219 0.85145 0.0
C541 C 0.18964 0.19424 0.81485 0.0
C542 C 0.18029 0.19797 0.7675 0.0
C543 C 0.19285 0.16453 0.73482 0.0
C544 C 0.14436 0.12241 0.70741 0.0
C545 C 0.23468 0.19646 0.7006 0.0
C546 C 0.21245 0.14264 0.77097 0.0
C547 C 0.21084 0.16056 0.81694 0.0
C548 C 0.23043 0.14834 0.85595 0.0
C549 C 0.25102 0.11604 0.84778 0.0
C550 C 0.25106 0.09586 0.80112 0.0
C551 C 0.23162 0.10944 0.76237 0.0
H552 H 0.10919 0.85853 0.8542 0.0
H553 H 0.14332 0.86379 0.70469 0.0
H554 H 0.05065 0.82139 0.68267 0.0
H555 H 0.99615 0.73901 0.84809 0.0
H556 H 0.96211 0.75734 0.88982 0.0
H557 H 1.031 0.78929 0.89416 0.0
H558 H 0.03651 0.87693 0.88831 0.0
H559 H 0.96762 0.84534 0.88529 0.0
H560 H 1.00366 0.88588 0.83927 0.0
H561 H 0.95359 0.77058 0.67763 0.0
H562 H 0.86058 0.73253 0.68894 0.0
H563 H 0.89032 0.76735 0.84145 0.0
C564 C 0.09703 0.85174 0.81687 0.0
C565 C 0.13307 0.86457 0.78106 0.0
C566 C 0.11615 0.85485 0.73255 0.0
C567 C 0.06363 0.83027 0.71978 0.0
C568 C 1.02881 0.81662 0.756 0.0
C569 C 0.0449 0.82847 0.80353 0.0
C570 C 0.99981 0.81148 0.83546 0.0
C571 C 0.99714 0.77193 0.86884 0.0
C572 C 1.00203 0.85766 0.86374 0.0
C573 C 0.95579 0.78747 0.79854 0.0
C574 C 0.97324 0.78992 0.75296 0.0
C575 C 0.93954 0.76896 0.71312 0.0
C576 C 0.88677 0.74686 0.7199 0.0
C577 C 0.86845 0.74683 0.76604 0.0
C578 C 0.9034 0.7666 0.80582 0.0
H579 H 0.94059 0.14871 0.84334 0.0
H580 H 0.93558 0.16263 0.69124 0.0
H581 H 0.89503 0.06873 0.67687 0.0
H582 H 0.96624 0.0444 0.8392 0.0
H583 H 0.92499 1.01344 0.88697 0.0
H584 H 0.9559 0.08181 0.88534 0.0
H585 H 0.86805 0.0781 0.88798 0.0
H586 H 0.83737 1.01015 0.89149 0.0
H587 H 0.8176 0.03598 0.84507 0.0
H588 H 0.85622 0.97345 0.67952 0.0
H589 H 0.80307 0.88391 0.69938 0.0
H590 H 0.83045 0.93282 0.8497 0.0
C591 C 0.93036 0.13181 0.80707 0.0
C592 C 0.94082 0.16246 0.76836 0.0
C593 C 0.9271 0.13943 0.72135 0.0
C594 C 0.90495 0.08634 0.71286 0.0
C595 C 0.89666 0.0572 0.75182 0.0
C596 C 0.90768 0.07903 0.79805 0.0
C597 C 0.89106 0.03909 0.8339 0.0
C598 C 0.93732 0.04507 0.86306 0.0
C599 C 0.85113 0.04092 0.8665 0.0
C600 C 0.86781 0.99115 0.80069 0.0
C601 C 0.87286 1.0024 0.75344 0.0
C602 C 0.85218 0.96418 0.71635 0.0
C603 C 0.82254 0.91337 0.72791 0.0
C604 C 0.81302 0.90182 0.77601 0.0
C605 C 0.83807 0.94082 0.81271 0.0
loop_
_geom_bond_atom_site_label_1
_geom_bond_atom_site_label_2
_geom_bond_distance
_geom_bond_site_symmetry_2
_ccdc_geom_bond_type
Tb0 O3 2.453 . S
Tb0 O4 2.596 . S
Tb0 O5 2.374 . S
Tb0 O13 2.343 . S
Tb0 O15 2.353 . S
Tb0 O17 2.427 . S
Tb0 O18 2.513 . S
C1 O5 1.251 . S
C1 O7 1.263 . S
Tb2 O4 2.343 . S
Tb2 O7 2.353 . S
Tb2 O10 2.427 1_545 S
Tb2 O11 2.513 1_545 S
Tb2 O12 2.453 . S
Tb2 O13 2.596 . S
Tb2 O14 2.374 . S
O3 Tb0 2.453 . S
O3 C19 1.245 . S
O4 Tb0 2.596 . S
O4 Tb2 2.343 . S
O4 C19 1.259 . S
O5 Tb0 2.374 . S
O5 C1 1.251 . S
C6 O10 1.275 . S
C6 O11 1.246 . S
O7 C1 1.263 . S
O7 Tb2 2.353 . S
C8 O12 1.245 . S
C8 O13 1.259 . S
C9 O14 1.250 . S
C9 O15 1.263 . S
O10 Tb2 2.427 1_565 S
O10 C6 1.275 . S
O11 Tb2 2.513 1_565 S
O11 C6 1.246 . S
O12 Tb2 2.453 . S
O12 C8 1.245 . S
O13 Tb0 2.343 . S
O13 Tb2 2.596 . S
O13 C8 1.259 . S
O14 Tb2 2.374 . S
O14 C9 1.250 . S
O15 Tb0 2.353 . S
O15 C9 1.263 . S
C16 O17 1.275 . S
C16 O18 1.246 . S
O17 Tb0 2.427 . S
O17 C16 1.275 . S
O18 Tb0 2.513 . S
O18 C16 1.246 . S
C19 O3 1.245 . S
C19 O4 1.259 . S
Tb20 O23 2.453 . S
Tb20 O24 2.596 . S
Tb20 O25 2.374 . S
Tb20 O33 2.343 . S
Tb20 O35 2.353 . S
Tb20 O37 2.427 . S
Tb20 O38 2.513 . S
C21 O25 1.251 . S
C21 O27 1.263 . S
Tb22 O24 2.343 . S
Tb22 O27 2.353 . S
Tb22 O30 2.427 . S
Tb22 O31 2.513 . S
Tb22 O32 2.453 . S
Tb22 O33 2.596 . S
Tb22 O34 2.374 . S
O23 Tb20 2.453 . S
O23 C39 1.245 . S
O24 Tb20 2.596 . S
O24 Tb22 2.343 . S
O24 C39 1.259 . S
O25 Tb20 2.374 . S
O25 C21 1.251 . S
C26 O30 1.275 . S
C26 O31 1.246 . S
O27 C21 1.263 . S
O27 Tb22 2.353 . S
C28 O32 1.245 . S
C28 O33 1.259 . S
C29 O34 1.250 . S
C29 O35 1.263 . S
O30 Tb22 2.427 . S
O30 C26 1.275 . S
O31 Tb22 2.513 . S
O31 C26 1.246 . S
O32 Tb22 2.453 . S
O32 C28 1.245 . S
O33 Tb20 2.343 . S
O33 Tb22 2.596 . S
O33 C28 1.259 . S
O34 Tb22 2.374 . S
O34 C29 1.250 . S
O35 Tb20 2.353 . S
O35 C29 1.263 . S
C36 O37 1.275 . S
C36 O38 1.246 . S
O37 Tb20 2.427 . S
O37 C36 1.275 . S
O38 Tb20 2.513 . S
O38 C36 1.246 . S
C39 O23 1.245 . S
C39 O24 1.259 . S
Tb40 O43 2.453 . S
Tb40 O44 2.596 . S
Tb40 O45 2.374 . S
Tb40 O53 2.343 . S
Tb40 O55 2.353 . S
Tb40 O57 2.427 . S
Tb40 O58 2.513 . S
C41 O45 1.251 . S
C41 O47 1.263 . S
Tb42 O44 2.343 . S
Tb42 O47 2.353 . S
Tb42 O50 2.427 1_655 S
Tb42 O51 2.513 1_655 S
Tb42 O52 2.453 . S
Tb42 O53 2.596 . S
Tb42 O54 2.374 . S
O43 Tb40 2.453 . S
O43 C59 1.245 . S
O44 Tb40 2.596 . S
O44 Tb42 2.343 . S
O44 C59 1.259 . S
O45 Tb40 2.374 . S
O45 C41 1.251 . S
C46 O50 1.275 . S
C46 O51 1.246 . S
O47 C41 1.263 . S
O47 Tb42 2.353 . S
C48 O52 1.245 . S
C48 O53 1.259 . S
C49 O54 1.250 . S
C49 O55 1.263 . S
O50 Tb42 2.427 1_455 S
O50 C46 1.275 . S
O51 Tb42 2.513 1_455 S
O51 C46 1.246 . S
O52 Tb42 2.453 . S
O52 C48 1.245 . S
O53 Tb40 2.343 . S
O53 Tb42 2.596 . S
O53 C48 1.259 . S
O54 Tb42 2.374 . S
O54 C49 1.250 . S
O55 Tb40 2.353 . S
O55 C49 1.263 . S
C56 O57 1.275 . S
C56 O58 1.246 . S
O57 Tb40 2.427 . S
O57 C56 1.275 . S
O58 Tb40 2.513 . S
O58 C56 1.246 . S
C59 O43 1.245 . S
C59 O44 1.259 . S
Tb60 O63 2.453 . S
Tb60 O64 2.596 . S
Tb60 O65 2.374 . S
Tb60 O73 2.343 . S
Tb60 O75 2.353 . S
Tb60 O77 2.427 1_455 S
Tb60 O78 2.513 1_455 S
C61 O65 1.251 . S
C61 O67 1.263 . S
Tb62 O64 2.343 . S
Tb62 O67 2.353 . S
Tb62 O70 2.427 . S
Tb62 O71 2.513 . S
Tb62 O72 2.453 . S
Tb62 O73 2.596 . S
Tb62 O74 2.374 . S
O63 Tb60 2.453 . S
O63 C79 1.245 . S
O64 Tb60 2.596 . S
O64 Tb62 2.343 . S
O64 C79 1.259 . S
O65 Tb60 2.374 . S
O65 C61 1.251 . S
C66 O70 1.275 . S
C66 O71 1.246 . S
O67 C61 1.263 . S
O67 Tb62 2.353 . S
C68 O72 1.245 . S
C68 O73 1.259 . S
C69 O74 1.250 . S
C69 O75 1.263 . S
O70 Tb62 2.427 . S
O70 C66 1.275 . S
O71 Tb62 2.513 . S
O71 C66 1.246 . S
O72 Tb62 2.453 . S
O72 C68 1.245 . S
O73 Tb60 2.343 . S
O73 Tb62 2.596 . S
O73 C68 1.259 . S
O74 Tb62 2.374 . S
O74 C69 1.250 . S
O75 Tb60 2.353 . S
O75 C69 1.263 . S
C76 O77 1.275 . S
C76 O78 1.246 . S
O77 Tb60 2.427 1_655 S
O77 C76 1.275 . S
O78 Tb60 2.513 1_655 S
O78 C76 1.246 . S
C79 O63 1.245 . S
C79 O64 1.259 . S
Tb80 O83 2.453 . S
Tb80 O84 2.596 . S
Tb80 O85 2.374 . S
Tb80 O93 2.343 . S
Tb80 O95 2.353 . S
Tb80 O97 2.427 1_565 S
Tb80 O98 2.513 1_565 S
C81 O85 1.251 . S
C81 O87 1.263 . S
Tb82 O84 2.343 . S
Tb82 O87 2.353 . S
Tb82 O90 2.427 . S
Tb82 O91 2.513 . S
Tb82 O92 2.453 . S
Tb82 O93 2.596 . S
Tb82 O94 2.374 . S
O83 Tb80 2.453 . S
O83 C99 1.245 . S
O84 Tb80 2.596 . S
O84 Tb82 2.343 . S
O84 C99 1.259 . S
O85 Tb80 2.374 . S
O85 C81 1.251 . S
C86 O90 1.275 . S
C86 O91 1.246 . S
O87 C81 1.263 . S
O87 Tb82 2.353 . S
C88 O92 1.245 . S
C88 O93 1.259 . S
C89 O94 1.250 . S
C89 O95 1.263 . S
O90 Tb82 2.427 . S
O90 C86 1.275 . S
O91 Tb82 2.513 . S
O91 C86 1.246 . S
O92 Tb82 2.453 . S
O92 C88 1.245 . S
O93 Tb80 2.343 . S
O93 Tb82 2.596 . S
O93 C88 1.259 . S
O94 Tb82 2.374 . S
O94 C89 1.250 . S
O95 Tb80 2.353 . S
O95 C89 1.263 . S
C96 O97 1.275 . S
C96 O98 1.246 . S
O97 Tb80 2.427 1_545 S
O97 C96 1.275 . S
O98 Tb80 2.513 1_545 S
O98 C96 1.246 . S
C99 O83 1.245 . S
C99 O84 1.259 . S
Tb100 O103 2.453 . S
Tb100 O104 2.596 . S
Tb100 O105 2.374 . S
Tb100 O113 2.343 . S
Tb100 O115 2.353 . S
Tb100 O117 2.427 . S
Tb100 O118 2.513 . S
C101 O105 1.251 . S
C101 O107 1.263 . S
Tb102 O104 2.343 . S
Tb102 O107 2.353 . S
Tb102 O110 2.427 . S
Tb102 O111 2.513 . S
Tb102 O112 2.453 . S
Tb102 O113 2.596 . S
Tb102 O114 2.374 . S
O103 Tb100 2.453 . S
O103 C119 1.245 . S
O104 Tb100 2.596 . S
O104 Tb102 2.343 . S
O104 C119 1.259 . S
O105 Tb100 2.374 . S
O105 C101 1.251 . S
C106 O110 1.275 . S
C106 O111 1.246 . S
O107 C101 1.263 . S
O107 Tb102 2.353 . S
C108 O112 1.245 . S
C108 O113 1.259 . S
C109 O114 1.250 . S
C109 O115 1.263 . S
O110 Tb102 2.427 . S
O110 C106 1.275 . S
O111 Tb102 2.513 . S
O111 C106 1.246 . S
O112 Tb102 2.453 . S
O112 C108 1.245 . S
O113 Tb100 2.343 . S
O113 Tb102 2.596 . S
O113 C108 1.259 . S
O114 Tb102 2.374 . S
O114 C109 1.250 . S
O115 Tb100 2.353 . S
O115 C109 1.263 . S
C116 O117 1.275 . S
C116 O118 1.246 . S
O117 Tb100 2.427 . S
O117 C116 1.275 . S
O118 Tb100 2.513 . S
O118 C116 1.246 . S
C119 O103 1.245 . S
C119 O104 1.259 . S
H120 C132 0.930 . S
H121 C134 0.930 . S
H122 C135 0.930 1_554 S
H123 C139 0.959 . S
H124 C139 0.959 . S
H125 C139 0.961 . S
H126 C140 0.960 . S
H127 C140 0.961 . S
H128 C140 0.959 . S
H129 C143 0.929 . S
H130 C144 0.931 . S
H131 C146 0.930 . S
C132 H120 0.930 . S
C132 C133 1.399 . S
C132 C137 1.399 . S
C133 C132 1.399 . S
C133 C134 1.376 . S
C134 H121 0.930 . S
C134 C133 1.376 . S
C134 C135 1.388 . S
C135 H122 0.930 1_556 S
C135 C134 1.388 . S
C135 C136 1.390 . S
C136 C135 1.390 . S
C136 C137 1.394 . S
C136 C142 1.465 1_556 S
C137 C132 1.399 . S
C137 C136 1.394 . S
C137 C138 1.516 1_565 S
C138 C137 1.516 1_545 S
C138 C139 1.502 . S
C138 C140 1.561 . S
C138 C141 1.526 1_556 S
C139 H123 0.959 . S
C139 H124 0.959 . S
C139 H125 0.961 . S
C139 C138 1.502 . S
C140 H126 0.960 . S
C140 H127 0.961 . S
C140 H128 0.959 . S
C140 C138 1.561 . S
C141 C138 1.526 1_554 S
C141 C142 1.396 1_545 S
C141 C146 1.390 . S
C142 C136 1.465 1_554 S
C142 C141 1.396 1_565 S
C142 C143 1.399 . S
C143 H129 0.929 . S
C143 C142 1.399 . S
C143 C144 1.385 1_565 S
C144 H130 0.931 . S
C144 C143 1.385 1_545 S
C144 C145 1.389 . S
C145 C144 1.389 . S
C145 C146 1.387 . S
C146 H131 0.930 . S
C146 C141 1.390 . S
C146 C145 1.387 . S
H147 C159 0.930 . S
H148 C161 0.930 . S
H149 C162 0.930 . S
H150 C166 0.959 . S
H151 C166 0.959 . S
H152 C166 0.961 . S
H153 C167 0.960 . S
H154 C167 0.961 . S
H155 C167 0.959 . S
H156 C170 0.929 . S
H157 C171 0.931 . S
H158 C173 0.930 . S
C159 H147 0.930 . S
C159 C160 1.399 . S
C159 C164 1.399 . S
C160 C159 1.399 . S
C160 C161 1.376 . S
C161 H148 0.930 . S
C161 C160 1.376 . S
C161 C162 1.388 . S
C162 H149 0.930 . S
C162 C161 1.388 . S
C162 C163 1.390 . S
C163 C162 1.390 . S
C163 C164 1.394 . S
C163 C169 1.465 . S
C164 C159 1.399 . S
C164 C163 1.394 . S
C164 C165 1.516 . S
C165 C164 1.516 . S
C165 C166 1.502 . S
C165 C167 1.561 . S
C165 C168 1.526 . S
C166 H150 0.959 . S
C166 H151 0.959 . S
C166 H152 0.961 . S
C166 C165 1.502 . S
C167 H153 0.960 . S
C167 H154 0.961 . S
C167 H155 0.959 . S
C167 C165 1.561 . S
C168 C165 1.526 . S
C168 C169 1.396 . S
C168 C173 1.390 . S
C169 C163 1.465 . S
C169 C168 1.396 . S
C169 C170 1.399 . S
C170 H156 0.929 . S
C170 C169 1.399 . S
C170 C171 1.385 . S
C171 H157 0.931 . S
C171 C170 1.385 . S
C171 C172 1.389 . S
C172 C171 1.389 . S
C172 C173 1.387 . S
C173 H158 0.930 . S
C173 C168 1.390 . S
C173 C172 1.387 . S
H174 C186 0.930 . S
H175 C188 0.930 . S
H176 C189 0.930 1_556 S
H177 C193 0.959 . S
H178 C193 0.959 . S
H179 C193 0.961 . S
H180 C194 0.960 . S
H181 C194 0.961 . S
H182 C194 0.959 . S
H183 C197 0.929 . S
H184 C198 0.931 . S
H185 C200 0.930 . S
C186 H174 0.930 . S
C186 C187 1.399 . S
C186 C191 1.399 . S
C187 C186 1.399 . S
C187 C188 1.376 . S
C188 H175 0.930 . S
C188 C187 1.376 . S
C188 C189 1.388 . S
C189 H176 0.930 1_554 S
C189 C188 1.388 . S
C189 C190 1.390 . S
C190 C189 1.390 . S
C190 C191 1.394 . S
C190 C196 1.465 1_554 S
C191 C186 1.399 . S
C191 C190 1.394 . S
C191 C192 1.516 1_655 S
C192 C191 1.516 1_455 S
C192 C193 1.502 . S
C192 C194 1.561 . S
C192 C195 1.526 1_554 S
C193 H177 0.959 . S
C193 H178 0.959 . S
C193 H179 0.961 . S
C193 C192 1.502 . S
C194 H180 0.960 . S
C194 H181 0.961 . S
C194 H182 0.959 . S
C194 C192 1.561 . S
C195 C192 1.526 1_556 S
C195 C196 1.396 1_455 S
C195 C200 1.390 . S
C196 C190 1.465 1_556 S
C196 C195 1.396 1_655 S
C196 C197 1.399 . S
C197 H183 0.929 . S
C197 C196 1.399 . S
C197 C198 1.385 1_655 S
C198 H184 0.931 . S
C198 C197 1.385 1_455 S
C198 C199 1.389 . S
C199 C198 1.389 . S
C199 C200 1.387 . S
C200 H185 0.930 . S
C200 C195 1.390 . S
C200 C199 1.387 . S
H201 C213 0.930 . S
H202 C215 0.930 . S
H203 C216 0.930 . S
H204 C220 0.959 . S
H205 C220 0.959 . S
H206 C220 0.961 . S
H207 C221 0.960 . S
H208 C221 0.961 . S
H209 C221 0.959 . S
H210 C224 0.929 . S
H211 C225 0.931 . S
H212 C227 0.930 . S
C213 H201 0.930 . S
C213 C214 1.399 . S
C213 C218 1.399 . S
C214 C213 1.399 . S
C214 C215 1.376 . S
C215 H202 0.930 . S
C215 C214 1.376 . S
C215 C216 1.388 . S
C216 H203 0.930 . S
C216 C215 1.388 . S
C216 C217 1.390 . S
C217 C216 1.390 . S
C217 C218 1.394 . S
C217 C223 1.465 . S
C218 C213 1.399 . S
C218 C217 1.394 . S
C218 C219 1.516 1_545 S
C219 C218 1.516 1_565 S
C219 C220 1.502 . S
C219 C221 1.561 . S
C219 C222 1.526 . S
C220 H204 0.959 . S
C220 H205 0.959 . S
C220 H206 0.961 . S
C220 C219 1.502 . S
C221 H207 0.960 . S
C221 H208 0.961 . S
C221 H209 0.959 . S
C221 C219 1.561 . S
C222 C219 1.526 . S
C222 C223 1.396 1_565 S
C222 C227 1.390 . S
C223 C217 1.465 . S
C223 C222 1.396 1_545 S
C223 C224 1.399 . S
C224 H210 0.929 . S
C224 C223 1.399 . S
C224 C225 1.385 1_545 S
C225 H211 0.931 . S
C225 C224 1.385 1_565 S
C225 C226 1.389 . S
C226 C225 1.389 . S
C226 C227 1.387 . S
C227 H212 0.930 . S
C227 C222 1.390 . S
C227 C226 1.387 . S
H228 C240 0.930 . S
H229 C242 0.930 . S
H230 C243 0.930 . S
H231 C247 0.959 . S
H232 C247 0.959 . S
H233 C247 0.961 . S
H234 C248 0.960 . S
H235 C248 0.961 . S
H236 C248 0.959 . S
H237 C251 0.929 1_556 S
H238 C252 0.931 . S
H239 C254 0.930 . S
C240 H228 0.930 . S
C240 C241 1.399 . S
C240 C245 1.399 . S
C241 C240 1.399 . S
C241 C242 1.376 . S
C242 H229 0.930 . S
C242 C241 1.376 . S
C242 C243 1.388 . S
C243 H230 0.930 . S
C243 C242 1.388 . S
C243 C244 1.390 . S
C244 C243 1.390 . S
C244 C245 1.394 . S
C244 C250 1.465 1_556 S
C245 C240 1.399 . S
C245 C244 1.394 . S
C245 C246 1.516 1_556 S
C246 C245 1.516 1_554 S
C246 C247 1.502 . S
C246 C248 1.561 . S
C246 C249 1.526 . S
C247 H231 0.959 . S
C247 H232 0.959 . S
C247 H233 0.961 . S
C247 C246 1.502 . S
C248 H234 0.960 . S
C248 H235 0.961 . S
C248 H236 0.959 . S
C248 C246 1.561 . S
C249 C246 1.526 . S
C249 C250 1.396 . S
C249 C254 1.390 . S
C250 C244 1.465 1_554 S
C250 C249 1.396 . S
C250 C251 1.399 . S
C251 H237 0.929 1_554 S
C251 C250 1.399 . S
C251 C252 1.385 . S
C252 H238 0.931 . S
C252 C251 1.385 . S
C252 C253 1.389 . S
C253 C252 1.389 . S
C253 C254 1.387 . S
C254 H239 0.930 . S
C254 C249 1.390 . S
C254 C253 1.387 . S
H255 C267 0.930 . S
H256 C269 0.930 . S
H257 C270 0.930 . S
H258 C274 0.959 . S
H259 C274 0.959 . S
H260 C274 0.961 . S
H261 C275 0.960 . S
H262 C275 0.961 1_455 S
H263 C275 0.959 . S
H264 C278 0.929 1_655 S
H265 C279 0.931 . S
H266 C281 0.930 . S
C267 H255 0.930 . S
C267 C268 1.399 . S
C267 C272 1.399 . S
C268 C267 1.399 . S
C268 C269 1.376 . S
C269 H256 0.930 . S
C269 C268 1.376 . S
C269 C270 1.388 . S
C270 H257 0.930 . S
C270 C269 1.388 . S
C270 C271 1.390 . S
C271 C270 1.390 . S
C271 C272 1.394 . S
C271 C277 1.465 1_655 S
C272 C267 1.399 . S
C272 C271 1.394 . S
C272 C273 1.516 1_655 S
C273 C272 1.516 1_455 S
C273 C274 1.502 . S
C273 C275 1.561 1_455 S
C273 C276 1.526 . S
C274 H258 0.959 . S
C274 H259 0.959 . S
C274 H260 0.961 . S
C274 C273 1.502 . S
C275 H261 0.960 . S
C275 H262 0.961 1_655 S
C275 H263 0.959 . S
C275 C273 1.561 1_655 S
C276 C273 1.526 . S
C276 C277 1.396 . S
C276 C281 1.390 . S
C277 C271 1.465 1_455 S
C277 C276 1.396 . S
C277 C278 1.399 . S
C278 H264 0.929 1_455 S
C278 C277 1.399 . S
C278 C279 1.385 . S
C279 H265 0.931 . S
C279 C278 1.385 . S
C279 C280 1.389 . S
C280 C279 1.389 . S
C280 C281 1.387 . S
C281 H266 0.930 . S
C281 C276 1.390 . S
C281 C280 1.387 . S
H282 C294 0.930 . S
H283 C296 0.930 . S
H284 C297 0.930 . S
H285 C301 0.959 . S
H286 C301 0.959 . S
H287 C301 0.961 . S
H288 C302 0.960 . S
H289 C302 0.961 . S
H290 C302 0.959 . S
H291 C305 0.929 . S
H292 C306 0.931 . S
H293 C308 0.930 . S
C294 H282 0.930 . S
C294 C295 1.399 . S
C294 C299 1.399 . S
C295 C294 1.399 . S
C295 C296 1.376 . S
C296 H283 0.930 . S
C296 C295 1.376 . S
C296 C297 1.388 . S
C297 H284 0.930 . S
C297 C296 1.388 . S
C297 C298 1.390 . S
C298 C297 1.390 . S
C298 C299 1.394 . S
C298 C304 1.465 . S
C299 C294 1.399 . S
C299 C298 1.394 . S
C299 C300 1.516 . S
C300 C299 1.516 . S
C300 C301 1.502 . S
C300 C302 1.561 . S
C300 C303 1.526 . S
C301 H285 0.959 . S
C301 H286 0.959 . S
C301 H287 0.961 . S
C301 C300 1.502 . S
C302 H288 0.960 . S
C302 H289 0.961 . S
C302 H290 0.959 . S
C302 C300 1.561 . S
C303 C300 1.526 . S
C303 C304 1.396 . S
C303 C308 1.390 . S
C304 C298 1.465 . S
C304 C303 1.396 . S
C304 C305 1.399 . S
C305 H291 0.929 . S
C305 C304 1.399 . S
C305 C306 1.385 . S
C306 H292 0.931 . S
C306 C305 1.385 . S
C306 C307 1.389 . S
C307 C306 1.389 . S
C307 C308 1.387 . S
C308 H293 0.930 . S
C308 C303 1.390 . S
C308 C307 1.387 . S
H309 C321 0.930 . S
H310 C323 0.930 . S
H311 C324 0.930 . S
H312 C328 0.959 . S
H313 C328 0.959 . S
H314 C328 0.961 . S
H315 C329 0.960 . S
H316 C329 0.961 . S
H317 C329 0.959 . S
H318 C332 0.929 . S
H319 C333 0.931 . S
H320 C335 0.930 . S
C321 H309 0.930 . S
C321 C322 1.399 . S
C321 C326 1.399 . S
C322 C321 1.399 . S
C322 C323 1.376 . S
C323 H310 0.930 . S
C323 C322 1.376 . S
C323 C324 1.388 . S
C324 H311 0.930 . S
C324 C323 1.388 . S
C324 C325 1.390 . S
C325 C324 1.390 . S
C325 C326 1.394 . S
C325 C331 1.465 . S
C326 C321 1.399 . S
C326 C325 1.394 . S
C326 C327 1.516 . S
C327 C326 1.516 . S
C327 C328 1.502 . S
C327 C329 1.561 . S
C327 C330 1.526 . S
C328 H312 0.959 . S
C328 H313 0.959 . S
C328 H314 0.961 . S
C328 C327 1.502 . S
C329 H315 0.960 . S
C329 H316 0.961 . S
C329 H317 0.959 . S
C329 C327 1.561 . S
C330 C327 1.526 . S
C330 C331 1.396 . S
C330 C335 1.390 . S
C331 C325 1.465 . S
C331 C330 1.396 . S
C331 C332 1.399 . S
C332 H318 0.929 . S
C332 C331 1.399 . S
C332 C333 1.385 . S
C333 H319 0.931 . S
C333 C332 1.385 . S
C333 C334 1.389 . S
C334 C333 1.389 . S
C334 C335 1.387 . S
C335 H320 0.930 . S
C335 C330 1.390 . S
C335 C334 1.387 . S
H336 C348 0.930 . S
H337 C350 0.930 . S
H338 C351 0.930 . S
H339 C355 0.959 . S
H340 C355 0.959 . S
H341 C355 0.961 . S
H342 C356 0.960 . S
H343 C356 0.961 . S
H344 C356 0.959 . S
H345 C359 0.929 . S
H346 C360 0.931 . S
H347 C362 0.930 . S
C348 H336 0.930 . S
C348 C349 1.399 . S
C348 C353 1.399 . S
C349 C348 1.399 . S
C349 C350 1.376 . S
C350 H337 0.930 . S
C350 C349 1.376 . S
C350 C351 1.388 . S
C351 H338 0.930 . S
C351 C350 1.388 . S
C351 C352 1.390 . S
C352 C351 1.390 . S
C352 C353 1.394 . S
C352 C358 1.465 . S
C353 C348 1.399 . S
C353 C352 1.394 . S
C353 C354 1.516 . S
C354 C353 1.516 . S
C354 C355 1.502 . S
C354 C356 1.561 . S
C354 C357 1.526 . S
C355 H339 0.959 . S
C355 H340 0.959 . S
C355 H341 0.961 . S
C355 C354 1.502 . S
C356 H342 0.960 . S
C356 H343 0.961 . S
C356 H344 0.959 . S
C356 C354 1.561 . S
C357 C354 1.526 . S
C357 C358 1.396 . S
C357 C362 1.390 . S
C358 C352 1.465 . S
C358 C357 1.396 . S
C358 C359 1.399 . S
C359 H345 0.929 . S
C359 C358 1.399 . S
C359 C360 1.385 . S
C360 H346 0.931 . S
C360 C359 1.385 . S
C360 C361 1.389 . S
C361 C360 1.389 . S
C361 C362 1.387 . S
C362 H347 0.930 . S
C362 C357 1.390 . S
C362 C361 1.387 . S
H363 C375 0.930 . S
H364 C377 0.930 . S
H365 C378 0.930 . S
H366 C382 0.959 . S
H367 C382 0.959 . S
H368 C382 0.961 . S
H369 C383 0.960 . S
H370 C383 0.961 . S
H371 C383 0.959 . S
H372 C386 0.929 . S
H373 C387 0.931 . S
H374 C389 0.930 . S
C375 H363 0.930 . S
C375 C376 1.399 . S
C375 C380 1.399 . S
C376 C375 1.399 . S
C376 C377 1.376 . S
C377 H364 0.930 . S
C377 C376 1.376 . S
C377 C378 1.388 . S
C378 H365 0.930 . S
C378 C377 1.388 . S
C378 C379 1.390 . S
C379 C378 1.390 . S
C379 C380 1.394 . S
C379 C385 1.465 . S
C380 C375 1.399 . S
C380 C379 1.394 . S
C380 C381 1.516 . S
C381 C380 1.516 . S
C381 C382 1.502 . S
C381 C383 1.561 . S
C381 C384 1.526 . S
C382 H366 0.959 . S
C382 H367 0.959 . S
C382 H368 0.961 . S
C382 C381 1.502 . S
C383 H369 0.960 . S
C383 H370 0.961 . S
C383 H371 0.959 . S
C383 C381 1.561 . S
C384 C381 1.526 . S
C384 C385 1.396 . S
C384 C389 1.390 . S
C385 C379 1.465 . S
C385 C384 1.396 . S
C385 C386 1.399 . S
C386 H372 0.929 . S
C386 C385 1.399 . S
C386 C387 1.385 . S
C387 H373 0.931 . S
C387 C386 1.385 . S
C387 C388 1.389 . S
C388 C387 1.389 . S
C388 C389 1.387 . S
C389 H374 0.930 . S
C389 C384 1.390 . S
C389 C388 1.387 . S
H390 C402 0.930 . S
H391 C404 0.930 . S
H392 C405 0.930 . S
H393 C409 0.959 . S
H394 C409 0.959 . S
H395 C409 0.961 . S
H396 C410 0.960 . S
H397 C410 0.961 . S
H398 C410 0.959 . S
H399 C413 0.929 . S
H400 C414 0.931 . S
H401 C416 0.930 . S
C402 H390 0.930 . S
C402 C403 1.399 . S
C402 C407 1.399 . S
C403 C402 1.399 . S
C403 C404 1.376 . S
C404 H391 0.930 . S
C404 C403 1.376 . S
C404 C405 1.388 . S
C405 H392 0.930 . S
C405 C404 1.388 . S
C405 C406 1.390 . S
C406 C405 1.390 . S
C406 C407 1.394 . S
C406 C412 1.465 . S
C407 C402 1.399 . S
C407 C406 1.394 . S
C407 C408 1.516 . S
C408 C407 1.516 . S
C408 C409 1.502 . S
C408 C410 1.561 . S
C408 C411 1.526 . S
C409 H393 0.959 . S
C409 H394 0.959 . S
C409 H395 0.961 . S
C409 C408 1.502 . S
C410 H396 0.960 . S
C410 H397 0.961 . S
C410 H398 0.959 . S
C410 C408 1.561 . S
C411 C408 1.526 . S
C411 C412 1.396 . S
C411 C416 1.390 . S
C412 C406 1.465 . S
C412 C411 1.396 . S
C412 C413 1.399 . S
C413 H399 0.929 . S
C413 C412 1.399 . S
C413 C414 1.385 . S
C414 H400 0.931 . S
C414 C413 1.385 . S
C414 C415 1.389 . S
C415 C414 1.389 . S
C415 C416 1.387 . S
C416 H401 0.930 . S
C416 C411 1.390 . S
C416 C415 1.387 . S
H417 C429 0.930 . S
H418 C431 0.930 . S
H419 C432 0.930 . S
H420 C436 0.959 . S
H421 C436 0.959 . S
H422 C436 0.961 . S
H423 C437 0.960 . S
H424 C437 0.961 . S
H425 C437 0.959 . S
H426 C440 0.929 . S
H427 C441 0.931 . S
H428 C443 0.930 . S
C429 H417 0.930 . S
C429 C430 1.399 . S
C429 C434 1.399 . S
C430 C429 1.399 . S
C430 C431 1.376 . S
C431 H418 0.930 . S
C431 C430 1.376 . S
C431 C432 1.388 . S
C432 H419 0.930 . S
C432 C431 1.388 . S
C432 C433 1.390 . S
C433 C432 1.390 . S
C433 C434 1.394 . S
C433 C439 1.465 . S
C434 C429 1.399 . S
C434 C433 1.394 . S
C434 C435 1.516 . S
C435 C434 1.516 . S
C435 C436 1.502 . S
C435 C437 1.561 . S
C435 C438 1.526 . S
C436 H420 0.959 . S
C436 H421 0.959 . S
C436 H422 0.961 . S
C436 C435 1.502 . S
C437 H423 0.960 . S
C437 H424 0.961 . S
C437 H425 0.959 . S
C437 C435 1.561 . S
C438 C435 1.526 . S
C438 C439 1.396 . S
C438 C443 1.390 . S
C439 C433 1.465 . S
C439 C438 1.396 . S
C439 C440 1.399 . S
C440 H426 0.929 . S
C440 C439 1.399 . S
C440 C441 1.385 . S
C441 H427 0.931 . S
C441 C440 1.385 . S
C441 C442 1.389 . S
C442 C441 1.389 . S
C442 C443 1.387 . S
C443 H428 0.930 . S
C443 C438 1.390 . S
C443 C442 1.387 . S
H444 C456 0.930 . S
H445 C458 0.930 . S
H446 C459 0.930 . S
H447 C463 0.959 . S
H448 C463 0.959 . S
H449 C463 0.961 . S
H450 C464 0.960 . S
H451 C464 0.961 . S
H452 C464 0.959 . S
H453 C467 0.929 . S
H454 C468 0.931 . S
H455 C470 0.930 . S
C456 H444 0.930 . S
C456 C457 1.399 . S
C456 C461 1.399 . S
C457 C456 1.399 . S
C457 C458 1.376 . S
C458 H445 0.930 . S
C458 C457 1.376 . S
C458 C459 1.388 . S
C459 H446 0.930 . S
C459 C458 1.388 . S
C459 C460 1.390 . S
C460 C459 1.390 . S
C460 C461 1.394 . S
C460 C466 1.465 . S
C461 C456 1.399 . S
C461 C460 1.394 . S
C461 C462 1.516 . S
C462 C461 1.516 . S
C462 C463 1.502 . S
C462 C464 1.561 . S
C462 C465 1.526 . S
C463 H447 0.959 . S
C463 H448 0.959 . S
C463 H449 0.961 . S
C463 C462 1.502 . S
C464 H450 0.960 . S
C464 H451 0.961 . S
C464 H452 0.959 . S
C464 C462 1.561 . S
C465 C462 1.526 . S
C465 C466 1.396 . S
C465 C470 1.390 . S
C466 C460 1.465 . S
C466 C465 1.396 . S
C466 C467 1.399 . S
C467 H453 0.929 . S
C467 C466 1.399 . S
C467 C468 1.385 . S
C468 H454 0.931 . S
C468 C467 1.385 . S
C468 C469 1.389 . S
C469 C468 1.389 . S
C469 C470 1.387 . S
C470 H455 0.930 . S
C470 C465 1.390 . S
C470 C469 1.387 . S
H471 C483 0.930 . S
H472 C485 0.930 . S
H473 C486 0.930 . S
H474 C490 0.959 . S
H475 C490 0.959 . S
H476 C490 0.961 1_655 S
H477 C491 0.960 1_655 S
H478 C491 0.961 . S
H479 C491 0.959 . S
H480 C494 0.929 . S
H481 C495 0.931 . S
H482 C497 0.930 . S
C483 H471 0.930 . S
C483 C484 1.399 . S
C483 C488 1.399 . S
C484 C483 1.399 . S
C484 C485 1.376 . S
C485 H472 0.930 . S
C485 C484 1.376 . S
C485 C486 1.388 . S
C486 H473 0.930 . S
C486 C485 1.388 . S
C486 C487 1.390 . S
C487 C486 1.390 . S
C487 C488 1.394 . S
C487 C493 1.465 1_655 S
C488 C483 1.399 . S
C488 C487 1.394 . S
C488 C489 1.516 1_655 S
C489 C488 1.516 1_455 S
C489 C490 1.502 . S
C489 C491 1.561 . S
C489 C492 1.526 . S
C490 H474 0.959 . S
C490 H475 0.959 . S
C490 H476 0.961 1_455 S
C490 C489 1.502 . S
C491 H477 0.960 1_455 S
C491 H478 0.961 . S
C491 H479 0.959 . S
C491 C489 1.561 . S
C492 C489 1.526 . S
C492 C493 1.396 . S
C492 C497 1.390 . S
C493 C487 1.465 1_455 S
C493 C492 1.396 . S
C493 C494 1.399 . S
C494 H480 0.929 . S
C494 C493 1.399 . S
C494 C495 1.385 . S
C495 H481 0.931 . S
C495 C494 1.385 . S
C495 C496 1.389 . S
C496 C495 1.389 . S
C496 C497 1.387 . S
C497 H482 0.930 . S
C497 C492 1.390 . S
C497 C496 1.387 . S
H498 C510 0.930 . S
H499 C512 0.930 . S
H500 C513 0.930 . S
H501 C517 0.959 . S
H502 C517 0.959 . S
H503 C517 0.961 . S
H504 C518 0.960 . S
H505 C518 0.961 . S
H506 C518 0.959 . S
H507 C521 0.929 . S
H508 C522 0.931 . S
H509 C524 0.930 . S
C510 H498 0.930 . S
C510 C511 1.399 . S
C510 C515 1.399 . S
C511 C510 1.399 . S
C511 C512 1.376 . S
C512 H499 0.930 . S
C512 C511 1.376 . S
C512 C513 1.388 . S
C513 H500 0.930 . S
C513 C512 1.388 . S
C513 C514 1.390 . S
C514 C513 1.390 . S
C514 C515 1.394 . S
C514 C520 1.465 1_545 S
C515 C510 1.399 . S
C515 C514 1.394 . S
C515 C516 1.516 1_545 S
C516 C515 1.516 1_565 S
C516 C517 1.502 . S
C516 C518 1.561 . S
C516 C519 1.526 . S
C517 H501 0.959 . S
C517 H502 0.959 . S
C517 H503 0.961 . S
C517 C516 1.502 . S
C518 H504 0.960 . S
C518 H505 0.961 . S
C518 H506 0.959 . S
C518 C516 1.561 . S
C519 C516 1.526 . S
C519 C520 1.396 . S
C519 C524 1.390 . S
C520 C514 1.465 1_565 S
C520 C519 1.396 . S
C520 C521 1.399 . S
C521 H507 0.929 . S
C521 C520 1.399 . S
C521 C522 1.385 . S
C522 H508 0.931 . S
C522 C521 1.385 . S
C522 C523 1.389 . S
C523 C522 1.389 . S
C523 C524 1.387 . S
C524 H509 0.930 . S
C524 C519 1.390 . S
C524 C523 1.387 . S
H525 C537 0.930 . S
H526 C539 0.930 . S
H527 C540 0.930 . S
H528 C544 0.959 . S
H529 C544 0.959 . S
H530 C544 0.961 . S
H531 C545 0.960 . S
H532 C545 0.961 . S
H533 C545 0.959 . S
H534 C548 0.929 . S
H535 C549 0.931 . S
H536 C551 0.930 . S
C537 H525 0.930 . S
C537 C538 1.399 . S
C537 C542 1.399 . S
C538 C537 1.399 . S
C538 C539 1.376 . S
C539 H526 0.930 . S
C539 C538 1.376 . S
C539 C540 1.388 . S
C540 H527 0.930 . S
C540 C539 1.388 . S
C540 C541 1.390 . S
C541 C540 1.390 . S
C541 C542 1.394 . S
C541 C547 1.465 . S
C542 C537 1.399 . S
C542 C541 1.394 . S
C542 C543 1.516 . S
C543 C542 1.516 . S
C543 C544 1.502 . S
C543 C545 1.561 . S
C543 C546 1.526 . S
C544 H528 0.959 . S
C544 H529 0.959 . S
C544 H530 0.961 . S
C544 C543 1.502 . S
C545 H531 0.960 . S
C545 H532 0.961 . S
C545 H533 0.959 . S
C545 C543 1.561 . S
C546 C543 1.526 . S
C546 C547 1.396 . S
C546 C551 1.390 . S
C547 C541 1.465 . S
C547 C546 1.396 . S
C547 C548 1.399 . S
C548 H534 0.929 . S
C548 C547 1.399 . S
C548 C549 1.385 . S
C549 H535 0.931 . S
C549 C548 1.385 . S
C549 C550 1.389 . S
C550 C549 1.389 . S
C550 C551 1.387 . S
C551 H536 0.930 . S
C551 C546 1.390 . S
C551 C550 1.387 . S
H552 C564 0.930 . S
H553 C566 0.930 . S
H554 C567 0.930 . S
H555 C571 0.959 . S
H556 C571 0.959 . S
H557 C571 0.961 1_455 S
H558 C572 0.960 1_455 S
H559 C572 0.961 . S
H560 C572 0.959 . S
H561 C575 0.929 . S
H562 C576 0.931 . S
H563 C578 0.930 . S
C564 H552 0.930 . S
C564 C565 1.399 . S
C564 C569 1.399 . S
C565 C564 1.399 . S
C565 C566 1.376 . S
C566 H553 0.930 . S
C566 C565 1.376 . S
C566 C567 1.388 . S
C567 H554 0.930 . S
C567 C566 1.388 . S
C567 C568 1.390 . S
C568 C567 1.390 . S
C568 C569 1.394 . S
C568 C574 1.465 1_455 S
C569 C564 1.399 . S
C569 C568 1.394 . S
C569 C570 1.516 1_455 S
C570 C569 1.516 1_655 S
C570 C571 1.502 . S
C570 C572 1.561 . S
C570 C573 1.526 . S
C571 H555 0.959 . S
C571 H556 0.959 . S
C571 H557 0.961 1_655 S
C571 C570 1.502 . S
C572 H558 0.960 1_655 S
C572 H559 0.961 . S
C572 H560 0.959 . S
C572 C570 1.561 . S
C573 C570 1.526 . S
C573 C574 1.396 . S
C573 C578 1.390 . S
C574 C568 1.465 1_655 S
C574 C573 1.396 . S
C574 C575 1.399 . S
C575 H561 0.929 . S
C575 C574 1.399 . S
C575 C576 1.385 . S
C576 H562 0.931 . S
C576 C575 1.385 . S
C576 C577 1.389 . S
C577 C576 1.389 . S
C577 C578 1.387 . S
C578 H563 0.930 . S
C578 C573 1.390 . S
C578 C577 1.387 . S
H579 C591 0.930 . S
H580 C593 0.930 . S
H581 C594 0.930 . S
H582 C598 0.959 . S
H583 C598 0.946 1_565 S
H584 C598 0.961 . S
H585 C599 0.960 . S
H586 C599 0.961 . S
H587 C599 0.959 . S
H588 C602 0.929 . S
H589 C603 0.931 . S
H590 C605 0.930 . S
C591 H579 0.930 . S
C591 C592 1.399 . S
C591 C596 1.399 . S
C592 C591 1.399 . S
C592 C593 1.376 . S
C593 H580 0.930 . S
C593 C592 1.376 . S
C593 C594 1.388 . S
C594 H581 0.930 . S
C594 C593 1.388 . S
C594 C595 1.390 . S
C595 C594 1.390 . S
C595 C596 1.394 . S
C595 C601 1.465 1_545 S
C596 C591 1.399 . S
C596 C595 1.394 . S
C596 C597 1.516 . S
C597 C596 1.516 . S
C597 C598 1.502 . S
C597 C599 1.561 . S
C597 C600 1.526 1_545 S
C598 H582 0.959 . S
C598 H583 0.946 1_545 S
C598 H584 0.961 . S
C598 C597 1.502 . S
C599 H585 0.960 . S
C599 H586 0.961 . S
C599 H587 0.959 . S
C599 C597 1.561 . S
C600 C597 1.526 1_565 S
C600 C601 1.396 . S
C600 C605 1.390 . S
C601 C595 1.465 1_565 S
C601 C600 1.396 . S
C601 C602 1.399 . S
C602 H588 0.929 . S
C602 C601 1.399 . S
C602 C603 1.385 . S
C603 H589 0.931 . S
C603 C602 1.385 . S
C603 C604 1.389 . S
C604 C603 1.389 . S
C604 C605 1.387 . S
C605 H590 0.930 . S
C605 C600 1.390 . S
C605 C604 1.387 . S
C133 C89 1.910 . S
C145 C9 1.820 . S
C160 C101 2.005 . S
C172 C21 2.042 . S
C187 C49 2.248 . S
C199 C69 2.254 . S
C214 C1 2.349 . S
C226 C81 2.278 . S
C241 C109 2.119 . S
C253 C29 2.181 . S
C268 C41 1.966 . S
C280 C61 1.871 . S
C295 C8 1.789 . S
C307 C56 1.693 . S
C322 C39 1.784 . S
C334 C16 1.676 . S
C349 C48 1.763 . S
C361 C26 1.620 . S
C376 C79 1.754 . S
C388 C86 1.635 . S
C403 C99 1.744 . S
C415 C106 1.659 . S
C430 C66 1.729 . S
C442 C119 1.788 . S
C457 C19 1.093 . S
C469 C46 1.151 . S
C484 C28 0.991 . S
C496 C6 1.133 . S
C511 C59 1.101 . S
C523 C36 1.132 . S
C538 C68 0.972 . S
C550 C96 1.144 . S
C565 C88 0.964 . S
C577 C116 1.129 . S
C592 C76 1.169 . S
C604 C108 0.949 . S
