# Generated by pormake.
# Topology fnt, (5)-cn, num edge types: 1
# Building blocks:
#     Node 0, Type 0, BuildingBlock: XOMCOT_clean_sbu_1, # of connection points: 5
#     Node 1, Type 0, BuildingBlock: XOMCOT_clean_sbu_1, # of connection points: 5
#     Node 2, Type 0, BuildingBlock: XOMCOT_clean_sbu_1, # of connection points: 5
#     Node 3, Type 0, BuildingBlock: XOMCOT_clean_sbu_1, # of connection points: 5
#     Node 4, Type 0, BuildingBlock: XOMCOT_clean_sbu_1, # of connection points: 5
#     Node 5, Type 0, BuildingBlock: XOMCOT_clean_sbu_1, # of connection points: 5
#     Edge 6, Type (0, 0), BuildingBlock: UVAHIK_clean_linker_0, # of connection points: 2
#     Edge 7, Type (0, 0), BuildingBlock: UVAHIK_clean_linker_0, # of connection points: 2
#     Edge 8, Type (0, 0), BuildingBlock: UVAHIK_clean_linker_0, # of connection points: 2
#     Edge 9, Type (0, 0), BuildingBlock: UVAHIK_clean_linker_0, # of connection points: 2
#     Edge 10, Type (0, 0), BuildingBlock: UVAHIK_clean_linker_0, # of connection points: 2
#     Edge 11, Type (0, 0), BuildingBlock: UVAHIK_clean_linker_0, # of connection points: 2
#     Edge 12, Type (0, 0), BuildingBlock: UVAHIK_clean_linker_0, # of connection points: 2
#     Edge 13, Type (0, 0), BuildingBlock: UVAHIK_clean_linker_0, # of connection points: 2
#     Edge 14, Type (0, 0), BuildingBlock: UVAHIK_clean_linker_0, # of connection points: 2
#     Edge 15, Type (0, 0), BuildingBlock: UVAHIK_clean_linker_0, # of connection points: 2
#     Edge 16, Type (0, 0), BuildingBlock: UVAHIK_clean_linker_0, # of connection points: 2
#     Edge 17, Type (0, 0), BuildingBlock: UVAHIK_clean_linker_0, # of connection points: 2
#     Edge 18, Type (0, 0), BuildingBlock: UVAHIK_clean_linker_0, # of connection points: 2
#     Edge 19, Type (0, 0), BuildingBlock: UVAHIK_clean_linker_0, # of connection points: 2
#     Edge 20, Type (0, 0), BuildingBlock: UVAHIK_clean_linker_0, # of connection points: 2
# Relax obj value: 0.140
# Max RMSD: 0.171
# Mean RMSD: 0.171
data_MOF--net-fnt--node1-XOMCOT_clean_sbu_1--edge1-UVAHIK_clean_linker_0
_symmetry_space_group_name_H-M    P1
_symmetry_Int_Tables_number       1
_symmetry_cell_setting            triclinic
loop_
_symmetry_equiv_pos_as_xyz
'x, y, z'
_cell_length_a     34.744523
_cell_length_b     34.67114
_cell_length_c     59.177881
_cell_angle_alpha  89.791624
_cell_angle_beta   90.165041
_cell_angle_gamma 120.05533
loop_
_atom_site_label
_atom_site_type_symbol
_atom_site_fract_x
_atom_site_fract_y
_atom_site_fract_z
_atom_type_partial_charge
C0 C 0.21462 0.34917 0.08255 0.0
C1 C 0.20482 0.34372 0.10521 0.0
N2 N 0.16436 0.30729 0.10808 0.0
N3 N 0.18085 0.31616 0.07093 0.0
C4 C 0.15086 0.29102 0.08696 0.0
H5 H 0.24401 0.37647 0.07506 0.0
Co6 Co 0.17549 0.31124 0.0393 0.0
C7 C 0.14322 0.21433 1.02941 0.0
O8 O 0.13327 0.21739 1.00834 0.0
N9 N 0.17099 0.30776 1.00727 0.0
C10 C 0.15175 0.31123 0.97172 0.0
C11 C 0.14504 0.31721 0.99401 0.0
C12 C 0.19481 0.29832 0.99243 0.0
N13 N 0.18283 0.29894 0.97073 0.0
O14 O 0.2373 0.32966 0.03717 0.0
H15 H 0.12255 0.32791 1.00003 0.0
H16 H 0.2188 0.28876 0.99757 0.0
O17 O 0.15871 0.24817 0.04249 0.0
C18 C 0.25815 0.3697 1.02985 0.0
O19 O 0.23535 0.38939 1.02465 0.0
N20 N 0.11673 0.29843 0.04159 0.0
C21 C 0.03764 0.29978 0.04234 0.0
C22 C 0.03788 0.2613 0.03546 0.0
C23 C 0.07809 0.26104 0.03551 0.0
C24 C 0.11652 0.33571 0.04853 0.0
C25 C 0.07728 0.33688 0.04937 0.0
H26 H 0.07808 0.23174 1.02966 0.0
H27 H 0.14754 0.36534 0.05275 0.0
H28 H 0.11879 0.26258 0.08296 0.0
H29 H 0.22585 0.3657 0.11842 0.0
H30 H 0.13504 0.3157 0.95734 0.0
H31 H 0.00768 0.23239 1.0296 0.0
H32 H 0.07826 0.36744 0.05432 0.0
C33 C 0.86444 0.2191 0.41858 0.0
C34 C 0.85695 0.20814 0.44115 0.0
N35 N 0.85091 0.16684 0.44399 0.0
N36 N 0.86348 0.1851 0.40716 0.0
C37 C 0.85524 0.15379 0.42308 0.0
H38 H 0.86852 0.24921 0.41084 0.0
Co39 Co 0.8661 0.18187 0.37578 0.0
C40 C 0.86753 0.09902 0.36665 0.0
O41 O 0.84097 0.09111 0.34929 0.0
N42 N 0.86898 0.17918 0.34349 0.0
C43 C 0.85249 0.16862 0.30673 0.0
C44 C 0.8359 0.16599 0.32804 0.0
C45 C 0.90556 0.18997 0.33079 0.0
N46 N 0.89632 0.18379 0.30844 0.0
O47 O 0.92782 0.22543 0.37686 0.0
H48 H 0.80136 0.15413 0.3316 0.0
H49 H 0.93831 0.20138 0.33778 0.0
O50 O 0.87937 0.13362 0.37876 0.0
C51 C 0.93014 0.26216 0.37155 0.0
O52 O 0.89364 0.26199 0.36555 0.0
N53 N 0.80481 0.14428 0.37574 0.0
C54 C 0.71343 0.10804 0.37937 0.0
C55 C 0.73303 0.08225 0.38473 0.0
C56 C 0.77926 0.10122 0.38292 0.0
C57 C 0.78617 0.17005 0.37166 0.0
C58 C 0.74058 0.15239 0.37281 0.0
H59 H 0.79424 0.08193 0.38823 0.0
H60 H 0.80719 0.20482 0.36738 0.0
H61 H 0.8513 0.12152 0.41932 0.0
H62 H 0.85407 0.22827 0.45422 0.0
H63 H 0.83375 0.16043 0.29111 0.0
H64 H 0.71295 0.04819 0.39055 0.0
H65 H 0.72678 0.17375 0.36931 0.0
C66 C 0.66296 0.89618 0.76108 0.0
C67 C 0.6705 0.88839 0.783 0.0
N68 N 0.696 0.86925 0.78264 0.0
N69 N 0.68405 0.88258 0.7469 0.0
C70 C 0.70368 0.86605 0.76053 0.0
H71 H 0.64197 0.90932 0.75585 0.0
Co72 Co 0.68133 0.88231 0.71537 0.0
C73 C 0.76766 0.89099 0.7 0.0
O74 O 0.75123 0.87278 0.68028 0.0
N75 N 0.67778 0.88221 0.68341 0.0
C76 C 0.65466 0.86346 0.64795 0.0
C77 C 0.6472 0.84965 0.67011 0.0
C78 C 0.70278 0.91591 0.66888 0.0
N79 N 0.68976 0.90518 0.64714 0.0
O80 O 0.70023 0.94444 0.71557 0.0
H81 H 0.6205 0.818 0.67603 0.0
H82 H 0.73056 0.94747 0.67419 0.0
O83 O 0.74303 0.89541 0.71454 0.0
C84 C 0.66509 0.94655 0.71224 0.0
O85 O 0.62716 0.90941 0.70928 0.0
N86 N 0.65738 0.82071 0.7159 0.0
C87 C 0.60184 0.72882 0.71551 0.0
C88 C 0.64688 0.74775 0.70973 0.0
C89 C 0.67454 0.79412 0.71038 0.0
C90 C 0.61404 0.8025 0.7222 0.0
C91 C 0.58577 0.7567 0.72227 0.0
H92 H 0.70898 0.80795 0.70607 0.0
H93 H 0.60103 0.82406 0.72652 0.0
H94 H 0.72251 0.85115 0.75432 0.0
H95 H 0.65661 0.8945 0.798 0.0
H96 H 0.63495 0.84447 0.63362 0.0
H97 H 0.66036 0.72692 0.70462 0.0
H98 H 0.5511 0.74333 0.72665 0.0
C99 C 0.76444 0.6412 0.09191 0.0
C100 C 0.77898 0.64642 0.1139 0.0
N101 N 0.82275 0.6766 0.11426 0.0
N102 N 0.79876 0.66811 0.0784 0.0
C103 C 0.83391 0.68936 0.09253 0.0
H104 H 0.73137 0.61763 0.0861 0.0
Co105 Co 0.79751 0.66785 0.04687 0.0
C106 C 0.87433 0.75602 1.03272 0.0
O107 O 0.8769 0.74078 1.01283 0.0
N108 N 0.79513 0.6665 1.01489 0.0
C109 C 0.79421 0.64735 0.97898 0.0
C110 C 0.80038 0.63873 1.00096 0.0
C111 C 0.78483 0.69105 1.00088 0.0
N112 N 0.78436 0.68034 0.97886 0.0
O113 O 0.75334 0.68523 0.04746 0.0
H114 H 0.80796 0.61343 1.00626 0.0
H115 H 0.77769 0.71625 1.00683 0.0
O116 O 0.84515 0.73021 0.047 0.0
C117 C 0.71655 0.64923 0.04467 0.0
O118 O 0.71691 0.6119 0.04163 0.0
N119 N 0.83622 0.64533 0.047 0.0
C120 C 0.87445 0.59165 0.04661 0.0
C121 C 0.90018 0.63721 0.04157 0.0
C122 C 0.88047 0.66395 0.04224 0.0
C123 C 0.81136 0.6013 0.05234 0.0
C124 C 0.82982 0.57395 0.05243 0.0
H125 H 0.90079 0.6989 0.03865 0.0
H126 H 0.77638 0.5871 0.05604 0.0
H127 H 0.86751 0.71175 0.08684 0.0
H128 H 0.75907 0.62855 0.12842 0.0
H129 H 0.79722 0.63065 0.96426 0.0
H130 H 0.93496 0.65183 0.03714 0.0
H131 H 0.80889 0.53882 0.05623 0.0
C132 C 0.13821 0.77176 0.42015 0.0
C133 C 0.14464 0.78381 0.44258 0.0
N134 N 0.14531 0.82281 0.44466 0.0
N135 N 0.13443 0.80281 0.40811 0.0
C136 C 0.13849 0.83326 0.42358 0.0
H137 H 0.13869 0.74339 0.41299 0.0
Co138 Co 0.13311 0.80644 0.37661 0.0
C139 C 0.07449 0.84417 0.36615 0.0
O140 O 0.09589 0.86174 0.34723 0.0
N141 N 0.13237 0.80926 0.3447 0.0
C142 C 0.15234 0.8227 0.30854 0.0
C143 C 0.16727 0.83071 0.33052 0.0
C144 C 0.09677 0.78752 0.33084 0.0
N145 N 0.10791 0.79581 0.3088 0.0
O146 O 0.0895 0.7444 0.37536 0.0
H147 H 0.20154 0.85098 0.33564 0.0
H148 H 0.06312 0.76656 0.33688 0.0
O149 O 0.08682 0.82298 0.37929 0.0
C150 C 0.10846 0.7233 0.36835 0.0
O151 O 0.15086 0.746 0.36303 0.0
N152 N 0.1795 0.86529 0.37823 0.0
C153 C 0.25991 0.94264 0.38542 0.0
C154 C 0.22086 0.94466 0.38325 0.0
C155 C 0.18044 0.90513 0.37982 0.0
C156 C 0.21751 0.86337 0.38024 0.0
C157 C 0.25808 0.90161 0.38377 0.0
H158 H 0.15043 0.9069 0.37951 0.0
H159 H 0.21592 0.83144 0.3794 0.0
H160 H 0.13822 0.86349 0.41936 0.0
H161 H 0.15127 0.76671 0.45605 0.0
H162 H 0.1725 0.83651 0.29354 0.0
H163 H 0.2215 0.9761 0.38476 0.0
H164 H 0.28786 0.89915 0.38544 0.0
C165 C 0.36461 0.1528 0.74803 0.0
C166 C 0.36025 0.16066 0.77035 0.0
N167 N 0.3224 0.16212 0.7728 0.0
N168 N 0.32949 0.14874 0.73629 0.0
C169 C 0.30423 0.15435 0.75185 0.0
H170 H 0.3925 0.15165 0.74076 0.0
Co171 Co 0.32283 0.14344 0.70488 0.0
C172 C 0.22608 0.08204 0.69603 0.0
O173 O 0.22925 0.09896 0.67579 0.0
N174 N 0.31757 0.1388 0.67291 0.0
C175 C 0.31916 0.15478 0.63636 0.0
C176 C 0.32662 0.17169 0.65788 0.0
C177 C 0.30588 0.10243 0.6599 0.0
N178 N 0.30586 0.11106 0.63758 0.0
O179 O 0.34084 0.09949 0.70536 0.0
H180 H 0.33766 0.20594 0.66208 0.0
H181 H 0.29668 0.07 0.66679 0.0
O182 O 0.26002 0.09762 0.70908 0.0
C183 C 0.38017 0.11657 0.69745 0.0
O184 O 0.39976 0.15767 0.68976 0.0
N185 N 0.31083 0.19009 0.70472 0.0
C186 C 0.31452 0.2717 0.70305 0.0
C187 C 0.27331 0.23228 0.70269 0.0
C188 C 0.27209 0.19127 0.70372 0.0
C189 C 0.3508 0.22839 0.70594 0.0
C190 C 0.35344 0.26957 0.70504 0.0
H191 H 0.24024 0.16121 0.70377 0.0
H192 H 0.38098 0.22665 0.70704 0.0
H193 H 0.2742 0.15485 0.74761 0.0
H194 H 0.38382 0.16573 0.7836 0.0
H195 H 0.32219 0.17324 0.62105 0.0
H196 H 0.24268 0.23322 0.70145 0.0
H197 H 0.38575 0.29963 0.70551 0.0
C198 C 0.32725 0.42916 1.01247 0.0
C199 C 0.30692 0.39637 1.02926 0.0
C200 C 0.37224 0.46105 1.01395 0.0
C201 C 0.45793 0.5217 0.05564 0.0
H202 H 0.54004 0.55379 1.00552 0.0
C203 C 0.64717 0.6246 0.06537 0.0
C204 C 0.67329 0.64642 0.04645 0.0
C205 C 0.60091 0.60281 0.06396 0.0
C206 C 0.51738 0.54621 1.01954 0.0
H207 H 0.31751 0.37006 0.06041 0.0
H208 H 0.39675 0.42659 0.06322 0.0
H209 H 0.46368 0.49358 1.00114 0.0
H210 H 0.67257 0.66649 1.01192 0.0
H211 H 0.59151 0.63045 1.00965 0.0
H212 H 0.51123 0.5746 0.07401 0.0
C213 C 0.3777 0.4273 0.04886 0.0
C214 C 0.47375 0.51123 1.01707 0.0
C215 C 0.3327 0.39472 0.04712 0.0
C216 C 0.65293 0.65048 1.02685 0.0
C217 C 0.60652 0.62901 1.02545 0.0
C218 C 0.50143 0.55717 0.05803 0.0
C219 C 0.39755 0.46127 1.03251 0.0
C220 C 0.44385 0.4982 0.0352 0.0
C221 C 0.57998 0.60249 0.04352 0.0
C222 C 0.53199 0.56945 0.04012 0.0
H223 H 0.30788 0.43114 0.99859 0.0
H224 H 0.38668 0.48689 1.00116 0.0
H225 H 0.43516 0.51287 0.06972 0.0
H226 H 0.66228 0.62038 0.08052 0.0
H227 H 0.58189 0.58272 0.07821 0.0
C228 C -0.0052 0.3294 0.35625 0.0
C229 C 0.96994 0.30549 0.3751 0.0
C230 C 0.01847 0.37597 0.35662 0.0
C231 C 0.04727 0.47583 0.39274 0.0
H232 H 0.02369 0.51952 0.33697 0.0
C233 C 0.05836 0.64812 0.3852 0.0
C234 C 0.0859 0.67442 0.3675 0.0
C235 C 0.04492 0.6027 0.38638 0.0
C236 C 0.03061 0.50781 0.35262 0.0
H237 H 0.95276 0.31047 0.40961 0.0
H238 H -0.00681 0.3914 0.41032 0.0
H239 H 0.00738 0.44282 0.33928 0.0
H240 H 0.11916 0.67411 0.33666 0.0
H241 H 0.09453 0.59484 0.33828 0.0
H242 H 0.06913 0.54102 0.40615 0.0
C243 C -0.00438 0.3749 0.39535 0.0
C244 C 0.02186 0.46397 0.3539 0.0
C245 C 0.97259 0.32837 0.39505 0.0
C246 C 0.09772 0.65436 0.35041 0.0
C247 C 0.08368 0.60906 0.35135 0.0
C248 C 0.05554 0.51966 0.39152 0.0
C249 C 0.01656 0.39925 0.37567 0.0
C250 C 0.03007 0.44729 0.37396 0.0
C251 C 0.05816 0.58302 0.36963 0.0
C252 C 0.04725 0.536 0.37143 0.0
H253 H -0.00754 0.3123 0.34057 0.0
H254 H 0.03539 0.39365 0.34138 0.0
H255 H 0.05434 0.46433 0.40841 0.0
H256 H 0.04942 0.66312 0.39872 0.0
H257 H 0.02492 0.58315 0.40055 0.0
C258 C 0.40884 0.07449 0.71934 0.0
C259 C 0.40663 0.09435 0.69907 0.0
C260 C 0.44236 0.06376 0.72256 0.0
C261 C 0.55375 0.09348 0.69937 0.0
H262 H 0.53748 0.99229 0.73485 0.0
C263 C 0.65663 0.00519 0.69355 0.0
C264 C 0.66374 0.98792 0.71357 0.0
C265 C 0.63446 0.02946 0.6941 0.0
C266 C 0.54274 0.0212 0.72524 0.0
H267 H 0.43503 0.1157 0.66574 0.0
H268 H 0.49143 0.0944 0.67067 0.0
H269 H 0.47566 0.00595 0.73024 0.0
H270 H 0.6571 0.98541 0.74995 0.0
H271 H 0.61809 0.02767 0.75098 0.0
H272 H 0.62026 0.10695 0.69339 0.0
C273 C 0.46902 0.08895 0.68456 0.0
C274 C 0.50725 0.029 0.72256 0.0
C275 C 0.43624 0.10045 0.68155 0.0
C276 C 0.65262 -0.00091 0.73434 0.0
C277 C 0.62983 0.02275 0.7349 0.0
C278 C 0.589 0.08521 0.70176 0.0
C279 C 0.47372 0.07212 0.70541 0.0
C280 C 0.51203 0.06484 0.70928 0.0
C281 C 0.61839 0.03591 0.71468 0.0
C282 C 0.58367 0.04874 0.71453 0.0
H283 H 0.38675 0.07021 0.73322 0.0
H284 H 0.44494 0.05102 0.73888 0.0
H285 H 0.55921 0.12221 0.68957 0.0
H286 H 0.66397 -0.00407 0.67732 0.0
H287 H 0.62588 0.03906 0.67826 0.0
C288 C 0.54088 0.65702 0.7308 0.0
C289 C 0.57037 0.68065 0.71317 0.0
C290 C 0.50685 0.61319 0.72758 0.0
C291 C 0.46994 0.5159 0.6899 0.0
H292 H 0.35632 0.47702 0.71904 0.0
C293 C 0.33161 0.33743 0.67976 0.0
C294 C 0.31893 0.31585 0.70076 0.0
C295 C 0.3526 0.38379 0.67856 0.0
C296 C 0.38777 0.4876 0.71069 0.0
H297 H 0.58802 0.67728 0.67849 0.0
H298 H 0.52809 0.60081 0.6726 0.0
H299 H 0.41573 0.55453 0.72255 0.0
H300 H 0.31446 0.32439 0.73663 0.0
H301 H 0.35063 0.40562 0.7346 0.0
H302 H 0.44215 0.44897 0.67821 0.0
C303 C 0.53164 0.61568 0.68909 0.0
C304 C 0.42196 0.5318 0.71286 0.0
C305 C 0.56606 0.6594 0.69244 0.0
C306 C 0.3233 0.34055 0.72025 0.0
C307 C 0.34414 0.38697 0.71905 0.0
C308 C 0.43566 0.47195 0.68753 0.0
C309 C 0.50121 0.59227 0.70653 0.0
C310 C 0.46379 0.54622 0.70289 0.0
C311 C 0.36127 0.40903 0.69838 0.0
C312 C 0.39452 0.45716 0.69822 0.0
H313 H 0.54374 0.6728 0.74698 0.0
H314 H 0.48483 0.59582 0.74157 0.0
H315 H 0.5018 0.52556 0.68226 0.0
H316 H 0.32906 0.3188 0.66462 0.0
H317 H 0.3651 0.40003 0.6624 0.0
C318 C 0.90751 0.55503 1.02396 0.0
C319 C 0.89231 0.5612 0.04481 0.0
C320 C 0.91615 0.52006 1.02113 0.0
C321 C 0.8892 0.41164 0.04726 0.0
H322 H 0.9885 0.42527 1.01149 0.0
C323 C 0.98047 0.31382 0.0589 0.0
C324 C -0.0016 0.30491 0.03977 0.0
C325 C 0.95527 0.33473 0.05657 0.0
C326 C 0.95999 0.4206 1.02112 0.0
H327 H 0.87629 0.53777 0.07931 0.0
H328 H 0.89342 0.47811 0.07481 0.0
H329 H 0.9738 0.48674 1.01388 0.0
H330 H 0.00158 0.30719 1.00326 0.0
H331 H 0.95755 0.34414 0.99911 0.0
H332 H 0.87721 0.34625 0.05549 0.0
C333 C 0.89714 0.49895 0.06036 0.0
C334 C 0.95165 0.45592 1.02256 0.0
C335 C 0.88799 0.53347 0.06308 0.0
C336 C 0.98739 0.31323 1.01818 0.0
C337 C 0.9627 0.33474 1.01585 0.0
C338 C 0.8979 0.37652 0.04603 0.0
C339 C 0.91009 0.49099 0.03919 0.0
C340 C 0.91679 0.45225 0.03608 0.0
C341 C 0.94841 0.34767 0.03509 0.0
C342 C 0.93389 0.38101 1.03329 0.0
H343 H 0.91035 0.5757 1.00956 0.0
H344 H 0.92585 0.51478 1.00457 0.0
H345 H 0.86128 0.40721 0.05733 0.0
H346 H 0.98926 0.30822 0.07569 0.0
H347 H 0.94491 0.34458 0.07169 0.0
C348 C 0.3301 0.00608 0.3714 0.0
C349 C 0.30331 0.98214 0.38976 0.0
C350 C 0.37618 0.03136 0.37403 0.0
C351 C 0.45715 0.01911 0.40661 0.0
H352 H 0.54286 0.12376 0.3736 0.0
C353 C 0.64414 0.07371 0.40259 0.0
C354 C 0.66532 0.09079 0.38181 0.0
C355 C 0.60065 0.06484 0.40599 0.0
C356 C 0.51924 0.09427 0.38279 0.0
H357 H 0.30206 0.96871 0.42554 0.0
H358 H 0.38267 0.01371 0.43034 0.0
H359 H 0.46596 0.10725 0.37651 0.0
H360 H 0.6575 0.10986 0.34797 0.0
H361 H 0.58111 0.09286 0.35356 0.0
H362 H 0.50955 0.00478 0.41201 0.0
C363 C 0.36837 0.01272 0.41391 0.0
C364 C 0.47538 0.08511 0.3846 0.0
C365 C 0.32236 0.98746 0.41126 0.0
C366 C 0.64178 0.09688 0.36418 0.0
C367 C 0.59832 0.08771 0.3675 0.0
C368 C 0.50086 0.02808 0.40467 0.0
C369 C 0.39583 0.0326 0.39503 0.0
C370 C 0.44372 0.04697 0.39618 0.0
C371 C 0.57761 0.07265 0.38861 0.0
C372 C 0.53217 0.06521 0.39232 0.0
H373 H 0.3159 0.00162 0.35463 0.0
H374 H 0.39648 0.04613 0.35915 0.0
H375 H 0.43331 0.98892 0.41525 0.0
H376 H 0.66196 0.06938 0.41651 0.0
H377 H 0.5857 0.05343 0.42248 0.0
C378 C 0.11237 0.15659 0.06014 0.0
C379 C 0.13011 0.16967 0.03831 0.0
C380 C 0.0922 0.11166 0.06661 0.0
C381 C 0.07854 0.00212 0.05008 0.0
H382 H 0.95558 0.95392 0.06806 0.0
C383 C 0.94248 0.82867 1.0241 0.0
C384 C 0.90777 0.80221 0.03907 0.0
C385 C 0.97421 0.87225 1.02975 0.0
C386 C 0.99008 0.96677 0.06355 0.0
H387 H 0.1437 0.14723 1.0068 0.0
H388 H 0.10953 0.06954 1.01812 0.0
H389 H 0.00624 0.03437 0.06878 0.0
H390 H 0.87951 0.80072 0.07194 0.0
H391 H 0.93502 0.87753 0.08172 0.0
H392 H 0.06193 0.93478 0.04379 0.0
C393 C 0.11082 0.09346 1.03027 0.0
C394 C 0.01915 0.01288 0.06401 0.0
C395 C 0.13016 0.13794 1.0237 0.0
C396 C 0.90574 0.82032 0.05998 0.0
C397 C 0.93747 0.86425 0.06559 0.0
C398 C 0.04956 0.95613 0.04964 0.0
C399 C 0.09038 0.07953 0.05151 0.0
C400 C 0.06316 0.03109 0.05635 0.0
C401 C 0.97205 0.89066 0.0505 0.0
C402 C 0.00455 0.93811 0.05543 0.0
H403 H 0.11169 0.18046 0.07165 0.0
H404 H 0.07681 0.10183 0.08311 0.0
H405 H 0.11249 0.01518 0.04445 0.0
H406 H 0.94515 0.81588 1.00787 0.0
H407 H -0.00011 0.89195 1.01755 0.0
C408 C 0.03974 0.86884 0.3955 0.0
C409 C 0.04063 0.85519 0.37329 0.0
C410 C 0.01324 0.88748 0.40086 0.0
C411 C 0.91963 0.90055 0.38105 0.0
H412 H 0.98942 0.02294 0.40131 0.0
C413 C 0.87237 0.03129 0.35777 0.0
C414 C 0.88177 0.06653 0.37255 0.0
C415 C 0.88606 0.0007 0.36285 0.0
C416 C 0.96899 0.98854 0.39617 0.0
H417 H 0.01289 0.84738 0.33969 0.0
H418 H 0.96563 0.8784 0.34917 0.0
H419 H 0.02162 0.97455 0.40232 0.0
H420 H 0.91215 0.09675 0.4046 0.0
H421 H 0.93573 0.04279 0.41366 0.0
H422 H 0.86734 0.91454 0.37439 0.0
C423 C 0.9855 0.87521 0.3624 0.0
C424 C 0.9875 0.96082 0.39677 0.0
C425 C 0.01263 0.85765 0.35695 0.0
C426 C 0.90468 0.07012 0.39277 0.0
C427 C 0.91824 0.03924 0.39795 0.0
C428 C 0.90094 0.92804 0.3807 0.0
C429 C 0.98654 0.89158 0.38421 0.0
C430 C 0.96358 0.91713 0.38839 0.0
C431 C 0.90926 0.00425 0.38297 0.0
C432 C 0.92605 0.97294 0.38735 0.0
H433 H 0.06147 0.86765 0.40831 0.0
H434 H 0.0146 0.89993 0.41778 0.0
H435 H 0.90035 0.86681 0.37473 0.0
H436 H 0.85498 0.02761 0.34199 0.0
H437 H 0.87943 0.97492 0.35063 0.0
C438 C 0.14997 0.01953 0.68889 0.0
C439 C 0.18142 0.04945 0.70429 0.0
C440 C 0.10547 0.99368 0.69506 0.0
C441 C 0.02468 0.00107 0.73006 0.0
H442 H 0.94682 0.88197 0.70716 0.0
C443 C 0.83276 0.9226 0.72678 0.0
C444 C 0.81391 0.90327 0.70581 0.0
C445 C 0.87672 0.93443 0.73189 0.0
C446 C 0.96809 0.9152 0.71372 0.0
H447 H 0.19173 0.07465 0.73853 0.0
H448 H 0.11303 0.02969 0.74931 0.0
H449 H 0.02708 0.91194 0.70752 0.0
H450 H 0.82634 0.88067 0.67394 0.0
H451 H 0.90256 0.90155 0.68272 0.0
H452 H 0.96588 0.00527 0.73511 0.0
C453 C 0.12311 0.02608 0.73251 0.0
C454 C 0.014 0.93225 0.71402 0.0
C455 C 0.16805 0.05151 0.72642 0.0
C456 C 0.8397 0.89547 0.69025 0.0
C457 C 0.88338 0.90706 0.69538 0.0
C458 C 0.97868 0.98403 0.72971 0.0
C459 C 0.09126 -0.00234 0.71669 0.0
C460 C 0.04288 0.97599 0.72135 0.0
C461 C 0.90253 0.92682 0.71621 0.0
C462 C 0.95005 0.94159 0.72067 0.0
H463 H 0.15954 0.01737 0.67173 0.0
H464 H 0.08176 0.97254 0.68239 0.0
H465 H 0.04612 0.03502 0.73565 0.0
H466 H 0.81369 0.92885 0.73919 0.0
H467 H 0.89049 0.94945 0.74811 0.0
C468 C 0.23962 0.28999 0.94981 0.0
C469 C 0.19715 0.2855 0.95086 0.0
C470 C 0.25297 0.27618 0.93061 0.0
C471 C 0.22488 0.24777 0.86985 0.0
H472 H 0.29653 0.19147 0.87663 0.0
C473 C 0.26288 0.16445 0.79498 0.0
C474 C 0.30711 0.17374 0.79303 0.0
C475 C 0.24871 0.17702 0.81433 0.0
C476 C 0.27678 0.20742 0.87444 0.0
H477 H 0.13506 0.26189 0.93272 0.0
H478 H 0.15794 0.23744 0.89953 0.0
H479 H 0.27394 0.216 0.91008 0.0
H480 H 0.371 0.20418 0.81025 0.0
H481 H 0.34611 0.22521 0.8438 0.0
H482 H 0.22746 0.23877 0.83419 0.0
C483 C 0.18151 0.25267 0.91322 0.0
C484 C 0.26394 0.22166 0.89363 0.0
C485 C 0.16832 0.26671 0.93231 0.0
C486 C 0.33653 0.19556 0.8111 0.0
C487 C 0.32228 0.20779 0.83045 0.0
C488 C 0.23749 0.23328 0.85068 0.0
C489 C 0.22403 0.25725 0.91206 0.0
C490 C 0.23789 0.24215 0.8916 0.0
C491 C 0.27829 0.19889 0.83228 0.0
C492 C 0.26372 0.21307 0.85273 0.0
H493 H 0.26276 0.30472 0.9637 0.0
H494 H 0.28621 0.28089 0.93022 0.0
H495 H 0.20548 0.26407 0.86754 0.0
H496 H 0.239 0.14723 0.78166 0.0
H497 H 0.21442 0.16919 0.81533 0.0
C498 C 0.1524 0.31935 0.14826 0.0
C499 C 0.13938 0.29182 0.12899 0.0
C500 C 0.12764 0.3052 0.16822 0.0
C501 C 0.01511 0.22949 0.18927 0.0
H502 H 0.07267 0.25029 0.24778 0.0
C503 C 0.91168 0.16485 0.27067 0.0
C504 C 0.92636 0.1922 0.28988 0.0
C505 C 0.93906 0.17484 0.25175 0.0
C506 C 0.05603 0.24468 0.23162 0.0
H507 H 0.08993 0.22687 0.11626 0.0
H508 H 0.04643 0.20276 0.15094 0.0
H509 H 0.11747 0.27159 0.21341 0.0
H510 H 0.98161 0.25101 0.30455 0.0
H511 H 0.02941 0.26934 0.27129 0.0
H512 H 0.95388 0.20381 0.20726 0.0
C513 C 0.07588 0.2355 0.15041 0.0
C514 C 0.08175 0.25676 0.2119 0.0
C515 C 0.1009 0.24946 0.13046 0.0
C516 C 0.96962 0.22916 0.29003 0.0
C517 C -0.00304 0.23955 0.27094 0.0
C518 C 0.98945 0.2178 0.20895 0.0
C519 C 0.08889 0.26329 0.1695 0.0
C520 C 0.06158 0.2493 0.19049 0.0
C521 C 0.98176 0.21286 0.25139 0.0
C522 C 0.00948 0.22514 0.23044 0.0
H523 H 0.18122 0.3524 0.14798 0.0
H524 H 0.13824 0.32769 0.18251 0.0
H525 H -0.00139 0.224 0.17307 0.0
H526 H 0.87877 0.13571 0.27024 0.0
H527 H 0.92654 0.15274 0.23734 0.0
C528 C 0.81524 0.09396 0.46395 0.0
C529 C 0.83833 0.14084 0.46462 0.0
C530 C 0.8012 0.06888 0.4839 0.0
C531 C 0.81894 0.07595 0.54616 0.0
H532 H 0.70203 0.97016 0.54658 0.0
C533 C 0.73255 0.97906 0.6284 0.0
C534 C 0.70884 0.93223 0.62715 0.0
C535 C 0.74985 0.005 0.60883 0.0
C536 C 0.73497 -0.00067 0.54671 0.0
H537 H 0.86575 0.19781 0.4871 0.0
H538 H 0.84044 0.15417 0.52177 0.0
H539 H 0.7296 0.01404 0.51211 0.0
H540 H 0.6863 0.87622 0.60428 0.0
H541 H 0.71614 0.92122 0.57035 0.0
H542 H 0.824 0.06125 0.58091 0.0
C543 C 0.83353 0.13676 0.5058 0.0
C544 C 0.75085 0.0245 0.52689 0.0
C545 C 0.84762 0.16186 0.48585 0.0
C546 C 0.70349 0.91211 0.60588 0.0
C547 C 0.72068 0.93797 0.58638 0.0
C548 C 0.80298 0.05078 0.56603 0.0
C549 C 0.80976 0.08991 0.5051 0.0
C550 C 0.7931 0.06309 0.5263 0.0
C551 C 0.74378 0.98475 0.58754 0.0
C552 C 0.76083 0.01205 0.56654 0.0
H553 H 0.80702 0.07644 0.44801 0.0
H554 H 0.78355 0.03288 0.48268 0.0
H555 H 0.85185 0.10513 0.54628 0.0
H556 H 0.73692 -0.00426 0.64441 0.0
H557 H 0.76708 0.04095 0.61032 0.0
C558 C 0.71566 0.87313 0.82307 0.0
C559 C 0.70881 0.8525 0.80187 0.0
C560 C 0.72563 0.85559 0.84205 0.0
C561 C 0.71159 0.75071 0.86476 0.0
H562 H 0.80297 0.82659 0.9075 0.0
C563 C 0.76405 0.67743 0.93841 0.0
C564 C 0.77546 0.69987 0.95928 0.0
C565 C 0.75646 0.69654 0.91932 0.0
C566 C 0.77688 0.80494 0.89594 0.0
H567 H 0.70736 0.79737 0.78397 0.0
H568 H 0.72475 0.76664 0.81715 0.0
H569 H 0.78979 0.85932 0.87388 0.0
H570 H 0.78761 0.76051 0.97611 0.0
H571 H 0.7728 0.793 0.94308 0.0
H572 H 0.69788 0.69645 0.88689 0.0
C573 C 0.72232 0.79641 0.81906 0.0
C574 C 0.76949 0.82374 0.87661 0.0
C575 C 0.71282 0.81426 0.80001 0.0
C576 C 0.77855 0.74187 0.9605 0.0
C577 C 0.77062 0.76088 0.94139 0.0
C578 C 0.71868 0.73197 0.88417 0.0
C579 C 0.72854 0.81671 0.84033 0.0
C580 C 0.73686 0.79681 0.86076 0.0
C581 C 0.7596 0.73852 0.92051 0.0
C582 C 0.75155 0.75877 0.90001 0.0
H583 H 0.71318 0.90285 0.82499 0.0
H584 H 0.72996 0.87185 0.85821 0.0
H585 H 0.68569 0.72917 0.85307 0.0
H586 H 0.76072 0.64487 0.9367 0.0
H587 H 0.74867 0.67849 0.90352 0.0
C588 C 0.88943 0.73191 0.13519 0.0
C589 C 0.85196 0.68909 0.13356 0.0
C590 C 0.91721 0.744 0.15419 0.0
C591 C 0.91943 0.7096 0.21374 0.0
H592 H 0.04675 0.78661 0.20732 0.0
C593 C 0.09242 0.77467 0.26858 0.0
C594 C 0.07845 0.78192 0.28959 0.0
C595 C 0.06465 0.76318 0.24966 0.0
C596 C 0.01131 0.76467 0.20943 0.0
H597 H 0.81522 0.62487 0.15014 0.0
H598 H 0.86386 0.64536 0.18288 0.0
H599 H -0.00071 0.76652 0.17407 0.0
H600 H 0.02461 0.78329 0.3072 0.0
H601 H 0.97639 0.76412 0.27418 0.0
H602 H 0.93154 0.70627 0.24893 0.0
C603 C 0.8712 0.67028 0.16995 0.0
C604 C 0.98395 0.75368 0.19035 0.0
C605 C 0.84328 0.65842 0.15112 0.0
C606 C 0.03597 0.77717 0.29132 0.0
C607 C 0.00835 0.76615 0.27235 0.0
C608 C 0.9468 0.72026 0.23277 0.0
C609 C 0.90838 0.71334 0.17187 0.0
C610 C 0.93762 0.72589 0.19223 0.0
C611 C 0.02236 0.75914 0.25122 0.0
C612 C -0.00685 0.74789 0.2309 0.0
H613 H 0.89673 0.75632 0.12199 0.0
H614 H 0.94517 0.77764 0.15517 0.0
H615 H 0.88388 0.68869 0.21597 0.0
H616 H 0.12479 0.77761 0.26682 0.0
H617 H 0.07629 0.75714 0.23384 0.0
C618 C 0.30575 0.09541 0.59678 0.0
C619 C 0.2918 0.08003 0.61894 0.0
C620 C 0.29002 0.06611 0.57849 0.0
C621 C 0.19772 0.9549 0.56154 0.0
H622 H 0.27412 0.97366 0.5101 0.0
C623 C 0.14791 0.83174 0.48617 0.0
C624 C 0.15822 0.85073 0.46444 0.0
C625 C 0.16312 0.85872 0.50541 0.0
C626 C 0.25227 0.96822 0.52426 0.0
H627 H 0.25065 0.02108 0.6391 0.0
H628 H 0.2244 0.96972 0.60728 0.0
H629 H 0.30415 0.02132 0.54316 0.0
H630 H 0.19265 0.91299 0.44588 0.0
H631 H 0.21909 0.96005 0.47941 0.0
H632 H 0.14602 0.90126 0.54258 0.0
C633 C 0.24689 0.00476 0.60401 0.0
C634 C 0.26944 -0.00441 0.54324 0.0
C635 C 0.26248 0.0342 0.62235 0.0
C636 C 0.18361 0.89735 0.46237 0.0
C637 C 0.19922 0.92427 0.48158 0.0
C638 C 0.18065 0.92723 0.54261 0.0
C639 C 0.26013 0.02041 0.5818 0.0
C640 C 0.24231 0.98964 0.56206 0.0
C641 C 0.18947 0.90526 0.50332 0.0
C642 C 0.20763 0.93389 0.52367 0.0
H643 H 0.32873 0.13027 0.59346 0.0
H644 H 0.30062 0.07962 0.56166 0.0
H645 H 0.1756 0.94966 0.57553 0.0
H646 H 0.12828 0.79595 0.48827 0.0
H647 H 0.15525 0.84307 0.52193 0.0
loop_
_geom_bond_atom_site_label_1
_geom_bond_atom_site_label_2
_geom_bond_distance
_geom_bond_site_symmetry_2
_ccdc_geom_bond_type
C0 C1 1.351 . S
C0 N3 1.368 . S
C0 H5 0.931 . S
C1 C0 1.351 . S
C1 N2 1.373 . S
C1 H29 0.930 . S
N2 C1 1.373 . S
N2 C4 1.340 . S
N3 C0 1.368 . S
N3 C4 1.321 . S
N3 Co6 2.135 . S
C4 N2 1.340 . S
C4 N3 1.321 . S
C4 H28 0.930 . S
H5 C0 0.931 . S
Co6 N3 2.135 . S
Co6 N9 2.121 1_554 S
Co6 O14 2.055 . S
Co6 O17 2.039 . S
Co6 N20 2.140 . S
C7 O8 1.227 . S
C7 O17 1.265 . S
O8 C7 1.227 . S
N9 Co6 2.121 1_556 S
N9 C11 1.375 . S
N9 C12 1.313 . S
C10 C11 1.338 . S
C10 N13 1.377 . S
C10 H30 0.930 . S
C11 N9 1.375 . S
C11 C10 1.338 . S
C11 H15 0.931 . S
C12 N9 1.313 . S
C12 N13 1.344 . S
C12 H16 0.930 . S
N13 C10 1.377 . S
N13 C12 1.344 . S
O14 Co6 2.055 . S
O14 C18 1.253 . S
H15 C11 0.931 . S
H16 C12 0.930 . S
O17 Co6 2.039 . S
O17 C7 1.265 . S
C18 O14 1.253 . S
C18 O19 1.227 . S
O19 C18 1.227 . S
N20 Co6 2.140 . S
N20 C23 1.346 . S
N20 C24 1.345 1_554 S
C21 C22 1.361 1_556 S
C21 C25 1.411 . S
C22 C21 1.361 1_554 S
C22 C23 1.369 . S
C22 H31 0.929 . S
C23 N20 1.346 . S
C23 C22 1.369 . S
C23 H26 0.928 . S
C24 N20 1.345 1_556 S
C24 C25 1.371 . S
C24 H27 0.931 . S
C25 C21 1.411 . S
C25 C24 1.371 . S
C25 H32 0.930 . S
H26 C23 0.928 . S
H27 C24 0.931 . S
H28 C4 0.930 . S
H29 C1 0.930 . S
H30 C10 0.930 . S
H31 C22 0.929 . S
H32 C25 0.930 . S
C33 C34 1.351 . S
C33 N36 1.368 . S
C33 H38 0.931 . S
C34 C33 1.351 . S
C34 N35 1.373 . S
C34 H62 0.930 . S
N35 C34 1.373 . S
N35 C37 1.340 . S
N36 C33 1.368 . S
N36 C37 1.321 . S
N36 Co39 2.135 . S
C37 N35 1.340 . S
C37 N36 1.321 . S
C37 H61 0.930 . S
H38 C33 0.931 . S
Co39 N36 2.135 . S
Co39 N42 2.121 . S
Co39 O47 2.055 . S
Co39 O50 2.039 . S
Co39 N53 2.140 . S
C40 O41 1.227 . S
C40 O50 1.265 . S
O41 C40 1.227 . S
N42 Co39 2.121 . S
N42 C44 1.375 . S
N42 C45 1.313 . S
C43 C44 1.338 . S
C43 N46 1.377 . S
C43 H63 0.930 . S
C44 N42 1.375 . S
C44 C43 1.338 . S
C44 H48 0.931 . S
C45 N42 1.313 . S
C45 N46 1.344 . S
C45 H49 0.930 . S
N46 C43 1.377 . S
N46 C45 1.344 . S
O47 Co39 2.055 . S
O47 C51 1.253 . S
H48 C44 0.931 . S
H49 C45 0.930 . S
O50 Co39 2.039 . S
O50 C40 1.265 . S
C51 O47 1.253 . S
C51 O52 1.227 . S
O52 C51 1.227 . S
N53 Co39 2.140 . S
N53 C56 1.346 . S
N53 C57 1.345 . S
C54 C55 1.387 . S
C54 C58 1.391 . S
C55 C54 1.387 . S
C55 C56 1.369 . S
C55 H64 0.929 . S
C56 N53 1.346 . S
C56 C55 1.369 . S
C56 H59 0.928 . S
C57 N53 1.345 . S
C57 C58 1.371 . S
C57 H60 0.931 . S
C58 C54 1.391 . S
C58 C57 1.371 . S
C58 H65 0.930 . S
H59 C56 0.928 . S
H60 C57 0.931 . S
H61 C37 0.930 . S
H62 C34 0.930 . S
H63 C43 0.930 . S
H64 C55 0.929 . S
H65 C58 0.930 . S
C66 C67 1.351 . S
C66 N69 1.368 . S
C66 H71 0.931 . S
C67 C66 1.351 . S
C67 N68 1.373 . S
C67 H95 0.930 . S
N68 C67 1.373 . S
N68 C70 1.340 . S
N69 C66 1.368 . S
N69 C70 1.321 . S
N69 Co72 2.135 . S
C70 N68 1.340 . S
C70 N69 1.321 . S
C70 H94 0.930 . S
H71 C66 0.931 . S
Co72 N69 2.135 . S
Co72 N75 2.121 . S
Co72 O80 2.055 . S
Co72 O83 2.039 . S
Co72 N86 2.140 . S
C73 O74 1.227 . S
C73 O83 1.265 . S
O74 C73 1.227 . S
N75 Co72 2.121 . S
N75 C77 1.375 . S
N75 C78 1.313 . S
C76 C77 1.338 . S
C76 N79 1.377 . S
C76 H96 0.930 . S
C77 N75 1.375 . S
C77 C76 1.338 . S
C77 H81 0.931 . S
C78 N75 1.313 . S
C78 N79 1.344 . S
C78 H82 0.930 . S
N79 C76 1.377 . S
N79 C78 1.344 . S
O80 Co72 2.055 . S
O80 C84 1.253 . S
H81 C77 0.931 . S
H82 C78 0.930 . S
O83 Co72 2.039 . S
O83 C73 1.265 . S
C84 O80 1.253 . S
C84 O85 1.227 . S
O85 C84 1.227 . S
N86 Co72 2.140 . S
N86 C89 1.346 . S
N86 C90 1.345 . S
C87 C88 1.387 . S
C87 C91 1.391 . S
C88 C87 1.387 . S
C88 C89 1.369 . S
C88 H97 0.929 . S
C89 N86 1.346 . S
C89 C88 1.369 . S
C89 H92 0.928 . S
C90 N86 1.345 . S
C90 C91 1.371 . S
C90 H93 0.931 . S
C91 C87 1.391 . S
C91 C90 1.371 . S
C91 H98 0.930 . S
H92 C89 0.928 . S
H93 C90 0.931 . S
H94 C70 0.930 . S
H95 C67 0.930 . S
H96 C76 0.930 . S
H97 C88 0.929 . S
H98 C91 0.930 . S
C99 C100 1.351 . S
C99 N102 1.368 . S
C99 H104 0.931 . S
C100 C99 1.351 . S
C100 N101 1.373 . S
C100 H128 0.930 . S
N101 C100 1.373 . S
N101 C103 1.340 . S
N102 C99 1.368 . S
N102 C103 1.321 . S
N102 Co105 2.135 . S
C103 N101 1.340 . S
C103 N102 1.321 . S
C103 H127 0.930 . S
H104 C99 0.931 . S
Co105 N102 2.135 . S
Co105 N108 2.121 1_554 S
Co105 O113 2.055 . S
Co105 O116 2.039 . S
Co105 N119 2.140 . S
C106 O107 1.227 . S
C106 O116 1.265 . S
O107 C106 1.227 . S
N108 Co105 2.121 1_556 S
N108 C110 1.375 . S
N108 C111 1.313 . S
C109 C110 1.338 . S
C109 N112 1.377 . S
C109 H129 0.930 . S
C110 N108 1.375 . S
C110 C109 1.338 . S
C110 H114 0.931 . S
C111 N108 1.313 . S
C111 N112 1.344 . S
C111 H115 0.930 . S
N112 C109 1.377 . S
N112 C111 1.344 . S
O113 Co105 2.055 . S
O113 C117 1.253 . S
H114 C110 0.931 . S
H115 C111 0.930 . S
O116 Co105 2.039 . S
O116 C106 1.265 . S
C117 O113 1.253 . S
C117 O118 1.227 . S
O118 C117 1.227 . S
N119 Co105 2.140 . S
N119 C122 1.346 . S
N119 C123 1.345 1_554 S
C120 C121 1.361 1_556 S
C120 C124 1.411 . S
C121 C120 1.361 1_554 S
C121 C122 1.369 . S
C121 H130 0.929 . S
C122 N119 1.346 . S
C122 C121 1.369 . S
C122 H125 0.928 . S
C123 N119 1.345 1_556 S
C123 C124 1.371 . S
C123 H126 0.931 . S
C124 C120 1.411 . S
C124 C123 1.371 . S
C124 H131 0.930 . S
H125 C122 0.928 . S
H126 C123 0.931 . S
H127 C103 0.930 . S
H128 C100 0.930 . S
H129 C109 0.930 . S
H130 C121 0.929 . S
H131 C124 0.930 . S
C132 C133 1.351 . S
C132 N135 1.368 . S
C132 H137 0.931 . S
C133 C132 1.351 . S
C133 N134 1.373 . S
C133 H161 0.930 . S
N134 C133 1.373 . S
N134 C136 1.340 . S
N135 C132 1.368 . S
N135 C136 1.321 . S
N135 Co138 2.135 . S
C136 N134 1.340 . S
C136 N135 1.321 . S
C136 H160 0.930 . S
H137 C132 0.931 . S
Co138 N135 2.135 . S
Co138 N141 2.121 . S
Co138 O146 2.055 . S
Co138 O149 2.039 . S
Co138 N152 2.140 . S
C139 O140 1.227 . S
C139 O149 1.265 . S
O140 C139 1.227 . S
N141 Co138 2.121 . S
N141 C143 1.375 . S
N141 C144 1.313 . S
C142 C143 1.338 . S
C142 N145 1.377 . S
C142 H162 0.930 . S
C143 N141 1.375 . S
C143 C142 1.338 . S
C143 H147 0.931 . S
C144 N141 1.313 . S
C144 N145 1.344 . S
C144 H148 0.930 . S
N145 C142 1.377 . S
N145 C144 1.344 . S
O146 Co138 2.055 . S
O146 C150 1.253 . S
H147 C143 0.931 . S
H148 C144 0.930 . S
O149 Co138 2.039 . S
O149 C139 1.265 . S
C150 O146 1.253 . S
C150 O151 1.227 . S
O151 C150 1.227 . S
N152 Co138 2.140 . S
N152 C155 1.346 . S
N152 C156 1.345 . S
C153 C154 1.387 . S
C153 C157 1.391 . S
C154 C153 1.387 . S
C154 C155 1.369 . S
C154 H163 0.929 . S
C155 N152 1.346 . S
C155 C154 1.369 . S
C155 H158 0.928 . S
C156 N152 1.345 . S
C156 C157 1.371 . S
C156 H159 0.931 . S
C157 C153 1.391 . S
C157 C156 1.371 . S
C157 H164 0.930 . S
H158 C155 0.928 . S
H159 C156 0.931 . S
H160 C136 0.930 . S
H161 C133 0.930 . S
H162 C142 0.930 . S
H163 C154 0.929 . S
H164 C157 0.930 . S
C165 C166 1.351 . S
C165 N168 1.368 . S
C165 H170 0.931 . S
C166 C165 1.351 . S
C166 N167 1.373 . S
C166 H194 0.930 . S
N167 C166 1.373 . S
N167 C169 1.340 . S
N168 C165 1.368 . S
N168 C169 1.321 . S
N168 Co171 2.135 . S
C169 N167 1.340 . S
C169 N168 1.321 . S
C169 H193 0.930 . S
H170 C165 0.931 . S
Co171 N168 2.135 . S
Co171 N174 2.121 . S
Co171 O179 2.055 . S
Co171 O182 2.039 . S
Co171 N185 2.140 . S
C172 O173 1.227 . S
C172 O182 1.265 . S
O173 C172 1.227 . S
N174 Co171 2.121 . S
N174 C176 1.375 . S
N174 C177 1.313 . S
C175 C176 1.338 . S
C175 N178 1.377 . S
C175 H195 0.930 . S
C176 N174 1.375 . S
C176 C175 1.338 . S
C176 H180 0.931 . S
C177 N174 1.313 . S
C177 N178 1.344 . S
C177 H181 0.930 . S
N178 C175 1.377 . S
N178 C177 1.344 . S
O179 Co171 2.055 . S
O179 C183 1.253 . S
H180 C176 0.931 . S
H181 C177 0.930 . S
O182 Co171 2.039 . S
O182 C172 1.265 . S
C183 O179 1.253 . S
C183 O184 1.227 . S
O184 C183 1.227 . S
N185 Co171 2.140 . S
N185 C188 1.346 . S
N185 C189 1.345 . S
C186 C187 1.387 . S
C186 C190 1.391 . S
C187 C186 1.387 . S
C187 C188 1.369 . S
C187 H196 0.929 . S
C188 N185 1.346 . S
C188 C187 1.369 . S
C188 H191 0.928 . S
C189 N185 1.345 . S
C189 C190 1.371 . S
C189 H192 0.931 . S
C190 C186 1.391 . S
C190 C189 1.371 . S
C190 H197 0.930 . S
H191 C188 0.928 . S
H192 C189 0.931 . S
H193 C169 0.930 . S
H194 C166 0.930 . S
H195 C175 0.930 . S
H196 C187 0.929 . S
H197 C190 0.930 . S
C198 C199 1.335 1_556 S
C198 C200 1.327 . S
C198 H223 0.964 . S
C199 C198 1.335 1_554 S
C199 C215 1.349 . S
C200 C198 1.327 . S
C200 C219 1.398 1_556 S
C200 H224 0.982 . S
C201 C218 1.574 . S
C201 C220 1.368 . S
C201 H225 0.949 . S
H202 C206 0.949 . S
C203 C204 1.349 . S
C203 C205 1.327 . S
C203 H226 0.950 . S
C204 C203 1.349 . S
C204 C216 1.335 1_554 S
C205 C203 1.327 . S
C205 C221 1.429 . S
C205 H227 0.950 . S
C206 H202 0.949 . S
C206 C214 1.574 . S
C206 C222 1.368 1_556 S
H207 C215 0.950 . S
H208 C213 0.950 . S
H209 C214 0.949 . S
H210 C216 0.964 . S
H211 C217 0.982 . S
H212 C218 0.949 . S
C213 H208 0.950 . S
C213 C215 1.327 . S
C213 C219 1.429 . S
C214 C206 1.574 . S
C214 H209 0.949 . S
C214 C220 1.368 1_556 S
C215 C199 1.349 . S
C215 H207 0.950 . S
C215 C213 1.327 . S
C216 C204 1.335 1_556 S
C216 H210 0.964 . S
C216 C217 1.327 . S
C217 H211 0.982 . S
C217 C216 1.327 . S
C217 C221 1.398 1_556 S
C218 C201 1.574 . S
C218 H212 0.949 . S
C218 C222 1.368 . S
C219 C200 1.398 1_554 S
C219 C213 1.429 . S
C219 C220 1.523 . S
C220 C201 1.368 . S
C220 C214 1.368 1_554 S
C220 C219 1.523 . S
C221 C205 1.429 . S
C221 C217 1.398 1_554 S
C221 C222 1.523 . S
C222 C206 1.368 1_554 S
C222 C218 1.368 . S
C222 C221 1.523 . S
H223 C198 0.964 . S
H224 C200 0.982 . S
H225 C201 0.949 . S
H226 C203 0.950 . S
H227 C205 0.950 . S
C228 C229 1.349 . S
C228 C230 1.327 . S
C228 H253 0.950 . S
C229 C228 1.349 . S
C229 C245 1.349 . S
C230 C228 1.327 . S
C230 C249 1.429 . S
C230 H254 0.950 . S
C231 C248 1.574 . S
C231 C250 1.368 1_455 S
C231 H255 0.949 . S
H232 C236 0.949 . S
C233 C234 1.349 . S
C233 C235 1.327 . S
C233 H256 0.950 . S
C234 C233 1.349 . S
C234 C246 1.349 . S
C235 C233 1.327 . S
C235 C251 1.429 . S
C235 H257 0.950 . S
C236 H232 0.949 . S
C236 C244 1.574 . S
C236 C252 1.368 1_655 S
H237 C245 0.950 . S
H238 C243 0.950 . S
H239 C244 0.949 . S
H240 C246 0.950 . S
H241 C247 0.950 . S
H242 C248 0.949 . S
C243 H238 0.950 . S
C243 C245 1.327 . S
C243 C249 1.429 . S
C244 C236 1.574 . S
C244 H239 0.949 . S
C244 C250 1.368 . S
C245 C229 1.349 . S
C245 H237 0.950 . S
C245 C243 1.327 . S
C246 C234 1.349 . S
C246 H240 0.950 . S
C246 C247 1.327 . S
C247 H241 0.950 . S
C247 C246 1.327 . S
C247 C251 1.429 . S
C248 C231 1.574 . S
C248 H242 0.949 . S
C248 C252 1.368 . S
C249 C230 1.429 . S
C249 C243 1.429 . S
C249 C250 1.523 . S
C250 C231 1.368 1_655 S
C250 C244 1.368 . S
C250 C249 1.523 . S
C251 C235 1.429 . S
C251 C247 1.429 . S
C251 C252 1.523 . S
C252 C236 1.368 1_455 S
C252 C248 1.368 . S
C252 C251 1.523 . S
H253 C228 0.950 . S
H254 C230 0.950 . S
H255 C231 0.949 . S
H256 C233 0.950 . S
H257 C235 0.950 . S
C258 C259 1.349 . S
C258 C260 1.327 . S
C258 H283 0.950 . S
C259 C258 1.349 . S
C259 C275 1.349 . S
C260 C258 1.327 . S
C260 C279 1.429 . S
C260 H284 0.950 . S
C261 C278 1.574 . S
C261 C280 1.368 . S
C261 H285 0.949 . S
H262 C266 0.949 . S
C263 C264 1.349 . S
C263 C265 1.327 . S
C263 H286 0.950 . S
C264 C263 1.349 . S
C264 C276 1.349 . S
C265 C263 1.327 . S
C265 C281 1.429 . S
C265 H287 0.950 . S
C266 H262 0.949 . S
C266 C274 1.574 . S
C266 C282 1.368 . S
H267 C275 0.950 . S
H268 C273 0.950 . S
H269 C274 0.949 . S
H270 C276 0.950 . S
H271 C277 0.950 . S
H272 C278 0.949 . S
C273 H268 0.950 . S
C273 C275 1.327 . S
C273 C279 1.429 . S
C274 C266 1.574 . S
C274 H269 0.949 . S
C274 C280 1.368 1_565 S
C275 C259 1.349 . S
C275 H267 0.950 . S
C275 C273 1.327 . S
C276 C264 1.349 . S
C276 H270 0.950 . S
C276 C277 1.327 . S
C277 H271 0.950 . S
C277 C276 1.327 . S
C277 C281 1.429 . S
C278 C261 1.574 . S
C278 H272 0.949 . S
C278 C282 1.368 1_545 S
C279 C260 1.429 . S
C279 C273 1.429 . S
C279 C280 1.523 . S
C280 C261 1.368 . S
C280 C274 1.368 1_545 S
C280 C279 1.523 . S
C281 C265 1.429 . S
C281 C277 1.429 . S
C281 C282 1.523 . S
C282 C266 1.368 . S
C282 C278 1.368 1_565 S
C282 C281 1.523 . S
H283 C258 0.950 . S
H284 C260 0.950 . S
H285 C261 0.949 . S
H286 C263 0.950 . S
H287 C265 0.950 . S
C288 C289 1.349 . S
C288 C290 1.327 . S
C288 H313 0.950 . S
C289 C288 1.349 . S
C289 C305 1.349 . S
C290 C288 1.327 . S
C290 C309 1.429 . S
C290 H314 0.950 . S
C291 C308 1.574 . S
C291 C310 1.368 . S
C291 H315 0.949 . S
H292 C296 0.949 . S
C293 C294 1.349 . S
C293 C295 1.327 . S
C293 H316 0.950 . S
C294 C293 1.349 . S
C294 C306 1.349 . S
C295 C293 1.327 . S
C295 C311 1.429 . S
C295 H317 0.950 . S
C296 H292 0.949 . S
C296 C304 1.574 . S
C296 C312 1.368 . S
H297 C305 0.950 . S
H298 C303 0.950 . S
H299 C304 0.949 . S
H300 C306 0.950 . S
H301 C307 0.950 . S
H302 C308 0.949 . S
C303 H298 0.950 . S
C303 C305 1.327 . S
C303 C309 1.429 . S
C304 C296 1.574 . S
C304 H299 0.949 . S
C304 C310 1.368 . S
C305 C289 1.349 . S
C305 H297 0.950 . S
C305 C303 1.327 . S
C306 C294 1.349 . S
C306 H300 0.950 . S
C306 C307 1.327 . S
C307 H301 0.950 . S
C307 C306 1.327 . S
C307 C311 1.429 . S
C308 C291 1.574 . S
C308 H302 0.949 . S
C308 C312 1.368 . S
C309 C290 1.429 . S
C309 C303 1.429 . S
C309 C310 1.523 . S
C310 C291 1.368 . S
C310 C304 1.368 . S
C310 C309 1.523 . S
C311 C295 1.429 . S
C311 C307 1.429 . S
C311 C312 1.523 . S
C312 C296 1.368 . S
C312 C308 1.368 . S
C312 C311 1.523 . S
H313 C288 0.950 . S
H314 C290 0.950 . S
H315 C291 0.949 . S
H316 C293 0.950 . S
H317 C295 0.950 . S
C318 C319 1.349 . S
C318 C320 1.327 . S
C318 H343 0.950 . S
C319 C318 1.349 . S
C319 C335 1.349 1_556 S
C320 C318 1.327 . S
C320 C339 1.429 . S
C320 H344 0.950 . S
C321 C338 1.574 . S
C321 C340 1.368 1_554 S
C321 H345 0.949 . S
H322 C326 0.949 . S
C323 C324 1.349 1_554 S
C323 C325 1.327 . S
C323 H346 0.950 . S
C324 C323 1.349 1_556 S
C324 C336 1.349 . S
C325 C323 1.327 . S
C325 C341 1.429 1_554 S
C325 H347 0.950 . S
C326 H322 0.949 . S
C326 C334 1.574 . S
C326 C342 1.368 . S
H327 C335 0.950 . S
H328 C333 0.950 . S
H329 C334 0.949 . S
H330 C336 0.950 . S
H331 C337 0.950 . S
H332 C338 0.949 . S
C333 H328 0.950 . S
C333 C335 1.327 . S
C333 C339 1.429 1_554 S
C334 C326 1.574 . S
C334 H329 0.949 . S
C334 C340 1.368 1_455 S
C335 C319 1.349 1_554 S
C335 H327 0.950 . S
C335 C333 1.327 . S
C336 C324 1.349 . S
C336 H330 0.950 . S
C336 C337 1.327 . S
C337 H331 0.950 . S
C337 C336 1.327 . S
C337 C341 1.429 . S
C338 C321 1.574 . S
C338 H332 0.949 . S
C338 C342 1.368 1_654 S
C339 C320 1.429 . S
C339 C333 1.429 1_556 S
C339 C340 1.523 . S
C340 C321 1.368 1_556 S
C340 C334 1.368 1_655 S
C340 C339 1.523 . S
C341 C325 1.429 1_556 S
C341 C337 1.429 . S
C341 C342 1.523 . S
C342 C326 1.368 . S
C342 C338 1.368 1_456 S
C342 C341 1.523 . S
H343 C318 0.950 . S
H344 C320 0.950 . S
H345 C321 0.949 . S
H346 C323 0.950 . S
H347 C325 0.950 . S
C348 C349 1.349 . S
C348 C350 1.327 . S
C348 H373 0.950 . S
C349 C348 1.349 . S
C349 C365 1.349 . S
C350 C348 1.327 . S
C350 C369 1.429 . S
C350 H374 0.950 . S
C351 C368 1.574 . S
C351 C370 1.368 . S
C351 H375 0.949 . S
H352 C356 0.949 . S
C353 C354 1.349 . S
C353 C355 1.327 . S
C353 H376 0.950 . S
C354 C353 1.349 . S
C354 C366 1.349 . S
C355 C353 1.327 . S
C355 C371 1.429 . S
C355 H377 0.950 . S
C356 H352 0.949 . S
C356 C364 1.574 . S
C356 C372 1.368 . S
H357 C365 0.950 . S
H358 C363 0.950 . S
H359 C364 0.949 . S
H360 C366 0.950 . S
H361 C367 0.950 . S
H362 C368 0.949 . S
C363 H358 0.950 . S
C363 C365 1.327 . S
C363 C369 1.429 . S
C364 C356 1.574 . S
C364 H359 0.949 . S
C364 C370 1.368 1_545 S
C365 C349 1.349 . S
C365 H357 0.950 . S
C365 C363 1.327 . S
C366 C354 1.349 . S
C366 H360 0.950 . S
C366 C367 1.327 . S
C367 H361 0.950 . S
C367 C366 1.327 . S
C367 C371 1.429 . S
C368 C351 1.574 . S
C368 H362 0.949 . S
C368 C372 1.368 1_565 S
C369 C350 1.429 . S
C369 C363 1.429 . S
C369 C370 1.523 . S
C370 C351 1.368 . S
C370 C364 1.368 1_565 S
C370 C369 1.523 . S
C371 C355 1.429 . S
C371 C367 1.429 . S
C371 C372 1.523 . S
C372 C356 1.368 . S
C372 C368 1.368 1_545 S
C372 C371 1.523 . S
H373 C348 0.950 . S
H374 C350 0.950 . S
H375 C351 0.949 . S
H376 C353 0.950 . S
H377 C355 0.950 . S
C378 C379 1.349 . S
C378 C380 1.327 . S
C378 H403 0.950 . S
C379 C378 1.349 . S
C379 C395 1.349 1_554 S
C380 C378 1.327 . S
C380 C399 1.429 . S
C380 H404 0.950 . S
C381 C398 1.574 1_545 S
C381 C400 1.368 1_556 S
C381 H405 0.949 . S
H382 C386 0.949 . S
C383 C384 1.349 1_556 S
C383 C385 1.327 . S
C383 H406 0.950 . S
C384 C383 1.349 1_554 S
C384 C396 1.349 . S
C385 C383 1.327 . S
C385 C401 1.429 1_556 S
C385 H407 0.950 . S
C386 H382 0.949 . S
C386 C394 1.574 1_565 S
C386 C402 1.368 . S
H387 C395 0.950 . S
H388 C393 0.950 . S
H389 C394 0.949 . S
H390 C396 0.950 . S
H391 C397 0.950 . S
H392 C398 0.949 . S
C393 H388 0.950 . S
C393 C395 1.327 . S
C393 C399 1.429 1_556 S
C394 C386 1.574 1_545 S
C394 H389 0.949 . S
C394 C400 1.368 1_655 S
C395 C379 1.349 1_556 S
C395 H387 0.950 . S
C395 C393 1.327 . S
C396 C384 1.349 . S
C396 H390 0.950 . S
C396 C397 1.327 . S
C397 H391 0.950 . S
C397 C396 1.327 . S
C397 C401 1.429 . S
C398 C381 1.574 1_565 S
C398 H392 0.949 . S
C398 C402 1.368 1_456 S
C399 C380 1.429 . S
C399 C393 1.429 1_554 S
C399 C400 1.523 . S
C400 C381 1.368 1_554 S
C400 C394 1.368 1_455 S
C400 C399 1.523 . S
C401 C385 1.429 1_554 S
C401 C397 1.429 . S
C401 C402 1.523 . S
C402 C386 1.368 . S
C402 C398 1.368 1_654 S
C402 C401 1.523 . S
H403 C378 0.950 . S
H404 C380 0.950 . S
H405 C381 0.949 . S
H406 C383 0.950 . S
H407 C385 0.950 . S
C408 C409 1.349 . S
C408 C410 1.327 . S
C408 H433 0.950 . S
C409 C408 1.349 . S
C409 C425 1.349 . S
C410 C408 1.327 . S
C410 C429 1.429 . S
C410 H434 0.950 . S
C411 C428 1.574 . S
C411 C430 1.368 1_655 S
C411 H435 0.949 . S
H412 C416 0.949 . S
C413 C414 1.349 . S
C413 C415 1.327 . S
C413 H436 0.950 . S
C414 C413 1.349 . S
C414 C426 1.349 . S
C415 C413 1.327 . S
C415 C431 1.429 . S
C415 H437 0.950 . S
C416 H412 0.949 . S
C416 C424 1.574 . S
C416 C432 1.368 1_455 S
H417 C425 0.950 . S
H418 C423 0.950 . S
H419 C424 0.949 . S
H420 C426 0.950 . S
H421 C427 0.950 . S
H422 C428 0.949 . S
C423 H418 0.950 . S
C423 C425 1.327 . S
C423 C429 1.429 . S
C424 C416 1.574 . S
C424 H419 0.949 . S
C424 C430 1.368 1_545 S
C425 C409 1.349 . S
C425 H417 0.950 . S
C425 C423 1.327 . S
C426 C414 1.349 . S
C426 H420 0.950 . S
C426 C427 1.327 . S
C427 H421 0.950 . S
C427 C426 1.327 . S
C427 C431 1.429 . S
C428 C411 1.574 . S
C428 H422 0.949 . S
C428 C432 1.368 1_565 S
C429 C410 1.429 . S
C429 C423 1.429 . S
C429 C430 1.523 . S
C430 C411 1.368 1_455 S
C430 C424 1.368 1_565 S
C430 C429 1.523 . S
C431 C415 1.429 . S
C431 C427 1.429 . S
C431 C432 1.523 . S
C432 C416 1.368 1_655 S
C432 C428 1.368 1_545 S
C432 C431 1.523 . S
H433 C408 0.950 . S
H434 C410 0.950 . S
H435 C411 0.949 . S
H436 C413 0.950 . S
H437 C415 0.950 . S
C438 C439 1.349 . S
C438 C440 1.327 . S
C438 H463 0.950 . S
C439 C438 1.349 . S
C439 C455 1.349 . S
C440 C438 1.327 . S
C440 C459 1.429 . S
C440 H464 0.950 . S
C441 C458 1.574 1_455 S
C441 C460 1.368 . S
C441 H465 0.949 . S
H442 C446 0.949 . S
C443 C444 1.349 . S
C443 C445 1.327 . S
C443 H466 0.950 . S
C444 C443 1.349 . S
C444 C456 1.349 . S
C445 C443 1.327 . S
C445 C461 1.429 . S
C445 H467 0.950 . S
C446 H442 0.949 . S
C446 C454 1.574 1_655 S
C446 C462 1.368 . S
H447 C455 0.950 . S
H448 C453 0.950 . S
H449 C454 0.949 . S
H450 C456 0.950 . S
H451 C457 0.950 . S
H452 C458 0.949 . S
C453 H448 0.950 . S
C453 C455 1.327 . S
C453 C459 1.429 . S
C454 C446 1.574 1_455 S
C454 H449 0.949 . S
C454 C460 1.368 1_565 S
C455 C439 1.349 . S
C455 H447 0.950 . S
C455 C453 1.327 . S
C456 C444 1.349 . S
C456 H450 0.950 . S
C456 C457 1.327 . S
C457 H451 0.950 . S
C457 C456 1.327 . S
C457 C461 1.429 . S
C458 C441 1.574 1_655 S
C458 H452 0.949 . S
C458 C462 1.368 1_545 S
C459 C440 1.429 . S
C459 C453 1.429 . S
C459 C460 1.523 . S
C460 C441 1.368 . S
C460 C454 1.368 1_545 S
C460 C459 1.523 . S
C461 C445 1.429 . S
C461 C457 1.429 . S
C461 C462 1.523 . S
C462 C446 1.368 . S
C462 C458 1.368 1_565 S
C462 C461 1.523 . S
H463 C438 0.950 . S
H464 C440 0.950 . S
H465 C441 0.949 . S
H466 C443 0.950 . S
H467 C445 0.950 . S
C468 C469 1.349 . S
C468 C470 1.327 . S
C468 H493 0.950 . S
C469 C468 1.349 . S
C469 C485 1.349 . S
C470 C468 1.327 . S
C470 C489 1.429 . S
C470 H494 0.950 . S
C471 C488 1.574 . S
C471 C490 1.368 . S
C471 H495 0.949 . S
H472 C476 0.949 . S
C473 C474 1.349 . S
C473 C475 1.327 . S
C473 H496 0.950 . S
C474 C473 1.349 . S
C474 C486 1.349 . S
C475 C473 1.327 . S
C475 C491 1.429 . S
C475 H497 0.950 . S
C476 H472 0.949 . S
C476 C484 1.574 . S
C476 C492 1.368 . S
H477 C485 0.950 . S
H478 C483 0.950 . S
H479 C484 0.949 . S
H480 C486 0.950 . S
H481 C487 0.950 . S
H482 C488 0.949 . S
C483 H478 0.950 . S
C483 C485 1.327 . S
C483 C489 1.429 . S
C484 C476 1.574 . S
C484 H479 0.949 . S
C484 C490 1.368 . S
C485 C469 1.349 . S
C485 H477 0.950 . S
C485 C483 1.327 . S
C486 C474 1.349 . S
C486 H480 0.950 . S
C486 C487 1.327 . S
C487 H481 0.950 . S
C487 C486 1.327 . S
C487 C491 1.429 . S
C488 C471 1.574 . S
C488 H482 0.949 . S
C488 C492 1.368 . S
C489 C470 1.429 . S
C489 C483 1.429 . S
C489 C490 1.523 . S
C490 C471 1.368 . S
C490 C484 1.368 . S
C490 C489 1.523 . S
C491 C475 1.429 . S
C491 C487 1.429 . S
C491 C492 1.523 . S
C492 C476 1.368 . S
C492 C488 1.368 . S
C492 C491 1.523 . S
H493 C468 0.950 . S
H494 C470 0.950 . S
H495 C471 0.949 . S
H496 C473 0.950 . S
H497 C475 0.950 . S
C498 C499 1.349 . S
C498 C500 1.327 . S
C498 H523 0.950 . S
C499 C498 1.349 . S
C499 C515 1.349 . S
C500 C498 1.327 . S
C500 C519 1.429 . S
C500 H524 0.950 . S
C501 C518 1.574 . S
C501 C520 1.368 . S
C501 H525 0.949 . S
H502 C506 0.949 1_655 S
C503 C504 1.349 . S
C503 C505 1.327 . S
C503 H526 0.950 . S
C504 C503 1.349 . S
C504 C516 1.349 . S
C505 C503 1.327 . S
C505 C521 1.429 . S
C505 H527 0.950 . S
C506 H502 0.949 1_455 S
C506 C514 1.574 . S
C506 C522 1.368 1_455 S
H507 C515 0.950 . S
H508 C513 0.950 . S
H509 C514 0.949 . S
H510 C516 0.950 . S
H511 C517 0.950 . S
H512 C518 0.952 1_655 S
C513 H508 0.950 . S
C513 C515 1.327 . S
C513 C519 1.429 . S
C514 C506 1.574 . S
C514 H509 0.949 . S
C514 C520 1.368 . S
C515 C499 1.349 . S
C515 H507 0.950 . S
C515 C513 1.327 . S
C516 C504 1.349 . S
C516 H510 0.950 . S
C516 C517 1.327 . S
C517 H511 0.950 . S
C517 C516 1.327 . S
C517 C521 1.429 . S
C518 C501 1.574 . S
C518 H512 0.952 1_455 S
C518 C522 1.368 1_455 S
C519 C500 1.429 . S
C519 C513 1.429 . S
C519 C520 1.523 . S
C520 C501 1.368 . S
C520 C514 1.368 . S
C520 C519 1.523 . S
C521 C505 1.429 . S
C521 C517 1.429 . S
C521 C522 1.523 . S
C522 C506 1.368 1_655 S
C522 C518 1.368 1_655 S
C522 C521 1.523 . S
H523 C498 0.950 . S
H524 C500 0.950 . S
H525 C501 0.949 . S
H526 C503 0.950 . S
H527 C505 0.950 . S
C528 C529 1.349 . S
C528 C530 1.327 . S
C528 H553 0.950 . S
C529 C528 1.349 . S
C529 C545 1.349 . S
C530 C528 1.327 . S
C530 C549 1.429 . S
C530 H554 0.950 . S
C531 C548 1.574 . S
C531 C550 1.368 . S
C531 H555 0.949 . S
H532 C536 0.949 . S
C533 C534 1.349 . S
C533 C535 1.327 . S
C533 H556 0.950 . S
C534 C533 1.349 . S
C534 C546 1.349 . S
C535 C533 1.327 . S
C535 C551 1.429 . S
C535 H557 0.950 . S
C536 H532 0.949 . S
C536 C544 1.574 1_565 S
C536 C552 1.368 . S
H537 C545 0.950 . S
H538 C543 0.950 . S
H539 C544 0.949 . S
H540 C546 0.950 . S
H541 C547 0.950 . S
H542 C548 0.949 . S
C543 H538 0.950 . S
C543 C545 1.327 . S
C543 C549 1.429 . S
C544 C536 1.574 1_545 S
C544 H539 0.949 . S
C544 C550 1.368 . S
C545 C529 1.349 . S
C545 H537 0.950 . S
C545 C543 1.327 . S
C546 C534 1.349 . S
C546 H540 0.950 . S
C546 C547 1.327 . S
C547 H541 0.950 . S
C547 C546 1.327 . S
C547 C551 1.429 . S
C548 C531 1.574 . S
C548 H542 0.949 . S
C548 C552 1.368 1_545 S
C549 C530 1.429 . S
C549 C543 1.429 . S
C549 C550 1.523 . S
C550 C531 1.368 . S
C550 C544 1.368 . S
C550 C549 1.523 . S
C551 C535 1.429 . S
C551 C547 1.429 . S
C551 C552 1.523 . S
C552 C536 1.368 . S
C552 C548 1.368 1_565 S
C552 C551 1.523 . S
H553 C528 0.950 . S
H554 C530 0.950 . S
H555 C531 0.949 . S
H556 C533 0.950 . S
H557 C535 0.950 . S
C558 C559 1.349 . S
C558 C560 1.327 . S
C558 H583 0.950 . S
C559 C558 1.349 . S
C559 C575 1.349 . S
C560 C558 1.327 . S
C560 C579 1.429 . S
C560 H584 0.950 . S
C561 C578 1.574 . S
C561 C580 1.368 . S
C561 H585 0.949 . S
H562 C566 0.949 . S
C563 C564 1.349 . S
C563 C565 1.327 . S
C563 H586 0.950 . S
C564 C563 1.349 . S
C564 C576 1.349 . S
C565 C563 1.327 . S
C565 C581 1.429 . S
C565 H587 0.950 . S
C566 H562 0.949 . S
C566 C574 1.574 . S
C566 C582 1.368 . S
H567 C575 0.950 . S
H568 C573 0.950 . S
H569 C574 0.949 . S
H570 C576 0.950 . S
H571 C577 0.950 . S
H572 C578 0.949 . S
C573 H568 0.950 . S
C573 C575 1.327 . S
C573 C579 1.429 . S
C574 C566 1.574 . S
C574 H569 0.949 . S
C574 C580 1.368 . S
C575 C559 1.349 . S
C575 H567 0.950 . S
C575 C573 1.327 . S
C576 C564 1.349 . S
C576 H570 0.950 . S
C576 C577 1.327 . S
C577 H571 0.950 . S
C577 C576 1.327 . S
C577 C581 1.429 . S
C578 C561 1.574 . S
C578 H572 0.949 . S
C578 C582 1.368 . S
C579 C560 1.429 . S
C579 C573 1.429 . S
C579 C580 1.523 . S
C580 C561 1.368 . S
C580 C574 1.368 . S
C580 C579 1.523 . S
C581 C565 1.429 . S
C581 C577 1.429 . S
C581 C582 1.523 . S
C582 C566 1.368 . S
C582 C578 1.368 . S
C582 C581 1.523 . S
H583 C558 0.950 . S
H584 C560 0.950 . S
H585 C561 0.949 . S
H586 C563 0.950 . S
H587 C565 0.950 . S
C588 C589 1.349 . S
C588 C590 1.327 . S
C588 H613 0.950 . S
C589 C588 1.349 . S
C589 C605 1.349 . S
C590 C588 1.327 . S
C590 C609 1.429 . S
C590 H614 0.950 . S
C591 C608 1.580 . S
C591 C610 1.368 . S
C591 H615 0.949 . S
H592 C596 0.949 . S
C593 C594 1.349 . S
C593 C595 1.327 . S
C593 H616 0.950 . S
C594 C593 1.349 . S
C594 C606 1.349 . S
C595 C593 1.327 . S
C595 C611 1.429 . S
C595 H617 0.950 . S
C596 H592 0.949 . S
C596 C604 1.574 . S
C596 C612 1.368 1_655 S
H597 C605 0.950 . S
H598 C603 0.950 . S
H599 C604 0.949 . S
H600 C606 0.950 . S
H601 C607 0.950 . S
H602 C608 0.939 1_455 S
C603 H598 0.950 . S
C603 C605 1.327 . S
C603 C609 1.429 . S
C604 C596 1.574 . S
C604 H599 0.949 . S
C604 C610 1.368 . S
C605 C589 1.349 . S
C605 H597 0.950 . S
C605 C603 1.327 . S
C606 C594 1.349 . S
C606 H600 0.950 . S
C606 C607 1.327 . S
C607 H601 0.950 . S
C607 C606 1.327 . S
C607 C611 1.429 . S
C608 C591 1.580 . S
C608 H602 0.939 1_655 S
C608 C612 1.373 1_655 S
C609 C590 1.429 . S
C609 C603 1.429 . S
C609 C610 1.523 . S
C610 C591 1.368 . S
C610 C604 1.368 . S
C610 C609 1.523 . S
C611 C595 1.429 . S
C611 C607 1.429 . S
C611 C612 1.523 . S
C612 C596 1.368 1_455 S
C612 C608 1.373 1_455 S
C612 C611 1.523 . S
H613 C588 0.950 . S
H614 C590 0.950 . S
H615 C591 0.949 . S
H616 C593 0.950 . S
H617 C595 0.950 . S
C618 C619 1.349 . S
C618 C620 1.327 . S
C618 H643 0.950 . S
C619 C618 1.349 . S
C619 C635 1.349 . S
C620 C618 1.327 . S
C620 C639 1.429 . S
C620 H644 0.950 . S
C621 C638 1.574 . S
C621 C640 1.368 1_565 S
C621 H645 0.949 . S
H622 C626 0.949 . S
C623 C624 1.349 . S
C623 C625 1.327 . S
C623 H646 0.950 . S
C624 C623 1.349 . S
C624 C636 1.349 . S
C625 C623 1.327 . S
C625 C641 1.429 . S
C625 H647 0.950 . S
C626 H622 0.949 . S
C626 C634 1.574 . S
C626 C642 1.368 1_545 S
H627 C635 0.950 . S
H628 C633 0.950 1_565 S
H629 C634 0.949 . S
H630 C636 0.950 . S
H631 C637 0.950 . S
H632 C638 0.949 . S
C633 H628 0.950 1_545 S
C633 C635 1.327 . S
C633 C639 1.429 . S
C634 C626 1.574 . S
C634 H629 0.949 . S
C634 C640 1.368 . S
C635 C619 1.349 . S
C635 H627 0.950 . S
C635 C633 1.327 . S
C636 C624 1.349 . S
C636 H630 0.950 . S
C636 C637 1.327 . S
C637 H631 0.950 . S
C637 C636 1.327 . S
C637 C641 1.429 . S
C638 C621 1.574 . S
C638 H632 0.949 . S
C638 C642 1.368 . S
C639 C620 1.429 . S
C639 C633 1.429 . S
C639 C640 1.523 . S
C640 C621 1.368 1_545 S
C640 C634 1.368 . S
C640 C639 1.523 . S
C641 C625 1.429 . S
C641 C637 1.429 . S
C641 C642 1.523 . S
C642 C626 1.368 1_565 S
C642 C638 1.368 . S
C642 C641 1.523 . S
H643 C618 0.950 . S
H644 C620 0.950 . S
H645 C621 0.949 . S
H646 C623 0.950 . S
H647 C625 0.950 . S
C199 C18 1.611 . S
C204 C117 1.611 . S
C229 C51 1.611 . S
C234 C150 1.611 . S
C259 C183 1.611 . S
C264 C84 1.611 . S
C289 C87 0.825 . S
C294 C186 0.825 . S
C319 C120 0.831 . S
C324 C21 0.831 . S
C349 C153 0.825 . S
C354 C54 0.825 . S
C379 C7 0.470 . S
C384 C106 0.470 . S
C409 C139 0.470 . S
C414 C40 0.470 . S
C439 C172 0.470 . S
C444 C73 0.470 . S
C469 N13 1.666 . S
C474 N167 1.766 . S
C499 N2 1.766 . S
C504 N46 1.666 . S
C529 N35 1.766 . S
C534 N79 1.666 . S
C559 N68 1.766 . S
C564 N112 1.666 . S
C589 N101 1.766 . S
C594 N145 1.666 . S
C619 N178 1.666 . S
C624 N134 1.766 . S
