# Generated by pormake.
# Topology ecn, (8)-cn, num edge types: 1
# Building blocks:
#     Node 0, Type 0, BuildingBlock: TAGTUT_clean_sbu_3, # of connection points: 8
#     Node 1, Type 0, BuildingBlock: TAGTUT_clean_sbu_3, # of connection points: 8
#     Node 2, Type 0, BuildingBlock: TAGTUT_clean_sbu_3, # of connection points: 8
#     Node 3, Type 0, BuildingBlock: TAGTUT_clean_sbu_3, # of connection points: 8
#     Node 4, Type 0, BuildingBlock: TAGTUT_clean_sbu_3, # of connection points: 8
#     Node 5, Type 0, BuildingBlock: TAGTUT_clean_sbu_3, # of connection points: 8
#     Node 6, Type 0, BuildingBlock: TAGTUT_clean_sbu_3, # of connection points: 8
#     Node 7, Type 0, BuildingBlock: TAGTUT_clean_sbu_3, # of connection points: 8
#     Node 8, Type 0, BuildingBlock: TAGTUT_clean_sbu_3, # of connection points: 8
#     Edge 9, Type (0, 0), BuildingBlock: CIFDUS_clean_linker_0, # of connection points: 2
#     Edge 10, Type (0, 0), BuildingBlock: CIFDUS_clean_linker_0, # of connection points: 2
#     Edge 11, Type (0, 0), BuildingBlock: CIFDUS_clean_linker_0, # of connection points: 2
#     Edge 12, Type (0, 0), BuildingBlock: CIFDUS_clean_linker_0, # of connection points: 2
#     Edge 13, Type (0, 0), BuildingBlock: CIFDUS_clean_linker_0, # of connection points: 2
#     Edge 14, Type (0, 0), BuildingBlock: CIFDUS_clean_linker_0, # of connection points: 2
#     Edge 15, Type (0, 0), BuildingBlock: CIFDUS_clean_linker_0, # of connection points: 2
#     Edge 16, Type (0, 0), BuildingBlock: CIFDUS_clean_linker_0, # of connection points: 2
#     Edge 17, Type (0, 0), BuildingBlock: CIFDUS_clean_linker_0, # of connection points: 2
#     Edge 18, Type (0, 0), BuildingBlock: CIFDUS_clean_linker_0, # of connection points: 2
#     Edge 19, Type (0, 0), BuildingBlock: CIFDUS_clean_linker_0, # of connection points: 2
#     Edge 20, Type (0, 0), BuildingBlock: CIFDUS_clean_linker_0, # of connection points: 2
#     Edge 21, Type (0, 0), BuildingBlock: CIFDUS_clean_linker_0, # of connection points: 2
#     Edge 22, Type (0, 0), BuildingBlock: CIFDUS_clean_linker_0, # of connection points: 2
#     Edge 23, Type (0, 0), BuildingBlock: CIFDUS_clean_linker_0, # of connection points: 2
#     Edge 24, Type (0, 0), BuildingBlock: CIFDUS_clean_linker_0, # of connection points: 2
#     Edge 25, Type (0, 0), BuildingBlock: CIFDUS_clean_linker_0, # of connection points: 2
#     Edge 26, Type (0, 0), BuildingBlock: CIFDUS_clean_linker_0, # of connection points: 2
#     Edge 27, Type (0, 0), BuildingBlock: CIFDUS_clean_linker_0, # of connection points: 2
#     Edge 28, Type (0, 0), BuildingBlock: CIFDUS_clean_linker_0, # of connection points: 2
#     Edge 29, Type (0, 0), BuildingBlock: CIFDUS_clean_linker_0, # of connection points: 2
#     Edge 30, Type (0, 0), BuildingBlock: CIFDUS_clean_linker_0, # of connection points: 2
#     Edge 31, Type (0, 0), BuildingBlock: CIFDUS_clean_linker_0, # of connection points: 2
#     Edge 32, Type (0, 0), BuildingBlock: CIFDUS_clean_linker_0, # of connection points: 2
#     Edge 33, Type (0, 0), BuildingBlock: CIFDUS_clean_linker_0, # of connection points: 2
#     Edge 34, Type (0, 0), BuildingBlock: CIFDUS_clean_linker_0, # of connection points: 2
#     Edge 35, Type (0, 0), BuildingBlock: CIFDUS_clean_linker_0, # of connection points: 2
#     Edge 36, Type (0, 0), BuildingBlock: CIFDUS_clean_linker_0, # of connection points: 2
#     Edge 37, Type (0, 0), BuildingBlock: CIFDUS_clean_linker_0, # of connection points: 2
#     Edge 38, Type (0, 0), BuildingBlock: CIFDUS_clean_linker_0, # of connection points: 2
#     Edge 39, Type (0, 0), BuildingBlock: CIFDUS_clean_linker_0, # of connection points: 2
#     Edge 40, Type (0, 0), BuildingBlock: CIFDUS_clean_linker_0, # of connection points: 2
#     Edge 41, Type (0, 0), BuildingBlock: CIFDUS_clean_linker_0, # of connection points: 2
#     Edge 42, Type (0, 0), BuildingBlock: CIFDUS_clean_linker_0, # of connection points: 2
#     Edge 43, Type (0, 0), BuildingBlock: CIFDUS_clean_linker_0, # of connection points: 2
#     Edge 44, Type (0, 0), BuildingBlock: CIFDUS_clean_linker_0, # of connection points: 2
# Relax obj value: 0.153
# Max RMSD: 0.272
# Mean RMSD: 0.272
data_MOF--net-ecn--node1-TAGTUT_clean_sbu_3--edge1-CIFDUS_clean_linker_0
_symmetry_space_group_name_H-M    P1
_symmetry_Int_Tables_number       1
_symmetry_cell_setting            triclinic
loop_
_symmetry_equiv_pos_as_xyz
'x, y, z'
_cell_length_a     45.563773
_cell_length_b     45.374791
_cell_length_c     13.150729
_cell_angle_alpha  89.931075
_cell_angle_beta   90.214586
_cell_angle_gamma 120.41336
loop_
_atom_site_label
_atom_site_type_symbol
_atom_site_fract_x
_atom_site_fract_y
_atom_site_fract_z
_atom_type_partial_charge
C0 C 0.11724 0.28136 0.04605 0.0
C1 C 0.98544 0.20721 0.06199 0.0
C2 C 0.00947 0.12777 0.97145 0.0
Mg3 Mg 0.1761 0.2656 0.97401 0.0
Mg4 Mg 0.16488 0.21125 0.78763 0.0
O5 O 0.14901 0.21933 0.91024 0.0
Mg6 Mg 0.10273 0.21443 0.92528 0.0
O7 O 0.05887 0.21378 0.95373 0.0
Mg8 Mg 0.05656 0.20228 0.10013 0.0
Mg9 Mg 0.01932 0.19452 0.87637 0.0
C10 C 0.09684 0.14525 0.83451 0.0
O11 O 0.09785 0.22818 0.76402 0.0
O12 O 0.22297 0.25871 0.96078 0.0
O13 O 0.04353 0.21426 0.72982 0.0
O14 O 0.19018 0.29148 0.81899 0.0
O15 O 0.21295 0.21837 0.84374 0.0
O16 O 0.178 0.25463 0.6912 0.0
O17 O 0.10552 0.20141 0.0835 0.0
O18 O 0.1593 0.23819 0.1273 0.0
C19 C 0.12906 0.21463 0.15013 0.0
C20 C 0.23211 0.2404 0.91053 0.0
O21 O 0.08062 0.15797 0.8785 0.0
O22 O 1.0077 0.20528 0.11665 0.0
O23 O 0.1185 0.16195 0.76404 0.0
O24 O 0.02453 0.14269 0.05535 0.0
O25 O 0.98576 0.20577 0.96458 0.0
O26 O 1.00534 0.14371 0.89827 0.0
O27 O 0.12677 0.26794 0.97775 0.0
O28 O 0.09138 0.26272 0.10392 0.0
C29 C 0.18907 0.2849 0.72432 0.0
C30 C 0.07483 0.2266 0.70438 0.0
C31 C 0.72533 0.84086 0.10232 0.0
C32 C 0.79787 0.77855 0.12053 0.0
C33 C 0.8794 0.88259 0.05951 0.0
Mg34 Mg 0.751 0.9223 0.03812 0.0
Mg35 Mg 0.80329 0.95476 0.83983 0.0
O36 O 0.79501 0.93511 0.97095 0.0
Mg37 Mg 0.79425 0.89104 -0.00992 0.0
O38 O 0.79145 0.84589 0.01889 0.0
Mg39 Mg 0.80195 0.85405 0.16733 0.0
Mg40 Mg 0.81521 0.83028 0.9433 0.0
C41 C 0.86714 0.94635 0.88643 0.0
O42 O 0.78011 0.87312 0.82915 0.0
O43 O 0.76758 0.98016 0.02039 0.0
O44 O 0.79764 0.83566 0.79422 0.0
O45 O 0.72485 0.91236 0.88584 0.0
O46 O 0.80351 1.00035 0.88659 0.0
O47 O 0.75719 0.92615 0.74771 0.0
O48 O 0.80777 0.90622 0.14832 0.0
O49 O 0.77795 0.93072 0.19117 0.0
C50 C 0.79823 0.92001 0.2142 0.0
C51 C 0.78714 1.00435 0.95902 0.0
O52 O 0.84962 0.92081 0.94503 0.0
O53 O 0.79643 0.80027 0.17968 0.0
O54 O 0.85347 0.95892 0.82775 0.0
O55 O 0.8617 0.87908 0.13967 0.0
O56 O 0.8033 0.784 0.02478 0.0
O57 O 0.86575 0.86719 0.97662 0.0
O58 O 0.74089 0.86613 0.04111 0.0
O59 O 0.74219 0.83179 0.16163 0.0
C60 C 0.72792 0.91329 0.78948 0.0
C61 C 0.78365 0.85309 0.76875 0.0
C62 C 0.17489 0.90205 0.11726 0.0
C63 C 0.2279 0.03426 0.13687 0.0
C64 C 0.1245 1.00893 0.09085 0.0
Mg65 Mg 0.09783 0.83975 0.05538 0.0
Mg66 Mg 0.05612 0.85055 0.86569 0.0
O67 O 0.07753 0.86563 -0.00665 0.0
Mg68 Mg 0.11801 0.91292 0.0103 0.0
O69 O 0.16014 0.95863 0.03819 0.0
Mg70 Mg 0.15519 0.96007 0.18804 0.0
Mg71 Mg 0.17452 0.99806 0.96346 0.0
C72 C 0.05592 0.91982 0.90393 0.0
O73 O 0.13558 0.91892 0.8493 0.0
O74 O 0.04399 0.79107 0.04005 0.0
O75 O 0.1696 0.97522 0.81467 0.0
O76 O 0.10995 0.82687 0.90043 0.0
O77 O 0.01581 0.80053 0.91485 0.0
O78 O 0.08891 0.84099 0.76834 0.0
O79 O 0.10406 0.90995 0.16978 0.0
O80 O 0.08681 0.85573 0.20939 0.0
C81 C 0.09296 0.88568 0.2339 0.0
C82 C 0.0174 0.78136 -0.01612 0.0
O83 O 0.0815 0.93154 0.96504 0.0
O84 O 0.20755 0.01056 0.19753 0.0
O85 O 0.04562 0.89247 0.85064 0.0
O86 O 0.1286 0.99376 0.16804 0.0
O87 O 0.22123 0.03382 0.04179 0.0
O88 O 0.13783 0.01065 0.00446 0.0
O89 O 0.14935 0.89084 0.05709 0.0
O90 O 0.18203 0.92701 0.17878 0.0
C91 C 0.10667 0.82885 0.8047 0.0
C92 C 0.15426 0.94351 0.7893 0.0
C93 C 0.77751 0.61689 0.42677 0.0
C94 C 0.64902 0.53801 0.47442 0.0
C95 C 0.67246 0.45765 0.45218 0.0
Mg96 Mg 0.84054 0.60401 0.37134 0.0
Mg97 Mg 0.82944 0.54237 0.21269 0.0
O98 O 0.81529 0.55486 0.33059 0.0
Mg99 Mg 0.76766 0.54541 0.34905 0.0
O100 O 0.72189 0.54051 0.37571 0.0
Mg101 Mg 0.72325 0.54085 0.52548 0.0
Mg102 Mg 0.6809 0.51499 0.30826 0.0
C103 C 0.76316 0.47289 0.28003 0.0
O104 O 0.75659 0.54636 0.18433 0.0
O105 O 0.88971 0.60033 0.36623 0.0
O106 O 0.70065 0.52661 0.15512 0.0
O107 O 0.85144 0.62235 0.20694 0.0
O108 O 0.87935 0.55563 0.26698 0.0
O109 O 0.84037 0.58069 0.09632 0.0
O110 O 0.77476 0.54347 0.51271 0.0
O111 O 0.82903 0.58457 0.53452 0.0
C112 C 0.8005 0.56131 0.56964 0.0
C113 C 0.89909 0.58072 0.32475 0.0
O114 O 0.75151 0.48854 0.33294 0.0
O115 O 0.67285 0.54138 0.53377 0.0
O116 O 0.7891 0.48837 0.22077 0.0
O117 O 0.69082 0.47916 0.52246 0.0
O118 O 0.6482 0.53044 0.38019 0.0
O119 O 0.66729 0.46687 0.36564 0.0
O120 O 0.78796 0.6014 0.36883 0.0
O121 O 0.75431 0.6004 0.49431 0.0
C122 C 0.85053 0.61201 0.11624 0.0
C123 C 0.7314 0.53863 0.12494 0.0
C124 C 0.39965 0.17588 0.40064 0.0
C125 C 0.47467 0.11848 0.42582 0.0
C126 C 0.55382 0.2224 0.34528 0.0
Mg127 Mg 0.41989 0.25438 0.33126 0.0
Mg128 Mg 0.47504 0.29439 0.14282 0.0
O129 O 0.46508 0.27052 0.26703 0.0
Mg130 Mg 0.46795 0.22839 0.2855 0.0
O131 O 0.46724 0.18443 0.31603 0.0
Mg132 Mg 0.47817 0.19402 0.46334 0.0
Mg133 Mg 0.48865 0.16614 0.24102 0.0
C134 C 0.53945 0.29149 0.20132 0.0
O135 O 0.45525 0.21004 0.12374 0.0
O136 O 0.43435 0.31159 0.32332 0.0
O137 O 0.4704 0.17051 0.09171 0.0
O138 O 0.3945 0.2447 0.17394 0.0
O139 O 0.47251 0.33764 0.1974 0.0
O140 O 0.43139 0.26546 0.04506 0.0
O141 O 0.48062 0.24433 0.4439 0.0
O142 O 0.44556 0.26277 0.48655 0.0
C143 C 0.46828 0.25534 0.51002 0.0
C144 C 0.45422 0.33814 0.27018 0.0
O145 O 0.52486 0.26199 0.24402 0.0
O146 O 0.4746 0.14173 0.48065 0.0
O147 O 0.5245 0.29787 0.12861 0.0
O148 O 0.53785 0.22124 0.42744 0.0
O149 O 0.478 0.12126 0.32886 0.0
O150 O 0.53886 0.20368 0.26844 0.0
O151 O 0.41338 0.19962 0.33338 0.0
O152 O 0.41815 0.16938 0.46149 0.0
C153 C 0.40099 0.24869 0.07886 0.0
C154 C 0.45775 0.18903 0.06472 0.0
C155 C 0.85626 0.23306 0.40945 0.0
C156 C 0.90759 0.3666 0.46801 0.0
C157 C 0.80061 0.33491 0.43985 0.0
Mg158 Mg 0.77672 0.17081 0.35926 0.0
Mg159 Mg 0.72905 0.18589 0.20023 0.0
O160 O 0.75581 0.19859 0.3192 0.0
Mg161 Mg 0.79687 0.2455 0.33741 0.0
O162 O 0.84015 0.29074 0.36339 0.0
Mg163 Mg 0.83767 0.28892 0.51358 0.0
Mg164 Mg 0.85278 0.33187 0.29931 0.0
C165 C 0.73227 0.25479 0.27252 0.0
O166 O 0.80852 0.25665 0.17233 0.0
O167 O 0.72166 0.1229 0.35223 0.0
O168 O 0.84537 0.31294 0.14495 0.0
O169 O 0.78311 0.16061 0.19528 0.0
O170 O 0.68972 0.13607 0.25212 0.0
O171 O 0.75556 0.17455 0.08257 0.0
O172 O 0.78834 0.23775 0.50031 0.0
O173 O 0.77022 0.18237 0.52313 0.0
C174 C 0.77869 0.21188 0.55792 0.0
C175 C 0.69308 0.11511 0.30966 0.0
O176 O 0.75974 0.26479 0.3238 0.0
O177 O 0.88857 0.34092 0.52466 0.0
O178 O 0.71966 0.22886 0.21183 0.0
O179 O 0.80683 0.31941 0.51209 0.0
O180 O 0.89993 0.36791 0.37484 0.0
O181 O 0.81476 0.34037 0.35316 0.0
O182 O 0.82904 0.22246 0.35667 0.0
O183 O 0.86533 0.25722 0.47629 0.0
C184 C 0.77513 0.1628 0.10373 0.0
C185 C 0.82626 0.28211 0.1137 0.0
C186 C 0.44809 0.96004 0.75784 0.0
C187 C 0.3146 0.88123 0.81137 0.0
C188 C 0.33772 0.80083 0.78861 0.0
Mg189 Mg 0.50701 0.93954 0.70242 0.0
Mg190 Mg 0.48842 0.87839 0.53186 0.0
O191 O 0.47688 0.89192 0.65319 0.0
Mg192 Mg 0.43128 0.88736 0.67444 0.0
O193 O 0.38714 0.88603 0.70494 0.0
Mg194 Mg 0.38962 0.88468 0.85591 0.0
Mg195 Mg 0.34554 0.85728 0.64314 0.0
C196 C 0.41954 0.81301 0.60237 0.0
O197 O 0.41989 0.89018 0.50923 0.0
O198 O 0.55065 0.92656 0.69971 0.0
O199 O 0.36309 0.867 0.4873 0.0
O200 O 0.52172 0.95977 0.54066 0.0
O201 O 0.53539 0.88378 0.58649 0.0
O202 O 0.50512 0.91948 0.42124 0.0
O203 O 0.4383 0.88311 0.83781 0.0
O204 O 0.49317 0.9197 0.86372 0.0
C205 C 0.46367 0.89846 0.89745 0.0
C206 C 0.55614 0.90504 0.65192 0.0
O207 O 0.41026 0.83063 0.6552 0.0
O208 O 0.33985 0.88683 0.8682 0.0
O209 O 0.44396 0.82636 0.53713 0.0
O210 O 0.35552 0.8231 0.8575 0.0
O211 O 0.31239 0.87161 0.71856 0.0
O212 O 0.33308 0.80929 0.70034 0.0
O213 O 0.45721 0.94353 0.69931 0.0
O214 O 0.42406 0.94431 0.82414 0.0
C215 C 0.51986 0.9509 0.44785 0.0
C216 C 0.39359 0.88091 0.4529 0.0
C217 C 0.06908 0.51089 0.77049 0.0
C218 C 0.13798 0.44977 0.80261 0.0
C219 C 0.22328 0.55371 0.73259 0.0
Mg220 Mg 0.09141 0.59081 0.70972 0.0
Mg221 Mg 0.14404 0.62841 0.51486 0.0
O222 O 0.13605 0.60605 0.64211 0.0
Mg223 Mg 0.13872 0.56341 0.66113 0.0
O224 O 0.13752 0.51913 0.69172 0.0
Mg225 Mg 0.14624 0.52716 0.84041 0.0
Mg226 Mg 0.15856 0.49971 0.61942 0.0
C227 C 0.2083 0.62485 0.57078 0.0
O228 O 0.126 0.54503 0.49997 0.0
O229 O 0.10656 0.64814 0.70146 0.0
O230 O 0.14126 0.50545 0.46917 0.0
O231 O 0.06471 0.58224 0.55621 0.0
O232 O 0.14158 0.67235 0.56725 0.0
O233 O 0.09914 0.5993 0.42177 0.0
O234 O 0.15148 0.57877 0.82013 0.0
O235 O 0.11774 0.59864 0.86376 0.0
C236 C 0.13994 0.59044 0.88658 0.0
C237 C 0.12507 0.6739 0.64371 0.0
O238 O 0.19577 0.59641 0.619 0.0
O239 O 0.1389 0.47352 0.85707 0.0
O240 O 0.19156 0.62765 0.49589 0.0
O241 O 0.20612 0.55218 0.81232 0.0
O242 O 0.14351 0.45299 0.7065 0.0
O243 O 0.20923 0.53611 0.65298 0.0
O244 O 0.08392 0.53566 0.70723 0.0
O245 O 0.08658 0.50387 0.83354 0.0
C246 C 0.0694 0.58495 0.46032 0.0
C247 C 0.12866 0.52399 0.44149 0.0
C248 C 0.51373 0.57083 0.7581 0.0
C249 C 0.5658 0.70343 0.7821 0.0
C250 C 0.46056 0.67271 0.70444 0.0
Mg251 Mg 0.43764 0.5092 0.68834 0.0
Mg252 Mg 0.39773 0.52241 0.49713 0.0
O253 O 0.41778 0.53559 0.62696 0.0
Mg254 Mg 0.45828 0.58222 0.64535 0.0
O255 O 0.5009 0.6274 0.67466 0.0
Mg256 Mg 0.4926 0.62832 0.82243 0.0
Mg257 Mg 0.51777 0.66715 0.59869 0.0
C258 C 0.39598 0.58984 0.54225 0.0
O259 O 0.47648 0.58857 0.48371 0.0
O260 O 0.38387 0.46127 0.66903 0.0
O261 O 0.51417 0.64421 0.45037 0.0
O262 O 0.4497 0.49706 0.53249 0.0
O263 O 0.3574 0.47276 0.54273 0.0
O264 O 0.4303 0.51264 0.39975 0.0
O265 O 0.4431 0.57798 0.804 0.0
O266 O 0.42653 0.52405 0.84418 0.0
C267 C 0.43274 0.55398 0.8689 0.0
C268 C 0.358 0.45286 0.61084 0.0
O269 O 0.42191 0.60117 0.60173 0.0
O270 O 0.54359 0.67938 0.83798 0.0
O271 O 0.38601 0.56339 0.48523 0.0
O272 O 0.46299 0.65839 0.78657 0.0
O273 O 0.56234 0.70343 0.68521 0.0
O274 O 0.4789 0.67736 0.62656 0.0
O275 O 0.48913 0.56014 0.69442 0.0
O276 O 0.5205 0.59585 0.81944 0.0
C277 C 0.44702 0.49944 0.43667 0.0
C278 C 0.49679 0.61258 0.42431 0.0
H279 H 0.25449 0.19469 0.90872 0.0
H280 H 0.28813 0.30172 0.94441 0.0
H281 H 0.34601 0.31439 0.97773 0.0
H282 H 0.38542 0.29447 0.01668 0.0
H283 H 0.35157 0.18728 0.00256 0.0
H284 H 0.29575 0.175 0.93847 0.0
C285 C 0.27466 0.22075 0.92283 0.0
C286 C 0.26709 0.24719 0.92555 0.0
C287 C 0.30786 0.22775 0.94504 0.0
C288 C 0.2933 0.28089 0.94396 0.0
C289 C 0.32643 0.28819 0.96229 0.0
C290 C 0.36614 0.26862 -0.00423 0.0
C291 C 0.37246 0.24182 0.01193 0.0
C292 C 0.33381 0.26178 0.96536 0.0
C293 C 0.34718 0.20823 -0.0114 0.0
C294 C 0.31524 0.20127 0.95325 0.0
H295 H 0.8269 0.15053 0.10772 0.0
H296 H 0.73703 0.12804 0.93664 0.0
H297 H 0.73405 0.07637 0.86847 0.0
H298 H 0.75063 0.03205 0.88602 0.0
H299 H 0.83826 0.05392 0.06771 0.0
H300 H 0.8483 0.11114 0.10516 0.0
C301 C 0.80746 0.13509 0.0522 0.0
C302 C 0.78193 0.14279 0.02864 0.0
C303 C 0.80472 0.10453 0.01887 0.0
C304 C 0.75699 0.12268 0.95622 0.0
C305 C 0.75487 0.09272 0.91893 0.0
C306 C 0.77195 0.0496 0.93322 0.0
C307 C 0.79327 0.03892 0.97658 0.0
C308 C 0.77738 0.08238 0.95477 0.0
C309 C 0.82127 0.06169 0.03574 0.0
C310 C 0.8271 0.09436 0.05641 0.0
H311 H 0.94958 0.75752 0.95157 0.0
H312 H 0.02059 0.72559 0.03978 0.0
H313 H 0.97388 0.6671 0.06174 0.0
H314 H 0.91306 0.62666 0.07546 0.0
H315 H 0.84113 0.65932 0.014 0.0
H316 H 0.88755 0.7154 0.95797 0.0
C317 C 0.95474 0.73764 0.97482 0.0
C318 C 0.98849 0.74596 -0.00487 0.0
C319 C 0.92751 0.70407 -0.00958 0.0
C320 C 0.99484 0.71999 0.02543 0.0
C321 C 0.96816 0.68646 0.03714 0.0
C322 C 0.90749 0.64561 0.04532 0.0
C323 C 0.8738 0.63878 0.04591 0.0
C324 C 0.93442 0.67836 0.02177 0.0
C325 C 0.86685 0.6639 0.01153 0.0
C326 C 0.89347 0.69608 0.98136 0.0
H327 H 0.77983 0.7538 0.31493 0.0
H328 H 0.81256 0.7338 0.02827 0.0
H329 H 0.81295 0.68492 0.10249 0.0
H330 H 0.8029 0.64704 0.2451 0.0
H331 H 0.76615 0.66312 0.52977 0.0
H332 H 0.76944 0.71495 0.46046 0.0
C333 C 0.78697 0.7387 0.26855 0.0
C334 C 0.79599 0.74755 0.16566 0.0
C335 C 0.78697 0.71022 0.31165 0.0
C336 C 0.80519 0.72759 0.10711 0.0
C337 C 0.8057 0.6997 0.14973 0.0
C338 C 0.79608 0.66204 0.29323 0.0
C339 C 0.78453 0.65119 0.39321 0.0
C340 C 0.79664 0.69079 0.25165 0.0
C341 C 0.77536 0.67093 0.45299 0.0
C342 C 0.77698 0.70042 0.41301 0.0
H343 H 0.26134 0.03883 0.31563 0.0
H344 H 0.26328 0.09793 0.05534 0.0
H345 H 0.31273 0.14828 0.12506 0.0
H346 H 0.3579 0.1746 0.25061 0.0
H347 H 0.36019 0.11557 0.50522 0.0
H348 H 0.30626 0.06656 0.44806 0.0
C349 C 0.27269 0.06274 0.27405 0.0
C350 C 0.25879 0.06436 0.17945 0.0
C351 C 0.30185 0.09172 0.31356 0.0
C352 C 0.27373 0.09563 0.12705 0.0
C353 C 0.30198 0.12458 0.16711 0.0
C354 C 0.34655 0.15129 0.29515 0.0
C355 C 0.36349 0.14894 0.38213 0.0
C356 C 0.31656 0.12281 0.25926 0.0
C357 C 0.34791 0.11831 0.43815 0.0
C358 C 0.3172 0.0901 0.40478 0.0
H359 H 0.98293 0.22246 0.26213 0.0
H360 H 0.92641 0.19862 0.9801 0.0
H361 H 0.88088 0.20188 0.06603 0.0
H362 H 0.8572 0.21151 0.21869 0.0
H363 H 0.9144 0.23995 0.49972 0.0
H364 H 0.95926 0.23371 0.41695 0.0
C365 C 0.96058 0.21782 0.21945 0.0
C366 C 0.95818 0.21021 0.11438 0.0
C367 C 0.93438 0.21989 0.26951 0.0
C368 C 0.92911 0.2046 0.06053 0.0
C369 C 0.90288 0.20617 0.10993 0.0
C370 C 0.87914 0.21588 0.26319 0.0
C371 C 0.88207 0.2257 0.36639 0.0
C372 C 0.9052 0.21364 0.21422 0.0
C373 C 0.91126 0.23201 0.42087 0.0
C374 C 0.93697 0.22865 0.37324 0.0
H375 H 0.92466 0.53874 0.28731 0.0
H376 H 0.95274 0.6391 0.40022 0.0
H377 H 0.01027 0.65093 0.4341 0.0
H378 H 0.05089 0.63113 0.44689 0.0
H379 H 0.0229 0.52985 0.34799 0.0
H380 H 0.96718 0.52009 0.29063 0.0
C381 C 0.94343 0.56329 0.31867 0.0
C382 C 0.93421 0.58785 0.34238 0.0
C383 C 0.9765 0.56979 0.33944 0.0
C384 C 0.9589 0.61953 0.38275 0.0
C385 C 0.99191 0.62643 0.40158 0.0
C386 C 0.03288 0.60734 0.40968 0.0
C387 C 0.04078 0.58137 0.39973 0.0
C388 C 1.00075 0.60159 0.38187 0.0
C389 C 0.01728 0.55027 0.35442 0.0
C390 C 0.98541 0.54466 0.32296 0.0
H391 H 0.48368 0.47103 0.49561 0.0
H392 H 0.43123 0.48061 0.23496 0.0
H393 H 0.43185 0.43231 0.15355 0.0
H394 H 0.43894 0.38144 0.17063 0.0
H395 H 0.48403 0.36922 0.4444 0.0
H396 H 0.4941 0.42415 0.50794 0.0
C397 C 0.47295 0.46317 0.41992 0.0
C398 C 0.4569 0.47911 0.37231 0.0
C399 C 0.47118 0.43414 0.37755 0.0
C400 C 0.44366 0.46876 0.27364 0.0
C401 C 0.44355 0.4408 0.22777 0.0
C402 C 0.45105 0.39111 0.24386 0.0
C403 C 0.46024 0.37144 0.30421 0.0
C404 C 0.45571 0.42225 0.28137 0.0
C405 C 0.4762 0.38391 0.39834 0.0
C406 C 0.48217 0.41531 0.4341 0.0
H407 H 0.5827 0.96363 0.42252 0.0
H408 H 0.51487 0.9993 0.33645 0.0
H409 H 0.5635 0.05384 0.27937 0.0
H410 H 0.62584 0.0935 0.27488 0.0
H411 H 0.69298 0.05839 0.37876 0.0
H412 H 0.64424 1.00159 0.40884 0.0
C413 C 0.57858 0.98291 0.38735 0.0
C414 C 0.5454 0.97743 0.38123 0.0
C415 C 0.60668 0.01462 0.3609 0.0
C416 C 0.54023 1.00294 0.33985 0.0
C417 C 0.56807 0.03417 0.3086 0.0
C418 C 0.62984 0.07335 0.30335 0.0
C419 C 0.66314 0.08041 0.32549 0.0
C420 C 0.60151 0.04074 0.32239 0.0
C421 C 0.66773 0.05393 0.36243 0.0
C422 C 0.63985 0.02133 0.37902 0.0
H423 H 0.45101 0.09449 0.61665 0.0
H424 H 0.49612 0.0764 0.35328 0.0
H425 H 0.49687 0.02954 0.44137 0.0
H426 H 0.48255 0.99225 0.58711 0.0
H427 H 0.43232 1.00553 0.84618 0.0
H428 H 0.43697 0.05666 0.76673 0.0
C429 C 0.46095 0.08022 0.57845 0.0
C430 C 0.47324 0.08881 0.47796 0.0
C431 C 0.46085 0.05281 0.62905 0.0
C432 C 0.48603 0.07008 0.42973 0.0
C433 C 0.48675 0.04343 0.48036 0.0
C434 C 0.47295 1.0064 0.6277 0.0
C435 C 0.45698 0.99479 0.72294 0.0
C436 C 0.47402 0.03445 0.57946 0.0
C437 C 0.44481 0.01381 0.77319 0.0
C438 C 0.44714 0.04284 0.72721 0.0
H439 H 0.03352 0.50783 0.6006 0.0
H440 H 0.02671 0.45034 0.87043 0.0
H441 H 0.97569 0.40052 0.80111 0.0
H442 H 0.93573 0.37208 0.65735 0.0
H443 H 0.94683 0.42974 0.38396 0.0
H444 H 0.99404 0.48036 0.46093 0.0
C445 C 0.02076 0.4847 0.64579 0.0
C446 C 0.03421 0.48311 0.74127 0.0
C447 C 0.9926 0.45578 0.60348 0.0
C448 C 0.01701 0.45255 0.79725 0.0
C449 C 0.98801 0.4239 0.75701 0.0
C450 C 0.94854 0.39569 0.61437 0.0
C451 C 0.9377 0.3968 0.51425 0.0
C452 C 0.97611 0.42495 0.65894 0.0
C453 C 0.95465 0.42778 0.46035 0.0
C454 C 0.98158 0.45694 0.50463 0.0
H455 H 0.51508 0.53645 0.59272 0.0
H456 H 0.57313 0.58693 0.86265 0.0
H457 H 0.62024 0.5803 0.79957 0.0
H458 H 0.64597 0.56357 0.66084 0.0
H459 H 0.5879 0.51885 0.38592 0.0
H460 H 0.5402 0.52152 0.45678 0.0
C461 C 0.53769 0.54571 0.63953 0.0
C462 C 0.54026 0.56203 0.73323 0.0
C463 C 0.56502 0.5436 0.60043 0.0
C464 C 0.57022 0.57402 0.7909 0.0
C465 C 0.59727 0.57053 0.75423 0.0
C466 C 0.62279 0.55427 0.61664 0.0
C467 C 0.62064 0.54102 0.51781 0.0
C468 C 0.59518 0.556 0.6579 0.0
C469 C 0.59047 0.52931 0.4616 0.0
C470 C 0.56295 0.53044 0.50259 0.0
H471 H 0.61419 0.92275 0.54641 0.0
H472 H 0.56111 0.87728 0.82561 0.0
H473 H 0.60712 0.86804 0.88051 0.0
H474 H 0.66368 0.87746 0.85684 0.0
H475 H 0.72201 0.93056 0.59139 0.0
H476 H 0.6721 0.93064 0.5201 0.0
C477 C 0.61301 0.91093 0.61919 0.0
C478 C 0.58487 0.90115 0.68324 0.0
C479 C 0.64012 0.90661 0.6515 0.0
C480 C 0.583 0.88551 0.77667 0.0
C481 C 0.60907 0.87998 0.80743 0.0
C482 C 0.66556 0.88875 0.78259 0.0
C483 C 0.69678 0.90458 0.73043 0.0
C484 C 0.63794 0.891 0.7464 0.0
C485 C 0.69834 0.91827 0.63334 0.0
C486 C 0.66996 0.9188 0.59341 0.0
H487 H 0.10481 0.71314 0.54361 0.0
H488 H 0.15807 0.70922 0.81011 0.0
H489 H 0.1651 0.76341 0.86989 0.0
H490 H 0.14917 0.80664 0.8587 0.0
H491 H 0.08885 0.80736 0.60595 0.0
H492 H 0.09282 0.76076 0.52554 0.0
C493 C 0.11819 0.72455 0.61411 0.0
C494 C 0.13059 0.70741 0.6736 0.0
C495 C 0.12099 0.75511 0.64981 0.0
C496 C 0.148 0.72203 0.76449 0.0
C497 C 0.15213 0.75297 0.79822 0.0
C498 C 0.13739 0.79716 0.78492 0.0
C499 C 0.11807 0.80996 0.73957 0.0
C500 C 0.13777 0.76907 0.7432 0.0
C501 C 0.10368 0.79783 0.64299 0.0
C502 C 0.10554 0.77084 0.59771 0.0
H503 H 0.24941 0.29783 0.66539 0.0
H504 H 0.18177 0.33799 0.65779 0.0
H505 H 0.22919 0.39446 0.61002 0.0
H506 H 0.29133 0.43381 0.59693 0.0
H507 H 0.35908 0.39439 0.63862 0.0
H508 H 0.3105 0.33624 0.64907 0.0
C509 C 0.24494 0.3187 0.64878 0.0
C510 C 0.21224 0.31382 0.66113 0.0
C511 C 0.27266 0.35142 0.63169 0.0
C512 C 0.20666 0.34114 0.64487 0.0
C513 C 0.23387 0.37346 0.61978 0.0
C514 C 0.29527 0.41235 0.60768 0.0
C515 C 0.3285 0.41813 0.61798 0.0
C516 C 0.26719 0.37918 0.61742 0.0
C517 C 0.3336 0.3904 0.63228 0.0
C518 C 0.30591 0.35722 0.63724 0.0
H519 H 0.07987 0.31264 0.05077 0.0
H520 H 0.18106 0.33109 -0.00344 0.0
H521 H 0.19639 0.3848 0.91114 0.0
H522 H 0.17914 0.42373 0.83617 0.0
H523 H 0.07832 0.40577 0.89186 0.0
H524 H 0.06441 0.35446 -0.00952 0.0
C525 C 0.10566 0.32911 0.02401 0.0
C526 C 0.12938 0.31804 0.03086 0.0
C527 C 0.11394 0.35943 0.97166 0.0
C528 C 0.16249 0.33929 -0.00669 0.0
C529 C 0.1711 0.36973 0.94293 0.0
C530 C 0.15408 0.40828 0.86926 0.0
C531 C 0.12937 0.41765 0.85462 0.0
C532 C 0.14665 0.37941 0.92827 0.0
C533 C 0.09736 0.39833 0.90047 0.0
C534 C 0.08955 0.36928 0.95762 0.0
H535 H 0.69173 0.84134 0.93214 0.0
H536 H 0.6802 0.78025 0.19767 0.0
H537 H 0.62869 0.73242 0.1228 0.0
H538 H 0.59032 0.70649 0.9745 0.0
H539 H 0.60698 0.76709 0.70412 0.0
H540 H 0.65401 0.81637 0.78774 0.0
C541 C 0.67785 0.81788 0.97533 0.0
C542 C 0.69011 0.81461 0.07109 0.0
C543 C 0.64966 0.79005 0.92946 0.0
C544 C 0.67144 0.78369 0.12436 0.0
C545 C 0.64218 0.75619 0.08093 0.0
C546 C 0.60421 0.7305 0.93391 0.0
C547 C 0.59519 0.73293 0.83262 0.0
C548 C 0.63168 0.75878 0.98218 0.0
C549 C 0.61354 0.76427 0.78136 0.0
C550 C 0.64027 0.7926 0.82953 0.0
H551 H 0.3103 0.90313 0.00266 0.0
H552 H 0.25324 0.86247 0.72384 0.0
H553 H 0.20429 0.86154 0.79989 0.0
H554 H 0.17785 0.87266 0.94181 0.0
H555 H 0.23461 0.91781 0.21791 0.0
H556 H 0.28313 0.91517 0.14764 0.0
C557 C 0.28717 0.89411 0.95842 0.0
C558 C 0.2857 0.88299 0.85711 0.0
C559 C 0.25881 0.89365 0.00281 0.0
C560 C 0.25541 0.87139 0.80137 0.0
C561 C 0.22718 0.87051 0.84521 0.0
C562 C 0.20047 0.88145 -0.0117 0.0
C563 C 0.20225 0.89514 0.08605 0.0
C564 C 0.22858 0.88145 0.94569 0.0
C565 C 0.2323 0.90685 0.14313 0.0
C566 C 0.26016 0.90565 0.10242 0.0
H567 H 0.16016 0.07613 0.09901 0.0
H568 H 0.05738 0.99186 0.0902 0.0
H569 H 0.03829 0.02837 0.01087 0.0
H570 H 0.05379 0.08172 0.91473 0.0
H571 H 0.15866 0.16268 0.90901 0.0
H572 H 0.17443 0.13022 0.02069 0.0
C573 C 0.13329 0.06627 0.08428 0.0
C574 C 0.11013 0.03141 0.10011 0.0
C575 C 0.12335 0.08662 0.03141 0.0
C576 C 0.07556 0.0186 0.07876 0.0
C577 C 0.06487 0.03939 0.0316 0.0
C578 C 0.07992 0.09224 0.93882 0.0
C579 C 0.10514 0.12428 0.9017 0.0
C580 C 0.08896 0.07292 0.00213 0.0
C581 C 0.13897 0.13772 0.93397 0.0
C582 C 0.14795 0.11933 -0.00101 0.0
H583 H 0.98013 0.0723 0.10181 0.0
H584 H 0.0109 0.10125 0.79047 0.0
H585 H 0.97355 0.04304 0.73416 0.0
H586 H 0.9214 0.98856 0.76812 0.0
H587 H 0.89194 0.9578 0.07886 0.0
H588 H 0.93985 0.01106 0.13989 0.0
C589 C 0.97962 0.06553 0.02252 0.0
C590 C 0.99692 0.09129 0.9501 0.0
C591 C 0.95779 0.03161 -0.01037 0.0
C592 C 0.99658 0.08201 0.84748 0.0
C593 C 0.97527 0.04867 0.81478 0.0
C594 C 0.92642 0.9929 0.84907 0.0
C595 C 0.9027 0.96974 0.91822 0.0
C596 C 0.95393 0.02384 0.8842 0.0
C597 C 0.9097 0.97539 0.02334 0.0
C598 C 0.93695 1.00615 0.05878 0.0
H599 H 0.91859 0.91471 0.89822 0.0
H600 H 0.92458 0.89666 0.21766 0.0
H601 H 0.9853 0.91606 0.1989 0.0
H602 H 0.03156 0.92461 0.08381 0.0
H603 H 0.02217 0.9355 0.7616 0.0
H604 H 0.96787 0.93314 0.78906 0.0
C605 C 0.93336 0.91584 0.96455 0.0
C606 C 0.917 0.90347 0.05883 0.0
C607 C 0.96752 0.92546 0.95195 0.0
C608 C 0.93653 0.90576 0.1443 0.0
C609 C 0.97114 0.91655 0.13318 0.0
C610 C 0.01827 0.92793 0.02019 0.0
C611 C 0.03084 0.93059 0.92078 0.0
C612 C 0.98625 0.92452 0.03624 0.0
C613 C 0.0131 0.93392 0.83858 0.0
C614 C 0.98196 0.93219 0.85437 0.0
H615 H 0.75741 0.33432 0.3016 0.0
H616 H 0.79762 0.37226 0.60048 0.0
H617 H 0.7817 0.41626 0.58259 0.0
H618 H 0.76972 0.45158 0.46457 0.0
H619 H 0.73676 0.41653 0.15823 0.0
H620 H 0.73557 0.36306 0.19642 0.0
C621 C 0.76099 0.351 0.36523 0.0
C622 C 0.77866 0.35001 0.45232 0.0
C623 C 0.75377 0.37727 0.35135 0.0
C624 C 0.78382 0.37225 0.53323 0.0
C625 C 0.77526 0.39781 0.52196 0.0
C626 C 0.76111 0.4316 0.40755 0.0
C627 C 0.75305 0.43763 0.30885 0.0
C628 C 0.76227 0.4018 0.4288 0.0
C629 C 0.74271 0.41215 0.2346 0.0
C630 C 0.74226 0.38177 0.25646 0.0
H631 H 0.60603 0.42062 0.4851 0.0
H632 H 0.69455 0.41207 0.43784 0.0
H633 H 0.65972 0.35653 0.35455 0.0
H634 H 0.60586 0.3172 0.26301 0.0
H635 H 0.51904 0.32989 0.30019 0.0
H636 H 0.55117 0.37746 0.41599 0.0
C637 C 0.61733 0.40562 0.46176 0.0
C638 C 0.65286 0.42041 0.46744 0.0
C639 C 0.59749 0.37529 0.40673 0.0
C640 C 0.66731 0.4011 0.43496 0.0
C641 C 0.64741 0.36974 0.38492 0.0
C642 C 0.59389 0.32993 0.29802 0.0
C643 C 0.56019 0.32024 0.27168 0.0
C644 C 0.61282 0.35769 0.36468 0.0
C645 C 0.5451 0.33731 0.31716 0.0
C646 C 0.56339 0.36432 0.38448 0.0
H647 H 0.6063 0.24191 0.48317 0.0
H648 H 0.58397 0.25507 0.17293 0.0
H649 H 0.64209 0.27446 0.12344 0.0
H650 H 0.69365 0.27216 0.15872 0.0
H651 H 0.71797 0.26094 0.46775 0.0
H652 H 0.66548 0.25714 0.52731 0.0
C653 C 0.61463 0.25045 0.40604 0.0
C654 C 0.59066 0.24592 0.3313 0.0
C655 C 0.64835 0.26118 0.37694 0.0
C656 C 0.60182 0.25732 0.23143 0.0
C657 C 0.63508 0.2684 0.20264 0.0
C658 C 0.68804 0.27032 0.23938 0.0
C659 C 0.70894 0.26598 0.30828 0.0
C660 C 0.65779 0.26798 0.2731 0.0
C661 C 0.7019 0.26405 0.41303 0.0
C662 C 0.67171 0.26155 0.4472 0.0
H663 H 0.39912 0.75216 0.50897 0.0
H664 H 0.42861 0.80351 0.79851 0.0
H665 H 0.43586 0.75795 0.86906 0.0
H666 H 0.44651 0.71069 0.83572 0.0
H667 H 0.42297 0.66419 0.53877 0.0
H668 H 0.39874 0.69847 0.48678 0.0
C669 C 0.40571 0.75248 0.58849 0.0
C670 C 0.41295 0.78075 0.6485 0.0
C671 C 0.41086 0.72667 0.62794 0.0
C672 C 0.42241 0.78157 0.75105 0.0
C673 C 0.42682 0.75564 0.79148 0.0
C674 C 0.43459 0.70706 0.76167 0.0
C675 C 0.43599 0.68449 0.69205 0.0
C676 C 0.42291 0.72895 0.72905 0.0
C677 C 0.42123 0.68061 0.59503 0.0
C678 C 0.40801 0.70084 0.56412 0.0
H679 H 0.27296 0.65168 0.65169 0.0
H680 H 0.18685 0.66627 0.64057 0.0
H681 H 0.21711 0.71834 0.73868 0.0
H682 H 0.27069 0.76439 0.80331 0.0
H683 H 0.3593 0.75437 0.80774 0.0
H684 H 0.32597 0.69582 0.74122 0.0
C685 C 0.26093 0.66625 0.6715 0.0
C686 C 0.22785 0.65568 0.63532 0.0
C687 C 0.2791 0.69696 0.72791 0.0
C688 C 0.21243 0.67445 0.66356 0.0
C689 C 0.22969 0.7041 0.72118 0.0
C690 C 0.28232 0.74873 0.79455 0.0
C691 C 0.31756 0.76378 0.80863 0.0
C692 C 0.26335 0.71618 0.75093 0.0
C693 C 0.3324 0.74346 0.79581 0.0
C694 C 0.3133 0.71013 0.75645 0.0
H695 H 0.37558 0.59661 0.72784 0.0
H696 H 0.358 0.60282 0.40814 0.0
H697 H 0.30514 0.60205 0.44762 0.0
H698 H 0.25899 0.58639 0.56747 0.0
H699 H 0.27148 0.56929 0.88315 0.0
H700 H 0.33179 0.58876 0.85242 0.0
C701 C 0.36072 0.59901 0.66717 0.0
C702 C 0.3705 0.59976 0.56501 0.0
C703 C 0.32925 0.59604 0.6902 0.0
C704 C 0.35088 0.60227 0.48694 0.0
C705 C 0.32064 0.6016 0.50967 0.0
C706 C 0.27514 0.58765 0.63024 0.0
C707 C 0.26073 0.57562 0.72696 0.0
C708 C 0.30872 0.59644 0.61024 0.0
C709 C 0.28196 0.57822 0.80808 0.0
C710 C 0.31629 0.58893 0.78999 0.0
H711 H 0.04792 0.18107 0.55585 0.0
H712 H 0.12526 0.28481 0.62212 0.0
H713 H 0.15189 0.28938 0.45673 0.0
H714 H 0.15395 0.26256 0.29728 0.0
H715 H 0.0777 0.15769 0.23531 0.0
H716 H 0.05027 0.15416 0.39768 0.0
C717 C 0.06989 0.20497 0.53198 0.0
C718 C 0.08428 0.23294 0.59806 0.0
C719 C 0.08587 0.20661 0.44013 0.0
C720 C 0.11353 0.26344 0.56984 0.0
C721 C 0.12898 0.26576 0.47663 0.0
C722 C 0.13187 0.23871 0.3207 0.0
C723 C 0.11801 0.21026 0.25588 0.0
C724 C 0.11579 0.2372 0.41238 0.0
C725 C 0.08892 0.17971 0.28535 0.0
C726 C 0.07299 0.17785 0.37708 0.0
H727 H 0.7511 0.89934 0.36087 0.0
H728 H 0.85374 0.92317 0.29888 0.0
H729 H 0.85605 0.89852 0.46194 0.0
H730 H 0.82859 0.86989 0.62035 0.0
H731 H 0.72676 0.84765 0.68549 0.0
H732 H 0.72356 0.87063 0.51986 0.0
C733 C 0.77424 0.89995 0.38465 0.0
C734 C 0.80244 0.91345 0.31998 0.0
C735 C 0.77491 0.88477 0.4763 0.0
C736 C 0.83201 0.9133 0.34927 0.0
C737 C 0.83312 0.89878 0.44125 0.0
C738 C 0.80535 0.86905 0.59627 0.0
C739 C 0.77763 0.8565 0.66225 0.0
C740 C 0.8045 0.8839 0.50428 0.0
C741 C 0.74799 0.85656 0.63346 0.0
C742 C 0.74644 0.87023 0.54015 0.0
H743 H 0.13105 0.96575 0.64142 0.0
H744 H 0.16881 0.89785 0.70743 0.0
H745 H 0.14895 0.87027 0.54129 0.0
H746 H 0.11887 0.86453 0.38115 0.0
H747 H 0.07939 0.93139 0.31891 0.0
H748 H 0.10049 0.95959 0.483 0.0
C749 C 0.13585 0.94568 0.6174 0.0
C750 C 0.15202 0.93425 0.68333 0.0
C751 C 0.12273 0.92892 0.52539 0.0
C752 C 0.15712 0.90739 0.65506 0.0
C753 C 0.14522 0.89129 0.56158 0.0
C754 C 0.11409 0.88459 0.40516 0.0
C755 C 0.0973 0.89571 0.34009 0.0
C756 C 0.12726 0.90134 0.49737 0.0
C757 C 0.09191 0.9223 0.36966 0.0
C758 C 0.10441 0.93872 0.46218 0.0
H759 H 0.75566 0.57261 0.66358 0.0
H760 H 0.83366 0.54728 0.71614 0.0
H761 H 0.81805 0.5372 0.89677 0.0
H762 H 0.7795 0.53183 0.03289 0.0
H763 H 0.70017 0.55545 0.97782 0.0
H764 H 0.71735 0.56767 0.79924 0.0
C765 C 0.76871 0.56423 0.71414 0.0
C766 C 0.79487 0.55957 0.67798 0.0
C767 C 0.75886 0.55753 0.815 0.0
C768 C 0.81324 0.5507 0.74409 0.0
C769 C 0.80413 0.54469 0.84618 0.0
C770 C 0.76627 0.54007 0.98189 0.0
C771 C 0.73902 0.54327 0.01718 0.0
C772 C 0.77655 0.5474 0.88144 0.0
C773 C 0.72116 0.55279 0.95094 0.0
C774 C 0.73116 0.56006 0.84989 0.0
H775 H 0.50379 0.21019 0.91812 0.0
H776 H 0.39912 0.17807 0.9797 0.0
H777 H 0.39381 0.1997 0.81374 0.0
H778 H 0.4202 0.22987 0.65508 0.0
H779 H 0.5257 0.2636 0.59687 0.0
H780 H 0.53013 0.24034 0.76012 0.0
C781 C 0.47958 0.20694 0.89309 0.0
C782 C 0.45154 0.19191 0.95801 0.0
C783 C 0.47743 0.22093 0.80077 0.0
C784 C 0.42058 0.18891 0.9283 0.0
C785 C 0.41781 0.20176 0.83479 0.0
C786 C 0.44434 0.23289 0.67963 0.0
C787 C 0.47278 0.24883 0.61588 0.0
C788 C 0.44635 0.21857 0.77162 0.0
C789 C 0.50371 0.25181 0.64637 0.0
C790 C 0.5061 0.2381 0.73855 0.0
H791 H 0.83571 0.25649 0.65297 0.0
H792 H 0.73098 0.17951 0.70352 0.0
H793 H 0.73666 0.19593 0.88353 0.0
H794 H 0.77039 0.23503 0.0196 0.0
H795 H 0.875 0.31281 0.96793 0.0
H796 H 0.86976 0.29518 0.78941 0.0
C797 C 0.81402 0.24387 0.70303 0.0
C798 C 0.78276 0.21777 0.66634 0.0
C799 C 0.8173 0.25418 0.8037 0.0
C800 C 0.75517 0.19988 0.73182 0.0
C801 C 0.75835 0.20948 0.83356 0.0
C802 C 0.79216 0.24775 0.9694 0.0
C803 C 0.82315 0.27466 0.00565 0.0
C804 C 0.7891 0.23703 0.86925 0.0
C805 C 0.85093 0.29205 0.94031 0.0
C806 C 0.84803 0.28175 0.83932 0.0
H807 H 0.45098 0.92497 0.35665 0.0
H808 H 0.34875 0.84144 0.305 0.0
H809 H 0.36271 0.83792 0.12771 0.0
H810 H 0.40507 0.8559 -0.00637 0.0
H811 H 0.50729 0.93976 0.04548 0.0
H812 H 0.4928 0.944 0.22073 0.0
C813 C 0.43177 0.90603 0.30642 0.0
C814 C 0.39915 0.88317 0.34332 0.0
C815 C 0.44027 0.90342 0.20676 0.0
C816 C 0.37404 0.85937 0.27755 0.0
C817 C 0.38214 0.85701 0.17703 0.0
C818 C 0.42416 0.87528 0.04294 0.0
C819 C 0.45699 0.89777 0.00641 0.0
C820 C 0.4154 0.87838 0.14194 0.0
C821 C 0.48179 0.9221 0.07195 0.0
C822 C 0.47345 0.92485 0.17169 0.0
H823 H 0.17413 0.54326 0.29338 0.0
H824 H 0.07043 0.51467 0.35756 0.0
H825 H 0.06557 0.53642 0.1915 0.0
H826 H 0.09214 0.56612 0.03259 0.0
H827 H 0.19676 0.59673 0.97203 0.0
H828 H 0.20064 0.57282 0.13473 0.0
C829 C 0.15019 0.54077 0.2689 0.0
C830 C 0.12234 0.52666 0.33465 0.0
C831 C 0.14832 0.55497 0.17662 0.0
C832 C 0.09175 0.52467 0.30555 0.0
C833 C 0.08923 0.53766 0.212 0.0
C834 C 0.116 0.56833 0.0565 0.0
C835 C 0.14434 0.5836 -0.00775 0.0
C836 C 0.11767 0.55367 0.14823 0.0
C837 C 0.17487 0.58549 0.02193 0.0
C838 C 0.17692 0.57141 0.1138 0.0
H839 H 0.47262 0.63438 0.27769 0.0
H840 H 0.51127 0.56705 0.34022 0.0
H841 H 0.49113 0.53964 0.17382 0.0
H842 H 0.46027 0.53364 0.0145 0.0
H843 H 0.41982 0.59988 0.95622 0.0
H844 H 0.44152 0.62813 0.11998 0.0
C845 C 0.47753 0.61446 0.25288 0.0
C846 C 0.49418 0.60326 0.31793 0.0
C847 C 0.46422 0.59774 0.16067 0.0
C848 C 0.49933 0.57653 0.2886 0.0
C849 C 0.48725 0.5605 0.19491 0.0
C850 C 0.45544 0.5536 0.03924 0.0
C851 C 0.43808 0.56443 0.97526 0.0
C852 C 0.46892 0.57037 0.13154 0.0
C853 C 0.43272 0.59094 0.00594 0.0
C854 C 0.44554 0.60739 0.09838 0.0
loop_
_geom_bond_atom_site_label_1
_geom_bond_atom_site_label_2
_geom_bond_distance
_geom_bond_site_symmetry_2
_ccdc_geom_bond_type
C0 O27 1.312 . S
C0 O28 1.208 . S
C1 O22 1.331 1_656 S
C1 O25 1.244 . S
C2 O24 1.264 . S
C2 O26 1.273 . S
Mg3 O5 1.936 . S
Mg3 O12 2.081 . S
Mg3 O14 2.023 1_554 S
Mg3 O18 2.031 . S
Mg3 O27 2.291 . S
Mg4 O5 1.963 1_556 S
Mg4 O15 1.942 1_556 S
Mg4 O16 1.955 . S
Mg4 O23 1.986 . S
O5 Mg3 1.936 . S
O5 Mg4 1.963 1_554 S
O5 Mg6 1.915 1_554 S
Mg6 O5 1.915 1_556 S
Mg6 O7 1.915 . S
Mg6 O11 2.013 . S
Mg6 O17 2.114 1_556 S
Mg6 O21 2.013 . S
Mg6 O27 2.114 1_556 S
O7 Mg6 1.915 . S
O7 Mg8 1.936 1_556 S
O7 Mg9 1.963 . S
Mg8 O7 1.936 1_554 S
Mg8 O17 2.291 . S
Mg8 O22 2.081 . S
Mg8 O24 2.023 . S
Mg8 O28 2.031 . S
Mg9 O7 1.963 . S
Mg9 O13 1.986 . S
Mg9 O25 1.942 1_455 S
Mg9 O26 1.955 1_556 S
C10 O21 1.191 . S
C10 O23 1.307 . S
O11 Mg6 2.013 . S
O11 C30 1.191 . S
O12 Mg3 2.081 . S
O12 C20 1.331 . S
O13 Mg9 1.986 . S
O13 C30 1.307 . S
O14 Mg3 2.023 1_556 S
O14 C29 1.264 . S
O15 Mg4 1.942 1_554 S
O15 C20 1.244 . S
O16 Mg4 1.955 . S
O16 C29 1.273 . S
O17 Mg6 2.114 1_554 S
O17 Mg8 2.291 . S
O17 C19 1.312 . S
O18 Mg3 2.031 . S
O18 C19 1.208 . S
C19 O17 1.312 . S
C19 O18 1.208 . S
C20 O12 1.331 . S
C20 O15 1.244 . S
O21 Mg6 2.013 . S
O21 C10 1.191 . S
O22 C1 1.331 1_454 S
O22 Mg8 2.081 . S
O23 Mg4 1.986 . S
O23 C10 1.307 . S
O24 C2 1.264 . S
O24 Mg8 2.023 . S
O25 C1 1.244 . S
O25 Mg9 1.942 1_655 S
O26 C2 1.273 . S
O26 Mg9 1.955 1_554 S
O27 C0 1.312 . S
O27 Mg3 2.291 . S
O27 Mg6 2.114 1_554 S
O28 C0 1.208 . S
O28 Mg8 2.031 . S
C29 O14 1.264 . S
C29 O16 1.273 . S
C30 O11 1.191 . S
C30 O13 1.307 . S
C31 O58 1.312 . S
C31 O59 1.208 . S
C32 O53 1.331 1_556 S
C32 O56 1.244 . S
C33 O55 1.264 . S
C33 O57 1.273 . S
Mg34 O36 1.936 . S
Mg34 O43 2.081 . S
Mg34 O45 2.023 1_554 S
Mg34 O49 2.031 . S
Mg34 O58 2.291 . S
Mg35 O36 1.963 1_556 S
Mg35 O46 1.942 1_556 S
Mg35 O47 1.955 . S
Mg35 O54 1.986 . S
O36 Mg34 1.936 . S
O36 Mg35 1.963 1_554 S
O36 Mg37 1.915 1_554 S
Mg37 O36 1.915 1_556 S
Mg37 O38 1.915 . S
Mg37 O42 2.013 . S
Mg37 O48 2.114 1_556 S
Mg37 O52 2.013 . S
Mg37 O58 2.114 1_556 S
O38 Mg37 1.915 . S
O38 Mg39 1.936 1_556 S
O38 Mg40 1.963 . S
Mg39 O38 1.936 1_554 S
Mg39 O48 2.291 . S
Mg39 O53 2.081 . S
Mg39 O55 2.023 . S
Mg39 O59 2.031 . S
Mg40 O38 1.963 . S
Mg40 O44 1.986 . S
Mg40 O56 1.942 . S
Mg40 O57 1.955 1_556 S
C41 O52 1.191 . S
C41 O54 1.307 . S
O42 Mg37 2.013 . S
O42 C61 1.191 . S
O43 Mg34 2.081 . S
O43 C51 1.331 . S
O44 Mg40 1.986 . S
O44 C61 1.307 . S
O45 Mg34 2.023 1_556 S
O45 C60 1.264 . S
O46 Mg35 1.942 1_554 S
O46 C51 1.244 . S
O47 Mg35 1.955 . S
O47 C60 1.273 . S
O48 Mg37 2.114 1_554 S
O48 Mg39 2.291 . S
O48 C50 1.312 . S
O49 Mg34 2.031 . S
O49 C50 1.208 . S
C50 O48 1.312 . S
C50 O49 1.208 . S
C51 O43 1.331 . S
C51 O46 1.244 . S
O52 Mg37 2.013 . S
O52 C41 1.191 . S
O53 C32 1.331 1_554 S
O53 Mg39 2.081 . S
O54 Mg35 1.986 . S
O54 C41 1.307 . S
O55 C33 1.264 . S
O55 Mg39 2.023 . S
O56 C32 1.244 . S
O56 Mg40 1.942 . S
O57 C33 1.273 . S
O57 Mg40 1.955 1_554 S
O58 C31 1.312 . S
O58 Mg34 2.291 . S
O58 Mg37 2.114 1_554 S
O59 C31 1.208 . S
O59 Mg39 2.031 . S
C60 O45 1.264 . S
C60 O47 1.273 . S
C61 O42 1.191 . S
C61 O44 1.307 . S
C62 O89 1.312 . S
C62 O90 1.208 . S
C63 O84 1.331 1_546 S
C63 O87 1.244 . S
C64 O86 1.264 . S
C64 O88 1.273 . S
Mg65 O67 1.936 . S
Mg65 O74 2.081 . S
Mg65 O76 2.023 1_554 S
Mg65 O80 2.031 . S
Mg65 O89 2.291 . S
Mg66 O67 1.963 1_556 S
Mg66 O77 1.942 1_556 S
Mg66 O78 1.955 . S
Mg66 O85 1.986 . S
O67 Mg65 1.936 . S
O67 Mg66 1.963 1_554 S
O67 Mg68 1.915 1_554 S
Mg68 O67 1.915 1_556 S
Mg68 O69 1.915 . S
Mg68 O73 2.013 . S
Mg68 O79 2.114 1_556 S
Mg68 O83 2.013 . S
Mg68 O89 2.114 1_556 S
O69 Mg68 1.915 . S
O69 Mg70 1.936 1_556 S
O69 Mg71 1.963 . S
Mg70 O69 1.936 1_554 S
Mg70 O79 2.291 . S
Mg70 O84 2.081 . S
Mg70 O86 2.023 . S
Mg70 O90 2.031 . S
Mg71 O69 1.963 . S
Mg71 O75 1.986 . S
Mg71 O87 1.942 1_565 S
Mg71 O88 1.955 1_556 S
C72 O83 1.191 . S
C72 O85 1.307 . S
O73 Mg68 2.013 . S
O73 C92 1.191 . S
O74 Mg65 2.081 . S
O74 C82 1.331 . S
O75 Mg71 1.986 . S
O75 C92 1.307 . S
O76 Mg65 2.023 1_556 S
O76 C91 1.264 . S
O77 Mg66 1.942 1_554 S
O77 C82 1.244 . S
O78 Mg66 1.955 . S
O78 C91 1.273 . S
O79 Mg68 2.114 1_554 S
O79 Mg70 2.291 . S
O79 C81 1.312 . S
O80 Mg65 2.031 . S
O80 C81 1.208 . S
C81 O79 1.312 . S
C81 O80 1.208 . S
C82 O74 1.331 . S
C82 O77 1.244 . S
O83 Mg68 2.013 . S
O83 C72 1.191 . S
O84 C63 1.331 1_564 S
O84 Mg70 2.081 . S
O85 Mg66 1.986 . S
O85 C72 1.307 . S
O86 C64 1.264 . S
O86 Mg70 2.023 . S
O87 C63 1.244 . S
O87 Mg71 1.942 1_545 S
O88 C64 1.273 . S
O88 Mg71 1.955 1_554 S
O89 C62 1.312 . S
O89 Mg65 2.291 . S
O89 Mg68 2.114 1_554 S
O90 C62 1.208 . S
O90 Mg70 2.031 . S
C91 O76 1.264 . S
C91 O78 1.273 . S
C92 O73 1.191 . S
C92 O75 1.307 . S
C93 O120 1.312 . S
C93 O121 1.208 . S
C94 O115 1.331 . S
C94 O118 1.244 . S
C95 O117 1.264 . S
C95 O119 1.273 . S
Mg96 O98 1.936 . S
Mg96 O105 2.081 . S
Mg96 O107 2.023 . S
Mg96 O111 2.031 . S
Mg96 O120 2.291 . S
Mg97 O98 1.963 . S
Mg97 O108 1.942 . S
Mg97 O109 1.955 . S
Mg97 O116 1.986 . S
O98 Mg96 1.936 . S
O98 Mg97 1.963 . S
O98 Mg99 1.915 . S
Mg99 O98 1.915 . S
Mg99 O100 1.915 . S
Mg99 O104 2.013 . S
Mg99 O110 2.114 . S
Mg99 O114 2.013 . S
Mg99 O120 2.114 . S
O100 Mg99 1.915 . S
O100 Mg101 1.936 . S
O100 Mg102 1.963 . S
Mg101 O100 1.936 . S
Mg101 O110 2.291 . S
Mg101 O115 2.081 . S
Mg101 O117 2.023 . S
Mg101 O121 2.031 . S
Mg102 O100 1.963 . S
Mg102 O106 1.986 . S
Mg102 O118 1.942 . S
Mg102 O119 1.955 . S
C103 O114 1.191 . S
C103 O116 1.307 . S
O104 Mg99 2.013 . S
O104 C123 1.191 . S
O105 Mg96 2.081 . S
O105 C113 1.331 . S
O106 Mg102 1.986 . S
O106 C123 1.307 . S
O107 Mg96 2.023 . S
O107 C122 1.264 . S
O108 Mg97 1.942 . S
O108 C113 1.244 . S
O109 Mg97 1.955 . S
O109 C122 1.273 . S
O110 Mg99 2.114 . S
O110 Mg101 2.291 . S
O110 C112 1.312 . S
O111 Mg96 2.031 . S
O111 C112 1.208 . S
C112 O110 1.312 . S
C112 O111 1.208 . S
C113 O105 1.331 . S
C113 O108 1.244 . S
O114 Mg99 2.013 . S
O114 C103 1.191 . S
O115 C94 1.331 . S
O115 Mg101 2.081 . S
O116 Mg97 1.986 . S
O116 C103 1.307 . S
O117 C95 1.264 . S
O117 Mg101 2.023 . S
O118 C94 1.244 . S
O118 Mg102 1.942 . S
O119 C95 1.273 . S
O119 Mg102 1.955 . S
O120 C93 1.312 . S
O120 Mg96 2.291 . S
O120 Mg99 2.114 . S
O121 C93 1.208 . S
O121 Mg101 2.031 . S
C122 O107 1.264 . S
C122 O109 1.273 . S
C123 O104 1.191 . S
C123 O106 1.307 . S
C124 O151 1.312 . S
C124 O152 1.208 . S
C125 O146 1.331 . S
C125 O149 1.244 . S
C126 O148 1.264 . S
C126 O150 1.273 . S
Mg127 O129 1.936 . S
Mg127 O136 2.081 . S
Mg127 O138 2.023 . S
Mg127 O142 2.031 . S
Mg127 O151 2.291 . S
Mg128 O129 1.963 . S
Mg128 O139 1.942 . S
Mg128 O140 1.955 . S
Mg128 O147 1.986 . S
O129 Mg127 1.936 . S
O129 Mg128 1.963 . S
O129 Mg130 1.915 . S
Mg130 O129 1.915 . S
Mg130 O131 1.915 . S
Mg130 O135 2.013 . S
Mg130 O141 2.114 . S
Mg130 O145 2.013 . S
Mg130 O151 2.114 . S
O131 Mg130 1.915 . S
O131 Mg132 1.936 . S
O131 Mg133 1.963 . S
Mg132 O131 1.936 . S
Mg132 O141 2.291 . S
Mg132 O146 2.081 . S
Mg132 O148 2.023 . S
Mg132 O152 2.031 . S
Mg133 O131 1.963 . S
Mg133 O137 1.986 . S
Mg133 O149 1.942 . S
Mg133 O150 1.955 . S
C134 O145 1.191 . S
C134 O147 1.307 . S
O135 Mg130 2.013 . S
O135 C154 1.191 . S
O136 Mg127 2.081 . S
O136 C144 1.331 . S
O137 Mg133 1.986 . S
O137 C154 1.307 . S
O138 Mg127 2.023 . S
O138 C153 1.264 . S
O139 Mg128 1.942 . S
O139 C144 1.244 . S
O140 Mg128 1.955 . S
O140 C153 1.273 . S
O141 Mg130 2.114 . S
O141 Mg132 2.291 . S
O141 C143 1.312 . S
O142 Mg127 2.031 . S
O142 C143 1.208 . S
C143 O141 1.312 . S
C143 O142 1.208 . S
C144 O136 1.331 . S
C144 O139 1.244 . S
O145 Mg130 2.013 . S
O145 C134 1.191 . S
O146 C125 1.331 . S
O146 Mg132 2.081 . S
O147 Mg128 1.986 . S
O147 C134 1.307 . S
O148 C126 1.264 . S
O148 Mg132 2.023 . S
O149 C125 1.244 . S
O149 Mg133 1.942 . S
O150 C126 1.273 . S
O150 Mg133 1.955 . S
O151 C124 1.312 . S
O151 Mg127 2.291 . S
O151 Mg130 2.114 . S
O152 C124 1.208 . S
O152 Mg132 2.031 . S
C153 O138 1.264 . S
C153 O140 1.273 . S
C154 O135 1.191 . S
C154 O137 1.307 . S
C155 O182 1.312 . S
C155 O183 1.208 . S
C156 O177 1.331 . S
C156 O180 1.244 . S
C157 O179 1.264 . S
C157 O181 1.273 . S
Mg158 O160 1.936 . S
Mg158 O167 2.081 . S
Mg158 O169 2.023 . S
Mg158 O173 2.031 . S
Mg158 O182 2.291 . S
Mg159 O160 1.963 . S
Mg159 O170 1.942 . S
Mg159 O171 1.955 . S
Mg159 O178 1.986 . S
O160 Mg158 1.936 . S
O160 Mg159 1.963 . S
O160 Mg161 1.915 . S
Mg161 O160 1.915 . S
Mg161 O162 1.915 . S
Mg161 O166 2.013 . S
Mg161 O172 2.114 . S
Mg161 O176 2.013 . S
Mg161 O182 2.114 . S
O162 Mg161 1.915 . S
O162 Mg163 1.936 . S
O162 Mg164 1.963 . S
Mg163 O162 1.936 . S
Mg163 O172 2.291 . S
Mg163 O177 2.081 . S
Mg163 O179 2.023 . S
Mg163 O183 2.031 . S
Mg164 O162 1.963 . S
Mg164 O168 1.986 . S
Mg164 O180 1.942 . S
Mg164 O181 1.955 . S
C165 O176 1.191 . S
C165 O178 1.307 . S
O166 Mg161 2.013 . S
O166 C185 1.191 . S
O167 Mg158 2.081 . S
O167 C175 1.331 . S
O168 Mg164 1.986 . S
O168 C185 1.307 . S
O169 Mg158 2.023 . S
O169 C184 1.264 . S
O170 Mg159 1.942 . S
O170 C175 1.244 . S
O171 Mg159 1.955 . S
O171 C184 1.273 . S
O172 Mg161 2.114 . S
O172 Mg163 2.291 . S
O172 C174 1.312 . S
O173 Mg158 2.031 . S
O173 C174 1.208 . S
C174 O172 1.312 . S
C174 O173 1.208 . S
C175 O167 1.331 . S
C175 O170 1.244 . S
O176 Mg161 2.013 . S
O176 C165 1.191 . S
O177 C156 1.331 . S
O177 Mg163 2.081 . S
O178 Mg159 1.986 . S
O178 C165 1.307 . S
O179 C157 1.264 . S
O179 Mg163 2.023 . S
O180 C156 1.244 . S
O180 Mg164 1.942 . S
O181 C157 1.273 . S
O181 Mg164 1.955 . S
O182 C155 1.312 . S
O182 Mg158 2.291 . S
O182 Mg161 2.114 . S
O183 C155 1.208 . S
O183 Mg163 2.031 . S
C184 O169 1.264 . S
C184 O171 1.273 . S
C185 O166 1.191 . S
C185 O168 1.307 . S
C186 O213 1.312 . S
C186 O214 1.208 . S
C187 O208 1.331 . S
C187 O211 1.244 . S
C188 O210 1.264 . S
C188 O212 1.273 . S
Mg189 O191 1.936 . S
Mg189 O198 2.081 . S
Mg189 O200 2.023 . S
Mg189 O204 2.031 . S
Mg189 O213 2.291 . S
Mg190 O191 1.963 . S
Mg190 O201 1.942 . S
Mg190 O202 1.955 . S
Mg190 O209 1.986 . S
O191 Mg189 1.936 . S
O191 Mg190 1.963 . S
O191 Mg192 1.915 . S
Mg192 O191 1.915 . S
Mg192 O193 1.915 . S
Mg192 O197 2.013 . S
Mg192 O203 2.114 . S
Mg192 O207 2.013 . S
Mg192 O213 2.114 . S
O193 Mg192 1.915 . S
O193 Mg194 1.936 . S
O193 Mg195 1.963 . S
Mg194 O193 1.936 . S
Mg194 O203 2.291 . S
Mg194 O208 2.081 . S
Mg194 O210 2.023 . S
Mg194 O214 2.031 . S
Mg195 O193 1.963 . S
Mg195 O199 1.986 . S
Mg195 O211 1.942 . S
Mg195 O212 1.955 . S
C196 O207 1.191 . S
C196 O209 1.307 . S
O197 Mg192 2.013 . S
O197 C216 1.191 . S
O198 Mg189 2.081 . S
O198 C206 1.331 . S
O199 Mg195 1.986 . S
O199 C216 1.307 . S
O200 Mg189 2.023 . S
O200 C215 1.264 . S
O201 Mg190 1.942 . S
O201 C206 1.244 . S
O202 Mg190 1.955 . S
O202 C215 1.273 . S
O203 Mg192 2.114 . S
O203 Mg194 2.291 . S
O203 C205 1.312 . S
O204 Mg189 2.031 . S
O204 C205 1.208 . S
C205 O203 1.312 . S
C205 O204 1.208 . S
C206 O198 1.331 . S
C206 O201 1.244 . S
O207 Mg192 2.013 . S
O207 C196 1.191 . S
O208 C187 1.331 . S
O208 Mg194 2.081 . S
O209 Mg190 1.986 . S
O209 C196 1.307 . S
O210 C188 1.264 . S
O210 Mg194 2.023 . S
O211 C187 1.244 . S
O211 Mg195 1.942 . S
O212 C188 1.273 . S
O212 Mg195 1.955 . S
O213 C186 1.312 . S
O213 Mg189 2.291 . S
O213 Mg192 2.114 . S
O214 C186 1.208 . S
O214 Mg194 2.031 . S
C215 O200 1.264 . S
C215 O202 1.273 . S
C216 O197 1.191 . S
C216 O199 1.307 . S
C217 O244 1.312 . S
C217 O245 1.208 . S
C218 O239 1.331 . S
C218 O242 1.244 . S
C219 O241 1.264 . S
C219 O243 1.273 . S
Mg220 O222 1.936 . S
Mg220 O229 2.081 . S
Mg220 O231 2.023 . S
Mg220 O235 2.031 . S
Mg220 O244 2.291 . S
Mg221 O222 1.963 . S
Mg221 O232 1.942 . S
Mg221 O233 1.955 . S
Mg221 O240 1.986 . S
O222 Mg220 1.936 . S
O222 Mg221 1.963 . S
O222 Mg223 1.915 . S
Mg223 O222 1.915 . S
Mg223 O224 1.915 . S
Mg223 O228 2.013 . S
Mg223 O234 2.114 . S
Mg223 O238 2.013 . S
Mg223 O244 2.114 . S
O224 Mg223 1.915 . S
O224 Mg225 1.936 . S
O224 Mg226 1.963 . S
Mg225 O224 1.936 . S
Mg225 O234 2.291 . S
Mg225 O239 2.081 . S
Mg225 O241 2.023 . S
Mg225 O245 2.031 . S
Mg226 O224 1.963 . S
Mg226 O230 1.986 . S
Mg226 O242 1.942 . S
Mg226 O243 1.955 . S
C227 O238 1.191 . S
C227 O240 1.307 . S
O228 Mg223 2.013 . S
O228 C247 1.191 . S
O229 Mg220 2.081 . S
O229 C237 1.331 . S
O230 Mg226 1.986 . S
O230 C247 1.307 . S
O231 Mg220 2.023 . S
O231 C246 1.264 . S
O232 Mg221 1.942 . S
O232 C237 1.244 . S
O233 Mg221 1.955 . S
O233 C246 1.273 . S
O234 Mg223 2.114 . S
O234 Mg225 2.291 . S
O234 C236 1.312 . S
O235 Mg220 2.031 . S
O235 C236 1.208 . S
C236 O234 1.312 . S
C236 O235 1.208 . S
C237 O229 1.331 . S
C237 O232 1.244 . S
O238 Mg223 2.013 . S
O238 C227 1.191 . S
O239 C218 1.331 . S
O239 Mg225 2.081 . S
O240 Mg221 1.986 . S
O240 C227 1.307 . S
O241 C219 1.264 . S
O241 Mg225 2.023 . S
O242 C218 1.244 . S
O242 Mg226 1.942 . S
O243 C219 1.273 . S
O243 Mg226 1.955 . S
O244 C217 1.312 . S
O244 Mg220 2.291 . S
O244 Mg223 2.114 . S
O245 C217 1.208 . S
O245 Mg225 2.031 . S
C246 O231 1.264 . S
C246 O233 1.273 . S
C247 O228 1.191 . S
C247 O230 1.307 . S
C248 O275 1.312 . S
C248 O276 1.208 . S
C249 O270 1.331 . S
C249 O273 1.244 . S
C250 O272 1.264 . S
C250 O274 1.273 . S
Mg251 O253 1.936 . S
Mg251 O260 2.081 . S
Mg251 O262 2.023 . S
Mg251 O266 2.031 . S
Mg251 O275 2.291 . S
Mg252 O253 1.963 . S
Mg252 O263 1.942 . S
Mg252 O264 1.955 . S
Mg252 O271 1.986 . S
O253 Mg251 1.936 . S
O253 Mg252 1.963 . S
O253 Mg254 1.915 . S
Mg254 O253 1.915 . S
Mg254 O255 1.915 . S
Mg254 O259 2.013 . S
Mg254 O265 2.114 . S
Mg254 O269 2.013 . S
Mg254 O275 2.114 . S
O255 Mg254 1.915 . S
O255 Mg256 1.936 . S
O255 Mg257 1.963 . S
Mg256 O255 1.936 . S
Mg256 O265 2.291 . S
Mg256 O270 2.081 . S
Mg256 O272 2.023 . S
Mg256 O276 2.031 . S
Mg257 O255 1.963 . S
Mg257 O261 1.986 . S
Mg257 O273 1.942 . S
Mg257 O274 1.955 . S
C258 O269 1.191 . S
C258 O271 1.307 . S
O259 Mg254 2.013 . S
O259 C278 1.191 . S
O260 Mg251 2.081 . S
O260 C268 1.331 . S
O261 Mg257 1.986 . S
O261 C278 1.307 . S
O262 Mg251 2.023 . S
O262 C277 1.264 . S
O263 Mg252 1.942 . S
O263 C268 1.244 . S
O264 Mg252 1.955 . S
O264 C277 1.273 . S
O265 Mg254 2.114 . S
O265 Mg256 2.291 . S
O265 C267 1.312 . S
O266 Mg251 2.031 . S
O266 C267 1.208 . S
C267 O265 1.312 . S
C267 O266 1.208 . S
C268 O260 1.331 . S
C268 O263 1.244 . S
O269 Mg254 2.013 . S
O269 C258 1.191 . S
O270 C249 1.331 . S
O270 Mg256 2.081 . S
O271 Mg252 1.986 . S
O271 C258 1.307 . S
O272 C250 1.264 . S
O272 Mg256 2.023 . S
O273 C249 1.244 . S
O273 Mg257 1.942 . S
O274 C250 1.273 . S
O274 Mg257 1.955 . S
O275 C248 1.312 . S
O275 Mg251 2.291 . S
O275 Mg254 2.114 . S
O276 C248 1.208 . S
O276 Mg256 2.031 . S
C277 O262 1.264 . S
C277 O264 1.273 . S
C278 O259 1.191 . S
C278 O261 1.307 . S
H279 C285 0.930 . S
H280 C288 0.930 . S
H281 C289 0.930 . S
H282 C290 0.930 . S
H283 C293 0.930 . S
H284 C294 0.930 . S
C285 H279 0.930 . S
C285 C286 1.355 . S
C285 C287 1.415 . S
C286 C285 1.355 . S
C286 C288 1.419 . S
C287 C285 1.415 . S
C287 C292 1.425 . S
C287 C294 1.409 . S
C288 H280 0.930 . S
C288 C286 1.419 . S
C288 C289 1.362 . S
C289 H281 0.930 . S
C289 C288 1.362 . S
C289 C292 1.409 . S
C290 H282 0.930 . S
C290 C291 1.355 . S
C290 C292 1.415 . S
C291 C290 1.355 . S
C291 C293 1.419 . S
C292 C287 1.425 . S
C292 C289 1.409 . S
C292 C290 1.415 . S
C293 H283 0.930 . S
C293 C291 1.419 . S
C293 C294 1.362 . S
C294 H284 0.930 . S
C294 C287 1.409 . S
C294 C293 1.362 . S
H295 C301 0.930 . S
H296 C304 0.930 . S
H297 C305 0.930 . S
H298 C306 0.930 1_565 S
H299 C309 0.930 . S
H300 C310 0.930 . S
C301 H295 0.930 . S
C301 C302 1.355 . S
C301 C303 1.415 . S
C302 C301 1.355 . S
C302 C304 1.419 . S
C303 C301 1.415 . S
C303 C308 1.425 . S
C303 C310 1.409 . S
C304 H296 0.930 . S
C304 C302 1.419 . S
C304 C305 1.362 . S
C305 H297 0.930 . S
C305 C304 1.362 . S
C305 C308 1.409 . S
C306 H298 0.930 1_545 S
C306 C307 1.355 . S
C306 C308 1.415 . S
C307 C306 1.355 . S
C307 C309 1.419 . S
C308 C303 1.425 . S
C308 C305 1.409 . S
C308 C306 1.415 . S
C309 H299 0.930 . S
C309 C307 1.419 . S
C309 C310 1.362 . S
C310 H300 0.930 . S
C310 C303 1.409 . S
C310 C309 1.362 . S
H311 C317 0.930 . S
H312 C320 0.930 . S
H313 C321 0.930 . S
H314 C322 0.930 . S
H315 C325 0.930 . S
H316 C326 0.930 . S
C317 H311 0.930 . S
C317 C318 1.339 1_655 S
C317 C319 1.415 . S
C318 C317 1.339 1_455 S
C318 C320 1.429 . S
C319 C317 1.415 . S
C319 C324 1.425 . S
C319 C326 1.409 . S
C320 H312 0.930 . S
C320 C318 1.429 . S
C320 C321 1.362 1_455 S
C321 H313 0.930 . S
C321 C320 1.362 1_655 S
C321 C324 1.409 . S
C322 H314 0.930 . S
C322 C323 1.355 . S
C322 C324 1.415 . S
C323 C322 1.355 . S
C323 C325 1.419 . S
C324 C319 1.425 . S
C324 C321 1.409 . S
C324 C322 1.415 . S
C325 H315 0.930 . S
C325 C323 1.419 . S
C325 C326 1.362 . S
C326 H316 0.930 . S
C326 C319 1.409 . S
C326 C325 1.362 . S
H327 C333 0.930 . S
H328 C336 0.930 . S
H329 C337 0.930 1_556 S
H330 C338 0.930 . S
H331 C341 0.930 . S
H332 C342 0.930 . S
C333 H327 0.930 . S
C333 C334 1.355 1_554 S
C333 C335 1.415 . S
C334 C333 1.355 1_556 S
C334 C336 1.419 . S
C335 C333 1.415 . S
C335 C340 1.425 . S
C335 C342 1.409 . S
C336 H328 0.930 . S
C336 C334 1.419 . S
C336 C337 1.362 1_556 S
C337 H329 0.930 1_554 S
C337 C336 1.362 1_554 S
C337 C340 1.409 . S
C338 H330 0.930 . S
C338 C339 1.355 . S
C338 C340 1.415 . S
C339 C338 1.355 . S
C339 C341 1.419 . S
C340 C335 1.425 . S
C340 C337 1.409 . S
C340 C338 1.415 . S
C341 H331 0.930 . S
C341 C339 1.419 . S
C341 C342 1.362 . S
C342 H332 0.930 . S
C342 C335 1.409 . S
C342 C341 1.362 . S
H343 C349 0.930 . S
H344 C352 0.930 . S
H345 C353 0.930 . S
H346 C354 0.930 . S
H347 C357 0.930 . S
H348 C358 0.930 . S
C349 H343 0.930 . S
C349 C350 1.355 1_554 S
C349 C351 1.415 . S
C350 C349 1.355 1_556 S
C350 C352 1.419 . S
C351 C349 1.415 . S
C351 C356 1.425 . S
C351 C358 1.409 . S
C352 H344 0.930 . S
C352 C350 1.419 . S
C352 C353 1.362 1_556 S
C353 H345 0.930 . S
C353 C352 1.362 1_554 S
C353 C356 1.409 . S
C354 H346 0.930 . S
C354 C355 1.355 . S
C354 C356 1.415 . S
C355 C354 1.355 . S
C355 C357 1.419 . S
C356 C351 1.425 . S
C356 C353 1.409 . S
C356 C354 1.415 . S
C357 H347 0.930 . S
C357 C355 1.419 . S
C357 C358 1.362 . S
C358 H348 0.930 . S
C358 C351 1.409 . S
C358 C357 1.362 . S
H359 C365 0.930 1_556 S
H360 C368 0.930 . S
H361 C369 0.930 . S
H362 C370 0.930 . S
H363 C373 0.930 . S
H364 C374 0.930 . S
C365 H359 0.930 1_554 S
C365 C366 1.355 . S
C365 C367 1.415 . S
C366 C365 1.355 . S
C366 C368 1.419 . S
C367 C365 1.415 . S
C367 C372 1.425 . S
C367 C374 1.409 . S
C368 H360 0.930 . S
C368 C366 1.419 . S
C368 C369 1.362 . S
C369 H361 0.930 . S
C369 C368 1.362 . S
C369 C372 1.409 . S
C370 H362 0.930 . S
C370 C371 1.355 . S
C370 C372 1.415 . S
C371 C370 1.355 . S
C371 C373 1.419 . S
C372 C367 1.425 . S
C372 C369 1.409 . S
C372 C370 1.415 . S
C373 H363 0.930 . S
C373 C371 1.419 . S
C373 C374 1.362 . S
C374 H364 0.930 . S
C374 C367 1.409 . S
C374 C373 1.362 . S
H375 C381 0.930 . S
H376 C384 0.930 . S
H377 C385 0.930 . S
H378 C386 0.919 1_455 S
H379 C389 0.930 1_455 S
H380 C390 0.930 . S
C381 H375 0.930 . S
C381 C382 1.355 . S
C381 C383 1.415 . S
C382 C381 1.355 . S
C382 C384 1.419 . S
C383 C381 1.415 . S
C383 C388 1.425 . S
C383 C390 1.409 . S
C384 H376 0.930 . S
C384 C382 1.419 . S
C384 C385 1.362 . S
C385 H377 0.930 . S
C385 C384 1.362 . S
C385 C388 1.409 . S
C386 H378 0.919 1_655 S
C386 C387 1.328 1_655 S
C386 C388 1.453 . S
C387 C386 1.328 1_455 S
C387 C389 1.419 1_455 S
C388 C383 1.425 . S
C388 C385 1.409 . S
C388 C386 1.453 . S
C389 H379 0.930 1_655 S
C389 C387 1.419 1_655 S
C389 C390 1.362 . S
C390 H380 0.930 . S
C390 C383 1.409 . S
C390 C389 1.362 . S
H391 C397 0.930 . S
H392 C400 0.930 . S
H393 C401 0.930 . S
H394 C402 0.930 . S
H395 C405 0.930 . S
H396 C406 0.930 . S
C397 H391 0.930 . S
C397 C398 1.355 . S
C397 C399 1.415 . S
C398 C397 1.355 . S
C398 C400 1.419 . S
C399 C397 1.415 . S
C399 C404 1.425 . S
C399 C406 1.409 . S
C400 H392 0.930 . S
C400 C398 1.419 . S
C400 C401 1.362 . S
C401 H393 0.930 . S
C401 C400 1.362 . S
C401 C404 1.409 . S
C402 H394 0.930 . S
C402 C403 1.355 . S
C402 C404 1.415 . S
C403 C402 1.355 . S
C403 C405 1.419 . S
C404 C399 1.425 . S
C404 C401 1.409 . S
C404 C402 1.415 . S
C405 H395 0.930 . S
C405 C403 1.419 . S
C405 C406 1.362 . S
C406 H396 0.930 . S
C406 C399 1.409 . S
C406 C405 1.362 . S
H407 C413 0.930 . S
H408 C416 0.930 . S
H409 C417 0.930 . S
H410 C418 0.930 . S
H411 C421 0.930 . S
H412 C422 0.930 . S
C413 H407 0.930 . S
C413 C414 1.355 . S
C413 C415 1.415 1_565 S
C414 C413 1.355 . S
C414 C416 1.419 1_565 S
C415 C413 1.415 1_545 S
C415 C420 1.425 . S
C415 C422 1.409 . S
C416 H408 0.930 . S
C416 C414 1.419 1_545 S
C416 C417 1.362 . S
C417 H409 0.930 . S
C417 C416 1.362 . S
C417 C420 1.409 . S
C418 H410 0.930 . S
C418 C419 1.355 . S
C418 C420 1.415 . S
C419 C418 1.355 . S
C419 C421 1.419 . S
C420 C415 1.425 . S
C420 C417 1.409 . S
C420 C418 1.415 . S
C421 H411 0.930 . S
C421 C419 1.419 . S
C421 C422 1.362 . S
C422 H412 0.930 . S
C422 C415 1.409 . S
C422 C421 1.362 . S
H423 C429 0.930 . S
H424 C432 0.930 . S
H425 C433 0.930 . S
H426 C434 0.930 . S
H427 C437 0.930 . S
H428 C438 0.930 . S
C429 H423 0.930 . S
C429 C430 1.355 . S
C429 C431 1.415 . S
C430 C429 1.355 . S
C430 C432 1.419 . S
C431 C429 1.415 . S
C431 C436 1.425 . S
C431 C438 1.409 1_545 S
C432 H424 0.930 . S
C432 C430 1.419 . S
C432 C433 1.362 . S
C433 H425 0.930 . S
C433 C432 1.362 . S
C433 C436 1.409 . S
C434 H426 0.930 . S
C434 C435 1.355 1_545 S
C434 C436 1.415 . S
C435 C434 1.355 1_565 S
C435 C437 1.419 . S
C436 C431 1.425 . S
C436 C433 1.409 . S
C436 C434 1.415 . S
C437 H427 0.930 . S
C437 C435 1.419 . S
C437 C438 1.362 . S
C438 H428 0.930 . S
C438 C431 1.409 1_565 S
C438 C437 1.362 . S
H439 C445 0.930 . S
H440 C448 0.930 . S
H441 C449 0.930 . S
H442 C450 0.930 . S
H443 C453 0.930 . S
H444 C454 0.930 1_455 S
C445 H439 0.930 . S
C445 C446 1.355 . S
C445 C447 1.415 1_455 S
C446 C445 1.355 . S
C446 C448 1.419 1_455 S
C447 C445 1.415 1_655 S
C447 C452 1.425 . S
C447 C454 1.409 . S
C448 H440 0.930 . S
C448 C446 1.419 1_655 S
C448 C449 1.362 . S
C449 H441 0.930 . S
C449 C448 1.362 . S
C449 C452 1.409 . S
C450 H442 0.930 . S
C450 C451 1.355 . S
C450 C452 1.415 . S
C451 C450 1.355 . S
C451 C453 1.419 . S
C452 C447 1.425 . S
C452 C449 1.409 . S
C452 C450 1.415 . S
C453 H443 0.930 . S
C453 C451 1.419 . S
C453 C454 1.362 . S
C454 H444 0.930 1_655 S
C454 C447 1.409 . S
C454 C453 1.362 . S
H455 C461 0.930 . S
H456 C464 0.930 . S
H457 C465 0.930 . S
H458 C466 0.930 . S
H459 C469 0.930 . S
H460 C470 0.930 . S
C461 H455 0.930 . S
C461 C462 1.355 . S
C461 C463 1.415 . S
C462 C461 1.355 . S
C462 C464 1.419 . S
C463 C461 1.415 . S
C463 C468 1.425 . S
C463 C470 1.409 . S
C464 H456 0.930 . S
C464 C462 1.419 . S
C464 C465 1.362 . S
C465 H457 0.930 . S
C465 C464 1.362 . S
C465 C468 1.409 . S
C466 H458 0.930 . S
C466 C467 1.355 . S
C466 C468 1.415 . S
C467 C466 1.355 . S
C467 C469 1.419 . S
C468 C463 1.425 . S
C468 C465 1.409 . S
C468 C466 1.415 . S
C469 H459 0.930 . S
C469 C467 1.419 . S
C469 C470 1.362 . S
C470 H460 0.930 . S
C470 C463 1.409 . S
C470 C469 1.362 . S
H471 C477 0.930 . S
H472 C480 0.930 . S
H473 C481 0.930 1_554 S
H474 C482 0.930 . S
H475 C485 0.930 . S
H476 C486 0.930 . S
C477 H471 0.930 . S
C477 C478 1.355 . S
C477 C479 1.415 . S
C478 C477 1.355 . S
C478 C480 1.419 . S
C479 C477 1.415 . S
C479 C484 1.425 . S
C479 C486 1.409 . S
C480 H472 0.930 . S
C480 C478 1.419 . S
C480 C481 1.362 . S
C481 H473 0.930 1_556 S
C481 C480 1.362 . S
C481 C484 1.409 . S
C482 H474 0.930 . S
C482 C483 1.355 . S
C482 C484 1.415 . S
C483 C482 1.355 . S
C483 C485 1.419 . S
C484 C479 1.425 . S
C484 C481 1.409 . S
C484 C482 1.415 . S
C485 H475 0.930 . S
C485 C483 1.419 . S
C485 C486 1.362 . S
C486 H476 0.930 . S
C486 C479 1.409 . S
C486 C485 1.362 . S
H487 C493 0.930 . S
H488 C496 0.930 . S
H489 C497 0.930 . S
H490 C498 0.930 . S
H491 C501 0.930 . S
H492 C502 0.930 . S
C493 H487 0.930 . S
C493 C494 1.355 . S
C493 C495 1.415 . S
C494 C493 1.355 . S
C494 C496 1.419 . S
C495 C493 1.415 . S
C495 C500 1.425 . S
C495 C502 1.409 . S
C496 H488 0.930 . S
C496 C494 1.419 . S
C496 C497 1.362 . S
C497 H489 0.930 . S
C497 C496 1.362 . S
C497 C500 1.409 . S
C498 H490 0.930 . S
C498 C499 1.355 . S
C498 C500 1.415 . S
C499 C498 1.355 . S
C499 C501 1.419 . S
C500 C495 1.425 . S
C500 C497 1.409 . S
C500 C498 1.415 . S
C501 H491 0.930 . S
C501 C499 1.419 . S
C501 C502 1.362 . S
C502 H492 0.930 . S
C502 C495 1.409 . S
C502 C501 1.362 . S
H503 C509 0.930 . S
H504 C512 0.930 . S
H505 C513 0.930 . S
H506 C514 0.930 . S
H507 C517 0.930 . S
H508 C518 0.930 . S
C509 H503 0.930 . S
C509 C510 1.355 . S
C509 C511 1.415 . S
C510 C509 1.355 . S
C510 C512 1.419 . S
C511 C509 1.415 . S
C511 C516 1.425 . S
C511 C518 1.409 . S
C512 H504 0.930 . S
C512 C510 1.419 . S
C512 C513 1.362 . S
C513 H505 0.930 . S
C513 C512 1.362 . S
C513 C516 1.409 . S
C514 H506 0.930 . S
C514 C515 1.355 . S
C514 C516 1.415 . S
C515 C514 1.355 . S
C515 C517 1.419 . S
C516 C511 1.425 . S
C516 C513 1.409 . S
C516 C514 1.415 . S
C517 H507 0.930 . S
C517 C515 1.419 . S
C517 C518 1.362 . S
C518 H508 0.930 . S
C518 C511 1.409 . S
C518 C517 1.362 . S
H519 C525 0.930 . S
H520 C528 0.930 . S
H521 C529 0.930 . S
H522 C530 0.930 . S
H523 C533 0.930 . S
H524 C534 0.930 . S
C525 H519 0.930 . S
C525 C526 1.355 . S
C525 C527 1.415 . S
C526 C525 1.355 . S
C526 C528 1.419 . S
C527 C525 1.415 . S
C527 C532 1.425 . S
C527 C534 1.409 . S
C528 H520 0.930 . S
C528 C526 1.419 . S
C528 C529 1.362 . S
C529 H521 0.930 . S
C529 C528 1.362 . S
C529 C532 1.409 . S
C530 H522 0.930 . S
C530 C531 1.355 . S
C530 C532 1.415 . S
C531 C530 1.355 . S
C531 C533 1.419 . S
C532 C527 1.425 . S
C532 C529 1.409 . S
C532 C530 1.415 . S
C533 H523 0.930 . S
C533 C531 1.419 . S
C533 C534 1.362 . S
C534 H524 0.930 . S
C534 C527 1.409 . S
C534 C533 1.362 . S
H535 C541 0.930 . S
H536 C544 0.930 1_554 S
H537 C545 0.930 . S
H538 C546 0.930 . S
H539 C549 0.930 . S
H540 C550 0.930 . S
C541 H535 0.930 . S
C541 C542 1.355 . S
C541 C543 1.415 . S
C542 C541 1.355 . S
C542 C544 1.419 . S
C543 C541 1.415 . S
C543 C548 1.425 . S
C543 C550 1.409 . S
C544 H536 0.930 1_556 S
C544 C542 1.419 . S
C544 C545 1.362 . S
C545 H537 0.930 . S
C545 C544 1.362 . S
C545 C548 1.409 . S
C546 H538 0.930 . S
C546 C547 1.355 . S
C546 C548 1.415 . S
C547 C546 1.355 . S
C547 C549 1.419 . S
C548 C543 1.425 . S
C548 C545 1.409 . S
C548 C546 1.415 . S
C549 H539 0.930 . S
C549 C547 1.419 . S
C549 C550 1.362 . S
C550 H540 0.930 . S
C550 C543 1.409 . S
C550 C549 1.362 . S
H551 C557 0.930 . S
H552 C560 0.930 . S
H553 C561 0.930 . S
H554 C562 0.930 . S
H555 C565 0.930 1_554 S
H556 C566 0.930 . S
C557 H551 0.930 . S
C557 C558 1.355 . S
C557 C559 1.415 . S
C558 C557 1.355 . S
C558 C560 1.419 . S
C559 C557 1.415 . S
C559 C564 1.425 . S
C559 C566 1.409 . S
C560 H552 0.930 . S
C560 C558 1.419 . S
C560 C561 1.362 . S
C561 H553 0.930 . S
C561 C560 1.362 . S
C561 C564 1.409 . S
C562 H554 0.930 . S
C562 C563 1.355 . S
C562 C564 1.415 . S
C563 C562 1.355 . S
C563 C565 1.419 . S
C564 C559 1.425 . S
C564 C561 1.409 . S
C564 C562 1.415 . S
C565 H555 0.930 1_556 S
C565 C563 1.419 . S
C565 C566 1.362 . S
C566 H556 0.930 . S
C566 C559 1.409 . S
C566 C565 1.362 . S
H567 C573 0.930 . S
H568 C576 0.930 1_565 S
H569 C577 0.930 . S
H570 C578 0.930 1_556 S
H571 C581 0.930 . S
H572 C582 0.930 . S
C573 H567 0.930 . S
C573 C574 1.355 . S
C573 C575 1.415 . S
C574 C573 1.355 . S
C574 C576 1.419 . S
C575 C573 1.415 . S
C575 C580 1.425 . S
C575 C582 1.409 . S
C576 H568 0.930 1_545 S
C576 C574 1.419 . S
C576 C577 1.362 . S
C577 H569 0.930 . S
C577 C576 1.362 . S
C577 C580 1.409 . S
C578 H570 0.930 1_554 S
C578 C579 1.355 . S
C578 C580 1.415 . S
C579 C578 1.355 . S
C579 C581 1.421 . S
C580 C575 1.425 . S
C580 C577 1.409 . S
C580 C578 1.415 . S
C581 H571 0.930 . S
C581 C579 1.421 . S
C581 C582 1.362 . S
C582 H572 0.930 . S
C582 C575 1.409 . S
C582 C581 1.362 . S
H583 C589 0.930 . S
H584 C592 0.930 . S
H585 C593 0.930 . S
H586 C594 0.930 . S
H587 C597 0.930 . S
H588 C598 0.930 . S
C589 H583 0.930 . S
C589 C590 1.355 . S
C589 C591 1.415 . S
C590 C589 1.355 . S
C590 C592 1.419 1_554 S
C591 C589 1.415 . S
C591 C596 1.425 . S
C591 C598 1.409 . S
C592 H584 0.930 . S
C592 C590 1.419 1_556 S
C592 C593 1.362 . S
C593 H585 0.930 . S
C593 C592 1.362 . S
C593 C596 1.409 1_556 S
C594 H586 0.930 . S
C594 C595 1.355 1_546 S
C594 C596 1.415 1_556 S
C595 C594 1.355 1_564 S
C595 C597 1.419 . S
C596 C591 1.425 . S
C596 C593 1.409 1_554 S
C596 C594 1.415 1_554 S
C597 H587 0.930 . S
C597 C595 1.419 . S
C597 C598 1.362 1_565 S
C598 H588 0.930 . S
C598 C591 1.409 . S
C598 C597 1.362 1_545 S
H599 C605 0.930 . S
H600 C608 0.930 . S
H601 C609 0.930 . S
H602 C610 0.930 . S
H603 C613 0.930 . S
H604 C614 0.930 . S
C605 H599 0.930 . S
C605 C606 1.355 . S
C605 C607 1.415 . S
C606 C605 1.355 . S
C606 C608 1.419 . S
C607 C605 1.415 . S
C607 C612 1.425 . S
C607 C614 1.409 . S
C608 H600 0.930 . S
C608 C606 1.419 . S
C608 C609 1.362 . S
C609 H601 0.930 . S
C609 C608 1.362 . S
C609 C612 1.409 . S
C610 H602 0.930 . S
C610 C611 1.355 1_554 S
C610 C612 1.415 1_455 S
C611 C610 1.355 1_556 S
C611 C613 1.419 1_455 S
C612 C607 1.425 . S
C612 C609 1.409 . S
C612 C610 1.415 1_655 S
C613 H603 0.930 . S
C613 C611 1.419 1_655 S
C613 C614 1.362 1_556 S
C614 H604 0.930 . S
C614 C607 1.409 . S
C614 C613 1.362 1_554 S
H615 C621 0.930 . S
H616 C624 0.930 . S
H617 C625 0.930 . S
H618 C626 0.930 . S
H619 C629 0.930 . S
H620 C630 0.930 . S
C621 H615 0.930 . S
C621 C622 1.355 . S
C621 C623 1.415 . S
C622 C621 1.355 . S
C622 C624 1.419 . S
C623 C621 1.415 . S
C623 C628 1.425 . S
C623 C630 1.409 . S
C624 H616 0.930 . S
C624 C622 1.419 . S
C624 C625 1.362 . S
C625 H617 0.930 . S
C625 C624 1.362 . S
C625 C628 1.409 . S
C626 H618 0.930 . S
C626 C627 1.355 . S
C626 C628 1.415 . S
C627 C626 1.355 . S
C627 C629 1.419 . S
C628 C623 1.425 . S
C628 C625 1.409 . S
C628 C626 1.415 . S
C629 H619 0.930 . S
C629 C627 1.419 . S
C629 C630 1.362 . S
C630 H620 0.930 . S
C630 C623 1.409 . S
C630 C629 1.362 . S
H631 C637 0.930 . S
H632 C640 0.930 . S
H633 C641 0.930 . S
H634 C642 0.930 . S
H635 C645 0.930 . S
H636 C646 0.930 . S
C637 H631 0.930 . S
C637 C638 1.355 . S
C637 C639 1.415 . S
C638 C637 1.355 . S
C638 C640 1.419 . S
C639 C637 1.415 . S
C639 C644 1.425 . S
C639 C646 1.409 . S
C640 H632 0.930 . S
C640 C638 1.419 . S
C640 C641 1.362 . S
C641 H633 0.930 . S
C641 C640 1.362 . S
C641 C644 1.409 . S
C642 H634 0.930 . S
C642 C643 1.355 . S
C642 C644 1.415 . S
C643 C642 1.355 . S
C643 C645 1.419 . S
C644 C639 1.425 . S
C644 C641 1.409 . S
C644 C642 1.415 . S
C645 H635 0.930 . S
C645 C643 1.419 . S
C645 C646 1.362 . S
C646 H636 0.930 . S
C646 C639 1.409 . S
C646 C645 1.362 . S
H647 C653 0.930 . S
H648 C656 0.930 . S
H649 C657 0.930 . S
H650 C658 0.930 . S
H651 C661 0.930 . S
H652 C662 0.930 . S
C653 H647 0.930 . S
C653 C654 1.355 . S
C653 C655 1.415 . S
C654 C653 1.355 . S
C654 C656 1.419 . S
C655 C653 1.415 . S
C655 C660 1.425 . S
C655 C662 1.409 . S
C656 H648 0.930 . S
C656 C654 1.419 . S
C656 C657 1.362 . S
C657 H649 0.930 . S
C657 C656 1.362 . S
C657 C660 1.409 . S
C658 H650 0.930 . S
C658 C659 1.355 . S
C658 C660 1.415 . S
C659 C658 1.355 . S
C659 C661 1.419 . S
C660 C655 1.425 . S
C660 C657 1.409 . S
C660 C658 1.415 . S
C661 H651 0.930 . S
C661 C659 1.419 . S
C661 C662 1.362 . S
C662 H652 0.930 . S
C662 C655 1.409 . S
C662 C661 1.362 . S
H663 C669 0.930 . S
H664 C672 0.930 . S
H665 C673 0.930 . S
H666 C674 0.930 . S
H667 C677 0.930 . S
H668 C678 0.930 . S
C669 H663 0.930 . S
C669 C670 1.355 . S
C669 C671 1.415 . S
C670 C669 1.355 . S
C670 C672 1.419 . S
C671 C669 1.415 . S
C671 C676 1.425 . S
C671 C678 1.409 . S
C672 H664 0.930 . S
C672 C670 1.419 . S
C672 C673 1.362 . S
C673 H665 0.930 . S
C673 C672 1.362 . S
C673 C676 1.409 . S
C674 H666 0.930 . S
C674 C675 1.355 . S
C674 C676 1.415 . S
C675 C674 1.355 . S
C675 C677 1.419 . S
C676 C671 1.425 . S
C676 C673 1.409 . S
C676 C674 1.415 . S
C677 H667 0.930 . S
C677 C675 1.419 . S
C677 C678 1.362 . S
C678 H668 0.930 . S
C678 C671 1.409 . S
C678 C677 1.362 . S
H679 C685 0.930 . S
H680 C688 0.930 . S
H681 C689 0.930 . S
H682 C690 0.930 . S
H683 C693 0.930 . S
H684 C694 0.930 . S
C685 H679 0.930 . S
C685 C686 1.355 . S
C685 C687 1.415 . S
C686 C685 1.355 . S
C686 C688 1.419 . S
C687 C685 1.415 . S
C687 C692 1.425 . S
C687 C694 1.409 . S
C688 H680 0.930 . S
C688 C686 1.419 . S
C688 C689 1.362 . S
C689 H681 0.930 . S
C689 C688 1.362 . S
C689 C692 1.409 . S
C690 H682 0.930 . S
C690 C691 1.355 . S
C690 C692 1.415 . S
C691 C690 1.355 . S
C691 C693 1.419 . S
C692 C687 1.425 . S
C692 C689 1.409 . S
C692 C690 1.415 . S
C693 H683 0.930 . S
C693 C691 1.419 . S
C693 C694 1.362 . S
C694 H684 0.930 . S
C694 C687 1.409 . S
C694 C693 1.362 . S
H695 C701 0.930 . S
H696 C704 0.930 . S
H697 C705 0.930 . S
H698 C706 0.930 . S
H699 C709 0.930 . S
H700 C710 0.930 . S
C701 H695 0.930 . S
C701 C702 1.355 . S
C701 C703 1.415 . S
C702 C701 1.355 . S
C702 C704 1.419 . S
C703 C701 1.415 . S
C703 C708 1.425 . S
C703 C710 1.409 . S
C704 H696 0.930 . S
C704 C702 1.419 . S
C704 C705 1.362 . S
C705 H697 0.930 . S
C705 C704 1.362 . S
C705 C708 1.409 . S
C706 H698 0.930 . S
C706 C707 1.355 . S
C706 C708 1.415 . S
C707 C706 1.355 . S
C707 C709 1.419 . S
C708 C703 1.425 . S
C708 C705 1.409 . S
C708 C706 1.415 . S
C709 H699 0.930 . S
C709 C707 1.419 . S
C709 C710 1.362 . S
C710 H700 0.930 . S
C710 C703 1.409 . S
C710 C709 1.362 . S
H711 C717 0.930 . S
H712 C720 0.930 . S
H713 C721 0.930 . S
H714 C722 0.930 . S
H715 C725 0.930 . S
H716 C726 0.930 . S
C717 H711 0.930 . S
C717 C718 1.355 . S
C717 C719 1.415 . S
C718 C717 1.355 . S
C718 C720 1.419 . S
C719 C717 1.415 . S
C719 C724 1.425 . S
C719 C726 1.409 . S
C720 H712 0.930 . S
C720 C718 1.419 . S
C720 C721 1.362 . S
C721 H713 0.930 . S
C721 C720 1.362 . S
C721 C724 1.409 . S
C722 H714 0.930 . S
C722 C723 1.355 . S
C722 C724 1.415 . S
C723 C722 1.355 . S
C723 C725 1.419 . S
C724 C719 1.425 . S
C724 C721 1.409 . S
C724 C722 1.415 . S
C725 H715 0.930 . S
C725 C723 1.419 . S
C725 C726 1.362 . S
C726 H716 0.930 . S
C726 C719 1.409 . S
C726 C725 1.362 . S
H727 C733 0.930 . S
H728 C736 0.930 . S
H729 C737 0.930 . S
H730 C738 0.930 . S
H731 C741 0.930 . S
H732 C742 0.930 . S
C733 H727 0.930 . S
C733 C734 1.355 . S
C733 C735 1.415 . S
C734 C733 1.355 . S
C734 C736 1.419 . S
C735 C733 1.415 . S
C735 C740 1.425 . S
C735 C742 1.409 . S
C736 H728 0.930 . S
C736 C734 1.419 . S
C736 C737 1.362 . S
C737 H729 0.930 . S
C737 C736 1.362 . S
C737 C740 1.409 . S
C738 H730 0.930 . S
C738 C739 1.355 . S
C738 C740 1.415 . S
C739 C738 1.355 . S
C739 C741 1.419 . S
C740 C735 1.425 . S
C740 C737 1.409 . S
C740 C738 1.415 . S
C741 H731 0.930 . S
C741 C739 1.419 . S
C741 C742 1.362 . S
C742 H732 0.930 . S
C742 C735 1.409 . S
C742 C741 1.362 . S
H743 C749 0.930 . S
H744 C752 0.930 . S
H745 C753 0.930 . S
H746 C754 0.930 . S
H747 C757 0.930 . S
H748 C758 0.930 . S
C749 H743 0.930 . S
C749 C750 1.355 . S
C749 C751 1.415 . S
C750 C749 1.355 . S
C750 C752 1.419 . S
C751 C749 1.415 . S
C751 C756 1.425 . S
C751 C758 1.409 . S
C752 H744 0.930 . S
C752 C750 1.419 . S
C752 C753 1.362 . S
C753 H745 0.930 . S
C753 C752 1.362 . S
C753 C756 1.409 . S
C754 H746 0.930 . S
C754 C755 1.355 . S
C754 C756 1.415 . S
C755 C754 1.355 . S
C755 C757 1.419 . S
C756 C751 1.425 . S
C756 C753 1.409 . S
C756 C754 1.415 . S
C757 H747 0.930 . S
C757 C755 1.419 . S
C757 C758 1.362 . S
C758 H748 0.930 . S
C758 C751 1.409 . S
C758 C757 1.362 . S
H759 C765 0.930 . S
H760 C768 0.930 . S
H761 C769 0.930 . S
H762 C770 0.930 1_554 S
H763 C773 0.930 1_554 S
H764 C774 0.930 . S
C765 H759 0.930 . S
C765 C766 1.355 . S
C765 C767 1.415 . S
C766 C765 1.355 . S
C766 C768 1.419 . S
C767 C765 1.415 . S
C767 C772 1.425 . S
C767 C774 1.409 . S
C768 H760 0.930 . S
C768 C766 1.419 . S
C768 C769 1.362 . S
C769 H761 0.930 . S
C769 C768 1.362 . S
C769 C772 1.409 . S
C770 H762 0.930 1_556 S
C770 C771 1.355 1_556 S
C770 C772 1.415 . S
C771 C770 1.355 1_554 S
C771 C773 1.419 1_554 S
C772 C767 1.425 . S
C772 C769 1.409 . S
C772 C770 1.415 . S
C773 H763 0.930 1_556 S
C773 C771 1.419 1_556 S
C773 C774 1.362 . S
C774 H764 0.930 . S
C774 C767 1.409 . S
C774 C773 1.362 . S
H775 C781 0.927 1_554 S
H776 C784 0.930 1_554 S
H777 C785 0.930 . S
H778 C786 0.930 . S
H779 C789 0.930 . S
H780 C790 0.930 . S
C781 H775 0.927 1_556 S
C781 C782 1.355 1_556 S
C781 C783 1.415 . S
C782 C781 1.355 1_554 S
C782 C784 1.419 1_554 S
C783 C781 1.415 . S
C783 C788 1.425 . S
C783 C790 1.409 . S
C784 H776 0.930 1_556 S
C784 C782 1.419 1_556 S
C784 C785 1.362 . S
C785 H777 0.930 . S
C785 C784 1.362 . S
C785 C788 1.409 . S
C786 H778 0.930 . S
C786 C787 1.355 . S
C786 C788 1.415 . S
C787 C786 1.355 . S
C787 C789 1.419 . S
C788 C783 1.425 . S
C788 C785 1.409 . S
C788 C786 1.415 . S
C789 H779 0.930 . S
C789 C787 1.419 . S
C789 C790 1.362 . S
C790 H780 0.930 . S
C790 C783 1.409 . S
C790 C789 1.362 . S
H791 C797 0.930 . S
H792 C800 0.930 . S
H793 C801 0.930 . S
H794 C802 0.930 1_554 S
H795 C805 0.930 1_554 S
H796 C806 0.930 . S
C797 H791 0.930 . S
C797 C798 1.355 . S
C797 C799 1.415 . S
C798 C797 1.355 . S
C798 C800 1.419 . S
C799 C797 1.415 . S
C799 C804 1.425 . S
C799 C806 1.409 . S
C800 H792 0.930 . S
C800 C798 1.419 . S
C800 C801 1.362 . S
C801 H793 0.930 . S
C801 C800 1.362 . S
C801 C804 1.409 . S
C802 H794 0.930 1_556 S
C802 C803 1.355 1_556 S
C802 C804 1.415 . S
C803 C802 1.355 1_554 S
C803 C805 1.419 1_554 S
C804 C799 1.425 . S
C804 C801 1.409 . S
C804 C802 1.415 . S
C805 H795 0.930 1_556 S
C805 C803 1.419 1_556 S
C805 C806 1.362 . S
C806 H796 0.930 . S
C806 C799 1.409 . S
C806 C805 1.362 . S
H807 C813 0.930 . S
H808 C816 0.930 . S
H809 C817 0.930 . S
H810 C818 0.930 . S
H811 C821 0.930 1_556 S
H812 C822 0.930 . S
C813 H807 0.930 . S
C813 C814 1.355 . S
C813 C815 1.415 . S
C814 C813 1.355 . S
C814 C816 1.419 . S
C815 C813 1.415 . S
C815 C820 1.425 . S
C815 C822 1.409 . S
C816 H808 0.930 . S
C816 C814 1.419 . S
C816 C817 1.362 . S
C817 H809 0.930 . S
C817 C816 1.362 . S
C817 C820 1.409 . S
C818 H810 0.930 . S
C818 C819 1.355 1_554 S
C818 C820 1.415 . S
C819 C818 1.355 1_556 S
C819 C821 1.419 1_556 S
C820 C815 1.425 . S
C820 C817 1.409 . S
C820 C818 1.415 . S
C821 H811 0.930 1_554 S
C821 C819 1.419 1_554 S
C821 C822 1.362 . S
C822 H812 0.930 . S
C822 C815 1.409 . S
C822 C821 1.362 . S
H823 C829 0.930 . S
H824 C832 0.930 . S
H825 C833 0.930 . S
H826 C834 0.930 1_556 S
H827 C837 0.930 1_556 S
H828 C838 0.930 . S
C829 H823 0.930 . S
C829 C830 1.355 . S
C829 C831 1.415 . S
C830 C829 1.355 . S
C830 C832 1.419 . S
C831 C829 1.415 . S
C831 C836 1.425 . S
C831 C838 1.409 . S
C832 H824 0.930 . S
C832 C830 1.419 . S
C832 C833 1.362 . S
C833 H825 0.930 . S
C833 C832 1.362 . S
C833 C836 1.409 . S
C834 H826 0.930 1_554 S
C834 C835 1.355 1_554 S
C834 C836 1.415 . S
C835 C834 1.355 1_556 S
C835 C837 1.419 1_556 S
C836 C831 1.425 . S
C836 C833 1.409 . S
C836 C834 1.415 . S
C837 H827 0.930 1_554 S
C837 C835 1.419 1_554 S
C837 C838 1.362 . S
C838 H828 0.930 . S
C838 C831 1.409 . S
C838 C837 1.362 . S
H839 C845 0.930 . S
H840 C848 0.930 . S
H841 C849 0.930 . S
H842 C850 0.930 1_556 S
H843 C853 0.930 1_556 S
H844 C854 0.930 . S
C845 H839 0.930 . S
C845 C846 1.355 . S
C845 C847 1.415 . S
C846 C845 1.355 . S
C846 C848 1.419 . S
C847 C845 1.415 . S
C847 C852 1.425 . S
C847 C854 1.409 . S
C848 H840 0.930 . S
C848 C846 1.419 . S
C848 C849 1.362 . S
C849 H841 0.930 . S
C849 C848 1.362 . S
C849 C852 1.409 . S
C850 H842 0.930 1_554 S
C850 C851 1.355 1_554 S
C850 C852 1.415 . S
C851 C850 1.355 1_556 S
C851 C853 1.419 1_556 S
C852 C847 1.425 . S
C852 C849 1.409 . S
C852 C850 1.415 . S
C853 H843 0.930 1_554 S
C853 C851 1.419 1_554 S
C853 C854 1.362 . S
C854 H844 0.930 . S
C854 C847 1.409 . S
C854 C853 1.362 . S
C286 C20 1.251 . S
C291 C153 1.273 . S
C302 C184 1.257 . S
C307 C51 1.307 1_545 S
C318 C82 1.302 . S
C323 C122 1.319 . S
C334 C32 2.200 . S
C339 C93 2.480 . S
C350 C63 2.146 . S
C355 C124 2.455 . S
C366 C1 2.113 1_554 S
C371 C155 2.443 . S
C382 C113 1.333 . S
C387 C246 1.327 . S
C398 C277 1.251 . S
C403 C144 1.301 . S
C414 C215 1.266 . S
C419 C175 1.248 . S
C430 C125 2.112 . S
C435 C186 2.443 . S
C446 C217 2.478 . S
C451 C156 2.190 . S
C462 C248 2.445 . S
C467 C94 2.120 . S
C478 C206 1.334 . S
C483 C60 1.299 . S
C494 C237 1.302 . S
C499 C91 1.252 . S
C510 C29 1.244 . S
C515 C268 1.241 . S
C526 C0 2.447 1_556 S
C531 C218 2.118 . S
C542 C31 2.476 1_556 S
C547 C249 2.194 . S
C558 C187 2.193 . S
C563 C62 2.476 1_556 S
C574 C64 1.574 1_545 S
C579 C10 1.646 1_554 S
C590 C2 1.504 1_655 S
C595 C41 1.662 1_554 S
C606 C33 1.588 . S
C611 C72 1.653 . S
C622 C157 1.599 . S
C627 C103 1.670 . S
C638 C95 1.539 . S
C643 C134 1.647 . S
C654 C126 1.528 . S
C659 C165 1.649 . S
C670 C196 1.661 . S
C675 C250 1.505 . S
C686 C227 1.647 . S
C691 C188 1.572 . S
C702 C258 1.680 . S
C707 C219 1.595 . S
C718 C30 1.044 . S
C723 C19 1.043 . S
C734 C50 1.043 . S
C739 C61 1.043 . S
C750 C92 1.038 . S
C755 C81 1.038 . S
C766 C112 1.012 . S
C771 C123 1.016 . S
C782 C154 1.044 . S
C787 C143 1.043 . S
C798 C174 0.989 . S
C803 C185 0.997 . S
C814 C216 0.980 . S
C819 C205 0.966 . S
C830 C247 1.040 . S
C835 C236 1.039 . S
C846 C278 1.037 . S
C851 C267 1.036 . S
