# Generated by pormake.
# Topology qtz-e, (6)-cn, num edge types: 1
# Building blocks:
#     Node 0, Type 0, BuildingBlock: KUMBOL_clean_sbu_0, # of connection points: 6
#     Node 1, Type 0, BuildingBlock: KUMBOL_clean_sbu_0, # of connection points: 6
#     Node 2, Type 0, BuildingBlock: KUMBOL_clean_sbu_0, # of connection points: 6
#     Node 3, Type 0, BuildingBlock: KUMBOL_clean_sbu_0, # of connection points: 6
#     Node 4, Type 0, BuildingBlock: KUMBOL_clean_sbu_0, # of connection points: 6
#     Node 5, Type 0, BuildingBlock: KUMBOL_clean_sbu_0, # of connection points: 6
#     Edge 6, Type (0, 0), BuildingBlock: EYOCIG_clean_linker_4, # of connection points: 2
#     Edge 7, Type (0, 0), BuildingBlock: EYOCIG_clean_linker_4, # of connection points: 2
#     Edge 8, Type (0, 0), BuildingBlock: EYOCIG_clean_linker_4, # of connection points: 2
#     Edge 9, Type (0, 0), BuildingBlock: EYOCIG_clean_linker_4, # of connection points: 2
#     Edge 10, Type (0, 0), BuildingBlock: EYOCIG_clean_linker_4, # of connection points: 2
#     Edge 11, Type (0, 0), BuildingBlock: EYOCIG_clean_linker_4, # of connection points: 2
#     Edge 12, Type (0, 0), BuildingBlock: EYOCIG_clean_linker_4, # of connection points: 2
#     Edge 13, Type (0, 0), BuildingBlock: EYOCIG_clean_linker_4, # of connection points: 2
#     Edge 14, Type (0, 0), BuildingBlock: EYOCIG_clean_linker_4, # of connection points: 2
#     Edge 15, Type (0, 0), BuildingBlock: EYOCIG_clean_linker_4, # of connection points: 2
#     Edge 16, Type (0, 0), BuildingBlock: EYOCIG_clean_linker_4, # of connection points: 2
#     Edge 17, Type (0, 0), BuildingBlock: EYOCIG_clean_linker_4, # of connection points: 2
#     Edge 18, Type (0, 0), BuildingBlock: EYOCIG_clean_linker_4, # of connection points: 2
#     Edge 19, Type (0, 0), BuildingBlock: EYOCIG_clean_linker_4, # of connection points: 2
#     Edge 20, Type (0, 0), BuildingBlock: EYOCIG_clean_linker_4, # of connection points: 2
#     Edge 21, Type (0, 0), BuildingBlock: EYOCIG_clean_linker_4, # of connection points: 2
#     Edge 22, Type (0, 0), BuildingBlock: EYOCIG_clean_linker_4, # of connection points: 2
#     Edge 23, Type (0, 0), BuildingBlock: EYOCIG_clean_linker_4, # of connection points: 2
# Relax obj value: 0.062
# Max RMSD: 0.152
# Mean RMSD: 0.152
data_MOF--net-qtz-e--node1-KUMBOL_clean_sbu_0--edge1-EYOCIG_clean_linker_4
_symmetry_space_group_name_H-M    P1
_symmetry_Int_Tables_number       1
_symmetry_cell_setting            triclinic
loop_
_symmetry_equiv_pos_as_xyz
'x, y, z'
_cell_length_a     23.874109
_cell_length_b     23.876755
_cell_length_c     39.893705
_cell_angle_alpha  90.001656
_cell_angle_beta   89.9991
_cell_angle_gamma 120.00709
loop_
_atom_site_label
_atom_site_type_symbol
_atom_site_fract_x
_atom_site_fract_y
_atom_site_fract_z
_atom_type_partial_charge
Gd0 Gd 0.19425 0.37403 0.9955 0.0
Gd1 Gd 0.26491 0.52065 0.04962 0.0
C2 C 0.41912 0.72335 0.01726 0.0
C3 C 0.51332 0.73847 0.0483 0.0
C4 C 0.41083 0.63801 0.05346 0.0
C5 C 0.38271 0.66049 0.03072 0.0
C6 C 0.47626 0.67693 0.0627 0.0
C7 C 0.48478 0.76168 0.02568 0.0
C8 C 0.38791 0.74671 0.99666 0.0
C9 C 0.32158 0.70862 0.99094 0.0
N10 N 0.31887 0.62258 0.02338 0.0
C11 C 0.28743 0.64681 1.00503 0.0
H12 H 0.23604 0.61818 1.00066 0.0
C13 C 0.39793 0.55608 0.09142 0.0
N14 N 0.37369 0.57824 0.06698 0.0
C15 C 0.46271 0.59279 0.10117 0.0
C16 C 0.5022 0.65325 0.08656 0.0
H17 H 0.36766 0.50941 0.10281 0.0
H18 H 0.51357 0.80987 0.01538 0.0
H19 H 0.27015 0.32382 0.04915 0.0
H20 H 0.41415 0.79474 0.98587 0.0
H21 H 0.29662 0.72689 0.97577 0.0
H22 H 0.56376 0.76898 0.05496 0.0
H23 H 0.06082 0.33025 0.95065 0.0
H24 H 0.12948 0.1447 0.09251 0.0
H25 H 0.24272 0.23347 0.0874 0.0
H26 H 0.9334 0.09703 0.0361 0.0
H27 H 0.4821 0.57452 0.12001 0.0
H28 H 0.5523 0.68167 0.09428 0.0
H29 H 0.01407 0.09454 0.07353 0.0
H30 H 0.94678 0.24208 0.94907 0.0
N31 N 0.17328 0.28792 0.03227 0.0
C32 C 0.1412 0.18446 0.07551 0.0
C33 C 0.20516 0.23436 0.07262 0.0
C34 C 0.09334 0.18586 0.05593 0.0
C35 C 0.11117 0.23887 0.03425 0.0
C36 C 0.22054 0.28562 0.05059 0.0
N37 N 0.08538 0.29119 0.99232 0.0
C38 C 0.06576 0.24056 0.01357 0.0
C39 C 0.97958 0.24125 0.96753 0.0
C40 C 0.95785 0.19026 0.99036 0.0
C41 C 0.04407 0.29109 0.96855 0.0
C42 C 1.0013 0.18892 0.01345 0.0
H43 H 0.90796 0.15149 0.98943 0.0
O44 O 0.18115 0.34924 0.94233 0.0
O45 O 0.25422 0.47932 0.99935 0.0
O46 O 0.17424 0.50934 0.025 0.0
O47 O 0.11708 0.40491 1.00144 0.0
O48 O 0.20258 0.44418 0.95521 0.0
O49 O 0.24935 0.33484 0.97103 0.0
O50 O 0.25477 0.53182 0.10277 0.0
O51 O 0.19387 0.41452 0.04619 0.0
O52 O 0.30075 0.40741 0.00974 0.0
O53 O 0.34873 0.51442 0.02856 0.0
O54 O 0.24965 0.44559 0.08867 0.0
O55 O 0.22452 0.57943 0.06639 0.0
C56 C 0.24327 0.49535 0.9712 0.0
C57 C 0.98278 0.13691 0.03565 0.0
C58 C 0.02872 0.13545 0.05691 0.0
C59 C 0.22376 0.33037 0.94152 0.0
C60 C 0.20821 0.2727 0.9206 0.0
C61 C 0.15685 0.21182 0.92963 0.0
C62 C 0.24389 0.27842 0.89094 0.0
C63 C 0.22796 0.22347 0.87074 0.0
C64 C 0.14108 0.15768 0.90975 0.0
C65 C 0.17622 0.16337 0.88062 0.0
C66 C 0.12208 0.46098 0.01103 0.0
C67 C 0.20175 0.39636 0.07473 0.0
C68 C 0.23821 0.57561 0.09772 0.0
C69 C 0.27766 0.63682 0.11572 0.0
C70 C 0.3143 0.69575 0.09857 0.0
C71 C 0.28156 0.63566 0.1507 0.0
C72 C 0.32158 0.69252 0.16829 0.0
C73 C 0.35543 0.75215 0.11617 0.0
C74 C 0.35906 0.75068 0.15103 0.0
C75 C 0.3522 0.46389 0.0182 0.0
H76 H 0.1288 0.20622 0.95201 0.0
H77 H 0.28366 0.32526 0.88367 0.0
H78 H 0.10128 0.11091 0.91697 0.0
H79 H 0.16293 0.1205 0.86576 0.0
H80 H 0.31138 0.69855 0.07169 0.0
H81 H 0.25249 0.59076 0.16423 0.0
H82 H 0.38373 0.79722 0.1028 0.0
H83 H 0.38954 0.79515 0.16454 0.0
Gd84 Gd 0.82641 0.19109 0.32886 0.0
Gd85 Gd 0.75042 0.26173 0.38296 0.0
C86 C 0.70195 0.41591 0.35058 0.0
C87 C 0.78101 0.5101 0.38164 0.0
C88 C 0.77897 0.40762 0.3868 0.0
C89 C 0.72839 0.37951 0.36405 0.0
C90 C 0.80549 0.47304 0.39604 0.0
C91 C 0.72928 0.48157 0.35901 0.0
C92 C 0.64738 0.38471 0.32996 0.0
C93 C 0.61915 0.31839 0.32424 0.0
N94 N 0.70246 0.31568 0.3567 0.0
C95 C 0.64681 0.28425 0.33834 0.0
H96 H 0.62403 0.23286 0.33397 0.0
C97 C 0.84798 0.39472 0.42478 0.0
N98 N 0.8016 0.37049 0.40034 0.0
C99 C 0.87604 0.45948 0.43454 0.0
C100 C 0.85509 0.49897 0.41993 0.0
H101 H 0.86437 0.36445 0.43618 0.0
H102 H 0.70989 0.51035 0.3487 0.0
H103 H 0.95252 0.26702 0.38253 0.0
H104 H 0.62561 0.41095 0.31917 0.0
H105 H 0.57593 0.29344 0.30906 0.0
H106 H 0.80094 0.56053 0.38831 0.0
H107 H 0.73678 0.05766 0.28401 0.0
H108 H 0.99098 0.1264 0.42592 0.0
H109 H 0.01543 0.23961 0.4208 0.0
H110 H 0.84259 0.93031 0.3695 0.0
H111 H 0.91369 0.47886 0.45339 0.0
H112 H 0.87678 0.54907 0.42764 0.0
H113 H 0.92574 0.01099 0.40693 0.0
H114 H 0.71093 0.94364 0.28244 0.0
N115 N 0.89155 0.17015 0.36565 0.0
C116 C 0.96294 0.13811 0.4089 0.0
C117 C 0.97698 0.20205 0.40601 0.0
C118 C 0.91368 0.09023 0.38933 0.0
C119 C 0.8785 0.10805 0.36763 0.0
C120 C 0.9411 0.21741 0.38397 0.0
N121 N 0.8004 0.08224 0.32568 0.0
C122 C 0.8314 0.06264 0.34695 0.0
C123 C 0.74455 0.97644 0.30091 0.0
C124 C 0.7738 0.95473 0.32374 0.0
C125 C 0.75919 0.04092 0.30192 0.0
C126 C 0.81859 0.99818 0.34683 0.0
H127 H 0.76268 0.90485 0.32281 0.0
O128 O 0.83811 0.17798 0.27569 0.0
O129 O 0.78109 0.25105 0.3327 0.0
O130 O 0.67105 0.17106 0.35833 0.0
O131 O 0.71834 0.11391 0.33479 0.0
O132 O 0.76459 0.1994 0.28857 0.0
O133 O 0.92073 0.24616 0.3044 0.0
O134 O 0.72905 0.25157 0.43611 0.0
O135 O 0.7855 0.19069 0.37954 0.0
O136 O 0.89954 0.29759 0.34309 0.0
O137 O 0.8405 0.34554 0.36192 0.0
O138 O 0.81017 0.24644 0.42203 0.0
O139 O 0.65121 0.22134 0.39971 0.0
C140 C 0.75412 0.2401 0.30454 0.0
C141 C 0.85208 0.97969 0.36904 0.0
C142 C 0.89947 0.02563 0.39031 0.0
C143 C 0.89959 0.22058 0.27489 0.0
C144 C 0.94172 0.20503 0.25397 0.0
C145 C 0.95124 0.15368 0.263 0.0
C146 C 0.97167 0.24069 0.2243 0.0
C147 C 0.01068 0.22475 0.2041 0.0
C148 C 0.98961 0.13791 0.24312 0.0
C149 C 0.01905 0.17303 0.21398 0.0
C150 C 0.66726 0.11891 0.34436 0.0
C151 C 0.81152 0.19856 0.40809 0.0
C152 C 0.66869 0.23502 0.43104 0.0
C153 C 0.64693 0.27447 0.44902 0.0
C154 C 0.62464 0.31109 0.43186 0.0
C155 C 0.65199 0.27839 0.48401 0.0
C156 C 0.63516 0.31843 0.50159 0.0
C157 C 0.60936 0.35223 0.44945 0.0
C158 C 0.61447 0.35588 0.48431 0.0
C159 C 0.8945 0.34902 0.35156 0.0
H160 H 0.9288 0.12565 0.28539 0.0
H161 H 0.96459 0.28044 0.21702 0.0
H162 H 0.99658 0.09811 0.25034 0.0
H163 H 0.04862 0.15973 0.19913 0.0
H164 H 0.61891 0.30815 0.40498 0.0
H165 H 0.66783 0.24934 0.49755 0.0
H166 H 0.5926 0.38052 0.43608 0.0
H167 H 0.60049 0.38638 0.49781 0.0
Gd168 Gd 0.64138 0.8232 0.6622 0.0
Gd169 Gd 0.49475 0.74724 0.71632 0.0
C170 C 0.29207 0.69886 0.68397 0.0
C171 C 0.27701 0.77793 0.71504 0.0
C172 C 0.37744 0.77585 0.72019 0.0
C173 C 0.35493 0.72528 0.69743 0.0
C174 C 0.33855 0.80238 0.72944 0.0
C175 C 0.25378 0.72621 0.69241 0.0
C176 C 0.26868 0.6443 0.66335 0.0
C177 C 0.30674 0.61605 0.65761 0.0
N178 N 0.39282 0.69933 0.69007 0.0
C179 C 0.36855 0.64368 0.6717 0.0
H180 H 0.39716 0.62089 0.66733 0.0
C181 C 0.45939 0.84483 0.75816 0.0
N182 N 0.43721 0.79846 0.73371 0.0
C183 C 0.42271 0.8729 0.76793 0.0
C184 C 0.36226 0.85197 0.75332 0.0
H185 H 0.50606 0.86119 0.76956 0.0
H186 H 0.20558 0.70683 0.68211 0.0
H187 H 0.69158 0.94929 0.71587 0.0
H188 H 0.22065 0.62254 0.65256 0.0
H189 H 0.28844 0.57283 0.64243 0.0
H190 H 0.24652 0.79787 0.72172 0.0
H191 H 0.68514 0.73355 0.61735 0.0
H192 H 0.87072 0.98778 0.75923 0.0
H193 H 0.78193 0.01221 0.75412 0.0
H194 H 0.91838 0.8394 0.70281 0.0
H195 H 0.441 0.91054 0.78678 0.0
H196 H 0.33386 0.87367 0.76105 0.0
H197 H 0.92088 0.92256 0.74024 0.0
H198 H 0.77331 0.7077 0.61578 0.0
N199 N 0.72748 0.88834 0.69898 0.0
C200 C 0.83095 0.95974 0.74222 0.0
C201 C 0.78104 0.97377 0.73933 0.0
C202 C 0.82956 0.91048 0.72264 0.0
C203 C 0.77654 0.8753 0.70096 0.0
C204 C 0.72978 0.93788 0.7173 0.0
N205 N 0.72421 0.79718 0.65902 0.0
C206 C 0.77484 0.8282 0.68028 0.0
C207 C 0.77414 0.74133 0.63424 0.0
C208 C 0.82514 0.7706 0.65707 0.0
C209 C 0.72431 0.75597 0.63526 0.0
C210 C 0.82649 0.81539 0.68015 0.0
H211 H 0.86391 0.75948 0.65613 0.0
O212 O 0.66616 0.83487 0.60903 0.0
O213 O 0.53607 0.7779 0.66605 0.0
O214 O 0.50601 0.66786 0.69169 0.0
O215 O 0.61046 0.71513 0.66813 0.0
O216 O 0.57121 0.76135 0.62192 0.0
O217 O 0.68061 0.91749 0.63773 0.0
O218 O 0.48355 0.72587 0.76946 0.0
O219 O 0.60088 0.7823 0.71289 0.0
O220 O 0.60802 0.89633 0.67642 0.0
O221 O 0.50103 0.83733 0.69529 0.0
O222 O 0.56983 0.80698 0.75538 0.0
O223 O 0.43589 0.64806 0.73306 0.0
C224 C 0.52004 0.7509 0.6379 0.0
C225 C 0.8785 0.84889 0.70235 0.0
C226 C 0.87996 0.89628 0.72362 0.0
C227 C 0.68506 0.89635 0.60822 0.0
C228 C 0.74275 0.93847 0.5873 0.0
C229 C 0.80362 0.94796 0.59631 0.0
C230 C 0.73704 0.96843 0.55763 0.0
C231 C 0.792 0.00744 0.53744 0.0
C232 C 0.85777 0.98632 0.57643 0.0
C233 C 0.85209 0.01578 0.54731 0.0
C234 C 0.55437 0.66406 0.67772 0.0
C235 C 0.61905 0.80831 0.74143 0.0
C236 C 0.43971 0.66553 0.7644 0.0
C237 C 0.3785 0.64379 0.78239 0.0
C238 C 0.31958 0.62154 0.76524 0.0
C239 C 0.37967 0.64883 0.81737 0.0
C240 C 0.3228 0.63202 0.83496 0.0
C241 C 0.26318 0.60629 0.78284 0.0
C242 C 0.26465 0.61137 0.8177 0.0
C243 C 0.55156 0.89132 0.68491 0.0
H244 H 0.8092 0.9255 0.6187 0.0
H245 H 0.6902 0.96138 0.55036 0.0
H246 H 0.90454 0.99327 0.58365 0.0
H247 H 0.89496 0.04534 0.53245 0.0
H248 H 0.31678 0.61583 0.73836 0.0
H249 H 0.42456 0.66463 0.83091 0.0
H250 H 0.21811 0.58956 0.76947 0.0
H251 H 0.22018 0.5974 0.83121 0.0
Gd252 Gd 0.82437 0.63817 0.99551 0.0
Gd253 Gd 0.75369 0.49154 0.04962 0.0
C254 C 0.59942 0.28887 0.01726 0.0
C255 C 0.50525 0.27377 0.04832 0.0
C256 C 0.60776 0.37421 0.05348 0.0
C257 C 0.63585 0.35172 0.03073 0.0
C258 C 0.54233 0.33531 0.06272 0.0
C259 C 0.53376 0.25056 0.02569 0.0
C260 C 0.63061 0.26549 0.99665 0.0
C261 C 0.69694 0.30357 0.99092 0.0
N262 N 0.69969 0.38962 0.02337 0.0
C263 C 0.7311 0.36538 1.00501 0.0
H264 H 0.7825 0.39399 1.00064 0.0
C265 C 0.6207 0.45615 0.09144 0.0
N266 N 0.64492 0.43398 0.067 0.0
C267 C 0.55593 0.41946 0.1012 0.0
C268 C 0.51642 0.35901 0.0866 0.0
H269 H 0.65099 0.50281 0.10284 0.0
H270 H 0.50495 0.20237 0.01539 0.0
H271 H 0.74842 0.68833 0.04917 0.0
H272 H 0.60435 0.21746 0.98586 0.0
H273 H 0.72187 0.28529 0.97575 0.0
H274 H 0.45481 0.24327 0.05499 0.0
H275 H 0.95782 0.68197 0.95068 0.0
H276 H 0.88905 0.86745 0.09254 0.0
H277 H 0.77583 0.77866 0.08742 0.0
H278 H 0.08517 0.91517 0.03615 0.0
H279 H 0.53656 0.43773 0.12005 0.0
H280 H 0.46631 0.3306 0.09432 0.0
H281 H 1.00447 0.91764 0.07357 0.0
H282 H 0.07186 0.77015 0.94912 0.0
N283 N 0.8453 0.72425 0.03229 0.0
C284 C 0.87735 0.8277 0.07553 0.0
C285 C 0.81339 0.77778 0.07264 0.0
C286 C 0.92522 0.82632 0.05596 0.0
C287 C 0.90741 0.77332 0.03427 0.0
C288 C 0.79803 0.72654 0.0506 0.0
N289 N 0.93323 0.72101 0.99234 0.0
C290 C 0.95283 0.77163 0.0136 0.0
C291 C 0.03905 0.77097 0.96758 0.0
C292 C 0.06076 0.82195 0.99041 0.0
C293 C 0.97456 0.72113 0.96858 0.0
C294 C 0.01729 0.82328 0.01348 0.0
H295 H 0.11065 0.86072 0.98948 0.0
O296 O 0.83751 0.66299 0.94234 0.0
O297 O 0.76438 0.53287 0.99935 0.0
O298 O 0.84435 0.50283 0.025 0.0
O299 O 0.90153 0.60727 1.00144 0.0
O300 O 0.81604 0.56802 0.95522 0.0
O301 O 0.76927 0.67735 0.97103 0.0
O302 O 0.76386 0.48036 0.10277 0.0
O303 O 0.82475 0.59767 0.04619 0.0
O304 O 0.71785 0.60478 0.00973 0.0
O305 O 0.66987 0.4978 0.02858 0.0
O306 O 0.76899 0.5666 0.08868 0.0
O307 O 0.79405 0.43273 0.06638 0.0
C308 C 0.77533 0.51685 0.9712 0.0
C309 C 0.03579 0.87528 0.03569 0.0
C310 C 0.98984 0.87673 0.05695 0.0
C311 C 0.79488 0.68183 0.94153 0.0
C312 C 0.81043 0.73952 0.92061 0.0
C313 C 0.86179 0.8004 0.92964 0.0
C314 C 0.77475 0.73381 0.89095 0.0
C315 C 0.79068 0.78876 0.87076 0.0
C316 C 0.87756 0.85454 0.90977 0.0
C317 C 0.84242 0.84886 0.88064 0.0
C318 C 0.89652 0.55119 0.01103 0.0
C319 C 0.81689 0.61583 0.07474 0.0
C320 C 0.78039 0.43655 0.09771 0.0
C321 C 0.74094 0.37535 0.11571 0.0
C322 C 0.70426 0.31643 0.09856 0.0
C323 C 0.73708 0.37651 0.15069 0.0
C324 C 0.69705 0.31966 0.16829 0.0
C325 C 0.66313 0.26003 0.11616 0.0
C326 C 0.65954 0.2615 0.15102 0.0
C327 C 0.66641 0.54832 0.0182 0.0
H328 H 0.88984 0.80598 0.95203 0.0
H329 H 0.73498 0.68697 0.88367 0.0
H330 H 0.91736 0.90131 0.91699 0.0
H331 H 0.85571 0.89173 0.86579 0.0
H332 H 0.70715 0.31362 0.07168 0.0
H333 H 0.76617 0.42141 0.16422 0.0
H334 H 0.63479 0.21496 0.1028 0.0
H335 H 0.62905 0.21703 0.16454 0.0
Gd336 Gd 0.19231 0.82115 0.32884 0.0
Gd337 Gd 0.26832 0.75056 0.38297 0.0
C338 C 0.31683 0.59637 0.35064 0.0
C339 C 0.23779 0.50221 0.38172 0.0
C340 C 0.23979 0.60469 0.38685 0.0
C341 C 0.29038 0.63278 0.36409 0.0
C342 C 0.21329 0.53927 0.39611 0.0
C343 C 0.28951 0.53073 0.35908 0.0
C344 C 0.37139 0.62756 0.33002 0.0
C345 C 0.39961 0.69387 0.32427 0.0
N346 N 0.31629 0.6966 0.35673 0.0
C347 C 0.37194 0.72802 0.33835 0.0
H348 H 0.3947 0.7794 0.33397 0.0
C349 C 0.17077 0.6176 0.4248 0.0
N350 N 0.21715 0.64182 0.40036 0.0
C351 C 0.14272 0.55285 0.43458 0.0
C352 C 0.16369 0.51336 0.41999 0.0
H353 H 0.15437 0.64787 0.4362 0.0
H354 H 0.30892 0.50194 0.34879 0.0
H355 H 0.0662 0.74521 0.38251 0.0
H356 H 0.39318 0.60132 0.31924 0.0
H357 H 0.44282 0.71882 0.30909 0.0
H358 H 0.21787 0.45179 0.3884 0.0
H359 H 0.28194 0.95457 0.28399 0.0
H360 H 0.02769 0.88582 0.42587 0.0
H361 H 1.00327 0.77261 0.42076 0.0
H362 H 0.17606 0.0819 0.36945 0.0
H363 H 0.10507 0.53348 0.45343 0.0
H364 H 0.14202 0.46327 0.42772 0.0
H365 H 0.09291 1.00122 0.40688 0.0
H366 H 0.30777 0.06858 0.28241 0.0
N367 N 0.12715 0.84208 0.36562 0.0
C368 C 0.05574 0.87411 0.40886 0.0
C369 C 0.04171 0.81017 0.40597 0.0
C370 C 0.10499 0.92198 0.38928 0.0
C371 C 0.14019 0.90418 0.3676 0.0
C372 C 0.0776 0.79482 0.38394 0.0
N373 N 0.21831 0.92999 0.32566 0.0
C374 C 0.18729 0.94959 0.34692 0.0
C375 C 0.27415 0.03578 0.30088 0.0
C376 C 0.24487 0.05749 0.32371 0.0
C377 C 0.25951 0.97131 0.30189 0.0
C378 C 0.20009 0.01404 0.34679 0.0
H379 H 0.25598 0.10737 0.32277 0.0
O380 O 0.18062 0.83424 0.27567 0.0
O381 O 0.23765 0.7612 0.33269 0.0
O382 O 0.34768 0.84121 0.35832 0.0
O383 O 0.30038 0.89834 0.33476 0.0
O384 O 0.25414 0.81282 0.28855 0.0
O385 O 0.09801 0.76605 0.30437 0.0
O386 O 0.28969 0.76077 0.43611 0.0
O387 O 0.23322 0.82159 0.37953 0.0
O388 O 0.1192 0.71465 0.34308 0.0
O389 O 0.17825 0.66672 0.36193 0.0
O390 O 0.20855 0.76585 0.42202 0.0
O391 O 0.36753 0.79098 0.39971 0.0
C392 C 0.26462 0.77214 0.30454 0.0
C393 C 0.16658 0.03253 0.369 0.0
C394 C 0.11919 0.98659 0.39026 0.0
C395 C 0.11914 0.79164 0.27487 0.0
C396 C 0.077 0.80719 0.25395 0.0
C397 C 0.06748 0.85854 0.26298 0.0
C398 C 0.04705 0.77152 0.22428 0.0
C399 C 1.00802 0.78745 0.20409 0.0
C400 C 0.02911 0.87431 0.24311 0.0
C401 C 0.99966 0.83918 0.21397 0.0
C402 C 0.35147 0.89335 0.34435 0.0
C403 C 0.2072 0.81373 0.40808 0.0
C404 C 0.35005 0.77732 0.43105 0.0
C405 C 0.37183 0.7379 0.44904 0.0
C406 C 0.39414 0.70128 0.43189 0.0
C407 C 0.36674 0.73399 0.48402 0.0
C408 C 0.38358 0.69397 0.50162 0.0
C409 C 0.40942 0.66017 0.4495 0.0
C410 C 0.4043 0.65653 0.48436 0.0
C411 C 0.12425 0.66322 0.35156 0.0
H412 H 0.08994 0.88658 0.28537 0.0
H413 H 0.05412 0.73176 0.217 0.0
H414 H 0.02214 0.9141 0.25033 0.0
H415 H 0.97008 0.85247 0.19912 0.0
H416 H 0.39988 0.70421 0.40501 0.0
H417 H 0.35089 0.76303 0.49756 0.0
H418 H 0.42621 0.63188 0.43614 0.0
H419 H 0.41829 0.62605 0.49787 0.0
Gd420 Gd 0.37731 0.18916 0.66216 0.0
Gd421 Gd 0.52393 0.26519 0.71628 0.0
C422 C 0.72666 0.31376 0.68393 0.0
C423 C 0.74182 0.23475 0.715 0.0
C424 C 0.64133 0.23672 0.72015 0.0
C425 C 0.6638 0.28729 0.69739 0.0
C426 C 0.68027 0.21024 0.7294 0.0
C427 C 0.76501 0.28647 0.69237 0.0
C428 C 0.75001 0.36831 0.66331 0.0
C429 C 0.7119 0.39651 0.65757 0.0
N430 N 0.62586 0.31318 0.69003 0.0
C431 C 0.65008 0.36882 0.67166 0.0
H432 H 0.62144 0.39157 0.66729 0.0
C433 C 0.55941 0.16769 0.75812 0.0
N434 N 0.58155 0.21406 0.73367 0.0
C435 C 0.59614 0.13968 0.76789 0.0
C436 C 0.6566 0.16066 0.75328 0.0
H437 H 0.51273 0.15129 0.76952 0.0
H438 H 0.81321 0.30589 0.68207 0.0
H439 H 0.32713 0.06308 0.71583 0.0
H440 H 0.79804 0.39011 0.65252 0.0
H441 H 0.73016 0.43972 0.64239 0.0
H442 H 0.77235 0.21486 0.72168 0.0
H443 H 0.3335 0.27875 0.6173 0.0
H444 H 0.14796 0.02452 0.75918 0.0
H445 H 0.23678 1.00013 0.75408 0.0
H446 H 0.10023 0.17283 0.70274 0.0
H447 H 0.57788 0.10204 0.78674 0.0
H448 H 0.68504 0.13901 0.76101 0.0
H449 H 0.09776 0.08971 0.74018 0.0
H450 H 0.24529 0.30454 0.61571 0.0
N451 N 0.2912 0.124 0.69894 0.0
C452 C 0.18772 0.05258 0.74217 0.0
C453 C 0.23765 0.03856 0.73929 0.0
C454 C 0.1891 0.10182 0.72259 0.0
C455 C 0.24212 0.13702 0.70091 0.0
C456 C 0.28892 0.07446 0.71726 0.0
N457 N 0.29444 0.21513 0.65897 0.0
C458 C 0.24381 0.1841 0.68023 0.0
C459 C 0.24447 0.27093 0.63417 0.0
C460 C 0.19347 0.24165 0.657 0.0
C461 C 0.29433 0.25632 0.6352 0.0
C462 C 0.19214 0.19688 0.68009 0.0
H463 H 0.15469 0.25275 0.65606 0.0
O464 O 0.35254 0.17746 0.60899 0.0
O465 O 0.48262 0.23451 0.66601 0.0
O466 O 0.51261 0.34453 0.69166 0.0
O467 O 0.40815 0.29721 0.66811 0.0
O468 O 0.44746 0.25103 0.62189 0.0
O469 O 0.3381 0.09486 0.6377 0.0
O470 O 0.5351 0.28655 0.76943 0.0
O471 O 0.41778 0.23006 0.71285 0.0
O472 O 0.41071 0.11607 0.6764 0.0
O473 O 0.5177 0.17512 0.69526 0.0
O474 O 0.44887 0.2054 0.75534 0.0
O475 O 0.58272 0.36438 0.73303 0.0
C476 C 0.49864 0.26151 0.63786 0.0
C477 C 0.14013 0.16337 0.70229 0.0
C478 C 0.13868 0.11599 0.72356 0.0
C479 C 0.33365 0.11598 0.60819 0.0
C480 C 0.27596 0.07385 0.58727 0.0
C481 C 0.21508 0.06433 0.59629 0.0
C482 C 0.28168 0.04389 0.55761 0.0
C483 C 0.22672 1.00487 0.53741 0.0
C484 C 0.16094 0.02596 0.57642 0.0
C485 C 0.16662 0.99651 0.54729 0.0
C486 C 0.46423 0.3483 0.67769 0.0
C487 C 0.39963 0.20404 0.7414 0.0
C488 C 0.57891 0.3469 0.76437 0.0
C489 C 0.64013 0.36868 0.78235 0.0
C490 C 0.69906 0.39101 0.7652 0.0
C491 C 0.63896 0.36358 0.81734 0.0
C492 C 0.69583 0.38042 0.83492 0.0
C493 C 0.75548 0.4063 0.7828 0.0
C494 C 0.754 0.40116 0.81766 0.0
C495 C 0.46719 0.12112 0.68488 0.0
H496 H 0.2095 0.08679 0.61868 0.0
H497 H 0.32852 0.05096 0.55033 0.0
H498 H 0.11416 0.01899 0.58363 0.0
H499 H 0.12374 0.96693 0.53243 0.0
H500 H 0.70187 0.39676 0.73832 0.0
H501 H 0.59406 0.34771 0.83087 0.0
H502 H 0.80055 0.4231 0.76943 0.0
H503 H 0.79848 0.41514 0.83117 0.0
C504 C 0.30427 0.71185 0.26605 0.0
C505 C 0.28608 0.73377 0.28771 0.0
C506 C 0.3167 0.69688 0.23398 0.0
C507 C 0.31766 0.69288 0.20405 0.0
C508 C 0.59856 0.30115 0.59935 0.0
C509 C 0.55846 0.28296 0.62102 0.0
C510 C 0.62593 0.31358 0.56727 0.0
C511 C 0.63089 0.31453 0.53734 0.0
C512 C 0.30351 0.59531 0.93271 0.0
C513 C 0.28162 0.55519 0.95438 0.0
C514 C 0.31845 0.62272 0.90065 0.0
C515 C 0.32244 0.6277 0.87072 0.0
C516 C 0.71446 0.30036 0.26604 0.0
C517 C 0.73266 0.27846 0.28771 0.0
C518 C 0.70201 0.31531 0.23397 0.0
C519 C 0.70101 0.3193 0.20404 0.0
C520 C 0.42012 0.71127 0.59938 0.0
C521 C 0.46021 0.72946 0.62106 0.0
C522 C 0.39276 0.69884 0.5673 0.0
C523 C 0.38783 0.69789 0.53737 0.0
C524 C 0.71508 0.41693 0.93269 0.0
C525 C 0.73697 0.45702 0.95437 0.0
C526 C 0.70015 0.38957 0.90061 0.0
C527 C 0.69618 0.38465 0.87068 0.0
C528 C 0.475 0.49303 0.01402 0.0
C529 C 0.41727 0.47411 0.01491 0.0
C530 C 0.5436 0.51918 0.01402 0.0
C531 C 0.60133 0.53809 0.01491 0.0
C532 C 0.0306 0.54042 0.34738 0.0
C533 C 0.0694 0.59815 0.34826 0.0
C534 C 0.98816 0.47182 0.34738 0.0
C535 C 0.94936 0.41409 0.34827 0.0
C536 C 0.49633 0.02746 0.68072 0.0
C537 C 0.47742 0.06627 0.6816 0.0
C538 C 0.52245 0.985 0.68073 0.0
C539 C 0.54135 0.94617 0.68161 0.0
C540 C 0.52252 0.5406 0.67028 0.0
C541 C 0.54223 0.59851 0.67237 0.0
C542 C 0.49602 0.47174 0.67027 0.0
C543 C 0.47633 0.41384 0.67235 0.0
C544 C 0.03046 0.49282 1.00359 0.0
C545 C 0.06866 0.47311 1.00567 0.0
C546 C 0.98813 0.51934 1.00359 0.0
C547 C 0.94994 0.53906 1.00567 0.0
C548 C 0.47493 0.98497 0.3369 0.0
C549 C 0.41701 0.94678 0.33899 0.0
C550 C 0.54379 0.0273 0.33691 0.0
C551 C 0.60171 0.06549 0.339 0.0
C552 C 0.32127 0.21524 0.78541 0.0
C553 C 0.35385 0.21114 0.76291 0.0
C554 C 0.28964 0.22251 0.81449 0.0
C555 C 0.26385 0.22652 0.8402 0.0
C556 C 0.07329 0.28639 0.14784 0.0
C557 C 0.04351 0.26062 0.17355 0.0
C558 C 0.11219 0.31802 0.11875 0.0
C559 C 0.14887 0.35059 0.09625 0.0
C560 C 0.79298 0.07008 0.48119 0.0
C561 C 0.78896 0.04028 0.50689 0.0
C562 C 0.80028 0.109 0.4521 0.0
C563 C 0.8044 0.14568 0.42961 0.0
C564 C 0.69738 0.79705 0.78543 0.0
C565 C 0.66481 0.80118 0.76294 0.0
C566 C 0.72901 0.78975 0.81451 0.0
C567 C 0.75479 0.78572 0.84022 0.0
C568 C 0.94539 0.7258 0.14783 0.0
C569 C 0.97518 0.75157 0.17354 0.0
C570 C 0.90647 0.69417 0.11875 0.0
C571 C 0.86978 0.6616 0.09625 0.0
C572 C 0.22573 0.94222 0.48116 0.0
C573 C 0.22976 0.97202 0.50687 0.0
C574 C 0.21844 0.90331 0.45208 0.0
C575 C 0.21432 0.86661 0.42958 0.0
loop_
_geom_bond_atom_site_label_1
_geom_bond_atom_site_label_2
_geom_bond_distance
_geom_bond_site_symmetry_2
_ccdc_geom_bond_type
Gd0 N31 2.661 1_556 S
Gd0 N37 2.601 . S
Gd0 O44 2.545 . S
Gd0 O45 2.606 . S
Gd0 O47 2.429 . S
Gd0 O48 2.545 . S
Gd0 O49 2.412 . S
Gd0 O51 2.362 1_556 S
Gd0 O52 2.324 1_556 S
Gd0 C59 2.828 . S
Gd1 N10 2.661 . S
Gd1 N14 2.601 . S
Gd1 O45 2.362 1_554 S
Gd1 O46 2.324 . S
Gd1 O50 2.545 . S
Gd1 O51 2.606 . S
Gd1 O53 2.429 . S
Gd1 O54 2.545 . S
Gd1 O55 2.412 . S
Gd1 C68 2.828 . S
C2 C5 1.417 1_556 S
C2 C7 1.431 . S
C2 C8 1.412 . S
C3 C6 1.437 . S
C3 C7 1.317 1_554 S
C3 H22 0.929 . S
C4 C5 1.426 . S
C4 C6 1.413 . S
C4 N14 1.359 . S
C5 C2 1.417 1_554 S
C5 C4 1.426 . S
C5 N10 1.350 . S
C6 C3 1.437 . S
C6 C4 1.413 . S
C6 C16 1.391 . S
C7 C2 1.431 . S
C7 C3 1.317 1_556 S
C7 H18 0.930 . S
C8 C2 1.412 . S
C8 C9 1.355 . S
C8 H20 0.930 . S
C9 C8 1.355 . S
C9 C11 1.402 . S
C9 H21 0.930 . S
N10 Gd1 2.661 . S
N10 C5 1.350 . S
N10 C11 1.307 1_554 S
C11 C9 1.402 . S
C11 N10 1.307 1_556 S
C11 H12 0.930 . S
H12 C11 0.930 . S
C13 N14 1.334 . S
C13 C15 1.394 . S
C13 H17 0.930 . S
N14 Gd1 2.601 . S
N14 C4 1.359 . S
N14 C13 1.334 . S
C15 C13 1.394 . S
C15 C16 1.359 . S
C15 H27 0.930 . S
C16 C6 1.391 . S
C16 C15 1.359 . S
C16 H28 0.929 . S
H17 C13 0.930 . S
H18 C7 0.930 . S
H19 C36 0.930 . S
H20 C8 0.930 . S
H21 C9 0.930 . S
H22 C3 0.929 . S
H23 C41 0.930 . S
H24 C32 0.930 . S
H25 C33 0.930 . S
H26 C57 0.929 . S
H27 C15 0.930 . S
H28 C16 0.929 . S
H29 C58 0.930 1_655 S
H30 C39 0.930 . S
N31 Gd0 2.661 1_554 S
N31 C35 1.350 . S
N31 C36 1.307 . S
C32 H24 0.930 . S
C32 C33 1.355 . S
C32 C34 1.412 . S
C33 H25 0.930 . S
C33 C32 1.355 . S
C33 C36 1.402 . S
C34 C32 1.412 . S
C34 C35 1.417 . S
C34 C58 1.431 . S
C35 N31 1.350 . S
C35 C34 1.417 . S
C35 C38 1.426 . S
C36 H19 0.930 . S
C36 N31 1.307 . S
C36 C33 1.402 . S
N37 Gd0 2.601 . S
N37 C38 1.359 1_556 S
N37 C41 1.334 . S
C38 C35 1.426 . S
C38 N37 1.359 1_554 S
C38 C42 1.413 1_455 S
C39 H30 0.930 . S
C39 C40 1.359 . S
C39 C41 1.394 1_655 S
C40 C39 1.359 . S
C40 C42 1.391 1_556 S
C40 H43 0.929 . S
C41 H23 0.930 . S
C41 N37 1.334 . S
C41 C39 1.394 1_455 S
C42 C38 1.413 1_655 S
C42 C40 1.391 1_554 S
C42 C57 1.437 . S
H43 C40 0.929 . S
O44 Gd0 2.545 . S
O44 C59 1.258 . S
O45 Gd0 2.606 . S
O45 Gd1 2.362 1_556 S
O45 C56 1.284 . S
O46 Gd1 2.324 . S
O46 C66 1.254 . S
O47 Gd0 2.429 . S
O47 C66 1.268 1_556 S
O48 Gd0 2.545 . S
O48 C56 1.250 . S
O49 Gd0 2.412 . S
O49 C59 1.252 . S
O50 Gd1 2.545 . S
O50 C68 1.258 . S
O51 Gd0 2.362 1_554 S
O51 Gd1 2.606 . S
O51 C67 1.284 . S
O52 Gd0 2.324 1_554 S
O52 C75 1.254 . S
O53 Gd1 2.429 . S
O53 C75 1.268 . S
O54 Gd1 2.545 . S
O54 C67 1.250 . S
O55 Gd1 2.412 . S
O55 C68 1.252 . S
C56 O45 1.284 . S
C56 O48 1.250 . S
C57 H26 0.929 . S
C57 C42 1.437 . S
C57 C58 1.317 1_655 S
C58 H29 0.930 1_455 S
C58 C34 1.431 . S
C58 C57 1.317 1_455 S
C59 Gd0 2.828 . S
C59 O44 1.258 . S
C59 O49 1.252 . S
C59 C60 1.497 . S
C60 C59 1.497 . S
C60 C61 1.395 . S
C60 C62 1.380 . S
C61 C60 1.395 . S
C61 C64 1.398 . S
C61 H76 0.930 . S
C62 C60 1.380 . S
C62 C63 1.391 . S
C62 H77 0.930 . S
C63 C62 1.391 . S
C63 C65 1.387 . S
C64 C61 1.398 . S
C64 C65 1.380 . S
C64 H78 0.930 . S
C65 C63 1.387 . S
C65 C64 1.380 . S
C65 H79 0.930 . S
C66 O46 1.254 . S
C66 O47 1.268 1_554 S
C67 O51 1.284 . S
C67 O54 1.250 . S
C68 Gd1 2.828 . S
C68 O50 1.258 . S
C68 O55 1.252 . S
C68 C69 1.497 . S
C69 C68 1.497 . S
C69 C70 1.395 . S
C69 C71 1.380 . S
C70 C69 1.395 . S
C70 C73 1.398 . S
C70 H80 0.930 . S
C71 C69 1.380 . S
C71 C72 1.391 . S
C71 H81 0.930 . S
C72 C71 1.391 . S
C72 C74 1.387 . S
C73 C70 1.398 . S
C73 C74 1.380 . S
C73 H82 0.930 . S
C74 C72 1.387 . S
C74 C73 1.380 . S
C74 H83 0.930 . S
C75 O52 1.254 . S
C75 O53 1.268 . S
H76 C61 0.930 . S
H77 C62 0.930 . S
H78 C64 0.930 . S
H79 C65 0.930 . S
H80 C70 0.930 . S
H81 C71 0.930 . S
H82 C73 0.930 . S
H83 C74 0.930 . S
Gd84 N115 2.661 . S
Gd84 N121 2.601 . S
Gd84 O128 2.545 . S
Gd84 O129 2.606 . S
Gd84 O131 2.429 . S
Gd84 O132 2.545 . S
Gd84 O133 2.412 . S
Gd84 O135 2.362 . S
Gd84 O136 2.324 . S
Gd84 C143 2.828 . S
Gd85 N94 2.661 . S
Gd85 N98 2.601 . S
Gd85 O129 2.362 . S
Gd85 O130 2.324 . S
Gd85 O134 2.545 . S
Gd85 O135 2.606 . S
Gd85 O137 2.429 . S
Gd85 O138 2.545 . S
Gd85 O139 2.412 . S
Gd85 C152 2.828 . S
C86 C89 1.417 . S
C86 C91 1.431 . S
C86 C92 1.412 . S
C87 C90 1.437 . S
C87 C91 1.317 . S
C87 H106 0.929 . S
C88 C89 1.426 . S
C88 C90 1.413 . S
C88 N98 1.359 . S
C89 C86 1.417 . S
C89 C88 1.426 . S
C89 N94 1.350 . S
C90 C87 1.437 . S
C90 C88 1.413 . S
C90 C100 1.391 . S
C91 C86 1.431 . S
C91 C87 1.317 . S
C91 H102 0.930 . S
C92 C86 1.412 . S
C92 C93 1.355 . S
C92 H104 0.930 . S
C93 C92 1.355 . S
C93 C95 1.402 . S
C93 H105 0.930 . S
N94 Gd85 2.661 . S
N94 C89 1.350 . S
N94 C95 1.307 . S
C95 C93 1.402 . S
C95 N94 1.307 . S
C95 H96 0.930 . S
H96 C95 0.930 . S
C97 N98 1.334 . S
C97 C99 1.394 . S
C97 H101 0.930 . S
N98 Gd85 2.601 . S
N98 C88 1.359 . S
N98 C97 1.334 . S
C99 C97 1.394 . S
C99 C100 1.359 . S
C99 H111 0.930 . S
C100 C90 1.391 . S
C100 C99 1.359 . S
C100 H112 0.929 . S
H101 C97 0.930 . S
H102 C91 0.930 . S
H103 C120 0.930 . S
H104 C92 0.930 . S
H105 C93 0.930 . S
H106 C87 0.929 . S
H107 C125 0.930 . S
H108 C116 0.930 1_455 S
H109 C117 0.930 1_455 S
H110 C141 0.929 . S
H111 C99 0.930 . S
H112 C100 0.929 . S
H113 C142 0.930 1_565 S
H114 C123 0.930 . S
N115 Gd84 2.661 . S
N115 C119 1.350 . S
N115 C120 1.307 . S
C116 H108 0.930 1_655 S
C116 C117 1.355 . S
C116 C118 1.412 . S
C117 H109 0.930 1_655 S
C117 C116 1.355 . S
C117 C120 1.402 . S
C118 C116 1.412 . S
C118 C119 1.417 . S
C118 C142 1.431 . S
C119 N115 1.350 . S
C119 C118 1.417 . S
C119 C122 1.426 . S
C120 H103 0.930 . S
C120 N115 1.307 . S
C120 C117 1.402 . S
N121 Gd84 2.601 . S
N121 C122 1.359 . S
N121 C125 1.334 . S
C122 C119 1.426 . S
C122 N121 1.359 . S
C122 C126 1.413 1_545 S
C123 H114 0.930 . S
C123 C124 1.359 . S
C123 C125 1.394 1_565 S
C124 C123 1.359 . S
C124 C126 1.391 . S
C124 H127 0.929 . S
C125 H107 0.930 . S
C125 N121 1.334 . S
C125 C123 1.394 1_545 S
C126 C122 1.413 1_565 S
C126 C124 1.391 . S
C126 C141 1.437 . S
H127 C124 0.929 . S
O128 Gd84 2.545 . S
O128 C143 1.258 . S
O129 Gd84 2.606 . S
O129 Gd85 2.362 . S
O129 C140 1.284 . S
O130 Gd85 2.324 . S
O130 C150 1.254 . S
O131 Gd84 2.429 . S
O131 C150 1.268 . S
O132 Gd84 2.545 . S
O132 C140 1.250 . S
O133 Gd84 2.412 . S
O133 C143 1.252 . S
O134 Gd85 2.545 . S
O134 C152 1.258 . S
O135 Gd84 2.362 . S
O135 Gd85 2.606 . S
O135 C151 1.284 . S
O136 Gd84 2.324 . S
O136 C159 1.254 . S
O137 Gd85 2.429 . S
O137 C159 1.268 . S
O138 Gd85 2.545 . S
O138 C151 1.250 . S
O139 Gd85 2.412 . S
O139 C152 1.252 . S
C140 O129 1.284 . S
C140 O132 1.250 . S
C141 H110 0.929 . S
C141 C126 1.437 . S
C141 C142 1.317 1_565 S
C142 H113 0.930 1_545 S
C142 C118 1.431 . S
C142 C141 1.317 1_545 S
C143 Gd84 2.828 . S
C143 O128 1.258 . S
C143 O133 1.252 . S
C143 C144 1.497 . S
C144 C143 1.497 . S
C144 C145 1.395 . S
C144 C146 1.380 . S
C145 C144 1.395 . S
C145 C148 1.398 . S
C145 H160 0.930 . S
C146 C144 1.380 . S
C146 C147 1.391 1_655 S
C146 H161 0.930 . S
C147 C146 1.391 1_455 S
C147 C149 1.387 1_455 S
C148 C145 1.398 . S
C148 C149 1.380 . S
C148 H162 0.930 . S
C149 C147 1.387 1_655 S
C149 C148 1.380 . S
C149 H163 0.930 1_655 S
C150 O130 1.254 . S
C150 O131 1.268 . S
C151 O135 1.284 . S
C151 O138 1.250 . S
C152 Gd85 2.828 . S
C152 O134 1.258 . S
C152 O139 1.252 . S
C152 C153 1.497 . S
C153 C152 1.497 . S
C153 C154 1.395 . S
C153 C155 1.380 . S
C154 C153 1.395 . S
C154 C157 1.398 . S
C154 H164 0.930 . S
C155 C153 1.380 . S
C155 C156 1.391 . S
C155 H165 0.930 . S
C156 C155 1.391 . S
C156 C158 1.387 . S
C157 C154 1.398 . S
C157 C158 1.380 . S
C157 H166 0.930 . S
C158 C156 1.387 . S
C158 C157 1.380 . S
C158 H167 0.930 . S
C159 O136 1.254 . S
C159 O137 1.268 . S
H160 C145 0.930 . S
H161 C146 0.930 . S
H162 C148 0.930 . S
H163 C149 0.930 1_455 S
H164 C154 0.930 . S
H165 C155 0.930 . S
H166 C157 0.930 . S
H167 C158 0.930 . S
Gd168 N199 2.661 . S
Gd168 N205 2.601 . S
Gd168 O212 2.545 . S
Gd168 O213 2.606 . S
Gd168 O215 2.429 . S
Gd168 O216 2.545 . S
Gd168 O217 2.412 . S
Gd168 O219 2.362 . S
Gd168 O220 2.324 . S
Gd168 C227 2.828 . S
Gd169 N178 2.661 . S
Gd169 N182 2.601 . S
Gd169 O213 2.362 . S
Gd169 O214 2.324 . S
Gd169 O218 2.545 . S
Gd169 O219 2.606 . S
Gd169 O221 2.429 . S
Gd169 O222 2.545 . S
Gd169 O223 2.412 . S
Gd169 C236 2.828 . S
C170 C173 1.417 . S
C170 C175 1.431 . S
C170 C176 1.412 . S
C171 C174 1.437 . S
C171 C175 1.317 . S
C171 H190 0.929 . S
C172 C173 1.426 . S
C172 C174 1.413 . S
C172 N182 1.359 . S
C173 C170 1.417 . S
C173 C172 1.426 . S
C173 N178 1.350 . S
C174 C171 1.437 . S
C174 C172 1.413 . S
C174 C184 1.391 . S
C175 C170 1.431 . S
C175 C171 1.317 . S
C175 H186 0.930 . S
C176 C170 1.412 . S
C176 C177 1.355 . S
C176 H188 0.930 . S
C177 C176 1.355 . S
C177 C179 1.402 . S
C177 H189 0.930 . S
N178 Gd169 2.661 . S
N178 C173 1.350 . S
N178 C179 1.307 . S
C179 C177 1.402 . S
C179 N178 1.307 . S
C179 H180 0.930 . S
H180 C179 0.930 . S
C181 N182 1.334 . S
C181 C183 1.394 . S
C181 H185 0.930 . S
N182 Gd169 2.601 . S
N182 C172 1.359 . S
N182 C181 1.334 . S
C183 C181 1.394 . S
C183 C184 1.359 . S
C183 H195 0.930 . S
C184 C174 1.391 . S
C184 C183 1.359 . S
C184 H196 0.929 . S
H185 C181 0.930 . S
H186 C175 0.930 . S
H187 C204 0.930 . S
H188 C176 0.930 . S
H189 C177 0.930 . S
H190 C171 0.929 . S
H191 C209 0.930 . S
H192 C200 0.930 1_545 S
H193 C201 0.930 1_545 S
H194 C225 0.929 . S
H195 C183 0.930 . S
H196 C184 0.929 . S
H197 C226 0.930 . S
H198 C207 0.930 . S
N199 Gd168 2.661 . S
N199 C203 1.350 . S
N199 C204 1.307 . S
C200 H192 0.930 1_565 S
C200 C201 1.355 . S
C200 C202 1.412 . S
C201 H193 0.930 1_565 S
C201 C200 1.355 . S
C201 C204 1.402 . S
C202 C200 1.412 . S
C202 C203 1.417 . S
C202 C226 1.431 . S
C203 N199 1.350 . S
C203 C202 1.417 . S
C203 C206 1.426 . S
C204 H187 0.930 . S
C204 N199 1.307 . S
C204 C201 1.402 . S
N205 Gd168 2.601 . S
N205 C206 1.359 . S
N205 C209 1.334 . S
C206 C203 1.426 . S
C206 N205 1.359 . S
C206 C210 1.413 . S
C207 H198 0.930 . S
C207 C208 1.359 . S
C207 C209 1.394 . S
C208 C207 1.359 . S
C208 C210 1.391 . S
C208 H211 0.929 . S
C209 H191 0.930 . S
C209 N205 1.334 . S
C209 C207 1.394 . S
C210 C206 1.413 . S
C210 C208 1.391 . S
C210 C225 1.437 . S
H211 C208 0.929 . S
O212 Gd168 2.545 . S
O212 C227 1.258 . S
O213 Gd168 2.606 . S
O213 Gd169 2.362 . S
O213 C224 1.284 . S
O214 Gd169 2.324 . S
O214 C234 1.254 . S
O215 Gd168 2.429 . S
O215 C234 1.268 . S
O216 Gd168 2.545 . S
O216 C224 1.250 . S
O217 Gd168 2.412 . S
O217 C227 1.252 . S
O218 Gd169 2.545 . S
O218 C236 1.258 . S
O219 Gd168 2.362 . S
O219 Gd169 2.606 . S
O219 C235 1.284 . S
O220 Gd168 2.324 . S
O220 C243 1.254 . S
O221 Gd169 2.429 . S
O221 C243 1.268 . S
O222 Gd169 2.545 . S
O222 C235 1.250 . S
O223 Gd169 2.412 . S
O223 C236 1.252 . S
C224 O213 1.284 . S
C224 O216 1.250 . S
C225 H194 0.929 . S
C225 C210 1.437 . S
C225 C226 1.317 . S
C226 H197 0.930 . S
C226 C202 1.431 . S
C226 C225 1.317 . S
C227 Gd168 2.828 . S
C227 O212 1.258 . S
C227 O217 1.252 . S
C227 C228 1.497 . S
C228 C227 1.497 . S
C228 C229 1.395 . S
C228 C230 1.380 . S
C229 C228 1.395 . S
C229 C232 1.398 . S
C229 H244 0.930 . S
C230 C228 1.380 . S
C230 C231 1.391 1_565 S
C230 H245 0.930 . S
C231 C230 1.391 1_545 S
C231 C233 1.387 1_545 S
C232 C229 1.398 . S
C232 C233 1.380 . S
C232 H246 0.930 . S
C233 C231 1.387 1_565 S
C233 C232 1.380 . S
C233 H247 0.930 1_565 S
C234 O214 1.254 . S
C234 O215 1.268 . S
C235 O219 1.284 . S
C235 O222 1.250 . S
C236 Gd169 2.828 . S
C236 O218 1.258 . S
C236 O223 1.252 . S
C236 C237 1.497 . S
C237 C236 1.497 . S
C237 C238 1.395 . S
C237 C239 1.380 . S
C238 C237 1.395 . S
C238 C241 1.398 . S
C238 H248 0.930 . S
C239 C237 1.380 . S
C239 C240 1.391 . S
C239 H249 0.930 . S
C240 C239 1.391 . S
C240 C242 1.387 . S
C241 C238 1.398 . S
C241 C242 1.380 . S
C241 H250 0.930 . S
C242 C240 1.387 . S
C242 C241 1.380 . S
C242 H251 0.930 . S
C243 O220 1.254 . S
C243 O221 1.268 . S
H244 C229 0.930 . S
H245 C230 0.930 . S
H246 C232 0.930 . S
H247 C233 0.930 1_545 S
H248 C238 0.930 . S
H249 C239 0.930 . S
H250 C241 0.930 . S
H251 C242 0.930 . S
Gd252 N283 2.661 1_556 S
Gd252 N289 2.601 . S
Gd252 O296 2.545 . S
Gd252 O297 2.606 . S
Gd252 O299 2.429 . S
Gd252 O300 2.545 . S
Gd252 O301 2.412 . S
Gd252 O303 2.362 1_556 S
Gd252 O304 2.324 1_556 S
Gd252 C311 2.828 . S
Gd253 N262 2.661 . S
Gd253 N266 2.601 . S
Gd253 O297 2.362 1_554 S
Gd253 O298 2.324 . S
Gd253 O302 2.545 . S
Gd253 O303 2.606 . S
Gd253 O305 2.429 . S
Gd253 O306 2.545 . S
Gd253 O307 2.412 . S
Gd253 C320 2.828 . S
C254 C257 1.417 1_556 S
C254 C259 1.431 . S
C254 C260 1.412 . S
C255 C258 1.437 . S
C255 C259 1.317 1_554 S
C255 H274 0.929 . S
C256 C257 1.426 . S
C256 C258 1.413 . S
C256 N266 1.359 . S
C257 C254 1.417 1_554 S
C257 C256 1.426 . S
C257 N262 1.350 . S
C258 C255 1.437 . S
C258 C256 1.413 . S
C258 C268 1.391 . S
C259 C254 1.431 . S
C259 C255 1.317 1_556 S
C259 H270 0.930 . S
C260 C254 1.412 . S
C260 C261 1.355 . S
C260 H272 0.930 . S
C261 C260 1.355 . S
C261 C263 1.402 . S
C261 H273 0.930 . S
N262 Gd253 2.661 . S
N262 C257 1.350 . S
N262 C263 1.307 1_554 S
C263 C261 1.402 . S
C263 N262 1.307 1_556 S
C263 H264 0.930 . S
H264 C263 0.930 . S
C265 N266 1.334 . S
C265 C267 1.394 . S
C265 H269 0.930 . S
N266 Gd253 2.601 . S
N266 C256 1.359 . S
N266 C265 1.334 . S
C267 C265 1.394 . S
C267 C268 1.359 . S
C267 H279 0.930 . S
C268 C258 1.391 . S
C268 C267 1.359 . S
C268 H280 0.929 . S
H269 C265 0.930 . S
H270 C259 0.930 . S
H271 C288 0.930 . S
H272 C260 0.930 . S
H273 C261 0.930 . S
H274 C255 0.929 . S
H275 C293 0.930 . S
H276 C284 0.930 . S
H277 C285 0.930 . S
H278 C309 0.929 . S
H279 C267 0.930 . S
H280 C268 0.929 . S
H281 C310 0.930 1_455 S
H282 C291 0.930 . S
N283 Gd252 2.661 1_554 S
N283 C287 1.350 . S
N283 C288 1.307 . S
C284 H276 0.930 . S
C284 C285 1.355 . S
C284 C286 1.412 . S
C285 H277 0.930 . S
C285 C284 1.355 . S
C285 C288 1.402 . S
C286 C284 1.412 . S
C286 C287 1.417 . S
C286 C310 1.431 . S
C287 N283 1.350 . S
C287 C286 1.417 . S
C287 C290 1.426 . S
C288 H271 0.930 . S
C288 N283 1.307 . S
C288 C285 1.402 . S
N289 Gd252 2.601 . S
N289 C290 1.359 1_556 S
N289 C293 1.334 . S
C290 C287 1.426 . S
C290 N289 1.359 1_554 S
C290 C294 1.413 1_655 S
C291 H282 0.930 . S
C291 C292 1.359 . S
C291 C293 1.394 1_455 S
C292 C291 1.359 . S
C292 C294 1.391 1_556 S
C292 H295 0.929 . S
C293 H275 0.930 . S
C293 N289 1.334 . S
C293 C291 1.394 1_655 S
C294 C290 1.413 1_455 S
C294 C292 1.391 1_554 S
C294 C309 1.437 . S
H295 C292 0.929 . S
O296 Gd252 2.545 . S
O296 C311 1.258 . S
O297 Gd252 2.606 . S
O297 Gd253 2.362 1_556 S
O297 C308 1.284 . S
O298 Gd253 2.324 . S
O298 C318 1.254 . S
O299 Gd252 2.429 . S
O299 C318 1.268 1_556 S
O300 Gd252 2.545 . S
O300 C308 1.250 . S
O301 Gd252 2.412 . S
O301 C311 1.252 . S
O302 Gd253 2.545 . S
O302 C320 1.258 . S
O303 Gd252 2.362 1_554 S
O303 Gd253 2.606 . S
O303 C319 1.284 . S
O304 Gd252 2.324 1_554 S
O304 C327 1.254 . S
O305 Gd253 2.429 . S
O305 C327 1.268 . S
O306 Gd253 2.545 . S
O306 C319 1.250 . S
O307 Gd253 2.412 . S
O307 C320 1.252 . S
C308 O297 1.284 . S
C308 O300 1.250 . S
C309 H278 0.929 . S
C309 C294 1.437 . S
C309 C310 1.317 1_455 S
C310 H281 0.930 1_655 S
C310 C286 1.431 . S
C310 C309 1.317 1_655 S
C311 Gd252 2.828 . S
C311 O296 1.258 . S
C311 O301 1.252 . S
C311 C312 1.497 . S
C312 C311 1.497 . S
C312 C313 1.395 . S
C312 C314 1.380 . S
C313 C312 1.395 . S
C313 C316 1.398 . S
C313 H328 0.930 . S
C314 C312 1.380 . S
C314 C315 1.391 . S
C314 H329 0.930 . S
C315 C314 1.391 . S
C315 C317 1.387 . S
C316 C313 1.398 . S
C316 C317 1.380 . S
C316 H330 0.930 . S
C317 C315 1.387 . S
C317 C316 1.380 . S
C317 H331 0.930 . S
C318 O298 1.254 . S
C318 O299 1.268 1_554 S
C319 O303 1.284 . S
C319 O306 1.250 . S
C320 Gd253 2.828 . S
C320 O302 1.258 . S
C320 O307 1.252 . S
C320 C321 1.497 . S
C321 C320 1.497 . S
C321 C322 1.395 . S
C321 C323 1.380 . S
C322 C321 1.395 . S
C322 C325 1.398 . S
C322 H332 0.930 . S
C323 C321 1.380 . S
C323 C324 1.391 . S
C323 H333 0.930 . S
C324 C323 1.391 . S
C324 C326 1.387 . S
C325 C322 1.398 . S
C325 C326 1.380 . S
C325 H334 0.930 . S
C326 C324 1.387 . S
C326 C325 1.380 . S
C326 H335 0.930 . S
C327 O304 1.254 . S
C327 O305 1.268 . S
H328 C313 0.930 . S
H329 C314 0.930 . S
H330 C316 0.930 . S
H331 C317 0.930 . S
H332 C322 0.930 . S
H333 C323 0.930 . S
H334 C325 0.930 . S
H335 C326 0.930 . S
Gd336 N367 2.661 . S
Gd336 N373 2.601 . S
Gd336 O380 2.545 . S
Gd336 O381 2.606 . S
Gd336 O383 2.429 . S
Gd336 O384 2.545 . S
Gd336 O385 2.412 . S
Gd336 O387 2.362 . S
Gd336 O388 2.324 . S
Gd336 C395 2.828 . S
Gd337 N346 2.661 . S
Gd337 N350 2.601 . S
Gd337 O381 2.362 . S
Gd337 O382 2.324 . S
Gd337 O386 2.545 . S
Gd337 O387 2.606 . S
Gd337 O389 2.429 . S
Gd337 O390 2.545 . S
Gd337 O391 2.412 . S
Gd337 C404 2.828 . S
C338 C341 1.417 . S
C338 C343 1.431 . S
C338 C344 1.412 . S
C339 C342 1.437 . S
C339 C343 1.317 . S
C339 H358 0.929 . S
C340 C341 1.426 . S
C340 C342 1.413 . S
C340 N350 1.359 . S
C341 C338 1.417 . S
C341 C340 1.426 . S
C341 N346 1.350 . S
C342 C339 1.437 . S
C342 C340 1.413 . S
C342 C352 1.391 . S
C343 C338 1.431 . S
C343 C339 1.317 . S
C343 H354 0.930 . S
C344 C338 1.412 . S
C344 C345 1.355 . S
C344 H356 0.930 . S
C345 C344 1.355 . S
C345 C347 1.402 . S
C345 H357 0.930 . S
N346 Gd337 2.661 . S
N346 C341 1.350 . S
N346 C347 1.307 . S
C347 C345 1.402 . S
C347 N346 1.307 . S
C347 H348 0.930 . S
H348 C347 0.930 . S
C349 N350 1.334 . S
C349 C351 1.394 . S
C349 H353 0.930 . S
N350 Gd337 2.601 . S
N350 C340 1.359 . S
N350 C349 1.334 . S
C351 C349 1.394 . S
C351 C352 1.359 . S
C351 H363 0.930 . S
C352 C342 1.391 . S
C352 C351 1.359 . S
C352 H364 0.929 . S
H353 C349 0.930 . S
H354 C343 0.930 . S
H355 C372 0.930 . S
H356 C344 0.930 . S
H357 C345 0.930 . S
H358 C339 0.929 . S
H359 C377 0.930 . S
H360 C368 0.930 1_655 S
H361 C369 0.930 1_655 S
H362 C393 0.929 . S
H363 C351 0.930 . S
H364 C352 0.929 . S
H365 C394 0.930 1_545 S
H366 C375 0.930 . S
N367 Gd336 2.661 . S
N367 C371 1.350 . S
N367 C372 1.307 . S
C368 H360 0.930 1_455 S
C368 C369 1.355 . S
C368 C370 1.412 . S
C369 H361 0.930 1_455 S
C369 C368 1.355 . S
C369 C372 1.402 . S
C370 C368 1.412 . S
C370 C371 1.417 . S
C370 C394 1.431 . S
C371 N367 1.350 . S
C371 C370 1.417 . S
C371 C374 1.426 . S
C372 H355 0.930 . S
C372 N367 1.307 . S
C372 C369 1.402 . S
N373 Gd336 2.601 . S
N373 C374 1.359 . S
N373 C377 1.334 . S
C374 C371 1.426 . S
C374 N373 1.359 . S
C374 C378 1.413 1_565 S
C375 H366 0.930 . S
C375 C376 1.359 . S
C375 C377 1.394 1_545 S
C376 C375 1.359 . S
C376 C378 1.391 . S
C376 H379 0.929 . S
C377 H359 0.930 . S
C377 N373 1.334 . S
C377 C375 1.394 1_565 S
C378 C374 1.413 1_545 S
C378 C376 1.391 . S
C378 C393 1.437 . S
H379 C376 0.929 . S
O380 Gd336 2.545 . S
O380 C395 1.258 . S
O381 Gd336 2.606 . S
O381 Gd337 2.362 . S
O381 C392 1.284 . S
O382 Gd337 2.324 . S
O382 C402 1.254 . S
O383 Gd336 2.429 . S
O383 C402 1.268 . S
O384 Gd336 2.545 . S
O384 C392 1.250 . S
O385 Gd336 2.412 . S
O385 C395 1.252 . S
O386 Gd337 2.545 . S
O386 C404 1.258 . S
O387 Gd336 2.362 . S
O387 Gd337 2.606 . S
O387 C403 1.284 . S
O388 Gd336 2.324 . S
O388 C411 1.254 . S
O389 Gd337 2.429 . S
O389 C411 1.268 . S
O390 Gd337 2.545 . S
O390 C403 1.250 . S
O391 Gd337 2.412 . S
O391 C404 1.252 . S
C392 O381 1.284 . S
C392 O384 1.250 . S
C393 H362 0.929 . S
C393 C378 1.437 . S
C393 C394 1.317 1_545 S
C394 H365 0.930 1_565 S
C394 C370 1.431 . S
C394 C393 1.317 1_565 S
C395 Gd336 2.828 . S
C395 O380 1.258 . S
C395 O385 1.252 . S
C395 C396 1.497 . S
C396 C395 1.497 . S
C396 C397 1.395 . S
C396 C398 1.380 . S
C397 C396 1.395 . S
C397 C400 1.398 . S
C397 H412 0.930 . S
C398 C396 1.380 . S
C398 C399 1.391 1_455 S
C398 H413 0.930 . S
C399 C398 1.391 1_655 S
C399 C401 1.387 1_655 S
C400 C397 1.398 . S
C400 C401 1.380 . S
C400 H414 0.930 . S
C401 C399 1.387 1_455 S
C401 C400 1.380 . S
C401 H415 0.930 1_455 S
C402 O382 1.254 . S
C402 O383 1.268 . S
C403 O387 1.284 . S
C403 O390 1.250 . S
C404 Gd337 2.828 . S
C404 O386 1.258 . S
C404 O391 1.252 . S
C404 C405 1.497 . S
C405 C404 1.497 . S
C405 C406 1.395 . S
C405 C407 1.380 . S
C406 C405 1.395 . S
C406 C409 1.398 . S
C406 H416 0.930 . S
C407 C405 1.380 . S
C407 C408 1.391 . S
C407 H417 0.930 . S
C408 C407 1.391 . S
C408 C410 1.387 . S
C409 C406 1.398 . S
C409 C410 1.380 . S
C409 H418 0.930 . S
C410 C408 1.387 . S
C410 C409 1.380 . S
C410 H419 0.930 . S
C411 O388 1.254 . S
C411 O389 1.268 . S
H412 C397 0.930 . S
H413 C398 0.930 . S
H414 C400 0.930 . S
H415 C401 0.930 1_655 S
H416 C406 0.930 . S
H417 C407 0.930 . S
H418 C409 0.930 . S
H419 C410 0.930 . S
Gd420 N451 2.661 . S
Gd420 N457 2.601 . S
Gd420 O464 2.545 . S
Gd420 O465 2.606 . S
Gd420 O467 2.429 . S
Gd420 O468 2.545 . S
Gd420 O469 2.412 . S
Gd420 O471 2.362 . S
Gd420 O472 2.324 . S
Gd420 C479 2.828 . S
Gd421 N430 2.661 . S
Gd421 N434 2.601 . S
Gd421 O465 2.362 . S
Gd421 O466 2.324 . S
Gd421 O470 2.545 . S
Gd421 O471 2.606 . S
Gd421 O473 2.429 . S
Gd421 O474 2.545 . S
Gd421 O475 2.412 . S
Gd421 C488 2.828 . S
C422 C425 1.417 . S
C422 C427 1.431 . S
C422 C428 1.412 . S
C423 C426 1.437 . S
C423 C427 1.317 . S
C423 H442 0.929 . S
C424 C425 1.426 . S
C424 C426 1.413 . S
C424 N434 1.359 . S
C425 C422 1.417 . S
C425 C424 1.426 . S
C425 N430 1.350 . S
C426 C423 1.437 . S
C426 C424 1.413 . S
C426 C436 1.391 . S
C427 C422 1.431 . S
C427 C423 1.317 . S
C427 H438 0.930 . S
C428 C422 1.412 . S
C428 C429 1.355 . S
C428 H440 0.930 . S
C429 C428 1.355 . S
C429 C431 1.402 . S
C429 H441 0.930 . S
N430 Gd421 2.661 . S
N430 C425 1.350 . S
N430 C431 1.307 . S
C431 C429 1.402 . S
C431 N430 1.307 . S
C431 H432 0.930 . S
H432 C431 0.930 . S
C433 N434 1.334 . S
C433 C435 1.394 . S
C433 H437 0.930 . S
N434 Gd421 2.601 . S
N434 C424 1.359 . S
N434 C433 1.334 . S
C435 C433 1.394 . S
C435 C436 1.359 . S
C435 H447 0.930 . S
C436 C426 1.391 . S
C436 C435 1.359 . S
C436 H448 0.929 . S
H437 C433 0.930 . S
H438 C427 0.930 . S
H439 C456 0.930 . S
H440 C428 0.930 . S
H441 C429 0.930 . S
H442 C423 0.929 . S
H443 C461 0.930 . S
H444 C452 0.930 1_565 S
H445 C453 0.930 1_565 S
H446 C477 0.929 . S
H447 C435 0.930 . S
H448 C436 0.929 . S
H449 C478 0.930 . S
H450 C459 0.930 . S
N451 Gd420 2.661 . S
N451 C455 1.350 . S
N451 C456 1.307 . S
C452 H444 0.930 1_545 S
C452 C453 1.355 . S
C452 C454 1.412 . S
C453 H445 0.930 1_545 S
C453 C452 1.355 . S
C453 C456 1.402 . S
C454 C452 1.412 . S
C454 C455 1.417 . S
C454 C478 1.431 . S
C455 N451 1.350 . S
C455 C454 1.417 . S
C455 C458 1.426 . S
C456 H439 0.930 . S
C456 N451 1.307 . S
C456 C453 1.402 . S
N457 Gd420 2.601 . S
N457 C458 1.359 . S
N457 C461 1.334 . S
C458 C455 1.426 . S
C458 N457 1.359 . S
C458 C462 1.413 . S
C459 H450 0.930 . S
C459 C460 1.359 . S
C459 C461 1.394 . S
C460 C459 1.359 . S
C460 C462 1.391 . S
C460 H463 0.929 . S
C461 H443 0.930 . S
C461 N457 1.334 . S
C461 C459 1.394 . S
C462 C458 1.413 . S
C462 C460 1.391 . S
C462 C477 1.437 . S
H463 C460 0.929 . S
O464 Gd420 2.545 . S
O464 C479 1.258 . S
O465 Gd420 2.606 . S
O465 Gd421 2.362 . S
O465 C476 1.284 . S
O466 Gd421 2.324 . S
O466 C486 1.254 . S
O467 Gd420 2.429 . S
O467 C486 1.268 . S
O468 Gd420 2.545 . S
O468 C476 1.250 . S
O469 Gd420 2.412 . S
O469 C479 1.252 . S
O470 Gd421 2.545 . S
O470 C488 1.258 . S
O471 Gd420 2.362 . S
O471 Gd421 2.606 . S
O471 C487 1.284 . S
O472 Gd420 2.324 . S
O472 C495 1.254 . S
O473 Gd421 2.429 . S
O473 C495 1.268 . S
O474 Gd421 2.545 . S
O474 C487 1.250 . S
O475 Gd421 2.412 . S
O475 C488 1.252 . S
C476 O465 1.284 . S
C476 O468 1.250 . S
C477 H446 0.929 . S
C477 C462 1.437 . S
C477 C478 1.317 . S
C478 H449 0.930 . S
C478 C454 1.431 . S
C478 C477 1.317 . S
C479 Gd420 2.828 . S
C479 O464 1.258 . S
C479 O469 1.252 . S
C479 C480 1.497 . S
C480 C479 1.497 . S
C480 C481 1.395 . S
C480 C482 1.380 . S
C481 C480 1.395 . S
C481 C484 1.398 . S
C481 H496 0.930 . S
C482 C480 1.380 . S
C482 C483 1.391 1_545 S
C482 H497 0.930 . S
C483 C482 1.391 1_565 S
C483 C485 1.387 1_565 S
C484 C481 1.398 . S
C484 C485 1.380 . S
C484 H498 0.930 . S
C485 C483 1.387 1_545 S
C485 C484 1.380 . S
C485 H499 0.930 1_545 S
C486 O466 1.254 . S
C486 O467 1.268 . S
C487 O471 1.284 . S
C487 O474 1.250 . S
C488 Gd421 2.828 . S
C488 O470 1.258 . S
C488 O475 1.252 . S
C488 C489 1.497 . S
C489 C488 1.497 . S
C489 C490 1.395 . S
C489 C491 1.380 . S
C490 C489 1.395 . S
C490 C493 1.398 . S
C490 H500 0.930 . S
C491 C489 1.380 . S
C491 C492 1.391 . S
C491 H501 0.930 . S
C492 C491 1.391 . S
C492 C494 1.387 . S
C493 C490 1.398 . S
C493 C494 1.380 . S
C493 H502 0.930 . S
C494 C492 1.387 . S
C494 C493 1.380 . S
C494 H503 0.930 . S
C495 O472 1.254 . S
C495 O473 1.268 . S
H496 C481 0.930 . S
H497 C482 0.930 . S
H498 C484 0.930 . S
H499 C485 0.930 1_565 S
H500 C490 0.930 . S
H501 C491 0.930 . S
H502 C493 0.930 . S
H503 C494 0.930 . S
C504 C505 1.170 . S
C504 C506 1.380 . S
C505 C504 1.170 . S
C506 C504 1.380 . S
C506 C507 1.170 . S
C507 C506 1.170 . S
C508 C509 1.170 . S
C508 C510 1.380 . S
C509 C508 1.170 . S
C510 C508 1.380 . S
C510 C511 1.170 . S
C511 C510 1.170 . S
C512 C513 1.170 . S
C512 C514 1.380 . S
C513 C512 1.170 . S
C514 C512 1.380 . S
C514 C515 1.170 . S
C515 C514 1.170 . S
C516 C517 1.170 . S
C516 C518 1.380 . S
C517 C516 1.170 . S
C518 C516 1.380 . S
C518 C519 1.170 . S
C519 C518 1.170 . S
C520 C521 1.170 . S
C520 C522 1.380 . S
C521 C520 1.170 . S
C522 C520 1.380 . S
C522 C523 1.170 . S
C523 C522 1.170 . S
C524 C525 1.170 . S
C524 C526 1.380 . S
C525 C524 1.170 . S
C526 C524 1.380 . S
C526 C527 1.170 . S
C527 C526 1.170 . S
C528 C529 1.170 . S
C528 C530 1.380 . S
C529 C528 1.170 . S
C530 C528 1.380 . S
C530 C531 1.170 . S
C531 C530 1.170 . S
C532 C533 1.170 . S
C532 C534 1.380 1_455 S
C533 C532 1.170 . S
C534 C532 1.380 1_655 S
C534 C535 1.170 . S
C535 C534 1.170 . S
C536 C537 1.170 . S
C536 C538 1.380 1_545 S
C537 C536 1.170 . S
C538 C536 1.380 1_565 S
C538 C539 1.170 . S
C539 C538 1.170 . S
C540 C541 1.170 . S
C540 C542 1.380 . S
C541 C540 1.170 . S
C542 C540 1.380 . S
C542 C543 1.170 . S
C543 C542 1.170 . S
C544 C545 1.170 . S
C544 C546 1.380 1_455 S
C545 C544 1.170 . S
C546 C544 1.380 1_655 S
C546 C547 1.170 . S
C547 C546 1.170 . S
C548 C549 1.170 . S
C548 C550 1.380 1_565 S
C549 C548 1.170 . S
C550 C548 1.380 1_545 S
C550 C551 1.170 . S
C551 C550 1.170 . S
C552 C553 1.170 . S
C552 C554 1.380 . S
C553 C552 1.170 . S
C554 C552 1.380 . S
C554 C555 1.170 . S
C555 C554 1.170 . S
C556 C557 1.170 . S
C556 C558 1.380 . S
C557 C556 1.170 . S
C558 C556 1.380 . S
C558 C559 1.170 . S
C559 C558 1.170 . S
C560 C561 1.170 . S
C560 C562 1.380 . S
C561 C560 1.170 . S
C562 C560 1.380 . S
C562 C563 1.170 . S
C563 C562 1.170 . S
C564 C565 1.170 . S
C564 C566 1.380 . S
C565 C564 1.170 . S
C566 C564 1.380 . S
C566 C567 1.170 . S
C567 C566 1.170 . S
C568 C569 1.170 . S
C568 C570 1.380 . S
C569 C568 1.170 . S
C570 C568 1.380 . S
C570 C571 1.170 . S
C571 C570 1.170 . S
C572 C573 1.170 . S
C572 C574 1.380 . S
C573 C572 1.170 . S
C574 C572 1.380 . S
C574 C575 1.170 . S
C575 C574 1.170 . S
C505 C392 1.199 . S
C507 C72 0.998 . S
C509 C476 1.212 . S
C511 C156 0.996 . S
C513 C56 1.139 . S
C515 C240 1.093 . S
C517 C140 1.141 . S
C519 C324 1.080 . S
C521 C224 1.166 . S
C523 C408 1.081 . S
C525 C308 1.143 . S
C527 C492 1.096 . S
C529 C75 1.982 . S
C531 C327 1.969 . S
C533 C411 1.985 . S
C535 C159 1.954 . S
C537 C495 1.960 . S
C539 C243 1.969 . S
C541 C234 1.887 . S
C543 C486 1.925 . S
C545 C66 1.913 . S
C547 C318 1.890 . S
C549 C402 1.898 . S
C551 C150 1.903 . S
C553 C487 1.268 . S
C555 C63 1.237 . S
C557 C147 1.238 . S
C559 C67 1.295 . S
C561 C231 1.234 . S
C563 C151 1.272 . S
C565 C235 1.284 . S
C567 C315 1.227 . S
C569 C399 1.279 . S
C571 C319 1.264 . S
C573 C483 1.278 . S
C575 C403 1.235 . S
