# Generated by pormake.
# Topology ukm, (4)-cn, num edge types: 1
# Building blocks:
#     Node 0, Type 0, BuildingBlock: QUQFOY_clean_sbu_1, # of connection points: 4
#     Node 1, Type 0, BuildingBlock: QUQFOY_clean_sbu_1, # of connection points: 4
#     Node 2, Type 0, BuildingBlock: QUQFOY_clean_sbu_1, # of connection points: 4
#     Node 3, Type 0, BuildingBlock: QUQFOY_clean_sbu_1, # of connection points: 4
#     Node 4, Type 0, BuildingBlock: QUQFOY_clean_sbu_1, # of connection points: 4
#     Node 5, Type 0, BuildingBlock: QUQFOY_clean_sbu_1, # of connection points: 4
#     Node 6, Type 0, BuildingBlock: QUQFOY_clean_sbu_1, # of connection points: 4
#     Node 7, Type 0, BuildingBlock: QUQFOY_clean_sbu_1, # of connection points: 4
#     Node 8, Type 0, BuildingBlock: QUQFOY_clean_sbu_1, # of connection points: 4
#     Node 9, Type 0, BuildingBlock: QUQFOY_clean_sbu_1, # of connection points: 4
#     Node 10, Type 0, BuildingBlock: QUQFOY_clean_sbu_1, # of connection points: 4
#     Node 11, Type 0, BuildingBlock: QUQFOY_clean_sbu_1, # of connection points: 4
#     Node 12, Type 0, BuildingBlock: QUQFOY_clean_sbu_1, # of connection points: 4
#     Node 13, Type 0, BuildingBlock: QUQFOY_clean_sbu_1, # of connection points: 4
#     Node 14, Type 0, BuildingBlock: QUQFOY_clean_sbu_1, # of connection points: 4
#     Node 15, Type 0, BuildingBlock: QUQFOY_clean_sbu_1, # of connection points: 4
#     Node 16, Type 0, BuildingBlock: QUQFOY_clean_sbu_1, # of connection points: 4
#     Node 17, Type 0, BuildingBlock: QUQFOY_clean_sbu_1, # of connection points: 4
#     Node 18, Type 0, BuildingBlock: QUQFOY_clean_sbu_1, # of connection points: 4
#     Node 19, Type 0, BuildingBlock: QUQFOY_clean_sbu_1, # of connection points: 4
#     Node 20, Type 0, BuildingBlock: QUQFOY_clean_sbu_1, # of connection points: 4
#     Node 21, Type 0, BuildingBlock: QUQFOY_clean_sbu_1, # of connection points: 4
#     Node 22, Type 0, BuildingBlock: QUQFOY_clean_sbu_1, # of connection points: 4
#     Node 23, Type 0, BuildingBlock: QUQFOY_clean_sbu_1, # of connection points: 4
#     Node 24, Type 0, BuildingBlock: QUQFOY_clean_sbu_1, # of connection points: 4
#     Node 25, Type 0, BuildingBlock: QUQFOY_clean_sbu_1, # of connection points: 4
#     Node 26, Type 0, BuildingBlock: QUQFOY_clean_sbu_1, # of connection points: 4
#     Node 27, Type 0, BuildingBlock: QUQFOY_clean_sbu_1, # of connection points: 4
#     Node 28, Type 0, BuildingBlock: QUQFOY_clean_sbu_1, # of connection points: 4
#     Node 29, Type 0, BuildingBlock: QUQFOY_clean_sbu_1, # of connection points: 4
#     Node 30, Type 0, BuildingBlock: QUQFOY_clean_sbu_1, # of connection points: 4
#     Node 31, Type 0, BuildingBlock: QUQFOY_clean_sbu_1, # of connection points: 4
#     Edge 32, Type (0, 0), BuildingBlock: AJUNOK_clean_linker_0, # of connection points: 2
#     Edge 33, Type (0, 0), BuildingBlock: AJUNOK_clean_linker_0, # of connection points: 2
#     Edge 34, Type (0, 0), BuildingBlock: AJUNOK_clean_linker_0, # of connection points: 2
#     Edge 35, Type (0, 0), BuildingBlock: AJUNOK_clean_linker_0, # of connection points: 2
#     Edge 36, Type (0, 0), BuildingBlock: AJUNOK_clean_linker_0, # of connection points: 2
#     Edge 37, Type (0, 0), BuildingBlock: AJUNOK_clean_linker_0, # of connection points: 2
#     Edge 38, Type (0, 0), BuildingBlock: AJUNOK_clean_linker_0, # of connection points: 2
#     Edge 39, Type (0, 0), BuildingBlock: AJUNOK_clean_linker_0, # of connection points: 2
#     Edge 40, Type (0, 0), BuildingBlock: AJUNOK_clean_linker_0, # of connection points: 2
#     Edge 41, Type (0, 0), BuildingBlock: AJUNOK_clean_linker_0, # of connection points: 2
#     Edge 42, Type (0, 0), BuildingBlock: AJUNOK_clean_linker_0, # of connection points: 2
#     Edge 43, Type (0, 0), BuildingBlock: AJUNOK_clean_linker_0, # of connection points: 2
#     Edge 44, Type (0, 0), BuildingBlock: AJUNOK_clean_linker_0, # of connection points: 2
#     Edge 45, Type (0, 0), BuildingBlock: AJUNOK_clean_linker_0, # of connection points: 2
#     Edge 46, Type (0, 0), BuildingBlock: AJUNOK_clean_linker_0, # of connection points: 2
#     Edge 47, Type (0, 0), BuildingBlock: AJUNOK_clean_linker_0, # of connection points: 2
#     Edge 48, Type (0, 0), BuildingBlock: AJUNOK_clean_linker_0, # of connection points: 2
#     Edge 49, Type (0, 0), BuildingBlock: AJUNOK_clean_linker_0, # of connection points: 2
#     Edge 50, Type (0, 0), BuildingBlock: AJUNOK_clean_linker_0, # of connection points: 2
#     Edge 51, Type (0, 0), BuildingBlock: AJUNOK_clean_linker_0, # of connection points: 2
#     Edge 52, Type (0, 0), BuildingBlock: AJUNOK_clean_linker_0, # of connection points: 2
#     Edge 53, Type (0, 0), BuildingBlock: AJUNOK_clean_linker_0, # of connection points: 2
#     Edge 54, Type (0, 0), BuildingBlock: AJUNOK_clean_linker_0, # of connection points: 2
#     Edge 55, Type (0, 0), BuildingBlock: AJUNOK_clean_linker_0, # of connection points: 2
#     Edge 56, Type (0, 0), BuildingBlock: AJUNOK_clean_linker_0, # of connection points: 2
#     Edge 57, Type (0, 0), BuildingBlock: AJUNOK_clean_linker_0, # of connection points: 2
#     Edge 58, Type (0, 0), BuildingBlock: AJUNOK_clean_linker_0, # of connection points: 2
#     Edge 59, Type (0, 0), BuildingBlock: AJUNOK_clean_linker_0, # of connection points: 2
#     Edge 60, Type (0, 0), BuildingBlock: AJUNOK_clean_linker_0, # of connection points: 2
#     Edge 61, Type (0, 0), BuildingBlock: AJUNOK_clean_linker_0, # of connection points: 2
#     Edge 62, Type (0, 0), BuildingBlock: AJUNOK_clean_linker_0, # of connection points: 2
#     Edge 63, Type (0, 0), BuildingBlock: AJUNOK_clean_linker_0, # of connection points: 2
#     Edge 64, Type (0, 0), BuildingBlock: AJUNOK_clean_linker_0, # of connection points: 2
#     Edge 65, Type (0, 0), BuildingBlock: AJUNOK_clean_linker_0, # of connection points: 2
#     Edge 66, Type (0, 0), BuildingBlock: AJUNOK_clean_linker_0, # of connection points: 2
#     Edge 67, Type (0, 0), BuildingBlock: AJUNOK_clean_linker_0, # of connection points: 2
#     Edge 68, Type (0, 0), BuildingBlock: AJUNOK_clean_linker_0, # of connection points: 2
#     Edge 69, Type (0, 0), BuildingBlock: AJUNOK_clean_linker_0, # of connection points: 2
#     Edge 70, Type (0, 0), BuildingBlock: AJUNOK_clean_linker_0, # of connection points: 2
#     Edge 71, Type (0, 0), BuildingBlock: AJUNOK_clean_linker_0, # of connection points: 2
#     Edge 72, Type (0, 0), BuildingBlock: AJUNOK_clean_linker_0, # of connection points: 2
#     Edge 73, Type (0, 0), BuildingBlock: AJUNOK_clean_linker_0, # of connection points: 2
#     Edge 74, Type (0, 0), BuildingBlock: AJUNOK_clean_linker_0, # of connection points: 2
#     Edge 75, Type (0, 0), BuildingBlock: AJUNOK_clean_linker_0, # of connection points: 2
#     Edge 76, Type (0, 0), BuildingBlock: AJUNOK_clean_linker_0, # of connection points: 2
#     Edge 77, Type (0, 0), BuildingBlock: AJUNOK_clean_linker_0, # of connection points: 2
#     Edge 78, Type (0, 0), BuildingBlock: AJUNOK_clean_linker_0, # of connection points: 2
#     Edge 79, Type (0, 0), BuildingBlock: AJUNOK_clean_linker_0, # of connection points: 2
#     Edge 80, Type (0, 0), BuildingBlock: AJUNOK_clean_linker_0, # of connection points: 2
#     Edge 81, Type (0, 0), BuildingBlock: AJUNOK_clean_linker_0, # of connection points: 2
#     Edge 82, Type (0, 0), BuildingBlock: AJUNOK_clean_linker_0, # of connection points: 2
#     Edge 83, Type (0, 0), BuildingBlock: AJUNOK_clean_linker_0, # of connection points: 2
#     Edge 84, Type (0, 0), BuildingBlock: AJUNOK_clean_linker_0, # of connection points: 2
#     Edge 85, Type (0, 0), BuildingBlock: AJUNOK_clean_linker_0, # of connection points: 2
#     Edge 86, Type (0, 0), BuildingBlock: AJUNOK_clean_linker_0, # of connection points: 2
#     Edge 87, Type (0, 0), BuildingBlock: AJUNOK_clean_linker_0, # of connection points: 2
#     Edge 88, Type (0, 0), BuildingBlock: AJUNOK_clean_linker_0, # of connection points: 2
#     Edge 89, Type (0, 0), BuildingBlock: AJUNOK_clean_linker_0, # of connection points: 2
#     Edge 90, Type (0, 0), BuildingBlock: AJUNOK_clean_linker_0, # of connection points: 2
#     Edge 91, Type (0, 0), BuildingBlock: AJUNOK_clean_linker_0, # of connection points: 2
#     Edge 92, Type (0, 0), BuildingBlock: AJUNOK_clean_linker_0, # of connection points: 2
#     Edge 93, Type (0, 0), BuildingBlock: AJUNOK_clean_linker_0, # of connection points: 2
#     Edge 94, Type (0, 0), BuildingBlock: AJUNOK_clean_linker_0, # of connection points: 2
#     Edge 95, Type (0, 0), BuildingBlock: AJUNOK_clean_linker_0, # of connection points: 2
# Relax obj value: 0.222
# Max RMSD: 0.206
# Mean RMSD: 0.206
data_MOF--net-ukm--node1-QUQFOY_clean_sbu_1--edge1-AJUNOK_clean_linker_0
_symmetry_space_group_name_H-M    P1
_symmetry_Int_Tables_number       1
_symmetry_cell_setting            triclinic
loop_
_symmetry_equiv_pos_as_xyz
'x, y, z'
_cell_length_a     23.125903
_cell_length_b     77.445447
_cell_length_c     31.129819
_cell_angle_alpha  89.988316
_cell_angle_beta   89.975551
_cell_angle_gamma 90.135353
loop_
_atom_site_label
_atom_site_type_symbol
_atom_site_fract_x
_atom_site_fract_y
_atom_site_fract_z
_atom_type_partial_charge
O0 O 0.13969 0.34472 0.30897 0.0
Cd1 Cd 0.17354 0.32425 0.27507 0.0
Cd2 Cd 0.05369 0.32271 0.26763 0.0
O3 O 0.04599 0.34032 0.31653 0.0
O4 O 0.25475 0.33271 0.27553 0.0
O5 O 0.22982 0.30802 0.30536 0.0
C6 C 0.26928 0.31938 0.29745 0.0
C7 C 0.02764 0.29434 0.25784 0.0
C8 C 0.09104 0.34921 0.32425 0.0
C9 C 0.11628 0.3293 0.18986 0.0
O10 O 0.07062 0.33337 0.20981 0.0
O11 O 0.15943 0.32308 0.20979 0.0
O12 O 0.98903 0.30643 0.25724 0.0
O13 O 0.07945 0.29829 0.27038 0.0
O14 O 0.11455 0.9314 0.29322 0.0
Cd15 Cd 0.08229 0.95496 0.27308 0.0
Cd16 Cd 0.19578 0.95831 0.26985 0.0
O17 O 0.20311 0.93833 0.31276 0.0
O18 O 0.99689 0.95104 0.27363 0.0
O19 O 0.03992 0.96979 0.31646 0.0
C20 C 0.99303 0.96226 0.30392 0.0
C21 C 0.22407 0.98676 0.26801 0.0
C22 C 0.16244 0.92729 0.31059 0.0
C23 C 0.13828 0.95578 0.18888 0.0
O24 O 0.18233 0.95034 0.20878 0.0
O25 O 0.09519 0.96149 0.20971 0.0
O26 O 0.26184 0.9745 0.26515 0.0
O27 O 0.1716 0.98267 0.27864 0.0
O28 O 0.17709 0.92969 0.89808 0.0
Cd29 Cd 0.20131 0.95386 0.92024 0.0
Cd30 Cd 0.08601 0.95343 0.92401 0.0
O31 O 0.08648 0.93409 0.87914 0.0
O32 O 0.28742 0.95255 0.92052 0.0
O33 O 0.23919 0.9701 0.87764 0.0
C34 C 0.28807 0.96399 0.89058 0.0
C35 C 0.04361 0.98008 0.93008 0.0
C36 C 0.13089 0.92444 0.88002 0.0
C37 C 0.14374 0.95284 0.00405 0.0
O38 O 0.10334 0.94528 -0.01584 0.0
O39 O 0.18472 0.95996 -0.01655 0.0
O40 O 1.01263 0.96616 0.93154 0.0
O41 O 0.09709 0.97878 0.91802 0.0
O42 O 0.12428 0.35564 0.89877 0.0
Cd43 Cd 0.08999 0.33204 0.91712 0.0
Cd44 Cd 0.20376 0.33002 0.93073 0.0
O45 O 0.21595 0.34952 0.88709 0.0
O46 O 1.005 0.33591 0.91117 0.0
O47 O 0.05223 0.3169 0.87185 0.0
C48 C 1.00419 0.32444 0.88137 0.0
C49 C 0.23947 0.30245 0.93869 0.0
C50 C 0.1742 0.36015 0.8855 0.0
C51 C 0.13251 0.3327 0.00532 0.0
O52 O 0.17836 0.33874 -0.01103 0.0
O53 O 0.09424 0.32596 -0.01864 0.0
O54 O 0.27256 0.31576 0.94403 0.0
O55 O 0.18838 0.3049 0.92274 0.0
O56 O 0.9565 0.68971 0.72437 0.0
Cd57 Cd 0.98484 0.70185 0.67087 0.0
Cd58 Cd 0.86648 0.69897 0.64828 0.0
O59 O 0.86593 0.69749 0.71458 0.0
O60 O 0.04791 0.71742 0.69048 0.0
O61 O 0.96237 0.72663 0.66785 0.0
C62 C 1.01164 0.72997 0.68584 0.0
C63 C 0.77584 0.7046 0.61684 0.0
C64 C 0.90575 0.69172 0.73874 0.0
C65 C 0.96408 0.67711 0.60466 0.0
O66 O 0.91179 0.68074 0.61344 0.0
O67 O 1.0054 0.68551 0.62155 0.0
O68 O 0.78762 0.69011 0.63481 0.0
O69 O 0.81513 0.71645 0.61744 0.0
O70 O 0.85111 0.08472 0.72698 0.0
Cd71 Cd 0.83509 0.07723 0.66592 0.0
Cd72 Cd 0.95074 0.08117 0.6616 0.0
O73 O 0.93917 0.07416 0.72489 0.0
O74 O 0.7682 0.06145 0.67243 0.0
O75 O 0.85683 0.05272 0.65578 0.0
C76 C 0.8048 0.04895 0.66816 0.0
C77 C 0.0437 0.07732 0.63215 0.0
C78 C 0.89562 0.07924 0.74625 0.0
C79 C 0.86498 0.10859 0.62686 0.0
O80 O 0.91364 0.10419 0.64241 0.0
O81 O 0.82409 0.09763 0.62473 0.0
O82 O 0.03321 0.08874 0.66101 0.0
O83 O 1.00163 0.0674 0.62055 0.0
O84 O 0.92503 0.08082 0.95356 0.0
Cd85 Cd 0.93455 0.0721 0.01422 0.0
Cd86 Cd 0.82123 0.07399 0.01268 0.0
O87 O 0.83927 0.06868 0.94912 0.0
O88 O 1.00397 0.05731 0.01047 0.0
O89 O 0.91472 0.0472 0.01936 0.0
C90 C 0.96856 0.04434 0.01032 0.0
C91 C 0.73425 0.06461 0.04355 0.0
C92 C 0.88388 0.07498 0.93107 0.0
C93 C 0.89336 0.102 0.05615 0.0
O94 O 0.84779 0.0977 0.03585 0.0
O95 O 0.93523 0.09145 0.05916 0.0
O96 O 0.73514 0.07591 0.01326 0.0
O97 O 0.78281 0.05788 0.05522 0.0
O98 O 0.82972 0.69138 0.94139 0.0
Cd99 Cd 0.81447 0.7026 -0.00101 0.0
Cd100 Cd 0.92971 0.70093 0.0085 0.0
O101 O 0.92019 0.70029 0.94269 0.0
O102 O 0.75284 0.72001 -0.01055 0.0
O103 O 0.84489 0.72663 0.00162 0.0
C104 C 0.7936 0.7315 -0.00977 0.0
C105 C 1.01576 0.7123 0.0366 0.0
C106 C 0.87717 0.69415 0.92229 0.0
C107 C 0.85063 0.67625 0.05819 0.0
O108 O 0.90003 0.67999 0.04281 0.0
O109 O 0.80667 0.68537 0.04907 0.0
O110 O 1.01525 0.69847 0.01383 0.0
O111 O 0.96742 0.72024 0.04253 0.0
O112 O 0.18344 0.85006 0.79691 0.0
Cd113 Cd 0.21075 0.82725 0.76946 0.0
Cd114 Cd 0.09661 0.82466 0.76937 0.0
O115 O 0.0942 0.84346 0.81585 0.0
O116 O 0.29666 0.82974 0.77025 0.0
O117 O 0.25043 0.81002 0.8084 0.0
C118 C 0.29849 0.81741 0.79788 0.0
C119 C 0.06558 0.79648 0.76475 0.0
C120 C 0.13668 0.85392 0.81616 0.0
C121 C 0.14907 0.82974 0.68689 0.0
O122 O 0.10574 0.83408 0.70918 0.0
O123 O 0.1943 0.82393 0.70494 0.0
O124 O 0.02889 0.80907 0.76514 0.0
O125 O 0.11914 0.79993 0.77359 0.0
O126 O 0.1387 0.43572 0.8141 0.0
Cd127 Cd 0.10177 0.45638 0.78248 0.0
Cd128 Cd 0.22183 0.45741 0.76884 0.0
O129 O 0.23317 0.43958 0.8166 0.0
O130 O 0.02056 0.44803 0.78725 0.0
O131 O 0.04851 0.4727 0.81558 0.0
C132 C 1.00814 0.46144 0.80958 0.0
C133 C 0.25623 0.48499 0.7581 0.0
C134 C 0.18849 0.4309 0.82653 0.0
C135 C 0.15013 0.45125 0.69443 0.0
O136 O 0.19737 0.44707 0.71207 0.0
O137 O 0.10946 0.45779 0.7165 0.0
O138 O 0.29013 0.4718 0.75462 0.0
O139 O 0.20471 0.48249 0.77333 0.0
O140 O 0.15695 0.42353 0.40338 0.0
Cd141 Cd 0.18919 0.44715 0.42345 0.0
Cd142 Cd 0.07629 0.45024 0.43 0.0
O143 O 0.06722 0.43035 0.38698 0.0
O144 O 0.27492 0.44475 0.4178 0.0
O145 O 0.22425 0.46318 0.37899 0.0
C146 C 0.27361 0.45639 0.38832 0.0
C147 C 0.0463 0.4785 0.43324 0.0
C148 C 0.10807 0.41938 0.3875 0.0
C149 C 0.13697 0.44758 0.50946 0.0
O150 O 0.09199 0.44219 0.49063 0.0
O151 O 0.17978 0.45301 0.48767 0.0
O152 O 1.00955 0.46596 0.43686 0.0
O153 O 0.09846 0.47484 0.42109 0.0
O154 O 0.12847 0.85156 0.38561 0.0
Cd155 Cd 0.09396 0.83 0.41521 0.0
Cd156 Cd 0.21419 0.82959 0.42569 0.0
O157 O 0.22242 0.84773 0.37823 0.0
O158 O 1.01238 0.83801 0.41521 0.0
O159 O 0.03952 0.81476 0.38006 0.0
C160 C 0.99933 0.82563 0.38959 0.0
C161 C 0.25078 0.80222 0.43556 0.0
C162 C 0.1772 0.85659 0.37132 0.0
C163 C 0.14619 0.8336 0.50186 0.0
O164 O 0.19066 0.83947 0.48312 0.0
O165 O 0.10614 0.82644 0.48031 0.0
O166 O 0.28389 0.81565 0.4386 0.0
O167 O 0.19873 0.80436 0.42112 0.0
O168 O 0.93194 0.1909 0.22693 0.0
Cd169 Cd 0.94174 0.20083 0.16737 0.0
Cd170 Cd 0.82783 0.19988 0.16734 0.0
O171 O 0.84595 0.20283 0.23171 0.0
O172 O 1.00958 0.21632 0.17238 0.0
O173 O 0.91919 0.22555 0.16504 0.0
C174 C 0.97279 0.22888 0.17406 0.0
C175 C 0.74187 0.2112 0.13939 0.0
C176 C 0.88992 0.19608 0.24948 0.0
C177 C 0.8975 0.17251 0.11962 0.0
O178 O 0.85154 0.17685 0.13929 0.0
O179 O 0.94134 0.18246 0.11988 0.0
O180 O 0.74161 0.19875 0.16675 0.0
O181 O 0.79115 0.21785 0.12892 0.0
O182 O 0.83196 0.58185 0.22617 0.0
Cd183 Cd 0.81209 0.57581 0.16443 0.0
Cd184 Cd 0.92556 0.57609 0.15564 0.0
O185 O 0.91543 0.56879 0.21864 0.0
O186 O 0.74504 0.55991 0.16793 0.0
O187 O 0.83391 0.55169 0.15016 0.0
C188 C 0.78173 0.54757 0.16142 0.0
C189 C 1.01146 0.56715 0.12232 0.0
C190 C 0.87646 0.57506 0.24269 0.0
C191 C 0.8522 0.6066 0.12507 0.0
O192 O 0.90001 0.60081 0.13915 0.0
O193 O 0.80793 0.59683 0.12418 0.0
O194 O 1.01154 0.57799 0.15356 0.0
O195 O 0.96232 0.56101 0.10988 0.0
O196 O 0.9495 0.58231 0.44273 0.0
Cd197 Cd 0.97231 0.57572 0.50335 0.0
Cd198 Cd 0.8583 0.58133 0.51512 0.0
O199 O 0.85898 0.57423 0.45149 0.0
O200 O 0.03684 0.55937 0.49381 0.0
O201 O 0.95012 0.55155 0.51758 0.0
C202 C 1.00004 0.54721 0.50212 0.0
C203 C 0.77028 0.57762 0.55176 0.0
C204 C 0.90132 0.57778 0.42704 0.0
C205 C 0.95171 0.60796 0.54193 0.0
O206 O 0.90052 0.60409 0.53042 0.0
O207 O 0.99098 0.59651 0.54205 0.0
O208 O 0.7773 0.58938 0.5231 0.0
O209 O 0.81312 0.56745 0.55953 0.0
O210 O 0.84891 0.19299 0.45416 0.0
Cd211 Cd 0.82794 0.20526 0.50912 0.0
Cd212 Cd 0.94802 0.20238 0.52031 0.0
O213 O 0.93748 0.20338 0.45449 0.0
O214 O 0.76025 0.21951 0.49292 0.0
O215 O 0.84649 0.23042 0.50864 0.0
C216 C 0.79479 0.23265 0.49362 0.0
C217 C 0.04333 0.20649 0.54513 0.0
C218 C 0.89516 0.19668 0.43447 0.0
C219 C 0.85737 0.17926 0.5686 0.0
O220 O 0.90757 0.18286 0.55438 0.0
O221 O 0.81439 0.18871 0.55925 0.0
O222 O 0.02798 0.19298 0.52408 0.0
O223 O 1.00493 0.2183 0.55112 0.0
O224 O 0.67143 0.3569 0.77462 0.0
Cd225 Cd 0.70141 0.33281 0.75657 0.0
Cd226 Cd 0.58806 0.33019 0.75389 0.0
O227 O 0.58297 0.35064 0.79566 0.0
O228 O 0.73976 0.31796 0.80181 0.0
O229 O 0.78729 0.33542 0.75807 0.0
C230 C 0.78829 0.32452 0.78924 0.0
C231 C 0.55552 0.30218 0.75216 0.0
C232 C 0.62415 0.36148 0.79214 0.0
C233 C 0.64442 0.33087 0.6729 0.0
O234 O 0.60175 0.3374 0.69238 0.0
O235 O 0.68757 0.32532 0.69394 0.0
O236 O 0.51966 0.31493 0.74928 0.0
O237 O 0.60837 0.30554 0.76332 0.0
O238 O 0.62451 0.93323 0.80162 0.0
Cd239 Cd 0.59345 0.95543 0.77289 0.0
Cd240 Cd 0.70989 0.95527 0.75799 0.0
O241 O 0.71877 0.93753 0.80636 0.0
O242 O 0.50825 0.95187 0.77754 0.0
O243 O 0.55389 0.97279 0.81182 0.0
C244 C 0.5063 0.96472 0.80357 0.0
C245 C 0.74571 0.98269 0.7464 0.0
C246 C 0.67407 0.92862 0.81514 0.0
C247 C 0.63807 0.95079 0.68445 0.0
O248 O 0.6837 0.94502 0.70158 0.0
O249 O 0.60024 0.95832 0.70725 0.0
O250 O 0.77892 0.96933 0.74317 0.0
O251 O 0.69421 0.98049 0.76195 0.0
O252 O 0.64958 0.92815 0.39307 0.0
Cd253 Cd 0.68069 0.95156 0.41494 0.0
Cd254 Cd 0.56698 0.95463 0.41837 0.0
O255 O 0.55998 0.9346 0.37534 0.0
O256 O 0.76632 0.94826 0.41447 0.0
O257 O 0.72259 0.96741 0.3733 0.0
C258 C 0.76985 0.96013 0.38573 0.0
C259 C 0.54618 0.98358 0.41862 0.0
C260 C 0.6014 0.92383 0.37638 0.0
C261 C 0.62359 0.95155 0.4996 0.0
O262 O 0.57856 0.94676 0.47979 0.0
O263 O 0.66754 0.95683 0.47889 0.0
O264 O 0.50512 0.97222 0.42132 0.0
O265 O 0.5977 0.97828 0.40902 0.0
O266 O 0.61898 0.34954 0.381 0.0
Cd267 Cd 0.58984 0.32593 0.40282 0.0
Cd268 Cd 0.7059 0.32597 0.40792 0.0
O269 O 0.71085 0.34612 0.36516 0.0
O270 O 0.50642 0.33203 0.40321 0.0
O271 O 0.54026 0.31063 0.36408 0.0
C272 C 0.49709 0.32009 0.37549 0.0
C273 C 0.73687 0.29792 0.41058 0.0
C274 C 0.66588 0.35552 0.36578 0.0
C275 C 0.64391 0.3274 0.48799 0.0
O276 O 0.68745 0.33359 0.46861 0.0
O277 O 0.60266 0.32068 0.46685 0.0
O278 O 0.77339 0.31054 0.41428 0.0
O279 O 0.68464 0.30145 0.39837 0.0
O280 O 0.41783 0.6987 0.22033 0.0
Cd281 Cd 0.42941 0.70661 0.15904 0.0
Cd282 Cd 0.31689 0.70531 0.15807 0.0
O283 O 0.33361 0.71168 0.22117 0.0
O284 O 0.49681 0.7223 0.16205 0.0
O285 O 0.40648 0.7311 0.15133 0.0
C286 C 0.45968 0.73479 0.16074 0.0
C287 C 0.23091 0.71498 0.12672 0.0
C288 C 0.37623 0.7052 0.24115 0.0
C289 C 0.3884 0.67641 0.1183 0.0
O290 O 0.34226 0.68112 0.13724 0.0
O291 O 0.43094 0.68679 0.1155 0.0
O292 O 0.23082 0.70388 0.15747 0.0
O293 O 0.28006 0.7211 0.11415 0.0
O294 O 0.34243 0.09195 0.23442 0.0
Cd295 Cd 0.31687 0.08086 0.1788 0.0
Cd296 Cd 0.43294 0.0799 0.16286 0.0
O297 O 0.42798 0.07979 0.22903 0.0
O298 O 0.2485 0.06653 0.19369 0.0
O299 O 0.33427 0.05572 0.17632 0.0
C300 C 0.28253 0.05332 0.19123 0.0
C301 C 0.51854 0.06872 0.13324 0.0
C302 C 0.38985 0.08748 0.2513 0.0
C303 C 0.35368 0.10625 0.11789 0.0
O304 O 0.40337 0.10146 0.13069 0.0
O305 O 0.30855 0.09797 0.12893 0.0
O306 O 0.51844 0.08246 0.15632 0.0
O307 O 0.46991 0.06091 0.12706 0.0
O308 O 0.46321 0.09192 0.45334 0.0
Cd309 Cd 0.48327 0.07977 0.50863 0.0
Cd310 Cd 0.36369 0.08397 0.52319 0.0
O311 O 0.37145 0.08436 0.45696 0.0
O312 O 0.54633 0.06367 0.49273 0.0
O313 O 0.4576 0.05519 0.5101 0.0
C314 C 0.50818 0.05146 0.49481 0.0
C315 C 0.26982 0.07921 0.5503 0.0
C316 C 0.41476 0.08964 0.43539 0.0
C317 C 0.45851 0.10535 0.5716 0.0
O318 O 0.40709 0.10229 0.55923 0.0
O319 O 0.5004 0.09618 0.55857 0.0
O320 O 0.28414 0.09331 0.53128 0.0
O321 O 0.30832 0.06723 0.55291 0.0
O322 O 0.35106 0.70043 0.44807 0.0
Cd323 Cd 0.34252 0.70751 0.51022 0.0
Cd324 Cd 0.45728 0.70393 0.50693 0.0
O325 O 0.43978 0.71064 0.44425 0.0
O326 O 0.27587 0.72344 0.50875 0.0
O327 O 0.36664 0.73186 0.51957 0.0
C328 C 0.31353 0.73581 0.51071 0.0
C329 C 0.55173 0.70821 0.53305 0.0
C330 C 0.39338 0.70579 0.42598 0.0
C331 C 0.37732 0.67599 0.54605 0.0
O332 O 0.42374 0.68065 0.52749 0.0
O333 O 0.33674 0.68683 0.55134 0.0
O334 O 0.54009 0.69703 0.50381 0.0
O335 O 0.50994 0.71781 0.54651 0.0
O336 O 0.64163 0.84833 0.30426 0.0
Cd337 Cd 0.68198 0.82747 0.2757 0.0
Cd338 Cd 0.56137 0.82678 0.25655 0.0
O339 O 0.547 0.84462 0.30373 0.0
O340 O 0.76181 0.83683 0.28041 0.0
O341 O 0.73569 0.81273 0.31261 0.0
C342 C 0.77471 0.82433 0.30568 0.0
C343 C 0.5225 0.79994 0.24244 0.0
C344 C 0.5912 0.85329 0.31483 0.0
C345 C 0.63994 0.8312 0.186 0.0
O346 O 0.59331 0.83693 0.20169 0.0
O347 O 0.67735 0.82408 0.21 0.0
O348 O 0.49199 0.81377 0.23752 0.0
O349 O 0.57256 0.80136 0.26081 0.0
O350 O 0.61246 0.43052 0.2907 0.0
Cd351 Cd 0.57802 0.45297 0.26445 0.0
Cd352 Cd 0.6935 0.45224 0.24668 0.0
O353 O 0.70642 0.43535 0.29578 0.0
O354 O 0.49304 0.4483 0.26726 0.0
O355 O 0.53537 0.46852 0.30618 0.0
C356 C 0.48896 0.46022 0.29582 0.0
C357 C 0.72664 0.47977 0.23225 0.0
C358 C 0.66238 0.42611 0.30407 0.0
C359 C 0.62014 0.44918 0.17647 0.0
O360 O 0.6613 0.4409 0.19327 0.0
O361 O 0.58781 0.45857 0.19963 0.0
O362 O 0.76002 0.46653 0.22738 0.0
O363 O 0.67679 0.47741 0.25037 0.0
O364 O 0.65169 0.43618 0.87401 0.0
Cd365 Cd 0.68322 0.45719 0.90803 0.0
Cd366 Cd 0.56363 0.45546 0.91712 0.0
O367 O 0.55751 0.43917 0.86585 0.0
O368 O 0.76504 0.44942 0.91056 0.0
O369 O 0.73933 0.47315 0.87661 0.0
C370 C 0.77932 0.4623 0.88678 0.0
C371 C 0.53378 0.4832 0.93079 0.0
C372 C 0.60408 0.43118 0.85774 0.0
C373 C 0.62775 0.45135 -0.00739 0.0
O374 O 0.58791 0.44372 -0.02776 0.0
O375 O 0.66483 0.46049 -0.02724 0.0
O376 O 0.49716 0.47052 0.93167 0.0
O377 O 0.58534 0.48027 0.91626 0.0
O378 O 0.62652 0.85273 0.89667 0.0
Cd379 Cd 0.60267 0.82833 0.91654 0.0
Cd380 Cd 0.71658 0.82818 0.92029 0.0
O381 O 0.7174 0.84874 0.87824 0.0
O382 O 0.51647 0.82955 0.9156 0.0
O383 O 0.56582 0.81226 0.87287 0.0
C384 C 0.51659 0.81826 0.88536 0.0
C385 C 0.74656 0.79992 0.91964 0.0
C386 C 0.67311 0.85844 0.88018 0.0
C387 C 0.65867 0.82901 0.00141 0.0
O388 O 0.70222 0.83516 -0.01793 0.0
O389 O 0.61662 0.82273 -0.01975 0.0
O390 O 0.78376 0.81238 0.92281 0.0
O391 O 0.69362 0.80379 0.90998 0.0
O392 O 0.44855 0.19872 0.73473 0.0
Cd393 Cd 0.4739 0.20612 0.67527 0.0
Cd394 Cd 0.35875 0.20217 0.66134 0.0
O395 O 0.36066 0.20877 0.72528 0.0
O396 O 0.53947 0.22195 0.68694 0.0
O397 O 0.45388 0.23058 0.66289 0.0
C398 C 0.50379 0.23442 0.67924 0.0
C399 C 0.26899 0.20611 0.62707 0.0
C400 C 0.40087 0.20382 0.75009 0.0
C401 C 0.44961 0.17478 0.63384 0.0
O402 O 0.39874 0.17925 0.64464 0.0
O403 O 0.49076 0.18568 0.63517 0.0
O404 O 0.27719 0.19421 0.65514 0.0
O405 O 0.31172 0.21626 0.61843 0.0
O406 O 0.34738 0.59037 0.72423 0.0
Cd407 Cd 0.33466 0.57931 0.66639 0.0
Cd408 Cd 0.45323 0.58307 0.66217 0.0
O409 O 0.4367 0.5807 0.72721 0.0
O410 O 0.27086 0.56268 0.67595 0.0
O411 O 0.36209 0.55502 0.66434 0.0
C412 C 0.31011 0.55079 0.67588 0.0
C413 C 0.54822 0.57808 0.63872 0.0
C414 C 0.39149 0.58623 0.74588 0.0
C415 C 0.36799 0.60629 0.61063 0.0
O416 O 0.41675 0.60305 0.62763 0.0
O417 O 0.32477 0.59652 0.61726 0.0
O418 O 0.53471 0.59138 0.66124 0.0
O419 O 0.50817 0.56687 0.63102 0.0
O420 O 0.42552 0.58589 0.95244 0.0
Cd421 Cd 0.43673 0.57663 0.01272 0.0
Cd422 Cd 0.32192 0.57727 0.01368 0.0
O423 O 0.33927 0.57401 0.94939 0.0
O424 O 0.50542 0.56146 0.00942 0.0
O425 O 0.41552 0.5518 0.0177 0.0
C426 C 0.46946 0.54863 0.00968 0.0
C427 C 0.2325 0.56718 0.03904 0.0
C428 C 0.38231 0.58093 0.93072 0.0
C429 C 0.39236 0.6052 0.05956 0.0
O430 O 0.34604 0.60048 0.04086 0.0
O431 O 0.43658 0.59547 0.05901 0.0
O432 O 0.27991 0.56005 0.05167 0.0
O433 O 0.23606 0.57954 0.01164 0.0
O434 O 0.33899 0.20001 0.95352 0.0
Cd435 Cd 0.32345 0.20716 0.01492 0.0
Cd436 Cd 0.43682 0.20591 0.01953 0.0
O437 O 0.42394 0.21272 0.95639 0.0
O438 O 0.25725 0.22321 0.01076 0.0
O439 O 0.34738 0.23144 0.02517 0.0
C440 C 0.2951 0.2355 0.01418 0.0
C441 C 0.52416 0.21439 0.05165 0.0
C442 C 0.3823 0.20654 0.93465 0.0
C443 C 0.36194 0.17633 0.05378 0.0
O444 O 0.40921 0.18155 0.03733 0.0
O445 O 0.3193 0.18662 0.0567 0.0
O446 O 0.52272 0.20354 0.02044 0.0
O447 O 0.47582 0.22084 0.06462 0.0
C448 C 0.14411 0.3893 0.37963 0.0
C449 C 0.09914 0.40126 0.37324 0.0
C450 C 0.13887 0.37215 0.36655 0.0
C451 C 0.08846 0.36607 0.3464 0.0
H452 H 0.18453 0.39319 0.39434 0.0
H453 H 0.1757 0.3637 0.37095 0.0
S454 S 0.95617 0.39157 0.3244 0.0
N455 N 1.0007 0.40546 0.34751 0.0
N456 N 0.99127 0.37303 0.32234 0.0
C457 C 0.04194 0.37756 0.34137 0.0
C458 C 0.04724 0.3952 0.35478 0.0
C459 C 0.12417 0.89746 0.31954 0.0
C460 C 0.17037 0.90913 0.32489 0.0
C461 C 0.12865 0.88024 0.33213 0.0
C462 C 0.17953 0.8738 0.35076 0.0
H463 H 0.08339 0.90162 0.30594 0.0
H464 H 0.09104 0.87201 0.3283 0.0
S465 S 0.3147 0.8985 0.36991 0.0
N466 N 0.27021 0.91271 0.34826 0.0
N467 N 0.27828 0.88015 0.37251 0.0
C468 C 0.22708 0.88503 0.35498 0.0
C469 C 0.22253 0.90274 0.34208 0.0
C470 C 0.18186 0.89754 0.85865 0.0
C471 C 0.12941 0.90655 0.86305 0.0
C472 C 0.18311 0.88039 0.84508 0.0
C473 C 0.13199 0.87135 0.83537 0.0
H474 H 0.22276 0.90379 0.86558 0.0
H475 H 0.22489 0.87421 0.84179 0.0
S476 S 0.98285 0.88874 0.84214 0.0
N477 N 0.02453 0.905 0.8572 0.0
N478 N 0.02702 0.87258 0.83133 0.0
C479 C 0.07895 0.88002 0.84007 0.0
C480 C 0.07765 0.89767 0.85379 0.0
C481 C 0.14338 0.40763 0.86935 0.0
C482 C 0.19243 0.41385 0.84767 0.0
C483 C 0.13872 0.39037 0.88145 0.0
C484 C 0.183 0.37843 0.87259 0.0
H485 H 0.10701 0.41607 0.87567 0.0
H486 H 0.09927 0.38636 0.89742 0.0
S487 S 0.32288 0.38844 0.81948 0.0
N488 N 0.28799 0.40704 0.81982 0.0
N489 N 0.27964 0.37437 0.84328 0.0
C490 C 0.23383 0.38462 0.85287 0.0
C491 C 0.23851 0.40238 0.84035 0.0
C492 C 1.0055 0.63091 0.5833 0.0
C493 C 0.9645 0.62626 0.55197 0.0
C494 C 1.01026 0.64814 0.59739 0.0
C495 C 0.97439 0.66111 0.58028 0.0
H496 H 0.03119 0.62107 0.59895 0.0
H497 H 0.0386 0.65102 0.62417 0.0
S498 S 0.86943 0.65623 0.49132 0.0
N499 N 0.8945 0.63657 0.49944 0.0
N500 N 0.90323 0.66866 0.52634 0.0
C501 C 0.93752 0.65686 0.5462 0.0
C502 C 0.93258 0.63948 0.53194 0.0
C503 C 0.90065 0.13889 0.6261 0.0
C504 C 0.85683 0.12701 0.61503 0.0
C505 C 0.89747 0.1562 0.6142 0.0
C506 C 0.85035 0.16253 0.59069 0.0
H507 H 0.93889 0.13478 0.64335 0.0
H508 H 0.93375 0.16455 0.62177 0.0
S509 S 0.72101 0.1375 0.55724 0.0
N510 N 0.76207 0.12325 0.58225 0.0
N511 N 0.75651 0.15603 0.5593 0.0
C512 C 0.8043 0.15119 0.58157 0.0
C513 C 0.80752 0.13337 0.59377 0.0
C514 C 0.8474 0.14668 0.09067 0.0
C515 C 0.89976 0.15507 0.10035 0.0
C516 C 0.84621 0.12949 0.07733 0.0
C517 C 0.89733 0.11982 0.0732 0.0
H518 H 0.80656 0.1534 0.09382 0.0
H519 H 0.8045 0.12374 0.07037 0.0
S520 S 0.04625 0.13576 0.09397 0.0
N521 N 1.00445 0.1525 0.10455 0.0
N522 N 1.00229 0.12001 0.07911 0.0
C523 C 0.95029 0.12803 0.08243 0.0
C524 C 0.95151 0.14571 0.09587 0.0
C525 C 0.80106 0.63124 0.0883 0.0
C526 C 0.84859 0.62504 0.11201 0.0
C527 C 0.79936 0.64841 0.07362 0.0
C528 C 0.84511 0.65991 0.08223 0.0
H529 H 0.76594 0.62263 0.07969 0.0
H530 H 0.76372 0.6524 0.05336 0.0
S531 S 0.97467 0.65111 0.14865 0.0
N532 N 0.9391 0.63262 0.14773 0.0
N533 N 0.93568 0.66461 0.11975 0.0
C534 C 0.89084 0.65422 0.10813 0.0
C535 C 0.89268 0.63685 0.12309 0.0
C536 C 0.56011 0.40234 0.84129 0.0
C537 C 0.60403 0.41462 0.83428 0.0
C538 C 0.56644 0.38519 0.82725 0.0
C539 C 0.61688 0.37977 0.80569 0.0
H540 H 0.52207 0.40575 0.85973 0.0
H541 H 0.53224 0.37604 0.83435 0.0
S542 S 0.74102 0.40786 0.7748 0.0
N543 N 0.69679 0.42075 0.80113 0.0
N544 N 0.70906 0.38879 0.77455 0.0
C545 C 0.65961 0.39229 0.79654 0.0
C546 C 0.65304 0.40964 0.81083 0.0
C547 C 0.72287 0.8832 0.84244 0.0
C548 C 0.67559 0.8768 0.86626 0.0
C549 C 0.72434 0.90044 0.82817 0.0
C550 C 0.67858 0.91182 0.83726 0.0
H551 H 0.75824 0.87474 0.83379 0.0
H552 H 0.7601 0.90463 0.80821 0.0
S553 S 0.54898 0.90242 0.90342 0.0
N554 N 0.58474 0.88403 0.90194 0.0
N555 N 0.58786 0.91612 0.87487 0.0
C556 C 0.63276 0.90588 0.86286 0.0
C557 C 0.63114 0.88846 0.87739 0.0
C558 C 0.63427 0.87655 0.35881 0.0
C559 C 0.58633 0.87036 0.33577 0.0
C560 C 0.63799 0.89374 0.37164 0.0
C561 C 0.59386 0.90565 0.36217 0.0
H562 H 0.67046 0.86814 0.36583 0.0
H563 H 0.6766 0.8977 0.38874 0.0
S564 S 0.45685 0.89571 0.30506 0.0
N565 N 0.49207 0.87717 0.30567 0.0
N566 N 0.49862 0.90972 0.33045 0.0
C567 C 0.54419 0.8995 0.34082 0.0
C568 C 0.54046 0.88181 0.32759 0.0
C569 C 0.71429 0.38077 0.32899 0.0
C570 C 0.66755 0.37397 0.35266 0.0
C571 C 0.71457 0.39812 0.31549 0.0
C572 C 0.66816 0.40918 0.32529 0.0
H573 H 0.75005 0.37255 0.31983 0.0
H574 H 0.74991 0.40266 0.29557 0.0
S575 S 0.53986 0.39868 0.39175 0.0
N576 N 0.57667 0.38049 0.38925 0.0
N577 N 0.57764 0.41277 0.36356 0.0
C578 C 0.62298 0.40283 0.35084 0.0
C579 C 0.62253 0.38532 0.36458 0.0
C580 C 0.34229 0.63127 0.08697 0.0
C581 C 0.39463 0.62284 0.07781 0.0
C582 C 0.34115 0.6486 0.0992 0.0
C583 C 0.39229 0.65836 0.10271 0.0
H584 H 0.30141 0.62449 0.08421 0.0
H585 H 0.29944 0.65437 0.10574 0.0
S586 S 0.54122 0.64234 0.0832 0.0
N587 N 0.49936 0.62547 0.07364 0.0
N588 N 0.49729 0.65819 0.09698 0.0
C589 C 0.44524 0.6501 0.09412 0.0
C590 C 0.44642 0.63229 0.0818 0.0
C591 C 0.30969 0.1521 0.09164 0.0
C592 C 0.35669 0.15791 0.06666 0.0
C593 C 0.30624 0.13486 0.10562 0.0
C594 C 0.34968 0.12289 0.09503 0.0
H595 H 0.27634 0.16104 0.10166 0.0
H596 H 0.27114 0.13114 0.12677 0.0
S597 S 0.4767 0.13067 0.02499 0.0
N598 N 0.44402 0.14954 0.02785 0.0
N599 N 0.43733 0.11742 0.0545 0.0
C600 C 0.39479 0.12824 0.068 0.0
C601 C 0.39839 0.14567 0.05375 0.0
C602 C 0.50728 0.13392 0.58102 0.0
C603 C 0.46803 0.12136 0.59608 0.0
C604 C 0.5034 0.15121 0.59477 0.0
C605 C 0.4599 0.15635 0.62366 0.0
H606 H 0.53808 0.13068 0.55607 0.0
H607 H 0.5322 0.16072 0.58079 0.0
S608 S 0.35458 0.12747 0.67859 0.0
N609 N 0.39028 0.11466 0.64561 0.0
N610 N 0.3831 0.14684 0.67194 0.0
C611 C 0.42405 0.1435 0.64169 0.0
C612 C 0.42812 0.12607 0.62778 0.0
C613 C 0.32423 0.652 0.58439 0.0
C614 C 0.37082 0.65757 0.55862 0.0
C615 C 0.3202 0.63476 0.59834 0.0
C616 C 0.36259 0.62261 0.58688 0.0
H617 H 0.29187 0.66112 0.59513 0.0
H618 H 0.28584 0.63119 0.62032 0.0
S619 S 0.48818 0.62968 0.51521 0.0
N620 N 0.45654 0.64871 0.51837 0.0
N621 N 0.44878 0.61665 0.54528 0.0
C622 C 0.40708 0.62769 0.55913 0.0
C623 C 0.41128 0.64509 0.54484 0.0
C624 C 0.40959 0.33426 0.34691 0.0
C625 C 0.43982 0.31887 0.35478 0.0
C626 C 0.35513 0.3341 0.32766 0.0
C627 C 0.32781 0.31852 0.31639 0.0
H628 H 0.42846 0.34663 0.35532 0.0
H629 H 0.33376 0.34635 0.32236 0.0
S630 S 0.38836 0.27459 0.33041 0.0
N631 N 0.43918 0.28757 0.34934 0.0
N632 N 0.33495 0.28721 0.31442 0.0
C633 C 0.3572 0.30296 0.32427 0.0
C634 C 0.41378 0.30315 0.34302 0.0
C635 C 0.8856 0.96491 0.30085 0.0
C636 C 0.93683 0.96515 0.32527 0.0
C637 C 0.83111 0.96467 0.32076 0.0
C638 C 0.82621 0.96409 0.36571 0.0
H639 H 0.88771 0.96434 0.26611 0.0
H640 H 0.7928 0.96381 0.30083 0.0
S641 S 0.94679 0.96557 0.44407 0.0
N642 N 0.97899 0.96605 0.39669 0.0
N643 N 0.87667 0.96482 0.4341 0.0
C644 C 0.87694 0.96501 0.39045 0.0
C645 C 0.9323 0.96577 0.37021 0.0
C646 C 0.39933 0.96825 0.80263 0.0
C647 C 0.4516 0.96874 0.82571 0.0
C648 C 0.34583 0.96834 0.82393 0.0
C649 C 0.34306 0.96832 0.86901 0.0
H650 H 0.39985 0.96704 0.76796 0.0
H651 H 0.30667 0.9671 0.80507 0.0
S652 S 0.46731 0.97084 0.944 0.0
N653 N 0.49721 0.97064 0.89579 0.0
N654 N 0.39673 0.97004 0.93596 0.0
C655 C 0.3949 0.96967 0.89234 0.0
C656 C 0.44926 0.9701 0.87062 0.0
C657 C 0.84416 0.32119 0.85717 0.0
C658 C 0.84304 0.32108 0.81205 0.0
C659 C 0.89683 0.32147 0.87954 0.0
C660 C 0.95004 0.32108 0.85759 0.0
H661 H 0.80425 0.32219 0.87523 0.0
H662 H 0.89594 0.32254 0.91424 0.0
S663 S 0.97014 0.31883 0.73962 0.0
N664 N 0.89929 0.31946 0.74624 0.0
N665 N 0.99824 0.31923 0.7884 0.0
C666 C 0.94938 0.31975 0.81262 0.0
C667 C 0.89582 0.31997 0.7898 0.0
C668 C 0.69646 0.69233 0.57297 0.0
C669 C 0.72018 0.70671 0.59412 0.0
C670 C 0.64288 0.69326 0.5524 0.0
C671 C 0.60995 0.7085 0.55292 0.0
H672 H 0.71957 0.68017 0.57224 0.0
H673 H 0.62649 0.68171 0.53694 0.0
S674 S 0.65295 0.74994 0.60354 0.0
N675 N 0.7077 0.73686 0.61353 0.0
N676 N 0.60538 0.73848 0.57595 0.0
C677 C 0.63317 0.72308 0.57377 0.0
C678 C 0.68877 0.72223 0.59399 0.0
C679 C 0.1329 0.09231 0.60791 0.0
C680 C 0.10123 0.07685 0.61123 0.0
C681 C 0.18693 0.0928 0.58781 0.0
C682 C 0.21238 0.07777 0.57104 0.0
H683 H 0.11541 0.10427 0.62036 0.0
H684 H 0.2093 0.10509 0.5859 0.0
S685 S 0.14811 0.03387 0.57214 0.0
N686 N 0.09909 0.04607 0.59597 0.0
N687 N 0.20221 0.04689 0.55936 0.0
C688 C 0.18177 0.06212 0.57461 0.0
C689 C 0.12574 0.0617 0.59429 0.0
C690 C 0.57391 0.06191 0.06679 0.0
C691 C 0.57237 0.06332 0.11176 0.0
C692 C 0.62687 0.06119 0.04475 0.0
C693 C 0.67981 0.06131 0.06708 0.0
H694 H 0.53425 0.0627 0.04837 0.0
H695 H 0.62648 0.06133 0.00995 0.0
S696 S 0.6983 0.06295 0.18529 0.0
N697 N 0.62759 0.06367 0.17803 0.0
N698 N 0.72701 0.06151 0.13682 0.0
C699 C 0.67849 0.06135 0.1122 0.0
C700 C 0.62472 0.0626 0.13451 0.0
C701 C 0.12246 0.71674 0.03655 0.0
C702 C 0.06947 0.71748 0.05867 0.0
C703 C 0.17528 0.71767 0.05865 0.0
C704 C 0.17663 0.71875 0.1037 0.0
H705 H 0.12306 0.71462 0.00214 0.0
H706 H 0.21506 0.71615 0.04066 0.0
S707 S 0.05002 0.72237 0.17616 0.0
N708 N 0.02164 0.72085 0.12761 0.0
N709 N 0.12085 0.72179 0.16938 0.0
C710 C 0.12404 0.7204 0.12593 0.0
C711 C 0.07038 0.71999 0.10331 0.0
C712 C 0.45939 0.81451 0.8182 0.0
C713 C 0.46203 0.8139 0.86326 0.0
C714 C 0.40593 0.81456 0.79683 0.0
C715 C 0.35357 0.81345 0.81976 0.0
H716 H 0.49853 0.81625 0.79954 0.0
H717 H 0.40548 0.81624 0.76228 0.0
S718 S 0.33789 0.80948 0.93785 0.0
N719 N 0.40839 0.81086 0.92992 0.0
N720 N 0.30806 0.8102 0.88967 0.0
C721 C 0.35597 0.81144 0.86456 0.0
C722 C 0.41025 0.81188 0.88636 0.0
C723 C 0.86796 0.44758 0.8614 0.0
C724 C 0.83829 0.46315 0.86838 0.0
C725 C 0.92256 0.44735 0.84228 0.0
C726 C 0.95061 0.46271 0.83013 0.0
H727 H 0.8483 0.43533 0.86988 0.0
H728 H 0.94317 0.43496 0.83727 0.0
S729 S 0.89257 0.50702 0.84238 0.0
N730 N 0.841 0.49443 0.86181 0.0
N731 N 0.9453 0.49403 0.82702 0.0
C732 C 0.92221 0.47846 0.83762 0.0
C733 C 0.86556 0.47867 0.85632 0.0
C734 C 0.43268 0.46281 0.36377 0.0
C735 C 0.43369 0.46282 0.31864 0.0
C736 C 0.38021 0.4615 0.38628 0.0
C737 C 0.32698 0.46073 0.36443 0.0
H738 H 0.47279 0.46265 0.38174 0.0
H739 H 0.3814 0.46053 0.42099 0.0
S740 S 0.3063 0.46206 0.24643 0.0
N741 N 0.37715 0.46293 0.25293 0.0
N742 N 0.27841 0.4613 0.29527 0.0
C743 C 0.3273 0.46191 0.31942 0.0
C744 C 0.38076 0.46272 0.29649 0.0
C745 C 0.86139 0.80898 0.33633 0.0
C746 C 0.83104 0.82436 0.32814 0.0
C747 C 0.91623 0.80934 0.35607 0.0
C748 C 0.94139 0.82504 0.36934 0.0
H749 H 0.8433 0.79668 0.32657 0.0
H750 H 0.93882 0.79728 0.36125 0.0
S751 S 0.87803 0.86878 0.35649 0.0
N752 N 0.82957 0.8556 0.33545 0.0
N753 N 0.93118 0.85628 0.3731 0.0
C754 C 0.91067 0.84042 0.36198 0.0
C755 C 0.85585 0.84008 0.34125 0.0
C756 C 0.63494 0.21546 0.14052 0.0
C757 C 0.6875 0.21613 0.11774 0.0
C758 C 0.58163 0.21651 0.11912 0.0
C759 C 0.57923 0.21772 0.07413 0.0
H760 H 0.635 0.21337 0.17493 0.0
H761 H 0.5422 0.21508 0.13761 0.0
S762 S 0.70416 0.22139 2e-05 0.0
N763 N 0.73368 0.21964 0.04813 0.0
N764 N 0.63351 0.22087 0.00778 0.0
C765 C 0.63135 0.21931 0.05124 0.0
C766 C 0.68556 0.21873 0.07311 0.0
C767 C 0.17176 0.56155 0.10355 0.0
C768 C 0.17611 0.56299 0.05868 0.0
C769 C 0.11765 0.5619 0.12393 0.0
C770 C 0.06617 0.56316 0.10005 0.0
H771 H 0.2104 0.56146 0.12321 0.0
H772 H 0.1162 0.5619 0.15873 0.0
S773 S 0.05433 0.56506 -0.01854 0.0
N774 N 0.12461 0.56436 -0.00923 0.0
N775 N 0.0228 0.56428 0.02906 0.0
C776 C 0.06984 0.56319 0.05504 0.0
C777 C 0.12494 0.56332 0.03435 0.0
C778 C 0.68788 0.5924 0.5867 0.0
C779 C 0.71553 0.57684 0.57615 0.0
C780 C 0.63475 0.5925 0.60807 0.0
C781 C 0.60622 0.57703 0.61881 0.0
H782 H 0.70753 0.60467 0.57836 0.0
H783 H 0.61509 0.60487 0.61509 0.0
S784 S 0.66051 0.53276 0.59855 0.0
N785 N 0.71149 0.5455 0.57886 0.0
N786 N 0.60988 0.54566 0.61778 0.0
C787 C 0.63336 0.56132 0.6086 0.0
C788 C 0.68855 0.56123 0.58769 0.0
C789 C 0.12901 0.19175 0.57582 0.0
C790 C 0.1017 0.20732 0.56455 0.0
C791 C 0.18309 0.19166 0.5958 0.0
C792 C 0.21293 0.20709 0.60442 0.0
H793 H 0.10785 0.17947 0.57009 0.0
H794 H 0.20181 0.17932 0.60444 0.0
S795 S 0.16157 0.25134 0.58013 0.0
N796 N 0.10876 0.23864 0.56313 0.0
N797 N 0.212 0.23841 0.59953 0.0
C798 C 0.187 0.22278 0.5925 0.0
C799 C 0.13091 0.22291 0.57297 0.0
C800 C 0.94695 0.25861 0.19914 0.0
C801 C 0.98948 0.2459 0.19259 0.0
C802 C 0.95921 0.27388 0.22163 0.0
C803 C 1.01456 0.27715 0.23871 0.0
H804 H 0.90333 0.25669 0.1874 0.0
H805 H 0.92488 0.28326 0.22525 0.0
S806 S 0.14184 0.24815 0.23028 0.0
N807 N 0.08973 0.23773 0.20494 0.0
N808 N 0.11268 0.26636 0.24709 0.0
C809 C 0.05768 0.26459 0.23232 0.0
C810 C 0.04523 0.24903 0.20924 0.0
C811 C 0.294 1.00766 0.2352 0.0
C812 C 0.23868 1.00441 0.25242 0.0
C813 C 0.30703 0.02325 0.21441 0.0
C814 C 0.26542 0.03637 0.20993 0.0
H815 H 0.32751 0.99794 0.23694 0.0
H816 H 0.35043 0.02504 0.20205 0.0
S817 S 0.11409 0.0346 0.24997 0.0
N818 N 0.14196 1.01583 0.264 0.0
N819 N 0.16648 0.04513 0.22516 0.0
C820 C 0.21003 0.03341 0.22741 0.0
C821 C 0.19672 0.01749 0.24864 0.0
C822 C 0.04172 0.02607 -0.02748 0.0
C823 C 0.98755 0.02737 -0.00702 0.0
C824 C 0.05828 1.01103 0.95072 0.0
C825 C 0.02152 0.99655 0.94842 0.0
H826 H 0.07148 0.03689 -0.02747 0.0
H827 H 0.10071 1.01074 0.936 0.0
S828 S 0.87539 0.99303 -0.00241 0.0
N829 N 0.89734 1.01269 0.01006 0.0
N830 N 0.92841 0.98441 -0.03062 0.0
C831 C 0.96722 0.99761 -0.03106 0.0
C832 C 0.95035 1.01297 -0.00881 0.0
C833 C 0.22669 0.25638 -0.02017 0.0
C834 C 0.2811 0.25318 -0.00146 0.0
C835 C 0.21455 0.27205 0.95916 0.0
C836 C 0.25619 0.28529 0.95628 0.0
H837 H 0.19322 0.24657 -0.01961 0.0
H838 H 0.17174 0.27383 0.9458 0.0
S839 S 0.40554 0.28361 0.00012 0.0
N840 N 0.37714 0.26473 0.01289 0.0
N841 N 0.35431 0.29415 -0.02576 0.0
C842 C 0.31076 0.28233 -0.02498 0.0
C843 C 0.32315 0.26634 -0.00387 0.0
C844 C 0.07834 0.75035 0.72421 0.0
C845 C 0.02427 0.74721 0.70486 0.0
C846 C 0.09035 0.76599 0.74518 0.0
C847 C 0.04873 0.77918 0.74799 0.0
H848 H 0.11196 0.74065 0.72322 0.0
H849 H 0.1331 0.76782 0.75865 0.0
S850 S 0.89951 0.77735 0.70373 0.0
N851 N 0.92813 0.75857 0.69067 0.0
N852 N 0.95049 0.78787 0.73007 0.0
C853 C 0.99407 0.77612 0.72935 0.0
C854 C 0.98196 0.76022 0.70773 0.0
C855 C 0.72223 1.01295 0.72418 0.0
C856 C 0.76314 0.99959 0.72753 0.0
C857 C 0.73524 0.02846 0.70299 0.0
C858 C 0.78985 0.03138 0.68422 0.0
H859 H 0.67936 1.01142 0.7377 0.0
H860 H 0.70231 0.03838 0.70214 0.0
S861 S 0.91246 1.00047 0.68332 0.0
N862 N 0.86067 0.99025 0.70961 0.0
N863 N 0.88515 0.0194 0.67002 0.0
C864 C 0.8311 0.01807 0.6869 0.0
C865 C 0.81783 1.00223 0.70855 0.0
C866 C 0.71758 0.76961 0.9379 0.0
C867 C 0.76155 0.78212 0.93392 0.0
C868 C 0.72805 0.75355 0.95721 0.0
C869 C 0.78297 0.74923 -0.02653 0.0
H870 H 0.67414 0.77233 0.92686 0.0
H871 H 0.69257 0.74443 0.9592 0.0
S872 S 0.91379 0.77716 -0.02997 0.0
N873 N 0.86286 0.78888 0.94716 0.0
N874 N 0.88248 0.75875 -0.01667 0.0
C875 C 0.82765 0.76153 -0.03074 0.0
C876 C 0.817 0.7779 0.94946 0.0
C877 C 0.24274 0.53038 0.71317 0.0
C878 C 0.29723 0.5335 0.69443 0.0
C879 C 0.23084 0.51499 0.73518 0.0
C880 C 0.2728 0.50197 0.7394 0.0
H881 H 0.20889 0.53999 0.71137 0.0
H882 H 0.18789 0.51322 0.74839 0.0
S883 S 0.42281 0.50369 0.69668 0.0
N884 N 0.39395 0.52224 0.68196 0.0
N885 N 0.37157 0.49331 0.72314 0.0
C886 C 0.32764 0.50491 0.72097 0.0
C887 C 0.3398 0.52063 0.6985 0.0
C888 C 0.07374 0.50931 0.44735 0.0
C889 C 0.03175 0.49613 0.44888 0.0
C890 C 0.06397 0.52548 0.46626 0.0
C891 C 1.01182 0.52923 0.48772 0.0
H892 H 0.11494 0.5071 0.43175 0.0
H893 H 0.09753 0.53519 0.46343 0.0
S894 S 0.8878 0.49916 0.50159 0.0
N895 N 0.93584 0.48794 0.47417 0.0
N896 N 0.91763 0.51827 0.50962 0.0
C897 C 0.96949 0.51615 0.48976 0.0
C898 C 0.97934 0.49968 0.4703 0.0
C899 C 0.24233 0.75632 0.47838 0.0
C900 C 0.29783 0.75342 0.49555 0.0
C901 C 0.22834 0.77187 0.45782 0.0
C902 C 0.26911 0.78528 0.45356 0.0
H903 H 0.20944 0.74636 0.47992 0.0
H904 H 0.18484 0.77339 0.44552 0.0
S905 S 0.42047 0.78447 0.49361 0.0
N906 N 0.39379 0.76547 0.50732 0.0
N907 N 0.36747 0.7947 0.46894 0.0
C908 C 0.32468 0.78266 0.47096 0.0
C909 C 0.33897 0.76678 0.49194 0.0
C910 C 0.70083 0.51013 0.21247 0.0
C911 C 0.74225 0.49685 0.21357 0.0
C912 C 0.71285 0.5261 0.19316 0.0
C913 C 0.76693 0.52956 0.17414 0.0
H914 H 0.65852 0.50824 0.22666 0.0
H915 H 0.67979 0.53597 0.19433 0.0
S916 S 0.88958 0.49883 0.16606 0.0
N917 N 0.83896 0.48799 0.19207 0.0
N918 N 0.86161 0.51799 0.15601 0.0
C919 C 0.80827 0.51623 0.17387 0.0
C920 C 0.79599 0.49992 0.19357 0.0
C921 C 0.81938 0.26251 0.46841 0.0
C922 C 0.7781 0.24926 0.473 0.0
C923 C 0.8066 0.27777 0.44612 0.0
C924 C 0.75193 0.2805 0.42738 0.0
H925 H 0.86223 0.26112 0.48199 0.0
H926 H 0.8397 0.28767 0.44447 0.0
S927 S 0.62869 0.24963 0.42897 0.0
N928 N 0.68033 0.23974 0.45594 0.0
N929 N 0.65639 0.26837 0.41419 0.0
C930 C 0.71045 0.26723 0.43107 0.0
C931 C 0.72344 0.25167 0.45389 0.0
C932 C 0.58065 0.27139 0.73603 0.0
C933 C 0.53934 0.28472 0.73606 0.0
C934 C 0.56958 0.25548 0.71608 0.0
C935 C 0.51675 0.25216 0.69508 0.0
H936 H 0.6224 0.2733 0.75108 0.0
H937 H 0.60273 0.24565 0.71762 0.0
S938 S 0.39382 0.28272 0.68549 0.0
N939 N 0.44315 0.29347 0.71296 0.0
N940 N 0.4225 0.26364 0.67555 0.0
C941 C 0.475 0.26537 0.69472 0.0
C942 C 0.48617 0.28157 0.71526 0.0
C943 C 0.47523 0.0218 0.47375 0.0
C944 C 0.51978 0.03419 0.47569 0.0
C945 C 0.48326 1.00588 0.45316 0.0
C946 C 0.53627 1.00158 0.43361 0.0
H947 H 0.43351 0.02439 0.48818 0.0
H948 H 0.44784 0.99671 0.45361 0.0
S949 S 0.66635 0.02972 0.42791 0.0
N950 N 0.6186 0.04124 0.45488 0.0
N951 N 0.63365 1.01134 0.41641 0.0
C952 C 0.58094 1.01397 0.43457 0.0
C953 C 0.57277 0.03021 0.45559 0.0
C954 C 0.5443 0.76982 0.21845 0.0
C955 C 0.50419 0.78336 0.22245 0.0
C956 C 0.53049 0.7546 0.19633 0.0
C957 C 0.47578 0.75216 0.17736 0.0
H958 H 0.58717 0.771 0.23217 0.0
H959 H 0.56278 0.74451 0.19507 0.0
S960 S 0.35522 0.78377 0.17777 0.0
N961 N 0.40746 0.79345 0.20477 0.0
N962 N 0.38138 0.76481 0.1635 0.0
C963 C 0.43537 0.76568 0.18063 0.0
C964 C 0.44952 0.78124 0.20313 0.0
C965 C 0.46069 0.50391 0.96015 0.0
C966 C 0.51871 0.50006 0.95055 0.0
C967 C 0.44548 0.51923 -0.01865 0.0
C968 C 0.48769 0.53134 -0.00594 0.0
H969 H 0.42649 0.49508 0.95093 0.0
H970 H 0.40001 0.52178 -0.01335 0.0
S971 S 0.64648 0.5266 -0.01932 0.0
N972 N 0.61908 0.50909 0.95825 0.0
N973 N 0.59055 0.53781 -0.00195 0.0
C974 C 0.54609 0.52738 -0.01404 0.0
C975 C 0.56157 0.51181 0.96417 0.0
C976 C 0.17207 0.33317 0.12265 0.0
C977 C 0.11844 0.33099 0.14301 0.0
C978 C 0.17584 0.33406 0.07803 0.0
C979 C 0.12618 0.33253 0.05222 0.0
H980 H 0.2115 0.33417 0.1413 0.0
H981 H 0.21826 0.33558 0.06371 0.0
S982 S 0.97532 0.32671 0.09011 0.0
N983 N 1.01441 0.32746 0.13443 0.0
N984 N 0.02163 0.32899 0.05013 0.0
C985 C 0.07214 0.33047 0.07217 0.0
C986 C 0.06822 0.32977 0.11773 0.0
C987 C 0.19258 0.9535 0.07478 0.0
C988 C 0.14134 0.95404 0.05085 0.0
C989 C 0.19099 0.95412 0.11954 0.0
C990 C 0.13815 0.95561 0.14171 0.0
H991 H 0.23404 0.95226 0.05886 0.0
H992 H 0.23157 0.95346 0.13684 0.0
S993 S 0.9922 0.95892 0.09291 0.0
N994 N 0.03664 0.95701 0.05168 0.0
N995 N 0.03351 0.95838 0.13613 0.0
C996 C 0.08665 0.95666 0.11793 0.0
C997 C 0.08828 0.9558 0.07235 0.0
C998 C 0.94371 0.68856 0.81289 0.0
C999 C 0.89574 0.68965 0.78521 0.0
C1000 C 0.93692 0.68942 0.85731 0.0
C1001 C 0.88191 0.69118 0.8758 0.0
H1002 H 0.9873 0.68783 0.80029 0.0
H1003 H 0.97532 0.68914 0.87723 0.0
S1004 S 0.7417 0.69251 0.81784 0.0
N1005 N 0.79086 0.69104 0.77956 0.0
N1006 N 0.77801 0.69254 0.86349 0.0
C1007 C 0.83316 0.69119 0.84876 0.0
C1008 C 0.84012 0.69046 0.80333 0.0
C1009 C 0.84086 0.07786 0.81471 0.0
C1010 C 0.89451 0.07795 0.79332 0.0
C1011 C 0.83775 0.07657 0.85933 0.0
C1012 C 0.88822 0.07559 0.88412 0.0
H1013 H 0.80072 0.07867 0.79688 0.0
H1014 H 0.79559 0.07666 0.87451 0.0
S1015 S 0.0393 0.07471 0.84381 0.0
N1016 N 0.99918 0.07646 0.80018 0.0
N1017 N 0.99342 0.07417 0.88443 0.0
C1018 C 0.9422 0.07549 0.86326 0.0
C1019 C 0.94534 0.07661 0.81771 0.0
C1020 C 0.19783 0.83366 0.61667 0.0
C1021 C 0.14655 0.83123 0.63998 0.0
C1022 C 0.19685 0.8349 0.572 0.0
C1023 C 0.14464 0.83349 0.54904 0.0
H1024 H 0.23905 0.83465 0.63304 0.0
H1025 H 0.23764 0.83657 0.55536 0.0
S1026 S 0.99838 0.82702 0.59534 0.0
N1027 N 0.04201 0.82754 0.63728 0.0
N1028 N 0.04028 0.8297 0.5529 0.0
C1029 C 0.09293 0.83114 0.57199 0.0
C1030 C 0.09385 0.83008 0.61762 0.0
C1031 C 0.1951 0.44799 0.62244 0.0
C1032 C 0.14474 0.44965 0.64752 0.0
C1033 C 0.19215 0.44731 0.57773 0.0
C1034 C 0.13871 0.44802 0.55654 0.0
H1035 H 0.2374 0.44753 0.63733 0.0
H1036 H 0.23203 0.44617 0.55967 0.0
S1037 S 0.99406 0.45225 0.60718 0.0
N1038 N 0.03977 0.4519 0.64789 0.0
N1039 N 0.03417 0.45051 0.56354 0.0
C1040 C 0.08788 0.44948 0.5811 0.0
C1041 C 0.09092 0.45034 0.6267 0.0
C1042 C 0.84204 0.19384 0.32033 0.0
C1043 C 0.89322 0.195 0.29638 0.0
C1044 C 0.84354 0.19373 0.36507 0.0
C1045 C 0.89627 0.19505 0.38744 0.0
H1046 H 0.80043 0.19314 0.30443 0.0
H1047 H 0.80273 0.19314 0.38212 0.0
S1048 S 0.04265 0.19801 0.33923 0.0
N1049 N 0.99829 0.19708 0.29775 0.0
N1050 N 1.00108 0.19705 0.3823 0.0
C1051 C 0.94796 0.1959 0.36383 0.0
C1052 C 0.94644 0.19581 0.31814 0.0
C1053 C 0.84153 0.57918 0.36084 0.0
C1054 C 0.89533 0.57631 0.38032 0.0
C1055 C 0.83572 0.57858 0.3162 0.0
C1056 C 0.8834 0.57483 0.28968 0.0
H1057 H 0.80393 0.5823 0.38012 0.0
H1058 H 0.79361 0.58115 0.30245 0.0
S1059 S 0.03277 0.56495 0.32576 0.0
N1060 N 0.99646 0.56866 0.37044 0.0
N1061 N 0.98568 0.56741 0.28645 0.0
C1062 C 0.93711 0.5714 0.309 0.0
C1063 C 0.9431 0.57219 0.35438 0.0
C1064 C 0.69457 0.32979 0.55798 0.0
C1065 C 0.64249 0.32777 0.53513 0.0
C1066 C 0.69494 0.33049 0.60274 0.0
C1067 C 0.64317 0.32948 0.62605 0.0
H1068 H 0.73551 0.33079 0.54121 0.0
H1069 H 0.7359 0.33217 0.61914 0.0
S1070 S 0.49558 0.32333 0.58186 0.0
N1071 N 0.53801 0.32413 0.53924 0.0
N1072 N 0.53874 0.32562 0.62371 0.0
C1073 C 0.59083 0.32722 0.6038 0.0
C1074 C 0.59049 0.32629 0.5582 0.0
C1075 C 0.67881 0.94917 0.56743 0.0
C1076 C 0.62532 0.95092 0.54663 0.0
C1077 C 0.68214 0.9487 0.6121 0.0
C1078 C 0.63215 0.95021 0.63754 0.0
H1079 H 0.71848 0.94811 0.54908 0.0
H1080 H 0.72444 0.94752 0.62673 0.0
S1081 S 0.48152 0.95497 0.59852 0.0
N1082 N 0.5211 0.954 0.55444 0.0
N1083 N 0.52747 0.9533 0.63888 0.0
C1084 C 0.57827 0.95188 0.61718 0.0
C1085 C 0.5748 0.95216 0.57156 0.0
C1086 C 0.43745 0.70415 0.35345 0.0
C1087 C 0.38817 0.70632 0.3791 0.0
C1088 C 0.43295 0.70376 0.30877 0.0
C1089 C 0.37914 0.7058 0.28827 0.0
H1090 H 0.47959 0.70237 0.36798 0.0
H1091 H 0.47208 0.7019 0.2902 0.0
S1092 S 0.23762 0.71299 0.3414 0.0
N1093 N 0.28427 0.71127 0.38128 0.0
N1094 N 0.27586 0.71067 0.297 0.0
C1095 C 0.32968 0.70841 0.31361 0.0
C1096 C 0.33419 0.70862 0.35915 0.0
C1097 C 0.35591 0.09279 0.36908 0.0
C1098 C 0.41047 0.09121 0.38842 0.0
C1099 C 0.34999 0.09228 0.32448 0.0
C1100 C 0.39837 0.08993 0.2977 0.0
H1101 H 0.31729 0.09405 0.38855 0.0
H1102 H 0.30686 0.09307 0.31107 0.0
S1103 S 0.55135 0.0863 0.33225 0.0
N1104 N 0.51436 0.08817 0.37734 0.0
N1105 N 0.50295 0.08711 0.29337 0.0
C1106 C 0.45344 0.08899 0.31649 0.0
C1107 C 0.4596 0.08968 0.36191 0.0
C1108 C 0.60167 0.83061 0.06851 0.0
C1109 C 0.65584 0.8296 0.04841 0.0
C1110 C 0.59732 0.83149 0.11308 0.0
C1111 C 0.64696 0.83113 0.13915 0.0
H1112 H 0.56228 0.83089 0.04969 0.0
H1113 H 0.55453 0.83215 0.12717 0.0
S1114 S 0.799 0.82829 0.10203 0.0
N1115 N 0.76027 0.82822 0.05747 0.0
N1116 N 0.75196 0.82963 0.14182 0.0
C1117 C 0.70148 0.83003 0.1195 0.0
C1118 C 0.70596 0.82936 0.07393 0.0
C1119 C 0.61516 0.43551 0.06098 0.0
C1120 C 0.62644 0.45109 0.03946 0.0
C1121 C 0.61193 0.43502 0.10576 0.0
C1122 C 0.6177 0.45021 0.12988 0.0
H1123 H 0.60981 0.42361 0.04311 0.0
H1124 H 0.605 0.42274 0.12164 0.0
S1125 S 0.64591 0.49429 0.0887 0.0
N1126 N 0.64292 0.48205 0.04529 0.0
N1127 N 0.63486 0.48117 0.12978 0.0
C1128 C 0.62784 0.46591 0.10881 0.0
C1129 C 0.63274 0.46635 0.06335 0.0
C1130 C 0.44383 0.2055 0.82284 0.0
C1131 C 0.3941 0.20479 0.7969 0.0
C1132 C 0.43946 0.20642 0.86741 0.0
C1133 C 0.38525 0.20641 0.88763 0.0
H1134 H 0.48662 0.20544 0.80866 0.0
H1135 H 0.47893 0.2068 0.88615 0.0
S1136 S 0.24182 0.20528 0.83428 0.0
N1137 N 0.28892 0.20459 0.79445 0.0
N1138 N 0.28066 0.20616 0.87872 0.0
C1139 C 0.33506 0.20588 0.86218 0.0
C1140 C 0.33951 0.20513 0.81663 0.0
C1141 C 0.43577 0.58586 0.86242 0.0
C1142 C 0.38299 0.58289 0.88373 0.0
C1143 C 0.43812 0.58723 0.81773 0.0
C1144 C 0.38766 0.58594 0.79293 0.0
H1145 H 0.47586 0.58682 0.88027 0.0
H1146 H 0.47974 0.58923 0.8025 0.0
S1147 S 0.23847 0.57836 0.8331 0.0
N1148 N 0.27897 0.57886 0.87671 0.0
N1149 N 0.28331 0.58151 0.7926 0.0
C1150 C 0.33442 0.58324 0.81381 0.0
C1151 C 0.3321 0.58166 0.85927 0.0
loop_
_geom_bond_atom_site_label_1
_geom_bond_atom_site_label_2
_geom_bond_distance
_geom_bond_site_symmetry_2
_ccdc_geom_bond_type
O0 Cd1 2.223 . S
O0 C8 1.315 . S
Cd1 O0 2.223 . S
Cd1 O4 2.297 . S
Cd1 O5 2.439 . S
Cd1 O11 2.240 . S
Cd2 O3 2.240 . S
Cd2 O10 2.223 . S
Cd2 O12 2.297 . S
Cd2 O13 2.439 . S
O3 Cd2 2.240 . S
O3 C8 1.279 . S
O4 Cd1 2.297 . S
O4 C6 1.247 . S
O5 Cd1 2.439 . S
O5 C6 1.208 . S
C6 O4 1.247 . S
C6 O5 1.208 . S
C7 O12 1.247 . S
C7 O13 1.208 . S
C8 O0 1.315 . S
C8 O3 1.279 . S
C9 O10 1.315 . S
C9 O11 1.279 . S
O10 Cd2 2.223 . S
O10 C9 1.315 . S
O11 Cd1 2.240 . S
O11 C9 1.279 . S
O12 Cd2 2.297 . S
O12 C7 1.247 . S
O13 Cd2 2.439 . S
O13 C7 1.208 . S
O14 Cd15 2.223 . S
O14 C22 1.315 . S
Cd15 O14 2.223 . S
Cd15 O18 2.297 1_455 S
Cd15 O19 2.439 . S
Cd15 O25 2.240 . S
Cd16 O17 2.240 . S
Cd16 O24 2.223 . S
Cd16 O26 2.297 . S
Cd16 O27 2.439 . S
O17 Cd16 2.240 . S
O17 C22 1.279 . S
O18 Cd15 2.297 1_655 S
O18 C20 1.247 . S
O19 Cd15 2.439 . S
O19 C20 1.208 1_455 S
C20 O18 1.247 . S
C20 O19 1.208 1_655 S
C21 O26 1.247 . S
C21 O27 1.208 . S
C22 O14 1.315 . S
C22 O17 1.279 . S
C23 O24 1.315 . S
C23 O25 1.279 . S
O24 Cd16 2.223 . S
O24 C23 1.315 . S
O25 Cd15 2.240 . S
O25 C23 1.279 . S
O26 Cd16 2.297 . S
O26 C21 1.247 . S
O27 Cd16 2.439 . S
O27 C21 1.208 . S
O28 Cd29 2.223 . S
O28 C36 1.315 . S
Cd29 O28 2.223 . S
Cd29 O32 2.297 . S
Cd29 O33 2.439 . S
Cd29 O39 2.240 1_556 S
Cd30 O31 2.240 . S
Cd30 O38 2.223 1_556 S
Cd30 O40 2.297 . S
Cd30 O41 2.439 . S
O31 Cd30 2.240 . S
O31 C36 1.279 . S
O32 Cd29 2.297 . S
O32 C34 1.247 . S
O33 Cd29 2.439 . S
O33 C34 1.208 . S
C34 O32 1.247 . S
C34 O33 1.208 . S
C35 O40 1.247 . S
C35 O41 1.208 . S
C36 O28 1.315 . S
C36 O31 1.279 . S
C37 O38 1.315 . S
C37 O39 1.279 . S
O38 Cd30 2.223 1_554 S
O38 C37 1.315 . S
O39 Cd29 2.240 1_554 S
O39 C37 1.279 . S
O40 Cd30 2.297 . S
O40 C35 1.247 . S
O41 Cd30 2.439 . S
O41 C35 1.208 . S
O42 Cd43 2.223 . S
O42 C50 1.315 . S
Cd43 O42 2.223 . S
Cd43 O46 2.297 1_455 S
Cd43 O47 2.439 . S
Cd43 O53 2.240 1_556 S
Cd44 O45 2.240 . S
Cd44 O52 2.223 1_556 S
Cd44 O54 2.297 . S
Cd44 O55 2.439 . S
O45 Cd44 2.240 . S
O45 C50 1.279 . S
O46 Cd43 2.297 1_655 S
O46 C48 1.247 . S
O47 Cd43 2.439 . S
O47 C48 1.208 1_455 S
C48 O46 1.247 . S
C48 O47 1.208 1_655 S
C49 O54 1.247 . S
C49 O55 1.208 . S
C50 O42 1.315 . S
C50 O45 1.279 . S
C51 O52 1.315 . S
C51 O53 1.279 . S
O52 Cd44 2.223 1_554 S
O52 C51 1.315 . S
O53 Cd43 2.240 1_554 S
O53 C51 1.279 . S
O54 Cd44 2.297 . S
O54 C49 1.247 . S
O55 Cd44 2.439 . S
O55 C49 1.208 . S
O56 Cd57 2.223 . S
O56 C64 1.315 . S
Cd57 O56 2.223 . S
Cd57 O60 2.297 . S
Cd57 O61 2.439 . S
Cd57 O67 2.240 . S
Cd58 O59 2.240 . S
Cd58 O66 2.223 . S
Cd58 O68 2.297 . S
Cd58 O69 2.439 . S
O59 Cd58 2.240 . S
O59 C64 1.279 . S
O60 Cd57 2.297 . S
O60 C62 1.247 . S
O61 Cd57 2.439 . S
O61 C62 1.208 . S
C62 O60 1.247 . S
C62 O61 1.208 . S
C63 O68 1.247 . S
C63 O69 1.208 . S
C64 O56 1.315 . S
C64 O59 1.279 . S
C65 O66 1.315 . S
C65 O67 1.279 . S
O66 Cd58 2.223 . S
O66 C65 1.315 . S
O67 Cd57 2.240 . S
O67 C65 1.279 . S
O68 Cd58 2.297 . S
O68 C63 1.247 . S
O69 Cd58 2.439 . S
O69 C63 1.208 . S
O70 Cd71 2.223 . S
O70 C78 1.315 . S
Cd71 O70 2.223 . S
Cd71 O74 2.297 . S
Cd71 O75 2.439 . S
Cd71 O81 2.240 . S
Cd72 O73 2.240 . S
Cd72 O80 2.223 . S
Cd72 O82 2.297 1_655 S
Cd72 O83 2.439 . S
O73 Cd72 2.240 . S
O73 C78 1.279 . S
O74 Cd71 2.297 . S
O74 C76 1.247 . S
O75 Cd71 2.439 . S
O75 C76 1.208 . S
C76 O74 1.247 . S
C76 O75 1.208 . S
C77 O82 1.247 . S
C77 O83 1.208 1_455 S
C78 O70 1.315 . S
C78 O73 1.279 . S
C79 O80 1.315 . S
C79 O81 1.279 . S
O80 Cd72 2.223 . S
O80 C79 1.315 . S
O81 Cd71 2.240 . S
O81 C79 1.279 . S
O82 Cd72 2.297 1_455 S
O82 C77 1.247 . S
O83 Cd72 2.439 . S
O83 C77 1.208 1_655 S
O84 Cd85 2.223 1_556 S
O84 C92 1.315 . S
Cd85 O84 2.223 1_554 S
Cd85 O88 2.297 . S
Cd85 O89 2.439 . S
Cd85 O95 2.240 . S
Cd86 O87 2.240 1_554 S
Cd86 O94 2.223 . S
Cd86 O96 2.297 . S
Cd86 O97 2.439 . S
O87 Cd86 2.240 1_556 S
O87 C92 1.279 . S
O88 Cd85 2.297 . S
O88 C90 1.247 . S
O89 Cd85 2.439 . S
O89 C90 1.208 . S
C90 O88 1.247 . S
C90 O89 1.208 . S
C91 O96 1.247 . S
C91 O97 1.208 . S
C92 O84 1.315 . S
C92 O87 1.279 . S
C93 O94 1.315 . S
C93 O95 1.279 . S
O94 Cd86 2.223 . S
O94 C93 1.315 . S
O95 Cd85 2.240 . S
O95 C93 1.279 . S
O96 Cd86 2.297 . S
O96 C91 1.247 . S
O97 Cd86 2.439 . S
O97 C91 1.208 . S
O98 Cd99 2.223 1_556 S
O98 C106 1.315 . S
Cd99 O98 2.223 1_554 S
Cd99 O102 2.297 . S
Cd99 O103 2.439 . S
Cd99 O109 2.240 . S
Cd100 O101 2.240 1_554 S
Cd100 O108 2.223 . S
Cd100 O110 2.297 1_655 S
Cd100 O111 2.439 . S
O101 Cd100 2.240 1_556 S
O101 C106 1.279 . S
O102 Cd99 2.297 . S
O102 C104 1.247 . S
O103 Cd99 2.439 . S
O103 C104 1.208 . S
C104 O102 1.247 . S
C104 O103 1.208 . S
C105 O110 1.247 . S
C105 O111 1.208 1_455 S
C106 O98 1.315 . S
C106 O101 1.279 . S
C107 O108 1.315 . S
C107 O109 1.279 . S
O108 Cd100 2.223 . S
O108 C107 1.315 . S
O109 Cd99 2.240 . S
O109 C107 1.279 . S
O110 Cd100 2.297 1_455 S
O110 C105 1.247 . S
O111 Cd100 2.439 . S
O111 C105 1.208 1_655 S
O112 Cd113 2.223 . S
O112 C120 1.315 . S
Cd113 O112 2.223 . S
Cd113 O116 2.297 . S
Cd113 O117 2.439 . S
Cd113 O123 2.240 . S
Cd114 O115 2.240 . S
Cd114 O122 2.223 . S
Cd114 O124 2.297 . S
Cd114 O125 2.439 . S
O115 Cd114 2.240 . S
O115 C120 1.279 . S
O116 Cd113 2.297 . S
O116 C118 1.247 . S
O117 Cd113 2.439 . S
O117 C118 1.208 . S
C118 O116 1.247 . S
C118 O117 1.208 . S
C119 O124 1.247 . S
C119 O125 1.208 . S
C120 O112 1.315 . S
C120 O115 1.279 . S
C121 O122 1.315 . S
C121 O123 1.279 . S
O122 Cd114 2.223 . S
O122 C121 1.315 . S
O123 Cd113 2.240 . S
O123 C121 1.279 . S
O124 Cd114 2.297 . S
O124 C119 1.247 . S
O125 Cd114 2.439 . S
O125 C119 1.208 . S
O126 Cd127 2.223 . S
O126 C134 1.315 . S
Cd127 O126 2.223 . S
Cd127 O130 2.297 1_455 S
Cd127 O131 2.439 . S
Cd127 O137 2.240 . S
Cd128 O129 2.240 . S
Cd128 O136 2.223 . S
Cd128 O138 2.297 . S
Cd128 O139 2.439 . S
O129 Cd128 2.240 . S
O129 C134 1.279 . S
O130 Cd127 2.297 1_655 S
O130 C132 1.247 . S
O131 Cd127 2.439 . S
O131 C132 1.208 1_455 S
C132 O130 1.247 . S
C132 O131 1.208 1_655 S
C133 O138 1.247 . S
C133 O139 1.208 . S
C134 O126 1.315 . S
C134 O129 1.279 . S
C135 O136 1.315 . S
C135 O137 1.279 . S
O136 Cd128 2.223 . S
O136 C135 1.315 . S
O137 Cd127 2.240 . S
O137 C135 1.279 . S
O138 Cd128 2.297 . S
O138 C133 1.247 . S
O139 Cd128 2.439 . S
O139 C133 1.208 . S
O140 Cd141 2.223 . S
O140 C148 1.315 . S
Cd141 O140 2.223 . S
Cd141 O144 2.297 . S
Cd141 O145 2.439 . S
Cd141 O151 2.240 . S
Cd142 O143 2.240 . S
Cd142 O150 2.223 . S
Cd142 O152 2.297 . S
Cd142 O153 2.439 . S
O143 Cd142 2.240 . S
O143 C148 1.279 . S
O144 Cd141 2.297 . S
O144 C146 1.247 . S
O145 Cd141 2.439 . S
O145 C146 1.208 . S
C146 O144 1.247 . S
C146 O145 1.208 . S
C147 O152 1.247 . S
C147 O153 1.208 . S
C148 O140 1.315 . S
C148 O143 1.279 . S
C149 O150 1.315 . S
C149 O151 1.279 . S
O150 Cd142 2.223 . S
O150 C149 1.315 . S
O151 Cd141 2.240 . S
O151 C149 1.279 . S
O152 Cd142 2.297 . S
O152 C147 1.247 . S
O153 Cd142 2.439 . S
O153 C147 1.208 . S
O154 Cd155 2.223 . S
O154 C162 1.315 . S
Cd155 O154 2.223 . S
Cd155 O158 2.297 1_455 S
Cd155 O159 2.439 . S
Cd155 O165 2.240 . S
Cd156 O157 2.240 . S
Cd156 O164 2.223 . S
Cd156 O166 2.297 . S
Cd156 O167 2.439 . S
O157 Cd156 2.240 . S
O157 C162 1.279 . S
O158 Cd155 2.297 1_655 S
O158 C160 1.247 . S
O159 Cd155 2.439 . S
O159 C160 1.208 1_455 S
C160 O158 1.247 . S
C160 O159 1.208 1_655 S
C161 O166 1.247 . S
C161 O167 1.208 . S
C162 O154 1.315 . S
C162 O157 1.279 . S
C163 O164 1.315 . S
C163 O165 1.279 . S
O164 Cd156 2.223 . S
O164 C163 1.315 . S
O165 Cd155 2.240 . S
O165 C163 1.279 . S
O166 Cd156 2.297 . S
O166 C161 1.247 . S
O167 Cd156 2.439 . S
O167 C161 1.208 . S
O168 Cd169 2.223 . S
O168 C176 1.315 . S
Cd169 O168 2.223 . S
Cd169 O172 2.297 . S
Cd169 O173 2.439 . S
Cd169 O179 2.240 . S
Cd170 O171 2.240 . S
Cd170 O178 2.223 . S
Cd170 O180 2.297 . S
Cd170 O181 2.439 . S
O171 Cd170 2.240 . S
O171 C176 1.279 . S
O172 Cd169 2.297 . S
O172 C174 1.247 . S
O173 Cd169 2.439 . S
O173 C174 1.208 . S
C174 O172 1.247 . S
C174 O173 1.208 . S
C175 O180 1.247 . S
C175 O181 1.208 . S
C176 O168 1.315 . S
C176 O171 1.279 . S
C177 O178 1.315 . S
C177 O179 1.279 . S
O178 Cd170 2.223 . S
O178 C177 1.315 . S
O179 Cd169 2.240 . S
O179 C177 1.279 . S
O180 Cd170 2.297 . S
O180 C175 1.247 . S
O181 Cd170 2.439 . S
O181 C175 1.208 . S
O182 Cd183 2.223 . S
O182 C190 1.315 . S
Cd183 O182 2.223 . S
Cd183 O186 2.297 . S
Cd183 O187 2.439 . S
Cd183 O193 2.240 . S
Cd184 O185 2.240 . S
Cd184 O192 2.223 . S
Cd184 O194 2.297 1_655 S
Cd184 O195 2.439 . S
O185 Cd184 2.240 . S
O185 C190 1.279 . S
O186 Cd183 2.297 . S
O186 C188 1.247 . S
O187 Cd183 2.439 . S
O187 C188 1.208 . S
C188 O186 1.247 . S
C188 O187 1.208 . S
C189 O194 1.247 . S
C189 O195 1.208 1_455 S
C190 O182 1.315 . S
C190 O185 1.279 . S
C191 O192 1.315 . S
C191 O193 1.279 . S
O192 Cd184 2.223 . S
O192 C191 1.315 . S
O193 Cd183 2.240 . S
O193 C191 1.279 . S
O194 Cd184 2.297 1_455 S
O194 C189 1.247 . S
O195 Cd184 2.439 . S
O195 C189 1.208 1_655 S
O196 Cd197 2.223 . S
O196 C204 1.315 . S
Cd197 O196 2.223 . S
Cd197 O200 2.297 . S
Cd197 O201 2.439 . S
Cd197 O207 2.240 . S
Cd198 O199 2.240 . S
Cd198 O206 2.223 . S
Cd198 O208 2.297 . S
Cd198 O209 2.439 . S
O199 Cd198 2.240 . S
O199 C204 1.279 . S
O200 Cd197 2.297 . S
O200 C202 1.247 . S
O201 Cd197 2.439 . S
O201 C202 1.208 . S
C202 O200 1.247 . S
C202 O201 1.208 . S
C203 O208 1.247 . S
C203 O209 1.208 . S
C204 O196 1.315 . S
C204 O199 1.279 . S
C205 O206 1.315 . S
C205 O207 1.279 . S
O206 Cd198 2.223 . S
O206 C205 1.315 . S
O207 Cd197 2.240 . S
O207 C205 1.279 . S
O208 Cd198 2.297 . S
O208 C203 1.247 . S
O209 Cd198 2.439 . S
O209 C203 1.208 . S
O210 Cd211 2.223 . S
O210 C218 1.315 . S
Cd211 O210 2.223 . S
Cd211 O214 2.297 . S
Cd211 O215 2.439 . S
Cd211 O221 2.240 . S
Cd212 O213 2.240 . S
Cd212 O220 2.223 . S
Cd212 O222 2.297 1_655 S
Cd212 O223 2.439 . S
O213 Cd212 2.240 . S
O213 C218 1.279 . S
O214 Cd211 2.297 . S
O214 C216 1.247 . S
O215 Cd211 2.439 . S
O215 C216 1.208 . S
C216 O214 1.247 . S
C216 O215 1.208 . S
C217 O222 1.247 . S
C217 O223 1.208 1_455 S
C218 O210 1.315 . S
C218 O213 1.279 . S
C219 O220 1.315 . S
C219 O221 1.279 . S
O220 Cd212 2.223 . S
O220 C219 1.315 . S
O221 Cd211 2.240 . S
O221 C219 1.279 . S
O222 Cd212 2.297 1_455 S
O222 C217 1.247 . S
O223 Cd212 2.439 . S
O223 C217 1.208 1_655 S
O224 Cd225 2.223 . S
O224 C232 1.315 . S
Cd225 O224 2.223 . S
Cd225 O228 2.297 . S
Cd225 O229 2.439 . S
Cd225 O235 2.240 . S
Cd226 O227 2.240 . S
Cd226 O234 2.223 . S
Cd226 O236 2.297 . S
Cd226 O237 2.439 . S
O227 Cd226 2.240 . S
O227 C232 1.279 . S
O228 Cd225 2.297 . S
O228 C230 1.247 . S
O229 Cd225 2.439 . S
O229 C230 1.208 . S
C230 O228 1.247 . S
C230 O229 1.208 . S
C231 O236 1.247 . S
C231 O237 1.208 . S
C232 O224 1.315 . S
C232 O227 1.279 . S
C233 O234 1.315 . S
C233 O235 1.279 . S
O234 Cd226 2.223 . S
O234 C233 1.315 . S
O235 Cd225 2.240 . S
O235 C233 1.279 . S
O236 Cd226 2.297 . S
O236 C231 1.247 . S
O237 Cd226 2.439 . S
O237 C231 1.208 . S
O238 Cd239 2.223 . S
O238 C246 1.315 . S
Cd239 O238 2.223 . S
Cd239 O242 2.297 . S
Cd239 O243 2.439 . S
Cd239 O249 2.240 . S
Cd240 O241 2.240 . S
Cd240 O248 2.223 . S
Cd240 O250 2.297 . S
Cd240 O251 2.439 . S
O241 Cd240 2.240 . S
O241 C246 1.279 . S
O242 Cd239 2.297 . S
O242 C244 1.247 . S
O243 Cd239 2.439 . S
O243 C244 1.208 . S
C244 O242 1.247 . S
C244 O243 1.208 . S
C245 O250 1.247 . S
C245 O251 1.208 . S
C246 O238 1.315 . S
C246 O241 1.279 . S
C247 O248 1.315 . S
C247 O249 1.279 . S
O248 Cd240 2.223 . S
O248 C247 1.315 . S
O249 Cd239 2.240 . S
O249 C247 1.279 . S
O250 Cd240 2.297 . S
O250 C245 1.247 . S
O251 Cd240 2.439 . S
O251 C245 1.208 . S
O252 Cd253 2.223 . S
O252 C260 1.315 . S
Cd253 O252 2.223 . S
Cd253 O256 2.297 . S
Cd253 O257 2.439 . S
Cd253 O263 2.240 . S
Cd254 O255 2.240 . S
Cd254 O262 2.223 . S
Cd254 O264 2.297 . S
Cd254 O265 2.439 . S
O255 Cd254 2.240 . S
O255 C260 1.279 . S
O256 Cd253 2.297 . S
O256 C258 1.247 . S
O257 Cd253 2.439 . S
O257 C258 1.208 . S
C258 O256 1.247 . S
C258 O257 1.208 . S
C259 O264 1.247 . S
C259 O265 1.208 . S
C260 O252 1.315 . S
C260 O255 1.279 . S
C261 O262 1.315 . S
C261 O263 1.279 . S
O262 Cd254 2.223 . S
O262 C261 1.315 . S
O263 Cd253 2.240 . S
O263 C261 1.279 . S
O264 Cd254 2.297 . S
O264 C259 1.247 . S
O265 Cd254 2.439 . S
O265 C259 1.208 . S
O266 Cd267 2.223 . S
O266 C274 1.315 . S
Cd267 O266 2.223 . S
Cd267 O270 2.297 . S
Cd267 O271 2.439 . S
Cd267 O277 2.240 . S
Cd268 O269 2.240 . S
Cd268 O276 2.223 . S
Cd268 O278 2.297 . S
Cd268 O279 2.439 . S
O269 Cd268 2.240 . S
O269 C274 1.279 . S
O270 Cd267 2.297 . S
O270 C272 1.247 . S
O271 Cd267 2.439 . S
O271 C272 1.208 . S
C272 O270 1.247 . S
C272 O271 1.208 . S
C273 O278 1.247 . S
C273 O279 1.208 . S
C274 O266 1.315 . S
C274 O269 1.279 . S
C275 O276 1.315 . S
C275 O277 1.279 . S
O276 Cd268 2.223 . S
O276 C275 1.315 . S
O277 Cd267 2.240 . S
O277 C275 1.279 . S
O278 Cd268 2.297 . S
O278 C273 1.247 . S
O279 Cd268 2.439 . S
O279 C273 1.208 . S
O280 Cd281 2.223 . S
O280 C288 1.315 . S
Cd281 O280 2.223 . S
Cd281 O284 2.297 . S
Cd281 O285 2.439 . S
Cd281 O291 2.240 . S
Cd282 O283 2.240 . S
Cd282 O290 2.223 . S
Cd282 O292 2.297 . S
Cd282 O293 2.439 . S
O283 Cd282 2.240 . S
O283 C288 1.279 . S
O284 Cd281 2.297 . S
O284 C286 1.247 . S
O285 Cd281 2.439 . S
O285 C286 1.208 . S
C286 O284 1.247 . S
C286 O285 1.208 . S
C287 O292 1.247 . S
C287 O293 1.208 . S
C288 O280 1.315 . S
C288 O283 1.279 . S
C289 O290 1.315 . S
C289 O291 1.279 . S
O290 Cd282 2.223 . S
O290 C289 1.315 . S
O291 Cd281 2.240 . S
O291 C289 1.279 . S
O292 Cd282 2.297 . S
O292 C287 1.247 . S
O293 Cd282 2.439 . S
O293 C287 1.208 . S
O294 Cd295 2.223 . S
O294 C302 1.315 . S
Cd295 O294 2.223 . S
Cd295 O298 2.297 . S
Cd295 O299 2.439 . S
Cd295 O305 2.240 . S
Cd296 O297 2.240 . S
Cd296 O304 2.223 . S
Cd296 O306 2.297 . S
Cd296 O307 2.439 . S
O297 Cd296 2.240 . S
O297 C302 1.279 . S
O298 Cd295 2.297 . S
O298 C300 1.247 . S
O299 Cd295 2.439 . S
O299 C300 1.208 . S
C300 O298 1.247 . S
C300 O299 1.208 . S
C301 O306 1.247 . S
C301 O307 1.208 . S
C302 O294 1.315 . S
C302 O297 1.279 . S
C303 O304 1.315 . S
C303 O305 1.279 . S
O304 Cd296 2.223 . S
O304 C303 1.315 . S
O305 Cd295 2.240 . S
O305 C303 1.279 . S
O306 Cd296 2.297 . S
O306 C301 1.247 . S
O307 Cd296 2.439 . S
O307 C301 1.208 . S
O308 Cd309 2.223 . S
O308 C316 1.315 . S
Cd309 O308 2.223 . S
Cd309 O312 2.297 . S
Cd309 O313 2.439 . S
Cd309 O319 2.240 . S
Cd310 O311 2.240 . S
Cd310 O318 2.223 . S
Cd310 O320 2.297 . S
Cd310 O321 2.439 . S
O311 Cd310 2.240 . S
O311 C316 1.279 . S
O312 Cd309 2.297 . S
O312 C314 1.247 . S
O313 Cd309 2.439 . S
O313 C314 1.208 . S
C314 O312 1.247 . S
C314 O313 1.208 . S
C315 O320 1.247 . S
C315 O321 1.208 . S
C316 O308 1.315 . S
C316 O311 1.279 . S
C317 O318 1.315 . S
C317 O319 1.279 . S
O318 Cd310 2.223 . S
O318 C317 1.315 . S
O319 Cd309 2.240 . S
O319 C317 1.279 . S
O320 Cd310 2.297 . S
O320 C315 1.247 . S
O321 Cd310 2.439 . S
O321 C315 1.208 . S
O322 Cd323 2.223 . S
O322 C330 1.315 . S
Cd323 O322 2.223 . S
Cd323 O326 2.297 . S
Cd323 O327 2.439 . S
Cd323 O333 2.240 . S
Cd324 O325 2.240 . S
Cd324 O332 2.223 . S
Cd324 O334 2.297 . S
Cd324 O335 2.439 . S
O325 Cd324 2.240 . S
O325 C330 1.279 . S
O326 Cd323 2.297 . S
O326 C328 1.247 . S
O327 Cd323 2.439 . S
O327 C328 1.208 . S
C328 O326 1.247 . S
C328 O327 1.208 . S
C329 O334 1.247 . S
C329 O335 1.208 . S
C330 O322 1.315 . S
C330 O325 1.279 . S
C331 O332 1.315 . S
C331 O333 1.279 . S
O332 Cd324 2.223 . S
O332 C331 1.315 . S
O333 Cd323 2.240 . S
O333 C331 1.279 . S
O334 Cd324 2.297 . S
O334 C329 1.247 . S
O335 Cd324 2.439 . S
O335 C329 1.208 . S
O336 Cd337 2.223 . S
O336 C344 1.315 . S
Cd337 O336 2.223 . S
Cd337 O340 2.297 . S
Cd337 O341 2.439 . S
Cd337 O347 2.240 . S
Cd338 O339 2.240 . S
Cd338 O346 2.223 . S
Cd338 O348 2.297 . S
Cd338 O349 2.439 . S
O339 Cd338 2.240 . S
O339 C344 1.279 . S
O340 Cd337 2.297 . S
O340 C342 1.247 . S
O341 Cd337 2.439 . S
O341 C342 1.208 . S
C342 O340 1.247 . S
C342 O341 1.208 . S
C343 O348 1.247 . S
C343 O349 1.208 . S
C344 O336 1.315 . S
C344 O339 1.279 . S
C345 O346 1.315 . S
C345 O347 1.279 . S
O346 Cd338 2.223 . S
O346 C345 1.315 . S
O347 Cd337 2.240 . S
O347 C345 1.279 . S
O348 Cd338 2.297 . S
O348 C343 1.247 . S
O349 Cd338 2.439 . S
O349 C343 1.208 . S
O350 Cd351 2.223 . S
O350 C358 1.315 . S
Cd351 O350 2.223 . S
Cd351 O354 2.297 . S
Cd351 O355 2.439 . S
Cd351 O361 2.240 . S
Cd352 O353 2.240 . S
Cd352 O360 2.223 . S
Cd352 O362 2.297 . S
Cd352 O363 2.439 . S
O353 Cd352 2.240 . S
O353 C358 1.279 . S
O354 Cd351 2.297 . S
O354 C356 1.247 . S
O355 Cd351 2.439 . S
O355 C356 1.208 . S
C356 O354 1.247 . S
C356 O355 1.208 . S
C357 O362 1.247 . S
C357 O363 1.208 . S
C358 O350 1.315 . S
C358 O353 1.279 . S
C359 O360 1.315 . S
C359 O361 1.279 . S
O360 Cd352 2.223 . S
O360 C359 1.315 . S
O361 Cd351 2.240 . S
O361 C359 1.279 . S
O362 Cd352 2.297 . S
O362 C357 1.247 . S
O363 Cd352 2.439 . S
O363 C357 1.208 . S
O364 Cd365 2.223 . S
O364 C372 1.315 . S
Cd365 O364 2.223 . S
Cd365 O368 2.297 . S
Cd365 O369 2.439 . S
Cd365 O375 2.240 1_556 S
Cd366 O367 2.240 . S
Cd366 O374 2.223 1_556 S
Cd366 O376 2.297 . S
Cd366 O377 2.439 . S
O367 Cd366 2.240 . S
O367 C372 1.279 . S
O368 Cd365 2.297 . S
O368 C370 1.247 . S
O369 Cd365 2.439 . S
O369 C370 1.208 . S
C370 O368 1.247 . S
C370 O369 1.208 . S
C371 O376 1.247 . S
C371 O377 1.208 . S
C372 O364 1.315 . S
C372 O367 1.279 . S
C373 O374 1.315 . S
C373 O375 1.279 . S
O374 Cd366 2.223 1_554 S
O374 C373 1.315 . S
O375 Cd365 2.240 1_554 S
O375 C373 1.279 . S
O376 Cd366 2.297 . S
O376 C371 1.247 . S
O377 Cd366 2.439 . S
O377 C371 1.208 . S
O378 Cd379 2.223 . S
O378 C386 1.315 . S
Cd379 O378 2.223 . S
Cd379 O382 2.297 . S
Cd379 O383 2.439 . S
Cd379 O389 2.240 1_556 S
Cd380 O381 2.240 . S
Cd380 O388 2.223 1_556 S
Cd380 O390 2.297 . S
Cd380 O391 2.439 . S
O381 Cd380 2.240 . S
O381 C386 1.279 . S
O382 Cd379 2.297 . S
O382 C384 1.247 . S
O383 Cd379 2.439 . S
O383 C384 1.208 . S
C384 O382 1.247 . S
C384 O383 1.208 . S
C385 O390 1.247 . S
C385 O391 1.208 . S
C386 O378 1.315 . S
C386 O381 1.279 . S
C387 O388 1.315 . S
C387 O389 1.279 . S
O388 Cd380 2.223 1_554 S
O388 C387 1.315 . S
O389 Cd379 2.240 1_554 S
O389 C387 1.279 . S
O390 Cd380 2.297 . S
O390 C385 1.247 . S
O391 Cd380 2.439 . S
O391 C385 1.208 . S
O392 Cd393 2.223 . S
O392 C400 1.315 . S
Cd393 O392 2.223 . S
Cd393 O396 2.297 . S
Cd393 O397 2.439 . S
Cd393 O403 2.240 . S
Cd394 O395 2.240 . S
Cd394 O402 2.223 . S
Cd394 O404 2.297 . S
Cd394 O405 2.439 . S
O395 Cd394 2.240 . S
O395 C400 1.279 . S
O396 Cd393 2.297 . S
O396 C398 1.247 . S
O397 Cd393 2.439 . S
O397 C398 1.208 . S
C398 O396 1.247 . S
C398 O397 1.208 . S
C399 O404 1.247 . S
C399 O405 1.208 . S
C400 O392 1.315 . S
C400 O395 1.279 . S
C401 O402 1.315 . S
C401 O403 1.279 . S
O402 Cd394 2.223 . S
O402 C401 1.315 . S
O403 Cd393 2.240 . S
O403 C401 1.279 . S
O404 Cd394 2.297 . S
O404 C399 1.247 . S
O405 Cd394 2.439 . S
O405 C399 1.208 . S
O406 Cd407 2.223 . S
O406 C414 1.315 . S
Cd407 O406 2.223 . S
Cd407 O410 2.297 . S
Cd407 O411 2.439 . S
Cd407 O417 2.240 . S
Cd408 O409 2.240 . S
Cd408 O416 2.223 . S
Cd408 O418 2.297 . S
Cd408 O419 2.439 . S
O409 Cd408 2.240 . S
O409 C414 1.279 . S
O410 Cd407 2.297 . S
O410 C412 1.247 . S
O411 Cd407 2.439 . S
O411 C412 1.208 . S
C412 O410 1.247 . S
C412 O411 1.208 . S
C413 O418 1.247 . S
C413 O419 1.208 . S
C414 O406 1.315 . S
C414 O409 1.279 . S
C415 O416 1.315 . S
C415 O417 1.279 . S
O416 Cd408 2.223 . S
O416 C415 1.315 . S
O417 Cd407 2.240 . S
O417 C415 1.279 . S
O418 Cd408 2.297 . S
O418 C413 1.247 . S
O419 Cd408 2.439 . S
O419 C413 1.208 . S
O420 Cd421 2.223 1_556 S
O420 C428 1.315 . S
Cd421 O420 2.223 1_554 S
Cd421 O424 2.297 . S
Cd421 O425 2.439 . S
Cd421 O431 2.240 . S
Cd422 O423 2.240 1_554 S
Cd422 O430 2.223 . S
Cd422 O432 2.297 . S
Cd422 O433 2.439 . S
O423 Cd422 2.240 1_556 S
O423 C428 1.279 . S
O424 Cd421 2.297 . S
O424 C426 1.247 . S
O425 Cd421 2.439 . S
O425 C426 1.208 . S
C426 O424 1.247 . S
C426 O425 1.208 . S
C427 O432 1.247 . S
C427 O433 1.208 . S
C428 O420 1.315 . S
C428 O423 1.279 . S
C429 O430 1.315 . S
C429 O431 1.279 . S
O430 Cd422 2.223 . S
O430 C429 1.315 . S
O431 Cd421 2.240 . S
O431 C429 1.279 . S
O432 Cd422 2.297 . S
O432 C427 1.247 . S
O433 Cd422 2.439 . S
O433 C427 1.208 . S
O434 Cd435 2.223 1_556 S
O434 C442 1.315 . S
Cd435 O434 2.223 1_554 S
Cd435 O438 2.297 . S
Cd435 O439 2.439 . S
Cd435 O445 2.240 . S
Cd436 O437 2.240 1_554 S
Cd436 O444 2.223 . S
Cd436 O446 2.297 . S
Cd436 O447 2.439 . S
O437 Cd436 2.240 1_556 S
O437 C442 1.279 . S
O438 Cd435 2.297 . S
O438 C440 1.247 . S
O439 Cd435 2.439 . S
O439 C440 1.208 . S
C440 O438 1.247 . S
C440 O439 1.208 . S
C441 O446 1.247 . S
C441 O447 1.208 . S
C442 O434 1.315 . S
C442 O437 1.279 . S
C443 O444 1.315 . S
C443 O445 1.279 . S
O444 Cd436 2.223 . S
O444 C443 1.315 . S
O445 Cd435 2.240 . S
O445 C443 1.279 . S
O446 Cd436 2.297 . S
O446 C441 1.247 . S
O447 Cd436 2.439 . S
O447 C441 1.208 . S
C448 C449 1.369 . S
C448 C450 1.419 . S
C448 H452 0.930 . S
C449 C448 1.369 . S
C449 C458 1.429 . S
C450 C448 1.419 . S
C450 C451 1.363 . S
C450 H453 0.929 . S
C451 C450 1.363 . S
C451 C457 1.428 . S
H452 C448 0.930 . S
H453 C450 0.929 . S
S454 N455 1.613 . S
S454 N456 1.610 . S
N455 S454 1.613 . S
N455 C458 1.350 . S
N456 S454 1.610 . S
N456 C457 1.351 . S
C457 C451 1.428 . S
C457 N456 1.351 . S
C457 C458 1.434 . S
C458 C449 1.429 . S
C458 N455 1.350 . S
C458 C457 1.434 . S
C459 C460 1.369 . S
C459 C461 1.419 . S
C459 H463 0.930 . S
C460 C459 1.369 . S
C460 C469 1.429 . S
C461 C459 1.419 . S
C461 C462 1.363 . S
C461 H464 0.929 . S
C462 C461 1.363 . S
C462 C468 1.428 . S
H463 C459 0.930 . S
H464 C461 0.929 . S
S465 N466 1.613 . S
S465 N467 1.610 . S
N466 S465 1.613 . S
N466 C469 1.350 . S
N467 S465 1.610 . S
N467 C468 1.351 . S
C468 C462 1.428 . S
C468 N467 1.351 . S
C468 C469 1.434 . S
C469 C460 1.429 . S
C469 N466 1.350 . S
C469 C468 1.434 . S
C470 C471 1.369 . S
C470 C472 1.419 . S
C470 H474 0.930 . S
C471 C470 1.369 . S
C471 C480 1.429 . S
C472 C470 1.419 . S
C472 C473 1.363 . S
C472 H475 0.929 . S
C473 C472 1.363 . S
C473 C479 1.428 . S
H474 C470 0.930 . S
H475 C472 0.929 . S
S476 N477 1.613 . S
S476 N478 1.610 . S
N477 S476 1.613 . S
N477 C480 1.350 . S
N478 S476 1.610 . S
N478 C479 1.351 . S
C479 C473 1.428 . S
C479 N478 1.351 . S
C479 C480 1.434 . S
C480 C471 1.429 . S
C480 N477 1.350 . S
C480 C479 1.434 . S
C481 C482 1.369 . S
C481 C483 1.419 . S
C481 H485 0.930 . S
C482 C481 1.369 . S
C482 C491 1.429 . S
C483 C481 1.419 . S
C483 C484 1.363 . S
C483 H486 0.929 . S
C484 C483 1.363 . S
C484 C490 1.428 . S
H485 C481 0.930 . S
H486 C483 0.929 . S
S487 N488 1.613 . S
S487 N489 1.610 . S
N488 S487 1.613 . S
N488 C491 1.350 . S
N489 S487 1.610 . S
N489 C490 1.351 . S
C490 C484 1.428 . S
C490 N489 1.351 . S
C490 C491 1.434 . S
C491 C482 1.429 . S
C491 N488 1.350 . S
C491 C490 1.434 . S
C492 C493 1.369 . S
C492 C494 1.419 . S
C492 H496 0.930 . S
C493 C492 1.369 . S
C493 C502 1.429 . S
C494 C492 1.419 . S
C494 C495 1.363 . S
C494 H497 0.929 . S
C495 C494 1.363 . S
C495 C501 1.428 . S
H496 C492 0.930 . S
H497 C494 0.929 . S
S498 N499 1.613 . S
S498 N500 1.610 . S
N499 S498 1.613 . S
N499 C502 1.350 . S
N500 S498 1.610 . S
N500 C501 1.351 . S
C501 C495 1.428 . S
C501 N500 1.351 . S
C501 C502 1.434 . S
C502 C493 1.429 . S
C502 N499 1.350 . S
C502 C501 1.434 . S
C503 C504 1.369 . S
C503 C505 1.419 . S
C503 H507 0.930 . S
C504 C503 1.369 . S
C504 C513 1.429 . S
C505 C503 1.419 . S
C505 C506 1.363 . S
C505 H508 0.929 . S
C506 C505 1.363 . S
C506 C512 1.428 . S
H507 C503 0.930 . S
H508 C505 0.929 . S
S509 N510 1.613 . S
S509 N511 1.610 . S
N510 S509 1.613 . S
N510 C513 1.350 . S
N511 S509 1.610 . S
N511 C512 1.351 . S
C512 C506 1.428 . S
C512 N511 1.351 . S
C512 C513 1.434 . S
C513 C504 1.429 . S
C513 N510 1.350 . S
C513 C512 1.434 . S
C514 C515 1.369 . S
C514 C516 1.419 . S
C514 H518 0.930 . S
C515 C514 1.369 . S
C515 C524 1.429 . S
C516 C514 1.419 . S
C516 C517 1.363 . S
C516 H519 0.929 . S
C517 C516 1.363 . S
C517 C523 1.428 . S
H518 C514 0.930 . S
H519 C516 0.929 . S
S520 N521 1.613 . S
S520 N522 1.610 . S
N521 S520 1.613 . S
N521 C524 1.350 . S
N522 S520 1.610 . S
N522 C523 1.351 . S
C523 C517 1.428 . S
C523 N522 1.351 . S
C523 C524 1.434 . S
C524 C515 1.429 . S
C524 N521 1.350 . S
C524 C523 1.434 . S
C525 C526 1.369 . S
C525 C527 1.419 . S
C525 H529 0.930 . S
C526 C525 1.369 . S
C526 C535 1.429 . S
C527 C525 1.419 . S
C527 C528 1.363 . S
C527 H530 0.929 . S
C528 C527 1.363 . S
C528 C534 1.428 . S
H529 C525 0.930 . S
H530 C527 0.929 . S
S531 N532 1.613 . S
S531 N533 1.610 . S
N532 S531 1.613 . S
N532 C535 1.350 . S
N533 S531 1.610 . S
N533 C534 1.351 . S
C534 C528 1.428 . S
C534 N533 1.351 . S
C534 C535 1.434 . S
C535 C526 1.429 . S
C535 N532 1.350 . S
C535 C534 1.434 . S
C536 C537 1.369 . S
C536 C538 1.419 . S
C536 H540 0.930 . S
C537 C536 1.369 . S
C537 C546 1.429 . S
C538 C536 1.419 . S
C538 C539 1.363 . S
C538 H541 0.929 . S
C539 C538 1.363 . S
C539 C545 1.428 . S
H540 C536 0.930 . S
H541 C538 0.929 . S
S542 N543 1.613 . S
S542 N544 1.610 . S
N543 S542 1.613 . S
N543 C546 1.350 . S
N544 S542 1.610 . S
N544 C545 1.351 . S
C545 C539 1.428 . S
C545 N544 1.351 . S
C545 C546 1.434 . S
C546 C537 1.429 . S
C546 N543 1.350 . S
C546 C545 1.434 . S
C547 C548 1.369 . S
C547 C549 1.419 . S
C547 H551 0.930 . S
C548 C547 1.369 . S
C548 C557 1.429 . S
C549 C547 1.419 . S
C549 C550 1.363 . S
C549 H552 0.929 . S
C550 C549 1.363 . S
C550 C556 1.428 . S
H551 C547 0.930 . S
H552 C549 0.929 . S
S553 N554 1.613 . S
S553 N555 1.610 . S
N554 S553 1.613 . S
N554 C557 1.350 . S
N555 S553 1.610 . S
N555 C556 1.351 . S
C556 C550 1.428 . S
C556 N555 1.351 . S
C556 C557 1.434 . S
C557 C548 1.429 . S
C557 N554 1.350 . S
C557 C556 1.434 . S
C558 C559 1.369 . S
C558 C560 1.419 . S
C558 H562 0.930 . S
C559 C558 1.369 . S
C559 C568 1.429 . S
C560 C558 1.419 . S
C560 C561 1.363 . S
C560 H563 0.929 . S
C561 C560 1.363 . S
C561 C567 1.428 . S
H562 C558 0.930 . S
H563 C560 0.929 . S
S564 N565 1.613 . S
S564 N566 1.610 . S
N565 S564 1.613 . S
N565 C568 1.350 . S
N566 S564 1.610 . S
N566 C567 1.351 . S
C567 C561 1.428 . S
C567 N566 1.351 . S
C567 C568 1.434 . S
C568 C559 1.429 . S
C568 N565 1.350 . S
C568 C567 1.434 . S
C569 C570 1.369 . S
C569 C571 1.419 . S
C569 H573 0.930 . S
C570 C569 1.369 . S
C570 C579 1.429 . S
C571 C569 1.419 . S
C571 C572 1.363 . S
C571 H574 0.929 . S
C572 C571 1.363 . S
C572 C578 1.428 . S
H573 C569 0.930 . S
H574 C571 0.929 . S
S575 N576 1.613 . S
S575 N577 1.610 . S
N576 S575 1.613 . S
N576 C579 1.350 . S
N577 S575 1.610 . S
N577 C578 1.351 . S
C578 C572 1.428 . S
C578 N577 1.351 . S
C578 C579 1.434 . S
C579 C570 1.429 . S
C579 N576 1.350 . S
C579 C578 1.434 . S
C580 C581 1.369 . S
C580 C582 1.419 . S
C580 H584 0.930 . S
C581 C580 1.369 . S
C581 C590 1.429 . S
C582 C580 1.419 . S
C582 C583 1.363 . S
C582 H585 0.929 . S
C583 C582 1.363 . S
C583 C589 1.428 . S
H584 C580 0.930 . S
H585 C582 0.929 . S
S586 N587 1.613 . S
S586 N588 1.610 . S
N587 S586 1.613 . S
N587 C590 1.350 . S
N588 S586 1.610 . S
N588 C589 1.351 . S
C589 C583 1.428 . S
C589 N588 1.351 . S
C589 C590 1.434 . S
C590 C581 1.429 . S
C590 N587 1.350 . S
C590 C589 1.434 . S
C591 C592 1.369 . S
C591 C593 1.419 . S
C591 H595 0.930 . S
C592 C591 1.369 . S
C592 C601 1.429 . S
C593 C591 1.419 . S
C593 C594 1.363 . S
C593 H596 0.929 . S
C594 C593 1.363 . S
C594 C600 1.428 . S
H595 C591 0.930 . S
H596 C593 0.929 . S
S597 N598 1.613 . S
S597 N599 1.610 . S
N598 S597 1.613 . S
N598 C601 1.350 . S
N599 S597 1.610 . S
N599 C600 1.351 . S
C600 C594 1.428 . S
C600 N599 1.351 . S
C600 C601 1.434 . S
C601 C592 1.429 . S
C601 N598 1.350 . S
C601 C600 1.434 . S
C602 C603 1.369 . S
C602 C604 1.419 . S
C602 H606 0.930 . S
C603 C602 1.369 . S
C603 C612 1.429 . S
C604 C602 1.419 . S
C604 C605 1.363 . S
C604 H607 0.929 . S
C605 C604 1.363 . S
C605 C611 1.428 . S
H606 C602 0.930 . S
H607 C604 0.929 . S
S608 N609 1.613 . S
S608 N610 1.610 . S
N609 S608 1.613 . S
N609 C612 1.350 . S
N610 S608 1.610 . S
N610 C611 1.351 . S
C611 C605 1.428 . S
C611 N610 1.351 . S
C611 C612 1.434 . S
C612 C603 1.429 . S
C612 N609 1.350 . S
C612 C611 1.434 . S
C613 C614 1.369 . S
C613 C615 1.419 . S
C613 H617 0.930 . S
C614 C613 1.369 . S
C614 C623 1.429 . S
C615 C613 1.419 . S
C615 C616 1.363 . S
C615 H618 0.929 . S
C616 C615 1.363 . S
C616 C622 1.428 . S
H617 C613 0.930 . S
H618 C615 0.929 . S
S619 N620 1.613 . S
S619 N621 1.610 . S
N620 S619 1.613 . S
N620 C623 1.350 . S
N621 S619 1.610 . S
N621 C622 1.351 . S
C622 C616 1.428 . S
C622 N621 1.351 . S
C622 C623 1.434 . S
C623 C614 1.429 . S
C623 N620 1.350 . S
C623 C622 1.434 . S
C624 C625 1.369 . S
C624 C626 1.419 . S
C624 H628 0.930 . S
C625 C624 1.369 . S
C625 C634 1.429 . S
C626 C624 1.419 . S
C626 C627 1.363 . S
C626 H629 0.929 . S
C627 C626 1.363 . S
C627 C633 1.428 . S
H628 C624 0.930 . S
H629 C626 0.929 . S
S630 N631 1.613 . S
S630 N632 1.610 . S
N631 S630 1.613 . S
N631 C634 1.350 . S
N632 S630 1.610 . S
N632 C633 1.351 . S
C633 C627 1.428 . S
C633 N632 1.351 . S
C633 C634 1.434 . S
C634 C625 1.429 . S
C634 N631 1.350 . S
C634 C633 1.434 . S
C635 C636 1.369 . S
C635 C637 1.419 . S
C635 H639 0.930 . S
C636 C635 1.369 . S
C636 C645 1.429 . S
C637 C635 1.419 . S
C637 C638 1.363 . S
C637 H640 0.929 . S
C638 C637 1.363 . S
C638 C644 1.428 . S
H639 C635 0.930 . S
H640 C637 0.929 . S
S641 N642 1.613 . S
S641 N643 1.610 . S
N642 S641 1.613 . S
N642 C645 1.350 . S
N643 S641 1.610 . S
N643 C644 1.351 . S
C644 C638 1.428 . S
C644 N643 1.351 . S
C644 C645 1.434 . S
C645 C636 1.429 . S
C645 N642 1.350 . S
C645 C644 1.434 . S
C646 C647 1.369 . S
C646 C648 1.419 . S
C646 H650 0.930 . S
C647 C646 1.369 . S
C647 C656 1.429 . S
C648 C646 1.419 . S
C648 C649 1.363 . S
C648 H651 0.929 . S
C649 C648 1.363 . S
C649 C655 1.428 . S
H650 C646 0.930 . S
H651 C648 0.929 . S
S652 N653 1.613 . S
S652 N654 1.610 . S
N653 S652 1.613 . S
N653 C656 1.350 . S
N654 S652 1.610 . S
N654 C655 1.351 . S
C655 C649 1.428 . S
C655 N654 1.351 . S
C655 C656 1.434 . S
C656 C647 1.429 . S
C656 N653 1.350 . S
C656 C655 1.434 . S
C657 C658 1.369 . S
C657 C659 1.419 . S
C657 H661 0.930 . S
C658 C657 1.369 . S
C658 C667 1.429 . S
C659 C657 1.419 . S
C659 C660 1.363 . S
C659 H662 0.929 . S
C660 C659 1.363 . S
C660 C666 1.428 . S
H661 C657 0.930 . S
H662 C659 0.929 . S
S663 N664 1.613 . S
S663 N665 1.610 . S
N664 S663 1.613 . S
N664 C667 1.350 . S
N665 S663 1.610 . S
N665 C666 1.351 . S
C666 C660 1.428 . S
C666 N665 1.351 . S
C666 C667 1.434 . S
C667 C658 1.429 . S
C667 N664 1.350 . S
C667 C666 1.434 . S
C668 C669 1.369 . S
C668 C670 1.419 . S
C668 H672 0.930 . S
C669 C668 1.369 . S
C669 C678 1.429 . S
C670 C668 1.419 . S
C670 C671 1.363 . S
C670 H673 0.929 . S
C671 C670 1.363 . S
C671 C677 1.428 . S
H672 C668 0.930 . S
H673 C670 0.929 . S
S674 N675 1.613 . S
S674 N676 1.610 . S
N675 S674 1.613 . S
N675 C678 1.350 . S
N676 S674 1.610 . S
N676 C677 1.351 . S
C677 C671 1.428 . S
C677 N676 1.351 . S
C677 C678 1.434 . S
C678 C669 1.429 . S
C678 N675 1.350 . S
C678 C677 1.434 . S
C679 C680 1.369 . S
C679 C681 1.419 . S
C679 H683 0.930 . S
C680 C679 1.369 . S
C680 C689 1.429 . S
C681 C679 1.419 . S
C681 C682 1.363 . S
C681 H684 0.929 . S
C682 C681 1.363 . S
C682 C688 1.428 . S
H683 C679 0.930 . S
H684 C681 0.929 . S
S685 N686 1.613 . S
S685 N687 1.610 . S
N686 S685 1.613 . S
N686 C689 1.350 . S
N687 S685 1.610 . S
N687 C688 1.351 . S
C688 C682 1.428 . S
C688 N687 1.351 . S
C688 C689 1.434 . S
C689 C680 1.429 . S
C689 N686 1.350 . S
C689 C688 1.434 . S
C690 C691 1.369 . S
C690 C692 1.419 . S
C690 H694 0.930 . S
C691 C690 1.369 . S
C691 C700 1.429 . S
C692 C690 1.419 . S
C692 C693 1.363 . S
C692 H695 0.929 . S
C693 C692 1.363 . S
C693 C699 1.428 . S
H694 C690 0.930 . S
H695 C692 0.929 . S
S696 N697 1.613 . S
S696 N698 1.610 . S
N697 S696 1.613 . S
N697 C700 1.350 . S
N698 S696 1.610 . S
N698 C699 1.351 . S
C699 C693 1.428 . S
C699 N698 1.351 . S
C699 C700 1.434 . S
C700 C691 1.429 . S
C700 N697 1.350 . S
C700 C699 1.434 . S
C701 C702 1.369 . S
C701 C703 1.419 . S
C701 H705 0.930 . S
C702 C701 1.369 . S
C702 C711 1.429 . S
C703 C701 1.419 . S
C703 C704 1.363 . S
C703 H706 0.929 . S
C704 C703 1.363 . S
C704 C710 1.428 . S
H705 C701 0.930 . S
H706 C703 0.929 . S
S707 N708 1.613 . S
S707 N709 1.610 . S
N708 S707 1.613 . S
N708 C711 1.350 . S
N709 S707 1.610 . S
N709 C710 1.351 . S
C710 C704 1.428 . S
C710 N709 1.351 . S
C710 C711 1.434 . S
C711 C702 1.429 . S
C711 N708 1.350 . S
C711 C710 1.434 . S
C712 C713 1.369 . S
C712 C714 1.419 . S
C712 H716 0.930 . S
C713 C712 1.369 . S
C713 C722 1.429 . S
C714 C712 1.419 . S
C714 C715 1.363 . S
C714 H717 0.929 . S
C715 C714 1.363 . S
C715 C721 1.428 . S
H716 C712 0.930 . S
H717 C714 0.929 . S
S718 N719 1.613 . S
S718 N720 1.610 . S
N719 S718 1.613 . S
N719 C722 1.350 . S
N720 S718 1.610 . S
N720 C721 1.351 . S
C721 C715 1.428 . S
C721 N720 1.351 . S
C721 C722 1.434 . S
C722 C713 1.429 . S
C722 N719 1.350 . S
C722 C721 1.434 . S
C723 C724 1.369 . S
C723 C725 1.419 . S
C723 H727 0.930 . S
C724 C723 1.369 . S
C724 C733 1.429 . S
C725 C723 1.419 . S
C725 C726 1.363 . S
C725 H728 0.929 . S
C726 C725 1.363 . S
C726 C732 1.428 . S
H727 C723 0.930 . S
H728 C725 0.929 . S
S729 N730 1.613 . S
S729 N731 1.610 . S
N730 S729 1.613 . S
N730 C733 1.350 . S
N731 S729 1.610 . S
N731 C732 1.351 . S
C732 C726 1.428 . S
C732 N731 1.351 . S
C732 C733 1.434 . S
C733 C724 1.429 . S
C733 N730 1.350 . S
C733 C732 1.434 . S
C734 C735 1.369 . S
C734 C736 1.419 . S
C734 H738 0.930 . S
C735 C734 1.369 . S
C735 C744 1.429 . S
C736 C734 1.419 . S
C736 C737 1.363 . S
C736 H739 0.929 . S
C737 C736 1.363 . S
C737 C743 1.428 . S
H738 C734 0.930 . S
H739 C736 0.929 . S
S740 N741 1.613 . S
S740 N742 1.610 . S
N741 S740 1.613 . S
N741 C744 1.350 . S
N742 S740 1.610 . S
N742 C743 1.351 . S
C743 C737 1.428 . S
C743 N742 1.351 . S
C743 C744 1.434 . S
C744 C735 1.429 . S
C744 N741 1.350 . S
C744 C743 1.434 . S
C745 C746 1.369 . S
C745 C747 1.419 . S
C745 H749 0.930 . S
C746 C745 1.369 . S
C746 C755 1.429 . S
C747 C745 1.419 . S
C747 C748 1.363 . S
C747 H750 0.929 . S
C748 C747 1.363 . S
C748 C754 1.428 . S
H749 C745 0.930 . S
H750 C747 0.929 . S
S751 N752 1.613 . S
S751 N753 1.610 . S
N752 S751 1.613 . S
N752 C755 1.350 . S
N753 S751 1.610 . S
N753 C754 1.351 . S
C754 C748 1.428 . S
C754 N753 1.351 . S
C754 C755 1.434 . S
C755 C746 1.429 . S
C755 N752 1.350 . S
C755 C754 1.434 . S
C756 C757 1.369 . S
C756 C758 1.419 . S
C756 H760 0.930 . S
C757 C756 1.369 . S
C757 C766 1.429 . S
C758 C756 1.419 . S
C758 C759 1.363 . S
C758 H761 0.929 . S
C759 C758 1.363 . S
C759 C765 1.428 . S
H760 C756 0.930 . S
H761 C758 0.929 . S
S762 N763 1.613 . S
S762 N764 1.610 . S
N763 S762 1.613 . S
N763 C766 1.350 . S
N764 S762 1.610 . S
N764 C765 1.351 . S
C765 C759 1.428 . S
C765 N764 1.351 . S
C765 C766 1.434 . S
C766 C757 1.429 . S
C766 N763 1.350 . S
C766 C765 1.434 . S
C767 C768 1.369 . S
C767 C769 1.419 . S
C767 H771 0.930 . S
C768 C767 1.369 . S
C768 C777 1.429 . S
C769 C767 1.419 . S
C769 C770 1.363 . S
C769 H772 0.929 . S
C770 C769 1.363 . S
C770 C776 1.428 . S
H771 C767 0.930 . S
H772 C769 0.929 . S
S773 N774 1.613 . S
S773 N775 1.610 . S
N774 S773 1.613 . S
N774 C777 1.350 . S
N775 S773 1.610 . S
N775 C776 1.351 . S
C776 C770 1.428 . S
C776 N775 1.351 . S
C776 C777 1.434 . S
C777 C768 1.429 . S
C777 N774 1.350 . S
C777 C776 1.434 . S
C778 C779 1.369 . S
C778 C780 1.419 . S
C778 H782 0.930 . S
C779 C778 1.369 . S
C779 C788 1.429 . S
C780 C778 1.419 . S
C780 C781 1.363 . S
C780 H783 0.929 . S
C781 C780 1.363 . S
C781 C787 1.428 . S
H782 C778 0.930 . S
H783 C780 0.929 . S
S784 N785 1.613 . S
S784 N786 1.610 . S
N785 S784 1.613 . S
N785 C788 1.350 . S
N786 S784 1.610 . S
N786 C787 1.351 . S
C787 C781 1.428 . S
C787 N786 1.351 . S
C787 C788 1.434 . S
C788 C779 1.429 . S
C788 N785 1.350 . S
C788 C787 1.434 . S
C789 C790 1.369 . S
C789 C791 1.419 . S
C789 H793 0.930 . S
C790 C789 1.369 . S
C790 C799 1.429 . S
C791 C789 1.419 . S
C791 C792 1.363 . S
C791 H794 0.929 . S
C792 C791 1.363 . S
C792 C798 1.428 . S
H793 C789 0.930 . S
H794 C791 0.929 . S
S795 N796 1.613 . S
S795 N797 1.610 . S
N796 S795 1.613 . S
N796 C799 1.350 . S
N797 S795 1.610 . S
N797 C798 1.351 . S
C798 C792 1.428 . S
C798 N797 1.351 . S
C798 C799 1.434 . S
C799 C790 1.429 . S
C799 N796 1.350 . S
C799 C798 1.434 . S
C800 C801 1.369 . S
C800 C802 1.419 . S
C800 H804 0.930 . S
C801 C800 1.369 . S
C801 C810 1.429 1_655 S
C802 C800 1.419 . S
C802 C803 1.363 1_655 S
C802 H805 0.929 . S
C803 C802 1.363 1_455 S
C803 C809 1.428 . S
H804 C800 0.930 . S
H805 C802 0.929 . S
S806 N807 1.613 . S
S806 N808 1.610 . S
N807 S806 1.613 . S
N807 C810 1.350 . S
N808 S806 1.610 . S
N808 C809 1.351 . S
C809 C803 1.428 . S
C809 N808 1.351 . S
C809 C810 1.434 . S
C810 C801 1.429 1_455 S
C810 N807 1.350 . S
C810 C809 1.434 . S
C811 C812 1.369 . S
C811 C813 1.419 . S
C811 H815 0.930 . S
C812 C811 1.369 . S
C812 C821 1.429 1_565 S
C813 C811 1.419 . S
C813 C814 1.363 1_565 S
C813 H816 0.929 . S
C814 C813 1.363 1_545 S
C814 C820 1.428 . S
H815 C811 0.930 . S
H816 C813 0.929 . S
S817 N818 1.613 . S
S817 N819 1.610 . S
N818 S817 1.613 . S
N818 C821 1.350 . S
N819 S817 1.610 . S
N819 C820 1.351 . S
C820 C814 1.428 . S
C820 N819 1.351 . S
C820 C821 1.434 . S
C821 C812 1.429 1_545 S
C821 N818 1.350 . S
C821 C820 1.434 . S
C822 C823 1.369 1_456 S
C822 C824 1.419 . S
C822 H826 0.930 . S
C823 C822 1.369 1_654 S
C823 C832 1.429 1_545 S
C824 C822 1.419 . S
C824 C825 1.363 1_545 S
C824 H827 0.929 . S
C825 C824 1.363 1_565 S
C825 C831 1.428 1_456 S
H826 C822 0.930 . S
H827 C824 0.929 . S
S828 N829 1.613 . S
S828 N830 1.610 . S
N829 S828 1.613 . S
N829 C832 1.350 . S
N830 S828 1.610 . S
N830 C831 1.351 . S
C831 C825 1.428 1_654 S
C831 N830 1.351 . S
C831 C832 1.434 . S
C832 C823 1.429 1_565 S
C832 N829 1.350 . S
C832 C831 1.434 . S
C833 C834 1.369 1_556 S
C833 C835 1.419 . S
C833 H837 0.930 . S
C834 C833 1.369 1_554 S
C834 C843 1.429 . S
C835 C833 1.419 . S
C835 C836 1.363 . S
C835 H838 0.929 . S
C836 C835 1.363 . S
C836 C842 1.428 1_556 S
H837 C833 0.930 . S
H838 C835 0.929 . S
S839 N840 1.613 . S
S839 N841 1.610 . S
N840 S839 1.613 . S
N840 C843 1.350 . S
N841 S839 1.610 . S
N841 C842 1.351 . S
C842 C836 1.428 1_554 S
C842 N841 1.351 . S
C842 C843 1.434 . S
C843 C834 1.429 . S
C843 N840 1.350 . S
C843 C842 1.434 . S
C844 C845 1.369 . S
C844 C846 1.419 1_655 S
C844 H848 0.930 . S
C845 C844 1.369 . S
C845 C854 1.429 . S
C846 C844 1.419 1_455 S
C846 C847 1.363 . S
C846 H849 0.929 . S
C847 C846 1.363 . S
C847 C853 1.428 . S
H848 C844 0.930 . S
H849 C846 0.929 . S
S850 N851 1.613 1_455 S
S850 N852 1.610 . S
N851 S850 1.613 1_655 S
N851 C854 1.350 . S
N852 S850 1.610 . S
N852 C853 1.351 . S
C853 C847 1.428 . S
C853 N852 1.351 . S
C853 C854 1.434 1_455 S
C854 C845 1.429 . S
C854 N851 1.350 . S
C854 C853 1.434 1_655 S
C855 C856 1.369 . S
C855 C857 1.419 1_565 S
C855 H859 0.930 . S
C856 C855 1.369 . S
C856 C865 1.429 . S
C857 C855 1.419 1_545 S
C857 C858 1.363 . S
C857 H860 0.929 . S
C858 C857 1.363 . S
C858 C864 1.428 . S
H859 C855 0.930 . S
H860 C857 0.929 . S
S861 N862 1.613 1_545 S
S861 N863 1.610 . S
N862 S861 1.613 1_565 S
N862 C865 1.350 . S
N863 S861 1.610 . S
N863 C864 1.351 . S
C864 C858 1.428 . S
C864 N863 1.351 . S
C864 C865 1.434 1_545 S
C865 C856 1.429 . S
C865 N862 1.350 . S
C865 C864 1.434 1_565 S
C866 C867 1.369 . S
C866 C868 1.419 . S
C866 H870 0.930 . S
C867 C866 1.369 . S
C867 C876 1.429 1_556 S
C868 C866 1.419 . S
C868 C869 1.363 1_556 S
C868 H871 0.929 . S
C869 C868 1.363 1_554 S
C869 C875 1.428 . S
H870 C866 0.930 . S
H871 C868 0.929 . S
S872 N873 1.613 . S
S872 N874 1.610 . S
N873 S872 1.613 . S
N873 C876 1.350 . S
N874 S872 1.610 . S
N874 C875 1.351 . S
C875 C869 1.428 . S
C875 N874 1.351 . S
C875 C876 1.434 . S
C876 C867 1.429 1_554 S
C876 N873 1.350 . S
C876 C875 1.434 . S
C877 C878 1.369 . S
C877 C879 1.419 . S
C877 H881 0.930 . S
C878 C877 1.369 . S
C878 C887 1.429 . S
C879 C877 1.419 . S
C879 C880 1.363 . S
C879 H882 0.929 . S
C880 C879 1.363 . S
C880 C886 1.428 . S
H881 C877 0.930 . S
H882 C879 0.929 . S
S883 N884 1.613 . S
S883 N885 1.610 . S
N884 S883 1.613 . S
N884 C887 1.350 . S
N885 S883 1.610 . S
N885 C886 1.351 . S
C886 C880 1.428 . S
C886 N885 1.351 . S
C886 C887 1.434 . S
C887 C878 1.429 . S
C887 N884 1.350 . S
C887 C886 1.434 . S
C888 C889 1.369 . S
C888 C890 1.419 1_455 S
C888 H892 0.930 . S
C889 C888 1.369 . S
C889 C898 1.429 . S
C890 C888 1.419 1_655 S
C890 C891 1.363 . S
C890 H893 0.929 . S
C891 C890 1.363 . S
C891 C897 1.428 . S
H892 C888 0.930 . S
H893 C890 0.929 . S
S894 N895 1.613 1_655 S
S894 N896 1.610 . S
N895 S894 1.613 1_455 S
N895 C898 1.350 . S
N896 S894 1.610 . S
N896 C897 1.351 . S
C897 C891 1.428 . S
C897 N896 1.351 . S
C897 C898 1.434 1_655 S
C898 C889 1.429 . S
C898 N895 1.350 . S
C898 C897 1.434 1_455 S
C899 C900 1.369 . S
C899 C901 1.419 . S
C899 H903 0.930 . S
C900 C899 1.369 . S
C900 C909 1.429 . S
C901 C899 1.419 . S
C901 C902 1.363 . S
C901 H904 0.929 . S
C902 C901 1.363 . S
C902 C908 1.428 . S
H903 C899 0.930 . S
H904 C901 0.929 . S
S905 N906 1.613 . S
S905 N907 1.610 . S
N906 S905 1.613 . S
N906 C909 1.350 . S
N907 S905 1.610 . S
N907 C908 1.351 . S
C908 C902 1.428 . S
C908 N907 1.351 . S
C908 C909 1.434 . S
C909 C900 1.429 . S
C909 N906 1.350 . S
C909 C908 1.434 . S
C910 C911 1.369 . S
C910 C912 1.419 . S
C910 H914 0.930 . S
C911 C910 1.369 . S
C911 C920 1.429 . S
C912 C910 1.419 . S
C912 C913 1.363 . S
C912 H915 0.929 . S
C913 C912 1.363 . S
C913 C919 1.428 . S
H914 C910 0.930 . S
H915 C912 0.929 . S
S916 N917 1.613 . S
S916 N918 1.610 . S
N917 S916 1.613 . S
N917 C920 1.350 . S
N918 S916 1.610 . S
N918 C919 1.351 . S
C919 C913 1.428 . S
C919 N918 1.351 . S
C919 C920 1.434 . S
C920 C911 1.429 . S
C920 N917 1.350 . S
C920 C919 1.434 . S
C921 C922 1.369 . S
C921 C923 1.419 . S
C921 H925 0.930 . S
C922 C921 1.369 . S
C922 C931 1.429 . S
C923 C921 1.419 . S
C923 C924 1.363 . S
C923 H926 0.929 . S
C924 C923 1.363 . S
C924 C930 1.428 . S
H925 C921 0.930 . S
H926 C923 0.929 . S
S927 N928 1.613 . S
S927 N929 1.610 . S
N928 S927 1.613 . S
N928 C931 1.350 . S
N929 S927 1.610 . S
N929 C930 1.351 . S
C930 C924 1.428 . S
C930 N929 1.351 . S
C930 C931 1.434 . S
C931 C922 1.429 . S
C931 N928 1.350 . S
C931 C930 1.434 . S
C932 C933 1.369 . S
C932 C934 1.419 . S
C932 H936 0.930 . S
C933 C932 1.369 . S
C933 C942 1.429 . S
C934 C932 1.419 . S
C934 C935 1.363 . S
C934 H937 0.929 . S
C935 C934 1.363 . S
C935 C941 1.428 . S
H936 C932 0.930 . S
H937 C934 0.929 . S
S938 N939 1.613 . S
S938 N940 1.610 . S
N939 S938 1.613 . S
N939 C942 1.350 . S
N940 S938 1.610 . S
N940 C941 1.351 . S
C941 C935 1.428 . S
C941 N940 1.351 . S
C941 C942 1.434 . S
C942 C933 1.429 . S
C942 N939 1.350 . S
C942 C941 1.434 . S
C943 C944 1.336 1_565 S
C943 C945 1.448 . S
C943 H947 0.934 . S
C944 C943 1.336 1_545 S
C944 C953 1.429 . S
C945 C943 1.448 . S
C945 C946 1.363 . S
C945 H948 0.929 . S
C946 C945 1.363 . S
C946 C952 1.428 1_565 S
H947 C943 0.934 . S
H948 C945 0.929 . S
S949 N950 1.613 . S
S949 N951 1.610 . S
N950 S949 1.613 . S
N950 C953 1.350 . S
N951 S949 1.610 . S
N951 C952 1.351 . S
C952 C946 1.428 1_545 S
C952 N951 1.351 . S
C952 C953 1.434 . S
C953 C944 1.429 . S
C953 N950 1.350 . S
C953 C952 1.434 . S
C954 C955 1.369 . S
C954 C956 1.419 . S
C954 H958 0.930 . S
C955 C954 1.369 . S
C955 C964 1.429 . S
C956 C954 1.419 . S
C956 C957 1.363 . S
C956 H959 0.929 . S
C957 C956 1.363 . S
C957 C963 1.428 . S
H958 C954 0.930 . S
H959 C956 0.929 . S
S960 N961 1.613 . S
S960 N962 1.610 . S
N961 S960 1.613 . S
N961 C964 1.350 . S
N962 S960 1.610 . S
N962 C963 1.351 . S
C963 C957 1.428 . S
C963 N962 1.351 . S
C963 C964 1.434 . S
C964 C955 1.429 . S
C964 N961 1.350 . S
C964 C963 1.434 . S
C965 C966 1.369 1_554 S
C965 C967 1.419 . S
C965 H969 0.930 . S
C966 C965 1.369 1_556 S
C966 C975 1.429 . S
C967 C965 1.419 . S
C967 C968 1.363 . S
C967 H970 0.929 . S
C968 C967 1.363 . S
C968 C974 1.428 1_554 S
H969 C965 0.930 . S
H970 C967 0.929 . S
S971 N972 1.613 . S
S971 N973 1.610 . S
N972 S971 1.613 . S
N972 C975 1.350 . S
N973 S971 1.610 . S
N973 C974 1.351 . S
C974 C968 1.428 1_556 S
C974 N973 1.351 . S
C974 C975 1.434 . S
C975 C966 1.429 . S
C975 N972 1.350 . S
C975 C974 1.434 . S
C976 C977 1.369 . S
C976 C978 1.419 . S
C976 H980 0.930 . S
C977 C976 1.369 . S
C977 C986 1.429 . S
C978 C976 1.419 . S
C978 C979 1.363 . S
C978 H981 0.929 . S
C979 C978 1.363 . S
C979 C985 1.428 . S
H980 C976 0.930 . S
H981 C978 0.929 . S
S982 N983 1.613 . S
S982 N984 1.610 . S
N983 S982 1.613 . S
N983 C986 1.350 . S
N984 S982 1.610 . S
N984 C985 1.351 . S
C985 C979 1.428 . S
C985 N984 1.351 . S
C985 C986 1.434 . S
C986 C977 1.429 . S
C986 N983 1.350 . S
C986 C985 1.434 . S
C987 C988 1.369 . S
C987 C989 1.419 . S
C987 H991 0.930 . S
C988 C987 1.369 . S
C988 C997 1.429 . S
C989 C987 1.419 . S
C989 C990 1.363 . S
C989 H992 0.929 . S
C990 C989 1.363 . S
C990 C996 1.428 . S
H991 C987 0.930 . S
H992 C989 0.929 . S
S993 N994 1.613 . S
S993 N995 1.610 . S
N994 S993 1.613 . S
N994 C997 1.350 . S
N995 S993 1.610 . S
N995 C996 1.351 . S
C996 C990 1.428 . S
C996 N995 1.351 . S
C996 C997 1.434 . S
C997 C988 1.429 . S
C997 N994 1.350 . S
C997 C996 1.434 . S
C998 C999 1.369 . S
C998 C1000 1.419 . S
C998 H1002 0.930 . S
C999 C998 1.369 . S
C999 C1008 1.429 . S
C1000 C998 1.419 . S
C1000 C1001 1.363 . S
C1000 H1003 0.929 . S
C1001 C1000 1.363 . S
C1001 C1007 1.428 . S
H1002 C998 0.930 . S
H1003 C1000 0.929 . S
S1004 N1005 1.613 . S
S1004 N1006 1.610 . S
N1005 S1004 1.613 . S
N1005 C1008 1.350 . S
N1006 S1004 1.610 . S
N1006 C1007 1.351 . S
C1007 C1001 1.428 . S
C1007 N1006 1.351 . S
C1007 C1008 1.434 . S
C1008 C999 1.429 . S
C1008 N1005 1.350 . S
C1008 C1007 1.434 . S
C1009 C1010 1.369 . S
C1009 C1011 1.419 . S
C1009 H1013 0.930 . S
C1010 C1009 1.369 . S
C1010 C1019 1.429 . S
C1011 C1009 1.419 . S
C1011 C1012 1.363 . S
C1011 H1014 0.929 . S
C1012 C1011 1.363 . S
C1012 C1018 1.428 . S
H1013 C1009 0.930 . S
H1014 C1011 0.929 . S
S1015 N1016 1.613 . S
S1015 N1017 1.610 . S
N1016 S1015 1.613 . S
N1016 C1019 1.350 . S
N1017 S1015 1.610 . S
N1017 C1018 1.351 . S
C1018 C1012 1.428 . S
C1018 N1017 1.351 . S
C1018 C1019 1.434 . S
C1019 C1010 1.429 . S
C1019 N1016 1.350 . S
C1019 C1018 1.434 . S
C1020 C1021 1.369 . S
C1020 C1022 1.419 . S
C1020 H1024 0.930 . S
C1021 C1020 1.369 . S
C1021 C1030 1.429 . S
C1022 C1020 1.419 . S
C1022 C1023 1.363 . S
C1022 H1025 0.929 . S
C1023 C1022 1.363 . S
C1023 C1029 1.428 . S
H1024 C1020 0.930 . S
H1025 C1022 0.929 . S
S1026 N1027 1.613 1_655 S
S1026 N1028 1.610 1_655 S
N1027 S1026 1.613 1_455 S
N1027 C1030 1.350 . S
N1028 S1026 1.610 1_455 S
N1028 C1029 1.351 . S
C1029 C1023 1.428 . S
C1029 N1028 1.351 . S
C1029 C1030 1.434 . S
C1030 C1021 1.429 . S
C1030 N1027 1.350 . S
C1030 C1029 1.434 . S
C1031 C1032 1.369 . S
C1031 C1033 1.419 . S
C1031 H1035 0.930 . S
C1032 C1031 1.369 . S
C1032 C1041 1.429 . S
C1033 C1031 1.419 . S
C1033 C1034 1.363 . S
C1033 H1036 0.929 . S
C1034 C1033 1.363 . S
C1034 C1040 1.428 . S
H1035 C1031 0.930 . S
H1036 C1033 0.929 . S
S1037 N1038 1.613 . S
S1037 N1039 1.610 . S
N1038 S1037 1.613 . S
N1038 C1041 1.350 . S
N1039 S1037 1.610 . S
N1039 C1040 1.351 . S
C1040 C1034 1.428 . S
C1040 N1039 1.351 . S
C1040 C1041 1.434 . S
C1041 C1032 1.429 . S
C1041 N1038 1.350 . S
C1041 C1040 1.434 . S
C1042 C1043 1.369 . S
C1042 C1044 1.419 . S
C1042 H1046 0.930 . S
C1043 C1042 1.369 . S
C1043 C1052 1.429 . S
C1044 C1042 1.419 . S
C1044 C1045 1.363 . S
C1044 H1047 0.929 . S
C1045 C1044 1.363 . S
C1045 C1051 1.428 . S
H1046 C1042 0.930 . S
H1047 C1044 0.929 . S
S1048 N1049 1.613 . S
S1048 N1050 1.610 . S
N1049 S1048 1.613 . S
N1049 C1052 1.350 . S
N1050 S1048 1.610 . S
N1050 C1051 1.351 . S
C1051 C1045 1.428 . S
C1051 N1050 1.351 . S
C1051 C1052 1.434 . S
C1052 C1043 1.429 . S
C1052 N1049 1.350 . S
C1052 C1051 1.434 . S
C1053 C1054 1.369 . S
C1053 C1055 1.419 . S
C1053 H1057 0.930 . S
C1054 C1053 1.369 . S
C1054 C1063 1.429 . S
C1055 C1053 1.419 . S
C1055 C1056 1.363 . S
C1055 H1058 0.929 . S
C1056 C1055 1.363 . S
C1056 C1062 1.428 . S
H1057 C1053 0.930 . S
H1058 C1055 0.929 . S
S1059 N1060 1.613 . S
S1059 N1061 1.610 . S
N1060 S1059 1.613 . S
N1060 C1063 1.350 . S
N1061 S1059 1.610 . S
N1061 C1062 1.351 . S
C1062 C1056 1.428 . S
C1062 N1061 1.351 . S
C1062 C1063 1.434 . S
C1063 C1054 1.429 . S
C1063 N1060 1.350 . S
C1063 C1062 1.434 . S
C1064 C1065 1.369 . S
C1064 C1066 1.419 . S
C1064 H1068 0.930 . S
C1065 C1064 1.369 . S
C1065 C1074 1.429 . S
C1066 C1064 1.419 . S
C1066 C1067 1.363 . S
C1066 H1069 0.929 . S
C1067 C1066 1.363 . S
C1067 C1073 1.428 . S
H1068 C1064 0.930 . S
H1069 C1066 0.929 . S
S1070 N1071 1.613 . S
S1070 N1072 1.610 . S
N1071 S1070 1.613 . S
N1071 C1074 1.350 . S
N1072 S1070 1.610 . S
N1072 C1073 1.351 . S
C1073 C1067 1.428 . S
C1073 N1072 1.351 . S
C1073 C1074 1.434 . S
C1074 C1065 1.429 . S
C1074 N1071 1.350 . S
C1074 C1073 1.434 . S
C1075 C1076 1.369 . S
C1075 C1077 1.419 . S
C1075 H1079 0.930 . S
C1076 C1075 1.369 . S
C1076 C1085 1.429 . S
C1077 C1075 1.419 . S
C1077 C1078 1.363 . S
C1077 H1080 0.929 . S
C1078 C1077 1.363 . S
C1078 C1084 1.428 . S
H1079 C1075 0.930 . S
H1080 C1077 0.929 . S
S1081 N1082 1.613 . S
S1081 N1083 1.610 . S
N1082 S1081 1.613 . S
N1082 C1085 1.350 . S
N1083 S1081 1.610 . S
N1083 C1084 1.351 . S
C1084 C1078 1.428 . S
C1084 N1083 1.351 . S
C1084 C1085 1.434 . S
C1085 C1076 1.429 . S
C1085 N1082 1.350 . S
C1085 C1084 1.434 . S
C1086 C1087 1.369 . S
C1086 C1088 1.419 . S
C1086 H1090 0.930 . S
C1087 C1086 1.369 . S
C1087 C1096 1.429 . S
C1088 C1086 1.419 . S
C1088 C1089 1.363 . S
C1088 H1091 0.929 . S
C1089 C1088 1.363 . S
C1089 C1095 1.428 . S
H1090 C1086 0.930 . S
H1091 C1088 0.929 . S
S1092 N1093 1.613 . S
S1092 N1094 1.610 . S
N1093 S1092 1.613 . S
N1093 C1096 1.350 . S
N1094 S1092 1.610 . S
N1094 C1095 1.351 . S
C1095 C1089 1.428 . S
C1095 N1094 1.351 . S
C1095 C1096 1.434 . S
C1096 C1087 1.429 . S
C1096 N1093 1.350 . S
C1096 C1095 1.434 . S
C1097 C1098 1.369 . S
C1097 C1099 1.419 . S
C1097 H1101 0.930 . S
C1098 C1097 1.369 . S
C1098 C1107 1.429 . S
C1099 C1097 1.419 . S
C1099 C1100 1.363 . S
C1099 H1102 0.929 . S
C1100 C1099 1.363 . S
C1100 C1106 1.428 . S
H1101 C1097 0.930 . S
H1102 C1099 0.929 . S
S1103 N1104 1.613 . S
S1103 N1105 1.610 . S
N1104 S1103 1.613 . S
N1104 C1107 1.350 . S
N1105 S1103 1.610 . S
N1105 C1106 1.351 . S
C1106 C1100 1.428 . S
C1106 N1105 1.351 . S
C1106 C1107 1.434 . S
C1107 C1098 1.429 . S
C1107 N1104 1.350 . S
C1107 C1106 1.434 . S
C1108 C1109 1.369 . S
C1108 C1110 1.419 . S
C1108 H1112 0.930 . S
C1109 C1108 1.369 . S
C1109 C1118 1.429 . S
C1110 C1108 1.419 . S
C1110 C1111 1.363 . S
C1110 H1113 0.929 . S
C1111 C1110 1.363 . S
C1111 C1117 1.428 . S
H1112 C1108 0.930 . S
H1113 C1110 0.929 . S
S1114 N1115 1.613 . S
S1114 N1116 1.610 . S
N1115 S1114 1.613 . S
N1115 C1118 1.350 . S
N1116 S1114 1.610 . S
N1116 C1117 1.351 . S
C1117 C1111 1.428 . S
C1117 N1116 1.351 . S
C1117 C1118 1.434 . S
C1118 C1109 1.429 . S
C1118 N1115 1.350 . S
C1118 C1117 1.434 . S
C1119 C1120 1.369 . S
C1119 C1121 1.419 . S
C1119 H1123 0.930 . S
C1120 C1119 1.369 . S
C1120 C1129 1.429 . S
C1121 C1119 1.419 . S
C1121 C1122 1.363 . S
C1121 H1124 0.929 . S
C1122 C1121 1.363 . S
C1122 C1128 1.428 . S
H1123 C1119 0.930 . S
H1124 C1121 0.929 . S
S1125 N1126 1.613 . S
S1125 N1127 1.610 . S
N1126 S1125 1.613 . S
N1126 C1129 1.350 . S
N1127 S1125 1.610 . S
N1127 C1128 1.351 . S
C1128 C1122 1.428 . S
C1128 N1127 1.351 . S
C1128 C1129 1.434 . S
C1129 C1120 1.429 . S
C1129 N1126 1.350 . S
C1129 C1128 1.434 . S
C1130 C1131 1.369 . S
C1130 C1132 1.419 . S
C1130 H1134 0.930 . S
C1131 C1130 1.369 . S
C1131 C1140 1.429 . S
C1132 C1130 1.419 . S
C1132 C1133 1.363 . S
C1132 H1135 0.929 . S
C1133 C1132 1.363 . S
C1133 C1139 1.428 . S
H1134 C1130 0.930 . S
H1135 C1132 0.929 . S
S1136 N1137 1.613 . S
S1136 N1138 1.610 . S
N1137 S1136 1.613 . S
N1137 C1140 1.350 . S
N1138 S1136 1.610 . S
N1138 C1139 1.351 . S
C1139 C1133 1.428 . S
C1139 N1138 1.351 . S
C1139 C1140 1.434 . S
C1140 C1131 1.429 . S
C1140 N1137 1.350 . S
C1140 C1139 1.434 . S
C1141 C1142 1.369 . S
C1141 C1143 1.419 . S
C1141 H1145 0.930 . S
C1142 C1141 1.369 . S
C1142 C1151 1.429 . S
C1143 C1141 1.419 . S
C1143 C1144 1.363 . S
C1143 H1146 0.929 . S
C1144 C1143 1.363 . S
C1144 C1150 1.428 . S
H1145 C1141 0.930 . S
H1146 C1143 0.929 . S
S1147 N1148 1.613 . S
S1147 N1149 1.610 . S
N1148 S1147 1.613 . S
N1148 C1151 1.350 . S
N1149 S1147 1.610 . S
N1149 C1150 1.351 . S
C1150 C1144 1.428 . S
C1150 N1149 1.351 . S
C1150 C1151 1.434 . S
C1151 C1142 1.429 . S
C1151 N1148 1.350 . S
C1151 C1150 1.434 . S
C449 C148 1.450 . S
C451 C8 1.453 . S
C460 C22 1.454 . S
C462 C162 1.450 . S
C471 C36 1.449 . S
C473 C120 1.453 . S
C482 C134 1.455 . S
C484 C50 1.451 . S
C493 C205 1.450 . S
C495 C65 1.446 . S
C504 C79 1.448 . S
C506 C219 1.453 . S
C515 C177 1.449 . S
C517 C93 1.453 . S
C526 C191 1.449 . S
C528 C107 1.447 . S
C537 C372 1.446 . S
C539 C232 1.450 . S
C548 C386 1.450 . S
C550 C246 1.447 . S
C559 C344 1.452 . S
C561 C260 1.448 . S
C570 C274 1.450 . S
C572 C358 1.447 . S
C581 C429 1.449 . S
C583 C289 1.453 . S
C592 C443 1.454 . S
C594 C303 1.450 . S
C603 C317 1.445 . S
C605 C401 1.450 . S
C614 C331 1.449 . S
C616 C415 1.447 . S
C625 C272 1.365 . S
C627 C6 1.370 . S
C636 C20 1.372 . S
C638 C258 1.360 . S
C647 C244 1.371 . S
C649 C34 1.360 . S
C658 C230 1.358 . S
C660 C48 1.369 . S
C669 C63 1.361 . S
C671 C329 1.371 . S
C680 C77 1.364 . S
C682 C315 1.369 . S
C691 C301 1.358 . S
C693 C91 1.369 . S
C702 C105 1.372 . S
C704 C287 1.360 . S
C713 C384 1.358 . S
C715 C118 1.370 . S
C724 C370 1.373 . S
C726 C132 1.362 . S
C735 C356 1.359 . S
C737 C146 1.371 . S
C746 C342 1.358 . S
C748 C160 1.368 . S
C757 C175 1.372 . S
C759 C441 1.362 . S
C768 C427 1.359 . S
C770 C189 1.366 . S
C779 C203 1.360 . S
C781 C413 1.371 . S
C790 C217 1.368 . S
C792 C399 1.367 . S
C801 C174 1.510 . S
C803 C7 1.510 . S
C812 C21 1.513 . S
C814 C300 1.508 . S
C823 C90 1.515 . S
C825 C35 1.506 . S
C834 C440 1.514 . S
C836 C49 1.508 . S
C845 C62 1.513 . S
C847 C119 1.507 . S
C856 C245 1.514 . S
C858 C76 1.507 . S
C867 C385 1.506 . S
C869 C104 1.514 . S
C878 C412 1.513 . S
C880 C133 1.508 . S
C889 C147 1.505 . S
C891 C202 1.514 . S
C900 C328 1.515 . S
C902 C161 1.507 . S
C911 C357 1.510 . S
C913 C188 1.511 . S
C922 C216 1.505 . S
C924 C273 1.514 . S
C933 C231 1.513 . S
C935 C398 1.508 . S
C944 C314 1.507 . S
C946 C259 1.512 . S
C955 C343 1.506 . S
C957 C286 1.513 . S
C966 C371 1.513 . S
C968 C426 1.507 . S
C977 C9 1.326 . S
C979 C51 1.326 . S
C988 C37 1.327 . S
C990 C23 1.326 . S
C999 C64 1.330 . S
C1001 C106 1.332 . S
C1010 C78 1.326 . S
C1012 C92 1.327 . S
C1021 C121 1.328 . S
C1023 C163 1.327 . S
C1032 C135 1.332 . S
C1034 C149 1.332 . S
C1043 C176 1.333 . S
C1045 C218 1.331 . S
C1054 C204 1.333 . S
C1056 C190 1.332 . S
C1065 C275 1.333 . S
C1067 C233 1.332 . S
C1076 C261 1.333 . S
C1078 C247 1.330 . S
C1087 C330 1.333 . S
C1089 C288 1.331 . S
C1098 C316 1.328 . S
C1100 C302 1.326 . S
C1109 C387 1.332 . S
C1111 C345 1.329 . S
C1120 C373 1.325 . S
C1122 C359 1.327 . S
C1131 C400 1.325 . S
C1133 C442 1.328 . S
C1142 C428 1.325 . S
C1144 C414 1.328 . S
