# Generated by pormake.
# Topology qtz-e, (6)-cn, num edge types: 1
# Building blocks:
#     Node 0, Type 0, BuildingBlock: BETFEN_clean_sbu_0, # of connection points: 6
#     Node 1, Type 0, BuildingBlock: BETFEN_clean_sbu_0, # of connection points: 6
#     Node 2, Type 0, BuildingBlock: BETFEN_clean_sbu_0, # of connection points: 6
#     Node 3, Type 0, BuildingBlock: BETFEN_clean_sbu_0, # of connection points: 6
#     Node 4, Type 0, BuildingBlock: BETFEN_clean_sbu_0, # of connection points: 6
#     Node 5, Type 0, BuildingBlock: BETFEN_clean_sbu_0, # of connection points: 6
#     Edge 6, Type (0, 0), BuildingBlock: MIFKUJ_clean_linker_0, # of connection points: 2
#     Edge 7, Type (0, 0), BuildingBlock: MIFKUJ_clean_linker_0, # of connection points: 2
#     Edge 8, Type (0, 0), BuildingBlock: MIFKUJ_clean_linker_0, # of connection points: 2
#     Edge 9, Type (0, 0), BuildingBlock: MIFKUJ_clean_linker_0, # of connection points: 2
#     Edge 10, Type (0, 0), BuildingBlock: MIFKUJ_clean_linker_0, # of connection points: 2
#     Edge 11, Type (0, 0), BuildingBlock: MIFKUJ_clean_linker_0, # of connection points: 2
#     Edge 12, Type (0, 0), BuildingBlock: MIFKUJ_clean_linker_0, # of connection points: 2
#     Edge 13, Type (0, 0), BuildingBlock: MIFKUJ_clean_linker_0, # of connection points: 2
#     Edge 14, Type (0, 0), BuildingBlock: MIFKUJ_clean_linker_0, # of connection points: 2
#     Edge 15, Type (0, 0), BuildingBlock: MIFKUJ_clean_linker_0, # of connection points: 2
#     Edge 16, Type (0, 0), BuildingBlock: MIFKUJ_clean_linker_0, # of connection points: 2
#     Edge 17, Type (0, 0), BuildingBlock: MIFKUJ_clean_linker_0, # of connection points: 2
#     Edge 18, Type (0, 0), BuildingBlock: MIFKUJ_clean_linker_0, # of connection points: 2
#     Edge 19, Type (0, 0), BuildingBlock: MIFKUJ_clean_linker_0, # of connection points: 2
#     Edge 20, Type (0, 0), BuildingBlock: MIFKUJ_clean_linker_0, # of connection points: 2
#     Edge 21, Type (0, 0), BuildingBlock: MIFKUJ_clean_linker_0, # of connection points: 2
#     Edge 22, Type (0, 0), BuildingBlock: MIFKUJ_clean_linker_0, # of connection points: 2
#     Edge 23, Type (0, 0), BuildingBlock: MIFKUJ_clean_linker_0, # of connection points: 2
# Relax obj value: 0.166
# Max RMSD: 0.199
# Mean RMSD: 0.199
data_MOF--net-qtz-e--node1-BETFEN_clean_sbu_0--edge1-MIFKUJ_clean_linker_0
_symmetry_space_group_name_H-M    P1
_symmetry_Int_Tables_number       1
_symmetry_cell_setting            triclinic
loop_
_symmetry_equiv_pos_as_xyz
'x, y, z'
_cell_length_a     32.413175
_cell_length_b     32.492841
_cell_length_c     64.471108
_cell_angle_alpha  90.003927
_cell_angle_beta   89.912627
_cell_angle_gamma 120.02754
loop_
_atom_site_label
_atom_site_type_symbol
_atom_site_fract_x
_atom_site_fract_y
_atom_site_fract_z
_atom_type_partial_charge
Pr0 Pr 0.258 0.47409 0.05809 0.0
Pr1 Pr 0.2063 0.37228 0.07961 0.0
C2 C 0.31099 0.55237 0.03493 0.0
C3 C 0.33694 0.56436 0.01513 0.0
C4 C 0.35774 0.61091 0.00758 0.0
C5 C 0.37732 0.62176 0.98765 0.0
C6 C 0.37612 0.5861 0.97482 0.0
C7 C 0.35701 0.53977 0.98283 0.0
C8 C 0.33757 0.52902 1.00285 0.0
C9 C 0.16371 0.44013 0.06841 0.0
C10 C 0.22121 0.37335 0.03003 0.0
C11 C 0.15268 0.29879 0.10521 0.0
C12 C 0.13499 0.29409 0.12672 0.0
C13 C 0.09751 0.25052 0.13377 0.0
C14 C 0.08136 0.24555 0.1543 0.0
C15 C 0.10234 0.28418 0.16819 0.0
C16 C 0.13969 0.32795 0.16093 0.0
C17 C 0.1559 0.33276 0.14046 0.0
C18 C 0.30303 0.41129 0.07141 0.0
C19 C 0.24224 0.47162 0.1078 0.0
O20 O 0.32867 0.53976 0.05028 0.0
O21 O 0.26462 0.5264 0.0335 0.0
O22 O 0.17955 0.41456 0.06109 0.0
O23 O 0.19603 0.48485 0.06865 0.0
O24 O 0.19426 0.34629 0.04541 0.0
O25 O 0.25078 0.41966 0.0322 0.0
O26 O 0.13422 0.31445 0.0914 0.0
O27 O 0.19877 0.3174 0.10314 0.0
O28 O 0.28323 0.43356 0.078 0.0
O29 O 0.27368 0.36567 0.07105 0.0
O30 O 0.27087 0.49874 0.09283 0.0
O31 O 0.21212 0.4259 0.10515 0.0
H32 H 0.35764 0.63863 0.01689 0.0
H33 H 0.39263 0.65799 0.98214 0.0
H34 H 0.35525 0.51141 0.97336 0.0
H35 H 0.32168 0.49285 0.00848 0.0
H36 H 0.08099 0.22019 0.12345 0.0
H37 H 0.05286 0.21122 0.15936 0.0
H38 H 0.15609 0.35874 0.171 0.0
H39 H 0.18502 0.36668 0.13545 0.0
Pr40 Pr 0.7347 0.18784 0.48536 0.0
Pr41 Pr 0.81416 0.17371 0.46547 0.0
C42 C 0.65677 0.17746 0.50516 0.0
C43 C 0.64293 0.18002 0.52684 0.0
C44 C 0.66415 0.22324 0.53778 0.0
C45 C 0.65124 0.2249 0.55833 0.0
C46 C 0.61693 0.1834 0.56849 0.0
C47 C 0.59558 0.14024 0.55747 0.0
C48 C 0.60835 0.13862 0.53687 0.0
C49 C 0.82552 0.26124 0.49432 0.0
C50 C 0.7771 0.12635 0.51062 0.0
C51 C 0.88975 0.18216 0.44419 0.0
C52 C 0.90568 0.19118 0.42225 0.0
C53 C 0.87713 0.16096 0.40624 0.0
C54 C 0.89243 0.17039 0.38559 0.0
C55 C 0.93644 0.21041 0.38042 0.0
C56 C 0.96477 0.24082 0.39643 0.0
C57 C 0.94961 0.23119 0.41712 0.0
C58 C 0.72071 0.10263 0.4573 0.0
C59 C 0.77142 0.23306 0.43944 0.0
O60 O 0.66283 0.14161 0.50056 0.0
O61 O 0.68831 0.21725 0.49636 0.0
O62 O 0.81443 0.21804 0.49336 0.0
O63 O 0.78887 0.26681 0.49237 0.0
O64 O 0.81516 0.14507 0.49854 0.0
O65 O 0.74067 0.13288 0.50697 0.0
O66 O 0.89055 0.21752 0.45419 0.0
O67 O 0.85222 0.14116 0.44859 0.0
O68 O 0.73571 0.14645 0.45723 0.0
O69 O 0.75512 0.09365 0.45985 0.0
O70 O 0.73327 0.21329 0.4515 0.0
O71 O 0.80882 0.22846 0.44347 0.0
H72 H 0.69081 0.2559 0.53052 0.0
H73 H 0.66779 0.25892 0.56618 0.0
H74 H 0.56941 0.1075 0.56484 0.0
H75 H 0.59138 0.10485 0.5288 0.0
H76 H 0.84282 0.1301 0.40961 0.0
H77 H 0.86947 0.1466 0.37362 0.0
H78 H -0.00095 0.27168 0.393 0.0
H79 H 0.97225 0.25509 0.42914 0.0
Pr80 Pr 0.54423 0.79959 0.72384 0.0
Pr81 Pr 0.64207 0.83184 0.74575 0.0
C82 C 0.47113 0.7973 0.703 0.0
C83 C 0.45615 0.79547 0.68126 0.0
C84 C 0.45922 0.76482 0.66677 0.0
C85 C 0.44428 0.76334 0.6463 0.0
C86 C 0.42628 0.79272 0.63985 0.0
C87 C 0.42419 0.82401 0.65437 0.0
C88 C 0.43886 0.82525 0.67485 0.0
C89 C 0.57579 0.73534 0.71893 0.0
C90 C 0.64791 0.86952 0.69854 0.0
C91 C 0.71438 0.83957 0.76938 0.0
C92 C 0.71758 0.81963 0.78945 0.0
C93 C 0.7596 0.84287 0.8011 0.0
C94 C 0.76162 0.8267 0.821 0.0
C95 C 0.72143 0.78718 0.82968 0.0
C96 C 0.67959 0.7635 0.81778 0.0
C97 C 0.67778 0.77951 0.79784 0.0
C98 C 0.60478 0.89235 0.74953 0.0
C99 C 0.54014 0.75811 0.76986 0.0
O100 O 0.50858 0.83684 0.70892 0.0
O101 O 0.4699 0.75923 0.71049 0.0
O102 O 0.60301 0.77997 0.7191 0.0
O103 O 0.53116 0.72345 0.71906 0.0
O104 O 0.67266 0.86263 0.71301 0.0
O105 O 0.60155 0.85297 0.70036 0.0
O106 O 0.69664 0.81004 0.75379 0.0
O107 O 0.69866 0.8695 0.77027 0.0
O108 O 0.58152 0.8479 0.75118 0.0
O109 O 0.65004 0.90795 0.74721 0.0
O110 O 0.51745 0.77287 0.75763 0.0
O111 O 0.58485 0.77012 0.76637 0.0
H112 H 0.47283 0.74173 0.67128 0.0
H113 H 0.44592 0.73843 0.63565 0.0
H114 H 0.41138 0.84777 0.6499 0.0
H115 H 0.43665 0.8495 0.68573 0.0
H116 H 0.79057 0.87415 0.79498 0.0
H117 H 0.79422 0.84606 0.82983 0.0
H118 H 0.6482 0.73265 0.8239 0.0
H119 H 0.64505 0.76098 0.78913 0.0
Pr120 Pr 0.76486 0.52684 0.15299 0.0
Pr121 Pr 0.8228 0.62439 0.12837 0.0
C122 C 0.74294 0.44739 0.17449 0.0
C123 C 0.74771 0.43293 0.19554 0.0
C124 C 0.71354 0.38804 0.20289 0.0
C125 C 0.71742 0.37346 0.22282 0.0
C126 C 0.75562 0.40361 0.23578 0.0
C127 C 0.78993 0.44866 0.22831 0.0
C128 C 0.78595 0.46322 0.20836 0.0
C129 C 0.71802 0.57825 0.15189 0.0
C130 C 0.85087 0.6257 0.17711 0.0
C131 C 0.85281 0.69835 0.10181 0.0
C132 C 0.83555 0.70512 0.0816 0.0
C133 C 0.8668 0.74112 0.06809 0.0
C134 C 0.85197 0.74476 0.04809 0.0
C135 C 0.80556 0.71229 0.04119 0.0
C136 C 0.77412 0.67686 0.05498 0.0
C137 C 0.78903 0.67335 0.07491 0.0
C138 C 0.86026 0.56384 0.12902 0.0
C139 C 0.73474 0.52845 0.10481 0.0
O140 O 0.78234 0.47129 0.16378 0.0
O141 O 0.71317 0.46319 0.17216 0.0
O142 O 0.76305 0.5969 0.15287 0.0
O143 O 0.69655 0.53237 0.15428 0.0
O144 O 0.85492 0.65304 0.16113 0.0
O145 O 0.82265 0.57888 0.17676 0.0
O146 O 0.82662 0.69327 0.11814 0.0
O147 O 0.86914 0.66886 0.10169 0.0
O148 O 0.81747 0.552 0.12637 0.0
O149 O 0.88697 0.60964 0.13116 0.0
O150 O 0.73441 0.50021 0.11967 0.0
O151 O 0.75994 0.57518 0.10629 0.0
H152 H 0.68388 0.36415 0.19317 0.0
H153 H 0.69076 0.33833 0.228 0.0
H154 H 0.81945 0.47292 0.23799 0.0
H155 H 0.8127 0.49807 0.20295 0.0
H156 H 0.90298 0.76588 0.07286 0.0
H157 H 0.87697 0.77289 0.038 0.0
H158 H 0.73842 0.65078 0.05016 0.0
H159 H 0.76448 0.64485 0.08483 0.0
Pr160 Pr 0.17761 0.72376 0.39327 0.0
Pr161 Pr 0.16455 0.80701 0.41136 0.0
C162 C 0.16557 0.6435 0.3754 0.0
C163 C 0.17311 0.63036 0.3545 0.0
C164 C 0.20344 0.66554 0.34043 0.0
C165 C 0.21112 0.65296 0.32067 0.0
C166 C 0.18823 0.60501 0.31456 0.0
C167 C 0.15739 0.56991 0.32864 0.0
C168 C 0.14997 0.58253 0.34848 0.0
C169 C 0.25399 0.81353 0.38473 0.0
C170 C 0.11755 0.76574 0.36635 0.0
C171 C 0.17704 0.88591 0.43073 0.0
C172 C 0.18883 0.90399 0.45223 0.0
C173 C 0.16306 0.92279 0.46187 0.0
C174 C 0.17187 0.93762 0.48258 0.0
C175 C 0.2068 0.93407 0.49416 0.0
C176 C 0.23291 0.91557 0.48435 0.0
C177 C 0.22395 0.9006 0.46365 0.0
C178 C 0.09119 0.71503 0.41963 0.0
C179 C 0.21741 0.75982 0.44017 0.0
O180 O 0.13105 0.65307 0.37733 0.0
O181 O 0.20408 0.67318 0.38552 0.0
O182 O 0.2109 0.80335 0.38531 0.0
O183 O 0.2576 0.77571 0.38599 0.0
O184 O 0.13616 0.80476 0.37775 0.0
O185 O 0.12377 0.72951 0.37081 0.0
O186 O 0.21065 0.88455 0.41999 0.0
O187 O 0.13504 0.84836 0.42797 0.0
O188 O 0.13491 0.72893 0.42007 0.0
O189 O 0.0836 0.7503 0.41675 0.0
O190 O 0.2024 0.72346 0.4273 0.0
O191 O 0.21032 0.79585 0.4366 0.0
H192 H 0.22122 0.70275 0.34474 0.0
H193 H 0.23442 0.68083 0.31004 0.0
H194 H 0.1394 0.53268 0.32439 0.0
H195 H 0.12631 0.55495 0.35914 0.0
H196 H 0.13552 0.92534 0.45344 0.0
H197 H 0.15048 0.95089 0.48965 0.0
H198 H 0.26047 0.91279 0.49262 0.0
H199 H 0.24427 0.886 0.45667 0.0
Pr200 Pr 0.44402 0.25894 0.81541 0.0
Pr201 Pr 0.34457 0.18823 0.79559 0.0
C202 C 0.51861 0.33033 0.83536 0.0
C203 C 0.53392 0.3439 0.857 0.0
C204 C 0.52767 0.30972 0.8719 0.0
C205 C 0.54128 0.32309 0.89248 0.0
C206 C 0.56089 0.37083 0.89867 0.0
C207 C 0.56717 0.40491 0.8836 0.0
C208 C 0.55383 0.39153 0.863 0.0
C209 C 0.41658 0.16398 0.82062 0.0
C210 C 0.34215 0.22653 0.84164 0.0
C211 C 0.27317 0.11835 0.77361 0.0
C212 C 0.26865 0.09973 0.75224 0.0
C213 C 0.23169 0.09542 0.73946 0.0
C214 C 0.22882 0.08145 0.71873 0.0
C215 C 0.26288 0.0714 0.71026 0.0
C216 C 0.29936 0.07476 0.72322 0.0
C217 C 0.30225 0.08884 0.74396 0.0
C218 C 0.37556 0.28424 0.79116 0.0
C219 C 0.44564 0.22513 0.76824 0.0
O220 O 0.48132 0.33273 0.82949 0.0
O221 O 0.51889 0.29281 0.8282 0.0
O222 O 0.3882 0.17997 0.8215 0.0
O223 O 0.46048 0.19765 0.81895 0.0
O224 O 0.31777 0.19009 0.82907 0.0
O225 O 0.38743 0.25841 0.83839 0.0
O226 O 0.29944 0.11061 0.78667 0.0
O227 O 0.27915 0.16112 0.77518 0.0
O228 O 0.40117 0.26556 0.78912 0.0
O229 O 0.33095 0.25287 0.79401 0.0
O230 O 0.46895 0.26089 0.78123 0.0
O231 O 0.40122 0.1915 0.77185 0.0
H232 H 0.51207 0.27261 0.86767 0.0
H233 H 0.5365 0.29594 0.90353 0.0
H234 H 0.58127 0.44182 0.8878 0.0
H235 H 0.55854 0.41836 0.85177 0.0
H236 H 0.20536 0.10359 0.74546 0.0
H237 H 0.19983 0.07852 0.70931 0.0
H238 H 0.32645 0.06776 0.71718 0.0
H239 H 0.33136 0.09207 0.75337 0.0
H240 H 0.1214 0.54269 0.28738 0.0
H241 H 0.13431 0.52288 0.25232 0.0
H242 H 0.28578 0.61689 0.25915 0.0
H243 H 0.27282 0.63796 0.29405 0.0
H244 H 0.25771 0.62887 0.22241 0.0
H245 H 0.23056 0.48932 0.26215 0.0
H246 H 0.18423 0.42166 0.2858 0.0
H247 H 0.06456 0.36751 0.24446 0.0
H248 H 0.11022 0.4343 0.2206 0.0
H249 H 0.31499 0.54557 0.12935 0.0
H250 H 0.31078 0.57096 0.16485 0.0
H251 H 0.16012 0.46886 0.16669 0.0
H252 H 0.16492 0.44164 0.1323 0.0
H253 H 0.19338 0.46177 0.20008 0.0
H254 H 0.21172 0.59666 0.16151 0.0
H255 H 0.25049 0.6639 0.13705 0.0
H256 H 0.37649 0.72767 0.17475 0.0
H257 H 0.33864 0.66049 0.19931 0.0
C258 C 0.15747 0.55892 0.28146 0.0
C259 C 0.19611 0.59186 0.29348 0.0
C260 C 0.16486 0.54742 0.26143 0.0
C261 C 0.21115 0.56773 0.25319 0.0
C262 C 0.24976 0.60069 0.26517 0.0
C263 C 0.24232 0.61272 0.28509 0.0
C264 C 0.21923 0.55545 0.23192 0.0
C265 C 0.2443 0.59236 0.21759 0.0
C266 C 0.20059 0.50779 0.22543 0.0
C267 C 0.17372 0.46695 0.23965 0.0
C268 C 0.19436 0.46291 0.25814 0.0
C269 C 0.16823 0.42461 0.27156 0.0
C270 C 0.12144 0.3902 0.26666 0.0
C271 C 0.10079 0.39393 0.24827 0.0
C272 C 0.12686 0.43186 0.23473 0.0
C273 C 0.28103 0.5291 0.13735 0.0
C274 C 0.24035 0.49178 0.12807 0.0
C275 C 0.27852 0.54364 0.1576 0.0
C276 C 0.23494 0.52205 0.16853 0.0
C277 C 0.19421 0.48588 0.15881 0.0
C278 C 0.19697 0.47058 0.139 0.0
C279 C 0.23123 0.53518 0.19032 0.0
C280 C 0.20716 0.49839 0.20484 0.0
C281 C 0.2498 0.58287 0.19681 0.0
C282 C 0.27255 0.62332 0.18211 0.0
C283 C 0.24782 0.62487 0.1645 0.0
C284 C 0.2696 0.66299 0.15064 0.0
C285 C 0.31598 0.69996 0.15431 0.0
C286 C 0.34061 0.69897 0.1719 0.0
C287 C 0.319 0.6609 0.1858 0.0
H288 H 0.33278 0.72944 0.14356 0.0
H289 H 0.10121 0.36065 0.27708 0.0
H290 H 0.40357 0.16319 0.73634 0.0
H291 H 0.43976 0.15691 0.70442 0.0
H292 H 0.57559 0.2736 0.7237 0.0
H293 H 0.53909 0.28074 0.75591 0.0
H294 H 0.55813 0.28222 0.68358 0.0
H295 H 0.56002 0.16133 0.7244 0.0
H296 H 0.52652 0.09362 0.74875 0.0
H297 H 0.4171 0.00901 0.70481 0.0
H298 H 0.44942 0.07658 0.68041 0.0
H299 H 0.67492 0.23586 0.60063 0.0
H300 H 0.65157 0.24246 0.63601 0.0
H301 H 0.50515 0.14175 0.62159 0.0
H302 H 0.52782 0.13551 0.58607 0.0
H303 H 0.53629 0.12635 0.66115 0.0
H304 H 0.53744 0.25339 0.62098 0.0
H305 H 0.57438 0.32352 0.59801 0.0
H306 H 0.6844 0.3995 0.64299 0.0
H307 H 0.64845 0.32952 0.6661 0.0
C308 C 0.4412 0.1875 0.73395 0.0
C309 C 0.46849 0.22231 0.7488 0.0
C310 C 0.46192 0.18368 0.71566 0.0
C311 C 0.5106 0.21416 0.71183 0.0
C312 C 0.538 0.2495 0.72643 0.0
C313 C 0.51712 0.25352 0.74481 0.0
C314 C 0.53198 0.20928 0.69228 0.0
C315 C 0.55426 0.24842 0.67886 0.0
C316 C 0.52649 0.16503 0.68604 0.0
C317 C 0.50734 0.1239 0.70048 0.0
C318 C 0.52881 0.12827 0.71993 0.0
C319 C 0.51001 0.08996 0.73377 0.0
C320 C 0.46987 0.04699 0.72829 0.0
C321 C 0.44837 0.04225 0.70899 0.0
C322 C 0.46701 0.0805 0.69511 0.0
C323 C 0.63767 0.21521 0.60492 0.0
C324 C 0.60322 0.1854 0.59039 0.0
C325 C 0.62448 0.21878 0.62521 0.0
C326 C 0.5766 0.1926 0.63141 0.0
C327 C 0.54232 0.16183 0.61718 0.0
C328 C 0.55541 0.15835 0.59686 0.0
C329 C 0.56188 0.1992 0.65237 0.0
C330 C 0.54072 0.16029 0.66601 0.0
C331 C 0.56919 0.24391 0.65897 0.0
C332 C 0.59057 0.28607 0.64515 0.0
C333 C 0.56973 0.28492 0.62589 0.0
C334 C 0.59044 0.32466 0.61286 0.0
C335 C 0.63179 0.36589 0.61901 0.0
C336 C 0.65242 0.36751 0.63823 0.0
C337 C 0.63188 0.32784 0.6513 0.0
H338 H 0.64778 0.39663 0.6089 0.0
H339 H 0.4554 0.01741 0.739 0.0
H340 H 0.42716 0.55475 0.95212 0.0
H341 H 0.45189 0.5722 0.91571 0.0
H342 H 0.38642 0.65934 0.91157 0.0
H343 H 0.36032 0.6409 0.94753 0.0
H344 H 0.36559 0.60107 0.87797 0.0
H345 H 0.51107 0.71138 0.91721 0.0
H346 H 0.57178 0.72477 0.94355 0.0
H347 H 0.60579 0.63029 0.91101 0.0
H348 H 0.5458 0.61693 0.8843 0.0
H349 H 0.4686 0.75636 0.79321 0.0
H350 H 0.43838 0.71639 0.82658 0.0
H351 H 0.52938 0.65504 0.82203 0.0
H352 H 0.56039 0.69582 0.78902 0.0
H353 H 0.5369 0.6874 0.85885 0.0
H354 H 0.40627 0.58742 0.81647 0.0
H355 H 0.34394 0.56577 0.79003 0.0
H356 H 0.27715 0.62496 0.82767 0.0
H357 H 0.33981 0.64821 0.85413 0.0
C358 C 0.41779 0.57739 0.9434 0.0
C359 C 0.39215 0.59682 0.95283 0.0
C360 C 0.43224 0.58759 0.92264 0.0
C361 C 0.4214 0.61748 0.91097 0.0
C362 C 0.3953 0.6363 0.92027 0.0
C363 C 0.38087 0.62614 0.94094 0.0
C364 C 0.4374 0.63001 0.88911 0.0
C365 C 0.40303 0.62025 0.87375 0.0
C366 C 0.4861 0.65293 0.88345 0.0
C367 C 0.52388 0.66303 0.89886 0.0
C368 C 0.53172 0.69369 0.91564 0.0
C369 C 0.56604 0.70131 0.9306 0.0
C370 C 0.59265 0.67838 0.92894 0.0
C371 C 0.58532 0.64817 0.9122 0.0
C372 C 0.55137 0.64077 0.8971 0.0
C373 C 0.48151 0.73373 0.79919 0.0
C374 C 0.51701 0.72946 0.78859 0.0
C375 C 0.46424 0.71081 0.81826 0.0
C376 C 0.48138 0.68236 0.82685 0.0
C377 C 0.51577 0.67695 0.81587 0.0
C378 C 0.53342 0.70027 0.79697 0.0
C379 C 0.46504 0.66017 0.84769 0.0
C380 C 0.49934 0.66784 0.86286 0.0
C381 C 0.41611 0.63414 0.85304 0.0
C382 C 0.37803 0.61991 0.83724 0.0
C383 C 0.37852 0.59617 0.81906 0.0
C384 C 0.34308 0.58354 0.80407 0.0
C385 C 0.30657 0.5939 0.80718 0.0
C386 C 0.30545 0.61695 0.82529 0.0
C387 C 0.34094 0.62989 0.84029 0.0
H388 H 0.27915 0.58405 0.79556 0.0
H389 H 0.61894 0.68398 0.9406 0.0
H390 H 0.84649 0.28392 0.41332 0.0
H391 H 0.84582 0.31851 0.37983 0.0
H392 H 0.69652 0.27148 0.38759 0.0
H393 H 0.69679 0.23675 0.4213 0.0
H394 H 0.7177 0.24379 0.35019 0.0
H395 H 0.77305 0.39219 0.38766 0.0
H396 H 0.82478 0.45841 0.41097 0.0
H397 H 0.94787 0.48315 0.37592 0.0
H398 H 0.89672 0.41745 0.35223 0.0
H399 H 0.68401 0.35712 0.26402 0.0
H400 H 0.68954 0.33073 0.29882 0.0
H401 H 0.84084 0.38892 0.29068 0.0
H402 H 0.83554 0.41538 0.25571 0.0
H403 H 0.82132 0.41128 0.32813 0.0
H404 H 0.76605 0.2697 0.28839 0.0
H405 H 0.71483 0.20705 0.26363 0.0
H406 H 0.59316 0.16777 0.30264 0.0
H407 H 0.64359 0.23065 0.32754 0.0
C408 C 0.81352 0.28124 0.40804 0.0
C409 C 0.77154 0.25728 0.41996 0.0
C410 C 0.81336 0.30142 0.38894 0.0
C411 C 0.77123 0.29785 0.38129 0.0
C412 C 0.72947 0.27478 0.39329 0.0
C413 C 0.72967 0.25494 0.41253 0.0
C414 C 0.76988 0.31433 0.36 0.0
C415 C 0.73974 0.28057 0.34544 0.0
C416 C 0.80014 0.36186 0.3536 0.0
C417 C 0.83117 0.3997 0.36834 0.0
C418 C 0.81119 0.41158 0.38503 0.0
C419 C 0.84034 0.44926 0.39818 0.0
C420 C 0.88957 0.47497 0.39492 0.0
C421 C 0.90974 0.46319 0.37843 0.0
C422 C 0.88067 0.4259 0.36508 0.0
C423 C 0.7184 0.36389 0.26953 0.0
C424 C 0.75929 0.3881 0.25705 0.0
C425 C 0.72151 0.34881 0.28944 0.0
C426 C 0.76549 0.35725 0.29725 0.0
C427 C 0.80653 0.38196 0.28495 0.0
C428 C 0.80346 0.39718 0.26501 0.0
C429 C 0.76846 0.3409 0.31839 0.0
C430 C 0.79919 0.37449 0.33286 0.0
C431 C 0.73902 0.29308 0.32467 0.0
C432 C 0.70855 0.2552 0.30974 0.0
C433 C 0.72832 0.24797 0.29162 0.0
C434 C 0.69943 0.21236 0.27758 0.0
C435 C 0.65075 0.18353 0.28153 0.0
C436 C 0.63087 0.19017 0.29958 0.0
C437 C 0.6596 0.22575 0.31368 0.0
H438 H 0.62844 0.15598 0.27064 0.0
H439 H 0.91208 0.50395 0.4052 0.0
H440 H 0.34818 0.79766 0.62731 0.0
H441 H 0.31761 0.79093 0.59224 0.0
H442 H 0.43141 0.77201 0.56838 0.0
H443 H 0.46375 0.78104 0.60345 0.0
H444 H 0.41571 0.82803 0.54296 0.0
H445 H 0.31975 0.67694 0.57487 0.0
H446 H 0.26902 0.62011 0.60179 0.0
H447 H 0.16516 0.66395 0.59373 0.0
H448 H 0.2156 0.72158 0.56697 0.0
H449 H 0.27793 0.72572 0.44765 0.0
H450 H 0.31875 0.7303 0.48052 0.0
H451 H 0.24752 0.79706 0.50979 0.0
H452 H 0.20826 0.79423 0.47703 0.0
H453 H 0.24515 0.71082 0.53058 0.0
H454 H 0.34682 0.86701 0.50025 0.0
H455 H 0.39661 0.92012 0.47209 0.0
H456 H 0.48953 0.86184 0.47605 0.0
H457 H 0.43965 0.8076 0.50396 0.0
C458 C 0.36729 0.79285 0.61462 0.0
C459 C 0.40842 0.78973 0.61829 0.0
C460 C 0.34939 0.78844 0.59456 0.0
C461 C 0.37168 0.78008 0.5777 0.0
C462 C 0.41341 0.77811 0.58116 0.0
C463 C 0.43156 0.78281 0.60126 0.0
C464 C 0.35065 0.77258 0.5566 0.0
C465 C 0.37864 0.80188 0.5402 0.0
C466 C 0.30219 0.73854 0.55293 0.0
C467 C 0.2717 0.7039 0.56904 0.0
C468 C 0.28628 0.67475 0.57895 0.0
C469 C 0.25754 0.64234 0.59417 0.0
C470 C 0.21395 0.6385 0.5995 0.0
C471 C 0.19896 0.667 0.5896 0.0
C472 C 0.2276 0.69952 0.57439 0.0
C473 C 0.27106 0.74124 0.46115 0.0
C474 C 0.24011 0.75966 0.4599 0.0
C475 C 0.29446 0.74404 0.4798 0.0
C476 C 0.28613 0.76418 0.49743 0.0
C477 C 0.25437 0.78151 0.49628 0.0
C478 C 0.23208 0.7799 0.4776 0.0
C479 C 0.30986 0.7669 0.51731 0.0
C480 C 0.28235 0.73658 0.5334 0.0
C481 C 0.35869 0.79963 0.52059 0.0
C482 C 0.38908 0.83273 0.50401 0.0
C483 C 0.37753 0.86509 0.49496 0.0
C484 C 0.40584 0.8955 0.47908 0.0
C485 C 0.44612 0.89425 0.47224 0.0
C486 C 0.45825 0.86269 0.48133 0.0
C487 C 0.42997 0.8321 0.49718 0.0
H488 H 0.46799 0.91783 0.45996 0.0
H489 H 0.19174 0.61338 0.61128 0.0
H490 H 0.65981 0.4386 0.0969 0.0
H491 H 0.62107 0.40733 0.06341 0.0
H492 H 0.71639 0.54229 0.03458 0.0
H493 H 0.75446 0.57324 0.06766 0.0
H494 H 0.63598 0.51481 0.01939 0.0
H495 H 0.72639 0.4359 0.03234 0.0
H496 H 0.7492 0.38586 0.05244 0.0
H497 H 0.60645 0.26802 0.04785 0.0
H498 H 0.5824 0.3178 0.02819 0.0
H499 H 0.63669 0.45272 0.91393 0.0
H500 H 0.65659 0.47608 0.95015 0.0
H501 H 0.53501 0.34421 0.96984 0.0
H502 H 0.51424 0.32075 0.93371 0.0
H503 H 0.6163 0.36428 0.99091 0.0
H504 H 0.53252 0.44529 0.97227 0.0
H505 H 0.51458 0.49821 0.95161 0.0
H506 H 0.65326 0.61633 0.96512 0.0
H507 H 0.67238 0.564 0.98564 0.0
C508 C 0.67217 0.4615 0.08339 0.0
C509 C 0.70979 0.50854 0.08499 0.0
C510 C 0.65001 0.44367 0.06422 0.0
C511 C 0.66557 0.47241 0.04631 0.0
C512 C 0.70304 0.51943 0.04808 0.0
C513 C 0.72481 0.53721 0.06713 0.0
C514 C 0.6443 0.4541 0.02551 0.0
C515 C 0.6323 0.48217 0.01311 0.0
C516 C 0.63793 0.41075 0.01742 0.0
C517 C 0.6525 0.38068 0.02899 0.0
C518 C 0.6998 0.39939 0.03572 0.0
C519 C 0.71296 0.37108 0.04702 0.0
C520 C 0.67935 0.32378 0.05139 0.0
C521 C 0.63245 0.30468 0.04447 0.0
C522 C 0.619 0.33294 0.03328 0.0
C523 C 0.61371 0.42886 0.92591 0.0
C524 C 0.57366 0.38487 0.92078 0.0
C525 C 0.62524 0.44227 0.94663 0.0
C526 C 0.59698 0.41208 0.96268 0.0
C527 C 0.55728 0.36804 0.95769 0.0
C528 C 0.54563 0.35462 0.93697 0.0
C529 C 0.60982 0.42589 0.98466 0.0
C530 C 0.61993 0.39685 0.99728 0.0
C531 C 0.61546 0.46888 0.99276 0.0
C532 C 0.604 0.50052 0.98041 0.0
C533 C 0.55938 0.48244 0.97071 0.0
C534 C 0.54896 0.51237 0.95905 0.0
C535 C 0.58277 0.56057 0.95705 0.0
C536 C 0.6271 0.57897 0.9667 0.0
C537 C 0.63771 0.54918 0.97838 0.0
H538 H 0.57454 0.58365 0.94806 0.0
H539 H 0.68966 0.30192 0.06013 0.0
H540 H 0.35765 0.48447 0.04594 0.0
H541 H 0.44382 0.53895 0.04953 0.0
H542 H 0.45084 0.44212 0.09324 0.0
H543 H 0.36425 0.38953 0.09062 0.0
H544 H 0.47847 0.57451 0.09244 0.0
H545 H 0.55209 0.44746 0.08326 0.0
H546 H 0.53765 0.38107 0.06004 0.0
H547 H 0.50433 0.44674 0.0101 0.0
H548 H 0.51759 0.51294 0.03306 0.0
H549 H 0.63153 0.56204 0.16357 0.0
H550 H 0.57368 0.56353 0.13995 0.0
H551 H 0.68454 0.63807 0.0946 0.0
H552 H 0.7427 0.63855 0.11897 0.0
H553 H 0.61207 0.54276 0.08345 0.0
H554 H 0.62358 0.68758 0.10428 0.0
H555 H 0.63025 0.74924 0.12855 0.0
H556 H 0.49363 0.6512 0.15457 0.0
H557 H 0.4864 0.58869 0.13071 0.0
C558 C 0.37788 0.47528 0.0563 0.0
C559 C 0.3547 0.43433 0.06863 0.0
C560 C 0.42691 0.50579 0.05808 0.0
C561 C 0.45332 0.49465 0.0718 0.0
C562 C 0.43085 0.45111 0.08252 0.0
C563 C 0.3816 0.42104 0.08097 0.0
C564 C 0.5023 0.53081 0.07754 0.0
C565 C 0.50822 0.56854 0.09016 0.0
C566 C 0.54096 0.52336 0.074 0.0
C567 C 0.53605 0.4852 0.05985 0.0
C568 C 0.54217 0.44795 0.06726 0.0
C569 C 0.53394 0.41024 0.05418 0.0
C570 C 0.52057 0.40993 0.03356 0.0
C571 C 0.51493 0.44711 0.02602 0.0
C572 C 0.52254 0.48459 0.03909 0.0
C573 C 0.64408 0.58137 0.14908 0.0
C574 C 0.69151 0.59954 0.14278 0.0
C575 C 0.61095 0.58195 0.13552 0.0
C576 C 0.62482 0.60014 0.11539 0.0
C577 C 0.67322 0.62364 0.11005 0.0
C578 C 0.70655 0.62421 0.12397 0.0
C579 C 0.58764 0.58525 0.09933 0.0
C580 C 0.58347 0.55077 0.08496 0.0
C581 C 0.55058 0.59591 0.10123 0.0
C582 C 0.55447 0.63338 0.11564 0.0
C583 C 0.59505 0.67905 0.11525 0.0
C584 C 0.59892 0.71419 0.12893 0.0
C585 C 0.56238 0.70415 0.14309 0.0
C586 C 0.52187 0.65896 0.14357 0.0
C587 C 0.51782 0.62368 0.12993 0.0
H588 H 0.56546 0.7314 0.15367 0.0
H589 H 0.51459 0.38089 0.02343 0.0
H590 H 0.06538 0.70091 0.45989 0.0
H591 H 0.0252 0.62389 0.47787 0.0
H592 H 0.00437 0.552 0.41923 0.0
H593 H 0.04493 0.62902 0.40134 0.0
H594 H 0.92493 0.50842 0.44674 0.0
H595 H 0.09744 0.57542 0.44706 0.0
H596 H 0.17948 0.63789 0.45543 0.0
H597 H 0.14392 0.62395 0.5202 0.0
H598 H 0.06138 0.56195 0.51218 0.0
H599 H 0.88754 0.29011 0.46251 0.0
H600 H 0.94674 0.37239 0.45569 0.0
H601 H 0.92644 0.41068 0.51729 0.0
H602 H 0.86714 0.32745 0.52424 0.0
H603 H 0.02694 0.47437 0.49293 0.0
H604 H 0.85665 0.41704 0.49447 0.0
H605 H 0.77256 0.35678 0.48823 0.0
H606 H 0.80164 0.35804 0.42323 0.0
H607 H 0.8866 0.41584 0.42932 0.0
C608 C 0.05064 0.66845 0.45088 0.0
C609 C 0.0571 0.67021 0.42932 0.0
C610 C 0.02831 0.62473 0.46112 0.0
C611 C 0.01244 0.58255 0.44985 0.0
C612 C 0.01645 0.5843 0.42814 0.0
C613 C 0.03921 0.62804 0.41794 0.0
C614 C 0.99429 0.53666 0.46063 0.0
C615 C 0.9473 0.50106 0.45679 0.0
C616 C 0.02321 0.52762 0.47422 0.0
C617 C 0.07308 0.56437 0.479 0.0
C618 C 0.10699 0.58593 0.46307 0.0
C619 C 0.15359 0.62124 0.46775 0.0
C620 C 0.16683 0.63492 0.48833 0.0
C621 C 0.13355 0.61332 0.50427 0.0
C622 C 0.08687 0.5781 0.49966 0.0
C623 C 0.89852 0.31505 0.47518 0.0
C624 C 0.87373 0.30227 0.49403 0.0
C625 C 0.93205 0.36239 0.47119 0.0
C626 C 0.9406 0.39743 0.48597 0.0
C627 C 0.9206 0.38394 0.50582 0.0
C628 C 0.8868 0.33645 0.50976 0.0
C629 C 0.95805 0.44637 0.4787 0.0
C630 C 0.00463 0.48224 0.48311 0.0
C631 C 0.92857 0.45634 0.46602 0.0
C632 C 0.87789 0.42058 0.46234 0.0
C633 C 0.84524 0.40378 0.4789 0.0
C634 C 0.79749 0.36988 0.4754 0.0
C635 C 0.78184 0.3532 0.45534 0.0
C636 C 0.81395 0.37037 0.43878 0.0
C637 C 0.86192 0.40357 0.44224 0.0
H638 H 0.74481 0.32716 0.4526 0.0
H639 H 0.2029 0.66209 0.49196 0.0
H640 H 0.37768 0.11068 0.78622 0.0
H641 H 0.39484 0.04964 0.77449 0.0
H642 H 0.45102 0.04838 0.83494 0.0
H643 H 0.43412 0.11003 0.84655 0.0
H644 H 0.51801 0.08346 0.80327 0.0
H645 H 0.36139 0.94753 0.81517 0.0
H646 H 0.27402 0.90152 0.81144 0.0
H647 H 0.28871 0.89928 0.74531 0.0
H648 H 0.37615 0.94572 0.74862 0.0
H649 H 0.61002 0.93057 0.7872 0.0
H650 H 0.56597 0.96938 0.79909 0.0
H651 H 0.50833 0.9569 0.73759 0.0
H652 H 0.55305 0.91858 0.72571 0.0
H653 H 0.43883 0.92738 0.76759 0.0
H654 H 0.58876 0.06239 0.75324 0.0
H655 H 0.67609 0.11398 0.75354 0.0
H656 H 0.67399 0.12503 0.81986 0.0
H657 H 0.58661 0.07296 0.81999 0.0
C658 C 0.39043 0.09505 0.79741 0.0
C659 C 0.40393 0.11451 0.81735 0.0
C660 C 0.40072 0.06035 0.79063 0.0
C661 C 0.42456 0.04484 0.80382 0.0
C662 C 0.43256 0.05996 0.82456 0.0
C663 C 0.42248 0.09479 0.83125 0.0
C664 C 0.45068 0.02254 0.79496 0.0
C665 C 0.50061 0.0488 0.79588 0.0
C666 C 0.42798 0.97891 0.78413 0.0
C667 C 0.37538 0.95053 0.78214 0.0
C668 C 0.34601 0.93757 0.79982 0.0
C669 C 0.29645 0.91131 0.79778 0.0
C670 C 0.27582 0.89759 0.77815 0.0
C671 C 0.30473 0.90996 0.76051 0.0
C672 C 0.35431 0.9362 0.76246 0.0
C673 C 0.58868 0.93711 0.77621 0.0
C674 C 0.58467 0.92196 0.75562 0.0
C675 C 0.56337 0.9589 0.78298 0.0
C676 C 0.53381 0.9658 0.7692 0.0
C677 C 0.53062 0.95146 0.74847 0.0
C678 C 0.55612 0.92978 0.7417 0.0
C679 C 0.50599 0.98755 0.77671 0.0
C680 C 0.45604 0.96172 0.77523 0.0
C681 C 0.52857 0.03229 0.78659 0.0
C682 C 0.58117 0.06337 0.78665 0.0
C683 C 0.60695 0.07545 0.76791 0.0
C684 C 0.65645 0.10487 0.768 0.0
C685 C 0.68059 0.12266 0.78671 0.0
C686 C 0.65525 0.11116 0.80538 0.0
C687 C 0.60572 0.08174 0.80538 0.0
H688 H 0.71893 0.14545 0.78674 0.0
H689 H 0.23745 0.87729 0.7766 0.0
H690 H 0.62634 0.72957 0.75148 0.0
H691 H 0.60705 0.65367 0.767 0.0
H692 H 0.53233 0.58174 0.7113 0.0
H693 H 0.55067 0.65765 0.69602 0.0
H694 H 0.47581 0.57319 0.74825 0.0
H695 H 0.6146 0.56264 0.72659 0.0
H696 H 0.70079 0.59109 0.72529 0.0
H697 H 0.70501 0.58601 0.79177 0.0
H698 H 0.61892 0.55812 0.79347 0.0
H699 H 0.37161 0.32546 0.75554 0.0
H700 H 0.41728 0.41057 0.74734 0.0
H701 H 0.46959 0.44088 0.81021 0.0
H702 H 0.4215 0.35576 0.81866 0.0
H703 H 0.54246 0.47737 0.77719 0.0
H704 H 0.40891 0.48502 0.80063 0.0
H705 H 0.32435 0.46125 0.80517 0.0
H706 H 0.31218 0.47874 0.73986 0.0
H707 H 0.39658 0.50202 0.73488 0.0
C708 C 0.60861 0.69812 0.74205 0.0
C709 C 0.58938 0.69931 0.72272 0.0
C710 C 0.59732 0.65455 0.751 0.0
C711 C 0.56751 0.61226 0.74039 0.0
C712 C 0.55521 0.61418 0.71972 0.0
C713 C 0.56604 0.65758 0.71093 0.0
C714 C 0.53904 0.56781 0.75205 0.0
C715 C 0.49027 0.55191 0.75437 0.0
C716 C 0.55874 0.54214 0.76125 0.0
C717 C 0.61043 0.55881 0.76016 0.0
C718 C 0.63399 0.56805 0.74094 0.0
C719 C 0.68281 0.58395 0.74013 0.0
C720 C 0.70839 0.5905 0.75844 0.0
C721 C 0.68517 0.581 0.7776 0.0
C722 C 0.63636 0.56509 0.77849 0.0
C723 C 0.39168 0.35059 0.7677 0.0
C724 C 0.39388 0.33475 0.78761 0.0
C725 C 0.41794 0.39892 0.76302 0.0
C726 C 0.4471 0.43162 0.77815 0.0
C727 C 0.44764 0.41594 0.79834 0.0
C728 C 0.42053 0.36763 0.8031 0.0
C729 C 0.47887 0.48152 0.77218 0.0
C730 C 0.52817 0.49888 0.77119 0.0
C731 C 0.45999 0.50932 0.76458 0.0
C732 C 0.40898 0.49477 0.76735 0.0
C733 C 0.38807 0.48325 0.78719 0.0
C734 C 0.34018 0.46995 0.78985 0.0
C735 C 0.31284 0.46824 0.7728 0.0
C736 C 0.33338 0.47997 0.75305 0.0
C737 C 0.38127 0.49327 0.7503 0.0
H738 H 0.2758 0.45807 0.7749 0.0
H739 H 0.74618 0.6028 0.75777 0.0
H740 H 0.1498 0.48493 0.10002 0.0
H741 H 0.07586 0.46578 0.11678 0.0
H742 H 0.00164 0.33802 0.08001 0.0
H743 H 0.07771 0.3573 0.06305 0.0
H744 H 0.9638 0.39487 0.07587 0.0
H745 H 0.9904 0.32526 0.13327 0.0
H746 H 0.0343 0.31033 0.16033 0.0
H747 H 0.0773 0.44656 0.18752 0.0
H748 H 0.03358 0.46251 0.16046 0.0
H749 H 0.80857 0.47026 0.11906 0.0
H750 H 0.8375 0.41419 0.11479 0.0
H751 H 0.97858 0.5237 0.13257 0.0
H752 H 0.94984 0.58007 0.13687 0.0
H753 H 0.95052 0.43188 0.14941 0.0
H754 H 0.9466 0.50646 0.08312 0.0
H755 H 0.90438 0.52118 0.05486 0.0
H756 H 0.81921 0.37102 0.04398 0.0
H757 H 0.86018 0.35542 0.07254 0.0
C758 C 0.11806 0.45208 0.09578 0.0
C759 C 0.11918 0.42281 0.08009 0.0
C760 C 0.07572 0.44075 0.10563 0.0
C761 C 0.03315 0.40005 0.09991 0.0
C762 C 0.03428 0.36928 0.08484 0.0
C763 C 0.07745 0.38032 0.07514 0.0
C764 C 0.98809 0.39639 0.10711 0.0
C765 C 0.95934 0.40082 0.09208 0.0
C766 C 0.98208 0.40397 0.12825 0.0
C767 C 0.00838 0.39492 0.14483 0.0
C768 C 0.00928 0.35214 0.14498 0.0
C769 C 0.03425 0.3435 0.16037 0.0
C770 C 0.05876 0.37744 0.17572 0.0
C771 C 0.05812 0.42012 0.17571 0.0
C772 C 0.03305 0.42891 0.16037 0.0
C773 C 0.84566 0.48221 0.12232 0.0
C774 C 0.87725 0.52958 0.12811 0.0
C775 C 0.86196 0.45008 0.11993 0.0
C776 C 0.91006 0.46491 0.12333 0.0
C777 C 0.94119 0.51161 0.13 0.0
C778 C 0.92494 0.54385 0.13229 0.0
C779 C 0.92969 0.43396 0.11795 0.0
C780 C 0.95313 0.42316 0.1334 0.0
C781 C 0.93053 0.42014 0.09721 0.0
C782 C 0.90581 0.42973 0.08019 0.0
C783 C 0.91845 0.47658 0.07488 0.0
C784 C 0.89478 0.48508 0.05879 0.0
C785 C 0.85893 0.44705 0.04771 0.0
C786 C 0.84679 0.40044 0.05266 0.0
C787 C 0.87012 0.39174 0.06882 0.0
H788 H 0.84066 0.45369 0.03525 0.0
H789 H 0.07822 0.37071 0.1876 0.0
H790 H 0.27633 0.86482 0.42015 0.0
H791 H 0.35623 0.92176 0.43131 0.0
H792 H 0.40901 0.92168 0.3698 0.0
H793 H 0.32827 0.86264 0.35892 0.0
H794 H 0.45238 0.898 0.39741 0.0
H795 H 0.41589 0.02516 0.39333 0.0
H796 H 0.36696 0.06222 0.40044 0.0
H797 H 0.38375 0.05178 0.46595 0.0
H798 H 0.43243 0.01426 0.45923 0.0
H799 H 0.69434 0.06723 0.41862 0.0
H800 H 0.6126 0.02154 0.4054 0.0
H801 H 0.55802 0.01735 0.46698 0.0
H802 H 0.63991 0.06337 0.48006 0.0
H803 H 0.51574 0.04512 0.43939 0.0
H804 H 0.54711 0.9176 0.44549 0.0
H805 H 0.59118 0.87457 0.44105 0.0
H806 H 0.57919 0.87935 0.37488 0.0
H807 H 0.53547 0.92294 0.37892 0.0
C808 C 0.30421 0.8789 0.40869 0.0
C809 C 0.29581 0.86026 0.38855 0.0
C810 C 0.35031 0.91142 0.41513 0.0
C811 C 0.38878 0.92632 0.40137 0.0
C812 C 0.37983 0.91075 0.38068 0.0
C813 C 0.3337 0.87757 0.37438 0.0
C814 C 0.4383 0.95178 0.40935 0.0
C815 C 0.46664 0.93086 0.40614 0.0
C816 C 0.45593 0.99312 0.42173 0.0
C817 C 0.42764 0.01674 0.42577 0.0
C818 C 0.40902 0.03065 0.40925 0.0
C819 C 0.38135 0.05175 0.41321 0.0
C820 C 0.37221 0.0593 0.43363 0.0
C821 C 0.39089 0.04595 0.45014 0.0
C822 C 0.41863 0.02488 0.44626 0.0
C823 C 0.66472 0.0554 0.42932 0.0
C824 C 0.6728 0.06817 0.45029 0.0
C825 C 0.61818 0.02955 0.42181 0.0
C826 C 0.57925 0.01606 0.43523 0.0
C827 C 0.58755 0.02766 0.45636 0.0
C828 C 0.63411 0.05364 0.46383 0.0
C829 C 0.53005 0.9919 0.42698 0.0
C830 C 0.50166 0.0127 0.43035 0.0
C831 C 0.51196 0.94996 0.41503 0.0
C832 C 0.53844 0.92397 0.4125 0.0
C833 C 0.55421 0.90983 0.42998 0.0
C834 C 0.57905 0.88526 0.42754 0.0
C835 C 0.58811 0.87435 0.40769 0.0
C836 C 0.57221 0.88789 0.39024 0.0
C837 C 0.54735 0.91249 0.3926 0.0
H838 H 0.60734 0.85532 0.40583 0.0
H839 H 0.35068 0.07554 0.43666 0.0
H840 H 0.3497 0.30974 0.85296 0.0
H841 H 0.31922 0.32725 0.88433 0.0
H842 H 0.2539 0.18005 0.90282 0.0
H843 H 0.2823 0.16193 0.87052 0.0
H844 H 0.19903 0.21406 0.9143 0.0
H845 H 0.36652 0.27039 0.92005 0.0
H846 H 0.45136 0.31565 0.91038 0.0
H847 H 0.45027 0.44661 0.91682 0.0
H848 H 0.36484 0.40211 0.92563 0.0
H849 H 0.1901 0.27931 0.02147 0.0
H850 H 0.20096 0.24645 0.98898 0.0
H851 H 0.26376 0.38534 0.96076 0.0
H852 H 0.25359 0.41826 0.99298 0.0
H853 H 0.31955 0.34825 0.95631 0.0
H854 H 0.15226 0.29354 0.94709 0.0
H855 H 0.06733 0.25013 0.95695 0.0
H856 H 0.06949 0.11909 0.95836 0.0
H857 H 0.15466 0.16186 0.94877 0.0
C858 C 0.32828 0.28099 0.8636 0.0
C859 C 0.31869 0.23461 0.85951 0.0
C860 C 0.31112 0.29107 0.8816 0.0
C861 C 0.28562 0.25535 0.89635 0.0
C862 C 0.27393 0.20834 0.8918 0.0
C863 C 0.2901 0.19796 0.87339 0.0
C864 C 0.27313 0.26785 0.91674 0.0
C865 C 0.22555 0.243 0.92362 0.0
C866 C 0.30756 0.30602 0.9289 0.0
C867 C 0.35902 0.33276 0.92337 0.0
C868 C 0.38418 0.30879 0.9192 0.0
C869 C 0.43245 0.33438 0.91386 0.0
C870 C 0.45626 0.38401 0.91308 0.0
C871 C 0.43177 0.40816 0.91744 0.0
C872 C 0.38337 0.38276 0.92252 0.0
C873 C 0.20546 0.30261 0.00821 0.0
C874 C 0.22149 0.35152 0.00989 0.0
C875 C 0.21157 0.28376 0.98964 0.0
C876 C 0.2333 0.31345 0.97243 0.0
C877 C 0.24724 0.36179 0.97387 0.0
C878 C 0.24144 0.38059 0.99235 0.0
C879 C 0.24536 0.29574 0.95341 0.0
C880 C 0.29308 0.31929 0.94696 0.0
C881 C 0.21114 0.2567 0.94171 0.0
C882 C 0.15996 0.23099 0.94744 0.0
C883 C 0.13473 0.25554 0.94968 0.0
C884 C 0.08653 0.23103 0.95518 0.0
C885 C 0.06306 0.1819 0.95834 0.0
C886 C 0.08773 0.15716 0.95594 0.0
C887 C 0.13595 0.18151 0.95046 0.0
H888 H 0.02574 0.163 0.9626 0.0
H889 H 0.49365 0.40387 0.90913 0.0
H890 H 0.97869 0.29563 0.3596 0.0
H891 H 0.0064 0.31072 0.3235 0.0
H892 H 0.95884 0.16179 0.31548 0.0
H893 H 0.93178 0.14661 0.35154 0.0
H894 H 0.04832 0.2182 0.30004 0.0
H895 H 0.8947 0.20911 0.29612 0.0
H896 H 0.83568 0.23276 0.30557 0.0
H897 H 0.93149 0.37526 0.28505 0.0
H898 H 0.99136 0.35261 0.2757 0.0
H899 H 0.01007 0.23476 0.18246 0.0
H900 H 0.98199 0.22518 0.2183 0.0
H901 H 0.1266 0.3134 0.23928 0.0
H902 H 0.15512 0.32248 0.20355 0.0
H903 H 0.98742 0.28731 0.24809 0.0
H904 H 0.13949 0.27034 0.28521 0.0
H905 H 0.19724 0.24498 0.2758 0.0
H906 H 0.10073 0.15058 0.22972 0.0
H907 H 0.04221 0.17494 0.23905 0.0
C908 C 0.97436 0.26616 0.35016 0.0
C909 C 0.95294 0.21988 0.35845 0.0
C910 C 0.98988 0.27478 0.32949 0.0
C911 C 0.98441 0.23733 0.31673 0.0
C912 C 0.96335 0.19122 0.32501 0.0
C913 C 0.94758 0.18253 0.34559 0.0
C914 C 0.00123 0.24598 0.29484 0.0
C915 C 0.03518 0.23358 0.28873 0.0
C916 C 0.98393 0.26581 0.28001 0.0
C917 C 0.9477 0.27926 0.2854 0.0
C918 C 0.90332 0.24556 0.29375 0.0
C919 C 0.86969 0.25878 0.29907 0.0
C920 C 0.87991 0.30553 0.29599 0.0
C921 C 0.92368 0.33909 0.28747 0.0
C922 C 0.95744 0.32607 0.28213 0.0
C923 C 0.03603 0.25187 0.19468 0.0
C924 C 0.08499 0.27906 0.19004 0.0
C925 C 0.01981 0.24677 0.21517 0.0
C926 C 0.05215 0.26824 0.23153 0.0
C927 C 0.10095 0.29611 0.22695 0.0
C928 C 0.11719 0.3015 0.20646 0.0
C929 C 0.03496 0.26006 0.2534 0.0
C930 C 0.00089 0.2724 0.25947 0.0
C931 C 0.05214 0.24023 0.26825 0.0
C932 C 0.08672 0.22478 0.26271 0.0
C933 C 0.13055 0.24403 0.27314 0.0
C934 C 0.16342 0.22986 0.2678 0.0
C935 C 0.15272 0.19629 0.25213 0.0
C936 C 0.10905 0.17669 0.24181 0.0
C937 C 0.07604 0.1907 0.2471 0.0
H938 H 0.17823 0.1854 0.24801 0.0
H939 H 0.85392 0.31573 0.30019 0.0
H940 H 0.74291 0.91157 0.68759 0.0
H941 H 0.77966 0.95246 0.65487 0.0
H942 H 0.64272 0.92626 0.63326 0.0
H943 H 0.60599 0.88557 0.66539 0.0
H944 H 0.68812 0.90489 0.60388 0.0
H945 H 0.72562 0.03421 0.65221 0.0
H946 H 0.7622 0.08143 0.68376 0.0
H947 H 0.90006 0.10953 0.66329 0.0
H948 H 0.86413 0.06193 0.63171 0.0
H949 H 0.69827 0.06974 0.53349 0.0
H950 H 0.69198 0.02337 0.56408 0.0
H951 H 0.84192 0.07012 0.56027 0.0
H952 H 0.84877 0.1173 0.52922 0.0
H953 H 0.8093 0.07641 0.60087 0.0
H954 H 0.76966 0.96012 0.54812 0.0
H955 H 0.72997 0.91568 0.51637 0.0
H956 H 0.59319 0.86416 0.54509 0.0
H957 H 0.63198 0.90883 0.57691 0.0
C958 C 0.72072 0.91459 0.67585 0.0
C959 C 0.67149 0.89524 0.67917 0.0
C960 C 0.74178 0.93799 0.65719 0.0
C961 C 0.71388 0.94232 0.64162 0.0
C962 C 0.66489 0.92304 0.64497 0.0
C963 C 0.64397 0.89992 0.66348 0.0
C964 C 0.73472 0.96708 0.62172 0.0
C965 C 0.71478 0.94235 0.60321 0.0
C966 C 0.77063 0.01554 0.62081 0.0
C967 C 0.79214 0.04399 0.63978 0.0
C968 C 0.76367 0.0501 0.65454 0.0
C969 C 0.78429 0.077 0.6724 0.0
C970 C 0.8334 0.09831 0.67557 0.0
C971 C 0.86201 0.09289 0.66084 0.0
C972 C 0.84154 0.06596 0.64296 0.0
C973 C 0.73008 0.07026 0.53901 0.0
C974 C 0.77409 0.09728 0.52887 0.0
C975 C 0.7263 0.04347 0.55649 0.0
C976 C 0.76635 0.04291 0.5643 0.0
C977 C 0.81056 0.06996 0.55438 0.0
C978 C 0.81435 0.09669 0.53664 0.0
C979 C 0.76105 0.01464 0.58318 0.0
C980 C 0.78385 0.0386 0.60147 0.0
C981 C 0.72739 0.96547 0.58395 0.0
C982 C 0.70381 0.93799 0.56491 0.0
C983 C 0.73111 0.93952 0.54764 0.0
C984 C 0.70876 0.91426 0.52962 0.0
C985 C 0.65909 0.88713 0.52871 0.0
C986 C 0.63167 0.88514 0.54583 0.0
C987 C 0.65383 0.91036 0.56388 0.0
H988 H 0.64186 0.86763 0.51474 0.0
H989 H 0.8493 0.11915 0.6894 0.0
H990 H 0.79279 0.77886 0.8483 0.0
H991 H 0.79671 0.75713 0.88422 0.0
H992 H 0.65753 0.7391 0.89593 0.0
H993 H 0.65356 0.76117 0.86004 0.0
H994 H 0.71564 0.78733 0.92634 0.0
H995 H 0.67515 0.64345 0.89176 0.0
H996 H 0.6799 0.5901 0.86596 0.0
H997 H 0.81922 0.62722 0.88799 0.0
H998 H 0.81555 0.68126 0.91382 0.0
H999 H 0.71896 0.69834 0.02774 0.0
H1000 H 0.69455 0.70122 0.99208 0.0
H1001 H 0.83341 0.73409 0.97001 0.0
H1002 H 0.85762 0.72995 1.00546 0.0
H1003 H 0.76188 0.66806 0.94547 0.0
H1004 H 0.80519 0.82082 0.97634 0.0
H1005 H 0.79879 0.87287 1.00244 0.0
H1006 H 0.6513 0.81629 0.98701 0.0
H1007 H 0.65673 0.76349 0.961 0.0
C1008 C 0.76293 0.7701 0.85851 0.0
C1009 C 0.72283 0.77164 0.85127 0.0
C1010 C 0.76499 0.75721 0.87901 0.0
C1011 C 0.72698 0.74547 0.89276 0.0
C1012 C 0.68695 0.74716 0.88559 0.0
C1013 C 0.68469 0.75968 0.86502 0.0
C1014 C 0.73027 0.73367 0.9148 0.0
C1015 C 0.7249 0.76061 0.9305 0.0
C1016 C 0.74261 0.69898 0.92034 0.0
C1017 C 0.74511 0.66664 0.90472 0.0
C1018 C 0.70691 0.64047 0.89107 0.0
C1019 C 0.7094 0.61005 0.87643 0.0
C1020 C 0.74985 0.60529 0.87532 0.0
C1021 C 0.78789 0.63092 0.88887 0.0
C1022 C 0.78558 0.6614 0.90354 0.0
C1023 C 0.7442 0.7058 0.01529 0.0
C1024 C 0.79047 0.71435 0.01954 0.0
C1025 C 0.73025 0.7077 0.99492 0.0
C1026 C 0.76229 0.71831 0.97838 0.0
C1027 C 0.8081 0.72594 0.98252 0.0
C1028 C 0.82209 0.72412 1.00285 0.0
C1029 C 0.74895 0.72289 0.95677 0.0
C1030 C 0.75216 0.69439 0.94122 0.0
C1031 C 0.73437 0.75591 0.95136 0.0
C1032 C 0.7312 0.7878 0.96692 0.0
C1033 C 0.7713 0.81922 0.97864 0.0
C1034 C 0.76787 0.84891 0.99339 0.0
C1035 C 0.72462 0.84777 0.99644 0.0
C1036 C 0.68475 0.81706 0.98468 0.0
C1037 C 0.68798 0.78726 0.96992 0.0
H1038 H 0.72204 0.87079 0.00786 0.0
H1039 H 0.75172 0.58173 0.86398 0.0
H1040 H 0.03802 0.68641 0.35411 0.0
H1041 H 0.99484 0.67267 0.3216 0.0
H1042 H 0.08887 0.81856 0.30371 0.0
H1043 H 0.13117 0.83306 0.33704 0.0
H1044 H -0.00118 0.78776 0.28999 0.0
H1045 H 0.10837 0.72936 0.28642 0.0
H1046 H 0.14591 0.68439 0.29929 0.0
H1047 H 0.01162 0.5545 0.29565 0.0
H1048 H 0.97309 0.59872 0.28306 0.0
H1049 H 0.92204 0.71842 0.18359 0.0
H1050 H 0.97048 0.75168 0.21493 0.0
H1051 H 0.89175 0.61534 0.24514 0.0
H1052 H 0.84385 0.58199 0.21415 0.0
H1053 H 0.98496 0.65096 0.24995 0.0
H1054 H 0.87436 0.70941 0.25678 0.0
H1055 H 0.83495 0.75372 0.24544 0.0
H1056 H 0.97037 0.88266 0.2429 0.0
H1057 H 0.01067 0.83895 0.25398 0.0
C1058 C 0.04907 0.7158 0.3434 0.0
C1059 C 0.08823 0.76066 0.34795 0.0
C1060 C 0.02451 0.70786 0.32475 0.0
C1061 C 0.0395 0.74414 0.30987 0.0
C1062 C 0.07694 0.78988 0.31486 0.0
C1063 C 0.10104 0.79817 0.33387 0.0
C1064 C 0.01756 0.73287 0.28884 0.0
C1065 C 0.99651 0.7584 0.28104 0.0
C1066 C 0.01423 0.69435 0.27715 0.0
C1067 C 0.03779 0.66744 0.28391 0.0
C1068 C 0.08683 0.69122 0.2884 0.0
C1069 C 0.10827 0.66587 0.29567 0.0
C1070 C 0.08109 0.61667 0.29835 0.0
C1071 C 0.03256 0.59263 0.29358 0.0
C1072 C 0.01093 0.61781 0.28635 0.0
C1073 C 0.91488 0.69563 0.19696 0.0
C1074 C 0.87915 0.64739 0.19623 0.0
C1075 C 0.94254 0.71474 0.21489 0.0
C1076 C 0.93476 0.68605 0.23245 0.0
C1077 C 0.89869 0.63817 0.23179 0.0
C1078 C 0.87123 0.61912 0.21397 0.0
C1079 C 0.96473 0.70472 0.25141 0.0
C1080 C 0.9877 0.68072 0.25874 0.0
C1081 C 0.96978 0.74457 0.26256 0.0
C1082 C 0.94557 0.77082 0.25596 0.0
C1083 C 0.89577 0.74714 0.25363 0.0
C1084 C 0.87326 0.77215 0.24729 0.0
C1085 C 0.90015 0.82094 0.24339 0.0
C1086 C 0.9496 0.84485 0.24589 0.0
C1087 C 0.97229 0.81998 0.25221 0.0
H1088 H 0.88266 0.84025 0.23848 0.0
H1089 H 0.09753 0.59714 0.30415 0.0
H1090 H 0.27791 0.00263 0.69295 0.0
H1091 H 0.27195 0.98015 0.65637 0.0
H1092 H 0.23742 0.08835 0.64044 0.0
H1093 H 0.243 0.1107 0.67692 0.0
H1094 H 0.1788 0.0096 0.6216 0.0
H1095 H 0.34875 0.09836 0.63038 0.0
H1096 H 0.42746 0.11989 0.64484 0.0
H1097 H 0.40603 0.98249 0.62844 0.0
H1098 H 0.32683 0.95975 0.61427 0.0
H1099 H 0.20643 0.01034 0.51239 0.0
H1100 H 0.21756 0.03284 0.54897 0.0
H1101 H 0.23873 0.91501 0.56305 0.0
H1102 H 0.22669 0.89157 0.52653 0.0
H1103 H 0.30396 0.99655 0.58277 0.0
H1104 H 0.13434 0.90787 0.5744 0.0
H1105 H 0.05734 0.88734 0.55841 0.0
H1106 H 0.07954 0.02571 0.57348 0.0
H1107 H 0.15705 0.04732 0.5893 0.0
C1108 C 0.26953 0.02196 0.68163 0.0
C1109 C 0.26069 0.05833 0.68793 0.0
C1110 C 0.26621 0.00912 0.66068 0.0
C1111 C 0.25458 0.03275 0.64552 0.0
C1112 C 0.24623 0.06937 0.65178 0.0
C1113 C 0.24927 0.08202 0.6727 0.0
C1114 C 0.24915 0.0183 0.62326 0.0
C1115 C 0.20656 0.00745 0.61308 0.0
C1116 C 0.28468 0.01406 0.61217 0.0
C1117 C 0.33159 0.02718 0.62143 0.0
C1118 C 0.36052 0.0725 0.6301 0.0
C1119 C 0.4053 0.08497 0.63819 0.0
C1120 C 0.42172 0.05258 0.63751 0.0
C1121 C 0.39326 0.00753 0.62893 0.0
C1122 C 0.34842 0.99482 0.62089 0.0
C1123 C 0.21298 0.98884 0.52325 0.0
C1124 C 0.21533 0.94889 0.51642 0.0
C1125 C 0.21953 0.00191 0.54419 0.0
C1126 C 0.22851 0.97535 0.55883 0.0
C1127 C 0.2319 0.93609 0.55205 0.0
C1128 C 0.22518 0.92286 0.5311 0.0
C1129 C 0.23397 0.98839 0.58122 0.0
C1130 C 0.27637 -0.00121 0.59138 0.0
C1131 C 0.19838 0.9923 0.59232 0.0
C1132 C 0.15172 0.97936 0.58286 0.0
C1133 C 0.12299 0.93406 0.57416 0.0
C1134 C 0.07922 0.9222 0.56515 0.0
C1135 C 0.06361 0.95524 0.56488 0.0
C1136 C 0.0917 0.00017 0.57367 0.0
C1137 C 0.13554 0.01223 0.58268 0.0
H1138 H 0.0297 0.94599 0.5579 0.0
H1139 H 0.45658 0.06242 0.64354 0.0
loop_
_geom_bond_atom_site_label_1
_geom_bond_atom_site_label_2
_geom_bond_distance
_geom_bond_site_symmetry_2
_ccdc_geom_bond_type
Pr0 C2 2.880 . S
Pr0 O20 2.562 . S
Pr0 O21 2.490 . S
Pr0 O22 2.695 . S
Pr0 O23 2.512 . S
Pr0 O25 2.437 . S
Pr0 O28 2.436 . S
Pr0 O30 2.438 . S
Pr1 C11 2.880 . S
Pr1 O22 2.436 . S
Pr1 O24 2.438 . S
Pr1 O26 2.562 . S
Pr1 O27 2.490 . S
Pr1 O28 2.695 . S
Pr1 O29 2.512 . S
Pr1 O31 2.437 . S
C2 Pr0 2.880 . S
C2 C3 1.447 1_554 S
C2 O20 1.254 . S
C2 O21 1.225 . S
C3 C2 1.447 1_556 S
C3 C4 1.420 . S
C3 C8 1.374 . S
C4 C3 1.420 . S
C4 C5 1.368 . S
C4 H32 0.929 . S
C5 C4 1.368 . S
C5 C6 1.386 . S
C5 H33 0.929 . S
C6 C5 1.386 . S
C6 C7 1.373 . S
C7 C6 1.373 . S
C7 C8 1.409 . S
C7 H34 0.931 . S
C8 C3 1.374 . S
C8 C7 1.409 . S
C8 H35 0.956 . S
C9 O22 1.270 . S
C9 O23 1.248 . S
C10 O24 1.267 . S
C10 O25 1.278 . S
C11 Pr1 2.880 . S
C11 C12 1.491 . S
C11 O26 1.254 . S
C11 O27 1.225 . S
C12 C11 1.491 . S
C12 C13 1.392 . S
C12 C17 1.356 . S
C13 C12 1.392 . S
C13 C14 1.368 . S
C13 H36 0.929 . S
C14 C13 1.368 . S
C14 C15 1.386 . S
C14 H37 0.929 . S
C15 C14 1.386 . S
C15 C16 1.373 . S
C16 C15 1.373 . S
C16 C17 1.409 . S
C16 H38 0.931 . S
C17 C12 1.356 . S
C17 C16 1.409 . S
C17 H39 0.930 . S
C18 O28 1.270 . S
C18 O29 1.248 . S
C19 O30 1.267 . S
C19 O31 1.278 . S
O20 Pr0 2.562 . S
O20 C2 1.254 . S
O21 Pr0 2.490 . S
O21 C2 1.225 . S
O22 Pr0 2.695 . S
O22 Pr1 2.436 . S
O22 C9 1.270 . S
O23 Pr0 2.512 . S
O23 C9 1.248 . S
O24 Pr1 2.438 . S
O24 C10 1.267 . S
O25 Pr0 2.437 . S
O25 C10 1.278 . S
O26 Pr1 2.562 . S
O26 C11 1.254 . S
O27 Pr1 2.490 . S
O27 C11 1.225 . S
O28 Pr0 2.436 . S
O28 Pr1 2.695 . S
O28 C18 1.270 . S
O29 Pr1 2.512 . S
O29 C18 1.248 . S
O30 Pr0 2.438 . S
O30 C19 1.267 . S
O31 Pr1 2.437 . S
O31 C19 1.278 . S
H32 C4 0.929 . S
H33 C5 0.929 . S
H34 C7 0.931 . S
H35 C8 0.956 . S
H36 C13 0.929 . S
H37 C14 0.929 . S
H38 C16 0.931 . S
H39 C17 0.930 . S
Pr40 C42 2.880 . S
Pr40 O60 2.562 . S
Pr40 O61 2.490 . S
Pr40 O62 2.695 . S
Pr40 O63 2.512 . S
Pr40 O65 2.437 . S
Pr40 O68 2.436 . S
Pr40 O70 2.438 . S
Pr41 C51 2.880 . S
Pr41 O62 2.436 . S
Pr41 O64 2.438 . S
Pr41 O66 2.562 . S
Pr41 O67 2.490 . S
Pr41 O68 2.695 . S
Pr41 O69 2.512 . S
Pr41 O71 2.437 . S
C42 Pr40 2.880 . S
C42 C43 1.491 . S
C42 O60 1.254 . S
C42 O61 1.225 . S
C43 C42 1.491 . S
C43 C44 1.392 . S
C43 C48 1.356 . S
C44 C43 1.392 . S
C44 C45 1.368 . S
C44 H72 0.929 . S
C45 C44 1.368 . S
C45 C46 1.386 . S
C45 H73 0.929 . S
C46 C45 1.386 . S
C46 C47 1.373 . S
C47 C46 1.373 . S
C47 C48 1.409 . S
C47 H74 0.931 . S
C48 C43 1.356 . S
C48 C47 1.409 . S
C48 H75 0.930 . S
C49 O62 1.270 . S
C49 O63 1.248 . S
C50 O64 1.267 . S
C50 O65 1.278 . S
C51 Pr41 2.880 . S
C51 C52 1.491 . S
C51 O66 1.254 . S
C51 O67 1.225 . S
C52 C51 1.491 . S
C52 C53 1.392 . S
C52 C57 1.356 . S
C53 C52 1.392 . S
C53 C54 1.368 . S
C53 H76 0.929 . S
C54 C53 1.368 . S
C54 C55 1.386 . S
C54 H77 0.929 . S
C55 C54 1.386 . S
C55 C56 1.373 . S
C56 C55 1.373 . S
C56 C57 1.409 . S
C56 H78 0.931 . S
C57 C52 1.356 . S
C57 C56 1.409 . S
C57 H79 0.930 . S
C58 O68 1.270 . S
C58 O69 1.248 . S
C59 O70 1.267 . S
C59 O71 1.278 . S
O60 Pr40 2.562 . S
O60 C42 1.254 . S
O61 Pr40 2.490 . S
O61 C42 1.225 . S
O62 Pr40 2.695 . S
O62 Pr41 2.436 . S
O62 C49 1.270 . S
O63 Pr40 2.512 . S
O63 C49 1.248 . S
O64 Pr41 2.438 . S
O64 C50 1.267 . S
O65 Pr40 2.437 . S
O65 C50 1.278 . S
O66 Pr41 2.562 . S
O66 C51 1.254 . S
O67 Pr41 2.490 . S
O67 C51 1.225 . S
O68 Pr40 2.436 . S
O68 Pr41 2.695 . S
O68 C58 1.270 . S
O69 Pr41 2.512 . S
O69 C58 1.248 . S
O70 Pr40 2.438 . S
O70 C59 1.267 . S
O71 Pr41 2.437 . S
O71 C59 1.278 . S
H72 C44 0.929 . S
H73 C45 0.929 . S
H74 C47 0.931 . S
H75 C48 0.930 . S
H76 C53 0.929 . S
H77 C54 0.929 . S
H78 C56 0.931 . S
H79 C57 0.930 . S
Pr80 C82 2.880 . S
Pr80 O100 2.562 . S
Pr80 O101 2.490 . S
Pr80 O102 2.695 . S
Pr80 O103 2.512 . S
Pr80 O105 2.437 . S
Pr80 O108 2.436 . S
Pr80 O110 2.438 . S
Pr81 C91 2.880 . S
Pr81 O102 2.436 . S
Pr81 O104 2.438 . S
Pr81 O106 2.562 . S
Pr81 O107 2.490 . S
Pr81 O108 2.695 . S
Pr81 O109 2.512 . S
Pr81 O111 2.437 . S
C82 Pr80 2.880 . S
C82 C83 1.491 . S
C82 O100 1.254 . S
C82 O101 1.225 . S
C83 C82 1.491 . S
C83 C84 1.392 . S
C83 C88 1.356 . S
C84 C83 1.392 . S
C84 C85 1.368 . S
C84 H112 0.929 . S
C85 C84 1.368 . S
C85 C86 1.386 . S
C85 H113 0.929 . S
C86 C85 1.386 . S
C86 C87 1.373 . S
C87 C86 1.373 . S
C87 C88 1.409 . S
C87 H114 0.931 . S
C88 C83 1.356 . S
C88 C87 1.409 . S
C88 H115 0.930 . S
C89 O102 1.270 . S
C89 O103 1.248 . S
C90 O104 1.267 . S
C90 O105 1.278 . S
C91 Pr81 2.880 . S
C91 C92 1.491 . S
C91 O106 1.254 . S
C91 O107 1.225 . S
C92 C91 1.491 . S
C92 C93 1.392 . S
C92 C97 1.356 . S
C93 C92 1.392 . S
C93 C94 1.368 . S
C93 H116 0.929 . S
C94 C93 1.368 . S
C94 C95 1.386 . S
C94 H117 0.929 . S
C95 C94 1.386 . S
C95 C96 1.373 . S
C96 C95 1.373 . S
C96 C97 1.409 . S
C96 H118 0.931 . S
C97 C92 1.356 . S
C97 C96 1.409 . S
C97 H119 0.930 . S
C98 O108 1.270 . S
C98 O109 1.248 . S
C99 O110 1.267 . S
C99 O111 1.278 . S
O100 Pr80 2.562 . S
O100 C82 1.254 . S
O101 Pr80 2.490 . S
O101 C82 1.225 . S
O102 Pr80 2.695 . S
O102 Pr81 2.436 . S
O102 C89 1.270 . S
O103 Pr80 2.512 . S
O103 C89 1.248 . S
O104 Pr81 2.438 . S
O104 C90 1.267 . S
O105 Pr80 2.437 . S
O105 C90 1.278 . S
O106 Pr81 2.562 . S
O106 C91 1.254 . S
O107 Pr81 2.490 . S
O107 C91 1.225 . S
O108 Pr80 2.436 . S
O108 Pr81 2.695 . S
O108 C98 1.270 . S
O109 Pr81 2.512 . S
O109 C98 1.248 . S
O110 Pr80 2.438 . S
O110 C99 1.267 . S
O111 Pr81 2.437 . S
O111 C99 1.278 . S
H112 C84 0.929 . S
H113 C85 0.929 . S
H114 C87 0.931 . S
H115 C88 0.930 . S
H116 C93 0.929 . S
H117 C94 0.929 . S
H118 C96 0.931 . S
H119 C97 0.930 . S
Pr120 C122 2.880 . S
Pr120 O140 2.562 . S
Pr120 O141 2.490 . S
Pr120 O142 2.695 . S
Pr120 O143 2.512 . S
Pr120 O145 2.437 . S
Pr120 O148 2.436 . S
Pr120 O150 2.438 . S
Pr121 C131 2.880 . S
Pr121 O142 2.436 . S
Pr121 O144 2.438 . S
Pr121 O146 2.562 . S
Pr121 O147 2.490 . S
Pr121 O148 2.695 . S
Pr121 O149 2.512 . S
Pr121 O151 2.437 . S
C122 Pr120 2.880 . S
C122 C123 1.491 . S
C122 O140 1.254 . S
C122 O141 1.225 . S
C123 C122 1.491 . S
C123 C124 1.392 . S
C123 C128 1.356 . S
C124 C123 1.392 . S
C124 C125 1.368 . S
C124 H152 0.929 . S
C125 C124 1.368 . S
C125 C126 1.386 . S
C125 H153 0.929 . S
C126 C125 1.386 . S
C126 C127 1.373 . S
C127 C126 1.373 . S
C127 C128 1.409 . S
C127 H154 0.931 . S
C128 C123 1.356 . S
C128 C127 1.409 . S
C128 H155 0.930 . S
C129 O142 1.270 . S
C129 O143 1.248 . S
C130 O144 1.267 . S
C130 O145 1.278 . S
C131 Pr121 2.880 . S
C131 C132 1.491 . S
C131 O146 1.254 . S
C131 O147 1.225 . S
C132 C131 1.491 . S
C132 C133 1.392 . S
C132 C137 1.356 . S
C133 C132 1.392 . S
C133 C134 1.368 . S
C133 H156 0.929 . S
C134 C133 1.368 . S
C134 C135 1.386 . S
C134 H157 0.929 . S
C135 C134 1.386 . S
C135 C136 1.373 . S
C136 C135 1.373 . S
C136 C137 1.409 . S
C136 H158 0.931 . S
C137 C132 1.356 . S
C137 C136 1.409 . S
C137 H159 0.930 . S
C138 O148 1.270 . S
C138 O149 1.248 . S
C139 O150 1.267 . S
C139 O151 1.278 . S
O140 Pr120 2.562 . S
O140 C122 1.254 . S
O141 Pr120 2.490 . S
O141 C122 1.225 . S
O142 Pr120 2.695 . S
O142 Pr121 2.436 . S
O142 C129 1.270 . S
O143 Pr120 2.512 . S
O143 C129 1.248 . S
O144 Pr121 2.438 . S
O144 C130 1.267 . S
O145 Pr120 2.437 . S
O145 C130 1.278 . S
O146 Pr121 2.562 . S
O146 C131 1.254 . S
O147 Pr121 2.490 . S
O147 C131 1.225 . S
O148 Pr120 2.436 . S
O148 Pr121 2.695 . S
O148 C138 1.270 . S
O149 Pr121 2.512 . S
O149 C138 1.248 . S
O150 Pr120 2.438 . S
O150 C139 1.267 . S
O151 Pr121 2.437 . S
O151 C139 1.278 . S
H152 C124 0.929 . S
H153 C125 0.929 . S
H154 C127 0.931 . S
H155 C128 0.930 . S
H156 C133 0.929 . S
H157 C134 0.929 . S
H158 C136 0.931 . S
H159 C137 0.930 . S
Pr160 C162 2.880 . S
Pr160 O180 2.562 . S
Pr160 O181 2.490 . S
Pr160 O182 2.695 . S
Pr160 O183 2.512 . S
Pr160 O185 2.437 . S
Pr160 O188 2.436 . S
Pr160 O190 2.438 . S
Pr161 C171 2.880 . S
Pr161 O182 2.436 . S
Pr161 O184 2.438 . S
Pr161 O186 2.562 . S
Pr161 O187 2.490 . S
Pr161 O188 2.695 . S
Pr161 O189 2.512 . S
Pr161 O191 2.437 . S
C162 Pr160 2.880 . S
C162 C163 1.491 . S
C162 O180 1.254 . S
C162 O181 1.225 . S
C163 C162 1.491 . S
C163 C164 1.392 . S
C163 C168 1.356 . S
C164 C163 1.392 . S
C164 C165 1.368 . S
C164 H192 0.929 . S
C165 C164 1.368 . S
C165 C166 1.386 . S
C165 H193 0.929 . S
C166 C165 1.386 . S
C166 C167 1.373 . S
C167 C166 1.373 . S
C167 C168 1.409 . S
C167 H194 0.931 . S
C168 C163 1.356 . S
C168 C167 1.409 . S
C168 H195 0.930 . S
C169 O182 1.270 . S
C169 O183 1.248 . S
C170 O184 1.267 . S
C170 O185 1.278 . S
C171 Pr161 2.880 . S
C171 C172 1.491 . S
C171 O186 1.254 . S
C171 O187 1.225 . S
C172 C171 1.491 . S
C172 C173 1.392 . S
C172 C177 1.356 . S
C173 C172 1.392 . S
C173 C174 1.368 . S
C173 H196 0.929 . S
C174 C173 1.368 . S
C174 C175 1.386 . S
C174 H197 0.929 . S
C175 C174 1.386 . S
C175 C176 1.373 . S
C176 C175 1.373 . S
C176 C177 1.409 . S
C176 H198 0.931 . S
C177 C172 1.356 . S
C177 C176 1.409 . S
C177 H199 0.930 . S
C178 O188 1.270 . S
C178 O189 1.248 . S
C179 O190 1.267 . S
C179 O191 1.278 . S
O180 Pr160 2.562 . S
O180 C162 1.254 . S
O181 Pr160 2.490 . S
O181 C162 1.225 . S
O182 Pr160 2.695 . S
O182 Pr161 2.436 . S
O182 C169 1.270 . S
O183 Pr160 2.512 . S
O183 C169 1.248 . S
O184 Pr161 2.438 . S
O184 C170 1.267 . S
O185 Pr160 2.437 . S
O185 C170 1.278 . S
O186 Pr161 2.562 . S
O186 C171 1.254 . S
O187 Pr161 2.490 . S
O187 C171 1.225 . S
O188 Pr160 2.436 . S
O188 Pr161 2.695 . S
O188 C178 1.270 . S
O189 Pr161 2.512 . S
O189 C178 1.248 . S
O190 Pr160 2.438 . S
O190 C179 1.267 . S
O191 Pr161 2.437 . S
O191 C179 1.278 . S
H192 C164 0.929 . S
H193 C165 0.929 . S
H194 C167 0.931 . S
H195 C168 0.930 . S
H196 C173 0.929 . S
H197 C174 0.929 . S
H198 C176 0.931 . S
H199 C177 0.930 . S
Pr200 C202 2.880 . S
Pr200 O220 2.562 . S
Pr200 O221 2.490 . S
Pr200 O222 2.695 . S
Pr200 O223 2.512 . S
Pr200 O225 2.437 . S
Pr200 O228 2.436 . S
Pr200 O230 2.438 . S
Pr201 C211 2.880 . S
Pr201 O222 2.436 . S
Pr201 O224 2.438 . S
Pr201 O226 2.562 . S
Pr201 O227 2.490 . S
Pr201 O228 2.695 . S
Pr201 O229 2.512 . S
Pr201 O231 2.437 . S
C202 Pr200 2.880 . S
C202 C203 1.491 . S
C202 O220 1.254 . S
C202 O221 1.225 . S
C203 C202 1.491 . S
C203 C204 1.392 . S
C203 C208 1.356 . S
C204 C203 1.392 . S
C204 C205 1.368 . S
C204 H232 0.929 . S
C205 C204 1.368 . S
C205 C206 1.386 . S
C205 H233 0.929 . S
C206 C205 1.386 . S
C206 C207 1.373 . S
C207 C206 1.373 . S
C207 C208 1.409 . S
C207 H234 0.931 . S
C208 C203 1.356 . S
C208 C207 1.409 . S
C208 H235 0.930 . S
C209 O222 1.270 . S
C209 O223 1.248 . S
C210 O224 1.267 . S
C210 O225 1.278 . S
C211 Pr201 2.880 . S
C211 C212 1.491 . S
C211 O226 1.254 . S
C211 O227 1.225 . S
C212 C211 1.491 . S
C212 C213 1.392 . S
C212 C217 1.356 . S
C213 C212 1.392 . S
C213 C214 1.368 . S
C213 H236 0.929 . S
C214 C213 1.368 . S
C214 C215 1.386 . S
C214 H237 0.929 . S
C215 C214 1.386 . S
C215 C216 1.373 . S
C216 C215 1.373 . S
C216 C217 1.409 . S
C216 H238 0.931 . S
C217 C212 1.356 . S
C217 C216 1.409 . S
C217 H239 0.930 . S
C218 O228 1.270 . S
C218 O229 1.248 . S
C219 O230 1.267 . S
C219 O231 1.278 . S
O220 Pr200 2.562 . S
O220 C202 1.254 . S
O221 Pr200 2.490 . S
O221 C202 1.225 . S
O222 Pr200 2.695 . S
O222 Pr201 2.436 . S
O222 C209 1.270 . S
O223 Pr200 2.512 . S
O223 C209 1.248 . S
O224 Pr201 2.438 . S
O224 C210 1.267 . S
O225 Pr200 2.437 . S
O225 C210 1.278 . S
O226 Pr201 2.562 . S
O226 C211 1.254 . S
O227 Pr201 2.490 . S
O227 C211 1.225 . S
O228 Pr200 2.436 . S
O228 Pr201 2.695 . S
O228 C218 1.270 . S
O229 Pr201 2.512 . S
O229 C218 1.248 . S
O230 Pr200 2.438 . S
O230 C219 1.267 . S
O231 Pr201 2.437 . S
O231 C219 1.278 . S
H232 C204 0.929 . S
H233 C205 0.929 . S
H234 C207 0.931 . S
H235 C208 0.930 . S
H236 C213 0.929 . S
H237 C214 0.929 . S
H238 C216 0.931 . S
H239 C217 0.930 . S
H240 C258 0.951 . S
H241 C260 0.951 . S
H242 C262 0.950 . S
H243 C263 0.950 . S
H244 C265 0.950 . S
H245 C268 0.950 . S
H246 C269 0.950 . S
H247 C271 0.950 . S
H248 C272 0.950 . S
H249 C273 0.951 . S
H250 C275 0.951 . S
H251 C277 0.950 . S
H252 C278 0.950 . S
H253 C280 0.950 . S
H254 C283 0.950 . S
H255 C284 0.950 . S
H256 C286 0.950 . S
H257 C287 0.950 . S
C258 H240 0.951 . S
C258 C259 1.366 . S
C258 C260 1.388 . S
C259 C258 1.366 . S
C259 C263 1.385 . S
C260 H241 0.951 . S
C260 C258 1.388 . S
C260 C261 1.366 . S
C261 C260 1.366 . S
C261 C262 1.414 . S
C261 C264 1.499 . S
C262 H242 0.950 . S
C262 C261 1.414 . S
C262 C263 1.374 . S
C263 H243 0.950 . S
C263 C259 1.385 . S
C263 C262 1.374 . S
C264 C261 1.499 . S
C264 C265 1.373 . S
C264 C266 1.389 . S
C265 H244 0.950 . S
C265 C264 1.373 . S
C265 C281 1.377 . S
C266 C264 1.389 . S
C266 C267 1.524 . S
C266 C280 1.377 . S
C267 C266 1.524 . S
C267 C268 1.397 . S
C267 C272 1.363 . S
C268 H245 0.950 . S
C268 C267 1.397 . S
C268 C269 1.334 . S
C269 H246 0.950 . S
C269 C268 1.334 . S
C269 C270 1.287 . S
C270 C269 1.287 . S
C270 C271 1.524 . S
C270 H289 0.913 . S
C271 H247 0.950 . S
C271 C270 1.524 . S
C271 C272 1.415 . S
C272 H248 0.950 . S
C272 C267 1.363 . S
C272 C271 1.415 . S
C273 H249 0.951 . S
C273 C274 1.366 . S
C273 C275 1.388 . S
C274 C273 1.366 . S
C274 C278 1.385 . S
C275 H250 0.951 . S
C275 C273 1.388 . S
C275 C276 1.366 . S
C276 C275 1.366 . S
C276 C277 1.414 . S
C276 C279 1.499 . S
C277 H251 0.950 . S
C277 C276 1.414 . S
C277 C278 1.374 . S
C278 H252 0.950 . S
C278 C274 1.385 . S
C278 C277 1.374 . S
C279 C276 1.499 . S
C279 C280 1.373 . S
C279 C281 1.389 . S
C280 H253 0.950 . S
C280 C266 1.377 . S
C280 C279 1.373 . S
C281 C265 1.377 . S
C281 C279 1.389 . S
C281 C282 1.524 . S
C282 C281 1.524 . S
C282 C283 1.397 . S
C282 C287 1.363 . S
C283 H254 0.950 . S
C283 C282 1.397 . S
C283 C284 1.334 . S
C284 H255 0.950 . S
C284 C283 1.334 . S
C284 C285 1.287 . S
C285 C284 1.287 . S
C285 C286 1.524 . S
C285 H288 0.999 . S
C286 H256 0.950 . S
C286 C285 1.524 . S
C286 C287 1.415 . S
C287 H257 0.950 . S
C287 C282 1.363 . S
C287 C286 1.415 . S
H288 C285 0.999 . S
H289 C270 0.913 . S
H290 C308 0.951 . S
H291 C310 0.951 . S
H292 C312 0.950 . S
H293 C313 0.950 . S
H294 C315 0.950 . S
H295 C318 0.950 . S
H296 C319 0.950 . S
H297 C321 0.950 . S
H298 C322 0.950 . S
H299 C323 0.951 . S
H300 C325 0.951 . S
H301 C327 0.950 . S
H302 C328 0.950 . S
H303 C330 0.950 . S
H304 C333 0.950 . S
H305 C334 0.950 . S
H306 C336 0.950 . S
H307 C337 0.950 . S
C308 H290 0.951 . S
C308 C309 1.366 . S
C308 C310 1.388 . S
C309 C308 1.366 . S
C309 C313 1.385 . S
C310 H291 0.951 . S
C310 C308 1.388 . S
C310 C311 1.366 . S
C311 C310 1.366 . S
C311 C312 1.414 . S
C311 C314 1.499 . S
C312 H292 0.950 . S
C312 C311 1.414 . S
C312 C313 1.374 . S
C313 H293 0.950 . S
C313 C309 1.385 . S
C313 C312 1.374 . S
C314 C311 1.499 . S
C314 C315 1.373 . S
C314 C316 1.389 . S
C315 H294 0.950 . S
C315 C314 1.373 . S
C315 C331 1.377 . S
C316 C314 1.389 . S
C316 C317 1.524 . S
C316 C330 1.377 . S
C317 C316 1.524 . S
C317 C318 1.397 . S
C317 C322 1.363 . S
C318 H295 0.950 . S
C318 C317 1.397 . S
C318 C319 1.334 . S
C319 H296 0.950 . S
C319 C318 1.334 . S
C319 C320 1.287 . S
C320 C319 1.287 . S
C320 C321 1.524 . S
C320 H339 0.913 . S
C321 H297 0.950 . S
C321 C320 1.524 . S
C321 C322 1.415 . S
C322 H298 0.950 . S
C322 C317 1.363 . S
C322 C321 1.415 . S
C323 H299 0.951 . S
C323 C324 1.366 . S
C323 C325 1.388 . S
C324 C323 1.366 . S
C324 C328 1.385 . S
C325 H300 0.951 . S
C325 C323 1.388 . S
C325 C326 1.366 . S
C326 C325 1.366 . S
C326 C327 1.414 . S
C326 C329 1.499 . S
C327 H301 0.950 . S
C327 C326 1.414 . S
C327 C328 1.374 . S
C328 H302 0.950 . S
C328 C324 1.385 . S
C328 C327 1.374 . S
C329 C326 1.499 . S
C329 C330 1.373 . S
C329 C331 1.389 . S
C330 H303 0.950 . S
C330 C316 1.377 . S
C330 C329 1.373 . S
C331 C315 1.377 . S
C331 C329 1.389 . S
C331 C332 1.524 . S
C332 C331 1.524 . S
C332 C333 1.397 . S
C332 C337 1.363 . S
C333 H304 0.950 . S
C333 C332 1.397 . S
C333 C334 1.334 . S
C334 H305 0.950 . S
C334 C333 1.334 . S
C334 C335 1.287 . S
C335 C334 1.287 . S
C335 C336 1.524 . S
C335 H338 0.999 . S
C336 H306 0.950 . S
C336 C335 1.524 . S
C336 C337 1.415 . S
C337 H307 0.950 . S
C337 C332 1.363 . S
C337 C336 1.415 . S
H338 C335 0.999 . S
H339 C320 0.913 . S
H340 C358 0.951 . S
H341 C360 0.951 . S
H342 C362 0.950 . S
H343 C363 0.950 . S
H344 C365 0.950 . S
H345 C368 0.950 . S
H346 C369 0.950 . S
H347 C371 0.950 . S
H348 C372 0.950 . S
H349 C373 0.951 . S
H350 C375 0.951 . S
H351 C377 0.950 . S
H352 C378 0.950 . S
H353 C380 0.950 . S
H354 C383 0.950 . S
H355 C384 0.950 . S
H356 C386 0.950 . S
H357 C387 0.950 . S
C358 H340 0.951 . S
C358 C359 1.366 . S
C358 C360 1.388 . S
C359 C358 1.366 . S
C359 C363 1.385 . S
C360 H341 0.951 . S
C360 C358 1.388 . S
C360 C361 1.366 . S
C361 C360 1.366 . S
C361 C362 1.414 . S
C361 C364 1.499 . S
C362 H342 0.950 . S
C362 C361 1.414 . S
C362 C363 1.374 . S
C363 H343 0.950 . S
C363 C359 1.385 . S
C363 C362 1.374 . S
C364 C361 1.499 . S
C364 C365 1.373 . S
C364 C366 1.389 . S
C365 H344 0.950 . S
C365 C364 1.373 . S
C365 C381 1.377 . S
C366 C364 1.389 . S
C366 C367 1.524 . S
C366 C380 1.377 . S
C367 C366 1.524 . S
C367 C368 1.397 . S
C367 C372 1.363 . S
C368 H345 0.950 . S
C368 C367 1.397 . S
C368 C369 1.334 . S
C369 H346 0.950 . S
C369 C368 1.334 . S
C369 C370 1.287 . S
C370 C369 1.287 . S
C370 C371 1.524 . S
C370 H389 0.913 . S
C371 H347 0.950 . S
C371 C370 1.524 . S
C371 C372 1.415 . S
C372 H348 0.950 . S
C372 C367 1.363 . S
C372 C371 1.415 . S
C373 H349 0.951 . S
C373 C374 1.366 . S
C373 C375 1.388 . S
C374 C373 1.366 . S
C374 C378 1.385 . S
C375 H350 0.951 . S
C375 C373 1.388 . S
C375 C376 1.366 . S
C376 C375 1.366 . S
C376 C377 1.414 . S
C376 C379 1.499 . S
C377 H351 0.950 . S
C377 C376 1.414 . S
C377 C378 1.374 . S
C378 H352 0.950 . S
C378 C374 1.385 . S
C378 C377 1.374 . S
C379 C376 1.499 . S
C379 C380 1.373 . S
C379 C381 1.389 . S
C380 H353 0.950 . S
C380 C366 1.377 . S
C380 C379 1.373 . S
C381 C365 1.377 . S
C381 C379 1.389 . S
C381 C382 1.524 . S
C382 C381 1.524 . S
C382 C383 1.397 . S
C382 C387 1.363 . S
C383 H354 0.950 . S
C383 C382 1.397 . S
C383 C384 1.334 . S
C384 H355 0.950 . S
C384 C383 1.334 . S
C384 C385 1.287 . S
C385 C384 1.287 . S
C385 C386 1.524 . S
C385 H388 0.999 . S
C386 H356 0.950 . S
C386 C385 1.524 . S
C386 C387 1.415 . S
C387 H357 0.950 . S
C387 C382 1.363 . S
C387 C386 1.415 . S
H388 C385 0.999 . S
H389 C370 0.913 . S
H390 C408 0.951 . S
H391 C410 0.951 . S
H392 C412 0.950 . S
H393 C413 0.950 . S
H394 C415 0.950 . S
H395 C418 0.950 . S
H396 C419 0.950 . S
H397 C421 0.950 . S
H398 C422 0.950 . S
H399 C423 0.951 . S
H400 C425 0.951 . S
H401 C427 0.950 . S
H402 C428 0.950 . S
H403 C430 0.950 . S
H404 C433 0.950 . S
H405 C434 0.950 . S
H406 C436 0.950 . S
H407 C437 0.950 . S
C408 H390 0.951 . S
C408 C409 1.366 . S
C408 C410 1.388 . S
C409 C408 1.366 . S
C409 C413 1.385 . S
C410 H391 0.951 . S
C410 C408 1.388 . S
C410 C411 1.366 . S
C411 C410 1.366 . S
C411 C412 1.414 . S
C411 C414 1.499 . S
C412 H392 0.950 . S
C412 C411 1.414 . S
C412 C413 1.374 . S
C413 H393 0.950 . S
C413 C409 1.385 . S
C413 C412 1.374 . S
C414 C411 1.499 . S
C414 C415 1.373 . S
C414 C416 1.389 . S
C415 H394 0.950 . S
C415 C414 1.373 . S
C415 C431 1.377 . S
C416 C414 1.389 . S
C416 C417 1.524 . S
C416 C430 1.377 . S
C417 C416 1.524 . S
C417 C418 1.397 . S
C417 C422 1.363 . S
C418 H395 0.950 . S
C418 C417 1.397 . S
C418 C419 1.334 . S
C419 H396 0.950 . S
C419 C418 1.334 . S
C419 C420 1.287 . S
C420 C419 1.287 . S
C420 C421 1.524 . S
C420 H439 0.913 . S
C421 H397 0.950 . S
C421 C420 1.524 . S
C421 C422 1.415 . S
C422 H398 0.950 . S
C422 C417 1.363 . S
C422 C421 1.415 . S
C423 H399 0.951 . S
C423 C424 1.366 . S
C423 C425 1.388 . S
C424 C423 1.366 . S
C424 C428 1.385 . S
C425 H400 0.951 . S
C425 C423 1.388 . S
C425 C426 1.366 . S
C426 C425 1.366 . S
C426 C427 1.414 . S
C426 C429 1.499 . S
C427 H401 0.950 . S
C427 C426 1.414 . S
C427 C428 1.374 . S
C428 H402 0.950 . S
C428 C424 1.385 . S
C428 C427 1.374 . S
C429 C426 1.499 . S
C429 C430 1.373 . S
C429 C431 1.389 . S
C430 H403 0.950 . S
C430 C416 1.377 . S
C430 C429 1.373 . S
C431 C415 1.377 . S
C431 C429 1.389 . S
C431 C432 1.524 . S
C432 C431 1.524 . S
C432 C433 1.397 . S
C432 C437 1.363 . S
C433 H404 0.950 . S
C433 C432 1.397 . S
C433 C434 1.334 . S
C434 H405 0.950 . S
C434 C433 1.334 . S
C434 C435 1.287 . S
C435 C434 1.287 . S
C435 C436 1.524 . S
C435 H438 0.999 . S
C436 H406 0.950 . S
C436 C435 1.524 . S
C436 C437 1.415 . S
C437 H407 0.950 . S
C437 C432 1.363 . S
C437 C436 1.415 . S
H438 C435 0.999 . S
H439 C420 0.913 . S
H440 C458 0.951 . S
H441 C460 0.951 . S
H442 C462 0.950 . S
H443 C463 0.950 . S
H444 C465 0.950 . S
H445 C468 0.950 . S
H446 C469 0.950 . S
H447 C471 0.950 . S
H448 C472 0.950 . S
H449 C473 0.951 . S
H450 C475 0.951 . S
H451 C477 0.950 . S
H452 C478 0.950 . S
H453 C480 0.950 . S
H454 C483 0.950 . S
H455 C484 0.950 . S
H456 C486 0.950 . S
H457 C487 0.950 . S
C458 H440 0.951 . S
C458 C459 1.366 . S
C458 C460 1.388 . S
C459 C458 1.366 . S
C459 C463 1.385 . S
C460 H441 0.951 . S
C460 C458 1.388 . S
C460 C461 1.366 . S
C461 C460 1.366 . S
C461 C462 1.414 . S
C461 C464 1.499 . S
C462 H442 0.950 . S
C462 C461 1.414 . S
C462 C463 1.374 . S
C463 H443 0.950 . S
C463 C459 1.385 . S
C463 C462 1.374 . S
C464 C461 1.499 . S
C464 C465 1.373 . S
C464 C466 1.389 . S
C465 H444 0.950 . S
C465 C464 1.373 . S
C465 C481 1.377 . S
C466 C464 1.389 . S
C466 C467 1.524 . S
C466 C480 1.377 . S
C467 C466 1.524 . S
C467 C468 1.397 . S
C467 C472 1.363 . S
C468 H445 0.950 . S
C468 C467 1.397 . S
C468 C469 1.334 . S
C469 H446 0.950 . S
C469 C468 1.334 . S
C469 C470 1.287 . S
C470 C469 1.287 . S
C470 C471 1.524 . S
C470 H489 0.913 . S
C471 H447 0.950 . S
C471 C470 1.524 . S
C471 C472 1.415 . S
C472 H448 0.950 . S
C472 C467 1.363 . S
C472 C471 1.415 . S
C473 H449 0.951 . S
C473 C474 1.366 . S
C473 C475 1.388 . S
C474 C473 1.366 . S
C474 C478 1.385 . S
C475 H450 0.951 . S
C475 C473 1.388 . S
C475 C476 1.366 . S
C476 C475 1.366 . S
C476 C477 1.414 . S
C476 C479 1.499 . S
C477 H451 0.950 . S
C477 C476 1.414 . S
C477 C478 1.374 . S
C478 H452 0.950 . S
C478 C474 1.385 . S
C478 C477 1.374 . S
C479 C476 1.499 . S
C479 C480 1.373 . S
C479 C481 1.389 . S
C480 H453 0.950 . S
C480 C466 1.377 . S
C480 C479 1.373 . S
C481 C465 1.377 . S
C481 C479 1.389 . S
C481 C482 1.524 . S
C482 C481 1.524 . S
C482 C483 1.397 . S
C482 C487 1.363 . S
C483 H454 0.950 . S
C483 C482 1.397 . S
C483 C484 1.334 . S
C484 H455 0.950 . S
C484 C483 1.334 . S
C484 C485 1.287 . S
C485 C484 1.287 . S
C485 C486 1.524 . S
C485 H488 0.999 . S
C486 H456 0.950 . S
C486 C485 1.524 . S
C486 C487 1.415 . S
C487 H457 0.950 . S
C487 C482 1.363 . S
C487 C486 1.415 . S
H488 C485 0.999 . S
H489 C470 0.913 . S
H490 C508 0.951 . S
H491 C510 0.951 . S
H492 C512 0.950 . S
H493 C513 0.950 . S
H494 C515 0.950 . S
H495 C518 0.950 . S
H496 C519 0.950 . S
H497 C521 0.950 . S
H498 C522 0.950 . S
H499 C523 0.951 . S
H500 C525 0.951 . S
H501 C527 0.950 . S
H502 C528 0.950 . S
H503 C530 0.950 . S
H504 C533 0.950 . S
H505 C534 0.950 . S
H506 C536 0.950 . S
H507 C537 0.950 . S
C508 H490 0.951 . S
C508 C509 1.366 . S
C508 C510 1.388 . S
C509 C508 1.366 . S
C509 C513 1.385 . S
C510 H491 0.951 . S
C510 C508 1.388 . S
C510 C511 1.366 . S
C511 C510 1.366 . S
C511 C512 1.414 . S
C511 C514 1.499 . S
C512 H492 0.950 . S
C512 C511 1.414 . S
C512 C513 1.374 . S
C513 H493 0.950 . S
C513 C509 1.385 . S
C513 C512 1.374 . S
C514 C511 1.499 . S
C514 C515 1.373 1_554 S
C514 C516 1.389 . S
C515 H494 0.950 . S
C515 C514 1.373 1_556 S
C515 C531 1.377 . S
C516 C514 1.389 . S
C516 C517 1.524 . S
C516 C530 1.377 1_554 S
C517 C516 1.524 . S
C517 C518 1.397 . S
C517 C522 1.363 . S
C518 H495 0.950 . S
C518 C517 1.397 . S
C518 C519 1.334 . S
C519 H496 0.950 . S
C519 C518 1.334 . S
C519 C520 1.287 . S
C520 C519 1.287 . S
C520 C521 1.524 . S
C520 H539 0.913 . S
C521 H497 0.950 . S
C521 C520 1.524 . S
C521 C522 1.415 . S
C522 H498 0.950 . S
C522 C517 1.363 . S
C522 C521 1.415 . S
C523 H499 0.951 . S
C523 C524 1.366 . S
C523 C525 1.388 . S
C524 C523 1.366 . S
C524 C528 1.385 . S
C525 H500 0.951 . S
C525 C523 1.388 . S
C525 C526 1.366 . S
C526 C525 1.366 . S
C526 C527 1.414 . S
C526 C529 1.499 . S
C527 H501 0.950 . S
C527 C526 1.414 . S
C527 C528 1.374 . S
C528 H502 0.950 . S
C528 C524 1.385 . S
C528 C527 1.374 . S
C529 C526 1.499 . S
C529 C530 1.373 . S
C529 C531 1.389 . S
C530 H503 0.950 . S
C530 C516 1.377 1_556 S
C530 C529 1.373 . S
C531 C515 1.377 . S
C531 C529 1.389 . S
C531 C532 1.524 . S
C532 C531 1.524 . S
C532 C533 1.397 . S
C532 C537 1.363 . S
C533 H504 0.950 . S
C533 C532 1.397 . S
C533 C534 1.334 . S
C534 H505 0.950 . S
C534 C533 1.334 . S
C534 C535 1.287 . S
C535 C534 1.287 . S
C535 C536 1.524 . S
C535 H538 0.999 . S
C536 H506 0.950 . S
C536 C535 1.524 . S
C536 C537 1.415 . S
C537 H507 0.950 . S
C537 C532 1.363 . S
C537 C536 1.415 . S
H538 C535 0.999 . S
H539 C520 0.913 . S
H540 C558 0.951 . S
H541 C560 0.951 . S
H542 C562 0.950 . S
H543 C563 0.950 . S
H544 C565 0.950 . S
H545 C568 0.950 . S
H546 C569 0.950 . S
H547 C571 0.950 . S
H548 C572 0.950 . S
H549 C573 0.951 . S
H550 C575 0.951 . S
H551 C577 0.950 . S
H552 C578 0.950 . S
H553 C580 0.950 . S
H554 C583 0.950 . S
H555 C584 0.950 . S
H556 C586 0.950 . S
H557 C587 0.950 . S
C558 H540 0.951 . S
C558 C559 1.366 . S
C558 C560 1.388 . S
C559 C558 1.366 . S
C559 C563 1.385 . S
C560 H541 0.951 . S
C560 C558 1.388 . S
C560 C561 1.366 . S
C561 C560 1.366 . S
C561 C562 1.414 . S
C561 C564 1.499 . S
C562 H542 0.950 . S
C562 C561 1.414 . S
C562 C563 1.374 . S
C563 H543 0.950 . S
C563 C559 1.385 . S
C563 C562 1.374 . S
C564 C561 1.499 . S
C564 C565 1.373 . S
C564 C566 1.389 . S
C565 H544 0.950 . S
C565 C564 1.373 . S
C565 C581 1.377 . S
C566 C564 1.389 . S
C566 C567 1.524 . S
C566 C580 1.377 . S
C567 C566 1.524 . S
C567 C568 1.397 . S
C567 C572 1.363 . S
C568 H545 0.950 . S
C568 C567 1.397 . S
C568 C569 1.334 . S
C569 H546 0.950 . S
C569 C568 1.334 . S
C569 C570 1.287 . S
C570 C569 1.287 . S
C570 C571 1.524 . S
C570 H589 0.913 . S
C571 H547 0.950 . S
C571 C570 1.524 . S
C571 C572 1.415 . S
C572 H548 0.950 . S
C572 C567 1.363 . S
C572 C571 1.415 . S
C573 H549 0.951 . S
C573 C574 1.366 . S
C573 C575 1.388 . S
C574 C573 1.366 . S
C574 C578 1.385 . S
C575 H550 0.951 . S
C575 C573 1.388 . S
C575 C576 1.366 . S
C576 C575 1.366 . S
C576 C577 1.414 . S
C576 C579 1.499 . S
C577 H551 0.950 . S
C577 C576 1.414 . S
C577 C578 1.374 . S
C578 H552 0.950 . S
C578 C574 1.385 . S
C578 C577 1.374 . S
C579 C576 1.499 . S
C579 C580 1.373 . S
C579 C581 1.389 . S
C580 H553 0.950 . S
C580 C566 1.377 . S
C580 C579 1.373 . S
C581 C565 1.377 . S
C581 C579 1.389 . S
C581 C582 1.524 . S
C582 C581 1.524 . S
C582 C583 1.397 . S
C582 C587 1.363 . S
C583 H554 0.950 . S
C583 C582 1.397 . S
C583 C584 1.334 . S
C584 H555 0.950 . S
C584 C583 1.334 . S
C584 C585 1.287 . S
C585 C584 1.287 . S
C585 C586 1.524 . S
C585 H588 0.999 . S
C586 H556 0.950 . S
C586 C585 1.524 . S
C586 C587 1.415 . S
C587 H557 0.950 . S
C587 C582 1.363 . S
C587 C586 1.415 . S
H588 C585 0.999 . S
H589 C570 0.913 . S
H590 C608 0.951 . S
H591 C610 0.951 1_655 S
H592 C612 0.950 . S
H593 C613 0.950 . S
H594 C615 0.950 . S
H595 C618 0.950 . S
H596 C619 0.950 . S
H597 C621 0.950 . S
H598 C622 0.936 1_655 S
H599 C623 0.951 . S
H600 C625 0.951 . S
H601 C627 0.950 . S
H602 C628 0.950 . S
H603 C630 0.950 . S
H604 C633 0.950 . S
H605 C634 0.950 . S
H606 C636 0.950 . S
H607 C637 0.950 . S
C608 H590 0.951 . S
C608 C609 1.366 . S
C608 C610 1.388 . S
C609 C608 1.366 . S
C609 C613 1.385 . S
C610 H591 0.951 1_455 S
C610 C608 1.388 . S
C610 C611 1.366 1_455 S
C611 C610 1.366 1_655 S
C611 C612 1.415 . S
C611 C614 1.499 . S
C612 H592 0.950 . S
C612 C611 1.415 . S
C612 C613 1.373 1_655 S
C613 H593 0.950 . S
C613 C609 1.385 . S
C613 C612 1.373 1_455 S
C614 C611 1.499 . S
C614 C615 1.373 . S
C614 C616 1.389 . S
C615 H594 0.950 . S
C615 C614 1.373 . S
C615 C631 1.377 . S
C616 C614 1.389 . S
C616 C617 1.524 1_655 S
C616 C630 1.377 . S
C617 C616 1.524 1_455 S
C617 C618 1.397 . S
C617 C622 1.363 . S
C618 H595 0.950 . S
C618 C617 1.397 . S
C618 C619 1.334 . S
C619 H596 0.950 . S
C619 C618 1.334 . S
C619 C620 1.287 . S
C620 C619 1.287 . S
C620 C621 1.524 . S
C620 H639 0.913 . S
C621 H597 0.950 . S
C621 C620 1.524 . S
C621 C622 1.415 . S
C622 H598 0.936 1_455 S
C622 C617 1.363 . S
C622 C621 1.415 . S
C623 H599 0.951 . S
C623 C624 1.366 . S
C623 C625 1.388 . S
C624 C623 1.366 . S
C624 C628 1.385 . S
C625 H600 0.951 . S
C625 C623 1.388 . S
C625 C626 1.366 . S
C626 C625 1.366 . S
C626 C627 1.414 . S
C626 C629 1.499 . S
C627 H601 0.950 . S
C627 C626 1.414 . S
C627 C628 1.374 . S
C628 H602 0.950 . S
C628 C624 1.385 . S
C628 C627 1.374 . S
C629 C626 1.499 . S
C629 C630 1.373 . S
C629 C631 1.389 . S
C630 H603 0.950 . S
C630 C616 1.377 . S
C630 C629 1.373 . S
C631 C615 1.377 . S
C631 C629 1.389 . S
C631 C632 1.524 . S
C632 C631 1.524 . S
C632 C633 1.397 . S
C632 C637 1.363 . S
C633 H604 0.950 . S
C633 C632 1.397 . S
C633 C634 1.334 . S
C634 H605 0.950 . S
C634 C633 1.334 . S
C634 C635 1.287 . S
C635 C634 1.287 . S
C635 C636 1.524 . S
C635 H638 0.999 . S
C636 H606 0.950 . S
C636 C635 1.524 . S
C636 C637 1.415 . S
C637 H607 0.950 . S
C637 C632 1.363 . S
C637 C636 1.415 . S
H638 C635 0.999 . S
H639 C620 0.913 . S
H640 C658 0.951 . S
H641 C660 0.951 . S
H642 C662 0.950 . S
H643 C663 0.950 . S
H644 C665 0.950 . S
H645 C668 0.950 . S
H646 C669 0.950 . S
H647 C671 0.950 . S
H648 C672 0.950 . S
H649 C673 0.951 . S
H650 C675 0.951 . S
H651 C677 0.950 . S
H652 C678 0.950 . S
H653 C680 0.950 1_565 S
H654 C683 0.950 . S
H655 C684 0.950 . S
H656 C686 0.950 . S
H657 C687 0.950 . S
C658 H640 0.951 . S
C658 C659 1.366 . S
C658 C660 1.388 . S
C659 C658 1.366 . S
C659 C663 1.385 . S
C660 H641 0.951 . S
C660 C658 1.388 . S
C660 C661 1.366 . S
C661 C660 1.366 . S
C661 C662 1.414 . S
C661 C664 1.499 . S
C662 H642 0.950 . S
C662 C661 1.414 . S
C662 C663 1.374 . S
C663 H643 0.950 . S
C663 C659 1.385 . S
C663 C662 1.374 . S
C664 C661 1.499 . S
C664 C665 1.373 . S
C664 C666 1.389 . S
C665 H644 0.950 . S
C665 C664 1.373 . S
C665 C681 1.377 . S
C666 C664 1.389 . S
C666 C667 1.524 . S
C666 C680 1.377 . S
C667 C666 1.524 . S
C667 C668 1.397 . S
C667 C672 1.363 1_545 S
C668 H645 0.950 . S
C668 C667 1.397 . S
C668 C669 1.334 1_545 S
C669 H646 0.950 . S
C669 C668 1.334 1_565 S
C669 C670 1.287 . S
C670 C669 1.287 . S
C670 C671 1.524 . S
C670 H689 0.913 . S
C671 H647 0.950 . S
C671 C670 1.524 . S
C671 C672 1.415 . S
C672 H648 0.950 . S
C672 C667 1.363 1_565 S
C672 C671 1.415 . S
C673 H649 0.951 . S
C673 C674 1.366 . S
C673 C675 1.388 1_565 S
C674 C673 1.366 . S
C674 C678 1.385 . S
C675 H650 0.951 . S
C675 C673 1.388 1_545 S
C675 C676 1.366 . S
C676 C675 1.366 . S
C676 C677 1.414 1_545 S
C676 C679 1.499 . S
C677 H651 0.950 . S
C677 C676 1.414 1_565 S
C677 C678 1.374 . S
C678 H652 0.950 . S
C678 C674 1.385 . S
C678 C677 1.374 . S
C679 C676 1.499 . S
C679 C680 1.373 . S
C679 C681 1.389 . S
C680 H653 0.950 1_545 S
C680 C666 1.377 . S
C680 C679 1.373 . S
C681 C665 1.377 . S
C681 C679 1.389 . S
C681 C682 1.524 . S
C682 C681 1.524 . S
C682 C683 1.397 . S
C682 C687 1.363 . S
C683 H654 0.950 . S
C683 C682 1.397 . S
C683 C684 1.334 . S
C684 H655 0.950 . S
C684 C683 1.334 . S
C684 C685 1.287 . S
C685 C684 1.287 . S
C685 C686 1.524 . S
C685 H688 0.999 . S
C686 H656 0.950 . S
C686 C685 1.524 . S
C686 C687 1.415 . S
C687 H657 0.950 . S
C687 C682 1.363 . S
C687 C686 1.415 . S
H688 C685 0.999 . S
H689 C670 0.913 . S
H690 C708 0.951 . S
H691 C710 0.951 . S
H692 C712 0.950 . S
H693 C713 0.950 . S
H694 C715 0.950 . S
H695 C718 0.950 . S
H696 C719 0.950 . S
H697 C721 0.950 . S
H698 C722 0.950 . S
H699 C723 0.951 . S
H700 C725 0.951 . S
H701 C727 0.950 . S
H702 C728 0.950 . S
H703 C730 0.950 . S
H704 C733 0.950 . S
H705 C734 0.950 . S
H706 C736 0.950 . S
H707 C737 0.950 . S
C708 H690 0.951 . S
C708 C709 1.366 . S
C708 C710 1.388 . S
C709 C708 1.366 . S
C709 C713 1.385 . S
C710 H691 0.951 . S
C710 C708 1.388 . S
C710 C711 1.366 . S
C711 C710 1.366 . S
C711 C712 1.414 . S
C711 C714 1.499 . S
C712 H692 0.950 . S
C712 C711 1.414 . S
C712 C713 1.374 . S
C713 H693 0.950 . S
C713 C709 1.385 . S
C713 C712 1.374 . S
C714 C711 1.499 . S
C714 C715 1.373 . S
C714 C716 1.389 . S
C715 H694 0.950 . S
C715 C714 1.373 . S
C715 C731 1.377 . S
C716 C714 1.389 . S
C716 C717 1.524 . S
C716 C730 1.377 . S
C717 C716 1.524 . S
C717 C718 1.397 . S
C717 C722 1.363 . S
C718 H695 0.950 . S
C718 C717 1.397 . S
C718 C719 1.334 . S
C719 H696 0.950 . S
C719 C718 1.334 . S
C719 C720 1.287 . S
C720 C719 1.287 . S
C720 C721 1.524 . S
C720 H739 0.913 . S
C721 H697 0.950 . S
C721 C720 1.524 . S
C721 C722 1.415 . S
C722 H698 0.950 . S
C722 C717 1.363 . S
C722 C721 1.415 . S
C723 H699 0.951 . S
C723 C724 1.366 . S
C723 C725 1.388 . S
C724 C723 1.366 . S
C724 C728 1.385 . S
C725 H700 0.951 . S
C725 C723 1.388 . S
C725 C726 1.366 . S
C726 C725 1.366 . S
C726 C727 1.414 . S
C726 C729 1.499 . S
C727 H701 0.950 . S
C727 C726 1.414 . S
C727 C728 1.374 . S
C728 H702 0.950 . S
C728 C724 1.385 . S
C728 C727 1.374 . S
C729 C726 1.499 . S
C729 C730 1.373 . S
C729 C731 1.389 . S
C730 H703 0.950 . S
C730 C716 1.377 . S
C730 C729 1.373 . S
C731 C715 1.377 . S
C731 C729 1.389 . S
C731 C732 1.524 . S
C732 C731 1.524 . S
C732 C733 1.397 . S
C732 C737 1.363 . S
C733 H704 0.950 . S
C733 C732 1.397 . S
C733 C734 1.334 . S
C734 H705 0.950 . S
C734 C733 1.334 . S
C734 C735 1.287 . S
C735 C734 1.287 . S
C735 C736 1.524 . S
C735 H738 0.999 . S
C736 H706 0.950 . S
C736 C735 1.524 . S
C736 C737 1.415 . S
C737 H707 0.950 . S
C737 C732 1.363 . S
C737 C736 1.415 . S
H738 C735 0.999 . S
H739 C720 0.913 . S
H740 C758 0.951 . S
H741 C760 0.951 . S
H742 C762 0.950 . S
H743 C763 0.950 . S
H744 C765 0.950 . S
H745 C768 0.950 . S
H746 C769 0.950 . S
H747 C771 0.950 . S
H748 C772 0.950 . S
H749 C773 0.951 . S
H750 C775 0.951 . S
H751 C777 0.950 . S
H752 C778 0.950 . S
H753 C780 0.950 . S
H754 C783 0.950 . S
H755 C784 0.950 . S
H756 C786 0.950 . S
H757 C787 0.950 . S
C758 H740 0.951 . S
C758 C759 1.366 . S
C758 C760 1.388 . S
C759 C758 1.366 . S
C759 C763 1.385 . S
C760 H741 0.951 . S
C760 C758 1.388 . S
C760 C761 1.366 . S
C761 C760 1.366 . S
C761 C762 1.414 . S
C761 C764 1.499 . S
C762 H742 0.950 . S
C762 C761 1.414 . S
C762 C763 1.374 . S
C763 H743 0.950 . S
C763 C759 1.385 . S
C763 C762 1.374 . S
C764 C761 1.499 . S
C764 C765 1.373 . S
C764 C766 1.389 . S
C765 H744 0.950 . S
C765 C764 1.373 . S
C765 C781 1.377 . S
C766 C764 1.389 . S
C766 C767 1.524 . S
C766 C780 1.377 . S
C767 C766 1.524 . S
C767 C768 1.397 . S
C767 C772 1.363 . S
C768 H745 0.950 . S
C768 C767 1.397 . S
C768 C769 1.334 . S
C769 H746 0.950 . S
C769 C768 1.334 . S
C769 C770 1.287 . S
C770 C769 1.287 . S
C770 C771 1.524 . S
C770 H789 0.913 . S
C771 H747 0.950 . S
C771 C770 1.524 . S
C771 C772 1.415 . S
C772 H748 0.950 . S
C772 C767 1.363 . S
C772 C771 1.415 . S
C773 H749 0.951 . S
C773 C774 1.366 . S
C773 C775 1.388 . S
C774 C773 1.366 . S
C774 C778 1.387 1_655 S
C775 H750 0.951 . S
C775 C773 1.388 . S
C775 C776 1.366 1_655 S
C776 C775 1.366 1_455 S
C776 C777 1.414 . S
C776 C779 1.499 . S
C777 H751 0.950 . S
C777 C776 1.414 . S
C777 C778 1.372 . S
C778 H752 0.950 . S
C778 C774 1.387 1_455 S
C778 C777 1.372 . S
C779 C776 1.499 . S
C779 C780 1.373 . S
C779 C781 1.389 . S
C780 H753 0.950 . S
C780 C766 1.377 . S
C780 C779 1.373 . S
C781 C765 1.377 . S
C781 C779 1.389 . S
C781 C782 1.524 . S
C782 C781 1.524 . S
C782 C783 1.397 . S
C782 C787 1.363 1_455 S
C783 H754 0.950 . S
C783 C782 1.397 . S
C783 C784 1.334 . S
C784 H755 0.950 . S
C784 C783 1.334 . S
C784 C785 1.287 . S
C785 C784 1.287 . S
C785 C786 1.524 1_455 S
C785 H788 0.999 1_455 S
C786 H756 0.950 . S
C786 C785 1.524 1_655 S
C786 C787 1.415 . S
C787 H757 0.950 . S
C787 C782 1.363 1_655 S
C787 C786 1.415 . S
H788 C785 0.999 1_655 S
H789 C770 0.913 . S
H790 C808 0.951 . S
H791 C810 0.951 . S
H792 C812 0.950 . S
H793 C813 0.950 . S
H794 C815 0.950 . S
H795 C818 0.950 . S
H796 C819 0.950 . S
H797 C821 0.950 . S
H798 C822 0.950 . S
H799 C823 0.951 . S
H800 C825 0.951 . S
H801 C827 0.950 1_565 S
H802 C828 0.950 . S
H803 C830 0.950 1_545 S
H804 C833 0.950 . S
H805 C834 0.950 . S
H806 C836 0.950 . S
H807 C837 0.950 . S
C808 H790 0.951 . S
C808 C809 1.366 . S
C808 C810 1.388 . S
C809 C808 1.366 . S
C809 C813 1.385 . S
C810 H791 0.951 . S
C810 C808 1.388 . S
C810 C811 1.366 . S
C811 C810 1.366 . S
C811 C812 1.414 . S
C811 C814 1.499 . S
C812 H792 0.950 . S
C812 C811 1.414 . S
C812 C813 1.374 . S
C813 H793 0.950 . S
C813 C809 1.385 . S
C813 C812 1.374 . S
C814 C811 1.499 . S
C814 C815 1.373 . S
C814 C816 1.389 . S
C815 H794 0.950 . S
C815 C814 1.373 . S
C815 C831 1.377 . S
C816 C814 1.389 . S
C816 C817 1.524 . S
C816 C830 1.377 . S
C817 C816 1.524 . S
C817 C818 1.397 . S
C817 C822 1.363 . S
C818 H795 0.950 . S
C818 C817 1.397 . S
C818 C819 1.334 1_565 S
C819 H796 0.950 . S
C819 C818 1.334 1_545 S
C819 C820 1.287 . S
C820 C819 1.287 . S
C820 C821 1.524 . S
C820 H839 0.913 . S
C821 H797 0.950 . S
C821 C820 1.524 . S
C821 C822 1.415 1_545 S
C822 H798 0.950 . S
C822 C817 1.363 . S
C822 C821 1.415 1_565 S
C823 H799 0.951 . S
C823 C824 1.366 . S
C823 C825 1.388 1_545 S
C824 C823 1.366 . S
C824 C828 1.385 . S
C825 H800 0.951 . S
C825 C823 1.388 1_565 S
C825 C826 1.366 . S
C826 C825 1.366 . S
C826 C827 1.414 1_565 S
C826 C829 1.499 . S
C827 H801 0.950 1_545 S
C827 C826 1.414 1_545 S
C827 C828 1.374 . S
C828 H802 0.950 . S
C828 C824 1.385 . S
C828 C827 1.374 . S
C829 C826 1.499 . S
C829 C830 1.373 . S
C829 C831 1.389 . S
C830 H803 0.950 1_565 S
C830 C816 1.377 . S
C830 C829 1.373 . S
C831 C815 1.377 . S
C831 C829 1.389 . S
C831 C832 1.524 . S
C832 C831 1.524 . S
C832 C833 1.397 . S
C832 C837 1.363 . S
C833 H804 0.950 . S
C833 C832 1.397 . S
C833 C834 1.334 . S
C834 H805 0.950 . S
C834 C833 1.334 . S
C834 C835 1.287 . S
C835 C834 1.287 . S
C835 C836 1.524 . S
C835 H838 0.999 . S
C836 H806 0.950 . S
C836 C835 1.524 . S
C836 C837 1.415 . S
C837 H807 0.950 . S
C837 C832 1.363 . S
C837 C836 1.415 . S
H838 C835 0.999 . S
H839 C820 0.913 . S
H840 C858 0.951 . S
H841 C860 0.951 . S
H842 C862 0.950 . S
H843 C863 0.950 . S
H844 C865 0.950 . S
H845 C868 0.950 . S
H846 C869 0.950 . S
H847 C871 0.950 . S
H848 C872 0.950 . S
H849 C873 0.951 . S
H850 C875 0.951 . S
H851 C877 0.950 . S
H852 C878 0.950 . S
H853 C880 0.950 . S
H854 C883 0.950 . S
H855 C884 0.950 . S
H856 C886 0.950 . S
H857 C887 0.950 . S
C858 H840 0.951 . S
C858 C859 1.366 . S
C858 C860 1.388 . S
C859 C858 1.366 . S
C859 C863 1.385 . S
C860 H841 0.951 . S
C860 C858 1.388 . S
C860 C861 1.366 . S
C861 C860 1.366 . S
C861 C862 1.414 . S
C861 C864 1.499 . S
C862 H842 0.950 . S
C862 C861 1.414 . S
C862 C863 1.374 . S
C863 H843 0.950 . S
C863 C859 1.385 . S
C863 C862 1.374 . S
C864 C861 1.499 . S
C864 C865 1.373 . S
C864 C866 1.389 . S
C865 H844 0.950 . S
C865 C864 1.373 . S
C865 C881 1.377 . S
C866 C864 1.389 . S
C866 C867 1.524 . S
C866 C880 1.377 . S
C867 C866 1.524 . S
C867 C868 1.397 . S
C867 C872 1.363 . S
C868 H845 0.950 . S
C868 C867 1.397 . S
C868 C869 1.334 . S
C869 H846 0.950 . S
C869 C868 1.334 . S
C869 C870 1.287 . S
C870 C869 1.287 . S
C870 C871 1.524 . S
C870 H889 0.913 . S
C871 H847 0.950 . S
C871 C870 1.524 . S
C871 C872 1.415 . S
C872 H848 0.950 . S
C872 C867 1.363 . S
C872 C871 1.415 . S
C873 H849 0.951 . S
C873 C874 1.366 . S
C873 C875 1.388 1_554 S
C874 C873 1.366 . S
C874 C878 1.385 1_554 S
C875 H850 0.951 . S
C875 C873 1.388 1_556 S
C875 C876 1.366 . S
C876 C875 1.366 . S
C876 C877 1.414 . S
C876 C879 1.499 . S
C877 H851 0.950 . S
C877 C876 1.414 . S
C877 C878 1.374 . S
C878 H852 0.950 . S
C878 C874 1.385 1_556 S
C878 C877 1.374 . S
C879 C876 1.499 . S
C879 C880 1.373 . S
C879 C881 1.389 . S
C880 H853 0.950 . S
C880 C866 1.377 . S
C880 C879 1.373 . S
C881 C865 1.377 . S
C881 C879 1.389 . S
C881 C882 1.524 . S
C882 C881 1.524 . S
C882 C883 1.397 . S
C882 C887 1.363 . S
C883 H854 0.950 . S
C883 C882 1.397 . S
C883 C884 1.334 . S
C884 H855 0.950 . S
C884 C883 1.334 . S
C884 C885 1.287 . S
C885 C884 1.287 . S
C885 C886 1.524 . S
C885 H888 0.999 . S
C886 H856 0.950 . S
C886 C885 1.524 . S
C886 C887 1.415 . S
C887 H857 0.950 . S
C887 C882 1.363 . S
C887 C886 1.415 . S
H888 C885 0.999 . S
H889 C870 0.913 . S
H890 C908 0.951 . S
H891 C910 0.951 . S
H892 C912 0.950 . S
H893 C913 0.950 . S
H894 C915 0.950 . S
H895 C918 0.950 . S
H896 C919 0.950 . S
H897 C921 0.950 . S
H898 C922 0.950 . S
H899 C923 0.951 . S
H900 C925 0.951 . S
H901 C927 0.950 . S
H902 C928 0.950 . S
H903 C930 0.950 . S
H904 C933 0.950 . S
H905 C934 0.950 . S
H906 C936 0.950 . S
H907 C937 0.950 . S
C908 H890 0.951 . S
C908 C909 1.366 . S
C908 C910 1.388 . S
C909 C908 1.366 . S
C909 C913 1.385 . S
C910 H891 0.951 . S
C910 C908 1.388 . S
C910 C911 1.366 . S
C911 C910 1.366 . S
C911 C912 1.414 . S
C911 C914 1.499 . S
C912 H892 0.950 . S
C912 C911 1.414 . S
C912 C913 1.374 . S
C913 H893 0.950 . S
C913 C909 1.385 . S
C913 C912 1.374 . S
C914 C911 1.499 . S
C914 C915 1.373 1_655 S
C914 C916 1.389 . S
C915 H894 0.950 . S
C915 C914 1.373 1_455 S
C915 C931 1.377 . S
C916 C914 1.389 . S
C916 C917 1.524 . S
C916 C930 1.377 . S
C917 C916 1.524 . S
C917 C918 1.397 . S
C917 C922 1.363 . S
C918 H895 0.950 . S
C918 C917 1.397 . S
C918 C919 1.334 . S
C919 H896 0.950 . S
C919 C918 1.334 . S
C919 C920 1.287 . S
C920 C919 1.287 . S
C920 C921 1.524 . S
C920 H939 0.913 . S
C921 H897 0.950 . S
C921 C920 1.524 . S
C921 C922 1.415 . S
C922 H898 0.950 . S
C922 C917 1.363 . S
C922 C921 1.415 . S
C923 H899 0.951 . S
C923 C924 1.366 . S
C923 C925 1.388 . S
C924 C923 1.366 . S
C924 C928 1.385 . S
C925 H900 0.951 . S
C925 C923 1.388 . S
C925 C926 1.366 . S
C926 C925 1.366 . S
C926 C927 1.414 . S
C926 C929 1.499 . S
C927 H901 0.950 . S
C927 C926 1.414 . S
C927 C928 1.374 . S
C928 H902 0.950 . S
C928 C924 1.385 . S
C928 C927 1.374 . S
C929 C926 1.499 . S
C929 C930 1.373 1_455 S
C929 C931 1.389 . S
C930 H903 0.950 . S
C930 C916 1.377 . S
C930 C929 1.373 1_655 S
C931 C915 1.377 . S
C931 C929 1.389 . S
C931 C932 1.524 . S
C932 C931 1.524 . S
C932 C933 1.397 . S
C932 C937 1.363 . S
C933 H904 0.950 . S
C933 C932 1.397 . S
C933 C934 1.334 . S
C934 H905 0.950 . S
C934 C933 1.334 . S
C934 C935 1.287 . S
C935 C934 1.287 . S
C935 C936 1.524 . S
C935 H938 0.999 . S
C936 H906 0.950 . S
C936 C935 1.524 . S
C936 C937 1.415 . S
C937 H907 0.950 . S
C937 C932 1.363 . S
C937 C936 1.415 . S
H938 C935 0.999 . S
H939 C920 0.913 . S
H940 C958 0.951 . S
H941 C960 0.951 . S
H942 C962 0.950 . S
H943 C963 0.950 . S
H944 C965 0.950 . S
H945 C968 0.950 . S
H946 C969 0.950 . S
H947 C971 0.950 . S
H948 C972 0.950 . S
H949 C973 0.951 . S
H950 C975 0.951 . S
H951 C977 0.950 . S
H952 C978 0.950 . S
H953 C980 0.950 . S
H954 C983 0.950 . S
H955 C984 0.950 . S
H956 C986 0.950 . S
H957 C987 0.950 . S
C958 H940 0.951 . S
C958 C959 1.366 . S
C958 C960 1.388 . S
C959 C958 1.366 . S
C959 C963 1.385 . S
C960 H941 0.951 . S
C960 C958 1.388 . S
C960 C961 1.366 . S
C961 C960 1.366 . S
C961 C962 1.414 . S
C961 C964 1.499 . S
C962 H942 0.950 . S
C962 C961 1.414 . S
C962 C963 1.374 . S
C963 H943 0.950 . S
C963 C959 1.385 . S
C963 C962 1.374 . S
C964 C961 1.499 . S
C964 C965 1.373 . S
C964 C966 1.389 1_565 S
C965 H944 0.950 . S
C965 C964 1.373 . S
C965 C981 1.377 . S
C966 C964 1.389 1_545 S
C966 C967 1.524 . S
C966 C980 1.377 . S
C967 C966 1.524 . S
C967 C968 1.397 . S
C967 C972 1.363 . S
C968 H945 0.950 . S
C968 C967 1.397 . S
C968 C969 1.334 . S
C969 H946 0.950 . S
C969 C968 1.334 . S
C969 C970 1.287 . S
C970 C969 1.287 . S
C970 C971 1.524 . S
C970 H989 0.913 . S
C971 H947 0.950 . S
C971 C970 1.524 . S
C971 C972 1.415 . S
C972 H948 0.950 . S
C972 C967 1.363 . S
C972 C971 1.415 . S
C973 H949 0.951 . S
C973 C974 1.366 . S
C973 C975 1.388 . S
C974 C973 1.366 . S
C974 C978 1.385 . S
C975 H950 0.951 . S
C975 C973 1.388 . S
C975 C976 1.366 . S
C976 C975 1.366 . S
C976 C977 1.414 . S
C976 C979 1.499 . S
C977 H951 0.950 . S
C977 C976 1.414 . S
C977 C978 1.374 . S
C978 H952 0.950 . S
C978 C974 1.385 . S
C978 C977 1.374 . S
C979 C976 1.499 . S
C979 C980 1.373 . S
C979 C981 1.389 1_545 S
C980 H953 0.950 . S
C980 C966 1.377 . S
C980 C979 1.373 . S
C981 C965 1.377 . S
C981 C979 1.389 1_565 S
C981 C982 1.524 . S
C982 C981 1.524 . S
C982 C983 1.397 . S
C982 C987 1.363 . S
C983 H954 0.950 . S
C983 C982 1.397 . S
C983 C984 1.334 . S
C984 H955 0.950 . S
C984 C983 1.334 . S
C984 C985 1.287 . S
C985 C984 1.287 . S
C985 C986 1.524 . S
C985 H988 0.999 . S
C986 H956 0.950 . S
C986 C985 1.524 . S
C986 C987 1.415 . S
C987 H957 0.950 . S
C987 C982 1.363 . S
C987 C986 1.415 . S
H988 C985 0.999 . S
H989 C970 0.913 . S
H990 C1008 0.951 . S
H991 C1010 0.951 . S
H992 C1012 0.950 . S
H993 C1013 0.950 . S
H994 C1015 0.950 . S
H995 C1018 0.950 . S
H996 C1019 0.950 . S
H997 C1021 0.950 . S
H998 C1022 0.950 . S
H999 C1023 0.951 . S
H1000 C1025 0.951 . S
H1001 C1027 0.950 . S
H1002 C1028 0.950 . S
H1003 C1030 0.950 . S
H1004 C1033 0.950 . S
H1005 C1034 0.950 1_554 S
H1006 C1036 0.950 . S
H1007 C1037 0.950 . S
C1008 H990 0.951 . S
C1008 C1009 1.366 . S
C1008 C1010 1.388 . S
C1009 C1008 1.366 . S
C1009 C1013 1.385 . S
C1010 H991 0.951 . S
C1010 C1008 1.388 . S
C1010 C1011 1.366 . S
C1011 C1010 1.366 . S
C1011 C1012 1.414 . S
C1011 C1014 1.499 . S
C1012 H992 0.950 . S
C1012 C1011 1.414 . S
C1012 C1013 1.374 . S
C1013 H993 0.950 . S
C1013 C1009 1.385 . S
C1013 C1012 1.374 . S
C1014 C1011 1.499 . S
C1014 C1015 1.373 . S
C1014 C1016 1.389 . S
C1015 H994 0.950 . S
C1015 C1014 1.373 . S
C1015 C1031 1.377 . S
C1016 C1014 1.389 . S
C1016 C1017 1.524 . S
C1016 C1030 1.377 . S
C1017 C1016 1.524 . S
C1017 C1018 1.397 . S
C1017 C1022 1.363 . S
C1018 H995 0.950 . S
C1018 C1017 1.397 . S
C1018 C1019 1.334 . S
C1019 H996 0.950 . S
C1019 C1018 1.334 . S
C1019 C1020 1.287 . S
C1020 C1019 1.287 . S
C1020 C1021 1.524 . S
C1020 H1039 0.913 . S
C1021 H997 0.950 . S
C1021 C1020 1.524 . S
C1021 C1022 1.415 . S
C1022 H998 0.950 . S
C1022 C1017 1.363 . S
C1022 C1021 1.415 . S
C1023 H999 0.951 . S
C1023 C1024 1.366 . S
C1023 C1025 1.388 1_554 S
C1024 C1023 1.366 . S
C1024 C1028 1.385 1_554 S
C1025 H1000 0.951 . S
C1025 C1023 1.388 1_556 S
C1025 C1026 1.366 . S
C1026 C1025 1.366 . S
C1026 C1027 1.414 . S
C1026 C1029 1.499 . S
C1027 H1001 0.950 . S
C1027 C1026 1.414 . S
C1027 C1028 1.374 . S
C1028 H1002 0.950 . S
C1028 C1024 1.385 1_556 S
C1028 C1027 1.374 . S
C1029 C1026 1.499 . S
C1029 C1030 1.373 . S
C1029 C1031 1.389 . S
C1030 H1003 0.950 . S
C1030 C1016 1.377 . S
C1030 C1029 1.373 . S
C1031 C1015 1.377 . S
C1031 C1029 1.389 . S
C1031 C1032 1.524 . S
C1032 C1031 1.524 . S
C1032 C1033 1.397 . S
C1032 C1037 1.363 . S
C1033 H1004 0.950 . S
C1033 C1032 1.397 . S
C1033 C1034 1.334 . S
C1034 H1005 0.950 1_556 S
C1034 C1033 1.334 . S
C1034 C1035 1.287 1_556 S
C1035 C1034 1.287 1_554 S
C1035 C1036 1.524 1_554 S
C1035 H1038 0.999 . S
C1036 H1006 0.950 . S
C1036 C1035 1.524 1_556 S
C1036 C1037 1.415 . S
C1037 H1007 0.950 . S
C1037 C1032 1.363 . S
C1037 C1036 1.415 . S
H1038 C1035 0.999 . S
H1039 C1020 0.913 . S
H1040 C1058 0.951 . S
H1041 C1060 0.951 1_655 S
H1042 C1062 0.950 . S
H1043 C1063 0.950 . S
H1044 C1065 0.950 . S
H1045 C1068 0.950 . S
H1046 C1069 0.950 . S
H1047 C1071 0.950 . S
H1048 C1072 0.950 . S
H1049 C1073 0.951 . S
H1050 C1075 0.951 1_455 S
H1051 C1077 0.950 . S
H1052 C1078 0.950 . S
H1053 C1080 0.950 . S
H1054 C1083 0.950 . S
H1055 C1084 0.950 . S
H1056 C1086 0.950 . S
H1057 C1087 0.950 . S
C1058 H1040 0.951 . S
C1058 C1059 1.366 . S
C1058 C1060 1.388 . S
C1059 C1058 1.366 . S
C1059 C1063 1.385 . S
C1060 H1041 0.951 1_455 S
C1060 C1058 1.388 . S
C1060 C1061 1.366 . S
C1061 C1060 1.366 . S
C1061 C1062 1.414 . S
C1061 C1064 1.499 . S
C1062 H1042 0.950 . S
C1062 C1061 1.414 . S
C1062 C1063 1.374 . S
C1063 H1043 0.950 . S
C1063 C1059 1.385 . S
C1063 C1062 1.374 . S
C1064 C1061 1.499 . S
C1064 C1065 1.373 . S
C1064 C1066 1.389 1_455 S
C1065 H1044 0.950 . S
C1065 C1064 1.373 . S
C1065 C1081 1.377 . S
C1066 C1064 1.389 1_655 S
C1066 C1067 1.524 . S
C1066 C1080 1.377 . S
C1067 C1066 1.524 . S
C1067 C1068 1.397 1_655 S
C1067 C1072 1.363 . S
C1068 H1045 0.950 . S
C1068 C1067 1.397 1_455 S
C1068 C1069 1.334 . S
C1069 H1046 0.950 . S
C1069 C1068 1.334 . S
C1069 C1070 1.287 1_455 S
C1070 C1069 1.287 1_655 S
C1070 C1071 1.524 . S
C1070 H1089 0.913 . S
C1071 H1047 0.950 . S
C1071 C1070 1.524 . S
C1071 C1072 1.415 . S
C1072 H1048 0.950 . S
C1072 C1067 1.363 . S
C1072 C1071 1.415 . S
C1073 H1049 0.951 . S
C1073 C1074 1.366 . S
C1073 C1075 1.388 . S
C1074 C1073 1.366 . S
C1074 C1078 1.385 . S
C1075 H1050 0.951 1_655 S
C1075 C1073 1.388 . S
C1075 C1076 1.366 . S
C1076 C1075 1.366 . S
C1076 C1077 1.414 . S
C1076 C1079 1.499 . S
C1077 H1051 0.950 . S
C1077 C1076 1.414 . S
C1077 C1078 1.374 . S
C1078 H1052 0.950 . S
C1078 C1074 1.385 . S
C1078 C1077 1.374 . S
C1079 C1076 1.499 . S
C1079 C1080 1.373 . S
C1079 C1081 1.389 1_655 S
C1080 H1053 0.950 . S
C1080 C1066 1.377 . S
C1080 C1079 1.373 . S
C1081 C1065 1.377 . S
C1081 C1079 1.389 1_455 S
C1081 C1082 1.524 . S
C1082 C1081 1.524 . S
C1082 C1083 1.397 1_455 S
C1082 C1087 1.363 . S
C1083 H1054 0.950 . S
C1083 C1082 1.397 1_655 S
C1083 C1084 1.334 . S
C1084 H1055 0.950 . S
C1084 C1083 1.334 . S
C1084 C1085 1.287 . S
C1085 C1084 1.287 . S
C1085 C1086 1.524 1_655 S
C1085 H1088 0.999 . S
C1086 H1056 0.950 . S
C1086 C1085 1.524 1_455 S
C1086 C1087 1.415 . S
C1087 H1057 0.950 . S
C1087 C1082 1.363 . S
C1087 C1086 1.415 . S
H1088 C1085 0.999 . S
H1089 C1070 0.913 . S
H1090 C1108 0.951 . S
H1091 C1110 0.951 . S
H1092 C1112 0.950 . S
H1093 C1113 0.950 . S
H1094 C1115 0.950 . S
H1095 C1118 0.950 . S
H1096 C1119 0.950 . S
H1097 C1121 0.950 . S
H1098 C1122 0.950 . S
H1099 C1123 0.951 . S
H1100 C1125 0.951 . S
H1101 C1127 0.950 . S
H1102 C1128 0.950 . S
H1103 C1130 0.950 . S
H1104 C1133 0.950 . S
H1105 C1134 0.950 1_655 S
H1106 C1136 0.950 1_545 S
H1107 C1137 0.950 . S
C1108 H1090 0.951 . S
C1108 C1109 1.366 . S
C1108 C1110 1.388 . S
C1109 C1108 1.366 . S
C1109 C1113 1.385 . S
C1110 H1091 0.951 . S
C1110 C1108 1.388 . S
C1110 C1111 1.366 . S
C1111 C1110 1.366 . S
C1111 C1112 1.414 . S
C1111 C1114 1.499 . S
C1112 H1092 0.950 . S
C1112 C1111 1.414 . S
C1112 C1113 1.374 . S
C1113 H1093 0.950 . S
C1113 C1109 1.385 . S
C1113 C1112 1.374 . S
C1114 C1111 1.499 . S
C1114 C1115 1.373 . S
C1114 C1116 1.389 . S
C1115 H1094 0.950 . S
C1115 C1114 1.373 . S
C1115 C1131 1.377 1_545 S
C1116 C1114 1.389 . S
C1116 C1117 1.524 . S
C1116 C1130 1.377 1_545 S
C1117 C1116 1.524 . S
C1117 C1118 1.397 . S
C1117 C1122 1.363 1_545 S
C1118 H1095 0.950 . S
C1118 C1117 1.397 . S
C1118 C1119 1.334 . S
C1119 H1096 0.950 . S
C1119 C1118 1.334 . S
C1119 C1120 1.287 . S
C1120 C1119 1.287 . S
C1120 C1121 1.524 1_545 S
C1120 H1139 0.913 . S
C1121 H1097 0.950 . S
C1121 C1120 1.524 1_565 S
C1121 C1122 1.415 . S
C1122 H1098 0.950 . S
C1122 C1117 1.363 1_565 S
C1122 C1121 1.415 . S
C1123 H1099 0.951 . S
C1123 C1124 1.366 . S
C1123 C1125 1.388 . S
C1124 C1123 1.366 . S
C1124 C1128 1.385 . S
C1125 H1100 0.951 . S
C1125 C1123 1.388 . S
C1125 C1126 1.366 . S
C1126 C1125 1.366 . S
C1126 C1127 1.414 . S
C1126 C1129 1.499 . S
C1127 H1101 0.950 . S
C1127 C1126 1.414 . S
C1127 C1128 1.374 . S
C1128 H1102 0.950 . S
C1128 C1124 1.385 . S
C1128 C1127 1.374 . S
C1129 C1126 1.499 . S
C1129 C1130 1.373 . S
C1129 C1131 1.389 . S
C1130 H1103 0.950 . S
C1130 C1116 1.377 1_565 S
C1130 C1129 1.373 . S
C1131 C1115 1.377 1_565 S
C1131 C1129 1.389 . S
C1131 C1132 1.524 . S
C1132 C1131 1.524 . S
C1132 C1133 1.397 . S
C1132 C1137 1.363 1_565 S
C1133 H1104 0.950 . S
C1133 C1132 1.397 . S
C1133 C1134 1.334 . S
C1134 H1105 0.950 1_455 S
C1134 C1133 1.334 . S
C1134 C1135 1.287 1_455 S
C1135 C1134 1.287 1_655 S
C1135 C1136 1.524 1_655 S
C1135 H1138 0.999 . S
C1136 H1106 0.950 1_565 S
C1136 C1135 1.524 1_455 S
C1136 C1137 1.415 1_565 S
C1137 H1107 0.950 . S
C1137 C1132 1.363 1_545 S
C1137 C1136 1.415 1_545 S
H1138 C1135 0.999 . S
H1139 C1120 0.913 . S
C259 C166 1.319 . S
C274 C19 1.330 . S
C309 C219 1.330 . S
C324 C46 1.320 . S
C359 C6 1.320 . S
C374 C99 1.330 . S
C409 C59 1.330 . S
C424 C126 1.320 . S
C459 C86 1.320 . S
C474 C179 1.330 . S
C509 C139 1.330 . S
C524 C206 1.319 . S
C559 C18 0.788 . S
C574 C129 0.772 . S
C609 C178 0.788 . S
C624 C49 0.776 . S
C659 C209 0.772 . S
C674 C98 0.788 . S
C709 C89 0.772 . S
C724 C218 0.787 . S
C759 C9 0.773 . S
C774 C138 0.789 . S
C809 C169 0.772 . S
C824 C58 0.788 . S
C859 C210 1.691 . S
C874 C10 1.691 . S
C909 C55 0.759 . S
C924 C15 0.758 . S
C959 C90 1.691 . S
C974 C50 1.691 . S
C1009 C95 0.760 . S
C1024 C135 0.759 . S
C1059 C170 1.691 . S
C1074 C130 1.691 . S
C1109 C215 0.759 . S
C1124 C175 0.758 . S
