# Generated by pormake.
# Topology whk, (6)-cn, num edge types: 1
# Building blocks:
#     Node 0, Type 0, BuildingBlock: CIFDUS_clean_sbu_1, # of connection points: 6
#     Node 1, Type 0, BuildingBlock: CIFDUS_clean_sbu_1, # of connection points: 6
#     Node 2, Type 0, BuildingBlock: CIFDUS_clean_sbu_1, # of connection points: 6
#     Node 3, Type 0, BuildingBlock: CIFDUS_clean_sbu_1, # of connection points: 6
#     Node 4, Type 0, BuildingBlock: CIFDUS_clean_sbu_1, # of connection points: 6
#     Node 5, Type 0, BuildingBlock: CIFDUS_clean_sbu_1, # of connection points: 6
#     Node 6, Type 0, BuildingBlock: CIFDUS_clean_sbu_1, # of connection points: 6
#     Node 7, Type 0, BuildingBlock: CIFDUS_clean_sbu_1, # of connection points: 6
#     Node 8, Type 0, BuildingBlock: CIFDUS_clean_sbu_1, # of connection points: 6
#     Node 9, Type 0, BuildingBlock: CIFDUS_clean_sbu_1, # of connection points: 6
#     Node 10, Type 0, BuildingBlock: CIFDUS_clean_sbu_1, # of connection points: 6
#     Node 11, Type 0, BuildingBlock: CIFDUS_clean_sbu_1, # of connection points: 6
#     Node 12, Type 0, BuildingBlock: CIFDUS_clean_sbu_1, # of connection points: 6
#     Node 13, Type 0, BuildingBlock: CIFDUS_clean_sbu_1, # of connection points: 6
#     Node 14, Type 0, BuildingBlock: CIFDUS_clean_sbu_1, # of connection points: 6
#     Node 15, Type 0, BuildingBlock: CIFDUS_clean_sbu_1, # of connection points: 6
#     Edge 16, Type (0, 0), None
#     Edge 17, Type (0, 0), None
#     Edge 18, Type (0, 0), None
#     Edge 19, Type (0, 0), None
#     Edge 20, Type (0, 0), None
#     Edge 21, Type (0, 0), None
#     Edge 22, Type (0, 0), None
#     Edge 23, Type (0, 0), None
#     Edge 24, Type (0, 0), None
#     Edge 25, Type (0, 0), None
#     Edge 26, Type (0, 0), None
#     Edge 27, Type (0, 0), None
#     Edge 28, Type (0, 0), None
#     Edge 29, Type (0, 0), None
#     Edge 30, Type (0, 0), None
#     Edge 31, Type (0, 0), None
#     Edge 32, Type (0, 0), None
#     Edge 33, Type (0, 0), None
#     Edge 34, Type (0, 0), None
#     Edge 35, Type (0, 0), None
#     Edge 36, Type (0, 0), None
#     Edge 37, Type (0, 0), None
#     Edge 38, Type (0, 0), None
#     Edge 39, Type (0, 0), None
#     Edge 40, Type (0, 0), None
#     Edge 41, Type (0, 0), None
#     Edge 42, Type (0, 0), None
#     Edge 43, Type (0, 0), None
#     Edge 44, Type (0, 0), None
#     Edge 45, Type (0, 0), None
#     Edge 46, Type (0, 0), None
#     Edge 47, Type (0, 0), None
#     Edge 48, Type (0, 0), None
#     Edge 49, Type (0, 0), None
#     Edge 50, Type (0, 0), None
#     Edge 51, Type (0, 0), None
#     Edge 52, Type (0, 0), None
#     Edge 53, Type (0, 0), None
#     Edge 54, Type (0, 0), None
#     Edge 55, Type (0, 0), None
#     Edge 56, Type (0, 0), None
#     Edge 57, Type (0, 0), None
#     Edge 58, Type (0, 0), None
#     Edge 59, Type (0, 0), None
#     Edge 60, Type (0, 0), None
#     Edge 61, Type (0, 0), None
#     Edge 62, Type (0, 0), None
#     Edge 63, Type (0, 0), None
# Relax obj value: 0.383
# Max RMSD: 0.254
# Mean RMSD: 0.254
data_MOF--net-whk--node1-CIFDUS_clean_sbu_1--edge1-none
_symmetry_space_group_name_H-M    P1
_symmetry_Int_Tables_number       1
_symmetry_cell_setting            triclinic
loop_
_symmetry_equiv_pos_as_xyz
'x, y, z'
_cell_length_a     16.576298
_cell_length_b     16.574948
_cell_length_c     22.103912
_cell_angle_alpha  90.000523
_cell_angle_beta   89.99973
_cell_angle_gamma 89.999978
loop_
_atom_site_label
_atom_site_type_symbol
_atom_site_fract_x
_atom_site_fract_y
_atom_site_fract_z
_atom_type_partial_charge
O0 O 0.41791 0.14679 0.44856 0.0
Mn1 Mn 0.53933 0.18952 0.45301 0.0
O2 O 0.4363 0.02893 0.49061 0.0
Mn3 Mn 0.53869 0.00116 0.46218 0.0
O4 O 0.66064 0.21966 0.45036 0.0
O5 O 0.50135 0.29217 0.41387 0.0
Mn6 Mn 0.58671 0.35566 0.41882 0.0
O7 O 0.53123 0.25082 0.53375 0.0
O8 O 0.67128 0.30842 0.37757 0.0
O9 O 0.55128 0.14009 0.36801 0.0
O10 O 0.56393 0.00596 0.37915 0.0
O11 O 0.50409 0.41256 0.38222 0.0
O12 O 0.60059 0.36258 0.50458 0.0
C13 C 0.62646 0.04186 0.52687 0.0
C14 C 0.39259 0.07429 0.45827 0.0
C15 C 0.70033 0.24954 0.40645 0.0
C16 C 0.45953 0.35783 0.40687 0.0
C17 C 0.56658 0.3186 0.54556 0.0
C18 C 0.56172 0.06956 0.34651 0.0
O19 O 0.58361 0.08791 0.49237 0.0
O20 O 0.61544 0.96595 0.51693 0.0
O21 O 0.34052 0.41795 0.44855 0.0
Mn22 Mn 0.2978 0.53937 0.45301 0.0
O23 O 0.45845 0.43626 0.49063 0.0
Mn24 Mn 0.48614 0.53868 0.46219 0.0
O25 O 0.26767 0.66069 0.45037 0.0
O26 O 0.19516 0.50141 0.41387 0.0
Mn27 Mn 0.13167 0.58678 0.41882 0.0
O28 O 0.2365 0.53126 0.53374 0.0
O29 O 0.17892 0.67135 0.37759 0.0
O30 O 0.34724 0.55133 0.36801 0.0
O31 O 0.48136 0.56388 0.37916 0.0
O32 O 0.07478 0.50416 0.38221 0.0
O33 O 0.12476 0.60064 0.50459 0.0
C34 C 0.44545 0.62649 0.52687 0.0
C35 C 0.41297 0.39259 0.45836 0.0
C36 C 0.2378 0.70039 0.40646 0.0
C37 C 0.1295 0.45958 0.40686 0.0
C38 C 0.16873 0.56662 0.54556 0.0
C39 C 0.41778 0.56171 0.34652 0.0
O40 O 0.3994 0.58363 0.49238 0.0
O41 O 0.52135 0.61546 0.51694 0.0
O42 O 0.95607 0.23654 0.53372 0.0
Mn43 Mn 0.94796 0.29784 0.45299 0.0
O44 O 0.8867 0.12479 0.50458 0.0
Mn45 Mn 0.90055 0.13168 0.41881 0.0
O46 O 0.936 0.3473 0.368 0.0
O47 O 0.90372 0.39946 0.49236 0.0
Mn48 Mn 0.94868 0.4862 0.46219 0.0
O49 O 0.06937 0.34055 0.44853 0.0
O50 O 0.92347 0.48144 0.37916 0.0
O51 O 0.82664 0.26773 0.45034 0.0
O52 O 0.81596 0.17891 0.37758 0.0
O53 O 0.87191 0.52142 0.51694 0.0
O54 O 0.05108 0.45849 0.49062 0.0
C55 C 0.02773 0.12953 0.40685 0.0
C56 C 0.92072 0.16877 0.54554 0.0
C57 C 0.92563 0.41785 0.34651 0.0
C58 C 0.86088 0.44551 0.52687 0.0
C59 C 0.09475 0.41301 0.45835 0.0
C60 C 0.78697 0.23783 0.40644 0.0
O61 O 0.9859 0.19519 0.41384 0.0
O62 O 0.98317 0.07478 0.38221 0.0
O63 O 0.2508 0.95615 0.53373 0.0
Mn64 Mn 0.18949 0.94803 0.453 0.0
O65 O 0.36256 0.88681 0.50458 0.0
Mn66 Mn 0.35564 0.90065 0.41881 0.0
O67 O 0.14005 0.93606 0.368 0.0
O68 O 0.0879 0.90377 0.49237 0.0
Mn69 Mn 0.00115 0.9487 0.46219 0.0
O70 O 0.14676 0.06945 0.44853 0.0
O71 O 0.00593 0.92348 0.37916 0.0
O72 O 0.21962 0.82671 0.45035 0.0
O73 O 0.30845 0.81603 0.3776 0.0
O74 O 0.96596 0.87193 0.51695 0.0
O75 O 0.02883 0.05112 0.49061 0.0
C76 C 0.35787 0.02767 0.40679 0.0
C77 C 0.31858 0.92082 0.54555 0.0
C78 C 0.06951 0.92566 0.34651 0.0
C79 C 0.04186 0.86092 0.52688 0.0
C80 C 0.0743 0.0948 0.45834 0.0
C81 C 0.24953 0.78703 0.40646 0.0
O82 O 0.29213 0.98599 0.41385 0.0
O83 O 0.41266 0.98315 0.38216 0.0
O84 O 0.03124 0.73657 0.09379 0.0
Mn85 Mn 0.03935 0.79787 0.17453 0.0
O86 O 0.1006 0.62481 0.12295 0.0
Mn87 Mn 0.08673 0.63173 0.20871 0.0
O88 O 0.05129 0.84731 0.25953 0.0
O89 O 0.08362 0.89949 0.13517 0.0
Mn90 Mn 0.03867 0.98623 0.16536 0.0
O91 O 0.91793 0.84059 0.17898 0.0
O92 O 0.06389 0.98144 0.24838 0.0
O93 O 0.16066 0.76774 0.17718 0.0
O94 O 0.1713 0.67897 0.24995 0.0
O95 O 0.11543 0.02145 0.11061 0.0
O96 O 0.93628 0.95845 0.13692 0.0
C97 C 0.95955 0.62957 0.22067 0.0
C98 C 0.06659 0.66879 0.08198 0.0
C99 C 0.0617 0.91785 0.28103 0.0
C100 C 0.12647 0.94554 0.10067 0.0
C101 C 0.89258 0.91309 0.16926 0.0
C102 C 0.20035 0.73785 0.22108 0.0
O103 O 0.00138 0.69522 0.21367 0.0
O104 O 0.00412 0.57483 0.24532 0.0
O105 O 0.75077 0.03124 0.09379 0.0
Mn106 Mn 0.68946 0.03935 0.17452 0.0
O107 O 0.86254 0.10057 0.12295 0.0
Mn108 Mn 0.8556 0.08671 0.20871 0.0
O109 O 0.64004 0.05131 0.25952 0.0
O110 O 0.58787 0.08365 0.13516 0.0
Mn111 Mn 0.50112 0.03873 0.16536 0.0
O112 O 0.64672 0.91793 0.17897 0.0
O113 O 0.50593 0.06397 0.24838 0.0
O114 O 0.71961 0.16067 0.17717 0.0
O115 O 0.80838 0.17132 0.24994 0.0
O116 O 0.46592 0.1155 0.1106 0.0
O117 O 0.52888 0.93633 0.13693 0.0
C118 C 0.85784 0.95969 0.22073 0.0
C119 C 0.81855 0.06657 0.08198 0.0
C120 C 0.56951 0.06176 0.28102 0.0
C121 C 0.54183 0.12651 0.10066 0.0
C122 C 0.57423 0.89261 0.16927 0.0
C123 C 0.74951 0.20037 0.22106 0.0
O124 O 0.7921 0.00136 0.21365 0.0
O125 O 0.91261 0.00422 0.24537 0.0
O126 O 0.45609 0.75081 0.09381 0.0
Mn127 Mn 0.44798 0.6895 0.17454 0.0
O128 O 0.38676 0.8626 0.12296 0.0
Mn129 Mn 0.40061 0.85567 0.20872 0.0
O130 O 0.43602 0.64006 0.25954 0.0
O131 O 0.4037 0.58789 0.13517 0.0
Mn132 Mn 0.44863 0.50114 0.16536 0.0
O133 O 0.56939 0.64677 0.179 0.0
O134 O 0.42338 0.50593 0.24838 0.0
O135 O 0.32667 0.71963 0.1772 0.0
O136 O 0.31599 0.80848 0.24994 0.0
O137 O 0.37187 0.46594 0.11059 0.0
O138 O 0.55102 0.52892 0.13694 0.0
C139 C 0.52762 0.85789 0.22074 0.0
C140 C 0.42076 0.8186 0.08199 0.0
C141 C 0.42558 0.56952 0.28103 0.0
C142 C 0.36085 0.54185 0.10067 0.0
C143 C 0.59472 0.57427 0.16928 0.0
C144 C 0.28699 0.74956 0.22109 0.0
O145 O 0.48594 0.79215 0.21368 0.0
O146 O 0.48311 0.91269 0.24538 0.0
O147 O 0.73651 0.45614 0.09381 0.0
Mn148 Mn 0.79782 0.44802 0.17454 0.0
O149 O 0.62474 0.3868 0.12295 0.0
Mn150 Mn 0.63167 0.40063 0.20872 0.0
O151 O 0.84727 0.43605 0.25954 0.0
O152 O 0.89942 0.40377 0.13517 0.0
Mn153 Mn 0.98616 0.44872 0.16534 0.0
O154 O 0.84053 0.56944 0.179 0.0
O155 O 0.9814 0.42351 0.24838 0.0
O156 O 0.7677 0.3267 0.17718 0.0
O157 O 0.67886 0.316 0.24993 0.0
O158 O 0.02136 0.37194 0.11059 0.0
O159 O 0.95846 0.55114 0.13691 0.0
C160 C 0.62944 0.52765 0.22075 0.0
C161 C 0.66873 0.42081 0.08199 0.0
C162 C 0.91781 0.42567 0.28102 0.0
C163 C 0.94546 0.36091 0.10067 0.0
C164 C 0.91299 0.59481 0.16919 0.0
C165 C 0.73778 0.28701 0.22107 0.0
O166 O 0.69518 0.48597 0.21369 0.0
O167 O 0.57465 0.48313 0.24538 0.0
O168 O 0.45605 0.73659 0.59377 0.0
Mn169 Mn 0.44798 0.79788 0.67452 0.0
O170 O 0.38672 0.62479 0.62294 0.0
Mn171 Mn 0.4006 0.63172 0.7087 0.0
O172 O 0.43604 0.84731 0.75953 0.0
O173 O 0.40369 0.89949 0.63516 0.0
Mn174 Mn 0.44862 0.98623 0.66537 0.0
O175 O 0.5694 0.84061 0.67896 0.0
O176 O 0.42338 0.98143 0.74839 0.0
O177 O 0.32667 0.76774 0.67718 0.0
O178 O 0.31603 0.67896 0.74995 0.0
O179 O 0.37189 0.0215 0.61062 0.0
O180 O 0.55101 0.95848 0.63693 0.0
C181 C 0.52779 0.62957 0.72065 0.0
C182 C 0.42065 0.66884 0.58196 0.0
C183 C 0.42559 0.91783 0.78103 0.0
C184 C 0.36091 0.94559 0.60065 0.0
C185 C 0.59472 0.91312 0.66926 0.0
C186 C 0.28699 0.73785 0.72108 0.0
O187 O 0.48595 0.69522 0.71365 0.0
O188 O 0.48322 0.57484 0.74531 0.0
O189 O 0.7508 0.45611 0.59378 0.0
Mn190 Mn 0.68951 0.44802 0.67452 0.0
O191 O 0.86257 0.38676 0.62293 0.0
Mn192 Mn 0.85565 0.40062 0.7087 0.0
O193 O 0.64007 0.43607 0.75952 0.0
O194 O 0.58791 0.40376 0.63516 0.0
Mn195 Mn 0.50118 0.44871 0.66535 0.0
O196 O 0.64679 0.56944 0.67897 0.0
O197 O 0.50595 0.42351 0.74838 0.0
O198 O 0.71963 0.3267 0.67717 0.0
O199 O 0.80841 0.31604 0.74993 0.0
O200 O 0.46591 0.37195 0.61062 0.0
O201 O 0.52884 0.55113 0.6369 0.0
C202 C 0.85781 0.52782 0.72066 0.0
C203 C 0.81854 0.4207 0.58196 0.0
C204 C 0.56954 0.42568 0.78102 0.0
C205 C 0.54181 0.36096 0.60065 0.0
C206 C 0.57433 0.59481 0.66916 0.0
C207 C 0.74951 0.28701 0.72107 0.0
O208 O 0.79216 0.48598 0.71365 0.0
O209 O 0.91254 0.48324 0.74531 0.0
O210 O 0.03127 0.75084 0.5938 0.0
Mn211 Mn 0.03936 0.68955 0.67454 0.0
O212 O 0.10062 0.86263 0.62294 0.0
Mn213 Mn 0.08677 0.85573 0.70871 0.0
O214 O 0.05131 0.64009 0.75954 0.0
O215 O 0.0836 0.58793 0.63517 0.0
Mn216 Mn 0.03864 0.5012 0.66536 0.0
O217 O 0.91794 0.64684 0.67899 0.0
O218 O 0.06385 0.50596 0.74838 0.0
O219 O 0.16067 0.71965 0.6772 0.0
O220 O 0.17135 0.8085 0.74994 0.0
O221 O 0.11539 0.46593 0.61061 0.0
O222 O 0.93623 0.52889 0.63691 0.0
C223 C 0.95958 0.85786 0.72068 0.0
C224 C 0.06668 0.81858 0.58198 0.0
C225 C 0.06169 0.56955 0.78103 0.0
C226 C 0.12638 0.54184 0.60065 0.0
C227 C 0.89257 0.57438 0.66918 0.0
C228 C 0.20035 0.74957 0.72109 0.0
O229 O 0.00142 0.79221 0.71368 0.0
O230 O 0.00414 0.91261 0.74532 0.0
O231 O 0.73653 0.03127 0.59379 0.0
Mn232 Mn 0.79783 0.03937 0.67453 0.0
O233 O 0.62472 0.10059 0.62294 0.0
Mn234 Mn 0.63166 0.08675 0.70871 0.0
O235 O 0.84727 0.05132 0.75953 0.0
O236 O 0.89942 0.08363 0.63516 0.0
Mn237 Mn 0.98616 0.03871 0.66536 0.0
O238 O 0.84055 0.91795 0.67898 0.0
O239 O 0.98138 0.06393 0.74838 0.0
O240 O 0.7677 0.16068 0.67718 0.0
O241 O 0.67885 0.17137 0.74992 0.0
O242 O 0.02141 0.11545 0.61061 0.0
O243 O 0.9585 0.93628 0.63692 0.0
C244 C 0.62944 0.95972 0.72073 0.0
C245 C 0.66878 0.06666 0.58198 0.0
C246 C 0.9178 0.06174 0.78103 0.0
C247 C 0.9455 0.12642 0.60064 0.0
C248 C 0.91302 0.89259 0.66918 0.0
C249 C 0.73778 0.20036 0.72108 0.0
O250 O 0.69518 0.00141 0.71367 0.0
O251 O 0.57466 0.00424 0.74537 0.0
O252 O 0.95604 0.25081 1.03376 0.0
Mn253 Mn 0.94796 0.18952 0.95302 0.0
O254 O 0.88671 0.3626 1.00461 0.0
Mn255 Mn 0.90058 0.35568 0.91884 0.0
O256 O 0.93603 0.14008 0.86801 0.0
O257 O 0.90368 0.0879 0.99237 0.0
Mn258 Mn 0.94864 0.00117 0.96217 0.0
O259 O 0.06938 0.1468 0.94858 0.0
O260 O 0.92341 0.00595 0.87915 0.0
O261 O 0.82665 0.21964 0.95036 0.0
O262 O 0.81601 0.30844 0.8776 0.0
O263 O 0.87189 0.96589 1.01691 0.0
O264 O 0.05102 0.02893 0.99062 0.0
C265 C 0.02776 0.35783 0.90688 0.0
C266 C 0.92064 0.31856 1.04558 0.0
C267 C 0.9256 0.06955 0.84651 0.0
C268 C 0.8609 0.0418 1.02688 0.0
C269 C 0.09473 0.0743 0.95829 0.0
C270 C 0.78696 0.24955 0.90646 0.0
O271 O 0.98593 0.29217 0.91389 0.0
O272 O 0.9832 0.41256 0.88223 0.0
O273 O 0.23656 0.95612 1.03377 0.0
Mn274 Mn 0.29785 0.94804 0.95303 0.0
O275 O 0.12475 0.88683 1.00461 0.0
Mn276 Mn 0.1317 0.90068 0.91884 0.0
O277 O 0.34727 0.93609 0.86802 0.0
O278 O 0.39945 0.90373 0.99238 0.0
Mn279 Mn 0.48619 0.94866 0.96217 0.0
O280 O 0.34059 0.06946 0.94859 0.0
O281 O 0.48139 0.92341 0.87915 0.0
O282 O 0.26771 0.82672 0.95037 0.0
O283 O 0.17891 0.81607 0.87762 0.0
O284 O 0.52144 0.87191 1.01692 0.0
O285 O 0.45845 0.05106 0.99061 0.0
C286 C 0.12947 0.0277 0.90683 0.0
C287 C 0.1688 0.92074 1.04558 0.0
C288 C 0.41779 0.92563 0.84652 0.0
C289 C 0.44554 0.86094 1.0269 0.0
C290 C 0.41309 0.09478 0.95829 0.0
C291 C 0.23781 0.78703 0.90648 0.0
O292 O 0.19521 0.98603 0.91391 0.0
O293 O 0.0747 0.98318 0.88217 0.0
O294 O 0.53125 0.2366 1.03375 0.0
Mn295 Mn 0.53934 0.2979 0.95301 0.0
O296 O 0.60055 0.12478 1.0046 0.0
Mn297 Mn 0.5867 0.13171 0.91883 0.0
O298 O 0.55129 0.34734 0.868 0.0
O299 O 0.58362 0.39951 0.99237 0.0
Mn300 Mn 0.53869 0.48625 0.96217 0.0
O301 O 0.41792 0.34063 0.94856 0.0
O302 O 0.56394 0.48146 0.87915 0.0
O303 O 0.66065 0.26777 0.95034 0.0
O304 O 0.67133 0.1789 0.87761 0.0
O305 O 0.61542 0.5215 1.01693 0.0
O306 O 0.4363 0.45849 0.99061 0.0
C307 C 0.4597 0.1295 0.90681 0.0
C308 C 0.56663 0.16884 1.04556 0.0
C309 C 0.56174 0.41787 0.84651 0.0
C310 C 0.6264 0.44559 1.02689 0.0
C311 C 0.39259 0.41313 0.95827 0.0
C312 C 0.70032 0.23783 0.90645 0.0
O313 O 0.50138 0.19524 0.91387 0.0
O314 O 0.5042 0.07471 0.88217 0.0
O315 O 0.25078 0.53128 1.03374 0.0
Mn316 Mn 0.18949 0.53938 0.95301 0.0
O317 O 0.36259 0.6006 1.00461 0.0
Mn318 Mn 0.35566 0.58677 0.91884 0.0
O319 O 0.14004 0.55134 0.868 0.0
O320 O 0.08789 0.58364 0.99238 0.0
Mn321 Mn 0.00116 0.53869 0.96219 0.0
O322 O 0.14677 0.41796 0.94855 0.0
O323 O 0.00592 0.56389 0.87916 0.0
O324 O 0.2196 0.6607 0.95036 0.0
O325 O 0.30847 0.6714 0.87763 0.0
O326 O 0.9659 0.61545 1.01693 0.0
O327 O 0.02884 0.43627 0.99063 0.0
C328 C 0.35787 0.45975 0.9068 0.0
C329 C 0.31854 0.56667 1.04557 0.0
C330 C 0.0695 0.56173 0.84651 0.0
C331 C 0.04181 0.62643 1.02689 0.0
C332 C 0.07432 0.39259 0.95837 0.0
C333 C 0.24953 0.70038 0.90647 0.0
O334 O 0.29214 0.50143 0.91387 0.0
O335 O 0.41266 0.50426 0.88217 0.0
loop_
_geom_bond_atom_site_label_1
_geom_bond_atom_site_label_2
_geom_bond_distance
_geom_bond_site_symmetry_2
_ccdc_geom_bond_type
O0 Mn1 2.163 . S
O0 C14 1.244 . S
Mn1 O0 2.163 . S
Mn1 O4 2.160 . S
Mn1 O5 2.221 . S
Mn1 O7 2.163 . S
Mn1 O9 2.160 . S
Mn1 O19 2.221 . S
O2 Mn3 2.087 1_545 S
O2 C14 1.256 . S
Mn3 O2 2.087 1_565 S
Mn3 O10 2.089 1_565 S
Mn3 O19 2.290 1_565 S
Mn3 O20 2.251 . S
O4 Mn1 2.160 . S
O4 C15 1.239 . S
O5 Mn1 2.221 . S
O5 Mn6 2.290 . S
O5 C16 1.278 . S
Mn6 O5 2.290 . S
Mn6 O8 2.089 . S
Mn6 O11 2.251 . S
Mn6 O12 2.087 . S
O7 Mn1 2.163 . S
O7 C17 1.244 . S
O8 Mn6 2.089 . S
O8 C15 1.256 . S
O9 Mn1 2.160 . S
O9 C18 1.239 . S
O10 Mn3 2.089 1_545 S
O10 C18 1.256 . S
O11 Mn6 2.251 . S
O11 C16 1.241 . S
O12 Mn6 2.087 . S
O12 C17 1.256 . S
C13 O19 1.278 . S
C13 O20 1.241 1_545 S
C14 O0 1.244 . S
C14 O2 1.256 . S
C15 O4 1.239 . S
C15 O8 1.256 . S
C16 O5 1.278 . S
C16 O11 1.241 . S
C17 O7 1.244 . S
C17 O12 1.256 . S
C18 O9 1.239 . S
C18 O10 1.256 . S
O19 Mn1 2.221 . S
O19 Mn3 2.290 1_545 S
O19 C13 1.278 . S
O20 Mn3 2.251 . S
O20 C13 1.241 1_565 S
O21 Mn22 2.163 . S
O21 C35 1.244 . S
Mn22 O21 2.163 . S
Mn22 O25 2.160 . S
Mn22 O26 2.221 . S
Mn22 O28 2.163 . S
Mn22 O30 2.160 . S
Mn22 O40 2.221 . S
O23 Mn24 2.087 . S
O23 C35 1.256 . S
Mn24 O23 2.087 . S
Mn24 O31 2.089 . S
Mn24 O40 2.290 . S
Mn24 O41 2.251 . S
O25 Mn22 2.160 . S
O25 C36 1.239 . S
O26 Mn22 2.221 . S
O26 Mn27 2.290 . S
O26 C37 1.278 . S
Mn27 O26 2.290 . S
Mn27 O29 2.089 . S
Mn27 O32 2.251 . S
Mn27 O33 2.087 . S
O28 Mn22 2.163 . S
O28 C38 1.244 . S
O29 Mn27 2.089 . S
O29 C36 1.256 . S
O30 Mn22 2.160 . S
O30 C39 1.239 . S
O31 Mn24 2.089 . S
O31 C39 1.256 . S
O32 Mn27 2.251 . S
O32 C37 1.241 . S
O33 Mn27 2.087 . S
O33 C38 1.256 . S
C34 O40 1.278 . S
C34 O41 1.241 . S
C35 O21 1.244 . S
C35 O23 1.256 . S
C36 O25 1.239 . S
C36 O29 1.256 . S
C37 O26 1.278 . S
C37 O32 1.241 . S
C38 O28 1.244 . S
C38 O33 1.256 . S
C39 O30 1.239 . S
C39 O31 1.256 . S
O40 Mn22 2.221 . S
O40 Mn24 2.290 . S
O40 C34 1.278 . S
O41 Mn24 2.251 . S
O41 C34 1.241 . S
O42 Mn43 2.163 . S
O42 C56 1.244 . S
Mn43 O42 2.163 . S
Mn43 O46 2.160 . S
Mn43 O47 2.221 . S
Mn43 O49 2.163 1_655 S
Mn43 O51 2.160 . S
Mn43 O61 2.221 . S
O44 Mn45 2.087 . S
O44 C56 1.256 . S
Mn45 O44 2.087 . S
Mn45 O52 2.089 . S
Mn45 O61 2.290 . S
Mn45 O62 2.251 1_655 S
O46 Mn43 2.160 . S
O46 C57 1.239 . S
O47 Mn43 2.221 . S
O47 Mn48 2.290 . S
O47 C58 1.278 . S
Mn48 O47 2.290 . S
Mn48 O50 2.089 . S
Mn48 O53 2.251 . S
Mn48 O54 2.087 1_655 S
O49 Mn43 2.163 1_455 S
O49 C59 1.244 . S
O50 Mn48 2.089 . S
O50 C57 1.256 . S
O51 Mn43 2.160 . S
O51 C60 1.239 . S
O52 Mn45 2.089 . S
O52 C60 1.256 . S
O53 Mn48 2.251 . S
O53 C58 1.241 . S
O54 Mn48 2.087 1_455 S
O54 C59 1.256 . S
C55 O61 1.278 1_455 S
C55 O62 1.241 . S
C56 O42 1.244 . S
C56 O44 1.256 . S
C57 O46 1.239 . S
C57 O50 1.256 . S
C58 O47 1.278 . S
C58 O53 1.241 . S
C59 O49 1.244 . S
C59 O54 1.256 . S
C60 O51 1.239 . S
C60 O52 1.256 . S
O61 Mn43 2.221 . S
O61 Mn45 2.290 . S
O61 C55 1.278 1_655 S
O62 Mn45 2.251 1_455 S
O62 C55 1.241 . S
O63 Mn64 2.163 . S
O63 C77 1.244 . S
Mn64 O63 2.163 . S
Mn64 O67 2.160 . S
Mn64 O68 2.221 . S
Mn64 O70 2.163 1_565 S
Mn64 O72 2.160 . S
Mn64 O82 2.221 . S
O65 Mn66 2.087 . S
O65 C77 1.256 . S
Mn66 O65 2.087 . S
Mn66 O73 2.089 . S
Mn66 O82 2.290 . S
Mn66 O83 2.251 1_565 S
O67 Mn64 2.160 . S
O67 C78 1.239 . S
O68 Mn64 2.221 . S
O68 Mn69 2.290 1_455 S
O68 C79 1.278 . S
Mn69 O68 2.290 1_655 S
Mn69 O71 2.089 1_655 S
Mn69 O74 2.251 . S
Mn69 O75 2.087 1_665 S
O70 Mn64 2.163 1_545 S
O70 C80 1.244 . S
O71 Mn69 2.089 1_455 S
O71 C78 1.256 . S
O72 Mn64 2.160 . S
O72 C81 1.239 . S
O73 Mn66 2.089 . S
O73 C81 1.256 . S
O74 Mn69 2.251 . S
O74 C79 1.241 1_655 S
O75 Mn69 2.087 1_445 S
O75 C80 1.256 . S
C76 O82 1.278 1_545 S
C76 O83 1.241 . S
C77 O63 1.244 . S
C77 O65 1.256 . S
C78 O67 1.239 . S
C78 O71 1.256 . S
C79 O68 1.278 . S
C79 O74 1.241 1_455 S
C80 O70 1.244 . S
C80 O75 1.256 . S
C81 O72 1.239 . S
C81 O73 1.256 . S
O82 Mn64 2.221 . S
O82 Mn66 2.290 . S
O82 C76 1.278 1_565 S
O83 Mn66 2.251 1_545 S
O83 C76 1.241 . S
O84 Mn85 2.163 . S
O84 C98 1.241 1_554 S
Mn85 O84 2.163 . S
Mn85 O88 2.160 . S
Mn85 O89 2.221 . S
Mn85 O91 2.163 1_455 S
Mn85 O93 2.160 . S
Mn85 O103 2.221 . S
O86 Mn87 2.087 . S
O86 C98 1.253 1_554 S
Mn87 O86 2.087 . S
Mn87 O94 2.089 . S
Mn87 O103 2.290 . S
Mn87 O104 2.251 1_455 S
O88 Mn85 2.160 . S
O88 C99 1.239 . S
O89 Mn85 2.221 . S
O89 Mn90 2.290 1_565 S
O89 C100 1.278 . S
Mn90 O89 2.290 1_545 S
Mn90 O92 2.089 1_545 S
Mn90 O95 2.251 . S
Mn90 O96 2.087 1_445 S
O91 Mn85 2.163 1_655 S
O91 C101 1.244 . S
O92 Mn90 2.089 1_565 S
O92 C99 1.256 . S
O93 Mn85 2.160 . S
O93 C102 1.239 . S
O94 Mn87 2.089 . S
O94 C102 1.256 . S
O95 Mn90 2.251 . S
O95 C100 1.241 1_545 S
O96 Mn90 2.087 1_665 S
O96 C101 1.256 . S
C97 O103 1.278 1_655 S
C97 O104 1.241 . S
C98 O84 1.241 1_556 S
C98 O86 1.253 1_556 S
C99 O88 1.239 . S
C99 O92 1.256 . S
C100 O89 1.278 . S
C100 O95 1.241 1_565 S
C101 O91 1.244 . S
C101 O96 1.256 . S
C102 O93 1.239 . S
C102 O94 1.256 . S
O103 Mn85 2.221 . S
O103 Mn87 2.290 . S
O103 C97 1.278 1_455 S
O104 Mn87 2.251 1_655 S
O104 C97 1.241 . S
O105 Mn106 2.163 . S
O105 C119 1.241 1_554 S
Mn106 O105 2.163 . S
Mn106 O109 2.160 . S
Mn106 O110 2.221 . S
Mn106 O112 2.163 1_545 S
Mn106 O114 2.160 . S
Mn106 O124 2.221 . S
O107 Mn108 2.087 . S
O107 C119 1.253 1_554 S
Mn108 O107 2.087 . S
Mn108 O115 2.089 . S
Mn108 O124 2.290 . S
Mn108 O125 2.251 1_545 S
O109 Mn106 2.160 . S
O109 C120 1.239 . S
O110 Mn106 2.221 . S
O110 Mn111 2.290 . S
O110 C121 1.278 . S
Mn111 O110 2.290 . S
Mn111 O113 2.089 . S
Mn111 O116 2.251 . S
Mn111 O117 2.087 1_545 S
O112 Mn106 2.163 1_565 S
O112 C122 1.244 . S
O113 Mn111 2.089 . S
O113 C120 1.256 . S
O114 Mn106 2.160 . S
O114 C123 1.239 . S
O115 Mn108 2.089 . S
O115 C123 1.256 . S
O116 Mn111 2.251 . S
O116 C121 1.241 . S
O117 Mn111 2.087 1_565 S
O117 C122 1.256 . S
C118 O124 1.278 1_565 S
C118 O125 1.241 . S
C119 O105 1.241 1_556 S
C119 O107 1.253 1_556 S
C120 O109 1.239 . S
C120 O113 1.256 . S
C121 O110 1.278 . S
C121 O116 1.241 . S
C122 O112 1.244 . S
C122 O117 1.256 . S
C123 O114 1.239 . S
C123 O115 1.256 . S
O124 Mn106 2.221 . S
O124 Mn108 2.290 . S
O124 C118 1.278 1_545 S
O125 Mn108 2.251 1_565 S
O125 C118 1.241 . S
O126 Mn127 2.163 . S
O126 C140 1.241 1_554 S
Mn127 O126 2.163 . S
Mn127 O130 2.160 . S
Mn127 O131 2.221 . S
Mn127 O133 2.163 . S
Mn127 O135 2.160 . S
Mn127 O145 2.221 . S
O128 Mn129 2.087 . S
O128 C140 1.253 1_554 S
Mn129 O128 2.087 . S
Mn129 O136 2.089 . S
Mn129 O145 2.290 . S
Mn129 O146 2.251 . S
O130 Mn127 2.160 . S
O130 C141 1.239 . S
O131 Mn127 2.221 . S
O131 Mn132 2.290 . S
O131 C142 1.278 . S
Mn132 O131 2.290 . S
Mn132 O134 2.089 . S
Mn132 O137 2.251 . S
Mn132 O138 2.087 . S
O133 Mn127 2.163 . S
O133 C143 1.244 . S
O134 Mn132 2.089 . S
O134 C141 1.256 . S
O135 Mn127 2.160 . S
O135 C144 1.239 . S
O136 Mn129 2.089 . S
O136 C144 1.256 . S
O137 Mn132 2.251 . S
O137 C142 1.241 . S
O138 Mn132 2.087 . S
O138 C143 1.256 . S
C139 O145 1.278 . S
C139 O146 1.241 . S
C140 O126 1.241 1_556 S
C140 O128 1.253 1_556 S
C141 O130 1.239 . S
C141 O134 1.256 . S
C142 O131 1.278 . S
C142 O137 1.241 . S
C143 O133 1.244 . S
C143 O138 1.256 . S
C144 O135 1.239 . S
C144 O136 1.256 . S
O145 Mn127 2.221 . S
O145 Mn129 2.290 . S
O145 C139 1.278 . S
O146 Mn129 2.251 . S
O146 C139 1.241 . S
O147 Mn148 2.163 . S
O147 C161 1.241 1_554 S
Mn148 O147 2.163 . S
Mn148 O151 2.160 . S
Mn148 O152 2.221 . S
Mn148 O154 2.163 . S
Mn148 O156 2.160 . S
Mn148 O166 2.221 . S
O149 Mn150 2.087 . S
O149 C161 1.253 1_554 S
Mn150 O149 2.087 . S
Mn150 O157 2.089 . S
Mn150 O166 2.290 . S
Mn150 O167 2.251 . S
O151 Mn148 2.160 . S
O151 C162 1.239 . S
O152 Mn148 2.221 . S
O152 Mn153 2.290 1_655 S
O152 C163 1.278 . S
Mn153 O152 2.290 1_455 S
Mn153 O155 2.089 1_455 S
Mn153 O158 2.251 . S
Mn153 O159 2.087 1_455 S
O154 Mn148 2.163 . S
O154 C164 1.244 . S
O155 Mn153 2.089 1_655 S
O155 C162 1.256 . S
O156 Mn148 2.160 . S
O156 C165 1.239 . S
O157 Mn150 2.089 . S
O157 C165 1.256 . S
O158 Mn153 2.251 . S
O158 C163 1.241 1_455 S
O159 Mn153 2.087 1_655 S
O159 C164 1.256 . S
C160 O166 1.278 . S
C160 O167 1.241 . S
C161 O147 1.241 1_556 S
C161 O149 1.253 1_556 S
C162 O151 1.239 . S
C162 O155 1.256 . S
C163 O152 1.278 . S
C163 O158 1.241 1_655 S
C164 O154 1.244 . S
C164 O159 1.256 . S
C165 O156 1.239 . S
C165 O157 1.256 . S
O166 Mn148 2.221 . S
O166 Mn150 2.290 . S
O166 C160 1.278 . S
O167 Mn150 2.251 . S
O167 C160 1.241 . S
O168 Mn169 2.163 . S
O168 C182 1.244 . S
Mn169 O168 2.163 . S
Mn169 O172 2.160 . S
Mn169 O173 2.221 . S
Mn169 O175 2.163 . S
Mn169 O177 2.160 . S
Mn169 O187 2.221 . S
O170 Mn171 2.087 . S
O170 C182 1.256 . S
Mn171 O170 2.087 . S
Mn171 O178 2.089 . S
Mn171 O187 2.290 . S
Mn171 O188 2.251 . S
O172 Mn169 2.160 . S
O172 C183 1.239 . S
O173 Mn169 2.221 . S
O173 Mn174 2.290 1_565 S
O173 C184 1.278 . S
Mn174 O173 2.290 1_545 S
Mn174 O176 2.089 1_545 S
Mn174 O179 2.251 . S
Mn174 O180 2.087 1_545 S
O175 Mn169 2.163 . S
O175 C185 1.244 . S
O176 Mn174 2.089 1_565 S
O176 C183 1.256 . S
O177 Mn169 2.160 . S
O177 C186 1.239 . S
O178 Mn171 2.089 . S
O178 C186 1.256 . S
O179 Mn174 2.251 . S
O179 C184 1.241 1_545 S
O180 Mn174 2.087 1_565 S
O180 C185 1.256 . S
C181 O187 1.278 . S
C181 O188 1.241 . S
C182 O168 1.244 . S
C182 O170 1.256 . S
C183 O172 1.239 . S
C183 O176 1.256 . S
C184 O173 1.278 . S
C184 O179 1.241 1_565 S
C185 O175 1.244 . S
C185 O180 1.256 . S
C186 O177 1.239 . S
C186 O178 1.256 . S
O187 Mn169 2.221 . S
O187 Mn171 2.290 . S
O187 C181 1.278 . S
O188 Mn171 2.251 . S
O188 C181 1.241 . S
O189 Mn190 2.163 . S
O189 C203 1.244 . S
Mn190 O189 2.163 . S
Mn190 O193 2.160 . S
Mn190 O194 2.221 . S
Mn190 O196 2.163 . S
Mn190 O198 2.160 . S
Mn190 O208 2.221 . S
O191 Mn192 2.087 . S
O191 C203 1.256 . S
Mn192 O191 2.087 . S
Mn192 O199 2.089 . S
Mn192 O208 2.290 . S
Mn192 O209 2.251 . S
O193 Mn190 2.160 . S
O193 C204 1.239 . S
O194 Mn190 2.221 . S
O194 Mn195 2.290 . S
O194 C205 1.278 . S
Mn195 O194 2.290 . S
Mn195 O197 2.089 . S
Mn195 O200 2.251 . S
Mn195 O201 2.087 . S
O196 Mn190 2.163 . S
O196 C206 1.244 . S
O197 Mn195 2.089 . S
O197 C204 1.256 . S
O198 Mn190 2.160 . S
O198 C207 1.239 . S
O199 Mn192 2.089 . S
O199 C207 1.256 . S
O200 Mn195 2.251 . S
O200 C205 1.241 . S
O201 Mn195 2.087 . S
O201 C206 1.256 . S
C202 O208 1.278 . S
C202 O209 1.241 . S
C203 O189 1.244 . S
C203 O191 1.256 . S
C204 O193 1.239 . S
C204 O197 1.256 . S
C205 O194 1.278 . S
C205 O200 1.241 . S
C206 O196 1.244 . S
C206 O201 1.256 . S
C207 O198 1.239 . S
C207 O199 1.256 . S
O208 Mn190 2.221 . S
O208 Mn192 2.290 . S
O208 C202 1.278 . S
O209 Mn192 2.251 . S
O209 C202 1.241 . S
O210 Mn211 2.163 . S
O210 C224 1.244 . S
Mn211 O210 2.163 . S
Mn211 O214 2.160 . S
Mn211 O215 2.221 . S
Mn211 O217 2.163 1_455 S
Mn211 O219 2.160 . S
Mn211 O229 2.221 . S
O212 Mn213 2.087 . S
O212 C224 1.256 . S
Mn213 O212 2.087 . S
Mn213 O220 2.089 . S
Mn213 O229 2.290 . S
Mn213 O230 2.251 1_455 S
O214 Mn211 2.160 . S
O214 C225 1.239 . S
O215 Mn211 2.221 . S
O215 Mn216 2.290 . S
O215 C226 1.278 . S
Mn216 O215 2.290 . S
Mn216 O218 2.089 . S
Mn216 O221 2.251 . S
Mn216 O222 2.087 1_455 S
O217 Mn211 2.163 1_655 S
O217 C227 1.244 . S
O218 Mn216 2.089 . S
O218 C225 1.256 . S
O219 Mn211 2.160 . S
O219 C228 1.239 . S
O220 Mn213 2.089 . S
O220 C228 1.256 . S
O221 Mn216 2.251 . S
O221 C226 1.241 . S
O222 Mn216 2.087 1_655 S
O222 C227 1.256 . S
C223 O229 1.278 1_655 S
C223 O230 1.241 . S
C224 O210 1.244 . S
C224 O212 1.256 . S
C225 O214 1.239 . S
C225 O218 1.256 . S
C226 O215 1.278 . S
C226 O221 1.241 . S
C227 O217 1.244 . S
C227 O222 1.256 . S
C228 O219 1.239 . S
C228 O220 1.256 . S
O229 Mn211 2.221 . S
O229 Mn213 2.290 . S
O229 C223 1.278 1_455 S
O230 Mn213 2.251 1_655 S
O230 C223 1.241 . S
O231 Mn232 2.163 . S
O231 C245 1.244 . S
Mn232 O231 2.163 . S
Mn232 O235 2.160 . S
Mn232 O236 2.221 . S
Mn232 O238 2.163 1_545 S
Mn232 O240 2.160 . S
Mn232 O250 2.221 . S
O233 Mn234 2.087 . S
O233 C245 1.256 . S
Mn234 O233 2.087 . S
Mn234 O241 2.089 . S
Mn234 O250 2.290 . S
Mn234 O251 2.251 1_545 S
O235 Mn232 2.160 . S
O235 C246 1.239 . S
O236 Mn232 2.221 . S
O236 Mn237 2.290 1_655 S
O236 C247 1.278 . S
Mn237 O236 2.290 1_455 S
Mn237 O239 2.089 1_455 S
Mn237 O242 2.251 . S
Mn237 O243 2.087 1_445 S
O238 Mn232 2.163 1_565 S
O238 C248 1.244 . S
O239 Mn237 2.089 1_655 S
O239 C246 1.256 . S
O240 Mn232 2.160 . S
O240 C249 1.239 . S
O241 Mn234 2.089 . S
O241 C249 1.256 . S
O242 Mn237 2.251 . S
O242 C247 1.241 1_455 S
O243 Mn237 2.087 1_665 S
O243 C248 1.256 . S
C244 O250 1.278 1_565 S
C244 O251 1.241 . S
C245 O231 1.244 . S
C245 O233 1.256 . S
C246 O235 1.239 . S
C246 O239 1.256 . S
C247 O236 1.278 . S
C247 O242 1.241 1_655 S
C248 O238 1.244 . S
C248 O243 1.256 . S
C249 O240 1.239 . S
C249 O241 1.256 . S
O250 Mn232 2.221 . S
O250 Mn234 2.290 . S
O250 C244 1.278 1_545 S
O251 Mn234 2.251 1_565 S
O251 C244 1.241 . S
O252 Mn253 2.163 . S
O252 C266 1.241 1_556 S
Mn253 O252 2.163 . S
Mn253 O256 2.160 . S
Mn253 O257 2.221 . S
Mn253 O259 2.163 1_655 S
Mn253 O261 2.160 . S
Mn253 O271 2.221 . S
O254 Mn255 2.087 . S
O254 C266 1.253 1_556 S
Mn255 O254 2.087 . S
Mn255 O262 2.089 . S
Mn255 O271 2.290 . S
Mn255 O272 2.251 1_655 S
O256 Mn253 2.160 . S
O256 C267 1.239 . S
O257 Mn253 2.221 . S
O257 Mn258 2.290 1_545 S
O257 C268 1.278 . S
Mn258 O257 2.290 1_565 S
Mn258 O260 2.089 1_565 S
Mn258 O263 2.251 . S
Mn258 O264 2.087 1_665 S
O259 Mn253 2.163 1_455 S
O259 C269 1.244 . S
O260 Mn258 2.089 1_545 S
O260 C267 1.256 . S
O261 Mn253 2.160 . S
O261 C270 1.239 . S
O262 Mn255 2.089 . S
O262 C270 1.256 . S
O263 Mn258 2.251 . S
O263 C268 1.241 1_565 S
O264 Mn258 2.087 1_445 S
O264 C269 1.256 . S
C265 O271 1.278 1_455 S
C265 O272 1.241 . S
C266 O252 1.241 1_554 S
C266 O254 1.253 1_554 S
C267 O256 1.239 . S
C267 O260 1.256 . S
C268 O257 1.278 . S
C268 O263 1.241 1_545 S
C269 O259 1.244 . S
C269 O264 1.256 . S
C270 O261 1.239 . S
C270 O262 1.256 . S
O271 Mn253 2.221 . S
O271 Mn255 2.290 . S
O271 C265 1.278 1_655 S
O272 Mn255 2.251 1_455 S
O272 C265 1.241 . S
O273 Mn274 2.163 . S
O273 C287 1.241 1_556 S
Mn274 O273 2.163 . S
Mn274 O277 2.160 . S
Mn274 O278 2.221 . S
Mn274 O280 2.163 1_565 S
Mn274 O282 2.160 . S
Mn274 O292 2.221 . S
O275 Mn276 2.087 . S
O275 C287 1.253 1_556 S
Mn276 O275 2.087 . S
Mn276 O283 2.089 . S
Mn276 O292 2.290 . S
Mn276 O293 2.251 1_565 S
O277 Mn274 2.160 . S
O277 C288 1.239 . S
O278 Mn274 2.221 . S
O278 Mn279 2.290 . S
O278 C289 1.278 . S
Mn279 O278 2.290 . S
Mn279 O281 2.089 . S
Mn279 O284 2.251 . S
Mn279 O285 2.087 1_565 S
O280 Mn274 2.163 1_545 S
O280 C290 1.244 . S
O281 Mn279 2.089 . S
O281 C288 1.256 . S
O282 Mn274 2.160 . S
O282 C291 1.239 . S
O283 Mn276 2.089 . S
O283 C291 1.256 . S
O284 Mn279 2.251 . S
O284 C289 1.241 . S
O285 Mn279 2.087 1_545 S
O285 C290 1.256 . S
C286 O292 1.278 1_545 S
C286 O293 1.241 . S
C287 O273 1.241 1_554 S
C287 O275 1.253 1_554 S
C288 O277 1.239 . S
C288 O281 1.256 . S
C289 O278 1.278 . S
C289 O284 1.241 . S
C290 O280 1.244 . S
C290 O285 1.256 . S
C291 O282 1.239 . S
C291 O283 1.256 . S
O292 Mn274 2.221 . S
O292 Mn276 2.290 . S
O292 C286 1.278 1_565 S
O293 Mn276 2.251 1_545 S
O293 C286 1.241 . S
O294 Mn295 2.163 . S
O294 C308 1.241 1_556 S
Mn295 O294 2.163 . S
Mn295 O298 2.160 . S
Mn295 O299 2.221 . S
Mn295 O301 2.163 . S
Mn295 O303 2.160 . S
Mn295 O313 2.221 . S
O296 Mn297 2.087 . S
O296 C308 1.253 1_556 S
Mn297 O296 2.087 . S
Mn297 O304 2.089 . S
Mn297 O313 2.290 . S
Mn297 O314 2.251 . S
O298 Mn295 2.160 . S
O298 C309 1.239 . S
O299 Mn295 2.221 . S
O299 Mn300 2.290 . S
O299 C310 1.278 . S
Mn300 O299 2.290 . S
Mn300 O302 2.089 . S
Mn300 O305 2.251 . S
Mn300 O306 2.087 . S
O301 Mn295 2.163 . S
O301 C311 1.244 . S
O302 Mn300 2.089 . S
O302 C309 1.256 . S
O303 Mn295 2.160 . S
O303 C312 1.239 . S
O304 Mn297 2.089 . S
O304 C312 1.256 . S
O305 Mn300 2.251 . S
O305 C310 1.241 . S
O306 Mn300 2.087 . S
O306 C311 1.256 . S
C307 O313 1.278 . S
C307 O314 1.241 . S
C308 O294 1.241 1_554 S
C308 O296 1.253 1_554 S
C309 O298 1.239 . S
C309 O302 1.256 . S
C310 O299 1.278 . S
C310 O305 1.241 . S
C311 O301 1.244 . S
C311 O306 1.256 . S
C312 O303 1.239 . S
C312 O304 1.256 . S
O313 Mn295 2.221 . S
O313 Mn297 2.290 . S
O313 C307 1.278 . S
O314 Mn297 2.251 . S
O314 C307 1.241 . S
O315 Mn316 2.163 . S
O315 C329 1.241 1_556 S
Mn316 O315 2.163 . S
Mn316 O319 2.160 . S
Mn316 O320 2.221 . S
Mn316 O322 2.163 . S
Mn316 O324 2.160 . S
Mn316 O334 2.221 . S
O317 Mn318 2.087 . S
O317 C329 1.253 1_556 S
Mn318 O317 2.087 . S
Mn318 O325 2.089 . S
Mn318 O334 2.290 . S
Mn318 O335 2.251 . S
O319 Mn316 2.160 . S
O319 C330 1.239 . S
O320 Mn316 2.221 . S
O320 Mn321 2.290 1_455 S
O320 C331 1.278 . S
Mn321 O320 2.290 1_655 S
Mn321 O323 2.089 1_655 S
Mn321 O326 2.251 . S
Mn321 O327 2.087 1_655 S
O322 Mn316 2.163 . S
O322 C332 1.244 . S
O323 Mn321 2.089 1_455 S
O323 C330 1.256 . S
O324 Mn316 2.160 . S
O324 C333 1.239 . S
O325 Mn318 2.089 . S
O325 C333 1.256 . S
O326 Mn321 2.251 . S
O326 C331 1.241 1_655 S
O327 Mn321 2.087 1_455 S
O327 C332 1.256 . S
C328 O334 1.278 . S
C328 O335 1.241 . S
C329 O315 1.241 1_554 S
C329 O317 1.253 1_554 S
C330 O319 1.239 . S
C330 O323 1.256 . S
C331 O320 1.278 . S
C331 O326 1.241 1_455 S
C332 O322 1.244 . S
C332 O327 1.256 . S
C333 O324 1.239 . S
C333 O325 1.256 . S
O334 Mn316 2.221 . S
O334 Mn318 2.290 . S
O334 C328 1.278 . S
O335 Mn318 2.251 . S
O335 C328 1.241 . S
C18 C120 1.947 . S
C141 C39 1.947 . S
C57 C162 1.947 . S
C78 C99 1.947 . S
C288 C183 1.947 . S
C309 C204 1.947 . S
C225 C330 1.947 . S
C246 C267 1.947 . S
C14 C76 1.589 . S
C35 C16 1.589 . S
C59 C37 1.589 . S
C80 C55 1.589 . S
C101 C118 1.589 . S
C139 C122 1.589 . S
C143 C160 1.589 . S
C97 C164 1.589 . S
C244 C185 1.589 . S
C206 C181 1.589 . S
C227 C202 1.589 . S
C248 C223 1.589 . S
C269 C286 1.589 . S
C290 C307 1.589 . S
C311 C328 1.589 . S
C332 C265 1.589 . S
C15 C60 1.844 . S
C36 C81 1.844 . S
C144 C102 1.844 . S
C165 C123 1.844 . S
C228 C186 1.844 . S
C249 C207 1.844 . S
C270 C312 1.844 . S
C291 C333 1.844 . S
C13 C245 1.733 . S
C182 C34 1.733 . S
C58 C203 1.733 . S
C224 C79 1.733 . S
C287 C100 1.737 . S
C121 C308 1.737 . S
C329 C142 1.737 . S
C163 C266 1.737 . S
C184 C77 1.733 . S
C205 C17 1.733 . S
C38 C226 1.733 . S
C247 C56 1.733 . S
C268 C119 1.737 . S
C289 C140 1.737 . S
C161 C310 1.737 . S
C98 C331 1.737 . S
