# Generated by pormake.
# Topology wjf, (4)-cn, num edge types: 1
# Building blocks:
#     Node 0, Type 0, BuildingBlock: AZAVOO_clean_sbu_0, # of connection points: 4
#     Node 1, Type 0, BuildingBlock: AZAVOO_clean_sbu_0, # of connection points: 4
#     Node 2, Type 0, BuildingBlock: AZAVOO_clean_sbu_0, # of connection points: 4
#     Node 3, Type 0, BuildingBlock: AZAVOO_clean_sbu_0, # of connection points: 4
#     Node 4, Type 0, BuildingBlock: AZAVOO_clean_sbu_0, # of connection points: 4
#     Node 5, Type 0, BuildingBlock: AZAVOO_clean_sbu_0, # of connection points: 4
#     Node 6, Type 0, BuildingBlock: AZAVOO_clean_sbu_0, # of connection points: 4
#     Node 7, Type 0, BuildingBlock: AZAVOO_clean_sbu_0, # of connection points: 4
#     Node 8, Type 0, BuildingBlock: AZAVOO_clean_sbu_0, # of connection points: 4
#     Node 9, Type 0, BuildingBlock: AZAVOO_clean_sbu_0, # of connection points: 4
#     Node 10, Type 0, BuildingBlock: AZAVOO_clean_sbu_0, # of connection points: 4
#     Node 11, Type 0, BuildingBlock: AZAVOO_clean_sbu_0, # of connection points: 4
#     Edge 12, Type (0, 0), BuildingBlock: OJICUG_clean_linker_0, # of connection points: 2
#     Edge 13, Type (0, 0), BuildingBlock: OJICUG_clean_linker_0, # of connection points: 2
#     Edge 14, Type (0, 0), BuildingBlock: OJICUG_clean_linker_0, # of connection points: 2
#     Edge 15, Type (0, 0), BuildingBlock: OJICUG_clean_linker_0, # of connection points: 2
#     Edge 16, Type (0, 0), BuildingBlock: OJICUG_clean_linker_0, # of connection points: 2
#     Edge 17, Type (0, 0), BuildingBlock: OJICUG_clean_linker_0, # of connection points: 2
#     Edge 18, Type (0, 0), BuildingBlock: OJICUG_clean_linker_0, # of connection points: 2
#     Edge 19, Type (0, 0), BuildingBlock: OJICUG_clean_linker_0, # of connection points: 2
#     Edge 20, Type (0, 0), BuildingBlock: OJICUG_clean_linker_0, # of connection points: 2
#     Edge 21, Type (0, 0), BuildingBlock: OJICUG_clean_linker_0, # of connection points: 2
#     Edge 22, Type (0, 0), BuildingBlock: OJICUG_clean_linker_0, # of connection points: 2
#     Edge 23, Type (0, 0), BuildingBlock: OJICUG_clean_linker_0, # of connection points: 2
#     Edge 24, Type (0, 0), BuildingBlock: OJICUG_clean_linker_0, # of connection points: 2
#     Edge 25, Type (0, 0), BuildingBlock: OJICUG_clean_linker_0, # of connection points: 2
#     Edge 26, Type (0, 0), BuildingBlock: OJICUG_clean_linker_0, # of connection points: 2
#     Edge 27, Type (0, 0), BuildingBlock: OJICUG_clean_linker_0, # of connection points: 2
#     Edge 28, Type (0, 0), BuildingBlock: OJICUG_clean_linker_0, # of connection points: 2
#     Edge 29, Type (0, 0), BuildingBlock: OJICUG_clean_linker_0, # of connection points: 2
#     Edge 30, Type (0, 0), BuildingBlock: OJICUG_clean_linker_0, # of connection points: 2
#     Edge 31, Type (0, 0), BuildingBlock: OJICUG_clean_linker_0, # of connection points: 2
#     Edge 32, Type (0, 0), BuildingBlock: OJICUG_clean_linker_0, # of connection points: 2
#     Edge 33, Type (0, 0), BuildingBlock: OJICUG_clean_linker_0, # of connection points: 2
#     Edge 34, Type (0, 0), BuildingBlock: OJICUG_clean_linker_0, # of connection points: 2
#     Edge 35, Type (0, 0), BuildingBlock: OJICUG_clean_linker_0, # of connection points: 2
# Relax obj value: 0.270
# Max RMSD: 0.299
# Mean RMSD: 0.282
data_MOF--net-wjf--node1-AZAVOO_clean_sbu_0--edge1-OJICUG_clean_linker_0
_symmetry_space_group_name_H-M    P1
_symmetry_Int_Tables_number       1
_symmetry_cell_setting            triclinic
loop_
_symmetry_equiv_pos_as_xyz
'x, y, z'
_cell_length_a     36.771061
_cell_length_b     38.287449
_cell_length_c     19.369928
_cell_angle_alpha  91.910179
_cell_angle_beta   89.790476
_cell_angle_gamma 118.77014
loop_
_atom_site_label
_atom_site_type_symbol
_atom_site_fract_x
_atom_site_fract_y
_atom_site_fract_z
_atom_type_partial_charge
Mg0 Mg 0.32399 0.34735 0.08045 0.0
O1 O 0.3203 0.31409 0.97915 0.0
O2 O 0.36629 0.29201 0.98109 0.0
Mg3 Mg 0.40229 0.31413 0.08363 0.0
C4 C 0.33741 0.29532 0.9508 0.0
C5 C 0.26615 0.38014 0.04368 0.0
O6 O 0.30104 0.41174 0.06274 0.0
O7 O 0.2924 0.28967 0.14026 0.0
O8 O 0.34504 0.27633 0.14818 0.0
O9 O 0.37239 0.40443 0.03804 0.0
O10 O 0.38694 0.36326 0.09375 0.0
C11 C 0.30847 0.26936 0.16431 0.0
C12 C 0.39996 0.39596 0.06163 0.0
O13 O 0.26329 0.3459 0.04923 0.0
Mg14 Mg 0.91878 0.35512 0.40273 0.0
O15 O 0.94166 0.3384 0.30417 0.0
O16 O 0.01048 0.36551 0.30969 0.0
Mg17 Mg 0.03217 0.40205 0.41138 0.0
C18 C 0.97593 0.34432 0.2781 0.0
C19 C 0.83821 0.30316 0.31316 0.0
O20 O 0.86107 0.32638 0.26431 0.0
O21 O 0.93119 0.31255 0.46678 0.0
O22 O 0.00027 0.34652 0.4767 0.0
O23 O 0.92485 0.40988 0.35601 0.0
O24 O 0.97504 0.40761 0.41489 0.0
C25 C 0.96535 0.31709 0.49208 0.0
C26 C 0.96259 0.42797 0.37988 0.0
O27 O 0.85308 0.30772 0.37408 0.0
Mg28 Mg 0.5975 0.89995 0.7095 0.0
O29 O 0.55161 0.92298 0.68629 0.0
O30 O 0.52663 0.90215 0.57923 0.0
Mg31 Mg 0.55439 0.86481 0.53432 0.0
C32 C 0.52884 0.92144 0.6354 0.0
C33 C 0.63783 0.93906 0.84587 0.0
O34 O 0.6678 0.94009 0.80735 0.0
O35 O 0.54549 0.83671 0.72558 0.0
O36 O 0.52469 0.81791 0.61578 0.0
O37 O 0.64753 0.95337 0.66226 0.0
O38 O 0.60836 0.89676 0.60408 0.0
C39 C 0.52283 0.81035 0.67978 0.0
C40 C 0.63664 0.93352 0.60376 0.0
O41 O 0.60091 0.92103 0.82187 0.0
Mg42 Mg 0.64327 0.56688 0.13606 0.0
O43 O 0.64232 0.5987 0.03967 0.0
O44 O 0.58874 0.61068 0.04401 0.0
Mg45 Mg 0.55357 0.5845 0.14319 0.0
C46 C 0.62033 0.61246 0.01334 0.0
C47 C 0.71343 0.55234 0.08053 0.0
O48 O 0.68116 0.51647 0.078 0.0
O49 O 0.66562 0.62296 0.20673 0.0
O50 O 0.60724 0.62709 0.21495 0.0
O51 O 0.60249 0.50836 0.08111 0.0
O52 O 0.57846 0.54221 0.14269 0.0
C53 C 0.64479 0.63872 0.23332 0.0
C54 C 0.57114 0.51209 0.10228 0.0
O55 O 0.70928 0.581 0.1072 0.0
Mg56 Mg 0.09351 0.66927 0.45603 0.0
O57 O 0.06487 0.68043 0.36073 0.0
O58 O -0.00394 0.64348 0.36297 0.0
Mg59 Mg 0.98021 0.60753 0.46079 0.0
C60 C 0.02911 0.66856 0.33372 0.0
C61 C 0.16747 0.72503 0.36915 0.0
O62 O 0.14584 0.69525 0.32521 0.0
O63 O 0.07292 0.7052 0.52778 0.0
O64 O 0.00506 0.66286 0.53348 0.0
O65 O 0.09652 0.61919 0.39892 0.0
O66 O 0.04251 0.61228 0.45974 0.0
C67 C 0.03716 0.69515 0.55304 0.0
C68 C 0.05885 0.59678 0.41855 0.0
O69 O 0.15474 0.7236 0.43074 0.0
Mg70 Mg 0.44066 0.09602 0.71987 0.0
O71 O 0.46047 0.04908 0.68776 0.0
O72 O 0.48136 0.05724 0.57756 0.0
Mg73 Mg 0.48612 0.11587 0.54331 0.0
C74 C 0.473 0.03822 0.63359 0.0
C75 C 0.39693 0.07143 0.85454 0.0
O76 O 0.37541 0.08405 0.81903 0.0
O77 O 0.5085 0.14173 0.73981 0.0
O78 O 0.53017 0.14437 0.63606 0.0
O79 O 0.3793 0.05837 0.66935 0.0
O80 O 0.43324 0.10341 0.61373 0.0
C81 C 0.51886 0.16038 0.68393 0.0
C82 C 0.3956 0.07477 0.61183 0.0
O83 O 0.43009 0.07436 0.82898 0.0
Mg84 Mg 0.54386 0.60932 0.59701 0.0
O85 O 0.58139 0.62012 0.69563 0.0
O86 O 0.61917 0.58903 0.68767 0.0
Mg87 Mg 0.60243 0.55461 0.58335 0.0
C88 C 0.60759 0.61119 0.72098 0.0
C89 C 0.497 0.65611 0.64652 0.0
O90 O 0.4636 0.6224 0.63009 0.0
O91 O 0.6012 0.65015 0.53459 0.0
O92 O 0.63086 0.6114 0.52111 0.0
O93 O 0.49123 0.55518 0.63974 0.0
O94 O 0.54228 0.5547 0.57958 0.0
C95 C 0.62882 0.64288 0.50772 0.0
C96 C 0.50873 0.53547 0.61381 0.0
O97 O 0.53274 0.65989 0.63487 0.0
Mg98 Mg 0.95478 0.60891 0.91079 0.0
O99 O 0.98334 0.64195 0.01246 0.0
O100 O 0.05148 0.66399 0.01133 0.0
Mg101 Mg 0.06621 0.64178 0.90935 0.0
C102 C 0.01904 0.66063 0.04123 0.0
C103 C 0.86374 0.57666 0.94394 0.0
O104 O 0.86671 0.5452 0.92266 0.0
O105 O 0.98171 0.6665 0.85072 0.0
O106 O 0.04772 0.67967 0.84367 0.0
O107 O 0.94517 0.55195 0.95429 0.0
O108 O 0.00165 0.59262 0.89898 0.0
C109 C 0.01831 0.68669 0.82697 0.0
C110 C 0.98145 0.56016 0.93171 0.0
O111 O 0.89562 0.61081 0.94087 0.0
Mg112 Mg 0.3239 0.95533 0.24593 0.0
O113 O 0.39132 0.97026 0.27592 0.0
O114 O 0.39565 0.96835 0.39118 0.0
Mg115 Mg 0.32921 0.92477 0.41843 0.0
C116 C 0.41257 0.97776 0.33202 0.0
C117 C 0.33085 -0.00893 0.10852 0.0
O118 O 0.30513 -0.00076 0.14389 0.0
O119 O 0.29885 0.88786 0.23154 0.0
O120 O 0.33505 0.89179 0.32321 0.0
O121 O 0.33887 0.01434 0.29278 0.0
O122 O 0.31003 0.95845 0.35039 0.0
C123 C 0.30598 0.87064 0.28068 0.0
C124 C 0.32676 -0.00325 0.35089 0.0
O125 O 0.344 0.96933 0.13525 0.0
Mg126 Mg 0.40147 0.29451 0.53093 0.0
O127 O 0.3625 0.27844 0.6289 0.0
O128 O 0.3254 0.31045 0.63069 0.0
Mg129 Mg 0.34071 0.34753 0.53452 0.0
C130 C 0.33668 0.28727 0.65804 0.0
C131 C 0.43179 0.24565 0.60991 0.0
O132 O 0.43172 0.27104 0.65708 0.0
O133 O 0.34515 0.25501 0.46162 0.0
O134 O 0.31431 0.29291 0.45974 0.0
O135 O 0.45229 0.3462 0.58722 0.0
O136 O 0.40157 0.34932 0.53166 0.0
C137 C 0.31714 0.26239 0.43828 0.0
C138 C 0.4342 0.36661 0.57085 0.0
O139 O 0.41888 0.24572 0.54906 0.0
Mg140 Mg 0.05257 0.38829 0.86325 0.0
O141 O 0.02006 0.35592 0.9595 0.0
O142 O 0.95434 0.34356 0.95714 0.0
Mg143 Mg 0.94515 0.37061 0.85957 0.0
C144 C 0.98432 0.34168 0.9865 0.0
C145 C 0.13852 0.40322 0.91201 0.0
O146 O 0.14287 0.43934 0.912 0.0
O147 O 0.01841 0.33242 0.79263 0.0
O148 O 0.95597 0.32852 0.78596 0.0
O149 O 0.07068 0.44681 0.91881 0.0
O150 O 0.01243 0.41285 0.85858 0.0
C151 C 0.98179 0.31691 0.76654 0.0
C152 C 0.03552 0.44309 0.89845 0.0
O153 O 0.10462 0.37418 0.88961 0.0
Mg154 Mg 0.6766 0.05619 0.25046 0.0
O155 O 0.60965 0.04211 0.2771 0.0
O156 O 0.61037 0.06112 0.38757 0.0
Mg157 Mg 0.67573 0.0873 0.43186 0.0
C158 C 0.59114 0.04592 0.33052 0.0
C159 C 0.68062 0.02659 0.10849 0.0
O160 O 0.7115 0.02772 0.14425 0.0
O161 O 0.69774 0.1231 0.24341 0.0
O162 O 0.69843 0.13742 0.35647 0.0
O163 O 0.66445 -0.00243 0.29022 0.0
O164 O 0.69002 0.05353 0.35354 0.0
C165 C 0.70493 0.14812 0.29393 0.0
C166 C 0.67676 0.01578 0.3499 0.0
O167 O 0.65862 0.04026 0.13692 0.0
C168 C 0.26591 0.25617 0.27042 0.0
C169 C 0.291 0.24654 0.22764 0.0
H170 H 0.25344 0.26744 0.37422 0.0
C171 C 0.31045 0.22635 0.2565 0.0
H172 H 0.24938 0.27062 0.24987 0.0
C173 C 0.313 0.22472 0.32826 0.0
C174 C 0.29599 0.24316 0.37158 0.0
H175 H 0.32883 0.21715 0.22462 0.0
H176 H 0.33332 0.21441 0.34904 0.0
C177 C 0.26839 0.25447 0.34218 0.0
C178 C 0.00219 0.30158 0.58414 0.0
C179 C 0.96449 0.29549 0.55488 0.0
H180 H 0.03729 0.31174 0.67733 0.0
C181 C 0.92911 0.28013 0.59652 0.0
H182 H 0.0298 0.3121 0.55304 0.0
C183 C 0.93342 0.27984 0.6682 0.0
C184 C 0.9731 0.29496 0.69871 0.0
H185 H 0.89925 0.27394 0.57553 0.0
H186 H 0.90669 0.27337 0.69983 0.0
C187 C 0.00647 0.30122 0.6558 0.0
C188 C 0.61929 0.96993 0.94733 0.0
C189 C 0.64793 0.96108 0.91343 0.0
H190 H 0.60742 -0.00154 0.03521 0.0
C191 C 0.68753 0.9751 0.94312 0.0
H192 H 0.58865 0.95984 0.92535 0.0
C193 C 0.69818 -0.00297 0.00565 0.0
C194 C 0.66968 0.00589 0.03976 0.0
H195 H 0.71037 0.96894 0.91826 0.0
H196 H 0.72884 0.00693 0.02739 0.0
C197 C 0.63017 -0.00762 0.0098 0.0
C198 C 0.68514 0.65468 0.34379 0.0
C199 C 0.65867 0.66137 0.30048 0.0
H200 H 0.69727 0.64483 0.44721 0.0
C201 C 0.63523 0.67803 0.33027 0.0
H202 H 0.7045 0.64286 0.32276 0.0
C203 C 0.63112 0.67925 0.40205 0.0
C204 C 0.65032 0.66365 0.44456 0.0
H205 H 0.61544 0.68474 0.29824 0.0
H206 H 0.60815 0.68665 0.42269 0.0
C207 C 0.68091 0.65575 0.41555 0.0
C208 C 0.06422 0.73009 0.7355 0.0
C209 C 0.02424 0.7095 0.76353 0.0
H210 H 0.10016 0.74295 0.64369 0.0
C211 C 0.98989 0.69971 0.72005 0.0
H212 H 0.0915 0.73932 0.76793 0.0
C213 C 0.99489 0.70184 0.6484 0.0
C214 C 0.03424 0.71386 0.61977 0.0
H215 H 0.95865 0.68488 0.73992 0.0
H216 H 0.96732 0.68873 0.61571 0.0
C217 C 0.06922 0.73228 0.66386 0.0
C218 C 0.38155 0.00967 0.01168 0.0
C219 C 0.34714 0.01029 0.04229 0.0
H220 H 0.42481 0.02911 0.92868 0.0
C221 C 0.32963 0.03142 0.01102 0.0
H222 H 0.39589 -0.00614 0.03487 0.0
C223 C 0.34615 0.05155 0.95046 0.0
C224 C 0.38073 0.05125 0.92006 0.0
H225 H 0.30316 0.03254 0.0334 0.0
H226 H 0.33181 0.06745 0.92759 0.0
C227 C 0.39832 0.03013 0.95123 0.0
C228 C 0.20789 0.42934 0.9693 0.0
C229 C 0.17123 0.39659 0.94365 0.0
H230 H 0.26602 0.44979 0.02132 0.0
C231 C 0.16563 0.35792 0.95175 0.0
H232 H 0.21324 0.45953 0.96416 0.0
C233 C 0.19611 0.35226 0.98504 0.0
C234 C 0.2327 0.38517 0.01087 0.0
H235 H 0.13762 0.33203 0.93288 0.0
H236 H 0.19107 0.32219 0.99032 0.0
C237 C 0.23816 0.42372 0.00248 0.0
C238 C 0.79228 0.24464 0.23644 0.0
C239 C 0.79773 0.26844 0.2964 0.0
H240 H 0.75717 0.18666 0.18756 0.0
C241 C 0.76632 0.25561 0.34554 0.0
H242 H 0.81616 0.25419 0.19764 0.0
C243 C 0.73215 0.21768 0.33885 0.0
C244 C 0.72954 0.19145 0.28408 0.0
H245 H 0.76956 0.27386 0.39151 0.0
H246 H 0.70998 0.20751 0.38041 0.0
C247 C 0.75836 0.20611 0.23042 0.0
C248 C 0.47113 0.73962 0.65355 0.0
C249 C 0.50407 0.76786 0.69537 0.0
H250 H 0.44266 0.68098 0.6057 0.0
C251 C 0.52779 0.75539 0.73379 0.0
H252 H 0.45248 0.74858 0.62331 0.0
C253 C 0.5232 0.71735 0.72167 0.0
C254 C 0.49384 0.69093 0.67304 0.0
H255 H 0.55349 0.77649 0.76614 0.0
H256 H 0.54468 0.70968 0.74638 0.0
C257 C 0.46578 0.70112 0.64294 0.0
C258 C 0.75542 0.52698 0.01626 0.0
C259 C 0.75253 0.55928 0.04706 0.0
H260 H 0.79224 0.50722 0.95909 0.0
C261 C 0.78643 0.59787 0.04254 0.0
H262 H 0.72989 0.49686 0.01842 0.0
C263 C 0.82246 0.60389 0.00796 0.0
C264 C 0.82519 0.57142 0.97728 0.0
H265 H 0.78509 0.62343 0.06539 0.0
H266 H 0.84822 0.63387 0.00574 0.0
C267 C 0.79121 0.53296 0.98182 0.0
C268 C 0.23499 0.78651 0.3934 0.0
C269 C 0.20457 0.76068 0.34569 0.0
H270 H 0.29155 0.84095 0.40989 0.0
C271 C 0.20918 0.76982 0.2754 0.0
H272 H 0.23233 0.78003 0.44778 0.0
C273 C 0.24278 0.80509 0.25366 0.0
C274 C 0.27279 0.83138 0.30164 0.0
H275 H 0.18609 0.7504 0.23749 0.0
H276 H 0.24493 0.8121 0.19957 0.0
C277 C 0.26902 0.82128 0.37149 0.0
C278 C 0.49645 0.1934 0.59573 0.0
C279 C 0.49508 0.18078 0.66365 0.0
H280 H 0.4759 0.22227 0.52465 0.0
C281 C 0.47157 0.18885 0.71281 0.0
H282 H 0.51524 0.18888 0.55703 0.0
C283 C 0.45004 0.20891 0.69455 0.0
C284 C 0.45102 0.2209 0.6266 0.0
H285 H 0.47019 0.18012 0.76579 0.0
H286 H 0.43285 0.21536 0.73385 0.0
C287 C 0.47393 0.21252 0.57706 0.0
C288 C 0.30147 0.29036 0.76701 0.0
C289 C 0.32653 0.2775 0.73143 0.0
H290 H 0.28472 0.30553 0.86466 0.0
C291 C 0.34808 0.26239 0.76953 0.0
H292 H 0.28386 0.30153 0.73936 0.0
C293 C 0.34891 0.26504 0.84169 0.0
C294 C 0.32786 0.28245 0.87706 0.0
H295 H 0.36706 0.2515 0.74391 0.0
H296 H 0.3684 0.25603 0.86937 0.0
C297 C 0.30206 0.29274 0.8391 0.0
C298 C 0.01385 0.34176 0.17209 0.0
C299 C 0.97616 0.33205 0.20482 0.0
H300 H 0.04587 0.35139 0.07661 0.0
C301 C 0.93963 0.31642 0.16432 0.0
H302 H 0.04246 0.3531 0.20172 0.0
C303 C 0.94159 0.31578 0.09231 0.0
C304 C 0.98006 0.33025 0.05955 0.0
H305 H 0.90985 0.30759 0.18781 0.0
H306 H 0.91337 0.30675 0.06258 0.0
C307 C 0.01575 0.34068 0.1001 0.0
C308 C 0.63824 0.93223 0.47473 0.0
C309 C 0.65148 0.95374 0.53821 0.0
H310 H 0.63565 0.9351 0.36478 0.0
C311 C 0.67702 -0.00483 0.53844 0.0
H312 H 0.61964 0.9001 0.47277 0.0
C313 C 0.68687 0.01504 0.47661 0.0
C314 C 0.67096 -0.0061 0.41351 0.0
H315 H 0.68837 0.01249 0.58644 0.0
H316 H 0.70608 0.04712 0.47861 0.0
C317 C 0.64769 0.9522 0.41281 0.0
C318 C 0.59936 0.63747 0.83666 0.0
C319 C 0.61974 0.62175 0.79471 0.0
H320 H 0.58399 0.64743 0.93939 0.0
C321 C 0.64721 0.61104 0.82592 0.0
H322 H 0.57844 0.64663 0.81437 0.0
C323 C 0.65075 0.61197 0.89783 0.0
C324 C 0.62651 0.62319 0.93987 0.0
H325 H 0.66392 0.59944 0.79511 0.0
H326 H 0.66992 0.60078 0.92018 0.0
C327 C 0.60256 0.63801 0.90854 0.0
C328 C 0.9879 0.66138 0.22657 0.0
C329 C 0.02659 0.67758 0.26064 0.0
H330 H 0.95512 0.64393 0.12997 0.0
C331 C 0.06288 0.69594 0.22126 0.0
H332 H 0.95932 0.64759 0.25527 0.0
C333 C 0.0605 0.69342 0.14917 0.0
C334 C 0.02179 0.673 0.11513 0.0
H335 H 0.09326 0.70946 0.24574 0.0
H336 H 0.08905 0.7051 0.12037 0.0
C337 C 0.98553 0.65926 0.15449 0.0
C338 C 0.37317 0.05858 0.42009 0.0
C339 C 0.33982 0.01956 0.41707 0.0
H340 H 0.41706 0.10686 0.48477 0.0
C341 C 0.32213 0.00069 0.47873 0.0
H342 H 0.38741 0.07382 0.37331 0.0
C343 C 0.33905 0.01953 0.54237 0.0
C344 C 0.37418 0.05744 0.54538 0.0
H345 H 0.29617 0.9707 0.4778 0.0
H346 H 0.32575 0.0036 0.589 0.0
C347 C 0.39034 0.07733 0.48383 0.0
C348 C 0.45705 0.46608 0.05806 0.0
C349 C 0.44457 0.4252 0.06029 0.0
H350 H 0.50709 0.52578 0.07016 0.0
C351 C 0.47479 0.41326 0.06957 0.0
H352 H 0.43443 0.4762 0.05117 0.0
C353 C 0.51652 0.44174 0.0793 0.0
C354 C 0.52843 0.48253 0.0819 0.0
H355 H 0.4661 0.38199 0.07133 0.0
H356 H 0.53911 0.43184 0.08851 0.0
C357 C 0.49855 0.4945 0.06967 0.0
C358 C 0.05518 0.53094 0.39487 0.0
C359 C 0.03557 0.55458 0.3961 0.0
H360 H 0.04718 0.47173 0.38886 0.0
C361 C 0.99285 0.5368 0.38206 0.0
H362 H 0.08817 0.54413 0.40541 0.0
C363 C 0.96957 0.49558 0.37104 0.0
C364 C 0.98854 0.47147 0.37561 0.0
H365 H 0.97724 0.55458 0.38134 0.0
H366 H 0.93632 0.48244 0.3634 0.0
C367 C 0.03172 0.48957 0.38558 0.0
C368 C 0.49252 0.9535 0.577 0.0
C369 C 0.50834 0.94661 0.63805 0.0
H370 H 0.46863 -0.01241 0.52817 0.0
C371 C 0.50797 0.96709 0.6995 0.0
H372 H 0.49207 0.93819 0.52871 0.0
C373 C 0.49419 -0.00462 0.69898 0.0
C374 C 0.48113 0.0041 0.63685 0.0
H375 H 0.51971 0.96233 0.74749 0.0
H376 H 0.49582 0.01189 0.74646 0.0
C377 C 0.47933 0.98208 0.5764 0.0
C378 C 0.51322 0.47273 0.61683 0.0
C379 C 0.4889 0.49184 0.61642 0.0
H380 H 0.51455 0.41767 0.60425 0.0
C381 C 0.44566 0.46891 0.60879 0.0
H382 H 0.54657 0.48976 0.62326 0.0
C383 C 0.42736 0.42771 0.59634 0.0
C384 C 0.45198 0.40885 0.59313 0.0
H385 H 0.4263 0.48308 0.60801 0.0
H386 H 0.39421 0.41092 0.58742 0.0
C387 C 0.49484 0.43149 0.60617 0.0
C388 C 0.03884 0.54254 0.92614 0.0
C389 C -0.00334 0.53091 0.93528 0.0
H390 H 0.08435 0.52342 0.90911 0.0
C391 C 0.96809 0.49017 0.93982 0.0
H392 H 0.06156 0.57369 0.92268 0.0
C393 C 0.98097 0.46149 0.93038 0.0
C394 C 0.02279 0.47307 0.91805 0.0
H395 H 0.93536 0.48029 0.94676 0.0
H396 H 0.95807 0.43028 0.93135 0.0
C397 C 0.05189 0.51381 0.91855 0.0
C398 C 0.52175 0.01035 0.26897 0.0
C399 C 0.54565 0.03087 0.32802 0.0
H400 H 0.46073 0.97742 0.22376 0.0
C401 C 0.52539 0.0357 0.38643 0.0
H402 H 0.53631 0.00622 0.22301 0.0
C403 C 0.48234 0.01934 0.38665 0.0
C404 C 0.45835 -0.00246 0.3288 0.0
H405 H 0.54268 0.05171 0.43263 0.0
H406 H 0.46775 0.02371 0.43235 0.0
C407 C 0.47848 -0.00608 0.26931 0.0
loop_
_geom_bond_atom_site_label_1
_geom_bond_atom_site_label_2
_geom_bond_distance
_geom_bond_site_symmetry_2
_ccdc_geom_bond_type
Mg0 O1 2.028 1_554 S
Mg0 O7 1.986 . S
Mg0 O9 2.114 . S
Mg0 O10 2.251 . S
Mg0 O13 2.010 . S
O1 Mg0 2.028 1_556 S
O1 C4 1.250 . S
O2 Mg3 2.028 1_556 S
O2 C4 1.248 . S
Mg3 O2 2.028 1_554 S
Mg3 O8 2.032 . S
Mg3 O10 2.079 . S
C4 O1 1.250 . S
C4 O2 1.248 . S
C5 O6 1.264 . S
C5 O13 1.249 . S
O6 C5 1.264 . S
O7 Mg0 1.986 . S
O7 C11 1.246 . S
O8 Mg3 2.032 . S
O8 C11 1.259 . S
O9 Mg0 2.114 . S
O9 C12 1.252 . S
O10 Mg0 2.251 . S
O10 Mg3 2.079 . S
O10 C12 1.273 . S
C11 O7 1.246 . S
C11 O8 1.259 . S
C12 O9 1.252 . S
C12 O10 1.273 . S
O13 Mg0 2.010 . S
O13 C5 1.249 . S
Mg14 O15 2.028 . S
Mg14 O21 1.986 . S
Mg14 O23 2.114 . S
Mg14 O24 2.251 . S
Mg14 O27 2.010 . S
O15 Mg14 2.028 . S
O15 C18 1.250 . S
O16 Mg17 2.028 . S
O16 C18 1.248 1_455 S
Mg17 O16 2.028 . S
Mg17 O22 2.032 . S
Mg17 O24 2.079 1_455 S
C18 O15 1.250 . S
C18 O16 1.248 1_655 S
C19 O20 1.264 . S
C19 O27 1.249 . S
O20 C19 1.264 . S
O21 Mg14 1.986 . S
O21 C25 1.246 . S
O22 Mg17 2.032 . S
O22 C25 1.259 1_455 S
O23 Mg14 2.114 . S
O23 C26 1.252 . S
O24 Mg14 2.251 . S
O24 Mg17 2.079 1_655 S
O24 C26 1.273 . S
C25 O21 1.246 . S
C25 O22 1.259 1_655 S
C26 O23 1.252 . S
C26 O24 1.273 . S
O27 Mg14 2.010 . S
O27 C19 1.249 . S
Mg28 O29 2.028 . S
Mg28 O35 1.986 . S
Mg28 O37 2.114 1_565 S
Mg28 O38 2.251 . S
Mg28 O41 2.010 . S
O29 Mg28 2.028 . S
O29 C32 1.250 . S
O30 Mg31 2.028 . S
O30 C32 1.248 . S
Mg31 O30 2.028 . S
Mg31 O36 2.032 . S
Mg31 O38 2.079 . S
C32 O29 1.250 . S
C32 O30 1.248 . S
C33 O34 1.264 1_565 S
C33 O41 1.249 . S
O34 C33 1.264 1_545 S
O35 Mg28 1.986 . S
O35 C39 1.246 . S
O36 Mg31 2.032 . S
O36 C39 1.259 . S
O37 Mg28 2.114 1_545 S
O37 C40 1.252 1_545 S
O38 Mg28 2.251 . S
O38 Mg31 2.079 . S
O38 C40 1.273 . S
C39 O35 1.246 . S
C39 O36 1.259 . S
C40 O37 1.252 1_565 S
C40 O38 1.273 . S
O41 Mg28 2.010 . S
O41 C33 1.249 . S
Mg42 O43 2.028 1_554 S
Mg42 O49 1.986 . S
Mg42 O51 2.114 . S
Mg42 O52 2.251 . S
Mg42 O55 2.010 . S
O43 Mg42 2.028 1_556 S
O43 C46 1.250 . S
O44 Mg45 2.028 1_556 S
O44 C46 1.248 . S
Mg45 O44 2.028 1_554 S
Mg45 O50 2.032 . S
Mg45 O52 2.079 . S
C46 O43 1.250 . S
C46 O44 1.248 . S
C47 O48 1.264 . S
C47 O55 1.249 . S
O48 C47 1.264 . S
O49 Mg42 1.986 . S
O49 C53 1.246 . S
O50 Mg45 2.032 . S
O50 C53 1.259 . S
O51 Mg42 2.114 . S
O51 C54 1.252 . S
O52 Mg42 2.251 . S
O52 Mg45 2.079 . S
O52 C54 1.273 . S
C53 O49 1.246 . S
C53 O50 1.259 . S
C54 O51 1.252 . S
C54 O52 1.273 . S
O55 Mg42 2.010 . S
O55 C47 1.249 . S
Mg56 O57 2.028 . S
Mg56 O63 1.986 . S
Mg56 O65 2.114 . S
Mg56 O66 2.251 . S
Mg56 O69 2.010 . S
O57 Mg56 2.028 . S
O57 C60 1.250 . S
O58 Mg59 2.028 . S
O58 C60 1.248 1_655 S
Mg59 O58 2.028 . S
Mg59 O64 2.032 . S
Mg59 O66 2.079 1_655 S
C60 O57 1.250 . S
C60 O58 1.248 1_455 S
C61 O62 1.264 . S
C61 O69 1.249 . S
O62 C61 1.264 . S
O63 Mg56 1.986 . S
O63 C67 1.246 . S
O64 Mg59 2.032 . S
O64 C67 1.259 1_655 S
O65 Mg56 2.114 . S
O65 C68 1.252 . S
O66 Mg56 2.251 . S
O66 Mg59 2.079 1_455 S
O66 C68 1.273 . S
C67 O63 1.246 . S
C67 O64 1.259 1_455 S
C68 O65 1.252 . S
C68 O66 1.273 . S
O69 Mg56 2.010 . S
O69 C61 1.249 . S
Mg70 O71 2.028 . S
Mg70 O77 1.986 . S
Mg70 O79 2.114 1_545 S
Mg70 O80 2.251 . S
Mg70 O83 2.010 . S
O71 Mg70 2.028 . S
O71 C74 1.250 . S
O72 Mg73 2.028 . S
O72 C74 1.248 . S
Mg73 O72 2.028 . S
Mg73 O78 2.032 . S
Mg73 O80 2.079 . S
C74 O71 1.250 . S
C74 O72 1.248 . S
C75 O76 1.264 1_545 S
C75 O83 1.249 . S
O76 C75 1.264 1_565 S
O77 Mg70 1.986 . S
O77 C81 1.246 . S
O78 Mg73 2.032 . S
O78 C81 1.259 . S
O79 Mg70 2.114 1_565 S
O79 C82 1.252 1_565 S
O80 Mg70 2.251 . S
O80 Mg73 2.079 . S
O80 C82 1.273 . S
C81 O77 1.246 . S
C81 O78 1.259 . S
C82 O79 1.252 1_545 S
C82 O80 1.273 . S
O83 Mg70 2.010 . S
O83 C75 1.249 . S
Mg84 O85 2.028 . S
Mg84 O91 1.986 . S
Mg84 O93 2.114 . S
Mg84 O94 2.251 . S
Mg84 O97 2.010 . S
O85 Mg84 2.028 . S
O85 C88 1.250 . S
O86 Mg87 2.028 . S
O86 C88 1.248 . S
Mg87 O86 2.028 . S
Mg87 O92 2.032 . S
Mg87 O94 2.079 . S
C88 O85 1.250 . S
C88 O86 1.248 . S
C89 O90 1.264 . S
C89 O97 1.249 . S
O90 C89 1.264 . S
O91 Mg84 1.986 . S
O91 C95 1.246 . S
O92 Mg87 2.032 . S
O92 C95 1.259 . S
O93 Mg84 2.114 . S
O93 C96 1.252 . S
O94 Mg84 2.251 . S
O94 Mg87 2.079 . S
O94 C96 1.273 . S
C95 O91 1.246 . S
C95 O92 1.259 . S
C96 O93 1.252 . S
C96 O94 1.273 . S
O97 Mg84 2.010 . S
O97 C89 1.249 . S
Mg98 O99 2.028 1_556 S
Mg98 O105 1.986 . S
Mg98 O107 2.114 . S
Mg98 O108 2.251 . S
Mg98 O111 2.010 . S
O99 Mg98 2.028 1_554 S
O99 C102 1.250 1_655 S
O100 Mg101 2.028 1_554 S
O100 C102 1.248 . S
Mg101 O100 2.028 1_556 S
Mg101 O106 2.032 . S
Mg101 O108 2.079 1_455 S
C102 O99 1.250 1_455 S
C102 O100 1.248 . S
C103 O104 1.264 . S
C103 O111 1.249 . S
O104 C103 1.264 . S
O105 Mg98 1.986 . S
O105 C109 1.246 1_655 S
O106 Mg101 2.032 . S
O106 C109 1.259 . S
O107 Mg98 2.114 . S
O107 C110 1.252 . S
O108 Mg98 2.251 . S
O108 Mg101 2.079 1_655 S
O108 C110 1.273 . S
C109 O105 1.246 1_455 S
C109 O106 1.259 . S
C110 O107 1.252 . S
C110 O108 1.273 . S
O111 Mg98 2.010 . S
O111 C103 1.249 . S
Mg112 O113 2.028 . S
Mg112 O119 1.986 . S
Mg112 O121 2.114 1_565 S
Mg112 O122 2.251 . S
Mg112 O125 2.010 . S
O113 Mg112 2.028 . S
O113 C116 1.250 . S
O114 Mg115 2.028 . S
O114 C116 1.248 . S
Mg115 O114 2.028 . S
Mg115 O120 2.032 . S
Mg115 O122 2.079 . S
C116 O113 1.250 . S
C116 O114 1.248 . S
C117 O118 1.264 1_565 S
C117 O125 1.249 . S
O118 C117 1.264 1_545 S
O119 Mg112 1.986 . S
O119 C123 1.246 . S
O120 Mg115 2.032 . S
O120 C123 1.259 . S
O121 Mg112 2.114 1_545 S
O121 C124 1.252 1_545 S
O122 Mg112 2.251 . S
O122 Mg115 2.079 . S
O122 C124 1.273 . S
C123 O119 1.246 . S
C123 O120 1.259 . S
C124 O121 1.252 1_565 S
C124 O122 1.273 . S
O125 Mg112 2.010 . S
O125 C117 1.249 . S
Mg126 O127 2.028 . S
Mg126 O133 1.986 . S
Mg126 O135 2.114 . S
Mg126 O136 2.251 . S
Mg126 O139 2.010 . S
O127 Mg126 2.028 . S
O127 C130 1.250 . S
O128 Mg129 2.028 . S
O128 C130 1.248 . S
Mg129 O128 2.028 . S
Mg129 O134 2.032 . S
Mg129 O136 2.079 . S
C130 O127 1.250 . S
C130 O128 1.248 . S
C131 O132 1.264 . S
C131 O139 1.249 . S
O132 C131 1.264 . S
O133 Mg126 1.986 . S
O133 C137 1.246 . S
O134 Mg129 2.032 . S
O134 C137 1.259 . S
O135 Mg126 2.114 . S
O135 C138 1.252 . S
O136 Mg126 2.251 . S
O136 Mg129 2.079 . S
O136 C138 1.273 . S
C137 O133 1.246 . S
C137 O134 1.259 . S
C138 O135 1.252 . S
C138 O136 1.273 . S
O139 Mg126 2.010 . S
O139 C131 1.249 . S
Mg140 O141 2.028 1_556 S
Mg140 O147 1.986 . S
Mg140 O149 2.114 . S
Mg140 O150 2.251 . S
Mg140 O153 2.010 . S
O141 Mg140 2.028 1_554 S
O141 C144 1.250 1_455 S
O142 Mg143 2.028 1_554 S
O142 C144 1.248 . S
Mg143 O142 2.028 1_556 S
Mg143 O148 2.032 . S
Mg143 O150 2.079 1_655 S
C144 O141 1.250 1_655 S
C144 O142 1.248 . S
C145 O146 1.264 . S
C145 O153 1.249 . S
O146 C145 1.264 . S
O147 Mg140 1.986 . S
O147 C151 1.246 1_455 S
O148 Mg143 2.032 . S
O148 C151 1.259 . S
O149 Mg140 2.114 . S
O149 C152 1.252 . S
O150 Mg140 2.251 . S
O150 Mg143 2.079 1_455 S
O150 C152 1.273 . S
C151 O147 1.246 1_655 S
C151 O148 1.259 . S
C152 O149 1.252 . S
C152 O150 1.273 . S
O153 Mg140 2.010 . S
O153 C145 1.249 . S
Mg154 O155 2.028 . S
Mg154 O161 1.986 . S
Mg154 O163 2.114 1_545 S
Mg154 O164 2.251 . S
Mg154 O167 2.010 . S
O155 Mg154 2.028 . S
O155 C158 1.250 . S
O156 Mg157 2.028 . S
O156 C158 1.248 . S
Mg157 O156 2.028 . S
Mg157 O162 2.032 . S
Mg157 O164 2.079 . S
C158 O155 1.250 . S
C158 O156 1.248 . S
C159 O160 1.264 1_545 S
C159 O167 1.249 . S
O160 C159 1.264 1_565 S
O161 Mg154 1.986 . S
O161 C165 1.246 . S
O162 Mg157 2.032 . S
O162 C165 1.259 . S
O163 Mg154 2.114 1_565 S
O163 C166 1.252 1_565 S
O164 Mg154 2.251 . S
O164 Mg157 2.079 . S
O164 C166 1.273 . S
C165 O161 1.246 . S
C165 O162 1.259 . S
C166 O163 1.252 1_545 S
C166 O164 1.273 . S
O167 Mg154 2.010 . S
O167 C159 1.249 . S
C168 C169 1.387 . S
C168 H172 0.950 . S
C168 C177 1.390 . S
C169 C168 1.387 . S
C169 C171 1.387 . S
H170 C177 0.950 . S
C171 C169 1.387 . S
C171 C173 1.390 . S
C171 H175 0.950 . S
H172 C168 0.950 . S
C173 C171 1.390 . S
C173 C174 1.387 . S
C173 H176 0.950 . S
C174 C173 1.387 . S
C174 C177 1.387 . S
H175 C171 0.950 . S
H176 C173 0.950 . S
C177 C168 1.390 . S
C177 H170 0.950 . S
C177 C174 1.387 . S
C178 C179 1.387 1_455 S
C178 H182 0.950 . S
C178 C187 1.390 . S
C179 C178 1.387 1_655 S
C179 C181 1.387 . S
H180 C187 0.950 . S
C181 C179 1.387 . S
C181 C183 1.390 . S
C181 H185 0.950 . S
H182 C178 0.950 . S
C183 C181 1.390 . S
C183 C184 1.387 . S
C183 H186 0.950 . S
C184 C183 1.387 . S
C184 C187 1.387 1_655 S
H185 C181 0.950 . S
H186 C183 0.950 . S
C187 C178 1.390 . S
C187 H180 0.950 . S
C187 C184 1.387 1_455 S
C188 C189 1.387 1_545 S
C188 H192 0.950 . S
C188 C197 1.390 1_556 S
C189 C188 1.387 1_565 S
C189 C191 1.387 . S
H190 C197 0.950 . S
C191 C189 1.387 . S
C191 C193 1.390 1_556 S
C191 H195 0.950 . S
H192 C188 0.950 . S
C193 C191 1.390 1_554 S
C193 C194 1.387 1_565 S
C193 H196 0.950 . S
C194 C193 1.387 1_545 S
C194 C197 1.387 . S
H195 C191 0.950 . S
H196 C193 0.950 . S
C197 C188 1.390 1_554 S
C197 H190 0.950 . S
C197 C194 1.387 . S
C198 C199 1.387 . S
C198 H202 0.950 . S
C198 C207 1.390 . S
C199 C198 1.387 . S
C199 C201 1.387 . S
H200 C207 0.950 . S
C201 C199 1.387 . S
C201 C203 1.390 . S
C201 H205 0.950 . S
H202 C198 0.950 . S
C203 C201 1.390 . S
C203 C204 1.387 . S
C203 H206 0.950 . S
C204 C203 1.387 . S
C204 C207 1.387 . S
H205 C201 0.950 . S
H206 C203 0.950 . S
C207 C198 1.390 . S
C207 H200 0.950 . S
C207 C204 1.387 . S
C208 C209 1.387 . S
C208 H212 0.950 . S
C208 C217 1.390 . S
C209 C208 1.387 . S
C209 C211 1.387 1_455 S
H210 C217 0.950 . S
C211 C209 1.387 1_655 S
C211 C213 1.390 . S
C211 H215 0.950 . S
H212 C208 0.950 . S
C213 C211 1.390 . S
C213 C214 1.387 1_655 S
C213 H216 0.950 . S
C214 C213 1.387 1_455 S
C214 C217 1.387 . S
H215 C211 0.950 . S
H216 C213 0.950 . S
C217 C208 1.390 . S
C217 H210 0.950 . S
C217 C214 1.387 . S
C218 C219 1.387 . S
C218 H222 0.950 . S
C218 C227 1.390 1_554 S
C219 C218 1.387 . S
C219 C221 1.387 1_565 S
H220 C227 0.950 . S
C221 C219 1.387 1_545 S
C221 C223 1.390 1_554 S
C221 H225 0.950 . S
H222 C218 0.950 . S
C223 C221 1.390 1_556 S
C223 C224 1.387 . S
C223 H226 0.950 . S
C224 C223 1.387 . S
C224 C227 1.387 1_545 S
H225 C221 0.950 . S
H226 C223 0.950 . S
C227 C218 1.390 1_556 S
C227 H220 0.950 . S
C227 C224 1.387 1_565 S
C228 C229 1.387 . S
C228 H232 0.950 . S
C228 C237 1.390 1_556 S
C229 C228 1.387 . S
C229 C231 1.387 . S
H230 C237 0.950 . S
C231 C229 1.387 . S
C231 C233 1.390 1_556 S
C231 H235 0.950 . S
H232 C228 0.950 . S
C233 C231 1.390 1_554 S
C233 C234 1.387 . S
C233 H236 0.950 . S
C234 C233 1.387 . S
C234 C237 1.387 . S
H235 C231 0.950 . S
H236 C233 0.950 . S
C237 C228 1.390 1_554 S
C237 H230 0.950 . S
C237 C234 1.387 . S
C238 C239 1.387 . S
C238 H242 0.950 . S
C238 C247 1.390 . S
C239 C238 1.387 . S
C239 C241 1.387 . S
H240 C247 0.950 . S
C241 C239 1.387 . S
C241 C243 1.390 . S
C241 H245 0.950 . S
H242 C238 0.950 . S
C243 C241 1.390 . S
C243 C244 1.387 . S
C243 H246 0.950 . S
C244 C243 1.387 . S
C244 C247 1.387 . S
H245 C241 0.950 . S
H246 C243 0.950 . S
C247 C238 1.390 . S
C247 H240 0.950 . S
C247 C244 1.387 . S
C248 C249 1.387 . S
C248 H252 0.950 . S
C248 C257 1.390 . S
C249 C248 1.387 . S
C249 C251 1.387 . S
H250 C257 0.950 . S
C251 C249 1.387 . S
C251 C253 1.390 . S
C251 H255 0.950 . S
H252 C248 0.950 . S
C253 C251 1.390 . S
C253 C254 1.387 . S
C253 H256 0.950 . S
C254 C253 1.387 . S
C254 C257 1.387 . S
H255 C251 0.950 . S
H256 C253 0.950 . S
C257 C248 1.390 . S
C257 H250 0.950 . S
C257 C254 1.387 . S
C258 C259 1.387 . S
C258 H262 0.950 . S
C258 C267 1.390 1_554 S
C259 C258 1.387 . S
C259 C261 1.387 . S
H260 C267 0.950 . S
C261 C259 1.387 . S
C261 C263 1.390 1_554 S
C261 H265 0.950 . S
H262 C258 0.950 . S
C263 C261 1.390 1_556 S
C263 C264 1.387 . S
C263 H266 0.950 . S
C264 C263 1.387 . S
C264 C267 1.387 . S
H265 C261 0.950 . S
H266 C263 0.950 . S
C267 C258 1.390 1_556 S
C267 H260 0.950 . S
C267 C264 1.387 . S
C268 C269 1.387 . S
C268 H272 0.950 . S
C268 C277 1.390 . S
C269 C268 1.387 . S
C269 C271 1.387 . S
H270 C277 0.950 . S
C271 C269 1.387 . S
C271 C273 1.390 . S
C271 H275 0.950 . S
H272 C268 0.950 . S
C273 C271 1.390 . S
C273 C274 1.387 . S
C273 H276 0.950 . S
C274 C273 1.387 . S
C274 C277 1.387 . S
H275 C271 0.950 . S
H276 C273 0.950 . S
C277 C268 1.390 . S
C277 H270 0.950 . S
C277 C274 1.387 . S
C278 C279 1.387 . S
C278 H282 0.950 . S
C278 C287 1.390 . S
C279 C278 1.387 . S
C279 C281 1.387 . S
H280 C287 0.950 . S
C281 C279 1.387 . S
C281 C283 1.390 . S
C281 H285 0.950 . S
H282 C278 0.950 . S
C283 C281 1.390 . S
C283 C284 1.387 . S
C283 H286 0.950 . S
C284 C283 1.387 . S
C284 C287 1.387 . S
H285 C281 0.950 . S
H286 C283 0.950 . S
C287 C278 1.390 . S
C287 H280 0.950 . S
C287 C284 1.387 . S
C288 C289 1.387 . S
C288 H292 0.950 . S
C288 C297 1.390 . S
C289 C288 1.387 . S
C289 C291 1.387 . S
H290 C297 0.950 . S
C291 C289 1.387 . S
C291 C293 1.390 . S
C291 H295 0.950 . S
H292 C288 0.950 . S
C293 C291 1.390 . S
C293 C294 1.387 . S
C293 H296 0.950 . S
C294 C293 1.387 . S
C294 C297 1.387 . S
H295 C291 0.950 . S
H296 C293 0.950 . S
C297 C288 1.390 . S
C297 H290 0.950 . S
C297 C294 1.387 . S
C298 C299 1.382 . S
C298 H302 0.954 1_655 S
C298 C307 1.392 . S
C299 C298 1.382 . S
C299 C301 1.387 . S
H300 C307 0.950 . S
C301 C299 1.387 . S
C301 C303 1.390 . S
C301 H305 0.950 . S
H302 C298 0.954 1_455 S
C303 C301 1.390 . S
C303 C304 1.387 . S
C303 H306 0.950 . S
C304 C303 1.387 . S
C304 C307 1.387 . S
H305 C301 0.950 . S
H306 C303 0.950 . S
C307 C298 1.392 . S
C307 H300 0.950 . S
C307 C304 1.387 . S
C308 C309 1.387 . S
C308 H312 0.950 . S
C308 C317 1.390 1_545 S
C309 C308 1.387 . S
C309 C311 1.387 . S
H310 C317 0.950 . S
C311 C309 1.387 . S
C311 C313 1.390 1_545 S
C311 H315 0.950 . S
H312 C308 0.950 . S
C313 C311 1.390 1_565 S
C313 C314 1.387 . S
C313 H316 0.950 . S
C314 C313 1.387 . S
C314 C317 1.387 . S
H315 C311 0.950 . S
H316 C313 0.950 . S
C317 C308 1.390 1_565 S
C317 H310 0.950 . S
C317 C314 1.387 . S
C318 C319 1.387 . S
C318 H322 0.950 . S
C318 C327 1.390 . S
C319 C318 1.387 . S
C319 C321 1.387 . S
H320 C327 0.950 . S
C321 C319 1.387 . S
C321 C323 1.390 . S
C321 H325 0.950 . S
H322 C318 0.950 . S
C323 C321 1.390 . S
C323 C324 1.387 . S
C323 H326 0.950 . S
C324 C323 1.387 . S
C324 C327 1.387 . S
H325 C321 0.950 . S
H326 C323 0.950 . S
C327 C318 1.390 . S
C327 H320 0.950 . S
C327 C324 1.387 . S
C328 C329 1.387 1_655 S
C328 H332 0.950 . S
C328 C337 1.390 . S
C329 C328 1.387 1_455 S
C329 C331 1.387 . S
H330 C337 0.950 . S
C331 C329 1.387 . S
C331 C333 1.390 . S
C331 H335 0.950 . S
H332 C328 0.950 . S
C333 C331 1.390 . S
C333 C334 1.387 . S
C333 H336 0.950 . S
C334 C333 1.387 . S
C334 C337 1.387 1_455 S
H335 C331 0.950 . S
H336 C333 0.950 . S
C337 C328 1.390 . S
C337 H330 0.950 . S
C337 C334 1.387 1_655 S
C338 C339 1.387 . S
C338 H342 0.950 . S
C338 C347 1.390 . S
C339 C338 1.387 . S
C339 C341 1.387 1_545 S
H340 C347 0.950 . S
C341 C339 1.387 1_565 S
C341 C343 1.390 . S
C341 H345 0.950 . S
H342 C338 0.950 . S
C343 C341 1.390 . S
C343 C344 1.387 . S
C343 H346 0.950 . S
C344 C343 1.387 . S
C344 C347 1.387 1_565 S
H345 C341 0.950 . S
H346 C343 0.950 . S
C347 C338 1.390 . S
C347 H340 0.950 . S
C347 C344 1.387 1_545 S
C348 C349 1.387 1_556 S
C348 H352 0.950 . S
C348 C357 1.390 . S
C349 C348 1.387 1_554 S
C349 C351 1.387 . S
H350 C357 0.950 . S
C351 C349 1.387 . S
C351 C353 1.390 . S
C351 H355 0.950 . S
H352 C348 0.950 . S
C353 C351 1.390 . S
C353 C354 1.387 . S
C353 H356 0.950 . S
C354 C353 1.387 . S
C354 C357 1.387 1_554 S
H355 C351 0.950 . S
H356 C353 0.950 . S
C357 C348 1.390 . S
C357 H350 0.950 . S
C357 C354 1.387 1_556 S
C358 C359 1.387 . S
C358 H362 0.950 . S
C358 C367 1.390 1_455 S
C359 C358 1.387 . S
C359 C361 1.387 . S
H360 C367 0.950 . S
C361 C359 1.387 . S
C361 C363 1.390 1_455 S
C361 H365 0.950 . S
H362 C358 0.950 . S
C363 C361 1.390 1_655 S
C363 C364 1.387 . S
C363 H366 0.950 . S
C364 C363 1.387 . S
C364 C367 1.387 . S
H365 C361 0.950 . S
H366 C363 0.950 . S
C367 C358 1.390 1_655 S
C367 H360 0.950 . S
C367 C364 1.387 . S
C368 C369 1.387 . S
C368 H372 0.950 . S
C368 C377 1.390 1_565 S
C369 C368 1.387 . S
C369 C371 1.387 . S
H370 C377 0.950 . S
C371 C369 1.387 . S
C371 C373 1.390 1_565 S
C371 H375 0.950 . S
H372 C368 0.950 . S
C373 C371 1.390 1_545 S
C373 C374 1.387 . S
C373 H376 0.950 . S
C374 C373 1.387 . S
C374 C377 1.387 . S
H375 C371 0.950 . S
H376 C373 0.950 . S
C377 C368 1.390 1_545 S
C377 H370 0.950 . S
C377 C374 1.387 . S
C378 C379 1.387 . S
C378 H382 0.950 . S
C378 C387 1.390 . S
C379 C378 1.387 . S
C379 C381 1.387 . S
H380 C387 0.950 . S
C381 C379 1.387 . S
C381 C383 1.390 . S
C381 H385 0.950 . S
H382 C378 0.950 . S
C383 C381 1.390 . S
C383 C384 1.387 . S
C383 H386 0.950 . S
C384 C383 1.387 . S
C384 C387 1.387 . S
H385 C381 0.950 . S
H386 C383 0.950 . S
C387 C378 1.390 . S
C387 H380 0.950 . S
C387 C384 1.387 . S
C388 C389 1.387 . S
C388 H392 0.950 . S
C388 C397 1.390 1_655 S
C389 C388 1.387 . S
C389 C391 1.387 1_556 S
H390 C397 0.950 . S
C391 C389 1.387 1_554 S
C391 C393 1.390 1_655 S
C391 H395 0.950 . S
H392 C388 0.950 . S
C393 C391 1.390 1_455 S
C393 C394 1.387 1_554 S
C393 H396 0.950 . S
C394 C393 1.387 1_556 S
C394 C397 1.387 . S
H395 C391 0.950 . S
H396 C393 0.950 . S
C397 C388 1.390 1_455 S
C397 H390 0.950 . S
C397 C394 1.387 . S
C398 C399 1.387 . S
C398 H402 0.950 . S
C398 C407 1.390 1_545 S
C399 C398 1.387 . S
C399 C401 1.387 . S
H400 C407 0.950 . S
C401 C399 1.387 . S
C401 C403 1.390 1_545 S
C401 H405 0.950 . S
H402 C398 0.950 . S
C403 C401 1.390 1_565 S
C403 C404 1.387 . S
C403 H406 0.950 . S
C404 C403 1.387 . S
C404 C407 1.387 . S
H405 C401 0.950 . S
H406 C403 0.950 . S
C407 C398 1.390 1_565 S
C407 H400 0.950 . S
C407 C404 1.387 . S
C169 C11 1.646 . S
C174 C137 1.656 . S
C179 C25 1.656 . S
C184 C151 1.646 . S
C189 C33 1.115 . S
C194 C159 1.116 . S
C199 C53 1.645 . S
C204 C95 1.656 . S
C209 C109 1.648 . S
C214 C67 1.654 . S
C219 C117 1.116 . S
C224 C75 1.115 . S
C229 C145 1.206 . S
C234 C5 1.205 . S
C239 C19 1.204 . S
C244 C165 1.337 . S
C249 C39 1.339 . S
C254 C89 1.199 . S
C259 C47 1.205 . S
C264 C103 1.206 . S
C269 C61 1.203 . S
C274 C123 1.338 . S
C279 C81 1.339 . S
C284 C131 1.204 . S
C289 C130 1.189 . S
C294 C4 1.185 . S
C299 C18 1.188 . S
C304 C144 1.182 . S
C309 C40 0.897 1_545 S
C314 C166 0.897 1_565 S
C319 C88 1.188 . S
C324 C46 1.182 . S
C329 C60 1.187 . S
C334 C102 1.184 . S
C339 C124 0.891 1_545 S
C344 C82 0.892 1_565 S
C349 C12 1.447 . S
C354 C54 1.447 . S
C359 C68 1.498 . S
C364 C26 1.498 . S
C369 C32 1.479 . S
C374 C74 1.479 . S
C379 C96 1.498 . S
C384 C138 1.498 . S
C389 C110 1.449 . S
C394 C152 1.449 . S
C399 C158 1.481 . S
C404 C116 1.481 . S
