# Generated by pormake.
# Topology unf, (4)-cn, num edge types: 1
# Building blocks:
#     Node 0, Type 0, BuildingBlock: CEKHIL_clean_sbu_0, # of connection points: 4
#     Node 1, Type 0, BuildingBlock: CEKHIL_clean_sbu_0, # of connection points: 4
#     Node 2, Type 0, BuildingBlock: CEKHIL_clean_sbu_0, # of connection points: 4
#     Node 3, Type 0, BuildingBlock: CEKHIL_clean_sbu_0, # of connection points: 4
#     Node 4, Type 0, BuildingBlock: CEKHIL_clean_sbu_0, # of connection points: 4
#     Node 5, Type 0, BuildingBlock: CEKHIL_clean_sbu_0, # of connection points: 4
#     Node 6, Type 0, BuildingBlock: CEKHIL_clean_sbu_0, # of connection points: 4
#     Node 7, Type 0, BuildingBlock: CEKHIL_clean_sbu_0, # of connection points: 4
#     Node 8, Type 0, BuildingBlock: CEKHIL_clean_sbu_0, # of connection points: 4
#     Node 9, Type 0, BuildingBlock: CEKHIL_clean_sbu_0, # of connection points: 4
#     Node 10, Type 0, BuildingBlock: CEKHIL_clean_sbu_0, # of connection points: 4
#     Node 11, Type 0, BuildingBlock: CEKHIL_clean_sbu_0, # of connection points: 4
#     Edge 12, Type (0, 0), BuildingBlock: EZIPEK_clean_linker_0, # of connection points: 2
#     Edge 13, Type (0, 0), BuildingBlock: EZIPEK_clean_linker_0, # of connection points: 2
#     Edge 14, Type (0, 0), BuildingBlock: EZIPEK_clean_linker_0, # of connection points: 2
#     Edge 15, Type (0, 0), BuildingBlock: EZIPEK_clean_linker_0, # of connection points: 2
#     Edge 16, Type (0, 0), BuildingBlock: EZIPEK_clean_linker_0, # of connection points: 2
#     Edge 17, Type (0, 0), BuildingBlock: EZIPEK_clean_linker_0, # of connection points: 2
#     Edge 18, Type (0, 0), BuildingBlock: EZIPEK_clean_linker_0, # of connection points: 2
#     Edge 19, Type (0, 0), BuildingBlock: EZIPEK_clean_linker_0, # of connection points: 2
#     Edge 20, Type (0, 0), BuildingBlock: EZIPEK_clean_linker_0, # of connection points: 2
#     Edge 21, Type (0, 0), BuildingBlock: EZIPEK_clean_linker_0, # of connection points: 2
#     Edge 22, Type (0, 0), BuildingBlock: EZIPEK_clean_linker_0, # of connection points: 2
#     Edge 23, Type (0, 0), BuildingBlock: EZIPEK_clean_linker_0, # of connection points: 2
#     Edge 24, Type (0, 0), BuildingBlock: EZIPEK_clean_linker_0, # of connection points: 2
#     Edge 25, Type (0, 0), BuildingBlock: EZIPEK_clean_linker_0, # of connection points: 2
#     Edge 26, Type (0, 0), BuildingBlock: EZIPEK_clean_linker_0, # of connection points: 2
#     Edge 27, Type (0, 0), BuildingBlock: EZIPEK_clean_linker_0, # of connection points: 2
#     Edge 28, Type (0, 0), BuildingBlock: EZIPEK_clean_linker_0, # of connection points: 2
#     Edge 29, Type (0, 0), BuildingBlock: EZIPEK_clean_linker_0, # of connection points: 2
#     Edge 30, Type (0, 0), BuildingBlock: EZIPEK_clean_linker_0, # of connection points: 2
#     Edge 31, Type (0, 0), BuildingBlock: EZIPEK_clean_linker_0, # of connection points: 2
#     Edge 32, Type (0, 0), BuildingBlock: EZIPEK_clean_linker_0, # of connection points: 2
#     Edge 33, Type (0, 0), BuildingBlock: EZIPEK_clean_linker_0, # of connection points: 2
#     Edge 34, Type (0, 0), BuildingBlock: EZIPEK_clean_linker_0, # of connection points: 2
#     Edge 35, Type (0, 0), BuildingBlock: EZIPEK_clean_linker_0, # of connection points: 2
# Relax obj value: 0.233
# Max RMSD: 0.183
# Mean RMSD: 0.177
data_MOF--net-unf--node1-CEKHIL_clean_sbu_0--edge1-EZIPEK_clean_linker_0
_symmetry_space_group_name_H-M    P1
_symmetry_Int_Tables_number       1
_symmetry_cell_setting            triclinic
loop_
_symmetry_equiv_pos_as_xyz
'x, y, z'
_cell_length_a     27.930719
_cell_length_b     27.533943
_cell_length_c     26.146637
_cell_angle_alpha  89.59946
_cell_angle_beta   90.853997
_cell_angle_gamma 120.39105
loop_
_atom_site_label
_atom_site_type_symbol
_atom_site_fract_x
_atom_site_fract_y
_atom_site_fract_z
_atom_type_partial_charge
Co0 Co 0.11045 0.40939 0.08716 0.0
O1 O 0.17149 0.45874 0.13274 0.0
O2 O 0.10896 0.37017 0.14964 0.0
C3 C 0.08058 0.47023 0.06322 0.0
O4 O 0.04128 0.34633 0.05222 0.0
Co5 Co 0.11326 0.43541 0.97063 0.0
O6 O 0.034 0.37586 0.97334 0.0
C7 C 0.18223 0.39136 0.01074 0.0
C8 C 0.15359 0.4161 0.16377 0.0
C9 C 0.0145 0.34088 0.01012 0.0
O10 O 0.15927 0.3839 0.05462 0.0
O11 O 0.17282 0.41515 0.9729 0.0
O12 O 0.06643 0.44368 0.1068 0.0
O13 O 0.11709 0.46365 0.03937 0.0
Co14 Co 0.59577 0.69474 0.08376 0.0
O15 O 0.55396 0.71133 0.13195 0.0
O16 O 0.6435 0.74118 0.13988 0.0
C17 C 0.5349 0.60074 0.07265 0.0
O18 O 0.65126 0.68434 0.04179 0.0
Co19 Co 0.54506 0.65336 0.97425 0.0
O20 O 0.60458 0.63383 0.97206 0.0
C21 C 0.59617 0.77279 1.00006 0.0
C22 C 0.59979 0.74028 0.15782 0.0
C23 C 0.64753 0.65608 1.0012 0.0
O24 O 0.6145 0.76447 0.04277 0.0
O25 O 0.56108 0.73284 0.97123 0.0
O26 O 0.568 0.61891 0.11238 0.0
O27 O 0.53487 0.64054 0.04661 0.0
Co28 Co 0.31104 0.88878 0.10121 0.0
O29 O 0.29525 0.82583 0.14587 0.0
O30 O 0.27286 0.89059 0.16158 0.0
C31 C 0.40117 0.91719 0.08138 0.0
O32 O 0.32152 0.96012 0.0674 0.0
Co33 Co 0.33816 0.88893 0.98559 0.0
O34 O 0.35934 0.96938 0.98976 0.0
C35 C 0.22292 0.82069 0.02009 0.0
C36 C 0.27109 0.84439 0.17571 0.0
C37 C 0.34425 0.98837 0.02664 0.0
O38 O 0.23716 0.84213 0.06517 0.0
O39 O 0.25738 0.8302 0.98435 0.0
O40 O 0.38888 0.93112 0.12463 0.0
O41 O 0.35809 0.88151 0.05532 0.0
Co42 Co 0.58888 0.89763 0.41501 0.0
O43 O 0.54443 0.84199 0.36315 0.0
O44 O 0.63466 0.90159 0.3582 0.0
C45 C 0.53524 0.93542 0.43392 0.0
O46 O 0.64781 0.96065 0.45892 0.0
Co47 Co 0.54485 0.88065 0.52675 0.0
O48 O 0.61195 0.95596 0.536 0.0
C49 C 0.59429 0.81545 0.49226 0.0
C50 C 0.59034 0.85926 0.33833 0.0
C51 C 0.65161 0.97981 0.5045 0.0
O52 O 0.60632 0.84212 0.44944 0.0
O53 O 0.56553 0.82101 0.5268 0.0
O54 O 0.56394 0.94987 0.39207 0.0
O55 O 0.53127 0.89141 0.456 0.0
Co56 Co 0.10539 0.68469 0.43231 0.0
O57 O 0.1656 0.7002 0.38673 0.0
O58 O 0.10353 0.72638 0.37284 0.0
C59 C 0.07504 0.59192 0.44929 0.0
O60 O 0.03726 0.67509 0.46926 0.0
Co61 Co 0.11096 0.6517 0.54594 0.0
O62 O 0.03518 0.641 0.54853 0.0
C63 C 0.18009 0.76852 0.51372 0.0
C64 C 0.14755 0.72612 0.35767 0.0
C65 C 0.01417 0.65664 0.51298 0.0
O66 O 0.15376 0.75761 0.47058 0.0
O67 O 0.17525 0.7304 0.54496 0.0
O68 O 0.06045 0.60676 0.40713 0.0
O69 O 0.11258 0.63403 0.47504 0.0
Co70 Co 0.30142 0.40964 0.43114 0.0
O71 O 0.29329 0.4589 0.38269 0.0
O72 O 0.26279 0.36863 0.36949 0.0
C73 C 0.39271 0.46898 0.45365 0.0
O74 O 0.30321 0.3459 0.47068 0.0
Co75 Co 0.32594 0.44094 0.54587 0.0
O76 O 0.34803 0.38324 0.54493 0.0
C77 C 0.21248 0.39651 0.50675 0.0
C78 C 0.26673 0.41522 0.35311 0.0
C79 C 0.32772 0.34368 0.5121 0.0
O80 O 0.22779 0.38968 0.46244 0.0
O81 O 0.24577 0.41816 0.5449 0.0
O82 O 0.3791 0.43899 0.41197 0.0
O83 O 0.35074 0.46583 0.47681 0.0
Co84 Co 0.89961 0.57757 0.91501 0.0
O85 O 0.94457 0.54359 0.90448 0.0
O86 O 0.89442 0.53028 0.97244 0.0
C87 C 0.85998 0.56363 0.83478 0.0
O88 O 0.84639 0.60298 0.93914 0.0
Co89 Co 0.92586 0.68616 0.85625 0.0
O90 O 0.85898 0.67648 0.89078 0.0
C91 C 0.00336 0.69107 0.9344 0.0
C92 C 0.93016 0.52109 0.94962 0.0
C93 C 0.83338 0.63998 0.92552 0.0
O94 O 0.96547 0.64262 0.95035 0.0
O95 O 0.998 0.71439 0.89404 0.0
O96 O 0.84047 0.52352 0.86882 0.0
O97 O 0.90565 0.6077 0.84918 0.0
Co98 Co 0.43463 0.31672 0.92535 0.0
O99 O 0.48602 0.30374 0.88654 0.0
O100 O 0.40201 0.28165 0.85979 0.0
C101 C 0.49339 0.40639 0.95293 0.0
O102 O 0.37153 0.32642 0.95311 0.0
Co103 Co 0.44923 0.33369 0.04346 0.0
O104 O 0.3819 0.33976 0.03847 0.0
C105 C 0.40692 0.22122 1.00114 0.0
C106 C 0.44737 0.28074 0.85156 0.0
C107 C 0.35684 0.33673 0.9965 0.0
O108 O 0.40353 0.23953 0.95668 0.0
O109 O 0.42731 0.25284 0.04043 0.0
O110 O 0.47273 0.39632 0.9067 0.0
O111 O 0.484 0.36159 0.97756 0.0
Co112 Co 0.67902 0.1019 0.91986 0.0
O113 O 0.59879 0.05755 0.91117 0.0
O114 O 0.64291 0.09706 0.98348 0.0
C115 C 0.70219 0.15454 0.84663 0.0
O116 O 0.75874 0.15007 0.9454 0.0
Co117 Co 0.75947 0.0902 0.84651 0.0
O118 O 0.81802 0.15515 0.88537 0.0
C119 C 0.69385 -0.00039 0.91941 0.0
C120 C 0.59634 0.06267 0.96047 0.0
C121 C 0.80805 0.17001 0.92806 0.0
O122 O 0.67806 0.03116 0.93997 0.0
O123 O 0.72503 0.0143 0.88018 0.0
O124 O 0.68336 0.16842 0.8859 0.0
O125 O 0.69964 0.10661 0.8514 0.0
Co126 Co 0.42083 0.10135 0.60081 0.0
O127 O 0.45914 0.05891 0.6072 0.0
O128 O 0.45468 0.10105 0.5366 0.0
C129 C 0.44768 0.15206 0.67475 0.0
O130 O 0.38772 0.15014 0.5791 0.0
Co131 Co 0.32576 0.07888 0.67457 0.0
O132 O 0.31785 0.13341 0.63143 0.0
C133 C 0.30543 0.99463 0.59725 0.0
C134 C 0.46894 0.06759 0.55845 0.0
C135 C 0.34917 0.15939 0.59397 0.0
O136 O 0.35268 0.02945 0.57803 0.0
O137 O 0.28712 0.00569 0.63733 0.0
O138 O 0.48114 0.16779 0.63598 0.0
O139 O 0.40416 0.10259 0.67017 0.0
Co140 Co 0.88248 0.3107 0.5963 0.0
O141 O 0.81799 0.29989 0.63359 0.0
O142 O 0.879 0.27761 0.66305 0.0
C143 C 0.9144 0.39933 0.56545 0.0
O144 O 0.95423 0.317 0.57086 0.0
Co145 Co 0.88742 0.32465 0.47726 0.0
O146 O 0.96598 0.34545 0.48846 0.0
C147 C 0.81509 0.21413 0.52199 0.0
C148 C 0.83316 0.2779 0.66998 0.0
C149 C 0.98349 0.33503 0.53002 0.0
O150 O 0.83693 0.23347 0.56615 0.0
O151 O 0.82598 0.24433 0.48173 0.0
O152 O 0.92452 0.39103 0.61253 0.0
O153 O 0.87925 0.35363 0.54203 0.0
Co154 Co 0.68685 0.5813 0.59551 0.0
O155 O 0.60822 0.5478 0.60527 0.0
O156 O 0.64611 0.53447 0.53747 0.0
C157 C 0.71286 0.56645 0.67502 0.0
O158 O 0.76554 0.60862 0.57163 0.0
Co159 Co 0.76769 0.6895 0.65509 0.0
O160 O 0.82604 0.68026 0.62215 0.0
C161 C 0.69311 0.69329 0.57839 0.0
C162 C 0.60171 0.52856 0.5588 0.0
C163 C 0.81526 0.64499 0.58626 0.0
O164 O 0.68521 0.64629 0.56102 0.0
O165 O 0.7213 0.71628 0.61909 0.0
O166 O 0.69233 0.52681 0.64051 0.0
O167 O 0.71045 0.61054 0.6618 0.0
C168 C 0.28063 0.41654 0.02243 0.0
C169 C 0.22631 0.37705 1.00552 0.0
C170 C 0.25757 0.31218 0.9787 0.0
C171 C 0.31165 0.35058 0.99824 0.0
N172 N 0.37299 0.43695 0.04432 0.0
N173 N 0.16043 0.28638 0.97081 0.0
C174 C 0.32259 0.40198 0.02175 0.0
C175 C 0.21409 0.32469 0.98421 0.0
N176 N 0.29275 0.46924 0.03726 0.0
N177 N 0.24759 0.26335 0.95578 0.0
H178 H 0.1283 0.29513 0.97307 0.0
H179 H 0.14674 0.24511 0.95985 0.0
H180 H 0.27634 0.24986 0.9556 0.0
H181 H 0.21144 0.23659 0.93546 0.0
H182 H 0.33295 0.50265 0.04335 0.0
H183 H 0.26297 0.48131 0.0397 0.0
H184 H 0.37995 0.46888 0.06976 0.0
H185 H 0.40784 0.43321 0.03968 0.0
C186 C 0.63712 0.84207 0.92783 0.0
C187 C 0.62141 0.83113 0.98001 0.0
C188 C 0.66428 0.93243 0.99416 0.0
C189 C 0.67113 0.94195 0.9405 0.0
N190 N 0.64513 0.90021 0.8558 0.0
N191 N 0.60808 0.86659 0.05962 0.0
C192 C 0.65213 0.89525 0.90702 0.0
C193 C 0.63148 0.8765 0.01243 0.0
N194 N 0.64026 0.80305 0.89833 0.0
N195 N 0.69059 0.97611 0.02788 0.0
H196 H 0.5813 0.82615 0.07334 0.0
H197 H 0.61053 0.89862 0.08255 0.0
H198 H 0.71846 0.01721 0.01642 0.0
H199 H 0.68986 0.9701 0.06735 0.0
H200 H 0.65583 0.81183 0.86129 0.0
H201 H 0.63433 0.76507 0.91267 0.0
H202 H 0.62713 0.86551 0.83132 0.0
H203 H 0.65008 0.93684 0.83894 0.0
C204 C 0.14293 0.7278 0.99388 0.0
C205 C 0.16334 0.78468 0.00743 0.0
C206 C 0.07327 0.77463 0.98494 0.0
C207 C 0.0564 0.7211 0.96347 0.0
N208 N 0.07812 0.64932 0.94151 0.0
N209 N 0.15012 0.86469 0.01248 0.0
C210 C 0.09165 0.6979 0.96691 0.0
C211 C 0.12891 0.8087 1.00269 0.0
N212 N 0.17251 0.70234 0.00715 0.0
N213 N 0.03581 0.79241 0.9891 0.0
H214 H 0.1905 0.89109 0.02599 0.0
H215 H 0.12903 0.88594 1.00376 0.0
H216 H 0.99456 0.76812 0.97687 0.0
H217 H 0.0441 0.82858 0.00893 0.0
H218 H 0.15713 0.65933 1.00281 0.0
H219 H 0.21017 0.72329 0.02728 0.0
H220 H 0.1051 0.63385 0.93816 0.0
H221 H 0.04212 0.62728 0.91944 0.0
C222 C 0.70286 0.7765 0.52993 0.0
C223 C 0.66808 0.72201 0.55014 0.0
C224 C 0.5862 0.72395 0.51768 0.0
C225 C 0.62035 0.78159 0.50549 0.0
N226 N 0.71127 0.86549 0.50673 0.0
N227 N 0.57569 0.64688 0.57036 0.0
C228 C 0.67886 0.80858 0.51279 0.0
C229 C 0.6094 0.69608 0.54537 0.0
N230 N 0.75871 0.79737 0.52658 0.0
N231 N 0.53165 0.69593 0.50271 0.0
H232 H 0.59109 0.62734 0.5941 0.0
H233 H 0.53276 0.6288 0.57207 0.0
H234 H 0.51375 0.71547 0.48209 0.0
H235 H 0.506 0.65248 0.50617 0.0
H236 H 0.78533 0.8346 0.50748 0.0
H237 H 0.7776 0.77471 0.53848 0.0
H238 H 0.75314 0.88812 0.51711 0.0
H239 H 0.69529 0.89093 0.49576 0.0
C240 C 0.25 0.87234 0.50207 0.0
C241 C 0.21095 0.82738 0.53264 0.0
C242 C 0.24053 0.89015 0.60617 0.0
C243 C 0.27248 0.93737 0.57416 0.0
N244 N 0.29461 0.97243 0.48709 0.0
N245 N 0.15627 0.80049 0.60984 0.0
C246 C 0.27361 0.92839 0.52062 0.0
C247 C 0.20202 0.83842 0.58342 0.0
N248 N 0.26637 0.86186 0.45659 0.0
N249 N 0.24909 0.89278 0.65791 0.0
H250 H 0.12429 0.76371 0.59336 0.0
H251 H 0.14712 0.80943 0.6459 0.0
H252 H 0.28208 0.92711 0.67629 0.0
H253 H 0.22833 0.85748 0.68136 0.0
H254 H 0.29859 0.89336 0.43539 0.0
H255 H 0.25172 0.82118 0.44291 0.0
H256 H 0.29249 0.96671 0.44756 0.0
H257 H 0.3074 0.01359 0.49805 0.0
C258 C 0.08379 0.39642 0.55228 0.0
C259 C 0.04099 0.34574 0.53062 0.0
C260 C 0.1105 0.32376 0.50017 0.0
C261 C 0.15325 0.37873 0.51447 0.0
N262 N 0.17881 0.47169 0.54487 0.0
N263 N 0.01274 0.26215 0.48053 0.0
C264 C 0.1395 0.4162 0.53834 0.0
C265 C 0.05411 0.3097 0.5034 0.0
N266 N 0.07144 0.42569 0.58633 0.0
N267 N 0.12347 0.2841 0.48606 0.0
H268 H 0.9708 0.2488 0.48486 0.0
H269 H 0.02021 0.23786 0.45509 0.0
H270 H 0.16403 0.29176 0.48557 0.0
H271 H 0.09376 0.24196 0.47997 0.0
H272 H 0.10176 0.45942 0.60759 0.0
H273 H 0.03102 0.41244 0.59752 0.0
H274 H 0.16953 0.50164 0.55782 0.0
H275 H 0.2194 0.48918 0.53201 0.0
C276 C 0.72678 0.63733 0.01858 0.0
C277 C 0.69608 0.65195 0.98421 0.0
C278 C 0.74612 0.6424 0.91286 0.0
C279 C 0.78354 0.63826 0.94722 0.0
N280 N 0.81399 0.64035 0.03466 0.0
N281 N 0.68955 0.68411 0.89921 0.0
C282 C 0.77517 0.6379 1.00077 0.0
C283 C 0.70949 0.65903 0.93147 0.0
N284 N 0.70878 0.62055 0.06729 0.0
N285 N 0.74417 0.62867 0.8625 0.0
H286 H 0.66633 0.70157 0.91177 0.0
H287 H 0.70215 0.69387 0.86132 0.0
H288 H 0.76747 0.61195 0.84829 0.0
H289 H 0.71437 0.62698 0.83688 0.0
H290 H 0.72695 0.60452 0.0921 0.0
H291 H 0.67229 0.61695 0.08107 0.0
H292 H 0.81219 0.64574 0.07386 0.0
H293 H 0.85046 0.64217 0.02329 0.0
C294 C 0.3368 0.11796 0.98811 0.0
C295 C 0.38921 0.16093 0.00711 0.0
C296 C 0.40399 0.08976 0.0484 0.0
C297 C 0.35626 0.04694 0.02317 0.0
N298 N 0.27918 0.01951 0.96474 0.0
N299 N 0.47895 0.18581 0.04354 0.0
C300 C 0.32332 0.0608 0.99143 0.0
C301 C 0.4246 0.14636 0.03407 0.0
N302 N 0.29884 0.13122 0.96952 0.0
N303 N 0.42936 0.07671 0.08658 0.0
H304 H 0.49745 0.22701 0.02992 0.0
H305 H 0.50729 0.17586 0.05957 0.0
H306 H 0.41452 0.03562 0.09905 0.0
H307 H 0.46096 0.1072 0.10958 0.0
H308 H 0.25821 0.10105 0.95967 0.0
H309 H 0.30595 0.1722 0.96879 0.0
H310 H 0.25745 0.02789 0.93671 0.0
H311 H 0.26651 0.97691 0.96842 0.0
C312 C 0.95107 0.23901 0.98901 0.0
C313 C 0.95821 0.29189 1.00284 0.0
C314 C 0.86302 0.26183 0.97579 0.0
C315 C 0.85626 0.2094 0.96014 0.0
N316 N 0.88644 0.14154 0.96709 0.0
N317 N 0.91717 0.34692 0.02567 0.0
C318 C 0.89805 0.19589 0.97166 0.0
C319 C 0.91274 0.30102 1.00152 0.0
N320 N 0.99543 0.23085 0.99032 0.0
N321 N 0.82361 0.2756 0.96373 0.0
H322 H 0.9527 0.37468 0.04645 0.0
H323 H 0.88404 0.35376 0.03004 0.0
H324 H 0.78591 0.24773 0.94621 0.0
H325 H 0.82973 0.31592 0.96822 0.0
H326 H 0.99457 0.19576 0.97462 0.0
H327 H 0.03418 0.26077 1.00499 0.0
H328 H 0.9135 0.12806 0.97917 0.0
H329 H 0.84734 0.10868 0.95602 0.0
C330 C 0.34738 0.21539 0.51623 0.0
C331 C 0.34268 0.20521 0.57 0.0
C332 C 0.3108 0.27253 0.57867 0.0
C333 C 0.32612 0.2909 0.52776 0.0
N334 N 0.36651 0.28395 0.4491 0.0
N335 N 0.33593 0.23958 0.65358 0.0
C336 C 0.34638 0.26341 0.49652 0.0
C337 C 0.32883 0.23807 0.60165 0.0
N338 N 0.3503 0.17841 0.48373 0.0
N339 N 0.27858 0.28767 0.60523 0.0
H340 H 0.35423 0.21971 0.67271 0.0
H341 H 0.3304 0.26689 0.67691 0.0
H342 H 0.26193 0.3106 0.58865 0.0
H343 H 0.26316 0.27156 0.64138 0.0
H344 H 0.34906 0.1818 0.44407 0.0
H345 H 0.34757 0.14102 0.49601 0.0
H346 H 0.38694 0.26873 0.42711 0.0
H347 H 0.36689 0.31911 0.43358 0.0
C348 C 0.72623 0.13035 0.54716 0.0
C349 C 0.77528 0.15336 0.51827 0.0
C350 C 0.75053 0.05897 0.48928 0.0
C351 C 0.7008 0.0361 0.51816 0.0
N352 N 0.6609 0.04956 0.59491 0.0
N353 N 0.8409 0.13996 0.4706 0.0
C354 C 0.6943 0.07143 0.55338 0.0
C355 C 0.78945 0.1178 0.49165 0.0
N356 N 0.70966 0.16466 0.56827 0.0
N357 N 0.76128 0.02434 0.46071 0.0
H358 H 0.87012 0.18287 0.47125 0.0
H359 H 0.85636 0.11585 0.45547 0.0
H360 H 0.73998 0.98087 0.46556 0.0
H361 H 0.79141 0.03855 0.43258 0.0
H362 H 0.67108 0.14922 0.58525 0.0
H363 H 0.73195 0.20838 0.56432 0.0
H364 H 0.65611 0.07442 0.62181 0.0
H365 H 0.6463 0.00857 0.60766 0.0
C366 C 0.91484 0.59999 0.53857 0.0
C367 C 0.96021 0.65262 0.52348 0.0
C368 C 0.90419 0.6966 0.53796 0.0
C369 C 0.86278 0.64602 0.56095 0.0
N370 N 0.83273 0.55151 0.59021 0.0
N371 N 1.00081 0.75323 0.51455 0.0
C372 C 0.86886 0.59797 0.56284 0.0
C373 C 0.95556 0.70159 0.52417 0.0
N374 N 0.9153 0.55171 0.52859 0.0
N375 N 0.89397 0.73943 0.52843 0.0
H376 H 0.03942 0.75895 0.50494 0.0
H377 H 1.00129 0.79089 0.52026 0.0
H378 H 0.85638 0.73675 0.5372 0.0
H379 H 0.92046 0.7751 0.50734 0.0
H380 H 0.88132 0.51158 0.53442 0.0
H381 H 0.94771 0.55229 0.50899 0.0
H382 H 0.83908 0.5179 0.59743 0.0
H383 H 0.79916 0.54858 0.60984 0.0
C384 C 0.19873 0.43433 0.30464 0.0
C385 C 0.23938 0.41763 0.30418 0.0
C386 C 0.22231 0.39817 0.21181 0.0
C387 C 0.18447 0.41841 0.21176 0.0
N388 N 0.14346 0.46448 0.25604 0.0
N389 N 0.29727 0.3937 0.25571 0.0
C390 C 0.17496 0.43935 0.25756 0.0
C391 C 0.25311 0.40218 0.25728 0.0
N392 N 0.18039 0.44236 0.35027 0.0
N393 N 0.2283 0.3743 0.16852 0.0
H394 H 0.32128 0.39711 0.28791 0.0
H395 H 0.31335 0.38837 0.22193 0.0
H396 H 0.20828 0.37254 0.13408 0.0
H397 H 0.25004 0.3528 0.16753 0.0
H398 H 0.14663 0.44836 0.35343 0.0
H399 H 0.19554 0.43796 0.3856 0.0
H400 H 0.14005 0.48632 0.28679 0.0
H401 H 0.12418 0.46741 0.22262 0.0
C402 C 0.62805 0.83079 0.20547 0.0
C403 C 0.60121 0.77104 0.20537 0.0
C404 C 0.5724 0.7697 0.29424 0.0
C405 C 0.59331 0.8288 0.29215 0.0
N406 N 0.63341 0.91414 0.24229 0.0
N407 N 0.54288 0.68275 0.24799 0.0
C408 C 0.61944 0.85903 0.2469 0.0
C409 C 0.57166 0.7403 0.2492 0.0
N410 N 0.66186 0.86077 0.16599 0.0
N411 N 0.55633 0.74196 0.33998 0.0
H412 H 0.54457 0.65951 0.21746 0.0
H413 H 0.51473 0.65807 0.27598 0.0
H414 H 0.5581 0.76179 0.37431 0.0
H415 H 0.54658 0.70041 0.34502 0.0
H416 H 0.68724 0.90441 0.1664 0.0
H417 H 0.66802 0.84182 0.13438 0.0
H418 H 0.64696 0.93682 0.20834 0.0
H419 H 0.6263 0.9358 0.27096 0.0
C420 C 0.24741 0.84311 0.26878 0.0
C421 C 0.24029 0.81319 0.22254 0.0
C422 C 0.17468 0.725 0.26618 0.0
C423 C 0.17753 0.75601 0.3104 0.0
N424 N 0.20811 0.84618 0.34981 0.0
N425 N 0.18661 0.72685 0.17448 0.0
C426 C 0.2111 0.81559 0.31037 0.0
C427 C 0.20127 0.75431 0.22047 0.0
N428 N 0.29071 0.89705 0.27415 0.0
N429 N 0.14618 0.66749 0.26757 0.0
H430 H 0.2023 0.74688 0.13967 0.0
H431 H 0.15436 0.68541 0.17016 0.0
H432 H 0.12372 0.64451 0.29929 0.0
H433 H 0.14805 0.64275 0.23858 0.0
H434 H 0.30115 0.91886 0.30873 0.0
H435 H 0.32003 0.91783 0.24576 0.0
H436 H 0.22733 0.88994 0.34923 0.0
H437 H 0.18249 0.82773 0.38118 0.0
C438 C 0.83539 0.61349 0.76591 0.0
C439 C 0.82642 0.56251 0.78824 0.0
C440 C 0.73822 0.51216 0.73895 0.0
C441 C 0.74592 0.56451 0.72066 0.0
N442 N 0.78888 0.66334 0.74189 0.0
N443 N 0.77864 0.46157 0.78042 0.0
C444 C 0.79076 0.61486 0.7411 0.0
C445 C 0.78006 0.5111 0.77065 0.0
N446 N 0.8871 0.66002 0.7648 0.0
N447 N 0.68874 0.46397 0.72983 0.0
H448 H 0.81156 0.46015 0.79822 0.0
H449 H 0.74892 0.42294 0.76514 0.0
H450 H 0.65531 0.46421 0.71179 0.0
H451 H 0.67805 0.42505 0.74568 0.0
H452 H 0.89503 0.69706 0.74637 0.0
H453 H 0.92269 0.65838 0.7739 0.0
H454 H 0.82008 0.70016 0.75903 0.0
H455 H 0.75223 0.66362 0.73482 0.0
C456 C 0.45465 0.27156 0.75603 0.0
C457 C 0.45293 0.25079 0.80627 0.0
C458 C 0.45385 0.16851 0.77024 0.0
C459 C 0.45557 0.18925 0.71985 0.0
N460 N 0.46749 0.26569 0.66511 0.0
N461 N 0.45797 0.18336 0.86217 0.0
C462 C 0.4594 0.24254 0.7129 0.0
C463 C 0.45492 0.20054 0.81359 0.0
N464 N 0.45031 0.31854 0.74942 0.0
N465 N 0.45061 0.11756 0.77661 0.0
H466 H 0.45523 0.2031 0.89489 0.0
H467 H 0.46617 0.1513 0.87068 0.0
H468 H 0.45576 0.09581 0.74671 0.0
H469 H 0.44119 0.09562 0.81101 0.0
H470 H 0.44359 0.33195 0.71414 0.0
H471 H 0.45035 0.34286 0.77984 0.0
H472 H 0.47754 0.30702 0.65816 0.0
H473 H 0.46732 0.24499 0.63197 0.0
C474 C 0.7232 0.16148 0.75324 0.0
C475 C 0.7278 0.19027 0.79959 0.0
C476 C 0.79367 0.27943 0.75638 0.0
C477 C 0.79651 0.24847 0.71449 0.0
N478 N 0.76838 0.15812 0.67645 0.0
N479 N 0.76844 0.27957 0.84458 0.0
C480 C 0.76259 0.18897 0.71396 0.0
C481 C 0.76277 0.25022 0.80089 0.0
N482 N 0.67933 0.10824 0.74574 0.0
N483 N 0.8202 0.33685 0.75354 0.0
H484 H 0.74304 0.26248 0.87601 0.0
H485 H 0.79973 0.32121 0.85022 0.0
H486 H 0.84466 0.35945 0.72258 0.0
H487 H 0.81466 0.36175 0.77986 0.0
H488 H 0.67155 0.0865 0.71137 0.0
H489 H 0.64683 0.08868 0.77159 0.0
H490 H 0.74911 0.11436 0.67762 0.0
H491 H 0.79626 0.17624 0.64664 0.0
C492 C 1.0001 0.48948 0.06105 0.0
C493 C 0.0461 0.4914 0.03647 0.0
C494 C 0.00826 0.49944 0.95347 0.0
C495 C 0.96248 0.49822 0.97764 0.0
N496 N 0.90499 0.46818 0.05249 0.0
N497 N 0.1046 0.52665 0.96237 0.0
C498 C 0.95563 0.4868 0.03105 0.0
C499 C 0.05335 0.50452 0.98351 0.0
N500 N 1.00062 0.49446 0.11299 0.0
N501 N 0.00718 0.49156 0.9019 0.0
H502 H 0.14037 0.53935 0.98449 0.0
H503 H 0.11262 0.54069 0.92463 0.0
H504 H 0.97168 0.47961 0.87958 0.0
H505 H 0.03793 0.48799 0.88312 0.0
H506 H 0.97045 0.49809 0.1327 0.0
H507 H 0.03537 0.50366 0.13543 0.0
H508 H 0.8963 0.45475 0.09032 0.0
H509 H 0.86951 0.45733 0.03057 0.0
C510 C 0.48786 0.53337 0.99971 0.0
C511 C 0.51606 0.54463 0.04762 0.0
C512 C 0.53775 0.47028 0.02955 0.0
C513 C 0.51135 0.46093 0.98069 0.0
N514 N 0.48418 0.50301 0.91302 0.0
N515 N 0.54783 0.50754 0.11527 0.0
C516 C 0.49288 0.49792 0.96379 0.0
C517 C 0.53571 0.50868 0.06467 0.0
N518 N 0.45278 0.55333 0.9898 0.0
N519 N 0.56846 0.44559 0.0409 0.0
H520 H 0.53913 0.5289 0.14298 0.0
H521 H 0.55819 0.47907 0.13079 0.0
H522 H 0.57524 0.42179 0.0142 0.0
H523 H 0.59313 0.45478 0.07373 0.0
H524 H 0.42732 0.54204 0.95728 0.0
H525 H 0.44312 0.57398 0.01755 0.0
H526 H 0.47409 0.53236 0.89915 0.0
H527 H 0.4965 0.48578 0.88437 0.0
C528 C 0.49647 0.0056 0.07246 0.0
C529 C 0.45767 0.94974 0.0569 0.0
C530 C 0.51676 0.96428 0.98223 0.0
C531 C 0.54614 0.02368 0.99127 0.0
N532 N 0.55799 0.10085 0.04391 0.0
N533 N 0.43739 0.87253 1.00039 0.0
C534 C 0.53418 0.04425 0.03612 0.0
C535 C 0.46962 0.92824 0.01254 0.0
N536 N 0.50027 0.0211 0.12247 0.0
N537 N 0.53617 0.94122 0.94794 0.0
H538 H 0.4108 0.84251 0.02651 0.0
H539 H 0.43729 0.85629 0.96449 0.0
H540 H 0.57157 0.96438 0.92634 0.0
H541 H 0.52058 0.8981 0.94453 0.0
H542 H 0.53067 0.06045 0.13606 0.0
H543 H 0.47908 0.9922 0.15141 0.0
H544 H 0.54836 0.11777 0.0749 0.0
H545 H 0.58277 0.13066 0.01677 0.0
C546 C 0.55451 0.03105 0.46876 0.0
C547 C 0.51753 0.97202 0.46089 0.0
C548 C 0.45236 0.9752 0.52159 0.0
C549 C 0.48752 0.03458 0.52716 0.0
N550 N 0.56856 0.12026 0.50056 0.0
N551 N 0.42515 0.89253 0.46942 0.0
C552 C 0.53729 0.0628 0.49873 0.0
C553 C 0.46479 0.94555 0.48447 0.0
N554 N 0.60723 0.05677 0.45015 0.0
N555 N 0.40694 0.94648 0.55187 0.0
H556 H 0.43181 0.87031 0.44096 0.0
H557 H 0.3839 0.87315 0.48068 0.0
H558 H 0.39486 0.96571 0.57869 0.0
H559 H 0.38366 0.90271 0.5536 0.0
H560 H 0.63808 0.09725 0.4605 0.0
H561 H 0.62232 0.03703 0.42723 0.0
H562 H 0.60099 0.14417 0.47572 0.0
H563 H 0.56008 0.14459 0.52511 0.0
C564 C 0.00333 0.49405 0.55875 0.0
C565 C 0.95286 0.45196 0.53605 0.0
C566 C 0.98879 0.49425 0.45139 0.0
C567 C 0.03887 0.53589 0.4748 0.0
N568 N 0.10155 0.55496 0.54612 0.0
N569 N 0.89129 0.42686 0.46262 0.0
C570 C 0.04858 0.52954 0.5271 0.0
C571 C 0.94392 0.45555 0.48259 0.0
N572 N 0.00707 0.50381 0.61016 0.0
N573 N 0.98527 0.48931 0.39939 0.0
H574 H 0.85641 0.40524 0.4855 0.0
H575 H 0.88149 0.43153 0.42501 0.0
H576 H 0.01944 0.51302 0.37614 0.0
H577 H 0.95154 0.45666 0.38011 0.0
H578 H 0.04219 0.53681 0.62762 0.0
H579 H 0.97251 0.48545 0.63369 0.0
H580 H 0.11103 0.54948 0.58364 0.0
H581 H 0.13599 0.57507 0.52244 0.0
C582 C 0.49769 0.50754 0.44944 0.0
C583 C 0.44966 0.49384 0.47831 0.0
C584 C 0.49913 0.49372 0.556 0.0
C585 C 0.54905 0.51211 0.52897 0.0
N586 N 0.59784 0.55767 0.45051 0.0
N587 N 0.42372 0.51135 0.56118 0.0
C588 C 0.54922 0.52456 0.47556 0.0
C589 C 0.45561 0.49799 0.53232 0.0
N590 N 0.49575 0.50848 0.39728 0.0
N591 N 0.4925 0.47211 0.60418 0.0
H592 H 0.39937 0.52628 0.54483 0.0
H593 H 0.42922 0.5169 0.60073 0.0
H594 H 0.52126 0.4635 0.62154 0.0
H595 H 0.45511 0.45631 0.62358 0.0
H596 H 0.52696 0.50999 0.37472 0.0
H597 H 0.46313 0.50765 0.37669 0.0
H598 H 0.59924 0.57146 0.41305 0.0
H599 H 0.6366 0.57856 0.46828 0.0
loop_
_geom_bond_atom_site_label_1
_geom_bond_atom_site_label_2
_geom_bond_distance
_geom_bond_site_symmetry_2
_ccdc_geom_bond_type
Co0 O1 2.216 . S
Co0 O2 2.091 . S
Co0 O4 2.004 . S
Co0 O10 2.021 . S
Co0 O12 2.137 . S
Co0 O13 2.244 . S
O1 Co0 2.216 . S
O1 C8 1.247 . S
O2 Co0 2.091 . S
O2 C8 1.261 . S
C3 O12 1.247 . S
C3 O13 1.272 . S
O4 Co0 2.004 . S
O4 C9 1.259 1_455 S
Co5 O6 2.061 . S
Co5 O11 2.052 . S
Co5 O13 2.135 1_556 S
O6 Co5 2.061 . S
O6 C9 1.235 1_456 S
C7 O10 1.238 . S
C7 O11 1.241 1_554 S
C8 O1 1.247 . S
C8 O2 1.261 . S
C9 O4 1.259 1_655 S
C9 O6 1.235 1_654 S
O10 Co0 2.021 . S
O10 C7 1.238 . S
O11 Co5 2.052 . S
O11 C7 1.241 1_556 S
O12 Co0 2.137 . S
O12 C3 1.247 . S
O13 Co0 2.244 . S
O13 C3 1.272 . S
O13 Co5 2.135 1_554 S
Co14 O15 2.216 . S
Co14 O16 2.091 . S
Co14 O18 2.004 . S
Co14 O24 2.021 . S
Co14 O26 2.137 . S
Co14 O27 2.244 . S
O15 Co14 2.216 . S
O15 C22 1.247 . S
O16 Co14 2.091 . S
O16 C22 1.261 . S
C17 O26 1.247 . S
C17 O27 1.272 . S
O18 Co14 2.004 . S
O18 C23 1.259 . S
Co19 O20 2.061 . S
Co19 O25 2.052 . S
Co19 O27 2.135 1_556 S
O20 Co19 2.061 . S
O20 C23 1.235 1_556 S
C21 O24 1.238 . S
C21 O25 1.241 1_554 S
C22 O15 1.247 . S
C22 O16 1.261 . S
C23 O18 1.259 . S
C23 O20 1.235 1_554 S
O24 Co14 2.021 . S
O24 C21 1.238 . S
O25 Co19 2.052 . S
O25 C21 1.241 1_556 S
O26 Co14 2.137 . S
O26 C17 1.247 . S
O27 Co14 2.244 . S
O27 C17 1.272 . S
O27 Co19 2.135 1_554 S
Co28 O29 2.216 . S
Co28 O30 2.091 . S
Co28 O32 2.004 1_565 S
Co28 O38 2.021 . S
Co28 O40 2.137 . S
Co28 O41 2.244 . S
O29 Co28 2.216 . S
O29 C36 1.247 . S
O30 Co28 2.091 . S
O30 C36 1.261 . S
C31 O40 1.247 . S
C31 O41 1.272 . S
O32 Co28 2.004 1_545 S
O32 C37 1.259 . S
Co33 O34 2.061 . S
Co33 O39 2.052 . S
Co33 O41 2.135 1_556 S
O34 Co33 2.061 . S
O34 C37 1.235 1_566 S
C35 O38 1.238 . S
C35 O39 1.241 1_554 S
C36 O29 1.247 . S
C36 O30 1.261 . S
C37 O32 1.259 . S
C37 O34 1.235 1_544 S
O38 Co28 2.021 . S
O38 C35 1.238 . S
O39 Co33 2.052 . S
O39 C35 1.241 1_556 S
O40 Co28 2.137 . S
O40 C31 1.247 . S
O41 Co28 2.244 . S
O41 C31 1.272 . S
O41 Co33 2.135 1_554 S
Co42 O43 2.216 . S
Co42 O44 2.091 . S
Co42 O46 2.004 1_565 S
Co42 O52 2.021 . S
Co42 O54 2.137 . S
Co42 O55 2.244 . S
O43 Co42 2.216 . S
O43 C50 1.247 . S
O44 Co42 2.091 . S
O44 C50 1.261 . S
C45 O54 1.247 . S
C45 O55 1.272 . S
O46 Co42 2.004 1_545 S
O46 C51 1.259 . S
Co47 O48 2.061 . S
Co47 O53 2.052 . S
Co47 O55 2.135 . S
O48 Co47 2.061 . S
O48 C51 1.235 1_565 S
C49 O52 1.238 . S
C49 O53 1.241 . S
C50 O43 1.247 . S
C50 O44 1.261 . S
C51 O46 1.259 . S
C51 O48 1.235 1_545 S
O52 Co42 2.021 . S
O52 C49 1.238 . S
O53 Co47 2.052 . S
O53 C49 1.241 . S
O54 Co42 2.137 . S
O54 C45 1.247 . S
O55 Co42 2.244 . S
O55 C45 1.272 . S
O55 Co47 2.135 . S
Co56 O57 2.216 . S
Co56 O58 2.091 . S
Co56 O60 2.004 . S
Co56 O66 2.021 . S
Co56 O68 2.137 . S
Co56 O69 2.244 . S
O57 Co56 2.216 . S
O57 C64 1.247 . S
O58 Co56 2.091 . S
O58 C64 1.261 . S
C59 O68 1.247 . S
C59 O69 1.272 . S
O60 Co56 2.004 . S
O60 C65 1.259 1_455 S
Co61 O62 2.061 . S
Co61 O67 2.052 . S
Co61 O69 2.135 . S
O62 Co61 2.061 . S
O62 C65 1.235 1_455 S
C63 O66 1.238 . S
C63 O67 1.241 . S
C64 O57 1.247 . S
C64 O58 1.261 . S
C65 O60 1.259 1_655 S
C65 O62 1.235 1_655 S
O66 Co56 2.021 . S
O66 C63 1.238 . S
O67 Co61 2.052 . S
O67 C63 1.241 . S
O68 Co56 2.137 . S
O68 C59 1.247 . S
O69 Co56 2.244 . S
O69 C59 1.272 . S
O69 Co61 2.135 . S
Co70 O71 2.216 . S
Co70 O72 2.091 . S
Co70 O74 2.004 . S
Co70 O80 2.021 . S
Co70 O82 2.137 . S
Co70 O83 2.244 . S
O71 Co70 2.216 . S
O71 C78 1.247 . S
O72 Co70 2.091 . S
O72 C78 1.261 . S
C73 O82 1.247 . S
C73 O83 1.272 . S
O74 Co70 2.004 . S
O74 C79 1.259 . S
Co75 O76 2.061 . S
Co75 O81 2.052 . S
Co75 O83 2.135 . S
O76 Co75 2.061 . S
O76 C79 1.235 . S
C77 O80 1.238 . S
C77 O81 1.241 . S
C78 O71 1.247 . S
C78 O72 1.261 . S
C79 O74 1.259 . S
C79 O76 1.235 . S
O80 Co70 2.021 . S
O80 C77 1.238 . S
O81 Co75 2.052 . S
O81 C77 1.241 . S
O82 Co70 2.137 . S
O82 C73 1.247 . S
O83 Co70 2.244 . S
O83 C73 1.272 . S
O83 Co75 2.135 . S
Co84 O85 2.216 . S
Co84 O86 2.091 . S
Co84 O88 2.004 . S
Co84 O94 2.021 . S
Co84 O96 2.137 . S
Co84 O97 2.244 . S
O85 Co84 2.216 . S
O85 C92 1.247 . S
O86 Co84 2.091 . S
O86 C92 1.261 . S
C87 O96 1.247 . S
C87 O97 1.272 . S
O88 Co84 2.004 . S
O88 C93 1.259 . S
Co89 O90 2.061 . S
Co89 O95 2.052 1_655 S
Co89 O97 2.135 . S
O90 Co89 2.061 . S
O90 C93 1.235 . S
C91 O94 1.238 1_455 S
C91 O95 1.241 . S
C92 O85 1.247 . S
C92 O86 1.261 . S
C93 O88 1.259 . S
C93 O90 1.235 . S
O94 Co84 2.021 . S
O94 C91 1.238 1_655 S
O95 Co89 2.052 1_455 S
O95 C91 1.241 . S
O96 Co84 2.137 . S
O96 C87 1.247 . S
O97 Co84 2.244 . S
O97 C87 1.272 . S
O97 Co89 2.135 . S
Co98 O99 2.216 . S
Co98 O100 2.091 . S
Co98 O102 2.004 . S
Co98 O108 2.021 . S
Co98 O110 2.137 . S
Co98 O111 2.244 . S
O99 Co98 2.216 . S
O99 C106 1.247 . S
O100 Co98 2.091 . S
O100 C106 1.261 . S
C101 O110 1.247 . S
C101 O111 1.272 . S
O102 Co98 2.004 . S
O102 C107 1.259 . S
Co103 O104 2.061 . S
Co103 O109 2.052 . S
Co103 O111 2.135 1_554 S
O104 Co103 2.061 . S
O104 C107 1.235 1_554 S
C105 O108 1.238 . S
C105 O109 1.241 1_556 S
C106 O99 1.247 . S
C106 O100 1.261 . S
C107 O102 1.259 . S
C107 O104 1.235 1_556 S
O108 Co98 2.021 . S
O108 C105 1.238 . S
O109 Co103 2.052 . S
O109 C105 1.241 1_554 S
O110 Co98 2.137 . S
O110 C101 1.247 . S
O111 Co98 2.244 . S
O111 C101 1.272 . S
O111 Co103 2.135 1_556 S
Co112 O113 2.216 . S
Co112 O114 2.091 . S
Co112 O116 2.004 . S
Co112 O122 2.021 . S
Co112 O124 2.137 . S
Co112 O125 2.244 . S
O113 Co112 2.216 . S
O113 C120 1.247 . S
O114 Co112 2.091 . S
O114 C120 1.261 . S
C115 O124 1.247 . S
C115 O125 1.272 . S
O116 Co112 2.004 . S
O116 C121 1.259 . S
Co117 O118 2.061 . S
Co117 O123 2.052 1_545 S
Co117 O125 2.135 . S
O118 Co117 2.061 . S
O118 C121 1.235 . S
C119 O122 1.238 1_565 S
C119 O123 1.241 . S
C120 O113 1.247 . S
C120 O114 1.261 . S
C121 O116 1.259 . S
C121 O118 1.235 . S
O122 Co112 2.021 . S
O122 C119 1.238 1_545 S
O123 Co117 2.052 1_565 S
O123 C119 1.241 . S
O124 Co112 2.137 . S
O124 C115 1.247 . S
O125 Co112 2.244 . S
O125 C115 1.272 . S
O125 Co117 2.135 . S
Co126 O127 2.216 . S
Co126 O128 2.091 . S
Co126 O130 2.004 . S
Co126 O136 2.021 . S
Co126 O138 2.137 . S
Co126 O139 2.244 . S
O127 Co126 2.216 . S
O127 C134 1.247 . S
O128 Co126 2.091 . S
O128 C134 1.261 . S
C129 O138 1.247 . S
C129 O139 1.272 . S
O130 Co126 2.004 . S
O130 C135 1.259 . S
Co131 O132 2.061 . S
Co131 O137 2.052 1_545 S
Co131 O139 2.135 . S
O132 Co131 2.061 . S
O132 C135 1.235 . S
C133 O136 1.238 1_565 S
C133 O137 1.241 . S
C134 O127 1.247 . S
C134 O128 1.261 . S
C135 O130 1.259 . S
C135 O132 1.235 . S
O136 Co126 2.021 . S
O136 C133 1.238 1_545 S
O137 Co131 2.052 1_565 S
O137 C133 1.241 . S
O138 Co126 2.137 . S
O138 C129 1.247 . S
O139 Co126 2.244 . S
O139 C129 1.272 . S
O139 Co131 2.135 . S
Co140 O141 2.216 . S
Co140 O142 2.091 . S
Co140 O144 2.004 1_655 S
Co140 O150 2.021 . S
Co140 O152 2.137 . S
Co140 O153 2.244 . S
O141 Co140 2.216 . S
O141 C148 1.247 . S
O142 Co140 2.091 . S
O142 C148 1.261 . S
C143 O152 1.247 . S
C143 O153 1.272 . S
O144 Co140 2.004 1_455 S
O144 C149 1.259 . S
Co145 O146 2.061 . S
Co145 O151 2.052 . S
Co145 O153 2.135 . S
O146 Co145 2.061 . S
O146 C149 1.235 1_655 S
C147 O150 1.238 . S
C147 O151 1.241 . S
C148 O141 1.247 . S
C148 O142 1.261 . S
C149 O144 1.259 . S
C149 O146 1.235 1_455 S
O150 Co140 2.021 . S
O150 C147 1.238 . S
O151 Co145 2.052 . S
O151 C147 1.241 . S
O152 Co140 2.137 . S
O152 C143 1.247 . S
O153 Co140 2.244 . S
O153 C143 1.272 . S
O153 Co145 2.135 . S
Co154 O155 2.216 . S
Co154 O156 2.091 . S
Co154 O158 2.004 . S
Co154 O164 2.021 . S
Co154 O166 2.137 . S
Co154 O167 2.244 . S
O155 Co154 2.216 . S
O155 C162 1.247 . S
O156 Co154 2.091 . S
O156 C162 1.261 . S
C157 O166 1.247 . S
C157 O167 1.272 . S
O158 Co154 2.004 . S
O158 C163 1.259 . S
Co159 O160 2.061 . S
Co159 O165 2.052 . S
Co159 O167 2.135 . S
O160 Co159 2.061 . S
O160 C163 1.235 . S
C161 O164 1.238 . S
C161 O165 1.241 . S
C162 O155 1.247 . S
C162 O156 1.261 . S
C163 O158 1.259 . S
C163 O160 1.235 . S
O164 Co154 2.021 . S
O164 C161 1.238 . S
O165 Co159 2.052 . S
O165 C161 1.241 . S
O166 Co154 2.137 . S
O166 C157 1.247 . S
O167 Co154 2.244 . S
O167 C157 1.272 . S
O167 Co159 2.135 . S
C168 C169 1.363 . S
C168 C174 1.379 1_554 S
C168 N176 1.356 . S
C169 C168 1.363 . S
C169 C175 1.363 1_554 S
C170 C171 1.363 . S
C170 C175 1.379 . S
C170 N177 1.356 . S
C171 C170 1.363 . S
C171 C174 1.363 . S
N172 C174 1.356 . S
N172 H184 0.984 . S
N172 H185 0.985 . S
N173 C175 1.356 . S
N173 H178 0.984 1_556 S
N173 H179 0.985 . S
C174 C168 1.379 1_556 S
C174 C171 1.363 . S
C174 N172 1.356 . S
C175 C169 1.363 1_556 S
C175 C170 1.379 . S
C175 N173 1.356 . S
N176 C168 1.356 . S
N176 H182 0.984 . S
N176 H183 0.984 . S
N177 C170 1.356 . S
N177 H180 0.984 . S
N177 H181 0.985 . S
H178 N173 0.984 1_554 S
H179 N173 0.985 . S
H180 N177 0.984 . S
H181 N177 0.985 . S
H182 N176 0.984 . S
H183 N176 0.984 . S
H184 N172 0.984 . S
H185 N172 0.985 . S
C186 C187 1.363 1_556 S
C186 C192 1.379 . S
C186 N194 1.356 . S
C187 C186 1.363 1_554 S
C187 C193 1.363 . S
C188 C189 1.363 1_554 S
C188 C193 1.379 . S
C188 N195 1.356 . S
C189 C188 1.363 1_556 S
C189 C192 1.363 . S
N190 C192 1.356 . S
N190 H202 0.984 . S
N190 H203 0.985 . S
N191 C193 1.356 . S
N191 H196 0.984 . S
N191 H197 0.985 . S
C192 C186 1.379 . S
C192 C189 1.363 . S
C192 N190 1.356 . S
C193 C187 1.363 . S
C193 C188 1.379 . S
C193 N191 1.356 . S
N194 C186 1.356 . S
N194 H200 0.984 . S
N194 H201 0.984 . S
N195 C188 1.356 . S
N195 H198 0.984 1_565 S
N195 H199 0.985 . S
H196 N191 0.984 . S
H197 N191 0.985 . S
H198 N195 0.984 1_545 S
H199 N195 0.985 . S
H200 N194 0.984 . S
H201 N194 0.984 . S
H202 N190 0.984 . S
H203 N190 0.985 . S
C204 C205 1.363 . S
C204 C210 1.379 1_554 S
C204 N212 1.356 . S
C205 C204 1.363 . S
C205 C211 1.363 1_554 S
C206 C207 1.363 . S
C206 C211 1.379 . S
C206 N213 1.356 . S
C207 C206 1.363 . S
C207 C210 1.363 . S
N208 C210 1.356 1_554 S
N208 H220 0.984 . S
N208 H221 0.985 1_554 S
N209 C211 1.356 . S
N209 H214 0.984 . S
N209 H215 0.985 . S
C210 C204 1.379 1_556 S
C210 C207 1.363 . S
C210 N208 1.356 1_556 S
C211 C205 1.363 1_556 S
C211 C206 1.379 . S
C211 N209 1.356 . S
N212 C204 1.356 . S
N212 H218 0.984 . S
N212 H219 0.984 . S
N213 C206 1.356 . S
N213 H216 0.984 1_455 S
N213 H217 0.985 . S
H214 N209 0.984 . S
H215 N209 0.985 . S
H216 N213 0.984 1_655 S
H217 N213 0.985 . S
H218 N212 0.984 . S
H219 N212 0.984 . S
H220 N208 0.984 . S
H221 N208 0.985 1_556 S
C222 C223 1.363 . S
C222 C228 1.379 . S
C222 N230 1.356 . S
C223 C222 1.363 . S
C223 C229 1.363 . S
C224 C225 1.363 . S
C224 C229 1.379 . S
C224 N231 1.356 . S
C225 C224 1.363 . S
C225 C228 1.363 . S
N226 C228 1.356 . S
N226 H238 0.984 . S
N226 H239 0.985 . S
N227 C229 1.356 . S
N227 H232 0.984 . S
N227 H233 0.985 . S
C228 C222 1.379 . S
C228 C225 1.363 . S
C228 N226 1.356 . S
C229 C223 1.363 . S
C229 C224 1.379 . S
C229 N227 1.356 . S
N230 C222 1.356 . S
N230 H236 0.984 . S
N230 H237 0.984 . S
N231 C224 1.356 . S
N231 H234 0.984 . S
N231 H235 0.985 . S
H232 N227 0.984 . S
H233 N227 0.985 . S
H234 N231 0.984 . S
H235 N231 0.985 . S
H236 N230 0.984 . S
H237 N230 0.984 . S
H238 N226 0.984 . S
H239 N226 0.985 . S
C240 C241 1.363 . S
C240 C246 1.379 . S
C240 N248 1.356 . S
C241 C240 1.363 . S
C241 C247 1.363 . S
C242 C243 1.363 . S
C242 C247 1.379 . S
C242 N249 1.356 . S
C243 C242 1.363 . S
C243 C246 1.363 . S
N244 C246 1.356 . S
N244 H256 0.984 . S
N244 H257 0.985 1_565 S
N245 C247 1.356 . S
N245 H250 0.984 . S
N245 H251 0.985 . S
C246 C240 1.379 . S
C246 C243 1.363 . S
C246 N244 1.356 . S
C247 C241 1.363 . S
C247 C242 1.379 . S
C247 N245 1.356 . S
N248 C240 1.356 . S
N248 H254 0.984 . S
N248 H255 0.984 . S
N249 C242 1.356 . S
N249 H252 0.984 . S
N249 H253 0.985 . S
H250 N245 0.984 . S
H251 N245 0.985 . S
H252 N249 0.984 . S
H253 N249 0.985 . S
H254 N248 0.984 . S
H255 N248 0.984 . S
H256 N244 0.984 . S
H257 N244 0.985 1_545 S
C258 C259 1.363 . S
C258 C264 1.379 . S
C258 N266 1.356 . S
C259 C258 1.363 . S
C259 C265 1.363 . S
C260 C261 1.363 . S
C260 C265 1.379 . S
C260 N267 1.356 . S
C261 C260 1.363 . S
C261 C264 1.363 . S
N262 C264 1.356 . S
N262 H274 0.984 . S
N262 H275 0.985 . S
N263 C265 1.356 . S
N263 H268 0.984 1_455 S
N263 H269 0.985 . S
C264 C258 1.379 . S
C264 C261 1.363 . S
C264 N262 1.356 . S
C265 C259 1.363 . S
C265 C260 1.379 . S
C265 N263 1.356 . S
N266 C258 1.356 . S
N266 H272 0.984 . S
N266 H273 0.984 . S
N267 C260 1.356 . S
N267 H270 0.984 . S
N267 H271 0.985 . S
H268 N263 0.984 1_655 S
H269 N263 0.985 . S
H270 N267 0.984 . S
H271 N267 0.985 . S
H272 N266 0.984 . S
H273 N266 0.984 . S
H274 N262 0.984 . S
H275 N262 0.985 . S
C276 C277 1.363 . S
C276 C282 1.379 . S
C276 N284 1.356 . S
C277 C276 1.363 . S
C277 C283 1.363 1_554 S
C278 C279 1.363 . S
C278 C283 1.379 . S
C278 N285 1.356 . S
C279 C278 1.363 . S
C279 C282 1.363 1_556 S
N280 C282 1.356 . S
N280 H292 0.984 . S
N280 H293 0.985 . S
N281 C283 1.356 . S
N281 H286 0.984 . S
N281 H287 0.985 . S
C282 C276 1.379 . S
C282 C279 1.363 1_554 S
C282 N280 1.356 . S
C283 C277 1.363 1_556 S
C283 C278 1.379 . S
C283 N281 1.356 . S
N284 C276 1.356 . S
N284 H290 0.984 . S
N284 H291 0.984 . S
N285 C278 1.356 . S
N285 H288 0.984 . S
N285 H289 0.985 . S
H286 N281 0.984 . S
H287 N281 0.985 . S
H288 N285 0.984 . S
H289 N285 0.985 . S
H290 N284 0.984 . S
H291 N284 0.984 . S
H292 N280 0.984 . S
H293 N280 0.985 . S
C294 C295 1.363 . S
C294 C300 1.379 . S
C294 N302 1.356 . S
C295 C294 1.363 . S
C295 C301 1.363 1_556 S
C296 C297 1.363 . S
C296 C301 1.379 . S
C296 N303 1.356 . S
C297 C296 1.363 . S
C297 C300 1.363 1_554 S
N298 C300 1.356 . S
N298 H310 0.984 . S
N298 H311 0.985 1_545 S
N299 C301 1.356 . S
N299 H304 0.984 . S
N299 H305 0.985 . S
C300 C294 1.379 . S
C300 C297 1.363 1_556 S
C300 N298 1.356 . S
C301 C295 1.363 1_554 S
C301 C296 1.379 . S
C301 N299 1.356 . S
N302 C294 1.356 . S
N302 H308 0.984 . S
N302 H309 0.984 . S
N303 C296 1.356 . S
N303 H306 0.984 . S
N303 H307 0.985 . S
H304 N299 0.984 . S
H305 N299 0.985 . S
H306 N303 0.984 . S
H307 N303 0.985 . S
H308 N302 0.984 . S
H309 N302 0.984 . S
H310 N298 0.984 . S
H311 N298 0.985 1_565 S
C312 C313 1.363 . S
C312 C318 1.379 . S
C312 N320 1.356 . S
C313 C312 1.363 . S
C313 C319 1.363 1_554 S
C314 C315 1.363 . S
C314 C319 1.379 . S
C314 N321 1.356 . S
C315 C314 1.363 . S
C315 C318 1.363 1_556 S
N316 C318 1.356 . S
N316 H328 0.984 . S
N316 H329 0.985 . S
N317 C319 1.356 . S
N317 H322 0.993 . S
N317 H323 0.985 . S
C318 C312 1.379 . S
C318 C315 1.363 1_554 S
C318 N316 1.356 . S
C319 C313 1.363 1_556 S
C319 C314 1.379 . S
C319 N317 1.356 . S
N320 C312 1.356 . S
N320 H326 0.984 . S
N320 H327 0.984 . S
N321 C314 1.356 . S
N321 H324 0.984 . S
N321 H325 0.985 . S
H322 N317 0.993 . S
H323 N317 0.985 . S
H324 N321 0.984 . S
H325 N321 0.985 . S
H326 N320 0.984 . S
H327 N320 0.984 . S
H328 N316 0.984 . S
H329 N316 0.985 . S
C330 C331 1.363 . S
C330 C336 1.379 . S
C330 N338 1.356 . S
C331 C330 1.363 . S
C331 C337 1.363 . S
C332 C333 1.363 . S
C332 C337 1.379 . S
C332 N339 1.356 . S
C333 C332 1.363 . S
C333 C336 1.363 . S
N334 C336 1.356 . S
N334 H346 0.984 . S
N334 H347 0.985 . S
N335 C337 1.356 . S
N335 H340 0.984 . S
N335 H341 0.985 . S
C336 C330 1.379 . S
C336 C333 1.363 . S
C336 N334 1.356 . S
C337 C331 1.363 . S
C337 C332 1.379 . S
C337 N335 1.356 . S
N338 C330 1.356 . S
N338 H344 0.984 . S
N338 H345 0.984 . S
N339 C332 1.356 . S
N339 H342 0.984 . S
N339 H343 0.985 . S
H340 N335 0.984 . S
H341 N335 0.985 . S
H342 N339 0.984 . S
H343 N339 0.985 . S
H344 N338 0.984 . S
H345 N338 0.984 . S
H346 N334 0.984 . S
H347 N334 0.985 . S
C348 C349 1.363 . S
C348 C354 1.379 . S
C348 N356 1.356 . S
C349 C348 1.363 . S
C349 C355 1.363 . S
C350 C351 1.363 . S
C350 C355 1.379 . S
C350 N357 1.356 . S
C351 C350 1.363 . S
C351 C354 1.363 . S
N352 C354 1.356 . S
N352 H364 0.984 . S
N352 H365 0.985 1_545 S
N353 C355 1.356 . S
N353 H358 0.984 . S
N353 H359 0.985 . S
C354 C348 1.379 . S
C354 C351 1.363 . S
C354 N352 1.356 . S
C355 C349 1.363 . S
C355 C350 1.379 . S
C355 N353 1.356 . S
N356 C348 1.356 . S
N356 H362 0.984 . S
N356 H363 0.984 . S
N357 C350 1.356 . S
N357 H360 0.984 . S
N357 H361 0.985 . S
H358 N353 0.984 . S
H359 N353 0.985 . S
H360 N357 0.984 . S
H361 N357 0.985 . S
H362 N356 0.984 . S
H363 N356 0.984 . S
H364 N352 0.984 . S
H365 N352 0.985 1_565 S
C366 C367 1.363 . S
C366 C372 1.379 . S
C366 N374 1.356 . S
C367 C366 1.363 . S
C367 C373 1.363 . S
C368 C369 1.363 . S
C368 C373 1.379 . S
C368 N375 1.356 . S
C369 C368 1.363 . S
C369 C372 1.363 . S
N370 C372 1.356 . S
N370 H382 0.984 . S
N370 H383 0.985 . S
N371 C373 1.356 . S
N371 H376 0.984 1_655 S
N371 H377 0.985 1_655 S
C372 C366 1.379 . S
C372 C369 1.363 . S
C372 N370 1.356 . S
C373 C367 1.363 . S
C373 C368 1.379 . S
C373 N371 1.356 . S
N374 C366 1.356 . S
N374 H380 0.984 . S
N374 H381 0.984 . S
N375 C368 1.356 . S
N375 H378 0.984 . S
N375 H379 0.985 . S
H376 N371 0.984 1_455 S
H377 N371 0.985 1_455 S
H378 N375 0.984 . S
H379 N375 0.985 . S
H380 N374 0.984 . S
H381 N374 0.984 . S
H382 N370 0.984 . S
H383 N370 0.985 . S
C384 C385 1.363 . S
C384 C390 1.379 . S
C384 N392 1.356 . S
C385 C384 1.363 . S
C385 C391 1.363 . S
C386 C387 1.363 . S
C386 C391 1.379 . S
C386 N393 1.356 . S
C387 C386 1.363 . S
C387 C390 1.363 . S
N388 C390 1.356 . S
N388 H400 0.984 . S
N388 H401 0.985 . S
N389 C391 1.356 . S
N389 H394 0.984 . S
N389 H395 0.985 . S
C390 C384 1.379 . S
C390 C387 1.363 . S
C390 N388 1.356 . S
C391 C385 1.363 . S
C391 C386 1.379 . S
C391 N389 1.356 . S
N392 C384 1.356 . S
N392 H398 0.984 . S
N392 H399 0.984 . S
N393 C386 1.356 . S
N393 H396 0.984 . S
N393 H397 0.985 . S
H394 N389 0.984 . S
H395 N389 0.985 . S
H396 N393 0.984 . S
H397 N393 0.985 . S
H398 N392 0.984 . S
H399 N392 0.984 . S
H400 N388 0.984 . S
H401 N388 0.985 . S
C402 C403 1.363 . S
C402 C408 1.379 . S
C402 N410 1.356 . S
C403 C402 1.363 . S
C403 C409 1.363 . S
C404 C405 1.363 . S
C404 C409 1.379 . S
C404 N411 1.356 . S
C405 C404 1.363 . S
C405 C408 1.363 . S
N406 C408 1.356 . S
N406 H418 0.984 . S
N406 H419 0.985 . S
N407 C409 1.356 . S
N407 H412 0.984 . S
N407 H413 0.985 . S
C408 C402 1.379 . S
C408 C405 1.363 . S
C408 N406 1.356 . S
C409 C403 1.363 . S
C409 C404 1.379 . S
C409 N407 1.356 . S
N410 C402 1.356 . S
N410 H416 0.984 . S
N410 H417 0.984 . S
N411 C404 1.356 . S
N411 H414 0.984 . S
N411 H415 0.985 . S
H412 N407 0.984 . S
H413 N407 0.985 . S
H414 N411 0.984 . S
H415 N411 0.985 . S
H416 N410 0.984 . S
H417 N410 0.984 . S
H418 N406 0.984 . S
H419 N406 0.985 . S
C420 C421 1.363 . S
C420 C426 1.379 . S
C420 N428 1.356 . S
C421 C420 1.363 . S
C421 C427 1.363 . S
C422 C423 1.363 . S
C422 C427 1.379 . S
C422 N429 1.356 . S
C423 C422 1.363 . S
C423 C426 1.363 . S
N424 C426 1.356 . S
N424 H436 0.984 . S
N424 H437 0.985 . S
N425 C427 1.356 . S
N425 H430 0.984 . S
N425 H431 0.985 . S
C426 C420 1.379 . S
C426 C423 1.363 . S
C426 N424 1.356 . S
C427 C421 1.363 . S
C427 C422 1.379 . S
C427 N425 1.356 . S
N428 C420 1.356 . S
N428 H434 0.984 . S
N428 H435 0.984 . S
N429 C422 1.356 . S
N429 H432 0.984 . S
N429 H433 0.985 . S
H430 N425 0.984 . S
H431 N425 0.985 . S
H432 N429 0.984 . S
H433 N429 0.985 . S
H434 N428 0.984 . S
H435 N428 0.984 . S
H436 N424 0.984 . S
H437 N424 0.985 . S
C438 C439 1.363 . S
C438 C444 1.379 . S
C438 N446 1.356 . S
C439 C438 1.363 . S
C439 C445 1.363 . S
C440 C441 1.363 . S
C440 C445 1.379 . S
C440 N447 1.356 . S
C441 C440 1.363 . S
C441 C444 1.363 . S
N442 C444 1.356 . S
N442 H454 0.984 . S
N442 H455 0.985 . S
N443 C445 1.356 . S
N443 H448 0.984 . S
N443 H449 0.985 . S
C444 C438 1.379 . S
C444 C441 1.363 . S
C444 N442 1.356 . S
C445 C439 1.363 . S
C445 C440 1.379 . S
C445 N443 1.356 . S
N446 C438 1.356 . S
N446 H452 0.984 . S
N446 H453 0.984 . S
N447 C440 1.356 . S
N447 H450 0.984 . S
N447 H451 0.985 . S
H448 N443 0.984 . S
H449 N443 0.985 . S
H450 N447 0.984 . S
H451 N447 0.985 . S
H452 N446 0.984 . S
H453 N446 0.984 . S
H454 N442 0.984 . S
H455 N442 0.985 . S
C456 C457 1.363 . S
C456 C462 1.379 . S
C456 N464 1.356 . S
C457 C456 1.363 . S
C457 C463 1.363 . S
C458 C459 1.363 . S
C458 C463 1.379 . S
C458 N465 1.356 . S
C459 C458 1.363 . S
C459 C462 1.363 . S
N460 C462 1.356 . S
N460 H472 0.984 . S
N460 H473 0.985 . S
N461 C463 1.356 . S
N461 H466 0.984 . S
N461 H467 0.985 . S
C462 C456 1.379 . S
C462 C459 1.363 . S
C462 N460 1.356 . S
C463 C457 1.363 . S
C463 C458 1.379 . S
C463 N461 1.356 . S
N464 C456 1.356 . S
N464 H470 0.984 . S
N464 H471 0.984 . S
N465 C458 1.356 . S
N465 H468 0.984 . S
N465 H469 0.985 . S
H466 N461 0.984 . S
H467 N461 0.985 . S
H468 N465 0.984 . S
H469 N465 0.985 . S
H470 N464 0.984 . S
H471 N464 0.984 . S
H472 N460 0.984 . S
H473 N460 0.985 . S
C474 C475 1.363 . S
C474 C480 1.379 . S
C474 N482 1.356 . S
C475 C474 1.363 . S
C475 C481 1.363 . S
C476 C477 1.363 . S
C476 C481 1.379 . S
C476 N483 1.356 . S
C477 C476 1.363 . S
C477 C480 1.363 . S
N478 C480 1.356 . S
N478 H490 0.984 . S
N478 H491 0.985 . S
N479 C481 1.356 . S
N479 H484 0.984 . S
N479 H485 0.985 . S
C480 C474 1.379 . S
C480 C477 1.363 . S
C480 N478 1.356 . S
C481 C475 1.363 . S
C481 C476 1.379 . S
C481 N479 1.356 . S
N482 C474 1.356 . S
N482 H488 0.984 . S
N482 H489 0.984 . S
N483 C476 1.356 . S
N483 H486 0.984 . S
N483 H487 0.985 . S
H484 N479 0.984 . S
H485 N479 0.985 . S
H486 N483 0.984 . S
H487 N483 0.985 . S
H488 N482 0.984 . S
H489 N482 0.984 . S
H490 N478 0.984 . S
H491 N478 0.985 . S
C492 C493 1.363 1_655 S
C492 C498 1.379 . S
C492 N500 1.356 . S
C493 C492 1.363 1_455 S
C493 C499 1.363 1_554 S
C494 C495 1.363 1_455 S
C494 C499 1.379 . S
C494 N501 1.356 . S
C495 C494 1.363 1_655 S
C495 C498 1.363 1_556 S
N496 C498 1.356 . S
N496 H508 0.984 . S
N496 H509 0.985 1_554 S
N497 C499 1.356 . S
N497 H502 1.000 . S
N497 H503 0.985 . S
C498 C492 1.379 . S
C498 C495 1.363 1_554 S
C498 N496 1.356 . S
C499 C493 1.363 1_556 S
C499 C494 1.379 . S
C499 N497 1.356 . S
N500 C492 1.356 . S
N500 H506 0.984 . S
N500 H507 0.984 1_655 S
N501 C494 1.356 . S
N501 H504 0.984 1_455 S
N501 H505 0.985 . S
H502 N497 1.000 . S
H503 N497 0.985 . S
H504 N501 0.984 1_655 S
H505 N501 0.985 . S
H506 N500 0.984 . S
H507 N500 0.984 1_455 S
H508 N496 0.984 . S
H509 N496 0.985 1_556 S
C510 C511 1.363 1_556 S
C510 C516 1.379 . S
C510 N518 1.356 . S
C511 C510 1.363 1_554 S
C511 C517 1.363 . S
C512 C513 1.363 1_554 S
C512 C517 1.379 . S
C512 N519 1.356 1_554 S
C513 C512 1.363 1_556 S
C513 C516 1.363 . S
N514 C516 1.356 . S
N514 H526 0.984 . S
N514 H527 0.985 . S
N515 C517 1.356 . S
N515 H520 0.984 . S
N515 H521 0.985 . S
C516 C510 1.379 . S
C516 C513 1.363 . S
C516 N514 1.356 . S
C517 C511 1.363 . S
C517 C512 1.379 . S
C517 N515 1.356 . S
N518 C510 1.356 . S
N518 H524 0.984 . S
N518 H525 0.984 1_556 S
N519 C512 1.356 1_556 S
N519 H522 0.984 . S
N519 H523 0.985 1_556 S
H520 N515 0.984 . S
H521 N515 0.985 . S
H522 N519 0.984 . S
H523 N519 0.985 1_554 S
H524 N518 0.984 . S
H525 N518 0.984 1_554 S
H526 N514 0.984 . S
H527 N514 0.985 . S
C528 C529 1.349 1_546 S
C528 C534 1.380 . S
C528 N536 1.366 1_545 S
C529 C528 1.349 1_564 S
C529 C535 1.363 . S
C530 C531 1.363 1_564 S
C530 C535 1.379 . S
C530 N537 1.358 . S
C531 C530 1.363 1_546 S
C531 C534 1.363 . S
N532 C534 1.356 . S
N532 H544 0.984 . S
N532 H545 0.985 . S
N533 C535 1.356 . S
N533 H538 0.984 . S
N533 H539 0.985 . S
C534 C528 1.380 . S
C534 C531 1.363 . S
C534 N532 1.356 . S
C535 C529 1.363 . S
C535 C530 1.379 . S
C535 N533 1.356 . S
N536 C528 1.366 1_565 S
N536 H542 0.984 1_565 S
N536 H543 0.984 1_556 S
N537 C530 1.358 . S
N537 H540 0.969 1_564 S
N537 H541 0.999 . S
H538 N533 0.984 . S
H539 N533 0.985 . S
H540 N537 0.969 1_546 S
H541 N537 0.999 . S
H542 N536 0.984 1_545 S
H543 N536 0.984 1_554 S
H544 N532 0.984 . S
H545 N532 0.985 . S
C546 C547 1.363 1_545 S
C546 C552 1.379 . S
C546 N554 1.356 . S
C547 C546 1.363 1_565 S
C547 C553 1.363 . S
C548 C549 1.363 1_565 S
C548 C553 1.379 . S
C548 N555 1.356 . S
C549 C548 1.363 1_545 S
C549 C552 1.363 . S
N550 C552 1.356 . S
N550 H562 0.984 . S
N550 H563 0.985 . S
N551 C553 1.356 . S
N551 H556 0.984 . S
N551 H557 0.985 . S
C552 C546 1.379 . S
C552 C549 1.363 . S
C552 N550 1.356 . S
C553 C547 1.363 . S
C553 C548 1.379 . S
C553 N551 1.356 . S
N554 C546 1.356 . S
N554 H560 0.984 . S
N554 H561 0.984 . S
N555 C548 1.356 . S
N555 H558 0.984 . S
N555 H559 0.985 . S
H556 N551 0.984 . S
H557 N551 0.985 . S
H558 N555 0.984 . S
H559 N555 0.985 . S
H560 N554 0.984 . S
H561 N554 0.984 . S
H562 N550 0.984 . S
H563 N550 0.985 . S
C564 C565 1.363 1_455 S
C564 C570 1.379 . S
C564 N572 1.356 . S
C565 C564 1.363 1_655 S
C565 C571 1.363 . S
C566 C567 1.363 1_655 S
C566 C571 1.379 . S
C566 N573 1.356 . S
C567 C566 1.363 1_455 S
C567 C570 1.363 . S
N568 C570 1.356 . S
N568 H580 0.984 . S
N568 H581 0.985 . S
N569 C571 1.356 . S
N569 H574 0.984 . S
N569 H575 0.985 . S
C570 C564 1.379 . S
C570 C567 1.363 . S
C570 N568 1.356 . S
C571 C565 1.363 . S
C571 C566 1.379 . S
C571 N569 1.356 . S
N572 C564 1.356 . S
N572 H578 0.984 . S
N572 H579 0.984 1_455 S
N573 C566 1.356 . S
N573 H576 0.984 1_655 S
N573 H577 0.985 . S
H574 N569 0.984 . S
H575 N569 0.985 . S
H576 N573 0.984 1_455 S
H577 N573 0.985 . S
H578 N572 0.984 . S
H579 N572 0.984 1_655 S
H580 N568 0.984 . S
H581 N568 0.985 . S
C582 C583 1.363 . S
C582 C588 1.379 . S
C582 N590 1.356 . S
C583 C582 1.363 . S
C583 C589 1.363 . S
C584 C585 1.363 . S
C584 C589 1.379 . S
C584 N591 1.356 . S
C585 C584 1.363 . S
C585 C588 1.363 . S
N586 C588 1.356 . S
N586 H598 0.984 . S
N586 H599 0.985 . S
N587 C589 1.356 . S
N587 H592 0.984 . S
N587 H593 0.985 . S
C588 C582 1.379 . S
C588 C585 1.363 . S
C588 N586 1.356 . S
C589 C583 1.363 . S
C589 C584 1.379 . S
C589 N587 1.356 . S
N590 C582 1.356 . S
N590 H596 0.984 . S
N590 H597 0.984 . S
N591 C584 1.356 . S
N591 H594 0.984 . S
N591 H595 0.985 . S
H592 N587 0.984 . S
H593 N587 0.985 . S
H594 N591 0.984 . S
H595 N591 0.985 . S
H596 N590 0.984 . S
H597 N590 0.984 . S
H598 N586 0.984 . S
H599 N586 0.985 . S
C169 C7 1.007 . S
C171 C107 1.002 . S
C187 C21 0.990 . S
C189 C119 0.988 . S
C205 C35 0.982 . S
C207 C91 0.983 . S
C223 C161 0.983 . S
C225 C49 0.982 . S
C241 C63 0.990 . S
C243 C133 0.988 . S
C259 C149 1.003 . S
C261 C77 1.007 . S
C277 C23 0.984 . S
C279 C93 0.973 . S
C295 C105 0.954 . S
C297 C37 0.949 . S
C313 C9 0.976 . S
C315 C121 0.962 . S
C331 C135 0.962 . S
C333 C79 0.976 . S
C349 C147 0.954 . S
C351 C51 0.949 . S
C367 C65 0.984 . S
C369 C163 0.973 . S
C385 C78 1.598 . S
C387 C8 1.598 . S
C403 C22 1.642 . S
C405 C50 1.649 . S
C421 C36 1.648 . S
C423 C64 1.641 . S
C439 C87 1.632 . S
C441 C157 1.632 . S
C457 C106 1.649 . S
C459 C129 1.631 . S
C475 C115 1.631 . S
C477 C148 1.649 . S
C493 C3 1.685 . S
C495 C92 1.687 . S
C511 C17 1.698 . S
C513 C101 1.697 . S
C529 C31 1.697 . S
C531 C120 1.696 . S
C547 C45 1.697 . S
C549 C134 1.696 . S
C565 C143 1.698 . S
C567 C59 1.698 . S
C583 C73 1.685 . S
C585 C162 1.687 . S
