# Generated by pormake.
# Topology umg, (4)-cn, num edge types: 1
# Building blocks:
#     Node 0, Type 0, BuildingBlock: GALJAG_clean_sbu_0, # of connection points: 4
#     Node 1, Type 0, BuildingBlock: GALJAG_clean_sbu_0, # of connection points: 4
#     Node 2, Type 0, BuildingBlock: GALJAG_clean_sbu_0, # of connection points: 4
#     Node 3, Type 0, BuildingBlock: GALJAG_clean_sbu_0, # of connection points: 4
#     Node 4, Type 0, BuildingBlock: GALJAG_clean_sbu_0, # of connection points: 4
#     Node 5, Type 0, BuildingBlock: GALJAG_clean_sbu_0, # of connection points: 4
#     Node 6, Type 0, BuildingBlock: GALJAG_clean_sbu_0, # of connection points: 4
#     Node 7, Type 0, BuildingBlock: GALJAG_clean_sbu_0, # of connection points: 4
#     Node 8, Type 0, BuildingBlock: GALJAG_clean_sbu_0, # of connection points: 4
#     Node 9, Type 0, BuildingBlock: GALJAG_clean_sbu_0, # of connection points: 4
#     Node 10, Type 0, BuildingBlock: GALJAG_clean_sbu_0, # of connection points: 4
#     Node 11, Type 0, BuildingBlock: GALJAG_clean_sbu_0, # of connection points: 4
#     Edge 12, Type (0, 0), BuildingBlock: UVAHIK_clean_linker_0, # of connection points: 2
#     Edge 13, Type (0, 0), BuildingBlock: UVAHIK_clean_linker_0, # of connection points: 2
#     Edge 14, Type (0, 0), BuildingBlock: UVAHIK_clean_linker_0, # of connection points: 2
#     Edge 15, Type (0, 0), BuildingBlock: UVAHIK_clean_linker_0, # of connection points: 2
#     Edge 16, Type (0, 0), BuildingBlock: UVAHIK_clean_linker_0, # of connection points: 2
#     Edge 17, Type (0, 0), BuildingBlock: UVAHIK_clean_linker_0, # of connection points: 2
#     Edge 18, Type (0, 0), BuildingBlock: UVAHIK_clean_linker_0, # of connection points: 2
#     Edge 19, Type (0, 0), BuildingBlock: UVAHIK_clean_linker_0, # of connection points: 2
#     Edge 20, Type (0, 0), BuildingBlock: UVAHIK_clean_linker_0, # of connection points: 2
#     Edge 21, Type (0, 0), BuildingBlock: UVAHIK_clean_linker_0, # of connection points: 2
#     Edge 22, Type (0, 0), BuildingBlock: UVAHIK_clean_linker_0, # of connection points: 2
#     Edge 23, Type (0, 0), BuildingBlock: UVAHIK_clean_linker_0, # of connection points: 2
#     Edge 24, Type (0, 0), BuildingBlock: UVAHIK_clean_linker_0, # of connection points: 2
#     Edge 25, Type (0, 0), BuildingBlock: UVAHIK_clean_linker_0, # of connection points: 2
#     Edge 26, Type (0, 0), BuildingBlock: UVAHIK_clean_linker_0, # of connection points: 2
#     Edge 27, Type (0, 0), BuildingBlock: UVAHIK_clean_linker_0, # of connection points: 2
#     Edge 28, Type (0, 0), BuildingBlock: UVAHIK_clean_linker_0, # of connection points: 2
#     Edge 29, Type (0, 0), BuildingBlock: UVAHIK_clean_linker_0, # of connection points: 2
#     Edge 30, Type (0, 0), BuildingBlock: UVAHIK_clean_linker_0, # of connection points: 2
#     Edge 31, Type (0, 0), BuildingBlock: UVAHIK_clean_linker_0, # of connection points: 2
#     Edge 32, Type (0, 0), BuildingBlock: UVAHIK_clean_linker_0, # of connection points: 2
#     Edge 33, Type (0, 0), BuildingBlock: UVAHIK_clean_linker_0, # of connection points: 2
#     Edge 34, Type (0, 0), BuildingBlock: UVAHIK_clean_linker_0, # of connection points: 2
#     Edge 35, Type (0, 0), BuildingBlock: UVAHIK_clean_linker_0, # of connection points: 2
# Relax obj value: 0.078
# Max RMSD: 0.205
# Mean RMSD: 0.205
data_MOF--net-umg--node1-GALJAG_clean_sbu_0--edge1-UVAHIK_clean_linker_0
_symmetry_space_group_name_H-M    P1
_symmetry_Int_Tables_number       1
_symmetry_cell_setting            triclinic
loop_
_symmetry_equiv_pos_as_xyz
'x, y, z'
_cell_length_a     36.918572
_cell_length_b     36.916931
_cell_length_c     111.43712
_cell_angle_alpha  89.848967
_cell_angle_beta   90.108263
_cell_angle_gamma 120.05228
loop_
_atom_site_label
_atom_site_type_symbol
_atom_site_fract_x
_atom_site_fract_y
_atom_site_fract_z
_atom_type_partial_charge
In0 In 0.3026 0.60673 0.07864 0.0
O1 O 0.32938 0.66493 0.06649 0.0
O2 O 0.3143 0.60591 0.05891 0.0
C3 C 0.31852 0.63505 0.10128 0.0
C4 C 0.35285 0.57343 0.07864 0.0
C5 C 0.21882 0.57471 0.07748 0.0
O6 O 0.32951 0.65983 0.09241 0.0
O7 O 0.29906 0.59669 0.09864 0.0
O8 O 0.23482 0.55162 0.07883 0.0
O9 O 0.24499 0.61321 0.07654 0.0
C10 C 0.32878 0.64457 0.0573 0.0
O11 O 0.31388 0.55129 0.07664 0.0
O12 O 0.36569 0.61159 0.08072 0.0
In13 In 0.6976 0.30119 0.41046 0.0
O14 O 0.76481 0.31313 0.41 0.0
O15 O 0.75516 0.36545 0.41087 0.0
C16 C 0.64625 0.21759 0.40852 0.0
C17 C 0.68302 0.32698 0.3894 0.0
C18 C 0.6867 0.31469 0.43349 0.0
O19 O 0.68563 0.23422 0.40792 0.0
O20 O 0.63336 0.24307 0.41007 0.0
O21 O 0.6716 0.32578 0.42498 0.0
O22 O 0.70622 0.29639 0.43031 0.0
C23 C 0.78103 0.35258 0.41044 0.0
O24 O 0.66602 0.32936 0.39899 0.0
O25 O 0.70615 0.31106 0.39051 0.0
In26 In 0.39065 0.70269 0.73989 0.0
O27 O 0.32762 0.66692 0.73007 0.0
O28 O 0.38289 0.70587 0.71998 0.0
C29 C 0.37331 0.69806 0.76343 0.0
C30 C 0.42164 0.7855 0.73754 0.0
C31 C 0.42374 0.6521 0.73827 0.0
O32 O 0.34464 0.68054 0.75566 0.0
O33 O 0.41001 0.71684 0.75928 0.0
O34 O 0.4463 0.69155 0.73791 0.0
O35 O 0.38509 0.63871 0.73936 0.0
C36 C 0.34376 0.68169 0.71993 0.0
O37 O 0.44445 0.76912 0.73621 0.0
O38 O 0.38385 0.7601 0.74008 0.0
In39 In 0.69286 0.38836 0.07849 0.0
O40 O 0.66107 0.33265 0.06545 0.0
O41 O 0.71638 0.3878 0.0599 0.0
C42 C 0.66252 0.35218 0.09992 0.0
C43 C 0.64632 0.4246 0.07412 0.0
C44 C 0.77611 0.42632 0.08254 0.0
O45 O 0.67136 0.33399 0.09182 0.0
O46 O 0.66875 0.38796 0.09717 0.0
O47 O 0.7589 0.44621 0.07856 0.0
O48 O 0.75116 0.38822 0.0848 0.0
C49 C 0.68798 0.35127 0.05732 0.0
O50 O 0.68342 0.44523 0.07806 0.0
O51 O 0.63365 0.38647 0.07209 0.0
In52 In 0.30919 0.68979 0.41028 0.0
O53 O 0.2427 0.68032 0.40983 0.0
O54 O 0.25043 0.62843 0.41422 0.0
C55 C 0.35823 0.77277 0.40648 0.0
C56 C 0.32033 0.66001 0.38946 0.0
C57 C 0.33104 0.68281 0.43281 0.0
O58 O 0.31923 0.75608 0.40824 0.0
O59 O 0.37185 0.7475 0.40642 0.0
O60 O 0.32938 0.65864 0.42455 0.0
O61 O 0.3222 0.71027 0.42965 0.0
C62 C 0.22543 0.64186 0.41252 0.0
O63 O 0.34227 0.66387 0.39862 0.0
O64 O 0.29369 0.67149 0.39087 0.0
In65 In 0.60869 0.30972 0.73942 0.0
O66 O 0.55302 0.24513 0.73481 0.0
O67 O 0.61385 0.25226 0.7357 0.0
C68 C 0.57701 0.36145 0.73999 0.0
C69 C 0.65963 0.34321 0.72044 0.0
C70 C 0.62166 0.30601 0.76303 0.0
O71 O 0.55527 0.32356 0.7368 0.0
O72 O 0.6142 0.3727 0.74298 0.0
O73 O 0.6516 0.32744 0.7559 0.0
O74 O 0.58599 0.28716 0.7582 0.0
C75 C 0.57525 0.228 0.73402 0.0
O76 O 0.67323 0.33871 0.73045 0.0
O77 O 0.62102 0.33093 0.72016 0.0
In78 In 0.39705 0.69369 0.58338 0.0
O79 O 0.45272 0.68373 0.58713 0.0
O80 O 0.39534 0.63211 0.58103 0.0
C81 C 0.42877 0.77662 0.58664 0.0
C82 C 0.34727 0.66345 0.60273 0.0
C83 C 0.37985 0.68694 0.55978 0.0
O84 O 0.45193 0.76044 0.58609 0.0
O85 O 0.39008 0.7509 0.58579 0.0
O86 O 0.35252 0.6642 0.56742 0.0
O87 O 0.41499 0.71293 0.56409 0.0
C88 C 0.43253 0.64529 0.58438 0.0
O89 O 0.33322 0.66697 0.59269 0.0
O90 O 0.38584 0.67553 0.6029 0.0
In91 In 0.69909 0.39964 0.91146 0.0
O92 O 0.76552 0.45626 0.91262 0.0
O93 O 0.75768 0.39791 0.90669 0.0
C94 C 0.6499 0.43361 0.91477 0.0
C95 C 0.69134 0.36115 0.93257 0.0
C96 C 0.67628 0.36885 0.88918 0.0
O97 O 0.68819 0.45562 0.91202 0.0
O98 O 0.63719 0.39515 0.91614 0.0
O99 O 0.67559 0.34617 0.89781 0.0
O100 O 0.68802 0.40627 0.89189 0.0
C101 C 0.78274 0.43576 0.90921 0.0
O102 O 0.66688 0.34221 0.92393 0.0
O103 O 0.71848 0.39874 0.93054 0.0
In104 In 0.30787 0.70233 0.24959 0.0
O105 O 0.31806 0.76759 0.25397 0.0
O106 O 0.37085 0.75881 0.25368 0.0
C107 C 0.22461 0.65175 0.24686 0.0
C108 C 0.31861 0.66842 0.26966 0.0
C109 C 0.33102 0.70409 0.22668 0.0
O110 O 0.24035 0.69006 0.24956 0.0
O111 O 0.25085 0.63974 0.24543 0.0
O112 O 0.3338 0.68037 0.2344 0.0
O113 O 0.31664 0.72641 0.23057 0.0
C114 C 0.35732 0.78384 0.25509 0.0
O115 O 0.33943 0.67243 0.26025 0.0
O116 O 0.29316 0.68171 0.26887 0.0
In117 In 0.61633 0.30461 0.58332 0.0
O118 O 0.67936 0.33896 0.59317 0.0
O119 O 0.62542 0.29405 0.60276 0.0
C120 C 0.63567 0.32354 0.56003 0.0
C121 C 0.58448 0.35473 0.58808 0.0
C122 C 0.58174 0.22065 0.58256 0.0
O123 O 0.66263 0.32676 0.56763 0.0
O124 O 0.59956 0.31078 0.56421 0.0
O125 O 0.56087 0.23783 0.58563 0.0
O126 O 0.61927 0.2458 0.57973 0.0
C127 C 0.66412 0.32016 0.60299 0.0
O128 O 0.56121 0.31573 0.58651 0.0
O129 O 0.62319 0.36772 0.58749 0.0
In130 In 0.30684 0.61622 0.91212 0.0
O131 O 0.2403 0.55973 0.91312 0.0
O132 O 0.24957 0.61994 0.9174 0.0
C133 C 0.35489 0.58074 0.90963 0.0
C134 C 0.3387 0.65586 0.93298 0.0
C135 C 0.31189 0.64597 0.88979 0.0
O136 O 0.31735 0.56007 0.91323 0.0
O137 O 0.36729 0.61848 0.90703 0.0
O138 O 0.33477 0.6691 0.89821 0.0
O139 O 0.28691 0.60856 0.89272 0.0
C140 C 0.22396 0.58143 0.9161 0.0
O141 O 0.33199 0.67407 0.92435 0.0
O142 O 0.32903 0.61847 0.93104 0.0
In143 In 0.69777 0.30747 0.24845 0.0
O144 O 0.68745 0.24158 0.25199 0.0
O145 O 0.63562 0.25168 0.25351 0.0
C146 C 0.78102 0.35713 0.24533 0.0
C147 C 0.68821 0.33989 0.26895 0.0
C148 C 0.67123 0.30664 0.22593 0.0
O149 O 0.76502 0.31878 0.24805 0.0
O150 O 0.75501 0.36948 0.24397 0.0
O151 O 0.67374 0.33302 0.23359 0.0
O152 O 0.68216 0.28124 0.22964 0.0
C153 C 0.6487 0.22602 0.25408 0.0
O154 O 0.66641 0.336 0.25975 0.0
O155 O 0.71423 0.32751 0.2677 0.0
C156 C 0.34022 0.69944 0.95036 0.0
C157 C 0.35464 0.675 0.94477 0.0
C158 C 0.34762 0.70858 0.96264 0.0
C159 C 0.35954 0.65636 0.98869 0.0
H160 H 0.38085 0.75437 0.00696 0.0
C161 C 0.36865 0.65058 0.03899 0.0
C162 C 0.34492 0.66365 0.04553 0.0
C163 C 0.37845 0.66219 0.02703 0.0
C164 C 0.37472 0.72679 0.00194 0.0
H165 H 0.39181 0.64505 0.94702 0.0
H166 H 0.40606 0.66225 0.9682 0.0
H167 H 0.38345 0.75761 0.98489 0.0
H168 H 0.31486 0.7011 0.04512 0.0
H169 H 0.33039 0.72011 0.02382 0.0
H170 H 0.34941 0.62486 0.0054 0.0
C171 C 0.38791 0.67318 0.96333 0.0
C172 C 0.37627 0.72868 0.98935 0.0
C173 C 0.37991 0.66346 0.95121 0.0
C174 C 0.33329 0.69077 0.04018 0.0
C175 C 0.34229 0.7017 0.02804 0.0
C176 C 0.35784 0.65444 0.00113 0.0
C177 C 0.36987 0.69371 0.96933 0.0
C178 C 0.36915 0.6935 0.98263 0.0
C179 C 0.36353 0.68602 0.02123 0.0
C180 C 0.36588 0.68964 0.00795 0.0
H181 H 0.32054 0.70853 0.94552 0.0
H182 H 0.33336 0.72447 0.96704 0.0
H183 H 0.35245 0.62826 0.98378 0.0
H184 H 0.37845 0.63012 0.04302 0.0
H185 H 0.39599 0.65068 0.02215 0.0
C186 C 0.70983 0.35521 0.36914 0.0
C187 C 0.67802 0.34273 0.37772 0.0
C188 C 0.70527 0.36817 0.35778 0.0
C189 C 0.62872 0.34708 0.33537 0.0
H190 H 0.72283 0.43941 0.31924 0.0
C191 C 0.64505 0.35322 0.28375 0.0
C192 C 0.68309 0.35586 0.28054 0.0
C193 C 0.63912 0.3632 0.29545 0.0
C194 C 0.69598 0.41384 0.32362 0.0
H195 H 0.61672 0.33459 0.38131 0.0
H196 H 0.60792 0.35592 0.36103 0.0
H197 H 0.72164 0.43552 0.34112 0.0
H198 H 0.74549 0.3734 0.28666 0.0
H199 H 0.73549 0.39113 0.30686 0.0
H200 H 0.60474 0.32352 0.31784 0.0
C201 C 0.63668 0.35632 0.36328 0.0
C202 C 0.69527 0.4117 0.33612 0.0
C203 C 0.6417 0.34419 0.37482 0.0
C204 C 0.71579 0.37091 0.28892 0.0
C205 C 0.71015 0.38146 0.30047 0.0
C206 C 0.62952 0.34912 0.32282 0.0
C207 C 0.66848 0.36829 0.35466 0.0
C208 C 0.66277 0.37713 0.34206 0.0
C209 C 0.67147 0.37676 0.30398 0.0
C210 C 0.66434 0.38131 0.31684 0.0
H211 H 0.73824 0.3546 0.37116 0.0
H212 H 0.72998 0.37656 0.35126 0.0
H213 H 0.60339 0.32003 0.33974 0.0
H214 H 0.61933 0.34158 0.27743 0.0
H215 H 0.609 0.35927 0.29792 0.0
C216 C 0.33555 0.70082 0.69921 0.0
C217 C 0.3196 0.67203 0.70871 0.0
C218 C 0.31613 0.6908 0.68804 0.0
C219 C 0.26424 0.66738 0.66555 0.0
H220 H 0.2636 0.56898 0.65323 0.0
C221 C 0.28588 0.6515 0.6153 0.0
C222 C 0.32165 0.64787 0.61367 0.0
C223 C 0.26588 0.64243 0.62649 0.0
C224 C 0.26275 0.59611 0.65655 0.0
H225 H 0.26979 0.61092 0.71422 0.0
H226 H 0.23619 0.59256 0.69434 0.0
H227 H 0.26394 0.57916 0.67486 0.0
H228 H 0.3626 0.62888 0.62202 0.0
H229 H 0.32786 0.61282 0.64136 0.0
H230 H 0.26701 0.68628 0.64726 0.0
C231 C 0.26349 0.62315 0.69567 0.0
C232 C 0.2626 0.60178 0.66893 0.0
C233 C 0.28262 0.63361 0.707 0.0
C234 C 0.33526 0.63225 0.62307 0.0
C235 C 0.315 0.62258 0.63412 0.0
C236 C 0.26432 0.66169 0.65316 0.0
C237 C 0.28058 0.65145 0.68603 0.0
C238 C 0.26607 0.63878 0.67353 0.0
C239 C 0.28093 0.62881 0.63609 0.0
C240 C 0.2663 0.62731 0.64857 0.0
H241 H 0.36388 0.73079 0.70033 0.0
H242 H 0.33053 0.71303 0.68077 0.0
H243 H 0.26632 0.69592 0.66887 0.0
H244 H 0.27482 0.66348 0.60816 0.0
H245 H 0.2397 0.64753 0.62777 0.0
C246 C 0.72324 0.34697 0.03899 0.0
C247 C 0.68594 0.33372 0.04534 0.0
C248 C 0.72224 0.3378 0.02685 0.0
C249 C 0.65588 0.27992 0.0008 0.0
H250 H 0.73252 0.38301 0.98438 0.0
C251 C 0.65001 0.31554 0.94982 0.0
C252 C 0.68871 0.34225 0.94439 0.0
C253 C 0.64833 0.30511 0.96201 0.0
C254 C 0.71145 0.35365 0.98877 0.0
H255 H 0.61831 0.29792 0.04435 0.0
H256 H 0.61644 0.28292 0.02282 0.0
H257 H 0.73198 0.38092 0.00602 0.0
H258 H 0.75592 0.37538 0.94682 0.0
H259 H 0.75322 0.35587 0.96779 0.0
H260 H 0.63488 0.2532 0.98327 0.0
C261 C 0.64644 0.29978 0.0273 0.0
C262 C 0.71114 0.35245 0.00122 0.0
C263 C 0.64748 0.30841 0.03959 0.0
C264 C 0.72568 0.35526 0.9509 0.0
C265 C 0.72407 0.34424 0.96292 0.0
C266 C 0.65623 0.28111 0.9882 0.0
C267 C 0.68391 0.31604 0.02073 0.0
C268 C 0.6837 0.31559 0.00741 0.0
C269 C 0.68541 0.3209 0.96878 0.0
C270 C 0.68438 0.318 0.98207 0.0
H271 H 0.7533 0.36602 0.0433 0.0
H272 H 0.75164 0.34976 0.0221 0.0
H273 H 0.63424 0.25114 0.00535 0.0
H274 H 0.62111 0.30522 0.94492 0.0
H275 H 0.61807 0.28706 0.96627 0.0
C276 C 0.36151 0.65221 0.28385 0.0
C277 C 0.32365 0.65053 0.28094 0.0
C278 C 0.3672 0.63977 0.29527 0.0
C279 C 0.3102 0.58283 0.32272 0.0
H280 H 0.40073 0.67425 0.34012 0.0
C281 C 0.29213 0.62832 0.36959 0.0
C282 C 0.32529 0.64411 0.37784 0.0
C283 C 0.29719 0.61688 0.3581 0.0
C284 C 0.37599 0.6478 0.33539 0.0
H285 H 0.26131 0.63223 0.28725 0.0
H286 H 0.27087 0.61006 0.30696 0.0
H287 H 0.40031 0.67557 0.31823 0.0
H288 H 0.38932 0.65897 0.38075 0.0
H289 H 0.39868 0.6399 0.36033 0.0
H290 H 0.28431 0.55659 0.33988 0.0
C291 C 0.29625 0.62096 0.30055 0.0
C292 C 0.37576 0.64856 0.32284 0.0
C293 C 0.29089 0.63405 0.2893 0.0
C294 C 0.36328 0.64681 0.37453 0.0
C295 C 0.36863 0.63599 0.36288 0.0
C296 C 0.31045 0.58206 0.33524 0.0
C297 C 0.33474 0.62459 0.30377 0.0
C298 C 0.34162 0.61727 0.31644 0.0
C299 C 0.33573 0.62146 0.35451 0.0
C300 C 0.3421 0.61573 0.34169 0.0
H301 H 0.38725 0.6649 0.27753 0.0
H302 H 0.3972 0.64298 0.29755 0.0
H303 H 0.28386 0.55796 0.31798 0.0
H304 H 0.26244 0.62571 0.37193 0.0
H305 H 0.27146 0.60647 0.35181 0.0
C306 C 0.67214 0.37457 0.70011 0.0
C307 C 0.68553 0.35893 0.70955 0.0
C308 C 0.69197 0.38324 0.68899 0.0
C309 C 0.74095 0.34133 0.67018 0.0
H310 H 0.74197 0.42272 0.6479 0.0
C311 C 0.72462 0.36819 0.61608 0.0
C312 C 0.6884 0.32927 0.61419 0.0
C313 C 0.74318 0.3787 0.62747 0.0
C314 C 0.74307 0.40035 0.65398 0.0
H315 H 0.73172 0.34245 0.71509 0.0
H316 H 0.76618 0.35685 0.69541 0.0
H317 H 0.74234 0.43434 0.66943 0.0
H318 H 0.6451 0.26967 0.62235 0.0
H319 H 0.67733 0.28764 0.64206 0.0
H320 H 0.73909 0.3061 0.65472 0.0
C321 C 0.74043 0.36263 0.69668 0.0
C322 C 0.74292 0.40685 0.66632 0.0
C323 C 0.72085 0.35452 0.70792 0.0
C324 C 0.67286 0.30001 0.62358 0.0
C325 C 0.69165 0.3102 0.63486 0.0
C326 C 0.74109 0.33483 0.65784 0.0
C327 C 0.72539 0.37599 0.68702 0.0
C328 C 0.73931 0.37619 0.67452 0.0
C329 C 0.72618 0.35011 0.63705 0.0
C330 C 0.73961 0.36305 0.64963 0.0
H331 H 0.64511 0.37848 0.70115 0.0
H332 H 0.67915 0.3929 0.68172 0.0
H333 H 0.73819 0.31711 0.67624 0.0
H334 H 0.73717 0.39129 0.60896 0.0
H335 H 0.76981 0.40966 0.62891 0.0
C336 C 0.34693 0.73778 0.20653 0.0
C337 C 0.34183 0.70474 0.21394 0.0
C338 C 0.35344 0.73699 0.19423 0.0
C339 C 0.3777 0.68108 0.17056 0.0
H340 H 0.31438 0.71536 0.15037 0.0
C341 C 0.32428 0.62041 0.12276 0.0
C342 C 0.32855 0.64917 0.11382 0.0
C343 C 0.33326 0.63291 0.1347 0.0
C344 C 0.3328 0.70635 0.15588 0.0
H345 H 0.34082 0.6456 0.21444 0.0
H346 H 0.35067 0.64329 0.19288 0.0
H347 H 0.31681 0.72644 0.17194 0.0
H348 H 0.34588 0.71361 0.11028 0.0
H349 H 0.36069 0.73538 0.13136 0.0
H350 H 0.39169 0.65899 0.15444 0.0
C351 C 0.35069 0.6704 0.19656 0.0
C352 C 0.33433 0.71275 0.16825 0.0
C353 C 0.34477 0.67152 0.20891 0.0
C354 C 0.34229 0.69084 0.11702 0.0
C355 C 0.3507 0.70324 0.12904 0.0
C356 C 0.37573 0.67424 0.1582 0.0
C357 C 0.35433 0.70279 0.18904 0.0
C358 C 0.35621 0.69955 0.17578 0.0
C359 C 0.34622 0.67431 0.13797 0.0
C360 C 0.35266 0.68616 0.15078 0.0
H361 H 0.34531 0.76407 0.21021 0.0
H362 H 0.35711 0.76293 0.18878 0.0
H363 H 0.39553 0.67131 0.17604 0.0
H364 H 0.31393 0.58811 0.12055 0.0
H365 H 0.32901 0.60985 0.14142 0.0
C366 C 0.70827 0.31828 0.45482 0.0
C367 C 0.68304 0.32305 0.44624 0.0
C368 C 0.70503 0.32554 0.46693 0.0
C369 C 0.63139 0.32183 0.48897 0.0
H370 H 0.72995 0.38383 0.50887 0.0
C371 C 0.61628 0.33684 0.53975 0.0
C372 C 0.64471 0.33245 0.54714 0.0
C373 C 0.62281 0.34227 0.52739 0.0
C374 C 0.70212 0.36612 0.50347 0.0
H375 H 0.63489 0.33948 0.44354 0.0
H376 H 0.62854 0.35137 0.4649 0.0
H377 H 0.73763 0.38115 0.48719 0.0
H378 H 0.70277 0.33131 0.54749 0.0
H379 H 0.7136 0.33934 0.52582 0.0
H380 H 0.59587 0.30506 0.50518 0.0
C381 C 0.65098 0.34224 0.46217 0.0
C382 C 0.70654 0.3648 0.49105 0.0
C383 C 0.65465 0.33553 0.44998 0.0
C384 C 0.68044 0.33474 0.54199 0.0
C385 C 0.68671 0.33959 0.52958 0.0
C386 C 0.62697 0.32273 0.50139 0.0
C387 C 0.67616 0.33726 0.47074 0.0
C388 C 0.67125 0.34219 0.48371 0.0
C389 C 0.65761 0.3428 0.5221 0.0
C390 C 0.66232 0.34445 0.50882 0.0
H391 H 0.73057 0.30885 0.45219 0.0
H392 H 0.72444 0.32096 0.47336 0.0
H393 H 0.60372 0.30372 0.48353 0.0
H394 H 0.58868 0.3357 0.54351 0.0
H395 H 0.60027 0.34561 0.52198 0.0
C396 C 0.39772 0.72494 0.78405 0.0
C397 C 0.36521 0.69774 0.77639 0.0
C398 C 0.39097 0.72474 0.79636 0.0
C399 C 0.30756 0.68826 0.8195 0.0
H400 H 0.39632 0.69869 0.84046 0.0
C401 C 0.28423 0.63517 0.86894 0.0
C402 C 0.31542 0.66018 0.87726 0.0
C403 C 0.28924 0.64561 0.85679 0.0
C404 C 0.37153 0.69647 0.83473 0.0
H405 H 0.30001 0.64928 0.77553 0.0
H406 H 0.28841 0.64781 0.79717 0.0
H407 H 0.40685 0.70397 0.81886 0.0
H408 H 0.3755 0.71659 0.87952 0.0
H409 H 0.38459 0.73467 0.85813 0.0
H410 H 0.27173 0.679 0.8355 0.0
C411 C 0.31893 0.67002 0.79363 0.0
C412 C 0.37751 0.69948 0.82234 0.0
C413 C 0.32559 0.67059 0.78125 0.0
C414 C 0.35101 0.69679 0.87328 0.0
C415 C 0.35628 0.70699 0.86107 0.0
C416 C 0.30145 0.68484 0.83193 0.0
C417 C 0.35168 0.69691 0.80134 0.0
C418 C 0.34552 0.69513 0.81455 0.0
C419 C 0.32575 0.68104 0.85269 0.0
C420 C 0.33329 0.6886 0.83964 0.0
H421 H 0.42849 0.7466 0.78054 0.0
H422 H 0.41666 0.74651 0.80197 0.0
H423 H 0.28253 0.68546 0.81379 0.0
H424 H 0.25637 0.60684 0.87178 0.0
H425 H 0.26539 0.62486 0.85053 0.0
C426 C 0.62272 0.34438 0.11861 0.0
C427 C 0.64957 0.33525 0.11209 0.0
C428 C 0.61505 0.33381 0.13074 0.0
C429 C 0.63649 0.278 0.15562 0.0
H430 H 0.62559 0.35875 0.17513 0.0
C431 C 0.63836 0.26829 0.20708 0.0
C432 C 0.65825 0.3061 0.21343 0.0
C433 C 0.62917 0.26782 0.19491 0.0
C434 C 0.62916 0.33613 0.16987 0.0
H435 H 0.68868 0.3071 0.11286 0.0
H436 H 0.67773 0.29096 0.13417 0.0
H437 H 0.62572 0.36432 0.15354 0.0
H438 H 0.68375 0.37302 0.21223 0.0
H439 H 0.67035 0.37294 0.19084 0.0
H440 H 0.64393 0.25224 0.17194 0.0
C441 C 0.66093 0.30463 0.12996 0.0
C442 C 0.62829 0.33874 0.15738 0.0
C443 C 0.66749 0.31403 0.11772 0.0
C444 C 0.66805 0.34342 0.20751 0.0
C445 C 0.66002 0.34319 0.19524 0.0
C446 C 0.63855 0.2761 0.16811 0.0
C447 C 0.63534 0.31526 0.13673 0.0
C448 C 0.63246 0.31002 0.15005 0.0
C449 C 0.64092 0.3054 0.18871 0.0
C450 C 0.63544 0.30548 0.17543 0.0
H451 H 0.60827 0.36046 0.11438 0.0
H452 H 0.59402 0.34125 0.13546 0.0
H453 H 0.63885 0.25465 0.15037 0.0
H454 H 0.63011 0.23901 0.21153 0.0
H455 H 0.61331 0.23794 0.19036 0.0
C456 C 0.39908 0.71586 0.53914 0.0
C457 C 0.37259 0.68275 0.54673 0.0
C458 C 0.39474 0.71151 0.52673 0.0
C459 C 0.32205 0.64592 0.50257 0.0
H460 H 0.42269 0.70545 0.48333 0.0
C461 C 0.32987 0.63932 0.45022 0.0
C462 C 0.34062 0.67862 0.44538 0.0
C463 C 0.3349 0.63518 0.46251 0.0
C464 C 0.39446 0.68839 0.48863 0.0
H465 H 0.32051 0.61919 0.54737 0.0
H466 H 0.31368 0.61084 0.52557 0.0
H467 H 0.42823 0.70609 0.50514 0.0
H468 H 0.36651 0.74449 0.44932 0.0
H469 H 0.37695 0.73745 0.47069 0.0
H470 H 0.28864 0.6279 0.48585 0.0
C471 C 0.33725 0.64061 0.5292 0.0
C472 C 0.39745 0.6891 0.50111 0.0
C473 C 0.34115 0.64529 0.54168 0.0
C474 C 0.35798 0.71387 0.45287 0.0
C475 C 0.36401 0.7099 0.46504 0.0
C476 C 0.3192 0.64454 0.49005 0.0
C477 C 0.36434 0.67358 0.52156 0.0
C478 C 0.36119 0.66894 0.50827 0.0
C479 C 0.35184 0.67048 0.46998 0.0
C480 C 0.35531 0.6666 0.48303 0.0
H481 H 0.42334 0.74525 0.54281 0.0
H482 H 0.41531 0.73809 0.52119 0.0
H483 H 0.29343 0.63033 0.50775 0.0
H484 H 0.31611 0.61167 0.44461 0.0
H485 H 0.32533 0.6045 0.46621 0.0
C486 C 0.66593 0.31783 0.87287 0.0
C487 C 0.66571 0.35392 0.87673 0.0
C488 C 0.65897 0.3061 0.86077 0.0
C489 C 0.6115 0.31849 0.83331 0.0
H490 H 0.69316 0.30174 0.81608 0.0
C491 C 0.5919 0.27885 0.78327 0.0
C492 C 0.62701 0.30385 0.77609 0.0
C493 C 0.59565 0.2787 0.79571 0.0
C494 C 0.67011 0.30625 0.8208 0.0
H495 H 0.65695 0.40532 0.87113 0.0
H496 H 0.64404 0.38445 0.85015 0.0
H497 H 0.69967 0.31242 0.83787 0.0
H498 H 0.69392 0.34693 0.77624 0.0
H499 H 0.70048 0.34694 0.79812 0.0
H500 H 0.58246 0.31349 0.81633 0.0
C501 C 0.64976 0.36534 0.8564 0.0
C502 C 0.67359 0.31194 0.83325 0.0
C503 C 0.65733 0.37737 0.8684 0.0
C504 C 0.66633 0.32749 0.78157 0.0
C505 C 0.67011 0.32727 0.79407 0.0
C506 C 0.60779 0.31244 0.82093 0.0
C507 C 0.65091 0.32988 0.85244 0.0
C508 C 0.64473 0.31889 0.83956 0.0
C509 C 0.6346 0.30352 0.80126 0.0
C510 C 0.63738 0.30689 0.81452 0.0
H511 H 0.67253 0.29936 0.87912 0.0
H512 H 0.65986 0.27853 0.85791 0.0
H513 H 0.58874 0.3236 0.83799 0.0
H514 H 0.56122 0.25994 0.7793 0.0
H515 H 0.56788 0.25963 0.80102 0.0
C516 C 0.83856 0.41948 0.08729 0.0
C517 C 0.82202 0.44455 0.08345 0.0
C518 C 0.88164 0.43477 0.08707 0.0
C519 C 0.97857 0.51525 0.07232 0.0
H520 H 0.03263 0.48356 0.09672 0.0
C521 C 0.15797 0.586 0.07485 0.0
C522 C 0.17318 0.55878 0.07751 0.0
C523 C 0.11518 0.57213 0.07547 0.0
C524 C 0.01789 0.4923 0.08976 0.0
H525 H 0.83787 0.50584 0.0767 0.0
H526 H 0.91343 0.53299 0.07654 0.0
H527 H 0.9586 0.46136 0.09867 0.0
H528 H 0.15539 0.49547 0.08276 0.0
H529 H 0.08037 0.4711 0.08387 0.0
H530 H 0.03806 0.54648 0.06348 0.0
C531 C 0.89293 0.50116 0.07952 0.0
C532 C 0.97543 0.47963 0.09088 0.0
C533 C 0.84968 0.48577 0.07971 0.0
C534 C 0.14458 0.51715 0.08066 0.0
C535 C 0.1017 0.50332 0.08137 0.0
C536 C 0.02108 0.52811 0.07124 0.0
C537 C 0.90942 0.47562 0.08304 0.0
C538 C 0.95513 0.49075 0.08214 0.0
C539 C 0.08655 0.53075 0.07885 0.0
C540 C 0.04121 0.51665 0.07992 0.0
H541 H 0.81809 0.38751 0.09018 0.0
H542 H 0.89301 0.41397 0.0897 0.0
H543 H 0.96389 0.52379 0.0653 0.0
H544 H 0.17921 0.6183 0.0724 0.0
H545 H 0.10464 0.59416 0.07358 0.0
C546 C 0.63165 0.1438 0.40593 0.0
C547 C 0.61699 0.17196 0.4076 0.0
C548 C 0.60346 0.10067 0.40522 0.0
C549 C 0.49523 0.02057 0.41347 0.0
H550 H 0.51133 0.9517 0.39032 0.0
C551 C 0.37138 0.84645 0.40637 0.0
C552 C 0.38654 0.8185 0.40526 0.0
C553 C 0.39894 0.88974 0.406 0.0
C554 C 0.50657 0.97043 0.39691 0.0
H555 H 0.5613 0.17704 0.40972 0.0
H556 H 0.51237 0.10222 0.4084 0.0
H557 H 0.56115 0.02671 0.39116 0.0
H558 H 0.44236 0.81398 0.40266 0.0
H559 H 0.49029 0.88919 0.40211 0.0
H560 H 0.44088 0.96438 0.41929 0.0
C561 C 0.54556 0.1132 0.40779 0.0
C562 C 0.53518 0.01342 0.3974 0.0
C563 C 0.57365 0.15617 0.40848 0.0
C564 C 0.42965 0.83469 0.40352 0.0
C565 C 0.45715 0.87787 0.40314 0.0
C566 C 0.46667 0.97762 0.41299 0.0
C567 C 0.56006 0.08485 0.40621 0.0
C568 C 0.52987 0.03903 0.40569 0.0
C569 C 0.44224 0.90598 0.4045 0.0
C570 C 0.47198 0.95196 0.40472 0.0
H571 H 0.66488 0.15503 0.40523 0.0
H572 H 0.6157 0.07966 0.40411 0.0
H573 H 0.49054 0.03922 0.4201 0.0
H574 H 0.33831 0.83491 0.40771 0.0
H575 H 0.38633 0.9105 0.40692 0.0
C576 C 0.58827 0.43373 0.74216 0.0
C577 C 0.56097 0.39102 0.73992 0.0
C578 C 0.57379 0.46217 0.74181 0.0
C579 C 0.48651 0.47503 0.73025 0.0
H580 H 0.52992 0.56713 0.75286 0.0
C581 C 0.41337 0.58005 0.73669 0.0
C582 C 0.44075 0.62338 0.73775 0.0
C583 C 0.42876 0.55236 0.73658 0.0
C584 C 0.51786 0.54185 0.7464 0.0
H585 H 0.49695 0.34448 0.7357 0.0
H586 H 0.47129 0.39396 0.73536 0.0
H587 H 0.55427 0.51679 0.75377 0.0
H588 H 0.50579 0.67173 0.73946 0.0
H589 H 0.5328 0.62313 0.73934 0.0
H590 H 0.44951 0.49981 0.72306 0.0
C591 C 0.50415 0.4057 0.73715 0.0
C592 C 0.53182 0.51296 0.74691 0.0
C593 C 0.51875 0.37725 0.73742 0.0
C594 C 0.48396 0.6385 0.73862 0.0
C595 C 0.49937 0.61068 0.73862 0.0
C596 C 0.47233 0.50374 0.72981 0.0
C597 C 0.53155 0.44859 0.7393 0.0
C598 C 0.51634 0.47915 0.73883 0.0
C599 C 0.47188 0.56729 0.73762 0.0
C600 C 0.48783 0.53746 0.73788 0.0
H601 H 0.62107 0.44537 0.74405 0.0
H602 H 0.59598 0.49497 0.74332 0.0
H603 H 0.47445 0.44991 0.72375 0.0
H604 H 0.37989 0.56741 0.73601 0.0
H605 H 0.40675 0.5191 0.73592 0.0
C606 C 0.59117 0.15857 0.58039 0.0
C607 C 0.56469 0.17482 0.58276 0.0
C608 C 0.57612 0.11557 0.58099 0.0
C609 C 0.48982 0.01703 0.59366 0.0
H610 H 0.53028 0.96571 0.57105 0.0
C611 C 0.41767 0.8377 0.58902 0.0
C612 C 0.44528 0.82228 0.58745 0.0
C613 C 0.43248 0.88075 0.58896 0.0
C614 C 0.51905 0.97966 0.57752 0.0
H615 H 0.50144 0.15863 0.58749 0.0
H616 H 0.47472 0.08319 0.5883 0.0
H617 H 0.55417 0.04015 0.56945 0.0
H618 H 0.51021 0.83991 0.58481 0.0
H619 H 0.53618 0.9153 0.58467 0.0
H620 H 0.45418 0.95616 0.60159 0.0
C621 C 0.50742 0.10383 0.58618 0.0
C622 C 0.53274 0.02238 0.57661 0.0
C623 C 0.52261 0.14702 0.58563 0.0
C624 C 0.48819 0.85086 0.58604 0.0
C625 C 0.50299 0.89398 0.58588 0.0
C626 C 0.47591 0.9742 0.59452 0.0
C627 C 0.53406 0.08756 0.58391 0.0
C628 C 0.51845 0.04172 0.5847 0.0
C629 C 0.47523 0.90939 0.58723 0.0
C630 C 0.49049 0.95505 0.58648 0.0
H631 H 0.62385 0.17917 0.57823 0.0
H632 H 0.59778 0.1044 0.5794 0.0
H633 H 0.47865 0.0309 0.60017 0.0
H634 H 0.38441 0.81647 0.59012 0.0
H635 H 0.41024 0.89155 0.58991 0.0
C636 C 0.42506 0.58889 0.9055 0.0
C637 C 0.38349 0.56353 0.90932 0.0
C638 C 0.4534 0.57433 0.90603 0.0
C639 C 0.47186 0.49639 0.9215 0.0
H640 H 0.55464 0.52435 0.89647 0.0
C641 C 0.57928 0.42433 0.91897 0.0
C642 C 0.62106 0.45046 0.91543 0.0
C643 C 0.55075 0.43871 0.91865 0.0
C644 C 0.53208 0.51674 0.90361 0.0
H645 H 0.33875 0.50261 0.91646 0.0
H646 H 0.38818 0.4768 0.91724 0.0
H647 H 0.50277 0.54643 0.89452 0.0
H648 H 0.66597 0.51251 0.90904 0.0
H649 H 0.6161 0.53781 0.90852 0.0
H650 H 0.5011 0.46647 0.93055 0.0
C651 C 0.39901 0.50825 0.91399 0.0
C652 C 0.50225 0.52932 0.90248 0.0
C653 C 0.37059 0.52288 0.91345 0.0
C654 C 0.63399 0.49166 0.91183 0.0
C655 C 0.60534 0.50601 0.91144 0.0
C656 C 0.50163 0.48371 0.92261 0.0
C657 C 0.44089 0.53398 0.91039 0.0
C658 C 0.47181 0.5194 0.91142 0.0
C659 C 0.56326 0.47952 0.91472 0.0
C660 C 0.53215 0.49379 0.91369 0.0
H661 H 0.43605 0.62046 0.90231 0.0
H662 H 0.48547 0.59521 0.90333 0.0
H663 H 0.44936 0.48882 0.92865 0.0
H664 H 0.56833 0.39238 0.92178 0.0
H665 H 0.51853 0.41736 0.92112 0.0
C666 C 0.15016 0.63654 0.24634 0.0
C667 C 0.17902 0.62236 0.24587 0.0
C668 C 0.10709 0.60809 0.24565 0.0
C669 C 0.03004 0.49779 0.23711 0.0
H670 H 0.9544 0.51678 0.25665 0.0
C671 C 0.85555 0.37229 0.24528 0.0
C672 C 0.82667 0.38642 0.24443 0.0
C673 C 0.89868 0.40087 0.24494 0.0
C674 C 0.97511 0.5112 0.25107 0.0
H675 H 0.1854 0.56725 0.24436 0.0
H676 H 0.11076 0.5178 0.24351 0.0
H677 H 0.02908 0.5674 0.25699 0.0
H678 H 0.82034 0.44148 0.24242 0.0
H679 H 0.89522 0.49105 0.24192 0.0
H680 H 0.97584 0.44098 0.23143 0.0
C681 C 0.12106 0.55084 0.2441 0.0
C682 C 0.01796 0.54035 0.25121 0.0
C683 C 0.16398 0.57925 0.24467 0.0
C684 C 0.84174 0.42954 0.24311 0.0
C685 C 0.88467 0.45802 0.24289 0.0
C686 C 0.98721 0.46842 0.23707 0.0
C687 C 0.09194 0.56478 0.24459 0.0
C688 C 0.04607 0.5341 0.24423 0.0
C689 C 0.91365 0.4441 0.24389 0.0
C690 C 0.95927 0.47486 0.24402 0.0
H691 H 0.16084 0.66961 0.24721 0.0
H692 H 0.08571 0.62012 0.24588 0.0
H693 H 0.05052 0.49217 0.23144 0.0
H694 H 0.84486 0.33927 0.24631 0.0
H695 H 0.92031 0.38926 0.24578 0.0
C696 C 0.63128 0.48335 0.07665 0.0
C697 C 0.61824 0.44224 0.07298 0.0
C698 C 0.60308 0.49826 0.07667 0.0
C699 C 0.49976 0.47666 0.06491 0.0
H700 H 0.50161 0.54091 0.0926 0.0
C701 C 0.36865 0.5158 0.07451 0.0
C702 C 0.38202 0.55693 0.07823 0.0
C703 C 0.39721 0.50139 0.07373 0.0
C704 C 0.5009 0.52332 0.08475 0.0
H705 H 0.56582 0.38495 0.06613 0.0
H706 H 0.51672 0.41073 0.06626 0.0
H707 H 0.55304 0.51823 0.09096 0.0
H708 H 0.43565 0.61507 0.08415 0.0
H709 H 0.48518 0.59006 0.08279 0.0
H710 H 0.44733 0.48157 0.05876 0.0
C711 C 0.54873 0.43169 0.06901 0.0
C712 C 0.53051 0.51045 0.08379 0.0
C713 C 0.57687 0.41683 0.06899 0.0
C714 C 0.4243 0.58315 0.08128 0.0
C715 C 0.4527 0.56875 0.08056 0.0
C716 C 0.47006 0.48948 0.06589 0.0
C717 C 0.56126 0.47237 0.07303 0.0
C718 C 0.53037 0.487 0.07384 0.0
C719 C 0.4396 0.52777 0.07674 0.0
C720 C 0.47035 0.51304 0.07581 0.0
H721 H 0.66298 0.50368 0.07976 0.0
H722 H 0.61396 0.52998 0.07964 0.0
H723 H 0.49903 0.45906 0.05706 0.0
H724 H 0.33626 0.49491 0.0721 0.0
H725 H 0.38606 0.46951 0.07087 0.0
C726 C 0.85524 0.36751 0.41167 0.0
C727 C 0.8267 0.38197 0.41054 0.0
C728 C 0.89834 0.39592 0.41205 0.0
C729 C 0.9777 0.5039 0.40377 0.0
H730 H 0.04612 0.4898 0.42766 0.0
C731 C 0.1518 0.62867 0.41109 0.0
C732 C 0.17956 0.61369 0.41309 0.0
C733 C 0.10848 0.60108 0.41114 0.0
C734 C 0.0276 0.49398 0.42084 0.0
H735 H 0.82089 0.43739 0.4088 0.0
H736 H 0.89584 0.48672 0.40941 0.0
H737 H 0.97141 0.43937 0.42661 0.0
H738 H 0.18373 0.55817 0.4168 0.0
H739 H 0.10871 0.51025 0.41668 0.0
H740 H 0.03386 0.55813 0.39788 0.0
C741 C 0.88505 0.45355 0.40995 0.0
C742 C 0.98476 0.46503 0.42025 0.0
C743 C 0.84208 0.42525 0.40967 0.0
C744 C 0.16318 0.57077 0.41528 0.0
C745 C 0.12005 0.54326 0.41529 0.0
C746 C 0.0206 0.53272 0.40431 0.0
C747 C 0.91369 0.43926 0.41119 0.0
C748 C 0.95934 0.46965 0.4117 0.0
C749 C 0.09208 0.55796 0.41317 0.0
C750 C 0.04614 0.52809 0.41284 0.0
H751 H 0.84427 0.33433 0.41235 0.0
H752 H 0.91969 0.38397 0.4129 0.0
H753 H 0.959 0.50805 0.397 0.0
H754 H 0.16353 0.6616 0.40939 0.0
H755 H 0.08784 0.61358 0.40963 0.0
C756 C 0.58473 0.16642 0.73074 0.0
C757 C 0.55772 0.18261 0.73215 0.0
C758 C 0.56886 0.12329 0.7301 0.0
C759 C 0.47839 0.02423 0.73965 0.0
H760 H 0.52441 0.97458 0.71833 0.0
C761 C 0.40925 0.84596 0.73701 0.0
C762 C 0.43727 0.83079 0.73617 0.0
C763 C 0.42339 0.88862 0.73583 0.0
C764 C 0.51155 0.98803 0.72443 0.0
H765 H 0.4928 0.16643 0.73363 0.0
H766 H 0.46492 0.09082 0.73249 0.0
H767 H 0.54913 0.04944 0.71702 0.0
H768 H 0.5021 0.84838 0.73335 0.0
H769 H 0.52711 0.92331 0.73147 0.0
H770 H 0.44134 0.96317 0.74721 0.0
C771 C 0.49846 0.11158 0.73198 0.0
C772 C 0.5256 0.03088 0.72365 0.0
C773 C 0.51436 0.15484 0.73255 0.0
C774 C 0.47979 0.85919 0.73403 0.0
C775 C 0.49402 0.90204 0.73288 0.0
C776 C 0.46445 0.98147 0.74046 0.0
C777 C 0.52561 0.09534 0.73092 0.0
C778 C 0.50926 0.04948 0.73128 0.0
C779 C 0.46597 0.91727 0.73382 0.0
C780 C 0.48089 0.96283 0.73288 0.0
H781 H 0.61833 0.18704 0.7304 0.0
H782 H 0.59065 0.11183 0.7294 0.0
H783 H 0.46574 0.03772 0.74581 0.0
H784 H 0.37621 0.82483 0.73857 0.0
H785 H 0.4008 0.89911 0.73639 0.0
C786 C 0.42413 0.57406 0.58301 0.0
C787 C 0.44991 0.61696 0.58538 0.0
C788 C 0.43944 0.54652 0.58423 0.0
C789 C 0.53635 0.54167 0.58452 0.0
H790 H 0.46626 0.43328 0.59936 0.0
C791 C 0.59611 0.4262 0.59225 0.0
C792 C 0.5683 0.38384 0.58967 0.0
C793 C 0.58195 0.45486 0.59275 0.0
C794 C 0.48607 0.46323 0.59509 0.0
H795 H 0.5121 0.66471 0.59083 0.0
H796 H 0.5391 0.61639 0.59293 0.0
H797 H 0.44174 0.48348 0.59818 0.0
H798 H 0.50364 0.33807 0.58588 0.0
H799 H 0.47886 0.38824 0.58658 0.0
H800 H 0.58036 0.52127 0.58121 0.0
C801 C 0.507 0.60419 0.59009 0.0
C802 C 0.47205 0.49204 0.59443 0.0
C803 C 0.49155 0.63183 0.58892 0.0
C804 C 0.52576 0.37049 0.58793 0.0
C805 C 0.51158 0.39926 0.58838 0.0
C806 C 0.55031 0.51281 0.58513 0.0
C807 C 0.48097 0.56117 0.58782 0.0
C808 C 0.49688 0.53146 0.58906 0.0
C809 C 0.53965 0.44194 0.59062 0.0
C810 C 0.52524 0.47311 0.59036 0.0
H811 H 0.3919 0.56159 0.58024 0.0
H812 H 0.41879 0.51371 0.58223 0.0
H813 H 0.55598 0.57155 0.58018 0.0
H814 H 0.62907 0.43742 0.59371 0.0
H815 H 0.60429 0.48726 0.59475 0.0
C816 C 0.15003 0.52339 0.91314 0.0
C817 C 0.17826 0.56433 0.91692 0.0
C818 C 0.10707 0.50916 0.91267 0.0
C819 C 0.02519 0.53106 0.9236 0.0
H820 H 0.96608 0.47161 0.89488 0.0
C821 C 0.85605 0.49354 0.91341 0.0
C822 C 0.82858 0.45316 0.90907 0.0
C823 C 0.89906 0.50812 0.91418 0.0
C824 C 0.98199 0.48781 0.90301 0.0
H825 H 0.18356 0.62193 0.9236 0.0
H826 H 0.1088 0.59713 0.9228 0.0
H827 H 0.03971 0.49294 0.89732 0.0
H828 H 0.82468 0.39675 0.90188 0.0
H829 H 0.89927 0.42193 0.90329 0.0
H830 H 0.9674 0.52579 0.92931 0.0
C831 C 0.11969 0.57592 0.92023 0.0
C832 C 0.02419 0.49994 0.90442 0.0
C833 C 0.16257 0.59019 0.92064 0.0
C834 C 0.84504 0.42809 0.90524 0.0
C835 C 0.8879 0.44262 0.90599 0.0
C836 C 0.98292 0.51883 0.9222 0.0
C837 C 0.09149 0.53551 0.91604 0.0
C838 C 0.04628 0.52165 0.91474 0.0
C839 C 0.91543 0.48262 0.91059 0.0
C840 C 0.96078 0.49699 0.9119 0.0
H841 H 0.16121 0.50276 0.91021 0.0
H842 H 0.08606 0.47763 0.90956 0.0
H843 H 0.04122 0.54739 0.9317 0.0
H844 H 0.84424 0.51355 0.91643 0.0
H845 H 0.91949 0.53931 0.91761 0.0
C846 C 0.42947 0.84478 0.25756 0.0
C847 C 0.38606 0.82904 0.25715 0.0
C848 C 0.45731 0.88769 0.25861 0.0
C849 C 0.46437 0.98961 0.25299 0.0
H850 H 0.56792 0.03298 0.27098 0.0
C851 C 0.57703 0.16639 0.25818 0.0
C852 C 0.61978 0.18092 0.25628 0.0
C853 C 0.5486 0.12368 0.25935 0.0
C854 C 0.53928 0.02129 0.26585 0.0
H855 H 0.33769 0.84586 0.25787 0.0
H856 H 0.38634 0.92101 0.2599 0.0
H857 H 0.51719 0.95811 0.27145 0.0
H858 H 0.66644 0.16208 0.25446 0.0
H859 H 0.61655 0.08705 0.25652 0.0
H860 H 0.48647 0.05271 0.24737 0.0
C861 C 0.3989 0.90014 0.25921 0.0
C862 C 0.51017 0.97839 0.26611 0.0
C863 C 0.37099 0.85709 0.25812 0.0
C864 C 0.6337 0.15181 0.25593 0.0
C865 C 0.60516 0.10891 0.25715 0.0
C866 C 0.49335 0.03245 0.25278 0.0
C867 C 0.44246 0.91603 0.25931 0.0
C868 C 0.47245 0.96195 0.25962 0.0
C869 C 0.56217 0.09436 0.25868 0.0
C870 C 0.53123 0.04879 0.25915 0.0
H871 H 0.44213 0.824 0.2568 0.0
H872 H 0.49056 0.89871 0.25848 0.0
H873 H 0.43611 0.97805 0.24769 0.0
H874 H 0.56529 0.18801 0.25856 0.0
H875 H 0.51585 0.11358 0.26073 0.0
loop_
_geom_bond_atom_site_label_1
_geom_bond_atom_site_label_2
_geom_bond_distance
_geom_bond_site_symmetry_2
_ccdc_geom_bond_type
In0 O1 2.294 . S
In0 O2 2.326 . S
In0 O6 2.266 . S
In0 O7 2.326 . S
In0 O8 2.266 . S
In0 O9 2.326 . S
In0 O11 2.294 . S
In0 O12 2.326 . S
O1 In0 2.294 . S
O1 C10 1.240 . S
O2 In0 2.326 . S
O2 C10 1.252 . S
C3 O6 1.252 . S
C3 O7 1.260 . S
C4 O11 1.240 . S
C4 O12 1.252 . S
C5 O8 1.252 . S
C5 O9 1.260 . S
O6 In0 2.266 . S
O6 C3 1.252 . S
O7 In0 2.326 . S
O7 C3 1.260 . S
O8 In0 2.266 . S
O8 C5 1.252 . S
O9 In0 2.326 . S
O9 C5 1.260 . S
C10 O1 1.240 . S
C10 O2 1.252 . S
O11 In0 2.294 . S
O11 C4 1.240 . S
O12 In0 2.326 . S
O12 C4 1.252 . S
In13 O14 2.294 . S
In13 O15 2.326 . S
In13 O19 2.266 . S
In13 O20 2.326 . S
In13 O21 2.266 . S
In13 O22 2.326 . S
In13 O24 2.294 . S
In13 O25 2.326 . S
O14 In13 2.294 . S
O14 C23 1.240 . S
O15 In13 2.326 . S
O15 C23 1.252 . S
C16 O19 1.252 . S
C16 O20 1.260 . S
C17 O24 1.240 . S
C17 O25 1.252 . S
C18 O21 1.252 . S
C18 O22 1.260 . S
O19 In13 2.266 . S
O19 C16 1.252 . S
O20 In13 2.326 . S
O20 C16 1.260 . S
O21 In13 2.266 . S
O21 C18 1.252 . S
O22 In13 2.326 . S
O22 C18 1.260 . S
C23 O14 1.240 . S
C23 O15 1.252 . S
O24 In13 2.294 . S
O24 C17 1.240 . S
O25 In13 2.326 . S
O25 C17 1.252 . S
In26 O27 2.294 . S
In26 O28 2.326 . S
In26 O32 2.266 . S
In26 O33 2.326 . S
In26 O34 2.266 . S
In26 O35 2.326 . S
In26 O37 2.294 . S
In26 O38 2.326 . S
O27 In26 2.294 . S
O27 C36 1.240 . S
O28 In26 2.326 . S
O28 C36 1.252 . S
C29 O32 1.252 . S
C29 O33 1.260 . S
C30 O37 1.240 . S
C30 O38 1.252 . S
C31 O34 1.252 . S
C31 O35 1.260 . S
O32 In26 2.266 . S
O32 C29 1.252 . S
O33 In26 2.326 . S
O33 C29 1.260 . S
O34 In26 2.266 . S
O34 C31 1.252 . S
O35 In26 2.326 . S
O35 C31 1.260 . S
C36 O27 1.240 . S
C36 O28 1.252 . S
O37 In26 2.294 . S
O37 C30 1.240 . S
O38 In26 2.326 . S
O38 C30 1.252 . S
In39 O40 2.294 . S
In39 O41 2.326 . S
In39 O45 2.266 . S
In39 O46 2.326 . S
In39 O47 2.266 . S
In39 O48 2.326 . S
In39 O50 2.294 . S
In39 O51 2.326 . S
O40 In39 2.294 . S
O40 C49 1.240 . S
O41 In39 2.326 . S
O41 C49 1.252 . S
C42 O45 1.252 . S
C42 O46 1.260 . S
C43 O50 1.240 . S
C43 O51 1.252 . S
C44 O47 1.252 . S
C44 O48 1.260 . S
O45 In39 2.266 . S
O45 C42 1.252 . S
O46 In39 2.326 . S
O46 C42 1.260 . S
O47 In39 2.266 . S
O47 C44 1.252 . S
O48 In39 2.326 . S
O48 C44 1.260 . S
C49 O40 1.240 . S
C49 O41 1.252 . S
O50 In39 2.294 . S
O50 C43 1.240 . S
O51 In39 2.326 . S
O51 C43 1.252 . S
In52 O53 2.294 . S
In52 O54 2.326 . S
In52 O58 2.266 . S
In52 O59 2.326 . S
In52 O60 2.266 . S
In52 O61 2.326 . S
In52 O63 2.294 . S
In52 O64 2.326 . S
O53 In52 2.294 . S
O53 C62 1.240 . S
O54 In52 2.326 . S
O54 C62 1.252 . S
C55 O58 1.252 . S
C55 O59 1.260 . S
C56 O63 1.240 . S
C56 O64 1.252 . S
C57 O60 1.252 . S
C57 O61 1.260 . S
O58 In52 2.266 . S
O58 C55 1.252 . S
O59 In52 2.326 . S
O59 C55 1.260 . S
O60 In52 2.266 . S
O60 C57 1.252 . S
O61 In52 2.326 . S
O61 C57 1.260 . S
C62 O53 1.240 . S
C62 O54 1.252 . S
O63 In52 2.294 . S
O63 C56 1.240 . S
O64 In52 2.326 . S
O64 C56 1.252 . S
In65 O66 2.294 . S
In65 O67 2.326 . S
In65 O71 2.266 . S
In65 O72 2.326 . S
In65 O73 2.266 . S
In65 O74 2.326 . S
In65 O76 2.294 . S
In65 O77 2.326 . S
O66 In65 2.294 . S
O66 C75 1.240 . S
O67 In65 2.326 . S
O67 C75 1.252 . S
C68 O71 1.252 . S
C68 O72 1.260 . S
C69 O76 1.240 . S
C69 O77 1.252 . S
C70 O73 1.252 . S
C70 O74 1.260 . S
O71 In65 2.266 . S
O71 C68 1.252 . S
O72 In65 2.326 . S
O72 C68 1.260 . S
O73 In65 2.266 . S
O73 C70 1.252 . S
O74 In65 2.326 . S
O74 C70 1.260 . S
C75 O66 1.240 . S
C75 O67 1.252 . S
O76 In65 2.294 . S
O76 C69 1.240 . S
O77 In65 2.326 . S
O77 C69 1.252 . S
In78 O79 2.294 . S
In78 O80 2.326 . S
In78 O84 2.266 . S
In78 O85 2.326 . S
In78 O86 2.266 . S
In78 O87 2.326 . S
In78 O89 2.294 . S
In78 O90 2.326 . S
O79 In78 2.294 . S
O79 C88 1.240 . S
O80 In78 2.326 . S
O80 C88 1.252 . S
C81 O84 1.252 . S
C81 O85 1.260 . S
C82 O89 1.240 . S
C82 O90 1.252 . S
C83 O86 1.252 . S
C83 O87 1.260 . S
O84 In78 2.266 . S
O84 C81 1.252 . S
O85 In78 2.326 . S
O85 C81 1.260 . S
O86 In78 2.266 . S
O86 C83 1.252 . S
O87 In78 2.326 . S
O87 C83 1.260 . S
C88 O79 1.240 . S
C88 O80 1.252 . S
O89 In78 2.294 . S
O89 C82 1.240 . S
O90 In78 2.326 . S
O90 C82 1.252 . S
In91 O92 2.294 . S
In91 O93 2.326 . S
In91 O97 2.266 . S
In91 O98 2.326 . S
In91 O99 2.266 . S
In91 O100 2.326 . S
In91 O102 2.294 . S
In91 O103 2.326 . S
O92 In91 2.294 . S
O92 C101 1.240 . S
O93 In91 2.326 . S
O93 C101 1.252 . S
C94 O97 1.252 . S
C94 O98 1.260 . S
C95 O102 1.240 . S
C95 O103 1.252 . S
C96 O99 1.252 . S
C96 O100 1.260 . S
O97 In91 2.266 . S
O97 C94 1.252 . S
O98 In91 2.326 . S
O98 C94 1.260 . S
O99 In91 2.266 . S
O99 C96 1.252 . S
O100 In91 2.326 . S
O100 C96 1.260 . S
C101 O92 1.240 . S
C101 O93 1.252 . S
O102 In91 2.294 . S
O102 C95 1.240 . S
O103 In91 2.326 . S
O103 C95 1.252 . S
In104 O105 2.294 . S
In104 O106 2.326 . S
In104 O110 2.266 . S
In104 O111 2.326 . S
In104 O112 2.266 . S
In104 O113 2.326 . S
In104 O115 2.294 . S
In104 O116 2.326 . S
O105 In104 2.294 . S
O105 C114 1.240 . S
O106 In104 2.326 . S
O106 C114 1.252 . S
C107 O110 1.252 . S
C107 O111 1.260 . S
C108 O115 1.240 . S
C108 O116 1.252 . S
C109 O112 1.252 . S
C109 O113 1.260 . S
O110 In104 2.266 . S
O110 C107 1.252 . S
O111 In104 2.326 . S
O111 C107 1.260 . S
O112 In104 2.266 . S
O112 C109 1.252 . S
O113 In104 2.326 . S
O113 C109 1.260 . S
C114 O105 1.240 . S
C114 O106 1.252 . S
O115 In104 2.294 . S
O115 C108 1.240 . S
O116 In104 2.326 . S
O116 C108 1.252 . S
In117 O118 2.294 . S
In117 O119 2.326 . S
In117 O123 2.266 . S
In117 O124 2.326 . S
In117 O125 2.266 . S
In117 O126 2.326 . S
In117 O128 2.294 . S
In117 O129 2.326 . S
O118 In117 2.294 . S
O118 C127 1.240 . S
O119 In117 2.326 . S
O119 C127 1.252 . S
C120 O123 1.252 . S
C120 O124 1.260 . S
C121 O128 1.240 . S
C121 O129 1.252 . S
C122 O125 1.252 . S
C122 O126 1.260 . S
O123 In117 2.266 . S
O123 C120 1.252 . S
O124 In117 2.326 . S
O124 C120 1.260 . S
O125 In117 2.266 . S
O125 C122 1.252 . S
O126 In117 2.326 . S
O126 C122 1.260 . S
C127 O118 1.240 . S
C127 O119 1.252 . S
O128 In117 2.294 . S
O128 C121 1.240 . S
O129 In117 2.326 . S
O129 C121 1.252 . S
In130 O131 2.294 . S
In130 O132 2.326 . S
In130 O136 2.266 . S
In130 O137 2.326 . S
In130 O138 2.266 . S
In130 O139 2.326 . S
In130 O141 2.294 . S
In130 O142 2.326 . S
O131 In130 2.294 . S
O131 C140 1.240 . S
O132 In130 2.326 . S
O132 C140 1.252 . S
C133 O136 1.252 . S
C133 O137 1.260 . S
C134 O141 1.240 . S
C134 O142 1.252 . S
C135 O138 1.252 . S
C135 O139 1.260 . S
O136 In130 2.266 . S
O136 C133 1.252 . S
O137 In130 2.326 . S
O137 C133 1.260 . S
O138 In130 2.266 . S
O138 C135 1.252 . S
O139 In130 2.326 . S
O139 C135 1.260 . S
C140 O131 1.240 . S
C140 O132 1.252 . S
O141 In130 2.294 . S
O141 C134 1.240 . S
O142 In130 2.326 . S
O142 C134 1.252 . S
In143 O144 2.294 . S
In143 O145 2.326 . S
In143 O149 2.266 . S
In143 O150 2.326 . S
In143 O151 2.266 . S
In143 O152 2.326 . S
In143 O154 2.294 . S
In143 O155 2.326 . S
O144 In143 2.294 . S
O144 C153 1.240 . S
O145 In143 2.326 . S
O145 C153 1.252 . S
C146 O149 1.252 . S
C146 O150 1.260 . S
C147 O154 1.240 . S
C147 O155 1.252 . S
C148 O151 1.252 . S
C148 O152 1.260 . S
O149 In143 2.266 . S
O149 C146 1.252 . S
O150 In143 2.326 . S
O150 C146 1.260 . S
O151 In143 2.266 . S
O151 C148 1.252 . S
O152 In143 2.326 . S
O152 C148 1.260 . S
C153 O144 1.240 . S
C153 O145 1.252 . S
O154 In143 2.294 . S
O154 C147 1.240 . S
O155 In143 2.326 . S
O155 C147 1.252 . S
C156 C157 1.349 . S
C156 C158 1.327 . S
C156 H181 0.950 . S
C157 C156 1.349 . S
C157 C173 1.349 . S
C158 C156 1.327 . S
C158 C177 1.429 . S
C158 H182 0.950 . S
C159 C176 1.574 1_556 S
C159 C178 1.368 . S
C159 H183 0.949 . S
H160 C164 0.949 . S
C161 C162 1.349 . S
C161 C163 1.327 . S
C161 H184 0.950 . S
C162 C161 1.349 . S
C162 C174 1.349 . S
C163 C161 1.327 . S
C163 C179 1.429 . S
C163 H185 0.950 . S
C164 H160 0.949 . S
C164 C172 1.574 1_554 S
C164 C180 1.368 . S
H165 C173 0.950 . S
H166 C171 0.950 . S
H167 C172 0.949 . S
H168 C174 0.950 . S
H169 C175 0.950 . S
H170 C176 0.949 . S
C171 H166 0.950 . S
C171 C173 1.327 . S
C171 C177 1.429 . S
C172 C164 1.574 1_556 S
C172 H167 0.949 . S
C172 C178 1.368 . S
C173 C157 1.349 . S
C173 H165 0.950 . S
C173 C171 1.327 . S
C174 C162 1.349 . S
C174 H168 0.950 . S
C174 C175 1.327 . S
C175 H169 0.950 . S
C175 C174 1.327 . S
C175 C179 1.429 . S
C176 C159 1.574 1_554 S
C176 H170 0.949 . S
C176 C180 1.368 . S
C177 C158 1.429 . S
C177 C171 1.429 . S
C177 C178 1.523 . S
C178 C159 1.368 . S
C178 C172 1.368 . S
C178 C177 1.523 . S
C179 C163 1.429 . S
C179 C175 1.429 . S
C179 C180 1.523 . S
C180 C164 1.368 . S
C180 C176 1.368 . S
C180 C179 1.523 . S
H181 C156 0.950 . S
H182 C158 0.950 . S
H183 C159 0.949 . S
H184 C161 0.950 . S
H185 C163 0.950 . S
C186 C187 1.349 . S
C186 C188 1.327 . S
C186 H211 0.950 . S
C187 C186 1.349 . S
C187 C203 1.349 . S
C188 C186 1.327 . S
C188 C207 1.429 . S
C188 H212 0.950 . S
C189 C206 1.574 . S
C189 C208 1.368 . S
C189 H213 0.949 . S
H190 C194 0.949 . S
C191 C192 1.349 . S
C191 C193 1.327 . S
C191 H214 0.950 . S
C192 C191 1.349 . S
C192 C204 1.349 . S
C193 C191 1.327 . S
C193 C209 1.429 . S
C193 H215 0.950 . S
C194 H190 0.949 . S
C194 C202 1.574 . S
C194 C210 1.368 . S
H195 C203 0.950 . S
H196 C201 0.950 . S
H197 C202 0.949 . S
H198 C204 0.950 . S
H199 C205 0.950 . S
H200 C206 0.949 . S
C201 H196 0.950 . S
C201 C203 1.327 . S
C201 C207 1.429 . S
C202 C194 1.574 . S
C202 H197 0.949 . S
C202 C208 1.368 . S
C203 C187 1.349 . S
C203 H195 0.950 . S
C203 C201 1.327 . S
C204 C192 1.349 . S
C204 H198 0.950 . S
C204 C205 1.327 . S
C205 H199 0.950 . S
C205 C204 1.327 . S
C205 C209 1.429 . S
C206 C189 1.574 . S
C206 H200 0.949 . S
C206 C210 1.368 . S
C207 C188 1.429 . S
C207 C201 1.429 . S
C207 C208 1.523 . S
C208 C189 1.368 . S
C208 C202 1.368 . S
C208 C207 1.523 . S
C209 C193 1.429 . S
C209 C205 1.429 . S
C209 C210 1.523 . S
C210 C194 1.368 . S
C210 C206 1.368 . S
C210 C209 1.523 . S
H211 C186 0.950 . S
H212 C188 0.950 . S
H213 C189 0.949 . S
H214 C191 0.950 . S
H215 C193 0.950 . S
C216 C217 1.349 . S
C216 C218 1.327 . S
C216 H241 0.950 . S
C217 C216 1.349 . S
C217 C233 1.349 . S
C218 C216 1.327 . S
C218 C237 1.429 . S
C218 H242 0.950 . S
C219 C236 1.574 . S
C219 C238 1.368 . S
C219 H243 0.949 . S
H220 C224 0.949 . S
C221 C222 1.349 . S
C221 C223 1.327 . S
C221 H244 0.950 . S
C222 C221 1.349 . S
C222 C234 1.349 . S
C223 C221 1.327 . S
C223 C239 1.429 . S
C223 H245 0.950 . S
C224 H220 0.949 . S
C224 C232 1.574 . S
C224 C240 1.368 . S
H225 C233 0.950 . S
H226 C231 0.950 . S
H227 C232 0.949 . S
H228 C234 0.950 . S
H229 C235 0.950 . S
H230 C236 0.949 . S
C231 H226 0.950 . S
C231 C233 1.327 . S
C231 C237 1.429 . S
C232 C224 1.574 . S
C232 H227 0.949 . S
C232 C238 1.368 . S
C233 C217 1.349 . S
C233 H225 0.950 . S
C233 C231 1.327 . S
C234 C222 1.349 . S
C234 H228 0.950 . S
C234 C235 1.327 . S
C235 H229 0.950 . S
C235 C234 1.327 . S
C235 C239 1.429 . S
C236 C219 1.574 . S
C236 H230 0.949 . S
C236 C240 1.368 . S
C237 C218 1.429 . S
C237 C231 1.429 . S
C237 C238 1.523 . S
C238 C219 1.368 . S
C238 C232 1.368 . S
C238 C237 1.523 . S
C239 C223 1.429 . S
C239 C235 1.429 . S
C239 C240 1.523 . S
C240 C224 1.368 . S
C240 C236 1.368 . S
C240 C239 1.523 . S
H241 C216 0.950 . S
H242 C218 0.950 . S
H243 C219 0.949 . S
H244 C221 0.950 . S
H245 C223 0.950 . S
C246 C247 1.349 . S
C246 C248 1.327 . S
C246 H271 0.950 . S
C247 C246 1.349 . S
C247 C263 1.349 . S
C248 C246 1.327 . S
C248 C267 1.429 . S
C248 H272 0.950 . S
C249 C266 1.574 1_554 S
C249 C268 1.368 . S
C249 H273 0.949 . S
H250 C254 0.949 . S
C251 C252 1.349 . S
C251 C253 1.327 . S
C251 H274 0.950 . S
C252 C251 1.349 . S
C252 C264 1.349 . S
C253 C251 1.327 . S
C253 C269 1.429 . S
C253 H275 0.950 . S
C254 H250 0.949 . S
C254 C262 1.574 1_556 S
C254 C270 1.368 . S
H255 C263 0.950 . S
H256 C261 0.950 . S
H257 C262 0.949 . S
H258 C264 0.950 . S
H259 C265 0.950 . S
H260 C266 0.949 . S
C261 H256 0.950 . S
C261 C263 1.327 . S
C261 C267 1.429 . S
C262 C254 1.574 1_554 S
C262 H257 0.949 . S
C262 C268 1.368 . S
C263 C247 1.349 . S
C263 H255 0.950 . S
C263 C261 1.327 . S
C264 C252 1.349 . S
C264 H258 0.950 . S
C264 C265 1.327 . S
C265 H259 0.950 . S
C265 C264 1.327 . S
C265 C269 1.429 . S
C266 C249 1.574 1_556 S
C266 H260 0.949 . S
C266 C270 1.368 . S
C267 C248 1.429 . S
C267 C261 1.429 . S
C267 C268 1.523 . S
C268 C249 1.368 . S
C268 C262 1.368 . S
C268 C267 1.523 . S
C269 C253 1.429 . S
C269 C265 1.429 . S
C269 C270 1.523 . S
C270 C254 1.368 . S
C270 C266 1.368 . S
C270 C269 1.523 . S
H271 C246 0.950 . S
H272 C248 0.950 . S
H273 C249 0.949 . S
H274 C251 0.950 . S
H275 C253 0.950 . S
C276 C277 1.349 . S
C276 C278 1.327 . S
C276 H301 0.950 . S
C277 C276 1.349 . S
C277 C293 1.349 . S
C278 C276 1.327 . S
C278 C297 1.429 . S
C278 H302 0.950 . S
C279 C296 1.574 . S
C279 C298 1.368 . S
C279 H303 0.949 . S
H280 C284 0.949 . S
C281 C282 1.349 . S
C281 C283 1.327 . S
C281 H304 0.950 . S
C282 C281 1.349 . S
C282 C294 1.349 . S
C283 C281 1.327 . S
C283 C299 1.429 . S
C283 H305 0.950 . S
C284 H280 0.949 . S
C284 C292 1.574 . S
C284 C300 1.368 . S
H285 C293 0.950 . S
H286 C291 0.950 . S
H287 C292 0.949 . S
H288 C294 0.950 . S
H289 C295 0.950 . S
H290 C296 0.949 . S
C291 H286 0.950 . S
C291 C293 1.327 . S
C291 C297 1.429 . S
C292 C284 1.574 . S
C292 H287 0.949 . S
C292 C298 1.368 . S
C293 C277 1.349 . S
C293 H285 0.950 . S
C293 C291 1.327 . S
C294 C282 1.349 . S
C294 H288 0.950 . S
C294 C295 1.327 . S
C295 H289 0.950 . S
C295 C294 1.327 . S
C295 C299 1.429 . S
C296 C279 1.574 . S
C296 H290 0.949 . S
C296 C300 1.368 . S
C297 C278 1.429 . S
C297 C291 1.429 . S
C297 C298 1.523 . S
C298 C279 1.368 . S
C298 C292 1.368 . S
C298 C297 1.523 . S
C299 C283 1.429 . S
C299 C295 1.429 . S
C299 C300 1.523 . S
C300 C284 1.368 . S
C300 C296 1.368 . S
C300 C299 1.523 . S
H301 C276 0.950 . S
H302 C278 0.950 . S
H303 C279 0.949 . S
H304 C281 0.950 . S
H305 C283 0.950 . S
C306 C307 1.349 . S
C306 C308 1.327 . S
C306 H331 0.950 . S
C307 C306 1.349 . S
C307 C323 1.349 . S
C308 C306 1.327 . S
C308 C327 1.429 . S
C308 H332 0.950 . S
C309 C326 1.574 . S
C309 C328 1.368 . S
C309 H333 0.949 . S
H310 C314 0.949 . S
C311 C312 1.349 . S
C311 C313 1.327 . S
C311 H334 0.950 . S
C312 C311 1.349 . S
C312 C324 1.349 . S
C313 C311 1.327 . S
C313 C329 1.429 . S
C313 H335 0.950 . S
C314 H310 0.949 . S
C314 C322 1.574 . S
C314 C330 1.368 . S
H315 C323 0.950 . S
H316 C321 0.950 . S
H317 C322 0.949 . S
H318 C324 0.950 . S
H319 C325 0.950 . S
H320 C326 0.949 . S
C321 H316 0.950 . S
C321 C323 1.327 . S
C321 C327 1.429 . S
C322 C314 1.574 . S
C322 H317 0.949 . S
C322 C328 1.368 . S
C323 C307 1.349 . S
C323 H315 0.950 . S
C323 C321 1.327 . S
C324 C312 1.349 . S
C324 H318 0.950 . S
C324 C325 1.327 . S
C325 H319 0.950 . S
C325 C324 1.327 . S
C325 C329 1.429 . S
C326 C309 1.574 . S
C326 H320 0.949 . S
C326 C330 1.368 . S
C327 C308 1.429 . S
C327 C321 1.429 . S
C327 C328 1.523 . S
C328 C309 1.368 . S
C328 C322 1.368 . S
C328 C327 1.523 . S
C329 C313 1.429 . S
C329 C325 1.429 . S
C329 C330 1.523 . S
C330 C314 1.368 . S
C330 C326 1.368 . S
C330 C329 1.523 . S
H331 C306 0.950 . S
H332 C308 0.950 . S
H333 C309 0.949 . S
H334 C311 0.950 . S
H335 C313 0.950 . S
C336 C337 1.349 . S
C336 C338 1.327 . S
C336 H361 0.950 . S
C337 C336 1.349 . S
C337 C353 1.349 . S
C338 C336 1.327 . S
C338 C357 1.429 . S
C338 H362 0.950 . S
C339 C356 1.574 . S
C339 C358 1.368 . S
C339 H363 0.949 . S
H340 C344 0.949 . S
C341 C342 1.349 . S
C341 C343 1.327 . S
C341 H364 0.950 . S
C342 C341 1.349 . S
C342 C354 1.349 . S
C343 C341 1.327 . S
C343 C359 1.429 . S
C343 H365 0.950 . S
C344 H340 0.949 . S
C344 C352 1.574 . S
C344 C360 1.368 . S
H345 C353 0.950 . S
H346 C351 0.950 . S
H347 C352 0.949 . S
H348 C354 0.950 . S
H349 C355 0.950 . S
H350 C356 0.949 . S
C351 H346 0.950 . S
C351 C353 1.327 . S
C351 C357 1.429 . S
C352 C344 1.574 . S
C352 H347 0.949 . S
C352 C358 1.368 . S
C353 C337 1.349 . S
C353 H345 0.950 . S
C353 C351 1.327 . S
C354 C342 1.349 . S
C354 H348 0.950 . S
C354 C355 1.327 . S
C355 H349 0.950 . S
C355 C354 1.327 . S
C355 C359 1.429 . S
C356 C339 1.574 . S
C356 H350 0.949 . S
C356 C360 1.368 . S
C357 C338 1.429 . S
C357 C351 1.429 . S
C357 C358 1.523 . S
C358 C339 1.368 . S
C358 C352 1.368 . S
C358 C357 1.523 . S
C359 C343 1.429 . S
C359 C355 1.429 . S
C359 C360 1.523 . S
C360 C344 1.368 . S
C360 C356 1.368 . S
C360 C359 1.523 . S
H361 C336 0.950 . S
H362 C338 0.950 . S
H363 C339 0.949 . S
H364 C341 0.950 . S
H365 C343 0.950 . S
C366 C367 1.349 . S
C366 C368 1.327 . S
C366 H391 0.950 . S
C367 C366 1.349 . S
C367 C383 1.349 . S
C368 C366 1.327 . S
C368 C387 1.429 . S
C368 H392 0.950 . S
C369 C386 1.574 . S
C369 C388 1.368 . S
C369 H393 0.949 . S
H370 C374 0.949 . S
C371 C372 1.349 . S
C371 C373 1.327 . S
C371 H394 0.950 . S
C372 C371 1.349 . S
C372 C384 1.349 . S
C373 C371 1.327 . S
C373 C389 1.429 . S
C373 H395 0.950 . S
C374 H370 0.949 . S
C374 C382 1.574 . S
C374 C390 1.368 . S
H375 C383 0.950 . S
H376 C381 0.950 . S
H377 C382 0.949 . S
H378 C384 0.950 . S
H379 C385 0.950 . S
H380 C386 0.949 . S
C381 H376 0.950 . S
C381 C383 1.327 . S
C381 C387 1.429 . S
C382 C374 1.574 . S
C382 H377 0.949 . S
C382 C388 1.368 . S
C383 C367 1.349 . S
C383 H375 0.950 . S
C383 C381 1.327 . S
C384 C372 1.349 . S
C384 H378 0.950 . S
C384 C385 1.327 . S
C385 H379 0.950 . S
C385 C384 1.327 . S
C385 C389 1.429 . S
C386 C369 1.574 . S
C386 H380 0.949 . S
C386 C390 1.368 . S
C387 C368 1.429 . S
C387 C381 1.429 . S
C387 C388 1.523 . S
C388 C369 1.368 . S
C388 C382 1.368 . S
C388 C387 1.523 . S
C389 C373 1.429 . S
C389 C385 1.429 . S
C389 C390 1.523 . S
C390 C374 1.368 . S
C390 C386 1.368 . S
C390 C389 1.523 . S
H391 C366 0.950 . S
H392 C368 0.950 . S
H393 C369 0.949 . S
H394 C371 0.950 . S
H395 C373 0.950 . S
C396 C397 1.349 . S
C396 C398 1.327 . S
C396 H421 0.950 . S
C397 C396 1.349 . S
C397 C413 1.349 . S
C398 C396 1.327 . S
C398 C417 1.429 . S
C398 H422 0.950 . S
C399 C416 1.574 . S
C399 C418 1.368 . S
C399 H423 0.949 . S
H400 C404 0.949 . S
C401 C402 1.349 . S
C401 C403 1.327 . S
C401 H424 0.950 . S
C402 C401 1.349 . S
C402 C414 1.349 . S
C403 C401 1.327 . S
C403 C419 1.429 . S
C403 H425 0.950 . S
C404 H400 0.949 . S
C404 C412 1.574 . S
C404 C420 1.368 . S
H405 C413 0.950 . S
H406 C411 0.950 . S
H407 C412 0.949 . S
H408 C414 0.950 . S
H409 C415 0.950 . S
H410 C416 0.949 . S
C411 H406 0.950 . S
C411 C413 1.327 . S
C411 C417 1.429 . S
C412 C404 1.574 . S
C412 H407 0.949 . S
C412 C418 1.368 . S
C413 C397 1.349 . S
C413 H405 0.950 . S
C413 C411 1.327 . S
C414 C402 1.349 . S
C414 H408 0.950 . S
C414 C415 1.327 . S
C415 H409 0.950 . S
C415 C414 1.327 . S
C415 C419 1.429 . S
C416 C399 1.574 . S
C416 H410 0.949 . S
C416 C420 1.368 . S
C417 C398 1.429 . S
C417 C411 1.429 . S
C417 C418 1.523 . S
C418 C399 1.368 . S
C418 C412 1.368 . S
C418 C417 1.523 . S
C419 C403 1.429 . S
C419 C415 1.429 . S
C419 C420 1.523 . S
C420 C404 1.368 . S
C420 C416 1.368 . S
C420 C419 1.523 . S
H421 C396 0.950 . S
H422 C398 0.950 . S
H423 C399 0.949 . S
H424 C401 0.950 . S
H425 C403 0.950 . S
C426 C427 1.349 . S
C426 C428 1.327 . S
C426 H451 0.950 . S
C427 C426 1.349 . S
C427 C443 1.349 . S
C428 C426 1.327 . S
C428 C447 1.429 . S
C428 H452 0.950 . S
C429 C446 1.574 . S
C429 C448 1.368 . S
C429 H453 0.949 . S
H430 C434 0.949 . S
C431 C432 1.349 . S
C431 C433 1.327 . S
C431 H454 0.950 . S
C432 C431 1.349 . S
C432 C444 1.349 . S
C433 C431 1.327 . S
C433 C449 1.429 . S
C433 H455 0.950 . S
C434 H430 0.949 . S
C434 C442 1.574 . S
C434 C450 1.368 . S
H435 C443 0.950 . S
H436 C441 0.950 . S
H437 C442 0.949 . S
H438 C444 0.950 . S
H439 C445 0.950 . S
H440 C446 0.949 . S
C441 H436 0.950 . S
C441 C443 1.327 . S
C441 C447 1.429 . S
C442 C434 1.574 . S
C442 H437 0.949 . S
C442 C448 1.368 . S
C443 C427 1.349 . S
C443 H435 0.950 . S
C443 C441 1.327 . S
C444 C432 1.349 . S
C444 H438 0.950 . S
C444 C445 1.327 . S
C445 H439 0.950 . S
C445 C444 1.327 . S
C445 C449 1.429 . S
C446 C429 1.574 . S
C446 H440 0.949 . S
C446 C450 1.368 . S
C447 C428 1.429 . S
C447 C441 1.429 . S
C447 C448 1.523 . S
C448 C429 1.368 . S
C448 C442 1.368 . S
C448 C447 1.523 . S
C449 C433 1.429 . S
C449 C445 1.429 . S
C449 C450 1.523 . S
C450 C434 1.368 . S
C450 C446 1.368 . S
C450 C449 1.523 . S
H451 C426 0.950 . S
H452 C428 0.950 . S
H453 C429 0.949 . S
H454 C431 0.950 . S
H455 C433 0.950 . S
C456 C457 1.349 . S
C456 C458 1.327 . S
C456 H481 0.950 . S
C457 C456 1.349 . S
C457 C473 1.349 . S
C458 C456 1.327 . S
C458 C477 1.429 . S
C458 H482 0.950 . S
C459 C476 1.574 . S
C459 C478 1.368 . S
C459 H483 0.949 . S
H460 C464 0.949 . S
C461 C462 1.349 . S
C461 C463 1.327 . S
C461 H484 0.950 . S
C462 C461 1.349 . S
C462 C474 1.349 . S
C463 C461 1.327 . S
C463 C479 1.429 . S
C463 H485 0.950 . S
C464 H460 0.949 . S
C464 C472 1.574 . S
C464 C480 1.368 . S
H465 C473 0.950 . S
H466 C471 0.950 . S
H467 C472 0.949 . S
H468 C474 0.950 . S
H469 C475 0.950 . S
H470 C476 0.949 . S
C471 H466 0.950 . S
C471 C473 1.327 . S
C471 C477 1.429 . S
C472 C464 1.574 . S
C472 H467 0.949 . S
C472 C478 1.368 . S
C473 C457 1.349 . S
C473 H465 0.950 . S
C473 C471 1.327 . S
C474 C462 1.349 . S
C474 H468 0.950 . S
C474 C475 1.327 . S
C475 H469 0.950 . S
C475 C474 1.327 . S
C475 C479 1.429 . S
C476 C459 1.574 . S
C476 H470 0.949 . S
C476 C480 1.368 . S
C477 C458 1.429 . S
C477 C471 1.429 . S
C477 C478 1.523 . S
C478 C459 1.368 . S
C478 C472 1.368 . S
C478 C477 1.523 . S
C479 C463 1.429 . S
C479 C475 1.429 . S
C479 C480 1.523 . S
C480 C464 1.368 . S
C480 C476 1.368 . S
C480 C479 1.523 . S
H481 C456 0.950 . S
H482 C458 0.950 . S
H483 C459 0.949 . S
H484 C461 0.950 . S
H485 C463 0.950 . S
C486 C487 1.349 . S
C486 C488 1.327 . S
C486 H511 0.950 . S
C487 C486 1.349 . S
C487 C503 1.349 . S
C488 C486 1.327 . S
C488 C507 1.429 . S
C488 H512 0.950 . S
C489 C506 1.574 . S
C489 C508 1.368 . S
C489 H513 0.949 . S
H490 C494 0.949 . S
C491 C492 1.349 . S
C491 C493 1.327 . S
C491 H514 0.950 . S
C492 C491 1.349 . S
C492 C504 1.349 . S
C493 C491 1.327 . S
C493 C509 1.429 . S
C493 H515 0.950 . S
C494 H490 0.949 . S
C494 C502 1.574 . S
C494 C510 1.368 . S
H495 C503 0.950 . S
H496 C501 0.950 . S
H497 C502 0.949 . S
H498 C504 0.950 . S
H499 C505 0.950 . S
H500 C506 0.949 . S
C501 H496 0.950 . S
C501 C503 1.327 . S
C501 C507 1.429 . S
C502 C494 1.574 . S
C502 H497 0.949 . S
C502 C508 1.368 . S
C503 C487 1.349 . S
C503 H495 0.950 . S
C503 C501 1.327 . S
C504 C492 1.349 . S
C504 H498 0.950 . S
C504 C505 1.327 . S
C505 H499 0.950 . S
C505 C504 1.327 . S
C505 C509 1.429 . S
C506 C489 1.574 . S
C506 H500 0.949 . S
C506 C510 1.368 . S
C507 C488 1.429 . S
C507 C501 1.429 . S
C507 C508 1.523 . S
C508 C489 1.368 . S
C508 C502 1.368 . S
C508 C507 1.523 . S
C509 C493 1.429 . S
C509 C505 1.429 . S
C509 C510 1.523 . S
C510 C494 1.368 . S
C510 C506 1.368 . S
C510 C509 1.523 . S
H511 C486 0.950 . S
H512 C488 0.950 . S
H513 C489 0.949 . S
H514 C491 0.950 . S
H515 C493 0.950 . S
C516 C517 1.349 . S
C516 C518 1.327 . S
C516 H541 0.950 . S
C517 C516 1.349 . S
C517 C533 1.349 . S
C518 C516 1.327 . S
C518 C537 1.429 . S
C518 H542 0.950 . S
C519 C536 1.574 1_655 S
C519 C538 1.368 . S
C519 H543 0.949 . S
H520 C524 0.949 . S
C521 C522 1.349 . S
C521 C523 1.327 . S
C521 H544 0.950 . S
C522 C521 1.349 . S
C522 C534 1.349 . S
C523 C521 1.327 . S
C523 C539 1.429 . S
C523 H545 0.950 . S
C524 H520 0.949 . S
C524 C532 1.574 1_455 S
C524 C540 1.368 . S
H525 C533 0.950 . S
H526 C531 0.950 . S
H527 C532 0.949 . S
H528 C534 0.950 . S
H529 C535 0.950 . S
H530 C536 0.949 . S
C531 H526 0.950 . S
C531 C533 1.327 . S
C531 C537 1.429 . S
C532 C524 1.574 1_655 S
C532 H527 0.949 . S
C532 C538 1.368 . S
C533 C517 1.349 . S
C533 H525 0.950 . S
C533 C531 1.327 . S
C534 C522 1.349 . S
C534 H528 0.950 . S
C534 C535 1.327 . S
C535 H529 0.950 . S
C535 C534 1.327 . S
C535 C539 1.429 . S
C536 C519 1.574 1_455 S
C536 H530 0.949 . S
C536 C540 1.368 . S
C537 C518 1.429 . S
C537 C531 1.429 . S
C537 C538 1.523 . S
C538 C519 1.368 . S
C538 C532 1.368 . S
C538 C537 1.523 . S
C539 C523 1.429 . S
C539 C535 1.429 . S
C539 C540 1.523 . S
C540 C524 1.368 . S
C540 C536 1.368 . S
C540 C539 1.523 . S
H541 C516 0.950 . S
H542 C518 0.950 . S
H543 C519 0.949 . S
H544 C521 0.950 . S
H545 C523 0.950 . S
C546 C547 1.349 . S
C546 C548 1.327 . S
C546 H571 0.950 . S
C547 C546 1.349 . S
C547 C563 1.349 . S
C548 C546 1.327 . S
C548 C567 1.429 . S
C548 H572 0.950 . S
C549 C566 1.574 1_545 S
C549 C568 1.368 . S
C549 H573 0.949 . S
H550 C554 0.949 . S
C551 C552 1.349 . S
C551 C553 1.327 . S
C551 H574 0.950 . S
C552 C551 1.349 . S
C552 C564 1.349 . S
C553 C551 1.327 . S
C553 C569 1.429 . S
C553 H575 0.950 . S
C554 H550 0.949 . S
C554 C562 1.574 1_565 S
C554 C570 1.368 . S
H555 C563 0.950 . S
H556 C561 0.950 . S
H557 C562 0.949 . S
H558 C564 0.950 . S
H559 C565 0.950 . S
H560 C566 0.949 . S
C561 H556 0.950 . S
C561 C563 1.327 . S
C561 C567 1.429 . S
C562 C554 1.574 1_545 S
C562 H557 0.949 . S
C562 C568 1.368 . S
C563 C547 1.349 . S
C563 H555 0.950 . S
C563 C561 1.327 . S
C564 C552 1.349 . S
C564 H558 0.950 . S
C564 C565 1.327 . S
C565 H559 0.950 . S
C565 C564 1.327 . S
C565 C569 1.429 . S
C566 C549 1.574 1_565 S
C566 H560 0.949 . S
C566 C570 1.368 . S
C567 C548 1.429 . S
C567 C561 1.429 . S
C567 C568 1.523 . S
C568 C549 1.368 . S
C568 C562 1.368 . S
C568 C567 1.523 . S
C569 C553 1.429 . S
C569 C565 1.429 . S
C569 C570 1.523 . S
C570 C554 1.368 . S
C570 C566 1.368 . S
C570 C569 1.523 . S
H571 C546 0.950 . S
H572 C548 0.950 . S
H573 C549 0.949 . S
H574 C551 0.950 . S
H575 C553 0.950 . S
C576 C577 1.349 . S
C576 C578 1.327 . S
C576 H601 0.950 . S
C577 C576 1.349 . S
C577 C593 1.349 . S
C578 C576 1.327 . S
C578 C597 1.429 . S
C578 H602 0.950 . S
C579 C596 1.574 . S
C579 C598 1.368 . S
C579 H603 0.949 . S
H580 C584 0.949 . S
C581 C582 1.349 . S
C581 C583 1.327 . S
C581 H604 0.950 . S
C582 C581 1.349 . S
C582 C594 1.349 . S
C583 C581 1.327 . S
C583 C599 1.429 . S
C583 H605 0.950 . S
C584 H580 0.949 . S
C584 C592 1.574 . S
C584 C600 1.368 . S
H585 C593 0.950 . S
H586 C591 0.950 . S
H587 C592 0.949 . S
H588 C594 0.950 . S
H589 C595 0.950 . S
H590 C596 0.949 . S
C591 H586 0.950 . S
C591 C593 1.327 . S
C591 C597 1.429 . S
C592 C584 1.574 . S
C592 H587 0.949 . S
C592 C598 1.368 . S
C593 C577 1.349 . S
C593 H585 0.950 . S
C593 C591 1.327 . S
C594 C582 1.349 . S
C594 H588 0.950 . S
C594 C595 1.327 . S
C595 H589 0.950 . S
C595 C594 1.327 . S
C595 C599 1.429 . S
C596 C579 1.574 . S
C596 H590 0.949 . S
C596 C600 1.368 . S
C597 C578 1.429 . S
C597 C591 1.429 . S
C597 C598 1.523 . S
C598 C579 1.368 . S
C598 C592 1.368 . S
C598 C597 1.523 . S
C599 C583 1.429 . S
C599 C595 1.429 . S
C599 C600 1.523 . S
C600 C584 1.368 . S
C600 C596 1.368 . S
C600 C599 1.523 . S
H601 C576 0.950 . S
H602 C578 0.950 . S
H603 C579 0.949 . S
H604 C581 0.950 . S
H605 C583 0.950 . S
C606 C607 1.349 . S
C606 C608 1.327 . S
C606 H631 0.950 . S
C607 C606 1.349 . S
C607 C623 1.349 . S
C608 C606 1.327 . S
C608 C627 1.429 . S
C608 H632 0.950 . S
C609 C626 1.574 1_545 S
C609 C628 1.368 . S
C609 H633 0.949 . S
H610 C614 0.949 . S
C611 C612 1.349 . S
C611 C613 1.327 . S
C611 H634 0.950 . S
C612 C611 1.349 . S
C612 C624 1.349 . S
C613 C611 1.327 . S
C613 C629 1.429 . S
C613 H635 0.950 . S
C614 H610 0.949 . S
C614 C622 1.574 1_565 S
C614 C630 1.368 . S
H615 C623 0.950 . S
H616 C621 0.950 . S
H617 C622 0.949 . S
H618 C624 0.950 . S
H619 C625 0.950 . S
H620 C626 0.949 . S
C621 H616 0.950 . S
C621 C623 1.327 . S
C621 C627 1.429 . S
C622 C614 1.574 1_545 S
C622 H617 0.949 . S
C622 C628 1.368 . S
C623 C607 1.349 . S
C623 H615 0.950 . S
C623 C621 1.327 . S
C624 C612 1.349 . S
C624 H618 0.950 . S
C624 C625 1.327 . S
C625 H619 0.950 . S
C625 C624 1.327 . S
C625 C629 1.429 . S
C626 C609 1.574 1_565 S
C626 H620 0.949 . S
C626 C630 1.368 . S
C627 C608 1.429 . S
C627 C621 1.429 . S
C627 C628 1.523 . S
C628 C609 1.368 . S
C628 C622 1.368 . S
C628 C627 1.523 . S
C629 C613 1.429 . S
C629 C625 1.429 . S
C629 C630 1.523 . S
C630 C614 1.368 . S
C630 C626 1.368 . S
C630 C629 1.523 . S
H631 C606 0.950 . S
H632 C608 0.950 . S
H633 C609 0.949 . S
H634 C611 0.950 . S
H635 C613 0.950 . S
C636 C637 1.349 . S
C636 C638 1.327 . S
C636 H661 0.950 . S
C637 C636 1.349 . S
C637 C653 1.349 . S
C638 C636 1.327 . S
C638 C657 1.429 . S
C638 H662 0.950 . S
C639 C656 1.574 . S
C639 C658 1.368 . S
C639 H663 0.949 . S
H640 C644 0.949 . S
C641 C642 1.349 . S
C641 C643 1.327 . S
C641 H664 0.950 . S
C642 C641 1.349 . S
C642 C654 1.349 . S
C643 C641 1.327 . S
C643 C659 1.429 . S
C643 H665 0.950 . S
C644 H640 0.949 . S
C644 C652 1.574 . S
C644 C660 1.368 . S
H645 C653 0.950 . S
H646 C651 0.950 . S
H647 C652 0.949 . S
H648 C654 0.950 . S
H649 C655 0.950 . S
H650 C656 0.949 . S
C651 H646 0.950 . S
C651 C653 1.327 . S
C651 C657 1.429 . S
C652 C644 1.574 . S
C652 H647 0.949 . S
C652 C658 1.368 . S
C653 C637 1.349 . S
C653 H645 0.950 . S
C653 C651 1.327 . S
C654 C642 1.349 . S
C654 H648 0.950 . S
C654 C655 1.327 . S
C655 H649 0.950 . S
C655 C654 1.327 . S
C655 C659 1.429 . S
C656 C639 1.574 . S
C656 H650 0.949 . S
C656 C660 1.368 . S
C657 C638 1.429 . S
C657 C651 1.429 . S
C657 C658 1.523 . S
C658 C639 1.368 . S
C658 C652 1.368 . S
C658 C657 1.523 . S
C659 C643 1.429 . S
C659 C655 1.429 . S
C659 C660 1.523 . S
C660 C644 1.368 . S
C660 C656 1.368 . S
C660 C659 1.523 . S
H661 C636 0.950 . S
H662 C638 0.950 . S
H663 C639 0.949 . S
H664 C641 0.950 . S
H665 C643 0.950 . S
C666 C667 1.349 . S
C666 C668 1.327 . S
C666 H691 0.950 . S
C667 C666 1.349 . S
C667 C683 1.349 . S
C668 C666 1.327 . S
C668 C687 1.429 . S
C668 H692 0.950 . S
C669 C686 1.574 1_455 S
C669 C688 1.368 . S
C669 H693 0.949 . S
H670 C674 0.949 . S
C671 C672 1.349 . S
C671 C673 1.327 . S
C671 H694 0.950 . S
C672 C671 1.349 . S
C672 C684 1.349 . S
C673 C671 1.327 . S
C673 C689 1.429 . S
C673 H695 0.950 . S
C674 H670 0.949 . S
C674 C682 1.574 1_655 S
C674 C690 1.368 . S
H675 C683 0.950 . S
H676 C681 0.950 . S
H677 C682 0.949 . S
H678 C684 0.950 . S
H679 C685 0.950 . S
H680 C686 0.949 . S
C681 H676 0.950 . S
C681 C683 1.327 . S
C681 C687 1.429 . S
C682 C674 1.574 1_455 S
C682 H677 0.949 . S
C682 C688 1.368 . S
C683 C667 1.349 . S
C683 H675 0.950 . S
C683 C681 1.327 . S
C684 C672 1.349 . S
C684 H678 0.950 . S
C684 C685 1.327 . S
C685 H679 0.950 . S
C685 C684 1.327 . S
C685 C689 1.429 . S
C686 C669 1.574 1_655 S
C686 H680 0.949 . S
C686 C690 1.368 . S
C687 C668 1.429 . S
C687 C681 1.429 . S
C687 C688 1.523 . S
C688 C669 1.368 . S
C688 C682 1.368 . S
C688 C687 1.523 . S
C689 C673 1.429 . S
C689 C685 1.429 . S
C689 C690 1.523 . S
C690 C674 1.368 . S
C690 C686 1.368 . S
C690 C689 1.523 . S
H691 C666 0.950 . S
H692 C668 0.950 . S
H693 C669 0.949 . S
H694 C671 0.950 . S
H695 C673 0.950 . S
C696 C697 1.349 . S
C696 C698 1.327 . S
C696 H721 0.950 . S
C697 C696 1.349 . S
C697 C713 1.349 . S
C698 C696 1.327 . S
C698 C717 1.429 . S
C698 H722 0.950 . S
C699 C716 1.574 . S
C699 C718 1.368 . S
C699 H723 0.949 . S
H700 C704 0.949 . S
C701 C702 1.349 . S
C701 C703 1.327 . S
C701 H724 0.950 . S
C702 C701 1.349 . S
C702 C714 1.349 . S
C703 C701 1.327 . S
C703 C719 1.429 . S
C703 H725 0.950 . S
C704 H700 0.949 . S
C704 C712 1.574 . S
C704 C720 1.368 . S
H705 C713 0.950 . S
H706 C711 0.950 . S
H707 C712 0.949 . S
H708 C714 0.950 . S
H709 C715 0.950 . S
H710 C716 0.949 . S
C711 H706 0.950 . S
C711 C713 1.327 . S
C711 C717 1.429 . S
C712 C704 1.574 . S
C712 H707 0.949 . S
C712 C718 1.368 . S
C713 C697 1.349 . S
C713 H705 0.950 . S
C713 C711 1.327 . S
C714 C702 1.349 . S
C714 H708 0.950 . S
C714 C715 1.327 . S
C715 H709 0.950 . S
C715 C714 1.327 . S
C715 C719 1.429 . S
C716 C699 1.574 . S
C716 H710 0.949 . S
C716 C720 1.368 . S
C717 C698 1.429 . S
C717 C711 1.429 . S
C717 C718 1.523 . S
C718 C699 1.368 . S
C718 C712 1.368 . S
C718 C717 1.523 . S
C719 C703 1.429 . S
C719 C715 1.429 . S
C719 C720 1.523 . S
C720 C704 1.368 . S
C720 C716 1.368 . S
C720 C719 1.523 . S
H721 C696 0.950 . S
H722 C698 0.950 . S
H723 C699 0.949 . S
H724 C701 0.950 . S
H725 C703 0.950 . S
C726 C727 1.349 . S
C726 C728 1.327 . S
C726 H751 0.950 . S
C727 C726 1.349 . S
C727 C743 1.349 . S
C728 C726 1.327 . S
C728 C747 1.429 . S
C728 H752 0.950 . S
C729 C746 1.574 1_655 S
C729 C748 1.368 . S
C729 H753 0.949 . S
H730 C734 0.949 . S
C731 C732 1.349 . S
C731 C733 1.327 . S
C731 H754 0.950 . S
C732 C731 1.349 . S
C732 C744 1.349 . S
C733 C731 1.327 . S
C733 C749 1.429 . S
C733 H755 0.950 . S
C734 H730 0.949 . S
C734 C742 1.574 1_455 S
C734 C750 1.368 . S
H735 C743 0.950 . S
H736 C741 0.950 . S
H737 C742 0.949 . S
H738 C744 0.950 . S
H739 C745 0.950 . S
H740 C746 0.949 . S
C741 H736 0.950 . S
C741 C743 1.327 . S
C741 C747 1.429 . S
C742 C734 1.574 1_655 S
C742 H737 0.949 . S
C742 C748 1.368 . S
C743 C727 1.349 . S
C743 H735 0.950 . S
C743 C741 1.327 . S
C744 C732 1.349 . S
C744 H738 0.950 . S
C744 C745 1.327 . S
C745 H739 0.950 . S
C745 C744 1.327 . S
C745 C749 1.429 . S
C746 C729 1.574 1_455 S
C746 H740 0.949 . S
C746 C750 1.368 . S
C747 C728 1.429 . S
C747 C741 1.429 . S
C747 C748 1.523 . S
C748 C729 1.368 . S
C748 C742 1.368 . S
C748 C747 1.523 . S
C749 C733 1.429 . S
C749 C745 1.429 . S
C749 C750 1.523 . S
C750 C734 1.368 . S
C750 C746 1.368 . S
C750 C749 1.523 . S
H751 C726 0.950 . S
H752 C728 0.950 . S
H753 C729 0.949 . S
H754 C731 0.950 . S
H755 C733 0.950 . S
C756 C757 1.349 . S
C756 C758 1.327 . S
C756 H781 0.950 . S
C757 C756 1.349 . S
C757 C773 1.349 . S
C758 C756 1.327 . S
C758 C777 1.429 . S
C758 H782 0.950 . S
C759 C776 1.574 1_545 S
C759 C778 1.368 . S
C759 H783 0.949 . S
H760 C764 0.949 . S
C761 C762 1.349 . S
C761 C763 1.327 . S
C761 H784 0.950 . S
C762 C761 1.349 . S
C762 C774 1.349 . S
C763 C761 1.327 . S
C763 C779 1.429 . S
C763 H785 0.950 . S
C764 H760 0.949 . S
C764 C772 1.574 1_565 S
C764 C780 1.368 . S
H765 C773 0.950 . S
H766 C771 0.950 . S
H767 C772 0.949 . S
H768 C774 0.950 . S
H769 C775 0.950 . S
H770 C776 0.949 . S
C771 H766 0.950 . S
C771 C773 1.327 . S
C771 C777 1.429 . S
C772 C764 1.574 1_545 S
C772 H767 0.949 . S
C772 C778 1.368 . S
C773 C757 1.349 . S
C773 H765 0.950 . S
C773 C771 1.327 . S
C774 C762 1.349 . S
C774 H768 0.950 . S
C774 C775 1.327 . S
C775 H769 0.950 . S
C775 C774 1.327 . S
C775 C779 1.429 . S
C776 C759 1.574 1_565 S
C776 H770 0.949 . S
C776 C780 1.368 . S
C777 C758 1.429 . S
C777 C771 1.429 . S
C777 C778 1.523 . S
C778 C759 1.368 . S
C778 C772 1.368 . S
C778 C777 1.523 . S
C779 C763 1.429 . S
C779 C775 1.429 . S
C779 C780 1.523 . S
C780 C764 1.368 . S
C780 C776 1.368 . S
C780 C779 1.523 . S
H781 C756 0.950 . S
H782 C758 0.950 . S
H783 C759 0.949 . S
H784 C761 0.950 . S
H785 C763 0.950 . S
C786 C787 1.349 . S
C786 C788 1.327 . S
C786 H811 0.950 . S
C787 C786 1.349 . S
C787 C803 1.349 . S
C788 C786 1.327 . S
C788 C807 1.429 . S
C788 H812 0.950 . S
C789 C806 1.574 . S
C789 C808 1.368 . S
C789 H813 0.949 . S
H790 C794 0.949 . S
C791 C792 1.349 . S
C791 C793 1.327 . S
C791 H814 0.950 . S
C792 C791 1.349 . S
C792 C804 1.349 . S
C793 C791 1.327 . S
C793 C809 1.429 . S
C793 H815 0.950 . S
C794 H790 0.949 . S
C794 C802 1.574 . S
C794 C810 1.368 . S
H795 C803 0.950 . S
H796 C801 0.950 . S
H797 C802 0.949 . S
H798 C804 0.950 . S
H799 C805 0.950 . S
H800 C806 0.949 . S
C801 H796 0.950 . S
C801 C803 1.327 . S
C801 C807 1.429 . S
C802 C794 1.574 . S
C802 H797 0.949 . S
C802 C808 1.368 . S
C803 C787 1.349 . S
C803 H795 0.950 . S
C803 C801 1.327 . S
C804 C792 1.349 . S
C804 H798 0.950 . S
C804 C805 1.327 . S
C805 H799 0.950 . S
C805 C804 1.327 . S
C805 C809 1.429 . S
C806 C789 1.574 . S
C806 H800 0.949 . S
C806 C810 1.368 . S
C807 C788 1.429 . S
C807 C801 1.429 . S
C807 C808 1.523 . S
C808 C789 1.368 . S
C808 C802 1.368 . S
C808 C807 1.523 . S
C809 C793 1.429 . S
C809 C805 1.429 . S
C809 C810 1.523 . S
C810 C794 1.368 . S
C810 C806 1.368 . S
C810 C809 1.523 . S
H811 C786 0.950 . S
H812 C788 0.950 . S
H813 C789 0.949 . S
H814 C791 0.950 . S
H815 C793 0.950 . S
C816 C817 1.349 . S
C816 C818 1.327 . S
C816 H841 0.950 . S
C817 C816 1.349 . S
C817 C833 1.349 . S
C818 C816 1.327 . S
C818 C837 1.429 . S
C818 H842 0.950 . S
C819 C836 1.574 1_455 S
C819 C838 1.368 . S
C819 H843 0.949 . S
H820 C824 0.949 . S
C821 C822 1.349 . S
C821 C823 1.327 . S
C821 H844 0.950 . S
C822 C821 1.349 . S
C822 C834 1.349 . S
C823 C821 1.327 . S
C823 C839 1.429 . S
C823 H845 0.950 . S
C824 H820 0.949 . S
C824 C832 1.574 1_655 S
C824 C840 1.368 . S
H825 C833 0.950 . S
H826 C831 0.950 . S
H827 C832 0.949 . S
H828 C834 0.950 . S
H829 C835 0.950 . S
H830 C836 0.949 . S
C831 H826 0.950 . S
C831 C833 1.327 . S
C831 C837 1.429 . S
C832 C824 1.574 1_455 S
C832 H827 0.949 . S
C832 C838 1.368 . S
C833 C817 1.349 . S
C833 H825 0.950 . S
C833 C831 1.327 . S
C834 C822 1.349 . S
C834 H828 0.950 . S
C834 C835 1.327 . S
C835 H829 0.950 . S
C835 C834 1.327 . S
C835 C839 1.429 . S
C836 C819 1.574 1_655 S
C836 H830 0.949 . S
C836 C840 1.368 . S
C837 C818 1.429 . S
C837 C831 1.429 . S
C837 C838 1.523 . S
C838 C819 1.368 . S
C838 C832 1.368 . S
C838 C837 1.523 . S
C839 C823 1.429 . S
C839 C835 1.429 . S
C839 C840 1.523 . S
C840 C824 1.368 . S
C840 C836 1.368 . S
C840 C839 1.523 . S
H841 C816 0.950 . S
H842 C818 0.950 . S
H843 C819 0.949 . S
H844 C821 0.950 . S
H845 C823 0.950 . S
C846 C847 1.349 . S
C846 C848 1.327 . S
C846 H871 0.950 . S
C847 C846 1.349 . S
C847 C863 1.349 . S
C848 C846 1.327 . S
C848 C867 1.429 . S
C848 H872 0.950 . S
C849 C866 1.574 1_565 S
C849 C868 1.368 . S
C849 H873 0.949 . S
H850 C854 0.949 . S
C851 C852 1.349 . S
C851 C853 1.327 . S
C851 H874 0.950 . S
C852 C851 1.349 . S
C852 C864 1.349 . S
C853 C851 1.327 . S
C853 C869 1.429 . S
C853 H875 0.950 . S
C854 H850 0.949 . S
C854 C862 1.574 1_545 S
C854 C870 1.368 . S
H855 C863 0.950 . S
H856 C861 0.950 . S
H857 C862 0.949 . S
H858 C864 0.950 . S
H859 C865 0.950 . S
H860 C866 0.949 . S
C861 H856 0.950 . S
C861 C863 1.327 . S
C861 C867 1.429 . S
C862 C854 1.574 1_565 S
C862 H857 0.949 . S
C862 C868 1.368 . S
C863 C847 1.349 . S
C863 H855 0.950 . S
C863 C861 1.327 . S
C864 C852 1.349 . S
C864 H858 0.950 . S
C864 C865 1.327 . S
C865 H859 0.950 . S
C865 C864 1.327 . S
C865 C869 1.429 . S
C866 C849 1.574 1_545 S
C866 H860 0.949 . S
C866 C870 1.368 . S
C867 C848 1.429 . S
C867 C861 1.429 . S
C867 C868 1.523 . S
C868 C849 1.368 . S
C868 C862 1.368 . S
C868 C867 1.523 . S
C869 C853 1.429 . S
C869 C865 1.429 . S
C869 C870 1.523 . S
C870 C854 1.368 . S
C870 C866 1.368 . S
C870 C869 1.523 . S
H871 C846 0.950 . S
H872 C848 0.950 . S
H873 C849 0.949 . S
H874 C851 0.950 . S
H875 C853 0.950 . S
C157 C134 1.237 . S
C162 C10 1.237 . S
C187 C17 1.237 . S
C192 C147 1.237 . S
C217 C36 1.237 . S
C222 C82 1.237 . S
C247 C49 1.237 . S
C252 C95 1.237 . S
C277 C108 1.237 . S
C282 C56 1.237 . S
C307 C69 1.238 . S
C312 C127 1.238 . S
C337 C109 1.212 . S
C342 C3 1.212 . S
C367 C18 1.212 . S
C372 C120 1.212 . S
C397 C29 1.212 . S
C402 C135 1.212 . S
C427 C42 1.212 . S
C432 C148 1.212 . S
C457 C83 1.212 . S
C462 C57 1.212 . S
C487 C96 1.212 . S
C492 C70 1.212 . S
C517 C44 1.123 . S
C522 C5 1.123 . S
C547 C16 1.124 . S
C552 C55 1.124 . S
C577 C68 1.124 . S
C582 C31 1.124 . S
C607 C122 1.123 . S
C612 C81 1.123 . S
C637 C133 1.124 . S
C642 C94 1.124 . S
C667 C107 1.124 . S
C672 C146 1.124 . S
C697 C43 1.629 . S
C702 C4 1.629 . S
C727 C23 1.629 . S
C732 C62 1.629 . S
C757 C75 1.629 . S
C762 C30 1.629 . S
C787 C88 1.629 . S
C792 C121 1.629 . S
C817 C140 1.629 . S
C822 C101 1.629 . S
C847 C114 1.629 . S
C852 C153 1.629 . S
