# Generated by pormake.
# Topology smu, (6)-cn, num edge types: 1
# Building blocks:
#     Node 0, Type 0, BuildingBlock: MIFKUJ_clean_sbu_0, # of connection points: 6
#     Node 1, Type 0, BuildingBlock: MIFKUJ_clean_sbu_0, # of connection points: 6
#     Node 2, Type 0, BuildingBlock: MIFKUJ_clean_sbu_0, # of connection points: 6
#     Node 3, Type 0, BuildingBlock: MIFKUJ_clean_sbu_0, # of connection points: 6
#     Node 4, Type 0, BuildingBlock: MIFKUJ_clean_sbu_0, # of connection points: 6
#     Node 5, Type 0, BuildingBlock: MIFKUJ_clean_sbu_0, # of connection points: 6
#     Edge 6, Type (0, 0), BuildingBlock: ZUJKAS_clean_linker_0, # of connection points: 2
#     Edge 7, Type (0, 0), BuildingBlock: ZUJKAS_clean_linker_0, # of connection points: 2
#     Edge 8, Type (0, 0), BuildingBlock: ZUJKAS_clean_linker_0, # of connection points: 2
#     Edge 9, Type (0, 0), BuildingBlock: ZUJKAS_clean_linker_0, # of connection points: 2
#     Edge 10, Type (0, 0), BuildingBlock: ZUJKAS_clean_linker_0, # of connection points: 2
#     Edge 11, Type (0, 0), BuildingBlock: ZUJKAS_clean_linker_0, # of connection points: 2
#     Edge 12, Type (0, 0), BuildingBlock: ZUJKAS_clean_linker_0, # of connection points: 2
#     Edge 13, Type (0, 0), BuildingBlock: ZUJKAS_clean_linker_0, # of connection points: 2
#     Edge 14, Type (0, 0), BuildingBlock: ZUJKAS_clean_linker_0, # of connection points: 2
#     Edge 15, Type (0, 0), BuildingBlock: ZUJKAS_clean_linker_0, # of connection points: 2
#     Edge 16, Type (0, 0), BuildingBlock: ZUJKAS_clean_linker_0, # of connection points: 2
#     Edge 17, Type (0, 0), BuildingBlock: ZUJKAS_clean_linker_0, # of connection points: 2
#     Edge 18, Type (0, 0), BuildingBlock: ZUJKAS_clean_linker_0, # of connection points: 2
#     Edge 19, Type (0, 0), BuildingBlock: ZUJKAS_clean_linker_0, # of connection points: 2
#     Edge 20, Type (0, 0), BuildingBlock: ZUJKAS_clean_linker_0, # of connection points: 2
#     Edge 21, Type (0, 0), BuildingBlock: ZUJKAS_clean_linker_0, # of connection points: 2
#     Edge 22, Type (0, 0), BuildingBlock: ZUJKAS_clean_linker_0, # of connection points: 2
#     Edge 23, Type (0, 0), BuildingBlock: ZUJKAS_clean_linker_0, # of connection points: 2
# Relax obj value: 0.224
# Max RMSD: 0.284
# Mean RMSD: 0.284
data_MOF--net-smu--node1-MIFKUJ_clean_sbu_0--edge1-ZUJKAS_clean_linker_0
_symmetry_space_group_name_H-M    P1
_symmetry_Int_Tables_number       1
_symmetry_cell_setting            triclinic
loop_
_symmetry_equiv_pos_as_xyz
'x, y, z'
_cell_length_a     42.231221
_cell_length_b     42.212356
_cell_length_c     36.093455
_cell_angle_alpha  89.896508
_cell_angle_beta   89.988282
_cell_angle_gamma 120.17707
loop_
_atom_site_label
_atom_site_type_symbol
_atom_site_fract_x
_atom_site_fract_y
_atom_site_fract_z
_atom_type_partial_charge
Zn0 Zn 0.2903 0.05351 0.26286 0.0
Zn1 Zn 0.38516 0.11009 0.25424 0.0
C2 C 0.28525 0.1164 0.28036 0.0
O3 O 0.27953 0.10142 0.31344 0.0
C4 C 0.44648 0.10093 0.2527 0.0
O5 O 0.41989 0.06663 0.25456 0.0
O6 O 0.23725 0.01624 0.26914 0.0
O7 O 0.30531 0.03643 0.21833 0.0
O8 O 0.36443 0.07604 0.21086 0.0
C9 C 0.21446 0.00924 0.24311 0.0
O10 O 0.22572 0.02799 0.21207 0.0
O11 O 0.29323 0.10187 0.25388 0.0
C12 C 0.39302 0.17878 0.27401 0.0
O13 O 0.39998 0.16922 0.30632 0.0
O14 O 0.38239 0.15582 0.24763 0.0
O15 O 0.37237 0.08853 0.30542 0.0
O16 O 0.31264 0.05106 0.31045 0.0
O17 O 0.43846 0.12617 0.25165 0.0
C18 C 0.33477 0.04855 0.19997 0.0
C19 C 0.34457 0.0662 0.32414 0.0
Zn20 Zn 0.77459 0.71516 0.22248 0.0
Zn21 Zn 0.72842 0.61081 0.22441 0.0
C22 C 0.83935 0.73288 0.2593 0.0
O23 O 0.82016 0.73687 0.28564 0.0
C24 C 0.66764 0.54068 0.19911 0.0
O25 O 0.68295 0.55099 0.1663 0.0
O26 O 0.78546 0.76766 0.22258 0.0
O27 O 0.75094 0.69285 0.17445 0.0
O28 O 0.72463 0.63215 0.17543 0.0
C29 C 0.77246 0.78188 0.20064 0.0
O30 O 0.74956 0.76167 0.17454 0.0
O31 O 0.82399 0.71988 0.22833 0.0
C32 C 0.77054 0.58165 0.25339 0.0
O33 O 0.74784 0.57561 0.28096 0.0
O34 O 0.76967 0.59959 0.22543 0.0
O35 O 0.72349 0.63358 0.2715 0.0
O36 O 0.74406 0.69337 0.26739 0.0
O37 O 0.68258 0.56142 0.22682 0.0
C38 C 0.73299 0.6619 0.15868 0.0
C39 C 0.72769 0.66325 0.28488 0.0
Zn40 Zn 0.9747 0.2411 0.25837 0.0
Zn41 Zn 0.90031 0.26141 0.25729 0.0
C42 C 0.93282 0.16517 0.26484 0.0
O43 O 0.95378 0.17474 0.29439 0.0
C44 C 0.88308 0.31465 0.22957 0.0
O45 O 0.86723 0.28949 0.20384 0.0
O46 O 0.02218 0.24087 0.25806 0.0
O47 O 0.98108 0.28017 0.22283 0.0
O48 O 0.92289 0.25841 0.20882 0.0
C49 C 0.03878 0.24199 0.22828 0.0
O50 O 0.02466 0.2435 0.19634 0.0
O51 O 0.93544 0.19023 0.24323 0.0
C52 C 0.82807 0.22518 0.28307 0.0
O53 O 0.84464 0.24982 0.30911 0.0
O54 O 0.84714 0.22309 0.257 0.0
O55 O 0.9206 0.26008 0.30767 0.0
O56 O 0.96727 0.25018 0.31031 0.0
O57 O 0.90029 0.30933 0.2555 0.0
C58 C 0.95637 0.27392 0.1993 0.0
C59 C 0.94416 0.25637 0.32611 0.0
Zn60 Zn 0.08404 0.39994 0.75319 0.0
Zn61 Zn 0.05792 0.29792 0.7448 0.0
C62 C 0.15997 0.43985 0.76416 0.0
O63 O 0.14752 0.45044 0.79206 0.0
C64 C 0.00733 0.22958 0.70985 0.0
O65 O 0.03774 0.23516 0.69401 0.0
O66 O 0.08202 0.44641 0.75831 0.0
O67 O 0.04987 0.37172 0.71204 0.0
O68 O 0.07504 0.33774 0.70721 0.0
C69 C 0.08115 0.46312 0.72934 0.0
O70 O 0.08086 0.44922 0.69672 0.0
O71 O 0.13699 0.41563 0.74223 0.0
C72 C 0.08515 0.25338 0.77078 0.0
O73 O 0.05728 0.24365 0.79329 0.0
O74 O 0.09285 0.2788 0.7474 0.0
O75 O 0.05296 0.31438 0.79578 0.0
O76 O 0.06793 0.37294 0.80173 0.0
O77 O 0.00854 0.25413 0.7312 0.0
C78 C 0.05158 0.34592 0.69619 0.0
C79 C 0.0567 0.34116 0.81533 0.0
Zn80 Zn 0.2874 0.90239 0.75339 0.0
Zn81 Zn 0.23848 0.95034 0.75423 0.0
C82 C 0.22079 0.83844 0.77397 0.0
O83 O 0.2353 0.84921 0.80701 0.0
C84 C 0.21061 0.99669 0.73051 0.0
O85 O 0.20625 0.97937 0.69903 0.0
O86 O 0.3232 0.88419 0.75342 0.0
O87 O 0.30359 0.93729 0.71056 0.0
O88 O 0.27251 0.96672 0.71074 0.0
C89 C 0.35707 0.90822 0.75259 0.0
O90 O 0.36669 0.94305 0.75177 0.0
O91 O 0.2373 0.85849 0.74613 0.0
C92 C 0.16833 0.8896 0.77136 0.0
O93 O 0.1791 0.90262 0.80491 0.0
O94 O 0.19105 0.9035 0.7448 0.0
O95 O 0.26142 0.95325 0.80362 0.0
O96 O 0.29346 0.92476 0.80348 0.0
O97 O 0.22382 0.98859 0.75815 0.0
C98 C 0.29635 0.96052 0.69652 0.0
C99 C 0.28177 0.94344 0.81988 0.0
Zn100 Zn 0.62058 0.72 0.7234 0.0
Zn101 Zn 0.72538 0.77706 0.72647 0.0
C102 C 0.60221 0.76817 0.75687 0.0
O103 O 0.59436 0.74374 0.78317 0.0
C104 C 0.79855 0.79213 0.70357 0.0
O105 O 0.78967 0.79908 0.6709 0.0
O106 O 0.56791 0.67814 0.72123 0.0
O107 O 0.64405 0.71739 0.67613 0.0
O108 O 0.70487 0.75092 0.6784 0.0
C109 C 0.54261 0.68181 0.70637 0.0
O110 O 0.55092 0.71327 0.69093 0.0
O111 O 0.61749 0.76584 0.72747 0.0
C112 C 0.75752 0.8507 0.74974 0.0
O113 O 0.77094 0.83732 0.77398 0.0
O114 O 0.734 0.82892 0.7265 0.0
O115 O 0.70081 0.74784 0.77207 0.0
O116 O 0.64049 0.71096 0.77002 0.0
O117 O 0.77574 0.78264 0.7301 0.0
C118 C 0.67539 0.72949 0.66136 0.0
C119 C 0.67094 0.7237 0.78671 0.0
H120 H 0.28077 0.99859 0.85786 0.0
H121 H 0.29408 0.01349 0.92339 0.0
H122 H 0.31536 0.92423 0.93653 0.0
H123 H 0.30354 0.91012 0.87055 0.0
H124 H 0.25848 0.97289 0.98071 0.0
H125 H 0.40265 0.00461 0.98824 0.0
H126 H 0.37956 0.99981 0.9448 0.0
H127 H 0.37215 0.95985 0.97008 0.0
C128 C 0.28868 0.98239 0.87463 0.0
C129 C 0.29124 0.95327 0.85911 0.0
C130 C 0.29627 0.99092 0.91205 0.0
C131 C 0.30618 0.97028 0.93476 0.0
C132 C 0.30875 0.94115 0.91934 0.0
H133 H 0.28395 0.98084 0.17445 0.0
H134 H 0.27817 0.95762 0.11129 0.0
C135 C 0.30176 0.93298 0.8817 0.0
C136 C 0.31167 0.97815 0.97493 0.0
H137 H 0.37286 0.9999 0.04558 0.0
C138 C 0.28353 0.97886 -0.00511 0.0
C139 C 0.34448 0.98617 0.99327 0.0
C140 C 0.37658 0.98795 0.97294 0.0
C141 C 0.28741 0.98794 0.03253 0.0
C142 C 0.31981 0.99502 0.05116 0.0
C143 C 0.34786 0.99393 0.03133 0.0
C144 C 0.3261 0.00625 0.09052 0.0
C145 C 0.25732 0.9913 0.05146 0.0
C146 C 0.35633 0.04016 0.1003 0.0
C147 C 0.36022 0.05306 0.13652 0.0
C148 C 0.33367 0.03242 0.16345 0.0
C149 C 0.30452 0.99757 0.1541 0.0
C150 C 0.30106 0.98438 0.11801 0.0
H151 H 0.23954 0.99481 0.03115 0.0
H152 H 0.23978 0.96595 0.06753 0.0
H153 H 0.26878 0.01492 0.0708 0.0
H154 H 0.37611 0.05737 0.07955 0.0
H155 H 0.38302 0.08 0.1429 0.0
H156 H 0.73563 0.73619 0.62603 0.0
H157 H 0.73987 0.71969 0.56221 0.0
H158 H 0.62509 0.68193 0.54613 0.0
H159 H 0.62028 0.6974 0.61036 0.0
H160 H 0.64521 0.6358 0.51501 0.0
H161 H 0.74162 0.77955 0.4739 0.0
H162 H 0.75818 0.76454 0.51192 0.0
H163 H 0.71752 0.76774 0.51753 0.0
C164 C 0.71126 0.72439 0.60895 0.0
C165 C 0.6777 0.71851 0.6231 0.0
C166 C 0.71377 0.71507 0.57247 0.0
C167 C 0.68297 0.70034 0.5493 0.0
C168 C 0.64921 0.69347 0.56358 0.0
H169 H 0.70385 0.70771 0.31131 0.0
H170 H 0.68781 0.71265 0.37515 0.0
C171 C 0.64655 0.7024 0.60023 0.0
C172 C 0.68621 0.69287 0.50993 0.0
H173 H 0.73283 0.73355 0.43063 0.0
C174 C 0.66417 0.65715 0.4964 0.0
C175 C 0.71052 0.72096 0.48568 0.0
C176 C 0.73302 0.76042 0.49786 0.0
C177 C 0.66625 0.64861 0.45924 0.0
C178 C 0.69174 0.67642 0.43541 0.0
C179 C 0.71342 0.71219 0.44896 0.0
C180 C 0.69657 0.66957 0.39618 0.0
C181 C 0.64068 0.61015 0.44583 0.0
C182 C 0.70604 0.64314 0.38663 0.0
C183 C 0.71445 0.63974 0.34993 0.0
C184 C 0.71449 0.66343 0.32254 0.0
C185 C 0.70424 0.68927 0.33199 0.0
C186 C 0.69507 0.6921 0.36842 0.0
H187 H 0.61582 0.59598 0.46353 0.0
H188 H 0.63201 0.61009 0.41678 0.0
H189 H 0.65494 0.59414 0.44712 0.0
H190 H 0.70834 0.62613 0.4077 0.0
H191 H 0.72266 0.61986 0.34334 0.0
H192 H 0.91061 0.25326 0.13947 0.0
H193 H 0.92785 0.26491 0.07411 0.0
H194 H 0.04192 0.3267 0.10475 0.0
H195 H 0.02508 0.31441 0.17008 0.0
H196 H 0.96478 0.32849 0.03534 0.0
H197 H 0.04088 0.25308 0.0323 0.0
H198 H 0.01188 0.24974 0.0706 0.0
H199 H 0.05754 0.28843 0.06675 0.0
C200 C 0.93938 0.26935 0.13232 0.0
C201 C 0.96652 0.28261 0.15992 0.0
C202 C 0.94916 0.27596 0.09498 0.0
C203 C 0.98617 0.29602 0.08465 0.0
C204 C 0.01325 0.31033 0.11215 0.0
H205 H 0.06883 0.39231 0.86838 0.0
H206 H 0.05155 0.38142 0.93374 0.0
C207 C 0.00354 0.30346 0.14947 0.0
C208 C 0.9964 0.30211 0.04506 0.0
H209 H 0.04661 0.28904 0.97919 0.0
C210 C 0.98256 0.31977 0.02298 0.0
C211 C 0.01912 0.29015 0.02898 0.0
C212 C 0.03293 0.26897 0.05077 0.0
C213 C 0.9913 0.3263 0.98523 0.0
C214 C 0.01522 0.31566 0.96952 0.0
C215 C 0.02862 0.29753 0.99148 0.0
C216 C 0.02617 0.32243 0.93014 0.0
C217 C 0.97425 0.34385 0.96243 0.0
C218 C 0.01869 0.29294 0.90682 0.0
C219 C 0.02894 0.29906 0.8696 0.0
C220 C 0.04685 0.33484 0.85502 0.0
C221 C 0.05476 0.36439 0.87863 0.0
C222 C 0.04472 0.35823 0.91594 0.0
H223 H 0.9492 0.34086 0.97583 0.0
H224 H 0.99416 0.37357 0.95946 0.0
H225 H 0.96697 0.33167 0.93429 0.0
H226 H 0.00457 0.26511 0.91737 0.0
H227 H 0.02244 0.27568 0.85222 0.0
H228 H 0.40802 0.09567 0.36473 0.0
H229 H 0.41492 0.08219 0.42934 0.0
H230 H 0.29895 0.00511 0.43553 0.0
H231 H 0.29173 0.01801 0.3713 0.0
H232 H 0.38032 0.09078 0.4921 0.0
H233 H 0.34522 0.94655 0.47534 0.0
H234 H 0.35809 0.978 0.43676 0.0
H235 H 0.31187 0.95523 0.4542 0.0
C236 C 0.38403 0.07563 0.37978 0.0
C237 C 0.34932 0.05781 0.36282 0.0
C238 C 0.38806 0.06801 0.41663 0.0
C239 C 0.35756 0.04222 0.43686 0.0
C240 C 0.32296 0.0245 0.42005 0.0
H241 H 0.28243 0.0059 0.65431 0.0
H242 H 0.3072 0.03077 0.59336 0.0
C243 C 0.31887 0.03212 0.38339 0.0
C244 C 0.36096 0.03481 0.47619 0.0
H245 H 0.33667 0.96412 0.53652 0.0
C246 C 0.37155 0.06327 0.50189 0.0
C247 C 0.3503 0.99911 0.48877 0.0
C248 C 0.34111 0.96806 0.46226 0.0
C249 C 0.36897 0.05628 0.54011 0.0
C250 C 0.35484 0.01985 0.55264 0.0
C251 C 0.34706 0.992 0.5269 0.0
C252 C 0.34406 0.00913 0.59167 0.0
C253 C 0.38045 0.08779 0.56659 0.0
C254 C 0.35633 0.98843 0.61091 0.0
C255 C 0.3418 0.97366 0.64566 0.0
C256 C 0.31458 0.97922 0.66165 0.0
C257 C 0.30339 1.00114 0.64287 0.0
C258 C 0.31782 0.01572 0.60811 0.0
H259 H 0.40227 0.11384 0.5543 0.0
H260 H 0.35659 0.09127 0.57253 0.0
H261 H 0.39056 0.08286 0.59315 0.0
H262 H 0.37638 0.98281 0.59855 0.0
H263 H 0.35115 0.95705 0.65947 0.0
H264 H 0.61369 0.66989 0.82644 0.0
H265 H 0.61584 0.64771 0.88859 0.0
H266 H 0.73211 0.72369 0.89346 0.0
H267 H 0.7305 0.74568 0.83142 0.0
H268 H 0.71061 0.65172 0.91835 0.0
H269 H 0.62953 0.70803 0.98326 0.0
H270 H 0.60904 0.67776 0.94451 0.0
H271 H 0.64934 0.72169 0.93762 0.0
C272 C 0.63974 0.68186 0.84071 0.0
C273 C 0.6719 0.70975 0.82404 0.0
C274 C 0.64086 0.66917 0.8762 0.0
C275 C 0.67406 0.68434 0.89559 0.0
C276 C 0.70623 0.71165 0.87882 0.0
H277 H 0.74756 0.72001 0.11424 0.0
H278 H 0.72834 0.71882 0.0505 0.0
C279 C 0.7052 0.72428 0.84341 0.0
C280 C 0.6756 0.67293 0.93389 0.0
H281 H 0.6534 0.68104 0.02283 0.0
C282 C 0.69766 0.65752 0.94124 0.0
C283 C 0.65873 0.6808 0.96348 0.0
C284 C 0.6355 0.6982 0.95709 0.0
C285 C 0.70454 0.65115 0.97769 0.0
C286 C 0.68864 0.66016 0.00728 0.0
C287 C 0.66532 0.67406 -0.00012 0.0
C288 C 0.69944 0.65974 0.04602 0.0
C289 C 0.73034 0.63679 0.98445 0.0
C290 C 0.6894 0.62679 0.06452 0.0
C291 C 0.70032 0.6273 0.1012 0.0
C292 C 0.7214 0.66081 0.11981 0.0
C293 C 0.73126 0.69369 0.10095 0.0
C294 C 0.72028 0.69311 0.06448 0.0
H295 H 0.74364 0.63517 0.95853 0.0
H296 H 0.75197 0.65465 0.00444 0.0
H297 H 0.71492 0.60895 -0.00325 0.0
H298 H 0.67303 0.60076 0.05066 0.0
H299 H 0.69218 0.60151 0.1149 0.0
H300 H 0.98319 0.23971 0.37454 0.0
H301 H 0.98624 0.24638 0.44167 0.0
H302 H 0.90945 0.28531 0.43765 0.0
H303 H 0.90617 0.27882 0.37007 0.0
H304 H 0.97579 0.33114 0.47558 0.0
H305 H 0.91233 0.18755 0.52457 0.0
H306 H 0.94593 0.19862 0.48885 0.0
H307 H 0.90471 0.19954 0.47864 0.0
C308 C 0.96666 0.2494 0.38785 0.0
C309 C 0.94461 0.25897 0.36693 0.0
C310 C 0.96813 0.25278 0.42628 0.0
C311 C 0.94757 0.26569 0.44454 0.0
C312 C 0.92515 0.27485 0.42394 0.0
H313 H 0.99325 0.35091 0.67132 0.0
H314 H 0.96006 0.32716 0.61314 0.0
C315 C 0.92344 0.27126 0.3854 0.0
C316 C 0.9529 0.2733 0.48461 0.0
H317 H 0.952 0.23416 0.56765 0.0
C318 C 0.9699 0.30995 0.49596 0.0
C319 C 0.94527 0.24547 0.51086 0.0
C320 C 0.92573 0.20553 0.50022 0.0
C321 C 0.9817 0.31986 0.53255 0.0
C322 C 0.97538 0.29214 0.55858 0.0
C323 C 0.95679 0.25529 0.54759 0.0
C324 C 0.99089 0.30135 0.5963 0.0
C325 C 0.00283 0.36006 0.54238 0.0
C326 C 0.01772 0.29284 0.60694 0.0
C327 C 0.03645 0.30599 0.64032 0.0
C328 C 0.02871 0.32799 0.66343 0.0
C329 C 1.00024 0.33454 0.65374 0.0
C330 C 0.9813 0.32108 0.62053 0.0
H331 H 0.01195 0.37787 0.51737 0.0
H332 H 0.98505 0.36707 0.55892 0.0
H333 H 0.02731 0.36648 0.55926 0.0
H334 H 0.02533 0.27744 0.58864 0.0
H335 H 0.05804 0.30026 0.64719 0.0
H336 H 0.47245 0.05332 0.25196 0.0
H337 H 0.5363 0.06819 0.25535 0.0
H338 H 0.57151 0.18337 0.259 0.0
H339 H 0.50781 0.16885 0.255 0.0
H340 H 0.61221 0.16671 0.2105 0.0
H341 H 0.5996 0.10329 0.34886 0.0
H342 H 0.56778 0.07338 0.31462 0.0
H343 H 0.56513 0.1123 0.33053 0.0
C344 C 0.49378 0.08183 0.25343 0.0
C345 C 0.48509 0.10992 0.25343 0.0
C346 C 0.5302 0.09023 0.25556 0.0
C347 C 0.55849 0.12681 0.25805 0.0
C348 C 0.54998 0.15494 0.25727 0.0
H349 H 0.77996 0.22801 0.33141 0.0
H350 H 0.71378 0.19985 0.3243 0.0
C351 C 0.51359 0.14659 0.25501 0.0
C352 C 0.59707 0.136 0.26147 0.0
H353 H 0.65677 0.12744 0.31858 0.0
C354 C 0.62199 0.158 0.234 0.0
C355 C 0.60962 0.12477 0.29237 0.0
C356 C 0.58428 0.10239 0.32348 0.0
C357 C 0.65935 0.16954 0.23681 0.0
C358 C 0.67189 0.15811 0.26758 0.0
C359 C 0.6469 0.13575 0.29484 0.0
C360 C 0.71129 0.17164 0.27344 0.0
C361 C 0.68526 0.195 0.20757 0.0
C362 C 0.73158 0.16407 0.24782 0.0
C363 C 0.76953 0.18029 0.25169 0.0
C364 C 0.78765 0.20412 0.2814 0.0
C365 C 0.76689 0.20997 0.30809 0.0
C366 C 0.72904 0.19386 0.30412 0.0
H367 H 0.67241 0.20727 0.19026 0.0
H368 H 0.71042 0.21749 0.22043 0.0
H369 H 0.69349 0.17942 0.18905 0.0
H370 H 0.7182 0.14637 0.22435 0.0
H371 H 0.78473 0.17502 0.23082 0.0
H372 H 0.62458 0.49253 0.14537 0.0
H373 H 0.56792 0.43387 0.154 0.0
H374 H 0.57669 0.45008 0.27234 0.0
H375 H 0.63273 0.50892 0.26399 0.0
H376 H 0.5604 0.3749 0.19077 0.0
H377 H 0.4705 0.41935 0.25574 0.0
H378 H 0.51281 0.45096 0.23273 0.0
H379 H 0.51325 0.4367 0.27968 0.0
C380 C 0.61426 0.48375 0.17321 0.0
C381 C 0.63313 0.50541 0.20399 0.0
C382 C 0.58183 0.45029 0.17808 0.0
C383 C 0.56765 0.43796 0.21376 0.0
C384 C 0.58648 0.45953 0.2445 0.0
H385 H 0.42721 0.23693 0.32126 0.0
H386 H 0.4639 0.30143 0.30378 0.0
C387 C 0.61876 0.49302 0.23967 0.0
C388 C 0.535 0.40117 0.2192 0.0
H389 H 0.45197 0.35555 0.26286 0.0
C390 C 0.53639 0.37069 0.20592 0.0
C391 C 0.50374 0.39577 0.23908 0.0
C392 C 0.49977 0.42748 0.2523 0.0
C393 C 0.50819 0.33491 0.21342 0.0
C394 C 0.4775 0.32948 0.23433 0.0
C395 C 0.47553 0.35989 0.24677 0.0
C396 C 0.44893 0.2923 0.24587 0.0
C397 C 0.51223 0.30313 0.20039 0.0
C398 C 0.42677 0.26623 0.21943 0.0
C399 C 0.40577 0.22928 0.22928 0.0
C400 C 0.40674 0.21792 0.26575 0.0
C401 C 0.42614 0.24468 0.29286 0.0
C402 C 0.44712 0.2816 0.28295 0.0
H403 H 0.5403 0.31215 0.1901 0.0
H404 H 0.50575 0.28306 0.22318 0.0
H405 H 0.49269 0.28887 0.17746 0.0
H406 H 0.42744 0.27416 0.19074 0.0
H407 H 0.39075 0.20943 0.20781 0.0
H408 H 0.91023 0.37104 0.27973 0.0
H409 H 0.89755 0.42162 0.28284 0.0
H410 H 0.83246 0.38235 0.1836 0.0
H411 H 0.84478 0.33171 0.18027 0.0
H412 H 0.90831 0.47815 0.22813 0.0
H413 H 0.76244 0.38322 0.26479 0.0
H414 H 0.79703 0.37018 0.26818 0.0
H415 H 0.77843 0.37142 0.22381 0.0
C416 C 0.89348 0.37333 0.25837 0.0
C417 C 0.87825 0.34711 0.22993 0.0
C418 C 0.88635 0.4023 0.26016 0.0
C419 C 0.86374 0.40544 0.2337 0.0
C420 C 0.84963 0.38014 0.20454 0.0
H421 H 0.8108 0.57734 0.1958 0.0
H422 H 0.83748 0.53762 0.19185 0.0
C423 C 0.85678 0.35125 0.20267 0.0
C424 C 0.8533 0.43396 0.23758 0.0
H425 H 0.7799 0.4451 0.25406 0.0
C426 C 0.88028 0.47104 0.23385 0.0
C427 C 0.81678 0.42453 0.24543 0.0
C428 C 0.78696 0.38522 0.25112 0.0
C429 C 0.8715 0.49896 0.23723 0.0
C430 C 0.83481 0.48943 0.24434 0.0
C431 C 0.808 0.45236 0.24848 0.0
C432 C 0.82326 0.5172 0.248 0.0
C433 C 0.90155 0.5384 0.23373 0.0
C434 C 0.80674 0.51921 0.28095 0.0
C435 C 0.79137 0.54172 0.28325 0.0
C436 C 0.79197 0.56256 0.25252 0.0
C437 C 0.80999 0.56177 0.22002 0.0
C438 C 0.82538 0.53916 0.21775 0.0
H439 H 0.92913 0.54148 0.23697 0.0
H440 H 0.90016 0.54882 0.20589 0.0
H441 H 0.89821 0.5557 0.25474 0.0
H442 H 0.80477 0.50247 0.30461 0.0
H443 H 0.77783 0.54172 0.30874 0.0
H444 H 0.08765 0.50226 0.7921 0.0
H445 H 0.09716 0.56423 0.79593 0.0
H446 H 0.08872 0.56734 0.67705 0.0
H447 H 0.07966 0.50554 0.67287 0.0
H448 H 0.15135 0.62518 0.70484 0.0
H449 H 0.03131 0.60852 0.78356 0.0
H450 H 0.05399 0.58725 0.80565 0.0
H451 H 0.03215 0.57055 0.76151 0.0
C452 C 0.0872 0.51586 0.7668 0.0
C453 C 0.08312 0.49904 0.73215 0.0
C454 C 0.09231 0.55118 0.76907 0.0
C455 C 0.0931 0.57018 0.73681 0.0
C456 C 0.0879 0.55302 0.7023 0.0
H457 H 0.18451 0.80654 0.70953 0.0
H458 H 0.14577 0.74082 0.69786 0.0
C459 C 0.08284 0.51773 0.69998 0.0
C460 C 0.10377 0.60936 0.73877 0.0
H461 H 0.08341 0.6695 0.78057 0.0
C462 C 0.13614 0.63487 0.72081 0.0
C463 C 0.08396 0.62185 0.75983 0.0
C464 C 0.04822 0.59558 0.77846 0.0
C465 C 0.15027 0.67264 0.72474 0.0
C466 C 0.13098 0.68525 0.74657 0.0
C467 C 0.09799 0.65973 0.76368 0.0
C468 C 0.14675 0.72474 0.75462 0.0
C469 C 0.18677 0.69867 0.70711 0.0
C470 C 0.15781 0.73746 0.79083 0.0
C471 C 0.17959 0.77496 0.79767 0.0
C472 C 0.19084 0.8003 0.76831 0.0
C473 C 0.17682 0.78766 0.73263 0.0
C474 C 0.15479 0.75013 0.72588 0.0
H475 H 0.20142 0.68441 0.69776 0.0
H476 H 0.1823 0.71177 0.68254 0.0
H477 H 0.20466 0.72063 0.72679 0.0
H478 H 0.15163 0.7183 0.81345 0.0
H479 H 0.18957 0.78378 0.82556 0.0
H480 H 0.34718 0.8393 0.76036 0.0
H481 H 0.39435 0.82186 0.76124 0.0
H482 H 0.47785 0.93481 0.74492 0.0
H483 H 0.43103 0.95262 0.74475 0.0
H484 H 0.44378 0.83038 0.70735 0.0
H485 H 0.5161 0.90582 0.83456 0.0
H486 H 0.47152 0.89826 0.82176 0.0
H487 H 0.51199 0.93385 0.79959 0.0
C488 C 0.37559 0.86046 0.7571 0.0
C489 C 0.38538 0.89738 0.75271 0.0
C490 C 0.4025 0.85045 0.75758 0.0
C491 C 0.43964 0.87712 0.75373 0.0
C492 C 0.44944 0.91391 0.7488 0.0
H493 H 0.60438 0.81539 0.70325 0.0
H494 H 0.5689 0.84676 0.70196 0.0
C495 C 0.42259 0.92398 0.74849 0.0
C496 C 0.46793 0.86619 0.7541 0.0
H497 H 0.54344 0.87777 0.80064 0.0
C498 C 0.46565 0.8408 0.72767 0.0
C499 C 0.49622 0.87964 0.78087 0.0
C500 C 0.49904 0.90564 0.81104 0.0
C501 C 0.49071 0.82822 0.7274 0.0
C502 C 0.51935 0.84209 0.75379 0.0
C503 C 0.52178 0.86764 0.78012 0.0
C504 C 0.54509 0.82802 0.75634 0.0
C505 C 0.4855 0.79921 0.69971 0.0
C506 C 0.54506 0.80892 0.78817 0.0
C507 C 0.56555 0.79133 0.78917 0.0
C508 C 0.58644 0.79249 0.7583 0.0
C509 C 0.58836 0.81373 0.72738 0.0
C510 C 0.5679 0.83145 0.72647 0.0
H511 H 0.45779 0.78581 0.68702 0.0
H512 H 0.50597 0.81205 0.67715 0.0
H513 H 0.4896 0.77779 0.71298 0.0
H514 H 0.52784 0.80618 0.81163 0.0
H515 H 0.56363 0.77542 0.81352 0.0
H516 H 0.19652 0.42392 0.71088 0.0
H517 H 0.2627 0.4567 0.69868 0.0
H518 H 0.27942 0.53066 0.78861 0.0
H519 H 0.21404 0.49773 0.80155 0.0
H520 H 0.30676 0.52626 0.67804 0.0
H521 H 0.35632 0.50468 0.81182 0.0
H522 H 0.30869 0.47897 0.79866 0.0
H523 H 0.3274 0.52389 0.81887 0.0
C524 C 0.21441 0.44687 0.72834 0.0
C525 C 0.19998 0.45804 0.75734 0.0
C526 C 0.2522 0.4656 0.72131 0.0
C527 C 0.2762 0.49574 0.74319 0.0
C528 C 0.26173 0.50686 0.77204 0.0
H529 H 0.48131 0.68538 0.69032 0.0
H530 H 0.41752 0.63695 0.69641 0.0
C531 C 0.22416 0.48809 0.77923 0.0
C532 C 0.31607 0.51719 0.73477 0.0
H533 H 0.40027 0.55652 0.7757 0.0
C534 C 0.32725 0.53241 0.69923 0.0
C535 C 0.34298 0.52466 0.76209 0.0
C536 C 0.33323 0.50682 0.79984 0.0
C537 C 0.36436 0.55644 0.69093 0.0
C538 C 0.39093 0.56635 0.71921 0.0
C539 C 0.37994 0.54952 0.75413 0.0
C540 C 0.42991 0.59526 0.71384 0.0
C541 C 0.37459 0.57094 0.6519 0.0
C542 C 0.45835 0.58842 0.72263 0.0
C543 C 0.495 0.61636 0.71983 0.0
C544 C 0.50394 0.6517 0.70808 0.0
C545 C 0.47544 0.65839 0.69904 0.0
C546 C 0.43886 0.63058 0.70222 0.0
H547 H 0.35445 0.55155 0.63157 0.0
H548 H 0.37455 0.59714 0.6496 0.0
H549 H 0.40223 0.57599 0.6443 0.0
H550 H 0.45219 0.56149 0.73192 0.0
H551 H 0.5163 0.61031 0.72705 0.0
H552 H 0.25726 0.14579 0.32868 0.0
H553 H 0.22718 0.18052 0.31298 0.0
H554 H 0.25877 0.18489 0.19865 0.0
H555 H 0.28858 0.1496 0.21396 0.0
H556 H 0.24678 0.24822 0.27636 0.0
H557 H 0.14577 0.12574 0.19687 0.0
H558 H 0.17851 0.12438 0.22793 0.0
H559 H 0.1929 0.14559 0.18319 0.0
C560 C 0.25853 0.15475 0.30031 0.0
C561 C 0.27462 0.14422 0.27242 0.0
C562 C 0.24135 0.17468 0.29141 0.0
C563 C 0.24005 0.1845 0.25454 0.0
C564 C 0.25887 0.17689 0.22716 0.0
H565 H 0.07995 0.241 0.17008 0.0
H566 H 0.13382 0.23359 0.17285 0.0
C567 C 0.27599 0.15684 0.23601 0.0
C568 C 0.21565 0.19893 0.24456 0.0
H569 H 0.13407 0.17411 0.20248 0.0
C570 C 0.22237 0.2323 0.25982 0.0
C571 C 0.18379 0.17802 0.22298 0.0
C572 C 0.17448 0.14131 0.20695 0.0
C573 C 0.1976 0.24494 0.25473 0.0
C574 C 0.16503 0.22327 0.23447 0.0
C575 C 0.1591 0.19068 0.21795 0.0
C576 C 0.13512 0.23193 0.23273 0.0
C577 C 0.20635 0.28118 0.27143 0.0
C578 C 0.11798 0.2334 0.26546 0.0
C579 C 0.08721 0.23753 0.26399 0.0
C580 C 0.07276 0.23998 0.2297 0.0
C581 C 0.09037 0.23918 0.19693 0.0
C582 C 0.1212 0.23503 0.19845 0.0
H583 H 0.23636 0.29945 0.27498 0.0
H584 H 0.19565 0.29543 0.25402 0.0
H585 H 0.19346 0.27633 0.29922 0.0
H586 H 0.12764 0.23011 0.29219 0.0
H587 H 0.07428 0.23795 0.28976 0.0
H588 H 0.88916 0.73973 0.20656 0.0
H589 H 0.95541 0.7816 0.20835 0.0
H590 H 0.94688 0.81031 0.321 0.0
H591 H 0.88077 0.76864 0.31959 0.0
H592 H 0.97796 0.86981 0.26897 0.0
H593 H 0.04421 0.78467 0.26283 0.0
H594 H 0.00768 0.77286 0.2303 0.0
H595 H 0.99779 0.76699 0.27902 0.0
C596 C 0.90149 0.75414 0.23208 0.0
C597 C 0.87964 0.7512 0.26278 0.0
C598 C 0.93937 0.77798 0.23307 0.0
C599 C 0.95591 0.79899 0.2648 0.0
C600 C 0.93453 0.79426 0.29628 0.0
H601 H 0.18492 0.96061 0.30047 0.0
H602 H 0.12214 0.90944 0.30632 0.0
C603 C 0.89674 0.7704 0.29539 0.0
C604 C 0.99433 0.82924 0.26354 0.0
H605 H 0.08264 0.84878 0.25297 0.0
C606 C 1.0009 0.86525 0.26571 0.0
C607 C 0.02403 0.82305 0.25937 0.0
C608 C 0.0183 0.78482 0.25802 0.0
C609 C 0.03648 0.89538 0.26315 0.0
C610 C 0.06611 0.88925 0.25801 0.0
C611 C 0.05969 0.85325 0.2566 0.0
C612 C 0.10402 0.92004 0.25415 0.0
C613 C 0.04219 0.93356 0.26612 0.0
C614 C 0.11446 0.94275 0.22277 0.0
C615 C 0.15031 0.972 0.21927 0.0
C616 C 0.17624 0.97897 0.24714 0.0
C617 C 0.16558 0.95609 0.27857 0.0
C618 C 0.1298 0.92676 0.28193 0.0
H619 H 0.01768 0.93345 0.27748 0.0
H620 H 0.06608 0.95096 0.28405 0.0
H621 H 0.04787 0.94626 0.23816 0.0
H622 H 0.0949 0.93771 0.20092 0.0
H623 H 0.15768 0.98903 0.19469 0.0
H624 H 0.92315 0.10672 0.30568 0.0
H625 H 0.8879 0.04203 0.28964 0.0
H626 H 0.85249 0.06908 0.18839 0.0
H627 H 0.88851 0.13444 0.20397 0.0
H628 H 0.81395 0.99647 0.27608 0.0
H629 H 0.8974 0.00866 0.15168 0.0
H630 H 0.91195 0.04503 0.18519 0.0
H631 H 0.87696 0.0371 0.15212 0.0
C632 C 0.90782 0.09906 0.28001 0.0
C633 C 0.90893 0.12583 0.25594 0.0
C634 C 0.88759 0.06197 0.27093 0.0
C635 C 0.86801 0.05073 0.23758 0.0
C636 C 0.86799 0.07721 0.21394 0.0
H637 H 0.75703 0.82382 0.15409 0.0
H638 H 0.77582 0.88876 0.16102 0.0
C639 C 0.88839 0.11451 0.22299 0.0
C640 C 0.8485 0.01125 0.22777 0.0
H641 H 0.85057 0.94953 0.1681 0.0
C642 C 0.82168 0.98623 0.25225 0.0
C643 C 0.85856 0.99792 0.19659 0.0
C644 C 0.88796 0.02344 0.16995 0.0
C645 C 0.80546 0.94828 0.24702 0.0
C646 C 0.81662 0.93499 0.21676 0.0
C647 C 0.84216 0.9599 0.19131 0.0
C648 C 0.80432 0.89554 0.21277 0.0
C649 C 0.77693 0.92264 0.27428 0.0
C650 C 0.81453 0.87806 0.23935 0.0
C651 C 0.80412 0.84118 0.23539 0.0
C652 C 0.7832 0.82096 0.20473 0.0
C653 C 0.773 0.83856 0.17809 0.0
C654 C 0.7837 0.87563 0.18197 0.0
H655 H 0.76434 0.93638 0.28957 0.0
H656 H 0.75495 0.89811 0.26003 0.0
H657 H 0.79003 0.91327 0.29482 0.0
H658 H 0.83098 0.89313 0.263 0.0
H659 H 0.81252 0.82856 0.25639 0.0
H660 H 0.13887 0.26125 0.72268 0.0
H661 H 0.16359 0.22011 0.71544 0.0
H662 H 0.09785 0.15495 0.80745 0.0
H663 H 0.07279 0.19563 0.8148 0.0
H664 H 0.2006 0.19723 0.76636 0.0
H665 H 0.06661 0.08228 0.71951 0.0
H666 H 0.07634 0.12908 0.72132 0.0
H667 H 0.06509 0.10215 0.76298 0.0
C668 C 0.12997 0.23841 0.74165 0.0
C669 C 0.10359 0.2315 0.7691 0.0
C670 C 0.14411 0.21495 0.73744 0.0
C671 C 0.13199 0.1842 0.76048 0.0
C672 C 0.107 0.17821 0.78898 0.0
H673 H 0.2163 0.03737 0.79162 0.0
H674 H 0.19889 0.08427 0.7973 0.0
C675 C 0.09286 0.2016 0.79323 0.0
C676 C 0.14446 0.15762 0.754 0.0
H677 H 0.11358 0.06835 0.73125 0.0
C678 C 0.18167 0.16908 0.75855 0.0
C679 C 0.11972 0.12112 0.74321 0.0
C680 C 0.07976 0.10789 0.7361 0.0
C681 C 0.19467 0.14461 0.75355 0.0
C682 C 0.16965 0.10774 0.74419 0.0
C683 C 0.13262 0.09658 0.73872 0.0
C684 C 0.18116 0.08008 0.74038 0.0
C685 C 0.23508 0.1585 0.75798 0.0
C686 C 0.17619 0.06161 0.7067 0.0
C687 C 0.18588 0.03458 0.70339 0.0
C688 C 0.2005 0.0254 0.73383 0.0
C689 C 0.20528 0.04389 0.76759 0.0
C690 C 0.19559 0.07089 0.77084 0.0
H691 H 0.25156 0.1888 0.75525 0.0
H692 H 0.24013 0.151 0.78595 0.0
H693 H 0.2448 0.14598 0.73712 0.0
H694 H 0.16484 0.06816 0.68295 0.0
H695 H 0.1818 0.02083 0.67704 0.0
H696 H 0.11247 0.8553 0.82126 0.0
H697 H 0.04703 0.82865 0.80916 0.0
H698 H 0.06898 0.84622 0.69196 0.0
H699 H 0.13432 0.87221 0.70372 0.0
H700 H 0.02059 0.86949 0.77891 0.0
H701 H 0.97758 0.74593 0.69279 0.0
H702 H 0.01968 0.76711 0.71903 0.0
H703 H 0.01729 0.78589 0.67502 0.0
C704 C 0.1033 0.85254 0.79281 0.0
C705 C 0.12869 0.8662 0.7635 0.0
C706 C 0.06586 0.83735 0.78594 0.0
C707 C 0.05302 0.83535 0.74965 0.0
C708 C 0.07807 0.84683 0.72013 0.0
H709 H 0.8541 0.81166 0.6533 0.0
H710 H 0.91514 0.82028 0.66478 0.0
C711 C 0.11554 0.86186 0.72695 0.0
C712 C 0.0145 0.82591 0.74324 0.0
H713 H 0.93685 0.76992 0.69431 0.0
C714 C 0.00216 0.84742 0.76075 0.0
C715 C 0.9906 0.79739 0.71921 0.0
C716 C 0.0018 0.77253 0.70069 0.0
C717 C 0.9669 0.84168 0.75441 0.0
C718 C 0.94305 0.81331 0.73028 0.0
C719 C 0.95524 0.79167 0.71279 0.0
C720 C 0.90542 0.80599 0.72289 0.0
C721 C 0.95577 0.8667 0.77285 0.0
C722 C 0.87959 0.79452 0.75163 0.0
C723 C 0.84478 0.78966 0.74523 0.0
C724 C 0.83506 0.79606 0.70987 0.0
C725 C 0.86074 0.80668 0.68089 0.0
C726 C 0.89558 0.81149 0.68735 0.0
H727 H 0.97982 0.89211 0.78343 0.0
H728 H 0.94048 0.87443 0.75329 0.0
H729 H 0.93756 0.85218 0.79668 0.0
H730 H 0.88648 0.78962 0.77915 0.0
H731 H 0.82564 0.78123 0.76814 0.0
H732 H 1.00101 0.16692 0.68133 0.0
H733 H 0.94841 0.10522 0.68452 0.0
H734 H 0.88454 0.14701 0.73585 0.0
H735 H 0.93791 0.20908 0.73408 0.0
H736 H 0.87629 0.09083 0.77295 0.0
H737 H 0.85722 0.05049 0.62611 0.0
H738 H 0.90359 0.06587 0.63927 0.0
H739 H 0.88651 0.09739 0.64035 0.0
C740 C 0.97562 0.16321 0.69269 0.0
C741 C 0.9737 0.19302 0.70742 0.0
C742 C 0.94534 0.12778 0.69423 0.0
C743 C 0.91209 0.12131 0.70974 0.0
C744 C 0.90977 0.15123 0.72353 0.0
H745 H 0.73714 0.88913 0.70316 0.0
H746 H 0.76823 0.95581 0.69461 0.0
C747 C 0.94028 0.18673 0.72243 0.0
C748 C 0.88124 0.08302 0.71466 0.0
H749 H 0.83482 1.00041 0.67069 0.0
C750 C 0.86674 0.07126 0.75038 0.0
C751 C 0.86786 0.05739 0.68523 0.0
C752 C 0.87935 0.06861 0.64556 0.0
C753 C 0.84121 0.03433 0.75787 0.0
C754 C 0.83074 0.0081 0.72916 0.0
C755 C 0.84329 0.02024 0.69297 0.0
C756 C 0.80942 0.96792 0.73656 0.0
C757 C 0.82604 0.02387 0.79664 0.0
C758 C 0.82201 0.95242 0.76301 0.0
C759 C 0.8041 0.91452 0.76825 0.0
C760 C 0.77351 0.89099 0.74661 0.0
C761 C 0.76054 0.90646 0.72038 0.0
C762 C 0.77835 0.94458 0.7154 0.0
H763 H 0.82495 0.04684 0.8104 0.0
H764 H 0.79811 0.99943 0.79673 0.0
H765 H 0.84434 0.01771 0.81337 0.0
H766 H 0.84653 0.96954 0.77889 0.0
H767 H 0.81514 0.90365 0.78844 0.0
loop_
_geom_bond_atom_site_label_1
_geom_bond_atom_site_label_2
_geom_bond_distance
_geom_bond_site_symmetry_2
_ccdc_geom_bond_type
Zn0 O6 1.969 . S
Zn0 O7 1.965 . S
Zn0 O11 2.024 . S
Zn0 O16 1.969 . S
Zn1 O8 1.969 . S
Zn1 O14 1.969 . S
Zn1 O15 1.965 . S
Zn1 O17 2.024 . S
C2 O3 1.229 . S
C2 O11 1.058 . S
O3 C2 1.229 . S
C4 O5 1.229 . S
C4 O17 1.058 . S
O5 C4 1.229 . S
O6 Zn0 1.969 . S
O6 C9 1.267 1_545 S
O7 Zn0 1.965 . S
O7 C18 1.260 . S
O8 Zn1 1.969 . S
O8 C18 1.258 . S
C9 O6 1.267 1_565 S
C9 O10 1.228 1_565 S
O10 C9 1.228 1_545 S
O11 Zn0 2.024 . S
O11 C2 1.058 . S
C12 O13 1.228 . S
C12 O14 1.267 . S
O13 C12 1.228 . S
O14 Zn1 1.969 . S
O14 C12 1.267 . S
O15 Zn1 1.965 . S
O15 C19 1.260 . S
O16 Zn0 1.969 . S
O16 C19 1.258 . S
O17 Zn1 2.024 . S
O17 C4 1.058 . S
C18 O7 1.260 . S
C18 O8 1.258 . S
C19 O15 1.260 . S
C19 O16 1.258 . S
Zn20 O26 1.969 . S
Zn20 O27 1.965 . S
Zn20 O31 2.024 . S
Zn20 O36 1.969 . S
Zn21 O28 1.969 . S
Zn21 O34 1.969 . S
Zn21 O35 1.965 . S
Zn21 O37 2.024 . S
C22 O23 1.229 . S
C22 O31 1.058 . S
O23 C22 1.229 . S
C24 O25 1.229 . S
C24 O37 1.058 . S
O25 C24 1.229 . S
O26 Zn20 1.969 . S
O26 C29 1.267 . S
O27 Zn20 1.965 . S
O27 C38 1.260 . S
O28 Zn21 1.969 . S
O28 C38 1.258 . S
C29 O26 1.267 . S
C29 O30 1.228 . S
O30 C29 1.228 . S
O31 Zn20 2.024 . S
O31 C22 1.058 . S
C32 O33 1.228 . S
C32 O34 1.267 . S
O33 C32 1.228 . S
O34 Zn21 1.969 . S
O34 C32 1.267 . S
O35 Zn21 1.965 . S
O35 C39 1.260 . S
O36 Zn20 1.969 . S
O36 C39 1.258 . S
O37 Zn21 2.024 . S
O37 C24 1.058 . S
C38 O27 1.260 . S
C38 O28 1.258 . S
C39 O35 1.260 . S
C39 O36 1.258 . S
Zn40 O46 1.969 . S
Zn40 O47 1.965 . S
Zn40 O51 2.024 . S
Zn40 O56 1.969 . S
Zn41 O48 1.969 . S
Zn41 O54 1.969 . S
Zn41 O55 1.965 . S
Zn41 O57 2.024 . S
C42 O43 1.229 . S
C42 O51 1.058 . S
O43 C42 1.229 . S
C44 O45 1.229 . S
C44 O57 1.058 . S
O45 C44 1.229 . S
O46 Zn40 1.969 . S
O46 C49 1.267 1_655 S
O47 Zn40 1.965 . S
O47 C58 1.260 . S
O48 Zn41 1.969 . S
O48 C58 1.258 . S
C49 O46 1.267 1_455 S
C49 O50 1.228 1_455 S
O50 C49 1.228 1_655 S
O51 Zn40 2.024 . S
O51 C42 1.058 . S
C52 O53 1.228 . S
C52 O54 1.267 . S
O53 C52 1.228 . S
O54 Zn41 1.969 . S
O54 C52 1.267 . S
O55 Zn41 1.965 . S
O55 C59 1.260 . S
O56 Zn40 1.969 . S
O56 C59 1.258 . S
O57 Zn41 2.024 . S
O57 C44 1.058 . S
C58 O47 1.260 . S
C58 O48 1.258 . S
C59 O55 1.260 . S
C59 O56 1.258 . S
Zn60 O66 1.969 . S
Zn60 O67 1.965 . S
Zn60 O71 2.024 . S
Zn60 O76 1.969 . S
Zn61 O68 1.969 . S
Zn61 O74 1.969 . S
Zn61 O75 1.965 . S
Zn61 O77 2.024 . S
C62 O63 1.229 . S
C62 O71 1.058 . S
O63 C62 1.229 . S
C64 O65 1.229 . S
C64 O77 1.058 . S
O65 C64 1.229 . S
O66 Zn60 1.969 . S
O66 C69 1.267 . S
O67 Zn60 1.965 . S
O67 C78 1.260 . S
O68 Zn61 1.969 . S
O68 C78 1.258 . S
C69 O66 1.267 . S
C69 O70 1.228 . S
O70 C69 1.228 . S
O71 Zn60 2.024 . S
O71 C62 1.058 . S
C72 O73 1.228 . S
C72 O74 1.267 . S
O73 C72 1.228 . S
O74 Zn61 1.969 . S
O74 C72 1.267 . S
O75 Zn61 1.965 . S
O75 C79 1.260 . S
O76 Zn60 1.969 . S
O76 C79 1.258 . S
O77 Zn61 2.024 . S
O77 C64 1.058 . S
C78 O67 1.260 . S
C78 O68 1.258 . S
C79 O75 1.260 . S
C79 O76 1.258 . S
Zn80 O86 1.969 . S
Zn80 O87 1.965 . S
Zn80 O91 2.024 . S
Zn80 O96 1.969 . S
Zn81 O88 1.969 . S
Zn81 O94 1.969 . S
Zn81 O95 1.965 . S
Zn81 O97 2.024 . S
C82 O83 1.229 . S
C82 O91 1.058 . S
O83 C82 1.229 . S
C84 O85 1.229 . S
C84 O97 1.058 . S
O85 C84 1.229 . S
O86 Zn80 1.969 . S
O86 C89 1.267 . S
O87 Zn80 1.965 . S
O87 C98 1.260 . S
O88 Zn81 1.969 . S
O88 C98 1.258 . S
C89 O86 1.267 . S
C89 O90 1.228 . S
O90 C89 1.228 . S
O91 Zn80 2.024 . S
O91 C82 1.058 . S
C92 O93 1.228 . S
C92 O94 1.267 . S
O93 C92 1.228 . S
O94 Zn81 1.969 . S
O94 C92 1.267 . S
O95 Zn81 1.965 . S
O95 C99 1.260 . S
O96 Zn80 1.969 . S
O96 C99 1.258 . S
O97 Zn81 2.024 . S
O97 C84 1.058 . S
C98 O87 1.260 . S
C98 O88 1.258 . S
C99 O95 1.260 . S
C99 O96 1.258 . S
Zn100 O106 1.969 . S
Zn100 O107 1.965 . S
Zn100 O111 2.024 . S
Zn100 O116 1.969 . S
Zn101 O108 1.969 . S
Zn101 O114 1.969 . S
Zn101 O115 1.965 . S
Zn101 O117 2.024 . S
C102 O103 1.229 . S
C102 O111 1.058 . S
O103 C102 1.229 . S
C104 O105 1.229 . S
C104 O117 1.058 . S
O105 C104 1.229 . S
O106 Zn100 1.969 . S
O106 C109 1.267 . S
O107 Zn100 1.965 . S
O107 C118 1.260 . S
O108 Zn101 1.969 . S
O108 C118 1.258 . S
C109 O106 1.267 . S
C109 O110 1.228 . S
O110 C109 1.228 . S
O111 Zn100 2.024 . S
O111 C102 1.058 . S
C112 O113 1.228 . S
C112 O114 1.267 . S
O113 C112 1.228 . S
O114 Zn101 1.969 . S
O114 C112 1.267 . S
O115 Zn101 1.965 . S
O115 C119 1.260 . S
O116 Zn100 1.969 . S
O116 C119 1.258 . S
O117 Zn101 2.024 . S
O117 C104 1.058 . S
C118 O107 1.260 . S
C118 O108 1.258 . S
C119 O115 1.260 . S
C119 O116 1.258 . S
H120 C128 0.929 . S
H121 C130 0.930 . S
H122 C132 0.930 . S
H123 C135 0.929 . S
H124 C138 0.930 . S
H125 C140 0.960 . S
H126 C140 0.960 . S
H127 C140 0.960 1_565 S
C128 H120 0.929 . S
C128 C129 1.377 . S
C128 C130 1.384 . S
C129 C128 1.377 . S
C129 C135 1.390 . S
C130 H121 0.930 . S
C130 C128 1.384 . S
C130 C131 1.372 . S
C131 C130 1.372 . S
C131 C132 1.400 . S
C131 C136 1.490 . S
C132 H122 0.930 . S
C132 C131 1.400 . S
C132 C135 1.386 . S
H133 C149 0.930 . S
H134 C150 0.931 . S
C135 H123 0.929 . S
C135 C129 1.390 . S
C135 C132 1.386 . S
C136 C131 1.490 . S
C136 C138 1.395 . S
C136 C139 1.402 1_565 S
H137 C143 0.930 . S
C138 H124 0.930 . S
C138 C136 1.395 . S
C138 C141 1.403 1_556 S
C139 C136 1.402 1_545 S
C139 C140 1.523 . S
C139 C143 1.401 1_556 S
C140 H125 0.960 . S
C140 H126 0.960 . S
C140 H127 0.960 1_545 S
C140 C139 1.523 . S
C141 C138 1.403 1_554 S
C141 C142 1.392 1_565 S
C141 C145 1.495 . S
C142 C141 1.392 1_545 S
C142 C143 1.385 . S
C142 C144 1.478 . S
C143 H137 0.930 . S
C143 C139 1.401 1_554 S
C143 C142 1.385 . S
C144 C142 1.478 . S
C144 C146 1.381 . S
C144 C150 1.383 . S
C145 C141 1.495 . S
C145 H151 0.959 . S
C145 H152 0.961 . S
C145 H153 0.960 1_565 S
C146 C144 1.381 . S
C146 C147 1.394 . S
C146 H154 0.930 . S
C147 C146 1.394 . S
C147 C148 1.383 . S
C147 H155 0.929 . S
C148 C147 1.383 . S
C148 C149 1.377 . S
C149 H133 0.930 . S
C149 C148 1.377 . S
C149 C150 1.379 . S
C150 H134 0.931 . S
C150 C144 1.383 . S
C150 C149 1.379 . S
H151 C145 0.959 . S
H152 C145 0.961 . S
H153 C145 0.960 1_545 S
H154 C146 0.930 . S
H155 C147 0.929 . S
H156 C164 0.929 . S
H157 C166 0.930 . S
H158 C168 0.930 . S
H159 C171 0.929 . S
H160 C174 0.930 . S
H161 C176 0.960 . S
H162 C176 0.960 . S
H163 C176 0.960 . S
C164 H156 0.929 . S
C164 C165 1.377 . S
C164 C166 1.384 . S
C165 C164 1.377 . S
C165 C171 1.390 . S
C166 H157 0.930 . S
C166 C164 1.384 . S
C166 C167 1.372 . S
C167 C166 1.372 . S
C167 C168 1.400 . S
C167 C172 1.490 . S
C168 H158 0.930 . S
C168 C167 1.400 . S
C168 C171 1.386 . S
H169 C185 0.930 . S
H170 C186 0.931 . S
C171 H159 0.929 . S
C171 C165 1.390 . S
C171 C168 1.386 . S
C172 C167 1.490 . S
C172 C174 1.395 . S
C172 C175 1.403 . S
H173 C179 0.930 . S
C174 H160 0.930 . S
C174 C172 1.395 . S
C174 C177 1.403 . S
C175 C172 1.403 . S
C175 C176 1.524 . S
C175 C179 1.400 . S
C176 H161 0.960 . S
C176 H162 0.960 . S
C176 H163 0.960 . S
C176 C175 1.524 . S
C177 C174 1.403 . S
C177 C178 1.392 . S
C177 C181 1.495 . S
C178 C177 1.392 . S
C178 C179 1.385 . S
C178 C180 1.478 . S
C179 H173 0.930 . S
C179 C175 1.400 . S
C179 C178 1.385 . S
C180 C178 1.478 . S
C180 C182 1.381 . S
C180 C186 1.383 . S
C181 C177 1.495 . S
C181 H187 0.959 . S
C181 H188 0.961 . S
C181 H189 0.960 . S
C182 C180 1.381 . S
C182 C183 1.394 . S
C182 H190 0.930 . S
C183 C182 1.394 . S
C183 C184 1.383 . S
C183 H191 0.929 . S
C184 C183 1.383 . S
C184 C185 1.377 . S
C185 H169 0.930 . S
C185 C184 1.377 . S
C185 C186 1.379 . S
C186 H170 0.931 . S
C186 C180 1.383 . S
C186 C185 1.379 . S
H187 C181 0.959 . S
H188 C181 0.961 . S
H189 C181 0.960 . S
H190 C182 0.930 . S
H191 C183 0.929 . S
H192 C200 0.929 . S
H193 C202 0.930 . S
H194 C204 0.930 . S
H195 C207 0.929 . S
H196 C210 0.929 1_554 S
H197 C212 0.960 . S
H198 C212 0.960 . S
H199 C212 0.960 . S
C200 H192 0.929 . S
C200 C201 1.377 . S
C200 C202 1.384 . S
C201 C200 1.377 . S
C201 C207 1.390 . S
C202 H193 0.930 . S
C202 C200 1.384 . S
C202 C203 1.372 . S
C203 C202 1.372 . S
C203 C204 1.400 . S
C203 C208 1.490 . S
C204 H194 0.930 . S
C204 C203 1.400 . S
C204 C207 1.386 . S
H205 C221 0.930 . S
H206 C222 0.931 . S
C207 H195 0.929 . S
C207 C201 1.390 . S
C207 C204 1.386 . S
C208 C203 1.490 . S
C208 C210 1.388 1_554 S
C208 C211 1.403 1_655 S
H209 C215 0.930 . S
C210 H196 0.929 1_556 S
C210 C208 1.388 1_556 S
C210 C213 1.410 . S
C211 C208 1.403 1_455 S
C211 C212 1.524 . S
C211 C215 1.400 1_554 S
C212 H197 0.960 . S
C212 H198 0.960 . S
C212 H199 0.960 . S
C212 C211 1.524 . S
C213 C210 1.410 . S
C213 C214 1.392 1_655 S
C213 C217 1.495 . S
C214 C213 1.392 1_455 S
C214 C215 1.385 . S
C214 C216 1.478 . S
C215 H209 0.930 . S
C215 C211 1.400 1_556 S
C215 C214 1.385 . S
C216 C214 1.478 . S
C216 C218 1.381 . S
C216 C222 1.383 . S
C217 C213 1.495 . S
C217 H223 0.959 . S
C217 H224 0.961 . S
C217 H225 0.960 . S
C218 C216 1.381 . S
C218 C219 1.394 . S
C218 H226 0.930 . S
C219 C218 1.394 . S
C219 C220 1.383 . S
C219 H227 0.929 . S
C220 C219 1.383 . S
C220 C221 1.377 . S
C221 H205 0.930 . S
C221 C220 1.377 . S
C221 C222 1.379 . S
C222 H206 0.931 . S
C222 C216 1.383 . S
C222 C221 1.379 . S
H223 C217 0.959 . S
H224 C217 0.961 . S
H225 C217 0.960 . S
H226 C218 0.930 . S
H227 C219 0.929 . S
H228 C236 0.929 . S
H229 C238 0.930 . S
H230 C240 0.930 . S
H231 C243 0.929 . S
H232 C246 0.930 . S
H233 C248 0.960 . S
H234 C248 0.960 . S
H235 C248 0.960 . S
C236 H228 0.929 . S
C236 C237 1.377 . S
C236 C238 1.384 . S
C237 C236 1.377 . S
C237 C243 1.390 . S
C238 H229 0.930 . S
C238 C236 1.384 . S
C238 C239 1.372 . S
C239 C238 1.372 . S
C239 C240 1.400 . S
C239 C244 1.490 . S
C240 H230 0.930 . S
C240 C239 1.400 . S
C240 C243 1.386 . S
H241 C257 0.930 . S
H242 C258 0.931 . S
C243 H231 0.929 . S
C243 C237 1.390 . S
C243 C240 1.386 . S
C244 C239 1.490 . S
C244 C246 1.395 . S
C244 C247 1.403 . S
H245 C251 0.930 . S
C246 H232 0.930 . S
C246 C244 1.395 . S
C246 C249 1.403 1_545 S
C247 C244 1.403 . S
C247 C248 1.524 . S
C247 C251 1.400 1_545 S
C248 H233 0.960 . S
C248 H234 0.960 . S
C248 H235 0.960 . S
C248 C247 1.524 . S
C249 C246 1.403 1_565 S
C249 C250 1.392 . S
C249 C253 1.495 . S
C250 C249 1.392 . S
C250 C251 1.385 . S
C250 C252 1.478 . S
C251 H245 0.930 . S
C251 C247 1.400 1_565 S
C251 C250 1.385 . S
C252 C250 1.478 . S
C252 C254 1.381 . S
C252 C258 1.383 . S
C253 C249 1.495 . S
C253 H259 0.959 . S
C253 H260 0.961 . S
C253 H261 0.960 . S
C254 C252 1.381 . S
C254 C255 1.394 . S
C254 H262 0.930 . S
C255 C254 1.394 . S
C255 C256 1.383 . S
C255 H263 0.929 . S
C256 C255 1.383 . S
C256 C257 1.377 . S
C257 H241 0.930 . S
C257 C256 1.377 . S
C257 C258 1.379 . S
C258 H242 0.931 . S
C258 C252 1.383 . S
C258 C257 1.379 . S
H259 C253 0.959 . S
H260 C253 0.961 . S
H261 C253 0.960 . S
H262 C254 0.930 . S
H263 C255 0.929 . S
H264 C272 0.929 . S
H265 C274 0.930 . S
H266 C276 0.930 . S
H267 C279 0.929 . S
H268 C282 0.930 . S
H269 C284 0.960 . S
H270 C284 0.960 1_556 S
H271 C284 0.960 1_556 S
C272 H264 0.929 . S
C272 C273 1.377 . S
C272 C274 1.384 . S
C273 C272 1.377 . S
C273 C279 1.390 . S
C274 H265 0.930 . S
C274 C272 1.384 . S
C274 C275 1.372 . S
C275 C274 1.372 . S
C275 C276 1.400 . S
C275 C280 1.490 . S
C276 H266 0.930 . S
C276 C275 1.400 . S
C276 C279 1.386 . S
H277 C293 0.930 . S
H278 C294 0.931 . S
C279 H267 0.929 . S
C279 C273 1.390 . S
C279 C276 1.386 . S
C280 C275 1.490 . S
C280 C282 1.395 . S
C280 C283 1.388 1_556 S
H281 C287 0.930 . S
C282 H268 0.930 . S
C282 C280 1.395 . S
C282 C285 1.403 . S
C283 C280 1.388 1_554 S
C283 C284 1.526 . S
C283 C287 1.413 . S
C284 H269 0.960 . S
C284 H270 0.960 1_554 S
C284 H271 0.960 1_554 S
C284 C283 1.526 . S
C285 C282 1.403 . S
C285 C286 1.392 1_556 S
C285 C289 1.495 . S
C286 C285 1.392 1_554 S
C286 C287 1.385 . S
C286 C288 1.478 . S
C287 H281 0.930 . S
C287 C283 1.413 . S
C287 C286 1.385 . S
C288 C286 1.478 . S
C288 C290 1.381 . S
C288 C294 1.383 . S
C289 C285 1.495 . S
C289 H295 0.959 . S
C289 H296 0.961 1_556 S
C289 H297 0.960 1_556 S
C290 C288 1.381 . S
C290 C291 1.394 . S
C290 H298 0.930 . S
C291 C290 1.394 . S
C291 C292 1.383 . S
C291 H299 0.929 . S
C292 C291 1.383 . S
C292 C293 1.377 . S
C293 H277 0.930 . S
C293 C292 1.377 . S
C293 C294 1.379 . S
C294 H278 0.931 . S
C294 C288 1.383 . S
C294 C293 1.379 . S
H295 C289 0.959 . S
H296 C289 0.961 1_554 S
H297 C289 0.960 1_554 S
H298 C290 0.930 . S
H299 C291 0.929 . S
H300 C308 0.929 . S
H301 C310 0.930 . S
H302 C312 0.930 . S
H303 C315 0.929 . S
H304 C318 0.930 . S
H305 C320 0.960 . S
H306 C320 0.960 . S
H307 C320 0.960 . S
C308 H300 0.929 . S
C308 C309 1.377 . S
C308 C310 1.384 . S
C309 C308 1.377 . S
C309 C315 1.390 . S
C310 H301 0.930 . S
C310 C308 1.384 . S
C310 C311 1.372 . S
C311 C310 1.372 . S
C311 C312 1.400 . S
C311 C316 1.490 . S
C312 H302 0.930 . S
C312 C311 1.400 . S
C312 C315 1.386 . S
H313 C329 0.930 . S
H314 C330 0.958 . S
C315 H303 0.929 . S
C315 C309 1.390 . S
C315 C312 1.386 . S
C316 C311 1.490 . S
C316 C318 1.395 1_655 S
C316 C319 1.403 . S
H317 C323 0.930 . S
C318 H304 0.930 . S
C318 C316 1.395 1_455 S
C318 C321 1.403 . S
C319 C316 1.403 . S
C319 C320 1.524 . S
C319 C323 1.400 . S
C320 H305 0.960 . S
C320 H306 0.960 . S
C320 H307 0.960 . S
C320 C319 1.524 . S
C321 C318 1.403 . S
C321 C322 1.392 . S
C321 C325 1.495 . S
C322 C321 1.392 . S
C322 C323 1.385 1_455 S
C322 C324 1.478 . S
C323 H317 0.930 . S
C323 C319 1.400 . S
C323 C322 1.385 1_655 S
C324 C322 1.478 . S
C324 C326 1.381 . S
C324 C330 1.383 . S
C325 C321 1.495 . S
C325 H331 0.959 . S
C325 H332 0.961 . S
C325 H333 0.960 . S
C326 C324 1.381 . S
C326 C327 1.394 . S
C326 H334 0.930 . S
C327 C326 1.394 . S
C327 C328 1.383 . S
C327 H335 0.929 . S
C328 C327 1.383 . S
C328 C329 1.377 . S
C329 H313 0.930 . S
C329 C328 1.377 . S
C329 C330 1.379 . S
C330 H314 0.958 . S
C330 C324 1.383 . S
C330 C329 1.379 . S
H331 C325 0.959 . S
H332 C325 0.961 . S
H333 C325 0.960 . S
H334 C326 0.930 . S
H335 C327 0.929 . S
H336 C344 0.929 . S
H337 C346 0.930 . S
H338 C348 0.930 . S
H339 C351 0.929 . S
H340 C354 0.930 . S
H341 C356 0.960 . S
H342 C356 0.960 . S
H343 C356 0.960 . S
C344 H336 0.929 . S
C344 C345 1.377 . S
C344 C346 1.384 . S
C345 C344 1.377 . S
C345 C351 1.390 . S
C346 H337 0.930 . S
C346 C344 1.384 . S
C346 C347 1.372 . S
C347 C346 1.372 . S
C347 C348 1.400 . S
C347 C352 1.490 . S
C348 H338 0.930 . S
C348 C347 1.400 . S
C348 C351 1.386 . S
H349 C365 0.930 . S
H350 C366 0.931 . S
C351 H339 0.929 . S
C351 C345 1.390 . S
C351 C348 1.386 . S
C352 C347 1.490 . S
C352 C354 1.395 . S
C352 C355 1.403 . S
H353 C359 0.930 . S
C354 H340 0.930 . S
C354 C352 1.395 . S
C354 C357 1.403 . S
C355 C352 1.403 . S
C355 C356 1.524 . S
C355 C359 1.400 . S
C356 H341 0.960 . S
C356 H342 0.960 . S
C356 H343 0.960 . S
C356 C355 1.524 . S
C357 C354 1.403 . S
C357 C358 1.392 . S
C357 C361 1.495 . S
C358 C357 1.392 . S
C358 C359 1.385 . S
C358 C360 1.478 . S
C359 H353 0.930 . S
C359 C355 1.400 . S
C359 C358 1.385 . S
C360 C358 1.478 . S
C360 C362 1.381 . S
C360 C366 1.383 . S
C361 C357 1.495 . S
C361 H367 0.959 . S
C361 H368 0.961 . S
C361 H369 0.960 . S
C362 C360 1.381 . S
C362 C363 1.394 . S
C362 H370 0.930 . S
C363 C362 1.394 . S
C363 C364 1.383 . S
C363 H371 0.929 . S
C364 C363 1.383 . S
C364 C365 1.377 . S
C365 H349 0.930 . S
C365 C364 1.377 . S
C365 C366 1.379 . S
C366 H350 0.931 . S
C366 C360 1.383 . S
C366 C365 1.379 . S
H367 C361 0.959 . S
H368 C361 0.961 . S
H369 C361 0.960 . S
H370 C362 0.930 . S
H371 C363 0.929 . S
H372 C380 0.929 . S
H373 C382 0.930 . S
H374 C384 0.930 . S
H375 C387 0.929 . S
H376 C390 0.930 . S
H377 C392 0.960 . S
H378 C392 0.960 . S
H379 C392 0.960 . S
C380 H372 0.929 . S
C380 C381 1.377 . S
C380 C382 1.384 . S
C381 C380 1.377 . S
C381 C387 1.390 . S
C382 H373 0.930 . S
C382 C380 1.384 . S
C382 C383 1.372 . S
C383 C382 1.372 . S
C383 C384 1.400 . S
C383 C388 1.490 . S
C384 H374 0.930 . S
C384 C383 1.400 . S
C384 C387 1.386 . S
H385 C401 0.930 . S
H386 C402 0.931 . S
C387 H375 0.929 . S
C387 C381 1.390 . S
C387 C384 1.386 . S
C388 C383 1.490 . S
C388 C390 1.395 . S
C388 C391 1.403 . S
H389 C395 0.930 . S
C390 H376 0.930 . S
C390 C388 1.395 . S
C390 C393 1.403 . S
C391 C388 1.403 . S
C391 C392 1.524 . S
C391 C395 1.400 . S
C392 H377 0.960 . S
C392 H378 0.960 . S
C392 H379 0.960 . S
C392 C391 1.524 . S
C393 C390 1.403 . S
C393 C394 1.392 . S
C393 C397 1.495 . S
C394 C393 1.392 . S
C394 C395 1.385 . S
C394 C396 1.478 . S
C395 H389 0.930 . S
C395 C391 1.400 . S
C395 C394 1.385 . S
C396 C394 1.478 . S
C396 C398 1.381 . S
C396 C402 1.383 . S
C397 C393 1.495 . S
C397 H403 0.959 . S
C397 H404 0.961 . S
C397 H405 0.960 . S
C398 C396 1.381 . S
C398 C399 1.394 . S
C398 H406 0.930 . S
C399 C398 1.394 . S
C399 C400 1.383 . S
C399 H407 0.929 . S
C400 C399 1.383 . S
C400 C401 1.377 . S
C401 H385 0.930 . S
C401 C400 1.377 . S
C401 C402 1.379 . S
C402 H386 0.931 . S
C402 C396 1.383 . S
C402 C401 1.379 . S
H403 C397 0.959 . S
H404 C397 0.961 . S
H405 C397 0.960 . S
H406 C398 0.930 . S
H407 C399 0.929 . S
H408 C416 0.929 . S
H409 C418 0.930 . S
H410 C420 0.930 . S
H411 C423 0.929 . S
H412 C426 0.930 . S
H413 C428 0.960 . S
H414 C428 0.960 . S
H415 C428 0.960 . S
C416 H408 0.929 . S
C416 C417 1.377 . S
C416 C418 1.384 . S
C417 C416 1.377 . S
C417 C423 1.390 . S
C418 H409 0.930 . S
C418 C416 1.384 . S
C418 C419 1.372 . S
C419 C418 1.372 . S
C419 C420 1.400 . S
C419 C424 1.490 . S
C420 H410 0.930 . S
C420 C419 1.400 . S
C420 C423 1.386 . S
H421 C437 0.930 . S
H422 C438 0.931 . S
C423 H411 0.929 . S
C423 C417 1.390 . S
C423 C420 1.386 . S
C424 C419 1.490 . S
C424 C426 1.395 . S
C424 C427 1.403 . S
H425 C431 0.930 . S
C426 H412 0.930 . S
C426 C424 1.395 . S
C426 C429 1.403 . S
C427 C424 1.403 . S
C427 C428 1.524 . S
C427 C431 1.400 . S
C428 H413 0.960 . S
C428 H414 0.960 . S
C428 H415 0.960 . S
C428 C427 1.524 . S
C429 C426 1.403 . S
C429 C430 1.392 . S
C429 C433 1.495 . S
C430 C429 1.392 . S
C430 C431 1.385 . S
C430 C432 1.478 . S
C431 H425 0.930 . S
C431 C427 1.400 . S
C431 C430 1.385 . S
C432 C430 1.478 . S
C432 C434 1.381 . S
C432 C438 1.383 . S
C433 C429 1.495 . S
C433 H439 0.959 . S
C433 H440 0.961 . S
C433 H441 0.960 . S
C434 C432 1.381 . S
C434 C435 1.394 . S
C434 H442 0.930 . S
C435 C434 1.394 . S
C435 C436 1.383 . S
C435 H443 0.929 . S
C436 C435 1.383 . S
C436 C437 1.377 . S
C437 H421 0.930 . S
C437 C436 1.377 . S
C437 C438 1.379 . S
C438 H422 0.931 . S
C438 C432 1.383 . S
C438 C437 1.379 . S
H439 C433 0.959 . S
H440 C433 0.961 . S
H441 C433 0.960 . S
H442 C434 0.930 . S
H443 C435 0.929 . S
H444 C452 0.929 . S
H445 C454 0.930 . S
H446 C456 0.930 . S
H447 C459 0.929 . S
H448 C462 0.930 . S
H449 C464 0.960 . S
H450 C464 0.960 . S
H451 C464 0.960 . S
C452 H444 0.929 . S
C452 C453 1.377 . S
C452 C454 1.384 . S
C453 C452 1.377 . S
C453 C459 1.390 . S
C454 H445 0.930 . S
C454 C452 1.384 . S
C454 C455 1.372 . S
C455 C454 1.372 . S
C455 C456 1.400 . S
C455 C460 1.490 . S
C456 H446 0.930 . S
C456 C455 1.400 . S
C456 C459 1.386 . S
H457 C473 0.930 . S
H458 C474 0.931 . S
C459 H447 0.929 . S
C459 C453 1.390 . S
C459 C456 1.386 . S
C460 C455 1.490 . S
C460 C462 1.395 . S
C460 C463 1.403 . S
H461 C467 0.930 . S
C462 H448 0.930 . S
C462 C460 1.395 . S
C462 C465 1.403 . S
C463 C460 1.403 . S
C463 C464 1.524 . S
C463 C467 1.400 . S
C464 H449 0.960 . S
C464 H450 0.960 . S
C464 H451 0.960 . S
C464 C463 1.524 . S
C465 C462 1.403 . S
C465 C466 1.392 . S
C465 C469 1.495 . S
C466 C465 1.392 . S
C466 C467 1.385 . S
C466 C468 1.478 . S
C467 H461 0.930 . S
C467 C463 1.400 . S
C467 C466 1.385 . S
C468 C466 1.478 . S
C468 C470 1.381 . S
C468 C474 1.383 . S
C469 C465 1.495 . S
C469 H475 0.959 . S
C469 H476 0.961 . S
C469 H477 0.960 . S
C470 C468 1.381 . S
C470 C471 1.394 . S
C470 H478 0.930 . S
C471 C470 1.394 . S
C471 C472 1.383 . S
C471 H479 0.929 . S
C472 C471 1.383 . S
C472 C473 1.377 . S
C473 H457 0.930 . S
C473 C472 1.377 . S
C473 C474 1.379 . S
C474 H458 0.931 . S
C474 C468 1.383 . S
C474 C473 1.379 . S
H475 C469 0.959 . S
H476 C469 0.961 . S
H477 C469 0.960 . S
H478 C470 0.930 . S
H479 C471 0.929 . S
H480 C488 0.929 . S
H481 C490 0.930 . S
H482 C492 0.930 . S
H483 C495 0.929 . S
H484 C498 0.930 . S
H485 C500 0.960 . S
H486 C500 0.960 . S
H487 C500 0.960 . S
C488 H480 0.929 . S
C488 C489 1.377 . S
C488 C490 1.384 . S
C489 C488 1.377 . S
C489 C495 1.390 . S
C490 H481 0.930 . S
C490 C488 1.384 . S
C490 C491 1.372 . S
C491 C490 1.372 . S
C491 C492 1.400 . S
C491 C496 1.490 . S
C492 H482 0.930 . S
C492 C491 1.400 . S
C492 C495 1.386 . S
H493 C509 0.930 . S
H494 C510 0.931 . S
C495 H483 0.929 . S
C495 C489 1.390 . S
C495 C492 1.386 . S
C496 C491 1.490 . S
C496 C498 1.395 . S
C496 C499 1.403 . S
H497 C503 0.930 . S
C498 H484 0.930 . S
C498 C496 1.395 . S
C498 C501 1.403 . S
C499 C496 1.403 . S
C499 C500 1.524 . S
C499 C503 1.400 . S
C500 H485 0.960 . S
C500 H486 0.960 . S
C500 H487 0.960 . S
C500 C499 1.524 . S
C501 C498 1.403 . S
C501 C502 1.392 . S
C501 C505 1.495 . S
C502 C501 1.392 . S
C502 C503 1.385 . S
C502 C504 1.478 . S
C503 H497 0.930 . S
C503 C499 1.400 . S
C503 C502 1.385 . S
C504 C502 1.478 . S
C504 C506 1.381 . S
C504 C510 1.383 . S
C505 C501 1.495 . S
C505 H511 0.959 . S
C505 H512 0.961 . S
C505 H513 0.960 . S
C506 C504 1.381 . S
C506 C507 1.394 . S
C506 H514 0.930 . S
C507 C506 1.394 . S
C507 C508 1.383 . S
C507 H515 0.929 . S
C508 C507 1.383 . S
C508 C509 1.377 . S
C509 H493 0.930 . S
C509 C508 1.377 . S
C509 C510 1.379 . S
C510 H494 0.931 . S
C510 C504 1.383 . S
C510 C509 1.379 . S
H511 C505 0.959 . S
H512 C505 0.961 . S
H513 C505 0.960 . S
H514 C506 0.930 . S
H515 C507 0.929 . S
H516 C524 0.929 . S
H517 C526 0.930 . S
H518 C528 0.930 . S
H519 C531 0.929 . S
H520 C534 0.930 . S
H521 C536 0.960 . S
H522 C536 0.960 . S
H523 C536 0.960 . S
C524 H516 0.929 . S
C524 C525 1.377 . S
C524 C526 1.384 . S
C525 C524 1.377 . S
C525 C531 1.390 . S
C526 H517 0.930 . S
C526 C524 1.384 . S
C526 C527 1.372 . S
C527 C526 1.372 . S
C527 C528 1.400 . S
C527 C532 1.490 . S
C528 H518 0.930 . S
C528 C527 1.400 . S
C528 C531 1.386 . S
H529 C545 0.930 . S
H530 C546 0.931 . S
C531 H519 0.929 . S
C531 C525 1.390 . S
C531 C528 1.386 . S
C532 C527 1.490 . S
C532 C534 1.395 . S
C532 C535 1.403 . S
H533 C539 0.930 . S
C534 H520 0.930 . S
C534 C532 1.395 . S
C534 C537 1.403 . S
C535 C532 1.403 . S
C535 C536 1.524 . S
C535 C539 1.400 . S
C536 H521 0.960 . S
C536 H522 0.960 . S
C536 H523 0.960 . S
C536 C535 1.524 . S
C537 C534 1.403 . S
C537 C538 1.392 . S
C537 C541 1.495 . S
C538 C537 1.392 . S
C538 C539 1.385 . S
C538 C540 1.478 . S
C539 H533 0.930 . S
C539 C535 1.400 . S
C539 C538 1.385 . S
C540 C538 1.478 . S
C540 C542 1.381 . S
C540 C546 1.383 . S
C541 C537 1.495 . S
C541 H547 0.959 . S
C541 H548 0.961 . S
C541 H549 0.960 . S
C542 C540 1.381 . S
C542 C543 1.394 . S
C542 H550 0.930 . S
C543 C542 1.394 . S
C543 C544 1.383 . S
C543 H551 0.929 . S
C544 C543 1.383 . S
C544 C545 1.377 . S
C545 H529 0.930 . S
C545 C544 1.377 . S
C545 C546 1.379 . S
C546 H530 0.931 . S
C546 C540 1.383 . S
C546 C545 1.379 . S
H547 C541 0.959 . S
H548 C541 0.961 . S
H549 C541 0.960 . S
H550 C542 0.930 . S
H551 C543 0.929 . S
H552 C560 0.929 . S
H553 C562 0.930 . S
H554 C564 0.930 . S
H555 C567 0.929 . S
H556 C570 0.930 . S
H557 C572 0.960 . S
H558 C572 0.960 . S
H559 C572 0.960 . S
C560 H552 0.929 . S
C560 C561 1.377 . S
C560 C562 1.384 . S
C561 C560 1.377 . S
C561 C567 1.390 . S
C562 H553 0.930 . S
C562 C560 1.384 . S
C562 C563 1.372 . S
C563 C562 1.372 . S
C563 C564 1.400 . S
C563 C568 1.490 . S
C564 H554 0.930 . S
C564 C563 1.400 . S
C564 C567 1.386 . S
H565 C581 0.930 . S
H566 C582 0.931 . S
C567 H555 0.929 . S
C567 C561 1.390 . S
C567 C564 1.386 . S
C568 C563 1.490 . S
C568 C570 1.395 . S
C568 C571 1.403 . S
H569 C575 0.930 . S
C570 H556 0.930 . S
C570 C568 1.395 . S
C570 C573 1.403 . S
C571 C568 1.403 . S
C571 C572 1.524 . S
C571 C575 1.400 . S
C572 H557 0.960 . S
C572 H558 0.960 . S
C572 H559 0.960 . S
C572 C571 1.524 . S
C573 C570 1.403 . S
C573 C574 1.392 . S
C573 C577 1.495 . S
C574 C573 1.392 . S
C574 C575 1.385 . S
C574 C576 1.478 . S
C575 H569 0.930 . S
C575 C571 1.400 . S
C575 C574 1.385 . S
C576 C574 1.478 . S
C576 C578 1.381 . S
C576 C582 1.383 . S
C577 C573 1.495 . S
C577 H583 0.959 . S
C577 H584 0.961 . S
C577 H585 0.960 . S
C578 C576 1.381 . S
C578 C579 1.394 . S
C578 H586 0.930 . S
C579 C578 1.394 . S
C579 C580 1.383 . S
C579 H587 0.929 . S
C580 C579 1.383 . S
C580 C581 1.377 . S
C581 H565 0.930 . S
C581 C580 1.377 . S
C581 C582 1.379 . S
C582 H566 0.931 . S
C582 C576 1.383 . S
C582 C581 1.379 . S
H583 C577 0.959 . S
H584 C577 0.961 . S
H585 C577 0.960 . S
H586 C578 0.930 . S
H587 C579 0.929 . S
H588 C596 0.929 . S
H589 C598 0.930 . S
H590 C600 0.930 . S
H591 C603 0.929 . S
H592 C606 0.930 . S
H593 C608 0.960 . S
H594 C608 0.960 . S
H595 C608 0.960 . S
C596 H588 0.929 . S
C596 C597 1.377 . S
C596 C598 1.384 . S
C597 C596 1.377 . S
C597 C603 1.390 . S
C598 H589 0.930 . S
C598 C596 1.384 . S
C598 C599 1.372 . S
C599 C598 1.372 . S
C599 C600 1.400 . S
C599 C604 1.490 1_655 S
C600 H590 0.930 . S
C600 C599 1.400 . S
C600 C603 1.386 . S
H601 C617 0.930 . S
H602 C618 0.931 . S
C603 H591 0.929 . S
C603 C597 1.390 . S
C603 C600 1.386 . S
C604 C599 1.490 1_455 S
C604 C606 1.395 . S
C604 C607 1.403 . S
H605 C611 0.930 . S
C606 H592 0.930 . S
C606 C604 1.395 . S
C606 C609 1.403 . S
C607 C604 1.403 . S
C607 C608 1.524 . S
C607 C611 1.400 . S
C608 H593 0.960 . S
C608 H594 0.960 . S
C608 H595 0.960 . S
C608 C607 1.524 . S
C609 C606 1.403 . S
C609 C610 1.392 . S
C609 C613 1.495 . S
C610 C609 1.392 . S
C610 C611 1.385 . S
C610 C612 1.478 . S
C611 H605 0.930 . S
C611 C607 1.400 . S
C611 C610 1.385 . S
C612 C610 1.478 . S
C612 C614 1.381 . S
C612 C618 1.383 . S
C613 C609 1.495 . S
C613 H619 0.959 . S
C613 H620 0.961 . S
C613 H621 0.960 . S
C614 C612 1.381 . S
C614 C615 1.394 . S
C614 H622 0.930 . S
C615 C614 1.394 . S
C615 C616 1.383 . S
C615 H623 0.933 . S
C616 C615 1.383 . S
C616 C617 1.377 . S
C617 H601 0.930 . S
C617 C616 1.377 . S
C617 C618 1.379 . S
C618 H602 0.931 . S
C618 C612 1.383 . S
C618 C617 1.379 . S
H619 C613 0.959 . S
H620 C613 0.961 . S
H621 C613 0.960 . S
H622 C614 0.930 . S
H623 C615 0.933 . S
H624 C632 0.929 . S
H625 C634 0.930 . S
H626 C636 0.930 . S
H627 C639 0.929 . S
H628 C642 0.930 . S
H629 C644 0.960 . S
H630 C644 0.960 1_545 S
H631 C644 0.960 1_545 S
C632 H624 0.929 . S
C632 C633 1.377 . S
C632 C634 1.384 . S
C633 C632 1.377 . S
C633 C639 1.390 . S
C634 H625 0.930 . S
C634 C632 1.384 . S
C634 C635 1.372 . S
C635 C634 1.372 . S
C635 C636 1.400 . S
C635 C640 1.490 1_545 S
C636 H626 0.930 . S
C636 C635 1.400 . S
C636 C639 1.386 . S
H637 C653 0.930 . S
H638 C654 0.931 . S
C639 H627 0.929 . S
C639 C633 1.390 . S
C639 C636 1.386 . S
C640 C635 1.490 1_565 S
C640 C642 1.395 . S
C640 C643 1.403 . S
H641 C647 0.930 . S
C642 H628 0.930 . S
C642 C640 1.395 . S
C642 C645 1.403 . S
C643 C640 1.403 . S
C643 C644 1.524 . S
C643 C647 1.400 . S
C644 H629 0.960 . S
C644 H630 0.960 1_565 S
C644 H631 0.960 1_565 S
C644 C643 1.524 . S
C645 C642 1.403 . S
C645 C646 1.392 . S
C645 C649 1.495 . S
C646 C645 1.392 . S
C646 C647 1.385 . S
C646 C648 1.478 . S
C647 H641 0.930 . S
C647 C643 1.400 . S
C647 C646 1.385 . S
C648 C646 1.478 . S
C648 C650 1.381 . S
C648 C654 1.383 . S
C649 C645 1.495 . S
C649 H655 0.959 . S
C649 H656 0.961 . S
C649 H657 0.960 . S
C650 C648 1.381 . S
C650 C651 1.394 . S
C650 H658 0.930 . S
C651 C650 1.394 . S
C651 C652 1.383 . S
C651 H659 0.929 . S
C652 C651 1.383 . S
C652 C653 1.377 . S
C653 H637 0.930 . S
C653 C652 1.377 . S
C653 C654 1.379 . S
C654 H638 0.931 . S
C654 C648 1.383 . S
C654 C653 1.379 . S
H655 C649 0.959 . S
H656 C649 0.961 . S
H657 C649 0.960 . S
H658 C650 0.930 . S
H659 C651 0.929 . S
H660 C668 0.929 . S
H661 C670 0.930 . S
H662 C672 0.930 . S
H663 C675 0.929 . S
H664 C678 0.930 . S
H665 C680 0.960 . S
H666 C680 0.960 . S
H667 C680 0.960 . S
C668 H660 0.929 . S
C668 C669 1.377 . S
C668 C670 1.384 . S
C669 C668 1.377 . S
C669 C675 1.390 . S
C670 H661 0.930 . S
C670 C668 1.384 . S
C670 C671 1.372 . S
C671 C670 1.372 . S
C671 C672 1.400 . S
C671 C676 1.490 . S
C672 H662 0.930 . S
C672 C671 1.400 . S
C672 C675 1.386 . S
H673 C689 0.930 . S
H674 C690 0.931 . S
C675 H663 0.929 . S
C675 C669 1.390 . S
C675 C672 1.386 . S
C676 C671 1.490 . S
C676 C678 1.395 . S
C676 C679 1.403 . S
H677 C683 0.930 . S
C678 H664 0.930 . S
C678 C676 1.395 . S
C678 C681 1.403 . S
C679 C676 1.403 . S
C679 C680 1.524 . S
C679 C683 1.400 . S
C680 H665 0.960 . S
C680 H666 0.960 . S
C680 H667 0.960 . S
C680 C679 1.524 . S
C681 C678 1.403 . S
C681 C682 1.392 . S
C681 C685 1.495 . S
C682 C681 1.392 . S
C682 C683 1.385 . S
C682 C684 1.478 . S
C683 H677 0.930 . S
C683 C679 1.400 . S
C683 C682 1.385 . S
C684 C682 1.478 . S
C684 C686 1.381 . S
C684 C690 1.383 . S
C685 C681 1.495 . S
C685 H691 0.959 . S
C685 H692 0.961 . S
C685 H693 0.960 . S
C686 C684 1.381 . S
C686 C687 1.394 . S
C686 H694 0.930 . S
C687 C686 1.394 . S
C687 C688 1.383 . S
C687 H695 0.929 . S
C688 C687 1.383 . S
C688 C689 1.377 . S
C689 H673 0.930 . S
C689 C688 1.377 . S
C689 C690 1.379 . S
C690 H674 0.931 . S
C690 C684 1.383 . S
C690 C689 1.379 . S
H691 C685 0.959 . S
H692 C685 0.961 . S
H693 C685 0.960 . S
H694 C686 0.930 . S
H695 C687 0.929 . S
H696 C704 0.929 . S
H697 C706 0.930 . S
H698 C708 0.930 . S
H699 C711 0.929 . S
H700 C714 0.930 . S
H701 C716 0.960 . S
H702 C716 0.960 . S
H703 C716 0.960 . S
C704 H696 0.929 . S
C704 C705 1.377 . S
C704 C706 1.384 . S
C705 C704 1.377 . S
C705 C711 1.390 . S
C706 H697 0.930 . S
C706 C704 1.384 . S
C706 C707 1.372 . S
C707 C706 1.372 . S
C707 C708 1.400 . S
C707 C712 1.490 1_455 S
C708 H698 0.930 . S
C708 C707 1.400 . S
C708 C711 1.386 . S
H709 C725 0.930 . S
H710 C726 0.931 . S
C711 H699 0.929 . S
C711 C705 1.390 . S
C711 C708 1.386 . S
C712 C707 1.490 1_655 S
C712 C714 1.395 . S
C712 C715 1.403 . S
H713 C719 0.930 . S
C714 H700 0.930 . S
C714 C712 1.395 . S
C714 C717 1.403 . S
C715 C712 1.403 . S
C715 C716 1.524 . S
C715 C719 1.400 . S
C716 H701 0.960 . S
C716 H702 0.960 . S
C716 H703 0.960 . S
C716 C715 1.524 . S
C717 C714 1.403 . S
C717 C718 1.392 . S
C717 C721 1.495 . S
C718 C717 1.392 . S
C718 C719 1.385 . S
C718 C720 1.478 . S
C719 H713 0.930 . S
C719 C715 1.400 . S
C719 C718 1.385 . S
C720 C718 1.478 . S
C720 C722 1.381 . S
C720 C726 1.383 . S
C721 C717 1.495 . S
C721 H727 0.959 . S
C721 H728 0.961 . S
C721 H729 0.960 . S
C722 C720 1.381 . S
C722 C723 1.394 . S
C722 H730 0.930 . S
C723 C722 1.394 . S
C723 C724 1.383 . S
C723 H731 0.929 . S
C724 C723 1.383 . S
C724 C725 1.377 . S
C725 H709 0.930 . S
C725 C724 1.377 . S
C725 C726 1.379 . S
C726 H710 0.931 . S
C726 C720 1.383 . S
C726 C725 1.379 . S
H727 C721 0.959 . S
H728 C721 0.961 . S
H729 C721 0.960 . S
H730 C722 0.930 . S
H731 C723 0.929 . S
H732 C740 0.929 . S
H733 C742 0.930 . S
H734 C744 0.930 . S
H735 C747 0.929 . S
H736 C750 0.930 . S
H737 C752 0.960 . S
H738 C752 0.960 . S
H739 C752 0.960 . S
C740 H732 0.929 . S
C740 C741 1.377 1_455 S
C740 C742 1.384 1_455 S
C741 C740 1.377 1_655 S
C741 C747 1.390 . S
C742 H733 0.930 . S
C742 C740 1.384 1_655 S
C742 C743 1.372 . S
C743 C742 1.372 . S
C743 C744 1.400 . S
C743 C748 1.490 . S
C744 H734 0.930 . S
C744 C743 1.400 . S
C744 C747 1.386 . S
H745 C761 0.930 . S
H746 C762 0.931 . S
C747 H735 0.929 . S
C747 C741 1.390 . S
C747 C744 1.386 . S
C748 C743 1.490 . S
C748 C750 1.395 . S
C748 C751 1.403 . S
H749 C755 0.930 . S
C750 H736 0.930 . S
C750 C748 1.395 . S
C750 C753 1.403 . S
C751 C748 1.403 . S
C751 C752 1.524 . S
C751 C755 1.400 . S
C752 H737 0.960 . S
C752 H738 0.960 . S
C752 H739 0.960 . S
C752 C751 1.524 . S
C753 C750 1.403 . S
C753 C754 1.392 . S
C753 C757 1.495 . S
C754 C753 1.392 . S
C754 C755 1.385 . S
C754 C756 1.478 1_545 S
C755 H749 0.930 . S
C755 C751 1.400 . S
C755 C754 1.385 . S
C756 C754 1.478 1_565 S
C756 C758 1.381 . S
C756 C762 1.383 . S
C757 C753 1.495 . S
C757 H763 0.959 . S
C757 H764 0.961 . S
C757 H765 0.956 . S
C758 C756 1.381 . S
C758 C759 1.394 . S
C758 H766 0.930 . S
C759 C758 1.394 . S
C759 C760 1.383 . S
C759 H767 0.929 . S
C760 C759 1.383 . S
C760 C761 1.377 . S
C761 H745 0.930 . S
C761 C760 1.377 . S
C761 C762 1.379 . S
C762 H746 0.931 . S
C762 C756 1.383 . S
C762 C761 1.379 . S
H763 C757 0.959 . S
H764 C757 0.961 . S
H765 C757 0.956 . S
H766 C758 0.930 . S
H767 C759 0.929 . S
C129 C99 2.209 . S
C148 C18 2.154 . S
C165 C118 2.147 . S
C184 C39 2.221 . S
C201 C58 2.158 . S
C220 C79 2.196 . S
C237 C19 2.216 . S
C256 C98 2.137 . S
C273 C119 2.210 . S
C292 C38 2.169 . S
C309 C59 2.208 . S
C328 C78 2.162 . S
C345 C4 1.401 . S
C364 C52 1.614 . S
C381 C24 1.401 . S
C400 C12 1.605 . S
C417 C44 1.394 . S
C436 C32 1.616 . S
C453 C69 1.485 . S
C472 C82 1.582 . S
C489 C89 1.480 . S
C508 C102 1.590 . S
C525 C62 1.600 . S
C544 C109 1.507 . S
C561 C2 0.776 . S
C580 C49 0.841 . S
C597 C22 0.781 . S
C616 C9 0.700 . S
C633 C42 0.772 . S
C652 C29 0.821 . S
C669 C72 0.771 . S
C688 C84 0.843 1_545 S
C705 C92 0.775 . S
C724 C104 0.714 . S
C741 C64 0.755 1_655 S
C760 C112 0.762 . S
