# Generated by pormake.
# Topology sod-a, (4)-cn, num edge types: 1
# Building blocks:
#     Node 0, Type 0, BuildingBlock: NAHDIM_clean_sbu_0, # of connection points: 4
#     Node 1, Type 0, BuildingBlock: NAHDIM_clean_sbu_0, # of connection points: 4
#     Node 2, Type 0, BuildingBlock: NAHDIM_clean_sbu_0, # of connection points: 4
#     Node 3, Type 0, BuildingBlock: NAHDIM_clean_sbu_0, # of connection points: 4
#     Node 4, Type 0, BuildingBlock: NAHDIM_clean_sbu_0, # of connection points: 4
#     Node 5, Type 0, BuildingBlock: NAHDIM_clean_sbu_0, # of connection points: 4
#     Node 6, Type 0, BuildingBlock: NAHDIM_clean_sbu_0, # of connection points: 4
#     Node 7, Type 0, BuildingBlock: NAHDIM_clean_sbu_0, # of connection points: 4
#     Node 8, Type 0, BuildingBlock: NAHDIM_clean_sbu_0, # of connection points: 4
#     Node 9, Type 0, BuildingBlock: NAHDIM_clean_sbu_0, # of connection points: 4
#     Node 10, Type 0, BuildingBlock: NAHDIM_clean_sbu_0, # of connection points: 4
#     Node 11, Type 0, BuildingBlock: NAHDIM_clean_sbu_0, # of connection points: 4
#     Node 12, Type 0, BuildingBlock: NAHDIM_clean_sbu_0, # of connection points: 4
#     Node 13, Type 0, BuildingBlock: NAHDIM_clean_sbu_0, # of connection points: 4
#     Node 14, Type 0, BuildingBlock: NAHDIM_clean_sbu_0, # of connection points: 4
#     Node 15, Type 0, BuildingBlock: NAHDIM_clean_sbu_0, # of connection points: 4
#     Node 16, Type 0, BuildingBlock: NAHDIM_clean_sbu_0, # of connection points: 4
#     Node 17, Type 0, BuildingBlock: NAHDIM_clean_sbu_0, # of connection points: 4
#     Node 18, Type 0, BuildingBlock: NAHDIM_clean_sbu_0, # of connection points: 4
#     Node 19, Type 0, BuildingBlock: NAHDIM_clean_sbu_0, # of connection points: 4
#     Node 20, Type 0, BuildingBlock: NAHDIM_clean_sbu_0, # of connection points: 4
#     Node 21, Type 0, BuildingBlock: NAHDIM_clean_sbu_0, # of connection points: 4
#     Node 22, Type 0, BuildingBlock: NAHDIM_clean_sbu_0, # of connection points: 4
#     Node 23, Type 0, BuildingBlock: NAHDIM_clean_sbu_0, # of connection points: 4
#     Node 24, Type 0, BuildingBlock: NAHDIM_clean_sbu_0, # of connection points: 4
#     Node 25, Type 0, BuildingBlock: NAHDIM_clean_sbu_0, # of connection points: 4
#     Node 26, Type 0, BuildingBlock: NAHDIM_clean_sbu_0, # of connection points: 4
#     Node 27, Type 0, BuildingBlock: NAHDIM_clean_sbu_0, # of connection points: 4
#     Node 28, Type 0, BuildingBlock: NAHDIM_clean_sbu_0, # of connection points: 4
#     Node 29, Type 0, BuildingBlock: NAHDIM_clean_sbu_0, # of connection points: 4
#     Node 30, Type 0, BuildingBlock: NAHDIM_clean_sbu_0, # of connection points: 4
#     Node 31, Type 0, BuildingBlock: NAHDIM_clean_sbu_0, # of connection points: 4
#     Node 32, Type 0, BuildingBlock: NAHDIM_clean_sbu_0, # of connection points: 4
#     Node 33, Type 0, BuildingBlock: NAHDIM_clean_sbu_0, # of connection points: 4
#     Node 34, Type 0, BuildingBlock: NAHDIM_clean_sbu_0, # of connection points: 4
#     Node 35, Type 0, BuildingBlock: NAHDIM_clean_sbu_0, # of connection points: 4
#     Node 36, Type 0, BuildingBlock: NAHDIM_clean_sbu_0, # of connection points: 4
#     Node 37, Type 0, BuildingBlock: NAHDIM_clean_sbu_0, # of connection points: 4
#     Node 38, Type 0, BuildingBlock: NAHDIM_clean_sbu_0, # of connection points: 4
#     Node 39, Type 0, BuildingBlock: NAHDIM_clean_sbu_0, # of connection points: 4
#     Node 40, Type 0, BuildingBlock: NAHDIM_clean_sbu_0, # of connection points: 4
#     Node 41, Type 0, BuildingBlock: NAHDIM_clean_sbu_0, # of connection points: 4
#     Node 42, Type 0, BuildingBlock: NAHDIM_clean_sbu_0, # of connection points: 4
#     Node 43, Type 0, BuildingBlock: NAHDIM_clean_sbu_0, # of connection points: 4
#     Node 44, Type 0, BuildingBlock: NAHDIM_clean_sbu_0, # of connection points: 4
#     Node 45, Type 0, BuildingBlock: NAHDIM_clean_sbu_0, # of connection points: 4
#     Node 46, Type 0, BuildingBlock: NAHDIM_clean_sbu_0, # of connection points: 4
#     Node 47, Type 0, BuildingBlock: NAHDIM_clean_sbu_0, # of connection points: 4
#     Edge 48, Type (0, 0), None
#     Edge 49, Type (0, 0), None
#     Edge 50, Type (0, 0), None
#     Edge 51, Type (0, 0), None
#     Edge 52, Type (0, 0), None
#     Edge 53, Type (0, 0), None
#     Edge 54, Type (0, 0), None
#     Edge 55, Type (0, 0), None
#     Edge 56, Type (0, 0), None
#     Edge 57, Type (0, 0), None
#     Edge 58, Type (0, 0), None
#     Edge 59, Type (0, 0), None
#     Edge 60, Type (0, 0), None
#     Edge 61, Type (0, 0), None
#     Edge 62, Type (0, 0), None
#     Edge 63, Type (0, 0), None
#     Edge 64, Type (0, 0), None
#     Edge 65, Type (0, 0), None
#     Edge 66, Type (0, 0), None
#     Edge 67, Type (0, 0), None
#     Edge 68, Type (0, 0), None
#     Edge 69, Type (0, 0), None
#     Edge 70, Type (0, 0), None
#     Edge 71, Type (0, 0), None
#     Edge 72, Type (0, 0), None
#     Edge 73, Type (0, 0), None
#     Edge 74, Type (0, 0), None
#     Edge 75, Type (0, 0), None
#     Edge 76, Type (0, 0), None
#     Edge 77, Type (0, 0), None
#     Edge 78, Type (0, 0), None
#     Edge 79, Type (0, 0), None
#     Edge 80, Type (0, 0), None
#     Edge 81, Type (0, 0), None
#     Edge 82, Type (0, 0), None
#     Edge 83, Type (0, 0), None
#     Edge 84, Type (0, 0), None
#     Edge 85, Type (0, 0), None
#     Edge 86, Type (0, 0), None
#     Edge 87, Type (0, 0), None
#     Edge 88, Type (0, 0), None
#     Edge 89, Type (0, 0), None
#     Edge 90, Type (0, 0), None
#     Edge 91, Type (0, 0), None
#     Edge 92, Type (0, 0), None
#     Edge 93, Type (0, 0), None
#     Edge 94, Type (0, 0), None
#     Edge 95, Type (0, 0), None
#     Edge 96, Type (0, 0), None
#     Edge 97, Type (0, 0), None
#     Edge 98, Type (0, 0), None
#     Edge 99, Type (0, 0), None
#     Edge 100, Type (0, 0), None
#     Edge 101, Type (0, 0), None
#     Edge 102, Type (0, 0), None
#     Edge 103, Type (0, 0), None
#     Edge 104, Type (0, 0), None
#     Edge 105, Type (0, 0), None
#     Edge 106, Type (0, 0), None
#     Edge 107, Type (0, 0), None
#     Edge 108, Type (0, 0), None
#     Edge 109, Type (0, 0), None
#     Edge 110, Type (0, 0), None
#     Edge 111, Type (0, 0), None
#     Edge 112, Type (0, 0), None
#     Edge 113, Type (0, 0), None
#     Edge 114, Type (0, 0), None
#     Edge 115, Type (0, 0), None
#     Edge 116, Type (0, 0), None
#     Edge 117, Type (0, 0), None
#     Edge 118, Type (0, 0), None
#     Edge 119, Type (0, 0), None
#     Edge 120, Type (0, 0), None
#     Edge 121, Type (0, 0), None
#     Edge 122, Type (0, 0), None
#     Edge 123, Type (0, 0), None
#     Edge 124, Type (0, 0), None
#     Edge 125, Type (0, 0), None
#     Edge 126, Type (0, 0), None
#     Edge 127, Type (0, 0), None
#     Edge 128, Type (0, 0), None
#     Edge 129, Type (0, 0), None
#     Edge 130, Type (0, 0), None
#     Edge 131, Type (0, 0), None
#     Edge 132, Type (0, 0), None
#     Edge 133, Type (0, 0), None
#     Edge 134, Type (0, 0), None
#     Edge 135, Type (0, 0), None
#     Edge 136, Type (0, 0), None
#     Edge 137, Type (0, 0), None
#     Edge 138, Type (0, 0), None
#     Edge 139, Type (0, 0), None
#     Edge 140, Type (0, 0), None
#     Edge 141, Type (0, 0), None
#     Edge 142, Type (0, 0), None
#     Edge 143, Type (0, 0), None
# Relax obj value: 0.763
# Max RMSD: 0.585
# Mean RMSD: 0.393
data_MOF--net-sod-a--node1-NAHDIM_clean_sbu_0--edge1-none
_symmetry_space_group_name_H-M    P1
_symmetry_Int_Tables_number       1
_symmetry_cell_setting            triclinic
loop_
_symmetry_equiv_pos_as_xyz
'x, y, z'
_cell_length_a     35.810931
_cell_length_b     35.809811
_cell_length_c     35.808834
_cell_angle_alpha  84.387776
_cell_angle_beta   84.387961
_cell_angle_gamma 84.398425
loop_
_atom_site_label
_atom_site_type_symbol
_atom_site_fract_x
_atom_site_fract_y
_atom_site_fract_z
_atom_type_partial_charge
C0 C 0.0549 0.41982 0.41721 0.0
O1 O 0.06417 0.45068 0.42956 0.0
O2 O 0.958 0.47807 0.37083 0.0
Zn3 Zn 0.01514 0.47266 0.36571 0.0
O4 O 0.02993 0.51668 0.39081 0.0
C5 C 0.0585 0.46594 0.28927 0.0
O6 O 0.08207 0.4382 0.3018 0.0
O7 O 0.03491 0.42223 0.38953 0.0
C8 C 0.05853 0.53464 0.38002 0.0
O9 O 0.06399 0.5644 0.39676 0.0
C10 C 0.93491 0.45782 0.35943 0.0
O11 O 0.8986 0.46693 0.36574 0.0
O12 O 0.03212 0.48034 0.31113 0.0
C13 C 0.69191 0.973 0.3627 0.0
O14 O 0.65514 0.97234 0.36543 0.0
O15 O 0.64347 0.94907 0.28312 0.0
Zn16 Zn 0.67662 0.99027 0.28792 0.0
O17 O 0.64694 0.03781 0.30517 0.0
C18 C 0.69376 0.00887 0.20618 0.0
O19 O 0.71697 0.01209 0.17552 0.0
O20 O 0.70973 0.97614 0.33018 0.0
C21 C 0.61238 0.04044 0.31765 0.0
O22 O 0.59196 0.01249 0.3153 0.0
C23 C 0.65095 0.92517 0.25874 0.0
O24 O 0.68232 0.92566 0.23652 0.0
O25 O 0.70723 0.0004 0.23789 0.0
C26 C 0.0384 0.65651 0.33369 0.0
O27 O 0.02158 0.66897 0.30336 0.0
O28 O 0.09134 0.60191 0.24941 0.0
Zn29 Zn 0.06244 0.58535 0.2987 0.0
O30 O 0.0927 0.53853 0.31953 0.0
C31 C 0.97848 0.56523 0.30878 0.0
O32 O 0.00898 0.56798 0.28647 0.0
O33 O 0.05632 0.62408 0.33603 0.0
C34 C 0.08711 0.52053 0.35167 0.0
O35 O 0.10767 0.48889 0.35965 0.0
C36 C 0.07789 0.61264 0.21816 0.0
O37 O 0.10084 0.62247 0.18878 0.0
O38 O 0.00937 0.56843 0.28766 0.0
C39 C 0.44133 0.05907 0.38363 0.0
O40 O 0.42914 0.05008 0.35259 0.0
O41 O 0.50394 0.0584 0.29053 0.0
Zn42 Zn 0.51715 0.04987 0.34472 0.0
O43 O 0.56284 0.07751 0.35134 0.0
C44 C 0.50522 0.97378 0.34021 0.0
O45 O 0.47395 0.99032 0.32778 0.0
O46 O 0.47592 0.06356 0.38457 0.0
C47 C 0.59744 0.07253 0.33903 0.0
O48 O 0.62066 0.09646 0.34651 0.0
C49 C 0.52494 0.07669 0.26612 0.0
O50 O 0.54888 0.09779 0.27731 0.0
O51 O 0.52805 -0.0064 0.35266 0.0
C52 C 0.02423 0.68082 0.67382 0.0
O53 O 0.05355 0.67626 0.69366 0.0
O54 O 0.98894 0.64206 0.77579 0.0
Zn55 Zn -0.00026 0.61974 0.7255 0.0
O56 O 0.96413 0.57946 0.72151 0.0
C57 C 0.07439 0.59718 0.74933 0.0
O58 O 0.06402 0.61921 0.7764 0.0
O59 O -0.00284 0.6602 0.68248 0.0
C60 C 0.97112 0.55018 0.70349 0.0
O61 O 0.94632 0.52511 0.70665 0.0
C62 C 0.97741 0.62157 0.80482 0.0
O63 O 0.96607 0.58862 0.80102 0.0
O64 O 0.05224 0.59424 0.72434 0.0
C65 C 0.36621 0.03718 0.67914 0.0
O66 O 0.39728 0.05128 0.66399 0.0
O67 O 0.40632 0.02561 0.7934 0.0
Zn68 Zn 0.41082 0.03494 0.73649 0.0
O69 O 0.45337 0.00273 0.71017 0.0
C70 C 0.41398 0.11512 0.7463 0.0
O71 O 0.41977 0.10365 0.78132 0.0
O72 O 0.36389 0.02496 0.71378 0.0
C73 C 0.48912 0.00148 0.70792 0.0
O74 O 0.50886 0.97674 0.68746 0.0
C75 C 0.42962 0.00492 0.81271 0.0
O76 O 0.45711 0.98425 0.79556 0.0
O77 O 0.41268 0.09106 0.72275 0.0
C78 C 0.9809 0.39615 0.70937 0.0
O79 O 0.98699 0.39262 0.74517 0.0
O80 O 0.06556 0.43979 0.72732 0.0
Zn81 Zn 0.01551 0.46438 0.71119 0.0
O82 O 0.02353 0.51221 0.67613 0.0
C83 C 0.00985 0.50031 0.77431 0.0
O84 O 0.0404 0.5111 0.75464 0.0
O85 O 0.9892 0.42584 0.68902 0.0
C86 C 0.00562 0.54467 0.6782 0.0
O87 O 0.01765 0.57347 0.65639 0.0
C88 C 0.09684 0.45378 0.71849 0.0
O89 O 0.09935 0.48015 0.69039 0.0
O90 O 0.98966 0.47887 0.76047 0.0
C91 C 0.64074 0.02364 0.70673 0.0
O92 O 0.62097 -0.00573 0.71087 0.0
O93 O 0.55043 0.10351 0.7571 0.0
Zn94 Zn 0.57725 0.05252 0.75196 0.0
O95 O 0.54472 0.02331 0.72474 0.0
C96 C 0.57194 0.04838 0.83226 0.0
O97 O 0.57452 0.08481 0.82604 0.0
O98 O 0.62849 0.0529 0.72319 0.0
C99 C 0.5089 0.02622 0.72796 0.0
O100 O 0.49016 0.05014 0.74999 0.0
C101 C 0.53502 0.12537 0.73195 0.0
O102 O 0.53987 0.1175 0.69666 0.0
O103 O 0.57779 0.02791 0.80481 0.0
C104 C 0.41804 0.05444 0.4194 0.0
O105 O 0.43039 0.06374 0.45025 0.0
O106 O 0.37165 0.95757 0.47772 0.0
Zn107 Zn 0.36653 0.0147 0.47227 0.0
O108 O 0.39164 0.02952 0.51627 0.0
C109 C 0.2901 0.05805 0.46553 0.0
O110 O 0.30263 0.08161 0.43778 0.0
O111 O 0.39036 0.03445 0.42183 0.0
C112 C 0.38085 0.05814 0.53421 0.0
O113 O 0.3976 0.06362 0.56396 0.0
C114 C 0.36026 0.93446 0.45749 0.0
O115 O 0.36655 0.89815 0.46662 0.0
O116 O 0.31196 0.03168 0.47994 0.0
C117 C 0.05956 0.38404 0.44049 0.0
O118 O 0.05057 0.35301 0.4283 0.0
O119 O 0.05888 0.29096 0.50312 0.0
Zn120 Zn 0.05035 0.34515 0.51632 0.0
O121 O 0.07798 0.35177 0.56202 0.0
C122 C 0.97426 0.34061 0.50441 0.0
O123 O 0.99081 0.32819 0.47313 0.0
O124 O 0.06403 0.385 0.47509 0.0
C125 C 0.07301 0.33946 0.59662 0.0
O126 O 0.09693 0.34695 0.61983 0.0
C127 C 0.07717 0.26655 0.52411 0.0
O128 O 0.09827 0.27774 0.54805 0.0
O129 O -0.00592 0.35307 0.52724 0.0
C130 C 0.71019 0.98044 0.39574 0.0
O131 O 0.746 0.98652 0.39221 0.0
O132 O 0.72815 0.06512 0.43937 0.0
Zn133 Zn 0.71203 0.01506 0.46397 0.0
O134 O 0.67698 0.02307 0.51181 0.0
C135 C 0.77516 0.0094 0.49989 0.0
O136 O 0.75549 0.03995 0.51067 0.0
O137 O 0.68984 0.98876 0.42543 0.0
C138 C 0.67906 0.00515 0.54427 0.0
O139 O 0.65725 0.01717 0.57308 0.0
C140 C 0.71933 0.09639 0.45337 0.0
O141 O 0.69125 0.0989 0.47974 0.0
O142 O 0.7613 0.98921 0.47845 0.0
C143 C 0.03757 0.67958 0.36532 0.0
O144 O 0.05165 0.66445 0.39641 0.0
O145 O 0.02602 0.79386 0.40541 0.0
Zn146 Zn 0.03534 0.73694 0.40991 0.0
O147 O 0.00313 0.71064 0.45247 0.0
C148 C 0.11552 0.74677 0.41304 0.0
O149 O 0.10406 0.78179 0.41882 0.0
O150 O 0.02536 0.71423 0.36299 0.0
C151 C 0.00188 0.70839 0.48823 0.0
O152 O 0.97713 0.68793 0.50798 0.0
C153 C 0.00535 0.81316 0.42872 0.0
O154 O 0.98467 0.79601 0.45622 0.0
O155 O 0.09146 0.72321 0.41177 0.0
C156 C 0.33457 0.03801 0.65607 0.0
O157 O 0.30426 0.02116 0.66853 0.0
O158 O 0.25027 0.09093 0.60149 0.0
Zn159 Zn 0.29955 0.06204 0.58492 0.0
O160 O 0.32037 0.0923 0.53809 0.0
C161 C 0.30961 0.97806 0.56486 0.0
O162 O 0.28732 0.00858 0.56757 0.0
O163 O 0.33689 0.05594 0.62364 0.0
C164 C 0.35251 0.08671 0.52008 0.0
O165 O 0.36048 0.10726 0.48844 0.0
C166 C 0.21903 0.07747 0.61223 0.0
O167 O 0.18964 0.10041 0.62206 0.0
O168 O 0.28852 0.00896 0.56802 0.0
C169 C 0.97346 0.36309 0.6911 0.0
O170 O 0.97279 0.36584 0.65432 0.0
O171 O 0.94955 0.28351 0.64266 0.0
Zn172 Zn 0.99074 0.28832 0.67581 0.0
O173 O 0.03829 0.30559 0.64612 0.0
C174 C 0.00936 0.20659 0.69295 0.0
O175 O 0.01257 0.17594 0.71616 0.0
O176 O 0.97661 0.33059 0.70892 0.0
C177 C 0.04092 0.31807 0.61157 0.0
O178 O 0.01298 0.31571 0.59114 0.0
C179 C 0.92565 0.25913 0.65015 0.0
O180 O 0.92615 0.23691 0.68153 0.0
O181 O 0.00088 0.2383 0.70642 0.0
C182 C 0.67472 0.02376 0.6804 0.0
O183 O 0.69457 0.05308 0.67582 0.0
O184 O 0.77667 0.98845 0.64164 0.0
Zn185 Zn 0.72637 -0.00074 0.61932 0.0
O186 O 0.72236 0.96365 0.57905 0.0
C187 C 0.75021 0.07391 0.59675 0.0
O188 O 0.77728 0.06354 0.61878 0.0
O189 O 0.68336 -0.00332 0.65979 0.0
C190 C 0.70434 0.97065 0.54977 0.0
O191 O 0.70749 0.94586 0.5247 0.0
C192 C 0.80569 0.97694 0.62113 0.0
O193 O 0.80188 0.96561 0.58819 0.0
O194 O 0.72522 0.05176 0.59382 0.0
C195 C 0.0241 0.70714 0.63984 0.0
O196 O -0.00527 0.71127 0.62008 0.0
O197 O 0.10393 0.75755 0.5495 0.0
Zn198 Zn 0.05295 0.75241 0.57635 0.0
O199 O 0.02373 0.7252 0.54383 0.0
C200 C 0.04883 0.83271 0.57104 0.0
O201 O 0.08526 0.82648 0.57361 0.0
O202 O 0.05335 0.72363 0.62759 0.0
C203 C 0.02663 0.72842 0.508 0.0
O204 O 0.05055 0.75044 0.48926 0.0
C205 C 0.12579 0.73241 0.53409 0.0
O206 O 0.11792 0.69712 0.53894 0.0
O207 O 0.02835 0.80525 0.5769 0.0
C208 C 0.42026 0.41756 0.05403 0.0
O209 O 0.45112 0.42991 0.06333 0.0
O210 O 0.47861 0.37121 0.95716 0.0
Zn211 Zn 0.47314 0.36607 0.01429 0.0
O212 O 0.51714 0.39117 0.02913 0.0
C213 C 0.46639 0.28962 0.05764 0.0
O214 O 0.43865 0.30214 0.0812 0.0
O215 O 0.4227 0.38988 0.03404 0.0
C216 C 0.53507 0.38038 0.05776 0.0
O217 O 0.56481 0.39712 0.06324 0.0
C218 C 0.45839 0.35982 0.93403 0.0
O219 O 0.46753 0.36613 0.89773 0.0
O220 O 0.4808 0.31149 0.03127 0.0
C221 C 0.39665 0.70972 0.98001 0.0
O222 O 0.39313 0.74552 0.9861 0.0
O223 O 0.44026 0.72769 0.06468 0.0
Zn224 Zn 0.46487 0.71156 0.01463 0.0
O225 O 0.5127 0.67651 0.02268 0.0
C226 C 0.5008 0.77469 0.00897 0.0
O227 O 0.51157 0.75503 0.03953 0.0
O228 O 0.42634 0.68937 0.98832 0.0
C229 C 0.54516 0.67858 0.00477 0.0
O230 O 0.57396 0.65677 0.01682 0.0
C231 C 0.45423 0.71887 0.09597 0.0
O232 O 0.4806 0.69078 0.09849 0.0
O233 O 0.47937 0.76083 0.98877 0.0
C234 C 0.38449 0.44083 0.05867 0.0
O235 O 0.35347 0.42864 0.04966 0.0
O236 O 0.29141 0.50346 0.058 0.0
Zn237 Zn 0.3456 0.51666 0.04946 0.0
O238 O 0.35223 0.56235 0.07709 0.0
C239 C 0.34107 0.50474 0.97337 0.0
O240 O 0.32864 0.47347 0.98991 0.0
O241 O 0.38544 0.47543 0.06315 0.0
C242 C 0.33993 0.59695 0.07212 0.0
O243 O 0.34743 0.62016 0.09604 0.0
C244 C 0.26701 0.52445 0.07629 0.0
O245 O 0.27821 0.54839 0.09739 0.0
O246 O 0.35354 0.52756 -0.00681 0.0
C247 C 0.65691 0.3341 0.03763 0.0
O248 O 0.66937 0.3038 0.02076 0.0
O249 O 0.60232 0.24978 0.09054 0.0
Zn250 Zn 0.58577 0.29907 0.06166 0.0
O251 O 0.53894 0.31988 0.09191 0.0
C252 C 0.56573 0.30917 0.97766 0.0
O253 O 0.56843 0.28687 0.00818 0.0
O254 O 0.62449 0.33641 0.05557 0.0
C255 C 0.52094 0.35202 0.08632 0.0
O256 O 0.48929 0.35999 0.10687 0.0
C257 C 0.61306 0.21854 0.07706 0.0
O258 O 0.62288 0.18915 0.1 0.0
O259 O 0.56888 0.28807 0.00856 0.0
C260 C 0.70761 0.64026 0.02333 0.0
O261 O 0.71176 0.6205 -0.00605 0.0
O262 O 0.75797 0.54992 0.10319 0.0
Zn263 Zn 0.75283 0.57677 0.0522 0.0
O264 O 0.7256 0.54425 0.02299 0.0
C265 C 0.83313 0.57146 0.04805 0.0
O266 O 0.82691 0.57402 0.08449 0.0
O267 O 0.72407 0.628 0.05259 0.0
C268 C 0.72882 0.50842 0.02589 0.0
O269 O 0.75086 0.48967 0.04979 0.0
C270 C 0.73283 0.53449 0.12504 0.0
O271 O 0.69755 0.53933 0.11717 0.0
O272 O 0.80567 0.57731 0.02758 0.0
C273 C 0.68128 0.67423 0.02344 0.0
O274 O 0.6767 0.69407 0.05277 0.0
O275 O 0.64255 0.7762 0.9881 0.0
Zn276 Zn 0.62023 0.7259 -0.0011 0.0
O277 O 0.57997 0.72188 0.96328 0.0
C278 C 0.59763 0.74974 0.07355 0.0
O279 O 0.61966 0.77681 0.06318 0.0
O280 O 0.66069 0.68289 -0.00365 0.0
C281 C 0.55069 0.70386 0.97026 0.0
O282 O 0.52564 0.70701 0.94546 0.0
C283 C 0.62205 0.80522 0.97657 0.0
O284 O 0.58912 0.80139 0.96522 0.0
O285 O 0.5947 0.72475 0.0514 0.0
C286 C 0.36361 0.69144 0.97257 0.0
O287 O 0.36635 0.65466 0.97191 0.0
O288 O 0.28402 0.643 0.94866 0.0
Zn289 Zn 0.28883 0.67614 0.98985 0.0
O290 O 0.30609 0.64646 0.0374 0.0
C291 C 0.2071 0.69329 0.00847 0.0
O292 O 0.17646 0.7165 0.01168 0.0
O293 O 0.3311 0.70925 0.97572 0.0
C294 C 0.31855 0.6119 0.04002 0.0
O295 O 0.3162 0.59148 0.01208 0.0
C296 C 0.25964 0.65048 0.92476 0.0
O297 O 0.23743 0.68186 0.92525 0.0
O298 O 0.23881 0.70675 -1e-05 0.0
C299 C 0.67999 0.36573 0.03681 0.0
O300 O 0.66486 0.3968 0.05092 0.0
O301 O 0.79426 0.40584 0.02523 0.0
Zn302 Zn 0.73735 0.41034 0.03457 0.0
O303 O 0.71103 0.4529 0.00238 0.0
C304 C 0.74718 0.41345 0.11476 0.0
O305 O 0.7822 0.41924 0.10328 0.0
O306 O 0.71463 0.36341 0.02458 0.0
C307 C 0.70879 0.48865 0.00114 0.0
O308 O 0.68832 0.5084 0.97641 0.0
C309 C 0.81356 0.42916 0.00454 0.0
O310 O 0.79641 0.45666 0.98388 0.0
O311 O 0.72362 0.41217 0.0907 0.0
C312 C 0.49881 0.96595 0.95363 0.0
O313 O 0.49068 0.94968 0.9245 0.0
O314 O 0.46313 0.00568 0.86607 0.0
Zn315 Zn 0.47891 0.03472 0.90705 0.0
O316 O 0.43719 0.07511 0.92123 0.0
C317 C 0.54942 0.03405 0.86592 0.0
O318 O 0.54521 -0.00216 0.87114 0.0
O319 O 0.49444 0.0016 0.95316 0.0
C320 C 0.42278 0.10428 0.90256 0.0
O321 O 0.39421 0.12443 0.91875 0.0
C322 C 0.4317 0.01248 0.85196 0.0
O323 O 0.40504 0.03479 0.8682 0.0
O324 O 0.52548 0.05695 0.88248 0.0
C325 C 0.21227 0.53826 0.80048 0.0
O326 O 0.19892 0.56334 0.77478 0.0
O327 O 0.14226 0.47987 0.74833 0.0
Zn328 Zn 0.1422 0.50608 0.7961 0.0
O329 O 0.10714 0.48107 0.83724 0.0
C330 C 0.10656 0.56928 0.75291 0.0
O331 O 0.11892 0.54995 0.72424 0.0
O332 O 0.19372 0.51027 0.81246 0.0
C333 C 0.08816 0.49655 0.86453 0.0
O334 O 0.06237 0.47813 0.88513 0.0
C335 C 0.12259 0.4522 0.74829 0.0
O336 O 0.11404 0.43247 0.78033 0.0
O337 O 0.11578 0.55764 0.78568 0.0
C338 C 0.46789 0.22218 0.84286 0.0
O339 O 0.48788 0.19016 0.85093 0.0
O340 O 0.49142 0.14971 0.7788 0.0
Zn341 Zn 0.44144 0.17418 0.79827 0.0
O342 O 0.42009 0.14431 0.84581 0.0
C343 C 0.40153 0.15477 0.73598 0.0
O344 O 0.38216 0.16353 0.70657 0.0
O345 O 0.44667 0.22455 0.81623 0.0
C346 C 0.43756 0.11668 0.86394 0.0
O347 O 0.47045 0.1025 0.84981 0.0
C348 C 0.50445 0.15273 0.74438 0.0
O349 O 0.48609 0.17482 0.71957 0.0
O350 O 0.4076 0.18069 0.75591 0.0
C351 C 0.98501 0.51698 0.94298 0.0
O352 O 0.01258 0.52857 0.95923 0.0
O353 O 0.99082 0.6123 0.86937 0.0
Zn354 Zn 0.0152 0.55782 0.87185 0.0
O355 O 0.0695 0.55815 0.88389 0.0
C356 C 0.00046 0.513 0.81169 0.0
O357 O 0.97255 0.50005 0.83419 0.0
O358 O 0.98231 0.52549 0.90805 0.0
C359 C 0.0961 0.5334 0.87492 0.0
O360 O 0.13112 0.54012 0.87735 0.0
C361 C 0.9779 0.63421 0.84241 0.0
O362 O 0.96754 0.6696 0.84779 0.0
O363 O 0.02014 0.53703 0.82209 0.0
C364 C 0.5617 0.10427 0.11309 0.0
O365 O 0.52947 0.10104 0.13352 0.0
O366 O 0.56394 0.06686 0.21077 0.0
Zn367 Zn 0.58646 0.04288 0.16398 0.0
O368 O 0.55371 0.00651 0.14621 0.0
C369 C 0.65295 0.01629 0.20338 0.0
O370 O 0.63012 0.02182 0.2336 0.0
O371 O 0.5906 0.08297 0.12152 0.0
C372 C 0.54006 0.97647 0.16085 0.0
O373 O 0.51872 0.95962 0.14114 0.0
C374 C 0.53129 0.06479 0.22785 0.0
O375 O 0.50696 0.04531 0.21486 0.0
O376 O 0.64013 0.02134 0.17119 0.0
C377 C 0.87121 0.46237 0.24998 0.0
O378 O 0.86609 0.43955 0.28068 0.0
O379 O 0.95176 0.42135 0.30735 0.0
Zn380 Zn 0.95103 0.46394 0.26547 0.0
O381 O 0.99189 0.44662 0.22606 0.0
C382 C 0.95302 0.53799 0.30099 0.0
O383 O 0.91849 0.53844 0.31711 0.0
O384 O 0.90306 0.47483 0.2407 0.0
C385 C -0.00163 0.4615 0.19261 0.0
O386 O 0.02734 0.44789 0.17116 0.0
C387 C 0.94773 0.42271 0.34288 0.0
O388 O 0.95056 0.39126 0.36494 0.0
O389 O 0.96686 0.51126 0.28158 0.0
C390 C 0.54813 0.82322 0.24077 0.0
O391 O 0.58371 0.82479 0.24593 0.0
O392 O 0.59216 0.90182 0.27376 0.0
Zn393 Zn 0.5394 0.89937 0.261 0.0
O394 O 0.53364 0.92941 0.21115 0.0
C395 C 0.51934 0.93704 0.32768 0.0
O396 O 0.55255 0.92213 0.33673 0.0
O397 O 0.52396 0.84907 0.25175 0.0
C398 C 0.54734 0.96013 0.19885 0.0
O399 O 0.56793 0.97641 0.21975 0.0
C400 C 0.62073 0.90369 0.25006 0.0
O401 O 0.61844 0.89636 0.21517 0.0
O402 O 0.50561 0.92672 0.29929 0.0
C403 C 0.08106 0.56383 0.13124 0.0
O404 O 0.05748 0.59431 0.13031 0.0
O405 O 0.01734 0.59642 0.20587 0.0
Zn406 Zn 0.03023 0.54211 0.1935 0.0
O407 O 0.98369 0.52625 0.17365 0.0
C408 C 0.06244 0.48261 0.25032 0.0
O409 O 0.08833 0.46916 0.2254 0.0
O410 O 0.07507 0.53672 0.15593 0.0
C411 C 0.97363 0.49292 0.17733 0.0
O412 O 0.94229 0.48619 0.16408 0.0
C413 C 0.0373 0.62049 0.21609 0.0
O414 O 0.02154 0.65424 0.2222 0.0
O415 O 0.03931 0.51039 0.24116 0.0
C416 C 0.95449 0.49835 0.96557 0.0
O417 O 0.92537 0.49019 0.9493 0.0
O418 O 0.86692 0.46267 0.00531 0.0
Zn419 Zn 0.9079 0.47845 0.03435 0.0
O420 O 0.92208 0.4367 0.07472 0.0
C421 C 0.86677 0.54894 0.03371 0.0
O422 O 0.87199 0.54475 -0.00251 0.0
O423 O 0.95401 0.494 0.00123 0.0
C424 C 0.90342 0.42227 0.10389 0.0
O425 O 0.91962 0.39369 0.12403 0.0
C426 C 0.85281 0.43124 0.0121 0.0
O427 O 0.86905 0.40456 0.03439 0.0
O428 O 0.88334 0.525 0.0566 0.0
C429 C 0.51742 0.94336 0.98416 0.0
O430 O 0.52897 0.9596 0.01175 0.0
O431 O 0.61277 0.86976 0.98996 0.0
Zn432 Zn 0.55829 0.87224 0.01433 0.0
O433 O 0.5586 0.88428 0.06863 0.0
C434 C 0.51348 0.81207 -0.00042 0.0
O435 O 0.50054 0.83456 0.97166 0.0
O436 O 0.52597 0.90843 0.98144 0.0
C437 C 0.53385 0.87531 0.09524 0.0
O438 O 0.54055 0.87775 0.13026 0.0
C439 C 0.63468 0.84281 0.97705 0.0
O440 O 0.67008 0.84819 0.96669 0.0
O441 O 0.53749 0.82248 0.01927 0.0
C442 C 0.24165 0.5477 0.82281 0.0
O443 O 0.24681 0.58329 0.82436 0.0
O444 O 0.27464 0.5917 0.90142 0.0
Zn445 Zn 0.26187 0.53894 0.89896 0.0
O446 O 0.21203 0.53318 0.92901 0.0
C447 C 0.32855 0.51887 0.93663 0.0
O448 O 0.33761 0.55208 0.92171 0.0
O449 O 0.25261 0.52352 0.84866 0.0
C450 C 0.19973 0.54687 0.95973 0.0
O451 O 0.22064 0.56746 0.97601 0.0
C452 C 0.25095 0.62027 0.90328 0.0
O453 O 0.21607 0.61799 0.89595 0.0
O454 O 0.30016 0.50514 0.92631 0.0
C455 C 0.46294 0.25037 0.87029 0.0
O456 O 0.44009 0.28105 0.86518 0.0
O457 O 0.42189 0.30773 0.95083 0.0
Zn458 Zn 0.46448 0.26586 0.95012 0.0
O459 O 0.44713 0.22644 0.99097 0.0
C460 C 0.53852 0.30138 0.95217 0.0
O461 O 0.53902 0.31749 0.91764 0.0
O462 O 0.47541 0.24109 0.90214 0.0
C463 C 0.462 0.19299 -0.00256 0.0
O464 O 0.44837 0.17154 0.0264 0.0
C465 C 0.42327 0.34326 0.94682 0.0
O466 O 0.39182 0.36532 0.94964 0.0
O467 O 0.51178 0.28198 0.96598 0.0
C468 C 0.84378 0.46732 0.22179 0.0
O469 O 0.85184 0.48732 0.18977 0.0
O470 O 0.77969 0.49088 0.14936 0.0
Zn471 Zn 0.79916 0.44089 0.17382 0.0
O472 O 0.84668 0.41956 0.14393 0.0
C473 C 0.73687 0.40098 0.1544 0.0
O474 O 0.70746 0.38161 0.16317 0.0
O475 O 0.81714 0.44611 0.22418 0.0
C476 C 0.86481 0.43704 0.1163 0.0
O477 O 0.85068 0.46993 0.10213 0.0
C478 C 0.74527 0.50391 0.15239 0.0
O479 O 0.72046 0.48553 0.17448 0.0
O480 O 0.7568 0.40704 0.18033 0.0
C481 C 0.53868 0.80088 0.21141 0.0
O482 O 0.56377 0.77518 0.19806 0.0
O483 O 0.48029 0.74872 0.1414 0.0
Zn484 Zn 0.50651 0.79649 0.14134 0.0
O485 O 0.4815 0.83763 0.10628 0.0
C486 C 0.56971 0.75332 0.10571 0.0
O487 O 0.55039 0.72464 0.11808 0.0
O488 O 0.51069 0.81285 0.19287 0.0
C489 C 0.49699 0.86492 0.08729 0.0
O490 O 0.47858 0.88552 0.0615 0.0
C491 C 0.45264 0.74867 0.12172 0.0
O492 O 0.43291 0.78071 0.11315 0.0
O493 O 0.55807 0.78608 0.11492 0.0
C494 C 0.114 0.56123 0.1039 0.0
O495 O 0.13442 0.529 0.10069 0.0
O496 O 0.21167 0.56346 0.06647 0.0
Zn497 Zn 0.16488 0.58598 0.04249 0.0
O498 O 0.14711 0.55323 0.00612 0.0
C499 C 0.2043 0.65247 0.01589 0.0
O500 O 0.23451 0.62964 0.02142 0.0
O501 O 0.12243 0.59013 0.08258 0.0
C502 C 0.16173 0.53959 0.97608 0.0
O503 O 0.14202 0.51825 0.95923 0.0
C504 C 0.22874 0.5308 0.0644 0.0
O505 O 0.21575 0.50648 0.04492 0.0
O506 O 0.1721 0.63966 0.02094 0.0
C507 C 0.56429 0.13162 0.08015 0.0
O508 O 0.59477 0.13071 0.05657 0.0
O509 O 0.59688 0.20628 0.01649 0.0
Zn510 Zn 0.54257 0.19389 0.02935 0.0
O511 O 0.52675 0.17405 0.98279 0.0
C512 C 0.48305 0.25068 0.06157 0.0
O513 O 0.46959 0.22575 0.08746 0.0
O514 O 0.53718 0.1563 0.07418 0.0
C515 C 0.49343 0.17771 0.97271 0.0
O516 O 0.48673 0.16447 0.94136 0.0
C517 C 0.62094 0.2165 0.03647 0.0
O518 O 0.65469 0.22264 0.02073 0.0
O519 O 0.51084 0.24153 0.03844 0.0
C520 C 0.96641 0.95408 0.49789 0.0
O521 O 0.95014 0.92497 0.48971 0.0
O522 O 0.00613 0.86652 0.46223 0.0
Zn523 Zn 0.03518 0.90749 0.47801 0.0
O524 O 0.07556 0.92168 0.43628 0.0
C525 C 0.03451 0.86636 0.54852 0.0
O526 O -0.0017 0.87158 0.54432 0.0
O527 O 0.00207 0.9536 0.49356 0.0
C528 C 0.10472 0.90301 0.42185 0.0
O529 O 0.12487 0.91921 0.39327 0.0
C530 C 0.01292 0.85241 0.4308 0.0
O531 O 0.03522 0.86865 0.40413 0.0
O532 O 0.05741 0.88292 0.52457 0.0
C533 C 0.82371 0.24115 0.54733 0.0
O534 O 0.82528 0.24629 0.58291 0.0
O535 O 0.90231 0.27414 0.59136 0.0
Zn536 Zn 0.89986 0.26138 0.5386 0.0
O537 O 0.9299 0.21154 0.53284 0.0
C538 C 0.93753 0.32807 0.51854 0.0
O539 O 0.92261 0.33712 0.55175 0.0
O540 O 0.84956 0.25213 0.52316 0.0
C541 C 0.96062 0.19925 0.54653 0.0
O542 O 0.9769 0.22016 0.56711 0.0
C543 C 0.90417 0.25044 0.61993 0.0
O544 O 0.89685 0.21556 0.61764 0.0
O545 O 0.92721 0.29968 0.50481 0.0
C546 C 0.94382 0.9846 0.51652 0.0
O547 O 0.96007 0.01215 0.52814 0.0
O548 O 0.87023 0.99036 0.61185 0.0
Zn549 Zn 0.8727 0.01476 0.55737 0.0
O550 O 0.88474 0.06906 0.5577 0.0
C551 C 0.81253 2e-05 0.51256 0.0
O552 O 0.83502 0.97211 0.4996 0.0
O553 O 0.90889 0.98189 0.52502 0.0
C554 C 0.87577 0.09567 0.53295 0.0
O555 O 0.87821 0.13069 0.53966 0.0
C556 C 0.84328 0.97743 0.63376 0.0
O557 O 0.84867 0.96706 0.66915 0.0
O558 O 0.82294 0.0197 0.53659 0.0
C559 C 0.2226 0.84331 0.46695 0.0
O560 O 0.19059 0.85136 0.48695 0.0
O561 O 0.15012 0.77926 0.49047 0.0
Zn562 Zn 0.1746 0.79873 0.44048 0.0
O563 O 0.14474 0.84627 0.41914 0.0
C564 C 0.15517 0.73645 0.40058 0.0
O565 O 0.16392 0.70703 0.38121 0.0
O566 O 0.22496 0.81669 0.44571 0.0
C567 C 0.11712 0.86439 0.43662 0.0
O568 O 0.10294 0.85026 0.46951 0.0
C569 C 0.15315 0.74484 0.5035 0.0
O570 O 0.17524 0.72003 0.48514 0.0
O571 O 0.18109 0.75638 0.40664 0.0
C572 C 0.1321 0.08059 0.56346 0.0
O573 O 0.13118 0.057 0.59395 0.0
O574 O 0.20674 0.0169 0.59604 0.0
Zn575 Zn 0.19435 0.02977 0.54173 0.0
O576 O 0.1745 0.98322 0.52591 0.0
C577 C 0.25116 0.06199 0.4822 0.0
O578 O 0.22624 0.08787 0.46874 0.0
O579 O 0.15678 0.0746 0.53634 0.0
C580 C 0.17817 0.97315 0.49258 0.0
O581 O 0.16492 0.94179 0.48588 0.0
C582 C 0.21697 0.03687 0.6201 0.0
O583 O 0.22309 0.02113 0.65385 0.0
O584 O 0.242 0.03886 0.50999 0.0
C585 C 0.10476 0.11352 0.56087 0.0
O586 O 0.10153 0.13394 0.52864 0.0
O587 O 0.06735 0.2112 0.56312 0.0
Zn588 Zn 0.04338 0.1644 0.58564 0.0
O589 O 0.007 0.14663 0.55289 0.0
C590 C 0.01678 0.2038 0.65213 0.0
O591 O 0.0223 0.23402 0.6293 0.0
O592 O 0.08346 0.12195 0.58978 0.0
C593 C 0.97696 0.16125 0.53925 0.0
O594 O 0.96011 0.14154 0.51792 0.0
C595 C 0.06528 0.22828 0.53046 0.0
O596 O 0.0458 0.21529 0.50613 0.0
O597 O 0.02183 0.17161 0.63932 0.0
C598 C 0.80136 0.2118 0.53786 0.0
O599 O 0.77566 0.19843 0.56295 0.0
O600 O 0.74919 0.14182 0.47944 0.0
Zn601 Zn 0.79696 0.14175 0.50565 0.0
O602 O 0.83809 0.10671 0.48062 0.0
C603 C 0.75379 0.10608 0.56885 0.0
O604 O 0.72511 0.11846 0.54954 0.0
O605 O 0.81332 0.19328 0.50985 0.0
C606 C 0.86538 0.08773 0.49609 0.0
O607 O 0.88598 0.06195 0.47767 0.0
C608 C 0.74913 0.12215 0.45177 0.0
O609 O 0.78117 0.1136 0.43204 0.0
O610 O 0.78655 0.11531 0.5572 0.0
C611 C 0.2508 0.87074 0.46201 0.0
O612 O 0.28146 0.86564 0.43914 0.0
O613 O 0.30818 0.95128 0.42101 0.0
Zn614 Zn 0.26631 0.95055 0.4636 0.0
O615 O 0.22689 0.9914 0.44627 0.0
C616 C 0.30182 0.95258 0.53764 0.0
O617 O 0.31792 0.91805 0.53813 0.0
O618 O 0.24153 0.90257 0.47451 0.0
C619 C 0.19345 -0.00213 0.46115 0.0
O620 O 0.172 0.02684 0.44752 0.0
C621 C 0.3437 0.94725 0.42238 0.0
O622 O 0.36577 0.95009 0.39093 0.0
O623 O 0.28242 0.9664 0.5109 0.0
loop_
_geom_bond_atom_site_label_1
_geom_bond_atom_site_label_2
_geom_bond_distance
_geom_bond_site_symmetry_2
_ccdc_geom_bond_type
C0 O1 1.160 1_455 S
C0 O7 1.185 . S
O1 C0 1.160 1_655 S
O2 Zn3 1.899 1_655 S
O2 C10 1.284 . S
Zn3 O2 1.899 1_455 S
Zn3 O4 2.031 . S
Zn3 O7 2.086 . S
Zn3 O12 1.977 . S
O4 Zn3 2.031 . S
O4 C8 1.279 . S
C5 O6 1.203 . S
C5 O12 1.267 . S
O6 C5 1.203 . S
O7 C0 1.185 . S
O7 Zn3 2.086 . S
C8 O4 1.279 . S
C8 O9 1.211 . S
O9 C8 1.211 . S
C10 O2 1.284 . S
C10 O11 1.273 . S
O11 C10 1.273 . S
O12 Zn3 1.977 . S
O12 C5 1.267 . S
C13 O14 1.160 1_545 S
C13 O20 1.185 . S
O14 C13 1.160 1_565 S
O15 Zn16 1.899 1_565 S
O15 C23 1.284 . S
Zn16 O15 1.899 1_545 S
Zn16 O17 2.032 . S
Zn16 O20 2.086 . S
Zn16 O25 1.977 . S
O17 Zn16 2.032 . S
O17 C21 1.278 . S
C18 O19 1.203 . S
C18 O25 1.267 . S
O19 C18 1.203 . S
O20 C13 1.185 . S
O20 Zn16 2.086 . S
C21 O17 1.278 . S
C21 O22 1.211 . S
O22 C21 1.211 . S
C23 O15 1.284 . S
C23 O24 1.273 . S
O24 C23 1.273 . S
O25 Zn16 1.977 . S
O25 C18 1.267 . S
C26 O27 1.160 . S
C26 O33 1.185 . S
O27 C26 1.160 . S
O28 Zn29 1.899 . S
O28 C36 1.284 . S
Zn29 O28 1.899 . S
Zn29 O30 2.032 . S
Zn29 O33 2.086 . S
Zn29 O38 1.977 . S
O30 Zn29 2.032 . S
O30 C34 1.278 . S
C31 O32 1.203 . S
C31 O38 1.267 . S
O32 C31 1.203 . S
O33 C26 1.185 . S
O33 Zn29 2.086 . S
C34 O30 1.278 . S
C34 O35 1.211 . S
O35 C34 1.211 . S
C36 O28 1.284 . S
C36 O37 1.273 . S
O37 C36 1.273 . S
O38 Zn29 1.977 . S
O38 C31 1.267 . S
C39 O40 1.160 . S
C39 O46 1.185 . S
O40 C39 1.160 . S
O41 Zn42 1.899 . S
O41 C49 1.284 . S
Zn42 O41 1.899 . S
Zn42 O43 2.032 . S
Zn42 O46 2.086 . S
Zn42 O51 2.004 . S
O43 Zn42 2.032 . S
O43 C47 1.278 . S
C44 O45 1.203 1_565 S
C44 O51 1.260 1_565 S
O45 C44 1.203 1_545 S
O46 C39 1.185 . S
O46 Zn42 2.086 . S
C47 O43 1.278 . S
C47 O48 1.211 . S
O48 C47 1.211 . S
C49 O41 1.284 . S
C49 O50 1.273 . S
O50 C49 1.273 . S
O51 Zn42 2.004 . S
O51 C44 1.260 1_545 S
C52 O53 1.160 1_455 S
C52 O59 1.185 . S
O53 C52 1.160 1_655 S
O54 Zn55 1.899 1_655 S
O54 C62 1.284 . S
Zn55 O54 1.899 1_455 S
Zn55 O56 2.032 . S
Zn55 O59 2.086 . S
Zn55 O64 1.977 . S
O56 Zn55 2.032 . S
O56 C60 1.278 . S
C57 O58 1.203 . S
C57 O64 1.267 . S
O58 C57 1.203 . S
O59 C52 1.185 . S
O59 Zn55 2.086 . S
C60 O56 1.278 . S
C60 O61 1.211 . S
O61 C60 1.211 . S
C62 O54 1.284 . S
C62 O63 1.273 . S
O63 C62 1.273 . S
O64 Zn55 1.977 . S
O64 C57 1.267 . S
C65 O66 1.160 . S
C65 O72 1.185 . S
O66 C65 1.160 . S
O67 Zn68 1.899 . S
O67 C75 1.284 1_545 S
Zn68 O67 1.899 . S
Zn68 O69 2.032 . S
Zn68 O72 2.086 . S
Zn68 O77 1.977 . S
O69 Zn68 2.032 . S
O69 C73 1.278 . S
C70 O71 1.203 . S
C70 O77 1.267 . S
O71 C70 1.203 . S
O72 C65 1.185 . S
O72 Zn68 2.086 . S
C73 O69 1.278 . S
C73 O74 1.211 . S
O74 C73 1.211 . S
C75 O67 1.284 1_565 S
C75 O76 1.273 . S
O76 C75 1.273 . S
O77 Zn68 1.977 . S
O77 C70 1.267 . S
C78 O79 1.160 . S
C78 O85 1.185 . S
O79 C78 1.160 . S
O80 Zn81 1.899 . S
O80 C88 1.284 . S
Zn81 O80 1.899 . S
Zn81 O82 2.032 . S
Zn81 O85 2.086 . S
Zn81 O90 1.977 . S
O82 Zn81 2.032 . S
O82 C86 1.278 . S
C83 O84 1.203 . S
C83 O90 1.267 . S
O84 C83 1.203 . S
O85 C78 1.185 . S
O85 Zn81 2.086 . S
C86 O82 1.278 . S
C86 O87 1.211 . S
O87 C86 1.211 . S
C88 O80 1.284 . S
C88 O89 1.273 . S
O89 C88 1.273 . S
O90 Zn81 1.977 . S
O90 C83 1.267 . S
C91 O92 1.160 . S
C91 O98 1.185 . S
O92 C91 1.160 . S
O93 Zn94 1.899 . S
O93 C101 1.284 . S
Zn94 O93 1.899 . S
Zn94 O95 2.032 . S
Zn94 O98 2.086 . S
Zn94 O103 1.977 . S
O95 Zn94 2.032 . S
O95 C99 1.278 . S
C96 O97 1.203 . S
C96 O103 1.267 . S
O97 C96 1.203 . S
O98 C91 1.185 . S
O98 Zn94 2.086 . S
C99 O95 1.278 . S
C99 O100 1.211 . S
O100 C99 1.211 . S
C101 O93 1.284 . S
C101 O102 1.273 . S
O102 C101 1.273 . S
O103 Zn94 1.977 . S
O103 C96 1.267 . S
C104 O105 1.160 1_545 S
C104 O111 1.185 . S
O105 C104 1.160 1_565 S
O106 Zn107 1.899 1_565 S
O106 C114 1.284 . S
Zn107 O106 1.899 1_545 S
Zn107 O108 2.031 . S
Zn107 O111 2.086 . S
Zn107 O116 1.977 . S
O108 Zn107 2.031 . S
O108 C112 1.279 . S
C109 O110 1.203 . S
C109 O116 1.267 . S
O110 C109 1.203 . S
O111 C104 1.185 . S
O111 Zn107 2.086 . S
C112 O108 1.279 . S
C112 O113 1.211 . S
O113 C112 1.211 . S
C114 O106 1.284 . S
C114 O115 1.273 . S
O115 C114 1.273 . S
O116 Zn107 1.977 . S
O116 C109 1.267 . S
C117 O118 1.160 . S
C117 O124 1.185 . S
O118 C117 1.160 . S
O119 Zn120 1.899 . S
O119 C127 1.284 . S
Zn120 O119 1.899 . S
Zn120 O121 2.032 . S
Zn120 O124 2.086 . S
Zn120 O129 2.004 . S
O121 Zn120 2.032 . S
O121 C125 1.278 . S
C122 O123 1.203 1_655 S
C122 O129 1.260 1_655 S
O123 C122 1.203 1_455 S
O124 C117 1.185 . S
O124 Zn120 2.086 . S
C125 O121 1.278 . S
C125 O126 1.211 . S
O126 C125 1.211 . S
C127 O119 1.284 . S
C127 O128 1.273 . S
O128 C127 1.273 . S
O129 Zn120 2.004 . S
O129 C122 1.260 1_455 S
C130 O131 1.160 . S
C130 O137 1.185 . S
O131 C130 1.160 . S
O132 Zn133 1.899 . S
O132 C140 1.284 . S
Zn133 O132 1.899 . S
Zn133 O134 2.032 . S
Zn133 O137 2.086 . S
Zn133 O142 1.977 . S
O134 Zn133 2.032 . S
O134 C138 1.278 . S
C135 O136 1.203 . S
C135 O142 1.267 . S
O136 C135 1.203 . S
O137 C130 1.185 . S
O137 Zn133 2.086 . S
C138 O134 1.278 . S
C138 O139 1.211 . S
O139 C138 1.211 . S
C140 O132 1.284 . S
C140 O141 1.273 . S
O141 C140 1.273 . S
O142 Zn133 1.977 . S
O142 C135 1.267 . S
C143 O144 1.160 . S
C143 O150 1.185 . S
O144 C143 1.160 . S
O145 Zn146 1.899 . S
O145 C153 1.284 1_455 S
Zn146 O145 1.899 . S
Zn146 O147 2.032 . S
Zn146 O150 2.086 . S
Zn146 O155 1.977 . S
O147 Zn146 2.032 . S
O147 C151 1.278 . S
C148 O149 1.203 . S
C148 O155 1.267 . S
O149 C148 1.203 . S
O150 C143 1.185 . S
O150 Zn146 2.086 . S
C151 O147 1.278 . S
C151 O152 1.211 . S
O152 C151 1.211 . S
C153 O145 1.284 1_655 S
C153 O154 1.273 . S
O154 C153 1.273 . S
O155 Zn146 1.977 . S
O155 C148 1.267 . S
C156 O157 1.160 . S
C156 O163 1.185 . S
O157 C156 1.160 . S
O158 Zn159 1.899 . S
O158 C166 1.284 . S
Zn159 O158 1.899 . S
Zn159 O160 2.032 . S
Zn159 O163 2.086 . S
Zn159 O168 1.977 . S
O160 Zn159 2.032 . S
O160 C164 1.278 . S
C161 O162 1.203 . S
C161 O168 1.267 . S
O162 C161 1.203 . S
O163 C156 1.185 . S
O163 Zn159 2.086 . S
C164 O160 1.278 . S
C164 O165 1.211 . S
O165 C164 1.211 . S
C166 O158 1.284 . S
C166 O167 1.273 . S
O167 C166 1.273 . S
O168 Zn159 1.977 . S
O168 C161 1.267 . S
C169 O170 1.160 1_455 S
C169 O176 1.185 . S
O170 C169 1.160 1_655 S
O171 Zn172 1.899 1_655 S
O171 C179 1.284 . S
Zn172 O171 1.899 1_455 S
Zn172 O173 2.032 . S
Zn172 O176 2.086 . S
Zn172 O181 1.977 . S
O173 Zn172 2.032 . S
O173 C177 1.278 . S
C174 O175 1.203 . S
C174 O181 1.267 . S
O175 C174 1.203 . S
O176 C169 1.185 . S
O176 Zn172 2.086 . S
C177 O173 1.278 . S
C177 O178 1.211 . S
O178 C177 1.211 . S
C179 O171 1.284 . S
C179 O180 1.273 . S
O180 C179 1.273 . S
O181 Zn172 1.977 . S
O181 C174 1.267 . S
C182 O183 1.160 1_545 S
C182 O189 1.185 . S
O183 C182 1.160 1_565 S
O184 Zn185 1.899 1_565 S
O184 C192 1.284 . S
Zn185 O184 1.899 1_545 S
Zn185 O186 2.032 . S
Zn185 O189 2.086 . S
Zn185 O194 1.977 . S
O186 Zn185 2.032 . S
O186 C190 1.278 . S
C187 O188 1.203 . S
C187 O194 1.267 . S
O188 C187 1.203 . S
O189 C182 1.185 . S
O189 Zn185 2.086 . S
C190 O186 1.278 . S
C190 O191 1.211 . S
O191 C190 1.211 . S
C192 O184 1.284 . S
C192 O193 1.273 . S
O193 C192 1.273 . S
O194 Zn185 1.977 . S
O194 C187 1.267 . S
C195 O196 1.160 . S
C195 O202 1.185 . S
O196 C195 1.160 . S
O197 Zn198 1.899 . S
O197 C205 1.284 . S
Zn198 O197 1.899 . S
Zn198 O199 2.032 . S
Zn198 O202 2.086 . S
Zn198 O207 1.977 . S
O199 Zn198 2.032 . S
O199 C203 1.278 . S
C200 O201 1.203 . S
C200 O207 1.267 . S
O201 C200 1.203 . S
O202 C195 1.185 . S
O202 Zn198 2.086 . S
C203 O199 1.278 . S
C203 O204 1.211 . S
O204 C203 1.211 . S
C205 O197 1.284 . S
C205 O206 1.273 . S
O206 C205 1.273 . S
O207 Zn198 1.977 . S
O207 C200 1.267 . S
C208 O209 1.160 1_554 S
C208 O215 1.185 . S
O209 C208 1.160 1_556 S
O210 Zn211 1.899 1_556 S
O210 C218 1.284 . S
Zn211 O210 1.899 1_554 S
Zn211 O212 2.031 . S
Zn211 O215 2.086 . S
Zn211 O220 1.977 . S
O212 Zn211 2.031 . S
O212 C216 1.279 . S
C213 O214 1.203 . S
C213 O220 1.267 . S
O214 C213 1.203 . S
O215 C208 1.185 . S
O215 Zn211 2.086 . S
C216 O212 1.279 . S
C216 O217 1.211 . S
O217 C216 1.211 . S
C218 O210 1.284 . S
C218 O219 1.273 . S
O219 C218 1.273 . S
O220 Zn211 1.977 . S
O220 C213 1.267 . S
C221 O222 1.160 . S
C221 O228 1.185 . S
O222 C221 1.160 . S
O223 Zn224 1.899 . S
O223 C231 1.284 . S
Zn224 O223 1.899 . S
Zn224 O225 2.032 . S
Zn224 O228 2.086 . S
Zn224 O233 1.977 . S
O225 Zn224 2.032 . S
O225 C229 1.278 . S
C226 O227 1.203 . S
C226 O233 1.267 . S
O227 C226 1.203 . S
O228 C221 1.185 . S
O228 Zn224 2.086 . S
C229 O225 1.278 . S
C229 O230 1.211 . S
O230 C229 1.211 . S
C231 O223 1.284 . S
C231 O232 1.273 . S
O232 C231 1.273 . S
O233 Zn224 1.977 . S
O233 C226 1.267 . S
C234 O235 1.160 . S
C234 O241 1.185 . S
O235 C234 1.160 . S
O236 Zn237 1.899 . S
O236 C244 1.284 . S
Zn237 O236 1.899 . S
Zn237 O238 2.032 . S
Zn237 O241 2.086 . S
Zn237 O246 2.004 . S
O238 Zn237 2.032 . S
O238 C242 1.278 . S
C239 O240 1.203 1_556 S
C239 O246 1.260 1_556 S
O240 C239 1.203 1_554 S
O241 C234 1.185 . S
O241 Zn237 2.086 . S
C242 O238 1.278 . S
C242 O243 1.211 . S
O243 C242 1.211 . S
C244 O236 1.284 . S
C244 O245 1.273 . S
O245 C244 1.273 . S
O246 Zn237 2.004 . S
O246 C239 1.260 1_554 S
C247 O248 1.160 . S
C247 O254 1.185 . S
O248 C247 1.160 . S
O249 Zn250 1.899 . S
O249 C257 1.284 . S
Zn250 O249 1.899 . S
Zn250 O251 2.032 . S
Zn250 O254 2.086 . S
Zn250 O259 1.977 . S
O251 Zn250 2.032 . S
O251 C255 1.278 . S
C252 O253 1.203 . S
C252 O259 1.267 . S
O253 C252 1.203 . S
O254 C247 1.185 . S
O254 Zn250 2.086 . S
C255 O251 1.278 . S
C255 O256 1.211 . S
O256 C255 1.211 . S
C257 O249 1.284 . S
C257 O258 1.273 . S
O258 C257 1.273 . S
O259 Zn250 1.977 . S
O259 C252 1.267 . S
C260 O261 1.160 . S
C260 O267 1.185 . S
O261 C260 1.160 . S
O262 Zn263 1.899 . S
O262 C270 1.284 . S
Zn263 O262 1.899 . S
Zn263 O264 2.032 . S
Zn263 O267 2.086 . S
Zn263 O272 1.977 . S
O264 Zn263 2.032 . S
O264 C268 1.278 . S
C265 O266 1.203 . S
C265 O272 1.267 . S
O266 C265 1.203 . S
O267 C260 1.185 . S
O267 Zn263 2.086 . S
C268 O264 1.278 . S
C268 O269 1.211 . S
O269 C268 1.211 . S
C270 O262 1.284 . S
C270 O271 1.273 . S
O271 C270 1.273 . S
O272 Zn263 1.977 . S
O272 C265 1.267 . S
C273 O274 1.160 1_554 S
C273 O280 1.185 . S
O274 C273 1.160 1_556 S
O275 Zn276 1.899 1_556 S
O275 C283 1.284 . S
Zn276 O275 1.899 1_554 S
Zn276 O277 2.032 . S
Zn276 O280 2.086 . S
Zn276 O285 1.977 . S
O277 Zn276 2.032 . S
O277 C281 1.278 . S
C278 O279 1.203 . S
C278 O285 1.267 . S
O279 C278 1.203 . S
O280 C273 1.185 . S
O280 Zn276 2.086 . S
C281 O277 1.278 . S
C281 O282 1.211 . S
O282 C281 1.211 . S
C283 O275 1.284 . S
C283 O284 1.273 . S
O284 C283 1.273 . S
O285 Zn276 1.977 . S
O285 C278 1.267 . S
C286 O287 1.160 1_554 S
C286 O293 1.185 . S
O287 C286 1.160 1_556 S
O288 Zn289 1.899 1_556 S
O288 C296 1.284 . S
Zn289 O288 1.899 1_554 S
Zn289 O290 2.032 . S
Zn289 O293 2.086 . S
Zn289 O298 1.977 . S
O290 Zn289 2.032 . S
O290 C294 1.278 . S
C291 O292 1.203 . S
C291 O298 1.267 . S
O292 C291 1.203 . S
O293 C286 1.185 . S
O293 Zn289 2.086 . S
C294 O290 1.278 . S
C294 O295 1.211 . S
O295 C294 1.211 . S
C296 O288 1.284 . S
C296 O297 1.273 . S
O297 C296 1.273 . S
O298 Zn289 1.977 . S
O298 C291 1.267 . S
C299 O300 1.160 . S
C299 O306 1.185 . S
O300 C299 1.160 . S
O301 Zn302 1.899 . S
O301 C309 1.284 1_554 S
Zn302 O301 1.899 . S
Zn302 O303 2.032 . S
Zn302 O306 2.086 . S
Zn302 O311 1.977 . S
O303 Zn302 2.032 . S
O303 C307 1.278 . S
C304 O305 1.203 . S
C304 O311 1.267 . S
O305 C304 1.203 . S
O306 C299 1.185 . S
O306 Zn302 2.086 . S
C307 O303 1.278 . S
C307 O308 1.211 . S
O308 C307 1.211 . S
C309 O301 1.284 1_556 S
C309 O310 1.273 . S
O310 C309 1.273 . S
O311 Zn302 1.977 . S
O311 C304 1.267 . S
C312 O313 1.160 . S
C312 O319 1.185 . S
O313 C312 1.160 . S
O314 Zn315 1.899 . S
O314 C322 1.284 . S
Zn315 O314 1.899 . S
Zn315 O316 2.032 1_565 S
Zn315 O319 2.086 . S
Zn315 O324 1.977 1_565 S
O316 Zn315 2.032 1_545 S
O316 C320 1.278 . S
C317 O318 1.203 . S
C317 O324 1.267 . S
O318 C317 1.203 . S
O319 C312 1.185 . S
O319 Zn315 2.086 . S
C320 O316 1.278 . S
C320 O321 1.211 . S
O321 C320 1.211 . S
C322 O314 1.284 . S
C322 O323 1.273 1_565 S
O323 C322 1.273 1_545 S
O324 Zn315 1.977 1_545 S
O324 C317 1.267 . S
C325 O326 1.160 . S
C325 O332 1.185 . S
O326 C325 1.160 . S
O327 Zn328 1.899 . S
O327 C335 1.284 . S
Zn328 O327 1.899 . S
Zn328 O329 2.032 . S
Zn328 O332 2.086 . S
Zn328 O337 1.977 . S
O329 Zn328 2.032 . S
O329 C333 1.278 . S
C330 O331 1.203 . S
C330 O337 1.267 . S
O331 C330 1.203 . S
O332 C325 1.185 . S
O332 Zn328 2.086 . S
C333 O329 1.278 . S
C333 O334 1.211 . S
O334 C333 1.211 . S
C335 O327 1.284 . S
C335 O336 1.273 . S
O336 C335 1.273 . S
O337 Zn328 1.977 . S
O337 C330 1.267 . S
C338 O339 1.160 . S
C338 O345 1.185 . S
O339 C338 1.160 . S
O340 Zn341 1.899 . S
O340 C348 1.284 . S
Zn341 O340 1.899 . S
Zn341 O342 2.032 . S
Zn341 O345 2.086 . S
Zn341 O350 1.977 . S
O342 Zn341 2.032 . S
O342 C346 1.278 . S
C343 O344 1.203 . S
C343 O350 1.267 . S
O344 C343 1.203 . S
O345 C338 1.185 . S
O345 Zn341 2.086 . S
C346 O342 1.278 . S
C346 O347 1.211 . S
O347 C346 1.211 . S
C348 O340 1.284 . S
C348 O349 1.273 . S
O349 C348 1.273 . S
O350 Zn341 1.977 . S
O350 C343 1.267 . S
C351 O352 1.160 . S
C351 O358 1.185 . S
O352 C351 1.160 . S
O353 Zn354 1.899 . S
O353 C361 1.284 . S
Zn354 O353 1.899 . S
Zn354 O355 2.032 1_655 S
Zn354 O358 2.086 . S
Zn354 O363 1.977 . S
O355 Zn354 2.032 1_455 S
O355 C359 1.278 . S
C356 O357 1.203 . S
C356 O363 1.267 1_455 S
O357 C356 1.203 . S
O358 C351 1.185 . S
O358 Zn354 2.086 . S
C359 O355 1.278 . S
C359 O360 1.211 . S
O360 C359 1.211 . S
C361 O353 1.284 . S
C361 O362 1.273 1_655 S
O362 C361 1.273 1_455 S
O363 Zn354 1.977 . S
O363 C356 1.267 1_655 S
C364 O365 1.160 . S
C364 O371 1.185 . S
O365 C364 1.160 . S
O366 Zn367 1.899 . S
O366 C374 1.284 . S
Zn367 O366 1.899 . S
Zn367 O368 2.032 . S
Zn367 O371 2.086 . S
Zn367 O376 1.977 . S
O368 Zn367 2.032 . S
O368 C372 1.302 . S
C369 O370 1.203 . S
C369 O376 1.267 . S
O370 C369 1.203 . S
O371 C364 1.185 . S
O371 Zn367 2.086 . S
C372 O368 1.302 . S
C372 O373 1.205 1_545 S
O373 C372 1.205 1_565 S
C374 O366 1.284 . S
C374 O375 1.273 . S
O375 C374 1.273 . S
O376 Zn367 1.977 . S
O376 C369 1.267 . S
C377 O378 1.160 . S
C377 O384 1.185 . S
O378 C377 1.160 . S
O379 Zn380 1.899 . S
O379 C387 1.284 1_655 S
Zn380 O379 1.899 . S
Zn380 O381 2.032 1_655 S
Zn380 O384 2.086 . S
Zn380 O389 1.977 . S
O381 Zn380 2.032 1_455 S
O381 C385 1.278 . S
C382 O383 1.203 . S
C382 O389 1.267 1_455 S
O383 C382 1.203 . S
O384 C377 1.185 . S
O384 Zn380 2.086 . S
C385 O381 1.278 . S
C385 O386 1.211 . S
O386 C385 1.211 . S
C387 O379 1.284 1_455 S
C387 O388 1.273 . S
O388 C387 1.273 . S
O389 Zn380 1.977 . S
O389 C382 1.267 1_655 S
C390 O391 1.160 . S
C390 O397 1.185 . S
O391 C390 1.160 . S
O392 Zn393 1.899 . S
O392 C400 1.284 . S
Zn393 O392 1.899 . S
Zn393 O394 2.032 . S
Zn393 O397 2.086 . S
Zn393 O402 1.977 . S
O394 Zn393 2.032 . S
O394 C398 1.278 . S
C395 O396 1.203 . S
C395 O402 1.267 . S
O396 C395 1.203 . S
O397 C390 1.185 . S
O397 Zn393 2.086 . S
C398 O394 1.278 . S
C398 O399 1.211 1_565 S
O399 C398 1.211 1_545 S
C400 O392 1.284 . S
C400 O401 1.273 . S
O401 C400 1.273 . S
O402 Zn393 1.977 . S
O402 C395 1.267 . S
C403 O404 1.160 . S
C403 O410 1.185 . S
O404 C403 1.160 . S
O405 Zn406 1.899 . S
O405 C413 1.284 . S
Zn406 O405 1.899 . S
Zn406 O407 2.032 . S
Zn406 O410 2.086 . S
Zn406 O415 1.977 . S
O407 Zn406 2.032 . S
O407 C411 1.278 1_455 S
C408 O409 1.203 . S
C408 O415 1.267 . S
O409 C408 1.203 . S
O410 C403 1.185 . S
O410 Zn406 2.086 . S
C411 O407 1.278 1_655 S
C411 O412 1.211 . S
O412 C411 1.211 . S
C413 O405 1.284 . S
C413 O414 1.273 . S
O414 C413 1.273 . S
O415 Zn406 1.977 . S
O415 C408 1.267 . S
C416 O417 1.160 . S
C416 O423 1.185 . S
O417 C416 1.160 . S
O418 Zn419 1.899 . S
O418 C426 1.284 . S
Zn419 O418 1.899 . S
Zn419 O420 2.032 1_556 S
Zn419 O423 2.086 . S
Zn419 O428 1.977 1_556 S
O420 Zn419 2.032 1_554 S
O420 C424 1.278 . S
C421 O422 1.203 . S
C421 O428 1.267 . S
O422 C421 1.203 . S
O423 C416 1.185 . S
O423 Zn419 2.086 . S
C424 O420 1.278 . S
C424 O425 1.211 . S
O425 C424 1.211 . S
C426 O418 1.284 . S
C426 O427 1.273 1_556 S
O427 C426 1.273 1_554 S
O428 Zn419 1.977 1_554 S
O428 C421 1.267 . S
C429 O430 1.160 . S
C429 O436 1.185 . S
O430 C429 1.160 . S
O431 Zn432 1.899 . S
O431 C439 1.284 . S
Zn432 O431 1.899 . S
Zn432 O433 2.032 1_556 S
Zn432 O436 2.086 . S
Zn432 O441 1.977 . S
O433 Zn432 2.032 1_554 S
O433 C437 1.278 . S
C434 O435 1.203 . S
C434 O441 1.267 1_554 S
O435 C434 1.203 . S
O436 C429 1.185 . S
O436 Zn432 2.086 . S
C437 O433 1.278 . S
C437 O438 1.211 . S
O438 C437 1.211 . S
C439 O431 1.284 . S
C439 O440 1.273 1_556 S
O440 C439 1.273 1_554 S
O441 Zn432 1.977 . S
O441 C434 1.267 1_556 S
C442 O443 1.160 . S
C442 O449 1.185 . S
O443 C442 1.160 . S
O444 Zn445 1.899 . S
O444 C452 1.284 . S
Zn445 O444 1.899 . S
Zn445 O446 2.032 . S
Zn445 O449 2.086 . S
Zn445 O454 1.977 . S
O446 Zn445 2.032 . S
O446 C450 1.278 . S
C447 O448 1.203 . S
C447 O454 1.267 . S
O448 C447 1.203 . S
O449 C442 1.185 . S
O449 Zn445 2.086 . S
C450 O446 1.278 . S
C450 O451 1.211 1_556 S
O451 C450 1.211 1_554 S
C452 O444 1.284 . S
C452 O453 1.273 . S
O453 C452 1.273 . S
O454 Zn445 1.977 . S
O454 C447 1.267 . S
C455 O456 1.160 . S
C455 O462 1.185 . S
O456 C455 1.160 . S
O457 Zn458 1.899 . S
O457 C465 1.284 1_556 S
Zn458 O457 1.899 . S
Zn458 O459 2.032 1_556 S
Zn458 O462 2.086 . S
Zn458 O467 1.977 . S
O459 Zn458 2.032 1_554 S
O459 C463 1.278 . S
C460 O461 1.203 . S
C460 O467 1.267 1_554 S
O461 C460 1.203 . S
O462 C455 1.185 . S
O462 Zn458 2.086 . S
C463 O459 1.278 . S
C463 O464 1.211 . S
O464 C463 1.211 . S
C465 O457 1.284 1_554 S
C465 O466 1.273 . S
O466 C465 1.273 . S
O467 Zn458 1.977 . S
O467 C460 1.267 1_556 S
C468 O469 1.160 . S
C468 O475 1.185 . S
O469 C468 1.160 . S
O470 Zn471 1.899 . S
O470 C478 1.284 . S
Zn471 O470 1.899 . S
Zn471 O472 2.032 . S
Zn471 O475 2.086 . S
Zn471 O480 1.977 . S
O472 Zn471 2.032 . S
O472 C476 1.278 . S
C473 O474 1.203 . S
C473 O480 1.267 . S
O474 C473 1.203 . S
O475 C468 1.185 . S
O475 Zn471 2.086 . S
C476 O472 1.278 . S
C476 O477 1.211 . S
O477 C476 1.211 . S
C478 O470 1.284 . S
C478 O479 1.273 . S
O479 C478 1.273 . S
O480 Zn471 1.977 . S
O480 C473 1.267 . S
C481 O482 1.160 . S
C481 O488 1.185 . S
O482 C481 1.160 . S
O483 Zn484 1.899 . S
O483 C491 1.284 . S
Zn484 O483 1.899 . S
Zn484 O485 2.032 . S
Zn484 O488 2.086 . S
Zn484 O493 1.977 . S
O485 Zn484 2.032 . S
O485 C489 1.278 . S
C486 O487 1.203 . S
C486 O493 1.267 . S
O487 C486 1.203 . S
O488 C481 1.185 . S
O488 Zn484 2.086 . S
C489 O485 1.278 . S
C489 O490 1.211 . S
O490 C489 1.211 . S
C491 O483 1.284 . S
C491 O492 1.273 . S
O492 C491 1.273 . S
O493 Zn484 1.977 . S
O493 C486 1.267 . S
C494 O495 1.160 . S
C494 O501 1.185 . S
O495 C494 1.160 . S
O496 Zn497 1.899 . S
O496 C504 1.284 . S
Zn497 O496 1.899 . S
Zn497 O498 2.032 . S
Zn497 O501 2.086 . S
Zn497 O506 1.977 . S
O498 Zn497 2.032 . S
O498 C502 1.302 . S
C499 O500 1.203 . S
C499 O506 1.267 . S
O500 C499 1.203 . S
O501 C494 1.185 . S
O501 Zn497 2.086 . S
C502 O498 1.302 . S
C502 O503 1.205 1_554 S
O503 C502 1.205 1_556 S
C504 O496 1.284 . S
C504 O505 1.273 . S
O505 C504 1.273 . S
O506 Zn497 1.977 . S
O506 C499 1.267 . S
C507 O508 1.160 . S
C507 O514 1.185 . S
O508 C507 1.160 . S
O509 Zn510 1.899 . S
O509 C517 1.284 . S
Zn510 O509 1.899 . S
Zn510 O511 2.032 . S
Zn510 O514 2.086 . S
Zn510 O519 1.977 . S
O511 Zn510 2.032 . S
O511 C515 1.278 1_554 S
C512 O513 1.203 . S
C512 O519 1.267 . S
O513 C512 1.203 . S
O514 C507 1.185 . S
O514 Zn510 2.086 . S
C515 O511 1.278 1_556 S
C515 O516 1.211 . S
O516 C515 1.211 . S
C517 O509 1.284 . S
C517 O518 1.273 . S
O518 C517 1.273 . S
O519 Zn510 1.977 . S
O519 C512 1.267 . S
C520 O521 1.160 . S
C520 O527 1.185 . S
O521 C520 1.160 . S
O522 Zn523 1.899 . S
O522 C530 1.284 . S
Zn523 O522 1.899 . S
Zn523 O524 2.032 1_655 S
Zn523 O527 2.086 . S
Zn523 O532 1.977 1_655 S
O524 Zn523 2.032 1_455 S
O524 C528 1.278 . S
C525 O526 1.203 . S
C525 O532 1.267 . S
O526 C525 1.203 . S
O527 C520 1.185 . S
O527 Zn523 2.086 . S
C528 O524 1.278 . S
C528 O529 1.211 . S
O529 C528 1.211 . S
C530 O522 1.284 . S
C530 O531 1.273 1_655 S
O531 C530 1.273 1_455 S
O532 Zn523 1.977 1_455 S
O532 C525 1.267 . S
C533 O534 1.160 . S
C533 O540 1.185 . S
O534 C533 1.160 . S
O535 Zn536 1.899 . S
O535 C543 1.284 . S
Zn536 O535 1.899 . S
Zn536 O537 2.032 . S
Zn536 O540 2.086 . S
Zn536 O545 1.977 . S
O537 Zn536 2.032 . S
O537 C541 1.278 . S
C538 O539 1.203 . S
C538 O545 1.267 . S
O539 C538 1.203 . S
O540 C533 1.185 . S
O540 Zn536 2.086 . S
C541 O537 1.278 . S
C541 O542 1.211 1_655 S
O542 C541 1.211 1_455 S
C543 O535 1.284 . S
C543 O544 1.273 . S
O544 C543 1.273 . S
O545 Zn536 1.977 . S
O545 C538 1.267 . S
C546 O547 1.160 . S
C546 O553 1.185 . S
O547 C546 1.160 . S
O548 Zn549 1.899 . S
O548 C556 1.284 . S
Zn549 O548 1.899 . S
Zn549 O550 2.032 1_565 S
Zn549 O553 2.086 . S
Zn549 O558 1.977 . S
O550 Zn549 2.032 1_545 S
O550 C554 1.278 . S
C551 O552 1.203 . S
C551 O558 1.267 1_545 S
O552 C551 1.203 . S
O553 C546 1.185 . S
O553 Zn549 2.086 . S
C554 O550 1.278 . S
C554 O555 1.211 . S
O555 C554 1.211 . S
C556 O548 1.284 . S
C556 O557 1.273 1_565 S
O557 C556 1.273 1_545 S
O558 Zn549 1.977 . S
O558 C551 1.267 1_565 S
C559 O560 1.160 . S
C559 O566 1.185 . S
O560 C559 1.160 . S
O561 Zn562 1.899 . S
O561 C569 1.284 . S
Zn562 O561 1.899 . S
Zn562 O563 2.032 . S
Zn562 O566 2.086 . S
Zn562 O571 1.977 . S
O563 Zn562 2.032 . S
O563 C567 1.278 . S
C564 O565 1.203 . S
C564 O571 1.267 . S
O565 C564 1.203 . S
O566 C559 1.185 . S
O566 Zn562 2.086 . S
C567 O563 1.278 . S
C567 O568 1.211 . S
O568 C567 1.211 . S
C569 O561 1.284 . S
C569 O570 1.273 . S
O570 C569 1.273 . S
O571 Zn562 1.977 . S
O571 C564 1.267 . S
C572 O573 1.160 . S
C572 O579 1.185 . S
O573 C572 1.160 . S
O574 Zn575 1.899 . S
O574 C582 1.284 . S
Zn575 O574 1.899 . S
Zn575 O576 2.032 . S
Zn575 O579 2.086 . S
Zn575 O584 1.977 . S
O576 Zn575 2.032 . S
O576 C580 1.278 1_545 S
C577 O578 1.203 . S
C577 O584 1.267 . S
O578 C577 1.203 . S
O579 C572 1.185 . S
O579 Zn575 2.086 . S
C580 O576 1.278 1_565 S
C580 O581 1.211 . S
O581 C580 1.211 . S
C582 O574 1.284 . S
C582 O583 1.273 . S
O583 C582 1.273 . S
O584 Zn575 1.977 . S
O584 C577 1.267 . S
C585 O586 1.160 . S
C585 O592 1.185 . S
O586 C585 1.160 . S
O587 Zn588 1.899 . S
O587 C595 1.284 . S
Zn588 O587 1.899 . S
Zn588 O589 2.032 . S
Zn588 O592 2.086 . S
Zn588 O597 1.977 . S
O589 Zn588 2.032 . S
O589 C593 1.302 . S
C590 O591 1.203 . S
C590 O597 1.267 . S
O591 C590 1.203 . S
O592 C585 1.185 . S
O592 Zn588 2.086 . S
C593 O589 1.302 . S
C593 O594 1.205 1_455 S
O594 C593 1.205 1_655 S
C595 O587 1.284 . S
C595 O596 1.273 . S
O596 C595 1.273 . S
O597 Zn588 1.977 . S
O597 C590 1.267 . S
C598 O599 1.160 . S
C598 O605 1.185 . S
O599 C598 1.160 . S
O600 Zn601 1.899 . S
O600 C608 1.284 . S
Zn601 O600 1.899 . S
Zn601 O602 2.032 . S
Zn601 O605 2.086 . S
Zn601 O610 1.977 . S
O602 Zn601 2.032 . S
O602 C606 1.278 . S
C603 O604 1.203 . S
C603 O610 1.267 . S
O604 C603 1.203 . S
O605 C598 1.185 . S
O605 Zn601 2.086 . S
C606 O602 1.278 . S
C606 O607 1.211 . S
O607 C606 1.211 . S
C608 O600 1.284 . S
C608 O609 1.273 . S
O609 C608 1.273 . S
O610 Zn601 1.977 . S
O610 C603 1.267 . S
C611 O612 1.160 . S
C611 O618 1.185 . S
O612 C611 1.160 . S
O613 Zn614 1.899 . S
O613 C621 1.284 1_565 S
Zn614 O613 1.899 . S
Zn614 O615 2.032 1_565 S
Zn614 O618 2.086 . S
Zn614 O623 1.977 . S
O615 Zn614 2.032 1_545 S
O615 C619 1.278 . S
C616 O617 1.203 . S
C616 O623 1.267 1_545 S
O617 C616 1.203 . S
O618 C611 1.185 . S
O618 Zn614 2.086 . S
C619 O615 1.278 . S
C619 O620 1.211 . S
O620 C619 1.211 . S
C621 O613 1.284 1_545 S
C621 O622 1.273 . S
O622 C621 1.273 . S
O623 Zn614 1.977 . S
O623 C616 1.267 1_565 S
C8 C34 4.116 . S
C21 C47 1.375 . S
C60 C86 2.058 . S
C73 C99 1.184 . S
C112 C164 4.116 . S
C125 C177 1.375 . S
C138 C190 2.058 . S
C151 C203 1.184 . S
C255 C216 4.116 . S
C229 C281 2.058 . S
C294 C242 1.375 . S
C268 C307 1.184 . S
C320 C346 1.178 . S
C359 C333 2.070 . S
C372 C398 1.360 1_545 S
C411 C385 4.039 1_655 S
C424 C476 1.178 . S
C437 C489 2.070 . S
C450 C502 1.360 1_556 S
C463 C515 4.038 1_554 S
C567 C528 1.178 . S
C541 C593 1.360 1_655 S
C554 C606 2.070 . S
C580 C619 4.039 1_565 S
C0 C117 2.057 . S
C13 C130 2.340 . S
C143 C26 2.139 . S
C104 C39 2.057 . S
C52 C195 2.456 . S
C65 C156 2.139 . S
C169 C78 2.340 . S
C182 C91 2.456 . S
C208 C234 2.057 . S
C221 C286 2.340 . S
C247 C299 2.139 . S
C273 C260 2.456 . S
C429 C312 2.572 . S
C442 C325 2.348 . S
C338 C455 1.610 . S
C416 C351 2.572 . S
C507 C364 2.110 . S
C377 C468 1.610 . S
C481 C390 2.348 . S
C403 C494 2.111 . S
C546 C520 2.572 . S
C598 C533 2.348 . S
C611 C559 1.610 . S
C572 C585 2.110 . S
C5 C408 0.850 . S
C369 C18 1.641 . S
C31 C382 1.078 . S
C395 C44 1.658 . S
C330 C57 0.899 . S
C70 C343 1.686 . S
C356 C83 0.844 . S
C317 C96 1.410 . S
C109 C577 0.850 . S
C538 C122 1.658 . S
C551 C135 0.845 . S
C148 C564 1.685 . S
C161 C616 1.078 . S
C174 C590 1.641 . S
C603 C187 0.899 . S
C200 C525 1.410 . S
C213 C512 0.850 . S
C226 C434 0.845 . S
C239 C447 1.658 . S
C460 C252 1.078 . S
C421 C265 1.410 . S
C278 C486 0.899 . S
C499 C291 1.641 . S
C473 C304 1.686 . S
C361 C62 2.577 . S
C75 C322 1.550 . S
C335 C88 2.517 . S
C101 C348 1.073 . S
C10 C387 4.709 1_655 S
C23 C400 1.112 . S
C413 C36 4.718 . S
C49 C374 1.674 . S
C192 C556 2.578 . S
C205 C569 1.073 . S
C166 C582 4.719 . S
C543 C179 1.111 . S
C140 C608 2.518 . S
C530 C153 1.550 . S
C621 C114 4.709 1_545 S
C595 C127 1.674 . S
C283 C439 2.578 . S
C517 C257 4.718 . S
C270 C478 1.073 . S
C491 C231 2.518 . S
C504 C244 1.673 . S
C218 C465 4.709 1_556 S
C426 C309 1.550 . S
C296 C452 1.112 . S
