# Generated by pormake.
# Topology acs-f, (3)-cn, num edge types: 1
# Building blocks:
#     Node 0, Type 0, BuildingBlock: WUSLED_clean_sbu_0, # of connection points: 3
#     Node 1, Type 0, BuildingBlock: WUSLED_clean_sbu_0, # of connection points: 3
#     Node 2, Type 0, BuildingBlock: WUSLED_clean_sbu_0, # of connection points: 3
#     Node 3, Type 0, BuildingBlock: WUSLED_clean_sbu_0, # of connection points: 3
#     Node 4, Type 0, BuildingBlock: WUSLED_clean_sbu_0, # of connection points: 3
#     Node 5, Type 0, BuildingBlock: WUSLED_clean_sbu_0, # of connection points: 3
#     Node 6, Type 0, BuildingBlock: WUSLED_clean_sbu_0, # of connection points: 3
#     Node 7, Type 0, BuildingBlock: WUSLED_clean_sbu_0, # of connection points: 3
#     Node 8, Type 0, BuildingBlock: WUSLED_clean_sbu_0, # of connection points: 3
#     Node 9, Type 0, BuildingBlock: WUSLED_clean_sbu_0, # of connection points: 3
#     Node 10, Type 0, BuildingBlock: WUSLED_clean_sbu_0, # of connection points: 3
#     Node 11, Type 0, BuildingBlock: WUSLED_clean_sbu_0, # of connection points: 3
#     Edge 12, Type (0, 0), BuildingBlock: XUDNAN_clean_linker_2, # of connection points: 2
#     Edge 13, Type (0, 0), BuildingBlock: XUDNAN_clean_linker_2, # of connection points: 2
#     Edge 14, Type (0, 0), BuildingBlock: XUDNAN_clean_linker_2, # of connection points: 2
#     Edge 15, Type (0, 0), BuildingBlock: XUDNAN_clean_linker_2, # of connection points: 2
#     Edge 16, Type (0, 0), BuildingBlock: XUDNAN_clean_linker_2, # of connection points: 2
#     Edge 17, Type (0, 0), BuildingBlock: XUDNAN_clean_linker_2, # of connection points: 2
#     Edge 18, Type (0, 0), BuildingBlock: XUDNAN_clean_linker_2, # of connection points: 2
#     Edge 19, Type (0, 0), BuildingBlock: XUDNAN_clean_linker_2, # of connection points: 2
#     Edge 20, Type (0, 0), BuildingBlock: XUDNAN_clean_linker_2, # of connection points: 2
#     Edge 21, Type (0, 0), BuildingBlock: XUDNAN_clean_linker_2, # of connection points: 2
#     Edge 22, Type (0, 0), BuildingBlock: XUDNAN_clean_linker_2, # of connection points: 2
#     Edge 23, Type (0, 0), BuildingBlock: XUDNAN_clean_linker_2, # of connection points: 2
#     Edge 24, Type (0, 0), BuildingBlock: XUDNAN_clean_linker_2, # of connection points: 2
#     Edge 25, Type (0, 0), BuildingBlock: XUDNAN_clean_linker_2, # of connection points: 2
#     Edge 26, Type (0, 0), BuildingBlock: XUDNAN_clean_linker_2, # of connection points: 2
#     Edge 27, Type (0, 0), BuildingBlock: XUDNAN_clean_linker_2, # of connection points: 2
#     Edge 28, Type (0, 0), BuildingBlock: XUDNAN_clean_linker_2, # of connection points: 2
#     Edge 29, Type (0, 0), BuildingBlock: XUDNAN_clean_linker_2, # of connection points: 2
# Relax obj value: 0.269
# Max RMSD: 0.159
# Mean RMSD: 0.147
data_MOF--net-acs-f--node1-WUSLED_clean_sbu_0--edge1-XUDNAN_clean_linker_2
_symmetry_space_group_name_H-M    P1
_symmetry_Int_Tables_number       1
_symmetry_cell_setting            triclinic
loop_
_symmetry_equiv_pos_as_xyz
'x, y, z'
_cell_length_a     52.205741
_cell_length_b     52.189476
_cell_length_c     65.500231
_cell_angle_alpha  89.857968
_cell_angle_beta   89.852212
_cell_angle_gamma 114.77427
loop_
_atom_site_label
_atom_site_type_symbol
_atom_site_fract_x
_atom_site_fract_y
_atom_site_fract_z
_atom_type_partial_charge
C0 C 0.10068 0.35902 0.17149 0.0
C1 C 0.09304 0.36314 0.19136 0.0
C2 C 0.12724 0.34734 0.20577 0.0
C3 C 0.10607 0.35725 0.20829 0.0
C4 C 0.13321 0.34118 0.1859 0.0
C5 C 0.12009 0.34705 0.16894 0.0
U6 U 0.05227 0.3883 0.14526 0.0
O7 O 0.0645 0.42527 0.12483 0.0
O8 O 0.03624 0.38296 0.11354 0.0
C9 C 0.05043 0.40995 0.10931 0.0
C10 C 0.09113 0.36989 0.15346 0.0
C11 C 0.04118 0.42328 0.09258 0.0
C12 C 0.04498 0.43512 0.05645 0.0
C13 C 0.05115 0.42182 0.07299 0.0
C14 C 0.01797 0.45161 0.07858 0.0
C15 C 0.02789 0.44989 0.05874 0.0
C16 C 0.02467 0.43851 0.0954 0.0
C17 C 0.99516 0.39081 0.1844 0.0
C18 C 0.97809 0.42503 0.19579 0.0
C19 C 0.96235 0.37969 0.21279 0.0
C20 C 0.97834 0.37181 0.19923 0.0
C21 C 0.96334 0.40703 0.21202 0.0
C22 C 0.99385 0.41694 0.18204 0.0
C23 C 0.01792 0.38515 0.17527 0.0
O24 O 0.0663 0.35372 0.1459 0.0
O25 O 0.09545 0.39652 0.15445 0.0
O26 O 0.04229 0.40685 0.17231 0.0
O27 O 0.01175 0.36522 0.16146 0.0
H28 H 0.07798 0.37216 0.19376 0.0
H29 H 0.10054 0.36176 0.22338 0.0
H30 H 0.14937 0.33364 0.18335 0.0
H31 H 0.12621 0.34358 0.15374 0.0
H32 H 0.05412 0.43399 0.04183 0.0
H33 H 0.06433 0.41067 0.07046 0.0
H34 H 1.00478 0.46272 0.08109 0.0
H35 H 0.01698 0.44023 0.11048 0.0
H36 H 0.97951 0.44627 0.1946 0.0
H37 H 0.95061 0.3649 0.22464 0.0
H38 H 0.97918 0.35156 0.20133 0.0
H39 H 0.0067 0.43192 0.17065 0.0
C40 C 0.65342 0.70109 0.17929 0.0
C41 C 0.63983 0.69533 0.19839 0.0
C42 C 0.66942 0.74322 0.20997 0.0
C43 C 0.6478 0.71612 0.21356 0.0
C44 C 0.68377 0.74843 0.19112 0.0
C45 C 0.67583 0.72761 0.176 0.0
U46 U 0.62261 0.63013 0.14741 0.0
O47 O 0.58737 0.61987 0.12601 0.0
O48 O 0.62907 0.62624 0.11439 0.0
C49 C 0.60253 0.61983 0.11 0.0
C50 C 0.64201 0.68201 0.16162 0.0
C51 C 0.58863 0.59757 0.09467 0.0
C52 C 0.56959 0.58635 0.06029 0.0
C53 C 0.58572 0.60605 0.07483 0.0
C54 C 0.56012 0.54883 0.08493 0.0
C55 C 0.55598 0.55745 0.06519 0.0
C56 C 0.57612 0.56871 0.09959 0.0
C57 C 0.62178 0.56825 0.18508 0.0
C58 C 0.61594 0.52086 0.19359 0.0
C59 C 0.62057 0.55431 0.22051 0.0
C60 C 0.62322 0.57488 0.20587 0.0
C61 C 0.61625 0.52686 0.2145 0.0
C62 C 0.61871 0.5414 0.17905 0.0
C63 C 0.62072 0.58758 0.16923 0.0
O64 O 0.65823 0.67179 0.15256 0.0
O65 O 0.61534 0.66399 0.16248 0.0
O66 O 0.60047 0.59631 0.16953 0.0
O67 O 0.64301 0.60295 0.15821 0.0
H68 H 0.62238 0.67512 0.20138 0.0
H69 H 0.63659 0.71107 0.228 0.0
H70 H 0.70027 0.76902 0.18761 0.0
H71 H 0.68639 0.73275 0.1613 0.0
H72 H 0.56682 0.5941 0.0455 0.0
H73 H 0.59509 0.62824 0.07077 0.0
H74 H 0.55061 0.52674 0.08922 0.0
H75 H 0.57813 0.56163 0.11482 0.0
H76 H 0.61287 0.50006 0.18845 0.0
H77 H 0.62048 0.55953 0.23649 0.0
H78 H 0.62546 0.59552 0.21076 0.0
H79 H 0.61741 0.53597 0.16301 0.0
C80 C 0.29346 0.92437 0.17944 0.0
C81 C 0.29939 0.93243 0.19994 0.0
C82 C 0.25191 0.89859 0.20999 0.0
C83 C 0.27865 0.91977 0.2151 0.0
C84 C 0.24614 0.89099 0.18942 0.0
C85 C 0.2666 0.90384 0.17436 0.0
U86 U 0.36293 0.96759 0.14542 0.0
O87 O 0.37607 0.94502 0.12233 0.0
O88 O 0.36017 0.97594 0.11262 0.0
C89 C 0.37191 0.95913 0.10704 0.0
C90 C 0.31459 0.93531 0.16283 0.0
C91 C 0.39443 0.97008 0.09134 0.0
C92 C 0.4065 0.9808 0.05554 0.0
C93 C 0.38666 0.97294 0.07133 0.0
C94 C 0.44281 0.98357 0.07946 0.0
C95 C 0.43483 0.98617 0.0593 0.0
C96 C 0.4228 0.97568 0.09538 0.0
C97 C 0.41853 0.02251 0.18235 0.0
C98 C 0.46286 0.04861 0.19955 0.0
C99 C 0.4194 0.02732 0.21904 0.0
C100 C 0.40418 0.0174 0.20102 0.0
C101 C 0.44915 0.04144 0.21856 0.0
C102 C 0.44759 0.03932 0.18161 0.0
C103 C 0.40539 0.00751 0.16375 0.0
O104 O 0.31919 0.95957 0.15407 0.0
O105 O 0.33682 0.92957 0.16319 0.0
O106 O 0.38452 0.01186 0.15564 0.0
O107 O 0.40221 0.98121 0.16267 0.0
H108 H 0.32001 0.94814 0.20423 0.0
H109 H 0.28374 0.92601 0.23086 0.0
H110 H 0.2257 0.87508 0.18494 0.0
H111 H 0.26154 0.89733 0.15862 0.0
H112 H 0.39942 0.98215 0.04021 0.0
H113 H 0.36494 0.96851 0.06781 0.0
H114 H 0.4645 0.98784 0.08292 0.0
H115 H 0.42941 0.97366 0.11073 0.0
H116 H 0.48562 0.05921 0.19841 0.0
H117 H 0.40804 0.02223 0.23341 0.0
H118 H 0.38166 0.00452 0.20178 0.0
H119 H 0.45889 0.04343 0.1672 0.0
C120 C 0.65149 0.91095 0.34204 0.0
C121 C 0.6359 0.90209 0.32388 0.0
C122 C 0.66776 0.88213 0.3115 0.0
C123 C 0.64388 0.88778 0.30886 0.0
C124 C 0.68412 0.89219 0.32919 0.0
C125 C 0.67598 0.90632 0.34432 0.0
U126 U 0.62688 0.96439 0.36616 0.0
O127 O 0.58832 0.95515 0.38434 0.0
O128 O 0.63035 0.98029 0.3979 0.0
C129 C 0.60281 0.96815 0.40048 0.0
C130 C 0.641 0.92231 0.3594 0.0
C131 C 0.58878 0.975 0.41795 0.0
C132 C 0.5728 0.96511 0.45315 0.0
C133 C 0.58656 0.96038 0.43625 0.0
C134 C 0.56347 0.99989 0.43396 0.0
C135 C 0.56136 0.98528 0.45256 0.0
C136 C 0.57692 0.99466 0.41677 0.0
C137 C 0.62824 0.02312 0.32912 0.0
C138 C 0.59734 0.04669 0.33278 0.0
C139 C 0.61614 0.04361 0.29946 0.0
C140 C 0.63161 0.03024 0.30832 0.0
C141 C 0.59723 0.04984 0.31145 0.0
C142 C 0.61252 0.03299 0.3416 0.0
C143 C 0.63503 0.99998 0.33584 0.0
O144 O 0.6585 0.94641 0.36737 0.0
O145 O 0.61515 0.92027 0.35777 0.0
O146 O 0.61301 0.97559 0.33741 0.0
O147 O 0.65315 0.00477 0.35083 0.0
H148 H 0.61702 0.90544 0.32146 0.0
H149 H 0.63109 0.88078 0.29526 0.0
H150 H 0.70256 0.88812 0.33175 0.0
H151 H 0.68835 0.9128 0.35816 0.0
H152 H 0.5709 0.95242 0.46663 0.0
H153 H 0.5952 0.94483 0.43743 0.0
H154 H 0.55515 0.01564 0.4327 0.0
H155 H 0.5782 0.00606 0.40268 0.0
H156 H 0.58277 0.05135 0.34224 0.0
H157 H 0.61619 0.04557 0.28299 0.0
H158 H 0.64365 0.02261 0.29851 0.0
H159 H 0.60961 0.02753 0.35767 0.0
C160 C 0.09229 0.72726 0.34105 0.0
C161 C 0.09206 0.72024 0.32031 0.0
C162 C 0.11858 0.77025 0.31118 0.0
C163 C 0.10491 0.74151 0.30552 0.0
C164 C 0.11811 0.77679 0.33204 0.0
C165 C 0.10496 0.7557 0.34661 0.0
U166 U 0.04712 0.65289 0.36472 0.0
O167 O 0.06189 0.62999 0.3867 0.0
O168 O 0.02854 0.643 0.39577 0.0
C169 C 0.04509 0.63097 0.40137 0.0
C170 C 0.08198 0.70585 0.35761 0.0
C171 C 0.03454 0.60761 0.41654 0.0
C172 C 0.0319 0.59352 0.45237 0.0
C173 C 0.03946 0.61454 0.43729 0.0
C174 C 0.01416 0.55786 0.42618 0.0
C175 C 0.01921 0.56473 0.44715 0.0
C176 C 0.0217 0.57903 0.41107 0.0
C177 C 0.99805 0.59759 0.32487 0.0
C178 C 0.96307 0.54921 0.32754 0.0
C179 C 0.98383 0.56837 0.29467 0.0
C180 C 0.99967 0.59422 0.30379 0.0
C181 C 0.96586 0.54531 0.30648 0.0
C182 C 0.97921 0.57522 0.33673 0.0
C183 C 0.01758 0.62448 0.33354 0.0
O184 O 0.05593 0.69819 0.36404 0.0
O185 O 0.08935 0.68473 0.35648 0.0
O186 O 0.04303 0.62672 0.33773 0.0
O187 O 0.00782 0.63712 0.3468 0.0
H188 H 0.08242 0.69836 0.3156 0.0
H189 H 0.10421 0.73528 0.28972 0.0
H190 H 0.12882 0.79819 0.33752 0.0
H191 H 0.10561 0.76164 0.36251 0.0
H192 H 0.03582 0.6 0.46816 0.0
H193 H 0.04953 0.63646 0.44189 0.0
H194 H 1.00491 0.53608 0.4213 0.0
H195 H 0.0179 0.57308 0.39515 0.0
H196 H 0.94914 0.53189 0.33699 0.0
H197 H 0.98701 0.56614 0.27854 0.0
H198 H 0.01413 0.61138 0.29444 0.0
H199 H 0.9776 0.57759 0.35305 0.0
C200 C 0.30456 0.35079 0.33865 0.0
C201 C 0.31309 0.36058 0.31864 0.0
C202 C 0.26402 0.34007 0.30741 0.0
C203 C 0.29293 0.35534 0.30317 0.0
C204 C 0.25582 0.3285 0.32699 0.0
C205 C 0.27592 0.33377 0.34244 0.0
U206 U 0.37776 0.38226 0.36574 0.0
O207 O 0.39208 0.41885 0.38639 0.0
O208 O 0.38869 0.37785 0.39779 0.0
C209 C 0.39422 0.40425 0.40214 0.0
C210 C 0.32381 0.36183 0.3563 0.0
C211 C 0.41561 0.41922 0.41783 0.0
C212 C 0.42553 0.44355 0.45058 0.0
C213 C 0.4064 0.42789 0.43557 0.0
C214 C 0.4637 0.4415 0.43066 0.0
C215 C 0.45459 0.45099 0.44831 0.0
C216 C 0.44443 0.4259 0.41551 0.0
C217 C 0.44005 0.38956 0.32758 0.0
C218 C 0.48838 0.39434 0.32824 0.0
C219 C 0.46905 0.40418 0.29713 0.0
C220 C 0.44347 0.3975 0.307 0.0
C221 C 0.49195 0.40288 0.30759 0.0
C222 C 0.4625 0.38764 0.33821 0.0
C223 C 0.41207 0.38232 0.33651 0.0
O224 O 0.33572 0.34615 0.36388 0.0
O225 O 0.34098 0.38873 0.35546 0.0
O226 O 0.4042 0.40293 0.33918 0.0
O227 O 0.4022 0.36217 0.35034 0.0
H228 H 0.33503 0.37389 0.3153 0.0
H229 H 0.29971 0.36505 0.28832 0.0
H230 H 0.23364 0.31733 0.33079 0.0
H231 H 0.2688 0.32623 0.35776 0.0
H232 H 0.41751 0.45062 0.46363 0.0
H233 H 0.38423 0.423 0.43765 0.0
H234 H 0.48578 0.44624 0.42845 0.0
H235 H 0.45203 0.41936 0.40198 0.0
H236 H 0.50559 0.39303 0.3367 0.0
H237 H 0.47103 0.41135 0.28144 0.0
H238 H 0.42625 0.3988 0.2985 0.0
H239 H 0.46011 0.38119 0.35408 0.0
C240 C 0.91411 0.65766 0.84311 0.0
C241 C 0.92675 0.66465 0.82367 0.0
C242 C 0.88692 0.67331 0.81121 0.0
C243 C 0.91332 0.67267 0.80786 0.0
C244 C 0.87477 0.66678 0.83076 0.0
C245 C 0.88828 0.6592 0.84651 0.0
U246 U 0.96571 0.62963 0.86738 0.0
O247 O 0.98259 0.63521 0.89888 0.0
O248 O 0.9533 0.59321 0.88823 0.0
C249 C 0.96809 0.60842 0.90355 0.0
C250 C 0.92597 0.64703 0.85994 0.0
C251 C 0.97993 0.59472 0.91833 0.0
C252 C 0.97771 0.57583 0.95279 0.0
C253 C 0.97023 0.59164 0.9386 0.0
C254 C 0.00609 0.56698 0.92692 0.0
C255 C 0.99529 0.56266 0.94711 0.0
C256 C 0.9983 0.58261 0.91263 0.0
C257 C 0.0218 0.62611 0.82815 0.0
C258 C 0.04761 0.59696 0.82628 0.0
C259 C 0.04728 0.62575 0.79725 0.0
C260 C 0.03097 0.63614 0.8084 0.0
C261 C 0.05477 0.60515 0.80577 0.0
C262 C 0.03099 0.60724 0.83739 0.0
C263 C 0.99921 0.63231 0.83683 0.0
O264 O 0.9222 0.62063 0.85848 0.0
O265 O 0.95109 0.66372 0.8668 0.0
O266 O 0.00569 0.65238 0.85056 0.0
O267 O 0.97505 0.61056 0.84028 0.0
H268 H 0.94661 0.66341 0.82065 0.0
H269 H 0.92306 0.67746 0.79287 0.0
H270 H 0.85458 0.66729 0.83382 0.0
H271 H 0.87815 0.65391 0.86135 0.0
H272 H 0.96863 0.57296 0.96796 0.0
H273 H 0.95588 0.60068 0.94332 0.0
H274 H 0.02026 0.55788 0.92197 0.0
H275 H 0.00611 0.58468 0.8971 0.0
H276 H 0.05342 0.58134 0.83329 0.0
H277 H 0.05202 0.63219 0.78145 0.0
H278 H 0.0238 0.65056 0.80102 0.0
H279 H 0.02402 0.59927 0.85265 0.0
C280 C 0.35524 0.3021 0.83744 0.0
C281 C 0.35374 0.30704 0.81643 0.0
C282 C 0.3373 0.25635 0.80921 0.0
C283 C 0.34471 0.28438 0.80247 0.0
C284 C 0.33876 0.25199 0.83038 0.0
C285 C 0.34723 0.27437 0.84417 0.0
U286 U 0.37994 0.37893 0.85871 0.0
O287 O 0.37577 0.39151 0.8904 0.0
O288 O 0.41829 0.40349 0.87668 0.0
C289 C 0.40331 0.40436 0.89261 0.0
C290 C 0.36683 0.32494 0.85282 0.0
C291 C 0.41654 0.41877 0.91177 0.0
C292 C 0.42378 0.41692 0.94831 0.0
C293 C 0.41082 0.4037 0.93018 0.0
C294 C 0.44768 0.46099 0.93008 0.0
C295 C 0.4422 0.44595 0.94872 0.0
C296 C 0.43524 0.44746 0.91181 0.0
C297 C 0.37367 0.43434 0.82064 0.0
C298 C 0.39398 0.48557 0.82126 0.0
C299 C 0.37173 0.46038 0.79054 0.0
C300 C 0.36512 0.43488 0.80054 0.0
C301 C 0.38681 0.48617 0.80054 0.0
C302 C 0.38767 0.45976 0.83123 0.0
C303 C 0.37038 0.40692 0.82865 0.0
O304 O 0.39196 0.34505 0.84913 0.0
O305 O 0.34936 0.33426 0.86104 0.0
O306 O 0.35217 0.39539 0.84353 0.0
O307 O 0.39364 0.40318 0.83032 0.0
H308 H 0.35987 0.32835 0.8108 0.0
H309 H 0.3437 0.28897 0.78645 0.0
H310 H 0.33435 0.23134 0.83655 0.0
H311 H 0.34841 0.27002 0.86024 0.0
H312 H 0.41948 0.404 0.96192 0.0
H313 H 0.3967 0.38146 0.93049 0.0
H314 H 0.46123 0.48333 0.92951 0.0
H315 H 0.43992 0.45954 0.89774 0.0
H316 H 0.40528 0.50497 0.82956 0.0
H317 H 0.36643 0.4596 0.77452 0.0
H318 H 0.35456 0.41541 0.79211 0.0
H319 H 0.39452 0.45966 0.84681 0.0
C320 C 0.72225 0.07565 0.83443 0.0
C321 C 0.72111 0.06949 0.81349 0.0
C322 C 0.7687 0.10736 0.80836 0.0
C323 C 0.74419 0.08508 0.80059 0.0
C324 C 0.76907 0.11329 0.8294 0.0
C325 C 0.74647 0.0975 0.84216 0.0
U326 U 0.65074 0.02791 0.86615 0.0
O327 O 0.63812 0.05039 0.88952 0.0
O328 O 0.65179 0.01779 0.89893 0.0
C329 C 0.64062 0.03504 0.90463 0.0
C330 C 0.69863 0.06109 0.84884 0.0
C331 C 0.61649 0.02401 0.91913 0.0
C332 C 0.59993 0.01755 0.95446 0.0
C333 C 0.62168 0.02327 0.9401 0.0
C334 C 0.56707 0.01171 0.92699 0.0
C335 C 0.57256 0.01266 0.9481 0.0
C336 C 0.58875 0.01727 0.91267 0.0
C337 C 0.59695 0.97547 0.82707 0.0
C338 C 0.55269 0.94326 0.81218 0.0
C339 C 0.58461 0.98383 0.79293 0.0
C340 C 0.60411 0.99102 0.80884 0.0
C341 C 0.5578 0.96142 0.79538 0.0
C342 C 0.57228 0.95032 0.82802 0.0
C343 C 0.60913 0.98873 0.84651 0.0
O344 O 0.67621 0.06651 0.84863 0.0
O345 O 0.69475 0.0369 0.8574 0.0
O346 O 0.61161 0.01466 0.84895 0.0
O347 O 0.62984 0.98408 0.85457 0.0
H348 H 0.70248 0.05278 0.80713 0.0
H349 H 0.74274 0.07946 0.78462 0.0
H350 H 0.78654 0.13069 0.83625 0.0
H351 H 0.74772 0.10286 0.85822 0.0
H352 H 0.60493 0.01855 0.97056 0.0
H353 H 0.64288 0.02843 0.94545 0.0
H354 H 0.54612 0.00754 0.92156 0.0
H355 H 0.58404 0.01746 0.89658 0.0
H356 H 0.53211 0.92601 0.81444 0.0
H357 H 0.58889 0.99808 0.78003 0.0
H358 H 0.62306 0.01051 0.80785 0.0
H359 H 0.56642 0.93813 0.84204 0.0
C360 C 0.3568 0.0893 0.67689 0.0
C361 C 0.35646 0.0815 0.69745 0.0
C362 C 0.3408 0.11788 0.70794 0.0
C363 C 0.34843 0.09557 0.71281 0.0
C364 C 0.3407 0.12505 0.68724 0.0
C365 C 0.34855 0.11095 0.672 0.0
U366 U 0.38493 0.04189 0.64283 0.0
O367 O 0.41871 0.06325 0.62048 0.0
O368 O 0.37678 0.0345 0.60979 0.0
C369 C 0.40318 0.05025 0.60478 0.0
C370 C 0.36748 0.07734 0.6601 0.0
C371 C 0.41683 0.03837 0.59005 0.0
C372 C 0.4409 0.043 0.55741 0.0
C373 C 0.42541 0.05166 0.57105 0.0
C374 C 0.43859 0.00664 0.58127 0.0
C375 C 0.44818 0.02062 0.56237 0.0
C376 C 0.42326 0.01554 0.59502 0.0
C377 C 0.38768 0.98298 0.67981 0.0
C378 C 0.40749 0.95412 0.69669 0.0
C379 C 0.38561 0.97869 0.71658 0.0
C380 C 0.37908 0.98926 0.69865 0.0
C381 C 0.40194 0.96289 0.71582 0.0
C382 C 0.40026 0.96402 0.67887 0.0
C383 C 0.38897 0.99921 0.66134 0.0
O384 O 0.39375 0.08032 0.6608 0.0
O385 O 0.35029 0.0541 0.65092 0.0
O386 O 0.40957 0.02466 0.66055 0.0
O387 O 0.36539 0.99728 0.65294 0.0
H388 H 0.36289 0.06498 0.70164 0.0
H389 H 0.34902 0.0895 0.72855 0.0
H390 H 0.33452 0.14163 0.68274 0.0
H391 H 0.34871 0.11742 0.65624 0.0
H392 H 0.44805 0.05467 0.54329 0.0
H393 H 0.42083 0.06943 0.56698 0.0
H394 H 0.44311 0.98893 0.58559 0.0
H395 H 0.4169 0.00495 0.60963 0.0
H396 H 0.41998 0.94209 0.69529 0.0
H397 H 0.38006 0.98498 0.73107 0.0
H398 H 0.36915 1.00376 0.69959 0.0
H399 H 0.40692 0.95892 0.66433 0.0
C400 C 0.92449 0.2821 0.67692 0.0
C401 C 0.92928 0.29032 0.69747 0.0
C402 C 0.89971 0.24186 0.70871 0.0
C403 C 0.91702 0.27044 0.71318 0.0
C404 C 0.89566 0.23379 0.68805 0.0
C405 C 0.90786 0.25365 0.67242 0.0
U406 U 0.97097 0.35525 0.65224 0.0
O407 O 0.98974 0.36373 0.6212 0.0
O408 O 0.95773 0.37898 0.62992 0.0
C409 C 0.97429 0.37692 0.61546 0.0
C410 C 0.93489 0.30271 0.65983 0.0
C411 C 0.98468 0.39876 0.5991 0.0
C412 C 0.99112 0.40743 0.56247 0.0
C413 C 0.9868 0.38959 0.57932 0.0
C414 C 0.9933 0.44509 0.58481 0.0
C415 C 0.99361 0.43515 0.56484 0.0
C416 C 0.98859 0.42694 0.60182 0.0
C417 C 0.02234 0.41085 0.6908 0.0
C418 C 0.04311 0.46204 0.69163 0.0
C419 C 0.04814 0.43552 0.72061 0.0
C420 C 0.03331 0.41045 0.7102 0.0
C421 C 0.05221 0.46149 0.71178 0.0
C422 C 0.02806 0.43675 0.68119 0.0
C423 C 1.00165 0.38396 0.68288 0.0
O424 O 0.9283 0.32436 0.66064 0.0
O425 O 0.96085 0.30966 0.65345 0.0
O426 O 0.01036 0.36989 0.6701 0.0
O427 O 0.97654 0.38266 0.67866 0.0
H428 H 0.94199 0.31216 0.70136 0.0
H429 H 0.9205 0.27773 0.72881 0.0
H430 H 0.88305 0.21206 0.68387 0.0
H431 H 0.9039 0.2468 0.65669 0.0
H432 H 0.99147 0.39911 0.54738 0.0
H433 H 0.98363 0.36796 0.57674 0.0
H434 H 0.99507 0.4663 0.58715 0.0
H435 H 0.98689 0.43456 0.6169 0.0
H436 H 0.04585 0.48179 0.68454 0.0
H437 H 0.05513 0.43449 0.73603 0.0
H438 H 0.02894 0.3906 0.71784 0.0
H439 H 0.01959 0.43736 0.66621 0.0
C440 C 0.7049 0.65543 0.67866 0.0
C441 C 0.69892 0.64695 0.69918 0.0
C442 C 0.74872 0.67308 0.70827 0.0
C443 C 0.72056 0.65571 0.7138 0.0
C444 C 0.75422 0.6825 0.68787 0.0
C445 C 0.73261 0.67382 0.67332 0.0
U446 U 0.62956 0.62903 0.65569 0.0
O447 O 0.61661 0.6321 0.624 0.0
O448 O 0.60562 0.58997 0.63812 0.0
C449 C 0.60404 0.60449 0.62213 0.0
C450 C 0.68361 0.64338 0.66221 0.0
C451 C 0.59071 0.59097 0.60277 0.0
C452 C 0.59475 0.57922 0.56738 0.0
C453 C 0.60726 0.59269 0.58556 0.0
C454 C 0.54864 0.56297 0.58308 0.0
C455 C 0.5651 0.56436 0.5656 0.0
C456 C 0.56135 0.57583 0.60146 0.0
C457 C 0.57178 0.63357 0.69143 0.0
C458 C 0.52138 0.60427 0.69225 0.0
C459 C 0.54265 0.64062 0.71772 0.0
C460 C 0.56888 0.64838 0.70841 0.0
C461 C 0.5188 0.61777 0.71024 0.0
C462 C 0.54776 0.6121 0.68291 0.0
C463 C 0.60042 0.63831 0.68516 0.0
O464 O 0.66387 0.61785 0.66534 0.0
O465 O 0.67404 0.66034 0.65347 0.0
O466 O 0.61232 0.65655 0.67037 0.0
O467 O 0.60532 0.61564 0.68409 0.0
H468 H 0.6777 0.63294 0.70384 0.0
H469 H 0.71521 0.64847 0.7294 0.0
H470 H 0.77549 0.69561 0.68281 0.0
H471 H 0.73781 0.68065 0.65762 0.0
H472 H 0.60873 0.58027 0.5549 0.0
H473 H 0.63001 0.60403 0.58628 0.0
H474 H 0.52588 0.55232 0.58269 0.0
H475 H 0.54815 0.57424 0.61463 0.0
H476 H 0.50345 0.58643 0.6862 0.0
H477 H 0.54129 0.65165 0.73138 0.0
H478 H 0.58724 0.66498 0.71518 0.0
H479 H 0.54965 0.60038 0.6698 0.0
H480 H 0.23005 0.30379 0.27716 0.0
H481 H 0.25025 0.38373 0.30741 0.0
H482 H 0.21577 0.39197 0.28598 0.0
H483 H 0.22188 0.32609 0.22684 0.0
H484 H 0.19196 0.29414 0.21988 0.0
H485 H 0.21686 0.29292 0.23842 0.0
H486 H 0.17645 0.26934 0.26444 0.0
H487 H 0.15138 0.27049 0.24599 0.0
H488 H 0.15363 0.28624 0.27075 0.0
H489 H 0.18138 0.39314 0.26181 0.0
H490 H 0.14871 0.38861 0.23394 0.0
H491 H 0.14899 0.30824 0.21699 0.0
C492 C 0.22699 0.32291 0.27918 0.0
C493 C 0.24283 0.34332 0.29387 0.0
C494 C 0.23838 0.36803 0.2962 0.0
C495 C 0.21878 0.37282 0.28416 0.0
C496 C 0.20361 0.35265 0.26978 0.0
C497 C 0.20729 0.32815 0.26708 0.0
C498 C 0.18831 0.31063 0.24991 0.0
C499 C 0.20581 0.30567 0.23274 0.0
C500 C 0.16613 0.2825 0.25827 0.0
C501 C 0.17453 0.32986 0.24298 0.0
C502 C 0.18339 0.35356 0.25513 0.0
C503 C 0.17403 0.3746 0.25224 0.0
C504 C 0.15521 0.37168 0.23639 0.0
C505 C 0.14577 0.34792 0.22334 0.0
C506 C 0.15567 0.32664 0.22671 0.0
H507 H 0.63209 0.75349 0.23467 0.0
H508 H 0.72124 0.78594 0.21979 0.0
H509 H 0.73105 0.82508 0.24411 0.0
H510 H 0.62812 0.81909 0.2395 0.0
H511 H 0.60377 0.80811 0.26071 0.0
H512 H 0.60408 0.78247 0.24248 0.0
H513 H 0.61225 0.75303 0.27166 0.0
H514 H 0.61172 0.77846 0.29001 0.0
H515 H 0.6416 0.76968 0.28872 0.0
H516 H 0.7307 0.86109 0.27074 0.0
H517 H 0.7199 0.89059 0.29594 0.0
H518 H 0.63114 0.83363 0.29297 0.0
C519 C 0.6538 0.76846 0.2367 0.0
C520 C 0.67586 0.76634 0.22528 0.0
C521 C 0.70385 0.78706 0.22817 0.0
C522 C 0.70968 0.80934 0.24207 0.0
C523 C 0.68733 0.8107 0.25303 0.0
C524 C 0.65998 0.79073 0.25046 0.0
C525 C 0.63958 0.79692 0.26381 0.0
C526 C 0.61759 0.80195 0.25084 0.0
C527 C 0.62545 0.77311 0.27948 0.0
C528 C 0.65953 0.82376 0.27408 0.0
C529 C 0.68707 0.83133 0.26788 0.0
C530 C 0.70916 0.8553 0.27563 0.0
C531 C 0.70284 0.87189 0.28999 0.0
C532 C 0.67463 0.86462 0.29632 0.0
C533 C 0.65285 0.84012 0.28821 0.0
H534 H 0.14417 0.76685 0.27431 0.0
H535 H 0.12875 0.82687 0.31272 0.0
H536 H 0.16014 0.86559 0.29097 0.0
H537 H 0.21406 0.80593 0.2623 0.0
H538 H 0.21164 0.79641 0.2357 0.0
H539 H 0.18698 0.77283 0.25381 0.0
H540 H 0.14518 0.77284 0.2326 0.0
H541 H 0.1697 0.79625 0.21423 0.0
H542 H 0.14394 0.80592 0.22624 0.0
H543 H 0.19785 0.89877 0.26725 0.0
H544 H 0.23394 0.9228 0.24071 0.0
H545 H 0.22063 0.84153 0.21537 0.0
C546 C 0.14668 0.78793 0.27806 0.0
C547 C 0.13435 0.79334 0.29596 0.0
C548 C 0.13869 0.8217 0.29985 0.0
C549 C 0.15632 0.84407 0.28736 0.0
C550 C 0.16886 0.83799 0.27041 0.0
C551 C 0.16357 0.81056 0.26537 0.0
C552 C 0.17924 0.80982 0.24599 0.0
C553 C 0.19916 0.79539 0.24969 0.0
C554 C 0.15827 0.79534 0.22874 0.0
C555 C 0.19554 0.84114 0.24171 0.0
C556 C 0.1891 0.85706 0.25591 0.0
C557 C 0.20271 0.88649 0.25584 0.0
C558 C 0.22335 0.89998 0.24082 0.0
C559 C 0.23008 0.88411 0.22595 0.0
C560 C 0.21571 0.85428 0.22638 0.0
H561 H 0.75387 0.63956 0.73924 0.0
H562 H 0.79798 0.72215 0.7113 0.0
H563 H 0.83851 0.73152 0.73412 0.0
H564 H 0.7776 0.66157 0.79097 0.0
H565 H 0.78016 0.629 0.79698 0.0
H566 H 0.75482 0.62932 0.77847 0.0
H567 H 0.77601 0.60694 0.75174 0.0
H568 H 0.80161 0.60684 0.77007 0.0
H569 H 0.81313 0.62424 0.74578 0.0
H570 H 0.87597 0.7304 0.75942 0.0
H571 H 0.9041 0.72012 0.78619 0.0
H572 H 0.83373 0.63986 0.79841 0.0
C573 C 0.7717 0.65991 0.73809 0.0
C574 C 0.77246 0.67999 0.72324 0.0
C575 C 0.7968 0.70607 0.7222 0.0
C576 C 0.81998 0.7117 0.73522 0.0
C577 C 0.81859 0.69119 0.74941 0.0
C578 C 0.79487 0.66597 0.75103 0.0
C579 C 0.79847 0.64726 0.7674 0.0
C580 C 0.77645 0.64145 0.78447 0.0
C581 C 0.79722 0.61969 0.75819 0.0
C582 C 0.82787 0.66574 0.77483 0.0
C583 C 0.8394 0.69095 0.76418 0.0
C584 C 0.86694 0.7108 0.76793 0.0
C585 C 0.88284 0.70476 0.78305 0.0
C586 C 0.87102 0.67928 0.79439 0.0
C587 C 0.8432 0.65964 0.79011 0.0
H588 H 0.35208 0.25591 0.76798 0.0
H589 H 0.30309 0.19986 0.81671 0.0
H590 H 0.29702 0.15903 0.79574 0.0
H591 H 0.30423 0.20671 0.72726 0.0
H592 H 0.33304 0.21663 0.70932 0.0
H593 H 0.33201 0.2419 0.72769 0.0
H594 H 0.38164 0.24972 0.74041 0.0
H595 H 0.38278 0.22435 0.72233 0.0
H596 H 0.38764 0.21988 0.74914 0.0
H597 H 0.30128 0.12385 0.77132 0.0
H598 H 0.31127 0.09728 0.74368 0.0
H599 H 0.3537 0.17518 0.70941 0.0
C600 C 0.33948 0.2352 0.77422 0.0
C601 C 0.32929 0.23171 0.79467 0.0
C602 C 0.31268 0.20375 0.80171 0.0
C603 C 0.3086 0.18012 0.78973 0.0
C604 C 0.32008 0.18437 0.77018 0.0
C605 C 0.33431 0.21117 0.76216 0.0
C606 C 0.34395 0.20963 0.74046 0.0
C607 C 0.32733 0.2193 0.72528 0.0
C608 C 0.37591 0.22692 0.73796 0.0
C609 C 0.33564 0.17811 0.73845 0.0
C610 C 0.32119 0.16386 0.75558 0.0
C611 C 0.31228 0.13477 0.7577 0.0
C612 C 0.31836 0.11986 0.74197 0.0
C613 C 0.33345 0.13393 0.72426 0.0
C614 C 0.34183 0.16352 0.72252 0.0
H615 H 0.84691 0.19639 0.70861 0.0
H616 H 0.92027 0.23909 0.747 0.0
H617 H 0.89615 0.20664 0.77525 0.0
H618 H 0.79452 0.18425 0.74407 0.0
H619 H 0.77163 0.14897 0.73612 0.0
H620 H 0.7956 0.17337 0.71807 0.0
H621 H 0.81725 0.13786 0.71037 0.0
H622 H 0.79318 0.11328 0.72842 0.0
H623 H 0.83064 0.1243 0.73109 0.0
H624 H 0.86385 0.17032 0.79968 0.0
H625 H 0.82481 0.13599 0.8195 0.0
H626 H 0.77049 0.11866 0.76625 0.0
C627 C 0.85825 0.19866 0.72279 0.0
C628 C 0.88562 0.22075 0.72544 0.0
C629 C 0.89922 0.22291 0.7445 0.0
C630 C 0.88578 0.20429 0.76064 0.0
C631 C 0.85877 0.18318 0.75756 0.0
C632 C 0.84519 0.1801 0.73909 0.0
C633 C 0.81573 0.15618 0.74016 0.0
C634 C 0.79303 0.16633 0.73427 0.0
C635 C 0.8141 0.13145 0.7267 0.0
C636 C 0.81397 0.14813 0.7626 0.0
C637 C 0.83951 0.16311 0.77204 0.0
C638 C 0.8436 0.15884 0.79249 0.0
C639 C 0.82085 0.13942 0.80377 0.0
C640 C 0.79359 0.12505 0.795 0.0
C641 C 0.7906 0.12912 0.77381 0.0
H642 H 0.01836 0.49907 0.05521 0.0
H643 H 0.01956 0.42924 0.01971 0.0
H644 H 0.01307 0.45129 0.98842 0.0
H645 H 0.96208 0.50519 0.0235 0.0
H646 H 0.97635 0.54303 0.02584 0.0
H647 H 0.98132 0.52211 0.0461 0.0
H648 H 0.03535 0.55158 0.04377 0.0
H649 H 0.03049 0.57238 0.02341 0.0
H650 H 0.05309 0.55447 0.01963 0.0
H651 H 0.00835 0.48071 0.96056 0.0
H652 H 1.00117 0.51424 0.9376 0.0
H653 H 1.00048 0.56528 0.9898 0.0
C654 C 0.01693 0.4882 0.04092 0.0
C655 C 0.02058 0.46265 0.04019 0.0
C656 C 0.01822 0.4493 0.02096 0.0
C657 C 0.01418 0.46154 1.00294 0.0
C658 C 0.0116 0.48692 1.00412 0.0
C659 C 0.01226 0.49992 0.02257 0.0
C660 C 0.0079 0.52676 0.01917 0.0
C661 C 0.98027 0.52411 0.02926 0.0
C662 C 0.03323 0.55284 0.02696 0.0
C663 C 0.00578 0.52712 0.99596 0.0
C664 C 0.00786 0.50377 0.98774 0.0
C665 C 0.00666 0.49913 0.96679 0.0
C666 C 1.00291 0.51864 0.95379 0.0
C667 C 1.00056 0.54291 0.96158 0.0
C668 C 1.00203 0.54703 0.98313 0.0
H669 H 0.49319 0.4934 0.95516 0.0
H670 H 0.4208 0.43173 0.98784 0.0
H671 H 0.44288 0.45222 0.02027 0.0
H672 H 0.54679 0.49835 0.9899 0.0
H673 H 0.5661 0.53612 0.98799 0.0
H674 H 0.54519 0.51651 0.9668 0.0
H675 H 0.51758 0.54782 0.96685 0.0
H676 H 0.53866 0.56768 0.98792 0.0
H677 H 0.50075 0.55139 0.99006 0.0
H678 H 0.47271 0.47834 0.04953 0.0
H679 H 0.50677 0.51091 0.07362 0.0
H680 H 0.55929 0.55755 0.02266 0.0
C681 C 0.48162 0.48425 0.96901 0.0
C682 C 0.45528 0.46012 0.9685 0.0
C683 C 0.44138 0.44926 0.98737 0.0
C684 C 0.45363 0.46103 1.00606 0.0
C685 C 0.47961 0.48427 1.00593 0.0
C686 C 0.49326 0.49616 0.98793 0.0
C687 C 0.5206 0.52185 0.99225 0.0
C688 C 0.54618 0.51796 0.98373 0.0
C689 C 0.51932 0.54878 0.98376 0.0
C690 C 0.52051 0.52185 0.01546 0.0
C691 C 0.49657 0.50002 0.02296 0.0
C692 C 0.49157 0.49556 0.04384 0.0
C693 C 0.51134 0.51408 0.05746 0.0
C694 C 0.5361 0.53691 0.05029 0.0
C695 C 0.54062 0.54059 0.02886 0.0
H696 H 0.47745 0.96884 0.05069 0.0
H697 H 0.4392 0.02325 0.02875 0.0
H698 H 0.46993 0.03517 0.99847 0.0
H699 H 0.54936 0.01372 0.03314 0.0
H700 H 0.55697 0.98438 0.02576 0.0
H701 H 0.53245 0.98033 0.04625 0.0
H702 H 0.4944 0.93784 0.02752 0.0
H703 H 0.51876 0.94195 1.0069 0.0
H704 H 0.485 0.94227 1.0017 0.0
H705 H 0.50265 0.04003 0.97005 0.0
H706 H 0.53824 0.03989 0.94544 0.0
H707 H 0.55753 0.98359 0.98511 0.0
C708 C 0.47587 0.98359 0.03966 0.0
C709 C 0.45558 0.99487 0.04207 0.0
C710 C 0.45409 0.01389 0.02713 0.0
C711 C 0.47159 0.02093 0.00989 0.0
C712 C 0.49081 0.00904 1.00773 0.0
C713 C 0.49337 0.99098 0.02221 0.0
C714 C 0.51573 0.98102 0.01574 0.0
C715 C 0.54008 0.99044 0.03115 0.0
C716 C 0.50269 0.94885 0.01279 0.0
C717 C 0.52525 0.9964 0.99544 0.0
C718 C 0.51034 0.01224 0.99117 0.0
C719 C 0.51456 0.02779 0.97322 0.0
C720 C 0.5347 0.02738 0.95924 0.0
C721 C 0.55061 0.01159 0.96318 0.0
C722 C 0.54582 0.99596 0.98166 0.0
H723 H 0.45178 0.02314 0.5198 0.0
H724 H 0.48813 1.00155 0.5732 0.0
H725 H 0.52024 0.99078 0.55097 0.0
H726 H 0.45547 0.97094 0.48592 0.0
H727 H 0.4655 0.99393 0.46391 0.0
H728 H 0.44477 0.99953 0.48399 0.0
H729 H 0.48215 0.05099 0.48787 0.0
H730 H 0.50314 0.04555 0.4679 0.0
H731 H 0.51837 0.05762 0.49265 0.0
H732 H 0.55051 0.98514 0.52365 0.0
H733 H 0.57453 0.98075 0.49272 0.0
H734 H 0.51796 1.00366 0.45591 0.0
C735 C 0.46654 0.0163 0.52694 0.0
C736 C 0.46698 0.01309 0.54849 0.0
C737 C 0.48661 1.00368 0.55687 0.0
C738 C 0.5053 0.99779 0.54434 0.0
C739 C 0.50445 1.0015 0.52334 0.0
C740 C 0.48555 0.01042 0.51463 0.0
C741 C 0.48933 0.01277 0.49155 0.0
C742 C 0.46214 0.99311 0.4807 0.0
C743 C 0.4988 0.04356 0.48458 0.0
C744 C 0.51285 1.0031 0.48865 0.0
C745 C 0.52147 0.99723 0.5073 0.0
C746 C 0.54354 0.9891 0.50891 0.0
C747 C 0.55688 0.98631 0.49103 0.0
C748 C 0.5478 0.99078 0.47142 0.0
C749 C 0.5256 0.99981 0.47041 0.0
H750 H 0.02902 0.49097 0.55431 0.0
H751 H 0.95705 0.41696 0.53324 0.0
H752 H 0.95566 0.44213 0.50176 0.0
H753 H 0.00656 0.54325 0.53331 0.0
H754 H 0.04153 0.56764 0.52565 0.0
H755 H 0.03685 0.54446 0.54715 0.0
H756 H 0.07006 0.52516 0.53027 0.0
H757 H 0.07495 0.54839 0.50878 0.0
H758 H 0.06259 0.51095 0.5048 0.0
H759 H 0.96113 0.47469 0.47273 0.0
H760 H 0.97435 0.51232 0.44697 0.0
H761 H 0.04482 0.56548 0.48486 0.0
C762 C 0.01287 0.48022 0.54312 0.0
C763 C 0.99316 0.45183 0.5463 0.0
C764 C 0.97254 0.43849 0.53114 0.0
C765 C 0.97148 0.45268 0.5132 0.0
C766 C 0.99125 0.48037 0.51038 0.0
C767 C 0.01167 0.49409 0.52481 0.0
C768 C 0.0308 0.52372 0.51741 0.0
C769 C 0.02881 0.54609 0.53174 0.0
C770 C 0.06142 0.52725 0.51518 0.0
C771 C 0.01788 0.52431 0.49666 0.0
C772 C 0.99496 0.4991 0.49309 0.0
C773 C 0.97925 0.49447 0.47524 0.0
C774 C 0.98719 0.51604 0.46052 0.0
C775 C 0.01098 0.5421 0.4634 0.0
C776 C 0.02639 0.54611 0.48195 0.0
H777 H 0.44813 0.45384 0.49051 0.0
H778 H 0.50802 0.4918 0.44109 0.0
H779 H 0.54156 0.5242 0.46551 0.0
H780 H 0.46411 0.51986 0.51723 0.0
H781 H 0.45999 0.50429 0.5423 0.0
H782 H 0.44027 0.48338 0.52111 0.0
H783 H 0.4605 0.44662 0.5281 0.0
H784 H 0.48007 0.46726 0.5494 0.0
H785 H 0.4982 0.45801 0.52924 0.0
H786 H 0.56757 0.5547 0.49436 0.0
H787 H 0.58676 0.57855 0.5264 0.0
H788 H 0.51209 0.51933 0.55848 0.0
C789 C 0.46822 0.46901 0.48472 0.0
C790 C 0.47526 0.46986 0.46364 0.0
C791 C 0.50206 0.49002 0.45704 0.0
C792 C 0.52125 0.50886 0.4708 0.0
C793 C 0.51352 0.50759 0.49126 0.0
C794 C 0.48776 0.48813 0.49829 0.0
C795 C 0.48498 0.49142 0.52117 0.0
C796 C 0.4609 0.50026 0.52572 0.0
C797 C 0.48069 0.4642 0.53266 0.0
C798 C 0.51354 0.51527 0.52591 0.0
C799 C 0.52929 0.52457 0.50829 0.0
C800 C 0.55571 0.54717 0.50837 0.0
C801 C 0.56666 0.56041 0.52695 0.0
C802 C 0.5518 0.55064 0.54567 0.0
C803 C 0.52451 0.52775 0.54484 0.0
H804 H 0.94359 0.53006 0.26796 0.0
H805 H 0.96249 0.49644 0.32376 0.0
H806 H 0.95318 0.45193 0.30632 0.0
H807 H 0.8895 0.4584 0.24776 0.0
H808 H 0.90163 0.46838 0.22193 0.0
H809 H 0.9019 0.49473 0.23982 0.0
H810 H 0.95512 0.52407 0.23278 0.0
H811 H 0.95518 0.49798 0.21501 0.0
H812 H 0.9793 0.50786 0.23623 0.0
H813 H 0.9546 0.41747 0.28192 0.0
H814 H 0.96366 0.39377 0.25253 0.0
H815 H 0.94147 0.44705 0.21171 0.0
C816 C 0.9448 0.51295 0.27668 0.0
C817 C 0.95361 0.51674 0.2973 0.0
C818 C 0.95516 0.49394 0.30814 0.0
C819 C 0.95002 0.46853 0.29831 0.0
C820 C 0.94292 0.46603 0.27773 0.0
C821 C 0.93972 0.48738 0.26707 0.0
C822 C 0.93544 0.48061 0.24451 0.0
C823 C 0.90532 0.47521 0.23813 0.0
C824 C 0.9576 0.50401 0.23138 0.0
C825 C 0.93957 0.45359 0.24394 0.0
C826 C 0.94302 0.44517 0.26336 0.0
C827 C 0.95079 0.42308 0.26668 0.0
C828 C 0.95575 0.40958 0.24973 0.0
C829 C 0.95289 0.41809 0.22958 0.0
C830 C 0.94377 0.43985 0.22681 0.0
H831 H 0.50305 0.39572 0.2676 0.0
H832 H 0.54372 0.43511 0.32401 0.0
H833 H 0.58724 0.46292 0.30504 0.0
H834 H 0.57225 0.40389 0.23919 0.0
H835 H 0.55866 0.41132 0.21573 0.0
H836 H 0.535 0.38664 0.23393 0.0
H837 H 0.50489 0.4154 0.2347 0.0
H838 H 0.52828 0.44001 0.2167 0.0
H839 H 0.52154 0.45245 0.24092 0.0
H840 H 0.62044 0.49526 0.28037 0.0
H841 H 0.6396 0.52973 0.25238 0.0
H842 H 0.57606 0.47262 0.21163 0.0
C843 C 0.52147 0.40948 0.27604 0.0
C844 C 0.51989 0.4133 0.29729 0.0
C845 C 0.54443 0.4314 0.30781 0.0
C846 C 0.56934 0.44737 0.29711 0.0
C847 C 0.56949 0.44483 0.27594 0.0
C848 C 0.54626 0.42597 0.2655 0.0
C849 C 0.54977 0.43096 0.24268 0.0
C850 C 0.55419 0.40677 0.23226 0.0
C851 C 0.52465 0.43499 0.23324 0.0
C852 C 0.57666 0.45787 0.24218 0.0
C853 C 0.58856 0.46455 0.26137 0.0
C854 C 0.61169 0.48997 0.2652 0.0
C855 C 0.62222 0.50959 0.24927 0.0
C856 C 0.6092 0.50397 0.22988 0.0
C857 C 0.58688 0.47729 0.22615 0.0
H858 H 0.50222 0.08261 0.22884 0.0
H859 H 0.43524 1.00373 0.24991 0.0
H860 H 0.46507 1.00175 0.27777 0.0
H861 H 0.55678 0.06246 0.23551 0.0
H862 H 0.5827 0.0957 0.24479 0.0
H863 H 0.55484 0.095 0.22837 0.0
H864 H 0.53968 0.12218 0.25529 0.0
H865 H 0.56786 0.12336 0.2717 0.0
H866 H 0.53204 0.10874 0.28103 0.0
H867 H 0.50174 1.00365 0.30015 0.0
H868 H 0.54535 0.01023 0.31775 0.0
H869 H 0.59175 0.08613 0.28223 0.0
C870 C 0.49361 0.06524 0.23956 0.0
C871 C 0.46593 0.04364 0.23727 0.0
C872 C 0.45573 0.02118 0.2516 0.0
C873 C 0.47269 0.01963 0.26745 0.0
C874 C 0.49991 0.04061 0.26887 0.0
C875 C 0.51048 0.06313 0.2555 0.0
C876 C 0.54146 0.08138 0.25981 0.0
C877 C 0.56003 0.08374 0.241 0.0
C878 C 0.5455 0.11066 0.26741 0.0
C879 C 0.54676 0.06444 0.27685 0.0
C880 C 0.52212 0.04147 0.28201 0.0
C881 C 0.52109 0.0219 0.2967 0.0
C882 C 0.54593 0.02591 0.30667 0.0
C883 C 0.57155 0.04916 0.30181 0.0
C884 C 0.57217 0.06864 0.28655 0.0
H885 H 0.03671 0.54837 0.80507 0.0
H886 H 0.09451 0.62495 0.77489 0.0
H887 H 0.10441 0.59616 0.74864 0.0
H888 H 0.07491 0.50413 0.7941 0.0
H889 H 0.04229 0.47347 0.79007 0.0
H890 H 0.04351 0.50027 0.80784 0.0
H891 H 1.00261 0.50543 0.78838 0.0
H892 H 1.00143 0.47887 0.77053 0.0
H893 H 0.00643 0.51328 0.76143 0.0
H894 H 0.10294 0.55841 0.72344 0.0
H895 H 0.09085 0.5155 0.70229 0.0
H896 H 0.03408 0.46518 0.74991 0.0
C897 C 0.05244 0.5592 0.79351 0.0
C898 C 0.06525 0.58888 0.79226 0.0
C899 C 0.08464 0.60217 0.77622 0.0
C900 C 0.09043 0.58601 0.7613 0.0
C901 C 0.07673 0.55669 0.76273 0.0
C902 C 0.05829 0.54351 0.77856 0.0
C903 C 0.0439 0.512 0.7757 0.0
C904 C 0.05163 0.49655 0.79296 0.0
C905 C 0.0117 0.50182 0.7739 0.0
C906 C 0.05682 0.50936 0.75568 0.0
C907 C 0.0758 0.53524 0.74836 0.0
C908 C 0.08852 0.53798 0.72922 0.0
C909 C 0.08146 0.51362 0.7173 0.0
C910 C 0.06195 0.48703 0.72465 0.0
C911 C 0.04978 0.48505 0.74415 0.0
H912 H 0.51499 0.6098 0.75134 0.0
H913 H 0.46369 0.59664 0.69709 0.0
H914 H 0.42103 0.56912 0.71754 0.0
H915 H 0.48554 0.54557 0.76972 0.0
H916 H 0.48661 0.55411 0.79647 0.0
H917 H 0.5114 0.57877 0.77915 0.0
H918 H 0.49524 0.61731 0.7904 0.0
H919 H 0.47024 0.59262 0.80793 0.0
H920 H 0.45845 0.61037 0.78902 0.0
H921 H 0.3857 0.53719 0.74236 0.0
H922 H 0.36173 0.50028 0.76795 0.0
H923 H 0.4375 0.53228 0.80501 0.0
C924 C 0.49466 0.6023 0.74392 0.0
C925 C 0.49261 0.60565 0.72267 0.0
C926 C 0.46572 0.59439 0.71337 0.0
C927 C 0.44136 0.579 0.72491 0.0
C928 C 0.44428 0.57533 0.74574 0.0
C929 C 0.47029 0.58686 0.75517 0.0
C930 C 0.46851 0.57649 0.77693 0.0
C931 C 0.48921 0.56291 0.78075 0.0
C932 C 0.4734 0.60063 0.79196 0.0
C933 C 0.43811 0.55506 0.77759 0.0
C934 C 0.42412 0.55577 0.75986 0.0
C935 C 0.39639 0.53665 0.75638 0.0
C936 C 0.38307 0.5155 0.77095 0.0
C937 C 0.39786 0.51285 0.78841 0.0
C938 C 0.42532 0.53377 0.7921 0.0
H939 H 0.51571 0.92208 0.77138 0.0
H940 H 0.54472 0.00544 0.79828 0.0
H941 H 0.50299 0.01019 0.78524 0.0
H942 H 0.49119 0.93974 0.72535 0.0
H943 H 0.4605 0.90674 0.72278 0.0
H944 H 0.49095 0.90787 0.73625 0.0
H945 H 0.45972 0.88543 0.76787 0.0
H946 H 0.42918 0.8846 0.75455 0.0
H947 H 0.43888 0.9021 0.77886 0.0
H948 H 0.46122 0.00801 0.76917 0.0
H949 H 0.42429 1.00307 0.745 0.0
H950 H 0.41987 0.9212 0.72654 0.0
C951 C 0.51307 0.94122 0.7744 0.0
C952 C 0.53349 0.96361 0.78554 0.0
C953 C 0.52953 0.98835 0.7894 0.0
C954 C 0.5057 0.99107 0.78237 0.0
C955 C 0.48594 0.96885 0.77148 0.0
C956 C 0.48935 0.94456 0.76712 0.0
C957 C 0.46584 0.92539 0.75328 0.0
C958 C 0.47784 0.91962 0.73322 0.0
C959 C 0.44731 0.89774 0.7643 0.0
C960 C 0.44977 0.94356 0.74991 0.0
C961 C 0.46135 0.96795 0.76127 0.0
C962 C 0.45156 0.98885 0.76034 0.0
C963 C 0.43013 0.98559 0.74662 0.0
C964 C 0.4187 0.96161 0.7338 0.0
C965 C 0.42805 0.9398 0.73607 0.0
loop_
_geom_bond_atom_site_label_1
_geom_bond_atom_site_label_2
_geom_bond_distance
_geom_bond_site_symmetry_2
_ccdc_geom_bond_type
C0 C1 1.264 . S
C0 C5 1.479 . S
C0 C10 1.465 . S
C1 C0 1.264 . S
C1 C3 1.339 . S
C1 H28 0.931 . S
C2 C3 1.395 . S
C2 C4 1.320 . S
C3 C1 1.339 . S
C3 C2 1.395 . S
C3 H29 0.929 . S
C4 C2 1.320 . S
C4 C5 1.405 . S
C4 H30 0.930 . S
C5 C0 1.479 . S
C5 C4 1.405 . S
C5 H31 0.931 . S
U6 O7 2.454 . S
U6 O8 2.458 1_455 S
U6 C9 2.984 1_455 S
U6 C10 2.847 . S
U6 C23 2.882 1_455 S
U6 O24 2.441 . S
U6 O25 2.420 . S
U6 O26 2.455 1_455 S
U6 O27 2.449 . S
O7 U6 2.454 . S
O7 C9 1.353 1_455 S
O8 U6 2.458 1_655 S
O8 C9 1.286 . S
C9 U6 2.984 1_655 S
C9 O7 1.353 1_655 S
C9 O8 1.286 . S
C9 C11 1.363 . S
C10 C0 1.465 . S
C10 U6 2.847 . S
C10 O24 1.249 . S
C10 O25 1.202 . S
C11 C9 1.363 . S
C11 C13 1.408 1_655 S
C11 C16 1.342 . S
C12 C13 1.310 1_655 S
C12 C15 1.461 . S
C12 H32 0.932 1_655 S
C13 C11 1.408 1_455 S
C13 C12 1.310 1_455 S
C13 H33 0.930 . S
C14 C15 1.474 . S
C14 C16 1.285 . S
C14 H34 0.929 . S
C15 C12 1.461 . S
C15 C14 1.474 . S
C16 C11 1.342 . S
C16 C14 1.285 . S
C16 H35 0.930 . S
C17 C20 1.424 . S
C17 C22 1.245 . S
C17 C23 1.428 . S
C18 C21 1.260 . S
C18 C22 1.477 . S
C18 H36 0.932 . S
C19 C20 1.384 . S
C19 C21 1.479 . S
C19 H37 0.929 . S
C20 C17 1.424 . S
C20 C19 1.384 . S
C20 H38 0.928 . S
C21 C18 1.260 . S
C21 C19 1.479 . S
C22 C17 1.245 . S
C22 C18 1.477 . S
C22 H39 0.932 . S
C23 U6 2.882 1_655 S
C23 C17 1.428 . S
C23 O26 1.301 . S
C23 O27 1.282 1_655 S
O24 U6 2.441 . S
O24 C10 1.249 . S
O25 U6 2.420 . S
O25 C10 1.202 . S
O26 U6 2.455 1_655 S
O26 C23 1.301 . S
O27 U6 2.449 . S
O27 C23 1.282 1_455 S
H28 C1 0.931 . S
H29 C3 0.929 . S
H30 C4 0.930 . S
H31 C5 0.931 . S
H32 C12 0.932 1_455 S
H33 C13 0.930 . S
H34 C14 0.929 . S
H35 C16 0.930 . S
H36 C18 0.932 . S
H37 C19 0.929 . S
H38 C20 0.928 . S
H39 C22 0.932 . S
C40 C41 1.264 . S
C40 C45 1.479 . S
C40 C50 1.465 . S
C41 C40 1.264 . S
C41 C43 1.339 . S
C41 H68 0.931 . S
C42 C43 1.395 . S
C42 C44 1.320 . S
C43 C41 1.339 . S
C43 C42 1.395 . S
C43 H69 0.929 . S
C44 C42 1.320 . S
C44 C45 1.405 . S
C44 H70 0.930 . S
C45 C40 1.479 . S
C45 C44 1.405 . S
C45 H71 0.931 . S
U46 O47 2.454 . S
U46 O48 2.458 . S
U46 C49 2.984 . S
U46 C50 2.847 . S
U46 C63 2.882 . S
U46 O64 2.441 . S
U46 O65 2.420 . S
U46 O66 2.455 . S
U46 O67 2.449 . S
O47 U46 2.454 . S
O47 C49 1.353 . S
O48 U46 2.458 . S
O48 C49 1.286 . S
C49 U46 2.984 . S
C49 O47 1.353 . S
C49 O48 1.286 . S
C49 C51 1.363 . S
C50 C40 1.465 . S
C50 U46 2.847 . S
C50 O64 1.249 . S
C50 O65 1.202 . S
C51 C49 1.363 . S
C51 C53 1.408 . S
C51 C56 1.342 . S
C52 C53 1.310 . S
C52 C55 1.461 . S
C52 H72 0.932 . S
C53 C51 1.408 . S
C53 C52 1.310 . S
C53 H73 0.930 . S
C54 C55 1.474 . S
C54 C56 1.285 . S
C54 H74 0.929 . S
C55 C52 1.461 . S
C55 C54 1.474 . S
C56 C51 1.342 . S
C56 C54 1.285 . S
C56 H75 0.930 . S
C57 C60 1.424 . S
C57 C62 1.245 . S
C57 C63 1.428 . S
C58 C61 1.260 . S
C58 C62 1.477 . S
C58 H76 0.932 . S
C59 C60 1.384 . S
C59 C61 1.479 . S
C59 H77 0.929 . S
C60 C57 1.424 . S
C60 C59 1.384 . S
C60 H78 0.928 . S
C61 C58 1.260 . S
C61 C59 1.479 . S
C62 C57 1.245 . S
C62 C58 1.477 . S
C62 H79 0.932 . S
C63 U46 2.882 . S
C63 C57 1.428 . S
C63 O66 1.301 . S
C63 O67 1.282 . S
O64 U46 2.441 . S
O64 C50 1.249 . S
O65 U46 2.420 . S
O65 C50 1.202 . S
O66 U46 2.455 . S
O66 C63 1.301 . S
O67 U46 2.449 . S
O67 C63 1.282 . S
H68 C41 0.931 . S
H69 C43 0.929 . S
H70 C44 0.930 . S
H71 C45 0.931 . S
H72 C52 0.932 . S
H73 C53 0.930 . S
H74 C54 0.929 . S
H75 C56 0.930 . S
H76 C58 0.932 . S
H77 C59 0.929 . S
H78 C60 0.928 . S
H79 C62 0.932 . S
C80 C81 1.264 . S
C80 C85 1.479 . S
C80 C90 1.465 . S
C81 C80 1.264 . S
C81 C83 1.339 . S
C81 H108 0.931 . S
C82 C83 1.395 . S
C82 C84 1.320 . S
C83 C81 1.339 . S
C83 C82 1.395 . S
C83 H109 0.929 . S
C84 C82 1.320 . S
C84 C85 1.405 . S
C84 H110 0.930 . S
C85 C80 1.479 . S
C85 C84 1.405 . S
C85 H111 0.931 . S
U86 O87 2.454 . S
U86 O88 2.458 1_565 S
U86 C89 2.984 1_565 S
U86 C90 2.847 . S
U86 C103 2.882 1_565 S
U86 O104 2.441 . S
U86 O105 2.420 . S
U86 O106 2.455 1_565 S
U86 O107 2.449 . S
O87 U86 2.454 . S
O87 C89 1.353 1_565 S
O88 U86 2.458 1_545 S
O88 C89 1.286 . S
C89 U86 2.984 1_545 S
C89 O87 1.353 1_545 S
C89 O88 1.286 . S
C89 C91 1.363 . S
C90 C80 1.465 . S
C90 U86 2.847 . S
C90 O104 1.249 . S
C90 O105 1.202 . S
C91 C89 1.363 . S
C91 C93 1.408 1_545 S
C91 C96 1.342 . S
C92 C93 1.310 1_545 S
C92 C95 1.461 . S
C92 H112 0.932 1_545 S
C93 C91 1.408 1_565 S
C93 C92 1.310 1_565 S
C93 H113 0.930 . S
C94 C95 1.474 . S
C94 C96 1.285 . S
C94 H114 0.929 . S
C95 C92 1.461 . S
C95 C94 1.474 . S
C96 C91 1.342 . S
C96 C94 1.285 . S
C96 H115 0.930 . S
C97 C100 1.424 . S
C97 C102 1.245 . S
C97 C103 1.428 . S
C98 C101 1.260 . S
C98 C102 1.477 . S
C98 H116 0.932 . S
C99 C100 1.384 . S
C99 C101 1.479 . S
C99 H117 0.929 . S
C100 C97 1.424 . S
C100 C99 1.384 . S
C100 H118 0.928 . S
C101 C98 1.260 . S
C101 C99 1.479 . S
C102 C97 1.245 . S
C102 C98 1.477 . S
C102 H119 0.932 . S
C103 U86 2.882 1_545 S
C103 C97 1.428 . S
C103 O106 1.301 . S
C103 O107 1.282 1_545 S
O104 U86 2.441 . S
O104 C90 1.249 . S
O105 U86 2.420 . S
O105 C90 1.202 . S
O106 U86 2.455 1_545 S
O106 C103 1.301 . S
O107 U86 2.449 . S
O107 C103 1.282 1_565 S
H108 C81 0.931 . S
H109 C83 0.929 . S
H110 C84 0.930 . S
H111 C85 0.931 . S
H112 C92 0.932 1_565 S
H113 C93 0.930 . S
H114 C94 0.929 . S
H115 C96 0.930 . S
H116 C98 0.932 . S
H117 C99 0.929 . S
H118 C100 0.928 . S
H119 C102 0.932 . S
C120 C121 1.264 . S
C120 C125 1.479 . S
C120 C130 1.465 . S
C121 C120 1.264 . S
C121 C123 1.339 . S
C121 H148 0.931 . S
C122 C123 1.395 . S
C122 C124 1.320 . S
C123 C121 1.339 . S
C123 C122 1.395 . S
C123 H149 0.929 . S
C124 C122 1.320 . S
C124 C125 1.405 . S
C124 H150 0.930 . S
C125 C120 1.479 . S
C125 C124 1.405 . S
C125 H151 0.931 . S
U126 O127 2.454 . S
U126 O128 2.458 1_565 S
U126 C129 2.984 1_565 S
U126 C130 2.847 . S
U126 C143 2.882 1_565 S
U126 O144 2.441 . S
U126 O145 2.420 . S
U126 O146 2.455 1_565 S
U126 O147 2.449 . S
O127 U126 2.454 . S
O127 C129 1.353 1_565 S
O128 U126 2.458 1_545 S
O128 C129 1.286 . S
C129 U126 2.984 1_545 S
C129 O127 1.353 1_545 S
C129 O128 1.286 . S
C129 C131 1.363 . S
C130 C120 1.465 . S
C130 U126 2.847 . S
C130 O144 1.249 . S
C130 O145 1.202 . S
C131 C129 1.363 . S
C131 C133 1.408 1_545 S
C131 C136 1.342 . S
C132 C133 1.310 1_545 S
C132 C135 1.461 . S
C132 H152 0.932 1_545 S
C133 C131 1.408 1_565 S
C133 C132 1.310 1_565 S
C133 H153 0.930 . S
C134 C135 1.474 . S
C134 C136 1.285 . S
C134 H154 0.929 . S
C135 C132 1.461 . S
C135 C134 1.474 . S
C136 C131 1.342 . S
C136 C134 1.285 . S
C136 H155 0.930 . S
C137 C140 1.424 . S
C137 C142 1.245 . S
C137 C143 1.428 . S
C138 C141 1.260 . S
C138 C142 1.477 . S
C138 H156 0.932 . S
C139 C140 1.384 . S
C139 C141 1.479 . S
C139 H157 0.929 . S
C140 C137 1.424 . S
C140 C139 1.384 . S
C140 H158 0.928 . S
C141 C138 1.260 . S
C141 C139 1.479 . S
C142 C137 1.245 . S
C142 C138 1.477 . S
C142 H159 0.932 . S
C143 U126 2.882 1_545 S
C143 C137 1.428 . S
C143 O146 1.301 . S
C143 O147 1.282 1_545 S
O144 U126 2.441 . S
O144 C130 1.249 . S
O145 U126 2.420 . S
O145 C130 1.202 . S
O146 U126 2.455 1_545 S
O146 C143 1.301 . S
O147 U126 2.449 . S
O147 C143 1.282 1_565 S
H148 C121 0.931 . S
H149 C123 0.929 . S
H150 C124 0.930 . S
H151 C125 0.931 . S
H152 C132 0.932 1_565 S
H153 C133 0.930 . S
H154 C134 0.929 . S
H155 C136 0.930 . S
H156 C138 0.932 . S
H157 C139 0.929 . S
H158 C140 0.928 . S
H159 C142 0.932 . S
C160 C161 1.264 . S
C160 C165 1.479 . S
C160 C170 1.465 . S
C161 C160 1.264 . S
C161 C163 1.339 . S
C161 H188 0.931 . S
C162 C163 1.395 . S
C162 C164 1.320 . S
C163 C161 1.339 . S
C163 C162 1.395 . S
C163 H189 0.929 . S
C164 C162 1.320 . S
C164 C165 1.405 . S
C164 H190 0.930 . S
C165 C160 1.479 . S
C165 C164 1.405 . S
C165 H191 0.931 . S
U166 O167 2.454 . S
U166 O168 2.458 1_455 S
U166 C169 2.984 1_455 S
U166 C170 2.847 . S
U166 C183 2.882 1_455 S
U166 O184 2.441 . S
U166 O185 2.420 . S
U166 O186 2.455 1_455 S
U166 O187 2.449 . S
O167 U166 2.454 . S
O167 C169 1.353 1_455 S
O168 U166 2.458 1_655 S
O168 C169 1.286 . S
C169 U166 2.984 1_655 S
C169 O167 1.353 1_655 S
C169 O168 1.286 . S
C169 C171 1.363 . S
C170 C160 1.465 . S
C170 U166 2.847 . S
C170 O184 1.249 . S
C170 O185 1.202 . S
C171 C169 1.363 . S
C171 C173 1.408 1_655 S
C171 C176 1.342 . S
C172 C173 1.310 1_655 S
C172 C175 1.461 . S
C172 H192 0.932 1_655 S
C173 C171 1.408 1_455 S
C173 C172 1.310 1_455 S
C173 H193 0.930 . S
C174 C175 1.474 . S
C174 C176 1.285 . S
C174 H194 0.929 . S
C175 C172 1.461 . S
C175 C174 1.474 . S
C176 C171 1.342 . S
C176 C174 1.285 . S
C176 H195 0.930 . S
C177 C180 1.424 . S
C177 C182 1.245 . S
C177 C183 1.428 . S
C178 C181 1.260 . S
C178 C182 1.477 . S
C178 H196 0.932 . S
C179 C180 1.384 . S
C179 C181 1.479 . S
C179 H197 0.929 . S
C180 C177 1.424 . S
C180 C179 1.384 . S
C180 H198 0.928 . S
C181 C178 1.260 . S
C181 C179 1.479 . S
C182 C177 1.245 . S
C182 C178 1.477 . S
C182 H199 0.932 . S
C183 U166 2.882 1_655 S
C183 C177 1.428 . S
C183 O186 1.301 . S
C183 O187 1.282 1_655 S
O184 U166 2.441 . S
O184 C170 1.249 . S
O185 U166 2.420 . S
O185 C170 1.202 . S
O186 U166 2.455 1_655 S
O186 C183 1.301 . S
O187 U166 2.449 . S
O187 C183 1.282 1_455 S
H188 C161 0.931 . S
H189 C163 0.929 . S
H190 C164 0.930 . S
H191 C165 0.931 . S
H192 C172 0.932 1_455 S
H193 C173 0.930 . S
H194 C174 0.929 . S
H195 C176 0.930 . S
H196 C178 0.932 . S
H197 C179 0.929 . S
H198 C180 0.928 . S
H199 C182 0.932 . S
C200 C201 1.264 . S
C200 C205 1.479 . S
C200 C210 1.465 . S
C201 C200 1.264 . S
C201 C203 1.339 . S
C201 H228 0.931 . S
C202 C203 1.395 . S
C202 C204 1.320 . S
C203 C201 1.339 . S
C203 C202 1.395 . S
C203 H229 0.929 . S
C204 C202 1.320 . S
C204 C205 1.405 . S
C204 H230 0.930 . S
C205 C200 1.479 . S
C205 C204 1.405 . S
C205 H231 0.931 . S
U206 O207 2.454 . S
U206 O208 2.458 . S
U206 C209 2.984 . S
U206 C210 2.847 . S
U206 C223 2.882 . S
U206 O224 2.441 . S
U206 O225 2.420 . S
U206 O226 2.455 . S
U206 O227 2.449 . S
O207 U206 2.454 . S
O207 C209 1.353 . S
O208 U206 2.458 . S
O208 C209 1.286 . S
C209 U206 2.984 . S
C209 O207 1.353 . S
C209 O208 1.286 . S
C209 C211 1.363 . S
C210 C200 1.465 . S
C210 U206 2.847 . S
C210 O224 1.249 . S
C210 O225 1.202 . S
C211 C209 1.363 . S
C211 C213 1.408 . S
C211 C216 1.342 . S
C212 C213 1.310 . S
C212 C215 1.461 . S
C212 H232 0.932 . S
C213 C211 1.408 . S
C213 C212 1.310 . S
C213 H233 0.930 . S
C214 C215 1.474 . S
C214 C216 1.285 . S
C214 H234 0.929 . S
C215 C212 1.461 . S
C215 C214 1.474 . S
C216 C211 1.342 . S
C216 C214 1.285 . S
C216 H235 0.930 . S
C217 C220 1.424 . S
C217 C222 1.245 . S
C217 C223 1.428 . S
C218 C221 1.260 . S
C218 C222 1.477 . S
C218 H236 0.932 . S
C219 C220 1.384 . S
C219 C221 1.479 . S
C219 H237 0.929 . S
C220 C217 1.424 . S
C220 C219 1.384 . S
C220 H238 0.928 . S
C221 C218 1.260 . S
C221 C219 1.479 . S
C222 C217 1.245 . S
C222 C218 1.477 . S
C222 H239 0.932 . S
C223 U206 2.882 . S
C223 C217 1.428 . S
C223 O226 1.301 . S
C223 O227 1.282 . S
O224 U206 2.441 . S
O224 C210 1.249 . S
O225 U206 2.420 . S
O225 C210 1.202 . S
O226 U206 2.455 . S
O226 C223 1.301 . S
O227 U206 2.449 . S
O227 C223 1.282 . S
H228 C201 0.931 . S
H229 C203 0.929 . S
H230 C204 0.930 . S
H231 C205 0.931 . S
H232 C212 0.932 . S
H233 C213 0.930 . S
H234 C214 0.929 . S
H235 C216 0.930 . S
H236 C218 0.932 . S
H237 C219 0.929 . S
H238 C220 0.928 . S
H239 C222 0.932 . S
C240 C241 1.264 . S
C240 C245 1.479 . S
C240 C250 1.465 . S
C241 C240 1.264 . S
C241 C243 1.339 . S
C241 H268 0.931 . S
C242 C243 1.395 . S
C242 C244 1.320 . S
C243 C241 1.339 . S
C243 C242 1.395 . S
C243 H269 0.929 . S
C244 C242 1.320 . S
C244 C245 1.405 . S
C244 H270 0.930 . S
C245 C240 1.479 . S
C245 C244 1.405 . S
C245 H271 0.931 . S
U246 O247 2.454 1_455 S
U246 O248 2.458 . S
U246 C249 2.984 . S
U246 C250 2.847 1_455 S
U246 C263 2.882 . S
U246 O264 2.441 1_455 S
U246 O265 2.420 1_455 S
U246 O266 2.455 . S
U246 O267 2.449 . S
O247 U246 2.454 1_655 S
O247 C249 1.353 1_655 S
O248 U246 2.458 . S
O248 C249 1.286 . S
C249 U246 2.984 . S
C249 O247 1.353 1_455 S
C249 O248 1.286 . S
C249 C251 1.363 . S
C250 C240 1.465 . S
C250 U246 2.847 1_655 S
C250 O264 1.249 . S
C250 O265 1.202 . S
C251 C249 1.363 . S
C251 C253 1.408 . S
C251 C256 1.342 . S
C252 C253 1.310 . S
C252 C255 1.461 . S
C252 H272 0.932 1_455 S
C253 C251 1.408 . S
C253 C252 1.310 . S
C253 H273 0.930 1_455 S
C254 C255 1.474 . S
C254 C256 1.285 . S
C254 H274 0.929 . S
C255 C252 1.461 . S
C255 C254 1.474 . S
C256 C251 1.342 . S
C256 C254 1.285 . S
C256 H275 0.930 . S
C257 C260 1.424 . S
C257 C262 1.245 . S
C257 C263 1.428 . S
C258 C261 1.260 . S
C258 C262 1.477 . S
C258 H276 0.932 . S
C259 C260 1.384 . S
C259 C261 1.479 . S
C259 H277 0.929 . S
C260 C257 1.424 . S
C260 C259 1.384 . S
C260 H278 0.928 . S
C261 C258 1.260 . S
C261 C259 1.479 . S
C262 C257 1.245 . S
C262 C258 1.477 . S
C262 H279 0.932 . S
C263 U246 2.882 . S
C263 C257 1.428 . S
C263 O266 1.301 . S
C263 O267 1.282 . S
O264 U246 2.441 1_655 S
O264 C250 1.249 . S
O265 U246 2.420 1_655 S
O265 C250 1.202 . S
O266 U246 2.455 . S
O266 C263 1.301 . S
O267 U246 2.449 . S
O267 C263 1.282 . S
H268 C241 0.931 . S
H269 C243 0.929 . S
H270 C244 0.930 . S
H271 C245 0.931 . S
H272 C252 0.932 1_655 S
H273 C253 0.930 1_655 S
H274 C254 0.929 . S
H275 C256 0.930 . S
H276 C258 0.932 . S
H277 C259 0.929 . S
H278 C260 0.928 . S
H279 C262 0.932 . S
C280 C281 1.264 . S
C280 C285 1.479 . S
C280 C290 1.465 . S
C281 C280 1.264 . S
C281 C283 1.339 . S
C281 H308 0.931 . S
C282 C283 1.395 . S
C282 C284 1.320 . S
C283 C281 1.339 . S
C283 C282 1.395 . S
C283 H309 0.929 . S
C284 C282 1.320 . S
C284 C285 1.405 . S
C284 H310 0.930 . S
C285 C280 1.479 . S
C285 C284 1.405 . S
C285 H311 0.931 . S
U286 O287 2.454 . S
U286 O288 2.458 . S
U286 C289 2.984 . S
U286 C290 2.847 . S
U286 C303 2.882 . S
U286 O304 2.441 . S
U286 O305 2.420 . S
U286 O306 2.455 . S
U286 O307 2.449 . S
O287 U286 2.454 . S
O287 C289 1.353 . S
O288 U286 2.458 . S
O288 C289 1.286 . S
C289 U286 2.984 . S
C289 O287 1.353 . S
C289 O288 1.286 . S
C289 C291 1.363 . S
C290 C280 1.465 . S
C290 U286 2.847 . S
C290 O304 1.249 . S
C290 O305 1.202 . S
C291 C289 1.363 . S
C291 C293 1.408 . S
C291 C296 1.342 . S
C292 C293 1.310 . S
C292 C295 1.461 . S
C292 H312 0.932 . S
C293 C291 1.408 . S
C293 C292 1.310 . S
C293 H313 0.930 . S
C294 C295 1.474 . S
C294 C296 1.285 . S
C294 H314 0.929 . S
C295 C292 1.461 . S
C295 C294 1.474 . S
C296 C291 1.342 . S
C296 C294 1.285 . S
C296 H315 0.930 . S
C297 C300 1.424 . S
C297 C302 1.245 . S
C297 C303 1.428 . S
C298 C301 1.260 . S
C298 C302 1.477 . S
C298 H316 0.932 . S
C299 C300 1.384 . S
C299 C301 1.479 . S
C299 H317 0.929 . S
C300 C297 1.424 . S
C300 C299 1.384 . S
C300 H318 0.928 . S
C301 C298 1.260 . S
C301 C299 1.479 . S
C302 C297 1.245 . S
C302 C298 1.477 . S
C302 H319 0.932 . S
C303 U286 2.882 . S
C303 C297 1.428 . S
C303 O306 1.301 . S
C303 O307 1.282 . S
O304 U286 2.441 . S
O304 C290 1.249 . S
O305 U286 2.420 . S
O305 C290 1.202 . S
O306 U286 2.455 . S
O306 C303 1.301 . S
O307 U286 2.449 . S
O307 C303 1.282 . S
H308 C281 0.931 . S
H309 C283 0.929 . S
H310 C284 0.930 . S
H311 C285 0.931 . S
H312 C292 0.932 . S
H313 C293 0.930 . S
H314 C294 0.929 . S
H315 C296 0.930 . S
H316 C298 0.932 . S
H317 C299 0.929 . S
H318 C300 0.928 . S
H319 C302 0.932 . S
C320 C321 1.264 . S
C320 C325 1.479 . S
C320 C330 1.465 . S
C321 C320 1.264 . S
C321 C323 1.339 . S
C321 H348 0.931 . S
C322 C323 1.395 . S
C322 C324 1.320 . S
C323 C321 1.339 . S
C323 C322 1.395 . S
C323 H349 0.929 . S
C324 C322 1.320 . S
C324 C325 1.405 . S
C324 H350 0.930 . S
C325 C320 1.479 . S
C325 C324 1.405 . S
C325 H351 0.931 . S
U326 O327 2.456 . S
U326 O328 2.458 . S
U326 C329 2.984 . S
U326 C330 2.847 1_565 S
U326 C343 2.882 . S
U326 O344 2.441 1_565 S
U326 O345 2.420 1_565 S
U326 O346 2.455 . S
U326 O347 2.449 . S
O327 U326 2.456 . S
O327 C329 1.355 . S
O328 U326 2.458 . S
O328 C329 1.286 . S
C329 U326 2.984 . S
C329 O327 1.355 . S
C329 O328 1.286 . S
C329 C331 1.363 . S
C330 C320 1.465 . S
C330 U326 2.847 1_545 S
C330 O344 1.249 . S
C330 O345 1.202 . S
C331 C329 1.363 . S
C331 C333 1.408 . S
C331 C336 1.342 . S
C332 C333 1.310 . S
C332 C335 1.461 . S
C332 H352 0.933 . S
C333 C331 1.408 . S
C333 C332 1.310 . S
C333 H353 0.930 1_565 S
C334 C335 1.474 . S
C334 C336 1.285 . S
C334 H354 0.929 . S
C335 C332 1.461 . S
C335 C334 1.474 . S
C336 C331 1.342 . S
C336 C334 1.285 . S
C336 H355 0.930 . S
C337 C340 1.424 . S
C337 C342 1.245 . S
C337 C343 1.428 . S
C338 C341 1.260 . S
C338 C342 1.477 . S
C338 H356 0.932 . S
C339 C340 1.384 . S
C339 C341 1.479 . S
C339 H357 0.929 . S
C340 C337 1.424 . S
C340 C339 1.384 . S
C340 H358 0.928 . S
C341 C338 1.260 . S
C341 C339 1.479 . S
C342 C337 1.245 . S
C342 C338 1.477 . S
C342 H359 0.932 . S
C343 U326 2.882 . S
C343 C337 1.428 . S
C343 O346 1.301 . S
C343 O347 1.282 . S
O344 U326 2.441 1_545 S
O344 C330 1.249 . S
O345 U326 2.420 1_545 S
O345 C330 1.202 . S
O346 U326 2.455 . S
O346 C343 1.301 . S
O347 U326 2.449 . S
O347 C343 1.282 . S
H348 C321 0.931 . S
H349 C323 0.929 . S
H350 C324 0.930 . S
H351 C325 0.931 . S
H352 C332 0.933 . S
H353 C333 0.930 1_545 S
H354 C334 0.929 . S
H355 C336 0.930 . S
H356 C338 0.932 . S
H357 C339 0.929 . S
H358 C340 0.928 . S
H359 C342 0.932 . S
C360 C361 1.264 . S
C360 C365 1.479 . S
C360 C370 1.465 . S
C361 C360 1.264 . S
C361 C363 1.339 . S
C361 H388 0.931 . S
C362 C363 1.395 . S
C362 C364 1.320 . S
C363 C361 1.339 . S
C363 C362 1.395 . S
C363 H389 0.929 . S
C364 C362 1.320 . S
C364 C365 1.405 . S
C364 H390 0.930 . S
C365 C360 1.479 . S
C365 C364 1.405 . S
C365 H391 0.931 . S
U366 O367 2.454 1_565 S
U366 O368 2.458 . S
U366 C369 2.984 . S
U366 C370 2.847 1_565 S
U366 C383 2.882 . S
U366 O384 2.441 1_565 S
U366 O385 2.420 1_565 S
U366 O386 2.455 . S
U366 O387 2.449 . S
O367 U366 2.454 1_545 S
O367 C369 1.353 1_545 S
O368 U366 2.458 . S
O368 C369 1.286 . S
C369 U366 2.984 . S
C369 O367 1.353 1_565 S
C369 O368 1.286 . S
C369 C371 1.363 . S
C370 C360 1.465 . S
C370 U366 2.847 1_545 S
C370 O384 1.249 . S
C370 O385 1.202 . S
C371 C369 1.363 . S
C371 C373 1.408 . S
C371 C376 1.342 . S
C372 C373 1.310 . S
C372 C375 1.461 . S
C372 H392 0.932 1_565 S
C373 C371 1.408 . S
C373 C372 1.310 . S
C373 H393 0.930 1_565 S
C374 C375 1.474 . S
C374 C376 1.285 . S
C374 H394 0.929 . S
C375 C372 1.461 . S
C375 C374 1.474 . S
C376 C371 1.342 . S
C376 C374 1.285 . S
C376 H395 0.930 . S
C377 C380 1.424 . S
C377 C382 1.245 . S
C377 C383 1.428 . S
C378 C381 1.260 . S
C378 C382 1.477 . S
C378 H396 0.932 . S
C379 C380 1.384 . S
C379 C381 1.479 . S
C379 H397 0.929 . S
C380 C377 1.424 . S
C380 C379 1.384 . S
C380 H398 0.928 . S
C381 C378 1.260 . S
C381 C379 1.479 . S
C382 C377 1.245 . S
C382 C378 1.477 . S
C382 H399 0.932 . S
C383 U366 2.882 . S
C383 C377 1.428 . S
C383 O386 1.301 . S
C383 O387 1.282 . S
O384 U366 2.441 1_545 S
O384 C370 1.249 . S
O385 U366 2.420 1_545 S
O385 C370 1.202 . S
O386 U366 2.455 . S
O386 C383 1.301 . S
O387 U366 2.449 . S
O387 C383 1.282 . S
H388 C361 0.931 . S
H389 C363 0.929 . S
H390 C364 0.930 . S
H391 C365 0.931 . S
H392 C372 0.932 1_545 S
H393 C373 0.930 1_545 S
H394 C374 0.929 . S
H395 C376 0.930 . S
H396 C378 0.932 . S
H397 C379 0.929 . S
H398 C380 0.928 . S
H399 C382 0.932 . S
C400 C401 1.264 . S
C400 C405 1.479 . S
C400 C410 1.465 . S
C401 C400 1.264 . S
C401 C403 1.339 . S
C401 H428 0.931 . S
C402 C403 1.395 . S
C402 C404 1.320 . S
C403 C401 1.339 . S
C403 C402 1.395 . S
C403 H429 0.929 . S
C404 C402 1.320 . S
C404 C405 1.405 . S
C404 H430 0.930 . S
C405 C400 1.479 . S
C405 C404 1.405 . S
C405 H431 0.931 . S
U406 O407 2.456 . S
U406 O408 2.458 . S
U406 C409 2.984 . S
U406 C410 2.847 1_455 S
U406 C423 2.882 . S
U406 O424 2.441 1_455 S
U406 O425 2.420 1_455 S
U406 O426 2.455 . S
U406 O427 2.449 . S
O407 U406 2.456 . S
O407 C409 1.355 . S
O408 U406 2.458 . S
O408 C409 1.286 . S
C409 U406 2.984 . S
C409 O407 1.355 . S
C409 O408 1.286 . S
C409 C411 1.363 . S
C410 C400 1.465 . S
C410 U406 2.847 1_655 S
C410 O424 1.249 . S
C410 O425 1.202 . S
C411 C409 1.363 . S
C411 C413 1.408 . S
C411 C416 1.342 . S
C412 C413 1.310 . S
C412 C415 1.461 . S
C412 H432 0.933 . S
C413 C411 1.408 . S
C413 C412 1.310 . S
C413 H433 0.930 1_455 S
C414 C415 1.474 . S
C414 C416 1.285 . S
C414 H434 0.929 . S
C415 C412 1.461 . S
C415 C414 1.474 . S
C416 C411 1.342 . S
C416 C414 1.285 . S
C416 H435 0.930 . S
C417 C420 1.424 . S
C417 C422 1.245 . S
C417 C423 1.428 . S
C418 C421 1.260 . S
C418 C422 1.477 . S
C418 H436 0.932 . S
C419 C420 1.384 . S
C419 C421 1.479 . S
C419 H437 0.929 . S
C420 C417 1.424 . S
C420 C419 1.384 . S
C420 H438 0.928 . S
C421 C418 1.260 . S
C421 C419 1.479 . S
C422 C417 1.245 . S
C422 C418 1.477 . S
C422 H439 0.932 . S
C423 U406 2.882 . S
C423 C417 1.428 . S
C423 O426 1.301 . S
C423 O427 1.282 . S
O424 U406 2.441 1_655 S
O424 C410 1.249 . S
O425 U406 2.420 1_655 S
O425 C410 1.202 . S
O426 U406 2.455 . S
O426 C423 1.301 . S
O427 U406 2.449 . S
O427 C423 1.282 . S
H428 C401 0.931 . S
H429 C403 0.929 . S
H430 C404 0.930 . S
H431 C405 0.931 . S
H432 C412 0.933 . S
H433 C413 0.930 1_655 S
H434 C414 0.929 . S
H435 C416 0.930 . S
H436 C418 0.932 . S
H437 C419 0.929 . S
H438 C420 0.928 . S
H439 C422 0.932 . S
C440 C441 1.264 . S
C440 C445 1.479 . S
C440 C450 1.465 . S
C441 C440 1.264 . S
C441 C443 1.339 . S
C441 H468 0.931 . S
C442 C443 1.395 . S
C442 C444 1.320 . S
C443 C441 1.339 . S
C443 C442 1.395 . S
C443 H469 0.929 . S
C444 C442 1.320 . S
C444 C445 1.405 . S
C444 H470 0.930 . S
C445 C440 1.479 . S
C445 C444 1.405 . S
C445 H471 0.931 . S
U446 O447 2.454 . S
U446 O448 2.458 . S
U446 C449 2.984 . S
U446 C450 2.847 . S
U446 C463 2.882 . S
U446 O464 2.441 . S
U446 O465 2.420 . S
U446 O466 2.455 . S
U446 O467 2.449 . S
O447 U446 2.454 . S
O447 C449 1.353 . S
O448 U446 2.458 . S
O448 C449 1.286 . S
C449 U446 2.984 . S
C449 O447 1.353 . S
C449 O448 1.286 . S
C449 C451 1.363 . S
C450 C440 1.465 . S
C450 U446 2.847 . S
C450 O464 1.249 . S
C450 O465 1.202 . S
C451 C449 1.363 . S
C451 C453 1.408 . S
C451 C456 1.342 . S
C452 C453 1.310 . S
C452 C455 1.461 . S
C452 H472 0.932 . S
C453 C451 1.408 . S
C453 C452 1.310 . S
C453 H473 0.930 . S
C454 C455 1.474 . S
C454 C456 1.285 . S
C454 H474 0.929 . S
C455 C452 1.461 . S
C455 C454 1.474 . S
C456 C451 1.342 . S
C456 C454 1.285 . S
C456 H475 0.930 . S
C457 C460 1.424 . S
C457 C462 1.245 . S
C457 C463 1.428 . S
C458 C461 1.260 . S
C458 C462 1.477 . S
C458 H476 0.932 . S
C459 C460 1.384 . S
C459 C461 1.479 . S
C459 H477 0.929 . S
C460 C457 1.424 . S
C460 C459 1.384 . S
C460 H478 0.928 . S
C461 C458 1.260 . S
C461 C459 1.479 . S
C462 C457 1.245 . S
C462 C458 1.477 . S
C462 H479 0.932 . S
C463 U446 2.882 . S
C463 C457 1.428 . S
C463 O466 1.301 . S
C463 O467 1.282 . S
O464 U446 2.441 . S
O464 C450 1.249 . S
O465 U446 2.420 . S
O465 C450 1.202 . S
O466 U446 2.455 . S
O466 C463 1.301 . S
O467 U446 2.449 . S
O467 C463 1.282 . S
H468 C441 0.931 . S
H469 C443 0.929 . S
H470 C444 0.930 . S
H471 C445 0.931 . S
H472 C452 0.932 . S
H473 C453 0.930 . S
H474 C454 0.929 . S
H475 C456 0.930 . S
H476 C458 0.932 . S
H477 C459 0.929 . S
H478 C460 0.928 . S
H479 C462 0.932 . S
H480 C492 0.930 . S
H481 C494 0.930 . S
H482 C495 0.930 . S
H483 C499 0.959 . S
H484 C499 0.959 . S
H485 C499 0.961 . S
H486 C500 0.960 . S
H487 C500 0.961 . S
H488 C500 0.959 . S
H489 C503 0.929 . S
H490 C504 0.931 . S
H491 C506 0.930 . S
C492 H480 0.930 . S
C492 C493 1.399 . S
C492 C497 1.399 . S
C493 C492 1.399 . S
C493 C494 1.376 . S
C494 H481 0.930 . S
C494 C493 1.376 . S
C494 C495 1.388 . S
C495 H482 0.930 . S
C495 C494 1.388 . S
C495 C496 1.390 . S
C496 C495 1.390 . S
C496 C497 1.394 . S
C496 C502 1.465 . S
C497 C492 1.399 . S
C497 C496 1.394 . S
C497 C498 1.516 . S
C498 C497 1.516 . S
C498 C499 1.502 . S
C498 C500 1.561 . S
C498 C501 1.526 . S
C499 H483 0.959 . S
C499 H484 0.959 . S
C499 H485 0.961 . S
C499 C498 1.502 . S
C500 H486 0.960 . S
C500 H487 0.961 . S
C500 H488 0.959 . S
C500 C498 1.561 . S
C501 C498 1.526 . S
C501 C502 1.396 . S
C501 C506 1.390 . S
C502 C496 1.465 . S
C502 C501 1.396 . S
C502 C503 1.399 . S
C503 H489 0.929 . S
C503 C502 1.399 . S
C503 C504 1.385 . S
C504 H490 0.931 . S
C504 C503 1.385 . S
C504 C505 1.389 . S
C505 C504 1.389 . S
C505 C506 1.387 . S
C506 H491 0.930 . S
C506 C501 1.390 . S
C506 C505 1.387 . S
H507 C519 0.930 . S
H508 C521 0.930 . S
H509 C522 0.930 . S
H510 C526 0.959 . S
H511 C526 0.959 . S
H512 C526 0.961 . S
H513 C527 0.960 . S
H514 C527 0.961 . S
H515 C527 0.959 . S
H516 C530 0.929 . S
H517 C531 0.931 . S
H518 C533 0.930 . S
C519 H507 0.930 . S
C519 C520 1.399 . S
C519 C524 1.399 . S
C520 C519 1.399 . S
C520 C521 1.376 . S
C521 H508 0.930 . S
C521 C520 1.376 . S
C521 C522 1.388 . S
C522 H509 0.930 . S
C522 C521 1.388 . S
C522 C523 1.390 . S
C523 C522 1.390 . S
C523 C524 1.394 . S
C523 C529 1.465 . S
C524 C519 1.399 . S
C524 C523 1.394 . S
C524 C525 1.516 . S
C525 C524 1.516 . S
C525 C526 1.502 . S
C525 C527 1.561 . S
C525 C528 1.526 . S
C526 H510 0.959 . S
C526 H511 0.959 . S
C526 H512 0.961 . S
C526 C525 1.502 . S
C527 H513 0.960 . S
C527 H514 0.961 . S
C527 H515 0.959 . S
C527 C525 1.561 . S
C528 C525 1.526 . S
C528 C529 1.396 . S
C528 C533 1.390 . S
C529 C523 1.465 . S
C529 C528 1.396 . S
C529 C530 1.399 . S
C530 H516 0.929 . S
C530 C529 1.399 . S
C530 C531 1.385 . S
C531 H517 0.931 . S
C531 C530 1.385 . S
C531 C532 1.389 . S
C532 C531 1.389 . S
C532 C533 1.387 . S
C533 H518 0.930 . S
C533 C528 1.390 . S
C533 C532 1.387 . S
H534 C546 0.930 . S
H535 C548 0.930 . S
H536 C549 0.930 . S
H537 C553 0.959 . S
H538 C553 0.959 . S
H539 C553 0.961 . S
H540 C554 0.960 . S
H541 C554 0.961 . S
H542 C554 0.959 . S
H543 C557 0.929 . S
H544 C558 0.931 . S
H545 C560 0.930 . S
C546 H534 0.930 . S
C546 C547 1.399 . S
C546 C551 1.399 . S
C547 C546 1.399 . S
C547 C548 1.376 . S
C548 H535 0.930 . S
C548 C547 1.376 . S
C548 C549 1.388 . S
C549 H536 0.930 . S
C549 C548 1.388 . S
C549 C550 1.390 . S
C550 C549 1.390 . S
C550 C551 1.394 . S
C550 C556 1.465 . S
C551 C546 1.399 . S
C551 C550 1.394 . S
C551 C552 1.516 . S
C552 C551 1.516 . S
C552 C553 1.502 . S
C552 C554 1.561 . S
C552 C555 1.526 . S
C553 H537 0.959 . S
C553 H538 0.959 . S
C553 H539 0.961 . S
C553 C552 1.502 . S
C554 H540 0.960 . S
C554 H541 0.961 . S
C554 H542 0.959 . S
C554 C552 1.561 . S
C555 C552 1.526 . S
C555 C556 1.396 . S
C555 C560 1.390 . S
C556 C550 1.465 . S
C556 C555 1.396 . S
C556 C557 1.399 . S
C557 H543 0.929 . S
C557 C556 1.399 . S
C557 C558 1.385 . S
C558 H544 0.931 . S
C558 C557 1.385 . S
C558 C559 1.389 . S
C559 C558 1.389 . S
C559 C560 1.387 . S
C560 H545 0.930 . S
C560 C555 1.390 . S
C560 C559 1.387 . S
H561 C573 0.930 . S
H562 C575 0.930 . S
H563 C576 0.930 . S
H564 C580 0.959 . S
H565 C580 0.959 . S
H566 C580 0.961 . S
H567 C581 0.960 . S
H568 C581 0.961 . S
H569 C581 0.959 . S
H570 C584 0.929 . S
H571 C585 0.931 . S
H572 C587 0.930 . S
C573 H561 0.930 . S
C573 C574 1.399 . S
C573 C578 1.399 . S
C574 C573 1.399 . S
C574 C575 1.376 . S
C575 H562 0.930 . S
C575 C574 1.376 . S
C575 C576 1.388 . S
C576 H563 0.930 . S
C576 C575 1.388 . S
C576 C577 1.390 . S
C577 C576 1.390 . S
C577 C578 1.394 . S
C577 C583 1.465 . S
C578 C573 1.399 . S
C578 C577 1.394 . S
C578 C579 1.516 . S
C579 C578 1.516 . S
C579 C580 1.502 . S
C579 C581 1.561 . S
C579 C582 1.526 . S
C580 H564 0.959 . S
C580 H565 0.959 . S
C580 H566 0.961 . S
C580 C579 1.502 . S
C581 H567 0.960 . S
C581 H568 0.961 . S
C581 H569 0.959 . S
C581 C579 1.561 . S
C582 C579 1.526 . S
C582 C583 1.396 . S
C582 C587 1.390 . S
C583 C577 1.465 . S
C583 C582 1.396 . S
C583 C584 1.399 . S
C584 H570 0.929 . S
C584 C583 1.399 . S
C584 C585 1.385 . S
C585 H571 0.931 . S
C585 C584 1.385 . S
C585 C586 1.389 . S
C586 C585 1.389 . S
C586 C587 1.387 . S
C587 H572 0.930 . S
C587 C582 1.390 . S
C587 C586 1.387 . S
H588 C600 0.930 . S
H589 C602 0.930 . S
H590 C603 0.930 . S
H591 C607 0.959 . S
H592 C607 0.959 . S
H593 C607 0.961 . S
H594 C608 0.960 . S
H595 C608 0.961 . S
H596 C608 0.959 . S
H597 C611 0.929 . S
H598 C612 0.931 . S
H599 C614 0.930 . S
C600 H588 0.930 . S
C600 C601 1.399 . S
C600 C605 1.399 . S
C601 C600 1.399 . S
C601 C602 1.376 . S
C602 H589 0.930 . S
C602 C601 1.376 . S
C602 C603 1.388 . S
C603 H590 0.930 . S
C603 C602 1.388 . S
C603 C604 1.390 . S
C604 C603 1.390 . S
C604 C605 1.394 . S
C604 C610 1.465 . S
C605 C600 1.399 . S
C605 C604 1.394 . S
C605 C606 1.516 . S
C606 C605 1.516 . S
C606 C607 1.502 . S
C606 C608 1.561 . S
C606 C609 1.526 . S
C607 H591 0.959 . S
C607 H592 0.959 . S
C607 H593 0.961 . S
C607 C606 1.502 . S
C608 H594 0.960 . S
C608 H595 0.961 . S
C608 H596 0.959 . S
C608 C606 1.561 . S
C609 C606 1.526 . S
C609 C610 1.396 . S
C609 C614 1.390 . S
C610 C604 1.465 . S
C610 C609 1.396 . S
C610 C611 1.399 . S
C611 H597 0.929 . S
C611 C610 1.399 . S
C611 C612 1.385 . S
C612 H598 0.931 . S
C612 C611 1.385 . S
C612 C613 1.389 . S
C613 C612 1.389 . S
C613 C614 1.387 . S
C614 H599 0.930 . S
C614 C609 1.390 . S
C614 C613 1.387 . S
H615 C627 0.930 . S
H616 C629 0.930 . S
H617 C630 0.930 . S
H618 C634 0.959 . S
H619 C634 0.959 . S
H620 C634 0.961 . S
H621 C635 0.960 . S
H622 C635 0.961 . S
H623 C635 0.959 . S
H624 C638 0.929 . S
H625 C639 0.931 . S
H626 C641 0.930 . S
C627 H615 0.930 . S
C627 C628 1.399 . S
C627 C632 1.399 . S
C628 C627 1.399 . S
C628 C629 1.376 . S
C629 H616 0.930 . S
C629 C628 1.376 . S
C629 C630 1.388 . S
C630 H617 0.930 . S
C630 C629 1.388 . S
C630 C631 1.390 . S
C631 C630 1.390 . S
C631 C632 1.394 . S
C631 C637 1.465 . S
C632 C627 1.399 . S
C632 C631 1.394 . S
C632 C633 1.516 . S
C633 C632 1.516 . S
C633 C634 1.502 . S
C633 C635 1.561 . S
C633 C636 1.526 . S
C634 H618 0.959 . S
C634 H619 0.959 . S
C634 H620 0.961 . S
C634 C633 1.502 . S
C635 H621 0.960 . S
C635 H622 0.961 . S
C635 H623 0.959 . S
C635 C633 1.561 . S
C636 C633 1.526 . S
C636 C637 1.396 . S
C636 C641 1.390 . S
C637 C631 1.465 . S
C637 C636 1.396 . S
C637 C638 1.399 . S
C638 H624 0.929 . S
C638 C637 1.399 . S
C638 C639 1.385 . S
C639 H625 0.931 . S
C639 C638 1.385 . S
C639 C640 1.389 . S
C640 C639 1.389 . S
C640 C641 1.387 . S
C641 H626 0.930 . S
C641 C636 1.390 . S
C641 C640 1.387 . S
H642 C654 0.930 . S
H643 C656 0.932 . S
H644 C657 0.930 . S
H645 C661 0.959 . S
H646 C661 0.959 . S
H647 C661 0.961 . S
H648 C662 0.960 . S
H649 C662 0.961 . S
H650 C662 0.959 . S
H651 C665 0.929 . S
H652 C666 0.931 . S
H653 C668 0.930 1_554 S
C654 H642 0.930 . S
C654 C655 1.399 . S
C654 C659 1.399 . S
C655 C654 1.399 . S
C655 C656 1.373 1_554 S
C656 H643 0.932 . S
C656 C655 1.373 1_556 S
C656 C657 1.390 1_655 S
C657 H644 0.930 . S
C657 C656 1.390 1_455 S
C657 C658 1.390 . S
C658 C657 1.390 . S
C658 C659 1.394 1_456 S
C658 C664 1.465 . S
C659 C654 1.399 . S
C659 C658 1.394 1_654 S
C659 C660 1.516 . S
C660 C659 1.516 . S
C660 C661 1.502 . S
C660 C662 1.561 1_655 S
C660 C663 1.526 1_655 S
C661 H645 0.959 . S
C661 H646 0.959 . S
C661 H647 0.961 . S
C661 C660 1.502 . S
C662 H648 0.960 . S
C662 H649 0.961 . S
C662 H650 0.959 . S
C662 C660 1.561 1_455 S
C663 C660 1.526 1_455 S
C663 C664 1.396 1_554 S
C663 C668 1.390 1_554 S
C664 C658 1.465 . S
C664 C663 1.396 1_556 S
C664 C665 1.399 . S
C665 H651 0.929 . S
C665 C664 1.399 . S
C665 C666 1.385 . S
C666 H652 0.931 . S
C666 C665 1.385 . S
C666 C667 1.389 . S
C667 C666 1.389 . S
C667 C668 1.387 . S
C668 H653 0.930 1_556 S
C668 C663 1.390 1_556 S
C668 C667 1.387 . S
H669 C681 0.930 . S
H670 C683 0.930 . S
H671 C684 0.930 . S
H672 C688 0.959 . S
H673 C688 0.959 . S
H674 C688 0.961 . S
H675 C689 0.960 . S
H676 C689 0.961 . S
H677 C689 0.959 . S
H678 C692 0.929 . S
H679 C693 0.931 . S
H680 C695 0.930 1_556 S
C681 H669 0.930 . S
C681 C682 1.399 . S
C681 C686 1.399 . S
C682 C681 1.399 . S
C682 C683 1.376 1_556 S
C683 H670 0.930 . S
C683 C682 1.376 1_554 S
C683 C684 1.388 . S
C684 H671 0.930 . S
C684 C683 1.388 . S
C684 C685 1.390 . S
C685 C684 1.390 . S
C685 C686 1.394 1_554 S
C685 C691 1.465 . S
C686 C681 1.399 . S
C686 C685 1.394 1_556 S
C686 C687 1.516 . S
C687 C686 1.516 . S
C687 C688 1.502 . S
C687 C689 1.561 . S
C687 C690 1.577 . S
C688 H672 0.959 . S
C688 H673 0.959 . S
C688 H674 0.961 . S
C688 C687 1.502 . S
C689 H675 0.960 . S
C689 H676 0.961 . S
C689 H677 0.959 . S
C689 C687 1.561 . S
C690 C687 1.577 . S
C690 C691 1.355 1_556 S
C690 C695 1.378 1_556 S
C691 C685 1.465 . S
C691 C690 1.355 1_554 S
C691 C692 1.399 . S
C692 H678 0.929 . S
C692 C691 1.399 . S
C692 C693 1.385 . S
C693 H679 0.931 . S
C693 C692 1.385 . S
C693 C694 1.389 . S
C694 C693 1.389 . S
C694 C695 1.387 . S
C695 H680 0.930 1_554 S
C695 C690 1.378 1_554 S
C695 C694 1.387 . S
H696 C708 0.930 . S
H697 C710 0.940 . S
H698 C711 0.930 . S
H699 C715 0.959 . S
H700 C715 0.959 . S
H701 C715 0.961 . S
H702 C716 0.960 . S
H703 C716 0.961 . S
H704 C716 0.959 . S
H705 C719 0.929 . S
H706 C720 0.931 . S
H707 C722 0.945 . S
C708 H696 0.930 . S
C708 C709 1.399 1_565 S
C708 C713 1.399 . S
C709 C708 1.399 1_545 S
C709 C710 1.376 . S
C710 H697 0.940 . S
C710 C709 1.376 . S
C710 C711 1.388 1_554 S
C711 H698 0.930 . S
C711 C710 1.388 1_556 S
C711 C712 1.390 . S
C712 C711 1.390 . S
C712 C713 1.394 1_546 S
C712 C718 1.465 . S
C713 C708 1.399 . S
C713 C712 1.394 1_564 S
C713 C714 1.516 . S
C714 C713 1.516 . S
C714 C715 1.502 . S
C714 C716 1.561 . S
C714 C717 1.526 1_554 S
C715 H699 0.959 . S
C715 H700 0.959 . S
C715 H701 0.961 . S
C715 C714 1.502 . S
C716 H702 0.960 . S
C716 H703 0.961 . S
C716 H704 0.959 . S
C716 C714 1.561 . S
C717 C714 1.526 1_556 S
C717 C718 1.396 1_565 S
C717 C722 1.390 . S
C718 C712 1.465 . S
C718 C717 1.396 1_545 S
C718 C719 1.399 . S
C719 H705 0.929 . S
C719 C718 1.399 . S
C719 C720 1.385 . S
C720 H706 0.931 . S
C720 C719 1.385 . S
C720 C721 1.389 1_545 S
C721 C720 1.389 1_565 S
C721 C722 1.387 . S
C722 H707 0.945 . S
C722 C717 1.390 . S
C722 C721 1.387 . S
H723 C735 0.930 1_545 S
H724 C737 0.930 . S
H725 C738 0.930 . S
H726 C742 0.959 1_565 S
H727 C742 0.959 . S
H728 C742 0.961 . S
H729 C743 0.960 . S
H730 C743 0.961 . S
H731 C743 0.959 . S
H732 C746 0.929 . S
H733 C747 0.914 1_565 S
H734 C749 0.930 . S
C735 H723 0.930 1_565 S
C735 C736 1.399 . S
C735 C740 1.399 1_565 S
C736 C735 1.399 . S
C736 C737 1.376 . S
C737 H724 0.930 . S
C737 C736 1.376 . S
C737 C738 1.388 . S
C738 H725 0.930 . S
C738 C737 1.388 . S
C738 C739 1.390 . S
C739 C738 1.390 . S
C739 C740 1.394 1_565 S
C739 C745 1.467 1_565 S
C740 C735 1.399 1_545 S
C740 C739 1.394 1_545 S
C740 C741 1.516 . S
C741 C740 1.516 . S
C741 C742 1.502 . S
C741 C743 1.561 . S
C741 C744 1.526 . S
C742 H726 0.959 1_545 S
C742 H727 0.959 . S
C742 H728 0.961 . S
C742 C741 1.502 . S
C743 H729 0.960 . S
C743 H730 0.961 . S
C743 H731 0.959 . S
C743 C741 1.561 . S
C744 C741 1.526 . S
C744 C745 1.401 . S
C744 C749 1.390 . S
C745 C739 1.467 1_545 S
C745 C744 1.401 . S
C745 C746 1.393 1_545 S
C746 H732 0.929 . S
C746 C745 1.393 1_565 S
C746 C747 1.385 1_565 S
C747 H733 0.914 1_545 S
C747 C746 1.385 1_545 S
C747 C748 1.389 . S
C748 C747 1.389 . S
C748 C749 1.387 . S
C749 H734 0.930 . S
C749 C744 1.390 . S
C749 C748 1.387 . S
H750 C762 0.930 . S
H751 C764 0.930 . S
H752 C765 0.930 . S
H753 C769 0.959 . S
H754 C769 0.959 . S
H755 C769 0.961 . S
H756 C770 0.960 . S
H757 C770 0.961 . S
H758 C770 0.959 . S
H759 C773 0.929 . S
H760 C774 0.931 . S
H761 C776 0.930 . S
C762 H750 0.930 . S
C762 C763 1.399 . S
C762 C767 1.399 . S
C763 C762 1.399 . S
C763 C764 1.376 1_455 S
C764 H751 0.930 . S
C764 C763 1.376 1_655 S
C764 C765 1.388 . S
C765 H752 0.930 . S
C765 C764 1.388 . S
C765 C766 1.390 . S
C766 C765 1.390 . S
C766 C767 1.394 1_655 S
C766 C772 1.465 . S
C767 C762 1.399 . S
C767 C766 1.394 1_455 S
C767 C768 1.516 . S
C768 C767 1.516 . S
C768 C769 1.502 . S
C768 C770 1.561 . S
C768 C771 1.526 . S
C769 H753 0.959 . S
C769 H754 0.959 . S
C769 H755 0.961 . S
C769 C768 1.502 . S
C770 H756 0.960 . S
C770 H757 0.961 . S
C770 H758 0.959 . S
C770 C768 1.561 . S
C771 C768 1.526 . S
C771 C772 1.396 1_455 S
C771 C776 1.390 . S
C772 C766 1.465 . S
C772 C771 1.396 1_655 S
C772 C773 1.399 . S
C773 H759 0.929 . S
C773 C772 1.399 . S
C773 C774 1.385 . S
C774 H760 0.931 . S
C774 C773 1.385 . S
C774 C775 1.389 . S
C775 C774 1.389 . S
C775 C776 1.387 1_655 S
C776 H761 0.930 . S
C776 C771 1.390 . S
C776 C775 1.387 1_455 S
H777 C789 0.930 . S
H778 C791 0.930 . S
H779 C792 0.930 . S
H780 C796 0.959 . S
H781 C796 0.959 . S
H782 C796 0.961 . S
H783 C797 0.960 . S
H784 C797 0.961 . S
H785 C797 0.959 . S
H786 C800 0.929 . S
H787 C801 0.931 . S
H788 C803 0.930 . S
C789 H777 0.930 . S
C789 C790 1.399 . S
C789 C794 1.399 . S
C790 C789 1.399 . S
C790 C791 1.376 . S
C791 H778 0.930 . S
C791 C790 1.376 . S
C791 C792 1.388 . S
C792 H779 0.930 . S
C792 C791 1.388 . S
C792 C793 1.390 . S
C793 C792 1.390 . S
C793 C794 1.394 . S
C793 C799 1.465 . S
C794 C789 1.399 . S
C794 C793 1.394 . S
C794 C795 1.516 . S
C795 C794 1.516 . S
C795 C796 1.502 . S
C795 C797 1.561 . S
C795 C798 1.526 . S
C796 H780 0.959 . S
C796 H781 0.959 . S
C796 H782 0.961 . S
C796 C795 1.502 . S
C797 H783 0.960 . S
C797 H784 0.961 . S
C797 H785 0.959 . S
C797 C795 1.561 . S
C798 C795 1.526 . S
C798 C799 1.396 . S
C798 C803 1.390 . S
C799 C793 1.465 . S
C799 C798 1.396 . S
C799 C800 1.399 . S
C800 H786 0.929 . S
C800 C799 1.399 . S
C800 C801 1.385 . S
C801 H787 0.931 . S
C801 C800 1.385 . S
C801 C802 1.389 . S
C802 C801 1.389 . S
C802 C803 1.387 . S
C803 H788 0.930 . S
C803 C798 1.390 . S
C803 C802 1.387 . S
H804 C816 0.930 . S
H805 C818 0.930 . S
H806 C819 0.930 . S
H807 C823 0.959 . S
H808 C823 0.959 . S
H809 C823 0.961 . S
H810 C824 0.960 . S
H811 C824 0.961 . S
H812 C824 0.959 . S
H813 C827 0.929 . S
H814 C828 0.931 . S
H815 C830 0.930 . S
C816 H804 0.930 . S
C816 C817 1.399 . S
C816 C821 1.399 . S
C817 C816 1.399 . S
C817 C818 1.376 . S
C818 H805 0.930 . S
C818 C817 1.376 . S
C818 C819 1.388 . S
C819 H806 0.930 . S
C819 C818 1.388 . S
C819 C820 1.390 . S
C820 C819 1.390 . S
C820 C821 1.394 . S
C820 C826 1.465 . S
C821 C816 1.399 . S
C821 C820 1.394 . S
C821 C822 1.516 . S
C822 C821 1.516 . S
C822 C823 1.502 . S
C822 C824 1.561 . S
C822 C825 1.526 . S
C823 H807 0.959 . S
C823 H808 0.959 . S
C823 H809 0.961 . S
C823 C822 1.502 . S
C824 H810 0.960 . S
C824 H811 0.961 . S
C824 H812 0.959 . S
C824 C822 1.561 . S
C825 C822 1.526 . S
C825 C826 1.396 . S
C825 C830 1.390 . S
C826 C820 1.465 . S
C826 C825 1.396 . S
C826 C827 1.399 . S
C827 H813 0.929 . S
C827 C826 1.399 . S
C827 C828 1.385 . S
C828 H814 0.931 . S
C828 C827 1.385 . S
C828 C829 1.389 . S
C829 C828 1.389 . S
C829 C830 1.387 . S
C830 H815 0.930 . S
C830 C825 1.390 . S
C830 C829 1.387 . S
H831 C843 0.930 . S
H832 C845 0.930 . S
H833 C846 0.930 . S
H834 C850 0.959 . S
H835 C850 0.959 . S
H836 C850 0.961 . S
H837 C851 0.960 . S
H838 C851 0.961 . S
H839 C851 0.959 . S
H840 C854 0.929 . S
H841 C855 0.931 . S
H842 C857 0.930 . S
C843 H831 0.930 . S
C843 C844 1.399 . S
C843 C848 1.399 . S
C844 C843 1.399 . S
C844 C845 1.376 . S
C845 H832 0.930 . S
C845 C844 1.376 . S
C845 C846 1.388 . S
C846 H833 0.930 . S
C846 C845 1.388 . S
C846 C847 1.390 . S
C847 C846 1.390 . S
C847 C848 1.394 . S
C847 C853 1.465 . S
C848 C843 1.399 . S
C848 C847 1.394 . S
C848 C849 1.516 . S
C849 C848 1.516 . S
C849 C850 1.502 . S
C849 C851 1.561 . S
C849 C852 1.526 . S
C850 H834 0.959 . S
C850 H835 0.959 . S
C850 H836 0.961 . S
C850 C849 1.502 . S
C851 H837 0.960 . S
C851 H838 0.961 . S
C851 H839 0.959 . S
C851 C849 1.561 . S
C852 C849 1.526 . S
C852 C853 1.396 . S
C852 C857 1.390 . S
C853 C847 1.465 . S
C853 C852 1.396 . S
C853 C854 1.399 . S
C854 H840 0.929 . S
C854 C853 1.399 . S
C854 C855 1.385 . S
C855 H841 0.931 . S
C855 C854 1.385 . S
C855 C856 1.389 . S
C856 C855 1.389 . S
C856 C857 1.387 . S
C857 H842 0.930 . S
C857 C852 1.390 . S
C857 C856 1.387 . S
H858 C870 0.930 . S
H859 C872 0.930 . S
H860 C873 0.930 . S
H861 C877 0.959 . S
H862 C877 0.959 . S
H863 C877 0.961 . S
H864 C878 0.960 . S
H865 C878 0.961 . S
H866 C878 0.959 . S
H867 C881 0.929 . S
H868 C882 0.931 . S
H869 C884 0.930 . S
C870 H858 0.930 . S
C870 C871 1.399 . S
C870 C875 1.399 . S
C871 C870 1.399 . S
C871 C872 1.376 . S
C872 H859 0.930 . S
C872 C871 1.376 . S
C872 C873 1.388 . S
C873 H860 0.930 . S
C873 C872 1.388 . S
C873 C874 1.390 . S
C874 C873 1.390 . S
C874 C875 1.394 . S
C874 C880 1.465 . S
C875 C870 1.399 . S
C875 C874 1.394 . S
C875 C876 1.516 . S
C876 C875 1.516 . S
C876 C877 1.502 . S
C876 C878 1.561 . S
C876 C879 1.526 . S
C877 H861 0.959 . S
C877 H862 0.959 . S
C877 H863 0.961 . S
C877 C876 1.502 . S
C878 H864 0.960 . S
C878 H865 0.961 . S
C878 H866 0.959 . S
C878 C876 1.561 . S
C879 C876 1.526 . S
C879 C880 1.396 . S
C879 C884 1.390 . S
C880 C874 1.465 . S
C880 C879 1.396 . S
C880 C881 1.399 . S
C881 H867 0.929 . S
C881 C880 1.399 . S
C881 C882 1.385 . S
C882 H868 0.931 . S
C882 C881 1.385 . S
C882 C883 1.389 . S
C883 C882 1.389 . S
C883 C884 1.387 . S
C884 H869 0.930 . S
C884 C879 1.390 . S
C884 C883 1.387 . S
H885 C897 0.930 . S
H886 C899 0.930 . S
H887 C900 0.930 . S
H888 C904 0.959 . S
H889 C904 0.959 . S
H890 C904 0.961 . S
H891 C905 0.960 . S
H892 C905 0.961 . S
H893 C905 0.959 . S
H894 C908 0.929 . S
H895 C909 0.931 . S
H896 C911 0.930 . S
C897 H885 0.930 . S
C897 C898 1.399 . S
C897 C902 1.399 . S
C898 C897 1.399 . S
C898 C899 1.376 . S
C899 H886 0.930 . S
C899 C898 1.376 . S
C899 C900 1.388 . S
C900 H887 0.930 . S
C900 C899 1.388 . S
C900 C901 1.390 . S
C901 C900 1.390 . S
C901 C902 1.394 . S
C901 C907 1.465 . S
C902 C897 1.399 . S
C902 C901 1.394 . S
C902 C903 1.516 . S
C903 C902 1.516 . S
C903 C904 1.502 . S
C903 C905 1.561 . S
C903 C906 1.526 . S
C904 H888 0.959 . S
C904 H889 0.959 . S
C904 H890 0.961 . S
C904 C903 1.502 . S
C905 H891 0.960 . S
C905 H892 0.961 . S
C905 H893 0.959 . S
C905 C903 1.561 . S
C906 C903 1.526 . S
C906 C907 1.396 . S
C906 C911 1.390 . S
C907 C901 1.465 . S
C907 C906 1.396 . S
C907 C908 1.399 . S
C908 H894 0.929 . S
C908 C907 1.399 . S
C908 C909 1.385 . S
C909 H895 0.931 . S
C909 C908 1.385 . S
C909 C910 1.389 . S
C910 C909 1.389 . S
C910 C911 1.387 . S
C911 H896 0.930 . S
C911 C906 1.390 . S
C911 C910 1.387 . S
H912 C924 0.930 . S
H913 C926 0.930 . S
H914 C927 0.930 . S
H915 C931 0.959 . S
H916 C931 0.959 . S
H917 C931 0.961 . S
H918 C932 0.960 . S
H919 C932 0.961 . S
H920 C932 0.959 . S
H921 C935 0.929 . S
H922 C936 0.931 . S
H923 C938 0.930 . S
C924 H912 0.930 . S
C924 C925 1.399 . S
C924 C929 1.399 . S
C925 C924 1.399 . S
C925 C926 1.376 . S
C926 H913 0.930 . S
C926 C925 1.376 . S
C926 C927 1.388 . S
C927 H914 0.930 . S
C927 C926 1.388 . S
C927 C928 1.390 . S
C928 C927 1.390 . S
C928 C929 1.394 . S
C928 C934 1.465 . S
C929 C924 1.399 . S
C929 C928 1.394 . S
C929 C930 1.516 . S
C930 C929 1.516 . S
C930 C931 1.502 . S
C930 C932 1.561 . S
C930 C933 1.526 . S
C931 H915 0.959 . S
C931 H916 0.959 . S
C931 H917 0.961 . S
C931 C930 1.502 . S
C932 H918 0.960 . S
C932 H919 0.961 . S
C932 H920 0.959 . S
C932 C930 1.561 . S
C933 C930 1.526 . S
C933 C934 1.396 . S
C933 C938 1.390 . S
C934 C928 1.465 . S
C934 C933 1.396 . S
C934 C935 1.399 . S
C935 H921 0.929 . S
C935 C934 1.399 . S
C935 C936 1.385 . S
C936 H922 0.931 . S
C936 C935 1.385 . S
C936 C937 1.389 . S
C937 C936 1.389 . S
C937 C938 1.387 . S
C938 H923 0.930 . S
C938 C933 1.390 . S
C938 C937 1.387 . S
H939 C951 0.930 . S
H940 C953 0.930 . S
H941 C954 0.930 . S
H942 C958 0.959 . S
H943 C958 0.959 . S
H944 C958 0.961 . S
H945 C959 0.960 . S
H946 C959 0.961 . S
H947 C959 0.959 . S
H948 C962 0.929 . S
H949 C963 0.931 . S
H950 C965 0.930 . S
C951 H939 0.930 . S
C951 C952 1.399 . S
C951 C956 1.399 . S
C952 C951 1.399 . S
C952 C953 1.376 . S
C953 H940 0.930 . S
C953 C952 1.376 . S
C953 C954 1.388 . S
C954 H941 0.930 . S
C954 C953 1.388 . S
C954 C955 1.390 . S
C955 C954 1.390 . S
C955 C956 1.394 . S
C955 C961 1.465 . S
C956 C951 1.399 . S
C956 C955 1.394 . S
C956 C957 1.516 . S
C957 C956 1.516 . S
C957 C958 1.502 . S
C957 C959 1.561 . S
C957 C960 1.526 . S
C958 H942 0.959 . S
C958 H943 0.959 . S
C958 H944 0.961 . S
C958 C957 1.502 . S
C959 H945 0.960 . S
C959 H946 0.961 . S
C959 H947 0.959 . S
C959 C957 1.561 . S
C960 C957 1.526 . S
C960 C961 1.396 . S
C960 C965 1.390 . S
C961 C955 1.465 . S
C961 C960 1.396 . S
C961 C962 1.399 . S
C962 H948 0.929 . S
C962 C961 1.399 . S
C962 C963 1.385 . S
C963 H949 0.931 . S
C963 C962 1.385 . S
C963 C964 1.389 . S
C964 C963 1.389 . S
C964 C965 1.387 . S
C965 H950 0.930 . S
C965 C960 1.390 . S
C965 C964 1.387 . S
C493 C202 2.788 . S
C505 C2 2.765 . S
C520 C42 2.814 . S
C532 C122 2.812 . S
C547 C162 2.552 . S
C559 C82 2.540 . S
C574 C442 2.896 . S
C586 C242 2.868 . S
C601 C282 2.895 . S
C613 C362 2.856 . S
C628 C402 2.581 . S
C640 C322 2.604 . S
C655 C15 3.357 . S
C667 C255 3.343 . S
C682 C295 3.429 . S
C694 C55 3.357 . S
C709 C95 3.053 . S
C721 C335 3.010 . S
C736 C375 3.335 . S
C748 C135 3.366 . S
C763 C415 3.062 . S
C775 C175 3.006 . S
C790 C215 3.375 . S
C802 C455 3.417 . S
C817 C181 0.408 . S
C829 C21 0.658 . S
C844 C221 0.481 . S
C856 C61 0.651 . S
C871 C101 0.568 . S
C883 C141 0.501 . S
C898 C261 0.542 . S
C910 C421 0.301 . S
C925 C461 0.497 . S
C937 C301 0.590 . S
C952 C341 0.256 . S
C964 C381 0.420 . S
