# Generated by pormake.
# Topology sxt, (3)-cn, num edge types: 1
# Building blocks:
#     Node 0, Type 0, BuildingBlock: OLANEW_clean_sbu_2, # of connection points: 3
#     Node 1, Type 0, BuildingBlock: OLANEW_clean_sbu_2, # of connection points: 3
#     Node 2, Type 0, BuildingBlock: OLANEW_clean_sbu_2, # of connection points: 3
#     Node 3, Type 0, BuildingBlock: OLANEW_clean_sbu_2, # of connection points: 3
#     Node 4, Type 0, BuildingBlock: OLANEW_clean_sbu_2, # of connection points: 3
#     Node 5, Type 0, BuildingBlock: OLANEW_clean_sbu_2, # of connection points: 3
#     Node 6, Type 0, BuildingBlock: OLANEW_clean_sbu_2, # of connection points: 3
#     Node 7, Type 0, BuildingBlock: OLANEW_clean_sbu_2, # of connection points: 3
#     Node 8, Type 0, BuildingBlock: OLANEW_clean_sbu_2, # of connection points: 3
#     Node 9, Type 0, BuildingBlock: OLANEW_clean_sbu_2, # of connection points: 3
#     Node 10, Type 0, BuildingBlock: OLANEW_clean_sbu_2, # of connection points: 3
#     Node 11, Type 0, BuildingBlock: OLANEW_clean_sbu_2, # of connection points: 3
#     Node 12, Type 0, BuildingBlock: OLANEW_clean_sbu_2, # of connection points: 3
#     Node 13, Type 0, BuildingBlock: OLANEW_clean_sbu_2, # of connection points: 3
#     Node 14, Type 0, BuildingBlock: OLANEW_clean_sbu_2, # of connection points: 3
#     Node 15, Type 0, BuildingBlock: OLANEW_clean_sbu_2, # of connection points: 3
#     Node 16, Type 0, BuildingBlock: OLANEW_clean_sbu_2, # of connection points: 3
#     Node 17, Type 0, BuildingBlock: OLANEW_clean_sbu_2, # of connection points: 3
#     Node 18, Type 0, BuildingBlock: OLANEW_clean_sbu_2, # of connection points: 3
#     Node 19, Type 0, BuildingBlock: OLANEW_clean_sbu_2, # of connection points: 3
#     Node 20, Type 0, BuildingBlock: OLANEW_clean_sbu_2, # of connection points: 3
#     Node 21, Type 0, BuildingBlock: OLANEW_clean_sbu_2, # of connection points: 3
#     Node 22, Type 0, BuildingBlock: OLANEW_clean_sbu_2, # of connection points: 3
#     Node 23, Type 0, BuildingBlock: OLANEW_clean_sbu_2, # of connection points: 3
#     Edge 24, Type (0, 0), BuildingBlock: TEMPAE_clean_linker_10, # of connection points: 2
#     Edge 25, Type (0, 0), BuildingBlock: TEMPAE_clean_linker_10, # of connection points: 2
#     Edge 26, Type (0, 0), BuildingBlock: TEMPAE_clean_linker_10, # of connection points: 2
#     Edge 27, Type (0, 0), BuildingBlock: TEMPAE_clean_linker_10, # of connection points: 2
#     Edge 28, Type (0, 0), BuildingBlock: TEMPAE_clean_linker_10, # of connection points: 2
#     Edge 29, Type (0, 0), BuildingBlock: TEMPAE_clean_linker_10, # of connection points: 2
#     Edge 30, Type (0, 0), BuildingBlock: TEMPAE_clean_linker_10, # of connection points: 2
#     Edge 31, Type (0, 0), BuildingBlock: TEMPAE_clean_linker_10, # of connection points: 2
#     Edge 32, Type (0, 0), BuildingBlock: TEMPAE_clean_linker_10, # of connection points: 2
#     Edge 33, Type (0, 0), BuildingBlock: TEMPAE_clean_linker_10, # of connection points: 2
#     Edge 34, Type (0, 0), BuildingBlock: TEMPAE_clean_linker_10, # of connection points: 2
#     Edge 35, Type (0, 0), BuildingBlock: TEMPAE_clean_linker_10, # of connection points: 2
#     Edge 36, Type (0, 0), BuildingBlock: TEMPAE_clean_linker_10, # of connection points: 2
#     Edge 37, Type (0, 0), BuildingBlock: TEMPAE_clean_linker_10, # of connection points: 2
#     Edge 38, Type (0, 0), BuildingBlock: TEMPAE_clean_linker_10, # of connection points: 2
#     Edge 39, Type (0, 0), BuildingBlock: TEMPAE_clean_linker_10, # of connection points: 2
#     Edge 40, Type (0, 0), BuildingBlock: TEMPAE_clean_linker_10, # of connection points: 2
#     Edge 41, Type (0, 0), BuildingBlock: TEMPAE_clean_linker_10, # of connection points: 2
#     Edge 42, Type (0, 0), BuildingBlock: TEMPAE_clean_linker_10, # of connection points: 2
#     Edge 43, Type (0, 0), BuildingBlock: TEMPAE_clean_linker_10, # of connection points: 2
#     Edge 44, Type (0, 0), BuildingBlock: TEMPAE_clean_linker_10, # of connection points: 2
#     Edge 45, Type (0, 0), BuildingBlock: TEMPAE_clean_linker_10, # of connection points: 2
#     Edge 46, Type (0, 0), BuildingBlock: TEMPAE_clean_linker_10, # of connection points: 2
#     Edge 47, Type (0, 0), BuildingBlock: TEMPAE_clean_linker_10, # of connection points: 2
#     Edge 48, Type (0, 0), BuildingBlock: TEMPAE_clean_linker_10, # of connection points: 2
#     Edge 49, Type (0, 0), BuildingBlock: TEMPAE_clean_linker_10, # of connection points: 2
#     Edge 50, Type (0, 0), BuildingBlock: TEMPAE_clean_linker_10, # of connection points: 2
#     Edge 51, Type (0, 0), BuildingBlock: TEMPAE_clean_linker_10, # of connection points: 2
#     Edge 52, Type (0, 0), BuildingBlock: TEMPAE_clean_linker_10, # of connection points: 2
#     Edge 53, Type (0, 0), BuildingBlock: TEMPAE_clean_linker_10, # of connection points: 2
#     Edge 54, Type (0, 0), BuildingBlock: TEMPAE_clean_linker_10, # of connection points: 2
#     Edge 55, Type (0, 0), BuildingBlock: TEMPAE_clean_linker_10, # of connection points: 2
#     Edge 56, Type (0, 0), BuildingBlock: TEMPAE_clean_linker_10, # of connection points: 2
#     Edge 57, Type (0, 0), BuildingBlock: TEMPAE_clean_linker_10, # of connection points: 2
#     Edge 58, Type (0, 0), BuildingBlock: TEMPAE_clean_linker_10, # of connection points: 2
#     Edge 59, Type (0, 0), BuildingBlock: TEMPAE_clean_linker_10, # of connection points: 2
# Relax obj value: 0.075
# Max RMSD: 0.163
# Mean RMSD: 0.060
data_MOF--net-sxt--node1-OLANEW_clean_sbu_2--edge1-TEMPAE_clean_linker_10
_symmetry_space_group_name_H-M    P1
_symmetry_Int_Tables_number       1
_symmetry_cell_setting            triclinic
loop_
_symmetry_equiv_pos_as_xyz
'x, y, z'
_cell_length_a     35.702576
_cell_length_b     70.45894
_cell_length_c     53.653935
_cell_angle_alpha  89.456917
_cell_angle_beta   88.884193
_cell_angle_gamma 87.863232
loop_
_atom_site_label
_atom_site_type_symbol
_atom_site_fract_x
_atom_site_fract_y
_atom_site_fract_z
_atom_type_partial_charge
O0 O 0.22698 0.46765 0.22383 0.0
Cd1 Cd 0.25949 0.43701 0.23119 0.0
O2 O 0.19312 0.45678 0.19366 0.0
Cd3 Cd 0.23424 0.43342 0.18882 0.0
O4 O 0.29367 0.43718 0.18109 0.0
C5 C 0.29918 0.45318 0.17078 0.0
O6 O 0.26987 0.46406 0.16499 0.0
C7 C 0.20031 0.47004 0.20858 0.0
C8 C 0.21 0.41351 0.25642 0.0
O9 O 0.23257 0.42365 0.26837 0.0
O10 O 0.21157 0.41411 0.23255 0.0
O11 O 0.23256 0.07638 0.30507 0.0
Cd12 Cd 0.26241 0.08881 0.34183 0.0
O13 O 0.26769 0.09319 0.27993 0.0
Cd14 Cd 0.28411 0.10437 0.24334 0.0
O15 O 0.29699 0.11356 0.20532 0.0
C16 C 0.27253 0.11217 0.18861 0.0
O17 O 0.23986 0.10532 0.19475 0.0
C18 C 0.24205 0.08128 0.28306 0.0
C19 C 0.33109 0.07022 0.35133 0.0
O20 O 0.30023 0.06348 0.35937 0.0
O21 O 0.3295 0.08577 0.33874 0.0
O22 O 0.04477 0.60419 0.19375 0.0
Cd23 Cd 0.01264 0.63503 0.18742 0.0
O24 O 0.08273 0.60766 0.1614 0.0
Cd25 Cd 0.04605 0.63024 0.14634 0.0
O26 O 0.99225 0.63228 0.12764 0.0
C27 C 0.96901 0.62045 0.13601 0.0
O28 O 0.97866 0.60969 0.15516 0.0
C29 C 0.0729 0.5983 0.1807 0.0
C30 C 0.0506 0.66266 0.21257 0.0
O31 O 0.02445 0.65346 0.22335 0.0
O32 O 0.05841 0.65901 0.18965 0.0
O33 O 0.09762 0.02411 0.12586 0.0
Cd34 Cd 0.05437 0.00582 0.1018 0.0
O35 O 0.09 0.00134 0.15328 0.0
Cd36 Cd 0.09383 0.98914 0.19074 0.0
O37 O 0.10195 0.99092 0.23069 0.0
C38 C 0.08241 0.00395 0.24149 0.0
O39 O 0.05868 0.01434 0.22823 0.0
C40 C 0.10486 0.0169 0.1471 0.0
C41 C 0.08648 0.97049 0.08944 0.0
O42 O 0.0846 0.98394 0.07322 0.0
O43 O 0.07293 0.97364 0.11134 0.0
O44 O 0.88614 0.58863 0.83919 0.0
Cd45 Cd 0.92265 0.60489 0.86979 0.0
O46 O 0.91162 0.60834 0.81272 0.0
Cd47 Cd 0.92609 0.61931 0.7757 0.0
O48 O 0.92692 0.62853 0.73686 0.0
C49 C 0.89763 0.63703 0.72863 0.0
O50 O 0.86918 0.64055 0.74399 0.0
C51 C 0.89046 0.59447 0.81689 0.0
C52 C 0.99673 0.59133 0.86526 0.0
O53 O 0.97449 0.58452 0.88182 0.0
O54 O 0.98419 0.60486 0.85125 0.0
O55 O 0.61434 0.03436 0.75616 0.0
Cd56 Cd 0.56657 0.05679 0.74023 0.0
O57 O 0.66087 0.04769 0.73598 0.0
Cd58 Cd 0.62211 0.06274 0.71129 0.0
O59 O 0.58869 0.05586 0.6793 0.0
C60 C 0.59358 0.0387 0.67248 0.0
O61 O 0.61742 0.02763 0.68474 0.0
C62 C 0.64934 0.03558 0.75181 0.0
C63 C 0.5674 0.08924 0.76942 0.0
O64 O 0.54631 0.07551 0.77534 0.0
O65 O 0.58715 0.08783 0.74928 0.0
O66 O 0.81884 0.51531 0.65465 0.0
Cd67 Cd 0.80086 0.48979 0.62745 0.0
O68 O 0.77812 0.50355 0.68104 0.0
Cd69 Cd 0.7515 0.50185 0.71793 0.0
O70 O 0.72765 0.50937 0.75431 0.0
C71 C 0.7002 0.52137 0.75493 0.0
O72 O 0.68683 0.528 0.73379 0.0
C73 C 0.80235 0.51585 0.67582 0.0
C74 C 0.84266 0.45669 0.63844 0.0
O75 O 0.85246 0.46768 0.62049 0.0
O76 O 0.81285 0.46124 0.65102 0.0
O77 O 0.85205 0.92633 0.80381 0.0
Cd78 Cd 0.89493 0.89859 0.80643 0.0
O79 O 0.81779 0.91125 0.77738 0.0
Cd80 Cd 0.86381 0.89194 0.76588 0.0
O81 O 0.89649 0.89779 0.73208 0.0
C82 C 0.90505 0.91508 0.72976 0.0
O83 O 0.89674 0.92671 0.74823 0.0
C84 C 0.82223 0.92543 0.79137 0.0
C85 C 0.86946 0.87493 0.8446 0.0
O86 O 0.8957 0.88644 0.84836 0.0
O87 O 0.85591 0.87431 0.8227 0.0
O88 O 0.11426 0.10636 0.52455 0.0
Cd89 Cd 0.08563 0.13651 0.51067 0.0
O90 O 0.10983 0.09967 0.48505 0.0
Cd91 Cd 0.12293 0.08244 0.45221 0.0
O92 O 0.12896 0.06665 0.41759 0.0
C93 C 0.11476 0.05048 0.41561 0.0
O94 O 0.09725 0.04316 0.43496 0.0
C95 C 0.11993 0.09474 0.50681 0.0
C96 C 0.04215 0.15654 0.54582 0.0
O97 O 0.02759 0.14441 0.53162 0.0
O98 O 0.07761 0.15868 0.544 0.0
O99 O 0.95723 0.32862 0.41879 0.0
Cd100 Cd 0.94262 0.33187 0.37469 0.0
O101 O 0.96493 0.29803 0.41268 0.0
Cd102 Cd 0.97446 0.26846 0.42441 0.0
O103 O 0.98744 0.23942 0.43674 0.0
C104 C 0.96783 0.22607 0.42905 0.0
O105 O 0.94001 0.2302 0.41402 0.0
C106 C 0.96554 0.31214 0.42728 0.0
C107 C 0.00138 0.34825 0.34834 0.0
O108 O 0.974 0.35848 0.35732 0.0
O109 O 0.00081 0.33022 0.35169 0.0
O110 O 0.69242 0.98757 0.40939 0.0
Cd111 Cd 0.63407 0.97317 0.39748 0.0
O112 O 0.71717 0.95927 0.40222 0.0
Cd113 Cd 0.761 0.93682 0.39962 0.0
O114 O 0.79329 0.91026 0.40475 0.0
C115 C 0.82767 0.90954 0.41052 0.0
O116 O 0.84543 0.92542 0.4126 0.0
C117 C 0.72091 0.9762 0.40957 0.0
C118 C 0.57385 0.99815 0.38709 0.0
O119 O 0.58117 0.99315 0.40956 0.0
O120 O 0.59562 0.99174 0.36958 0.0
O121 O 0.14667 0.78119 0.38703 0.0
Cd122 Cd 0.19673 0.79404 0.36086 0.0
O123 O 0.18234 0.75746 0.40088 0.0
Cd124 Cd 0.22042 0.76033 0.36898 0.0
O125 O 0.21237 0.74738 0.33279 0.0
C126 C 0.18287 0.75269 0.32137 0.0
O127 O 0.16196 0.76679 0.33055 0.0
C128 C 0.15153 0.7671 0.40175 0.0
C129 C 0.23472 0.82091 0.38747 0.0
O130 O 0.20568 0.82564 0.37484 0.0
O131 O 0.24618 0.80345 0.38723 0.0
O132 O 0.3113 0.97398 0.52499 0.0
Cd133 Cd 0.3626 0.95 0.52625 0.0
O134 O 0.33453 0.98827 0.49186 0.0
Cd135 Cd 0.38969 0.97497 0.49763 0.0
O136 O 0.43616 0.98049 0.52196 0.0
C137 C 0.42621 0.9845 0.54422 0.0
O138 O 0.39056 0.98377 0.55058 0.0
C139 C 0.30801 0.98642 0.50777 0.0
C140 C 0.34433 0.91943 0.49674 0.0
O141 O 0.335 0.92004 0.51992 0.0
O142 O 0.36307 0.93312 0.48763 0.0
O143 O 0.05514 0.30369 0.61792 0.0
Cd144 Cd 0.05438 0.30838 0.66285 0.0
O145 O -4e-05 0.29254 0.6256 0.0
Cd146 Cd 0.94277 0.28261 0.6222 0.0
O147 O 0.88481 0.27201 0.63252 0.0
C148 C 0.87785 0.25433 0.63397 0.0
O149 O 0.88342 0.27252 0.63277 0.0
C150 C 0.02471 0.29762 0.60971 0.0
C151 C 0.00585 0.33982 0.66963 0.0
O152 O 0.04142 0.34169 0.66839 0.0
O153 O 0.99345 0.323 0.66906 0.0
O154 O 0.98472 0.03339 0.45521 0.0
Cd155 Cd 0.03916 0.04884 0.47126 0.0
O156 O 0.97689 0.02147 0.49264 0.0
Cd157 Cd 0.95108 0.00371 0.52131 0.0
O158 O 0.93811 0.98635 0.55405 0.0
C159 C 0.96505 0.97792 0.56531 0.0
O160 O 0.99938 0.97972 0.55656 0.0
C161 C 0.96571 0.02352 0.47039 0.0
C162 C 0.02905 0.08806 0.46623 0.0
O163 O 0.0176 0.07945 0.48594 0.0
O164 O 0.0456 0.07812 0.44912 0.0
O165 O 0.92662 0.68849 0.47842 0.0
Cd166 Cd 0.86984 0.6741 0.49442 0.0
O167 O 0.90524 0.7147 0.49613 0.0
Cd168 Cd 0.90542 0.74543 0.50066 0.0
O169 O 0.90308 0.77567 0.49203 0.0
C170 C 0.91636 0.78096 0.47105 0.0
O171 O 0.93181 0.7681 0.45612 0.0
C172 C 0.93053 0.7059 0.48328 0.0
C173 C 0.87534 0.66624 0.54514 0.0
O174 O 0.88329 0.65339 0.52893 0.0
O175 O 0.86455 0.68276 0.53733 0.0
O176 O 0.40121 0.1804 0.95607 0.0
Cd177 Cd 0.33934 0.16727 0.96282 0.0
O178 O 0.37861 0.20815 0.96862 0.0
Cd179 Cd 0.38348 0.23883 0.97292 0.0
O180 O 0.39074 0.26942 0.97022 0.0
C181 C 0.39893 0.27644 0.94898 0.0
O182 O 0.40323 0.26502 0.92984 0.0
C183 C 0.40606 0.1978 0.96051 0.0
C184 C 0.32648 0.15548 0.01195 0.0
O185 O 0.34125 0.14406 0.99575 0.0
O186 O 0.31806 0.17252 0.00492 0.0
O187 O 0.64705 0.79859 0.02691 0.0
Cd188 Cd 0.71276 0.78774 0.02819 0.0
O189 O 0.6252 0.77008 0.02193 0.0
Cd190 Cd 0.67592 0.75242 0.02741 0.0
O191 O 0.67994 0.72302 0.04075 0.0
C192 C 0.67176 0.70997 0.02582 0.0
O193 O 0.66569 0.71447 0.00238 0.0
C194 C 0.61968 0.78796 0.02347 0.0
C195 C 0.75227 0.80493 0.98924 0.0
O196 O 0.74062 0.78805 0.98705 0.0
O197 O 0.74584 0.81349 0.00993 0.0
O198 O 0.34501 0.50991 0.8904 0.0
Cd199 Cd 0.32498 0.51143 0.84718 0.0
O200 O 0.37395 0.48202 0.88609 0.0
Cd201 Cd 0.4035 0.45701 0.90158 0.0
O202 O 0.41487 0.42765 0.91355 0.0
C203 C 0.38638 0.41791 0.91857 0.0
O204 O 0.35287 0.42614 0.91685 0.0
C205 C 0.36424 0.49613 0.8996 0.0
C206 C 0.25479 0.52992 0.8455 0.0
O207 O 0.25798 0.51174 0.84594 0.0
O208 O 0.28483 0.53932 0.8453 0.0
O209 O 0.65786 0.27447 0.92997 0.0
Cd210 Cd 0.71856 0.28848 0.92242 0.0
O211 O 0.68499 0.24652 0.92335 0.0
Cd212 Cd 0.68055 0.21639 0.91578 0.0
O213 O 0.65977 0.19153 0.8977 0.0
C214 C 0.62929 0.19375 0.88599 0.0
O215 O 0.6119 0.21052 0.88611 0.0
C216 C 0.65566 0.25658 0.92862 0.0
C217 C 0.72648 0.31895 0.9542 0.0
O218 O 0.71157 0.32128 0.93279 0.0
O219 O 0.73819 0.30218 0.96041 0.0
O220 O 0.45278 0.58147 0.99396 0.0
Cd221 Cd 0.40211 0.59568 0.96915 0.0
O222 O 0.49446 0.59525 0.97008 0.0
Cd223 Cd 0.55086 0.59537 0.95387 0.0
O224 O 0.58933 0.58506 0.92463 0.0
C225 C 0.58065 0.56941 0.91511 0.0
O226 O 0.55127 0.5608 0.92422 0.0
C227 C 0.48679 0.58385 0.98775 0.0
C228 C 0.37636 0.63199 0.98257 0.0
O229 O 0.36105 0.61726 0.99182 0.0
O230 O 0.4044 0.62946 0.96751 0.0
O231 O 0.32708 0.81751 0.03485 0.0
Cd232 Cd 0.25956 0.81357 0.03172 0.0
O233 O 0.33285 0.82067 0.99418 0.0
Cd234 Cd 0.27985 0.80711 0.98868 0.0
O235 O 0.27209 0.77653 0.98921 0.0
C236 C 0.28836 0.76763 0.00694 0.0
O237 O 0.3046 0.77749 0.02406 0.0
C238 C 0.34717 0.82122 0.01568 0.0
C239 C 0.21972 0.84683 0.04455 0.0
O240 O 0.22182 0.83279 0.05988 0.0
O241 O 0.23614 0.8451 0.02321 0.0
O242 O 0.46712 0.55012 0.06751 0.0
Cd243 Cd 0.49745 0.56462 0.10296 0.0
O244 O 0.47257 0.52094 0.08222 0.0
Cd245 Cd 0.50555 0.52942 0.11382 0.0
O246 O 0.54521 0.53076 0.14432 0.0
C247 C 0.54133 0.52013 0.16341 0.0
O248 O 0.56322 0.52211 0.18253 0.0
C249 C 0.46108 0.53251 0.06548 0.0
C250 C 0.54166 0.59489 0.08844 0.0
O251 O 0.5563 0.57822 0.09173 0.0
O252 O 0.50623 0.59726 0.09219 0.0
O253 O 0.66975 0.48412 0.08096 0.0
Cd254 Cd 0.71344 0.46171 0.10114 0.0
O255 O 0.71653 0.49681 0.06061 0.0
Cd256 Cd 0.74085 0.52008 0.03946 0.0
O257 O 0.77685 0.54431 0.0392 0.0
C258 C 0.76511 0.56017 0.04803 0.0
O259 O 0.72971 0.5623 0.05496 0.0
C260 C 0.68163 0.49636 0.06548 0.0
C261 C 0.72243 0.42915 0.07247 0.0
O262 O 0.69641 0.4307 0.0892 0.0
O263 O 0.74463 0.44292 0.06961 0.0
C264 C 0.19093 0.50404 0.2211 0.0
C265 C 0.17958 0.48862 0.20708 0.0
C266 C 0.17363 0.52213 0.21838 0.0
C267 C 0.14415 0.52485 0.20132 0.0
C268 C 0.13179 0.50924 0.18766 0.0
C269 C 0.14972 0.49132 0.19066 0.0
C270 C 0.1876 0.53844 0.23324 0.0
C271 C 0.1002 0.51156 0.16944 0.0
C272 C 0.07876 0.56847 0.2063 0.0
C273 C 0.09266 0.58008 0.18711 0.0
C274 C 0.09554 0.55056 0.21139 0.0
C275 C 0.12709 0.54415 0.19703 0.0
C276 C 0.14187 0.55598 0.17807 0.0
C277 C 0.12443 0.57379 0.17329 0.0
C278 C 0.07898 0.53831 0.23173 0.0
C279 C 0.1757 0.54969 0.16249 0.0
H280 H 0.214 0.50212 0.23383 0.0
H281 H 0.14068 0.47949 0.17981 0.0
H282 H 0.19932 0.54925 0.2204 0.0
H283 H 0.16405 0.54548 0.24382 0.0
H284 H 0.20962 0.5338 0.24655 0.0
H285 H 0.09277 0.49784 0.16116 0.0
H286 H 0.07491 0.51797 0.17885 0.0
H287 H 0.10834 0.52138 0.15414 0.0
H288 H 0.0542 0.57319 0.21707 0.0
H289 H 0.13545 0.58268 0.15849 0.0
H290 H 0.10076 0.53409 0.24539 0.0
H291 H 0.06884 0.52507 0.22359 0.0
H292 H 0.05522 0.54565 0.24181 0.0
H293 H 0.19955 0.54583 0.17472 0.0
H294 H 0.18457 0.56086 0.14912 0.0
H295 H 0.16931 0.53682 0.15185 0.0
C296 C 0.18487 0.06905 0.26381 0.0
C297 C 0.22281 0.0733 0.26159 0.0
C298 C 0.16641 0.06051 0.24425 0.0
C299 C 0.18629 0.05632 0.22176 0.0
C300 C 0.22448 0.06089 0.21923 0.0
C301 C 0.24241 0.06912 0.23931 0.0
C302 C 0.12573 0.05578 0.24776 0.0
C303 C 0.24662 0.05671 0.19552 0.0
C304 C 0.14976 0.01685 0.1823 0.0
C305 C 0.12799 0.02704 0.16492 0.0
C306 C 0.16889 0.02621 0.20088 0.0
C307 C 0.16753 0.04631 0.20142 0.0
C308 C 0.14734 0.05672 0.18303 0.0
C309 C 0.12766 0.04694 0.16503 0.0
C310 C 0.18969 0.01456 0.22033 0.0
C311 C 0.14594 0.07816 0.18269 0.0
H312 H 0.16959 0.07246 0.28092 0.0
H313 H 0.27206 0.07173 0.2378 0.0
H314 H 0.10836 0.06426 0.23449 0.0
H315 H 0.12199 0.04061 0.24359 0.0
H316 H 0.11505 0.05865 0.26699 0.0
H317 H 0.27511 0.06253 0.19582 0.0
H318 H 0.24945 0.04114 0.1928 0.0
H319 H 0.23164 0.06282 0.17921 0.0
H320 H 0.15192 0.00151 0.18142 0.0
H321 H 0.11126 0.05489 0.1514 0.0
H322 H 0.17739 0.01765 0.23908 0.0
H323 H 0.21949 0.01846 0.22057 0.0
H324 H 0.1885 0.99906 0.21703 0.0
H325 H 0.13254 0.08357 0.20017 0.0
H326 H 0.13009 0.08413 0.16663 0.0
H327 H 0.1748 0.08348 0.18178 0.0
C328 C 0.78565 0.53797 0.7108 0.0
C329 C 0.81284 0.52976 0.69464 0.0
C330 C 0.7958 0.54983 0.73022 0.0
C331 C 0.83407 0.55354 0.73348 0.0
C332 C 0.86138 0.54618 0.7163 0.0
C333 C 0.85041 0.53439 0.69701 0.0
C334 C 0.76567 0.55797 0.7476 0.0
C335 C 0.90229 0.55038 0.7187 0.0
C336 C 0.86215 0.59413 0.77452 0.0
C337 C 0.87332 0.58438 0.79617 0.0
C338 C 0.84852 0.58439 0.75406 0.0
C339 C 0.84584 0.56441 0.75544 0.0
C340 C 0.85535 0.55461 0.77774 0.0
C341 C 0.86894 0.56473 0.79785 0.0
C342 C 0.83816 0.59557 0.73088 0.0
C343 C 0.85196 0.53337 0.78014 0.0
H344 H 0.75638 0.5351 0.70827 0.0
H345 H 0.87141 0.52825 0.6843 0.0
H346 H 0.76624 0.54995 0.7655 0.0
H347 H 0.77058 0.57306 0.75176 0.0
H348 H 0.73731 0.5571 0.73966 0.0
H349 H 0.91981 0.54421 0.70324 0.0
H350 H 0.90575 0.56597 0.71891 0.0
H351 H 0.91285 0.54454 0.73663 0.0
H352 H 0.86375 0.60942 0.77359 0.0
H353 H 0.87718 0.55715 0.81468 0.0
H354 H 0.8161 0.58879 0.72017 0.0
H355 H 0.86342 0.59659 0.71862 0.0
H356 H 0.82809 0.61021 0.7356 0.0
H357 H 0.82287 0.52944 0.7762 0.0
H358 H 0.85935 0.52798 0.799 0.0
H359 H 0.87072 0.52612 0.7662 0.0
C360 C 0.71288 0.0196 0.75368 0.0
C361 C 0.67618 0.02174 0.76331 0.0
C362 C 0.73692 0.00469 0.76172 0.0
C363 C 0.72411 0.99177 0.78007 0.0
C364 C 0.68807 0.99465 0.79113 0.0
C365 C 0.6644 0.00954 0.78249 0.0
C366 C 0.77511 0.00205 0.74935 0.0
C367 C 0.67371 0.98138 0.8111 0.0
C368 C 0.76535 0.94176 0.77376 0.0
C369 C 0.79446 0.94159 0.79096 0.0
C370 C 0.74157 0.95783 0.77065 0.0
C371 C 0.74665 0.97408 0.78533 0.0
C372 C 0.77468 0.9737 0.80364 0.0
C373 C 0.79847 0.95747 0.80614 0.0
C374 C 0.71211 0.95769 0.7508 0.0
C375 C 0.78043 0.99066 0.81992 0.0
H376 H 0.72227 0.029 0.73891 0.0
H377 H 0.63622 0.01123 0.79024 0.0
H378 H 0.7971 0.00017 0.76358 0.0
H379 H 0.77587 0.989 0.73791 0.0
H380 H 0.78214 0.01426 0.73709 0.0
H381 H 0.64765 0.98714 0.82034 0.0
H382 H 0.66767 0.96753 0.80267 0.0
H383 H 0.69524 0.97864 0.82546 0.0
H384 H 0.76194 0.92957 0.76195 0.0
H385 H 0.82076 0.95742 0.81957 0.0
H386 H 0.71829 0.96851 0.73627 0.0
H387 H 0.6841 0.96148 0.75899 0.0
H388 H 0.71079 0.94365 0.74169 0.0
H389 H 0.79166 0.0024 0.80844 0.0
H390 H 0.8003 0.98731 0.83517 0.0
H391 H 0.75332 0.99588 0.82824 0.0
C392 C 0.13156 0.0603 0.49803 0.0
C393 C 0.1411 0.07664 0.51076 0.0
C394 C 0.15457 0.04373 0.4989 0.0
C395 C 0.18816 0.04372 0.51249 0.0
C396 C 0.19663 0.05984 0.52664 0.0
C397 C 0.17274 0.07608 0.52578 0.0
C398 C 0.14386 0.02671 0.48412 0.0
C399 C 0.23213 0.06037 0.54142 0.0
C400 C 0.24655 0.99871 0.52582 0.0
C401 C 0.27493 -0.00023 0.50742 0.0
C402 C 0.21722 0.01253 0.52721 0.0
C403 C 0.21643 0.0278 0.50988 0.0
C404 C 0.24405 0.02849 0.49064 0.0
C405 C 0.27291 0.01446 0.48962 0.0
C406 C 0.18768 0.0111 0.54759 0.0
C407 C 0.2439 0.04444 0.47162 0.0
H408 H 0.10647 0.06059 0.48696 0.0
H409 H 0.17997 0.08872 0.53573 0.0
H410 H 0.15859 0.02694 0.46572 0.0
H411 H 0.15209 0.01321 0.49368 0.0
H412 H 0.11321 0.02688 0.48088 0.0
H413 H 0.23299 0.07329 0.55307 0.0
H414 H 0.23491 0.04767 0.55372 0.0
H415 H 0.25676 0.06009 0.52846 0.0
H416 H 0.24771 0.98733 0.53956 0.0
H417 H 0.29453 0.01535 0.47523 0.0
H418 H 0.15928 0.01219 0.53952 0.0
H419 H 0.18982 0.02309 0.56067 0.0
H420 H 0.19054 0.99758 0.55831 0.0
H421 H 0.21666 0.04531 0.46198 0.0
H422 H 0.26673 0.04259 0.45739 0.0
H423 H 0.24718 0.05818 0.48112 0.0
C424 C 0.00081 0.29525 0.46126 0.0
C425 C 0.97494 0.30954 0.45384 0.0
C426 C 0.00942 0.29249 0.48647 0.0
C427 C 0.99255 0.3047 0.50458 0.0
C428 C 0.96709 0.31948 0.49713 0.0
C429 C 0.95858 0.32171 0.47182 0.0
C430 C 0.03669 0.27657 0.49369 0.0
C431 C 0.94867 0.33283 0.51592 0.0
C432 C 0.98824 0.28851 0.57227 0.0
C433 C 0.01765 0.29827 0.58255 0.0
C434 C 0.97976 0.29044 0.54691 0.0
C435 C 0.00171 0.30214 0.53134 0.0
C436 C 0.0321 0.31164 0.5414 0.0
C437 C 0.03971 0.30958 0.56685 0.0
C438 C 0.94727 0.27998 0.53677 0.0
C439 C 0.05605 0.32434 0.52541 0.0
H440 H 0.01504 0.28646 0.44733 0.0
H441 H 0.93881 0.3329 0.46612 0.0
H442 H 0.06146 0.28248 0.50258 0.0
H443 H 0.02337 0.26707 0.50759 0.0
H444 H 0.04643 0.26796 0.47742 0.0
H445 H 0.92981 0.34371 0.50705 0.0
H446 H 0.93209 0.32467 0.52974 0.0
H447 H 0.97037 0.34018 0.52632 0.0
H448 H 0.9719 0.27929 0.58393 0.0
H449 H 0.06252 0.31722 0.57457 0.0
H450 H 0.95809 0.26863 0.52406 0.0
H451 H 0.92876 0.28972 0.52576 0.0
H452 H 0.93012 0.27344 0.55179 0.0
H453 H 0.06827 0.31628 0.50936 0.0
H454 H 0.07923 0.33035 0.53597 0.0
H455 H 0.03848 0.33623 0.51772 0.0
C456 C 0.78211 0.9699 0.43068 0.0
C457 C 0.75728 0.9826 0.4185 0.0
C458 C 0.81652 0.97585 0.43943 0.0
C459 C 0.82609 0.99504 0.43622 0.0
C460 C 0.80078 0.00803 0.4244 0.0
C461 C 0.76664 0.00165 0.4157 0.0
C462 C 0.84264 0.9616 0.45209 0.0
C463 C 0.80972 0.02869 0.42101 0.0
C464 C 0.89944 0.01476 0.47827 0.0
C465 C 0.93083 0.01508 0.46223 0.0
C466 C 0.86518 0.00819 0.4701 0.0
C467 C 0.86247 0.00157 0.44537 0.0
C468 C 0.89436 0.00152 0.42925 0.0
C469 C 0.92806 0.00851 0.43779 0.0
C470 C 0.83165 0.00876 0.48771 0.0
C471 C 0.89275 0.99426 0.40292 0.0
H472 H 0.77429 0.9554 0.43402 0.0
H473 H 0.74733 0.01157 0.40655 0.0
H474 H 0.86876 0.95964 0.4407 0.0
H475 H 0.85073 0.96687 0.47056 0.0
H476 H 0.82988 0.94756 0.45476 0.0
H477 H 0.78676 0.03703 0.41182 0.0
H478 H 0.81486 0.03511 0.43937 0.0
H479 H 0.83574 0.02992 0.40956 0.0
H480 H 0.90124 0.02034 0.49694 0.0
H481 H 0.95235 0.00882 0.42536 0.0
H482 H 0.8201 0.99442 0.48968 0.0
H483 H 0.8092 0.01828 0.48 0.0
H484 H 0.83867 0.01389 0.50651 0.0
H485 H 0.88309 0.97947 0.4031 0.0
H486 H 0.92039 0.99454 0.39308 0.0
H487 H 0.87217 0.00303 0.39217 0.0
C488 C 0.12503 0.74476 0.43349 0.0
C489 C 0.12009 0.76064 0.41776 0.0
C490 C 0.09443 0.73687 0.44607 0.0
C491 C 0.05797 0.74497 0.44273 0.0
C492 C 0.05302 0.76154 0.42784 0.0
C493 C 0.08418 0.76924 0.41566 0.0
C494 C 0.10091 0.71933 0.46205 0.0
C495 C 0.01468 0.77081 0.42414 0.0
C496 C 0.97763 0.71139 0.44935 0.0
C497 C 0.96301 0.71597 0.47303 0.0
C498 C 0.00821 0.72094 0.43918 0.0
C499 C 0.02486 0.73522 0.45319 0.0
C500 C 0.01039 0.73979 0.47722 0.0
C501 C 0.97966 0.73004 0.48689 0.0
C502 C 0.02261 0.7158 0.41337 0.0
C503 C 0.02757 0.7548 0.49279 0.0
H504 H 0.1527 0.73809 0.43538 0.0
H505 H 0.08011 0.78161 0.40371 0.0
H506 H 0.08733 0.72129 0.48066 0.0
H507 H 0.088 0.70704 0.45325 0.0
H508 H 0.1312 0.71583 0.46458 0.0
H509 H 0.01519 0.78266 0.41036 0.0
H510 H 0.99477 0.76022 0.41779 0.0
H511 H 0.00374 0.77652 0.44215 0.0
H512 H 0.96478 0.70049 0.43863 0.0
H513 H 0.96914 0.73318 0.50553 0.0
H514 H 0.05234 0.71069 0.41418 0.0
H515 H 0.02158 0.72858 0.4011 0.0
H516 H 0.00612 0.70461 0.40476 0.0
H517 H 0.05755 0.751 0.49597 0.0
H518 H 0.01302 0.75661 0.51116 0.0
H519 H 0.02645 0.76862 0.48274 0.0
C520 C 0.46432 0.2005 0.93447 0.0
C521 C 0.44288 0.20604 0.95549 0.0
C522 C 0.49898 0.20859 0.92916 0.0
C523 C 0.51272 0.22222 0.94558 0.0
C524 C 0.49141 0.22756 0.96709 0.0
C525 C 0.45672 0.2194 0.97177 0.0
C526 C 0.52082 0.20256 0.906 0.0
C527 C 0.50536 0.2418 0.98527 0.0
C528 C 0.61719 0.23047 0.94568 0.0
C529 C 0.61922 0.24765 0.93247 0.0
C530 C 0.58275 0.22191 0.94982 0.0
C531 C 0.54958 0.23077 0.94051 0.0
C532 C 0.5515 0.24813 0.9271 0.0
C533 C 0.58633 0.25647 0.92344 0.0
C534 C 0.58179 0.20357 0.96458 0.0
C535 C 0.51676 0.25789 0.91666 0.0
H536 H 0.45365 0.19009 0.92193 0.0
H537 H 0.44069 0.22321 0.98845 0.0
H538 H 0.52852 0.2152 0.89481 0.0
H539 H 0.54727 0.19497 0.91136 0.0
H540 H 0.50485 0.19303 0.89411 0.0
H541 H 0.48551 0.24428 0.00122 0.0
H542 H 0.53283 0.23675 0.99264 0.0
H543 H 0.50974 0.25556 0.97564 0.0
H544 H 0.64248 0.22393 0.95329 0.0
H545 H 0.58793 0.2698 0.91326 0.0
H546 H 0.56926 0.19238 0.95335 0.0
H547 H 0.56385 0.20559 0.98153 0.0
H548 H 0.61015 0.19843 0.97033 0.0
H549 H 0.50239 0.24806 0.9043 0.0
H550 H 0.52321 0.27095 0.90589 0.0
H551 H 0.4968 0.2618 0.93204 0.0
C552 C 0.40538 0.8203 0.04098 0.0
C553 C 0.38816 0.82319 0.0179 0.0
C554 C 0.44447 0.81785 0.04248 0.0
C555 C 0.46677 0.81832 0.02038 0.0
C556 C 0.44984 0.82298 0.99738 0.0
C557 C 0.41072 0.82537 0.99641 0.0
C558 C 0.46148 0.81312 0.06742 0.0
C559 C 0.47264 0.82379 0.97343 0.0
C560 C 0.57317 0.81568 0.02496 0.0
C561 C 0.58089 0.79614 0.02195 0.0
C562 C 0.53617 0.82324 0.02437 0.0
C563 C 0.50633 0.81095 0.02071 0.0
C564 C 0.51402 0.79127 0.01741 0.0
C565 C 0.55111 0.78413 0.01806 0.0
C566 C 0.52895 0.8443 0.0279 0.0
C567 C 0.48299 0.77766 0.01339 0.0
H568 H 0.38825 0.81879 0.05773 0.0
H569 H 0.39774 0.82784 0.97852 0.0
H570 H 0.46962 0.79777 0.06813 0.0
H571 H 0.48723 0.82114 0.07007 0.0
H572 H 0.44157 0.81628 0.08314 0.0
H573 H 0.45647 0.83057 0.95803 0.0
H574 H 0.49849 0.83174 0.97603 0.0
H575 H 0.48135 0.80915 0.96776 0.0
H576 H 0.59599 0.82506 0.02799 0.0
H577 H 0.55668 0.76903 0.01567 0.0
H578 H 0.51112 0.84681 0.0448 0.0
H579 H 0.5134 0.85041 0.01183 0.0
H580 H 0.55529 0.85201 0.02986 0.0
H581 H 0.46309 0.77809 0.02954 0.0
H582 H 0.49376 0.76279 0.01095 0.0
H583 H 0.46698 0.78197 0.99661 0.0
C584 C 0.44005 0.50583 0.0391 0.0
C585 C 0.44228 0.52541 0.04317 0.0
C586 C 0.42513 0.49897 0.01702 0.0
C587 C 0.41255 0.51198 0.99847 0.0
C588 C 0.41308 0.53174 0.00299 0.0
C589 C 0.42783 0.5382 0.02529 0.0
C590 C 0.42348 0.4778 0.01338 0.0
C591 C 0.40002 0.54622 0.98378 0.0
C592 C 0.41471 0.49768 0.93039 0.0
C593 C 0.37648 0.49717 0.92549 0.0
C594 C 0.42698 0.50198 0.95429 0.0
C595 C 0.40029 0.5051 0.97388 0.0
C596 C 0.36165 0.50328 0.96926 0.0
C597 C 0.35012 0.49979 0.9449 0.0
C598 C 0.46829 0.50431 0.95815 0.0
C599 C 0.33241 0.50596 0.98974 0.0
H600 H 0.45073 0.49581 0.05293 0.0
H601 H 0.42908 0.55334 0.02835 0.0
H602 H 0.39512 0.47408 0.00736 0.0
H603 H 0.44365 0.47324 0.99844 0.0
H604 H 0.43031 0.46967 0.03064 0.0
H605 H 0.39312 0.56023 0.99236 0.0
H606 H 0.42271 0.54802 0.96961 0.0
H607 H 0.37493 0.54167 0.97395 0.0
H608 H 0.43491 0.49583 0.91516 0.0
H609 H 0.3205 0.4994 0.94093 0.0
H610 H 0.47821 0.49495 0.97356 0.0
H611 H 0.47316 0.51919 0.96344 0.0
H612 H 0.48542 0.50092 0.94115 0.0
H613 H 0.34069 0.4977 0.0066 0.0
H614 H 0.30438 0.50153 0.98392 0.0
H615 H 0.33013 0.52115 0.99502 0.0
C616 C 0.65966 0.51603 0.02924 0.0
C617 C 0.65513 0.51032 0.05417 0.0
C618 C 0.63318 0.52841 0.01795 0.0
C619 C 0.60189 0.53549 0.03211 0.0
C620 C 0.59751 0.5298 0.05738 0.0
C621 C 0.62401 0.51717 0.068 0.0
C622 C 0.63769 0.53314 0.99056 0.0
C623 C 0.56409 0.53592 0.07329 0.0
C624 C 0.54907 0.57956 0.00783 0.0
C625 C 0.51655 0.57171 0.99888 0.0
C626 C 0.57717 0.56793 0.01878 0.0
C627 C 0.57286 0.54803 0.02017 0.0
C628 C 0.54015 0.5401 0.01084 0.0
C629 C 0.5124 0.55207 0.00032 0.0
C630 C 0.61102 0.57695 0.02935 0.0
C631 C 0.53447 0.51899 0.01202 0.0
H632 H 0.68312 0.51021 0.01829 0.0
H633 H 0.6202 0.51259 0.08721 0.0
H634 H 0.61346 0.52792 0.98031 0.0
H635 H 0.63787 0.54874 0.98769 0.0
H636 H 0.66388 0.52669 0.98229 0.0
H637 H 0.54702 0.54776 0.06512 0.0
H638 H 0.54613 0.52354 0.07596 0.0
H639 H 0.5733 0.54008 0.09206 0.0
H640 H 0.55212 0.5948 0.00671 0.0
H641 H 0.48768 0.54605 0.99272 0.0
H642 H 0.61434 0.5725 0.0491 0.0
H643 H 0.60896 0.5927 0.02824 0.0
H644 H 0.63673 0.57199 0.01907 0.0
H645 H 0.55772 0.51133 0.00187 0.0
H646 H 0.50748 0.51515 0.00393 0.0
H647 H 0.53478 0.51397 0.03167 0.0
C648 C 0.09438 0.02453 0.38793 0.0
C649 C 0.11479 0.04094 0.39115 0.0
C650 C 0.09091 0.01657 0.36423 0.0
C651 C 0.10834 0.02522 0.34334 0.0
C652 C 0.13055 0.04118 0.3467 0.0
C653 C 0.13345 0.04887 0.37055 0.0
C654 C 0.06717 -0.00053 0.3614 0.0
C655 C 0.1495 0.05086 0.32492 0.0
C656 C 0.11779 -0.00017 0.2812 0.0
C657 C 0.08787 0.00831 0.26806 0.0
C658 C 0.12447 0.0049 0.30593 0.0
C659 C 0.10063 0.01873 0.31773 0.0
C660 C 0.07001 0.02706 0.30469 0.0
C661 C 0.06403 0.02175 0.28003 0.0
C662 C 0.15757 0.99585 0.31921 0.0
C663 C 0.04399 0.0419 0.3166 0.0
H664 H 0.08003 0.01824 0.40378 0.0
H665 H 0.14952 0.06147 0.37288 0.0
H666 H 0.04156 0.00359 0.35096 0.0
H667 H 0.08267 0.98831 0.35048 0.0
H668 H 0.05855 0.99334 0.37969 0.0
H669 H 0.16999 0.06126 0.33103 0.0
H670 H 0.1642 0.04031 0.31261 0.0
H671 H 0.12793 0.05854 0.31368 0.0
H672 H 0.13649 0.98952 0.272 0.0
H673 H 0.04086 0.02838 0.27001 0.0
H674 H 0.14832 0.98959 0.33725 0.0
H675 H 0.17793 0.00684 0.32345 0.0
H676 H 0.17216 0.98458 0.30795 0.0
H677 H 0.032 0.03634 0.33433 0.0
H678 H 0.02059 0.04641 0.30427 0.0
H679 H 0.05991 0.0546 0.32118 0.0
C680 C 0.18172 0.40063 0.29585 0.0
C681 C 0.18174 0.40215 0.26976 0.0
C682 C 0.15355 0.391 0.30881 0.0
C683 C 0.12456 0.38283 0.29537 0.0
C684 C 0.1249 0.38393 0.26901 0.0
C685 C 0.15356 0.39352 0.25652 0.0
C686 C 0.15433 0.38996 0.33693 0.0
C687 C 0.09437 0.37546 0.25404 0.0
C688 C 0.0646 0.34598 0.32729 0.0
C689 C 0.03283 0.35701 0.33465 0.0
C690 C 0.09478 0.35419 0.31457 0.0
C691 C 0.09299 0.37386 0.30892 0.0
C692 C 0.06093 0.38505 0.31618 0.0
C693 C 0.0313 0.3765 0.32903 0.0
C694 C 0.12862 0.34184 0.30726 0.0
C695 C 0.05789 0.40606 0.31035 0.0
H696 H 0.20348 0.40719 0.30621 0.0
H697 H 0.15334 0.39464 0.23636 0.0
H698 H 0.12944 0.39779 0.3449 0.0
H699 H 0.15291 0.37498 0.34334 0.0
H700 H 0.17994 0.39607 0.34449 0.0
H701 H 0.09956 0.37683 0.23363 0.0
H702 H 0.09194 0.3602 0.25882 0.0
H703 H 0.06701 0.38266 0.25875 0.0
H704 H 0.06605 0.33092 0.33163 0.0
H705 H 0.00683 0.38512 0.3346 0.0
H706 H 0.15409 0.34732 0.31579 0.0
H707 H 0.13307 0.34234 0.28674 0.0
H708 H 0.12572 0.32681 0.31316 0.0
H709 H 0.08121 0.41339 0.31906 0.0
H710 H 0.03092 0.41271 0.3171 0.0
H711 H 0.06042 0.40843 0.28992 0.0
C712 C 0.52098 0.02029 0.40051 0.0
C713 C 0.54023 0.01026 0.38146 0.0
C714 C 0.48783 0.03093 0.39568 0.0
C715 C 0.47323 0.03124 0.37132 0.0
C716 C 0.49281 0.02134 0.35195 0.0
C717 C 0.52626 0.01111 0.35721 0.0
C718 C 0.4681 0.04158 0.41673 0.0
C719 C 0.47786 0.02111 0.32582 0.0
C720 C 0.3686 0.04143 0.36497 0.0
C721 C 0.36747 0.06031 0.35646 0.0
C722 C 0.40285 0.03178 0.36972 0.0
C723 C 0.43677 0.04135 0.36629 0.0
C724 C 0.43581 0.06048 0.35796 0.0
C725 C 0.40117 0.06969 0.35293 0.0
C726 C 0.40275 0.01128 0.37824 0.0
C727 C 0.47135 0.07125 0.35448 0.0
H728 H 0.53175 0.01977 0.41926 0.0
H729 H 0.54089 0.0033 0.34243 0.0
H730 H 0.46329 0.05672 0.41142 0.0
H731 H 0.44023 0.03559 0.42048 0.0
H732 H 0.4843 0.04084 0.43421 0.0
H733 H 0.4969 0.01309 0.31274 0.0
H734 H 0.4501 0.01453 0.32602 0.0
H735 H 0.47371 0.03583 0.31861 0.0
H736 H 0.34267 0.03407 0.36763 0.0
H737 H 0.40047 0.08433 0.3465 0.0
H738 H 0.41588 0.00976 0.39675 0.0
H739 H 0.41965 0.00228 0.36505 0.0
H740 H 0.374 0.0058 0.37961 0.0
H741 H 0.48683 0.0713 0.37221 0.0
H742 H 0.46574 0.08618 0.34838 0.0
H743 H 0.48997 0.0641 0.34039 0.0
C744 C 0.06537 0.67903 0.25209 0.0
C745 C 0.07162 0.67678 0.22639 0.0
C746 C 0.08562 0.69197 0.26566 0.0
C747 C 0.11262 0.70304 0.25322 0.0
C748 C 0.11892 0.70095 0.22725 0.0
C749 C 0.09841 0.68779 0.21414 0.0
C750 C 0.07819 0.69372 0.29338 0.0
C751 C 0.14729 0.71262 0.21334 0.0
C752 C 0.13631 0.74736 0.28823 0.0
C753 C 0.16863 0.74119 0.30087 0.0
C754 C 0.11887 0.73542 0.27158 0.0
C755 C 0.134 0.71682 0.2676 0.0
C756 C 0.16778 0.71088 0.27921 0.0
C757 C 0.1848 0.72318 0.29564 0.0
C758 C 0.08313 0.74236 0.25932 0.0
C759 C 0.18477 0.69115 0.27544 0.0
H760 H 0.04482 0.67055 0.26173 0.0
H761 H 0.10338 0.68613 0.19427 0.0
H762 H 0.10442 0.69057 0.30364 0.0
H763 H 0.06881 0.7085 0.29792 0.0
H764 H 0.05649 0.68396 0.30027 0.0
H765 H 0.14866 0.7094 0.19311 0.0
H766 H 0.14017 0.72797 0.21567 0.0
H767 H 0.17552 0.7099 0.22121 0.0
H768 H 0.12379 0.76132 0.292 0.0
H769 H 0.2098 0.71829 0.3053 0.0
H770 H 0.05918 0.73452 0.26719 0.0
H771 H 0.08461 0.73955 0.23901 0.0
H772 H 0.07732 0.7578 0.26216 0.0
H773 H 0.16616 0.68059 0.28415 0.0
H774 H 0.21293 0.68937 0.28379 0.0
H775 H 0.18724 0.68786 0.25529 0.0
C776 C 0.57503 0.01146 0.64656 0.0
C777 C 0.57194 0.03093 0.65189 0.0
C778 C 0.55338 0.00356 0.62806 0.0
C779 C 0.52819 0.01542 0.61442 0.0
C780 C 0.52575 0.03518 0.61916 0.0
C781 C 0.54758 0.0427 0.63792 0.0
C782 C 0.55664 0.98242 0.62364 0.0
C783 C 0.49941 0.04829 0.60482 0.0
C784 C 0.48906 0.99689 0.55427 0.0
C785 C 0.45336 0.99141 0.56222 0.0
C786 C 0.51382 0.00475 0.57104 0.0
C787 C 0.5027 0.00696 0.59635 0.0
C788 C 0.46702 0.00107 0.60456 0.0
C789 C 0.44275 0.99345 0.58738 0.0
C790 C 0.55159 0.01097 0.56161 0.0
C791 C 0.45432 0.00299 0.63147 0.0
H792 H 0.59385 0.00226 0.65722 0.0
H793 H 0.54522 0.05776 0.64182 0.0
H794 H 0.52959 0.9759 0.62849 0.0
H795 H 0.56268 0.97954 0.60365 0.0
H796 H 0.579 0.97533 0.63489 0.0
H797 H 0.50268 0.06345 0.60956 0.0
H798 H 0.50436 0.04653 0.58448 0.0
H799 H 0.46999 0.04458 0.60894 0.0
H800 H 0.49736 0.99545 0.53482 0.0
H801 H 0.41527 0.98918 0.5937 0.0
H802 H 0.57427 0.00359 0.5722 0.0
H803 H 0.55402 0.02643 0.56466 0.0
H804 H 0.55619 0.00804 0.54145 0.0
H805 H 0.47448 0.99527 0.64377 0.0
H806 H 0.42602 0.99736 0.63493 0.0
H807 H 0.45369 0.01815 0.63692 0.0
C808 C 0.94285 0.35493 0.66163 0.0
C809 C 0.97985 0.35666 0.66938 0.0
C810 C 0.91925 0.37104 0.65797 0.0
C811 C 0.93276 0.38928 0.66264 0.0
C812 C 0.96945 0.39103 0.6717 0.0
C813 C 0.99271 0.3747 0.67472 0.0
C814 C 0.88051 0.36859 0.64793 0.0
C815 C 0.98457 0.41021 0.6774 0.0
C816 C 0.89098 0.43155 0.62708 0.0
C817 C 0.86533 0.43935 0.64461 0.0
C818 C 0.91278 0.41514 0.63265 0.0
C819 C 0.90941 0.40655 0.65653 0.0
C820 C 0.88377 0.41445 0.67439 0.0
C821 C 0.86173 0.43065 0.66812 0.0
C822 C 0.93932 0.40694 0.61294 0.0
C823 C 0.87991 0.40589 0.70017 0.0
H824 H 0.93283 0.34102 0.65731 0.0
H825 H 0.02124 0.3761 0.68083 0.0
H826 H 0.85912 0.37597 0.66 0.0
H827 H 0.87864 0.37516 0.62909 0.0
H828 H 0.87349 0.35341 0.64659 0.0
H829 H 0.01225 0.40902 0.68651 0.0
H830 H 0.9877 0.41854 0.65988 0.0
H831 H 0.96464 0.41834 0.68975 0.0
H832 H 0.89371 0.43816 0.60884 0.0
H833 H 0.84212 0.43672 0.6818 0.0
H834 H 0.93267 0.39196 0.60932 0.0
H835 H 0.96853 0.40692 0.61961 0.0
H836 H 0.93789 0.41504 0.5951 0.0
H837 H 0.87128 0.39097 0.69891 0.0
H838 H 0.85904 0.4139 0.71202 0.0
H839 H 0.90739 0.40562 0.70951 0.0
C840 C 0.92173 0.91132 0.68437 0.0
C841 C 0.91942 0.92269 0.70571 0.0
C842 C 0.93118 0.9191 0.66096 0.0
C843 C 0.93855 0.93866 0.65892 0.0
C844 C 0.9377 0.95002 0.68055 0.0
C845 C 0.92816 0.9419 0.70366 0.0
C846 C 0.93194 0.90654 0.6383 0.0
C847 C 0.94559 0.97092 0.67918 0.0
C848 C 0.98819 0.95859 0.60168 0.0
C849 C 0.95811 0.96693 0.58853 0.0
C850 C 0.9822 0.94894 0.62434 0.0
C851 C 0.94527 0.94758 0.63407 0.0
C852 C 0.91472 0.95559 0.62061 0.0
C853 C 0.92151 0.96517 0.59802 0.0
C854 C 0.01547 0.9406 0.63816 0.0
C855 C 0.8749 0.95442 0.63037 0.0
H856 H 0.91503 0.89647 0.68578 0.0
H857 H 0.92663 0.95078 0.72006 0.0
H858 H 0.90926 0.91127 0.62556 0.0
H859 H 0.95889 0.90775 0.62787 0.0
H860 H 0.92816 0.89138 0.64325 0.0
H861 H 0.94588 0.97752 0.6979 0.0
H862 H 0.97303 0.97307 0.66972 0.0
H863 H 0.92386 0.9785 0.66795 0.0
H864 H 0.01656 0.95984 0.59447 0.0
H865 H 0.89809 0.97151 0.58796 0.0
H866 H 0.01147 0.92535 0.64235 0.0
H867 H 0.01792 0.9479 0.65626 0.0
H868 H 0.04217 0.94196 0.62743 0.0
H869 H 0.86819 0.9394 0.63412 0.0
H870 H 0.85417 0.96061 0.61712 0.0
H871 H 0.87172 0.9621 0.64829 0.0
C872 C 0.88016 0.67707 0.58913 0.0
C873 C 0.87871 0.66216 0.57209 0.0
C874 C 0.88385 0.67341 0.61473 0.0
C875 C 0.88541 0.65439 0.6235 0.0
C876 C 0.88363 0.63928 0.60641 0.0
C877 C 0.88065 0.64335 0.58086 0.0
C878 C 0.88627 0.68987 0.63237 0.0
C879 C 0.88458 0.61883 0.61513 0.0
C880 C 0.927 0.64287 0.68671 0.0
C881 C 0.89471 0.64193 0.70189 0.0
C882 C 0.92442 0.64719 0.6612 0.0
C883 C 0.88867 0.65028 0.6506 0.0
C884 C 0.85599 0.64927 0.66584 0.0
C885 C 0.85942 0.64526 0.69136 0.0
C886 C 0.95991 0.64845 0.64559 0.0
C887 C 0.81737 0.65217 0.65512 0.0
H888 H 0.87892 0.69164 0.58242 0.0
H889 H 0.87935 0.63178 0.56776 0.0
H890 H 0.8627 0.68972 0.64614 0.0
H891 H 0.91263 0.68849 0.64297 0.0
H892 H 0.88545 0.7038 0.62249 0.0
H893 H 0.88228 0.60875 0.59948 0.0
H894 H 0.91108 0.61544 0.62495 0.0
H895 H 0.86121 0.61653 0.62863 0.0
H896 H 0.95434 0.64036 0.69481 0.0
H897 H 0.83436 0.64437 0.70298 0.0
H898 H 0.96082 0.66257 0.63632 0.0
H899 H 0.96032 0.63764 0.63068 0.0
H900 H 0.98553 0.64622 0.65683 0.0
H901 H 0.81445 0.66646 0.64638 0.0
H902 H 0.79477 0.65077 0.66948 0.0
H903 H 0.81329 0.64161 0.64029 0.0
C904 C 0.40106 0.30936 0.96613 0.0
C905 C 0.40123 0.29726 0.9455 0.0
C906 C 0.40115 0.32917 0.96296 0.0
C907 C 0.40096 0.33706 0.93859 0.0
C908 C 0.40196 0.3249 0.91771 0.0
C909 C 0.40232 0.30516 0.92141 0.0
C910 C 0.40057 0.34167 0.98567 0.0
C911 C 0.40146 0.33277 0.89142 0.0
C912 C 0.35852 0.38667 0.92863 0.0
C913 C 0.39048 0.39743 0.92498 0.0
C914 C 0.36161 0.36708 0.93347 0.0
C915 C 0.39756 0.35801 0.93485 0.0
C916 C 0.42998 0.36883 0.93177 0.0
C917 C 0.42606 0.38842 0.92681 0.0
C918 C 0.32634 0.35603 0.93658 0.0
C919 C 0.46877 0.35966 0.9333 0.0
H920 H 0.40051 0.30336 0.9848 0.0
H921 H 0.40246 0.29592 0.90537 0.0
H922 H 0.42361 0.35179 0.98435 0.0
H923 H 0.37383 0.3502 0.98663 0.0
H924 H 0.40343 0.33332 0.00324 0.0
H925 H 0.40389 0.32141 0.8772 0.0
H926 H 0.37494 0.34113 0.88847 0.0
H927 H 0.42481 0.34253 0.88841 0.0
H928 H 0.3309 0.39349 0.92731 0.0
H929 H 0.45091 0.39663 0.9241 0.0
H930 H 0.32629 0.3484 0.95476 0.0
H931 H 0.32539 0.34517 0.92178 0.0
H932 H 0.30053 0.3653 0.93562 0.0
H933 H 0.47182 0.3518 0.95121 0.0
H934 H 0.49109 0.3702 0.93175 0.0
H935 H 0.47312 0.34918 0.91812 0.0
C936 C 0.74715 0.33261 0.99435 0.0
C937 C 0.72907 0.33506 0.9715 0.0
C938 C 0.74834 0.34759 0.01135 0.0
C939 C 0.73084 0.36536 0.00538 0.0
C940 C 0.71303 0.36799 0.9822 0.0
C941 C 0.71247 0.35283 0.9655 0.0
C942 C 0.76782 0.34432 0.03583 0.0
C943 C 0.69392 0.38673 0.97523 0.0
C944 C 0.69841 0.39853 0.05738 0.0
C945 C 0.7259 0.41224 0.05635 0.0
C946 C 0.70005 0.38301 0.04117 0.0
C947 C 0.73007 0.38109 0.02365 0.0
C948 C 0.75845 0.39459 0.02294 0.0
C949 C 0.75595 0.41006 0.03925 0.0
C950 C 0.66916 0.36893 0.04239 0.0
C951 C 0.79104 0.39289 0.00464 0.0
H952 H 0.76015 0.31894 0.99908 0.0
H953 H 0.69842 0.35483 0.94789 0.0
H954 H 0.78941 0.35504 0.03825 0.0
H955 H 0.74727 0.34606 0.0515 0.0
H956 H 0.78147 0.32992 0.03717 0.0
H957 H 0.6821 0.38658 0.95624 0.0
H958 H 0.67086 0.39017 0.9888 0.0
H959 H 0.71407 0.39831 0.97607 0.0
H960 H 0.67509 0.40012 0.07052 0.0
H961 H 0.77739 0.42055 0.03842 0.0
H962 H 0.6812 0.35435 0.04524 0.0
H963 H 0.6542 0.36906 0.02446 0.0
H964 H 0.64847 0.37211 0.05765 0.0
H965 H 0.80547 0.37875 0.00649 0.0
H966 H 0.81179 0.40402 0.00737 0.0
H967 H 0.78065 0.3941 0.98531 0.0
C968 C 0.37998 0.66728 0.97935 0.0
C969 C 0.36136 0.65136 0.98835 0.0
C970 C 0.36539 0.68572 0.9837 0.0
C971 C 0.33122 0.68835 0.99728 0.0
C972 C 0.3124 0.67237 0.00663 0.0
C973 C 0.32776 0.65405 0.00211 0.0
C974 C 0.38647 0.70242 0.9736 0.0
C975 C 0.27589 0.67463 0.02116 0.0
C976 C 0.31569 0.73743 0.02474 0.0
C977 C 0.29432 0.74672 0.0063 0.0
C978 C 0.32647 0.71816 0.02263 0.0
C979 C 0.31548 0.7079 0.00162 0.0
C980 C 0.29208 0.71689 0.98368 0.0
C981 C 0.28179 0.73621 0.98622 0.0
C982 C 0.35132 0.70907 0.04221 0.0
C983 C 0.27951 0.70635 0.96113 0.0
H984 H 0.40598 0.66534 0.96875 0.0
H985 H 0.31313 0.64181 0.00906 0.0
H986 H 0.36859 0.71082 0.96052 0.0
H987 H 0.39341 0.71196 0.98905 0.0
H988 H 0.41288 0.69796 0.96365 0.0
H989 H 0.265 0.66077 0.02741 0.0
H990 H 0.27968 0.68356 0.03777 0.0
H991 H 0.25448 0.68202 0.00948 0.0
H992 H 0.32531 0.74538 0.04043 0.0
H993 H 0.2651 0.74325 0.97195 0.0
H994 H 0.37959 0.70587 0.034 0.0
H995 H 0.33993 0.69542 0.04873 0.0
H996 H 0.35434 0.7184 0.05857 0.0
H997 H 0.30406 0.70298 0.94873 0.0
H998 H 0.2584 0.71476 0.95029 0.0
H999 H 0.26734 0.69268 0.96683 0.0
C1000 C 0.60405 0.6087 0.07874 0.0
C1001 C 0.56483 0.61088 0.08023 0.0
C1002 C 0.62615 0.62357 0.07009 0.0
C1003 C 0.60858 0.64113 0.0632 0.0
C1004 C 0.56905 0.6435 0.06509 0.0
C1005 C 0.54768 0.62834 0.0735 0.0
C1006 C 0.66817 0.62043 0.0681 0.0
C1007 C 0.54924 0.66205 0.05805 0.0
C1008 C 0.65884 0.68761 0.06126 0.0
C1009 C 0.66215 0.69093 0.03549 0.0
C1010 C 0.64332 0.6709 0.07063 0.0
C1011 C 0.63112 0.65715 0.05384 0.0
C1012 C 0.63691 0.65979 0.02789 0.0
C1013 C 0.65224 0.67669 0.01901 0.0
C1014 C 0.63769 0.66859 0.09845 0.0
C1015 C 0.6248 0.64531 0.0094 0.0
H1016 H 0.61753 0.59529 0.08415 0.0
H1017 H 0.51742 0.63015 0.07463 0.0
H1018 H 0.67781 0.62271 0.04855 0.0
H1019 H 0.68219 0.63089 0.07972 0.0
H1020 H 0.67743 0.6059 0.07409 0.0
H1021 H 0.51841 0.6617 0.06108 0.0
H1022 H 0.56004 0.67379 0.06919 0.0
H1023 H 0.55499 0.66541 0.03813 0.0
H1024 H 0.66656 0.69847 0.07416 0.0
H1025 H 0.65504 0.67905 0.99908 0.0
H1026 H 0.64791 0.65429 0.10465 0.0
H1027 H 0.60731 0.66986 0.10318 0.0
H1028 H 0.65235 0.67945 0.10905 0.0
H1029 H 0.63477 0.63082 0.01502 0.0
H1030 H 0.63547 0.6483 0.99023 0.0
H1031 H 0.59373 0.64534 0.00905 0.0
C1032 C 0.58873 0.54542 0.88128 0.0
C1033 C 0.60119 0.56169 0.89298 0.0
C1034 C 0.60614 0.53857 0.85934 0.0
C1035 C 0.6369 0.54817 0.84888 0.0
C1036 C 0.65028 0.5643 0.86091 0.0
C1037 C 0.63221 0.57091 0.88282 0.0
C1038 C 0.59101 0.52134 0.84701 0.0
C1039 C 0.68315 0.57483 0.85035 0.0
C1040 C 0.69874 0.52137 0.80162 0.0
C1041 C 0.6844 0.52832 0.77901 0.0
C1042 C 0.6839 0.52788 0.82454 0.0
C1043 C 0.65406 0.54168 0.82483 0.0
C1044 C 0.63976 0.54891 0.80207 0.0
C1045 C 0.65509 0.54214 0.77945 0.0
C1046 C 0.69987 0.51986 0.84845 0.0
C1047 C 0.60798 0.56367 0.80163 0.0
H1048 H 0.56481 0.53819 0.889 0.0
H1049 H 0.64208 0.58345 0.89178 0.0
H1050 H 0.58053 0.52529 0.82826 0.0
H1051 H 0.61368 0.5103 0.84438 0.0
H1052 H 0.56778 0.51509 0.85803 0.0
H1053 H 0.69129 0.58655 0.8626 0.0
H1054 H 0.70772 0.56491 0.8476 0.0
H1055 H 0.67604 0.58089 0.8318 0.0
H1056 H 0.72152 0.51076 0.80145 0.0
H1057 H 0.64398 0.54768 0.76207 0.0
H1058 H 0.67778 0.51254 0.85924 0.0
H1059 H 0.70951 0.53152 0.86021 0.0
H1060 H 0.72379 0.50962 0.84502 0.0
H1061 H 0.58271 0.55794 0.8109 0.0
H1062 H 0.60069 0.56817 0.78236 0.0
H1063 H 0.61561 0.57638 0.81218 0.0
C1064 C 0.81769 0.8567 0.86404 0.0
C1065 C 0.8542 0.86327 0.86519 0.0
C1066 C 0.80179 0.84672 0.88412 0.0
C1067 C 0.82326 0.8428 0.90561 0.0
C1068 C 0.86058 0.84887 0.90653 0.0
C1069 C 0.87544 0.85926 0.88643 0.0
C1070 C 0.76163 0.84086 0.88264 0.0
C1071 C 0.88464 0.84457 0.92887 0.0
C1072 C 0.77167 0.83438 0.96706 0.0
C1073 C 0.77159 0.8145 0.96826 0.0
C1074 C 0.78832 0.84376 0.94674 0.0
C1075 C 0.80615 0.83298 0.92746 0.0
C1076 C 0.80693 0.81289 0.92886 0.0
C1077 C 0.78919 0.80388 0.9491 0.0
C1078 C 0.78615 0.8652 0.94566 0.0
C1079 C 0.82642 0.80092 0.90895 0.0
H1080 H 0.80107 0.85989 0.84773 0.0
H1081 H 0.90376 0.86422 0.88732 0.0
H1082 H 0.76006 0.82528 0.88533 0.0
H1083 H 0.74461 0.84772 0.89781 0.0
H1084 H 0.74889 0.84482 0.8645 0.0
H1085 H 0.91385 0.84917 0.92597 0.0
H1086 H 0.8724 0.85188 0.94551 0.0
H1087 H 0.88538 0.8291 0.93301 0.0
H1088 H 0.75784 0.84265 0.98174 0.0
H1089 H 0.78937 0.7885 0.95004 0.0
H1090 H 0.77164 0.87005 0.9285 0.0
H1091 H 0.81476 0.87081 0.94475 0.0
H1092 H 0.77096 0.87147 0.96206 0.0
H1093 H 0.81265 0.80346 0.89081 0.0
H1094 H 0.82605 0.7855 0.91341 0.0
H1095 H 0.85598 0.80505 0.90662 0.0
C1096 C 0.21373 0.55868 0.85406 0.0
C1097 C 0.21749 0.53975 0.84626 0.0
C1098 C 0.17826 0.56779 0.85666 0.0
C1099 C 0.14589 0.55784 0.85083 0.0
C1100 C 0.14963 0.53894 0.84213 0.0
C1101 C 0.18539 0.53005 0.8402 0.0
C1102 C 0.17536 0.58785 0.86636 0.0
C1103 C 0.11581 0.52801 0.83522 0.0
C1104 C 0.05224 0.57248 0.88088 0.0
C1105 C 0.0354 0.5834 0.86191 0.0
C1106 C 0.08848 0.56438 0.87766 0.0
C1107 C 0.10801 0.56693 0.85472 0.0
C1108 C 0.09116 0.57795 0.83549 0.0
C1109 C 0.05517 0.58622 0.83941 0.0
C1110 C 0.10582 0.55301 0.89878 0.0
C1111 C 0.11085 0.5807 0.81062 0.0
H1112 H 0.23846 0.56621 0.85889 0.0
H1113 H 0.1882 0.51546 0.834 0.0
H1114 H 0.15989 0.59724 0.85307 0.0
H1115 H 0.15926 0.58815 0.88427 0.0
H1116 H 0.20328 0.59377 0.86944 0.0
H1117 H 0.12369 0.51389 0.82725 0.0
H1118 H 0.09769 0.52587 0.85197 0.0
H1119 H 0.09885 0.53621 0.82144 0.0
H1120 H 0.03712 0.57034 0.89834 0.0
H1121 H 0.04214 0.59453 0.82461 0.0
H1122 H 0.13314 0.55888 0.9036 0.0
H1123 H 0.1114 0.5381 0.89292 0.0
H1124 H 0.08752 0.553 0.91576 0.0
H1125 H 0.13811 0.58738 0.81327 0.0
H1126 H 0.09391 0.58971 0.79762 0.0
H1127 H 0.11692 0.5667 0.80182 0.0
C1128 C 0.55211 0.10612 0.80941 0.0
C1129 C 0.57063 0.1057 0.7861 0.0
C1130 C 0.55794 0.1207 0.8264 0.0
C1131 C 0.58282 0.13519 0.81988 0.0
C1132 C 0.60042 0.13525 0.796 0.0
C1133 C 0.59414 0.12049 0.77941 0.0
C1134 C 0.53859 0.12021 0.85166 0.0
C1135 C 0.62696 0.15054 0.7883 0.0
C1136 C 0.58365 0.18129 0.85594 0.0
C1137 C 0.61532 0.17822 0.87074 0.0
C1138 C 0.57196 0.16719 0.83981 0.0
C1139 C 0.59245 0.14964 0.83848 0.0
C1140 C 0.62361 0.14621 0.85404 0.0
C1141 C 0.63466 0.16054 0.86998 0.0
C1142 C 0.5385 0.17134 0.82359 0.0
C1143 C 0.64602 0.1276 0.85327 0.0
H1144 H 0.53383 0.09476 0.81471 0.0
H1145 H 0.60842 0.12032 0.7614 0.0
H1146 H 0.55974 0.11766 0.86632 0.0
H1147 H 0.52414 0.1341 0.85564 0.0
H1148 H 0.51777 0.10891 0.85308 0.0
H1149 H 0.63651 0.1492 0.76855 0.0
H1150 H 0.61324 0.16479 0.79091 0.0
H1151 H 0.65194 0.14974 0.80031 0.0
H1152 H 0.56845 0.19489 0.85648 0.0
H1153 H 0.65902 0.158 0.88146 0.0
H1154 H 0.51836 0.15976 0.82537 0.0
H1155 H 0.54779 0.172 0.80376 0.0
H1156 H 0.52369 0.185 0.82842 0.0
H1157 H 0.62726 0.11556 0.85628 0.0
H1158 H 0.66815 0.12679 0.86756 0.0
H1159 H 0.65956 0.12579 0.83461 0.0
C1160 C 0.92571 0.62607 0.10007 0.0
C1161 C 0.93408 0.61681 0.12268 0.0
C1162 C 0.89537 0.62063 0.08577 0.0
C1163 C 0.87329 0.60548 0.09421 0.0
C1164 C 0.8803 0.59691 0.11771 0.0
C1165 C 0.91045 0.60274 0.13168 0.0
C1166 C 0.88825 0.63037 0.06106 0.0
C1167 C 0.85739 0.58073 0.12748 0.0
C1168 C 0.78087 0.59061 0.06855 0.0
C1169 C 0.7925 0.57436 0.05511 0.0
C1170 C 0.80714 0.60201 0.07975 0.0
C1171 C 0.8458 0.59691 0.0776 0.0
C1172 C 0.85774 0.58151 0.06227 0.0
C1173 C 0.83095 0.5705 0.0511 0.0
C1174 C 0.79332 0.61862 0.0954 0.0
C1175 C 0.8987 0.57561 0.05936 0.0
H1176 H 0.94364 0.63708 0.09308 0.0
H1177 H 0.9164 0.59565 0.14925 0.0
H1178 H 0.89817 0.62089 0.04571 0.0
H1179 H 0.85781 0.63335 0.05856 0.0
H1180 H 0.90312 0.64391 0.05929 0.0
H1181 H 0.8648 0.5765 0.14682 0.0
H1182 H 0.82707 0.58474 0.12718 0.0
H1183 H 0.86205 0.5682 0.11527 0.0
H1184 H 0.75121 0.59388 0.07146 0.0
H1185 H 0.84025 0.55814 0.04045 0.0
H1186 H 0.81146 0.63093 0.09256 0.0
H1187 H 0.79434 0.61454 0.11541 0.0
H1188 H 0.76397 0.62307 0.09104 0.0
H1189 H 0.91564 0.58806 0.05461 0.0
H1190 H 0.9036 0.56471 0.04472 0.0
H1191 H 0.909 0.56966 0.0773 0.0
C1192 C 0.16564 0.86428 0.06504 0.0
C1193 C 0.1994 0.86465 0.05136 0.0
C1194 C 0.1457 0.88121 0.07114 0.0
C1195 C 0.16081 0.89886 0.06427 0.0
C1196 C 0.19539 0.89925 0.05091 0.0
C1197 C 0.21389 0.8821 0.04416 0.0
C1198 C 0.10828 0.88021 0.0846 0.0
C1199 C 0.2131 0.91776 0.04404 0.0
C1200 C 0.09944 0.94391 0.05985 0.0
C1201 C 0.1045 0.95197 0.08324 0.0
C1202 C 0.11659 0.92627 0.05374 0.0
C1203 C 0.14059 0.91695 0.07107 0.0
C1204 C 0.14606 0.92519 0.09464 0.0
C1205 C 0.12728 0.94244 0.10063 0.0
C1206 C 0.10899 0.9176 0.0288 0.0
C1207 C 0.17248 0.91605 0.11325 0.0
H1208 H 0.15437 0.85072 0.07041 0.0
H1209 H 0.24022 0.88232 0.03376 0.0
H1210 H 0.10942 0.88724 0.10295 0.0
H1211 H 0.08635 0.88795 0.0737 0.0
H1212 H 0.09973 0.86535 0.08764 0.0
H1213 H 0.24095 0.91557 0.03471 0.0
H1214 H 0.1946 0.92617 0.03138 0.0
H1215 H 0.21652 0.92635 0.06103 0.0
H1216 H 0.08151 0.95126 0.04652 0.0
H1217 H 0.13136 0.94882 0.11865 0.0
H1218 H 0.09923 0.90294 0.03147 0.0
H1219 H 0.1352 0.91663 0.01737 0.0
H1220 H 0.08755 0.926 0.01823 0.0
H1221 H 0.16331 0.90164 0.11834 0.0
H1222 H 0.17412 0.92449 0.13056 0.0
H1223 H 0.20101 0.91441 0.10479 0.0
C1224 C 0.34185 0.47902 0.15864 0.0
C1225 C 0.33736 0.46045 0.16755 0.0
C1226 C 0.3772 0.48698 0.15748 0.0
C1227 C 0.409 0.47605 0.16522 0.0
C1228 C 0.40498 0.45704 0.17333 0.0
C1229 C 0.3691 0.44946 0.17451 0.0
C1230 C 0.3803 0.50732 0.14873 0.0
C1231 C 0.4384 0.44489 0.18133 0.0
C1232 C 0.50134 0.49626 0.14408 0.0
C1233 C 0.51033 0.50692 0.16489 0.0
C1234 C 0.46932 0.48532 0.14427 0.0
C1235 C 0.44596 0.48502 0.16589 0.0
C1236 C 0.45621 0.4949 0.18746 0.0
C1237 C 0.4885 0.50566 0.18674 0.0
C1238 C 0.4596 0.47484 0.12099 0.0
C1239 C 0.43193 0.495 0.21083 0.0
H1240 H 0.31753 0.48761 0.15314 0.0
H1241 H 0.36587 0.43507 0.1813 0.0
H1242 H 0.3908 0.51604 0.16404 0.0
H1243 H 0.40077 0.50814 0.13297 0.0
H1244 H 0.35301 0.51368 0.14263 0.0
H1245 H 0.431 0.42997 0.18529 0.0
H1246 H 0.4607 0.44493 0.16663 0.0
H1247 H 0.45031 0.45086 0.19838 0.0
H1248 H 0.51905 0.49675 0.12746 0.0
H1249 H 0.49569 0.51382 0.20289 0.0
H1250 H 0.43463 0.48187 0.1124 0.0
H1251 H 0.45238 0.46002 0.12561 0.0
H1252 H 0.48293 0.47457 0.10697 0.0
H1253 H 0.40476 0.50255 0.20706 0.0
H1254 H 0.44533 0.50212 0.22656 0.0
H1255 H 0.42572 0.48028 0.21659 0.0
C1256 C 0.32802 0.13035 0.04529 0.0
C1257 C 0.31899 0.1491 0.03792 0.0
C1258 C 0.32065 0.12406 0.06974 0.0
C1259 C 0.30386 0.13681 0.08724 0.0
C1260 C 0.29476 0.15577 0.07996 0.0
C1261 C 0.30244 0.16168 0.05538 0.0
C1262 C 0.33079 0.10374 0.07683 0.0
C1263 C 0.27685 0.16979 0.09811 0.0
C1264 C 0.25377 0.11659 0.14415 0.0
C1265 C 0.28064 0.11834 0.16264 0.0
C1266 C 0.26098 0.12251 0.11952 0.0
C1267 C 0.29589 0.13035 0.11323 0.0
C1268 C 0.32319 0.13208 0.13177 0.0
C1269 C 0.31523 0.12605 0.15625 0.0
C1270 C 0.23118 0.12043 0.10024 0.0
C1271 C 0.36076 0.14035 0.12577 0.0
H1272 H 0.3408 0.12053 0.03192 0.0
H1273 H 0.29536 0.17619 0.04986 0.0
H1274 H 0.3507 0.10341 0.09246 0.0
H1275 H 0.30536 0.09646 0.08341 0.0
H1276 H 0.34372 0.09562 0.06103 0.0
H1277 H 0.27152 0.18401 0.08951 0.0
H1278 H 0.24984 0.16443 0.10531 0.0
H1279 H 0.29521 0.17136 0.11435 0.0
H1280 H 0.22699 0.1106 0.1489 0.0
H1281 H 0.33618 0.12745 0.17041 0.0
H1282 H 0.24232 0.11146 0.0847 0.0
H1283 H 0.22321 0.13454 0.09221 0.0
H1284 H 0.20559 0.11395 0.10812 0.0
H1285 H 0.37551 0.13194 0.11095 0.0
H1286 H 0.37901 0.14062 0.1423 0.0
H1287 H 0.35673 0.15507 0.11851 0.0
C1288 C 0.89105 0.81415 0.47752 0.0
C1289 C 0.91084 0.80089 0.46248 0.0
C1290 C 0.88181 0.83246 0.46858 0.0
C1291 C 0.89273 0.83766 0.44402 0.0
C1292 C 0.91446 0.82471 0.42921 0.0
C1293 C 0.92322 0.80644 0.43861 0.0
C1294 C 0.85874 0.84591 0.485 0.0
C1295 C 0.9269 0.82979 0.40302 0.0
C1296 C 0.82743 0.87416 0.41354 0.0
C1297 C 0.84627 0.89103 0.4169 0.0
C1298 C 0.84295 0.85663 0.4215 0.0
C1299 C 0.8782 0.85592 0.43317 0.0
C1300 C 0.89808 0.87278 0.43578 0.0
C1301 C 0.88187 0.89017 0.42759 0.0
C1302 C 0.82095 0.83895 0.41822 0.0
C1303 C 0.93581 0.87255 0.44802 0.0
H1304 H 0.88161 0.81004 0.49606 0.0
H1305 H 0.93878 0.79634 0.42692 0.0
H1306 H 0.87203 0.85987 0.48584 0.0
H1307 H 0.83056 0.84839 0.47696 0.0
H1308 H 0.85521 0.8403 0.50429 0.0
H1309 H 0.94741 0.8191 0.39514 0.0
H1310 H 0.90217 0.83073 0.39079 0.0
H1311 H 0.93973 0.84389 0.40259 0.0
H1312 H 0.80005 0.87466 0.40512 0.0
H1313 H 0.89666 0.90313 0.43021 0.0
H1314 H 0.81309 0.83304 0.43676 0.0
H1315 H 0.83841 0.82791 0.40839 0.0
H1316 H 0.79495 0.84176 0.40753 0.0
H1317 H 0.93245 0.86881 0.46805 0.0
H1318 H 0.94918 0.88651 0.44652 0.0
H1319 H 0.95492 0.86156 0.43947 0.0
C1320 C 0.28737 0.83025 0.41449 0.0
C1321 C 0.25378 0.83511 0.40243 0.0
C1322 C 0.30486 0.84342 0.42948 0.0
C1323 C 0.28817 0.8618 0.43264 0.0
C1324 C 0.25454 0.86685 0.42026 0.0
C1325 C 0.23785 0.85348 0.40523 0.0
C1326 C 0.3409 0.83758 0.4422 0.0
C1327 C 0.23575 0.88628 0.42327 0.0
C1328 C 0.30798 0.89026 0.49032 0.0
C1329 C 0.33237 0.90381 0.48076 0.0
C1330 C 0.2941 0.87623 0.47498 0.0
C1331 C 0.30507 0.87563 0.44949 0.0
C1332 C 0.33066 0.88887 0.43991 0.0
C1333 C 0.3439 0.90285 0.45564 0.0
C1334 C 0.26677 0.8624 0.48588 0.0
C1335 C 0.34328 0.88856 0.41288 0.0
H1336 H 0.29994 0.8161 0.41235 0.0
H1337 H 0.21188 0.85734 0.39601 0.0
H1338 H 0.36299 0.84772 0.43735 0.0
H1339 H 0.33661 0.838 0.46272 0.0
H1340 H 0.35115 0.82306 0.43695 0.0
H1341 H 0.21009 0.8881 0.41198 0.0
H1342 H 0.22796 0.88864 0.44315 0.0
H1343 H 0.25545 0.89743 0.41767 0.0
H1344 H 0.29894 0.89088 0.50971 0.0
H1345 H 0.36288 0.91321 0.44813 0.0
H1346 H 0.27697 0.84759 0.48233 0.0
H1347 H 0.23932 0.8644 0.47668 0.0
H1348 H 0.26237 0.86422 0.50628 0.0
H1349 H 0.35447 0.87418 0.40782 0.0
H1350 H 0.3652 0.89899 0.40875 0.0
H1351 H 0.31899 0.89187 0.4008 0.0
C1352 C 0.03462 0.18042 0.57996 0.0
C1353 C 0.01835 0.16882 0.56237 0.0
C1354 C 0.01267 0.19365 0.5938 0.0
C1355 C 0.97366 0.19548 0.58971 0.0
C1356 C 0.95696 0.18348 0.57243 0.0
C1357 C 0.97944 0.17012 0.55922 0.0
C1358 C 0.03146 0.20638 0.61184 0.0
C1359 C 0.91574 0.18553 0.56677 0.0
C1360 C 0.9073 0.22199 0.63456 0.0
C1361 C 0.90456 0.23998 0.62339 0.0
C1362 C 0.93074 0.20753 0.62427 0.0
C1363 C 0.95084 0.21103 0.60179 0.0
C1364 C 0.94805 0.22925 0.59037 0.0
C1365 C 0.92507 0.24353 0.60142 0.0
C1366 C 0.9337 0.18846 0.6373 0.0
C1367 C 0.96797 0.23389 0.56608 0.0
H1368 H 0.06468 0.17948 0.58251 0.0
H1369 H 0.96668 0.16125 0.54562 0.0
H1370 H 0.03042 0.22117 0.6045 0.0
H1371 H 0.01631 0.20643 0.6301 0.0
H1372 H 0.06123 0.20193 0.61479 0.0
H1373 H 0.90672 0.17451 0.55373 0.0
H1374 H 0.89866 0.18464 0.58421 0.0
H1375 H 0.90968 0.19973 0.5583 0.0
H1376 H 0.89112 0.21925 0.65145 0.0
H1377 H 0.92199 0.25725 0.59228 0.0
H1378 H 0.96356 0.1845 0.64071 0.0
H1379 H 0.92256 0.17737 0.62524 0.0
H1380 H 0.91803 0.18839 0.65539 0.0
H1381 H 0.98483 0.24663 0.56849 0.0
H1382 H 0.94679 0.23744 0.55173 0.0
H1383 H 0.98681 0.22228 0.55885 0.0
C1384 C 0.006 0.20171 0.45283 0.0
C1385 C 0.9769 0.2061 0.43628 0.0
C1386 C 0.01557 0.18279 0.45917 0.0
C1387 C 0.99556 0.16793 0.44871 0.0
C1388 C 0.96583 0.17229 0.43229 0.0
C1389 C 0.95684 0.19132 0.4263 0.0
C1390 C 0.04713 0.17869 0.47698 0.0
C1391 C 0.94383 0.15683 0.42077 0.0
C1392 C 0.04022 0.1184 0.44327 0.0
C1393 C 0.02245 0.10878 0.46292 0.0
C1394 C 0.03252 0.1378 0.4389 0.0
C1395 C 0.00617 0.14777 0.45442 0.0
C1396 C 0.9888 0.13826 0.47465 0.0
C1397 C 0.99732 0.11888 0.47876 0.0
C1398 C 0.0519 0.14751 0.41729 0.0
C1399 C 0.96018 0.14837 0.49139 0.0
H1400 H 0.0215 0.21306 0.46076 0.0
H1401 H 0.93429 0.19457 0.41354 0.0
H1402 H 0.0362 0.17133 0.49379 0.0
H1403 H 0.06875 0.16905 0.46821 0.0
H1404 H 0.06067 0.19181 0.48291 0.0
H1405 H 0.92091 0.16261 0.40887 0.0
H1406 H 0.96282 0.14754 0.40921 0.0
H1407 H 0.93147 0.14778 0.43558 0.0
H1408 H 0.05995 0.11071 0.43111 0.0
H1409 H 0.98346 0.11153 0.49398 0.0
H1410 H 0.06616 0.1602 0.42388 0.0
H1411 H 0.03085 0.15249 0.40351 0.0
H1412 H 0.07294 0.13797 0.40771 0.0
H1413 H 0.97104 0.16195 0.49798 0.0
H1414 H 0.95229 0.13958 0.50783 0.0
H1415 H 0.9345 0.15189 0.48072 0.0
loop_
_geom_bond_atom_site_label_1
_geom_bond_atom_site_label_2
_geom_bond_distance
_geom_bond_site_symmetry_2
_ccdc_geom_bond_type
O0 Cd1 2.300 . S
O0 C7 1.275 . S
Cd1 O0 2.300 . S
Cd1 O9 2.381 . S
Cd1 O10 2.378 . S
O2 Cd3 2.385 . S
O2 C7 1.255 . S
Cd3 O2 2.385 . S
Cd3 O4 2.317 . S
O4 Cd3 2.317 . S
O4 C5 1.232 . S
C5 O4 1.232 . S
C5 O6 1.218 . S
O6 C5 1.218 . S
C7 O0 1.275 . S
C7 O2 1.255 . S
C8 O9 1.258 . S
C8 O10 1.256 . S
O9 Cd1 2.381 . S
O9 C8 1.258 . S
O10 Cd1 2.378 . S
O10 C8 1.256 . S
O11 Cd12 2.300 . S
O11 C18 1.275 . S
Cd12 O11 2.300 . S
Cd12 O20 2.381 . S
Cd12 O21 2.378 . S
O13 Cd14 2.385 . S
O13 C18 1.255 . S
Cd14 O13 2.385 . S
Cd14 O15 2.317 . S
O15 Cd14 2.317 . S
O15 C16 1.232 . S
C16 O15 1.232 . S
C16 O17 1.218 . S
O17 C16 1.218 . S
C18 O11 1.275 . S
C18 O13 1.255 . S
C19 O20 1.258 . S
C19 O21 1.256 . S
O20 Cd12 2.381 . S
O20 C19 1.258 . S
O21 Cd12 2.378 . S
O21 C19 1.256 . S
O22 Cd23 2.300 . S
O22 C29 1.275 . S
Cd23 O22 2.300 . S
Cd23 O31 2.381 . S
Cd23 O32 2.378 . S
O24 Cd25 2.385 . S
O24 C29 1.255 . S
Cd25 O24 2.385 . S
Cd25 O26 2.317 1_455 S
O26 Cd25 2.317 1_655 S
O26 C27 1.232 . S
C27 O26 1.232 . S
C27 O28 1.218 . S
O28 C27 1.218 . S
C29 O22 1.275 . S
C29 O24 1.255 . S
C30 O31 1.258 . S
C30 O32 1.256 . S
O31 Cd23 2.381 . S
O31 C30 1.258 . S
O32 Cd23 2.378 . S
O32 C30 1.256 . S
O33 Cd34 2.300 1_545 S
O33 C40 1.275 . S
Cd34 O33 2.300 1_565 S
Cd34 O42 2.381 . S
Cd34 O43 2.378 . S
O35 Cd36 2.385 1_545 S
O35 C40 1.255 . S
Cd36 O35 2.385 1_565 S
Cd36 O37 2.317 . S
O37 Cd36 2.317 . S
O37 C38 1.232 1_565 S
C38 O37 1.232 1_545 S
C38 O39 1.218 . S
O39 C38 1.218 . S
C40 O33 1.275 . S
C40 O35 1.255 . S
C41 O42 1.258 . S
C41 O43 1.256 . S
O42 Cd34 2.381 . S
O42 C41 1.258 . S
O43 Cd34 2.378 . S
O43 C41 1.256 . S
O44 Cd45 2.300 1_655 S
O44 C51 1.275 . S
Cd45 O44 2.300 1_455 S
Cd45 O53 2.381 . S
Cd45 O54 2.378 . S
O46 Cd47 2.385 . S
O46 C51 1.255 . S
Cd47 O46 2.385 . S
Cd47 O48 2.317 1_655 S
O48 Cd47 2.317 1_455 S
O48 C49 1.232 1_455 S
C49 O48 1.232 1_655 S
C49 O50 1.218 . S
O50 C49 1.218 . S
C51 O44 1.275 . S
C51 O46 1.255 . S
C52 O53 1.258 . S
C52 O54 1.256 . S
O53 Cd45 2.381 . S
O53 C52 1.258 . S
O54 Cd45 2.378 . S
O54 C52 1.256 . S
O55 Cd56 2.300 . S
O55 C62 1.275 . S
Cd56 O55 2.300 . S
Cd56 O64 2.381 . S
Cd56 O65 2.378 . S
O57 Cd58 2.385 . S
O57 C62 1.255 . S
Cd58 O57 2.385 . S
Cd58 O59 2.317 . S
O59 Cd58 2.317 . S
O59 C60 1.232 . S
C60 O59 1.232 . S
C60 O61 1.218 . S
O61 C60 1.218 . S
C62 O55 1.275 . S
C62 O57 1.255 . S
C63 O64 1.258 . S
C63 O65 1.256 . S
O64 Cd56 2.381 . S
O64 C63 1.258 . S
O65 Cd56 2.378 . S
O65 C63 1.256 . S
O66 Cd67 2.300 . S
O66 C73 1.275 . S
Cd67 O66 2.300 . S
Cd67 O75 2.381 . S
Cd67 O76 2.378 . S
O68 Cd69 2.385 . S
O68 C73 1.255 . S
Cd69 O68 2.385 . S
Cd69 O70 2.317 . S
O70 Cd69 2.317 . S
O70 C71 1.232 . S
C71 O70 1.232 . S
C71 O72 1.218 . S
O72 C71 1.218 . S
C73 O66 1.275 . S
C73 O68 1.255 . S
C74 O75 1.258 . S
C74 O76 1.256 . S
O75 Cd67 2.381 . S
O75 C74 1.258 . S
O76 Cd67 2.378 . S
O76 C74 1.256 . S
O77 Cd78 2.300 . S
O77 C84 1.275 . S
Cd78 O77 2.300 . S
Cd78 O86 2.381 . S
Cd78 O87 2.378 . S
O79 Cd80 2.385 . S
O79 C84 1.255 . S
Cd80 O79 2.385 . S
Cd80 O81 2.317 . S
O81 Cd80 2.317 . S
O81 C82 1.232 . S
C82 O81 1.232 . S
C82 O83 1.218 . S
O83 C82 1.218 . S
C84 O77 1.275 . S
C84 O79 1.255 . S
C85 O86 1.258 . S
C85 O87 1.256 . S
O86 Cd78 2.381 . S
O86 C85 1.258 . S
O87 Cd78 2.378 . S
O87 C85 1.256 . S
O88 Cd89 2.300 . S
O88 C95 1.275 . S
Cd89 O88 2.300 . S
Cd89 O97 2.381 . S
Cd89 O98 2.378 . S
O90 Cd91 2.385 . S
O90 C95 1.255 . S
Cd91 O90 2.385 . S
Cd91 O92 2.317 . S
O92 Cd91 2.317 . S
O92 C93 1.232 . S
C93 O92 1.232 . S
C93 O94 1.218 . S
O94 C93 1.218 . S
C95 O88 1.275 . S
C95 O90 1.255 . S
C96 O97 1.258 . S
C96 O98 1.256 . S
O97 Cd89 2.381 . S
O97 C96 1.258 . S
O98 Cd89 2.378 . S
O98 C96 1.256 . S
O99 Cd100 2.300 1_655 S
O99 C106 1.275 . S
Cd100 O99 2.300 1_455 S
Cd100 O108 2.381 . S
Cd100 O109 2.378 . S
O101 Cd102 2.385 . S
O101 C106 1.255 1_455 S
Cd102 O101 2.385 . S
Cd102 O103 2.317 . S
O103 Cd102 2.317 . S
O103 C104 1.222 1_455 S
C104 O103 1.222 1_655 S
C104 O105 1.216 1_655 S
O105 C104 1.216 1_455 S
C106 O99 1.275 . S
C106 O101 1.255 1_655 S
C107 O108 1.258 . S
C107 O109 1.256 . S
O108 Cd100 2.381 . S
O108 C107 1.258 . S
O109 Cd100 2.378 . S
O109 C107 1.256 . S
O110 Cd111 2.300 . S
O110 C117 1.275 . S
Cd111 O110 2.300 . S
Cd111 O119 2.381 . S
Cd111 O120 2.378 . S
O112 Cd113 2.385 . S
O112 C117 1.255 . S
Cd113 O112 2.385 . S
Cd113 O114 2.317 . S
O114 Cd113 2.317 . S
O114 C115 1.232 . S
C115 O114 1.232 . S
C115 O116 1.218 . S
O116 C115 1.218 . S
C117 O110 1.275 . S
C117 O112 1.255 . S
C118 O119 1.258 . S
C118 O120 1.256 . S
O119 Cd111 2.381 . S
O119 C118 1.258 . S
O120 Cd111 2.378 . S
O120 C118 1.256 . S
O121 Cd122 2.300 . S
O121 C128 1.275 . S
Cd122 O121 2.300 . S
Cd122 O130 2.381 . S
Cd122 O131 2.378 . S
O123 Cd124 2.385 . S
O123 C128 1.255 . S
Cd124 O123 2.385 . S
Cd124 O125 2.317 . S
O125 Cd124 2.317 . S
O125 C126 1.232 . S
C126 O125 1.232 . S
C126 O127 1.218 . S
O127 C126 1.218 . S
C128 O121 1.275 . S
C128 O123 1.255 . S
C129 O130 1.258 . S
C129 O131 1.256 . S
O130 Cd122 2.381 . S
O130 C129 1.258 . S
O131 Cd122 2.378 . S
O131 C129 1.256 . S
O132 Cd133 2.300 . S
O132 C139 1.275 . S
Cd133 O132 2.300 . S
Cd133 O141 2.381 . S
Cd133 O142 2.378 . S
O134 Cd135 2.385 1_565 S
O134 C139 1.255 . S
Cd135 O134 2.385 1_545 S
Cd135 O136 2.317 1_545 S
O136 Cd135 2.317 1_565 S
O136 C137 1.232 1_565 S
C137 O136 1.232 1_545 S
C137 O138 1.218 . S
O138 C137 1.218 . S
C139 O132 1.275 . S
C139 O134 1.255 . S
C140 O141 1.258 . S
C140 O142 1.256 . S
O141 Cd133 2.381 . S
O141 C140 1.258 . S
O142 Cd133 2.378 . S
O142 C140 1.256 . S
O143 Cd144 2.300 1_455 S
O143 C150 1.275 . S
Cd144 O143 2.300 1_655 S
Cd144 O152 2.381 . S
Cd144 O153 2.378 . S
O145 Cd146 2.385 . S
O145 C150 1.255 1_655 S
Cd146 O145 2.385 . S
Cd146 O147 2.317 . S
O147 Cd146 2.317 . S
O147 C148 1.232 1_655 S
C148 O147 1.232 1_455 S
C148 O149 1.218 . S
O149 C148 1.218 . S
C150 O143 1.275 . S
C150 O145 1.255 1_455 S
C151 O152 1.258 . S
C151 O153 1.256 . S
O152 Cd144 2.381 . S
O152 C151 1.258 . S
O153 Cd144 2.378 . S
O153 C151 1.256 . S
O154 Cd155 2.300 . S
O154 C161 1.275 . S
Cd155 O154 2.300 . S
Cd155 O163 2.381 1_655 S
Cd155 O164 2.378 1_655 S
O156 Cd157 2.385 . S
O156 C161 1.255 . S
Cd157 O156 2.385 . S
Cd157 O158 2.317 . S
O158 Cd157 2.317 . S
O158 C159 1.232 . S
C159 O158 1.232 . S
C159 O160 1.255 . S
O160 C159 1.255 . S
C161 O154 1.275 . S
C161 O156 1.255 . S
C162 O163 1.258 . S
C162 O164 1.256 . S
O163 Cd155 2.381 1_455 S
O163 C162 1.258 . S
O164 Cd155 2.378 1_455 S
O164 C162 1.256 . S
O165 Cd166 2.300 . S
O165 C172 1.275 . S
Cd166 O165 2.300 . S
Cd166 O174 2.381 . S
Cd166 O175 2.378 . S
O167 Cd168 2.385 . S
O167 C172 1.255 . S
Cd168 O167 2.385 . S
Cd168 O169 2.317 . S
O169 Cd168 2.317 . S
O169 C170 1.232 . S
C170 O169 1.232 . S
C170 O171 1.218 . S
O171 C170 1.218 . S
C172 O165 1.275 . S
C172 O167 1.255 . S
C173 O174 1.258 . S
C173 O175 1.256 . S
O174 Cd166 2.381 . S
O174 C173 1.258 . S
O175 Cd166 2.378 . S
O175 C173 1.256 . S
O176 Cd177 2.300 1_556 S
O176 C183 1.275 . S
Cd177 O176 2.300 1_554 S
Cd177 O185 2.381 . S
Cd177 O186 2.378 . S
O178 Cd179 2.385 1_556 S
O178 C183 1.255 . S
Cd179 O178 2.385 1_554 S
Cd179 O180 2.317 1_554 S
O180 Cd179 2.317 1_556 S
O180 C181 1.232 . S
C181 O180 1.232 . S
C181 O182 1.218 . S
O182 C181 1.218 . S
C183 O176 1.275 . S
C183 O178 1.255 . S
C184 O185 1.258 . S
C184 O186 1.256 . S
O185 Cd177 2.381 . S
O185 C184 1.258 . S
O186 Cd177 2.378 . S
O186 C184 1.256 . S
O187 Cd188 2.300 1_556 S
O187 C194 1.275 1_556 S
Cd188 O187 2.300 1_554 S
Cd188 O196 2.381 1_554 S
Cd188 O197 2.378 1_554 S
O189 Cd190 2.385 . S
O189 C194 1.255 . S
Cd190 O189 2.385 . S
Cd190 O191 2.317 . S
O191 Cd190 2.317 . S
O191 C192 1.232 . S
C192 O191 1.232 . S
C192 O193 1.218 . S
O193 C192 1.218 . S
C194 O187 1.275 1_554 S
C194 O189 1.255 . S
C195 O196 1.258 . S
C195 O197 1.256 . S
O196 Cd188 2.381 1_556 S
O196 C195 1.258 . S
O197 Cd188 2.378 1_556 S
O197 C195 1.256 . S
O198 Cd199 2.300 . S
O198 C205 1.275 . S
Cd199 O198 2.300 . S
Cd199 O207 2.381 . S
Cd199 O208 2.378 . S
O200 Cd201 2.385 . S
O200 C205 1.255 . S
Cd201 O200 2.385 . S
Cd201 O202 2.317 . S
O202 Cd201 2.317 . S
O202 C203 1.232 . S
C203 O202 1.232 . S
C203 O204 1.218 . S
O204 C203 1.218 . S
C205 O198 1.275 . S
C205 O200 1.255 . S
C206 O207 1.258 . S
C206 O208 1.256 . S
O207 Cd199 2.381 . S
O207 C206 1.258 . S
O208 Cd199 2.378 . S
O208 C206 1.256 . S
O209 Cd210 2.300 . S
O209 C216 1.275 . S
Cd210 O209 2.300 . S
Cd210 O218 2.381 . S
Cd210 O219 2.378 . S
O211 Cd212 2.385 . S
O211 C216 1.255 . S
Cd212 O211 2.385 . S
Cd212 O213 2.317 . S
O213 Cd212 2.317 . S
O213 C214 1.232 . S
C214 O213 1.232 . S
C214 O215 1.218 . S
O215 C214 1.218 . S
C216 O209 1.275 . S
C216 O211 1.255 . S
C217 O218 1.258 . S
C217 O219 1.256 . S
O218 Cd210 2.381 . S
O218 C217 1.258 . S
O219 Cd210 2.378 . S
O219 C217 1.256 . S
O220 Cd221 2.300 . S
O220 C227 1.275 . S
Cd221 O220 2.300 . S
Cd221 O229 2.381 . S
Cd221 O230 2.378 . S
O222 Cd223 2.385 . S
O222 C227 1.255 . S
Cd223 O222 2.385 . S
Cd223 O224 2.317 . S
O224 Cd223 2.317 . S
O224 C225 1.232 . S
C225 O224 1.232 . S
C225 O226 1.218 . S
O226 C225 1.218 . S
C227 O220 1.275 . S
C227 O222 1.255 . S
C228 O229 1.258 . S
C228 O230 1.256 . S
O229 Cd221 2.381 . S
O229 C228 1.258 . S
O230 Cd221 2.378 . S
O230 C228 1.256 . S
O231 Cd232 2.300 . S
O231 C238 1.275 . S
Cd232 O231 2.300 . S
Cd232 O240 2.381 . S
Cd232 O241 2.378 . S
O233 Cd234 2.385 1_554 S
O233 C238 1.255 . S
Cd234 O233 2.385 1_556 S
Cd234 O235 2.317 1_556 S
O235 Cd234 2.317 1_554 S
O235 C236 1.232 1_554 S
C236 O235 1.232 1_556 S
C236 O237 1.218 . S
O237 C236 1.218 . S
C238 O231 1.275 . S
C238 O233 1.255 . S
C239 O240 1.258 . S
C239 O241 1.256 . S
O240 Cd232 2.381 . S
O240 C239 1.258 . S
O241 Cd232 2.378 . S
O241 C239 1.256 . S
O242 Cd243 2.300 . S
O242 C249 1.275 . S
Cd243 O242 2.300 . S
Cd243 O251 2.381 . S
Cd243 O252 2.378 . S
O244 Cd245 2.385 . S
O244 C249 1.255 . S
Cd245 O244 2.385 . S
Cd245 O246 2.317 . S
O246 Cd245 2.317 . S
O246 C247 1.232 . S
C247 O246 1.232 . S
C247 O248 1.218 . S
O248 C247 1.218 . S
C249 O242 1.275 . S
C249 O244 1.255 . S
C250 O251 1.258 . S
C250 O252 1.256 . S
O251 Cd243 2.381 . S
O251 C250 1.258 . S
O252 Cd243 2.378 . S
O252 C250 1.256 . S
O253 Cd254 2.300 . S
O253 C260 1.275 . S
Cd254 O253 2.300 . S
Cd254 O262 2.381 . S
Cd254 O263 2.378 . S
O255 Cd256 2.385 . S
O255 C260 1.255 . S
Cd256 O255 2.385 . S
Cd256 O257 2.317 . S
O257 Cd256 2.317 . S
O257 C258 1.232 . S
C258 O257 1.232 . S
C258 O259 1.218 . S
O259 C258 1.218 . S
C260 O253 1.275 . S
C260 O255 1.255 . S
C261 O262 1.258 . S
C261 O263 1.256 . S
O262 Cd254 2.381 . S
O262 C261 1.258 . S
O263 Cd254 2.378 . S
O263 C261 1.256 . S
C264 C265 1.391 . S
C264 C266 1.394 . S
C264 H280 0.931 . S
C265 C264 1.391 . S
C265 C269 1.376 . S
C266 C264 1.394 . S
C266 C267 1.369 . S
C266 C270 1.531 . S
C267 C266 1.369 . S
C267 C268 1.410 . S
C267 C275 1.503 . S
C268 C267 1.410 . S
C268 C269 1.392 . S
C268 C271 1.511 . S
C269 C265 1.376 . S
C269 C268 1.392 . S
C269 H281 0.929 . S
C270 C266 1.531 . S
C270 H282 0.960 . S
C270 H283 0.962 . S
C270 H284 0.960 . S
C271 C268 1.511 . S
C271 H285 0.961 . S
C271 H286 0.961 . S
C271 H287 0.961 . S
C272 C273 1.370 . S
C272 C274 1.363 . S
C272 H288 0.931 . S
C273 C272 1.370 . S
C273 C277 1.408 . S
C274 C272 1.363 . S
C274 C275 1.370 . S
C274 C278 1.524 . S
C275 C267 1.503 . S
C275 C274 1.370 . S
C275 C276 1.403 . S
C276 C275 1.403 . S
C276 C277 1.404 . S
C276 C279 1.539 . S
C277 C273 1.408 . S
C277 C276 1.404 . S
C277 H289 0.930 . S
C278 C274 1.524 . S
C278 H290 0.956 . S
C278 H291 0.961 . S
C278 H292 0.961 . S
C279 C276 1.539 . S
C279 H293 0.958 . S
C279 H294 0.961 . S
C279 H295 0.960 . S
H280 C264 0.931 . S
H281 C269 0.929 . S
H282 C270 0.960 . S
H283 C270 0.962 . S
H284 C270 0.960 . S
H285 C271 0.961 . S
H286 C271 0.961 . S
H287 C271 0.961 . S
H288 C272 0.931 . S
H289 C277 0.930 . S
H290 C278 0.956 . S
H291 C278 0.961 . S
H292 C278 0.961 . S
H293 C279 0.958 . S
H294 C279 0.961 . S
H295 C279 0.960 . S
C296 C297 1.391 . S
C296 C298 1.394 . S
C296 H312 0.931 . S
C297 C296 1.391 . S
C297 C301 1.376 . S
C298 C296 1.394 . S
C298 C299 1.369 . S
C298 C302 1.531 . S
C299 C298 1.369 . S
C299 C300 1.410 . S
C299 C307 1.503 . S
C300 C299 1.410 . S
C300 C301 1.392 . S
C300 C303 1.511 . S
C301 C297 1.376 . S
C301 C300 1.392 . S
C301 H313 0.929 . S
C302 C298 1.531 . S
C302 H314 0.960 . S
C302 H315 0.962 . S
C302 H316 0.960 . S
C303 C300 1.511 . S
C303 H317 0.961 . S
C303 H318 0.961 . S
C303 H319 0.961 . S
C304 C305 1.370 . S
C304 C306 1.363 . S
C304 H320 0.931 . S
C305 C304 1.370 . S
C305 C309 1.408 . S
C306 C304 1.363 . S
C306 C307 1.370 . S
C306 C310 1.524 . S
C307 C299 1.503 . S
C307 C306 1.370 . S
C307 C308 1.403 . S
C308 C307 1.403 . S
C308 C309 1.404 . S
C308 C311 1.539 . S
C309 C305 1.408 . S
C309 C308 1.404 . S
C309 H321 0.930 . S
C310 C306 1.524 . S
C310 H322 0.956 . S
C310 H323 0.961 . S
C310 H324 0.961 . S
C311 C308 1.539 . S
C311 H325 0.958 . S
C311 H326 0.961 . S
C311 H327 0.960 . S
H312 C296 0.931 . S
H313 C301 0.929 . S
H314 C302 0.960 . S
H315 C302 0.962 . S
H316 C302 0.960 . S
H317 C303 0.961 . S
H318 C303 0.961 . S
H319 C303 0.961 . S
H320 C304 0.931 . S
H321 C309 0.930 . S
H322 C310 0.956 . S
H323 C310 0.961 . S
H324 C310 0.961 . S
H325 C311 0.958 . S
H326 C311 0.961 . S
H327 C311 0.960 . S
C328 C329 1.391 . S
C328 C330 1.394 . S
C328 H344 0.931 . S
C329 C328 1.391 . S
C329 C333 1.376 . S
C330 C328 1.394 . S
C330 C331 1.369 . S
C330 C334 1.531 . S
C331 C330 1.369 . S
C331 C332 1.410 . S
C331 C339 1.503 . S
C332 C331 1.410 . S
C332 C333 1.392 . S
C332 C335 1.511 . S
C333 C329 1.376 . S
C333 C332 1.392 . S
C333 H345 0.929 . S
C334 C330 1.531 . S
C334 H346 0.960 . S
C334 H347 0.962 . S
C334 H348 0.960 . S
C335 C332 1.511 . S
C335 H349 0.961 . S
C335 H350 0.961 . S
C335 H351 0.961 . S
C336 C337 1.370 . S
C336 C338 1.363 . S
C336 H352 0.931 . S
C337 C336 1.370 . S
C337 C341 1.408 . S
C338 C336 1.363 . S
C338 C339 1.370 . S
C338 C342 1.524 . S
C339 C331 1.503 . S
C339 C338 1.370 . S
C339 C340 1.403 . S
C340 C339 1.403 . S
C340 C341 1.404 . S
C340 C343 1.539 . S
C341 C337 1.408 . S
C341 C340 1.404 . S
C341 H353 0.930 . S
C342 C338 1.524 . S
C342 H354 0.956 . S
C342 H355 0.961 . S
C342 H356 0.961 . S
C343 C340 1.539 . S
C343 H357 0.958 . S
C343 H358 0.961 . S
C343 H359 0.960 . S
H344 C328 0.931 . S
H345 C333 0.929 . S
H346 C334 0.960 . S
H347 C334 0.962 . S
H348 C334 0.960 . S
H349 C335 0.961 . S
H350 C335 0.961 . S
H351 C335 0.961 . S
H352 C336 0.931 . S
H353 C341 0.930 . S
H354 C342 0.956 . S
H355 C342 0.961 . S
H356 C342 0.961 . S
H357 C343 0.958 . S
H358 C343 0.961 . S
H359 C343 0.960 . S
C360 C361 1.391 . S
C360 C362 1.394 . S
C360 H376 0.931 . S
C361 C360 1.391 . S
C361 C365 1.376 . S
C362 C360 1.394 . S
C362 C363 1.369 . S
C362 C366 1.531 . S
C363 C362 1.369 . S
C363 C364 1.410 . S
C363 C371 1.503 . S
C364 C363 1.410 . S
C364 C365 1.392 . S
C364 C367 1.511 1_545 S
C365 C361 1.376 . S
C365 C364 1.392 . S
C365 H377 0.929 . S
C366 C362 1.531 . S
C366 H378 0.960 . S
C366 H379 0.962 . S
C366 H380 0.960 . S
C367 C364 1.511 1_565 S
C367 H381 0.961 . S
C367 H382 0.961 . S
C367 H383 0.961 . S
C368 C369 1.370 . S
C368 C370 1.363 . S
C368 H384 0.931 . S
C369 C368 1.370 . S
C369 C373 1.408 . S
C370 C368 1.363 . S
C370 C371 1.370 1_565 S
C370 C374 1.524 1_565 S
C371 C363 1.503 . S
C371 C370 1.370 1_545 S
C371 C372 1.403 1_545 S
C372 C371 1.403 1_565 S
C372 C373 1.404 . S
C372 C375 1.539 . S
C373 C369 1.408 . S
C373 C372 1.404 . S
C373 H385 0.930 . S
C374 C370 1.524 1_545 S
C374 H386 0.956 . S
C374 H387 0.961 . S
C374 H388 0.961 . S
C375 C372 1.539 . S
C375 H389 0.958 1_565 S
C375 H390 0.961 . S
C375 H391 0.960 . S
H376 C360 0.931 . S
H377 C365 0.929 . S
H378 C366 0.960 . S
H379 C366 0.962 . S
H380 C366 0.960 . S
H381 C367 0.961 . S
H382 C367 0.961 . S
H383 C367 0.961 . S
H384 C368 0.931 . S
H385 C373 0.930 . S
H386 C374 0.956 . S
H387 C374 0.961 . S
H388 C374 0.961 . S
H389 C375 0.958 1_545 S
H390 C375 0.961 . S
H391 C375 0.960 . S
C392 C393 1.391 . S
C392 C394 1.394 . S
C392 H408 0.931 . S
C393 C392 1.391 . S
C393 C397 1.376 . S
C394 C392 1.394 . S
C394 C395 1.369 . S
C394 C398 1.531 . S
C395 C394 1.369 . S
C395 C396 1.410 . S
C395 C403 1.503 . S
C396 C395 1.410 . S
C396 C397 1.392 . S
C396 C399 1.511 . S
C397 C393 1.376 . S
C397 C396 1.392 . S
C397 H409 0.929 . S
C398 C394 1.531 . S
C398 H410 0.960 . S
C398 H411 0.962 . S
C398 H412 0.960 . S
C399 C396 1.511 . S
C399 H413 0.961 . S
C399 H414 0.961 . S
C399 H415 0.961 . S
C400 C401 1.370 1_565 S
C400 C402 1.363 1_565 S
C400 H416 0.931 . S
C401 C400 1.370 1_545 S
C401 C405 1.408 . S
C402 C400 1.363 1_545 S
C402 C403 1.370 . S
C402 C406 1.524 1_545 S
C403 C395 1.503 . S
C403 C402 1.370 . S
C403 C404 1.403 . S
C404 C403 1.403 . S
C404 C405 1.404 . S
C404 C407 1.539 . S
C405 C401 1.408 . S
C405 C404 1.404 . S
C405 H417 0.930 . S
C406 C402 1.524 1_565 S
C406 H418 0.956 . S
C406 H419 0.961 . S
C406 H420 0.961 . S
C407 C404 1.539 . S
C407 H421 0.958 . S
C407 H422 0.961 . S
C407 H423 0.960 . S
H408 C392 0.931 . S
H409 C397 0.929 . S
H410 C398 0.960 . S
H411 C398 0.962 . S
H412 C398 0.960 . S
H413 C399 0.961 . S
H414 C399 0.961 . S
H415 C399 0.961 . S
H416 C400 0.931 . S
H417 C405 0.930 . S
H418 C406 0.956 . S
H419 C406 0.961 . S
H420 C406 0.961 . S
H421 C407 0.958 . S
H422 C407 0.961 . S
H423 C407 0.960 . S
C424 C425 1.391 1_455 S
C424 C426 1.394 . S
C424 H440 0.931 . S
C425 C424 1.391 1_655 S
C425 C429 1.376 . S
C426 C424 1.394 . S
C426 C427 1.369 1_455 S
C426 C430 1.531 . S
C427 C426 1.369 1_655 S
C427 C428 1.410 . S
C427 C435 1.503 1_655 S
C428 C427 1.410 . S
C428 C429 1.392 . S
C428 C431 1.511 . S
C429 C425 1.376 . S
C429 C428 1.392 . S
C429 H441 0.929 . S
C430 C426 1.531 . S
C430 H442 0.960 . S
C430 H443 0.962 . S
C430 H444 0.960 . S
C431 C428 1.511 . S
C431 H445 0.961 . S
C431 H446 0.961 . S
C431 H447 0.961 . S
C432 C433 1.370 . S
C432 C434 1.363 . S
C432 H448 0.931 . S
C433 C432 1.370 . S
C433 C437 1.408 . S
C434 C432 1.363 . S
C434 C435 1.370 . S
C434 C438 1.524 . S
C435 C427 1.503 1_455 S
C435 C434 1.370 . S
C435 C436 1.403 . S
C436 C435 1.403 . S
C436 C437 1.404 . S
C436 C439 1.539 . S
C437 C433 1.408 . S
C437 C436 1.404 . S
C437 H449 0.930 . S
C438 C434 1.524 . S
C438 H450 0.956 . S
C438 H451 0.961 1_455 S
C438 H452 0.961 . S
C439 C436 1.539 . S
C439 H453 0.958 . S
C439 H454 0.961 1_455 S
C439 H455 0.960 1_455 S
H440 C424 0.931 . S
H441 C429 0.929 . S
H442 C430 0.960 . S
H443 C430 0.962 . S
H444 C430 0.960 . S
H445 C431 0.961 . S
H446 C431 0.961 . S
H447 C431 0.961 . S
H448 C432 0.931 . S
H449 C437 0.930 . S
H450 C438 0.956 . S
H451 C438 0.961 1_655 S
H452 C438 0.961 . S
H453 C439 0.958 . S
H454 C439 0.961 1_655 S
H455 C439 0.960 1_655 S
C456 C457 1.391 . S
C456 C458 1.394 . S
C456 H472 0.931 . S
C457 C456 1.391 . S
C457 C461 1.376 . S
C458 C456 1.394 . S
C458 C459 1.369 . S
C458 C462 1.531 . S
C459 C458 1.369 . S
C459 C460 1.410 . S
C459 C467 1.503 . S
C460 C459 1.410 . S
C460 C461 1.392 . S
C460 C463 1.511 . S
C461 C457 1.376 . S
C461 C460 1.392 . S
C461 H473 0.929 . S
C462 C458 1.531 . S
C462 H474 0.960 . S
C462 H475 0.962 . S
C462 H476 0.960 . S
C463 C460 1.511 . S
C463 H477 0.948 1_565 S
C463 H478 0.961 1_565 S
C463 H479 0.961 . S
C464 C465 1.370 . S
C464 C466 1.363 . S
C464 H480 0.931 . S
C465 C464 1.370 . S
C465 C469 1.408 1_545 S
C466 C464 1.363 . S
C466 C467 1.370 1_545 S
C466 C470 1.524 . S
C467 C459 1.503 . S
C467 C466 1.370 1_565 S
C467 C468 1.403 . S
C468 C467 1.403 . S
C468 C469 1.404 . S
C468 C471 1.539 . S
C469 C465 1.408 1_565 S
C469 C468 1.404 . S
C469 H481 0.930 . S
C470 C466 1.524 . S
C470 H482 0.956 . S
C470 H483 0.961 . S
C470 H484 0.961 . S
C471 C468 1.539 . S
C471 H485 0.958 . S
C471 H486 0.961 . S
C471 H487 0.960 . S
H472 C456 0.931 . S
H473 C461 0.929 . S
H474 C462 0.960 . S
H475 C462 0.962 . S
H476 C462 0.960 . S
H477 C463 0.948 1_545 S
H478 C463 0.961 1_545 S
H479 C463 0.961 . S
H480 C464 0.931 . S
H481 C469 0.930 . S
H482 C470 0.956 . S
H483 C470 0.961 . S
H484 C470 0.961 . S
H485 C471 0.958 . S
H486 C471 0.961 . S
H487 C471 0.960 . S
C488 C489 1.391 . S
C488 C490 1.394 . S
C488 H504 0.931 . S
C489 C488 1.391 . S
C489 C493 1.376 . S
C490 C488 1.394 . S
C490 C491 1.369 . S
C490 C494 1.531 . S
C491 C490 1.369 . S
C491 C492 1.410 . S
C491 C499 1.503 . S
C492 C491 1.410 . S
C492 C493 1.392 . S
C492 C495 1.511 . S
C493 C489 1.376 . S
C493 C492 1.392 . S
C493 H505 0.929 . S
C494 C490 1.531 . S
C494 H506 0.960 . S
C494 H507 0.962 . S
C494 H508 0.960 . S
C495 C492 1.511 . S
C495 H509 0.961 . S
C495 H510 0.961 1_455 S
C495 H511 0.961 . S
C496 C497 1.370 . S
C496 C498 1.363 1_655 S
C496 H512 0.931 . S
C497 C496 1.370 . S
C497 C501 1.408 . S
C498 C496 1.363 1_455 S
C498 C499 1.370 . S
C498 C502 1.524 . S
C499 C491 1.503 . S
C499 C498 1.370 . S
C499 C500 1.403 1_455 S
C500 C499 1.403 1_655 S
C500 C501 1.404 . S
C500 C503 1.539 . S
C501 C497 1.408 . S
C501 C500 1.404 . S
C501 H513 0.930 . S
C502 C498 1.524 . S
C502 H514 0.956 . S
C502 H515 0.961 . S
C502 H516 0.961 . S
C503 C500 1.539 . S
C503 H517 0.958 1_655 S
C503 H518 0.961 . S
C503 H519 0.960 1_655 S
H504 C488 0.931 . S
H505 C493 0.929 . S
H506 C494 0.960 . S
H507 C494 0.962 . S
H508 C494 0.960 . S
H509 C495 0.961 . S
H510 C495 0.961 1_655 S
H511 C495 0.961 . S
H512 C496 0.931 . S
H513 C501 0.930 . S
H514 C502 0.956 . S
H515 C502 0.961 . S
H516 C502 0.961 . S
H517 C503 0.958 1_455 S
H518 C503 0.961 . S
H519 C503 0.960 1_455 S
C520 C521 1.391 . S
C520 C522 1.394 . S
C520 H536 0.931 . S
C521 C520 1.391 . S
C521 C525 1.376 . S
C522 C520 1.394 . S
C522 C523 1.369 . S
C522 C526 1.531 . S
C523 C522 1.369 . S
C523 C524 1.410 . S
C523 C531 1.503 . S
C524 C523 1.410 . S
C524 C525 1.392 . S
C524 C527 1.511 . S
C525 C521 1.376 . S
C525 C524 1.392 . S
C525 H537 0.929 . S
C526 C522 1.531 . S
C526 H538 0.960 . S
C526 H539 0.962 . S
C526 H540 0.960 . S
C527 C524 1.511 . S
C527 H541 0.961 . S
C527 H542 0.961 . S
C527 H543 0.961 . S
C528 C529 1.370 . S
C528 C530 1.363 . S
C528 H544 0.931 . S
C529 C528 1.370 . S
C529 C533 1.408 . S
C530 C528 1.363 . S
C530 C531 1.370 . S
C530 C534 1.507 1_556 S
C531 C523 1.503 . S
C531 C530 1.370 . S
C531 C532 1.403 . S
C532 C531 1.403 . S
C532 C533 1.404 . S
C532 C535 1.539 . S
C533 C529 1.408 . S
C533 C532 1.404 . S
C533 H545 0.930 . S
C534 C530 1.507 1_554 S
C534 H546 0.966 . S
C534 H547 0.956 1_554 S
C534 H548 0.974 . S
C535 C532 1.539 . S
C535 H549 0.958 . S
C535 H550 0.961 . S
C535 H551 0.960 . S
H536 C520 0.931 . S
H537 C525 0.929 . S
H538 C526 0.960 . S
H539 C526 0.962 . S
H540 C526 0.960 . S
H541 C527 0.961 . S
H542 C527 0.961 . S
H543 C527 0.961 . S
H544 C528 0.931 . S
H545 C533 0.930 . S
H546 C534 0.966 . S
H547 C534 0.956 1_556 S
H548 C534 0.974 . S
H549 C535 0.958 . S
H550 C535 0.961 . S
H551 C535 0.960 . S
C552 C553 1.391 . S
C552 C554 1.394 . S
C552 H568 0.931 . S
C553 C552 1.391 . S
C553 C557 1.376 . S
C554 C552 1.394 . S
C554 C555 1.369 . S
C554 C558 1.531 . S
C555 C554 1.369 . S
C555 C556 1.410 . S
C555 C563 1.503 . S
C556 C555 1.410 . S
C556 C557 1.392 . S
C556 C559 1.511 . S
C557 C553 1.376 . S
C557 C556 1.392 . S
C557 H569 0.929 . S
C558 C554 1.531 . S
C558 H570 0.960 . S
C558 H571 0.962 . S
C558 H572 0.960 . S
C559 C556 1.511 . S
C559 H573 0.961 1_554 S
C559 H574 0.961 1_554 S
C559 H575 0.961 . S
C560 C561 1.370 . S
C560 C562 1.363 . S
C560 H576 0.931 1_554 S
C561 C560 1.370 . S
C561 C565 1.408 . S
C562 C560 1.363 . S
C562 C563 1.370 . S
C562 C566 1.524 1_554 S
C563 C555 1.503 . S
C563 C562 1.370 . S
C563 C564 1.403 . S
C564 C563 1.403 . S
C564 C565 1.404 . S
C564 C567 1.539 . S
C565 C561 1.408 . S
C565 C564 1.404 . S
C565 H577 0.930 . S
C566 C562 1.524 1_556 S
C566 H578 0.956 . S
C566 H579 0.961 . S
C566 H580 0.961 . S
C567 C564 1.539 . S
C567 H581 0.958 . S
C567 H582 0.961 . S
C567 H583 0.960 . S
H568 C552 0.931 . S
H569 C557 0.929 . S
H570 C558 0.960 . S
H571 C558 0.962 . S
H572 C558 0.960 . S
H573 C559 0.961 1_556 S
H574 C559 0.961 1_556 S
H575 C559 0.961 . S
H576 C560 0.931 1_556 S
H577 C565 0.930 . S
H578 C566 0.956 . S
H579 C566 0.961 . S
H580 C566 0.961 . S
H581 C567 0.958 . S
H582 C567 0.961 . S
H583 C567 0.960 . S
C584 C585 1.391 . S
C584 C586 1.394 1_554 S
C584 H600 0.931 . S
C585 C584 1.391 . S
C585 C589 1.376 . S
C586 C584 1.394 1_556 S
C586 C587 1.369 . S
C586 C590 1.531 . S
C587 C586 1.369 . S
C587 C588 1.410 . S
C587 C595 1.503 . S
C588 C587 1.410 . S
C588 C589 1.392 1_556 S
C588 C591 1.511 . S
C589 C585 1.376 . S
C589 C588 1.392 1_554 S
C589 H601 0.929 . S
C590 C586 1.531 . S
C590 H602 0.960 . S
C590 H603 0.962 . S
C590 H604 0.960 1_556 S
C591 C588 1.511 . S
C591 H605 0.961 . S
C591 H606 0.961 . S
C591 H607 0.961 . S
C592 C593 1.370 . S
C592 C594 1.363 . S
C592 H608 0.931 . S
C593 C592 1.370 . S
C593 C597 1.408 . S
C594 C592 1.363 . S
C594 C595 1.370 . S
C594 C598 1.524 . S
C595 C587 1.503 . S
C595 C594 1.370 . S
C595 C596 1.403 . S
C596 C595 1.403 . S
C596 C597 1.404 . S
C596 C599 1.539 . S
C597 C593 1.408 . S
C597 C596 1.404 . S
C597 H609 0.930 . S
C598 C594 1.524 . S
C598 H610 0.956 . S
C598 H611 0.961 . S
C598 H612 0.961 . S
C599 C596 1.539 . S
C599 H613 0.958 1_556 S
C599 H614 0.961 . S
C599 H615 0.960 1_556 S
H600 C584 0.931 . S
H601 C589 0.929 . S
H602 C590 0.960 . S
H603 C590 0.962 . S
H604 C590 0.960 1_554 S
H605 C591 0.961 . S
H606 C591 0.961 . S
H607 C591 0.961 . S
H608 C592 0.931 . S
H609 C597 0.930 . S
H610 C598 0.956 . S
H611 C598 0.961 . S
H612 C598 0.961 . S
H613 C599 0.958 1_554 S
H614 C599 0.961 . S
H615 C599 0.960 1_554 S
C616 C617 1.391 . S
C616 C618 1.394 . S
C616 H632 0.931 . S
C617 C616 1.391 . S
C617 C621 1.376 . S
C618 C616 1.394 . S
C618 C619 1.369 . S
C618 C622 1.531 1_554 S
C619 C618 1.369 . S
C619 C620 1.410 . S
C619 C627 1.503 . S
C620 C619 1.410 . S
C620 C621 1.392 . S
C620 C623 1.511 . S
C621 C617 1.376 . S
C621 C620 1.392 . S
C621 H633 0.929 . S
C622 C618 1.531 1_556 S
C622 H634 0.960 . S
C622 H635 0.962 . S
C622 H636 0.960 . S
C623 C620 1.511 . S
C623 H637 0.961 . S
C623 H638 0.961 . S
C623 H639 0.961 . S
C624 C625 1.370 . S
C624 C626 1.363 1_556 S
C624 H640 0.931 . S
C625 C624 1.370 . S
C625 C629 1.408 . S
C626 C624 1.363 1_554 S
C626 C627 1.370 . S
C626 C630 1.524 . S
C627 C619 1.503 . S
C627 C626 1.370 . S
C627 C628 1.403 1_554 S
C628 C627 1.403 1_556 S
C628 C629 1.404 . S
C628 C631 1.539 . S
C629 C625 1.408 . S
C629 C628 1.404 . S
C629 H641 0.930 . S
C630 C626 1.524 . S
C630 H642 0.956 . S
C630 H643 0.961 . S
C630 H644 0.961 . S
C631 C628 1.539 . S
C631 H645 0.958 . S
C631 H646 0.961 . S
C631 H647 0.960 . S
H632 C616 0.931 . S
H633 C621 0.929 . S
H634 C622 0.960 . S
H635 C622 0.962 . S
H636 C622 0.960 . S
H637 C623 0.961 . S
H638 C623 0.961 . S
H639 C623 0.961 . S
H640 C624 0.931 . S
H641 C629 0.930 . S
H642 C630 0.956 . S
H643 C630 0.961 . S
H644 C630 0.961 . S
H645 C631 0.958 . S
H646 C631 0.961 . S
H647 C631 0.960 . S
C648 C649 1.391 1_655 S
C648 C650 1.394 . S
C648 H664 0.931 . S
C649 C648 1.391 1_455 S
C649 C653 1.376 . S
C650 C648 1.394 . S
C650 C651 1.369 1_655 S
C650 C654 1.531 . S
C651 C650 1.369 1_455 S
C651 C652 1.410 . S
C651 C659 1.503 . S
C652 C651 1.410 . S
C652 C653 1.392 . S
C652 C655 1.511 . S
C653 C649 1.376 . S
C653 C652 1.392 . S
C653 H665 0.929 . S
C654 C650 1.531 . S
C654 H666 0.960 . S
C654 H667 0.962 . S
C654 H668 0.960 . S
C655 C652 1.511 . S
C655 H669 0.961 . S
C655 H670 0.961 . S
C655 H671 0.961 . S
C656 C657 1.370 . S
C656 C658 1.363 . S
C656 H672 0.931 1_445 S
C657 C656 1.370 . S
C657 C661 1.408 . S
C658 C656 1.363 . S
C658 C659 1.370 . S
C658 C662 1.524 1_445 S
C659 C651 1.503 . S
C659 C658 1.370 . S
C659 C660 1.403 . S
C660 C659 1.403 . S
C660 C661 1.404 . S
C660 C663 1.539 . S
C661 C657 1.408 . S
C661 C660 1.404 . S
C661 H673 0.930 . S
C662 C658 1.524 1_665 S
C662 H674 0.956 1_565 S
C662 H675 0.961 1_655 S
C662 H676 0.961 . S
C663 C660 1.539 . S
C663 H677 0.958 . S
C663 H678 0.961 . S
C663 H679 0.960 . S
H664 C648 0.931 . S
H665 C653 0.929 . S
H666 C654 0.960 . S
H667 C654 0.962 . S
H668 C654 0.960 . S
H669 C655 0.961 . S
H670 C655 0.961 . S
H671 C655 0.961 . S
H672 C656 0.931 1_665 S
H673 C661 0.930 . S
H674 C662 0.956 1_545 S
H675 C662 0.961 1_455 S
H676 C662 0.961 . S
H677 C663 0.958 . S
H678 C663 0.961 . S
H679 C663 0.960 . S
C680 C681 1.391 . S
C680 C682 1.394 . S
C680 H696 0.931 . S
C681 C680 1.391 . S
C681 C685 1.376 . S
C682 C680 1.394 . S
C682 C683 1.369 . S
C682 C686 1.531 . S
C683 C682 1.369 . S
C683 C684 1.410 . S
C683 C691 1.503 . S
C684 C683 1.410 . S
C684 C685 1.392 . S
C684 C687 1.511 . S
C685 C681 1.376 . S
C685 C684 1.392 . S
C685 H697 0.929 . S
C686 C682 1.531 . S
C686 H698 0.960 . S
C686 H699 0.962 . S
C686 H700 0.960 . S
C687 C684 1.511 . S
C687 H701 0.961 . S
C687 H702 0.961 . S
C687 H703 0.961 . S
C688 C689 1.370 . S
C688 C690 1.363 . S
C688 H704 0.931 . S
C689 C688 1.370 . S
C689 C693 1.408 . S
C690 C688 1.363 . S
C690 C691 1.370 . S
C690 C694 1.524 . S
C691 C683 1.503 . S
C691 C690 1.370 . S
C691 C692 1.403 . S
C692 C691 1.403 . S
C692 C693 1.404 . S
C692 C695 1.539 . S
C693 C689 1.408 . S
C693 C692 1.404 . S
C693 H705 0.930 . S
C694 C690 1.524 . S
C694 H706 0.956 . S
C694 H707 0.961 . S
C694 H708 0.961 . S
C695 C692 1.539 . S
C695 H709 0.958 . S
C695 H710 0.961 . S
C695 H711 0.960 . S
H696 C680 0.931 . S
H697 C685 0.929 . S
H698 C686 0.960 . S
H699 C686 0.962 . S
H700 C686 0.960 . S
H701 C687 0.961 . S
H702 C687 0.961 . S
H703 C687 0.961 . S
H704 C688 0.931 . S
H705 C693 0.930 . S
H706 C694 0.956 . S
H707 C694 0.961 . S
H708 C694 0.961 . S
H709 C695 0.958 . S
H710 C695 0.961 . S
H711 C695 0.960 . S
C712 C713 1.391 1_545 S
C712 C714 1.394 . S
C712 H728 0.931 . S
C713 C712 1.391 1_565 S
C713 C717 1.376 . S
C714 C712 1.394 . S
C714 C715 1.369 . S
C714 C718 1.531 . S
C715 C714 1.369 . S
C715 C716 1.410 1_545 S
C715 C723 1.503 . S
C716 C715 1.410 1_565 S
C716 C717 1.392 . S
C716 C719 1.511 . S
C717 C713 1.376 . S
C717 C716 1.392 . S
C717 H729 0.929 . S
C718 C714 1.531 . S
C718 H730 0.960 . S
C718 H731 0.962 . S
C718 H732 0.960 . S
C719 C716 1.511 . S
C719 H733 0.961 . S
C719 H734 0.961 . S
C719 H735 0.961 . S
C720 C721 1.370 . S
C720 C722 1.363 . S
C720 H736 0.931 . S
C721 C720 1.370 . S
C721 C725 1.408 . S
C722 C720 1.363 . S
C722 C723 1.370 . S
C722 C726 1.524 . S
C723 C715 1.503 . S
C723 C722 1.370 . S
C723 C724 1.403 . S
C724 C723 1.403 . S
C724 C725 1.404 . S
C724 C727 1.539 . S
C725 C721 1.408 . S
C725 C724 1.404 . S
C725 H737 0.930 . S
C726 C722 1.524 . S
C726 H738 0.956 . S
C726 H739 0.961 . S
C726 H740 0.961 . S
C727 C724 1.539 . S
C727 H741 0.958 . S
C727 H742 0.961 . S
C727 H743 0.960 . S
H728 C712 0.931 . S
H729 C717 0.929 . S
H730 C718 0.960 . S
H731 C718 0.962 . S
H732 C718 0.960 . S
H733 C719 0.961 . S
H734 C719 0.961 . S
H735 C719 0.961 . S
H736 C720 0.931 . S
H737 C725 0.930 . S
H738 C726 0.956 . S
H739 C726 0.961 . S
H740 C726 0.961 . S
H741 C727 0.958 . S
H742 C727 0.961 . S
H743 C727 0.960 . S
C744 C745 1.391 . S
C744 C746 1.394 . S
C744 H760 0.931 . S
C745 C744 1.391 . S
C745 C749 1.376 . S
C746 C744 1.394 . S
C746 C747 1.369 . S
C746 C750 1.531 . S
C747 C746 1.369 . S
C747 C748 1.410 . S
C747 C755 1.503 . S
C748 C747 1.410 . S
C748 C749 1.392 . S
C748 C751 1.511 . S
C749 C745 1.376 . S
C749 C748 1.392 . S
C749 H761 0.929 . S
C750 C746 1.531 . S
C750 H762 0.960 . S
C750 H763 0.962 . S
C750 H764 0.960 . S
C751 C748 1.511 . S
C751 H765 0.961 . S
C751 H766 0.961 . S
C751 H767 0.961 . S
C752 C753 1.370 . S
C752 C754 1.363 . S
C752 H768 0.931 . S
C753 C752 1.370 . S
C753 C757 1.408 . S
C754 C752 1.363 . S
C754 C755 1.370 . S
C754 C758 1.524 . S
C755 C747 1.503 . S
C755 C754 1.370 . S
C755 C756 1.403 . S
C756 C755 1.403 . S
C756 C757 1.404 . S
C756 C759 1.539 . S
C757 C753 1.408 . S
C757 C756 1.404 . S
C757 H769 0.930 . S
C758 C754 1.524 . S
C758 H770 0.956 . S
C758 H771 0.961 . S
C758 H772 0.961 . S
C759 C756 1.539 . S
C759 H773 0.958 . S
C759 H774 0.961 . S
C759 H775 0.960 . S
H760 C744 0.931 . S
H761 C749 0.929 . S
H762 C750 0.960 . S
H763 C750 0.962 . S
H764 C750 0.960 . S
H765 C751 0.961 . S
H766 C751 0.961 . S
H767 C751 0.961 . S
H768 C752 0.931 . S
H769 C757 0.930 . S
H770 C758 0.956 . S
H771 C758 0.961 . S
H772 C758 0.961 . S
H773 C759 0.958 . S
H774 C759 0.961 . S
H775 C759 0.960 . S
C776 C777 1.391 . S
C776 C778 1.394 . S
C776 H792 0.931 . S
C777 C776 1.391 . S
C777 C781 1.376 . S
C778 C776 1.394 . S
C778 C779 1.369 . S
C778 C782 1.531 . S
C779 C778 1.369 . S
C779 C780 1.410 . S
C779 C787 1.503 . S
C780 C779 1.410 . S
C780 C781 1.392 . S
C780 C783 1.511 . S
C781 C777 1.376 . S
C781 C780 1.392 . S
C781 H793 0.929 . S
C782 C778 1.531 . S
C782 H794 0.960 . S
C782 H795 0.962 . S
C782 H796 0.960 . S
C783 C780 1.511 . S
C783 H797 0.961 . S
C783 H798 0.961 . S
C783 H799 0.961 . S
C784 C785 1.370 . S
C784 C786 1.363 . S
C784 H800 0.931 . S
C785 C784 1.370 . S
C785 C789 1.408 1_545 S
C786 C784 1.363 . S
C786 C787 1.370 . S
C786 C790 1.524 . S
C787 C779 1.503 . S
C787 C786 1.370 . S
C787 C788 1.403 . S
C788 C787 1.403 . S
C788 C789 1.404 1_545 S
C788 C791 1.539 . S
C789 C785 1.408 1_565 S
C789 C788 1.404 1_565 S
C789 H801 0.930 . S
C790 C786 1.524 . S
C790 H802 0.956 . S
C790 H803 0.961 . S
C790 H804 0.961 . S
C791 C788 1.539 . S
C791 H805 0.958 1_545 S
C791 H806 0.961 1_545 S
C791 H807 0.960 . S
H792 C776 0.931 . S
H793 C781 0.929 . S
H794 C782 0.960 . S
H795 C782 0.962 . S
H796 C782 0.960 . S
H797 C783 0.961 . S
H798 C783 0.961 . S
H799 C783 0.961 . S
H800 C784 0.931 . S
H801 C789 0.930 . S
H802 C790 0.956 . S
H803 C790 0.961 . S
H804 C790 0.961 . S
H805 C791 0.958 1_565 S
H806 C791 0.961 1_565 S
H807 C791 0.960 . S
C808 C809 1.391 . S
C808 C810 1.394 . S
C808 H824 0.931 . S
C809 C808 1.391 . S
C809 C813 1.376 . S
C810 C808 1.394 . S
C810 C811 1.369 . S
C810 C814 1.531 . S
C811 C810 1.369 . S
C811 C812 1.410 . S
C811 C819 1.503 . S
C812 C811 1.410 . S
C812 C813 1.392 . S
C812 C815 1.511 . S
C813 C809 1.376 . S
C813 C812 1.392 . S
C813 H825 0.929 . S
C814 C810 1.531 . S
C814 H826 0.960 . S
C814 H827 0.962 . S
C814 H828 0.960 . S
C815 C812 1.511 . S
C815 H829 0.961 . S
C815 H830 0.961 . S
C815 H831 0.961 . S
C816 C817 1.370 . S
C816 C818 1.363 . S
C816 H832 0.931 . S
C817 C816 1.370 . S
C817 C821 1.408 . S
C818 C816 1.363 . S
C818 C819 1.370 . S
C818 C822 1.524 . S
C819 C811 1.503 . S
C819 C818 1.370 . S
C819 C820 1.403 . S
C820 C819 1.403 . S
C820 C821 1.404 . S
C820 C823 1.539 . S
C821 C817 1.408 . S
C821 C820 1.404 . S
C821 H833 0.930 . S
C822 C818 1.524 . S
C822 H834 0.956 . S
C822 H835 0.961 . S
C822 H836 0.961 . S
C823 C820 1.539 . S
C823 H837 0.958 . S
C823 H838 0.961 . S
C823 H839 0.960 . S
H824 C808 0.931 . S
H825 C813 0.929 . S
H826 C814 0.960 . S
H827 C814 0.962 . S
H828 C814 0.960 . S
H829 C815 0.961 . S
H830 C815 0.961 . S
H831 C815 0.961 . S
H832 C816 0.931 . S
H833 C821 0.930 . S
H834 C822 0.956 . S
H835 C822 0.961 . S
H836 C822 0.961 . S
H837 C823 0.958 . S
H838 C823 0.961 . S
H839 C823 0.960 . S
C840 C841 1.391 . S
C840 C842 1.394 . S
C840 H856 0.931 . S
C841 C840 1.391 . S
C841 C845 1.376 . S
C842 C840 1.394 . S
C842 C843 1.369 . S
C842 C846 1.531 1_655 S
C843 C842 1.369 . S
C843 C844 1.410 . S
C843 C851 1.503 . S
C844 C843 1.410 . S
C844 C845 1.392 . S
C844 C847 1.511 . S
C845 C841 1.376 . S
C845 C844 1.392 . S
C845 H857 0.929 . S
C846 C842 1.531 1_455 S
C846 H858 0.960 1_455 S
C846 H859 0.962 . S
C846 H860 0.960 . S
C847 C844 1.511 . S
C847 H861 0.947 1_565 S
C847 H862 0.961 1_565 S
C847 H863 0.961 . S
C848 C849 1.372 1_455 S
C848 C850 1.363 1_445 S
C848 H864 0.931 . S
C849 C848 1.372 1_655 S
C849 C853 1.401 1_545 S
C850 C848 1.363 1_665 S
C850 C851 1.370 . S
C850 C854 1.524 1_655 S
C851 C843 1.503 . S
C851 C850 1.370 . S
C851 C852 1.403 . S
C852 C851 1.403 . S
C852 C853 1.404 . S
C852 C855 1.539 . S
C853 C849 1.401 1_565 S
C853 C852 1.404 . S
C853 H865 0.930 . S
C854 C850 1.524 1_455 S
C854 H866 0.956 . S
C854 H867 0.961 1_455 S
C854 H868 0.961 1_565 S
C855 C852 1.539 . S
C855 H869 0.958 . S
C855 H870 0.961 . S
C855 H871 0.960 . S
H856 C840 0.931 . S
H857 C845 0.929 . S
H858 C846 0.960 1_655 S
H859 C846 0.962 . S
H860 C846 0.960 . S
H861 C847 0.947 1_545 S
H862 C847 0.961 1_545 S
H863 C847 0.961 . S
H864 C848 0.931 . S
H865 C853 0.930 . S
H866 C854 0.956 . S
H867 C854 0.961 1_655 S
H868 C854 0.961 1_545 S
H869 C855 0.958 . S
H870 C855 0.961 . S
H871 C855 0.960 . S
C872 C873 1.391 . S
C872 C874 1.394 . S
C872 H888 0.931 . S
C873 C872 1.391 . S
C873 C877 1.376 . S
C874 C872 1.394 . S
C874 C875 1.369 . S
C874 C878 1.531 . S
C875 C874 1.369 . S
C875 C876 1.410 . S
C875 C883 1.503 . S
C876 C875 1.410 . S
C876 C877 1.392 . S
C876 C879 1.511 . S
C877 C873 1.376 . S
C877 C876 1.392 . S
C877 H889 0.929 . S
C878 C874 1.531 . S
C878 H890 0.960 . S
C878 H891 0.962 . S
C878 H892 0.960 . S
C879 C876 1.511 . S
C879 H893 0.961 . S
C879 H894 0.961 . S
C879 H895 0.961 . S
C880 C881 1.370 . S
C880 C882 1.363 . S
C880 H896 0.911 1_655 S
C881 C880 1.370 . S
C881 C885 1.408 . S
C882 C880 1.363 . S
C882 C883 1.370 . S
C882 C886 1.524 . S
C883 C875 1.503 . S
C883 C882 1.370 . S
C883 C884 1.403 . S
C884 C883 1.403 . S
C884 C885 1.404 . S
C884 C887 1.539 . S
C885 C881 1.408 . S
C885 C884 1.404 . S
C885 H897 0.930 . S
C886 C882 1.524 . S
C886 H898 0.956 . S
C886 H899 0.961 . S
C886 H900 0.961 1_655 S
C887 C884 1.539 . S
C887 H901 0.958 . S
C887 H902 0.961 . S
C887 H903 0.960 . S
H888 C872 0.931 . S
H889 C877 0.929 . S
H890 C878 0.960 . S
H891 C878 0.962 . S
H892 C878 0.960 . S
H893 C879 0.961 . S
H894 C879 0.961 . S
H895 C879 0.961 . S
H896 C880 0.911 1_455 S
H897 C885 0.930 . S
H898 C886 0.956 . S
H899 C886 0.961 . S
H900 C886 0.961 1_455 S
H901 C887 0.958 . S
H902 C887 0.961 . S
H903 C887 0.960 . S
C904 C905 1.391 . S
C904 C906 1.394 . S
C904 H920 0.931 . S
C905 C904 1.391 . S
C905 C909 1.376 . S
C906 C904 1.394 . S
C906 C907 1.369 . S
C906 C910 1.531 . S
C907 C906 1.369 . S
C907 C908 1.410 . S
C907 C915 1.503 . S
C908 C907 1.410 . S
C908 C909 1.392 . S
C908 C911 1.511 . S
C909 C905 1.376 . S
C909 C908 1.392 . S
C909 H921 0.929 . S
C910 C906 1.531 . S
C910 H922 0.960 . S
C910 H923 0.962 . S
C910 H924 0.960 1_556 S
C911 C908 1.511 . S
C911 H925 0.961 . S
C911 H926 0.961 . S
C911 H927 0.961 . S
C912 C913 1.370 . S
C912 C914 1.363 . S
C912 H928 0.931 . S
C913 C912 1.370 . S
C913 C917 1.408 . S
C914 C912 1.363 . S
C914 C915 1.370 . S
C914 C918 1.524 . S
C915 C907 1.503 . S
C915 C914 1.370 . S
C915 C916 1.403 . S
C916 C915 1.403 . S
C916 C917 1.404 . S
C916 C919 1.539 . S
C917 C913 1.408 . S
C917 C916 1.404 . S
C917 H929 0.930 . S
C918 C914 1.524 . S
C918 H930 0.956 . S
C918 H931 0.961 . S
C918 H932 0.961 . S
C919 C916 1.539 . S
C919 H933 0.958 . S
C919 H934 0.961 . S
C919 H935 0.960 . S
H920 C904 0.931 . S
H921 C909 0.929 . S
H922 C910 0.960 . S
H923 C910 0.962 . S
H924 C910 0.960 1_554 S
H925 C911 0.961 . S
H926 C911 0.961 . S
H927 C911 0.961 . S
H928 C912 0.931 . S
H929 C917 0.930 . S
H930 C918 0.956 . S
H931 C918 0.961 . S
H932 C918 0.961 . S
H933 C919 0.958 . S
H934 C919 0.961 . S
H935 C919 0.960 . S
C936 C937 1.391 . S
C936 C938 1.394 1_556 S
C936 H952 0.931 . S
C937 C936 1.391 . S
C937 C941 1.376 . S
C938 C936 1.394 1_554 S
C938 C939 1.369 . S
C938 C942 1.531 . S
C939 C938 1.369 . S
C939 C940 1.410 1_554 S
C939 C947 1.503 . S
C940 C939 1.410 1_556 S
C940 C941 1.392 . S
C940 C943 1.511 . S
C941 C937 1.376 . S
C941 C940 1.392 . S
C941 H953 0.929 . S
C942 C938 1.531 . S
C942 H954 0.960 . S
C942 H955 0.962 . S
C942 H956 0.960 . S
C943 C940 1.511 . S
C943 H957 0.961 . S
C943 H958 0.961 . S
C943 H959 0.961 . S
C944 C945 1.370 . S
C944 C946 1.363 . S
C944 H960 0.931 . S
C945 C944 1.370 . S
C945 C949 1.408 . S
C946 C944 1.363 . S
C946 C947 1.370 . S
C946 C950 1.524 1_554 S
C947 C939 1.503 . S
C947 C946 1.370 . S
C947 C948 1.403 . S
C948 C947 1.403 . S
C948 C949 1.404 . S
C948 C951 1.539 . S
C949 C945 1.408 . S
C949 C948 1.404 . S
C949 H961 0.930 . S
C950 C946 1.524 1_556 S
C950 H962 0.956 . S
C950 H963 0.961 . S
C950 H964 0.961 . S
C951 C948 1.539 . S
C951 H965 0.958 . S
C951 H966 0.961 . S
C951 H967 0.960 . S
H952 C936 0.931 . S
H953 C941 0.929 . S
H954 C942 0.960 . S
H955 C942 0.962 . S
H956 C942 0.960 . S
H957 C943 0.961 . S
H958 C943 0.961 . S
H959 C943 0.961 . S
H960 C944 0.931 . S
H961 C949 0.930 . S
H962 C950 0.956 . S
H963 C950 0.961 . S
H964 C950 0.961 . S
H965 C951 0.958 . S
H966 C951 0.961 . S
H967 C951 0.960 . S
C968 C969 1.391 . S
C968 C970 1.394 . S
C968 H984 0.931 . S
C969 C968 1.391 . S
C969 C973 1.376 . S
C970 C968 1.394 . S
C970 C971 1.369 . S
C970 C974 1.531 1_556 S
C971 C970 1.369 . S
C971 C972 1.410 . S
C971 C979 1.503 . S
C972 C971 1.410 . S
C972 C973 1.392 . S
C972 C975 1.511 . S
C973 C969 1.376 . S
C973 C972 1.392 . S
C973 H985 0.929 . S
C974 C970 1.531 1_554 S
C974 H986 0.954 1_554 S
C974 H987 0.962 . S
C974 H988 0.960 . S
C975 C972 1.511 . S
C975 H989 0.961 . S
C975 H990 0.961 . S
C975 H991 0.961 . S
C976 C977 1.370 . S
C976 C978 1.363 . S
C976 H992 0.931 . S
C977 C976 1.370 . S
C977 C981 1.408 1_554 S
C978 C976 1.363 . S
C978 C979 1.370 1_554 S
C978 C982 1.524 . S
C979 C971 1.503 . S
C979 C978 1.370 1_556 S
C979 C980 1.403 . S
C980 C979 1.403 . S
C980 C981 1.404 . S
C980 C983 1.539 . S
C981 C977 1.408 1_556 S
C981 C980 1.404 . S
C981 H993 0.930 . S
C982 C978 1.524 . S
C982 H994 0.956 . S
C982 H995 0.961 . S
C982 H996 0.961 . S
C983 C980 1.539 . S
C983 H997 0.958 . S
C983 H998 0.961 . S
C983 H999 0.960 . S
H984 C968 0.931 . S
H985 C973 0.929 . S
H986 C974 0.954 1_556 S
H987 C974 0.962 . S
H988 C974 0.960 . S
H989 C975 0.961 . S
H990 C975 0.961 . S
H991 C975 0.961 . S
H992 C976 0.931 . S
H993 C981 0.930 . S
H994 C982 0.956 . S
H995 C982 0.961 . S
H996 C982 0.961 . S
H997 C983 0.958 . S
H998 C983 0.961 . S
H999 C983 0.960 . S
C1000 C1001 1.391 . S
C1000 C1002 1.394 . S
C1000 H1016 0.931 . S
C1001 C1000 1.391 . S
C1001 C1005 1.376 . S
C1002 C1000 1.394 . S
C1002 C1003 1.369 . S
C1002 C1006 1.531 1_554 S
C1003 C1002 1.369 . S
C1003 C1004 1.410 . S
C1003 C1011 1.503 . S
C1004 C1003 1.410 . S
C1004 C1005 1.392 . S
C1004 C1007 1.511 . S
C1005 C1001 1.376 . S
C1005 C1004 1.392 . S
C1005 H1017 0.929 . S
C1006 C1002 1.531 1_556 S
C1006 H1018 0.960 . S
C1006 H1019 0.967 . S
C1006 H1020 0.960 . S
C1007 C1004 1.511 . S
C1007 H1021 0.961 . S
C1007 H1022 0.961 . S
C1007 H1023 0.961 . S
C1008 C1009 1.370 . S
C1008 C1010 1.363 . S
C1008 H1024 0.931 . S
C1009 C1008 1.370 . S
C1009 C1013 1.408 . S
C1010 C1008 1.363 . S
C1010 C1011 1.370 . S
C1010 C1014 1.524 . S
C1011 C1003 1.503 . S
C1011 C1010 1.370 . S
C1011 C1012 1.403 . S
C1012 C1011 1.403 . S
C1012 C1013 1.404 . S
C1012 C1015 1.539 . S
C1013 C1009 1.408 . S
C1013 C1012 1.404 . S
C1013 H1025 0.930 . S
C1014 C1010 1.524 . S
C1014 H1026 0.956 . S
C1014 H1027 0.961 . S
C1014 H1028 0.961 . S
C1015 C1012 1.539 . S
C1015 H1029 0.960 . S
C1015 H1030 0.961 . S
C1015 H1031 0.960 . S
H1016 C1000 0.931 . S
H1017 C1005 0.929 . S
H1018 C1006 0.960 . S
H1019 C1006 0.967 . S
H1020 C1006 0.960 . S
H1021 C1007 0.961 . S
H1022 C1007 0.961 . S
H1023 C1007 0.961 . S
H1024 C1008 0.931 . S
H1025 C1013 0.930 . S
H1026 C1014 0.956 . S
H1027 C1014 0.961 . S
H1028 C1014 0.961 . S
H1029 C1015 0.960 . S
H1030 C1015 0.961 . S
H1031 C1015 0.960 . S
C1032 C1033 1.391 . S
C1032 C1034 1.394 . S
C1032 H1048 0.931 . S
C1033 C1032 1.391 . S
C1033 C1037 1.376 . S
C1034 C1032 1.394 . S
C1034 C1035 1.369 . S
C1034 C1038 1.531 . S
C1035 C1034 1.369 . S
C1035 C1036 1.410 . S
C1035 C1043 1.503 . S
C1036 C1035 1.410 . S
C1036 C1037 1.392 . S
C1036 C1039 1.511 . S
C1037 C1033 1.376 . S
C1037 C1036 1.392 . S
C1037 H1049 0.929 . S
C1038 C1034 1.531 . S
C1038 H1050 0.960 . S
C1038 H1051 0.962 . S
C1038 H1052 0.960 . S
C1039 C1036 1.511 . S
C1039 H1053 0.961 . S
C1039 H1054 0.961 . S
C1039 H1055 0.961 . S
C1040 C1041 1.370 . S
C1040 C1042 1.363 . S
C1040 H1056 0.931 . S
C1041 C1040 1.370 . S
C1041 C1045 1.408 . S
C1042 C1040 1.363 . S
C1042 C1043 1.370 . S
C1042 C1046 1.524 . S
C1043 C1035 1.503 . S
C1043 C1042 1.370 . S
C1043 C1044 1.403 . S
C1044 C1043 1.403 . S
C1044 C1045 1.404 . S
C1044 C1047 1.539 . S
C1045 C1041 1.408 . S
C1045 C1044 1.404 . S
C1045 H1057 0.930 . S
C1046 C1042 1.524 . S
C1046 H1058 0.956 . S
C1046 H1059 0.961 . S
C1046 H1060 0.961 . S
C1047 C1044 1.539 . S
C1047 H1061 0.958 . S
C1047 H1062 0.961 . S
C1047 H1063 0.960 . S
H1048 C1032 0.931 . S
H1049 C1037 0.929 . S
H1050 C1038 0.960 . S
H1051 C1038 0.962 . S
H1052 C1038 0.960 . S
H1053 C1039 0.961 . S
H1054 C1039 0.961 . S
H1055 C1039 0.961 . S
H1056 C1040 0.931 . S
H1057 C1045 0.930 . S
H1058 C1046 0.956 . S
H1059 C1046 0.961 . S
H1060 C1046 0.961 . S
H1061 C1047 0.958 . S
H1062 C1047 0.961 . S
H1063 C1047 0.960 . S
C1064 C1065 1.391 . S
C1064 C1066 1.394 . S
C1064 H1080 0.931 . S
C1065 C1064 1.391 . S
C1065 C1069 1.376 . S
C1066 C1064 1.394 . S
C1066 C1067 1.369 . S
C1066 C1070 1.531 . S
C1067 C1066 1.369 . S
C1067 C1068 1.410 . S
C1067 C1075 1.503 . S
C1068 C1067 1.410 . S
C1068 C1069 1.392 . S
C1068 C1071 1.511 . S
C1069 C1065 1.376 . S
C1069 C1068 1.392 . S
C1069 H1081 0.929 . S
C1070 C1066 1.531 . S
C1070 H1082 0.960 . S
C1070 H1083 0.962 . S
C1070 H1084 0.960 . S
C1071 C1068 1.511 . S
C1071 H1085 0.961 . S
C1071 H1086 0.961 . S
C1071 H1087 0.961 . S
C1072 C1073 1.370 . S
C1072 C1074 1.363 . S
C1072 H1088 0.931 . S
C1073 C1072 1.370 . S
C1073 C1077 1.408 . S
C1074 C1072 1.363 . S
C1074 C1075 1.370 . S
C1074 C1078 1.524 . S
C1075 C1067 1.503 . S
C1075 C1074 1.370 . S
C1075 C1076 1.403 . S
C1076 C1075 1.403 . S
C1076 C1077 1.404 . S
C1076 C1079 1.539 . S
C1077 C1073 1.408 . S
C1077 C1076 1.404 . S
C1077 H1089 0.930 . S
C1078 C1074 1.524 . S
C1078 H1090 0.956 . S
C1078 H1091 0.961 . S
C1078 H1092 0.961 . S
C1079 C1076 1.539 . S
C1079 H1093 0.958 . S
C1079 H1094 0.961 . S
C1079 H1095 0.960 . S
H1080 C1064 0.931 . S
H1081 C1069 0.929 . S
H1082 C1070 0.960 . S
H1083 C1070 0.962 . S
H1084 C1070 0.960 . S
H1085 C1071 0.961 . S
H1086 C1071 0.961 . S
H1087 C1071 0.961 . S
H1088 C1072 0.931 . S
H1089 C1077 0.930 . S
H1090 C1078 0.956 . S
H1091 C1078 0.961 . S
H1092 C1078 0.961 . S
H1093 C1079 0.958 . S
H1094 C1079 0.961 . S
H1095 C1079 0.960 . S
C1096 C1097 1.391 . S
C1096 C1098 1.394 . S
C1096 H1112 0.931 . S
C1097 C1096 1.391 . S
C1097 C1101 1.376 . S
C1098 C1096 1.394 . S
C1098 C1099 1.369 . S
C1098 C1102 1.531 . S
C1099 C1098 1.369 . S
C1099 C1100 1.410 . S
C1099 C1107 1.503 . S
C1100 C1099 1.410 . S
C1100 C1101 1.392 . S
C1100 C1103 1.511 . S
C1101 C1097 1.376 . S
C1101 C1100 1.392 . S
C1101 H1113 0.929 . S
C1102 C1098 1.531 . S
C1102 H1114 0.960 . S
C1102 H1115 0.962 . S
C1102 H1116 0.960 . S
C1103 C1100 1.511 . S
C1103 H1117 0.961 . S
C1103 H1118 0.961 . S
C1103 H1119 0.961 . S
C1104 C1105 1.370 . S
C1104 C1106 1.363 . S
C1104 H1120 0.931 . S
C1105 C1104 1.370 . S
C1105 C1109 1.408 . S
C1106 C1104 1.363 . S
C1106 C1107 1.370 . S
C1106 C1110 1.524 . S
C1107 C1099 1.503 . S
C1107 C1106 1.370 . S
C1107 C1108 1.403 . S
C1108 C1107 1.403 . S
C1108 C1109 1.404 . S
C1108 C1111 1.539 . S
C1109 C1105 1.408 . S
C1109 C1108 1.404 . S
C1109 H1121 0.930 . S
C1110 C1106 1.524 . S
C1110 H1122 0.956 . S
C1110 H1123 0.961 . S
C1110 H1124 0.961 . S
C1111 C1108 1.539 . S
C1111 H1125 0.958 . S
C1111 H1126 0.961 . S
C1111 H1127 0.960 . S
H1112 C1096 0.931 . S
H1113 C1101 0.929 . S
H1114 C1102 0.960 . S
H1115 C1102 0.962 . S
H1116 C1102 0.960 . S
H1117 C1103 0.961 . S
H1118 C1103 0.961 . S
H1119 C1103 0.961 . S
H1120 C1104 0.931 . S
H1121 C1109 0.930 . S
H1122 C1110 0.956 . S
H1123 C1110 0.961 . S
H1124 C1110 0.961 . S
H1125 C1111 0.958 . S
H1126 C1111 0.961 . S
H1127 C1111 0.960 . S
C1128 C1129 1.391 . S
C1128 C1130 1.394 . S
C1128 H1144 0.931 . S
C1129 C1128 1.391 . S
C1129 C1133 1.376 . S
C1130 C1128 1.394 . S
C1130 C1131 1.369 . S
C1130 C1134 1.531 . S
C1131 C1130 1.369 . S
C1131 C1132 1.410 . S
C1131 C1139 1.503 . S
C1132 C1131 1.410 . S
C1132 C1133 1.392 . S
C1132 C1135 1.511 . S
C1133 C1129 1.376 . S
C1133 C1132 1.392 . S
C1133 H1145 0.929 . S
C1134 C1130 1.531 . S
C1134 H1146 0.960 . S
C1134 H1147 0.962 . S
C1134 H1148 0.960 . S
C1135 C1132 1.511 . S
C1135 H1149 0.961 . S
C1135 H1150 0.961 . S
C1135 H1151 0.961 . S
C1136 C1137 1.370 . S
C1136 C1138 1.363 . S
C1136 H1152 0.931 . S
C1137 C1136 1.370 . S
C1137 C1141 1.408 . S
C1138 C1136 1.363 . S
C1138 C1139 1.370 . S
C1138 C1142 1.524 . S
C1139 C1131 1.503 . S
C1139 C1138 1.370 . S
C1139 C1140 1.403 . S
C1140 C1139 1.403 . S
C1140 C1141 1.404 . S
C1140 C1143 1.539 . S
C1141 C1137 1.408 . S
C1141 C1140 1.404 . S
C1141 H1153 0.930 . S
C1142 C1138 1.524 . S
C1142 H1154 0.956 . S
C1142 H1155 0.961 . S
C1142 H1156 0.961 . S
C1143 C1140 1.539 . S
C1143 H1157 0.958 . S
C1143 H1158 0.961 . S
C1143 H1159 0.960 . S
H1144 C1128 0.931 . S
H1145 C1133 0.929 . S
H1146 C1134 0.960 . S
H1147 C1134 0.962 . S
H1148 C1134 0.960 . S
H1149 C1135 0.961 . S
H1150 C1135 0.961 . S
H1151 C1135 0.961 . S
H1152 C1136 0.931 . S
H1153 C1141 0.930 . S
H1154 C1142 0.956 . S
H1155 C1142 0.961 . S
H1156 C1142 0.961 . S
H1157 C1143 0.958 . S
H1158 C1143 0.961 . S
H1159 C1143 0.960 . S
C1160 C1161 1.391 . S
C1160 C1162 1.394 . S
C1160 H1176 0.931 . S
C1161 C1160 1.391 . S
C1161 C1165 1.376 . S
C1162 C1160 1.394 . S
C1162 C1163 1.369 . S
C1162 C1166 1.531 . S
C1163 C1162 1.369 . S
C1163 C1164 1.410 . S
C1163 C1171 1.503 . S
C1164 C1163 1.410 . S
C1164 C1165 1.392 . S
C1164 C1167 1.511 . S
C1165 C1161 1.376 . S
C1165 C1164 1.392 . S
C1165 H1177 0.929 . S
C1166 C1162 1.531 . S
C1166 H1178 0.960 . S
C1166 H1179 0.962 . S
C1166 H1180 0.960 . S
C1167 C1164 1.511 . S
C1167 H1181 0.961 . S
C1167 H1182 0.961 . S
C1167 H1183 0.961 . S
C1168 C1169 1.370 . S
C1168 C1170 1.363 . S
C1168 H1184 0.931 . S
C1169 C1168 1.370 . S
C1169 C1173 1.408 . S
C1170 C1168 1.363 . S
C1170 C1171 1.370 . S
C1170 C1174 1.524 . S
C1171 C1163 1.503 . S
C1171 C1170 1.370 . S
C1171 C1172 1.403 . S
C1172 C1171 1.403 . S
C1172 C1173 1.404 . S
C1172 C1175 1.539 . S
C1173 C1169 1.408 . S
C1173 C1172 1.404 . S
C1173 H1185 0.930 . S
C1174 C1170 1.524 . S
C1174 H1186 0.956 . S
C1174 H1187 0.961 . S
C1174 H1188 0.961 . S
C1175 C1172 1.539 . S
C1175 H1189 0.958 . S
C1175 H1190 0.961 . S
C1175 H1191 0.960 . S
H1176 C1160 0.931 . S
H1177 C1165 0.929 . S
H1178 C1166 0.960 . S
H1179 C1166 0.962 . S
H1180 C1166 0.960 . S
H1181 C1167 0.961 . S
H1182 C1167 0.961 . S
H1183 C1167 0.961 . S
H1184 C1168 0.931 . S
H1185 C1173 0.930 . S
H1186 C1174 0.956 . S
H1187 C1174 0.961 . S
H1188 C1174 0.961 . S
H1189 C1175 0.958 . S
H1190 C1175 0.961 . S
H1191 C1175 0.960 . S
C1192 C1193 1.391 . S
C1192 C1194 1.394 . S
C1192 H1208 0.931 . S
C1193 C1192 1.391 . S
C1193 C1197 1.376 . S
C1194 C1192 1.394 . S
C1194 C1195 1.369 . S
C1194 C1198 1.531 . S
C1195 C1194 1.369 . S
C1195 C1196 1.410 . S
C1195 C1203 1.503 . S
C1196 C1195 1.410 . S
C1196 C1197 1.392 . S
C1196 C1199 1.511 . S
C1197 C1193 1.376 . S
C1197 C1196 1.392 . S
C1197 H1209 0.929 . S
C1198 C1194 1.531 . S
C1198 H1210 0.960 . S
C1198 H1211 0.962 . S
C1198 H1212 0.960 . S
C1199 C1196 1.511 . S
C1199 H1213 0.961 . S
C1199 H1214 0.961 . S
C1199 H1215 0.961 . S
C1200 C1201 1.370 . S
C1200 C1202 1.363 . S
C1200 H1216 0.931 . S
C1201 C1200 1.370 . S
C1201 C1205 1.408 . S
C1202 C1200 1.363 . S
C1202 C1203 1.370 . S
C1202 C1206 1.524 . S
C1203 C1195 1.503 . S
C1203 C1202 1.370 . S
C1203 C1204 1.403 . S
C1204 C1203 1.403 . S
C1204 C1205 1.404 . S
C1204 C1207 1.539 . S
C1205 C1201 1.408 . S
C1205 C1204 1.404 . S
C1205 H1217 0.930 . S
C1206 C1202 1.524 . S
C1206 H1218 0.956 . S
C1206 H1219 0.961 . S
C1206 H1220 0.961 . S
C1207 C1204 1.539 . S
C1207 H1221 0.958 . S
C1207 H1222 0.961 . S
C1207 H1223 0.960 . S
H1208 C1192 0.931 . S
H1209 C1197 0.929 . S
H1210 C1198 0.960 . S
H1211 C1198 0.962 . S
H1212 C1198 0.960 . S
H1213 C1199 0.961 . S
H1214 C1199 0.961 . S
H1215 C1199 0.961 . S
H1216 C1200 0.931 . S
H1217 C1205 0.930 . S
H1218 C1206 0.956 . S
H1219 C1206 0.961 . S
H1220 C1206 0.961 . S
H1221 C1207 0.958 . S
H1222 C1207 0.961 . S
H1223 C1207 0.960 . S
C1224 C1225 1.391 . S
C1224 C1226 1.394 . S
C1224 H1240 0.931 . S
C1225 C1224 1.391 . S
C1225 C1229 1.376 . S
C1226 C1224 1.394 . S
C1226 C1227 1.369 . S
C1226 C1230 1.531 . S
C1227 C1226 1.369 . S
C1227 C1228 1.410 . S
C1227 C1235 1.503 . S
C1228 C1227 1.410 . S
C1228 C1229 1.392 . S
C1228 C1231 1.511 . S
C1229 C1225 1.376 . S
C1229 C1228 1.392 . S
C1229 H1241 0.929 . S
C1230 C1226 1.531 . S
C1230 H1242 0.960 . S
C1230 H1243 0.962 . S
C1230 H1244 0.960 . S
C1231 C1228 1.511 . S
C1231 H1245 0.961 . S
C1231 H1246 0.961 . S
C1231 H1247 0.961 . S
C1232 C1233 1.370 . S
C1232 C1234 1.363 . S
C1232 H1248 0.931 . S
C1233 C1232 1.370 . S
C1233 C1237 1.408 . S
C1234 C1232 1.363 . S
C1234 C1235 1.370 . S
C1234 C1238 1.524 . S
C1235 C1227 1.503 . S
C1235 C1234 1.370 . S
C1235 C1236 1.403 . S
C1236 C1235 1.403 . S
C1236 C1237 1.404 . S
C1236 C1239 1.539 . S
C1237 C1233 1.408 . S
C1237 C1236 1.404 . S
C1237 H1249 0.930 . S
C1238 C1234 1.524 . S
C1238 H1250 0.956 . S
C1238 H1251 0.961 . S
C1238 H1252 0.961 . S
C1239 C1236 1.539 . S
C1239 H1253 0.958 . S
C1239 H1254 0.961 . S
C1239 H1255 0.960 . S
H1240 C1224 0.931 . S
H1241 C1229 0.929 . S
H1242 C1230 0.960 . S
H1243 C1230 0.962 . S
H1244 C1230 0.960 . S
H1245 C1231 0.961 . S
H1246 C1231 0.961 . S
H1247 C1231 0.961 . S
H1248 C1232 0.931 . S
H1249 C1237 0.930 . S
H1250 C1238 0.956 . S
H1251 C1238 0.961 . S
H1252 C1238 0.961 . S
H1253 C1239 0.958 . S
H1254 C1239 0.961 . S
H1255 C1239 0.960 . S
C1256 C1257 1.391 . S
C1256 C1258 1.394 . S
C1256 H1272 0.931 . S
C1257 C1256 1.391 . S
C1257 C1261 1.376 . S
C1258 C1256 1.394 . S
C1258 C1259 1.369 . S
C1258 C1262 1.531 . S
C1259 C1258 1.369 . S
C1259 C1260 1.410 . S
C1259 C1267 1.503 . S
C1260 C1259 1.410 . S
C1260 C1261 1.392 . S
C1260 C1263 1.511 . S
C1261 C1257 1.376 . S
C1261 C1260 1.392 . S
C1261 H1273 0.929 . S
C1262 C1258 1.531 . S
C1262 H1274 0.960 . S
C1262 H1275 0.962 . S
C1262 H1276 0.960 . S
C1263 C1260 1.511 . S
C1263 H1277 0.961 . S
C1263 H1278 0.961 . S
C1263 H1279 0.961 . S
C1264 C1265 1.370 . S
C1264 C1266 1.363 . S
C1264 H1280 0.931 . S
C1265 C1264 1.370 . S
C1265 C1269 1.408 . S
C1266 C1264 1.363 . S
C1266 C1267 1.370 . S
C1266 C1270 1.524 . S
C1267 C1259 1.503 . S
C1267 C1266 1.370 . S
C1267 C1268 1.403 . S
C1268 C1267 1.403 . S
C1268 C1269 1.404 . S
C1268 C1271 1.539 . S
C1269 C1265 1.408 . S
C1269 C1268 1.404 . S
C1269 H1281 0.930 . S
C1270 C1266 1.524 . S
C1270 H1282 0.956 . S
C1270 H1283 0.961 . S
C1270 H1284 0.961 . S
C1271 C1268 1.539 . S
C1271 H1285 0.958 . S
C1271 H1286 0.961 . S
C1271 H1287 0.960 . S
H1272 C1256 0.931 . S
H1273 C1261 0.929 . S
H1274 C1262 0.960 . S
H1275 C1262 0.962 . S
H1276 C1262 0.960 . S
H1277 C1263 0.961 . S
H1278 C1263 0.961 . S
H1279 C1263 0.961 . S
H1280 C1264 0.931 . S
H1281 C1269 0.930 . S
H1282 C1270 0.956 . S
H1283 C1270 0.961 . S
H1284 C1270 0.961 . S
H1285 C1271 0.958 . S
H1286 C1271 0.961 . S
H1287 C1271 0.960 . S
C1288 C1289 1.391 . S
C1288 C1290 1.394 . S
C1288 H1304 0.931 . S
C1289 C1288 1.391 . S
C1289 C1293 1.376 . S
C1290 C1288 1.394 . S
C1290 C1291 1.369 . S
C1290 C1294 1.531 . S
C1291 C1290 1.369 . S
C1291 C1292 1.410 . S
C1291 C1299 1.503 . S
C1292 C1291 1.410 . S
C1292 C1293 1.392 . S
C1292 C1295 1.511 . S
C1293 C1289 1.376 . S
C1293 C1292 1.392 . S
C1293 H1305 0.929 . S
C1294 C1290 1.531 . S
C1294 H1306 0.960 . S
C1294 H1307 0.962 . S
C1294 H1308 0.960 . S
C1295 C1292 1.511 . S
C1295 H1309 0.961 . S
C1295 H1310 0.961 . S
C1295 H1311 0.961 . S
C1296 C1297 1.370 . S
C1296 C1298 1.363 . S
C1296 H1312 0.931 . S
C1297 C1296 1.370 . S
C1297 C1301 1.408 . S
C1298 C1296 1.363 . S
C1298 C1299 1.370 . S
C1298 C1302 1.524 . S
C1299 C1291 1.503 . S
C1299 C1298 1.370 . S
C1299 C1300 1.403 . S
C1300 C1299 1.403 . S
C1300 C1301 1.404 . S
C1300 C1303 1.539 . S
C1301 C1297 1.408 . S
C1301 C1300 1.404 . S
C1301 H1313 0.930 . S
C1302 C1298 1.524 . S
C1302 H1314 0.956 . S
C1302 H1315 0.961 . S
C1302 H1316 0.961 . S
C1303 C1300 1.539 . S
C1303 H1317 0.958 . S
C1303 H1318 0.961 . S
C1303 H1319 0.960 . S
H1304 C1288 0.931 . S
H1305 C1293 0.929 . S
H1306 C1294 0.960 . S
H1307 C1294 0.962 . S
H1308 C1294 0.960 . S
H1309 C1295 0.961 . S
H1310 C1295 0.961 . S
H1311 C1295 0.961 . S
H1312 C1296 0.931 . S
H1313 C1301 0.930 . S
H1314 C1302 0.956 . S
H1315 C1302 0.961 . S
H1316 C1302 0.961 . S
H1317 C1303 0.958 . S
H1318 C1303 0.961 . S
H1319 C1303 0.960 . S
C1320 C1321 1.391 . S
C1320 C1322 1.394 . S
C1320 H1336 0.931 . S
C1321 C1320 1.391 . S
C1321 C1325 1.376 . S
C1322 C1320 1.394 . S
C1322 C1323 1.369 . S
C1322 C1326 1.531 . S
C1323 C1322 1.369 . S
C1323 C1324 1.410 . S
C1323 C1331 1.503 . S
C1324 C1323 1.410 . S
C1324 C1325 1.392 . S
C1324 C1327 1.511 . S
C1325 C1321 1.376 . S
C1325 C1324 1.392 . S
C1325 H1337 0.929 . S
C1326 C1322 1.531 . S
C1326 H1338 0.960 . S
C1326 H1339 0.962 . S
C1326 H1340 0.960 . S
C1327 C1324 1.511 . S
C1327 H1341 0.961 . S
C1327 H1342 0.961 . S
C1327 H1343 0.961 . S
C1328 C1329 1.370 . S
C1328 C1330 1.363 . S
C1328 H1344 0.931 . S
C1329 C1328 1.370 . S
C1329 C1333 1.408 . S
C1330 C1328 1.363 . S
C1330 C1331 1.370 . S
C1330 C1334 1.524 . S
C1331 C1323 1.503 . S
C1331 C1330 1.370 . S
C1331 C1332 1.403 . S
C1332 C1331 1.403 . S
C1332 C1333 1.404 . S
C1332 C1335 1.539 . S
C1333 C1329 1.408 . S
C1333 C1332 1.404 . S
C1333 H1345 0.930 . S
C1334 C1330 1.524 . S
C1334 H1346 0.956 . S
C1334 H1347 0.961 . S
C1334 H1348 0.961 . S
C1335 C1332 1.539 . S
C1335 H1349 0.958 . S
C1335 H1350 0.961 . S
C1335 H1351 0.960 . S
H1336 C1320 0.931 . S
H1337 C1325 0.929 . S
H1338 C1326 0.960 . S
H1339 C1326 0.962 . S
H1340 C1326 0.960 . S
H1341 C1327 0.961 . S
H1342 C1327 0.961 . S
H1343 C1327 0.961 . S
H1344 C1328 0.931 . S
H1345 C1333 0.930 . S
H1346 C1334 0.956 . S
H1347 C1334 0.961 . S
H1348 C1334 0.961 . S
H1349 C1335 0.958 . S
H1350 C1335 0.961 . S
H1351 C1335 0.960 . S
C1352 C1353 1.391 . S
C1352 C1354 1.394 . S
C1352 H1368 0.931 . S
C1353 C1352 1.391 . S
C1353 C1357 1.376 1_455 S
C1354 C1352 1.394 . S
C1354 C1355 1.369 . S
C1354 C1358 1.531 . S
C1355 C1354 1.369 . S
C1355 C1356 1.410 1_455 S
C1355 C1363 1.503 . S
C1356 C1355 1.410 1_655 S
C1356 C1357 1.392 . S
C1356 C1359 1.511 . S
C1357 C1353 1.376 1_655 S
C1357 C1356 1.392 . S
C1357 H1369 0.929 . S
C1358 C1354 1.531 . S
C1358 H1370 0.960 . S
C1358 H1371 0.962 . S
C1358 H1372 0.960 . S
C1359 C1356 1.511 . S
C1359 H1373 0.961 . S
C1359 H1374 0.961 . S
C1359 H1375 0.961 . S
C1360 C1361 1.370 . S
C1360 C1362 1.363 . S
C1360 H1376 0.931 . S
C1361 C1360 1.370 . S
C1361 C1365 1.408 . S
C1362 C1360 1.363 . S
C1362 C1363 1.370 . S
C1362 C1366 1.524 . S
C1363 C1355 1.503 . S
C1363 C1362 1.370 . S
C1363 C1364 1.403 . S
C1364 C1363 1.403 . S
C1364 C1365 1.404 . S
C1364 C1367 1.539 1_455 S
C1365 C1361 1.408 . S
C1365 C1364 1.404 . S
C1365 H1377 0.930 . S
C1366 C1362 1.524 . S
C1366 H1378 0.956 . S
C1366 H1379 0.961 . S
C1366 H1380 0.961 . S
C1367 C1364 1.539 1_655 S
C1367 H1381 0.958 1_655 S
C1367 H1382 0.961 . S
C1367 H1383 0.960 . S
H1368 C1352 0.931 . S
H1369 C1357 0.929 . S
H1370 C1358 0.960 . S
H1371 C1358 0.962 . S
H1372 C1358 0.960 . S
H1373 C1359 0.961 . S
H1374 C1359 0.961 . S
H1375 C1359 0.961 . S
H1376 C1360 0.931 . S
H1377 C1365 0.930 . S
H1378 C1366 0.956 . S
H1379 C1366 0.961 . S
H1380 C1366 0.961 . S
H1381 C1367 0.958 1_455 S
H1382 C1367 0.961 . S
H1383 C1367 0.960 . S
C1384 C1385 1.391 1_455 S
C1384 C1386 1.394 . S
C1384 H1400 0.931 . S
C1385 C1384 1.391 1_655 S
C1385 C1389 1.376 . S
C1386 C1384 1.394 . S
C1386 C1387 1.369 . S
C1386 C1390 1.531 . S
C1387 C1386 1.369 . S
C1387 C1388 1.410 1_455 S
C1387 C1395 1.503 . S
C1388 C1387 1.410 1_655 S
C1388 C1389 1.392 . S
C1388 C1391 1.511 . S
C1389 C1385 1.376 . S
C1389 C1388 1.392 . S
C1389 H1401 0.929 . S
C1390 C1386 1.531 . S
C1390 H1402 0.960 . S
C1390 H1403 0.962 . S
C1390 H1404 0.960 . S
C1391 C1388 1.511 . S
C1391 H1405 0.961 . S
C1391 H1406 0.961 . S
C1391 H1407 0.961 . S
C1392 C1393 1.370 . S
C1392 C1394 1.363 . S
C1392 H1408 0.931 . S
C1393 C1392 1.370 . S
C1393 C1397 1.408 . S
C1394 C1392 1.363 . S
C1394 C1395 1.370 . S
C1394 C1398 1.524 . S
C1395 C1387 1.503 . S
C1395 C1394 1.370 . S
C1395 C1396 1.403 . S
C1396 C1395 1.403 . S
C1396 C1397 1.404 . S
C1396 C1399 1.539 1_455 S
C1397 C1393 1.408 . S
C1397 C1396 1.404 . S
C1397 H1409 0.930 . S
C1398 C1394 1.524 . S
C1398 H1410 0.956 . S
C1398 H1411 0.961 . S
C1398 H1412 0.961 . S
C1399 C1396 1.539 1_655 S
C1399 H1413 0.958 . S
C1399 H1414 0.961 . S
C1399 H1415 0.960 . S
H1400 C1384 0.931 . S
H1401 C1389 0.929 . S
H1402 C1390 0.960 . S
H1403 C1390 0.962 . S
H1404 C1390 0.960 . S
H1405 C1391 0.961 . S
H1406 C1391 0.961 . S
H1407 C1391 0.961 . S
H1408 C1392 0.931 . S
H1409 C1397 0.930 . S
H1410 C1398 0.956 . S
H1411 C1398 0.961 . S
H1412 C1398 0.961 . S
H1413 C1399 0.958 . S
H1414 C1399 0.961 . S
H1415 C1399 0.960 . S
C265 C7 1.473 . S
C273 C29 1.509 . S
C297 C18 1.135 . S
C305 C40 1.113 . S
C329 C73 1.307 . S
C337 C51 1.358 . S
C361 C62 1.212 . S
C369 C84 1.184 . S
C393 C95 1.176 . S
C401 C139 1.320 1_545 S
C425 C106 0.856 . S
C433 C150 0.850 . S
C457 C117 1.221 . S
C465 C161 1.166 . S
C489 C128 1.171 . S
C497 C172 1.103 . S
C521 C183 0.904 . S
C529 C216 0.867 . S
C553 C238 1.373 . S
C561 C194 1.370 . S
C585 C249 1.382 . S
C593 C205 1.508 . S
C617 C260 1.287 . S
C625 C227 1.349 . S
C649 C93 1.528 . S
C657 C38 1.418 . S
C681 C8 1.550 . S
C689 C107 1.519 . S
C713 C118 1.600 . S
C721 C19 1.547 . S
C745 C30 1.543 . S
C753 C126 1.452 . S
C777 C60 1.437 . S
C785 C137 1.474 . S
C809 C151 1.867 . S
C817 C74 1.829 . S
C841 C82 1.303 . S
C849 C159 1.317 . S
C873 C173 1.593 . S
C881 C49 1.229 . S
C905 C181 1.401 . S
C913 C203 1.897 . S
C937 C217 1.559 . S
C945 C261 1.591 . S
C969 C228 1.415 . S
C977 C236 1.232 1_554 S
C1001 C250 1.938 . S
C1009 C192 1.893 . S
C1033 C225 1.294 . S
C1041 C71 1.325 . S
C1065 C85 1.737 . S
C1073 C195 1.784 . S
C1097 C206 1.730 . S
C1105 C52 1.621 . S
C1129 C63 1.488 . S
C1137 C214 1.385 . S
C1161 C27 1.349 . S
C1169 C258 1.228 . S
C1193 C239 1.828 . S
C1201 C41 1.718 . S
C1225 C5 1.498 . S
C1233 C247 1.202 . S
C1257 C184 1.626 . S
C1265 C16 1.367 . S
C1289 C170 1.081 . S
C1297 C115 1.322 . S
C1321 C129 1.499 . S
C1329 C140 1.489 . S
C1353 C96 1.635 . S
C1361 C148 1.133 . S
C1385 C104 1.446 . S
C1393 C162 1.826 . S
