# Generated by pormake.
# Topology sow, (4)-cn, num edge types: 1
# Building blocks:
#     Node 0, Type 0, BuildingBlock: ESEHIV_clean_sbu_0, # of connection points: 4
#     Node 1, Type 0, BuildingBlock: ESEHIV_clean_sbu_0, # of connection points: 4
#     Node 2, Type 0, BuildingBlock: ESEHIV_clean_sbu_0, # of connection points: 4
#     Node 3, Type 0, BuildingBlock: ESEHIV_clean_sbu_0, # of connection points: 4
#     Node 4, Type 0, BuildingBlock: ESEHIV_clean_sbu_0, # of connection points: 4
#     Node 5, Type 0, BuildingBlock: ESEHIV_clean_sbu_0, # of connection points: 4
#     Node 6, Type 0, BuildingBlock: ESEHIV_clean_sbu_0, # of connection points: 4
#     Node 7, Type 0, BuildingBlock: ESEHIV_clean_sbu_0, # of connection points: 4
#     Edge 8, Type (0, 0), BuildingBlock: XIVTED_clean_linker_0, # of connection points: 2
#     Edge 9, Type (0, 0), BuildingBlock: XIVTED_clean_linker_0, # of connection points: 2
#     Edge 10, Type (0, 0), BuildingBlock: XIVTED_clean_linker_0, # of connection points: 2
#     Edge 11, Type (0, 0), BuildingBlock: XIVTED_clean_linker_0, # of connection points: 2
#     Edge 12, Type (0, 0), BuildingBlock: XIVTED_clean_linker_0, # of connection points: 2
#     Edge 13, Type (0, 0), BuildingBlock: XIVTED_clean_linker_0, # of connection points: 2
#     Edge 14, Type (0, 0), BuildingBlock: XIVTED_clean_linker_0, # of connection points: 2
#     Edge 15, Type (0, 0), BuildingBlock: XIVTED_clean_linker_0, # of connection points: 2
#     Edge 16, Type (0, 0), BuildingBlock: XIVTED_clean_linker_0, # of connection points: 2
#     Edge 17, Type (0, 0), BuildingBlock: XIVTED_clean_linker_0, # of connection points: 2
#     Edge 18, Type (0, 0), BuildingBlock: XIVTED_clean_linker_0, # of connection points: 2
#     Edge 19, Type (0, 0), BuildingBlock: XIVTED_clean_linker_0, # of connection points: 2
#     Edge 20, Type (0, 0), BuildingBlock: XIVTED_clean_linker_0, # of connection points: 2
#     Edge 21, Type (0, 0), BuildingBlock: XIVTED_clean_linker_0, # of connection points: 2
#     Edge 22, Type (0, 0), BuildingBlock: XIVTED_clean_linker_0, # of connection points: 2
#     Edge 23, Type (0, 0), BuildingBlock: XIVTED_clean_linker_0, # of connection points: 2
# Relax obj value: 0.066
# Max RMSD: 0.215
# Mean RMSD: 0.187
data_MOF--net-sow--node1-ESEHIV_clean_sbu_0--edge1-XIVTED_clean_linker_0
_symmetry_space_group_name_H-M    P1
_symmetry_Int_Tables_number       1
_symmetry_cell_setting            triclinic
loop_
_symmetry_equiv_pos_as_xyz
'x, y, z'
_cell_length_a     49.312044
_cell_length_b     18.468989
_cell_length_c     22.823164
_cell_angle_alpha  90.677544
_cell_angle_beta   90.251302
_cell_angle_gamma 89.405817
loop_
_atom_site_label
_atom_site_type_symbol
_atom_site_fract_x
_atom_site_fract_y
_atom_site_fract_z
_atom_type_partial_charge
Cu0 Cu 0.14374 0.34051 0.14268 0.0
N1 N 0.16548 0.303 0.20217 0.0
N2 N 0.19603 0.29609 0.27439 0.0
C3 C 0.1829 0.34 0.23664 0.0
C4 C 0.18645 0.22913 0.26333 0.0
C5 C 0.1676 0.23356 0.21872 0.0
O6 O 0.16741 0.40109 0.09626 0.0
C7 C 0.09195 0.40818 0.15104 0.0
O8 O 0.0937 0.4131 0.09378 0.0
H9 H 0.18603 0.39769 0.23344 0.0
H10 H 0.15628 0.18932 0.19952 0.0
N11 N 0.12993 0.26421 0.09705 0.0
N12 N 0.09939 0.19185 0.0541 0.0
C13 C 0.10397 0.24219 0.09622 0.0
C14 C 0.14248 0.22501 0.05497 0.0
C15 C 0.12367 0.18058 0.02815 0.0
C16 C 0.16637 0.4073 0.04077 0.0
O17 O 0.14551 0.38109 0.01184 0.0
H18 H 0.08844 0.26486 0.12438 0.0
H19 H 0.16359 0.23037 0.04319 0.0
O20 O 0.11284 0.38825 0.17982 0.0
H21 H 0.1924 0.18033 0.28594 0.0
H22 H 0.12751 0.14394 0.99171 0.0
Cu23 Cu 0.39196 0.43286 0.689 0.0
N24 N 0.37308 0.45753 0.75733 0.0
N25 N 0.34058 0.46771 0.82528 0.0
C26 C 0.34661 0.44783 0.76952 0.0
C27 C 0.36421 0.49094 0.84863 0.0
C28 C 0.38411 0.48473 0.8067 0.0
O29 O 0.36595 0.41549 0.626 0.0
C30 C 0.43374 0.32451 0.67222 0.0
O31 O 0.43349 0.34446 0.61714 0.0
H32 H 0.33232 0.42465 0.73868 0.0
H33 H 0.40531 0.49786 0.81207 0.0
N34 N 0.41239 0.51201 0.66566 0.0
N35 N 0.44578 0.57748 0.62795 0.0
C36 C 0.43921 0.51508 0.65442 0.0
C37 C 0.40185 0.57492 0.6465 0.0
C38 C 0.42236 0.61531 0.62304 0.0
C39 C 0.35095 0.36038 0.61962 0.0
O40 O 0.35354 0.30619 0.65608 0.0
H41 H 0.45333 0.47093 0.66202 0.0
H42 H 0.38047 0.58865 0.64679 0.0
O43 O 0.41654 0.35256 0.7075 0.0
H44 H 0.36706 0.51079 0.89296 0.0
H45 H 0.42011 0.66737 0.60216 0.0
Cu46 Cu 0.65859 0.20349 0.84699 0.0
N47 N 0.67863 0.2363 0.7835 0.0
N48 N 0.70919 0.23811 0.7113 0.0
C49 C 0.70203 0.20792 0.76258 0.0
C50 C 0.6896 0.28767 0.69993 0.0
C51 C 0.6708 0.28637 0.74446 0.0
O52 O 0.68338 0.14534 0.89502 0.0
C53 C 0.60636 0.13768 0.84304 0.0
O54 O 0.60813 0.13781 0.90051 0.0
H55 H 0.71291 0.16391 0.78329 0.0
H56 H 0.65224 0.31794 0.74727 0.0
N57 N 0.64499 0.28229 0.89103 0.0
N58 N 0.61419 0.35152 0.9379 0.0
C59 C 0.61878 0.30351 0.89387 0.0
C60 C 0.65769 0.32009 0.93356 0.0
C61 C 0.63876 0.36261 0.96267 0.0
C62 C 0.68134 0.13802 0.95029 0.0
O63 O 0.65946 0.16243 0.97691 0.0
H64 H 0.60302 0.2807 0.86659 0.0
H65 H 0.6789 0.31376 0.94495 0.0
O66 O 0.62722 0.15403 0.81346 0.0
H67 H 0.6887 0.32188 0.66178 0.0
H68 H 0.64267 0.39675 1.00056 0.0
Cu69 Cu 0.89303 0.08282 0.34136 0.0
N70 N 0.87705 0.05585 0.26972 0.0
N71 N 0.8472 0.04652 0.19557 0.0
C72 C 0.85125 0.06774 0.25195 0.0
C73 C 0.8715 0.0203 0.17758 0.0
C74 C 0.88976 0.02591 0.22329 0.0
O75 O 0.86434 0.11637 0.39427 0.0
C76 C 0.91834 0.20335 0.28714 0.0
O77 O 0.89653 0.20478 0.25389 0.0
H78 H 0.83609 0.09396 0.27923 0.0
H79 H 0.91102 0.01099 0.22234 0.0
N80 N 0.91114 0.00309 0.37425 0.0
N81 N 0.94441 0.93 0.40624 0.0
C82 C 0.93785 0.98632 0.37139 0.0
C83 C 0.90051 0.95522 0.41151 0.0
C84 C 0.92098 0.91041 0.43154 0.0
C85 C 0.86727 0.12129 0.44968 0.0
O86 O 0.89112 0.10707 0.47299 0.0
H87 H 0.95234 0.01669 0.34632 0.0
H88 H 0.87947 0.95464 0.42472 0.0
O89 O 0.92003 0.15734 0.32817 0.0
H90 H 0.876 -0.00064 0.13424 0.0
H91 H 0.91888 0.86721 0.4628 0.0
Cu92 Cu 0.87284 0.90939 0.95376 0.0
N93 N 0.88577 0.82619 0.91548 0.0
N94 N 0.91389 0.74581 0.87321 0.0
C95 C 0.91178 0.80821 0.90439 0.0
C96 C 0.88819 0.72316 0.86522 0.0
C97 C 0.8709 0.77288 0.89138 0.0
O98 O 0.9028 0.97621 0.96629 0.0
C99 C 0.84474 0.95314 0.85254 0.0
O100 O 0.86721 0.93019 0.82751 0.0
H101 H 0.9288 0.84042 0.91873 0.0
H102 H 0.84898 0.77129 0.89169 0.0
N103 N 0.86156 0.88179 0.02796 0.0
N104 N 0.83747 0.85624 0.10788 0.0
C105 C 0.83659 0.87929 0.05169 0.0
C106 C 0.87871 0.8597 0.07012 0.0
C107 C 0.86403 0.84408 0.11928 0.0
C108 C 0.91976 0.99436 0.92732 0.0
O109 O 0.91612 0.97265 0.87291 0.0
H110 H 0.81831 0.89399 0.02812 0.0
H111 H 0.9005 0.85617 0.06546 0.0
O112 O 0.84291 0.95078 0.90818 0.0
H113 H 0.88223 0.67553 0.84047 0.0
H114 H 0.87255 0.82701 0.16067 0.0
Cu115 Cu 0.64184 0.90293 0.46096 0.0
N116 N 0.6137 0.9504 0.42158 0.0
N117 N 0.5751 0.95885 0.3702 0.0
C118 C 0.58834 0.92537 0.41427 0.0
C119 C 0.59263 0.00813 0.34982 0.0
C120 C 0.61641 0.0028 0.38165 0.0
O121 O 0.62676 0.81563 0.49397 0.0
C122 C 0.68964 0.84107 0.40681 0.0
O123 O 0.69239 0.80141 0.45391 0.0
H124 H 0.58062 0.87888 0.43692 0.0
H125 H 0.63512 0.03071 0.37297 0.0
N126 N 0.65554 0.96097 0.52161 0.0
N127 N 0.68327 0.00242 0.59193 0.0
C128 C 0.68066 0.95773 0.54496 0.0
C129 C 0.64181 0.00959 0.55468 0.0
C130 C 0.65884 0.03515 0.59824 0.0
C131 C 0.61596 0.76759 0.46127 0.0
O132 O 0.6189 0.772 0.40422 0.0
H133 H 0.69633 0.92094 0.52941 0.0
H134 H 0.62067 0.02386 0.54851 0.0
O135 O 0.66968 0.88477 0.40269 0.0
H136 H 0.58916 0.04237 0.31231 0.0
H137 H 0.65356 0.07397 0.63233 0.0
Cu138 Cu 0.38109 0.57314 0.08111 0.0
N139 N 0.39049 0.64844 0.13225 0.0
N140 N 0.41389 0.7273 0.18699 0.0
C141 C 0.41481 0.67916 0.14191 0.0
C142 C 0.38795 0.72743 0.20562 0.0
C143 C 0.37361 0.67893 0.17175 0.0
O144 O 0.41309 0.51555 0.06031 0.0
C145 C 0.35387 0.4671 0.15326 0.0
O146 O 0.37734 0.43404 0.16038 0.0
H147 H 0.43303 0.66411 0.11823 0.0
H148 H 0.35247 0.66517 0.17658 0.0
N149 N 0.36722 0.61325 0.01247 0.0
N150 N 0.33911 0.64205 0.939 0.0
C151 C 0.34167 0.60955 0.99157 0.0
C152 C 0.38127 0.6496 0.97216 0.0
C153 C 0.36402 0.66738 0.92676 0.0
C154 C 0.4322 0.50044 0.09595 0.0
O155 O 0.42942 0.51748 0.15167 0.0
H156 H 0.32554 0.58154 0.01362 0.0
H157 H 0.40267 0.6614 0.9753 0.0
O158 O 0.35207 0.52124 0.11939 0.0
H159 H 0.37997 0.75954 0.24171 0.0
H160 H 0.36946 0.6964 0.88769 0.0
Cu161 Cu 0.14497 0.57868 0.58265 0.0
N162 N 0.11771 0.54074 0.6292 0.0
N163 N 0.0803 0.54327 0.68402 0.0
C164 C 0.09557 0.57894 0.64521 0.0
C165 C 0.09319 0.47931 0.69226 0.0
C166 C 0.11645 0.4781 0.65856 0.0
O167 O 0.12751 0.65978 0.5425 0.0
C168 C 0.17256 0.62454 0.68705 0.0
O169 O 0.14837 0.62463 0.71089 0.0
H170 H 0.09123 0.63303 0.62983 0.0
H171 H 0.13183 0.43594 0.65737 0.0
N172 N 0.15904 0.50839 0.53096 0.0
N173 N 0.18853 0.45206 0.47146 0.0
C174 C 0.18155 0.51498 0.49832 0.0
C175 C 0.15149 0.43886 0.52422 0.0
C176 C 0.16971 0.40393 0.48744 0.0
C177 C 0.11281 0.6503 0.49702 0.0
O178 O 0.11283 0.5865 0.47098 0.0
H179 H 0.19304 0.56445 0.49598 0.0
H180 H 0.13429 0.4148 0.54545 0.0
O181 O 0.17498 0.61001 0.6326 0.0
H182 H 0.08697 0.43798 0.72248 0.0
H183 H 0.16904 0.34782 0.47337 0.0
H184 H 0.29011 0.46751 0.77581 0.0
H185 H 0.21534 0.44957 0.08646 0.0
H186 H 0.33165 0.4578 0.94239 0.0
H187 H 0.17363 0.41709 0.92165 0.0
H188 H 0.25729 0.47003 0.03312 0.0
H189 H 0.24669 0.46211 0.82728 0.0
C190 C 0.29018 0.46371 0.82308 0.0
C191 C 0.31472 0.46327 0.85467 0.0
C192 C 0.23893 0.45891 1.00854 0.0
C193 C 0.26499 0.45817 0.91397 0.0
C194 C 0.21486 0.44765 0.03901 0.0
C195 C 0.19086 0.43087 1.00862 0.0
C196 C 0.23914 0.45346 0.94709 0.0
C197 C 0.19163 0.42939 0.94702 0.0
C198 C 0.26535 0.46111 0.85247 0.0
C199 C 0.31339 0.45953 0.91606 0.0
N200 N 0.21541 0.43997 0.91832 0.0
N201 N 0.28903 0.45723 0.94356 0.0
H202 H 0.23025 0.19077 0.34496 0.0
H203 H 0.33188 0.47385 0.55367 0.0
H204 H 0.21053 0.45097 0.31147 0.0
H205 H 0.32173 0.24449 0.57903 0.0
H206 H 0.29651 0.47046 0.47746 0.0
H207 H 0.2683 0.21528 0.43248 0.0
C208 C 0.23419 0.24661 0.35633 0.0
C209 C 0.21591 0.31589 0.31773 0.0
C210 C 0.30208 0.42113 0.49991 0.0
C211 C 0.26882 0.3499 0.43927 0.0
C212 C 0.32233 0.42275 0.54316 0.0
C213 C 0.32989 0.35918 0.57281 0.0
C214 C 0.28962 0.35537 0.48576 0.0
C215 C 0.31662 0.29476 0.55751 0.0
C216 C 0.25879 0.26231 0.41307 0.0
C217 C 0.22214 0.41014 0.33574 0.0
N218 N 0.29729 0.29446 0.51479 0.0
N219 N 0.25435 0.42289 0.40979 0.0
H220 H 0.79512 0.05863 0.23463 0.0
H221 H 0.732 0.0965 0.91133 0.0
H222 H 0.84276 0.05074 0.07643 0.0
H223 H 0.68514 0.12299 0.06961 0.0
H224 H 0.77205 0.06878 0.97098 0.0
H225 H 0.75416 0.07357 0.17501 0.0
C226 C 0.79708 0.06043 0.18748 0.0
C227 C 0.82265 0.05381 0.16085 0.0
C228 C 0.75296 0.08019 0.99267 0.0
C229 C 0.77555 0.07017 0.09194 0.0
C230 C 0.73001 0.09575 0.95857 0.0
C231 C 0.70507 0.11257 0.98536 0.0
C232 C 0.7511 0.08138 0.05416 0.0
C233 C 0.70388 0.11066 0.04688 0.0
C234 C 0.7736 0.06858 0.15336 0.0
C235 C 0.82364 0.05502 0.09923 0.0
N236 N 0.72654 0.09583 0.07909 0.0
N237 N 0.80053 0.06321 0.06706 0.0
H238 H 0.75849 0.18587 0.7455 0.0
H239 H 0.81548 0.15973 0.41678 0.0
H240 H 0.71196 0.24524 0.59274 0.0
H241 H 0.86509 0.12217 0.56992 0.0
H242 H 0.77679 0.18578 0.48057 0.0
H243 H 0.7971 0.15593 0.68206 0.0
C244 C 0.75637 0.19246 0.69864 0.0
C245 C 0.732 0.2188 0.67452 0.0
C246 C 0.79615 0.17195 0.50027 0.0
C247 C 0.77611 0.18452 0.60149 0.0
C248 C 0.81829 0.15711 0.46381 0.0
C249 C 0.84369 0.139 0.48789 0.0
C250 C 0.79927 0.16841 0.56144 0.0
C251 C 0.84598 0.13624 0.54928 0.0
C252 C 0.77845 0.17562 0.66242 0.0
C253 C 0.73045 0.22635 0.61341 0.0
N254 N 0.8241 0.15066 0.58385 0.0
N255 N 0.75214 0.20927 0.57912 0.0
H256 H 0.83749 0.78049 0.20975 0.0
H257 H 0.6887 0.91199 0.30205 0.0
H258 H 0.78601 0.91189 0.09929 0.0
H259 H 0.73771 0.76446 0.40396 0.0
H260 H 0.72378 0.91187 0.2269 0.0
H261 H 0.80104 0.77353 0.28044 0.0
C262 C 0.81865 0.80843 0.20021 0.0
C263 C 0.81524 0.84819 0.14845 0.0
C264 C 0.72681 0.87921 0.26553 0.0
C265 C 0.77291 0.83932 0.22983 0.0
C266 C 0.70678 0.87925 0.30859 0.0
C267 C 0.71026 0.8383 0.35966 0.0
C268 C 0.75062 0.83813 0.27349 0.0
C269 C 0.73412 0.79689 0.36545 0.0
C270 C 0.79768 0.8039 0.24072 0.0
C271 C 0.78983 0.88106 0.13842 0.0
N272 N 0.75342 0.79815 0.32305 0.0
N273 N 0.76974 0.87637 0.1789 0.0
H274 H 0.68354 0.02995 0.7093 0.0
H275 H 0.84432 0.9728 0.73434 0.0
H276 H 0.73618 0.98817 0.56211 0.0
H277 H 0.79185 0.98258 0.88521 0.0
H278 H 0.80532 0.99576 0.67127 0.0
H279 H 0.72319 0.02868 0.77445 0.0
C280 C 0.70346 0.0214 0.69058 0.0
C281 C 0.70653 0.00826 0.6302 0.0
C282 C 0.80227 0.99313 0.71816 0.0
C283 C 0.75196 0.00708 0.70446 0.0
C284 C 0.82459 0.98016 0.75436 0.0
C285 C 0.82136 0.97478 0.81526 0.0
C286 C 0.77634 0.00062 0.74273 0.0
C287 C 0.79528 0.98581 0.83851 0.0
C288 C 0.72606 0.02031 0.72784 0.0
C289 C 0.73283 0.9972 0.60844 0.0
N290 N 0.77372 0.99762 0.80215 0.0
N291 N 0.75447 0.99671 0.6455 0.0
H292 H 0.3372 0.65078 0.82024 0.0
H293 H 0.17495 0.63838 0.80658 0.0
H294 H 0.28638 0.63985 0.9732 0.0
H295 H 0.22589 0.6319 0.6532 0.0
H296 H 0.21543 0.64669 0.86815 0.0
H297 H 0.29666 0.65231 0.75848 0.0
C298 C 0.31753 0.64971 0.84097 0.0
C299 C 0.31526 0.64538 0.90216 0.0
C300 C 0.21777 0.64392 0.82102 0.0
C301 C 0.26861 0.64652 0.83143 0.0
C302 C 0.19463 0.63936 0.78572 0.0
C303 C 0.19696 0.6345 0.72448 0.0
C304 C 0.24354 0.64406 0.79503 0.0
C305 C 0.22308 0.63558 0.70016 0.0
C306 C 0.29435 0.65011 0.80558 0.0
C307 C 0.28915 0.64259 0.92631 0.0
N308 N 0.24532 0.64017 0.73548 0.0
N309 N 0.26688 0.64321 0.89093 0.0
H310 H 0.34595 0.34662 0.22189 0.0
H311 H 0.2176 0.56902 0.40599 0.0
H312 H 0.30874 0.54992 0.17294 0.0
H313 H 0.21361 0.30449 0.43862 0.0
H314 H 0.25876 0.55979 0.32359 0.0
H315 H 0.30882 0.32857 0.29246 0.0
C316 C 0.32993 0.38696 0.22546 0.0
C317 C 0.33052 0.44999 0.19142 0.0
C318 C 0.25197 0.50967 0.34234 0.0
C319 C 0.2888 0.43028 0.27232 0.0
C320 C 0.22554 0.51557 0.39591 0.0
C321 C 0.21085 0.44006 0.43228 0.0
C322 C 0.26774 0.42698 0.31767 0.0
C323 C 0.22312 0.34926 0.41551 0.0
C324 C 0.30884 0.3765 0.26556 0.0
C325 C 0.30923 0.50049 0.19795 0.0
N326 N 0.25731 0.34918 0.34559 0.0
N327 N 0.28954 0.49001 0.2382 0.0
H328 H 0.08019 0.37556 0.26522 0.0
H329 H 0.92425 0.29426 0.19394 0.0
H330 H 0.04177 0.42265 0.09947 0.0
H331 H 0.96635 0.21728 0.34766 0.0
H332 H 0.96485 0.36024 0.16614 0.0
H333 H 0.03639 0.3383 0.30353 0.0
C334 C 0.06248 0.37956 0.23716 0.0
C335 C 0.06484 0.40163 0.17868 0.0
C336 C 0.96513 0.32947 0.20624 0.0
C337 C 1.01453 0.35793 0.22231 0.0
C338 C 0.9419 0.2918 0.22226 0.0
C339 C 0.94189 0.24951 0.27303 0.0
C340 C 0.98857 0.32518 0.24128 0.0
C341 C 0.96543 0.24869 0.30794 0.0
C342 C 0.03746 0.35772 0.25903 0.0
C343 C 0.04105 0.40566 0.14466 0.0
N344 N 0.98783 0.2855 0.29124 0.0
N345 N 0.01699 0.38321 0.16673 0.0
H346 H 0.44156 0.27588 0.78443 0.0
H347 H 0.59436 0.14663 0.72553 0.0
H348 H 0.47816 0.27081 0.61299 0.0
H349 H 0.55631 0.142 0.89538 0.0
H350 H 0.55057 0.17854 0.68173 0.0
H351 H 0.48175 0.21479 0.82391 0.0
C352 C 0.45788 0.26116 0.75486 0.0
C353 C 0.45645 0.27913 0.69524 0.0
C354 C 0.5517 0.16954 0.72847 0.0
C355 C 0.50283 0.20936 0.7405 0.0
C356 C 0.57673 0.15091 0.75355 0.0
C357 C 0.57919 0.14196 0.81443 0.0
C358 C 0.52888 0.1799 0.76445 0.0
C359 C 0.55552 0.14838 0.84832 0.0
C360 C 0.48089 0.22626 0.77751 0.0
C361 C 0.47831 0.2584 0.65922 0.0
N362 N 0.53151 0.1678 0.82303 0.0
N363 N 0.50065 0.22535 0.68248 0.0
H364 H 0.06894 0.68377 0.71013 0.0
H365 H 0.92315 0.60399 0.84565 0.0
H366 H 0.03791 0.46754 0.7272 0.0
H367 H 0.96039 0.81438 0.84518 0.0
H368 H 0.96424 0.55206 0.80128 0.0
H369 H 0.0286 0.73167 0.75824 0.0
C370 C 0.05353 0.64626 0.72366 0.0
C371 C 0.05671 0.57146 0.71402 0.0
C372 C 0.96343 0.60951 0.81121 0.0
C373 C 1.01034 0.6262 0.77011 0.0
C374 C 0.93993 0.63924 0.83626 0.0
C375 C 0.93828 0.7137 0.84926 0.0
C376 C 0.98534 0.65467 0.79864 0.0
C377 C 0.9608 0.75665 0.83675 0.0
C378 C 0.03053 0.67369 0.75163 0.0
C379 C 0.0363 0.52549 0.73394 0.0
N380 N 0.98328 0.72659 0.81195 0.0
N381 N 1.01387 0.55363 0.76079 0.0
H382 H 0.41962 0.76647 0.30118 0.0
H383 H 0.56199 0.96074 0.25439 0.0
H384 H 0.45936 0.77496 0.13347 0.0
H385 H 0.53186 0.89978 0.42373 0.0
H386 H 0.52165 0.90819 0.20856 0.0
H387 H 0.45788 0.8296 0.34579 0.0
C388 C 0.43629 0.78223 0.27359 0.0
C389 C 0.43625 0.76555 0.21341 0.0
C390 C 0.5238 0.90674 0.25578 0.0
C391 C 0.48027 0.83768 0.26439 0.0
C392 C 0.54668 0.93741 0.28204 0.0
C393 C 0.55026 0.93478 0.34307 0.0
C394 C 0.50422 0.87379 0.2908 0.0
C395 C 0.52997 0.90256 0.37656 0.0
C396 C 0.45822 0.81786 0.2992 0.0
C397 C 0.45867 0.78624 0.18007 0.0
N398 N 0.50784 0.87335 0.35002 0.0
N399 N 0.47976 0.82143 0.20596 0.0
H400 H 0.05455 0.17793 0.122 0.0
H401 H 0.96298 0.02671 0.85771 0.0
H402 H 0.08438 0.14036 0.94663 0.0
H403 H 0.93518 0.04337 0.03653 0.0
H404 H 1.00662 0.07591 0.88845 0.0
H405 H 1.01004 0.13511 0.0907 0.0
C406 C 0.0518 0.16076 0.07689 0.0
C407 C 0.07339 0.16284 0.03695 0.0
C408 C 0.99095 0.0691 0.92096 0.0
C409 C 0.0223 0.11337 1.00078 0.0
C410 C 0.96593 0.0413 0.90338 0.0
C411 C 0.94533 0.03063 0.94459 0.0
C412 C 0.9955 0.08661 0.98023 0.0
C413 C 0.95045 0.0505 1.0032 0.0
C414 C 0.02635 0.13605 0.05909 0.0
C415 C 0.06855 0.13892 0.97921 0.0
N416 N 0.97502 0.0773 0.01927 0.0
N417 N 0.04355 0.11544 0.96288 0.0
H418 H 0.60797 0.72925 0.57586 0.0
H419 H 0.45411 0.63903 0.52304 0.0
H420 H 0.57399 0.70411 0.40232 0.0
H421 H 0.49589 0.55692 0.67493 0.0
H422 H 0.4977 0.67259 0.48099 0.0
H423 H 0.56743 0.67239 0.61634 0.0
C424 C 0.59224 0.71061 0.54622 0.0
C425 C 0.59437 0.72164 0.48561 0.0
C426 C 0.4974 0.64682 0.52337 0.0
C427 C 0.5478 0.65854 0.53172 0.0
C428 C 0.47253 0.62832 0.54755 0.0
C429 C 0.47148 0.59574 0.60265 0.0
C430 C 0.52142 0.63413 0.55502 0.0
C431 C 0.49596 0.58195 0.6323 0.0
C432 C 0.56914 0.67828 0.56935 0.0
C433 C 0.57332 0.69658 0.44925 0.0
N434 N 0.51999 0.60216 0.60847 0.0
N435 N 0.55074 0.66744 0.47294 0.0
H436 H 0.47899 0.47504 0.15807 0.0
H437 H 0.56705 0.36342 0.87598 0.0
H438 H 0.44594 0.46342 0.98279 0.0
H439 H 0.60094 0.39342 0.04914 0.0
H440 H 0.52231 0.39551 0.91451 0.0
H441 H 0.52332 0.43921 0.11946 0.0
C442 C 0.48096 0.46439 0.11151 0.0
C443 C 0.45862 0.47244 0.07368 0.0
C444 C 0.53956 0.39534 0.94404 0.0
C445 C 0.50958 0.43182 0.02897 0.0
C446 C 0.56517 0.37683 0.92207 0.0
C447 C 0.58798 0.37562 0.95924 0.0
C448 C 0.53658 0.41262 1.0038 0.0
C449 C 0.58416 0.39441 0.01853 0.0
C450 C 0.50637 0.44424 0.08942 0.0
C451 C 0.46254 0.45799 0.01368 0.0
N452 N 0.559 0.41181 0.03891 0.0
N453 N 0.4875 0.43859 0.99321 0.0
H454 H 0.08984 0.75622 0.5664 0.0
H455 H 0.98404 0.90082 0.32697 0.0
H456 H 0.08734 0.66716 0.3909 0.0
H457 H 0.96519 0.88905 0.51067 0.0
H458 H 0.02805 0.84096 0.3466 0.0
H459 H 0.05036 0.83251 0.54295 0.0
C460 C 0.08138 0.7538 0.52255 0.0
C461 C 0.0919 0.70502 0.48056 0.0
C462 C 1.01431 0.85202 0.38255 0.0
C463 C 0.04676 0.79244 0.45351 0.0
C464 C 0.98934 0.88634 0.37143 0.0
C465 C 0.97095 0.89926 0.41723 0.0
C466 C 0.02116 0.83232 0.4401 0.0
C467 C 0.97868 0.87921 0.4741 0.0
C468 C 0.05872 0.79693 0.5094 0.0
C469 C 0.07984 0.70378 0.42463 0.0
N470 N 1.00321 0.84707 0.48398 0.0
N471 N 0.05792 0.74679 0.41269 0.0
loop_
_geom_bond_atom_site_label_1
_geom_bond_atom_site_label_2
_geom_bond_distance
_geom_bond_site_symmetry_2
_ccdc_geom_bond_type
Cu0 N1 1.999 . S
Cu0 O6 1.974 . S
Cu0 N11 1.985 . S
Cu0 O20 1.959 . S
N1 Cu0 1.999 . S
N1 C3 1.263 . S
N1 C5 1.389 . S
N2 C3 1.358 . S
N2 C4 1.400 . S
C3 N1 1.263 . S
C3 N2 1.358 . S
C3 H9 0.930 . S
C4 N2 1.400 . S
C4 C5 1.351 . S
C4 H21 0.930 . S
C5 N1 1.389 . S
C5 C4 1.351 . S
C5 H10 0.930 . S
O6 Cu0 1.974 . S
O6 C16 1.282 . S
C7 O8 1.261 . S
C7 O20 1.251 . S
O8 C7 1.261 . S
H9 C3 0.930 . S
H10 C5 0.930 . S
N11 Cu0 1.985 . S
N11 C13 1.335 . S
N11 C14 1.390 . S
N12 C13 1.345 . S
N12 C15 1.325 1_554 S
C13 N11 1.335 . S
C13 N12 1.345 . S
C13 H18 0.930 . S
C14 N11 1.390 . S
C14 C15 1.337 1_554 S
C14 H19 0.930 . S
C15 N12 1.325 1_556 S
C15 C14 1.337 1_556 S
C15 H22 0.947 . S
C16 O6 1.282 . S
C16 O17 1.216 . S
O17 C16 1.216 . S
H18 C13 0.930 . S
H19 C14 0.930 . S
O20 Cu0 1.959 . S
O20 C7 1.251 . S
H21 C4 0.930 . S
H22 C15 0.947 . S
Cu23 N24 1.999 . S
Cu23 O29 1.974 . S
Cu23 N34 1.985 . S
Cu23 O43 1.959 . S
N24 Cu23 1.999 . S
N24 C26 1.263 . S
N24 C28 1.389 . S
N25 C26 1.358 . S
N25 C27 1.400 . S
C26 N24 1.263 . S
C26 N25 1.358 . S
C26 H32 0.930 . S
C27 N25 1.400 . S
C27 C28 1.351 . S
C27 H44 0.930 . S
C28 N24 1.389 . S
C28 C27 1.351 . S
C28 H33 0.930 . S
O29 Cu23 1.974 . S
O29 C39 1.282 . S
C30 O31 1.261 . S
C30 O43 1.251 . S
O31 C30 1.261 . S
H32 C26 0.930 . S
H33 C28 0.930 . S
N34 Cu23 1.985 . S
N34 C36 1.335 . S
N34 C37 1.390 . S
N35 C36 1.345 . S
N35 C38 1.336 . S
C36 N34 1.335 . S
C36 N35 1.345 . S
C36 H41 0.930 . S
C37 N34 1.390 . S
C37 C38 1.346 . S
C37 H42 0.930 . S
C38 N35 1.336 . S
C38 C37 1.346 . S
C38 H45 0.929 . S
C39 O29 1.282 . S
C39 O40 1.216 . S
O40 C39 1.216 . S
H41 C36 0.930 . S
H42 C37 0.930 . S
O43 Cu23 1.959 . S
O43 C30 1.251 . S
H44 C27 0.930 . S
H45 C38 0.929 . S
Cu46 N47 1.999 . S
Cu46 O52 1.974 . S
Cu46 N57 1.985 . S
Cu46 O66 1.959 . S
N47 Cu46 1.999 . S
N47 C49 1.263 . S
N47 C51 1.389 . S
N48 C49 1.358 . S
N48 C50 1.400 . S
C49 N47 1.263 . S
C49 N48 1.358 . S
C49 H55 0.930 . S
C50 N48 1.400 . S
C50 C51 1.351 . S
C50 H67 0.930 . S
C51 N47 1.389 . S
C51 C50 1.351 . S
C51 H56 0.930 . S
O52 Cu46 1.974 . S
O52 C62 1.282 . S
C53 O54 1.261 . S
C53 O66 1.251 . S
O54 C53 1.261 . S
H55 C49 0.930 . S
H56 C51 0.930 . S
N57 Cu46 1.985 . S
N57 C59 1.335 . S
N57 C60 1.390 . S
N58 C59 1.345 . S
N58 C61 1.325 1_556 S
C59 N57 1.335 . S
C59 N58 1.345 . S
C59 H64 0.930 . S
C60 N57 1.390 . S
C60 C61 1.337 1_556 S
C60 H65 0.930 . S
C61 N58 1.325 1_554 S
C61 C60 1.337 1_554 S
C61 H68 0.947 . S
C62 O52 1.282 . S
C62 O63 1.216 . S
O63 C62 1.216 . S
H64 C59 0.930 . S
H65 C60 0.930 . S
O66 Cu46 1.959 . S
O66 C53 1.251 . S
H67 C50 0.930 . S
H68 C61 0.947 . S
Cu69 N70 1.999 . S
Cu69 O75 1.974 . S
Cu69 N80 1.985 . S
Cu69 O89 1.959 . S
N70 Cu69 1.999 . S
N70 C72 1.263 . S
N70 C74 1.389 . S
N71 C72 1.358 . S
N71 C73 1.400 . S
C72 N70 1.263 . S
C72 N71 1.358 . S
C72 H78 0.930 . S
C73 N71 1.400 . S
C73 C74 1.351 . S
C73 H90 0.930 . S
C74 N70 1.389 . S
C74 C73 1.351 . S
C74 H79 0.930 . S
O75 Cu69 1.974 . S
O75 C85 1.282 . S
C76 O77 1.261 . S
C76 O89 1.251 . S
O77 C76 1.261 . S
H78 C72 0.930 . S
H79 C74 0.930 . S
N80 Cu69 1.985 . S
N80 C82 1.335 . S
N80 C83 1.390 . S
N81 C82 1.342 1_565 S
N81 C84 1.334 1_565 S
C82 N80 1.335 . S
C82 N81 1.342 1_545 S
C82 H87 0.930 . S
C83 N80 1.390 . S
C83 C84 1.346 . S
C83 H88 0.930 . S
C84 N81 1.334 1_545 S
C84 C83 1.346 . S
C84 H91 0.929 . S
C85 O75 1.282 . S
C85 O86 1.216 . S
O86 C85 1.216 . S
H87 C82 0.930 . S
H88 C83 0.930 . S
O89 Cu69 1.959 . S
O89 C76 1.251 . S
H90 C73 0.930 . S
H91 C84 0.929 . S
Cu92 N93 1.999 . S
Cu92 O98 1.974 . S
Cu92 N103 1.985 . S
Cu92 O112 1.959 . S
N93 Cu92 1.999 . S
N93 C95 1.263 . S
N93 C97 1.389 . S
N94 C95 1.358 . S
N94 C96 1.400 . S
C95 N93 1.263 . S
C95 N94 1.358 . S
C95 H101 0.930 . S
C96 N94 1.400 . S
C96 C97 1.351 . S
C96 H113 0.930 . S
C97 N93 1.389 . S
C97 C96 1.351 . S
C97 H102 0.930 . S
O98 Cu92 1.974 . S
O98 C108 1.282 1_565 S
C99 O100 1.261 1_565 S
C99 O112 1.251 . S
O100 C99 1.261 1_545 S
H101 C95 0.930 . S
H102 C97 0.930 . S
N103 Cu92 1.985 . S
N103 C105 1.335 . S
N103 C106 1.390 1_566 S
N104 C105 1.345 1_544 S
N104 C107 1.336 . S
C105 N103 1.335 . S
C105 N104 1.345 1_566 S
C105 H110 0.930 . S
C106 N103 1.390 1_544 S
C106 C107 1.346 . S
C106 H111 0.930 . S
C107 N104 1.336 . S
C107 C106 1.346 . S
C107 H114 0.929 . S
C108 O98 1.282 1_545 S
C108 O109 1.216 . S
O109 C108 1.216 . S
H110 C105 0.930 . S
H111 C106 0.930 . S
O112 Cu92 1.959 . S
O112 C99 1.251 . S
H113 C96 0.930 . S
H114 C107 0.929 . S
Cu115 N116 1.999 . S
Cu115 O121 1.974 . S
Cu115 N126 1.985 . S
Cu115 O135 1.959 . S
N116 Cu115 1.999 . S
N116 C118 1.263 . S
N116 C120 1.389 . S
N117 C118 1.358 . S
N117 C119 1.400 . S
C118 N116 1.263 . S
C118 N117 1.358 . S
C118 H124 0.930 . S
C119 N117 1.400 . S
C119 C120 1.351 . S
C119 H136 0.930 . S
C120 N116 1.389 . S
C120 C119 1.351 . S
C120 H125 0.930 1_565 S
O121 Cu115 1.974 . S
O121 C131 1.282 . S
C122 O123 1.261 . S
C122 O135 1.251 . S
O123 C122 1.261 . S
H124 C118 0.930 . S
H125 C120 0.930 1_545 S
N126 Cu115 1.985 . S
N126 C128 1.335 . S
N126 C129 1.390 . S
N127 C128 1.345 . S
N127 C130 1.336 . S
C128 N126 1.335 . S
C128 N127 1.345 . S
C128 H133 0.930 1_565 S
C129 N126 1.390 . S
C129 C130 1.346 . S
C129 H134 0.930 . S
C130 N127 1.336 . S
C130 C129 1.346 . S
C130 H137 0.929 . S
C131 O121 1.282 . S
C131 O132 1.216 . S
O132 C131 1.216 . S
H133 C128 0.930 1_545 S
H134 C129 0.930 . S
O135 Cu115 1.959 . S
O135 C122 1.251 . S
H136 C119 0.930 . S
H137 C130 0.929 . S
Cu138 N139 1.999 . S
Cu138 O144 1.974 . S
Cu138 N149 1.985 . S
Cu138 O158 1.959 . S
N139 Cu138 1.999 . S
N139 C141 1.263 . S
N139 C143 1.389 . S
N140 C141 1.358 . S
N140 C142 1.400 . S
C141 N139 1.263 . S
C141 N140 1.358 . S
C141 H147 0.930 . S
C142 N140 1.400 . S
C142 C143 1.351 . S
C142 H159 0.930 . S
C143 N139 1.389 . S
C143 C142 1.351 . S
C143 H148 0.930 . S
O144 Cu138 1.974 . S
O144 C154 1.282 . S
C145 O146 1.261 . S
C145 O158 1.251 . S
O146 C145 1.261 . S
H147 C141 0.930 . S
H148 C143 0.930 . S
N149 Cu138 1.985 . S
N149 C151 1.335 . S
N149 C152 1.390 1_554 S
N150 C151 1.345 1_556 S
N150 C153 1.336 . S
C151 N149 1.335 . S
C151 N150 1.345 1_554 S
C151 H156 0.930 . S
C152 N149 1.390 1_556 S
C152 C153 1.346 . S
C152 H157 0.930 . S
C153 N150 1.336 . S
C153 C152 1.346 . S
C153 H160 0.929 . S
C154 O144 1.282 . S
C154 O155 1.216 . S
O155 C154 1.216 . S
H156 C151 0.930 . S
H157 C152 0.930 . S
O158 Cu138 1.959 . S
O158 C145 1.251 . S
H159 C142 0.930 . S
H160 C153 0.929 . S
Cu161 N162 1.999 . S
Cu161 O167 1.974 . S
Cu161 N172 1.985 . S
Cu161 O181 1.959 . S
N162 Cu161 1.999 . S
N162 C164 1.263 . S
N162 C166 1.389 . S
N163 C164 1.358 . S
N163 C165 1.400 . S
C164 N162 1.263 . S
C164 N163 1.358 . S
C164 H170 0.930 . S
C165 N163 1.400 . S
C165 C166 1.351 . S
C165 H182 0.930 . S
C166 N162 1.389 . S
C166 C165 1.351 . S
C166 H171 0.930 . S
O167 Cu161 1.974 . S
O167 C177 1.282 . S
C168 O169 1.261 . S
C168 O181 1.251 . S
O169 C168 1.261 . S
H170 C164 0.930 . S
H171 C166 0.930 . S
N172 Cu161 1.985 . S
N172 C174 1.335 . S
N172 C175 1.390 . S
N173 C174 1.345 . S
N173 C176 1.336 . S
C174 N172 1.335 . S
C174 N173 1.345 . S
C174 H179 0.930 . S
C175 N172 1.390 . S
C175 C176 1.346 . S
C175 H180 0.930 . S
C176 N173 1.336 . S
C176 C175 1.346 . S
C176 H183 0.929 . S
C177 O167 1.282 . S
C177 O178 1.216 . S
O178 C177 1.216 . S
H179 C174 0.930 . S
H180 C175 0.930 . S
O181 Cu161 1.959 . S
O181 C168 1.251 . S
H182 C165 0.930 . S
H183 C176 0.929 . S
H184 C190 0.930 . S
H185 C194 0.930 . S
H186 C199 0.929 . S
H187 C197 0.929 . S
H188 C192 0.929 . S
H189 C198 0.929 . S
C190 H184 0.930 . S
C190 C191 1.367 . S
C190 C198 1.378 . S
C191 C190 1.367 . S
C191 C199 1.433 . S
C192 H188 0.929 . S
C192 C194 1.378 1_556 S
C192 C196 1.350 . S
C193 C196 1.463 . S
C193 C198 1.350 . S
C193 N201 1.427 . S
C194 H185 0.930 . S
C194 C192 1.378 1_554 S
C194 C195 1.367 . S
C195 C194 1.367 . S
C195 C197 1.433 1_554 S
C196 C192 1.350 . S
C196 C193 1.463 . S
C196 N200 1.427 . S
C197 H187 0.929 . S
C197 C195 1.433 1_556 S
C197 N200 1.384 . S
C198 H189 0.929 . S
C198 C190 1.378 . S
C198 C193 1.350 . S
C199 H186 0.929 . S
C199 C191 1.433 . S
C199 N201 1.384 . S
N200 C196 1.427 . S
N200 C197 1.384 . S
N201 C193 1.427 . S
N201 C199 1.384 . S
H202 C208 0.930 . S
H203 C212 0.930 . S
H204 C217 0.929 . S
H205 C215 0.929 . S
H206 C210 0.929 . S
H207 C216 0.929 . S
C208 H202 0.930 . S
C208 C209 1.367 . S
C208 C216 1.378 . S
C209 C208 1.367 . S
C209 C217 1.433 . S
C210 H206 0.929 . S
C210 C212 1.378 . S
C210 C214 1.350 . S
C211 C214 1.463 . S
C211 C216 1.350 . S
C211 N219 1.427 . S
C212 H203 0.930 . S
C212 C210 1.378 . S
C212 C213 1.367 . S
C213 C212 1.367 . S
C213 C215 1.433 . S
C214 C210 1.350 . S
C214 C211 1.463 . S
C214 N218 1.427 . S
C215 H205 0.929 . S
C215 C213 1.433 . S
C215 N218 1.384 . S
C216 H207 0.929 . S
C216 C208 1.378 . S
C216 C211 1.350 . S
C217 H204 0.929 . S
C217 C209 1.433 . S
C217 N219 1.384 . S
N218 C214 1.427 . S
N218 C215 1.384 . S
N219 C211 1.427 . S
N219 C217 1.384 . S
H220 C226 0.930 . S
H221 C230 0.930 . S
H222 C235 0.929 . S
H223 C233 0.929 . S
H224 C228 0.929 . S
H225 C234 0.929 . S
C226 H220 0.930 . S
C226 C227 1.367 . S
C226 C234 1.378 . S
C227 C226 1.367 . S
C227 C235 1.433 . S
C228 H224 0.929 . S
C228 C230 1.378 1_554 S
C228 C232 1.350 . S
C229 C232 1.463 . S
C229 C234 1.350 . S
C229 N237 1.427 . S
C230 H221 0.930 . S
C230 C228 1.378 1_556 S
C230 C231 1.367 . S
C231 C230 1.367 . S
C231 C233 1.433 1_556 S
C232 C228 1.350 . S
C232 C229 1.463 . S
C232 N236 1.427 . S
C233 H223 0.929 . S
C233 C231 1.433 1_554 S
C233 N236 1.384 . S
C234 H225 0.929 . S
C234 C226 1.378 . S
C234 C229 1.350 . S
C235 H222 0.929 . S
C235 C227 1.433 . S
C235 N237 1.384 . S
N236 C232 1.427 . S
N236 C233 1.384 . S
N237 C229 1.427 . S
N237 C235 1.384 . S
H238 C244 0.930 . S
H239 C248 0.930 1_565 S
H240 C253 0.929 . S
H241 C251 0.929 . S
H242 C246 0.929 . S
H243 C252 0.929 . S
C244 H238 0.930 . S
C244 C245 1.367 . S
C244 C252 1.378 . S
C245 C244 1.367 . S
C245 C253 1.433 . S
C246 H242 0.929 . S
C246 C248 1.378 . S
C246 C250 1.350 . S
C247 C250 1.463 . S
C247 C252 1.350 . S
C247 N255 1.427 . S
C248 H239 0.930 1_545 S
C248 C246 1.378 . S
C248 C249 1.367 . S
C249 C248 1.367 . S
C249 C251 1.433 . S
C250 C246 1.350 . S
C250 C247 1.463 . S
C250 N254 1.427 . S
C251 H241 0.929 . S
C251 C249 1.433 . S
C251 N254 1.384 . S
C252 H243 0.929 . S
C252 C244 1.378 . S
C252 C247 1.350 . S
C253 H240 0.929 . S
C253 C245 1.433 . S
C253 N255 1.384 . S
N254 C250 1.427 . S
N254 C251 1.384 . S
N255 C247 1.427 . S
N255 C253 1.384 . S
H256 C262 0.930 . S
H257 C266 0.930 . S
H258 C271 0.929 . S
H259 C269 0.929 . S
H260 C264 0.929 . S
H261 C270 0.929 . S
C262 H256 0.930 . S
C262 C263 1.367 1_565 S
C262 C270 1.378 . S
C263 C262 1.367 1_545 S
C263 C271 1.433 . S
C264 H260 0.929 . S
C264 C266 1.378 . S
C264 C268 1.350 1_545 S
C265 C268 1.463 . S
C265 C270 1.350 . S
C265 N273 1.427 1_565 S
C266 H257 0.930 . S
C266 C264 1.378 . S
C266 C267 1.367 1_545 S
C267 C266 1.367 1_565 S
C267 C269 1.433 . S
C268 C264 1.350 1_565 S
C268 C265 1.463 . S
C268 N272 1.427 . S
C269 H259 0.929 . S
C269 C267 1.433 . S
C269 N272 1.384 . S
C270 H261 0.929 . S
C270 C262 1.378 . S
C270 C265 1.350 . S
C271 H258 0.929 . S
C271 C263 1.433 . S
C271 N273 1.384 . S
N272 C268 1.427 . S
N272 C269 1.384 . S
N273 C265 1.427 1_545 S
N273 C271 1.384 . S
H274 C280 0.930 . S
H275 C284 0.930 1_545 S
H276 C289 0.929 . S
H277 C287 0.929 . S
H278 C282 0.929 . S
H279 C288 0.929 . S
C280 H274 0.930 . S
C280 C281 1.367 . S
C280 C288 1.378 . S
C281 C280 1.367 . S
C281 C289 1.433 1_565 S
C282 H278 0.929 . S
C282 C284 1.378 1_545 S
C282 C286 1.350 1_545 S
C283 C286 1.463 . S
C283 C288 1.350 . S
C283 N291 1.427 1_565 S
C284 H275 0.930 1_565 S
C284 C282 1.378 1_565 S
C284 C285 1.367 . S
C285 C284 1.367 . S
C285 C287 1.433 . S
C286 C282 1.350 1_565 S
C286 C283 1.463 . S
C286 N290 1.427 . S
C287 H277 0.929 . S
C287 C285 1.433 . S
C287 N290 1.384 . S
C288 H279 0.929 . S
C288 C280 1.378 . S
C288 C283 1.350 . S
C289 H276 0.929 . S
C289 C281 1.433 1_545 S
C289 N291 1.384 . S
N290 C286 1.427 . S
N290 C287 1.384 . S
N291 C283 1.427 1_545 S
N291 C289 1.384 . S
H292 C298 0.930 . S
H293 C302 0.930 . S
H294 C307 0.929 . S
H295 C305 0.929 . S
H296 C300 0.929 . S
H297 C306 0.929 . S
C298 H292 0.930 . S
C298 C299 1.367 . S
C298 C306 1.378 . S
C299 C298 1.367 . S
C299 C307 1.433 . S
C300 H296 0.929 . S
C300 C302 1.378 . S
C300 C304 1.350 . S
C301 C304 1.463 . S
C301 C306 1.350 . S
C301 N309 1.427 . S
C302 H293 0.930 . S
C302 C300 1.378 . S
C302 C303 1.367 . S
C303 C302 1.367 . S
C303 C305 1.433 . S
C304 C300 1.350 . S
C304 C301 1.463 . S
C304 N308 1.427 . S
C305 H295 0.929 . S
C305 C303 1.433 . S
C305 N308 1.384 . S
C306 H297 0.929 . S
C306 C298 1.378 . S
C306 C301 1.350 . S
C307 H294 0.929 . S
C307 C299 1.433 . S
C307 N309 1.384 . S
N308 C304 1.427 . S
N308 C305 1.384 . S
N309 C301 1.427 . S
N309 C307 1.384 . S
H310 C316 0.930 . S
H311 C320 0.930 . S
H312 C325 0.929 . S
H313 C323 0.929 . S
H314 C318 0.929 . S
H315 C324 0.929 . S
C316 H310 0.930 . S
C316 C317 1.367 . S
C316 C324 1.378 . S
C317 C316 1.367 . S
C317 C325 1.433 . S
C318 H314 0.929 . S
C318 C320 1.378 . S
C318 C322 1.350 . S
C319 C322 1.463 . S
C319 C324 1.350 . S
C319 N327 1.427 . S
C320 H311 0.930 . S
C320 C318 1.378 . S
C320 C321 1.367 . S
C321 C320 1.367 . S
C321 C323 1.433 . S
C322 C318 1.350 . S
C322 C319 1.463 . S
C322 N326 1.427 . S
C323 H313 0.929 . S
C323 C321 1.433 . S
C323 N326 1.384 . S
C324 H315 0.929 . S
C324 C316 1.378 . S
C324 C319 1.350 . S
C325 H312 0.929 . S
C325 C317 1.433 . S
C325 N327 1.384 . S
N326 C322 1.427 . S
N326 C323 1.384 . S
N327 C319 1.427 . S
N327 C325 1.384 . S
H328 C334 0.930 . S
H329 C338 0.930 . S
H330 C343 0.929 . S
H331 C341 0.929 . S
H332 C336 0.929 . S
H333 C342 0.929 . S
C334 H328 0.930 . S
C334 C335 1.367 . S
C334 C342 1.378 . S
C335 C334 1.367 . S
C335 C343 1.433 . S
C336 H332 0.929 . S
C336 C338 1.378 . S
C336 C340 1.350 . S
C337 C340 1.463 1_455 S
C337 C342 1.350 . S
C337 N345 1.427 . S
C338 H329 0.930 . S
C338 C336 1.378 . S
C338 C339 1.367 . S
C339 C338 1.367 . S
C339 C341 1.433 . S
C340 C336 1.350 . S
C340 C337 1.463 1_655 S
C340 N344 1.427 . S
C341 H331 0.929 . S
C341 C339 1.433 . S
C341 N344 1.384 . S
C342 H333 0.929 . S
C342 C334 1.378 . S
C342 C337 1.350 . S
C343 H330 0.929 . S
C343 C335 1.433 . S
C343 N345 1.384 . S
N344 C340 1.427 . S
N344 C341 1.384 . S
N345 C337 1.427 . S
N345 C343 1.384 . S
H346 C352 0.930 . S
H347 C356 0.930 . S
H348 C361 0.929 . S
H349 C359 0.929 . S
H350 C354 0.929 . S
H351 C360 0.929 . S
C352 H346 0.930 . S
C352 C353 1.367 . S
C352 C360 1.378 . S
C353 C352 1.367 . S
C353 C361 1.433 . S
C354 H350 0.929 . S
C354 C356 1.378 . S
C354 C358 1.350 . S
C355 C358 1.463 . S
C355 C360 1.350 . S
C355 N363 1.427 . S
C356 H347 0.930 . S
C356 C354 1.378 . S
C356 C357 1.367 . S
C357 C356 1.367 . S
C357 C359 1.433 . S
C358 C354 1.350 . S
C358 C355 1.463 . S
C358 N362 1.427 . S
C359 H349 0.929 . S
C359 C357 1.433 . S
C359 N362 1.384 . S
C360 H351 0.929 . S
C360 C352 1.378 . S
C360 C355 1.350 . S
C361 H348 0.929 . S
C361 C353 1.433 . S
C361 N363 1.384 . S
N362 C358 1.427 . S
N362 C359 1.384 . S
N363 C355 1.427 . S
N363 C361 1.384 . S
H364 C370 0.930 . S
H365 C374 0.930 . S
H366 C379 0.929 . S
H367 C377 0.929 . S
H368 C372 0.929 . S
H369 C378 0.929 . S
C370 H364 0.930 . S
C370 C371 1.367 . S
C370 C378 1.378 . S
C371 C370 1.367 . S
C371 C379 1.433 . S
C372 H368 0.929 . S
C372 C374 1.378 . S
C372 C376 1.350 . S
C373 C376 1.463 1_455 S
C373 C378 1.350 . S
C373 N381 1.427 1_455 S
C374 H365 0.930 . S
C374 C372 1.378 . S
C374 C375 1.367 . S
C375 C374 1.367 . S
C375 C377 1.433 . S
C376 C372 1.350 . S
C376 C373 1.463 1_655 S
C376 N380 1.427 . S
C377 H367 0.929 . S
C377 C375 1.433 . S
C377 N380 1.384 . S
C378 H369 0.929 . S
C378 C370 1.378 . S
C378 C373 1.350 . S
C379 H366 0.929 . S
C379 C371 1.433 . S
C379 N381 1.384 1_455 S
N380 C376 1.427 . S
N380 C377 1.384 . S
N381 C373 1.427 1_655 S
N381 C379 1.384 1_655 S
H382 C388 0.930 . S
H383 C392 0.930 . S
H384 C397 0.929 . S
H385 C395 0.929 . S
H386 C390 0.929 . S
H387 C396 0.929 . S
C388 H382 0.930 . S
C388 C389 1.367 . S
C388 C396 1.378 . S
C389 C388 1.367 . S
C389 C397 1.433 . S
C390 H386 0.929 . S
C390 C392 1.378 . S
C390 C394 1.350 . S
C391 C394 1.463 . S
C391 C396 1.350 . S
C391 N399 1.427 . S
C392 H383 0.930 . S
C392 C390 1.378 . S
C392 C393 1.367 . S
C393 C392 1.367 . S
C393 C395 1.433 . S
C394 C390 1.350 . S
C394 C391 1.463 . S
C394 N398 1.427 . S
C395 H385 0.929 . S
C395 C393 1.433 . S
C395 N398 1.384 . S
C396 H387 0.929 . S
C396 C388 1.378 . S
C396 C391 1.350 . S
C397 H384 0.929 . S
C397 C389 1.433 . S
C397 N399 1.384 . S
N398 C394 1.427 . S
N398 C395 1.384 . S
N399 C391 1.427 . S
N399 C397 1.384 . S
H400 C406 0.930 . S
H401 C410 0.930 . S
H402 C415 0.929 . S
H403 C413 0.929 . S
H404 C408 0.929 . S
H405 C414 0.929 1_655 S
C406 H400 0.930 . S
C406 C407 1.367 . S
C406 C414 1.378 . S
C407 C406 1.367 . S
C407 C415 1.433 1_554 S
C408 H404 0.929 . S
C408 C410 1.378 . S
C408 C412 1.350 1_556 S
C409 C412 1.463 1_455 S
C409 C414 1.350 . S
C409 N417 1.427 1_554 S
C410 H401 0.930 . S
C410 C408 1.378 . S
C410 C411 1.367 . S
C411 C410 1.367 . S
C411 C413 1.433 1_556 S
C412 C408 1.350 1_554 S
C412 C409 1.463 1_655 S
C412 N416 1.427 . S
C413 H403 0.929 . S
C413 C411 1.433 1_554 S
C413 N416 1.384 . S
C414 H405 0.929 1_455 S
C414 C406 1.378 . S
C414 C409 1.350 . S
C415 H402 0.929 . S
C415 C407 1.433 1_556 S
C415 N417 1.384 . S
N416 C412 1.427 . S
N416 C413 1.384 . S
N417 C409 1.427 1_556 S
N417 C415 1.384 . S
H418 C424 0.930 . S
H419 C428 0.930 . S
H420 C433 0.929 . S
H421 C431 0.929 . S
H422 C426 0.929 . S
H423 C432 0.929 . S
C424 H418 0.930 . S
C424 C425 1.367 . S
C424 C432 1.378 . S
C425 C424 1.367 . S
C425 C433 1.433 . S
C426 H422 0.929 . S
C426 C428 1.378 . S
C426 C430 1.350 . S
C427 C430 1.463 . S
C427 C432 1.350 . S
C427 N435 1.427 . S
C428 H419 0.930 . S
C428 C426 1.378 . S
C428 C429 1.367 . S
C429 C428 1.367 . S
C429 C431 1.433 . S
C430 C426 1.350 . S
C430 C427 1.463 . S
C430 N434 1.427 . S
C431 H421 0.929 . S
C431 C429 1.433 . S
C431 N434 1.384 . S
C432 H423 0.929 . S
C432 C424 1.378 . S
C432 C427 1.350 . S
C433 H420 0.929 . S
C433 C425 1.433 . S
C433 N435 1.384 . S
N434 C430 1.427 . S
N434 C431 1.384 . S
N435 C427 1.427 . S
N435 C433 1.384 . S
H436 C442 0.930 . S
H437 C446 0.930 . S
H438 C451 0.929 . S
H439 C449 0.929 . S
H440 C444 0.929 . S
H441 C450 0.929 . S
C442 H436 0.930 . S
C442 C443 1.367 . S
C442 C450 1.378 . S
C443 C442 1.367 . S
C443 C451 1.433 1_554 S
C444 H440 0.929 . S
C444 C446 1.378 . S
C444 C448 1.350 . S
C445 C448 1.463 . S
C445 C450 1.350 1_556 S
C445 N453 1.427 . S
C446 H437 0.930 . S
C446 C444 1.378 . S
C446 C447 1.367 . S
C447 C446 1.367 . S
C447 C449 1.433 1_556 S
C448 C444 1.350 . S
C448 C445 1.463 . S
C448 N452 1.427 1_556 S
C449 H439 0.929 . S
C449 C447 1.433 1_554 S
C449 N452 1.384 . S
C450 H441 0.929 . S
C450 C442 1.378 . S
C450 C445 1.350 1_554 S
C451 H438 0.929 . S
C451 C443 1.433 1_556 S
C451 N453 1.384 . S
N452 C448 1.427 1_554 S
N452 C449 1.384 . S
N453 C445 1.427 . S
N453 C451 1.384 . S
H454 C460 0.930 . S
H455 C464 0.930 . S
H456 C469 0.929 . S
H457 C467 0.929 . S
H458 C462 0.927 1_455 S
H459 C468 0.929 . S
C460 H454 0.930 . S
C460 C461 1.367 . S
C460 C468 1.378 . S
C461 C460 1.367 . S
C461 C469 1.433 . S
C462 H458 0.927 1_655 S
C462 C464 1.380 . S
C462 C466 1.349 1_655 S
C463 C466 1.463 . S
C463 C468 1.350 . S
C463 N471 1.427 . S
C464 H455 0.930 . S
C464 C462 1.380 . S
C464 C465 1.367 . S
C465 C464 1.367 . S
C465 C467 1.433 . S
C466 C462 1.349 1_455 S
C466 C463 1.463 . S
C466 N470 1.427 1_455 S
C467 H457 0.929 . S
C467 C465 1.433 . S
C467 N470 1.384 . S
C468 H459 0.929 . S
C468 C460 1.378 . S
C468 C463 1.350 . S
C469 H456 0.929 . S
C469 C461 1.433 . S
C469 N471 1.384 . S
N470 C466 1.427 1_655 S
N470 C467 1.384 . S
N471 C463 1.427 . S
N471 C469 1.384 . S
C191 N25 1.929 . S
C195 C16 2.103 . S
C209 N2 1.842 . S
C213 C39 1.910 . S
C227 N71 1.928 . S
C231 C62 2.103 . S
C245 N48 1.842 . S
C249 C85 1.910 . S
C263 N104 1.918 . S
C267 C122 1.955 . S
C281 N127 1.792 . S
C285 C99 1.871 . S
C299 N150 1.922 . S
C303 C168 1.952 . S
C317 C145 1.872 . S
C321 N173 1.793 . S
C335 C7 1.324 . S
C339 C76 1.330 . S
C353 C30 1.331 . S
C357 C53 1.325 . S
C371 N163 1.290 . S
C375 N94 1.145 . S
C389 N140 1.171 . S
C393 N117 1.294 . S
C407 N12 1.372 . S
C411 C108 1.312 . S
C425 C131 1.477 . S
C429 N35 1.523 . S
C443 C154 1.311 . S
C447 N58 1.372 . S
C461 C177 1.467 . S
C465 N81 1.531 . S
