# Generated by pormake.
# Topology wfs, (7)-cn, num edge types: 1
# Building blocks:
#     Node 0, Type 0, BuildingBlock: NUHQUE_clean_sbu_2, # of connection points: 7
#     Node 1, Type 0, BuildingBlock: NUHQUE_clean_sbu_2, # of connection points: 7
#     Node 2, Type 0, BuildingBlock: NUHQUE_clean_sbu_2, # of connection points: 7
#     Node 3, Type 0, BuildingBlock: NUHQUE_clean_sbu_2, # of connection points: 7
#     Node 4, Type 0, BuildingBlock: NUHQUE_clean_sbu_2, # of connection points: 7
#     Node 5, Type 0, BuildingBlock: NUHQUE_clean_sbu_2, # of connection points: 7
#     Node 6, Type 0, BuildingBlock: NUHQUE_clean_sbu_2, # of connection points: 7
#     Node 7, Type 0, BuildingBlock: NUHQUE_clean_sbu_2, # of connection points: 7
#     Edge 8, Type (0, 0), BuildingBlock: XUDNAN_clean_linker_2, # of connection points: 2
#     Edge 9, Type (0, 0), BuildingBlock: XUDNAN_clean_linker_2, # of connection points: 2
#     Edge 10, Type (0, 0), BuildingBlock: XUDNAN_clean_linker_2, # of connection points: 2
#     Edge 11, Type (0, 0), BuildingBlock: XUDNAN_clean_linker_2, # of connection points: 2
#     Edge 12, Type (0, 0), BuildingBlock: XUDNAN_clean_linker_2, # of connection points: 2
#     Edge 13, Type (0, 0), BuildingBlock: XUDNAN_clean_linker_2, # of connection points: 2
#     Edge 14, Type (0, 0), BuildingBlock: XUDNAN_clean_linker_2, # of connection points: 2
#     Edge 15, Type (0, 0), BuildingBlock: XUDNAN_clean_linker_2, # of connection points: 2
#     Edge 16, Type (0, 0), BuildingBlock: XUDNAN_clean_linker_2, # of connection points: 2
#     Edge 17, Type (0, 0), BuildingBlock: XUDNAN_clean_linker_2, # of connection points: 2
#     Edge 18, Type (0, 0), BuildingBlock: XUDNAN_clean_linker_2, # of connection points: 2
#     Edge 19, Type (0, 0), BuildingBlock: XUDNAN_clean_linker_2, # of connection points: 2
#     Edge 20, Type (0, 0), BuildingBlock: XUDNAN_clean_linker_2, # of connection points: 2
#     Edge 21, Type (0, 0), BuildingBlock: XUDNAN_clean_linker_2, # of connection points: 2
#     Edge 22, Type (0, 0), BuildingBlock: XUDNAN_clean_linker_2, # of connection points: 2
#     Edge 23, Type (0, 0), BuildingBlock: XUDNAN_clean_linker_2, # of connection points: 2
#     Edge 24, Type (0, 0), BuildingBlock: XUDNAN_clean_linker_2, # of connection points: 2
#     Edge 25, Type (0, 0), BuildingBlock: XUDNAN_clean_linker_2, # of connection points: 2
#     Edge 26, Type (0, 0), BuildingBlock: XUDNAN_clean_linker_2, # of connection points: 2
#     Edge 27, Type (0, 0), BuildingBlock: XUDNAN_clean_linker_2, # of connection points: 2
#     Edge 28, Type (0, 0), BuildingBlock: XUDNAN_clean_linker_2, # of connection points: 2
#     Edge 29, Type (0, 0), BuildingBlock: XUDNAN_clean_linker_2, # of connection points: 2
#     Edge 30, Type (0, 0), BuildingBlock: XUDNAN_clean_linker_2, # of connection points: 2
#     Edge 31, Type (0, 0), BuildingBlock: XUDNAN_clean_linker_2, # of connection points: 2
#     Edge 32, Type (0, 0), BuildingBlock: XUDNAN_clean_linker_2, # of connection points: 2
#     Edge 33, Type (0, 0), BuildingBlock: XUDNAN_clean_linker_2, # of connection points: 2
#     Edge 34, Type (0, 0), BuildingBlock: XUDNAN_clean_linker_2, # of connection points: 2
#     Edge 35, Type (0, 0), BuildingBlock: XUDNAN_clean_linker_2, # of connection points: 2
# Relax obj value: 0.228
# Max RMSD: 0.187
# Mean RMSD: 0.187
data_MOF--net-wfs--node1-NUHQUE_clean_sbu_2--edge1-XUDNAN_clean_linker_2
_symmetry_space_group_name_H-M    P1
_symmetry_Int_Tables_number       1
_symmetry_cell_setting            triclinic
loop_
_symmetry_equiv_pos_as_xyz
'x, y, z'
_cell_length_a     31.309118
_cell_length_b     37.607907
_cell_length_c     30.486396
_cell_angle_alpha  89.952754
_cell_angle_beta   90.221185
_cell_angle_gamma 90.128597
loop_
_atom_site_label
_atom_site_type_symbol
_atom_site_fract_x
_atom_site_fract_y
_atom_site_fract_z
_atom_type_partial_charge
O0 O 0.20019 0.06471 0.22405 0.0
Tb1 Tb 0.18807 0.10042 0.16949 0.0
Eu2 Eu 0.21259 0.18307 0.10504 0.0
C3 C 0.23939 0.0552 0.23429 0.0
O4 O 0.27164 0.07176 0.21585 0.0
C5 C 0.24838 0.10709 0.09508 0.0
O6 O 0.16088 0.19829 0.05654 0.0
C7 C 0.28157 0.22167 0.1114 0.0
C8 C 0.13593 0.17251 0.04199 0.0
O9 O 0.14576 0.13961 0.052 0.0
C10 C 0.14844 0.17657 0.19408 0.0
C11 C 0.30403 0.25215 0.13229 0.0
C12 C 0.34809 0.24917 0.14216 0.0
C13 C 0.37051 0.27781 0.16116 0.0
C14 C 0.34873 0.30939 0.16985 0.0
C15 C 0.30548 0.31361 0.15843 0.0
C16 C 0.283 0.28455 0.14037 0.0
O17 O 0.24801 0.11122 0.13766 0.0
O18 O 0.22972 0.13171 0.07178 0.0
O19 O 0.13106 0.10015 0.12746 0.0
O20 O 0.16643 0.05269 0.13489 0.0
C21 C 0.13334 0.06689 0.11611 0.0
O22 O 0.16612 0.19358 0.16061 0.0
O23 O 0.15653 0.14313 0.20511 0.0
O24 O 0.2507 0.22823 0.08292 0.0
O25 O 0.27432 0.19345 0.13593 0.0
H26 H 0.36495 0.22477 0.13477 0.0
H27 H 0.36619 0.3312 0.1848 0.0
H28 H 0.24964 0.28742 0.13149 0.0
O29 O 0.2384 0.93357 0.78307 0.0
Tb30 Tb 0.21778 0.89491 0.83157 0.0
Eu31 Eu 0.22741 0.81435 0.88928 0.0
C32 C 0.26792 0.95709 0.79315 0.0
O33 O 0.28822 0.95435 0.83071 0.0
C34 C 0.26053 0.88917 0.9192 0.0
O35 O 0.1773 0.78712 0.93105 0.0
C36 C 0.30108 0.7834 0.88026 0.0
C37 C 0.13833 0.7992 0.92449 0.0
O38 O 0.13329 0.82525 0.89639 0.0
C39 C 0.17774 0.82411 0.79364 0.0
C40 C 0.32415 0.75448 0.85761 0.0
C41 C 0.36751 0.75909 0.84611 0.0
C42 C 0.39062 0.73119 0.82639 0.0
C43 C 0.36918 0.69917 0.81752 0.0
C44 C 0.32656 0.69369 0.83009 0.0
C45 C 0.30403 0.72169 0.84966 0.0
O46 O 0.27048 0.89307 0.87767 0.0
O47 O 0.23457 0.86343 0.93056 0.0
O48 O 0.17825 0.94023 0.85007 0.0
O49 O 0.16377 0.88946 0.87648 0.0
C50 C 0.15327 0.92287 0.87646 0.0
O51 O 0.18363 0.8067 0.83074 0.0
O52 O 0.19643 0.85473 0.78457 0.0
O53 O 0.27276 0.7741 0.91011 0.0
O54 O 0.28907 0.81086 0.85634 0.0
H55 H 0.38338 0.78403 0.85346 0.0
H56 H 0.38577 0.67829 0.80008 0.0
H57 H 0.27116 0.71776 0.85959 0.0
O58 O 0.79965 0.94607 0.243 0.0
Tb59 Tb 0.81813 0.90803 0.19323 0.0
Eu60 Eu 0.79707 0.83474 0.12568 0.0
C61 C 0.75984 0.95666 0.24704 0.0
O62 O 0.72966 0.94054 0.22455 0.0
C63 C 0.77078 0.91339 0.10954 0.0
O64 O 0.83984 0.79861 0.08723 0.0
C65 C 0.72388 0.80623 0.14484 0.0
C66 C 0.85924 0.81084 0.05231 0.0
O67 O 0.84731 0.84159 0.03592 0.0
C68 C 0.85507 0.83458 0.21606 0.0
C69 C 0.70286 0.7742 0.16277 0.0
C70 C 0.65908 0.77566 0.17344 0.0
C71 C 0.63716 0.74501 0.18784 0.0
C72 C 0.66023 0.71322 0.19239 0.0
C73 C 0.70344 0.71127 0.18109 0.0
C74 C 0.7249 0.74176 0.16633 0.0
O75 O 0.76278 0.90925 0.15127 0.0
O76 O 0.79105 0.88738 0.09006 0.0
O77 O 0.86369 0.9504 0.17867 0.0
O78 O 0.86841 0.90184 0.14361 0.0
C79 C 0.88415 0.93369 0.14802 0.0
O80 O 0.85013 0.82459 0.17491 0.0
O81 O 0.83474 0.86202 0.23265 0.0
O82 O 0.74247 0.80277 0.10635 0.0
O83 O 0.74527 0.82671 0.17243 0.0
H84 H 0.64188 0.8004 0.16914 0.0
H85 H 0.64449 0.68942 0.20433 0.0
H86 H 0.75822 0.74013 0.157 0.0
O87 O 0.82733 0.04725 0.81397 0.0
Tb88 Tb 0.84939 0.08483 0.86293 0.0
Eu89 Eu 0.80811 0.20318 0.88265 0.0
C90 C 0.78924 0.03257 0.81615 0.0
O91 O 0.76233 0.04327 0.84626 0.0
C92 C 0.80599 0.13051 0.93271 0.0
O93 O 0.84398 0.2554 0.87939 0.0
C94 C 0.7295 0.21776 0.86099 0.0
C95 C 0.88024 0.26684 0.89649 0.0
O96 O 0.8905 0.30015 0.88866 0.0
C97 C 0.87454 0.15526 0.82412 0.0
C98 C 0.70546 0.2488 0.84464 0.0
C99 C 0.6633 0.24455 0.82913 0.0
C100 C 0.641 0.27367 0.81134 0.0
C101 C 0.66115 0.30704 0.81015 0.0
C102 C 0.70284 0.31201 0.82627 0.0
C103 C 0.72496 0.28252 0.84328 0.0
O104 O 0.80317 0.12086 0.89152 0.0
O105 O 0.80824 0.16497 0.94121 0.0
O106 O 0.86811 0.04394 0.91081 0.0
O107 O 0.91184 0.08483 0.89458 0.0
C108 C 0.90636 0.05639 0.91803 0.0
O109 O 0.83526 0.16201 0.83671 0.0
O110 O 0.88552 0.12162 0.82263 0.0
O111 O 0.74419 0.21996 0.90138 0.0
O112 O 0.75732 0.2041 0.83365 0.0
H113 H 0.64831 0.21855 0.82997 0.0
H114 H 0.6441 0.32935 0.79605 0.0
H115 H 0.75726 0.28567 0.8556 0.0
O116 O 0.71423 0.56504 0.72022 0.0
Tb117 Tb 0.70481 0.60511 0.66978 0.0
Eu118 Eu 0.73152 0.68727 0.61316 0.0
C119 C 0.75271 0.55326 0.72968 0.0
O120 O 0.78598 0.56868 0.71166 0.0
C121 C 0.76128 0.61079 0.5938 0.0
O122 O 0.68582 0.71202 0.5645 0.0
C123 C 0.80574 0.71832 0.61985 0.0
C124 C 0.64452 0.70918 0.5719 0.0
O125 O 0.63165 0.69273 0.60748 0.0
C126 C 0.67163 0.68044 0.70441 0.0
C127 C 0.82948 0.74704 0.64243 0.0
C128 C 0.87419 0.74431 0.648 0.0
C129 C 0.89721 0.77162 0.66906 0.0
C130 C 0.87533 0.80176 0.68365 0.0
C131 C 0.83111 0.8054 0.6772 0.0
C132 C 0.80818 0.77762 0.6572 0.0
O133 O 0.76471 0.61196 0.63649 0.0
O134 O 0.73934 0.63632 0.57539 0.0
O135 O 0.67509 0.56186 0.63269 0.0
O136 O 0.6498 0.61388 0.62631 0.0
C137 C 0.64608 0.58103 0.6135 0.0
O138 O 0.68879 0.69878 0.67171 0.0
O139 O 0.67859 0.64624 0.71184 0.0
O140 O 0.77608 0.72799 0.59153 0.0
O141 O 0.79472 0.69049 0.64353 0.0
H142 H 0.89089 0.72093 0.63641 0.0
H143 H 0.89311 0.82263 0.70019 0.0
H144 H 0.77401 0.7801 0.65224 0.0
O145 O 0.71048 0.44669 0.27012 0.0
Tb146 Tb 0.6928 0.40729 0.3192 0.0
Eu147 Eu 0.70641 0.32595 0.37528 0.0
C148 C 0.73884 0.47123 0.28043 0.0
O149 O 0.75859 0.46915 0.31836 0.0
C150 C 0.73952 0.40045 0.40508 0.0
O151 O 0.66176 0.29439 0.41829 0.0
C152 C 0.77956 0.29592 0.35921 0.0
C153 C 0.62191 0.30539 0.41797 0.0
O154 O 0.6122 0.33359 0.39462 0.0
C155 C 0.65099 0.33687 0.28378 0.0
C156 C 0.80077 0.26546 0.33767 0.0
C157 C 0.84407 0.26823 0.32501 0.0
C158 C 0.86595 0.23852 0.30787 0.0
C159 C 0.84327 0.20656 0.30277 0.0
C160 C 0.80091 0.20291 0.317 0.0
C161 C 0.77948 0.23269 0.3336 0.0
O162 O 0.74725 0.40488 0.36318 0.0
O163 O 0.71463 0.37436 0.41748 0.0
O164 O 0.63419 0.39985 0.35756 0.0
O165 O 0.65731 0.4521 0.34592 0.0
C166 C 0.62782 0.43346 0.36498 0.0
O167 O 0.65706 0.32008 0.32127 0.0
O168 O 0.67184 0.36621 0.27304 0.0
O169 O 0.75591 0.28856 0.39371 0.0
O170 O 0.76318 0.32097 0.33401 0.0
H171 H 0.86093 0.29311 0.32988 0.0
H172 H 0.85878 0.18398 0.28764 0.0
H173 H 0.74683 0.23006 0.34489 0.0
O174 O 0.32225 0.44871 0.70458 0.0
Tb175 Tb 0.33933 0.41855 0.64671 0.0
Eu176 Eu 0.29105 0.32071 0.62653 0.0
C177 C 0.28362 0.46211 0.70794 0.0
O178 O 0.25463 0.45345 0.6786 0.0
C179 C 0.27608 0.39327 0.58005 0.0
O180 O 0.34555 0.28654 0.6043 0.0
C181 C 0.22154 0.286 0.64467 0.0
C182 C 0.35201 0.28276 0.56209 0.0
O183 O 0.3233 0.29532 0.53464 0.0
C184 C 0.36844 0.34531 0.68762 0.0
C185 C 0.20463 0.25764 0.67347 0.0
C186 C 0.16521 0.26243 0.695 0.0
C187 C 0.14645 0.23449 0.7193 0.0
C188 C 0.16842 0.20189 0.72175 0.0
C189 C 0.20791 0.19713 0.70129 0.0
C190 C 0.22588 0.22488 0.67704 0.0
O191 O 0.2784 0.40238 0.62118 0.0
O192 O 0.28126 0.35962 0.57086 0.0
O193 O 0.3665 0.46975 0.62771 0.0
O194 O 0.37914 0.42482 0.5881 0.0
C195 C 0.3866 0.45862 0.59314 0.0
O196 O 0.32811 0.33491 0.68845 0.0
O197 O 0.37991 0.37633 0.67124 0.0
O198 O 0.24868 0.27626 0.61406 0.0
O199 O 0.23122 0.31671 0.66295 0.0
H200 H 0.1491 0.28778 0.69217 0.0
H201 H 0.15421 0.17918 0.73801 0.0
H202 H 0.2561 0.2207 0.66061 0.0
O203 O 0.30159 0.56584 0.26035 0.0
Tb204 Tb 0.32084 0.59895 0.3153 0.0
Eu205 Eu 0.29577 0.68466 0.37409 0.0
C206 C 0.26195 0.55479 0.25543 0.0
O207 O 0.23176 0.5689 0.27956 0.0
C208 C 0.26826 0.60731 0.39351 0.0
O209 O 0.35349 0.70759 0.40873 0.0
C210 C 0.22609 0.72175 0.3806 0.0
C211 C 0.39136 0.69701 0.39557 0.0
O212 O 0.39383 0.67217 0.36559 0.0
C213 C 0.35219 0.67587 0.28275 0.0
C214 C 0.20232 0.75133 0.3597 0.0
C215 C 0.15864 0.74664 0.34979 0.0
C216 C 0.13525 0.77401 0.3297 0.0
C217 C 0.15551 0.80625 0.32015 0.0
C218 C 0.19836 0.81232 0.33191 0.0
C219 C 0.22191 0.78438 0.35098 0.0
O220 O 0.26352 0.60983 0.35104 0.0
O221 O 0.28815 0.63376 0.4126 0.0
O222 O 0.35087 0.54876 0.33413 0.0
O223 O 0.36705 0.59542 0.36939 0.0
C224 C 0.37374 0.56142 0.36616 0.0
O225 O 0.32317 0.69338 0.30572 0.0
O226 O 0.35698 0.64094 0.28354 0.0
O227 O 0.26146 0.72943 0.40218 0.0
O228 O 0.22848 0.69196 0.35814 0.0
H229 H 0.14289 0.72173 0.35759 0.0
H230 H 0.13717 0.82706 0.30428 0.0
H231 H 0.25504 0.78859 0.35998 0.0
H232 H 0.18181 0.01845 0.28411 0.0
H233 H 0.31228 0.01506 0.23693 0.0
H234 H 0.31947 0.95376 0.26502 0.0
H235 H 0.20012 0.96216 0.38437 0.0
H236 H 0.14847 0.94139 0.37852 0.0
H237 H 0.15622 0.98671 0.36093 0.0
H238 H 0.12796 0.97004 0.28358 0.0
H239 H 0.12069 0.92469 0.30065 0.0
H240 H 0.15336 0.93463 0.25364 0.0
H241 H 0.30791 0.8894 0.2868 0.0
H242 H 0.28002 0.82958 0.30488 0.0
H243 H 0.15918 0.8768 0.34255 0.0
C244 C 0.21233 1.00523 0.28088 0.0
C245 C 0.24649 0.02158 0.25847 0.0
C246 C 0.28576 1.00322 0.25442 0.0
C247 C 0.29014 0.96832 0.27018 0.0
C248 C 0.25524 0.95243 0.29067 0.0
C249 C 0.21736 0.97061 0.29685 0.0
C250 C 0.18363 0.9469 0.31696 0.0
C251 C 0.17141 0.96008 0.36293 0.0
C252 C 0.14411 0.94389 0.2869 0.0
C253 C 0.20777 0.91216 0.31931 0.0
C254 C 0.2491 0.91578 0.3043 0.0
C255 C 0.27593 0.88643 0.29965 0.0
C256 C 0.25985 0.85252 0.31011 0.0
C257 C 0.2173 0.84828 0.32498 0.0
C258 C 0.19165 0.87884 0.33071 0.0
H259 H 0.10092 0.79909 0.81924 0.0
H260 H 0.17437 0.82248 0.70263 0.0
H261 H 0.11246 0.80401 0.65633 0.0
H262 H 0.03838 0.72508 0.78161 0.0
H263 H 0.99016 0.74019 0.80759 0.0
H264 H 0.04146 0.75138 0.83093 0.0
H265 H 0.0233 0.81889 0.82728 0.0
H266 H 0.97146 0.80827 0.80493 0.0
H267 H 1.00656 0.83796 0.77595 0.0
H268 H 0.03892 0.78472 0.62341 0.0
H269 H 0.96174 0.77433 0.6083 0.0
H270 H 0.93763 0.76842 0.74773 0.0
C271 C 0.10451 0.79946 0.78393 0.0
C272 C 0.1429 0.81119 0.76448 0.0
C273 C 0.14548 0.81293 0.71816 0.0
C274 C 0.11049 0.80241 0.69171 0.0
C275 C 0.07288 0.79105 0.71216 0.0
C276 C 0.06973 0.79023 0.75736 0.0
C277 C 0.02477 0.78171 0.77194 0.0
C278 C 0.02364 0.74757 0.79968 0.0
C279 C 1.00537 0.81354 0.79653 0.0
C280 C 1.00302 0.77646 0.72813 0.0
C281 C 0.03106 0.78181 0.69377 0.0
C282 C 0.01701 0.78019 0.65021 0.0
C283 C 0.97323 0.77399 0.64185 0.0
C284 C 0.94405 0.76987 0.67687 0.0
C285 C 0.95947 0.77059 0.72038 0.0
H286 H 0.83752 0.13997 0.33967 0.0
H287 H 0.71906 0.18513 0.29116 0.0
H288 H 0.6899 0.12441 0.2808 0.0
H289 H 0.84498 0.07611 0.26105 0.0
H290 H 0.86856 0.04268 0.29588 0.0
H291 H 0.87588 0.08891 0.30852 0.0
H292 H 0.84455 0.07846 0.38614 0.0
H293 H 0.83701 0.03202 0.37363 0.0
H294 H 0.79248 0.05843 0.39176 0.0
H295 H 0.67839 0.05909 0.26522 0.0
H296 H 0.68663 0.9965 0.24246 0.0
H297 H 0.81423 0.99524 0.29845 0.0
C298 C 0.80513 0.13717 0.32752 0.0
C299 C 0.78059 0.16723 0.31599 0.0
C300 C 0.73826 0.16244 0.30058 0.0
C301 C 0.72149 0.12806 0.29462 0.0
C302 C 0.74736 0.09894 0.30465 0.0
C303 C 0.78829 0.10328 0.32094 0.0
C304 C 0.81188 0.06833 0.32376 0.0
C305 C 0.85269 0.06907 0.29562 0.0
C306 C 0.82206 0.05875 0.37168 0.0
C307 C 0.77853 0.04365 0.30473 0.0
C308 C 0.74114 0.06154 0.29486 0.0
C309 C 0.7072 0.04471 0.27356 0.0
C310 C 0.71218 0.0091 0.2608 0.0
C311 C 0.75108 0.99097 0.26877 0.0
C312 C 0.78396 0.00825 0.29229 0.0
H313 H 0.95632 0.15068 0.85052 0.0
H314 H 0.86893 0.21894 0.77955 0.0
H315 H 0.93054 0.25441 0.75226 0.0
H316 H 0.03545 0.21976 0.87945 0.0
H317 H 0.08066 0.19083 0.87156 0.0
H318 H 0.0306 0.17288 0.89042 0.0
H319 H 0.02591 0.12852 0.82741 0.0
H320 H 0.07688 0.14366 0.80801 0.0
H321 H 0.03131 0.1439 0.77168 0.0
H322 H 1.0031 0.27202 0.71932 0.0
H323 H 0.07695 0.27482 0.6917 0.0
H324 H 0.11605 0.20024 0.79304 0.0
C325 C 0.95003 0.17393 0.83051 0.0
C326 C 0.90806 0.18231 0.81718 0.0
C327 C 0.90092 0.21254 0.79061 0.0
C328 C 0.93575 0.23262 0.77484 0.0
C329 C 0.97716 0.22248 0.78696 0.0
C330 C 0.98412 0.19432 0.81527 0.0
C331 C 0.03118 0.18657 0.82086 0.0
C332 C 0.04539 0.19294 0.86843 0.0
C333 C 0.04191 0.14843 0.80608 0.0
C334 C 0.04992 0.21391 0.79005 0.0
C335 C 0.01849 0.23424 0.77038 0.0
C336 C 0.02806 0.25716 0.73571 0.0
C337 C 0.07043 0.2587 0.72032 0.0
C338 C 0.10304 0.23768 0.7398 0.0
C339 C 0.09237 0.21635 0.77649 0.0
H340 H 0.27515 0.02291 0.82733 0.0
H341 H 0.2616 0.96675 0.70418 0.0
H342 H 0.256 0.02443 0.66496 0.0
H343 H 0.19558 0.08282 0.80558 0.0
H344 H 0.22005 0.1198 0.83369 0.0
H345 H 0.23218 0.07511 0.85037 0.0
H346 H 0.31283 0.08716 0.83928 0.0
H347 H 0.30115 0.13212 0.82264 0.0
H348 H 0.33159 0.10352 0.78716 0.0
H349 H 0.24542 0.08811 0.64063 0.0
H350 H 0.22273 0.15107 0.63416 0.0
H351 H 0.23703 0.16397 0.77457 0.0
C352 C 0.27274 0.02284 0.79194 0.0
C353 C 0.2701 0.99065 0.76847 0.0
C354 C 0.26452 0.99133 0.72245 0.0
C355 C 0.26147 0.0239 0.70002 0.0
C356 C 0.26337 0.05532 0.72436 0.0
C357 C 0.26846 0.05493 0.76943 0.0
C358 C 0.26301 0.09158 0.78897 0.0
C359 C 0.22548 0.09235 0.82154 0.0
C360 C 0.30464 0.10434 0.81079 0.0
C361 C 0.2532 0.11269 0.74796 0.0
C362 C 0.25462 0.09156 0.71085 0.0
C363 C 0.24471 0.10497 0.66937 0.0
C364 C 0.23204 0.14066 0.66593 0.0
C365 C 0.22867 0.16206 0.70385 0.0
C366 C 0.24005 0.14807 0.74513 0.0
H367 H 0.09528 0.77455 0.25013 0.0
H368 H 0.07132 0.76993 0.38974 0.0
H369 H 0.99407 0.77943 0.37597 0.0
H370 H 0.02708 0.84249 0.22558 0.0
H371 H 1.00836 0.82536 0.17373 0.0
H372 H 0.06021 0.81295 0.19401 0.0
H373 H 0.03974 0.74639 0.18821 0.0
H374 H 0.98773 0.75855 0.16762 0.0
H375 H 0.99231 0.73036 0.21522 0.0
H376 H 0.92219 0.80069 0.34724 0.0
H377 H 0.86022 0.82414 0.30532 0.0
H378 H 0.93038 0.81003 0.1843 0.0
C379 C 0.07339 0.77412 0.27755 0.0
C380 C 0.08884 0.77093 0.32092 0.0
C381 C 0.05974 0.77155 0.35627 0.0
C382 C 0.01594 0.77716 0.34871 0.0
C383 C 1.00178 0.78143 0.30555 0.0
C384 C 0.02955 0.77904 0.27047 0.0
C385 C 1.00687 0.78657 0.22747 0.0
C386 C 0.02682 0.81876 0.20385 0.0
C387 C 1.00665 0.75349 0.19789 0.0
C388 C 0.96244 0.79491 0.24391 0.0
C389 C 0.96001 0.79194 0.28903 0.0
C390 C 0.92337 0.80209 0.31181 0.0
C391 C 0.88841 0.81551 0.28785 0.0
C392 C 0.89018 0.81814 0.24159 0.0
C393 C 0.92756 0.80726 0.21954 0.0
H394 H 0.83607 0.00627 0.74837 0.0
H395 H 0.72234 0.98586 0.82533 0.0
H396 H 0.71413 0.92746 0.78916 0.0
H397 H 0.80072 0.95778 0.64674 0.0
H398 H 0.85408 0.9417 0.63727 0.0
H399 H 0.84611 0.98426 0.66312 0.0
H400 H 0.89284 0.96399 0.7289 0.0
H401 H 0.90063 0.92141 0.70358 0.0
H402 H 0.87878 0.92395 0.75809 0.0
H403 H 0.72555 0.86746 0.75368 0.0
H404 H 0.75502 0.81239 0.72132 0.0
H405 H 0.85978 0.87329 0.6664 0.0
C406 C 0.80869 0.99001 0.75671 0.0
C407 C 0.77979 1.00066 0.78953 0.0
C408 C 0.74468 0.97839 0.79994 0.0
C409 C 0.73975 0.94516 0.77955 0.0
C410 C 0.7698 0.93488 0.74842 0.0
C411 C 0.80327 0.95695 0.73664 0.0
C412 C 0.8337 0.93855 0.70575 0.0
C413 C 0.83362 0.95665 0.66053 0.0
C414 C 0.87914 0.93688 0.72527 0.0
C415 C 0.81333 0.90214 0.70361 0.0
C416 C 0.77616 0.90054 0.72783 0.0
C417 C 0.75409 0.86862 0.7338 0.0
C418 C 0.77098 0.83748 0.71527 0.0
C419 C 0.80973 0.83858 0.69148 0.0
C420 C 0.83021 0.87158 0.68461 0.0
H421 H 0.92579 0.18547 0.31836 0.0
H422 H 0.91195 0.29337 0.26966 0.0
H423 H 0.98667 0.29179 0.24343 0.0
H424 H 0.03855 0.18956 0.34962 0.0
H425 H 0.04886 0.14505 0.33054 0.0
H426 H 0.99668 0.15658 0.35078 0.0
H427 H 0.96245 0.13531 0.27781 0.0
H428 H 0.01438 0.12357 0.25748 0.0
H429 H 0.98108 0.1537 0.2267 0.0
H430 H 0.06115 0.27591 0.21608 0.0
H431 H 0.12631 0.24723 0.18808 0.0
H432 H 0.08936 0.14856 0.25171 0.0
C433 C 0.93823 0.20897 0.30229 0.0
C434 C 0.91245 0.23957 0.29595 0.0
C435 C 0.93085 0.26976 0.27547 0.0
C436 C 0.97333 0.26902 0.26027 0.0
C437 C 0.99717 0.23794 0.26584 0.0
C438 C 0.98013 0.20847 0.28642 0.0
C439 C 1.01077 0.17728 0.28523 0.0
C440 C 0.02453 0.1665 0.33182 0.0
C441 C 0.99099 0.14562 0.26032 0.0
C442 C 0.04765 0.1935 0.26007 0.0
C443 C 0.03947 0.22864 0.24963 0.0
C444 C 0.06795 0.24853 0.2245 0.0
C445 C 0.10505 0.23191 0.20875 0.0
C446 C 0.1135 0.19553 0.21778 0.0
C447 C 0.0846 0.1765 0.24472 0.0
H448 H 0.69211 0.51769 0.77727 0.0
H449 H 0.8244 0.51193 0.73604 0.0
H450 H 0.82949 0.45129 0.7666 0.0
H451 H 0.70552 0.46339 0.88024 0.0
H452 H 0.65389 0.44291 0.87287 0.0
H453 H 0.66289 0.48779 0.85418 0.0
H454 H 0.63765 0.4698 0.7762 0.0
H455 H 0.62891 0.42495 0.79446 0.0
H456 H 0.66364 0.43344 0.74861 0.0
H457 H 0.81618 0.38783 0.78964 0.0
H458 H 0.78639 0.32847 0.80596 0.0
H459 H 0.66472 0.37708 0.8378 0.0
C460 C 0.72252 0.50409 0.77578 0.0
C461 C 0.75785 0.51959 0.75434 0.0
C462 C 0.79695 0.50074 0.75263 0.0
C463 C 0.80018 0.46623 0.76991 0.0
C464 C 0.76428 0.45123 0.78958 0.0
C465 C 0.7264 0.46983 0.7933 0.0
C466 C 0.69154 0.44683 0.81271 0.0
C467 C 0.67766 0.46108 0.85768 0.0
C468 C 0.65321 0.44357 0.7811 0.0
C469 C 0.71507 0.41191 0.81724 0.0
C470 C 0.7571 0.41496 0.80416 0.0
C471 C 0.78363 0.38531 0.80108 0.0
C472 C 0.76645 0.35163 0.81064 0.0
C473 C 0.72309 0.34787 0.8231 0.0
C474 C 0.69784 0.37877 0.82793 0.0
H475 H 0.412 0.27172 0.24008 0.0
H476 H 0.43375 0.28625 0.10113 0.0
H477 H 0.51002 0.29974 0.11605 0.0
H478 H 0.47544 0.34055 0.27696 0.0
H479 H 0.4971 0.31841 0.32445 0.0
H480 H 0.44564 0.3055 0.30332 0.0
H481 H 0.47057 0.24035 0.29518 0.0
H482 H 0.52201 0.2525 0.31748 0.0
H483 H 0.51853 0.23073 0.26495 0.0
H484 H 0.58157 0.32079 0.14808 0.0
H485 H 0.64367 0.33979 0.19341 0.0
H486 H 0.57628 0.30689 0.31061 0.0
C487 C 0.43331 0.27636 0.21276 0.0
C488 C 0.41737 0.27709 0.16932 0.0
C489 C 0.44571 0.28461 0.13446 0.0
C490 C 0.48896 0.2926 0.14273 0.0
C491 C 0.50357 0.29255 0.18607 0.0
C492 C 0.47673 0.28379 0.22043 0.0
C493 C 0.49982 0.28689 0.26412 0.0
C494 C 0.47819 0.31447 0.29394 0.0
C495 C 0.50291 0.25045 0.28677 0.0
C496 C 0.54338 0.29967 0.24917 0.0
C497 C 0.545 0.30305 0.20408 0.0
C498 C 0.58094 0.31736 0.18332 0.0
C499 C 0.61604 0.3282 0.20926 0.0
C500 C 0.61531 0.32409 0.25541 0.0
C501 C 0.57844 0.30941 0.27529 0.0
H502 H 0.36365 0.62837 0.83942 0.0
H503 H 0.24439 0.67913 0.80262 0.0
H504 H 0.21493 0.62068 0.78115 0.0
H505 H 0.36951 0.57681 0.74824 0.0
H506 H 0.39375 0.53893 0.77457 0.0
H507 H 0.40134 0.58257 0.79714 0.0
H508 H 0.37152 0.56083 0.87179 0.0
H509 H 0.36371 0.51696 0.84929 0.0
H510 H 0.31957 0.54014 0.87395 0.0
H511 H 0.20288 0.55915 0.75254 0.0
H512 H 0.21055 0.50146 0.71518 0.0
H513 H 0.33949 0.49194 0.76657 0.0
C514 C 0.33105 0.62722 0.8275 0.0
C515 C 0.30637 0.6584 0.82262 0.0
C516 C 0.26375 0.65559 0.80726 0.0
C517 C 0.24675 0.62247 0.79497 0.0
C518 C 0.27272 0.59249 0.79845 0.0
C519 C 0.314 0.59463 0.81441 0.0
C520 C 0.33763 0.55989 0.80887 0.0
C521 C 0.37789 0.56487 0.78051 0.0
C522 C 0.34875 0.54349 0.85365 0.0
C523 C 0.30388 0.53826 0.78534 0.0
C524 C 0.26626 0.55716 0.78072 0.0
C525 C 0.23188 0.54387 0.75664 0.0
C526 C 0.23658 0.51105 0.73548 0.0
C527 C 0.27567 0.49219 0.73795 0.0
C528 C 0.30906 0.50548 0.76451 0.0
H529 H 0.41231 0.65179 0.22457 0.0
H530 H 0.37107 0.7469 0.29276 0.0
H531 H 0.43688 0.77769 0.26951 0.0
H532 H 0.51713 0.65616 0.25576 0.0
H533 H 0.53928 0.64029 0.20494 0.0
H534 H 0.48605 0.62758 0.22044 0.0
H535 H 0.45612 0.65259 0.14733 0.0
H536 H 0.50946 0.66488 0.13115 0.0
H537 H 0.46779 0.69787 0.13196 0.0
H538 H 0.51294 0.79496 0.24819 0.0
H539 H 0.58918 0.79772 0.22723 0.0
H540 H 0.57852 0.69224 0.17043 0.0
C541 C 0.41628 0.67948 0.23343 0.0
C542 C 0.38606 0.69688 0.26024 0.0
C543 C 0.39318 0.73301 0.27164 0.0
C544 C 0.43072 0.75074 0.25878 0.0
C545 C 0.46066 0.73224 0.23393 0.0
C546 C 0.4534 0.69757 0.22071 0.0
C547 C 0.49175 0.68259 0.19699 0.0
C548 C 0.50959 0.64973 0.22098 0.0
C549 C 0.48061 0.67399 0.149 0.0
C550 C 0.52226 0.71378 0.20008 0.0
C551 C 0.50386 0.7423 0.22128 0.0
C552 C 0.52731 0.77301 0.23074 0.0
C553 C 0.57065 0.77441 0.21856 0.0
C554 C 0.59025 0.74521 0.19725 0.0
C555 C 0.56504 0.71495 0.18717 0.0
H556 H 0.76092 0.53702 0.30941 0.0
H557 H 0.72403 0.47937 0.19214 0.0
H558 H 0.72475 0.53576 0.15002 0.0
H559 H 0.69209 0.60649 0.29245 0.0
H560 H 0.7265 0.6404 0.31499 0.0
H561 H 0.73172 0.59517 0.33318 0.0
H562 H 0.81172 0.59595 0.31198 0.0
H563 H 0.80675 0.64129 0.29339 0.0
H564 H 0.82698 0.60769 0.25685 0.0
H565 H 0.72149 0.59881 0.12306 0.0
H566 H 0.70651 0.66313 0.11539 0.0
H567 H 0.74137 0.6796 0.25131 0.0
C568 C 0.75437 0.53608 0.27453 0.0
C569 C 0.74324 0.50381 0.25373 0.0
C570 C 0.73313 0.50381 0.20848 0.0
C571 C 0.73372 0.53566 0.18433 0.0
C572 C 0.74413 0.56721 0.20607 0.0
C573 C 0.75392 0.56764 0.25031 0.0
C574 C 0.75779 0.60528 0.26754 0.0
C575 C 0.72507 0.61222 0.30417 0.0
C576 C 0.80354 0.613 0.28336 0.0
C577 C 0.74733 0.62612 0.22639 0.0
C578 C 0.74071 0.6037 0.19098 0.0
C579 C 0.72745 0.61663 0.15027 0.0
C580 C 0.7193 0.65314 0.14607 0.0
C581 C 0.72405 0.67611 0.18244 0.0
C582 C 0.73912 0.6626 0.22273 0.0
H583 H 0.45185 0.34461 0.66491 0.0
H584 H 0.3625 0.29703 0.75608 0.0
H585 H 0.42272 0.26613 0.79329 0.0
H586 H 0.5256 0.26758 0.65836 0.0
H587 H 0.57137 0.2965 0.65409 0.0
H588 H 0.52043 0.31047 0.63245 0.0
H589 H 0.52478 0.36762 0.68018 0.0
H590 H 0.5753 0.35349 0.70213 0.0
H591 H 0.53186 0.36348 0.73869 0.0
H592 H 0.49541 0.24695 0.82594 0.0
H593 H 0.5711 0.24165 0.84962 0.0
H594 H 0.61051 0.3001 0.73407 0.0
C595 C 0.44477 0.32732 0.69239 0.0
C596 C 0.40258 0.32345 0.70792 0.0
C597 C 0.39461 0.30032 0.74364 0.0
C598 C 0.42864 0.28268 0.76489 0.0
C599 C 0.47017 0.28789 0.74931 0.0
C600 C 0.47803 0.30934 0.71338 0.0
C601 C 0.52529 0.31254 0.70413 0.0
C602 C 0.53631 0.29577 0.65961 0.0
C603 C 0.54015 0.35158 0.70645 0.0
C604 C 0.54323 0.29087 0.74165 0.0
C605 C 0.51118 0.27638 0.76719 0.0
C606 C 0.52065 0.25765 0.80564 0.0
C607 C 0.56373 0.25459 0.81877 0.0
C608 C 0.59668 0.27045 0.79371 0.0
C609 C 0.58606 0.2877 0.75397 0.0
H610 H 0.31654 0.52009 0.20055 0.0
H611 H 0.1898 0.51321 0.25699 0.0
H612 H 0.18259 0.45191 0.22893 0.0
H613 H 0.29456 0.46277 0.1018 0.0
H614 H 0.34714 0.44349 0.10501 0.0
H615 H 0.33875 0.48873 0.12241 0.0
H616 H 0.37171 0.47352 0.19826 0.0
H617 H 0.37963 0.42825 0.18146 0.0
H618 H 0.34919 0.43772 0.2301 0.0
H619 H 0.19489 0.38782 0.20652 0.0
H620 H 0.22429 0.32859 0.18832 0.0
H621 H 0.34103 0.37889 0.14321 0.0
C622 C 0.28666 0.50618 0.20575 0.0
C623 C 0.25372 0.52152 0.23084 0.0
C624 C 0.21537 0.50217 0.23748 0.0
C625 C 0.21099 0.46726 0.22172 0.0
C626 C 0.24493 0.45232 0.19875 0.0
C627 C 0.28172 0.47149 0.19008 0.0
C628 C 0.31515 0.44857 0.16839 0.0
C629 C 0.32442 0.46167 0.12162 0.0
C630 C 0.35631 0.44693 0.19622 0.0
C631 C 0.29218 0.41317 0.16789 0.0
C632 C 0.25159 0.41575 0.18515 0.0
C633 C 0.22623 0.38565 0.19193 0.0
C634 C 0.24314 0.35209 0.18142 0.0
C635 C 0.28506 0.34898 0.16454 0.0
C636 C 0.30906 0.38019 0.15651 0.0
H637 H 0.45267 0.67997 0.83413 0.0
H638 H 0.4338 0.78892 0.79145 0.0
H639 H 0.50831 0.79055 0.76438 0.0
H640 H 0.56611 0.68661 0.86456 0.0
H641 H 0.57783 0.64305 0.84319 0.0
H642 H 0.52559 0.65248 0.86487 0.0
H643 H 0.49093 0.63251 0.7915 0.0
H644 H 0.54293 0.62288 0.76976 0.0
H645 H 0.50795 0.65299 0.741 0.0
H646 H 0.58281 0.77744 0.73427 0.0
H647 H 0.6479 0.75102 0.70271 0.0
H648 H 0.61615 0.64996 0.76349 0.0
C649 C 0.46412 0.7044 0.81945 0.0
C650 C 0.437 0.73433 0.81486 0.0
C651 C 0.45386 0.76578 0.7959 0.0
C652 C 0.49618 0.76687 0.78025 0.0
C653 C 0.52143 0.73639 0.78401 0.0
C654 C 0.50589 0.70578 0.80333 0.0
C655 C 0.53769 0.67557 0.80012 0.0
C656 C 0.55269 0.66374 0.84592 0.0
C657 C 0.51875 0.64416 0.77404 0.0
C658 C 0.57343 0.69361 0.77513 0.0
C659 C 0.56377 0.7288 0.76655 0.0
C660 C 0.59084 0.75006 0.74139 0.0
C661 C 0.62794 0.73475 0.72364 0.0
C662 C 0.63775 0.69834 0.73077 0.0
C663 C 0.6104 0.67798 0.75793 0.0
H664 H 0.04966 0.08482 0.11076 0.0
H665 H 0.1391 1.00149 0.07816 0.0
H666 H 0.07907 0.96045 0.06333 0.0
H667 H 0.99059 0.0385 0.17464 0.0
H668 H 0.93863 0.05591 0.16084 0.0
H669 H 0.98526 0.08245 0.15152 0.0
H670 H 0.96512 0.08926 0.0695 0.0
H671 H 0.91767 0.06292 0.07844 0.0
H672 H 0.95527 0.05027 0.0367 0.0
H673 H 0.01254 0.92477 0.07185 0.0
H674 H 0.94707 0.89833 0.10373 0.0
H675 H 0.90144 1.00363 0.13626 0.0
C676 C 0.05633 0.05849 0.09819 0.0
C677 C 0.09871 0.04623 0.09529 0.0
C678 C 0.10667 0.01133 0.08027 0.0
C679 C 0.07272 0.98791 0.07159 0.0
C680 C 0.03105 0.99983 0.07822 0.0
C681 C 0.0227 0.03462 0.09053 0.0
C682 C 0.97646 0.03904 0.10399 0.0
C683 C 0.97258 0.05486 0.15049 0.0
C684 C 0.95219 0.06171 0.07015 0.0
C685 C 0.9616 1.00074 0.10237 0.0
C686 C 0.9927 0.97876 0.08519 0.0
C687 C 0.98764 0.94183 0.08442 0.0
C688 C 0.95053 0.92699 0.10279 0.0
C689 C 0.91973 0.94906 0.12272 0.0
C690 C 0.92476 0.9863 0.12121 0.0
H691 H 0.98989 0.07437 0.91689 0.0
H692 H 0.90307 0.99256 0.96168 0.0
H693 H 0.96372 0.95196 0.97354 0.0
H694 H 0.04328 0.02556 0.85091 0.0
H695 H 0.09608 0.04364 0.85925 0.0
H696 H 0.05027 0.07042 0.87065 0.0
H697 H 0.07585 0.08063 0.95016 0.0
H698 H 0.12286 0.05487 0.93874 0.0
H699 H 0.08933 0.04324 0.98456 0.0
H700 H 0.02862 0.91579 0.95938 0.0
H701 H 0.09168 0.88859 0.92422 0.0
H702 H 0.13591 0.99311 0.88518 0.0
C703 C 0.98395 0.04849 0.93128 0.0
C704 C 0.94187 0.03641 0.93817 0.0
C705 C 0.93504 1.00226 0.9562 0.0
C706 C 0.96947 0.97907 0.96317 0.0
C707 C 1.01045 0.99064 0.95219 0.0
C708 C 0.01792 0.02495 0.93747 0.0
C709 C 0.06288 0.02905 0.92008 0.0
C710 C 0.06306 0.04293 0.87242 0.0
C711 C 0.08932 0.05334 0.95026 0.0
C712 C 0.078 0.99095 0.9229 0.0
C713 C 0.04807 0.96942 0.94315 0.0
C714 C 0.05279 0.93252 0.94464 0.0
C715 C 0.08849 0.91726 0.92428 0.0
C716 C 0.11843 0.93888 0.90204 0.0
C717 C 0.11361 0.97612 0.9024 0.0
H718 H 0.56345 0.60169 0.61727 0.0
H719 H 0.64759 0.52503 0.55696 0.0
H720 H 0.58502 0.49259 0.52721 0.0
H721 H 0.49833 0.54057 0.65915 0.0
H722 H 0.44926 0.56525 0.65411 0.0
H723 H 0.49916 0.5885 0.65776 0.0
H724 H 0.48169 0.62073 0.58576 0.0
H725 H 0.43193 0.597 0.58002 0.0
H726 H 0.47062 0.59586 0.53637 0.0
H727 H 0.51454 0.46229 0.51676 0.0
H728 H 0.44554 0.43371 0.53453 0.0
H729 H 0.40761 0.52771 0.60637 0.0
C730 C 0.56851 0.57911 0.59589 0.0
C731 C 0.61001 0.56619 0.58837 0.0
C732 C 0.61583 0.53553 0.56231 0.0
C733 C 0.58048 0.51712 0.54511 0.0
C734 C 0.53957 0.52953 0.55474 0.0
C735 C 0.53349 0.55984 0.57978 0.0
C736 C 0.48732 0.56338 0.5937 0.0
C737 C 0.48333 0.56444 0.64413 0.0
C738 C 0.46664 0.59619 0.57261 0.0
C739 C 0.46886 0.52949 0.57479 0.0
C740 C 0.49898 0.51093 0.55095 0.0
C741 C 0.49051 0.47694 0.53461 0.0
C742 C 0.4512 0.46089 0.54481 0.0
C743 C 0.42139 0.47861 0.57178 0.0
C744 C 0.42962 0.51385 0.58511 0.0
H745 H 0.54461 0.4128 0.3599 0.0
H746 H 0.62898 0.49063 0.41848 0.0
H747 H 0.56689 0.52506 0.44408 0.0
H748 H 0.48161 0.46989 0.31184 0.0
H749 H 0.43122 0.44729 0.31869 0.0
H750 H 0.47985 0.4223 0.31921 0.0
H751 H 0.46093 0.39661 0.39529 0.0
H752 H 0.41178 0.42152 0.39531 0.0
H753 H 0.44908 0.42612 0.44017 0.0
H754 H 0.49883 0.55747 0.4482 0.0
H755 H 0.4328 0.58755 0.42394 0.0
H756 H 0.39151 0.49097 0.35889 0.0
C757 C 0.54963 0.43613 0.38009 0.0
C758 C 0.5912 0.44903 0.38798 0.0
C759 C 0.59716 0.4804 0.41265 0.0
C760 C 0.56205 0.49988 0.4276 0.0
C761 C 0.52114 0.48768 0.41734 0.0
C762 C 0.5147 0.45636 0.39423 0.0
C763 C 0.46859 0.45293 0.37946 0.0
C764 C 0.46517 0.44786 0.32936 0.0
C765 C 0.44626 0.4225 0.40406 0.0
C766 C 0.45136 0.48868 0.39385 0.0
C767 C 0.4815 0.50752 0.41771 0.0
C768 C 0.47468 0.54273 0.43032 0.0
C769 C 0.43715 0.55966 0.41632 0.0
C770 C 0.40742 0.54151 0.3894 0.0
C771 C 0.41372 0.50522 0.37979 0.0
H772 H 0.24464 0.08799 0.00801 0.0
H773 H 0.27147 0.04585 0.13775 0.0
H774 H 0.28206 0.98632 0.10614 0.0
H775 H 0.18635 0.01379 0.96739 0.0
H776 H 0.20816 0.0166 0.91281 0.0
H777 H 0.2042 0.05599 0.94594 0.0
H778 H 0.28473 0.06711 0.93461 0.0
H779 H 0.28992 0.02682 0.9032 0.0
H780 H 0.32274 0.03363 0.95104 0.0
H781 H 0.28443 0.93039 0.06121 0.0
H782 H 0.28026 0.88253 0.00562 0.0
H783 H 0.25394 0.96098 0.90505 0.0
C784 C 0.2531 0.06632 0.02976 0.0
C785 C 0.25713 0.07171 0.07553 0.0
C786 C 0.2682 0.04255 0.10272 0.0
C787 C 0.27432 0.00854 0.08501 0.0
C788 C 0.26976 1.0041 0.03988 0.0
C789 C 0.25963 0.0322 0.01255 0.0
C790 C 0.25602 0.0201 0.96524 0.0
C791 C 0.21099 0.02701 0.9468 0.0
C792 C 0.29039 0.038 0.93686 0.0
C793 C 0.26456 0.98065 0.97044 0.0
C794 C 0.27263 0.972 0.01375 0.0
C795 C 0.27893 0.93692 0.02707 0.0
C796 C 0.27654 0.90994 0.99536 0.0
C797 C 0.26834 0.91821 0.95085 0.0
C798 C 0.26246 0.95405 0.93833 0.0
H799 H 0.05724 0.80487 0.89649 0.0
H800 H 0.13286 0.76552 0.00536 0.0
H801 H 0.06614 0.75492 0.04756 0.0
H802 H 0.98982 0.85491 0.95558 0.0
H803 H 0.94311 0.84683 0.92231 0.0
H804 H 0.99524 0.84356 0.89847 0.0
H805 H 0.97894 0.77789 0.87426 0.0
H806 H 0.92621 0.78277 0.89671 0.0
H807 H 0.95995 0.74654 0.91411 0.0
H808 H 0.99058 0.75689 0.08066 0.0
H809 H 0.91685 0.77319 0.10182 0.0
H810 H 0.89396 0.81433 0.97106 0.0
C811 C 0.05984 0.79306 0.92876 0.0
C812 C 0.1001 0.78593 0.94769 0.0
C813 C 0.10222 0.77075 0.9901 0.0
C814 C 0.06449 0.76472 0.01421 0.0
C815 C 0.02523 0.7736 0.99502 0.0
C816 C 0.0229 0.78712 0.95293 0.0
C817 C 0.97809 0.79855 0.94101 0.0
C818 C 0.97651 0.83829 0.92864 0.0
C819 C 0.95966 0.77504 0.90436 0.0
C820 C 0.95568 0.79134 0.98369 0.0
C821 C 0.98279 0.77591 0.01419 0.0
C822 C 0.96908 0.7684 0.0567 0.0
C823 C 0.92708 0.77759 0.06834 0.0
C824 C 0.89974 0.79478 0.03781 0.0
C825 C 0.9141 0.80096 0.99484 0.0
H826 H 0.78015 0.06212 0.92333 0.0
H827 H 0.82738 0.13625 0.02085 0.0
H828 H 0.82097 0.08906 0.07767 0.0
H829 H 0.70386 0.01914 0.99299 0.0
H830 H 0.71142 0.97586 0.96897 0.0
H831 H 0.71966 0.01525 0.93639 0.0
H832 H 0.79714 0.99536 0.91791 0.0
H833 H 0.78699 0.9553 0.94852 0.0
H834 H 0.83216 0.98262 0.9623 0.0
H835 H 0.80467 0.03388 0.12408 0.0
H836 H 0.78928 0.97444 0.15454 0.0
H837 H 0.75994 0.93523 0.0242 0.0
C838 C 0.78985 0.06842 0.95641 0.0
C839 C 0.80493 0.10277 0.96744 0.0
C840 C 0.81609 0.11008 0.01154 0.0
C841 C 0.81243 0.08345 0.04395 0.0
C842 C 0.79738 0.04981 0.03163 0.0
C843 C 0.78669 0.04223 0.98871 0.0
C844 C 0.77095 1.00425 0.98359 0.0
C845 C 0.72367 1.00361 0.96967 0.0
C846 C 0.79849 0.9832 0.95112 0.0
C847 C 0.77643 0.99089 0.03009 0.0
C848 C 0.79025 0.01788 0.05762 0.0
C849 C 0.79471 0.0125 0.1026 0.0
C850 C 0.78592 0.97855 0.1196 0.0
C851 C 0.77457 0.94994 0.09156 0.0
C852 C 0.76936 0.95642 0.04627 0.0
H853 H 0.09872 0.23737 0.02454 0.0
H854 H 0.07917 0.12371 0.01002 0.0
H855 H 1.0089 0.13461 0.97585 0.0
H856 H 0.98658 0.25623 0.05088 0.0
H857 H 0.98728 0.29843 0.02285 0.0
H858 H 0.03547 0.28145 0.04757 0.0
H859 H 0.07413 0.28747 0.97366 0.0
H860 H 0.0263 0.30389 0.94792 0.0
H861 H 0.05311 0.26566 0.92579 0.0
H862 H 0.93992 0.1584 0.94233 0.0
H863 H 0.88205 0.19349 0.90748 0.0
H864 H 0.94774 0.29072 0.94405 0.0
C865 C 0.07981 0.21481 0.01393 0.0
C866 C 0.0948 0.17973 0.01943 0.0
C867 C 0.06867 0.15089 0.00563 0.0
C868 C 0.02845 0.15676 0.98658 0.0
C869 C 0.01444 0.19167 0.9819 0.0
C870 C 0.0394 0.22019 0.99513 0.0
C871 C 0.01714 0.2551 0.9862 0.0
C872 C 1.00596 0.2739 0.02945 0.0
C873 C 0.04423 0.27939 0.95659 0.0
C874 C 0.97717 0.24183 0.96325 0.0
C875 C 0.97539 0.20519 0.96224 0.0
C876 C 0.941 0.18716 0.94299 0.0
C877 C 0.90819 0.20724 0.92326 0.0
C878 C 0.91057 0.24477 0.92222 0.0
C879 C 0.94509 0.26201 0.94357 0.0
H880 H 0.7329 0.47279 0.39663 0.0
H881 H 0.77004 0.38978 0.48754 0.0
H882 H 0.7847 0.43524 0.5444 0.0
H883 H 0.81081 0.54079 0.43362 0.0
H884 H 0.77313 0.57653 0.42651 0.0
H885 H 0.76984 0.5377 0.3921 0.0
H886 H 0.69138 0.52953 0.41497 0.0
H887 H 0.69424 0.56736 0.45086 0.0
H888 H 0.67812 0.52475 0.47228 0.0
H889 H 0.79238 0.48932 0.59199 0.0
H890 H 0.78923 0.5477 0.62838 0.0
H891 H 0.74521 0.59575 0.50688 0.0
C892 C 0.74574 0.46435 0.42787 0.0
C893 C 0.75186 0.42792 0.43732 0.0
C894 C 0.76599 0.41765 0.47956 0.0
C895 C 0.77441 0.44326 0.51195 0.0
C896 C 0.76806 0.479 0.50164 0.0
C897 C 0.75391 0.48959 0.46067 0.0
C898 C 0.74675 0.52947 0.45907 0.0
C899 C 0.77695 0.54717 0.42587 0.0
C900 C 0.69981 0.53825 0.44872 0.0
C901 C 0.75842 0.53955 0.50574 0.0
C902 C 0.77112 0.5101 0.52955 0.0
C903 C 0.78265 0.51258 0.57361 0.0
C904 C 0.78071 0.54593 0.59404 0.0
C905 C 0.76681 0.5764 0.57065 0.0
C906 C 0.75604 0.57305 0.52572 0.0
H907 H 0.38049 0.28602 0.47802 0.0
H908 H 0.42023 0.25719 0.60979 0.0
H909 H 0.49429 0.24939 0.58357 0.0
H910 H 0.45799 0.22947 0.41589 0.0
H911 H 0.46515 0.26407 0.37566 0.0
H912 H 0.41454 0.25911 0.40285 0.0
H913 H 0.41872 0.32516 0.42709 0.0
H914 H 0.46947 0.32989 0.40059 0.0
H915 H 0.46447 0.3403 0.458 0.0
H916 H 0.56602 0.25381 0.54488 0.0
H917 H 0.62727 0.27233 0.49848 0.0
H918 H 0.53928 0.30052 0.39418 0.0
C919 C 0.40437 0.27684 0.50116 0.0
C920 C 0.39444 0.2718 0.5458 0.0
C921 C 0.42699 0.26079 0.57524 0.0
C922 C 0.46917 0.25628 0.56065 0.0
C923 C 0.4782 0.26286 0.5166 0.0
C924 C 0.44651 0.27277 0.48731 0.0
C925 C 0.46479 0.2831 0.44334 0.0
C926 C 0.44972 0.25737 0.40732 0.0
C927 C 0.45371 0.32189 0.43164 0.0
C928 C 0.51187 0.27875 0.45277 0.0
C929 C 0.5192 0.26629 0.49481 0.0
C930 C 0.56061 0.26291 0.51164 0.0
C931 C 0.59518 0.27338 0.48514 0.0
C932 C 0.58775 0.28771 0.44292 0.0
C933 C 0.54574 0.28943 0.42633 0.0
H934 H 0.28268 0.46579 0.58956 0.0
H935 H 0.26821 0.38292 0.49153 0.0
H936 H 0.26517 0.42872 0.43342 0.0
H937 H 0.21267 0.52888 0.54126 0.0
H938 H 0.24507 0.56703 0.55481 0.0
H939 H 0.2472 0.52783 0.58871 0.0
H940 H 0.32877 0.52499 0.57819 0.0
H941 H 0.32746 0.5638 0.54368 0.0
H942 H 0.35067 0.52319 0.52356 0.0
H943 H 0.26004 0.48334 0.38661 0.0
H944 H 0.25768 0.54281 0.35333 0.0
H945 H 0.2786 0.59072 0.48109 0.0
C946 C 0.27911 0.45721 0.55586 0.0
C947 C 0.27562 0.42069 0.54508 0.0
C948 C 0.27101 0.41067 0.50056 0.0
C949 C 0.26923 0.4365 0.46735 0.0
C950 C 0.27253 0.47222 0.47914 0.0
C951 C 0.27785 0.48262 0.52225 0.0
C952 C 0.28067 0.52281 0.52601 0.0
C953 C 0.24422 0.53749 0.55437 0.0
C954 C 0.32452 0.53435 0.5439 0.0
C955 C 0.27534 0.53342 0.47832 0.0
C956 C 0.27062 0.50379 0.45193 0.0
C957 C 0.26403 0.50671 0.40693 0.0
C958 C 0.26252 0.54075 0.38832 0.0
C959 C 0.2681 0.57161 0.41443 0.0
C960 C 0.27451 0.56772 0.46014 0.0
H961 H 0.55937 0.71854 0.58507 0.0
H962 H 0.65686 0.72358 0.48457 0.0
H963 H 0.60075 0.73178 0.42816 0.0
H964 H 0.48978 0.66714 0.52927 0.0
H965 H 0.44152 0.68786 0.54857 0.0
H966 H 0.48921 0.68987 0.58139 0.0
H967 H 0.4849 0.75873 0.58243 0.0
H968 H 0.43696 0.7569 0.54953 0.0
H969 H 0.48206 0.78282 0.53136 0.0
H970 H 0.53475 0.72639 0.38247 0.0
H971 H 0.46409 0.71146 0.3512 0.0
H972 H 0.40884 0.71301 0.48123 0.0
C973 C 0.56902 0.7225 0.55134 0.0
C974 C 0.61243 0.72045 0.5391 0.0
C975 C 0.62381 0.72537 0.49466 0.0
C976 C 0.59213 0.73008 0.46244 0.0
C977 C 0.54942 0.73059 0.47544 0.0
C978 C 0.53789 0.72761 0.51898 0.0
C979 C 0.48984 0.7252 0.52404 0.0
C980 C 0.47684 0.69047 0.5472 0.0
C981 C 0.47242 0.75787 0.54827 0.0
C982 C 0.47613 0.72515 0.47641 0.0
C983 C 0.51098 0.72874 0.44888 0.0
C984 C 0.50714 0.72467 0.40361 0.0
C985 C 0.46697 0.71601 0.38619 0.0
C986 C 0.43117 0.71173 0.41391 0.0
C987 C 0.43554 0.71734 0.45937 0.0
loop_
_geom_bond_atom_site_label_1
_geom_bond_atom_site_label_2
_geom_bond_distance
_geom_bond_site_symmetry_2
_ccdc_geom_bond_type
O0 Tb1 2.292 . S
O0 C3 1.255 . S
Tb1 O0 2.292 . S
Tb1 O17 2.326 . S
Tb1 O19 2.500 . S
Tb1 O20 2.473 . S
Tb1 O23 2.324 . S
Eu2 O6 2.292 . S
Eu2 C7 2.852 . S
Eu2 O18 2.324 . S
Eu2 O22 2.326 . S
Eu2 O24 2.500 . S
Eu2 O25 2.473 . S
C3 O0 1.255 . S
C3 O4 1.247 . S
O4 C3 1.247 . S
C5 O17 1.242 . S
C5 O18 1.258 . S
O6 Eu2 2.292 . S
O6 C8 1.255 . S
C7 Eu2 2.852 . S
C7 C11 1.503 . S
C7 O24 1.273 . S
C7 O25 1.257 . S
C8 O6 1.255 . S
C8 O9 1.247 . S
O9 C8 1.247 . S
C10 O22 1.242 . S
C10 O23 1.258 . S
C11 C7 1.503 . S
C11 C12 1.379 . S
C11 C16 1.392 . S
C12 C11 1.379 . S
C12 C13 1.404 . S
C12 H26 0.929 . S
C13 C12 1.404 . S
C13 C14 1.389 . S
C14 C13 1.389 . S
C14 C15 1.399 . S
C14 H27 0.931 . S
C15 C14 1.399 . S
C15 C16 1.390 . S
C16 C11 1.392 . S
C16 C15 1.390 . S
C16 H28 0.929 . S
O17 Tb1 2.326 . S
O17 C5 1.242 . S
O18 Eu2 2.324 . S
O18 C5 1.258 . S
O19 Tb1 2.500 . S
O19 C21 1.273 . S
O20 Tb1 2.473 . S
O20 C21 1.257 . S
C21 O19 1.273 . S
C21 O20 1.257 . S
O22 Eu2 2.326 . S
O22 C10 1.242 . S
O23 Tb1 2.324 . S
O23 C10 1.258 . S
O24 Eu2 2.500 . S
O24 C7 1.273 . S
O25 Eu2 2.473 . S
O25 C7 1.257 . S
H26 C12 0.929 . S
H27 C14 0.931 . S
H28 C16 0.929 . S
O29 Tb30 2.292 . S
O29 C32 1.255 . S
Tb30 O29 2.292 . S
Tb30 O46 2.326 . S
Tb30 O48 2.500 . S
Tb30 O49 2.473 . S
Tb30 O52 2.324 . S
Eu31 O35 2.292 . S
Eu31 C36 2.852 . S
Eu31 O47 2.324 . S
Eu31 O51 2.326 . S
Eu31 O53 2.500 . S
Eu31 O54 2.473 . S
C32 O29 1.255 . S
C32 O33 1.247 . S
O33 C32 1.247 . S
C34 O46 1.242 . S
C34 O47 1.258 . S
O35 Eu31 2.292 . S
O35 C37 1.255 . S
C36 Eu31 2.852 . S
C36 C40 1.503 . S
C36 O53 1.273 . S
C36 O54 1.257 . S
C37 O35 1.255 . S
C37 O38 1.247 . S
O38 C37 1.247 . S
C39 O51 1.242 . S
C39 O52 1.258 . S
C40 C36 1.503 . S
C40 C41 1.379 . S
C40 C45 1.392 . S
C41 C40 1.379 . S
C41 C42 1.404 . S
C41 H55 0.929 . S
C42 C41 1.404 . S
C42 C43 1.389 . S
C43 C42 1.389 . S
C43 C44 1.399 . S
C43 H56 0.931 . S
C44 C43 1.399 . S
C44 C45 1.390 . S
C45 C40 1.392 . S
C45 C44 1.390 . S
C45 H57 0.929 . S
O46 Tb30 2.326 . S
O46 C34 1.242 . S
O47 Eu31 2.324 . S
O47 C34 1.258 . S
O48 Tb30 2.500 . S
O48 C50 1.273 . S
O49 Tb30 2.473 . S
O49 C50 1.257 . S
C50 O48 1.273 . S
C50 O49 1.257 . S
O51 Eu31 2.326 . S
O51 C39 1.242 . S
O52 Tb30 2.324 . S
O52 C39 1.258 . S
O53 Eu31 2.500 . S
O53 C36 1.273 . S
O54 Eu31 2.473 . S
O54 C36 1.257 . S
H55 C41 0.929 . S
H56 C43 0.931 . S
H57 C45 0.929 . S
O58 Tb59 2.292 . S
O58 C61 1.255 . S
Tb59 O58 2.292 . S
Tb59 O75 2.326 . S
Tb59 O77 2.500 . S
Tb59 O78 2.473 . S
Tb59 O81 2.324 . S
Eu60 O64 2.292 . S
Eu60 C65 2.852 . S
Eu60 O76 2.324 . S
Eu60 O80 2.326 . S
Eu60 O82 2.500 . S
Eu60 O83 2.473 . S
C61 O58 1.255 . S
C61 O62 1.247 . S
O62 C61 1.247 . S
C63 O75 1.242 . S
C63 O76 1.258 . S
O64 Eu60 2.292 . S
O64 C66 1.255 . S
C65 Eu60 2.852 . S
C65 C69 1.503 . S
C65 O82 1.273 . S
C65 O83 1.257 . S
C66 O64 1.255 . S
C66 O67 1.247 . S
O67 C66 1.247 . S
C68 O80 1.242 . S
C68 O81 1.258 . S
C69 C65 1.503 . S
C69 C70 1.379 . S
C69 C74 1.392 . S
C70 C69 1.379 . S
C70 C71 1.404 . S
C70 H84 0.929 . S
C71 C70 1.404 . S
C71 C72 1.389 . S
C72 C71 1.389 . S
C72 C73 1.399 . S
C72 H85 0.931 . S
C73 C72 1.399 . S
C73 C74 1.390 . S
C74 C69 1.392 . S
C74 C73 1.390 . S
C74 H86 0.929 . S
O75 Tb59 2.326 . S
O75 C63 1.242 . S
O76 Eu60 2.324 . S
O76 C63 1.258 . S
O77 Tb59 2.500 . S
O77 C79 1.273 . S
O78 Tb59 2.473 . S
O78 C79 1.257 . S
C79 O77 1.273 . S
C79 O78 1.257 . S
O80 Eu60 2.326 . S
O80 C68 1.242 . S
O81 Tb59 2.324 . S
O81 C68 1.258 . S
O82 Eu60 2.500 . S
O82 C65 1.273 . S
O83 Eu60 2.473 . S
O83 C65 1.257 . S
H84 C70 0.929 . S
H85 C72 0.931 . S
H86 C74 0.929 . S
O87 Tb88 2.292 . S
O87 C90 1.255 . S
Tb88 O87 2.292 . S
Tb88 O104 2.326 . S
Tb88 O106 2.500 . S
Tb88 O107 2.473 . S
Tb88 O110 2.324 . S
Eu89 O93 2.292 . S
Eu89 C94 2.852 . S
Eu89 O105 2.324 . S
Eu89 O109 2.326 . S
Eu89 O111 2.500 . S
Eu89 O112 2.473 . S
C90 O87 1.255 . S
C90 O91 1.247 . S
O91 C90 1.247 . S
C92 O104 1.242 . S
C92 O105 1.258 . S
O93 Eu89 2.292 . S
O93 C95 1.255 . S
C94 Eu89 2.852 . S
C94 C98 1.503 . S
C94 O111 1.273 . S
C94 O112 1.257 . S
C95 O93 1.255 . S
C95 O96 1.247 . S
O96 C95 1.247 . S
C97 O109 1.242 . S
C97 O110 1.258 . S
C98 C94 1.503 . S
C98 C99 1.379 . S
C98 C103 1.392 . S
C99 C98 1.379 . S
C99 C100 1.404 . S
C99 H113 0.929 . S
C100 C99 1.404 . S
C100 C101 1.389 . S
C101 C100 1.389 . S
C101 C102 1.399 . S
C101 H114 0.931 . S
C102 C101 1.399 . S
C102 C103 1.390 . S
C103 C98 1.392 . S
C103 C102 1.390 . S
C103 H115 0.929 . S
O104 Tb88 2.326 . S
O104 C92 1.242 . S
O105 Eu89 2.324 . S
O105 C92 1.258 . S
O106 Tb88 2.500 . S
O106 C108 1.273 . S
O107 Tb88 2.473 . S
O107 C108 1.257 . S
C108 O106 1.273 . S
C108 O107 1.257 . S
O109 Eu89 2.326 . S
O109 C97 1.242 . S
O110 Tb88 2.324 . S
O110 C97 1.258 . S
O111 Eu89 2.500 . S
O111 C94 1.273 . S
O112 Eu89 2.473 . S
O112 C94 1.257 . S
H113 C99 0.929 . S
H114 C101 0.931 . S
H115 C103 0.929 . S
O116 Tb117 2.292 . S
O116 C119 1.255 . S
Tb117 O116 2.292 . S
Tb117 O133 2.326 . S
Tb117 O135 2.500 . S
Tb117 O136 2.473 . S
Tb117 O139 2.324 . S
Eu118 O122 2.292 . S
Eu118 C123 2.852 . S
Eu118 O134 2.324 . S
Eu118 O138 2.326 . S
Eu118 O140 2.500 . S
Eu118 O141 2.473 . S
C119 O116 1.255 . S
C119 O120 1.247 . S
O120 C119 1.247 . S
C121 O133 1.242 . S
C121 O134 1.258 . S
O122 Eu118 2.292 . S
O122 C124 1.255 . S
C123 Eu118 2.852 . S
C123 C127 1.503 . S
C123 O140 1.273 . S
C123 O141 1.257 . S
C124 O122 1.255 . S
C124 O125 1.247 . S
O125 C124 1.247 . S
C126 O138 1.242 . S
C126 O139 1.258 . S
C127 C123 1.503 . S
C127 C128 1.379 . S
C127 C132 1.392 . S
C128 C127 1.379 . S
C128 C129 1.404 . S
C128 H142 0.929 . S
C129 C128 1.404 . S
C129 C130 1.389 . S
C130 C129 1.389 . S
C130 C131 1.399 . S
C130 H143 0.931 . S
C131 C130 1.399 . S
C131 C132 1.390 . S
C132 C127 1.392 . S
C132 C131 1.390 . S
C132 H144 0.929 . S
O133 Tb117 2.326 . S
O133 C121 1.242 . S
O134 Eu118 2.324 . S
O134 C121 1.258 . S
O135 Tb117 2.500 . S
O135 C137 1.273 . S
O136 Tb117 2.473 . S
O136 C137 1.257 . S
C137 O135 1.273 . S
C137 O136 1.257 . S
O138 Eu118 2.326 . S
O138 C126 1.242 . S
O139 Tb117 2.324 . S
O139 C126 1.258 . S
O140 Eu118 2.500 . S
O140 C123 1.273 . S
O141 Eu118 2.473 . S
O141 C123 1.257 . S
H142 C128 0.929 . S
H143 C130 0.931 . S
H144 C132 0.929 . S
O145 Tb146 2.292 . S
O145 C148 1.255 . S
Tb146 O145 2.292 . S
Tb146 O162 2.326 . S
Tb146 O164 2.500 . S
Tb146 O165 2.473 . S
Tb146 O168 2.324 . S
Eu147 O151 2.292 . S
Eu147 C152 2.852 . S
Eu147 O163 2.324 . S
Eu147 O167 2.326 . S
Eu147 O169 2.500 . S
Eu147 O170 2.473 . S
C148 O145 1.255 . S
C148 O149 1.247 . S
O149 C148 1.247 . S
C150 O162 1.242 . S
C150 O163 1.258 . S
O151 Eu147 2.292 . S
O151 C153 1.255 . S
C152 Eu147 2.852 . S
C152 C156 1.503 . S
C152 O169 1.273 . S
C152 O170 1.257 . S
C153 O151 1.255 . S
C153 O154 1.247 . S
O154 C153 1.247 . S
C155 O167 1.242 . S
C155 O168 1.258 . S
C156 C152 1.503 . S
C156 C157 1.379 . S
C156 C161 1.392 . S
C157 C156 1.379 . S
C157 C158 1.404 . S
C157 H171 0.929 . S
C158 C157 1.404 . S
C158 C159 1.389 . S
C159 C158 1.389 . S
C159 C160 1.399 . S
C159 H172 0.931 . S
C160 C159 1.399 . S
C160 C161 1.390 . S
C161 C156 1.392 . S
C161 C160 1.390 . S
C161 H173 0.929 . S
O162 Tb146 2.326 . S
O162 C150 1.242 . S
O163 Eu147 2.324 . S
O163 C150 1.258 . S
O164 Tb146 2.500 . S
O164 C166 1.273 . S
O165 Tb146 2.473 . S
O165 C166 1.257 . S
C166 O164 1.273 . S
C166 O165 1.257 . S
O167 Eu147 2.326 . S
O167 C155 1.242 . S
O168 Tb146 2.324 . S
O168 C155 1.258 . S
O169 Eu147 2.500 . S
O169 C152 1.273 . S
O170 Eu147 2.473 . S
O170 C152 1.257 . S
H171 C157 0.929 . S
H172 C159 0.931 . S
H173 C161 0.929 . S
O174 Tb175 2.292 . S
O174 C177 1.255 . S
Tb175 O174 2.292 . S
Tb175 O191 2.326 . S
Tb175 O193 2.500 . S
Tb175 O194 2.473 . S
Tb175 O197 2.324 . S
Eu176 O180 2.292 . S
Eu176 C181 2.852 . S
Eu176 O192 2.324 . S
Eu176 O196 2.326 . S
Eu176 O198 2.500 . S
Eu176 O199 2.473 . S
C177 O174 1.255 . S
C177 O178 1.247 . S
O178 C177 1.247 . S
C179 O191 1.242 . S
C179 O192 1.258 . S
O180 Eu176 2.292 . S
O180 C182 1.255 . S
C181 Eu176 2.852 . S
C181 C185 1.503 . S
C181 O198 1.273 . S
C181 O199 1.257 . S
C182 O180 1.255 . S
C182 O183 1.247 . S
O183 C182 1.247 . S
C184 O196 1.242 . S
C184 O197 1.258 . S
C185 C181 1.503 . S
C185 C186 1.379 . S
C185 C190 1.392 . S
C186 C185 1.379 . S
C186 C187 1.404 . S
C186 H200 0.929 . S
C187 C186 1.404 . S
C187 C188 1.389 . S
C188 C187 1.389 . S
C188 C189 1.399 . S
C188 H201 0.931 . S
C189 C188 1.399 . S
C189 C190 1.390 . S
C190 C185 1.392 . S
C190 C189 1.390 . S
C190 H202 0.929 . S
O191 Tb175 2.326 . S
O191 C179 1.242 . S
O192 Eu176 2.324 . S
O192 C179 1.258 . S
O193 Tb175 2.500 . S
O193 C195 1.273 . S
O194 Tb175 2.473 . S
O194 C195 1.257 . S
C195 O193 1.273 . S
C195 O194 1.257 . S
O196 Eu176 2.326 . S
O196 C184 1.242 . S
O197 Tb175 2.324 . S
O197 C184 1.258 . S
O198 Eu176 2.500 . S
O198 C181 1.273 . S
O199 Eu176 2.473 . S
O199 C181 1.257 . S
H200 C186 0.929 . S
H201 C188 0.931 . S
H202 C190 0.929 . S
O203 Tb204 2.292 . S
O203 C206 1.255 . S
Tb204 O203 2.292 . S
Tb204 O220 2.326 . S
Tb204 O222 2.500 . S
Tb204 O223 2.473 . S
Tb204 O226 2.324 . S
Eu205 O209 2.292 . S
Eu205 C210 2.852 . S
Eu205 O221 2.324 . S
Eu205 O225 2.326 . S
Eu205 O227 2.500 . S
Eu205 O228 2.473 . S
C206 O203 1.255 . S
C206 O207 1.247 . S
O207 C206 1.247 . S
C208 O220 1.242 . S
C208 O221 1.258 . S
O209 Eu205 2.292 . S
O209 C211 1.255 . S
C210 Eu205 2.852 . S
C210 C214 1.503 . S
C210 O227 1.273 . S
C210 O228 1.257 . S
C211 O209 1.255 . S
C211 O212 1.247 . S
O212 C211 1.247 . S
C213 O225 1.242 . S
C213 O226 1.258 . S
C214 C210 1.503 . S
C214 C215 1.379 . S
C214 C219 1.392 . S
C215 C214 1.379 . S
C215 C216 1.404 . S
C215 H229 0.929 . S
C216 C215 1.404 . S
C216 C217 1.389 . S
C217 C216 1.389 . S
C217 C218 1.399 . S
C217 H230 0.931 . S
C218 C217 1.399 . S
C218 C219 1.390 . S
C219 C214 1.392 . S
C219 C218 1.390 . S
C219 H231 0.929 . S
O220 Tb204 2.326 . S
O220 C208 1.242 . S
O221 Eu205 2.324 . S
O221 C208 1.258 . S
O222 Tb204 2.500 . S
O222 C224 1.273 . S
O223 Tb204 2.473 . S
O223 C224 1.257 . S
C224 O222 1.273 . S
C224 O223 1.257 . S
O225 Eu205 2.326 . S
O225 C213 1.242 . S
O226 Tb204 2.324 . S
O226 C213 1.258 . S
O227 Eu205 2.500 . S
O227 C210 1.273 . S
O228 Eu205 2.473 . S
O228 C210 1.257 . S
H229 C215 0.929 . S
H230 C217 0.931 . S
H231 C219 0.929 . S
H232 C244 0.930 . S
H233 C246 0.941 . S
H234 C247 0.930 . S
H235 C251 0.959 . S
H236 C251 0.959 . S
H237 C251 0.961 . S
H238 C252 0.960 . S
H239 C252 0.961 . S
H240 C252 0.959 . S
H241 C255 0.929 . S
H242 C256 0.931 . S
H243 C258 0.930 . S
C244 H232 0.930 . S
C244 C245 1.399 . S
C244 C249 1.399 1_545 S
C245 C244 1.399 . S
C245 C246 1.395 . S
C246 H233 0.941 . S
C246 C245 1.395 . S
C246 C247 1.359 1_545 S
C247 H234 0.930 . S
C247 C246 1.359 1_565 S
C247 C248 1.390 . S
C248 C247 1.390 . S
C248 C249 1.394 . S
C248 C254 1.465 . S
C249 C244 1.399 1_565 S
C249 C248 1.394 . S
C249 C250 1.516 . S
C250 C249 1.516 . S
C250 C251 1.502 . S
C250 C252 1.561 . S
C250 C253 1.526 . S
C251 H235 0.959 . S
C251 H236 0.959 . S
C251 H237 0.961 . S
C251 C250 1.502 . S
C252 H238 0.960 . S
C252 H239 0.961 . S
C252 H240 0.959 . S
C252 C250 1.561 . S
C253 C250 1.526 . S
C253 C254 1.396 . S
C253 C258 1.390 . S
C254 C248 1.465 . S
C254 C253 1.396 . S
C254 C255 1.399 . S
C255 H241 0.929 . S
C255 C254 1.399 . S
C255 C256 1.385 . S
C256 H242 0.931 . S
C256 C255 1.385 . S
C256 C257 1.389 . S
C257 C256 1.389 . S
C257 C258 1.387 . S
C258 H243 0.930 . S
C258 C253 1.390 . S
C258 C257 1.387 . S
H259 C271 0.930 . S
H260 C273 0.930 . S
H261 C274 0.930 . S
H262 C278 0.959 . S
H263 C278 0.959 . S
H264 C278 0.961 . S
H265 C279 0.960 . S
H266 C279 0.961 . S
H267 C279 0.959 . S
H268 C282 0.929 . S
H269 C283 0.931 . S
H270 C285 0.930 . S
C271 H259 0.930 . S
C271 C272 1.399 . S
C271 C276 1.399 1_455 S
C272 C271 1.399 . S
C272 C273 1.376 . S
C273 H260 0.930 . S
C273 C272 1.376 . S
C273 C274 1.388 1_455 S
C274 H261 0.930 . S
C274 C273 1.388 1_655 S
C274 C275 1.390 . S
C275 C274 1.390 . S
C275 C276 1.394 . S
C275 C281 1.465 . S
C276 C271 1.399 1_655 S
C276 C275 1.394 . S
C276 C277 1.516 . S
C277 C276 1.516 . S
C277 C278 1.502 . S
C277 C279 1.561 . S
C277 C280 1.526 . S
C278 H262 0.959 . S
C278 H263 0.959 . S
C278 H264 0.961 . S
C278 C277 1.502 . S
C279 H265 0.960 . S
C279 H266 0.961 . S
C279 H267 0.959 . S
C279 C277 1.561 . S
C280 C277 1.526 . S
C280 C281 1.396 . S
C280 C285 1.390 . S
C281 C275 1.465 . S
C281 C280 1.396 . S
C281 C282 1.399 . S
C282 H268 0.929 . S
C282 C281 1.399 . S
C282 C283 1.385 . S
C283 H269 0.931 . S
C283 C282 1.385 . S
C283 C284 1.389 . S
C284 C283 1.389 . S
C284 C285 1.387 . S
C285 H270 0.930 . S
C285 C280 1.390 . S
C285 C284 1.387 . S
H286 C298 0.930 . S
H287 C300 0.930 . S
H288 C301 0.930 . S
H289 C305 0.959 . S
H290 C305 0.959 . S
H291 C305 0.961 . S
H292 C306 0.960 . S
H293 C306 0.961 . S
H294 C306 0.959 . S
H295 C309 0.929 . S
H296 C310 0.932 . S
H297 C312 0.930 . S
C298 H286 0.930 . S
C298 C299 1.399 . S
C298 C303 1.399 . S
C299 C298 1.399 . S
C299 C300 1.376 . S
C300 H287 0.930 . S
C300 C299 1.376 . S
C300 C301 1.388 . S
C301 H288 0.930 . S
C301 C300 1.388 . S
C301 C302 1.390 . S
C302 C301 1.390 . S
C302 C303 1.394 . S
C302 C308 1.465 . S
C303 C298 1.399 . S
C303 C302 1.394 . S
C303 C304 1.516 . S
C304 C303 1.516 . S
C304 C305 1.502 . S
C304 C306 1.561 . S
C304 C307 1.526 . S
C305 H289 0.959 . S
C305 H290 0.959 . S
C305 H291 0.961 . S
C305 C304 1.502 . S
C306 H292 0.960 . S
C306 H293 0.961 . S
C306 H294 0.959 . S
C306 C304 1.561 . S
C307 C304 1.526 . S
C307 C308 1.396 . S
C307 C312 1.390 1_545 S
C308 C302 1.465 . S
C308 C307 1.396 . S
C308 C309 1.399 . S
C309 H295 0.929 . S
C309 C308 1.399 . S
C309 C310 1.382 1_545 S
C310 H296 0.932 . S
C310 C309 1.382 1_565 S
C310 C311 1.392 . S
C311 C310 1.392 . S
C311 C312 1.387 . S
C312 H297 0.930 . S
C312 C307 1.390 1_565 S
C312 C311 1.387 . S
H313 C325 0.930 . S
H314 C327 0.930 . S
H315 C328 0.930 . S
H316 C332 0.959 . S
H317 C332 0.959 . S
H318 C332 0.961 . S
H319 C333 0.960 . S
H320 C333 0.961 . S
H321 C333 0.959 . S
H322 C336 0.929 . S
H323 C337 0.931 . S
H324 C339 0.930 . S
C325 H313 0.930 . S
C325 C326 1.399 . S
C325 C330 1.399 1_655 S
C326 C325 1.399 . S
C326 C327 1.376 . S
C327 H314 0.930 . S
C327 C326 1.376 . S
C327 C328 1.388 . S
C328 H315 0.930 . S
C328 C327 1.388 . S
C328 C329 1.390 1_655 S
C329 C328 1.390 1_455 S
C329 C330 1.394 . S
C329 C335 1.465 . S
C330 C325 1.399 1_455 S
C330 C329 1.394 . S
C330 C331 1.516 . S
C331 C330 1.516 . S
C331 C332 1.502 . S
C331 C333 1.561 . S
C331 C334 1.526 . S
C332 H316 0.959 . S
C332 H317 0.959 . S
C332 H318 0.961 . S
C332 C331 1.502 . S
C333 H319 0.960 . S
C333 H320 0.961 . S
C333 H321 0.959 . S
C333 C331 1.561 . S
C334 C331 1.526 . S
C334 C335 1.396 . S
C334 C339 1.390 . S
C335 C329 1.465 . S
C335 C334 1.396 . S
C335 C336 1.399 . S
C336 H322 0.929 . S
C336 C335 1.399 . S
C336 C337 1.385 . S
C337 H323 0.931 . S
C337 C336 1.385 . S
C337 C338 1.389 . S
C338 C337 1.389 . S
C338 C339 1.387 . S
C339 H324 0.930 . S
C339 C334 1.390 . S
C339 C338 1.387 . S
H340 C352 0.930 . S
H341 C354 0.930 . S
H342 C355 0.930 . S
H343 C359 0.959 . S
H344 C359 0.959 . S
H345 C359 0.961 . S
H346 C360 0.960 . S
H347 C360 0.961 . S
H348 C360 0.959 . S
H349 C363 0.929 . S
H350 C364 0.931 . S
H351 C366 0.930 . S
C352 H340 0.930 . S
C352 C353 1.399 1_545 S
C352 C357 1.399 . S
C353 C352 1.399 1_565 S
C353 C354 1.376 . S
C354 H341 0.930 . S
C354 C353 1.376 . S
C354 C355 1.388 1_565 S
C355 H342 0.930 . S
C355 C354 1.388 1_545 S
C355 C356 1.390 . S
C356 C355 1.390 . S
C356 C357 1.394 . S
C356 C362 1.465 . S
C357 C352 1.399 . S
C357 C356 1.394 . S
C357 C358 1.516 . S
C358 C357 1.516 . S
C358 C359 1.502 . S
C358 C360 1.561 . S
C358 C361 1.526 . S
C359 H343 0.959 . S
C359 H344 0.959 . S
C359 H345 0.961 . S
C359 C358 1.502 . S
C360 H346 0.960 . S
C360 H347 0.961 . S
C360 H348 0.959 . S
C360 C358 1.561 . S
C361 C358 1.526 . S
C361 C362 1.396 . S
C361 C366 1.390 . S
C362 C356 1.465 . S
C362 C361 1.396 . S
C362 C363 1.399 . S
C363 H349 0.929 . S
C363 C362 1.399 . S
C363 C364 1.385 . S
C364 H350 0.931 . S
C364 C363 1.385 . S
C364 C365 1.389 . S
C365 C364 1.389 . S
C365 C366 1.387 . S
C366 H351 0.930 . S
C366 C361 1.390 . S
C366 C365 1.387 . S
H367 C379 0.930 . S
H368 C381 0.930 . S
H369 C382 0.930 . S
H370 C386 0.959 . S
H371 C386 0.959 . S
H372 C386 0.961 . S
H373 C387 0.960 . S
H374 C387 0.961 . S
H375 C387 0.959 . S
H376 C390 0.929 . S
H377 C391 0.931 . S
H378 C393 0.930 . S
C379 H367 0.930 . S
C379 C380 1.399 . S
C379 C384 1.399 . S
C380 C379 1.399 . S
C380 C381 1.376 . S
C381 H368 0.930 . S
C381 C380 1.376 . S
C381 C382 1.388 . S
C382 H369 0.930 . S
C382 C381 1.388 . S
C382 C383 1.390 . S
C383 C382 1.390 . S
C383 C384 1.394 . S
C383 C389 1.465 . S
C384 C379 1.399 . S
C384 C383 1.394 . S
C384 C385 1.516 . S
C385 C384 1.516 . S
C385 C386 1.502 . S
C385 C387 1.561 . S
C385 C388 1.526 . S
C386 H370 0.959 . S
C386 H371 0.959 . S
C386 H372 0.961 . S
C386 C385 1.502 . S
C387 H373 0.960 . S
C387 H374 0.961 . S
C387 H375 0.959 . S
C387 C385 1.561 . S
C388 C385 1.526 . S
C388 C389 1.396 . S
C388 C393 1.390 1_455 S
C389 C383 1.465 . S
C389 C388 1.396 . S
C389 C390 1.399 1_455 S
C390 H376 0.929 . S
C390 C389 1.399 1_655 S
C390 C391 1.385 . S
C391 H377 0.931 . S
C391 C390 1.385 . S
C391 C392 1.389 . S
C392 C391 1.389 . S
C392 C393 1.387 . S
C393 H378 0.930 . S
C393 C388 1.390 1_655 S
C393 C392 1.387 . S
H394 C406 0.936 . S
H395 C408 0.930 . S
H396 C409 0.930 . S
H397 C413 0.959 . S
H398 C413 0.959 . S
H399 C413 0.961 . S
H400 C414 0.960 . S
H401 C414 0.961 . S
H402 C414 0.959 . S
H403 C417 0.929 . S
H404 C418 0.931 . S
H405 C420 0.930 . S
C406 H394 0.936 . S
C406 C407 1.414 . S
C406 C411 1.377 1_545 S
C407 C406 1.414 . S
C407 C408 1.376 . S
C408 H395 0.930 . S
C408 C407 1.376 . S
C408 C409 1.388 1_545 S
C409 H396 0.930 . S
C409 C408 1.388 1_565 S
C409 C410 1.390 . S
C410 C409 1.390 . S
C410 C411 1.394 . S
C410 C416 1.465 . S
C411 C406 1.377 1_565 S
C411 C410 1.394 . S
C411 C412 1.516 . S
C412 C411 1.516 . S
C412 C413 1.502 . S
C412 C414 1.561 . S
C412 C415 1.526 . S
C413 H397 0.959 . S
C413 H398 0.959 . S
C413 H399 0.961 . S
C413 C412 1.502 . S
C414 H400 0.960 . S
C414 H401 0.961 . S
C414 H402 0.959 . S
C414 C412 1.561 . S
C415 C412 1.526 . S
C415 C416 1.396 . S
C415 C420 1.390 . S
C416 C410 1.465 . S
C416 C415 1.396 . S
C416 C417 1.399 . S
C417 H403 0.929 . S
C417 C416 1.399 . S
C417 C418 1.385 . S
C418 H404 0.931 . S
C418 C417 1.385 . S
C418 C419 1.389 . S
C419 C418 1.389 . S
C419 C420 1.387 . S
C420 H405 0.930 . S
C420 C415 1.390 . S
C420 C419 1.387 . S
H421 C433 0.930 . S
H422 C435 0.930 . S
H423 C436 0.930 . S
H424 C440 0.959 . S
H425 C440 0.959 . S
H426 C440 0.961 . S
H427 C441 0.960 . S
H428 C441 0.961 . S
H429 C441 0.959 . S
H430 C444 0.929 . S
H431 C445 0.931 . S
H432 C447 0.930 . S
C433 H421 0.930 . S
C433 C434 1.399 . S
C433 C438 1.399 . S
C434 C433 1.399 . S
C434 C435 1.376 . S
C435 H422 0.930 . S
C435 C434 1.376 . S
C435 C436 1.388 . S
C436 H423 0.930 . S
C436 C435 1.388 . S
C436 C437 1.390 . S
C437 C436 1.390 . S
C437 C438 1.394 . S
C437 C443 1.465 . S
C438 C433 1.399 . S
C438 C437 1.394 . S
C438 C439 1.516 . S
C439 C438 1.516 . S
C439 C440 1.502 . S
C439 C441 1.561 . S
C439 C442 1.526 . S
C440 H424 0.959 . S
C440 H425 0.959 . S
C440 H426 0.961 . S
C440 C439 1.502 . S
C441 H427 0.960 . S
C441 H428 0.961 . S
C441 H429 0.959 . S
C441 C439 1.561 . S
C442 C439 1.526 . S
C442 C443 1.396 . S
C442 C447 1.390 1_655 S
C443 C437 1.465 . S
C443 C442 1.396 . S
C443 C444 1.399 . S
C444 H430 0.929 . S
C444 C443 1.399 . S
C444 C445 1.385 1_655 S
C445 H431 0.931 . S
C445 C444 1.385 1_455 S
C445 C446 1.389 . S
C446 C445 1.389 . S
C446 C447 1.387 . S
C447 H432 0.930 . S
C447 C442 1.390 1_455 S
C447 C446 1.387 . S
H448 C460 0.930 . S
H449 C462 0.930 . S
H450 C463 0.930 . S
H451 C467 0.959 . S
H452 C467 0.959 . S
H453 C467 0.961 . S
H454 C468 0.960 . S
H455 C468 0.961 . S
H456 C468 0.959 . S
H457 C471 0.929 . S
H458 C472 0.931 . S
H459 C474 0.930 . S
C460 H448 0.930 . S
C460 C461 1.399 . S
C460 C465 1.399 . S
C461 C460 1.399 . S
C461 C462 1.376 . S
C462 H449 0.930 . S
C462 C461 1.376 . S
C462 C463 1.388 . S
C463 H450 0.930 . S
C463 C462 1.388 . S
C463 C464 1.390 . S
C464 C463 1.390 . S
C464 C465 1.394 . S
C464 C470 1.465 . S
C465 C460 1.399 . S
C465 C464 1.394 . S
C465 C466 1.516 . S
C466 C465 1.516 . S
C466 C467 1.502 . S
C466 C468 1.561 . S
C466 C469 1.526 . S
C467 H451 0.959 . S
C467 H452 0.959 . S
C467 H453 0.961 . S
C467 C466 1.502 . S
C468 H454 0.960 . S
C468 H455 0.961 . S
C468 H456 0.959 . S
C468 C466 1.561 . S
C469 C466 1.526 . S
C469 C470 1.396 . S
C469 C474 1.390 . S
C470 C464 1.465 . S
C470 C469 1.396 . S
C470 C471 1.399 . S
C471 H457 0.929 . S
C471 C470 1.399 . S
C471 C472 1.385 . S
C472 H458 0.931 . S
C472 C471 1.385 . S
C472 C473 1.389 . S
C473 C472 1.389 . S
C473 C474 1.387 . S
C474 H459 0.930 . S
C474 C469 1.390 . S
C474 C473 1.387 . S
H475 C487 0.930 . S
H476 C489 0.930 . S
H477 C490 0.930 . S
H478 C494 0.959 . S
H479 C494 0.959 . S
H480 C494 0.961 . S
H481 C495 0.960 . S
H482 C495 0.961 . S
H483 C495 0.959 . S
H484 C498 0.929 . S
H485 C499 0.931 . S
H486 C501 0.930 . S
C487 H475 0.930 . S
C487 C488 1.399 . S
C487 C492 1.399 . S
C488 C487 1.399 . S
C488 C489 1.376 . S
C489 H476 0.930 . S
C489 C488 1.376 . S
C489 C490 1.388 . S
C490 H477 0.930 . S
C490 C489 1.388 . S
C490 C491 1.390 . S
C491 C490 1.390 . S
C491 C492 1.394 . S
C491 C497 1.465 . S
C492 C487 1.399 . S
C492 C491 1.394 . S
C492 C493 1.516 . S
C493 C492 1.516 . S
C493 C494 1.502 . S
C493 C495 1.561 . S
C493 C496 1.526 . S
C494 H478 0.959 . S
C494 H479 0.959 . S
C494 H480 0.961 . S
C494 C493 1.502 . S
C495 H481 0.960 . S
C495 H482 0.961 . S
C495 H483 0.959 . S
C495 C493 1.561 . S
C496 C493 1.526 . S
C496 C497 1.396 . S
C496 C501 1.390 . S
C497 C491 1.465 . S
C497 C496 1.396 . S
C497 C498 1.399 . S
C498 H484 0.929 . S
C498 C497 1.399 . S
C498 C499 1.385 . S
C499 H485 0.931 . S
C499 C498 1.385 . S
C499 C500 1.389 . S
C500 C499 1.389 . S
C500 C501 1.387 . S
C501 H486 0.930 . S
C501 C496 1.390 . S
C501 C500 1.387 . S
H502 C514 0.930 . S
H503 C516 0.930 . S
H504 C517 0.930 . S
H505 C521 0.959 . S
H506 C521 0.959 . S
H507 C521 0.961 . S
H508 C522 0.960 . S
H509 C522 0.961 . S
H510 C522 0.959 . S
H511 C525 0.929 . S
H512 C526 0.931 . S
H513 C528 0.930 . S
C514 H502 0.930 . S
C514 C515 1.399 . S
C514 C519 1.399 . S
C515 C514 1.399 . S
C515 C516 1.376 . S
C516 H503 0.930 . S
C516 C515 1.376 . S
C516 C517 1.388 . S
C517 H504 0.930 . S
C517 C516 1.388 . S
C517 C518 1.390 . S
C518 C517 1.390 . S
C518 C519 1.394 . S
C518 C524 1.465 . S
C519 C514 1.399 . S
C519 C518 1.394 . S
C519 C520 1.516 . S
C520 C519 1.516 . S
C520 C521 1.502 . S
C520 C522 1.561 . S
C520 C523 1.526 . S
C521 H505 0.959 . S
C521 H506 0.959 . S
C521 H507 0.961 . S
C521 C520 1.502 . S
C522 H508 0.960 . S
C522 H509 0.961 . S
C522 H510 0.959 . S
C522 C520 1.561 . S
C523 C520 1.526 . S
C523 C524 1.396 . S
C523 C528 1.390 . S
C524 C518 1.465 . S
C524 C523 1.396 . S
C524 C525 1.399 . S
C525 H511 0.929 . S
C525 C524 1.399 . S
C525 C526 1.385 . S
C526 H512 0.931 . S
C526 C525 1.385 . S
C526 C527 1.389 . S
C527 C526 1.389 . S
C527 C528 1.387 . S
C528 H513 0.930 . S
C528 C523 1.390 . S
C528 C527 1.387 . S
H529 C541 0.930 . S
H530 C543 0.930 . S
H531 C544 0.930 . S
H532 C548 0.959 . S
H533 C548 0.959 . S
H534 C548 0.961 . S
H535 C549 0.960 . S
H536 C549 0.961 . S
H537 C549 0.959 . S
H538 C552 0.929 . S
H539 C553 0.931 . S
H540 C555 0.930 . S
C541 H529 0.930 . S
C541 C542 1.399 . S
C541 C546 1.399 . S
C542 C541 1.399 . S
C542 C543 1.376 . S
C543 H530 0.930 . S
C543 C542 1.376 . S
C543 C544 1.388 . S
C544 H531 0.930 . S
C544 C543 1.388 . S
C544 C545 1.390 . S
C545 C544 1.390 . S
C545 C546 1.394 . S
C545 C551 1.465 . S
C546 C541 1.399 . S
C546 C545 1.394 . S
C546 C547 1.516 . S
C547 C546 1.516 . S
C547 C548 1.502 . S
C547 C549 1.561 . S
C547 C550 1.526 . S
C548 H532 0.959 . S
C548 H533 0.959 . S
C548 H534 0.961 . S
C548 C547 1.502 . S
C549 H535 0.960 . S
C549 H536 0.961 . S
C549 H537 0.959 . S
C549 C547 1.561 . S
C550 C547 1.526 . S
C550 C551 1.396 . S
C550 C555 1.390 . S
C551 C545 1.465 . S
C551 C550 1.396 . S
C551 C552 1.399 . S
C552 H538 0.929 . S
C552 C551 1.399 . S
C552 C553 1.385 . S
C553 H539 0.931 . S
C553 C552 1.385 . S
C553 C554 1.389 . S
C554 C553 1.389 . S
C554 C555 1.387 . S
C555 H540 0.930 . S
C555 C550 1.390 . S
C555 C554 1.387 . S
H556 C568 0.930 . S
H557 C570 0.930 . S
H558 C571 0.930 . S
H559 C575 0.959 . S
H560 C575 0.959 . S
H561 C575 0.961 . S
H562 C576 0.960 . S
H563 C576 0.961 . S
H564 C576 0.959 . S
H565 C579 0.929 . S
H566 C580 0.931 . S
H567 C582 0.930 . S
C568 H556 0.930 . S
C568 C569 1.399 . S
C568 C573 1.399 . S
C569 C568 1.399 . S
C569 C570 1.376 . S
C570 H557 0.930 . S
C570 C569 1.376 . S
C570 C571 1.388 . S
C571 H558 0.930 . S
C571 C570 1.388 . S
C571 C572 1.390 . S
C572 C571 1.390 . S
C572 C573 1.394 . S
C572 C578 1.465 . S
C573 C568 1.399 . S
C573 C572 1.394 . S
C573 C574 1.516 . S
C574 C573 1.516 . S
C574 C575 1.502 . S
C574 C576 1.561 . S
C574 C577 1.526 . S
C575 H559 0.959 . S
C575 H560 0.959 . S
C575 H561 0.961 . S
C575 C574 1.502 . S
C576 H562 0.960 . S
C576 H563 0.961 . S
C576 H564 0.959 . S
C576 C574 1.561 . S
C577 C574 1.526 . S
C577 C578 1.396 . S
C577 C582 1.390 . S
C578 C572 1.465 . S
C578 C577 1.396 . S
C578 C579 1.399 . S
C579 H565 0.929 . S
C579 C578 1.399 . S
C579 C580 1.385 . S
C580 H566 0.931 . S
C580 C579 1.385 . S
C580 C581 1.389 . S
C581 C580 1.389 . S
C581 C582 1.387 . S
C582 H567 0.930 . S
C582 C577 1.390 . S
C582 C581 1.387 . S
H583 C595 0.930 . S
H584 C597 0.930 . S
H585 C598 0.930 . S
H586 C602 0.959 . S
H587 C602 0.959 . S
H588 C602 0.961 . S
H589 C603 0.960 . S
H590 C603 0.961 . S
H591 C603 0.959 . S
H592 C606 0.929 . S
H593 C607 0.931 . S
H594 C609 0.930 . S
C595 H583 0.930 . S
C595 C596 1.399 . S
C595 C600 1.399 . S
C596 C595 1.399 . S
C596 C597 1.376 . S
C597 H584 0.930 . S
C597 C596 1.376 . S
C597 C598 1.388 . S
C598 H585 0.930 . S
C598 C597 1.388 . S
C598 C599 1.390 . S
C599 C598 1.390 . S
C599 C600 1.394 . S
C599 C605 1.465 . S
C600 C595 1.399 . S
C600 C599 1.394 . S
C600 C601 1.516 . S
C601 C600 1.516 . S
C601 C602 1.502 . S
C601 C603 1.561 . S
C601 C604 1.526 . S
C602 H586 0.959 . S
C602 H587 0.959 . S
C602 H588 0.961 . S
C602 C601 1.502 . S
C603 H589 0.960 . S
C603 H590 0.961 . S
C603 H591 0.959 . S
C603 C601 1.561 . S
C604 C601 1.526 . S
C604 C605 1.396 . S
C604 C609 1.390 . S
C605 C599 1.465 . S
C605 C604 1.396 . S
C605 C606 1.399 . S
C606 H592 0.929 . S
C606 C605 1.399 . S
C606 C607 1.385 . S
C607 H593 0.931 . S
C607 C606 1.385 . S
C607 C608 1.389 . S
C608 C607 1.389 . S
C608 C609 1.387 . S
C609 H594 0.930 . S
C609 C604 1.390 . S
C609 C608 1.387 . S
H610 C622 0.930 . S
H611 C624 0.930 . S
H612 C625 0.930 . S
H613 C629 0.959 . S
H614 C629 0.959 . S
H615 C629 0.961 . S
H616 C630 0.960 . S
H617 C630 0.961 . S
H618 C630 0.959 . S
H619 C633 0.929 . S
H620 C634 0.931 . S
H621 C636 0.930 . S
C622 H610 0.930 . S
C622 C623 1.399 . S
C622 C627 1.399 . S
C623 C622 1.399 . S
C623 C624 1.376 . S
C624 H611 0.930 . S
C624 C623 1.376 . S
C624 C625 1.388 . S
C625 H612 0.930 . S
C625 C624 1.388 . S
C625 C626 1.390 . S
C626 C625 1.390 . S
C626 C627 1.394 . S
C626 C632 1.465 . S
C627 C622 1.399 . S
C627 C626 1.394 . S
C627 C628 1.516 . S
C628 C627 1.516 . S
C628 C629 1.502 . S
C628 C630 1.561 . S
C628 C631 1.526 . S
C629 H613 0.959 . S
C629 H614 0.959 . S
C629 H615 0.961 . S
C629 C628 1.502 . S
C630 H616 0.960 . S
C630 H617 0.961 . S
C630 H618 0.959 . S
C630 C628 1.561 . S
C631 C628 1.526 . S
C631 C632 1.396 . S
C631 C636 1.390 . S
C632 C626 1.465 . S
C632 C631 1.396 . S
C632 C633 1.399 . S
C633 H619 0.929 . S
C633 C632 1.399 . S
C633 C634 1.385 . S
C634 H620 0.931 . S
C634 C633 1.385 . S
C634 C635 1.389 . S
C635 C634 1.389 . S
C635 C636 1.387 . S
C636 H621 0.930 . S
C636 C631 1.390 . S
C636 C635 1.387 . S
H637 C649 0.930 . S
H638 C651 0.930 . S
H639 C652 0.930 . S
H640 C656 0.959 . S
H641 C656 0.959 . S
H642 C656 0.961 . S
H643 C657 0.960 . S
H644 C657 0.961 . S
H645 C657 0.959 . S
H646 C660 0.929 . S
H647 C661 0.931 . S
H648 C663 0.930 . S
C649 H637 0.930 . S
C649 C650 1.399 . S
C649 C654 1.399 . S
C650 C649 1.399 . S
C650 C651 1.376 . S
C651 H638 0.930 . S
C651 C650 1.376 . S
C651 C652 1.388 . S
C652 H639 0.930 . S
C652 C651 1.388 . S
C652 C653 1.390 . S
C653 C652 1.390 . S
C653 C654 1.394 . S
C653 C659 1.465 . S
C654 C649 1.399 . S
C654 C653 1.394 . S
C654 C655 1.516 . S
C655 C654 1.516 . S
C655 C656 1.502 . S
C655 C657 1.561 . S
C655 C658 1.526 . S
C656 H640 0.959 . S
C656 H641 0.959 . S
C656 H642 0.961 . S
C656 C655 1.502 . S
C657 H643 0.960 . S
C657 H644 0.961 . S
C657 H645 0.959 . S
C657 C655 1.561 . S
C658 C655 1.526 . S
C658 C659 1.396 . S
C658 C663 1.390 . S
C659 C653 1.465 . S
C659 C658 1.396 . S
C659 C660 1.399 . S
C660 H646 0.929 . S
C660 C659 1.399 . S
C660 C661 1.385 . S
C661 H647 0.931 . S
C661 C660 1.385 . S
C661 C662 1.389 . S
C662 C661 1.389 . S
C662 C663 1.387 . S
C663 H648 0.930 . S
C663 C658 1.390 . S
C663 C662 1.387 . S
H664 C676 0.930 . S
H665 C678 0.930 . S
H666 C679 0.931 . S
H667 C683 0.959 . S
H668 C683 0.959 . S
H669 C683 0.961 . S
H670 C684 0.960 1_545 S
H671 C684 0.961 1_655 S
H672 C684 0.959 . S
H673 C687 0.929 . S
H674 C688 0.931 . S
H675 C690 0.930 . S
C676 H664 0.930 . S
C676 C677 1.399 . S
C676 C681 1.399 . S
C677 C676 1.399 . S
C677 C678 1.376 . S
C678 H665 0.930 . S
C678 C677 1.376 . S
C678 C679 1.388 . S
C679 H666 0.931 . S
C679 C678 1.388 . S
C679 C680 1.390 . S
C680 C679 1.390 . S
C680 C681 1.394 . S
C680 C686 1.465 1_445 S
C681 C676 1.399 . S
C681 C680 1.394 . S
C681 C682 1.516 1_455 S
C682 C681 1.516 1_655 S
C682 C683 1.502 . S
C682 C684 1.561 1_645 S
C682 C685 1.526 1_545 S
C683 H667 0.959 . S
C683 H668 0.959 . S
C683 H669 0.961 . S
C683 C682 1.502 . S
C684 H670 0.960 1_565 S
C684 H671 0.961 1_455 S
C684 H672 0.959 . S
C684 C682 1.561 1_465 S
C685 C682 1.526 1_565 S
C685 C686 1.396 . S
C685 C690 1.390 . S
C686 C680 1.465 1_665 S
C686 C685 1.396 . S
C686 C687 1.399 . S
C687 H673 0.929 . S
C687 C686 1.399 . S
C687 C688 1.385 . S
C688 H674 0.931 . S
C688 C687 1.385 . S
C688 C689 1.389 . S
C689 C688 1.389 . S
C689 C690 1.387 . S
C690 H675 0.930 . S
C690 C685 1.390 . S
C690 C689 1.387 . S
H691 C703 0.930 . S
H692 C705 0.930 . S
H693 C706 0.930 . S
H694 C710 0.959 . S
H695 C710 0.959 . S
H696 C710 0.961 . S
H697 C711 0.960 1_545 S
H698 C711 0.961 1_455 S
H699 C711 0.959 . S
H700 C714 0.929 . S
H701 C715 0.931 . S
H702 C717 0.930 . S
C703 H691 0.930 . S
C703 C704 1.399 . S
C703 C708 1.399 . S
C704 C703 1.399 . S
C704 C705 1.376 . S
C705 H692 0.930 . S
C705 C704 1.376 . S
C705 C706 1.388 . S
C706 H693 0.930 . S
C706 C705 1.388 . S
C706 C707 1.390 . S
C707 C706 1.390 . S
C707 C708 1.394 . S
C707 C713 1.465 1_645 S
C708 C703 1.399 . S
C708 C707 1.394 . S
C708 C709 1.516 1_655 S
C709 C708 1.516 1_455 S
C709 C710 1.502 . S
C709 C711 1.561 1_445 S
C709 C712 1.526 1_545 S
C710 H694 0.959 . S
C710 H695 0.959 . S
C710 H696 0.961 . S
C710 C709 1.502 . S
C711 H697 0.960 1_565 S
C711 H698 0.961 1_655 S
C711 H699 0.959 . S
C711 C709 1.561 1_665 S
C712 C709 1.526 1_565 S
C712 C713 1.396 . S
C712 C717 1.390 . S
C713 C707 1.465 1_465 S
C713 C712 1.396 . S
C713 C714 1.399 . S
C714 H700 0.929 . S
C714 C713 1.399 . S
C714 C715 1.385 . S
C715 H701 0.931 . S
C715 C714 1.385 . S
C715 C716 1.389 . S
C716 C715 1.389 . S
C716 C717 1.387 . S
C717 H702 0.930 . S
C717 C712 1.390 . S
C717 C716 1.387 . S
H718 C730 0.930 . S
H719 C732 0.930 . S
H720 C733 0.930 . S
H721 C737 0.959 . S
H722 C737 0.959 . S
H723 C737 0.961 . S
H724 C738 0.960 . S
H725 C738 0.961 . S
H726 C738 0.959 . S
H727 C741 0.929 . S
H728 C742 0.931 . S
H729 C744 0.930 . S
C730 H718 0.930 . S
C730 C731 1.399 . S
C730 C735 1.399 . S
C731 C730 1.399 . S
C731 C732 1.376 . S
C732 H719 0.930 . S
C732 C731 1.376 . S
C732 C733 1.388 . S
C733 H720 0.930 . S
C733 C732 1.388 . S
C733 C734 1.390 . S
C734 C733 1.390 . S
C734 C735 1.394 . S
C734 C740 1.465 . S
C735 C730 1.399 . S
C735 C734 1.394 . S
C735 C736 1.516 . S
C736 C735 1.516 . S
C736 C737 1.502 . S
C736 C738 1.561 . S
C736 C739 1.526 . S
C737 H721 0.959 . S
C737 H722 0.959 . S
C737 H723 0.961 . S
C737 C736 1.502 . S
C738 H724 0.960 . S
C738 H725 0.961 . S
C738 H726 0.959 . S
C738 C736 1.561 . S
C739 C736 1.526 . S
C739 C740 1.396 . S
C739 C744 1.390 . S
C740 C734 1.465 . S
C740 C739 1.396 . S
C740 C741 1.399 . S
C741 H727 0.929 . S
C741 C740 1.399 . S
C741 C742 1.385 . S
C742 H728 0.931 . S
C742 C741 1.385 . S
C742 C743 1.389 . S
C743 C742 1.389 . S
C743 C744 1.387 . S
C744 H729 0.930 . S
C744 C739 1.390 . S
C744 C743 1.387 . S
H745 C757 0.930 . S
H746 C759 0.930 . S
H747 C760 0.930 . S
H748 C764 0.959 . S
H749 C764 0.959 . S
H750 C764 0.961 . S
H751 C765 0.960 . S
H752 C765 0.961 . S
H753 C765 0.959 . S
H754 C768 0.929 . S
H755 C769 0.931 . S
H756 C771 0.930 . S
C757 H745 0.930 . S
C757 C758 1.399 . S
C757 C762 1.399 . S
C758 C757 1.399 . S
C758 C759 1.376 . S
C759 H746 0.930 . S
C759 C758 1.376 . S
C759 C760 1.388 . S
C760 H747 0.930 . S
C760 C759 1.388 . S
C760 C761 1.390 . S
C761 C760 1.390 . S
C761 C762 1.394 . S
C761 C767 1.465 . S
C762 C757 1.399 . S
C762 C761 1.394 . S
C762 C763 1.516 . S
C763 C762 1.516 . S
C763 C764 1.502 . S
C763 C765 1.561 . S
C763 C766 1.526 . S
C764 H748 0.959 . S
C764 H749 0.959 . S
C764 H750 0.961 . S
C764 C763 1.502 . S
C765 H751 0.960 . S
C765 H752 0.961 . S
C765 H753 0.959 . S
C765 C763 1.561 . S
C766 C763 1.526 . S
C766 C767 1.396 . S
C766 C771 1.390 . S
C767 C761 1.465 . S
C767 C766 1.396 . S
C767 C768 1.399 . S
C768 H754 0.929 . S
C768 C767 1.399 . S
C768 C769 1.385 . S
C769 H755 0.931 . S
C769 C768 1.385 . S
C769 C770 1.389 . S
C770 C769 1.389 . S
C770 C771 1.387 . S
C771 H756 0.930 . S
C771 C766 1.390 . S
C771 C770 1.387 . S
H772 C784 0.930 . S
H773 C786 0.930 . S
H774 C787 0.930 . S
H775 C791 0.959 . S
H776 C791 0.959 . S
H777 C791 0.954 1_545 S
H778 C792 0.960 . S
H779 C792 0.961 . S
H780 C792 0.959 . S
H781 C795 0.929 . S
H782 C796 0.931 . S
H783 C798 0.930 . S
C784 H772 0.930 . S
C784 C785 1.399 . S
C784 C789 1.399 . S
C785 C784 1.399 . S
C785 C786 1.376 . S
C786 H773 0.930 . S
C786 C785 1.376 . S
C786 C787 1.388 . S
C787 H774 0.930 . S
C787 C786 1.388 . S
C787 C788 1.390 . S
C788 C787 1.390 . S
C788 C789 1.394 . S
C788 C794 1.465 1_544 S
C789 C784 1.399 . S
C789 C788 1.394 . S
C789 C790 1.516 1_554 S
C790 C789 1.516 1_556 S
C790 C791 1.502 1_546 S
C790 C792 1.561 . S
C790 C793 1.526 1_545 S
C791 H775 0.959 . S
C791 H776 0.959 . S
C791 H777 0.954 1_565 S
C791 C790 1.502 1_564 S
C792 H778 0.960 . S
C792 H779 0.961 . S
C792 H780 0.959 . S
C792 C790 1.561 . S
C793 C790 1.526 1_565 S
C793 C794 1.396 . S
C793 C798 1.390 . S
C794 C788 1.465 1_566 S
C794 C793 1.396 . S
C794 C795 1.399 . S
C795 H781 0.929 . S
C795 C794 1.399 . S
C795 C796 1.385 . S
C796 H782 0.931 . S
C796 C795 1.385 . S
C796 C797 1.389 . S
C797 C796 1.389 . S
C797 C798 1.387 . S
C798 H783 0.930 . S
C798 C793 1.390 . S
C798 C797 1.387 . S
H799 C811 0.930 . S
H800 C813 0.930 . S
H801 C814 0.930 1_554 S
H802 C818 0.959 . S
H803 C818 0.959 . S
H804 C818 0.961 . S
H805 C819 0.960 . S
H806 C819 0.961 . S
H807 C819 0.959 . S
H808 C822 0.929 1_455 S
H809 C823 0.931 . S
H810 C825 0.930 . S
C811 H799 0.930 . S
C811 C812 1.399 . S
C811 C816 1.399 . S
C812 C811 1.399 . S
C812 C813 1.376 . S
C813 H800 0.930 . S
C813 C812 1.376 . S
C813 C814 1.388 . S
C814 H801 0.930 1_556 S
C814 C813 1.388 . S
C814 C815 1.390 . S
C815 C814 1.390 . S
C815 C816 1.394 . S
C815 C821 1.465 1_456 S
C816 C811 1.399 . S
C816 C815 1.394 . S
C816 C817 1.516 1_455 S
C817 C816 1.516 1_655 S
C817 C818 1.502 . S
C817 C819 1.561 . S
C817 C820 1.526 1_556 S
C818 H802 0.959 . S
C818 H803 0.959 . S
C818 H804 0.961 . S
C818 C817 1.502 . S
C819 H805 0.960 . S
C819 H806 0.961 . S
C819 H807 0.959 . S
C819 C817 1.561 . S
C820 C817 1.526 1_554 S
C820 C821 1.396 . S
C820 C825 1.390 . S
C821 C815 1.465 1_654 S
C821 C820 1.396 . S
C821 C822 1.399 . S
C822 H808 0.929 1_655 S
C822 C821 1.399 . S
C822 C823 1.385 . S
C823 H809 0.931 . S
C823 C822 1.385 . S
C823 C824 1.389 . S
C824 C823 1.389 . S
C824 C825 1.387 . S
C825 H810 0.930 . S
C825 C820 1.390 . S
C825 C824 1.387 . S
H826 C838 0.930 . S
H827 C840 0.930 . S
H828 C841 0.930 1_554 S
H829 C845 0.959 . S
H830 C845 0.959 . S
H831 C845 0.961 . S
H832 C846 0.960 . S
H833 C846 0.961 . S
H834 C846 0.959 . S
H835 C849 0.940 . S
H836 C850 0.931 . S
H837 C852 0.930 . S
C838 H826 0.930 . S
C838 C839 1.399 . S
C838 C843 1.399 . S
C839 C838 1.399 . S
C839 C840 1.376 . S
C840 H827 0.930 . S
C840 C839 1.376 . S
C840 C841 1.388 . S
C841 H828 0.930 1_556 S
C841 C840 1.388 . S
C841 C842 1.390 . S
C842 C841 1.390 . S
C842 C843 1.394 . S
C842 C848 1.465 1_546 S
C843 C838 1.399 . S
C843 C842 1.394 . S
C843 C844 1.516 1_545 S
C844 C843 1.516 1_565 S
C844 C845 1.502 . S
C844 C846 1.561 . S
C844 C847 1.526 1_556 S
C845 H829 0.959 . S
C845 H830 0.959 . S
C845 H831 0.961 . S
C845 C844 1.502 . S
C846 H832 0.960 . S
C846 H833 0.961 . S
C846 H834 0.959 . S
C846 C844 1.561 . S
C847 C844 1.526 1_554 S
C847 C848 1.396 . S
C847 C852 1.390 . S
C848 C842 1.465 1_564 S
C848 C847 1.396 . S
C848 C849 1.399 . S
C849 H835 0.940 . S
C849 C848 1.399 . S
C849 C850 1.385 . S
C850 H836 0.931 . S
C850 C849 1.385 . S
C850 C851 1.389 . S
C851 C850 1.389 . S
C851 C852 1.387 . S
C852 H837 0.930 . S
C852 C847 1.390 . S
C852 C851 1.387 . S
H853 C865 0.930 . S
H854 C867 0.930 . S
H855 C868 0.930 1_655 S
H856 C872 0.959 . S
H857 C872 0.959 . S
H858 C872 0.961 . S
H859 C873 0.960 . S
H860 C873 0.961 . S
H861 C873 0.959 . S
H862 C876 0.907 1_554 S
H863 C877 0.931 . S
H864 C879 0.930 . S
C865 H853 0.930 . S
C865 C866 1.399 . S
C865 C870 1.399 . S
C866 C865 1.399 . S
C866 C867 1.376 . S
C867 H854 0.930 . S
C867 C866 1.376 . S
C867 C868 1.388 . S
C868 H855 0.930 1_455 S
C868 C867 1.388 . S
C868 C869 1.390 . S
C869 C868 1.390 . S
C869 C870 1.394 . S
C869 C875 1.465 1_454 S
C870 C865 1.399 . S
C870 C869 1.394 . S
C870 C871 1.516 1_554 S
C871 C870 1.516 1_556 S
C871 C872 1.502 . S
C871 C873 1.561 . S
C871 C874 1.526 1_455 S
C872 H856 0.959 . S
C872 H857 0.959 . S
C872 H858 0.961 . S
C872 C871 1.502 . S
C873 H859 0.960 . S
C873 H860 0.961 . S
C873 H861 0.959 . S
C873 C871 1.561 . S
C874 C871 1.526 1_655 S
C874 C875 1.396 . S
C874 C879 1.390 . S
C875 C869 1.465 1_656 S
C875 C874 1.396 . S
C875 C876 1.400 . S
C876 H862 0.907 1_556 S
C876 C875 1.400 . S
C876 C877 1.407 . S
C877 H863 0.931 . S
C877 C876 1.407 . S
C877 C878 1.389 . S
C878 C877 1.389 . S
C878 C879 1.387 . S
C879 H864 0.930 . S
C879 C874 1.390 . S
C879 C878 1.387 . S
H880 C892 0.930 . S
H881 C894 0.930 . S
H882 C895 0.930 . S
H883 C899 0.959 . S
H884 C899 0.959 . S
H885 C899 0.961 . S
H886 C900 0.960 . S
H887 C900 0.961 . S
H888 C900 0.959 . S
H889 C903 0.929 . S
H890 C904 0.931 . S
H891 C906 0.930 . S
C892 H880 0.930 . S
C892 C893 1.399 . S
C892 C897 1.399 . S
C893 C892 1.399 . S
C893 C894 1.376 . S
C894 H881 0.930 . S
C894 C893 1.376 . S
C894 C895 1.388 . S
C895 H882 0.930 . S
C895 C894 1.388 . S
C895 C896 1.390 . S
C896 C895 1.390 . S
C896 C897 1.394 . S
C896 C902 1.465 . S
C897 C892 1.399 . S
C897 C896 1.394 . S
C897 C898 1.516 . S
C898 C897 1.516 . S
C898 C899 1.502 . S
C898 C900 1.561 . S
C898 C901 1.526 . S
C899 H883 0.959 . S
C899 H884 0.959 . S
C899 H885 0.961 . S
C899 C898 1.502 . S
C900 H886 0.960 . S
C900 H887 0.961 . S
C900 H888 0.959 . S
C900 C898 1.561 . S
C901 C898 1.526 . S
C901 C902 1.396 . S
C901 C906 1.390 . S
C902 C896 1.465 . S
C902 C901 1.396 . S
C902 C903 1.399 . S
C903 H889 0.929 . S
C903 C902 1.399 . S
C903 C904 1.385 . S
C904 H890 0.931 . S
C904 C903 1.385 . S
C904 C905 1.389 . S
C905 C904 1.389 . S
C905 C906 1.387 . S
C906 H891 0.930 . S
C906 C901 1.390 . S
C906 C905 1.387 . S
H907 C919 0.930 . S
H908 C921 0.930 . S
H909 C922 0.930 . S
H910 C926 0.959 . S
H911 C926 0.959 . S
H912 C926 0.961 . S
H913 C927 0.960 . S
H914 C927 0.961 . S
H915 C927 0.959 . S
H916 C930 0.929 . S
H917 C931 0.931 . S
H918 C933 0.930 . S
C919 H907 0.930 . S
C919 C920 1.399 . S
C919 C924 1.399 . S
C920 C919 1.399 . S
C920 C921 1.376 . S
C921 H908 0.930 . S
C921 C920 1.376 . S
C921 C922 1.388 . S
C922 H909 0.930 . S
C922 C921 1.388 . S
C922 C923 1.390 . S
C923 C922 1.390 . S
C923 C924 1.394 . S
C923 C929 1.465 . S
C924 C919 1.399 . S
C924 C923 1.394 . S
C924 C925 1.516 . S
C925 C924 1.516 . S
C925 C926 1.502 . S
C925 C927 1.561 . S
C925 C928 1.526 . S
C926 H910 0.959 . S
C926 H911 0.959 . S
C926 H912 0.961 . S
C926 C925 1.502 . S
C927 H913 0.960 . S
C927 H914 0.961 . S
C927 H915 0.959 . S
C927 C925 1.561 . S
C928 C925 1.526 . S
C928 C929 1.396 . S
C928 C933 1.390 . S
C929 C923 1.465 . S
C929 C928 1.396 . S
C929 C930 1.399 . S
C930 H916 0.929 . S
C930 C929 1.399 . S
C930 C931 1.385 . S
C931 H917 0.931 . S
C931 C930 1.385 . S
C931 C932 1.389 . S
C932 C931 1.389 . S
C932 C933 1.387 . S
C933 H918 0.930 . S
C933 C928 1.390 . S
C933 C932 1.387 . S
H934 C946 0.930 . S
H935 C948 0.930 . S
H936 C949 0.930 . S
H937 C953 0.959 . S
H938 C953 0.959 . S
H939 C953 0.961 . S
H940 C954 0.960 . S
H941 C954 0.961 . S
H942 C954 0.959 . S
H943 C957 0.929 . S
H944 C958 0.931 . S
H945 C960 0.930 . S
C946 H934 0.930 . S
C946 C947 1.399 . S
C946 C951 1.399 . S
C947 C946 1.399 . S
C947 C948 1.376 . S
C948 H935 0.930 . S
C948 C947 1.376 . S
C948 C949 1.388 . S
C949 H936 0.930 . S
C949 C948 1.388 . S
C949 C950 1.390 . S
C950 C949 1.390 . S
C950 C951 1.394 . S
C950 C956 1.465 . S
C951 C946 1.399 . S
C951 C950 1.394 . S
C951 C952 1.516 . S
C952 C951 1.516 . S
C952 C953 1.502 . S
C952 C954 1.561 . S
C952 C955 1.526 . S
C953 H937 0.959 . S
C953 H938 0.959 . S
C953 H939 0.961 . S
C953 C952 1.502 . S
C954 H940 0.960 . S
C954 H941 0.961 . S
C954 H942 0.959 . S
C954 C952 1.561 . S
C955 C952 1.526 . S
C955 C956 1.396 . S
C955 C960 1.390 . S
C956 C950 1.465 . S
C956 C955 1.396 . S
C956 C957 1.399 . S
C957 H943 0.929 . S
C957 C956 1.399 . S
C957 C958 1.385 . S
C958 H944 0.931 . S
C958 C957 1.385 . S
C958 C959 1.389 . S
C959 C958 1.389 . S
C959 C960 1.387 . S
C960 H945 0.930 . S
C960 C955 1.390 . S
C960 C959 1.387 . S
H961 C973 0.930 . S
H962 C975 0.930 . S
H963 C976 0.930 . S
H964 C980 0.959 . S
H965 C980 0.959 . S
H966 C980 0.961 . S
H967 C981 0.960 . S
H968 C981 0.961 . S
H969 C981 0.959 . S
H970 C984 0.929 . S
H971 C985 0.931 . S
H972 C987 0.930 . S
C973 H961 0.930 . S
C973 C974 1.399 . S
C973 C978 1.399 . S
C974 C973 1.399 . S
C974 C975 1.376 . S
C975 H962 0.930 . S
C975 C974 1.376 . S
C975 C976 1.388 . S
C976 H963 0.930 . S
C976 C975 1.388 . S
C976 C977 1.390 . S
C977 C976 1.390 . S
C977 C978 1.394 . S
C977 C983 1.465 . S
C978 C973 1.399 . S
C978 C977 1.394 . S
C978 C979 1.516 . S
C979 C978 1.516 . S
C979 C980 1.502 . S
C979 C981 1.561 . S
C979 C982 1.526 . S
C980 H964 0.959 . S
C980 H965 0.959 . S
C980 H966 0.961 . S
C980 C979 1.502 . S
C981 H967 0.960 . S
C981 H968 0.961 . S
C981 H969 0.959 . S
C981 C979 1.561 . S
C982 C979 1.526 . S
C982 C983 1.396 . S
C982 C987 1.390 . S
C983 C977 1.465 . S
C983 C982 1.396 . S
C983 C984 1.399 . S
C984 H970 0.929 . S
C984 C983 1.399 . S
C984 C985 1.385 . S
C985 H971 0.931 . S
C985 C984 1.385 . S
C985 C986 1.389 . S
C986 C985 1.389 . S
C986 C987 1.387 . S
C987 H972 0.930 . S
C987 C982 1.390 . S
C987 C986 1.387 . S
C245 C3 1.759 . S
C257 C218 1.757 . S
C272 C39 2.053 . S
C284 C129 2.046 . S
C299 C160 1.762 . S
C311 C61 1.774 . S
C326 C97 2.119 . S
C338 C187 2.093 . S
C353 C32 1.778 . S
C365 C189 1.797 . S
C380 C216 2.099 . S
C392 C68 2.122 . S
C407 C90 1.791 . S
C419 C131 1.784 . S
C434 C158 2.108 . S
C446 C10 2.104 . S
C461 C119 1.766 . S
C473 C102 1.759 . S
C488 C13 2.040 . S
C500 C155 2.061 . S
C515 C44 1.797 . S
C527 C177 1.780 . S
C542 C213 2.126 . S
C554 C71 2.111 . S
C569 C148 1.777 . S
C581 C73 1.796 . S
C596 C184 2.119 . S
C608 C100 2.093 . S
C623 C206 1.750 . S
C635 C15 1.757 . S
C650 C42 2.080 . S
C662 C126 2.074 . S
C677 C21 0.400 . S
C689 C79 0.382 . S
C704 C108 0.392 . S
C716 C50 0.375 . S
C731 C137 0.577 . S
C743 C195 0.559 . S
C758 C166 0.400 . S
C770 C224 0.382 . S
C785 C5 1.602 . S
C797 C34 1.616 . S
C812 C37 1.166 . S
C824 C66 1.158 . S
C839 C92 1.537 . S
C851 C63 1.561 . S
C866 C8 1.054 . S
C878 C95 1.061 . S
C893 C150 1.540 . S
C905 C121 1.577 . S
C920 C182 1.054 . S
C932 C153 1.061 . S
C947 C179 1.540 . S
C959 C208 1.578 . S
C974 C124 1.164 . S
C986 C211 1.156 . S
