# Generated by pormake.
# Topology wlt, (5)-cn, num edge types: 1
# Building blocks:
#     Node 0, Type 0, BuildingBlock: BEQFEK_clean_sbu_0, # of connection points: 5
#     Node 1, Type 0, BuildingBlock: BEQFEK_clean_sbu_0, # of connection points: 5
#     Node 2, Type 0, BuildingBlock: BEQFEK_clean_sbu_0, # of connection points: 5
#     Node 3, Type 0, BuildingBlock: BEQFEK_clean_sbu_0, # of connection points: 5
#     Node 4, Type 0, BuildingBlock: BEQFEK_clean_sbu_0, # of connection points: 5
#     Node 5, Type 0, BuildingBlock: BEQFEK_clean_sbu_0, # of connection points: 5
#     Node 6, Type 0, BuildingBlock: BEQFEK_clean_sbu_0, # of connection points: 5
#     Node 7, Type 0, BuildingBlock: BEQFEK_clean_sbu_0, # of connection points: 5
#     Node 8, Type 0, BuildingBlock: BEQFEK_clean_sbu_0, # of connection points: 5
#     Node 9, Type 0, BuildingBlock: BEQFEK_clean_sbu_0, # of connection points: 5
#     Node 10, Type 0, BuildingBlock: BEQFEK_clean_sbu_0, # of connection points: 5
#     Node 11, Type 0, BuildingBlock: BEQFEK_clean_sbu_0, # of connection points: 5
#     Node 12, Type 0, BuildingBlock: BEQFEK_clean_sbu_0, # of connection points: 5
#     Node 13, Type 0, BuildingBlock: BEQFEK_clean_sbu_0, # of connection points: 5
#     Node 14, Type 0, BuildingBlock: BEQFEK_clean_sbu_0, # of connection points: 5
#     Node 15, Type 0, BuildingBlock: BEQFEK_clean_sbu_0, # of connection points: 5
#     Node 16, Type 0, BuildingBlock: BEQFEK_clean_sbu_0, # of connection points: 5
#     Node 17, Type 0, BuildingBlock: BEQFEK_clean_sbu_0, # of connection points: 5
#     Node 18, Type 0, BuildingBlock: BEQFEK_clean_sbu_0, # of connection points: 5
#     Node 19, Type 0, BuildingBlock: BEQFEK_clean_sbu_0, # of connection points: 5
#     Node 20, Type 0, BuildingBlock: BEQFEK_clean_sbu_0, # of connection points: 5
#     Node 21, Type 0, BuildingBlock: BEQFEK_clean_sbu_0, # of connection points: 5
#     Node 22, Type 0, BuildingBlock: BEQFEK_clean_sbu_0, # of connection points: 5
#     Node 23, Type 0, BuildingBlock: BEQFEK_clean_sbu_0, # of connection points: 5
#     Node 24, Type 0, BuildingBlock: BEQFEK_clean_sbu_0, # of connection points: 5
#     Node 25, Type 0, BuildingBlock: BEQFEK_clean_sbu_0, # of connection points: 5
#     Node 26, Type 0, BuildingBlock: BEQFEK_clean_sbu_0, # of connection points: 5
#     Node 27, Type 0, BuildingBlock: BEQFEK_clean_sbu_0, # of connection points: 5
#     Node 28, Type 0, BuildingBlock: BEQFEK_clean_sbu_0, # of connection points: 5
#     Node 29, Type 0, BuildingBlock: BEQFEK_clean_sbu_0, # of connection points: 5
#     Node 30, Type 0, BuildingBlock: BEQFEK_clean_sbu_0, # of connection points: 5
#     Node 31, Type 0, BuildingBlock: BEQFEK_clean_sbu_0, # of connection points: 5
#     Node 32, Type 0, BuildingBlock: BEQFEK_clean_sbu_0, # of connection points: 5
#     Node 33, Type 0, BuildingBlock: BEQFEK_clean_sbu_0, # of connection points: 5
#     Node 34, Type 0, BuildingBlock: BEQFEK_clean_sbu_0, # of connection points: 5
#     Node 35, Type 0, BuildingBlock: BEQFEK_clean_sbu_0, # of connection points: 5
#     Edge 36, Type (0, 0), BuildingBlock: ZUJKAS_clean_linker_0, # of connection points: 2
#     Edge 37, Type (0, 0), BuildingBlock: ZUJKAS_clean_linker_0, # of connection points: 2
#     Edge 38, Type (0, 0), BuildingBlock: ZUJKAS_clean_linker_0, # of connection points: 2
#     Edge 39, Type (0, 0), BuildingBlock: ZUJKAS_clean_linker_0, # of connection points: 2
#     Edge 40, Type (0, 0), BuildingBlock: ZUJKAS_clean_linker_0, # of connection points: 2
#     Edge 41, Type (0, 0), BuildingBlock: ZUJKAS_clean_linker_0, # of connection points: 2
#     Edge 42, Type (0, 0), BuildingBlock: ZUJKAS_clean_linker_0, # of connection points: 2
#     Edge 43, Type (0, 0), BuildingBlock: ZUJKAS_clean_linker_0, # of connection points: 2
#     Edge 44, Type (0, 0), BuildingBlock: ZUJKAS_clean_linker_0, # of connection points: 2
#     Edge 45, Type (0, 0), BuildingBlock: ZUJKAS_clean_linker_0, # of connection points: 2
#     Edge 46, Type (0, 0), BuildingBlock: ZUJKAS_clean_linker_0, # of connection points: 2
#     Edge 47, Type (0, 0), BuildingBlock: ZUJKAS_clean_linker_0, # of connection points: 2
#     Edge 48, Type (0, 0), BuildingBlock: ZUJKAS_clean_linker_0, # of connection points: 2
#     Edge 49, Type (0, 0), BuildingBlock: ZUJKAS_clean_linker_0, # of connection points: 2
#     Edge 50, Type (0, 0), BuildingBlock: ZUJKAS_clean_linker_0, # of connection points: 2
#     Edge 51, Type (0, 0), BuildingBlock: ZUJKAS_clean_linker_0, # of connection points: 2
#     Edge 52, Type (0, 0), BuildingBlock: ZUJKAS_clean_linker_0, # of connection points: 2
#     Edge 53, Type (0, 0), BuildingBlock: ZUJKAS_clean_linker_0, # of connection points: 2
#     Edge 54, Type (0, 0), BuildingBlock: ZUJKAS_clean_linker_0, # of connection points: 2
#     Edge 55, Type (0, 0), BuildingBlock: ZUJKAS_clean_linker_0, # of connection points: 2
#     Edge 56, Type (0, 0), BuildingBlock: ZUJKAS_clean_linker_0, # of connection points: 2
#     Edge 57, Type (0, 0), BuildingBlock: ZUJKAS_clean_linker_0, # of connection points: 2
#     Edge 58, Type (0, 0), BuildingBlock: ZUJKAS_clean_linker_0, # of connection points: 2
#     Edge 59, Type (0, 0), BuildingBlock: ZUJKAS_clean_linker_0, # of connection points: 2
#     Edge 60, Type (0, 0), BuildingBlock: ZUJKAS_clean_linker_0, # of connection points: 2
#     Edge 61, Type (0, 0), BuildingBlock: ZUJKAS_clean_linker_0, # of connection points: 2
#     Edge 62, Type (0, 0), BuildingBlock: ZUJKAS_clean_linker_0, # of connection points: 2
#     Edge 63, Type (0, 0), BuildingBlock: ZUJKAS_clean_linker_0, # of connection points: 2
#     Edge 64, Type (0, 0), BuildingBlock: ZUJKAS_clean_linker_0, # of connection points: 2
#     Edge 65, Type (0, 0), BuildingBlock: ZUJKAS_clean_linker_0, # of connection points: 2
#     Edge 66, Type (0, 0), BuildingBlock: ZUJKAS_clean_linker_0, # of connection points: 2
#     Edge 67, Type (0, 0), BuildingBlock: ZUJKAS_clean_linker_0, # of connection points: 2
#     Edge 68, Type (0, 0), BuildingBlock: ZUJKAS_clean_linker_0, # of connection points: 2
#     Edge 69, Type (0, 0), BuildingBlock: ZUJKAS_clean_linker_0, # of connection points: 2
#     Edge 70, Type (0, 0), BuildingBlock: ZUJKAS_clean_linker_0, # of connection points: 2
#     Edge 71, Type (0, 0), BuildingBlock: ZUJKAS_clean_linker_0, # of connection points: 2
#     Edge 72, Type (0, 0), BuildingBlock: ZUJKAS_clean_linker_0, # of connection points: 2
#     Edge 73, Type (0, 0), BuildingBlock: ZUJKAS_clean_linker_0, # of connection points: 2
#     Edge 74, Type (0, 0), BuildingBlock: ZUJKAS_clean_linker_0, # of connection points: 2
#     Edge 75, Type (0, 0), BuildingBlock: ZUJKAS_clean_linker_0, # of connection points: 2
#     Edge 76, Type (0, 0), BuildingBlock: ZUJKAS_clean_linker_0, # of connection points: 2
#     Edge 77, Type (0, 0), BuildingBlock: ZUJKAS_clean_linker_0, # of connection points: 2
#     Edge 78, Type (0, 0), BuildingBlock: ZUJKAS_clean_linker_0, # of connection points: 2
#     Edge 79, Type (0, 0), BuildingBlock: ZUJKAS_clean_linker_0, # of connection points: 2
#     Edge 80, Type (0, 0), BuildingBlock: ZUJKAS_clean_linker_0, # of connection points: 2
#     Edge 81, Type (0, 0), BuildingBlock: ZUJKAS_clean_linker_0, # of connection points: 2
#     Edge 82, Type (0, 0), BuildingBlock: ZUJKAS_clean_linker_0, # of connection points: 2
#     Edge 83, Type (0, 0), BuildingBlock: ZUJKAS_clean_linker_0, # of connection points: 2
#     Edge 84, Type (0, 0), BuildingBlock: ZUJKAS_clean_linker_0, # of connection points: 2
#     Edge 85, Type (0, 0), BuildingBlock: ZUJKAS_clean_linker_0, # of connection points: 2
#     Edge 86, Type (0, 0), BuildingBlock: ZUJKAS_clean_linker_0, # of connection points: 2
#     Edge 87, Type (0, 0), BuildingBlock: ZUJKAS_clean_linker_0, # of connection points: 2
#     Edge 88, Type (0, 0), BuildingBlock: ZUJKAS_clean_linker_0, # of connection points: 2
#     Edge 89, Type (0, 0), BuildingBlock: ZUJKAS_clean_linker_0, # of connection points: 2
#     Edge 90, Type (0, 0), BuildingBlock: ZUJKAS_clean_linker_0, # of connection points: 2
#     Edge 91, Type (0, 0), BuildingBlock: ZUJKAS_clean_linker_0, # of connection points: 2
#     Edge 92, Type (0, 0), BuildingBlock: ZUJKAS_clean_linker_0, # of connection points: 2
#     Edge 93, Type (0, 0), BuildingBlock: ZUJKAS_clean_linker_0, # of connection points: 2
#     Edge 94, Type (0, 0), BuildingBlock: ZUJKAS_clean_linker_0, # of connection points: 2
#     Edge 95, Type (0, 0), BuildingBlock: ZUJKAS_clean_linker_0, # of connection points: 2
#     Edge 96, Type (0, 0), BuildingBlock: ZUJKAS_clean_linker_0, # of connection points: 2
#     Edge 97, Type (0, 0), BuildingBlock: ZUJKAS_clean_linker_0, # of connection points: 2
#     Edge 98, Type (0, 0), BuildingBlock: ZUJKAS_clean_linker_0, # of connection points: 2
#     Edge 99, Type (0, 0), BuildingBlock: ZUJKAS_clean_linker_0, # of connection points: 2
#     Edge 100, Type (0, 0), BuildingBlock: ZUJKAS_clean_linker_0, # of connection points: 2
#     Edge 101, Type (0, 0), BuildingBlock: ZUJKAS_clean_linker_0, # of connection points: 2
#     Edge 102, Type (0, 0), BuildingBlock: ZUJKAS_clean_linker_0, # of connection points: 2
#     Edge 103, Type (0, 0), BuildingBlock: ZUJKAS_clean_linker_0, # of connection points: 2
#     Edge 104, Type (0, 0), BuildingBlock: ZUJKAS_clean_linker_0, # of connection points: 2
#     Edge 105, Type (0, 0), BuildingBlock: ZUJKAS_clean_linker_0, # of connection points: 2
#     Edge 106, Type (0, 0), BuildingBlock: ZUJKAS_clean_linker_0, # of connection points: 2
#     Edge 107, Type (0, 0), BuildingBlock: ZUJKAS_clean_linker_0, # of connection points: 2
#     Edge 108, Type (0, 0), BuildingBlock: ZUJKAS_clean_linker_0, # of connection points: 2
#     Edge 109, Type (0, 0), BuildingBlock: ZUJKAS_clean_linker_0, # of connection points: 2
#     Edge 110, Type (0, 0), BuildingBlock: ZUJKAS_clean_linker_0, # of connection points: 2
#     Edge 111, Type (0, 0), BuildingBlock: ZUJKAS_clean_linker_0, # of connection points: 2
#     Edge 112, Type (0, 0), BuildingBlock: ZUJKAS_clean_linker_0, # of connection points: 2
#     Edge 113, Type (0, 0), BuildingBlock: ZUJKAS_clean_linker_0, # of connection points: 2
#     Edge 114, Type (0, 0), BuildingBlock: ZUJKAS_clean_linker_0, # of connection points: 2
#     Edge 115, Type (0, 0), BuildingBlock: ZUJKAS_clean_linker_0, # of connection points: 2
#     Edge 116, Type (0, 0), BuildingBlock: ZUJKAS_clean_linker_0, # of connection points: 2
#     Edge 117, Type (0, 0), BuildingBlock: ZUJKAS_clean_linker_0, # of connection points: 2
#     Edge 118, Type (0, 0), BuildingBlock: ZUJKAS_clean_linker_0, # of connection points: 2
#     Edge 119, Type (0, 0), BuildingBlock: ZUJKAS_clean_linker_0, # of connection points: 2
#     Edge 120, Type (0, 0), BuildingBlock: ZUJKAS_clean_linker_0, # of connection points: 2
#     Edge 121, Type (0, 0), BuildingBlock: ZUJKAS_clean_linker_0, # of connection points: 2
#     Edge 122, Type (0, 0), BuildingBlock: ZUJKAS_clean_linker_0, # of connection points: 2
#     Edge 123, Type (0, 0), BuildingBlock: ZUJKAS_clean_linker_0, # of connection points: 2
#     Edge 124, Type (0, 0), BuildingBlock: ZUJKAS_clean_linker_0, # of connection points: 2
#     Edge 125, Type (0, 0), BuildingBlock: ZUJKAS_clean_linker_0, # of connection points: 2
# Relax obj value: 0.112
# Max RMSD: 0.153
# Mean RMSD: 0.153
data_MOF--net-wlt--node1-BEQFEK_clean_sbu_0--edge1-ZUJKAS_clean_linker_0
_symmetry_space_group_name_H-M    P1
_symmetry_Int_Tables_number       1
_symmetry_cell_setting            triclinic
loop_
_symmetry_equiv_pos_as_xyz
'x, y, z'
_cell_length_a     86.842706
_cell_length_b     86.830334
_cell_length_c     63.132776
_cell_angle_alpha  89.988422
_cell_angle_beta   90.012963
_cell_angle_gamma 120.00707
loop_
_atom_site_label
_atom_site_type_symbol
_atom_site_fract_x
_atom_site_fract_y
_atom_site_fract_z
_atom_type_partial_charge
Co0 Co 0.25135 0.20698 0.11202 0.0
Co1 Co 0.21809 0.20635 0.09207 0.0
C2 C 0.2541 0.2398 0.09337 0.0
O3 O 0.26141 0.23201 0.10259 0.0
O4 O 0.23763 0.2314 0.08844 0.0
C5 C 0.28615 0.20961 0.12102 0.0
O6 O 0.29413 0.22323 0.10809 0.0
C7 C 0.19401 0.20849 0.06029 0.0
C8 C 0.16841 0.19363 0.07728 0.0
C9 C 0.17601 0.20293 0.05881 0.0
N10 N 0.19683 0.20269 0.07886 0.0
N11 N 0.18144 0.19374 0.08882 0.0
C12 C 0.20842 0.2199 0.04501 0.0
H13 H 0.22165 0.22587 0.05266 0.0
H14 H 0.20825 0.2116 0.03156 0.0
H15 H 0.20615 0.23051 0.03862 0.0
C16 C 0.24156 0.1781 0.08094 0.0
N17 N 0.23914 0.19082 0.08981 0.0
N18 N 0.22485 0.1901 0.08168 0.0
C19 C 0.21756 0.17672 0.0675 0.0
C20 C 0.22793 0.16867 0.06658 0.0
C21 C 0.25693 0.17542 0.08583 0.0
H22 H 0.25548 0.17012 0.10215 0.0
H23 H 0.26945 0.1884 0.08508 0.0
H24 H 0.25784 0.16614 0.07452 0.0
O25 O 0.2353 0.20208 0.13625 0.0
O26 O 0.21184 0.20184 0.12229 0.0
H27 H 0.1951 0.1577 0.04879 0.0
H28 H 0.20217 0.18083 0.04418 0.0
C29 C 0.20026 0.17087 0.05643 0.0
H30 H 0.19028 0.17011 0.06795 0.0
H31 H 0.17986 0.18788 0.10369 0.0
O32 O 0.26946 0.20212 0.12374 0.0
C33 C 0.21995 0.2003 0.13815 0.0
Co34 Co 0.79298 0.0447 0.11395 0.0
Co35 Co 0.79523 0.0124 0.09565 0.0
C36 C 0.76131 0.01422 0.0941 0.0
O37 O 0.76864 0.02955 0.10277 0.0
O38 O 0.77002 0.00621 0.09056 0.0
C39 C 0.79076 0.07744 0.11921 0.0
O40 O 0.77997 0.07278 0.10288 0.0
C41 C 0.79283 0.98532 0.06548 0.0
C42 C 0.81273 0.97931 0.07904 0.0
C43 C 0.80074 0.97497 0.06255 0.0
N44 N 0.79988 0.9953 0.08291 0.0
N45 N 0.81168 0.99156 0.09099 0.0
C46 C 0.77969 0.98663 0.0514 0.0
H47 H 0.78129 0.00011 0.05251 0.0
H48 H 0.78134 0.98369 0.03471 0.0
H49 H 0.76604 0.97682 0.05668 0.0
C50 C 0.82314 0.0642 0.08426 0.0
N51 N 0.81038 0.04903 0.09311 0.0
N52 N 0.8114 0.03551 0.08533 0.0
C53 C 0.82485 0.04166 0.07123 0.0
C54 C 0.83275 0.06005 0.07013 0.0
C55 C 0.82547 0.08219 0.0886 0.0
H56 H 0.82858 0.08546 0.10561 0.0
H57 H 0.81285 0.08193 0.08504 0.0
H58 H 0.83613 0.09271 0.0788 0.0
O59 O 0.79617 0.03307 0.13897 0.0
O60 O 0.79894 0.01082 0.12627 0.0
H61 H 0.83372 0.02273 0.07197 0.0
H62 H 0.84268 0.03813 0.05025 0.0
C63 C 0.83068 0.03022 0.06009 0.0
H64 H 0.8197 0.02048 0.04991 0.0
H65 H 0.81914 0.99752 0.10457 0.0
O66 O 0.79674 0.06749 0.12524 0.0
C67 C 0.79864 0.01998 0.14177 0.0
Co68 Co 0.95445 0.7491 0.11855 0.0
Co69 Co 0.98645 0.782 0.09672 0.0
C70 C 0.98366 0.74602 0.09743 0.0
O71 O 0.96912 0.73907 0.10786 0.0
O72 O 0.99159 0.76233 0.09182 0.0
C73 C 0.92246 0.71435 0.12661 0.0
O74 O 0.9277 0.70747 0.11166 0.0
C75 C 0.01276 0.80684 0.0652 0.0
C76 C 0.021 0.83235 0.08149 0.0
C77 C 0.02413 0.82512 0.06359 0.0
N78 N 0.00338 0.80354 0.08326 0.0
N79 N 0.00834 0.81888 0.09279 0.0
C80 C 0.01145 0.79272 0.0505 0.0
H81 H 0.00512 0.77961 0.05843 0.0
H82 H 0.00312 0.79178 0.03669 0.0
H83 H 0.02484 0.79612 0.04463 0.0
C84 C 0.93433 0.75863 0.08849 0.0
N85 N 0.94971 0.76133 0.09698 0.0
N86 N 0.96305 0.77527 0.08792 0.0
C87 C 0.95657 0.78192 0.07338 0.0
C88 C 0.93815 0.77159 0.07328 0.0
C89 C 0.91646 0.74324 0.094 0.0
H90 H 0.9167 0.7307 0.09181 0.0
H91 H 0.90573 0.74271 0.08397 0.0
H92 H 0.91352 0.74418 0.1109 0.0
O93 O 0.96693 0.76501 0.14243 0.0
O94 O 0.98973 0.78802 0.12715 0.0
H95 H 0.97674 0.8093 0.07121 0.0
H96 H 0.95965 0.80247 0.05135 0.0
C97 C 0.96781 0.79828 0.06054 0.0
H98 H 0.97619 0.79567 0.04952 0.0
H99 H 0.00321 0.82013 0.10723 0.0
O100 O 0.93185 0.73075 0.13107 0.0
C101 C 0.98095 0.78012 0.14363 0.0
Co102 Co 0.20236 0.25058 0.3805 0.0
Co103 Co 0.20286 0.21711 0.39786 0.0
C104 C 0.23604 0.2532 0.39597 0.0
O105 O 0.22779 0.26055 0.38804 0.0
O106 O 0.22796 0.23666 0.40054 0.0
C107 C 0.20544 0.28569 0.37375 0.0
O108 O 0.22037 0.29316 0.38455 0.0
C109 C 0.20825 0.19429 0.42775 0.0
C110 C 0.18938 0.16757 0.41524 0.0
C111 C 0.20174 0.17628 0.43114 0.0
N112 N 0.2001 0.19608 0.41062 0.0
N113 N 0.18891 0.18008 0.40317 0.0
C114 C 0.221 0.20954 0.44122 0.0
H115 H 0.21843 0.22081 0.43973 0.0
H116 H 0.21989 0.20545 0.45807 0.0
H117 H 0.23475 0.2141 0.43573 0.0
C118 C 0.1752 0.24032 0.41379 0.0
N119 N 0.18741 0.23804 0.40337 0.0
N120 N 0.18716 0.22369 0.41053 0.0
C121 C 0.17467 0.21631 0.42578 0.0
C122 C 0.16665 0.2266 0.42825 0.0
C123 C 0.17211 0.2556 0.41016 0.0
H124 H 0.16607 0.25427 0.39429 0.0
H125 H 0.18502 0.26821 0.41047 0.0
H126 H 0.16328 0.25625 0.42238 0.0
O127 O 0.19618 0.23478 0.35586 0.0
O128 O 0.19706 0.21119 0.36763 0.0
H129 H 0.16683 0.18875 0.42451 0.0
H130 H 0.15779 0.19455 0.4468 0.0
C131 C 0.16966 0.19909 0.43658 0.0
H132 H 0.181 0.20074 0.44637 0.0
H133 H 0.18082 0.1777 0.38993 0.0
O134 O 0.19701 0.26898 0.37102 0.0
C135 C 0.19454 0.21958 0.35281 0.0
Co136 Co 0.74319 0.95103 0.38676 0.0
Co137 Co 0.77846 0.98498 0.40096 0.0
C138 C 0.74308 0.9838 0.40015 0.0
O139 O 0.73479 0.96781 0.39347 0.0
O140 O 0.75977 0.99186 0.40379 0.0
C141 C 0.71582 0.92336 0.36228 0.0
O142 O 0.72088 0.93603 0.34805 0.0
C143 C 0.80443 0.01359 0.42894 0.0
C144 C 0.82921 0.02229 0.41082 0.0
C145 C 0.82259 0.0257 0.42908 0.0
N146 N 0.80061 0.0035 0.41143 0.0
N147 N 0.8155 0.00875 0.40074 0.0
C148 C 0.79076 0.01219 0.44446 0.0
H149 H 0.77726 0.00489 0.43752 0.0
H150 H 0.79097 0.00472 0.45861 0.0
H151 H 0.79373 0.02562 0.44963 0.0
C152 C 0.75402 0.93512 0.42086 0.0
N153 N 0.75652 0.94926 0.4094 0.0
N154 N 0.77156 0.96329 0.41517 0.0
C155 C 0.77926 0.95846 0.43032 0.0
C156 C 0.76836 0.94044 0.43444 0.0
C157 C 0.738 0.91697 0.41898 0.0
H158 H 0.72581 0.91806 0.41868 0.0
H159 H 0.73707 0.90825 0.43235 0.0
H160 H 0.73871 0.91084 0.40385 0.0
O161 O 0.75753 0.95888 0.36062 0.0
O162 O 0.78263 0.98263 0.37067 0.0
H163 H 0.80271 0.96285 0.44756 0.0
H164 H 0.79668 0.97982 0.45056 0.0
C165 C 0.79739 0.97045 0.43923 0.0
H166 H 0.80666 0.97828 0.42631 0.0
H167 H 0.81629 0.00318 0.38643 0.0
O168 O 0.72299 0.92714 0.38049 0.0
C169 C 0.77305 0.9716 0.35649 0.0
Co170 Co 0.04945 0.7915 0.38954 0.0
Co171 Co 0.01553 0.79397 0.39995 0.0
C172 C 0.01545 0.75923 0.40184 0.0
O173 O 0.03177 0.7666 0.39648 0.0
O174 O 0.00756 0.76822 0.40382 0.0
C175 C 0.07691 0.78988 0.36748 0.0
O176 O 0.06417 0.78153 0.3535 0.0
C177 C 0.98647 0.79261 0.42527 0.0
C178 C 0.98001 0.81022 0.40669 0.0
C179 C 0.97533 0.79983 0.4248 0.0
N180 N 0.99713 0.7985 0.40823 0.0
N181 N 0.99315 0.80894 0.39714 0.0
C182 C 0.98802 0.78138 0.44217 0.0
H183 H 0.0015 0.78291 0.44195 0.0
H184 H 0.9853 0.78506 0.458 0.0
H185 H 0.97819 0.7672 0.43908 0.0
C186 C 0.0646 0.81895 0.42266 0.0
N187 N 0.0507 0.80704 0.41116 0.0
N188 N 0.03673 0.80865 0.41531 0.0
C189 C 0.04141 0.82192 0.42944 0.0
C190 C 0.05926 0.82889 0.43452 0.0
C191 C 0.08266 0.82073 0.42215 0.0
H192 H 0.08935 0.82716 0.40707 0.0
H193 H 0.08132 0.80735 0.42276 0.0
H194 H 0.091 0.82874 0.43564 0.0
O195 O 0.04351 0.79853 0.36234 0.0
O196 O 0.01935 0.79999 0.36964 0.0
H197 H 0.02286 0.83056 0.42206 0.0
H198 H 0.03708 0.84198 0.44427 0.0
C199 C 0.02957 0.82897 0.43613 0.0
H200 H 0.01921 0.8193 0.44701 0.0
H201 H -0.00044 0.81537 0.38317 0.0
O202 O 0.07323 0.79438 0.38507 0.0
C203 C 0.03118 0.80148 0.35665 0.0
Co204 Co 0.74757 0.79329 0.87939 0.0
Co205 Co 0.78031 0.79301 0.90018 0.0
C206 C 0.74407 0.76022 0.89898 0.0
O207 O 0.73715 0.76835 0.88966 0.0
O208 O 0.76052 0.76821 0.90392 0.0
C209 C 0.71363 0.79284 0.87487 0.0
O210 O 0.70813 0.7831 0.89213 0.0
C211 C 0.80463 0.78952 0.93084 0.0
C212 C 0.8305 0.80829 0.91628 0.0
C213 C 0.82288 0.79657 0.93301 0.0
N214 N 0.80169 0.79686 0.91362 0.0
N215 N 0.81724 0.8081 0.90511 0.0
C216 C 0.79027 0.77555 0.94434 0.0
H217 H 0.77746 0.76886 0.93578 0.0
H218 H 0.78854 0.7819 0.95869 0.0
H219 H 0.79394 0.76557 0.94944 0.0
C220 C 0.75852 0.82316 0.90963 0.0
N221 N 0.76033 0.80994 0.90107 0.0
N222 N 0.77376 0.80956 0.91021 0.0
C223 C 0.78068 0.8223 0.92522 0.0
C224 C 0.77126 0.83135 0.92533 0.0
C225 C 0.74576 0.82872 0.90175 0.0
H226 H 0.74546 0.82847 0.8842 0.0
H227 H 0.73224 0.81926 0.90772 0.0
H228 H 0.74953 0.84232 0.90712 0.0
O229 O 0.76326 0.79695 0.85526 0.0
O230 O 0.78643 0.79681 0.86965 0.0
H231 H 0.80806 0.83075 0.93074 0.0
H232 H 0.79703 0.83408 0.95312 0.0
C233 C 0.79545 0.82508 0.93981 0.0
H234 H 0.79264 0.81211 0.94639 0.0
H235 H 0.81879 0.81552 0.89146 0.0
O236 O 0.72905 0.79771 0.8677 0.0
C237 C 0.77837 0.79811 0.85353 0.0
Co238 Co 0.20402 0.95308 0.87922 0.0
Co239 Co 0.20367 0.98615 0.89845 0.0
C240 C 0.23709 0.98369 0.8969 0.0
O241 O 0.22912 0.96839 0.88816 0.0
O242 O 0.22882 0.9919 0.9017 0.0
C243 C 0.20666 0.92075 0.87343 0.0
O244 O 0.21899 0.92652 0.88816 0.0
C245 C 0.20636 0.01355 0.92896 0.0
C246 C 0.18945 0.02216 0.91253 0.0
C247 C 0.19994 0.02534 0.93032 0.0
N248 N 0.19986 0.00388 0.91116 0.0
N249 N 0.18973 0.00908 0.90152 0.0
C250 C 0.21907 0.01204 0.94364 0.0
H251 H 0.22555 0.00538 0.93575 0.0
H252 H 0.21166 0.00393 0.95757 0.0
H253 H 0.22932 0.0254 0.94931 0.0
C254 C 0.1754 0.93458 0.91081 0.0
N255 N 0.18811 0.94954 0.90158 0.0
N256 N 0.18768 0.96332 0.90956 0.0
C257 C 0.17457 0.95755 0.92408 0.0
C258 C 0.16635 0.93913 0.92531 0.0
C259 C 0.17234 0.91636 0.90612 0.0
H260 H 0.16794 0.91287 0.88944 0.0
H261 H 0.18501 0.91635 0.90807 0.0
H262 H 0.16229 0.90615 0.91681 0.0
O263 O 0.19871 0.96364 0.8547 0.0
O264 O 0.19871 0.98714 0.86819 0.0
H265 H 0.1672 0.97765 0.92338 0.0
H266 H 0.15665 0.96157 0.94427 0.0
C267 C 0.16914 0.96932 0.93518 0.0
H268 H 0.17991 0.97829 0.94612 0.0
H269 H 0.1831 0.0038 0.88725 0.0
O270 O 0.19959 0.92997 0.86837 0.0
C271 C 0.19692 0.9772 0.85255 0.0
Co272 Co 0.0442 0.25357 0.879 0.0
Co273 Co 0.01276 0.2194 0.89986 0.0
C274 C 0.01263 0.25395 0.89741 0.0
O275 O 0.02767 0.26181 0.88809 0.0
O276 O 0.00541 0.23767 0.90295 0.0
C277 C 0.07658 0.28857 0.87577 0.0
O278 O 0.07237 0.29258 0.89414 0.0
C279 C 0.98605 0.19396 0.93071 0.0
C280 C 0.98009 0.16857 0.9157 0.0
C281 C 0.97557 0.17559 0.93269 0.0
N282 N 0.99629 0.19753 0.91332 0.0
N283 N 0.99268 0.18226 0.90457 0.0
C284 C 0.98582 0.20785 0.9445 0.0
H285 H 0.99177 0.22081 0.93626 0.0
H286 H 0.99379 0.20955 0.95895 0.0
H287 H 0.97201 0.2037 0.94942 0.0
C288 C 0.06484 0.24458 0.90914 0.0
N289 N 0.04933 0.24207 0.90124 0.0
N290 N 0.03612 0.22794 0.91022 0.0
C291 C 0.04281 0.22113 0.92426 0.0
C292 C 0.0612 0.23145 0.92401 0.0
C293 C 0.0828 0.25791 0.90083 0.0
H294 H 0.08246 0.2583 0.8833 0.0
H295 H 0.08648 0.27125 0.90707 0.0
H296 H 0.09315 0.2547 0.90569 0.0
O297 O 0.0338 0.23719 0.85505 0.0
O298 O 0.01185 0.21291 0.86963 0.0
H299 H 0.02551 0.19305 0.92688 0.0
H300 H 0.03989 0.20296 0.94954 0.0
C301 C 0.0318 0.20488 0.93736 0.0
H302 H 0.02111 0.20611 0.94535 0.0
H303 H 0.99867 0.18118 0.89075 0.0
O304 O 0.06638 0.27349 0.8675 0.0
C305 C 0.02105 0.22128 0.85356 0.0
Co306 Co 0.79509 0.74545 0.60557 0.0
Co307 Co 0.79633 0.78135 0.59488 0.0
C308 C 0.76217 0.74598 0.59366 0.0
O309 O 0.76994 0.73733 0.5986 0.0
O310 O 0.77079 0.76288 0.59188 0.0
C311 C 0.79381 0.71616 0.62697 0.0
O312 O 0.78512 0.72 0.64108 0.0
C313 C 0.793 0.80867 0.57026 0.0
C314 C 0.81149 0.83292 0.58802 0.0
C315 C 0.80004 0.827 0.57085 0.0
N316 N 0.80016 0.80408 0.58625 0.0
N317 N 0.81118 0.81865 0.59677 0.0
C318 C 0.77918 0.79566 0.55538 0.0
H319 H 0.77205 0.78222 0.56242 0.0
H320 H 0.78573 0.79489 0.54066 0.0
H321 H 0.76951 0.79999 0.55116 0.0
C322 C 0.82224 0.75827 0.57194 0.0
N323 N 0.81038 0.76001 0.58387 0.0
N324 N 0.81117 0.77519 0.57934 0.0
C325 C 0.82373 0.78368 0.56439 0.0
C326 C 0.83107 0.77318 0.55916 0.0
C327 C 0.82604 0.74332 0.57426 0.0
H328 H 0.82958 0.7426 0.59097 0.0
H329 H 0.81387 0.73058 0.57038 0.0
H330 H 0.83711 0.74503 0.56394 0.0
O331 O 0.80148 0.75838 0.63281 0.0
O332 O 0.80263 0.78384 0.6252 0.0
H333 H 0.83317 0.81146 0.56823 0.0
H334 H 0.83903 0.80577 0.54305 0.0
C335 C 0.82854 0.80145 0.55533 0.0
H336 H 0.81658 0.80073 0.54811 0.0
H337 H 0.81847 0.81885 0.61 0.0
O338 O 0.79854 0.72485 0.60974 0.0
C339 C 0.80414 0.77359 0.63837 0.0
Co340 Co 0.25459 0.04712 0.61375 0.0
Co341 Co 0.22074 0.0157 0.59304 0.0
C342 C 0.25457 0.01489 0.5956 0.0
O343 O 0.26221 0.02991 0.60502 0.0
O344 O 0.23839 0.00769 0.58963 0.0
C345 C 0.2898 0.07926 0.61637 0.0
O346 O 0.29332 0.07557 0.59742 0.0
C347 C 0.19373 0.98639 0.56656 0.0
C348 C 0.16995 0.9883 0.57465 0.0
C349 C 0.1756 0.97871 0.5627 0.0
N350 N 0.19853 3e-05 0.58004 0.0
N351 N 0.18425 0.00107 0.5848 0.0
C352 C 0.20602 0.98004 0.55936 0.0
H353 H 0.21269 0.97827 0.57335 0.0
H354 H 0.21647 0.99032 0.54907 0.0
H355 H 0.19893 0.96723 0.55073 0.0
C356 C 0.24663 0.06778 0.58256 0.0
N357 N 0.2436 0.05235 0.59128 0.0
N358 N 0.22986 0.03905 0.58187 0.0
C359 C 0.22415 0.04558 0.56627 0.0
C360 C 0.23451 0.064 0.5663 0.0
C361 C 0.25945 0.0858 0.59122 0.0
H362 H 0.2602 0.0852 0.6087 0.0
H363 H 0.27282 0.09032 0.58444 0.0
H364 H 0.25539 0.09568 0.58708 0.0
O365 O 0.23814 0.03782 0.63757 0.0
O366 O 0.21452 0.01475 0.62347 0.0
H367 H 0.19652 0.03057 0.55858 0.0
H368 H 0.21071 0.04172 0.53627 0.0
C369 C 0.20951 0.03437 0.55113 0.0
H370 H 0.20987 0.02211 0.54725 0.0
H371 H 0.18427 0.01043 0.59518 0.0
O372 O 0.27493 0.06891 0.62498 0.0
C373 C 0.22252 0.02465 0.63922 0.0
Co374 Co 0.95224 0.20195 0.61707 0.0
Co375 Co 0.98529 0.20076 0.59942 0.0
C376 C 0.98352 0.23475 0.60078 0.0
O377 O 0.968 0.2271 0.60894 0.0
O378 O 0.99152 0.22617 0.5964 0.0
C379 C 0.92073 0.20586 0.62547 0.0
O380 O 0.92828 0.2212 0.61551 0.0
C381 C 0.01285 0.20345 0.56942 0.0
C382 C 0.02182 0.187 0.58626 0.0
C383 C 0.02489 0.19733 0.56834 0.0
N384 N 0.00317 0.19697 0.58719 0.0
N385 N 0.00855 0.18708 0.59707 0.0
C386 C 0.01116 0.21594 0.55453 0.0
H387 H 0.00376 0.22182 0.56199 0.0
H388 H 0.00367 0.2085 0.54028 0.0
H389 H 0.0245 0.22662 0.54943 0.0
C390 C 0.93434 0.17447 0.5841 0.0
N391 N 0.9491 0.18639 0.5944 0.0
N392 N 0.96283 0.18551 0.58713 0.0
C393 C 0.95721 0.17283 0.57206 0.0
C394 C 0.93896 0.16543 0.56967 0.0
C395 C 0.91629 0.17224 0.58768 0.0
H396 H 0.91125 0.16597 0.60338 0.0
H397 H 0.91729 0.18547 0.58777 0.0
H398 H 0.90672 0.16392 0.57523 0.0
O399 O 0.96202 0.19627 0.64197 0.0
O400 O 0.98501 0.19468 0.6296 0.0
H401 H 0.97717 0.16526 0.57338 0.0
H402 H 0.961 0.15439 0.55263 0.0
C403 C 0.96887 0.16705 0.5614 0.0
H404 H 0.97785 0.17753 0.55017 0.0
H405 H 0.0033 0.18053 0.61138 0.0
O406 O 0.92877 0.19709 0.62698 0.0
C407 C 0.97488 0.19347 0.64479 0.0
Co408 Co 0.91892 0.53728 0.44645 0.0
Co409 Co 0.88437 0.53495 0.42825 0.0
C410 C 0.91928 0.56921 0.42796 0.0
O411 O 0.92747 0.56191 0.43617 0.0
O412 O 0.90263 0.56032 0.4242 0.0
C413 C 0.95356 0.53882 0.44838 0.0
O414 O 0.95724 0.54612 0.42948 0.0
C415 C 0.85957 0.53859 0.39981 0.0
C416 C 0.83379 0.51629 0.4106 0.0
C417 C 0.84137 0.53021 0.39625 0.0
N418 N 0.86254 0.53004 0.41561 0.0
N419 N 0.84709 0.51677 0.42202 0.0
C420 C 0.87403 0.55357 0.3875 0.0
H421 H 0.88608 0.55222 0.38717 0.0
H422 H 0.86968 0.55384 0.37104 0.0
H423 H 0.87751 0.56633 0.39535 0.0
C424 C 0.90844 0.50725 0.41636 0.0
N425 N 0.90623 0.52015 0.42518 0.0
N426 N 0.89206 0.51963 0.41693 0.0
C427 C 0.88509 0.5067 0.40215 0.0
C428 C 0.8952 0.49839 0.40136 0.0
C429 C 0.92184 0.50234 0.42362 0.0
H430 H 0.92333 0.50364 0.44106 0.0
H431 H 0.93486 0.51143 0.41617 0.0
H432 H 0.91786 0.48848 0.41917 0.0
O433 O 0.90377 0.53254 0.47145 0.0
O434 O 0.87901 0.53042 0.45883 0.0
H435 H 0.8571 0.4957 0.39813 0.0
H436 H 0.86839 0.49452 0.37468 0.0
C437 C 0.86943 0.50281 0.38857 0.0
H438 H 0.87065 0.51543 0.38284 0.0
H439 H 0.84565 0.50799 0.43416 0.0
O440 O 0.93886 0.53482 0.45713 0.0
C441 C 0.88817 0.52994 0.47425 0.0
Co442 Co 0.4583 0.38241 0.442 0.0
Co443 Co 0.45878 0.34762 0.43008 0.0
C444 C 0.42538 0.35028 0.42729 0.0
O445 O 0.43327 0.3664 0.43355 0.0
O446 O 0.43369 0.34169 0.42532 0.0
C447 C 0.45639 0.41567 0.44178 0.0
O448 O 0.44385 0.40896 0.4273 0.0
C449 C 0.45658 0.31852 0.40332 0.0
C450 C 0.47151 0.30949 0.42321 0.0
C451 C 0.46242 0.30623 0.40421 0.0
N452 N 0.46213 0.32857 0.42093 0.0
N453 N 0.47104 0.32309 0.43271 0.0
C454 C 0.44526 0.32022 0.38666 0.0
H455 H 0.43853 0.32723 0.39295 0.0
H456 H 0.45378 0.32811 0.37322 0.0
H457 H 0.43521 0.30691 0.38066 0.0
C458 C 0.48715 0.39746 0.41033 0.0
N459 N 0.47428 0.38353 0.42094 0.0
N460 N 0.47498 0.36913 0.41623 0.0
C461 C 0.48853 0.37352 0.40262 0.0
C462 C 0.49668 0.39163 0.39847 0.0
C463 C 0.49002 0.41594 0.41136 0.0
H464 H 0.49475 0.42147 0.42743 0.0
H465 H 0.47722 0.41549 0.40847 0.0
H466 H 0.49978 0.42482 0.39941 0.0
O467 O 0.46341 0.37444 0.46895 0.0
O468 O 0.46373 0.34982 0.46075 0.0
H469 H 0.49517 0.35332 0.40909 0.0
H470 H 0.5079 0.36814 0.38784 0.0
C471 C 0.4946 0.361 0.39539 0.0
H472 H 0.48489 0.35151 0.38382 0.0
H473 H 0.47679 0.32862 0.44729 0.0
O474 O 0.46307 0.40656 0.4487 0.0
C475 C 0.46534 0.36139 0.47424 0.0
Co476 Co 0.61903 0.08238 0.44872 0.0
Co477 Co 0.65175 0.11541 0.42854 0.0
C478 C 0.64913 0.07951 0.43043 0.0
O479 O 0.63416 0.07237 0.43992 0.0
O480 O 0.65717 0.09585 0.425 0.0
C481 C 0.58683 0.04765 0.45541 0.0
O482 O 0.59226 0.04108 0.44031 0.0
C483 C 0.67856 0.13727 0.39684 0.0
C484 C 0.68676 0.16439 0.40816 0.0
C485 C 0.68993 0.15515 0.3925 0.0
N486 N 0.66918 0.13606 0.41429 0.0
N487 N 0.67417 0.1523 0.42101 0.0
C488 C 0.67577 0.12157 0.38407 0.0
H489 H 0.66188 0.11049 0.38588 0.0
H490 H 0.67866 0.12514 0.36708 0.0
H491 H 0.68484 0.11699 0.38996 0.0
C492 C 0.60006 0.0917 0.41676 0.0
N493 N 0.61509 0.09432 0.42617 0.0
N494 N 0.62877 0.1084 0.41784 0.0
C495 C 0.62288 0.1152 0.40277 0.0
C496 C 0.60449 0.10484 0.40163 0.0
C497 C 0.58192 0.07652 0.42174 0.0
H498 H 0.57862 0.07747 0.43849 0.0
H499 H 0.58193 0.06385 0.41975 0.0
H500 H 0.57157 0.07629 0.41124 0.0
O501 O 0.63021 0.09874 0.4725 0.0
O502 O 0.6537 0.12217 0.45878 0.0
H503 H 0.64258 0.14278 0.40199 0.0
H504 H 0.62674 0.13601 0.38066 0.0
C505 C 0.63454 0.1319 0.39071 0.0
H506 H 0.64378 0.12983 0.38058 0.0
H507 H 0.66893 0.15512 0.43436 0.0
O508 O 0.59616 0.06394 0.4604 0.0
C509 C 0.64384 0.11406 0.47453 0.0
Co510 Co 0.87318 0.58717 0.71865 0.0
Co511 Co 0.87177 0.55226 0.7344 0.0
C512 C 0.90587 0.58719 0.7338 0.0
O513 O 0.89826 0.59523 0.72604 0.0
O514 O 0.8972 0.57063 0.73818 0.0
C515 C 0.87447 0.61518 0.69383 0.0
O516 O 0.88236 0.61006 0.68008 0.0
C517 C 0.8754 0.52686 0.76181 0.0
C518 C 0.85431 0.50123 0.74895 0.0
C519 C 0.86738 0.50856 0.76438 0.0
N520 N 0.86741 0.53012 0.74559 0.0
N521 N 0.8549 0.51475 0.7379 0.0
C522 C 0.88933 0.54108 0.77547 0.0
H523 H 0.88789 0.55307 0.77533 0.0
H524 H 0.88842 0.53631 0.79198 0.0
H525 H 0.90265 0.54481 0.76907 0.0
C526 C 0.84541 0.57657 0.75131 0.0
N527 N 0.8576 0.57419 0.74096 0.0
N528 N 0.85676 0.55942 0.74758 0.0
C529 C 0.84395 0.5519 0.76244 0.0
C530 C 0.83637 0.56253 0.76527 0.0
C531 C 0.84147 0.5911 0.74634 0.0
H532 H 0.83848 0.59074 0.7292 0.0
H533 H 0.8534 0.60415 0.74981 0.0
H534 H 0.83001 0.58982 0.75553 0.0
O535 O 0.86665 0.5725 0.69291 0.0
O536 O 0.86628 0.54805 0.70379 0.0
H537 H 0.83332 0.52377 0.76219 0.0
H538 H 0.82941 0.53214 0.78662 0.0
C539 C 0.83911 0.5349 0.7737 0.0
H540 H 0.85124 0.53571 0.78054 0.0
H541 H 0.84661 0.51352 0.72526 0.0
O542 O 0.87025 0.60775 0.71188 0.0
C543 C 0.86448 0.55715 0.68921 0.0
Co544 Co 0.41138 0.28598 0.7123 0.0
Co545 Co 0.44407 0.31705 0.7352 0.0
C546 C 0.40872 0.31499 0.7354 0.0
O547 O 0.4019 0.3007 0.7245 0.0
O548 O 0.42503 0.32286 0.74099 0.0
C549 C 0.37742 0.25309 0.70812 0.0
O550 O 0.37367 0.25609 0.72731 0.0
C551 C 0.46983 0.34573 0.76332 0.0
C552 C 0.49453 0.34583 0.75442 0.0
C553 C 0.48801 0.35419 0.76723 0.0
N554 N 0.46585 0.33284 0.74896 0.0
N555 N 0.48066 0.33299 0.74374 0.0
C556 C 0.45673 0.35078 0.77124 0.0
H557 H 0.45018 0.35309 0.75751 0.0
H558 H 0.44627 0.33959 0.78055 0.0
H559 H 0.46309 0.36299 0.78105 0.0
C560 C 0.42129 0.26458 0.73994 0.0
N561 N 0.4235 0.28021 0.73291 0.0
N562 N 0.43664 0.29326 0.74338 0.0
C563 C 0.44277 0.28632 0.75798 0.0
C564 C 0.43331 0.26791 0.75619 0.0
C565 C 0.40899 0.2469 0.7301 0.0
H566 H 0.40827 0.24837 0.71275 0.0
H567 H 0.39551 0.24156 0.73696 0.0
H568 H 0.41354 0.23723 0.73316 0.0
O569 O 0.42727 0.29862 0.68867 0.0
O570 O 0.45029 0.3209 0.70468 0.0
H571 H 0.47001 0.302 0.76713 0.0
H572 H 0.45541 0.28887 0.78829 0.0
C573 C 0.45665 0.29703 0.77417 0.0
H574 H 0.45537 0.30857 0.7792 0.0
H575 H 0.48132 0.32444 0.73262 0.0
O576 O 0.39206 0.26419 0.69961 0.0
C577 C 0.44249 0.31252 0.68792 0.0
Co578 Co 0.71251 0.12683 0.72023 0.0
Co579 Co 0.67802 0.12693 0.73401 0.0
C580 C 0.68093 0.0934 0.7338 0.0
O581 O 0.69713 0.10147 0.72782 0.0
O582 O 0.6724 0.10171 0.73643 0.0
C583 C 0.74514 0.12439 0.71406 0.0
O584 O 0.73747 0.10865 0.7231 0.0
C585 C 0.64988 0.12283 0.76343 0.0
C586 C 0.6378 0.13589 0.74527 0.0
C587 C 0.63639 0.12701 0.76404 0.0
N588 N 0.65883 0.12904 0.74516 0.0
N589 N 0.65159 0.13689 0.73444 0.0
C590 C 0.65359 0.11223 0.77921 0.0
H591 H 0.66178 0.10708 0.77207 0.0
H592 H 0.6611 0.12089 0.79274 0.0
H593 H 0.64095 0.10104 0.78535 0.0
C594 C 0.72789 0.15409 0.75366 0.0
N595 N 0.71384 0.14189 0.74257 0.0
N596 N 0.6996 0.1426 0.748 0.0
C597 C 0.70422 0.15562 0.76248 0.0
C598 C 0.72232 0.16331 0.76654 0.0
C599 C 0.74619 0.15655 0.75214 0.0
H600 H 0.75246 0.16353 0.73714 0.0
H601 H 0.74533 0.14337 0.7519 0.0
H602 H 0.75465 0.16435 0.76567 0.0
O603 O 0.70362 0.13238 0.69423 0.0
O604 O 0.67964 0.13336 0.7039 0.0
H605 H 0.68326 0.16153 0.75767 0.0
H606 H 0.69941 0.1753 0.77733 0.0
C607 C 0.69195 0.16168 0.77064 0.0
H608 H 0.68341 0.15244 0.78321 0.0
H609 H 0.65593 0.14275 0.71959 0.0
O610 O 0.73674 0.13278 0.71222 0.0
C611 C 0.69077 0.1349 0.68983 0.0
Co612 Co 0.41335 0.12977 0.21766 0.0
Co613 Co 0.4482 0.13046 0.23167 0.0
C614 C 0.41241 0.09646 0.23049 0.0
O615 O 0.4041 0.10436 0.22452 0.0
O616 O 0.42918 0.105 0.23358 0.0
C617 C 0.37795 0.12721 0.21334 0.0
O618 O 0.37045 0.11288 0.22524 0.0
C619 C 0.47311 0.12682 0.26033 0.0
C620 C 0.49829 0.14219 0.24267 0.0
C621 C 0.49111 0.13224 0.26087 0.0
N622 N 0.4699 0.13338 0.24263 0.0
N623 N 0.48502 0.14259 0.23221 0.0
C624 C 0.459 0.11486 0.27563 0.0
H625 H 0.44564 0.10897 0.26832 0.0
H626 H 0.45923 0.12272 0.2896 0.0
H627 H 0.46148 0.10416 0.28116 0.0
C628 C 0.42447 0.15667 0.25146 0.0
N629 N 0.42661 0.14468 0.24032 0.0
N630 N 0.44158 0.14549 0.24602 0.0
C631 C 0.44956 0.15824 0.2609 0.0
C632 C 0.43896 0.16574 0.26479 0.0
C633 C 0.40871 0.15921 0.24942 0.0
H634 H 0.40918 0.16536 0.23385 0.0
H635 H 0.39636 0.14609 0.25008 0.0
H636 H 0.40831 0.16775 0.26223 0.0
O637 O 0.42811 0.13642 0.19194 0.0
O638 O 0.453 0.13723 0.20158 0.0
H639 H 0.47686 0.16553 0.25673 0.0
H640 H 0.47313 0.17716 0.27805 0.0
C641 C 0.46769 0.16423 0.26971 0.0
H642 H 0.46692 0.1541 0.28102 0.0
H643 H 0.48626 0.14902 0.21784 0.0
O644 O 0.3945 0.13486 0.20954 0.0
C645 C 0.44354 0.13912 0.18762 0.0
Co646 Co 0.87487 0.28484 0.21342 0.0
Co647 Co 0.87121 0.31522 0.23524 0.0
C648 C 0.90619 0.31591 0.23357 0.0
O649 O 0.89926 0.30094 0.22409 0.0
O650 O 0.89692 0.32303 0.2386 0.0
C651 C 0.87764 0.25267 0.20844 0.0
O652 O 0.88559 0.25614 0.22696 0.0
C653 C 0.87366 0.34213 0.26585 0.0
C654 C 0.84986 0.34371 0.257 0.0
C655 C 0.86418 0.35064 0.27078 0.0
N656 N 0.86532 0.33077 0.24982 0.0
N657 N 0.85114 0.33182 0.2446 0.0
C658 C 0.88962 0.34377 0.27698 0.0
H659 H 0.8895 0.33094 0.27636 0.0
H660 H 0.89 0.34781 0.29373 0.0
H661 H 0.9018 0.35401 0.26886 0.0
C662 C 0.84497 0.26289 0.24273 0.0
N663 N 0.85765 0.27869 0.23508 0.0
N664 N 0.85676 0.29154 0.24503 0.0
C665 C 0.84385 0.28435 0.25979 0.0
C666 C 0.83588 0.26596 0.25873 0.0
C667 C 0.84036 0.24525 0.23337 0.0
H668 H 0.84169 0.24633 0.21591 0.0
H669 H 0.84961 0.24105 0.23969 0.0
H670 H 0.82656 0.2349 0.23735 0.0
O671 O 0.86965 0.2962 0.1899 0.0
O672 O 0.86577 0.31699 0.2051 0.0
H673 H 0.83159 0.29982 0.26681 0.0
H674 H 0.83197 0.28675 0.28883 0.0
C675 C 0.83959 0.2949 0.27502 0.0
H676 H 0.85205 0.30649 0.28079 0.0
H677 H 0.84229 0.32435 0.23258 0.0
O678 O 0.87297 0.26322 0.20078 0.0
C679 C 0.86593 0.30857 0.18872 0.0
Co680 Co 0.71325 0.58473 0.21444 0.0
Co681 Co 0.6808 0.55085 0.23413 0.0
C682 C 0.68152 0.58571 0.23179 0.0
O683 O 0.69684 0.59341 0.22306 0.0
O684 O 0.67386 0.56933 0.23702 0.0
C685 C 0.74567 0.61989 0.21131 0.0
O686 O 0.74042 0.62488 0.22816 0.0
C687 C 0.65265 0.52466 0.26305 0.0
C688 C 0.64866 0.4997 0.24868 0.0
C689 C 0.64276 0.50624 0.2648 0.0
N690 N 0.66395 0.52874 0.24664 0.0
N691 N 0.66149 0.51374 0.23824 0.0
C692 C 0.65089 0.53809 0.2761 0.0
H693 H 0.65614 0.55083 0.26751 0.0
H694 H 0.6587 0.54061 0.29089 0.0
H695 H 0.63678 0.53304 0.28044 0.0
C696 C 0.73247 0.57563 0.24646 0.0
N697 N 0.7174 0.57289 0.23701 0.0
N698 N 0.70376 0.55888 0.24555 0.0
C699 C 0.70971 0.55241 0.26094 0.0
C700 C 0.72809 0.56281 0.262 0.0
C701 C 0.75079 0.58926 0.23947 0.0
H702 H 0.75154 0.58953 0.22194 0.0
H703 H 0.75372 0.60254 0.24513 0.0
H704 H 0.76102 0.58642 0.24581 0.0
O705 O 0.70334 0.56873 0.19 0.0
O706 O 0.68021 0.54504 0.20382 0.0
H707 H 0.69216 0.52452 0.26511 0.0
H708 H 0.70531 0.53558 0.28829 0.0
C709 C 0.69795 0.53687 0.2747 0.0
H710 H 0.68691 0.53851 0.28085 0.0
H711 H 0.6685 0.51308 0.22517 0.0
O712 O 0.73601 0.60435 0.20391 0.0
C713 C 0.69 0.5532 0.18807 0.0
Co714 Co 0.45875 0.08076 0.95072 0.0
Co715 Co 0.45983 0.11337 0.92806 0.0
C716 C 0.42633 0.07765 0.93001 0.0
O717 O 0.43397 0.07064 0.94021 0.0
O718 O 0.43479 0.09395 0.92437 0.0
C719 C 0.4563 0.04621 0.95895 0.0
O720 O 0.44499 0.03953 0.94315 0.0
C721 C 0.45624 0.13567 0.89539 0.0
C722 C 0.47628 0.16252 0.90641 0.0
C723 C 0.46375 0.15366 0.89073 0.0
N724 N 0.464 0.13407 0.91302 0.0
N725 N 0.47591 0.15016 0.91954 0.0
C726 C 0.44275 0.1202 0.88279 0.0
H727 H 0.44464 0.10857 0.88501 0.0
H728 H 0.44373 0.12361 0.86572 0.0
H729 H 0.42925 0.11652 0.88849 0.0
C730 C 0.48809 0.08938 0.92048 0.0
N731 N 0.47543 0.09224 0.9287 0.0
N732 N 0.47591 0.10592 0.91908 0.0
C733 C 0.48884 0.11214 0.9043 0.0
C734 C 0.497 0.10189 0.90477 0.0
C735 C 0.49104 0.07448 0.92701 0.0
H736 H 0.47867 0.06166 0.92426 0.0
H737 H 0.50193 0.0744 0.91795 0.0
H738 H 0.49417 0.07559 0.94417 0.0
O739 O 0.46308 0.09759 0.97389 0.0
O740 O 0.46391 0.12073 0.95804 0.0
H741 H 0.50532 0.13131 0.88038 0.0
H742 H 0.48231 0.12585 0.88104 0.0
C743 C 0.49387 0.12816 0.89084 0.0
H744 H 0.49746 0.13978 0.9012 0.0
H745 H 0.48384 0.15269 0.93295 0.0
O746 O 0.46278 0.06247 0.96389 0.0
C747 C 0.46492 0.11305 0.97466 0.0
Co748 Co 0.91591 0.37839 0.9516 0.0
Co749 Co 0.88165 0.34661 0.93197 0.0
C750 C 0.91626 0.34683 0.93278 0.0
O751 O 0.92411 0.36192 0.942 0.0
O752 O 0.89984 0.33933 0.92777 0.0
C753 C 0.95087 0.41079 0.95375 0.0
O754 O 0.95456 0.40647 0.93526 0.0
C755 C 0.8554 0.3173 0.90495 0.0
C756 C 0.83076 0.31709 0.91439 0.0
C757 C 0.83716 0.3087 0.90144 0.0
N758 N 0.85953 0.3303 0.9192 0.0
N759 N 0.84475 0.33008 0.92477 0.0
C760 C 0.86853 0.31248 0.89646 0.0
H761 H 0.87548 0.31033 0.90987 0.0
H762 H 0.87867 0.32372 0.88691 0.0
H763 H 0.8621 0.30023 0.88672 0.0
C764 C 0.90679 0.39844 0.92054 0.0
N765 N 0.90393 0.38321 0.92971 0.0
N766 N 0.89004 0.36973 0.92078 0.0
C767 C 0.884 0.37589 0.90514 0.0
C768 C 0.89434 0.3943 0.90456 0.0
C769 C 0.92017 0.41666 0.92812 0.0
H770 H 0.92118 0.41675 0.94562 0.0
H771 H 0.93334 0.42046 0.92122 0.0
H772 H 0.91646 0.42667 0.9233 0.0
O773 O 0.90035 0.36817 0.97611 0.0
O774 O 0.87579 0.3459 0.96252 0.0
H775 H 0.85631 0.35991 0.89814 0.0
H776 H 0.86987 0.37143 0.87548 0.0
C777 C 0.86928 0.36427 0.89029 0.0
H778 H 0.87017 0.35233 0.88621 0.0
H779 H 0.84421 0.33873 0.93581 0.0
O780 O 0.93597 0.40065 0.96242 0.0
C781 C 0.88458 0.35532 0.97827 0.0
Co782 Co 0.61802 0.53755 0.94555 0.0
Co783 Co 0.65162 0.53727 0.92848 0.0
C784 C 0.64893 0.57059 0.92837 0.0
O785 O 0.63348 0.56263 0.93674 0.0
O786 O 0.65731 0.56235 0.92417 0.0
C787 C 0.58651 0.54132 0.95475 0.0
O788 O 0.59423 0.55711 0.94584 0.0
C789 C 0.67889 0.53959 0.89872 0.0
C790 C 0.68705 0.5222 0.91485 0.0
C791 C 0.69018 0.53261 0.89698 0.0
N792 N 0.66958 0.5335 0.91678 0.0
N793 N 0.67458 0.52319 0.92637 0.0
C794 C 0.67593 0.55079 0.88306 0.0
H795 H 0.6624 0.54893 0.88498 0.0
H796 H 0.6777 0.54737 0.86663 0.0
H797 H 0.68574 0.565 0.88598 0.0
C798 C 0.60057 0.50954 0.91337 0.0
N799 N 0.61523 0.52182 0.92346 0.0
N800 N 0.62913 0.52107 0.91657 0.0
C801 C 0.62367 0.50802 0.90197 0.0
C802 C 0.60537 0.50028 0.89951 0.0
C803 C 0.58244 0.50723 0.91653 0.0
H804 H 0.5771 0.5007 0.93203 0.0
H805 H 0.58339 0.52044 0.91679 0.0
H806 H 0.57313 0.4991 0.90377 0.0
O807 O 0.62785 0.53226 0.97072 0.0
O808 O 0.65211 0.53278 0.95901 0.0
H809 H 0.64397 0.50095 0.90403 0.0
H810 H 0.62783 0.48936 0.88349 0.0
C811 C 0.63554 0.50227 0.89181 0.0
H812 H 0.64438 0.51254 0.88027 0.0
H813 H 0.66932 0.51665 0.94067 0.0
O814 O 0.59445 0.53241 0.95532 0.0
C815 C 0.64149 0.5308 0.97394 0.0
Co816 Co 0.58418 0.8711 0.77909 0.0
Co817 Co 0.54961 0.86966 0.76208 0.0
C818 C 0.58555 0.90352 0.76168 0.0
O819 O 0.59359 0.89587 0.76937 0.0
O820 O 0.56879 0.89498 0.75838 0.0
C821 C 0.61936 0.87365 0.78442 0.0
O822 O 0.62602 0.88601 0.76972 0.0
C823 C 0.52561 0.87265 0.73147 0.0
C824 C 0.49953 0.85565 0.74668 0.0
C825 C 0.50746 0.86623 0.72908 0.0
N826 N 0.52813 0.86613 0.74963 0.0
N827 N 0.51251 0.85604 0.75866 0.0
C828 C 0.54029 0.88379 0.71637 0.0
H829 H 0.55165 0.88149 0.71872 0.0
H830 H 0.53554 0.88071 0.69975 0.0
H831 H 0.54501 0.89804 0.7195 0.0
C832 C 0.57349 0.84237 0.74744 0.0
N833 N 0.5711 0.85475 0.75732 0.0
N834 N 0.55643 0.85388 0.75025 0.0
C835 C 0.5489 0.84076 0.73576 0.0
C836 C 0.55948 0.83304 0.73351 0.0
C837 C 0.58929 0.84007 0.7508 0.0
H838 H 0.58898 0.83524 0.76715 0.0
H839 H 0.60159 0.85311 0.74898 0.0
H840 H 0.58968 0.83061 0.73931 0.0
O841 O 0.56918 0.86663 0.80436 0.0
O842 O 0.54415 0.86434 0.79241 0.0
H843 H 0.52148 0.83352 0.73772 0.0
H844 H 0.52615 0.82197 0.71723 0.0
C845 C 0.53127 0.83488 0.72553 0.0
H846 H 0.53264 0.84511 0.71396 0.0
H847 H 0.5107 0.8493 0.77295 0.0
O848 O 0.60308 0.86668 0.78947 0.0
C849 C 0.55355 0.86385 0.80752 0.0
Co850 Co 0.12795 0.71251 0.78223 0.0
Co851 Co 0.12986 0.68095 0.76104 0.0
C852 C 0.09562 0.68159 0.76371 0.0
O853 O 0.10307 0.6966 0.77311 0.0
O854 O 0.10438 0.67406 0.75813 0.0
C855 C 0.12511 0.74459 0.78707 0.0
O856 O 0.11529 0.73988 0.76985 0.0
C857 C 0.12535 0.65309 0.73085 0.0
C858 C 0.1483 0.64988 0.73929 0.0
C859 C 0.13378 0.64354 0.72585 0.0
N860 N 0.13446 0.66446 0.74658 0.0
N861 N 0.14814 0.66245 0.75156 0.0
C862 C 0.10971 0.65243 0.72 0.0
H863 H 0.11099 0.6658 0.72012 0.0
H864 H 0.10857 0.64775 0.70341 0.0
H865 H 0.09742 0.64314 0.72871 0.0
C866 C 0.15668 0.73296 0.75102 0.0
N867 N 0.14427 0.71754 0.75978 0.0
N868 N 0.14469 0.70423 0.75038 0.0
C869 C 0.15707 0.71072 0.73495 0.0
C870 C 0.16513 0.72914 0.73492 0.0
C871 C 0.16144 0.75099 0.75921 0.0
H872 H 0.1614 0.7509 0.77676 0.0
H873 H 0.15143 0.75443 0.75362 0.0
H874 H 0.17478 0.76135 0.75368 0.0
O875 O 0.13346 0.70151 0.80579 0.0
O876 O 0.13564 0.67948 0.79121 0.0
H877 H 0.16826 0.69421 0.72844 0.0
H878 H 0.16826 0.70711 0.70598 0.0
C879 C 0.16061 0.69945 0.72005 0.0
H880 H 0.14785 0.68804 0.71465 0.0
H881 H 0.15738 0.6697 0.76334 0.0
O882 O 0.13091 0.73476 0.79413 0.0
C883 C 0.1364 0.68863 0.80732 0.0
Co884 Co 0.28544 0.41432 0.78391 0.0
Co885 Co 0.31726 0.44615 0.76042 0.0
C886 C 0.31509 0.41079 0.76399 0.0
O887 O 0.30044 0.40429 0.77415 0.0
O888 O 0.3231 0.42689 0.75757 0.0
C889 C 0.25242 0.38045 0.78873 0.0
O890 O 0.25616 0.3759 0.77042 0.0
C891 C 0.3453 0.46944 0.72993 0.0
C892 C 0.3474 0.49531 0.73734 0.0
C893 C 0.35432 0.48736 0.72445 0.0
N894 N 0.33365 0.46703 0.7454 0.0
N895 N 0.33503 0.48255 0.74976 0.0
C896 C 0.34678 0.45466 0.71983 0.0
H897 H 0.3337 0.44222 0.72008 0.0
H898 H 0.35154 0.45801 0.70324 0.0
H899 H 0.35638 0.45238 0.72897 0.0
C900 C 0.26495 0.42308 0.75326 0.0
N901 N 0.28036 0.42551 0.76141 0.0
N902 N 0.29372 0.43833 0.75093 0.0
C903 C 0.28723 0.44407 0.73532 0.0
C904 C 0.26879 0.43466 0.73636 0.0
C905 C 0.247 0.41112 0.76265 0.0
H906 H 0.24792 0.41117 0.78016 0.0
H907 H 0.24196 0.39737 0.75681 0.0
H908 H 0.23735 0.41539 0.75812 0.0
O909 O 0.29755 0.43142 0.80684 0.0
O910 O 0.32024 0.45382 0.79045 0.0
H911 H 0.30398 0.47115 0.72613 0.0
H912 H 0.29055 0.45684 0.70489 0.0
C913 C 0.29843 0.45769 0.71913 0.0
H914 H 0.3096 0.45573 0.71428 0.0
H915 H 0.32745 0.48441 0.76121 0.0
O916 O 0.26315 0.39552 0.79666 0.0
C917 C 0.31138 0.44673 0.80721 0.0
Co918 Co 0.53915 0.91946 0.0468 0.0
Co919 Co 0.53734 0.88519 0.06542 0.0
C920 C 0.5716 0.92015 0.06427 0.0
O921 O 0.56405 0.9281 0.05603 0.0
O922 O 0.56285 0.90359 0.06868 0.0
C923 C 0.54097 0.95427 0.04463 0.0
O924 O 0.55012 0.95876 0.06235 0.0
C925 C 0.54041 0.86001 0.09426 0.0
C926 C 0.51868 0.83445 0.08209 0.0
C927 C 0.53191 0.8417 0.09734 0.0
N928 N 0.53251 0.86329 0.07794 0.0
N929 N 0.51959 0.84796 0.07071 0.0
C930 C 0.55478 0.87431 0.10742 0.0
H931 H 0.55414 0.88673 0.10637 0.0
H932 H 0.55356 0.87008 0.12422 0.0
H933 H 0.5679 0.87709 0.10131 0.0
C934 C 0.51001 0.90944 0.0781 0.0
N935 N 0.52264 0.90705 0.06882 0.0
N936 N 0.52236 0.89304 0.07723 0.0
C937 C 0.50984 0.88633 0.09249 0.0
C938 C 0.50156 0.89647 0.0935 0.0
C939 C 0.505 0.9228 0.07097 0.0
H940 H 0.50538 0.92365 0.05344 0.0
H941 H 0.51464 0.93602 0.07752 0.0
H942 H 0.49146 0.91921 0.07638 0.0
O943 O 0.53386 0.90405 0.02196 0.0
O944 O 0.53175 0.87941 0.03503 0.0
H945 H 0.49945 0.85845 0.09688 0.0
H946 H 0.49805 0.86977 0.1202 0.0
C947 C 0.50633 0.87089 0.10628 0.0
H948 H 0.51911 0.87249 0.11199 0.0
H949 H 0.51131 0.84675 0.05808 0.0
O950 O 0.53605 0.93915 0.03644 0.0
C951 C 0.53099 0.88832 0.0195 0.0
Co952 Co 0.0778 0.61906 0.04277 0.0
Co953 Co 0.11172 0.65029 0.06365 0.0
C954 C 0.07726 0.65041 0.06182 0.0
O955 O 0.06949 0.63542 0.05238 0.0
O956 O 0.09359 0.65776 0.0672 0.0
C957 C 0.04294 0.58679 0.03977 0.0
O958 O 0.03922 0.59084 0.05841 0.0
C959 C 0.13644 0.67777 0.09352 0.0
C960 C 0.16204 0.68065 0.08302 0.0
C961 C 0.15463 0.68708 0.0975 0.0
N962 N 0.13336 0.66649 0.07738 0.0
N963 N 0.14871 0.6683 0.07118 0.0
C964 C 0.12202 0.67852 0.10562 0.0
H965 H 0.10958 0.66544 0.10501 0.0
H966 H 0.12598 0.68227 0.12238 0.0
H967 H 0.11938 0.68858 0.09826 0.0
C968 C 0.08648 0.59822 0.07317 0.0
N969 N 0.08925 0.6137 0.06482 0.0
N970 N 0.10304 0.62695 0.07423 0.0
C971 C 0.10915 0.62036 0.08928 0.0
C972 C 0.09892 0.60193 0.08902 0.0
C973 C 0.07341 0.58023 0.06467 0.0
H974 H 0.07271 0.58074 0.04718 0.0
H975 H 0.06007 0.57605 0.07135 0.0
H976 H 0.07716 0.57016 0.06902 0.0
O977 O 0.09398 0.62965 0.0188 0.0
O978 O 0.11843 0.65138 0.03336 0.0
H979 H 0.13693 0.63679 0.09546 0.0
H980 H 0.12423 0.62382 0.11799 0.0
C981 C 0.12413 0.63155 0.10404 0.0
H982 H 0.12286 0.64294 0.10967 0.0
H983 H 0.15008 0.66107 0.05886 0.0
O984 O 0.05786 0.59706 0.03122 0.0
C985 C 0.10991 0.64232 0.01727 0.0
Co986 Co 0.37927 0.4635 0.05057 0.0
Co987 Co 0.34423 0.46258 0.06439 0.0
C988 C 0.34745 0.42945 0.06342 0.0
O989 O 0.36357 0.43791 0.05712 0.0
O990 O 0.33867 0.4374 0.06674 0.0
C991 C 0.41208 0.46111 0.04652 0.0
O992 O 0.40449 0.44588 0.05671 0.0
C993 C 0.31425 0.45783 0.09156 0.0
C994 C 0.3063 0.47505 0.0746 0.0
C995 C 0.30217 0.46392 0.09194 0.0
N996 N 0.32507 0.46519 0.07479 0.0
N997 N 0.32022 0.47546 0.06477 0.0
C998 C 0.31501 0.44468 0.10622 0.0
H999 H 0.32196 0.43835 0.09871 0.0
H1000 H 0.32249 0.45164 0.12069 0.0
H1001 H 0.3014 0.43433 0.11099 0.0
C1002 C 0.3939 0.48982 0.08514 0.0
N1003 N 0.38015 0.47795 0.07337 0.0
N1004 N 0.36563 0.47811 0.07895 0.0
C1005 C 0.36977 0.49033 0.09436 0.0
C1006 C 0.38779 0.49804 0.09886 0.0
C1007 C 0.41273 0.49413 0.08203 0.0
H1008 H 0.41679 0.49849 0.06545 0.0
H1009 H 0.41362 0.48197 0.08473 0.0
H1010 H 0.42206 0.5048 0.09283 0.0
O1011 O 0.3712 0.46999 0.0247 0.0
O1012 O 0.34624 0.46913 0.03413 0.0
H1013 H 0.35009 0.4982 0.09221 0.0
H1014 H 0.36318 0.5054 0.11629 0.0
C1015 C 0.35672 0.49448 0.10456 0.0
H1016 H 0.34638 0.48245 0.11275 0.0
H1017 H 0.3264 0.48273 0.05115 0.0
O1018 O 0.40354 0.46921 0.04328 0.0
C1019 C 0.35792 0.47179 0.02028 0.0
Co1020 Co 0.07625 0.45672 0.54866 0.0
Co1021 Co 0.10972 0.45857 0.56965 0.0
C1022 C 0.07564 0.42413 0.56615 0.0
O1023 O 0.06809 0.43156 0.55664 0.0
O1024 O 0.09174 0.43303 0.57238 0.0
C1025 C 0.04133 0.45443 0.54461 0.0
O1026 O 0.03698 0.44688 0.56336 0.0
C1027 C 0.1342 0.45519 0.59925 0.0
C1028 C 0.15975 0.47866 0.59006 0.0
C1029 C 0.15229 0.4643 0.60379 0.0
N1030 N 0.13121 0.46381 0.58353 0.0
N1031 N 0.14653 0.47777 0.57808 0.0
C1032 C 0.11978 0.43941 0.61054 0.0
H1033 H 0.10728 0.43995 0.61033 0.0
H1034 H 0.12362 0.43886 0.62717 0.0
H1035 H 0.11731 0.42711 0.60224 0.0
C1036 C 0.08426 0.48511 0.58043 0.0
N1037 N 0.08705 0.47256 0.57166 0.0
N1038 N 0.10082 0.47293 0.5809 0.0
C1039 C 0.10686 0.48533 0.59631 0.0
C1040 C 0.09666 0.49354 0.59642 0.0
C1041 C 0.07144 0.49039 0.572 0.0
H1042 H 0.07095 0.48952 0.55448 0.0
H1043 H 0.05799 0.48121 0.57838 0.0
H1044 H 0.07527 0.50416 0.5767 0.0
O1045 O 0.09322 0.46422 0.5253 0.0
O1046 O 0.11674 0.4646 0.53947 0.0
H1047 H 0.13467 0.49678 0.60236 0.0
H1048 H 0.12194 0.49657 0.62509 0.0
C1049 C 0.12189 0.48899 0.61092 0.0
H1050 H 0.12073 0.47628 0.61618 0.0
H1051 H 0.14794 0.48676 0.56623 0.0
O1052 O 0.05644 0.45885 0.5368 0.0
C1053 C 0.10889 0.46679 0.52374 0.0
Co1054 Co 0.54068 0.61906 0.54864 0.0
Co1055 Co 0.53778 0.65128 0.56648 0.0
C1056 C 0.57227 0.65073 0.56705 0.0
O1057 O 0.56511 0.63519 0.559 0.0
O1058 O 0.56328 0.65845 0.57051 0.0
C1059 C 0.54221 0.59422 0.52073 0.0
O1060 O 0.55035 0.60823 0.5084 0.0
C1061 C 0.53919 0.67924 0.59522 0.0
C1062 C 0.51898 0.68387 0.57985 0.0
C1063 C 0.53089 0.68937 0.59655 0.0
N1064 N 0.53234 0.66818 0.57853 0.0
N1065 N 0.52025 0.67102 0.56952 0.0
C1066 C 0.55385 0.68057 0.60897 0.0
H1067 H 0.56172 0.67565 0.60061 0.0
H1068 H 0.54799 0.67226 0.6233 0.0
H1069 H 0.56274 0.69453 0.61406 0.0
C1070 C 0.51136 0.59964 0.57905 0.0
N1071 N 0.52371 0.61485 0.5699 0.0
N1072 N 0.52259 0.62827 0.57779 0.0
C1073 C 0.50955 0.62204 0.59245 0.0
C1074 C 0.50199 0.60367 0.59372 0.0
C1075 C 0.50775 0.58157 0.57245 0.0
H1076 H 0.50618 0.5803 0.55499 0.0
H1077 H 0.5193 0.58004 0.57679 0.0
H1078 H 0.49555 0.57077 0.57988 0.0
O1079 O 0.53612 0.62941 0.52331 0.0
O1080 O 0.53327 0.65168 0.53581 0.0
H1081 H 0.49863 0.63921 0.59502 0.0
H1082 H 0.49566 0.62605 0.61851 0.0
C1083 C 0.50488 0.63355 0.60539 0.0
H1084 H 0.51716 0.64472 0.61217 0.0
H1085 H 0.51295 0.66429 0.55612 0.0
O1086 O 0.53797 0.59611 0.53941 0.0
C1087 C 0.53326 0.64225 0.52041 0.0
Co1088 Co 0.37827 0.91775 0.54461 0.0
Co1089 Co 0.34626 0.88325 0.56318 0.0
C1090 C 0.34792 0.91885 0.56487 0.0
O1091 O 0.36324 0.9269 0.55624 0.0
O1092 O 0.33991 0.90211 0.56819 0.0
C1093 C 0.41063 0.95264 0.54125 0.0
O1094 O 0.40573 0.95733 0.55865 0.0
C1095 C 0.31875 0.85932 0.59312 0.0
C1096 C 0.31344 0.83304 0.58172 0.0
C1097 C 0.30841 0.84119 0.59688 0.0
N1098 N 0.32931 0.86171 0.57642 0.0
N1099 N 0.32605 0.84596 0.56966 0.0
C1100 C 0.31964 0.87421 0.60598 0.0
H1101 H 0.33327 0.88591 0.60544 0.0
H1102 H 0.31584 0.87007 0.62268 0.0
H1103 H 0.31033 0.87815 0.59919 0.0
C1104 C 0.39816 0.90728 0.57402 0.0
N1105 N 0.38292 0.90476 0.56524 0.0
N1106 N 0.36945 0.8904 0.57341 0.0
C1107 C 0.37569 0.88342 0.58786 0.0
C1108 C 0.39408 0.8939 0.5887 0.0
C1109 C 0.41633 0.92162 0.56759 0.0
H1110 H 0.41722 0.92261 0.55008 0.0
H1111 H 0.41874 0.93451 0.57406 0.0
H1112 H 0.42682 0.91899 0.57353 0.0
O1113 O 0.36651 0.90295 0.51966 0.0
O1114 O 0.34447 0.87782 0.53251 0.0
H1115 H 0.35805 0.85546 0.59115 0.0
H1116 H 0.37184 0.86575 0.61414 0.0
C1117 C 0.36418 0.86753 0.60126 0.0
H1118 H 0.35336 0.86906 0.60839 0.0
H1119 H 0.33249 0.84406 0.55684 0.0
O1120 O 0.40081 0.93723 0.53357 0.0
C1121 C 0.35345 0.88735 0.51692 0.0
Co1122 Co 0.12862 0.4183 0.28401 0.0
Co1123 Co 0.12874 0.45148 0.26467 0.0
C1124 C 0.09528 0.41562 0.26721 0.0
O1125 O 0.10336 0.40834 0.27579 0.0
O1126 O 0.10351 0.43206 0.26217 0.0
C1127 C 0.12497 0.38319 0.29235 0.0
O1128 O 0.11016 0.37576 0.28131 0.0
C1129 C 0.1241 0.47391 0.23332 0.0
C1130 C 0.14347 0.50078 0.24499 0.0
C1131 C 0.13116 0.4919 0.2291 0.0
N1132 N 0.13193 0.47231 0.25088 0.0
N1133 N 0.14339 0.4884 0.25785 0.0
C1134 C 0.11114 0.45848 0.22023 0.0
H1135 H 0.11325 0.44699 0.22248 0.0
H1136 H 0.11247 0.46214 0.20321 0.0
H1137 H 0.09744 0.45447 0.22544 0.0
C1138 C 0.15559 0.42703 0.25068 0.0
N1139 N 0.14383 0.4301 0.26097 0.0
N1140 N 0.14424 0.44427 0.25293 0.0
C1141 C 0.15642 0.45077 0.23726 0.0
C1142 C 0.16401 0.44005 0.23536 0.0
C1143 C 0.15805 0.41143 0.25491 0.0
H1144 H 0.16415 0.41292 0.27077 0.0
H1145 H 0.14489 0.39909 0.25498 0.0
H1146 H 0.16655 0.41009 0.24278 0.0
O1147 O 0.1344 0.43461 0.30814 0.0
O1148 O 0.13456 0.45822 0.29472 0.0
H1149 H 0.16421 0.47835 0.23657 0.0
H1150 H 0.17331 0.47164 0.21521 0.0
C1151 C 0.1614 0.4675 0.22526 0.0
H1152 H 0.15008 0.46539 0.21512 0.0
H1153 H 0.15135 0.49092 0.27124 0.0
O1154 O 0.13362 0.39995 0.29467 0.0
C1155 C 0.13645 0.45007 0.31031 0.0
Co1156 Co 0.5875 0.71331 0.27577 0.0
Co1157 Co 0.55166 0.68014 0.26158 0.0
C1158 C 0.58642 0.68041 0.25955 0.0
O1159 O 0.59496 0.69624 0.26673 0.0
O1160 O 0.56962 0.67253 0.25667 0.0
C1161 C 0.61599 0.74035 0.29981 0.0
O1162 O 0.61076 0.72768 0.31405 0.0
C1163 C 0.52448 0.6515 0.23497 0.0
C1164 C 0.49988 0.64675 0.25108 0.0
C1165 C 0.50602 0.64119 0.23412 0.0
N1166 N 0.52889 0.66253 0.25165 0.0
N1167 N 0.51414 0.65956 0.26125 0.0
C1168 C 0.53777 0.652 0.2195 0.0
H1169 H 0.55013 0.66517 0.21996 0.0
H1170 H 0.53223 0.64927 0.2032 0.0
H1171 H 0.54121 0.64171 0.22389 0.0
C1172 C 0.57624 0.73068 0.24405 0.0
N1173 N 0.57379 0.71612 0.25452 0.0
N1174 N 0.55868 0.70232 0.24846 0.0
C1175 C 0.55097 0.70771 0.23396 0.0
C1176 C 0.56188 0.72584 0.23067 0.0
C1177 C 0.59143 0.74904 0.24807 0.0
H1178 H 0.5919 0.75216 0.26518 0.0
H1179 H 0.60408 0.74954 0.24389 0.0
H1180 H 0.59021 0.75925 0.23885 0.0
O1181 O 0.57395 0.70511 0.30248 0.0
O1182 O 0.5485 0.68185 0.29231 0.0
H1183 H 0.52291 0.68988 0.23538 0.0
H1184 H 0.53026 0.70281 0.21123 0.0
C1185 C 0.53361 0.69568 0.22332 0.0
H1186 H 0.53434 0.68464 0.21551 0.0
H1187 H 0.51381 0.66642 0.27464 0.0
O1188 O 0.60848 0.73676 0.28179 0.0
C1189 C 0.55844 0.69239 0.30667 0.0
Co1190 Co 0.28389 0.87454 0.27142 0.0
Co1191 Co 0.31666 0.87143 0.25675 0.0
C1192 C 0.31685 0.90627 0.25565 0.0
O1193 O 0.30089 0.89913 0.26237 0.0
O1194 O 0.32455 0.89716 0.253 0.0
C1195 C 0.25768 0.87642 0.29648 0.0
O1196 O 0.27093 0.88439 0.30992 0.0
C1197 C 0.34578 0.87451 0.22995 0.0
C1198 C 0.34916 0.85259 0.24243 0.0
C1199 C 0.35563 0.86603 0.22743 0.0
N1200 N 0.33409 0.86644 0.24575 0.0
N1201 N 0.33624 0.85342 0.25321 0.0
C1202 C 0.34633 0.88902 0.21661 0.0
H1203 H 0.33301 0.88784 0.21613 0.0
H1204 H 0.35074 0.88852 0.20025 0.0
H1205 H 0.35583 0.90207 0.22372 0.0
C1206 C 0.26595 0.84588 0.23984 0.0
N1207 N 0.28069 0.85806 0.24996 0.0
N1208 N 0.2944 0.85679 0.24347 0.0
C1209 C 0.28882 0.84376 0.22884 0.0
C1210 C 0.27061 0.83641 0.22609 0.0
C1211 C 0.24763 0.84239 0.24484 0.0
H1212 H 0.24523 0.84014 0.26211 0.0
H1213 H 0.24665 0.85428 0.24058 0.0
H1214 H 0.23721 0.83063 0.2363 0.0
O1215 O 0.29241 0.86899 0.29773 0.0
O1216 O 0.315 0.86576 0.28729 0.0
H1217 H 0.30538 0.83206 0.22901 0.0
H1218 H 0.29381 0.82937 0.20427 0.0
C1219 C 0.30072 0.83858 0.21762 0.0
H1220 H 0.3125 0.85064 0.21137 0.0
H1221 H 0.32874 0.84497 0.26553 0.0
O1222 O 0.2606 0.87207 0.27834 0.0
C1223 C 0.30471 0.86554 0.30175 0.0
H1224 H 0.2046 0.19748 0.33467 0.0
H1225 H 0.20214 0.18931 0.2972 0.0
H1226 H 0.17225 0.2159 0.28531 0.0
H1227 H 0.17544 0.22486 0.3225 0.0
H1228 H 0.17609 0.17158 0.26795 0.0
H1229 H 0.21503 0.24355 0.24816 0.0
H1230 H 0.21188 0.23555 0.27503 0.0
H1231 H 0.19451 0.23725 0.26157 0.0
C1232 C 0.19731 0.20137 0.32409 0.0
C1233 C 0.19054 0.21211 0.33128 0.0
C1234 C 0.19587 0.19666 0.30273 0.0
C1235 C 0.18743 0.20243 0.28842 0.0
C1236 C 0.17929 0.2118 0.296 0.0
H1237 H 0.19135 0.20333 0.15029 0.0
H1238 H 0.17976 0.2008 0.18625 0.0
C1239 C 0.18107 0.21685 0.31721 0.0
C1240 C 0.18866 0.2001 0.26541 0.0
H1241 H 0.20565 0.2235 0.21968 0.0
C1242 C 0.18243 0.18291 0.25735 0.0
C1243 C 0.1971 0.21496 0.25166 0.0
C1244 C 0.20517 0.23387 0.25953 0.0
C1245 C 0.18463 0.18021 0.2359 0.0
C1246 C 0.19316 0.19507 0.22234 0.0
C1247 C 0.19891 0.21216 0.23022 0.0
C1248 C 0.19795 0.19358 0.20039 0.0
C1249 C 0.17811 0.16161 0.22788 0.0
C1250 C 0.21192 0.19025 0.19662 0.0
C1251 C 0.21875 0.19195 0.17623 0.0
C1252 C 0.21166 0.19695 0.1593 0.0
C1253 C 0.19711 0.19948 0.16301 0.0
C1254 C 0.19042 0.19797 0.18348 0.0
H1255 H 0.1687 0.15139 0.23913 0.0
H1256 H 0.17146 0.15964 0.21228 0.0
H1257 H 0.18964 0.15956 0.22567 0.0
H1258 H 0.21806 0.18714 0.2096 0.0
H1259 H 0.22988 0.18978 0.17384 0.0
H1260 H 0.81332 -0.0 0.15474 0.0
H1261 H 0.8154 0.99127 0.19111 0.0
H1262 H 0.78937 0.01932 0.21397 0.0
H1263 H 0.78803 0.02872 0.17805 0.0
H1264 H 0.81609 0.02523 0.23883 0.0
H1265 H 0.77511 0.95254 0.22362 0.0
H1266 H 0.79517 0.96394 0.20834 0.0
H1267 H 0.77759 0.96888 0.20427 0.0
C1268 C 0.80811 0.00433 0.16758 0.0
C1269 C 0.80044 0.01496 0.16357 0.0
C1270 C 0.80922 0.99925 0.18831 0.0
C1271 C 0.80225 0.00436 0.20522 0.0
C1272 C 0.79485 0.01522 0.20119 0.0
H1273 H 0.75325 0.95987 0.32056 0.0
H1274 H 0.76362 0.96722 0.28413 0.0
C1275 C 0.79406 0.02056 0.18062 0.0
C1276 C 0.80216 0.99834 0.2272 0.0
H1277 H 0.78408 0.96143 0.25864 0.0
C1278 C 0.80925 0.01127 0.2432 0.0
C1279 C 0.79323 0.98011 0.23278 0.0
C1280 C 0.78471 0.96554 0.21641 0.0
C1281 C 0.80659 0.00657 0.26467 0.0
C1282 C 0.79727 0.98833 0.27029 0.0
C1283 C 0.79123 0.97538 0.25427 0.0
C1284 C 0.79156 0.98245 0.29237 0.0
C1285 C 0.8127 0.02121 0.28096 0.0
C1286 C 0.80383 0.98812 0.30912 0.0
C1287 C 0.79787 0.9843 0.33006 0.0
C1288 C 0.77958 0.97429 0.33449 0.0
C1289 C 0.76742 0.96764 0.31764 0.0
C1290 C 0.77335 0.9718 0.29679 0.0
H1291 H 0.81594 0.03415 0.27371 0.0
H1292 H 0.80235 0.01788 0.29324 0.0
H1293 H 0.8249 0.02297 0.28885 0.0
H1294 H 0.81797 0.99587 0.30605 0.0
H1295 H 0.80755 0.98935 0.34277 0.0
H1296 H 0.05561 0.80891 0.32522 0.0
H1297 H 0.05244 0.81344 0.28763 0.0
H1298 H 0.00116 0.80819 0.29995 0.0
H1299 H 0.00439 0.80414 0.33754 0.0
H1300 H 0.02729 0.78848 0.26374 0.0
H1301 H 0.02132 0.84877 0.2584 0.0
H1302 H 0.02986 0.84349 0.28171 0.0
H1303 H 0.00624 0.83358 0.27771 0.0
C1304 C 0.0438 0.80906 0.31999 0.0
C1305 C 0.03017 0.80601 0.33433 0.0
C1306 C 0.04206 0.81173 0.29852 0.0
C1307 C 0.02668 0.8114 0.29104 0.0
C1308 C 0.01336 0.80899 0.30544 0.0
H1309 H 0.96561 0.76704 0.18208 0.0
H1310 H 0.97875 0.77772 0.21694 0.0
C1311 C 0.01514 0.80646 0.32692 0.0
C1312 C 0.02332 0.81089 0.26802 0.0
H1313 H 0.00781 0.8274 0.22964 0.0
C1314 C 0.02344 0.79727 0.2562 0.0
C1315 C 0.01839 0.82242 0.25812 0.0
C1316 C 0.01913 0.838 0.26963 0.0
C1317 C 0.01771 0.79418 0.23513 0.0
C1318 C 0.01151 0.80483 0.22579 0.0
C1319 C 0.01237 0.81913 0.23707 0.0
C1320 C 0.00283 0.80019 0.20492 0.0
C1321 C 0.01768 0.7791 0.2232 0.0
C1322 C 0.01188 0.80971 0.1868 0.0
C1323 C 0.00443 0.80363 0.16677 0.0
C1324 C 0.98785 0.78795 0.1647 0.0
C1325 C 0.97846 0.77906 0.18307 0.0
C1326 C 0.98591 0.78514 0.203 0.0
H1327 H 0.02619 0.77456 0.23101 0.0
H1328 H 0.00389 0.76767 0.22248 0.0
H1329 H 0.0224 0.78316 0.2067 0.0
H1330 H 0.02498 0.82137 0.1881 0.0
H1331 H 0.01197 0.81083 0.15293 0.0
H1332 H 0.80775 0.75502 0.67117 0.0
H1333 H 0.80931 0.76185 0.70893 0.0
H1334 H 0.80996 0.81069 0.69441 0.0
H1335 H 0.8086 0.80415 0.6566 0.0
H1336 H 0.83288 0.81243 0.72986 0.0
H1337 H 0.76279 0.75695 0.73476 0.0
H1338 H 0.77855 0.75141 0.72391 0.0
H1339 H 0.77357 0.76637 0.70984 0.0
C1340 C 0.80853 0.76737 0.67595 0.0
C1341 C 0.80772 0.77889 0.66089 0.0
C1342 C 0.80945 0.77125 0.69753 0.0
C1343 C 0.8095 0.78663 0.70435 0.0
C1344 C 0.80991 0.79874 0.68937 0.0
H1345 H 0.76662 0.8047 0.81648 0.0
H1346 H 0.77675 0.80379 0.78076 0.0
C1347 C 0.80903 0.79491 0.66779 0.0
C1348 C 0.807 0.7891 0.72695 0.0
H1349 H 0.7759 0.77241 0.76619 0.0
C1350 C 0.82051 0.80365 0.73792 0.0
C1351 C 0.79071 0.77771 0.7372 0.0
C1352 C 0.77548 0.7623 0.72585 0.0
C1353 C 0.81807 0.80714 0.75902 0.0
C1354 C 0.80177 0.79572 0.7692 0.0
C1355 C 0.78839 0.7811 0.75826 0.0
C1356 C 0.79776 0.79896 0.7909 0.0
C1357 C 0.83266 0.82321 0.7701 0.0
C1358 C 0.80651 0.79692 0.80842 0.0
C1359 C 0.80075 0.79744 0.82895 0.0
C1360 C 0.78605 0.79984 0.83219 0.0
C1361 C 0.77787 0.80267 0.81456 0.0
C1362 C 0.78367 0.80221 0.79413 0.0
H1363 H 0.84316 0.83233 0.75892 0.0
H1364 H 0.82712 0.83067 0.77835 0.0
H1365 H 0.83889 0.81882 0.78222 0.0
H1366 H 0.81726 0.79415 0.80619 0.0
H1367 H 0.80733 0.79522 0.8422 0.0
H1368 H 0.19949 0.00853 0.84002 0.0
H1369 H 0.19741 0.01746 0.80385 0.0
H1370 H 0.18443 0.96555 0.78102 0.0
H1371 H 0.18663 0.9565 0.81703 0.0
H1372 H 0.22114 0.01418 0.77193 0.0
H1373 H 0.14973 0.97945 0.74901 0.0
H1374 H 0.15707 0.98494 0.77619 0.0
H1375 H 0.15743 0.96668 0.76341 0.0
C1376 C 0.19585 0.99889 0.82737 0.0
C1377 C 0.19346 0.98188 0.83131 0.0
C1378 C 0.19458 0.004 0.80678 0.0
C1379 C 0.19058 0.99207 0.78994 0.0
C1380 C 0.18725 0.9748 0.79394 0.0
H1381 H 0.1995 0.99197 0.65553 0.0
H1382 H 0.18968 0.98516 0.69247 0.0
C1383 C 0.18869 0.96974 0.81447 0.0
C1384 C 0.1928 0.99846 0.76796 0.0
H1385 H 0.17089 0.9928 0.72124 0.0
C1386 C 0.21017 0.00978 0.76086 0.0
C1387 C 0.17842 0.99236 0.7537 0.0
C1388 C 0.15955 0.98026 0.76089 0.0
C1389 C 0.21369 0.01467 0.73955 0.0
C1390 C 0.1993 0.00859 0.72513 0.0
C1391 C 0.18184 0.99755 0.73237 0.0
C1392 C 0.20243 0.01273 0.7023 0.0
C1393 C 0.23286 0.02552 0.73258 0.0
C1394 C 0.2121 0.03045 0.69547 0.0
C1395 C 0.21809 0.03432 0.67463 0.0
C1396 C 0.21399 0.02052 0.66015 0.0
C1397 C 0.2029 0.00282 0.66648 0.0
C1398 C 0.19726 0.99893 0.68751 0.0
H1399 H 0.24209 0.02496 0.74433 0.0
H1400 H 0.23498 0.02079 0.71711 0.0
H1401 H 0.23645 0.03964 0.73085 0.0
H1402 H 0.21576 0.04128 0.70652 0.0
H1403 H 0.22635 0.04811 0.66997 0.0
H1404 H 0.99462 0.17809 0.65594 0.0
H1405 H 0.00097 0.17202 0.69183 0.0
H1406 H 0.96988 0.19383 0.7176 0.0
H1407 H 0.96288 0.19912 0.68206 0.0
H1408 H 0.01894 0.19411 0.72076 0.0
H1409 H 0.95283 0.15203 0.7549 0.0
H1410 H 0.95599 0.15585 0.72672 0.0
H1411 H 0.9529 0.17093 0.74354 0.0
C1412 C 0.98893 0.1813 0.66931 0.0
C1413 C 0.97824 0.18906 0.66622 0.0
C1414 C 0.99249 0.17776 0.68978 0.0
C1415 C 0.98553 0.18204 0.70745 0.0
C1416 C 0.97481 0.18971 0.70428 0.0
H1417 H 0.03143 0.23711 0.81503 0.0
H1418 H 0.02383 0.22302 0.78045 0.0
C1419 C 0.97101 0.19296 0.6839 0.0
C1420 C 0.99113 0.18073 0.72923 0.0
H1421 H 0.97553 0.17369 0.77985 0.0
C1422 C 0.00941 0.18914 0.73365 0.0
C1423 C 0.97881 0.17365 0.74613 0.0
C1424 C 0.95905 0.16242 0.74246 0.0
C1425 C 0.01565 0.19253 0.75454 0.0
C1426 C 0.00331 0.18803 0.7713 0.0
C1427 C 0.98506 0.1777 0.767 0.0
C1428 C 0.00889 0.1961 0.79258 0.0
C1429 C 0.03543 0.20155 0.75832 0.0
C1430 C 0.00244 0.18575 0.81101 0.0
C1431 C 0.00639 0.19388 0.83094 0.0
C1432 C 0.01691 0.21248 0.8327 0.0
C1433 C 0.02346 0.22274 0.81423 0.0
C1434 C 0.0193 0.21466 0.79441 0.0
H1435 H 0.04183 0.19703 0.74655 0.0
H1436 H 0.04134 0.21612 0.75628 0.0
H1437 H 0.03857 0.19886 0.77448 0.0
H1438 H 0.99419 0.17142 0.80997 0.0
H1439 H 0.0012 0.18563 0.84493 0.0
H1440 H 0.86218 0.52645 0.67425 0.0
H1441 H 0.86102 0.51776 0.63715 0.0
H1442 H 0.85785 0.56363 0.61745 0.0
H1443 H 0.85913 0.57256 0.65437 0.0
H1444 H 0.83652 0.51303 0.60041 0.0
H1445 H 0.90602 0.56938 0.59381 0.0
H1446 H 0.89547 0.56051 0.61901 0.0
H1447 H 0.89 0.57477 0.60418 0.0
C1448 C 0.86093 0.53454 0.66206 0.0
C1449 C 0.86108 0.55037 0.66724 0.0
C1450 C 0.86018 0.52949 0.64091 0.0
C1451 C 0.85954 0.54018 0.62471 0.0
C1452 C 0.85847 0.55532 0.62984 0.0
H1453 H 0.85839 0.53029 0.488 0.0
H1454 H 0.84938 0.53016 0.52477 0.0
C1455 C 0.85926 0.5604 0.65093 0.0
C1456 C 0.86217 0.53677 0.60252 0.0
H1457 H 0.89265 0.55337 0.56265 0.0
C1458 C 0.84875 0.5218 0.59207 0.0
C1459 C 0.87826 0.54816 0.59194 0.0
C1460 C 0.89336 0.56405 0.60279 0.0
C1461 C 0.85099 0.51806 0.571 0.0
C1462 C 0.86698 0.52966 0.56034 0.0
C1463 C 0.88039 0.54453 0.57092 0.0
C1464 C 0.87043 0.52678 0.53822 0.0
C1465 C 0.83643 0.50165 0.56041 0.0
C1466 C 0.88512 0.52476 0.53369 0.0
C1467 C 0.89041 0.52503 0.51281 0.0
C1468 C 0.88111 0.52737 0.49604 0.0
C1469 C 0.86583 0.52847 0.50057 0.0
C1470 C 0.86058 0.52828 0.52155 0.0
H1471 H 0.82678 0.49215 0.57209 0.0
H1472 H 0.8291 0.50558 0.5493 0.0
H1473 H 0.8421 0.49479 0.55113 0.0
H1474 H 0.89289 0.52364 0.5464 0.0
H1475 H 0.90214 0.52398 0.50988 0.0
H1476 H 0.47595 0.3863 0.50559 0.0
H1477 H 0.48012 0.38245 0.54307 0.0
H1478 H 0.46691 0.32829 0.53098 0.0
H1479 H 0.46325 0.33219 0.4934 0.0
H1480 H 0.45448 0.36012 0.56823 0.0
H1481 H 0.5083 0.34378 0.57044 0.0
H1482 H 0.50394 0.35327 0.54732 0.0
H1483 H 0.49119 0.32968 0.55221 0.0
C1484 C 0.4742 0.37365 0.51086 0.0
C1485 C 0.46915 0.3595 0.49657 0.0
C1486 C 0.47667 0.37151 0.53226 0.0
C1487 C 0.47409 0.35518 0.53978 0.0
C1488 C 0.46948 0.34117 0.52545 0.0
H1489 H 0.43188 0.29582 0.64975 0.0
H1490 H 0.44326 0.30838 0.61482 0.0
C1491 C 0.4672 0.34336 0.504 0.0
C1492 C 0.47392 0.35203 0.56282 0.0
H1493 H 0.48808 0.33372 0.60055 0.0
C1494 C 0.46217 0.35477 0.57538 0.0
C1495 C 0.484 0.34508 0.57217 0.0
C1496 C 0.4977 0.34297 0.55984 0.0
C1497 C 0.45945 0.34978 0.59672 0.0
C1498 C 0.46862 0.34177 0.60562 0.0
C1499 C 0.48104 0.33981 0.59349 0.0
C1500 C 0.46386 0.3337 0.62679 0.0
C1501 C 0.44612 0.35224 0.60943 0.0
C1502 C 0.47202 0.34377 0.64495 0.0
C1503 C 0.46555 0.33665 0.66501 0.0
C1504 C 0.45075 0.31943 0.66705 0.0
C1505 C 0.44318 0.30917 0.64874 0.0
C1506 C 0.44971 0.31626 0.62878 0.0
H1507 H 0.44111 0.35994 0.60065 0.0
H1508 H 0.43465 0.33903 0.61353 0.0
H1509 H 0.45223 0.35923 0.6245 0.0
H1510 H 0.48292 0.35732 0.64356 0.0
H1511 H 0.47168 0.34487 0.67883 0.0
H1512 H 0.66362 0.13877 0.67366 0.0
H1513 H 0.65766 0.14126 0.63631 0.0
H1514 H 0.70615 0.14235 0.6187 0.0
H1515 H 0.71227 0.1398 0.65589 0.0
H1516 H 0.68069 0.16663 0.60015 0.0
H1517 H 0.6618 0.0953 0.59362 0.0
H1518 H 0.66303 0.10576 0.61876 0.0
H1519 H 0.68305 0.11007 0.60542 0.0
C1520 C 0.67318 0.13984 0.66189 0.0
C1521 C 0.68826 0.13876 0.66771 0.0
C1522 C 0.6698 0.14138 0.6406 0.0
C1523 C 0.68144 0.14188 0.62491 0.0
C1524 C 0.69703 0.14193 0.6307 0.0
H1525 H 0.67561 0.14219 0.48768 0.0
H1526 H 0.68475 0.15172 0.52432 0.0
C1527 C 0.70043 0.14038 0.65195 0.0
C1528 C 0.67614 0.13993 0.60249 0.0
H1529 H 0.66078 0.10956 0.56249 0.0
C1530 C 0.67636 0.15421 0.59181 0.0
C1531 C 0.67035 0.12361 0.59191 0.0
C1532 C 0.66938 0.10772 0.60297 0.0
C1533 C 0.67098 0.15255 0.57053 0.0
C1534 C 0.66534 0.13625 0.55996 0.0
C1535 C 0.66514 0.12203 0.57073 0.0
C1536 C 0.65914 0.1332 0.53782 0.0
C1537 C 0.67103 0.16801 0.55961 0.0
C1538 C 0.64168 0.11988 0.53338 0.0
C1539 C 0.63649 0.11429 0.51263 0.0
C1540 C 0.64871 0.12191 0.49591 0.0
C1541 C 0.66591 0.13605 0.50024 0.0
C1542 C 0.67113 0.14159 0.52112 0.0
H1543 H 0.67276 0.17852 0.57098 0.0
H1544 H 0.68214 0.17394 0.54804 0.0
H1545 H 0.65845 0.16344 0.55071 0.0
H1546 H 0.63228 0.11324 0.54612 0.0
H1547 H 0.62308 0.10352 0.5098 0.0
H1548 H 0.4702 0.13595 0.16899 0.0
H1549 H 0.4782 0.13971 0.13154 0.0
H1550 H 0.44022 0.15692 0.11941 0.0
H1551 H 0.43167 0.15254 0.15672 0.0
H1552 H 0.43452 0.13056 0.09465 0.0
H1553 H 0.50627 0.17971 0.0913 0.0
H1554 H 0.502 0.16225 0.10961 0.0
H1555 H 0.49305 0.17667 0.11467 0.0
C1556 C 0.46381 0.14087 0.15842 0.0
C1557 C 0.45017 0.14375 0.16571 0.0
C1558 C 0.46853 0.14321 0.13704 0.0
C1559 C 0.45998 0.14884 0.12271 0.0
C1560 C 0.44703 0.15263 0.13021 0.0
H1561 H 0.4639 0.14338 0.98379 0.0
H1562 H 0.46468 0.15569 0.01899 0.0
C1563 C 0.44211 0.15005 0.15151 0.0
C1564 C 0.4626 0.14815 0.09964 0.0
H1565 H 0.49433 0.15916 0.06152 0.0
C1566 C 0.44756 0.1372 0.08732 0.0
C1567 C 0.47962 0.15681 0.09007 0.0
C1568 C 0.4961 0.16966 0.10209 0.0
C1569 C 0.44919 0.13387 0.06601 0.0
C1570 C 0.46627 0.1416 0.05688 0.0
C1571 C 0.48127 0.15321 0.06877 0.0
C1572 C 0.46863 0.13619 0.03563 0.0
C1573 C 0.43276 0.1214 0.05359 0.0
C1574 C 0.47091 0.1214 0.03358 0.0
C1575 C 0.4703 0.11423 0.01364 0.0
C1576 C 0.46745 0.12181 0.99544 0.0
C1577 C 0.46606 0.13721 -0.00248 0.0
C1578 C 0.46658 0.14431 0.01754 0.0
H1579 H 0.42035 0.11707 0.06279 0.0
H1580 H 0.43209 0.12801 0.03885 0.0
H1581 H 0.43346 0.10944 0.0489 0.0
H1582 H 0.4724 0.11495 0.04749 0.0
H1583 H 0.47156 0.10246 0.01259 0.0
H1584 H 0.87528 0.30162 0.15049 0.0
H1585 H 0.86944 0.30952 0.11569 0.0
H1586 H 0.84091 0.33303 0.14432 0.0
H1587 H 0.84745 0.32579 0.17958 0.0
H1588 H 0.83919 0.30014 0.09496 0.0
H1589 H 0.87606 0.37344 0.10826 0.0
H1590 H 0.87713 0.35825 0.12684 0.0
H1591 H 0.85758 0.36032 0.12546 0.0
C1592 C 0.86777 0.30849 0.14944 0.0
C1593 C 0.86195 0.31323 0.16775 0.0
C1594 C 0.86436 0.31293 0.12951 0.0
C1595 C 0.85486 0.322 0.12738 0.0
C1596 C 0.84858 0.32636 0.14561 0.0
H1597 H 0.84928 0.33611 0.98922 0.0
H1598 H 0.83685 0.32874 0.02515 0.0
C1599 C 0.85229 0.32218 0.16571 0.0
C1600 C 0.8524 0.32724 0.10588 0.0
H1601 H 0.8678 0.36346 0.07362 0.0
C1602 C 0.84514 0.31397 0.09025 0.0
C1603 C 0.85999 0.3453 0.09992 0.0
C1604 C 0.86824 0.3602 0.11591 0.0
C1605 C 0.84702 0.3183 0.06866 0.0
C1606 C 0.85577 0.33642 0.06264 0.0
C1607 C 0.86123 0.3496 0.07834 0.0
C1608 C 0.86247 0.34213 0.04082 0.0
C1609 C 0.84108 0.30349 0.05262 0.0
C1610 C 0.88089 0.35267 0.03775 0.0
C1611 C 0.88793 0.35718 0.01744 0.0
C1612 C 0.87673 0.35105 -0.00033 0.0
C1613 C 0.85823 0.3408 0.00266 0.0
C1614 C 0.85113 0.33654 0.02314 0.0
H1615 H 0.83719 0.29049 0.06017 0.0
H1616 H 0.82938 0.30211 0.04385 0.0
H1617 H 0.85182 0.30651 0.04101 0.0
H1618 H 0.88992 0.35707 0.05113 0.0
H1619 H 0.90223 0.36509 0.01568 0.0
H1620 H 0.61781 0.51432 0.00589 0.0
H1621 H 0.62446 0.51132 0.04278 0.0
H1622 H 0.68041 0.5372 0.02792 0.0
H1623 H 0.67377 0.53949 0.99076 0.0
H1624 H 0.67119 0.51087 0.05686 0.0
H1625 H 0.6442 0.55448 0.08019 0.0
H1626 H 0.62823 0.53444 0.06714 0.0
H1627 H 0.6475 0.55075 0.05292 0.0
C1628 C 0.63151 0.5192 0.01046 0.0
C1629 C 0.64533 0.52742 0.9956 0.0
C1630 C 0.63528 0.51751 0.03152 0.0
C1631 C 0.65295 0.52449 0.03815 0.0
C1632 C 0.66668 0.53183 0.02311 0.0
H1633 H 0.71049 0.56348 0.15238 0.0
H1634 H 0.70097 0.55259 0.11632 0.0
C1635 C 0.66289 0.53318 0.00194 0.0
C1636 C 0.65728 0.52542 0.06092 0.0
H1637 H 0.65393 0.54314 0.10774 0.0
C1638 C 0.66735 0.51784 0.06802 0.0
C1639 C 0.65238 0.53469 0.07539 0.0
C1640 C 0.64264 0.54421 0.06853 0.0
C1641 C 0.67274 0.51941 0.08925 0.0
C1642 C 0.66779 0.52863 0.10356 0.0
C1643 C 0.65744 0.53586 0.09662 0.0
C1644 C 0.67442 0.53244 0.12545 0.0
C1645 C 0.68385 0.51145 0.0963 0.0
C1646 C 0.66265 0.52444 0.1424 0.0
C1647 C 0.66804 0.53056 0.16302 0.0
C1648 C 0.68516 0.54502 0.16686 0.0
C1649 C 0.69717 0.55242 0.14989 0.0
C1650 C 0.69182 0.54614 0.12933 0.0
H1651 H 0.6843 0.50244 0.08415 0.0
H1652 H 0.69763 0.52231 0.09944 0.0
H1653 H 0.67851 0.50394 0.1113 0.0
H1654 H 0.6491 0.51397 0.13955 0.0
H1655 H 0.6585 0.52457 0.17576 0.0
H1656 H 0.53691 0.90587 0.98207 0.0
H1657 H 0.53259 0.89364 0.94656 0.0
H1658 H 0.51185 0.84092 0.97249 0.0
H1659 H 0.51686 0.85327 0.00839 0.0
H1660 H 0.53476 0.84604 0.94352 0.0
H1661 H 0.49045 0.86764 0.90967 0.0
H1662 H 0.50922 0.88673 0.92085 0.0
H1663 H 0.49452 0.86847 0.9378 0.0
C1664 C 0.5312 0.89164 0.98028 0.0
C1665 C 0.52722 0.88054 -0.00197 0.0
C1666 C 0.52854 0.88461 0.95991 0.0
C1667 C 0.52142 0.86628 0.9568 0.0
C1668 C 0.51717 0.85508 0.97451 0.0
H1669 H 0.51869 0.84823 0.8198 0.0
H1670 H 0.50713 0.84322 0.85607 0.0
C1671 C 0.52009 0.86216 0.99498 0.0
C1672 C 0.52031 0.85939 0.93505 0.0
H1673 H 0.51121 0.8659 0.88444 0.0
C1674 C 0.52918 0.84997 0.93064 0.0
C1675 C 0.51251 0.86387 0.91823 0.0
C1676 C 0.50096 0.87204 0.92198 0.0
C1677 C 0.532 0.84655 0.90973 0.0
C1678 C 0.52643 0.85335 0.89287 0.0
C1679 C 0.51597 0.86112 0.89732 0.0
C1680 C 0.53301 0.8545 0.87094 0.0
C1681 C 0.54137 0.8361 0.90602 0.0
C1682 C 0.55138 0.86257 0.86723 0.0
C1683 C 0.55796 0.8652 0.84663 0.0
C1684 C 0.54635 0.86026 0.82926 0.0
C1685 C 0.52795 0.85222 0.83291 0.0
C1686 C 0.52133 0.8493 0.8536 0.0
H1687 H 0.53787 0.8259 0.91857 0.0
H1688 H 0.53794 0.82937 0.89037 0.0
H1689 H 0.55596 0.84522 0.90678 0.0
H1690 H 0.56073 0.86736 0.88027 0.0
H1691 H 0.57221 0.87161 0.84434 0.0
H1692 H 0.14553 0.65927 0.00793 0.0
H1693 H 0.15916 0.66597 0.97259 0.0
H1694 H 0.10698 0.64216 0.94422 0.0
H1695 H 0.09342 0.63473 0.97914 0.0
H1696 H 0.12757 0.63278 0.92335 0.0
H1697 H 0.16457 0.70612 0.93635 0.0
H1698 H 0.17002 0.69302 0.95346 0.0
H1699 H 0.14845 0.69107 0.95513 0.0
C1700 C 0.13704 0.65548 0.99409 0.0
C1701 C 0.11843 0.64659 0.99624 0.0
C1702 C 0.14483 0.65934 0.97394 0.0
C1703 C 0.1341 0.65478 0.95575 0.0
C1704 C 0.11554 0.64573 0.958 0.0
H1705 H 0.12894 0.69798 0.84521 0.0
H1706 H 0.1336 0.68965 0.88027 0.0
C1707 C 0.10778 0.64156 0.97799 0.0
C1708 C 0.14172 0.65991 0.93419 0.0
H1709 H 0.16259 0.69602 0.90177 0.0
C1710 C 0.13552 0.6466 0.91859 0.0
C1711 C 0.1523 0.67794 0.92815 0.0
C1712 C 0.15917 0.69291 0.94406 0.0
C1713 C 0.13782 0.65088 0.89698 0.0
C1714 C 0.14725 0.66898 0.8909 0.0
C1715 C 0.15523 0.68217 0.90655 0.0
C1716 C 0.14589 0.67471 0.86922 0.0
C1717 C 0.12875 0.63607 0.88099 0.0
C1718 C 0.15135 0.66918 0.85123 0.0
C1719 C 0.1483 0.67363 0.83093 0.0
C1720 C 0.14013 0.68402 0.82846 0.0
C1721 C 0.13529 0.69 0.84655 0.0
C1722 C 0.13803 0.68531 0.86665 0.0
H1723 H 0.11978 0.62305 0.8886 0.0
H1724 H 0.12081 0.63906 0.86966 0.0
H1725 H 0.13893 0.63473 0.87187 0.0
H1726 H 0.15778 0.6613 0.85284 0.0
H1727 H 0.15236 0.66903 0.81724 0.0
H1728 H 0.38347 0.4871 0.98984 0.0
H1729 H 0.37932 0.4918 0.95261 0.0
H1730 H 0.32326 0.47064 0.96384 0.0
H1731 H 0.32746 0.46659 0.00122 0.0
H1732 H 0.36066 0.46609 0.92648 0.0
H1733 H 0.33274 0.51088 0.92547 0.0
H1734 H 0.3431 0.50799 0.94877 0.0
H1735 H 0.32012 0.49244 0.94282 0.0
C1736 C 0.37032 0.48378 0.98445 0.0
C1737 C 0.35575 0.47636 -0.00161 0.0
C1738 C 0.36798 0.48654 0.9632 0.0
C1739 C 0.35103 0.48179 0.95546 0.0
C1740 C 0.33657 0.47491 0.96953 0.0
H1741 H 0.29328 0.43846 0.8446 0.0
H1742 H 0.30492 0.45119 0.87942 0.0
C1743 C 0.33894 0.47241 0.99087 0.0
C1744 C 0.348 0.48162 0.93235 0.0
H1745 H 0.32581 0.49137 0.89484 0.0
C1746 C 0.35345 0.47203 0.91948 0.0
C1747 C 0.33859 0.48938 0.92319 0.0
C1748 C 0.33349 0.5009 0.93579 0.0
C1749 C 0.34883 0.46907 0.89803 0.0
C1750 C 0.33849 0.47587 0.88926 0.0
C1751 C 0.3337 0.48615 0.90176 0.0
C1752 C 0.33095 0.47058 0.86785 0.0
C1753 C 0.35416 0.45785 0.88512 0.0
C1754 C 0.34169 0.47767 0.84986 0.0
C1755 C 0.33509 0.47044 0.82988 0.0
C1756 C 0.31772 0.45593 0.82773 0.0
C1757 C 0.30677 0.44951 0.84574 0.0
C1758 C 0.31333 0.45682 0.86562 0.0
H1759 H 0.36133 0.45268 0.89471 0.0
H1760 H 0.34219 0.44641 0.87806 0.0
H1761 H 0.36293 0.46591 0.87192 0.0
H1762 H 0.35536 0.48829 0.85141 0.0
H1763 H 0.34383 0.47572 0.8163 0.0
H1764 H 0.14502 0.43834 0.34608 0.0
H1765 H 0.14676 0.44913 0.38219 0.0
H1766 H 0.13774 0.49069 0.35916 0.0
H1767 H 0.13599 0.48005 0.32282 0.0
H1768 H 0.16766 0.48697 0.40265 0.0
H1769 H 0.09373 0.45444 0.39805 0.0
H1770 H 0.10626 0.44869 0.38012 0.0
H1771 H 0.10675 0.46947 0.37718 0.0
C1772 C 0.14371 0.44996 0.3486 0.0
C1773 C 0.14006 0.45815 0.33163 0.0
C1774 C 0.14485 0.45618 0.36922 0.0
C1775 C 0.14231 0.47061 0.37321 0.0
C1776 C 0.13976 0.47953 0.35626 0.0
H1777 H 0.10417 0.48609 0.49335 0.0
H1778 H 0.11579 0.49167 0.45727 0.0
C1779 C 0.13869 0.47338 0.33556 0.0
C1780 C 0.13979 0.47455 0.39519 0.0
H1781 H 0.107 0.46588 0.43076 0.0
C1782 C 0.15446 0.48263 0.40885 0.0
C1783 C 0.12254 0.46882 0.40305 0.0
C1784 C 0.10634 0.45978 0.38897 0.0
C1785 C 0.15226 0.48493 0.43045 0.0
C1786 C 0.13489 0.4785 0.4385 0.0
C1787 C 0.12032 0.47088 0.42459 0.0
C1788 C 0.13107 0.47839 0.46138 0.0
C1789 C 0.16852 0.4942 0.44434 0.0
C1790 C 0.13624 0.46955 0.4759 0.0
C1791 C 0.12984 0.46661 0.49669 0.0
C1792 C 0.11781 0.47206 0.50302 0.0
C1793 C 0.11327 0.48157 0.48877 0.0
C1794 C 0.11996 0.48482 0.46819 0.0
H1795 H 0.18039 0.50361 0.43502 0.0
H1796 H 0.16655 0.50162 0.45739 0.0
H1797 H 0.17132 0.48414 0.45138 0.0
H1798 H 0.14441 0.46404 0.47089 0.0
H1799 H 0.13346 0.45918 0.50739 0.0
H1800 H 0.52031 0.66385 0.50788 0.0
H1801 H 0.5177 0.67231 0.4716 0.0
H1802 H 0.53887 0.64008 0.44775 0.0
H1803 H 0.54082 0.63106 0.48363 0.0
H1804 H 0.54262 0.69041 0.44423 0.0
H1805 H 0.49832 0.62518 0.40827 0.0
H1806 H 0.50132 0.62802 0.43657 0.0
H1807 H 0.51659 0.6246 0.42059 0.0
C1808 C 0.52414 0.65837 0.49485 0.0
C1809 C 0.5307 0.64672 0.49861 0.0
C1810 C 0.52263 0.6632 0.47414 0.0
C1811 C 0.52772 0.65653 0.4569 0.0
C1812 C 0.53425 0.64491 0.4607 0.0
H1813 H 0.57851 0.70374 0.34253 0.0
H1814 H 0.56833 0.69638 0.37901 0.0
C1815 C 0.53552 0.63988 0.48129 0.0
C1816 C 0.52778 0.66281 0.43506 0.0
H1817 H 0.51901 0.64816 0.38403 0.0
C1818 C 0.53711 0.68118 0.43109 0.0
C1819 C 0.52016 0.65085 0.4179 0.0
C1820 C 0.50836 0.63109 0.42112 0.0
C1821 C 0.5402 0.68784 0.41034 0.0
C1822 C 0.53439 0.67577 0.39314 0.0
C1823 C 0.52385 0.65746 0.39716 0.0
C1824 C 0.5403 0.68159 0.37108 0.0
C1825 C 0.54988 0.70772 0.40717 0.0
C1826 C 0.528 0.67536 0.35433 0.0
C1827 C 0.53386 0.67913 0.33336 0.0
C1828 C 0.55211 0.68935 0.32879 0.0
C1829 C 0.56435 0.696 0.34557 0.0
C1830 C 0.55852 0.69194 0.36648 0.0
H1831 H 0.5469 0.71439 0.42025 0.0
H1832 H 0.56443 0.71286 0.40733 0.0
H1833 H 0.54625 0.71143 0.39191 0.0
H1834 H 0.51389 0.66726 0.35747 0.0
H1835 H 0.52411 0.67389 0.32073 0.0
H1836 H 0.29434 0.87527 0.33755 0.0
H1837 H 0.30161 0.87229 0.37404 0.0
H1838 H 0.32807 0.84425 0.35266 0.0
H1839 H 0.32161 0.84803 0.31586 0.0
H1840 H 0.29447 0.84563 0.39975 0.0
H1841 H 0.36737 0.88379 0.38496 0.0
H1842 H 0.35143 0.88184 0.36534 0.0
H1843 H 0.35552 0.86372 0.36983 0.0
C1844 C 0.30164 0.86839 0.3406 0.0
C1845 C 0.30766 0.86212 0.32386 0.0
C1846 C 0.30574 0.86664 0.36149 0.0
C1847 C 0.31571 0.85837 0.36608 0.0
C1848 C 0.32084 0.85116 0.34946 0.0
H1849 H 0.33242 0.85281 0.50377 0.0
H1850 H 0.32339 0.8423 0.46735 0.0
C1851 C 0.31707 0.85324 0.32847 0.0
C1852 C 0.32139 0.85831 0.38821 0.0
H1853 H 0.35813 0.87485 0.41982 0.0
C1854 C 0.30838 0.85187 0.40418 0.0
C1855 C 0.33957 0.86649 0.39391 0.0
C1856 C 0.3543 0.8745 0.37766 0.0
C1857 C 0.31306 0.85433 0.42569 0.0
C1858 C 0.33126 0.86289 0.43136 0.0
C1859 C 0.34419 0.86829 0.4154 0.0
C1860 C 0.33736 0.86859 0.45338 0.0
C1861 C 0.29853 0.84881 0.44202 0.0
C1862 C 0.34875 0.88673 0.4575 0.0
C1863 C 0.35422 0.89268 0.47808 0.0
C1864 C 0.34825 0.88064 0.49509 0.0
C1865 C 0.33707 0.86241 0.49098 0.0
C1866 C 0.33182 0.8564 0.47022 0.0
H1867 H 0.2857 0.84593 0.43478 0.0
H1868 H 0.29641 0.83655 0.4501 0.0
H1869 H 0.30226 0.85934 0.45417 0.0
H1870 H 0.35317 0.89639 0.44477 0.0
H1871 H 0.36279 0.90681 0.4807 0.0
H1872 H 0.28826 0.26316 0.10585 0.0
H1873 H 0.30505 0.29535 0.10029 0.0
H1874 H 0.26094 0.29254 0.06564 0.0
H1875 H 0.24401 0.26035 0.07103 0.0
H1876 H 0.29575 0.31417 0.04644 0.0
H1877 H 0.29301 0.3307 0.13097 0.0
H1878 H 0.30094 0.31546 0.12606 0.0
H1879 H 0.2783 0.30897 0.12001 0.0
C1880 C 0.28214 0.26934 0.09695 0.0
C1881 C 0.26473 0.25915 0.08901 0.0
C1882 C 0.29173 0.28776 0.09388 0.0
C1883 C 0.28413 0.29631 0.0828 0.0
C1884 C 0.26699 0.28616 0.07433 0.0
H1885 H 0.31392 0.40724 0.07858 0.0
H1886 H 0.29907 0.37498 0.08294 0.0
C1887 C 0.25734 0.26777 0.07747 0.0
C1888 C 0.29393 0.31589 0.08026 0.0
H1889 H 0.31004 0.35475 0.10787 0.0
C1890 C 0.29893 0.32307 0.05984 0.0
C1891 C 0.29784 0.3274 0.09779 0.0
C1892 C 0.29215 0.32032 0.11996 0.0
C1893 C 0.3079 0.34154 0.0565 0.0
C1894 C 0.31207 0.35306 0.07407 0.0
C1895 C 0.30694 0.34586 0.09447 0.0
C1896 C 0.3213 0.37264 0.07155 0.0
C1897 C 0.31252 0.34857 0.03417 0.0
C1898 C 0.33882 0.38203 0.06398 0.0
C1899 C 0.3474 0.4005 0.0615 0.0
C1900 C 0.33859 0.40992 0.06658 0.0
C1901 C 0.3211 0.40044 0.07444 0.0
C1902 C 0.31258 0.382 0.07697 0.0
H1903 H 0.30507 0.33802 0.02222 0.0
H1904 H 0.30967 0.35955 0.03162 0.0
H1905 H 0.32694 0.35392 0.03147 0.0
H1906 H 0.34588 0.37508 0.06004 0.0
H1907 H 0.36089 0.40737 0.05549 0.0
H1908 H 0.59531 0.95451 0.05295 0.0
H1909 H 0.6276 0.97047 0.05745 0.0
H1910 H 0.62443 0.92464 0.08819 0.0
H1911 H 0.5921 0.90853 0.08386 0.0
H1912 H 0.64657 0.95801 0.10913 0.0
H1913 H 0.66241 0.95994 0.02355 0.0
H1914 H 0.64748 0.96793 0.03008 0.0
H1915 H 0.64065 0.94493 0.03425 0.0
C1916 C 0.60144 0.94781 0.06074 0.0
C1917 C 0.59108 0.93018 0.06795 0.0
C1918 C 0.61991 0.95693 0.06317 0.0
C1919 C 0.6284 0.94863 0.07285 0.0
C1920 C 0.61812 0.93123 0.08054 0.0
H1921 H 0.74088 0.98178 0.07505 0.0
H1922 H 0.70864 0.96592 0.06964 0.0
C1923 C 0.59964 0.92205 0.07804 0.0
C1924 C 0.648 0.95815 0.0751 0.0
H1925 H 0.68668 0.97658 0.04674 0.0
C1926 C 0.65535 0.96205 0.09551 0.0
C1927 C 0.65939 0.96321 0.05728 0.0
C1928 C 0.65215 0.95868 0.03503 0.0
C1929 C 0.67384 0.97119 0.09859 0.0
C1930 C 0.68523 0.97668 0.08076 0.0
C1931 C 0.67789 0.97248 0.06035 0.0
C1932 C 0.70484 0.98669 0.08307 0.0
C1933 C 0.68105 0.97471 0.1209 0.0
C1934 C 0.71339 0.00379 0.09193 0.0
C1935 C 0.73179 0.01292 0.09499 0.0
C1936 C 0.74202 0.00511 0.08923 0.0
C1937 C 0.73343 0.98817 0.07975 0.0
C1938 C 0.71501 0.97908 0.07663 0.0
H1939 H 0.67074 0.9662 0.13263 0.0
H1940 H 0.69247 0.97238 0.12231 0.0
H1941 H 0.68582 0.98882 0.12499 0.0
H1942 H 0.70579 0.01001 0.09667 0.0
H1943 H 0.73793 0.02597 0.10224 0.0
H1944 H 0.97949 0.71701 0.11911 0.0
H1945 H 0.99542 0.70079 0.1137 0.0
H1946 H 0.02225 0.73382 0.05962 0.0
H1947 H 0.00706 0.75074 0.06571 0.0
H1948 H 0.99635 0.68109 0.08405 0.0
H1949 H 0.0641 0.73919 0.09103 0.0
H1950 H 0.04451 0.74053 0.09695 0.0
H1951 H 0.05194 0.74207 0.06997 0.0
C1952 C 0.98877 0.72081 0.10605 0.0
C1953 C 0.99215 0.73525 0.09295 0.0
C1954 C 0.9979 0.71153 0.10298 0.0
C1955 C 0.01041 0.71634 0.08657 0.0
C1956 C 0.01318 0.73026 0.07287 0.0
H1957 H 0.04828 0.64677 0.04062 0.0
H1958 H 0.03213 0.66262 0.04692 0.0
C1959 C 0.00435 0.73981 0.07623 0.0
C1960 C 0.02036 0.70664 0.08376 0.0
H1961 H 0.06204 0.71253 0.07764 0.0
C1962 C 0.01073 0.68798 0.0828 0.0
C1963 C 0.03917 0.71554 0.0826 0.0
C1964 C 0.05053 0.73541 0.08543 0.0
C1965 C 0.01931 0.67801 0.08041 0.0
C1966 C 0.03803 0.68698 0.07794 0.0
C1967 C 0.04768 0.70562 0.07924 0.0
C1968 C 0.04791 0.67734 0.07405 0.0
C1969 C 0.00818 0.65798 0.08112 0.0
C1970 C 0.0627 0.68085 0.08658 0.0
C1971 C 0.07231 0.67217 0.08259 0.0
C1972 C 0.06716 0.65963 0.06616 0.0
C1973 C 0.05239 0.65615 0.05362 0.0
C1974 C 0.04304 0.66511 0.05732 0.0
H1975 H 0.99572 0.65358 0.09024 0.0
H1976 H 0.00436 0.65279 0.06476 0.0
H1977 H 0.01557 0.65196 0.0884 0.0
H1978 H 0.0668 0.69029 0.09952 0.0
H1979 H 0.08363 0.67512 0.09252 0.0
H1980 H 0.40236 0.36272 0.43407 0.0
H1981 H 0.37019 0.34695 0.42835 0.0
H1982 H 0.37232 0.30142 0.40493 0.0
H1983 H 0.4045 0.31703 0.41053 0.0
H1984 H 0.3513 0.31258 0.37985 0.0
H1985 H 0.33415 0.304 0.46557 0.0
H1986 H 0.34984 0.32625 0.45716 0.0
H1987 H 0.35581 0.30924 0.4559 0.0
C1988 C 0.39603 0.34938 0.42762 0.0
C1989 C 0.40602 0.34111 0.42289 0.0
C1990 C 0.37764 0.34038 0.42446 0.0
C1991 C 0.36891 0.32298 0.41647 0.0
C1992 C 0.37884 0.31483 0.4112 0.0
H1993 H 0.25758 0.24296 0.41564 0.0
H1994 H 0.28981 0.26035 0.42033 0.0
C1995 C 0.39723 0.32378 0.41446 0.0
C1996 C 0.34936 0.31317 0.41379 0.0
H1997 H 0.31032 0.29452 0.44137 0.0
C1998 C 0.34231 0.30865 0.39326 0.0
C1999 C 0.33774 0.30794 0.43138 0.0
C2000 C 0.34469 0.31195 0.45379 0.0
C2001 C 0.32387 0.29913 0.38984 0.0
C2002 C 0.31225 0.29413 0.40741 0.0
C2003 C 0.31931 0.29851 0.42795 0.0
C2004 C 0.29271 0.28387 0.40483 0.0
C2005 C 0.31692 0.29418 0.36751 0.0
C2006 C 0.28367 0.29147 0.39484 0.0
C2007 C 0.26522 0.28161 0.3922 0.0
C2008 C 0.2555 0.26394 0.39948 0.0
C2009 C 0.26463 0.25649 0.40976 0.0
C2010 C 0.28305 0.2664 0.41249 0.0
H2011 H 0.3275 0.29596 0.35622 0.0
H2012 H 0.30595 0.28015 0.36679 0.0
H2013 H 0.31154 0.30277 0.36228 0.0
H2014 H 0.29089 0.30503 0.38909 0.0
H2015 H 0.25863 0.28778 0.38426 0.0
H2016 H 0.71327 0.97824 0.37936 0.0
H2017 H 0.6974 0.99468 0.38331 0.0
H2018 H 0.73393 0.02656 0.43263 0.0
H2019 H 0.75048 0.01084 0.42779 0.0
H2020 H 0.67961 0.9977 0.41349 0.0
H2021 H 0.7359 0.06512 0.39754 0.0
H2022 H 0.73751 0.04543 0.39349 0.0
H2023 H 0.74059 0.05508 0.41953 0.0
C2024 C 0.71796 0.98882 0.39097 0.0
C2025 C 0.73318 0.99337 0.40316 0.0
C2026 C 0.70888 0.99822 0.39323 0.0
C2027 C 0.71466 0.01215 0.40796 0.0
C2028 C 0.72956 0.01632 0.42062 0.0
H2029 H 0.64631 0.05175 0.45362 0.0
H2030 H 0.66194 0.03525 0.44793 0.0
C2031 C 0.73892 0.00722 0.41799 0.0
C2032 C 0.70477 0.02195 0.41035 0.0
H2033 H 0.70995 0.06355 0.41264 0.0
C2034 C 0.68625 0.01211 0.41312 0.0
C2035 C 0.71332 0.04075 0.40945 0.0
C2036 C 0.73289 0.05218 0.4046 0.0
C2037 C 0.67608 0.02049 0.41526 0.0
C2038 C 0.68477 0.03931 0.41565 0.0
C2039 C 0.70327 0.04914 0.41262 0.0
C2040 C 0.67502 0.04913 0.41904 0.0
C2041 C 0.65611 0.009 0.41647 0.0
C2042 C 0.67763 0.06292 0.40521 0.0
C2043 C 0.66916 0.07275 0.40885 0.0
C2044 C 0.65766 0.06879 0.42621 0.0
C2045 C 0.65488 0.05489 0.43992 0.0
C2046 C 0.66372 0.04536 0.43658 0.0
H2047 H 0.65144 0.99594 0.40864 0.0
H2048 H 0.652 0.00636 0.43333 0.0
H2049 H 0.64934 0.01556 0.40891 0.0
H2050 H 0.68631 0.06614 0.3916 0.0
H2051 H 0.6715 0.08337 0.398 0.0
H2052 H 0.95526 0.5921 0.42985 0.0
H2053 H 0.97113 0.62439 0.42472 0.0
H2054 H 0.92155 0.62254 0.41148 0.0
H2055 H 0.90552 0.59029 0.41645 0.0
H2056 H 0.96851 0.64447 0.38589 0.0
H2057 H 0.947 0.659 0.46282 0.0
H2058 H 0.9474 0.63866 0.45822 0.0
H2059 H 0.93027 0.64168 0.44653 0.0
C2060 C 0.94771 0.59852 0.42574 0.0
C2061 C 0.92909 0.58859 0.42364 0.0
C2062 C 0.95681 0.61696 0.42281 0.0
C2063 C 0.94745 0.62578 0.41794 0.0
C2064 C 0.92895 0.61593 0.41542 0.0
H2065 H 0.97952 0.7378 0.4076 0.0
H2066 H 0.96287 0.70538 0.41092 0.0
C2067 C 0.91984 0.59749 0.41819 0.0
C2068 C 0.95702 0.64534 0.41572 0.0
H2069 H 0.96432 0.68337 0.44044 0.0
C2070 C 0.96765 0.65302 0.39779 0.0
C2071 C 0.95568 0.65634 0.43123 0.0
C2072 C 0.94457 0.64861 0.45089 0.0
C2073 C 0.97692 0.67153 0.39484 0.0
C2074 C 0.97591 0.68262 0.41057 0.0
C2075 C 0.96513 0.67486 0.42844 0.0
C2076 C 0.98606 0.7023 0.4089 0.0
C2077 C 0.9874 0.67897 0.37467 0.0
C2078 C 0.00466 0.71136 0.40715 0.0
C2079 C 0.0142 0.72985 0.4051 0.0
C2080 C 0.00535 0.7397 0.40506 0.0
C2081 C 0.98675 0.73063 0.4075 0.0
C2082 C 0.97721 0.7121 0.40939 0.0
H2083 H 0.98255 0.66886 0.36184 0.0
H2084 H 0.98664 0.6907 0.36905 0.0
H2085 H 0.00156 0.6832 0.37767 0.0
H2086 H 0.01182 0.70412 0.40735 0.0
H2087 H 0.02852 0.7364 0.40349 0.0
H2088 H 0.68114 0.59202 0.90939 0.0
H2089 H 0.69611 0.62427 0.9045 0.0
H2090 H 0.65152 0.62534 0.93289 0.0
H2091 H 0.63644 0.59314 0.938 0.0
H2092 H 0.68437 0.64539 0.88234 0.0
H2093 H 0.69506 0.66128 0.96826 0.0
H2094 H 0.68933 0.6397 0.95783 0.0
H2095 H 0.67252 0.64584 0.96069 0.0
C2096 C 0.67447 0.59908 0.91456 0.0
C2097 C 0.65762 0.58997 0.92424 0.0
C2098 C 0.68305 0.61751 0.91172 0.0
C2099 C 0.67502 0.62719 0.91862 0.0
C2100 C 0.65805 0.61813 0.92778 0.0
H2101 H 0.70925 0.73779 0.88795 0.0
H2102 H 0.69189 0.70553 0.8929 0.0
C2103 C 0.64943 0.5997 0.93058 0.0
C2104 C 0.6845 0.64679 0.91638 0.0
H2105 H 0.70322 0.68542 0.94482 0.0
C2106 C 0.68847 0.65417 0.89597 0.0
C2107 C 0.68997 0.65815 0.93423 0.0
C2108 C 0.68667 0.65091 0.95652 0.0
C2109 C 0.6977 0.67267 0.89293 0.0
C2110 C 0.7029 0.68403 0.91078 0.0
C2111 C 0.69904 0.67664 0.93118 0.0
C2112 C 0.71303 0.70364 0.90859 0.0
C2113 C 0.70217 0.67993 0.87067 0.0
C2114 C 0.73047 0.71329 0.91635 0.0
C2115 C 0.74041 0.73171 0.91362 0.0
C2116 C 0.73306 0.74087 0.90318 0.0
C2117 C 0.71537 0.73118 0.89598 0.0
C2118 C 0.70545 0.71273 0.89868 0.0
H2119 H 0.70058 0.6696 0.85909 0.0
H2120 H 0.69313 0.6849 0.86593 0.0
H2121 H 0.71603 0.69122 0.86979 0.0
H2122 H 0.73652 0.70651 0.92415 0.0
H2123 H 0.75396 0.7387 0.91941 0.0
H2124 H 0.40557 0.08786 0.90835 0.0
H2125 H 0.37346 0.07074 0.90271 0.0
H2126 H 0.37115 0.02601 0.93533 0.0
H2127 H 0.40328 0.04304 0.94125 0.0
H2128 H 0.35237 0.03761 0.88216 0.0
H2129 H 0.33499 0.03519 0.9673 0.0
H2130 H 0.35692 0.0503 0.95715 0.0
H2131 H 0.35007 0.02729 0.9613 0.0
C2132 C 0.39829 0.07436 0.91429 0.0
C2133 C 0.40702 0.06689 0.9254 0.0
C2134 C 0.37992 0.0646 0.91102 0.0
C2135 C 0.36991 0.04722 0.91888 0.0
C2136 C 0.37861 0.03952 0.92946 0.0
H2137 H 0.25968 0.97131 0.88684 0.0
H2138 H 0.29185 0.98628 0.89224 0.0
C2139 C 0.39699 0.04926 0.93273 0.0
C2140 C 0.35035 0.03727 0.91615 0.0
H2141 H 0.31121 0.01885 0.94353 0.0
C2142 C 0.34335 0.03346 0.89556 0.0
C2143 C 0.33866 0.0321 0.93368 0.0
C2144 C 0.34547 0.03653 0.95612 0.0
C2145 C 0.32492 0.02449 0.89201 0.0
C2146 C 0.31322 0.01902 0.90955 0.0
C2147 C 0.32023 0.02294 0.93014 0.0
C2148 C 0.29366 0.00967 0.90683 0.0
C2149 C 0.31812 0.02128 0.86952 0.0
C2150 C 0.28397 0.01765 0.91378 0.0
C2151 C 0.26557 0.00913 0.91081 0.0
C2152 C 0.25649 0.99237 0.90092 0.0
C2153 C 0.26623 0.98423 0.89441 0.0
C2154 C 0.28464 0.9928 0.89737 0.0
H2155 H 0.3287 0.02977 0.85805 0.0
H2156 H 0.31319 0.00717 0.86529 0.0
H2157 H 0.30689 0.02389 0.86782 0.0
H2158 H 0.29069 0.03064 0.92123 0.0
H2159 H 0.25851 0.01577 0.91609 0.0
H2160 H 0.94518 0.35034 0.95394 0.0
H2161 H 0.96139 0.33458 0.94739 0.0
H2162 H 0.92687 0.30731 0.89452 0.0
H2163 H 0.90997 0.32237 0.90179 0.0
H2164 H 0.93178 0.28494 0.91593 0.0
H2165 H 0.99791 0.3443 0.90402 0.0
H2166 H 0.98921 0.34477 0.92957 0.0
H2167 H 0.97798 0.34575 0.90601 0.0
C2168 C 0.94112 0.34106 0.94083 0.0
C2169 C 0.92638 0.33766 0.92829 0.0
C2170 C 0.95049 0.33215 0.93699 0.0
C2171 C 0.94569 0.32007 0.9201 0.0
C2172 C 0.93092 0.31663 0.90758 0.0
H2173 H 0.01576 0.28231 0.87523 0.0
H2174 H -0.0011 0.29766 0.88011 0.0
C2175 C 0.92127 0.32525 0.91172 0.0
C2176 C 0.95568 0.31058 0.91597 0.0
H2177 H 0.9975 0.31686 0.90985 0.0
C2178 C 0.94614 0.29195 0.9144 0.0
C2179 C 0.97441 0.31969 0.91358 0.0
C2180 C 0.98543 0.33973 0.91314 0.0
C2181 C 0.95478 0.28217 0.91085 0.0
C2182 C 0.9736 0.29121 0.90977 0.0
C2183 C 0.98311 0.30986 0.911 0.0
C2184 C 0.98372 0.28168 0.9069 0.0
C2185 C 0.94355 0.26232 0.90775 0.0
C2186 C 0.98103 0.26772 0.92048 0.0
C2187 C 0.99038 0.25866 0.9174 0.0
C2188 C 0.00302 0.26376 0.9011 0.0
C2189 C 0.00614 0.27811 0.88798 0.0
C2190 C 0.9965 0.28689 0.89075 0.0
H2191 H 0.93001 0.25852 0.90202 0.0
H2192 H 0.94973 0.25736 0.89624 0.0
H2193 H 0.94205 0.25554 0.92315 0.0
H2194 H 0.97174 0.26385 0.93353 0.0
H2195 H 0.98786 0.2478 0.92794 0.0
H2196 H 0.73974 0.70994 0.59194 0.0
H2197 H 0.70747 0.69398 0.58738 0.0
H2198 H 0.70801 0.74387 0.58439 0.0
H2199 H 0.74031 0.75997 0.58836 0.0
H2200 H 0.68212 0.69387 0.61239 0.0
H2201 H 0.67916 0.71889 0.53255 0.0
H2202 H 0.69958 0.72193 0.54382 0.0
H2203 H 0.6912 0.73636 0.55136 0.0
C2204 C 0.73303 0.71755 0.59014 0.0
C2205 C 0.74265 0.73625 0.59041 0.0
C2206 C 0.71457 0.70839 0.58757 0.0
C2207 C 0.70535 0.71772 0.58521 0.0
C2208 C 0.71488 0.73639 0.58564 0.0
H2209 H 0.5934 0.68574 0.57801 0.0
H2210 H 0.62563 0.70186 0.58345 0.0
C2211 C 0.73336 0.74557 0.58804 0.0
C2212 C 0.68571 0.70791 0.583 0.0
H2213 H 0.65172 0.70288 0.55109 0.0
C2214 C 0.67548 0.69578 0.59893 0.0
C2215 C 0.67707 0.71039 0.56541 0.0
C2216 C 0.68731 0.72246 0.54721 0.0
C2217 C 0.65684 0.68625 0.59787 0.0
C2218 C 0.64825 0.6889 0.58043 0.0
C2219 C 0.65842 0.70102 0.56452 0.0
C2220 C 0.62869 0.67894 0.57815 0.0
C2221 C 0.64639 0.67357 0.6155 0.0
C2222 C 0.61983 0.66073 0.57339 0.0
C2223 C 0.60145 0.65149 0.57014 0.0
C2224 C 0.5916 0.6603 0.57165 0.0
C2225 C 0.60054 0.67852 0.57678 0.0
C2226 C 0.61895 0.68777 0.57986 0.0
H2227 H 0.6548 0.67533 0.62958 0.0
H2228 H 0.63515 0.67544 0.62038 0.0
H2229 H 0.64073 0.6597 0.60976 0.0
H2230 H 0.62719 0.65375 0.57182 0.0
H2231 H 0.59501 0.63748 0.56622 0.0
H2232 H 0.36131 0.95478 0.56181 0.0
H2233 H 0.3458 0.97127 0.56845 0.0
H2234 H 0.29853 0.92257 0.58594 0.0
H2235 H 0.31395 0.90595 0.5796 0.0
H2236 H 0.31528 0.96635 0.54799 0.0
H2237 H 0.30423 0.95607 0.63473 0.0
H2238 H 0.31989 0.95188 0.62072 0.0
H2239 H 0.29651 0.93596 0.61971 0.0
C2240 C 0.34767 0.94757 0.56729 0.0
C2241 C 0.3389 0.92902 0.57021 0.0
C2242 C 0.33882 0.95703 0.57104 0.0
C2243 C 0.32108 0.94817 0.57789 0.0
C2244 C 0.31233 0.92971 0.58105 0.0
H2245 H 0.24415 0.98415 0.57319 0.0
H2246 H 0.26047 0.96816 0.56862 0.0
C2247 C 0.32117 0.92022 0.57734 0.0
C2248 C 0.3115 0.95816 0.58069 0.0
H2249 H 0.28944 0.96917 0.61699 0.0
C2250 C 0.30967 0.96701 0.56309 0.0
C2251 C 0.3043 0.95908 0.60044 0.0
C2252 C 0.30643 0.95038 0.62005 0.0
C2253 C 0.3006 0.97655 0.56464 0.0
C2254 C 0.29311 0.97716 0.58426 0.0
C2255 C 0.29512 0.96853 0.60193 0.0
C2256 C 0.28334 0.98693 0.58677 0.0
C2257 C 0.29922 0.98611 0.54541 0.0
C2258 C 0.29082 0.00271 0.59855 0.0
C2259 C 0.28159 0.01193 0.60114 0.0
C2260 C 0.2646 0.00541 0.59215 0.0
C2261 C 0.25717 0.98955 0.58034 0.0
C2262 C 0.26648 0.98041 0.57766 0.0
H2263 H 0.30797 0.98654 0.53232 0.0
H2264 H 0.28529 0.97917 0.53963 0.0
H2265 H 0.30281 -7e-05 0.54959 0.0
H2266 H 0.30383 0.00791 0.60571 0.0
H2267 H 0.28771 0.02406 0.61038 0.0
H2268 H 0.97845 0.25968 0.62085 0.0
H2269 H 0.99389 0.2917 0.61438 0.0
H2270 H 0.02378 0.28537 0.5639 0.0
H2271 H 0.00911 0.25346 0.57118 0.0
H2272 H 0.04487 0.3126 0.58573 0.0
H2273 H 0.98543 0.31839 0.56971 0.0
H2274 H 0.98422 0.30928 0.59551 0.0
H2275 H 0.98422 0.29715 0.57233 0.0
C2276 C 0.98826 0.26512 0.6083 0.0
C2277 C 0.99252 0.25406 0.59645 0.0
C2278 C 0.99697 0.28343 0.60448 0.0
C2279 C 0.0097 0.29097 0.58826 0.0
C2280 C 0.01396 0.2799 0.57643 0.0
H2281 H 0.04807 0.399 0.54277 0.0
H2282 H 0.03263 0.36672 0.54746 0.0
C2283 C 0.00556 0.26165 0.58058 0.0
C2284 C 0.01907 0.31046 0.58417 0.0
H2285 H 0.01245 0.34565 0.57639 0.0
C2286 C 0.03775 0.31979 0.58349 0.0
C2287 C 0.00985 0.31987 0.58083 0.0
C2288 C 0.98983 0.31061 0.57939 0.0
C2289 C 0.04743 0.3382 0.5799 0.0
C2290 C 0.03824 0.34778 0.57792 0.0
C2291 C 0.01956 0.33842 0.57824 0.0
C2292 C 0.04767 0.36743 0.57519 0.0
C2293 C 0.06738 0.34703 0.57774 0.0
C2294 C 0.0611 0.37867 0.58937 0.0
C2295 C 0.07021 0.39709 0.58641 0.0
C2296 C 0.06569 0.40469 0.5696 0.0
C2297 C 0.05182 0.39352 0.55588 0.0
C2298 C 0.04299 0.37506 0.55856 0.0
H2299 H 0.0715 0.33742 0.57243 0.0
H2300 H 0.07261 0.35822 0.56626 0.0
H2301 H 0.07364 0.35227 0.59339 0.0
H2302 H 0.06453 0.37322 0.60279 0.0
H2303 H 0.08068 0.40541 0.59742 0.0
H2304 H 0.07706 0.65805 0.73213 0.0
H2305 H 0.04496 0.64288 0.72582 0.0
H2306 H 0.03842 0.66843 0.78097 0.0
H2307 H 0.07054 0.68436 0.78658 0.0
H2308 H 0.01847 0.61971 0.74734 0.0
H2309 H 0.01012 0.67852 0.74027 0.0
H2310 H 0.03173 0.68039 0.74096 0.0
H2311 H 0.01993 0.6785 0.76521 0.0
C2312 C 0.06876 0.66054 0.74276 0.0
C2313 C 0.07629 0.6725 0.75972 0.0
C2314 C 0.05042 0.65186 0.73917 0.0
C2315 C 0.03924 0.65477 0.75265 0.0
C2316 C 0.04676 0.66643 0.76988 0.0
H2317 H 0.92533 0.58049 0.76253 0.0
H2318 H 0.95761 0.59692 0.7673 0.0
C2319 C 0.06513 0.67543 0.77318 0.0
C2320 C 0.01969 0.64508 0.74917 0.0
H2321 H 0.98353 0.65064 0.74594 0.0
C2322 C 0.01086 0.62651 0.74683 0.0
C2323 C 0.00973 0.65392 0.74811 0.0
C2324 C 0.01841 0.67394 0.74853 0.0
C2325 C 0.99239 0.61653 0.74377 0.0
C2326 C 0.98231 0.62527 0.74404 0.0
C2327 C 0.99117 0.64387 0.74606 0.0
C2328 C 0.96263 0.6155 0.74172 0.0
C2329 C 0.98405 0.59682 0.73973 0.0
C2330 C 0.95456 0.62098 0.7265 0.0
C2331 C 0.93609 0.61199 0.72425 0.0
C2332 C 0.92532 0.59715 0.73697 0.0
C2333 C 0.93334 0.59175 0.75233 0.0
C2334 C 0.95181 0.60103 0.75492 0.0
H2335 H 0.99385 0.59347 0.73306 0.0
H2336 H 0.97919 0.58954 0.75492 0.0
H2337 H 0.97266 0.59201 0.72859 0.0
H2338 H 0.96258 0.63213 0.71616 0.0
H2339 H 0.93028 0.61641 0.71221 0.0
H2340 H 0.34612 0.4199 0.74304 0.0
H2341 H 0.36039 0.40198 0.73855 0.0
H2342 H 0.3172 0.35856 0.77197 0.0
H2343 H 0.30285 0.37642 0.77676 0.0
H2344 H 0.35095 0.36653 0.78632 0.0
H2345 H 0.34584 0.35946 0.69886 0.0
H2346 H 0.35579 0.38204 0.70795 0.0
H2347 H 0.33291 0.36658 0.71408 0.0
C2348 C 0.33955 0.4065 0.74931 0.0
C2349 C 0.3233 0.39961 0.76025 0.0
C2350 C 0.3477 0.39624 0.74663 0.0
C2351 C 0.33974 0.37888 0.75471 0.0
C2352 C 0.32351 0.37192 0.76554 0.0
H2353 H 0.37393 0.30278 0.72478 0.0
H2354 H 0.35648 0.31735 0.73083 0.0
C2355 C 0.31533 0.38215 0.76822 0.0
C2356 C 0.34869 0.36824 0.75254 0.0
H2357 H 0.36466 0.35072 0.71608 0.0
C2358 C 0.35386 0.36297 0.77098 0.0
C2359 C 0.35228 0.36345 0.73251 0.0
C2360 C 0.34628 0.36801 0.7122 0.0
C2361 C 0.36292 0.35338 0.7699 0.0
C2362 C 0.36711 0.34918 0.74985 0.0
C2363 C 0.36156 0.35408 0.73143 0.0
C2364 C 0.37738 0.33985 0.74756 0.0
C2365 C 0.36781 0.34771 0.79022 0.0
C2366 C 0.39491 0.34763 0.75505 0.0
C2367 C 0.40494 0.33932 0.75167 0.0
C2368 C 0.39768 0.32312 0.74056 0.0
C2369 C 0.37998 0.31523 0.7334 0.0
C2370 C 0.36997 0.32355 0.7368 0.0
H2371 H 0.35961 0.34769 0.80374 0.0
H2372 H 0.36614 0.33422 0.78866 0.0
H2373 H 0.38195 0.35717 0.79399 0.0
H2374 H 0.40099 0.36036 0.76307 0.0
H2375 H 0.41851 0.34581 0.75736 0.0
H2376 H 0.57259 0.92552 0.75119 0.0
H2377 H 0.58948 0.95777 0.74595 0.0
H2378 H 0.63841 0.95767 0.75694 0.0
H2379 H 0.6217 0.92545 0.76239 0.0
H2380 H 0.61604 0.98341 0.77887 0.0
H2381 H 0.64395 0.98563 0.69876 0.0
H2382 H 0.62373 0.96653 0.70809 0.0
H2383 H 0.64484 0.97086 0.71814 0.0
C2384 C 0.58695 0.93231 0.75234 0.0
C2385 C 0.59578 0.92288 0.75726 0.0
C2386 C 0.59656 0.95073 0.74938 0.0
C2387 C 0.61515 0.96001 0.75097 0.0
C2388 C 0.62406 0.95067 0.7555 0.0
H2389 H 0.6951 0.07137 0.73376 0.0
H2390 H 0.6794 0.03912 0.73893 0.0
C2391 C 0.61447 0.93227 0.75865 0.0
C2392 C 0.6252 0.97958 0.74874 0.0
H2393 H 0.6531 0.01308 0.71568 0.0
C2394 C 0.62413 0.98995 0.76506 0.0
C2395 C 0.63584 0.98795 0.73081 0.0
C2396 C 0.63719 0.97726 0.71282 0.0
C2397 C 0.63359 0.0086 0.764 0.0
C2398 C 0.64398 0.01704 0.74583 0.0
C2399 C 0.64512 0.0066 0.72957 0.0
C2400 C 0.65353 0.03666 0.7432 0.0
C2401 C 0.63265 0.01904 0.78257 0.0
C2402 C 0.6442 0.04598 0.74371 0.0
C2403 C 0.65314 0.06441 0.74097 0.0
C2404 C 0.6716 0.0739 0.73731 0.0
C2405 C 0.6809 0.0645 0.73658 0.0
C2406 C 0.67194 0.04606 0.7395 0.0
H2407 H 0.62891 0.01107 0.79739 0.0
H2408 H 0.64556 0.03142 0.78514 0.0
H2409 H 0.62235 0.02275 0.77942 0.0
H2410 H 0.62992 0.03897 0.74597 0.0
H2411 H 0.64551 0.07117 0.74143 0.0
H2412 H 0.42609 0.07463 0.23811 0.0
H2413 H 0.40991 0.04225 0.24119 0.0
H2414 H 0.36026 0.04154 0.23298 0.0
H2415 H 0.37633 0.0739 0.2293 0.0
H2416 H 0.3853 0.02056 0.26945 0.0
H2417 H 0.35588 0.0059 0.18891 0.0
H2418 H 0.37331 0.02775 0.19661 0.0
H2419 H 0.35059 0.02023 0.20381 0.0
C2420 C 0.41172 0.06761 0.2369 0.0
C2421 C 0.40252 0.07688 0.23327 0.0
C2422 C 0.4025 0.04909 0.23867 0.0
C2423 C 0.3839 0.03944 0.23688 0.0
C2424 C 0.37464 0.04866 0.23382 0.0
H2425 H 0.30391 0.92925 0.25507 0.0
H2426 H 0.32061 0.96149 0.25003 0.0
C2427 C 0.38385 0.06719 0.23188 0.0
C2428 C 0.37423 0.01975 0.23865 0.0
H2429 H 0.34489 0.98151 0.21297 0.0
C2430 C 0.37656 0.01203 0.25703 0.0
C2431 C 0.36289 0.00862 0.22238 0.0
C2432 C 0.36063 0.01602 0.20173 0.0
C2433 C 0.36758 0.99351 0.25978 0.0
C2434 C 0.35603 0.98245 0.24369 0.0
C2435 C 0.35374 0.9901 0.22528 0.0
C2436 C 0.34599 0.96289 0.24593 0.0
C2437 C 0.37018 0.98584 0.28001 0.0
C2438 C 0.35475 0.95303 0.24492 0.0
C2439 C 0.34524 0.93457 0.24765 0.0
C2440 C 0.32682 0.92569 0.25156 0.0
C2441 C 0.31808 0.93565 0.25219 0.0
C2442 C 0.32758 0.95407 0.24929 0.0
H2443 H 0.37746 0.99623 0.29218 0.0
H2444 H 0.35714 0.97573 0.28662 0.0
H2445 H 0.37792 0.97911 0.27656 0.0
H2446 H 0.36895 0.95964 0.24214 0.0
H2447 H 0.35239 0.92733 0.24704 0.0
H2448 H 0.9305 0.30579 0.22339 0.0
H2449 H 0.96253 0.32208 0.22993 0.0
H2450 H 0.95784 0.36396 0.26042 0.0
H2451 H 0.92577 0.34777 0.25411 0.0
H2452 H 0.98713 0.35668 0.21549 0.0
H2453 H 0.98634 0.35209 0.30329 0.0
H2454 H 0.96723 0.33789 0.28717 0.0
H2455 H 0.97276 0.36041 0.29248 0.0
C2456 C 0.93622 0.3184 0.23164 0.0
C2457 C 0.92551 0.32544 0.23826 0.0
C2458 C 0.95454 0.3277 0.23532 0.0
C2459 C 0.9625 0.34412 0.24584 0.0
C2460 C 0.95189 0.35116 0.25258 0.0
H2461 H 0.07375 0.42595 0.24763 0.0
H2462 H 0.04163 0.40833 0.24211 0.0
C2463 C 0.93357 0.34191 0.24887 0.0
C2464 C 0.98201 0.35417 0.24904 0.0
H2465 H 0.01423 0.37122 0.28714 0.0
C2466 C 0.99307 0.35983 0.23114 0.0
C2467 C 0.98969 0.35808 0.26949 0.0
C2468 C 0.97844 0.35169 0.28924 0.0
C2469 C 0.01166 0.36957 0.23314 0.0
C2470 C 0.01932 0.3739 0.25358 0.0
C2471 C 0.00828 0.36798 0.27149 0.0
C2472 C 0.03881 0.38451 0.25671 0.0
C2473 C 0.02295 0.37498 0.21339 0.0
C2474 C 0.04782 0.37702 0.26704 0.0
C2475 C 0.06618 0.38705 0.27025 0.0
C2476 C 0.07587 0.40483 0.26336 0.0
C2477 C 0.06674 0.4123 0.25308 0.0
C2478 C 0.04839 0.40223 0.24982 0.0
H2479 H 0.01532 0.36712 0.19938 0.0
H2480 H 0.02777 0.38922 0.21004 0.0
H2481 H 0.03472 0.37331 0.21553 0.0
H2482 H 0.04063 0.36338 0.27254 0.0
H2483 H 0.07274 0.38089 0.27828 0.0
H2484 H 0.62152 0.69196 0.26715 0.0
H2485 H 0.63749 0.67583 0.26154 0.0
H2486 H 0.58978 0.63106 0.23693 0.0
H2487 H 0.57358 0.64712 0.24239 0.0
H2488 H 0.62847 0.64214 0.27982 0.0
H2489 H 0.62867 0.64109 0.19173 0.0
H2490 H 0.62447 0.65635 0.20669 0.0
H2491 H 0.60739 0.63349 0.20404 0.0
C2492 C 0.61439 0.67874 0.26038 0.0
C2493 C 0.59624 0.67085 0.25521 0.0
C2494 C 0.62357 0.66954 0.25724 0.0
C2495 C 0.61485 0.65234 0.24869 0.0
C2496 C 0.59679 0.64444 0.2433 0.0
H2497 H 0.64961 0.57441 0.25171 0.0
H2498 H 0.63361 0.59068 0.25615 0.0
C2499 C 0.58755 0.65361 0.24652 0.0
C2500 C 0.62459 0.64252 0.24618 0.0
H2501 H 0.64004 0.62479 0.20931 0.0
C2502 C 0.631 0.63833 0.26442 0.0
C2503 C 0.628 0.63774 0.22605 0.0
C2504 C 0.62192 0.64248 0.20594 0.0
C2505 C 0.64061 0.62932 0.26307 0.0
C2506 C 0.64376 0.62427 0.24297 0.0
C2507 C 0.63751 0.62861 0.2247 0.0
C2508 C 0.65361 0.61455 0.24057 0.0
C2509 C 0.64756 0.62549 0.28311 0.0
C2510 C 0.67008 0.62255 0.23017 0.0
C2511 C 0.67931 0.61331 0.22763 0.0
C2512 C 0.67213 0.59582 0.23528 0.0
C2513 C 0.65559 0.58787 0.2457 0.0
C2514 C 0.64642 0.59716 0.24831 0.0
H2515 H 0.64735 0.63353 0.29668 0.0
H2516 H 0.63912 0.61122 0.28725 0.0
H2517 H 0.66138 0.6282 0.28085 0.0
H2518 H 0.6758 0.63596 0.22404 0.0
H2519 H 0.69197 0.61983 0.21946 0.0
H2520 H 0.32097 0.21831 0.11532 0.0
H2521 H 0.33624 0.20409 0.13203 0.0
H2522 H 0.28885 0.1698 0.1676 0.0
H2523 H 0.2735 0.18363 0.15098 0.0
H2524 H 0.34183 0.20062 0.17605 0.0
H2525 H 0.30051 0.1349 0.13757 0.0
H2526 H 0.3011 0.15486 0.12831 0.0
H2527 H 0.28808 0.14331 0.15116 0.0
C2528 C 0.31384 0.20777 0.12673 0.0
C2529 C 0.29599 0.202 0.13167 0.0
C2530 C 0.32256 0.19967 0.13624 0.0
C2531 C 0.31352 0.18568 0.15071 0.0
C2532 C 0.2959 0.18029 0.1561 0.0
H2533 H 0.34311 0.11765 0.2212 0.0
H2534 H 0.32697 0.13199 0.20717 0.0
C2535 C 0.2872 0.1883 0.14663 0.0
C2536 C 0.32244 0.1767 0.16037 0.0
H2537 H 0.32022 0.13645 0.16456 0.0
C2538 C 0.33718 0.18662 0.17349 0.0
C2539 C 0.31617 0.15839 0.15712 0.0
C2540 C 0.30069 0.14724 0.14263 0.0
C2541 C 0.34579 0.17865 0.18363 0.0
C2542 C 0.33966 0.16037 0.18019 0.0
C2543 C 0.32481 0.15042 0.16723 0.0
C2544 C 0.34919 0.15164 0.18881 0.0
C2545 C 0.36125 0.18981 0.19813 0.0
C2546 C 0.36681 0.15773 0.18275 0.0
C2547 C 0.376 0.14967 0.19069 0.0
C2548 C 0.36769 0.13517 0.20473 0.0
C2549 C 0.34987 0.1288 0.21047 0.0
C2550 C 0.34066 0.13697 0.20251 0.0
H2551 H 0.36088 0.20168 0.20397 0.0
H2552 H 0.36138 0.18197 0.21196 0.0
H2553 H 0.37387 0.19454 0.18927 0.0
H2554 H 0.37347 0.16872 0.17177 0.0
H2555 H 0.38965 0.15483 0.18575 0.0
H2556 H 0.86267 0.24265 0.16933 0.0
H2557 H 0.84828 0.21293 0.15392 0.0
H2558 H 0.86318 0.19332 0.20835 0.0
H2559 H 0.87775 0.22319 0.22404 0.0
H2560 H 0.86796 0.18112 0.16673 0.0
H2561 H 0.80055 0.17229 0.17839 0.0
H2562 H 0.81617 0.19231 0.16488 0.0
H2563 H 0.81993 0.18915 0.1921 0.0
C2564 C 0.86307 0.23209 0.178 0.0
C2565 C 0.87121 0.23525 0.19803 0.0
C2566 C 0.85476 0.2151 0.16918 0.0
C2567 C 0.85438 0.20093 0.18022 0.0
C2568 C 0.86325 0.20413 0.19971 0.0
H2569 H 0.80891 0.08859 0.15633 0.0
H2570 H 0.82389 0.11856 0.17099 0.0
C2571 C 0.8716 0.22119 0.2086 0.0
C2572 C 0.84428 0.18271 0.17157 0.0
H2573 H 0.80228 0.14989 0.15895 0.0
C2574 C 0.8536 0.17423 0.16509 0.0
C2575 C 0.82557 0.17389 0.16938 0.0
C2576 C 0.81489 0.18227 0.17669 0.0
C2577 C 0.8447 0.15716 0.15615 0.0
C2578 C 0.82595 0.14825 0.1541 0.0
C2579 C 0.81664 0.15678 0.16052 0.0
C2580 C 0.81576 0.12988 0.14584 0.0
C2581 C 0.85547 0.14895 0.14858 0.0
C2582 C 0.80547 0.12613 0.12737 0.0
C2583 C 0.79667 0.10888 0.11901 0.0
C2584 C 0.79807 0.09518 0.12906 0.0
C2585 C 0.80775 0.09889 0.14806 0.0
C2586 C 0.81642 0.11604 0.15641 0.0
H2587 H 0.86959 0.15918 0.14581 0.0
H2588 H 0.85518 0.13965 0.16085 0.0
H2589 H 0.8499 0.14134 0.13371 0.0
H2590 H 0.80467 0.13664 0.11911 0.0
H2591 H 0.78931 0.10643 0.10436 0.0
H2592 H 0.90968 0.72411 0.16027 0.0
H2593 H 0.88004 0.70802 0.17578 0.0
H2594 H 0.8656 0.66507 0.13154 0.0
H2595 H 0.89546 0.68101 0.11606 0.0
H2596 H 0.84858 0.69823 0.15543 0.0
H2597 H 0.84893 0.63901 0.18793 0.0
H2598 H 0.86898 0.65878 0.17972 0.0
H2599 H 0.85459 0.64292 0.16034 0.0
C2600 C 0.90029 0.71114 0.15395 0.0
C2601 C 0.90493 0.70382 0.13692 0.0
C2602 C 0.88334 0.70199 0.16284 0.0
C2603 C 0.87068 0.68531 0.15495 0.0
C2604 C 0.8753 0.6778 0.13814 0.0
H2605 H 0.75974 0.61293 0.17656 0.0
H2606 H 0.79009 0.62983 0.1633 0.0
C2607 C 0.89233 0.68693 0.12926 0.0
C2608 C 0.8524 0.67628 0.16366 0.0
H2609 H 0.82109 0.63809 0.18752 0.0
C2610 C 0.8426 0.68513 0.16258 0.0
C2611 C 0.84469 0.65923 0.17302 0.0
C2612 C 0.85488 0.64947 0.17554 0.0
C2613 C 0.82509 0.67718 0.17017 0.0
C2614 C 0.8173 0.66004 0.17924 0.0
C2615 C 0.82715 0.65125 0.1805 0.0
C2616 C 0.79871 0.65062 0.18683 0.0
C2617 C 0.81487 0.68694 0.16792 0.0
C2618 C 0.79348 0.65685 0.20437 0.0
C2619 C 0.77604 0.6472 0.21206 0.0
C2620 C 0.76365 0.63115 0.20233 0.0
C2621 C 0.76893 0.62522 0.18448 0.0
C2622 C 0.78628 0.63483 0.17687 0.0
H2623 H 0.82153 0.69842 0.15692 0.0
H2624 H 0.80119 0.67784 0.16209 0.0
H2625 H 0.81381 0.69202 0.18366 0.0
H2626 H 0.80298 0.66892 0.21242 0.0
H2627 H 0.77242 0.65206 0.22589 0.0
H2628 H 0.15463 0.39503 0.31671 0.0
H2629 H 0.16785 0.37806 0.33038 0.0
H2630 H 0.12563 0.33033 0.30216 0.0
H2631 H 0.11225 0.34731 0.28813 0.0
H2632 H 0.15275 0.34823 0.35763 0.0
H2633 H 0.17177 0.33333 0.2794 0.0
H2634 H 0.16566 0.35023 0.28283 0.0
H2635 H 0.14879 0.32717 0.28214 0.0
C2636 C 0.14808 0.38092 0.31337 0.0
C2637 C 0.1324 0.37252 0.30122 0.0
C2638 C 0.15568 0.37125 0.32125 0.0
C2639 C 0.14783 0.35303 0.31706 0.0
C2640 C 0.13202 0.34447 0.30526 0.0
H2641 H 0.1754 0.27371 0.35008 0.0
H2642 H 0.16193 0.29058 0.33684 0.0
C2643 C 0.12435 0.35416 0.29737 0.0
C2644 C 0.15635 0.34312 0.32516 0.0
H2645 H 0.17704 0.32042 0.30951 0.0
C2646 C 0.15809 0.34215 0.34714 0.0
C2647 C 0.16336 0.33534 0.31137 0.0
C2648 C 0.16248 0.33664 0.28761 0.0
C2649 C 0.16644 0.33331 0.35576 0.0
C2650 C 0.17345 0.32552 0.34198 0.0
C2651 C 0.1717 0.32649 0.31999 0.0
C2652 C 0.18199 0.31564 0.35005 0.0
C2653 C 0.16735 0.33202 0.37952 0.0
C2654 C 0.19789 0.32424 0.36169 0.0
C2655 C 0.20571 0.31461 0.36934 0.0
C2656 C 0.19772 0.29627 0.36538 0.0
C2657 C 0.18191 0.28782 0.35348 0.0
C2658 C 0.17417 0.29742 0.34585 0.0
H2659 H 0.1581 0.33537 0.38775 0.0
H2660 H 0.16413 0.31842 0.3843 0.0
H2661 H 0.18106 0.34146 0.38496 0.0
H2662 H 0.20426 0.33838 0.3648 0.0
H2663 H 0.2179 0.3215 0.3784 0.0
H2664 H 0.70425 0.89392 0.38733 0.0
H2665 H 0.68751 0.86279 0.37633 0.0
H2666 H 0.68366 0.87903 0.31292 0.0
H2667 H 0.70059 0.91024 0.32367 0.0
H2668 H 0.65343 0.84283 0.35777 0.0
H2669 H 0.70689 0.84804 0.30471 0.0
H2670 H 0.71062 0.86482 0.32414 0.0
H2671 H 0.69977 0.86387 0.29954 0.0
C2672 C 0.69973 0.8909 0.37108 0.0
C2673 C 0.7039 0.90457 0.35631 0.0
C2674 C 0.69018 0.8731 0.36483 0.0
C2675 C 0.68469 0.86867 0.34374 0.0
C2676 C 0.68814 0.88222 0.32918 0.0
H2677 H 0.62812 0.76984 0.2747 0.0
H2678 H 0.6454 0.80093 0.28569 0.0
C2679 C 0.69769 0.90004 0.33539 0.0
C2680 C 0.67559 0.84985 0.33695 0.0
H2681 H 0.67961 0.82074 0.30425 0.0
C2682 C 0.65915 0.83796 0.34613 0.0
C2683 C 0.68317 0.8436 0.32179 0.0
C2684 C 0.70115 0.85568 0.31207 0.0
C2685 C 0.64989 0.81997 0.34025 0.0
C2686 C 0.65746 0.81372 0.32508 0.0
C2687 C 0.6739 0.82561 0.31591 0.0
C2688 C 0.64827 0.79493 0.31821 0.0
C2689 C 0.63188 0.80791 0.34995 0.0
C2690 C 0.64472 0.7813 0.33271 0.0
C2691 C 0.63485 0.7635 0.32651 0.0
C2692 C 0.62842 0.75906 0.30566 0.0
C2693 C 0.63278 0.7728 0.29091 0.0
C2694 C 0.64264 0.79057 0.29715 0.0
H2695 H 0.62619 0.81555 0.35739 0.0
H2696 H 0.6224 0.79885 0.33784 0.0
H2697 H 0.63323 0.79963 0.3624 0.0
H2698 H 0.6493 0.78444 0.34894 0.0
H2699 H 0.63182 0.75326 0.33821 0.0
H2700 H 0.24631 0.88035 0.33545 0.0
H2701 H 0.21564 0.86615 0.34828 0.0
H2702 H 0.19662 0.84314 0.28658 0.0
H2703 H 0.22716 0.85747 0.27349 0.0
H2704 H 0.1767 0.85686 0.30552 0.0
H2705 H 0.18667 0.81243 0.36026 0.0
H2706 H 0.20196 0.83577 0.36377 0.0
H2707 H 0.20233 0.82503 0.3396 0.0
C2708 C 0.2356 0.87245 0.32453 0.0
C2709 C 0.23919 0.86989 0.3035 0.0
C2710 C 0.21811 0.86424 0.33194 0.0
C2711 C 0.20395 0.85328 0.31849 0.0
C2712 C 0.20741 0.85143 0.29724 0.0
H2713 H 0.08974 0.78604 0.32952 0.0
H2714 H 0.12077 0.80093 0.31801 0.0
C2715 C 0.22488 0.85964 0.2898 0.0
C2716 C 0.18553 0.84337 0.32663 0.0
H2717 H 0.15872 0.81094 0.36161 0.0
C2718 C 0.17274 0.8468 0.31776 0.0
C2719 C 0.18045 0.83024 0.34257 0.0
C2720 C 0.1935 0.82549 0.35202 0.0
C2721 C 0.155 0.83758 0.32458 0.0
C2722 C 0.14992 0.8244 0.34044 0.0
C2723 C 0.16271 0.82104 0.34942 0.0
C2724 C 0.13136 0.81408 0.34798 0.0
C2725 C 0.1419 0.84222 0.31503 0.0
C2726 C 0.12718 0.81592 0.36893 0.0
C2727 C 0.10948 0.80735 0.37562 0.0
C2728 C 0.09568 0.79675 0.36145 0.0
C2729 C 0.10003 0.79419 0.34079 0.0
C2730 C 0.11773 0.80278 0.33413 0.0
H2731 H 0.14869 0.85529 0.30684 0.0
H2732 H 0.13355 0.83192 0.30323 0.0
H2733 H 0.13297 0.84256 0.32739 0.0
H2734 H 0.13757 0.82448 0.37989 0.0
H2735 H 0.10659 0.80954 0.39167 0.0
H2736 H 0.68163 0.78873 0.888 0.0
H2737 H 0.66544 0.80239 0.87248 0.0
H2738 H 0.70545 0.82659 0.82391 0.0
H2739 H 0.72175 0.8132 0.83928 0.0
H2740 H 0.69712 0.85034 0.84461 0.0
H2741 H 0.6366 0.78937 0.81681 0.0
H2742 H 0.64235 0.78915 0.84411 0.0
H2743 H 0.65691 0.78958 0.82362 0.0
C2744 C 0.68687 0.7968 0.87388 0.0
C2745 C 0.70297 0.79985 0.86488 0.0
C2746 C 0.67759 0.80455 0.86501 0.0
C2747 C 0.68421 0.81538 0.84696 0.0
C2748 C 0.70013 0.81826 0.83782 0.0
H2749 H 0.65228 0.87953 0.77238 0.0
H2750 H 0.66871 0.86599 0.78758 0.0
C2751 C 0.70939 0.81054 0.84663 0.0
C2752 C 0.67497 0.82431 0.83796 0.0
H2753 H 0.63649 0.81649 0.81407 0.0
C2754 C 0.68388 0.84298 0.83787 0.0
C2755 C 0.65774 0.81462 0.82919 0.0
C2756 C 0.64784 0.79457 0.82822 0.0
C2757 C 0.67584 0.85225 0.82959 0.0
C2758 C 0.65859 0.84256 0.82079 0.0
C2759 C 0.64973 0.82388 0.82082 0.0
C2760 C 0.64922 0.85144 0.81195 0.0
C2761 C 0.6857 0.87229 0.83083 0.0
C2762 C 0.63277 0.84758 0.82043 0.0
C2763 C 0.62332 0.85511 0.81168 0.0
C2764 C 0.63012 0.86669 0.79423 0.0
C2765 C 0.64675 0.87078 0.78591 0.0
C2766 C 0.65618 0.86311 0.79463 0.0
H2767 H 0.69656 0.87735 0.84275 0.0
H2768 H 0.69174 0.87786 0.81518 0.0
H2769 H 0.67654 0.87729 0.83492 0.0
H2770 H 0.62715 0.83861 0.83377 0.0
H2771 H 0.61056 0.8517 0.81853 0.0
H2772 H 0.18438 0.90726 0.83966 0.0
H2773 H 0.1706 0.87718 0.82541 0.0
H2774 H 0.19878 0.86363 0.87116 0.0
H2775 H 0.2127 0.89388 0.88572 0.0
H2776 H 0.18727 0.85807 0.80888 0.0
H2777 H 0.14495 0.82615 0.87966 0.0
H2778 H 0.1555 0.84977 0.87474 0.0
H2779 H 0.16835 0.84029 0.88451 0.0
C2780 C 0.18775 0.89795 0.84669 0.0
C2781 C 0.19956 0.90292 0.86394 0.0
C2782 C 0.17986 0.88077 0.83848 0.0
C2783 C 0.18351 0.86819 0.84743 0.0
C2784 C 0.19564 0.87316 0.86426 0.0
H2785 H 0.1449 0.75741 0.82295 0.0
H2786 H 0.15834 0.78743 0.83723 0.0
C2787 C 0.20365 0.89044 0.87246 0.0
C2788 C 0.17432 0.84981 0.83917 0.0
H2789 H 0.14341 0.80714 0.85198 0.0
C2790 C 0.17767 0.84691 0.81825 0.0
C2791 C 0.16176 0.83538 0.85149 0.0
C2792 C 0.15726 0.83796 0.87381 0.0
C2793 C 0.16899 0.82981 0.80938 0.0
C2794 C 0.15637 0.81536 0.82167 0.0
C2795 C 0.15302 0.81829 0.8426 0.0
C2796 C 0.14717 0.79694 0.81345 0.0
C2797 C 0.17374 0.82728 0.78716 0.0
C2798 C 0.13603 0.79222 0.79563 0.0
C2799 C 0.1283 0.77499 0.78733 0.0
C2800 C 0.13157 0.76226 0.79681 0.0
C2801 C 0.14217 0.76691 0.81516 0.0
C2802 C 0.14987 0.78407 0.82339 0.0
H2803 H 0.18648 0.83884 0.7818 0.0
H2804 H 0.17484 0.8151 0.78605 0.0
H2805 H 0.16313 0.82578 0.77613 0.0
H2806 H 0.1335 0.80191 0.788 0.0
H2807 H 0.12014 0.7718 0.77324 0.0
H2808 H 0.10548 0.31758 0.89321 0.0
H2809 H 0.13556 0.33421 0.87832 0.0
H2810 H 0.11768 0.30172 0.82209 0.0
H2811 H 0.08772 0.28523 0.83662 0.0
H2812 H 0.15637 0.3188 0.86673 0.0
H2813 H 0.14555 0.35232 0.79823 0.0
H2814 H 0.13 0.3431 0.81994 0.0
H2815 H 0.13022 0.32882 0.79945 0.0
C2816 C 0.10789 0.31422 0.87751 0.0
C2817 C 0.09421 0.3001 0.86609 0.0
C2818 C 0.12508 0.32367 0.86907 0.0
C2819 C 0.12878 0.31929 0.84903 0.0
C2820 C 0.11504 0.30552 0.83741 0.0
H2821 H 0.22298 0.35148 0.77219 0.0
H2822 H 0.19304 0.33569 0.78754 0.0
C2823 C 0.09793 0.29605 0.84582 0.0
C2824 C 0.14719 0.32819 0.84077 0.0
H2825 H 0.1729 0.35217 0.79892 0.0
C2826 C 0.16005 0.32624 0.852 0.0
C2827 C 0.15186 0.33773 0.82146 0.0
C2828 C 0.13873 0.34078 0.80914 0.0
C2829 C 0.17743 0.3333 0.84423 0.0
C2830 C 0.18208 0.34276 0.82487 0.0
C2831 C 0.16923 0.34478 0.81368 0.0
C2832 C 0.20038 0.35129 0.81633 0.0
C2833 C 0.19057 0.33026 0.85653 0.0
C2834 C 0.21437 0.36517 0.82752 0.0
C2835 C 0.23142 0.37417 0.81884 0.0
C2836 C 0.2348 0.36952 0.79873 0.0
C2837 C 0.22084 0.35531 0.78776 0.0
C2838 C 0.20373 0.34633 0.79645 0.0
H2839 H 0.18381 0.31901 0.86783 0.0
H2840 H 0.199 0.32752 0.84571 0.0
H2841 H 0.19941 0.3424 0.86577 0.0
H2842 H 0.212 0.36939 0.84272 0.0
H2843 H 0.24186 0.38509 0.8277 0.0
H2844 H 0.88005 0.63264 0.65605 0.0
H2845 H 0.86718 0.65065 0.64433 0.0
H2846 H 0.84153 0.64313 0.70499 0.0
H2847 H 0.8546 0.6255 0.71699 0.0
H2848 H 0.83142 0.63908 0.641 0.0
H2849 H 0.86352 0.69628 0.6962 0.0
H2850 H 0.87159 0.68091 0.69248 0.0
H2851 H 0.85282 0.67516 0.70943 0.0
C2852 C 0.87193 0.63508 0.66702 0.0
C2853 C 0.86836 0.62764 0.68746 0.0
C2854 C 0.86455 0.64532 0.66028 0.0
C2855 C 0.85355 0.64837 0.67386 0.0
C2856 C 0.85027 0.64127 0.6944 0.0
H2857 H 0.78813 0.69713 0.66349 0.0
H2858 H 0.8018 0.67957 0.67391 0.0
C2859 C 0.8577 0.6311 0.70119 0.0
C2860 C 0.84457 0.65797 0.66614 0.0
H2861 H 0.83865 0.6932 0.67666 0.0
C2862 C 0.83311 0.65101 0.64867 0.0
C2863 C 0.84675 0.67346 0.67626 0.0
C2864 C 0.85946 0.682 0.69451 0.0
C2865 C 0.82343 0.65891 0.64131 0.0
C2866 C 0.82547 0.67429 0.65157 0.0
C2867 C 0.83703 0.68132 0.66894 0.0
C2868 C 0.81597 0.68351 0.6444 0.0
C2869 C 0.8108 0.6505 0.62296 0.0
C2870 C 0.81926 0.69134 0.62426 0.0
C2871 C 0.81142 0.70133 0.61822 0.0
C2872 C 0.80028 0.70378 0.63231 0.0
C2873 C 0.79663 0.69549 0.65226 0.0
C2874 C 0.80446 0.68549 0.65827 0.0
H2875 H 0.80737 0.63647 0.62045 0.0
H2876 H 0.79834 0.65088 0.62549 0.0
H2877 H 0.81719 0.65803 0.60827 0.0
H2878 H 0.82834 0.69022 0.61347 0.0
H2879 H 0.81457 0.70759 0.60277 0.0
H2880 H 0.35049 0.22242 0.72544 0.0
H2881 H 0.33584 0.19269 0.70945 0.0
H2882 H 0.3653 0.21464 0.65171 0.0
H2883 H 0.38006 0.24424 0.66748 0.0
H2884 H 0.31563 0.17939 0.67111 0.0
H2885 H 0.3782 0.17667 0.66945 0.0
H2886 H 0.37577 0.19278 0.68499 0.0
H2887 H 0.37959 0.19591 0.65695 0.0
C2888 C 0.35365 0.22094 0.70924 0.0
C2889 C 0.36656 0.23564 0.6978 0.0
C2890 C 0.34533 0.20397 0.70018 0.0
C2891 C 0.34984 0.20149 0.67961 0.0
C2892 C 0.36198 0.21626 0.66778 0.0
H2893 H 0.31673 0.10945 0.59815 0.0
H2894 H 0.33215 0.13938 0.61368 0.0
C2895 C 0.37031 0.23317 0.6768 0.0
C2896 C 0.34218 0.18344 0.67058 0.0
H2897 H 0.35321 0.15324 0.65213 0.0
C2898 C 0.3238 0.17362 0.66704 0.0
C2899 C 0.35295 0.17604 0.66525 0.0
C2900 C 0.37271 0.1858 0.6695 0.0
C2901 C 0.3159 0.15662 0.65797 0.0
C2902 C 0.32667 0.1492 0.65269 0.0
C2903 C 0.34505 0.15904 0.65617 0.0
C2904 C 0.3189 0.13104 0.64401 0.0
C2905 C 0.29614 0.14683 0.65381 0.0
C2906 C 0.30699 0.11647 0.65627 0.0
C2907 C 0.29824 0.09947 0.64752 0.0
C2908 C 0.30133 0.09671 0.62635 0.0
C2909 C 0.3141 0.11117 0.61448 0.0
C2910 C 0.32284 0.12826 0.62329 0.0
H2911 H 0.29063 0.15595 0.65384 0.0
H2912 H 0.29304 0.13979 0.63835 0.0
H2913 H 0.28929 0.13675 0.66641 0.0
H2914 H 0.3041 0.11834 0.67245 0.0
H2915 H 0.28862 0.08857 0.65716 0.0
H2916 H 0.90297 0.17537 0.64841 0.0
H2917 H 0.87327 0.16226 0.6635 0.0
H2918 H 0.8679 0.20574 0.63914 0.0
H2919 H 0.89782 0.21907 0.62371 0.0
H2920 H 0.86029 0.17748 0.69327 0.0
H2921 H 0.82327 0.16034 0.617 0.0
H2922 H 0.84622 0.16583 0.61876 0.0
H2923 H 0.84061 0.18312 0.61983 0.0
C2924 C 0.89553 0.18221 0.64618 0.0
C2925 C 0.90275 0.19827 0.63476 0.0
C2926 C 0.87855 0.17468 0.65487 0.0
C2927 C 0.86837 0.18294 0.65225 0.0
C2928 C 0.87552 0.19905 0.64106 0.0
H2929 H 0.7633 0.15586 0.69307 0.0
H2930 H 0.79333 0.16972 0.67882 0.0
C2931 C 0.89261 0.20668 0.63235 0.0
C2932 C 0.85032 0.17457 0.66142 0.0
H2933 H 0.80637 0.15456 0.64834 0.0
C2934 C 0.84848 0.17245 0.68349 0.0
C2935 C 0.835 0.16796 0.64854 0.0
C2936 C 0.83626 0.16925 0.6247 0.0
C2937 C 0.83165 0.16408 0.69307 0.0
C2938 C 0.81635 0.15746 0.68018 0.0
C2939 C 0.81819 0.15961 0.65813 0.0
C2940 C 0.79827 0.14889 0.68931 0.0
C2941 C 0.83036 0.16267 0.7169 0.0
C2942 C 0.7911 0.13249 0.69987 0.0
C2943 C 0.77381 0.12442 0.70806 0.0
C2944 C 0.7635 0.13266 0.70576 0.0
C2945 C 0.77084 0.14911 0.69516 0.0
C2946 C 0.78801 0.15708 0.68696 0.0
H2947 H 0.84336 0.17146 0.72465 0.0
H2948 H 0.82047 0.16618 0.72285 0.0
H2949 H 0.82585 0.14875 0.72166 0.0
H2950 H 0.7988 0.12587 0.70158 0.0
H2951 H 0.76852 0.11175 0.7161 0.0
H2952 H 0.95197 0.52798 0.48909 0.0
H2953 H 0.96752 0.5139 0.50468 0.0
H2954 H 0.99565 0.5207 0.44601 0.0
H2955 H 0.98021 0.53506 0.43023 0.0
H2956 H 0.9651 0.48258 0.48918 0.0
H2957 H 0.03509 0.53817 0.4911 0.0
H2958 H 0.01646 0.54176 0.48783 0.0
H2959 H 0.02416 0.53427 0.46588 0.0
C2960 C 0.96166 0.52675 0.47955 0.0
C2961 C 0.96484 0.5326 0.45839 0.0
C2962 C 0.9705 0.51867 0.4885 0.0
C2963 C 0.98274 0.51631 0.47652 0.0
C2964 C 0.98643 0.52264 0.4556 0.0
H2965 H 0.04405 0.4652 0.50369 0.0
H2966 H 0.02856 0.4788 0.4867 0.0
C2967 C 0.9776 0.53082 0.44661 0.0
C2968 C 0.99071 0.50621 0.48566 0.0
H2969 H 0.03004 0.50965 0.50057 0.0
C2970 C 0.9793 0.48848 0.49172 0.0
C2971 C 0.00921 0.51397 0.48887 0.0
C2972 C 0.02198 0.53313 0.48326 0.0
C2973 C 0.98593 0.47821 0.50077 0.0
C2974 C 0.00443 0.48602 0.50414 0.0
C2975 C 0.01585 0.50372 0.49796 0.0
C2976 C 0.01233 0.4761 0.51398 0.0
C2977 C 0.97314 0.45904 0.50629 0.0
C2978 C 0.00809 0.46977 0.53486 0.0
C2979 C 0.01686 0.46185 0.54463 0.0
C2980 C 0.03015 0.46036 0.5337 0.0
C2981 C 0.03393 0.46622 0.51257 0.0
C2982 C 0.02512 0.47402 0.50283 0.0
H2983 H 0.9603 0.45387 0.49777 0.0
H2984 H 0.9789 0.45048 0.50246 0.0
H2985 H 0.97035 0.45797 0.52354 0.0
H2986 H 0.99846 0.47154 0.54386 0.0
H2987 H 0.01379 0.45761 0.56098 0.0
H2988 H 0.52359 0.56245 0.54144 0.0
H2989 H 0.50941 0.53269 0.52595 0.0
H2990 H 0.53068 0.55529 0.46469 0.0
H2991 H 0.5451 0.58514 0.48005 0.0
H2992 H 0.48392 0.52053 0.49321 0.0
H2993 H 0.54345 0.51588 0.47114 0.0
H2994 H 0.54449 0.53229 0.48953 0.0
H2995 H 0.54326 0.53527 0.46155 0.0
C2996 C 0.52549 0.56111 0.52473 0.0
C2997 C 0.53548 0.57618 0.51197 0.0
C2998 C 0.51731 0.5441 0.5159 0.0
C2999 C 0.51906 0.54182 0.49422 0.0
C3000 C 0.52938 0.55677 0.48152 0.0
H3001 H 0.45057 0.44188 0.42601 0.0
H3002 H 0.46518 0.47313 0.43728 0.0
C3003 C 0.53759 0.57381 0.49034 0.0
C3004 C 0.50944 0.52382 0.48482 0.0
H3005 H 0.51552 0.49224 0.4604 0.0
C3006 C 0.49079 0.51432 0.48596 0.0
C3007 C 0.5185 0.51584 0.47544 0.0
C3008 C 0.53853 0.52524 0.47444 0.0
C3009 C 0.48093 0.49688 0.47822 0.0
C3010 C 0.48999 0.48888 0.46888 0.0
C3011 C 0.50863 0.4985 0.46745 0.0
C3012 C 0.4806 0.47005 0.46214 0.0
C3013 C 0.46098 0.48693 0.48077 0.0
C3014 C 0.48453 0.45808 0.4723 0.0
C3015 C 0.47634 0.44039 0.46589 0.0
C3016 C 0.46403 0.43425 0.4491 0.0
C3017 C 0.4599 0.44619 0.43907 0.0
C3018 C 0.4682 0.46401 0.44551 0.0
H3019 H 0.45642 0.49377 0.49185 0.0
H3020 H 0.45469 0.48588 0.46514 0.0
H3021 H 0.45625 0.47323 0.48669 0.0
H3022 H 0.49403 0.46248 0.48521 0.0
H3023 H 0.47982 0.43157 0.47402 0.0
H3024 H 0.57433 0.05609 0.4904 0.0
H3025 H 0.54463 0.03974 0.50566 0.0
H3026 H 0.52949 0.99896 0.45815 0.0
H3027 H 0.55945 0.01514 0.44293 0.0
H3028 H 0.5135 0.03171 0.48591 0.0
H3029 H 0.51215 0.97012 0.51255 0.0
H3030 H 0.53248 0.98998 0.50525 0.0
H3031 H 0.51781 0.97533 0.48512 0.0
C3032 C 0.56477 0.04354 0.48329 0.0
C3033 C 0.56924 0.03689 0.46544 0.0
C3034 C 0.54779 0.03423 0.49205 0.0
C3035 C 0.53492 0.01809 0.48316 0.0
C3036 C 0.53936 0.01124 0.4655 0.0
H3037 H 0.42361 0.94677 0.5048 0.0
H3038 H 0.45375 0.96368 0.49092 0.0
C3039 C 0.55644 0.02052 0.45678 0.0
C3040 C 0.51664 0.00898 0.49181 0.0
H3041 H 0.48477 0.97006 0.5137 0.0
C3042 C 0.50724 0.01826 0.4921 0.0
C3043 C 0.50856 0.99148 0.49991 0.0
C3044 C 0.51831 0.98118 0.50091 0.0
C3045 C 0.4898 0.01036 0.49991 0.0
C3046 C 0.48168 0.9928 0.50778 0.0
C3047 C 0.49109 0.98354 0.5076 0.0
C3048 C 0.4632 0.9835 0.51571 0.0
C3049 C 0.48005 0.02065 0.49922 0.0
C3050 C 0.45852 0.98921 0.53416 0.0
C3051 C 0.44121 0.97956 0.5422 0.0
C3052 C 0.42842 0.96403 0.53192 0.0
C3053 C 0.43313 0.95865 0.51316 0.0
C3054 C 0.45036 0.96827 0.50519 0.0
H3055 H 0.48682 0.03254 0.48884 0.0
H3056 H 0.46621 0.0121 0.49349 0.0
H3057 H 0.47938 0.0252 0.51545 0.0
H3058 H 0.46836 0.00084 0.54264 0.0
H3059 H 0.43802 0.98398 0.55674 0.0
H3060 H 0.54352 0.98482 0.06093 0.0
H3061 H 0.52904 0.00093 0.04733 0.0
H3062 H 0.50817 0.96467 0.99458 0.0
H3063 H 0.52244 0.94855 0.00789 0.0
H3064 H 0.53187 0.01682 0.00532 0.0
H3065 H 0.46378 0.96188 0.0238 0.0
H3066 H 0.48347 0.96346 0.03558 0.0
H3067 H 0.47732 0.95547 0.00893 0.0
C3068 C 0.536 0.9804 0.04633 0.0
C3069 C 0.53402 0.96532 0.0356 0.0
C3070 C 0.52771 0.98957 0.03863 0.0
C3071 C 0.51728 0.98373 0.02021 0.0
C3072 C 0.51588 0.96915 0.00906 0.0
H3073 H 0.45249 0.01415 0.94673 0.0
H3074 H 0.46721 0.99896 0.96221 0.0
C3075 C 0.52414 0.96002 0.01667 0.0
C3076 C 0.50764 0.99266 0.01259 0.0
H3077 H 0.46592 0.98564 0.00298 0.0
C3078 C 0.51746 0.01011 0.00495 0.0
C3079 C 0.48885 0.98374 0.01205 0.0
C3080 C 0.47768 0.96515 0.02068 0.0
C3081 C 0.50896 0.01877 0.99624 0.0
C3082 C 0.49014 0.00984 0.99563 0.0
C3083 C 0.48033 0.99242 0.00344 0.0
C3084 C 0.48042 0.01841 0.98703 0.0
C3085 C 0.52021 0.03722 0.98721 0.0
C3086 C 0.48253 0.03402 0.99629 0.0
C3087 C 0.47422 0.04271 0.98749 0.0
C3088 C 0.46346 0.03585 0.96936 0.0
C3089 C 0.46069 0.01977 0.96067 0.0
C3090 C 0.46912 0.01111 0.96946 0.0
H3091 H 0.53396 0.04018 0.98373 0.0
H3092 H 0.51426 0.03889 0.97243 0.0
H3093 H 0.52105 0.04714 -0.00108 0.0
H3094 H 0.49081 0.03961 0.01019 0.0
H3095 H 0.47647 0.05498 0.99472 0.0
H3096 H 0.94856 0.42187 0.9933 0.0
H3097 H 0.9647 0.45203 0.00735 0.0
H3098 H 0.9954 0.47014 0.94979 0.0
H3099 H 0.97909 0.43986 0.93537 0.0
H3100 H 0.00141 0.47566 0.0138 0.0
H3101 H 0.97183 0.50127 0.95518 0.0
H3102 H 0.96316 0.47781 0.95957 0.0
H3103 H 0.98301 0.4904 0.94419 0.0
C3104 C 0.95885 0.4322 0.98365 0.0
C3105 C 0.96244 0.42852 0.96312 0.0
C3106 C 0.96806 0.44943 0.99174 0.0
C3107 C 0.98097 0.46331 0.97945 0.0
C3108 C 0.98522 0.4596 0.95934 0.0
H3109 H 0.0455 0.57605 0.0001 0.0
H3110 H 0.02957 0.54597 0.98575 0.0
C3111 C 0.97602 0.44229 0.95121 0.0
C3112 C 0.98947 0.48172 0.9876 0.0
H3113 H 0.99291 0.52214 0.97904 0.0
C3114 C -0.00043 0.48584 0.00624 0.0
C3115 C 0.98689 0.49488 0.97772 0.0
C3116 C 0.97552 0.49091 0.95816 0.0
C3117 C 0.00744 0.50293 0.01511 0.0
C3118 C 0.00483 0.51607 0.00525 0.0
C3119 C 0.99476 0.51196 0.98659 0.0
C3120 C 0.01319 0.53443 0.01352 0.0
C3121 C 0.0188 0.50688 0.03468 0.0
C3122 C 0.0088 0.53798 0.03364 0.0
C3123 C 0.01788 0.55523 0.04193 0.0
C3124 C 0.03147 0.56913 0.03018 0.0
C3125 C 0.03519 0.56562 0.00963 0.0
C3126 C 0.0261 0.54844 0.00137 0.0
H3127 H 0.02258 0.49658 0.03757 0.0
H3128 H 0.03111 0.52004 0.03333 0.0
H3129 H 0.01125 0.50727 0.04865 0.0
H3130 H 0.99862 0.52735 0.04308 0.0
H3131 H 0.0147 0.55752 0.05779 0.0
H3132 H 0.43062 0.49229 0.02507 0.0
H3133 H 0.4605 0.50545 0.01059 0.0
H3134 H 0.46552 0.46186 0.03529 0.0
H3135 H 0.43525 0.44827 0.0497 0.0
H3136 H 0.49261 0.51626 0.03138 0.0
H3137 H 0.47784 0.46319 0.97218 0.0
H3138 H 0.46057 0.46513 0.98567 0.0
H3139 H 0.47222 0.45577 -0.00089 0.0
C3140 C 0.438 0.48541 0.02746 0.0
C3141 C 0.43048 0.46912 0.03842 0.0
C3142 C 0.45511 0.49301 0.01918 0.0
C3143 C 0.4651 0.48453 0.02164 0.0
C3144 C 0.45786 0.46844 0.03292 0.0
H3145 H 0.56899 0.51038 0.97687 0.0
H3146 H 0.53985 0.49741 0.9934 0.0
C3147 C 0.44062 0.46075 0.04121 0.0
C3148 C 0.48308 0.49269 0.01225 0.0
H3149 H 0.5076 0.48653 0.97454 0.0
C3150 C 0.49593 0.50978 0.01896 0.0
C3151 C 0.48727 0.4842 0.996 0.0
C3152 C 0.47374 0.46612 0.98763 0.0
C3153 C 0.513 0.51856 0.01001 0.0
C3154 C 0.51715 0.51011 0.99366 0.0
C3155 C 0.50432 0.49298 0.98703 0.0
C3156 C 0.53495 0.51847 0.98372 0.0
C3157 C 0.52652 0.53662 0.0184 0.0
C3158 C 0.54182 0.53461 0.97263 0.0
C3159 C 0.55864 0.5422 0.96317 0.0
C3160 C 0.56871 0.53364 0.96453 0.0
C3161 C 0.56162 0.51738 0.97549 0.0
C3162 C 0.54494 0.5099 0.98497 0.0
H3163 H 0.52267 0.53926 0.03419 0.0
H3164 H 0.53984 0.53786 0.01969 0.0
H3165 H 0.52756 0.54702 0.00731 0.0
H3166 H 0.53413 0.54124 0.97112 0.0
H3167 H 0.56368 0.55466 0.95473 0.0
H3168 H 0.20459 0.02468 0.97352 0.0
H3169 H 0.20922 0.04778 -0.00081 0.0
H3170 H 0.20735 0.08021 0.94866 0.0
H3171 H 0.20301 0.05742 0.92294 0.0
H3172 H 0.23667 0.08515 0.00017 0.0
H3173 H 0.16874 0.07521 0.99115 0.0
H3174 H 0.17459 0.05897 0.9825 0.0
H3175 H 0.18025 0.07822 0.96652 0.0
C3176 C 0.20557 0.03688 0.96781 0.0
C3177 C 0.20367 0.03933 0.94615 0.0
C3178 C 0.20803 0.04997 0.98253 0.0
C3179 C 0.20838 0.06554 0.97579 0.0
C3180 C 0.2068 0.06813 0.95418 0.0
H3181 H 0.22226 0.16374 0.02416 0.0
H3182 H 0.21737 0.1378 0.00333 0.0
C3183 C 0.20437 0.05512 0.93952 0.0
C3184 C 0.21036 0.07922 0.99118 0.0
H3185 H 0.18999 0.10174 0.00871 0.0
C3186 C 0.22642 0.08867 0.0023 0.0
C3187 C 0.1969 0.08368 0.99387 0.0
C3188 C 0.17907 0.07339 0.98304 0.0
C3189 C 0.22968 0.10307 0.01538 0.0
C3190 C 0.21641 0.10787 0.01753 0.0
C3191 C 0.20017 0.09807 0.00688 0.0
C3192 C 0.2193 0.12338 0.03023 0.0
C3193 C 0.24753 0.11346 0.02613 0.0
C3194 C 0.22171 0.12367 0.05222 0.0
C3195 C 0.22443 0.1384 0.06407 0.0
C3196 C 0.2247 0.15299 0.05409 0.0
C3197 C 0.22203 0.15258 0.03215 0.0
C3198 C 0.2193 0.13785 0.02029 0.0
H3199 H 0.2575 0.1104 0.01935 0.0
H3200 H 0.25268 0.12798 0.02475 0.0
H3201 H 0.24603 0.11002 0.04322 0.0
H3202 H 0.22139 0.11247 0.06021 0.0
H3203 H 0.22621 0.13836 0.08105 0.0
H3204 H 0.86346 0.08857 0.0839 0.0
H3205 H 0.88898 0.10951 0.0624 0.0
H3206 H 0.86227 0.08025 0.00602 0.0
H3207 H 0.83667 0.0594 0.02748 0.0
H3208 H 0.8989 0.08865 0.0112 0.0
H3209 H 0.89023 0.14759 0.02102 0.0
H3210 H 0.89038 0.13634 0.04488 0.0
H3211 H 0.87254 0.12518 0.02624 0.0
C3212 C 0.86305 0.08674 0.06689 0.0
C3213 C 0.84818 0.07249 0.05724 0.0
C3214 C 0.87756 0.09868 0.05467 0.0
C3215 C 0.87737 0.09651 0.03264 0.0
C3216 C 0.8626 0.08215 0.02301 0.0
H3217 H 0.94461 0.14523 0.92513 0.0
H3218 H 0.92159 0.12653 0.95051 0.0
C3219 C 0.84806 0.07026 0.03523 0.0
C3220 C 0.89271 0.10897 0.01958 0.0
H3221 H 0.91518 0.15174 0.00146 0.0
C3222 C 0.9025 0.10246 0.00908 0.0
C3223 C 0.89742 0.12699 0.01708 0.0
C3224 C 0.88706 0.1345 0.02775 0.0
C3225 C 0.91687 0.11348 0.99595 0.0
C3226 C 0.92126 0.13136 0.9929 0.0
C3227 C 0.91173 0.138 0.00382 0.0
C3228 C 0.9351 0.14308 0.97761 0.0
C3229 C 0.92727 0.10589 0.98555 0.0
C3230 C 0.95008 0.15888 0.98434 0.0
C3231 C 0.96325 0.1697 0.9698 0.0
C3232 C 0.96151 0.16493 0.94829 0.0
C3233 C 0.94636 0.14921 0.94162 0.0
C3234 C 0.93323 0.13847 0.95611 0.0
H3235 H 0.92576 0.09408 0.99425 0.0
H3236 H 0.92224 0.10161 0.96921 0.0
H3237 H 0.94164 0.11596 0.98462 0.0
H3238 H 0.95174 0.16264 0.0009 0.0
H3239 H 0.97497 0.18144 0.97554 0.0
H3240 H 0.90976 0.77437 0.08611 0.0
H3241 H 0.88801 0.7769 0.0637 0.0
H3242 H 0.9166 0.7766 0.00795 0.0
H3243 H 0.93804 0.77358 0.03032 0.0
H3244 H 0.89359 0.80324 0.03475 0.0
H3245 H 0.86569 0.7377 0.9951 0.0
H3246 H 0.87923 0.74325 0.01866 0.0
H3247 H 0.88945 0.75088 0.99313 0.0
C3248 C 0.91125 0.77472 0.06905 0.0
C3249 C 0.92541 0.77368 0.05984 0.0
C3250 C 0.89891 0.77621 0.05631 0.0
C3251 C 0.90053 0.77661 0.03417 0.0
C3252 C 0.91489 0.77591 0.02498 0.0
H3253 H 0.85226 0.79404 0.92591 0.0
H3254 H 0.86996 0.78856 0.95174 0.0
C3255 C 0.92721 0.77438 0.03773 0.0
C3256 C 0.88749 0.77823 0.02067 0.0
H3257 H 0.85831 0.75837 0.97989 0.0
C3258 C 0.88571 0.79335 0.02291 0.0
C3259 C 0.87719 0.76524 0.00534 0.0
C3260 C 0.87782 0.74827 0.00301 0.0
C3261 C 0.87441 0.79618 0.00961 0.0
C3262 C 0.86452 0.78343 0.99388 0.0
C3263 C 0.86597 0.76812 0.99197 0.0
C3264 C 0.85335 0.78623 0.97846 0.0
C3265 C 0.87361 0.81306 0.01193 0.0
C3266 C 0.83806 0.78654 0.98497 0.0
C3267 C 0.8279 0.78966 0.97022 0.0
C3268 C 0.83285 0.7924 0.94876 0.0
C3269 C 0.84811 0.79195 0.94234 0.0
C3270 C 0.8582 0.78877 0.95703 0.0
H3271 H 0.88441 0.82294 0.02224 0.0
H3272 H 0.87456 0.81921 0.99621 0.0
H3273 H 0.86068 0.80987 0.01909 0.0
H3274 H 0.83407 0.78451 0.00145 0.0
H3275 H 0.81651 0.79042 0.97576 0.0
H3276 H 0.13528 0.22356 0.41623 0.0
H3277 H 0.11063 0.21933 0.43914 0.0
H3278 H 0.1394 0.21741 0.49387 0.0
H3279 H 0.1642 0.22195 0.47097 0.0
H3280 H 0.09023 0.19095 0.46783 0.0
H3281 H 0.12688 0.25641 0.50825 0.0
H3282 H 0.13452 0.2516 0.48386 0.0
H3283 H 0.1379 0.24356 0.50865 0.0
C3284 C 0.13629 0.22228 0.43317 0.0
C3285 C 0.15156 0.22317 0.44198 0.0
C3286 C 0.12225 0.21982 0.44618 0.0
C3287 C 0.12336 0.21833 0.46816 0.0
C3288 C 0.13846 0.21884 0.47694 0.0
H3289 H 0.05743 0.20167 0.57626 0.0
H3290 H 0.08078 0.20702 0.55085 0.0
C3291 C 0.1525 0.22127 0.46391 0.0
C3292 C 0.10865 0.21613 0.48191 0.0
H3293 H 0.09861 0.23566 0.52233 0.0
C3294 C 0.09197 0.20075 0.47966 0.0
C3295 C 0.11105 0.22904 0.49719 0.0
C3296 C 0.1285 0.24617 0.49958 0.0
C3297 C 0.07771 0.19762 0.49286 0.0
C3298 C 0.08019 0.2104 0.5084 0.0
C3299 C 0.09679 0.22592 0.51038 0.0
C3300 C 0.06601 0.20749 0.52351 0.0
C3301 C 0.06029 0.18044 0.49056 0.0
C3302 C 0.05005 0.20617 0.51651 0.0
C3303 C 0.03663 0.20304 0.53101 0.0
C3304 C 0.03908 0.2014 0.55272 0.0
C3305 C 0.05516 0.20289 0.55962 0.0
C3306 C 0.06853 0.20601 0.54517 0.0
H3307 H 0.06173 0.17048 0.48102 0.0
H3308 H 0.05479 0.1746 0.50633 0.0
H3309 H 0.05053 0.18313 0.48249 0.0
H3310 H 0.04795 0.20743 0.49984 0.0
H3311 H 0.02423 0.20145 0.52511 0.0
H3312 H 0.76803 0.90983 0.42471 0.0
H3313 H 0.77336 0.89074 0.44866 0.0
H3314 H 0.7823 0.92685 0.50026 0.0
H3315 H 0.7767 0.94585 0.47635 0.0
H3316 H 0.8048 0.90081 0.47355 0.0
H3317 H 0.74393 0.87722 0.52272 0.0
H3318 H 0.74629 0.88723 0.49696 0.0
H3319 H 0.75736 0.90091 0.51953 0.0
C3320 C 0.771 0.91357 0.44121 0.0
C3321 C 0.77183 0.92915 0.44883 0.0
C3322 C 0.77411 0.90274 0.45481 0.0
C3323 C 0.77799 0.9073 0.47623 0.0
C3324 C 0.77905 0.923 0.48383 0.0
H3325 H 0.79853 0.85638 0.58201 0.0
H3326 H 0.79364 0.87621 0.55896 0.0
C3327 C 0.77598 0.93386 0.47019 0.0
C3328 C 0.78121 0.89573 0.4905 0.0
H3329 H 0.76448 0.86842 0.53344 0.0
C3330 C 0.796 0.89369 0.48664 0.0
C3331 C 0.76969 0.88655 0.50754 0.0
C3332 C 0.75333 0.88792 0.51193 0.0
C3333 C 0.7997 0.88281 0.49957 0.0
C3334 C 0.78806 0.87346 0.51649 0.0
C3335 C 0.77334 0.87559 0.52042 0.0
C3336 C 0.79094 0.86137 0.53032 0.0
C3337 C 0.81621 0.8817 0.49526 0.0
C3338 C 0.79087 0.8464 0.52186 0.0
C3339 C 0.79374 0.83511 0.53496 0.0
C3340 C 0.79643 0.83846 0.55681 0.0
C3341 C 0.79642 0.85343 0.56523 0.0
C3342 C 0.79358 0.86473 0.55212 0.0
H3343 H 0.82603 0.89315 0.48567 0.0
H3344 H 0.82266 0.88127 0.51026 0.0
H3345 H 0.81251 0.86936 0.48624 0.0
H3346 H 0.78864 0.84347 0.50509 0.0
H3347 H 0.79426 0.82406 0.52783 0.0
H3348 H 0.09037 0.85777 0.42285 0.0
H3349 H 0.11014 0.88348 0.44469 0.0
H3350 H 0.07342 0.86149 0.49694 0.0
H3351 H 0.05364 0.83557 0.47511 0.0
H3352 H 0.08714 0.89921 0.48763 0.0
H3353 H 0.14017 0.88142 0.49506 0.0
H3354 H 0.13275 0.88163 0.46853 0.0
H3355 H 0.11771 0.86552 0.48719 0.0
C3356 C 0.08661 0.8584 0.43905 0.0
C3357 C 0.07066 0.84469 0.44748 0.0
C3358 C 0.09787 0.87305 0.45146 0.0
C3359 C 0.09333 0.87418 0.47247 0.0
C3360 C 0.07715 0.86074 0.48077 0.0
H3361 H 0.14268 0.95194 0.57261 0.0
H3362 H 0.12256 0.92667 0.55046 0.0
C3363 C 0.06589 0.84603 0.46834 0.0
C3364 C 0.10552 0.88945 0.48574 0.0
H3365 H 0.14669 0.9095 0.50843 0.0
C3366 C 0.10013 0.90146 0.49229 0.0
C3367 C 0.12246 0.89231 0.4916 0.0
C3368 C 0.12864 0.87949 0.48541 0.0
C3369 C 0.11143 0.91651 0.50435 0.0
C3370 C 0.12834 0.91931 0.51035 0.0
C3371 C 0.13371 0.90729 0.50376 0.0
C3372 C 0.14058 0.9345 0.52378 0.0
C3373 C 0.1053 0.92945 0.51014 0.0
C3374 C 0.15754 0.94698 0.5163 0.0
C3375 C 0.16912 0.96132 0.52901 0.0
C3376 C 0.16393 0.96324 0.54945 0.0
C3377 C 0.14698 0.9507 0.5569 0.0
C3378 C 0.13545 0.93635 0.54425 0.0
H3379 H 0.09449 0.9281 0.49952 0.0
H3380 H 0.10006 0.92674 0.52657 0.0
H3381 H 0.11647 0.94338 0.50939 0.0
H3382 H 0.16171 0.94575 0.50052 0.0
H3383 H 0.18193 0.97108 0.5227 0.0
H3384 H 0.7688 0.95009 0.04557 0.0
H3385 H 0.76356 0.92613 0.02096 0.0
H3386 H 0.82 0.94571 0.01807 0.0
H3387 H 0.82527 0.96947 0.04289 0.0
H3388 H 0.77506 0.92558 0.98043 0.0
H3389 H 0.80069 0.89471 0.03678 0.0
H3390 H 0.7961 0.912 0.04456 0.0
H3391 H 0.8165 0.91753 0.03113 0.0
C3392 C 0.7801 0.94948 0.03935 0.0
C3393 C 0.79745 0.96166 0.04602 0.0
C3394 C 0.77708 0.93572 0.02543 0.0
C3395 C 0.79137 0.93395 0.01805 0.0
C3396 C 0.80876 0.94657 0.024 0.0
H3397 H 0.80248 0.86192 0.93299 0.0
H3398 H 0.80709 0.88703 0.95533 0.0
C3399 C 0.81175 0.96018 0.03806 0.0
C3400 C 0.78811 0.91868 0.00453 0.0
H3401 H 0.79515 0.8834 0.00159 0.0
C3402 C 0.77936 0.9163 0.98509 0.0
C3403 C 0.79363 0.90651 0.01076 0.0
C3404 C 0.80209 0.90768 0.03204 0.0
C3405 C 0.77635 0.90229 0.97147 0.0
C3406 C 0.78221 0.89041 0.97753 0.0
C3407 C 0.79083 0.89268 0.99699 0.0
C3408 C 0.77937 0.87539 0.96396 0.0
C3409 C 0.76717 0.90036 0.95054 0.0
C3410 C 0.76232 0.86055 0.96176 0.0
C3411 C 0.75973 0.84615 0.94932 0.0
C3412 C 0.77414 0.84645 0.93886 0.0
C3413 C 0.79121 0.86132 0.94111 0.0
C3414 C 0.79383 0.87566 0.9537 0.0
H3415 H 0.76582 0.91214 0.94681 0.0
H3416 H 0.77463 0.89838 0.93755 0.0
H3417 H 0.75367 0.88845 0.95107 0.0
H3418 H 0.75107 0.86006 0.96981 0.0
H3419 H 0.74647 0.83473 0.94796 0.0
H3420 H 0.0561 0.85438 0.07058 0.0
H3421 H 0.07863 0.8728 0.04459 0.0
H3422 H 0.04587 0.83822 0.99444 0.0
H3423 H 0.02304 0.81975 0.0204 0.0
H3424 H 0.08276 0.84788 0.99275 0.0
H3425 H 0.07397 0.9065 0.00241 0.0
H3426 H 0.07731 0.89814 0.02697 0.0
H3427 H 0.05771 0.88456 0.01149 0.0
C3428 C 0.05366 0.85067 0.05402 0.0
C3429 C 0.03788 0.83548 0.04757 0.0
C3430 C 0.06652 0.86124 0.03921 0.0
C3431 C 0.06377 0.85697 0.01763 0.0
C3432 C 0.04818 0.84169 0.01108 0.0
H3433 H 0.13535 0.91123 0.91126 0.0
H3434 H 0.10958 0.89055 0.93255 0.0
C3435 C 0.03524 0.83105 0.02595 0.0
C3436 C 0.07736 0.86855 0.00209 0.0
H3437 H 0.1003 0.91144 0.98454 0.0
C3438 C 0.08647 0.86171 0.99069 0.0
C3439 C 0.08209 0.88657 -0.0005 0.0
C3440 C 0.07215 0.89436 0.01058 0.0
C3441 C 0.10078 0.87268 0.97741 0.0
C3442 C 0.10585 0.89083 0.97536 0.0
C3443 C 0.09641 0.89753 0.9863 0.0
C3444 C 0.12126 0.90325 0.96242 0.0
C3445 C 0.11078 0.86496 0.96631 0.0
C3446 C 0.13613 0.91741 0.97218 0.0
C3447 C 0.1508 0.92917 0.96008 0.0
C3448 C 0.15073 0.92697 0.93807 0.0
C3449 C 0.13574 0.91299 0.92828 0.0
C3450 C 0.12108 0.9012 0.94038 0.0
H3451 H 0.10749 0.85179 0.97287 0.0
H3452 H 0.10724 0.86323 0.94925 0.0
H3453 H 0.12536 0.87408 0.9676 0.0
H3454 H 0.13644 0.91921 0.98918 0.0
H3455 H 0.16228 0.93987 0.9679 0.0
H3456 H 0.14964 0.21036 0.06481 0.0
H3457 H 0.1317 0.21436 0.03801 0.0
H3458 H 0.16188 0.20719 0.98864 0.0
H3459 H 0.18 0.20319 0.01552 0.0
H3460 H 0.15529 0.23519 0.98078 0.0
H3461 H 0.09354 0.17365 0.00296 0.0
H3462 H 0.10378 0.18798 0.02528 0.0
H3463 H 0.11523 0.17835 0.01182 0.0
C3464 C 0.15251 0.20969 0.04824 0.0
C3465 C 0.16629 0.20658 0.04224 0.0
C3466 C 0.14221 0.2119 0.03297 0.0
C3467 C 0.14527 0.21072 0.01139 0.0
C3468 C 0.15931 0.20808 0.00526 0.0
H3469 H 0.06349 0.20138 0.92301 0.0
H3470 H 0.08522 0.19594 0.94138 0.0
C3471 C 0.16974 0.20596 0.0206 0.0
C3472 C 0.13359 0.21217 0.99546 0.0
H3473 H 0.0899 0.19496 0.9826 0.0
C3474 C 0.14102 0.22627 0.98093 0.0
C3475 C 0.11503 0.20027 0.99539 0.0
C3476 C 0.10645 0.1841 0.00955 0.0
C3477 C 0.1302 0.22936 0.96708 0.0
C3478 C 0.11151 0.21828 0.96821 0.0
C3479 C 0.10421 0.20362 0.98196 0.0
C3480 C 0.09916 0.22198 0.95601 0.0
C3481 C 0.13892 0.24449 0.95146 0.0
C3482 C 0.09971 0.23834 0.95829 0.0
C3483 C 0.08738 0.24144 0.94777 0.0
C3484 C 0.07415 0.22812 0.93514 0.0
C3485 C 0.07352 0.21175 0.93288 0.0
C3486 C 0.08595 0.20869 0.94325 0.0
H3487 H 0.15266 0.24757 0.94762 0.0
H3488 H 0.13117 0.2414 0.93653 0.0
H3489 H 0.1398 0.2566 0.95854 0.0
H3490 H 0.10945 0.24858 0.96854 0.0
H3491 H 0.088 0.25413 0.94973 0.0
H3492 H 0.83073 0.75364 0.5255 0.0
H3493 H 0.85592 0.75914 0.50278 0.0
H3494 H 0.88968 0.80739 0.5373 0.0
H3495 H 0.86452 0.80178 0.56021 0.0
H3496 H 0.87826 0.7896 0.47705 0.0
H3497 H 0.91527 0.77772 0.54087 0.0
H3498 H 0.89196 0.77081 0.54305 0.0
H3499 H 0.90853 0.79373 0.54684 0.0
C3500 C 0.84354 0.76545 0.52809 0.0
C3501 C 0.84583 0.7773 0.5445 0.0
C3502 C 0.85785 0.76858 0.51516 0.0
C3503 C 0.87466 0.78353 0.5186 0.0
C3504 C 0.87685 0.79565 0.53464 0.0
H3505 H 0.9661 0.82443 0.43517 0.0
H3506 H 0.94184 0.82071 0.45821 0.0
C3507 C 0.86251 0.79254 0.54755 0.0
C3508 C 0.88992 0.78625 0.50551 0.0
H3509 H 0.92971 0.78732 0.50773 0.0
C3510 C 0.88954 0.78914 0.48372 0.0
C3511 C 0.90444 0.78539 0.51431 0.0
C3512 C 0.90511 0.7816 0.53752 0.0
C3513 C 0.90346 0.79139 0.47045 0.0
C3514 C 0.91816 0.79089 0.47931 0.0
C3515 C 0.91845 0.78781 0.50107 0.0
C3516 C 0.93329 0.79336 0.46614 0.0
C3517 C 0.90221 0.79398 0.447 0.0
C3518 C 0.93672 0.77933 0.46342 0.0
C3519 C 0.95059 0.78141 0.45028 0.0
C3520 C 0.96136 0.79765 0.43989 0.0
C3521 C 0.95802 0.81176 0.44296 0.0
C3522 C 0.94416 0.80965 0.45606 0.0
H3523 H 0.88844 0.79007 0.44212 0.0
H3524 H 0.91096 0.80823 0.443 0.0
H3525 H 0.90673 0.78613 0.43767 0.0
H3526 H 0.92839 0.76662 0.47105 0.0
H3527 H 0.95241 0.77011 0.44775 0.0
H3528 H 0.26032 0.09286 0.54551 0.0
H3529 H 0.25689 0.11491 0.52491 0.0
H3530 H 0.20033 0.0857 0.53635 0.0
H3531 H 0.20383 0.06411 0.55767 0.0
H3532 H 0.23774 0.11025 0.48905 0.0
H3533 H 0.21293 0.13564 0.55321 0.0
H3534 H 0.22291 0.1221 0.55835 0.0
H3535 H 0.19997 0.11193 0.55042 0.0
C3536 C 0.2472 0.0913 0.54376 0.0
C3537 C 0.23234 0.07686 0.55316 0.0
C3538 C 0.24525 0.10383 0.53198 0.0
C3539 C 0.22841 0.10212 0.52947 0.0
C3540 C 0.2135 0.0875 0.53853 0.0
H3541 H 0.1796 0.14557 0.45147 0.0
H3542 H 0.18758 0.12921 0.47659 0.0
C3543 C 0.21547 0.07504 0.55041 0.0
C3544 C 0.22628 0.1152 0.51665 0.0
H3545 H 0.20899 0.1429 0.51769 0.0
C3546 C 0.23169 0.11759 0.49538 0.0
C3547 C 0.21846 0.12481 0.52501 0.0
C3548 C 0.2134 0.12365 0.54806 0.0
C3549 C 0.2288 0.12878 0.48199 0.0
C3550 C 0.22039 0.13784 0.49017 0.0
C3551 C 0.21539 0.13585 0.51154 0.0
C3552 C 0.21568 0.14855 0.47636 0.0
C3553 C 0.23416 0.13038 0.45901 0.0
C3554 C 0.22886 0.16493 0.46827 0.0
C3555 C 0.22434 0.17433 0.454 0.0
C3556 C 0.20657 0.16744 0.44767 0.0
C3557 C 0.19339 0.15118 0.45614 0.0
C3558 C 0.1979 0.14187 0.47049 0.0
H3559 H 0.23861 0.12084 0.45459 0.0
H3560 H 0.22285 0.12805 0.44865 0.0
H3561 H 0.24522 0.14406 0.45588 0.0
H3562 H 0.24266 0.17023 0.47266 0.0
H3563 H 0.23482 0.1866 0.44733 0.0
H3564 H 0.90921 0.13488 0.58106 0.0
H3565 H 0.88895 0.11038 0.55789 0.0
H3566 H 0.92138 0.1384 0.50389 0.0
H3567 H 0.94172 0.16285 0.52709 0.0
H3568 H 0.8694 0.11136 0.52369 0.0
H3569 H 0.9166 0.08934 0.49871 0.0
H3570 H 0.92088 0.10404 0.52092 0.0
H3571 H 0.92469 0.11258 0.49432 0.0
C3572 C 0.91196 0.13573 0.56423 0.0
C3573 C 0.92695 0.15062 0.55575 0.0
C3574 C 0.90044 0.12178 0.55106 0.0
C3575 C 0.90382 0.12248 0.52925 0.0
C3576 C 0.91877 0.13743 0.52075 0.0
H3577 H 0.85112 0.05794 0.42043 0.0
H3578 H 0.87012 0.08124 0.44545 0.0
C3579 C 0.93031 0.15137 0.53394 0.0
C3580 C 0.89145 0.10779 0.51531 0.0
H3581 H 0.88926 0.07713 0.47981 0.0
C3582 C 0.87368 0.10377 0.5142 0.0
C3583 C 0.89711 0.09791 0.50304 0.0
C3584 C 0.91581 0.10104 0.50441 0.0
C3585 C 0.86149 0.09042 0.50065 0.0
C3586 C 0.86725 0.08078 0.48812 0.0
C3587 C 0.88496 0.08465 0.48942 0.0
C3588 C 0.85523 0.06686 0.47316 0.0
C3589 C 0.8427 0.08704 0.49939 0.0
C3590 C 0.84065 0.05104 0.48054 0.0
C3591 C 0.82979 0.03765 0.46628 0.0
C3592 C 0.83332 0.03996 0.44443 0.0
C3593 C 0.848 0.05582 0.43717 0.0
C3594 C 0.85885 0.06915 0.4514 0.0
H3595 H 0.84139 0.09795 0.50676 0.0
H3596 H 0.83822 0.0855 0.48266 0.0
H3597 H 0.83369 0.07451 0.50786 0.0
H3598 H 0.83793 0.04888 0.49735 0.0
H3599 H 0.81906 0.02535 0.47249 0.0
H3600 H 0.91936 0.49501 0.37735 0.0
H3601 H 0.91438 0.46921 0.35617 0.0
H3602 H 0.85925 0.44139 0.37502 0.0
H3603 H 0.86424 0.46705 0.39642 0.0
H3604 H 0.90041 0.43274 0.37068 0.0
H3605 H 0.85843 0.43953 0.30905 0.0
H3606 H 0.87261 0.4575 0.32662 0.0
H3607 H 0.85177 0.43963 0.33598 0.0
C3608 C 0.90621 0.48334 0.37697 0.0
C3609 C 0.89213 0.48299 0.38832 0.0
C3610 C 0.90338 0.46868 0.3649 0.0
C3611 C 0.88642 0.45353 0.36389 0.0
C3612 C 0.87237 0.4531 0.37535 0.0
H3613 H 0.84041 0.35445 0.29473 0.0
H3614 H 0.84625 0.37888 0.31876 0.0
C3615 C 0.87521 0.46773 0.38749 0.0
C3616 C 0.88342 0.43811 0.35094 0.0
H3617 H 0.86109 0.41376 0.30758 0.0
C3618 C 0.89186 0.42857 0.35683 0.0
C3619 C 0.87224 0.43278 0.33296 0.0
C3620 C 0.86332 0.44294 0.3256 0.0
C3621 C 0.88914 0.41356 0.34538 0.0
C3622 C 0.87797 0.40823 0.32735 0.0
C3623 C 0.86959 0.41784 0.32146 0.0
C3624 C 0.87477 0.39278 0.31423 0.0
C3625 C 0.8979 0.40331 0.35296 0.0
C3626 C 0.88888 0.39248 0.30377 0.0
C3627 C 0.88558 0.37847 0.29013 0.0
C3628 C 0.86809 0.36461 0.28666 0.0
C3629 C 0.85402 0.36491 0.29724 0.0
C3630 C 0.85733 0.37884 0.31094 0.0
H3631 H 0.90186 0.40608 0.36988 0.0
H3632 H 0.88891 0.38877 0.35097 0.0
H3633 H 0.91008 0.4073 0.34348 0.0
H3634 H 0.90238 0.40336 0.3056 0.0
H3635 H 0.89662 0.37892 0.28165 0.0
H3636 H 0.61298 0.47506 0.25603 0.0
H3637 H 0.58908 0.45585 0.28028 0.0
H3638 H 0.61612 0.49257 0.33139 0.0
H3639 H 0.64016 0.51181 0.30722 0.0
H3640 H 0.5917 0.43967 0.31737 0.0
H3641 H 0.56564 0.48539 0.33362 0.0
H3642 H 0.58038 0.4887 0.31176 0.0
H3643 H 0.58904 0.49458 0.3382 0.0
C3644 C 0.61379 0.47909 0.27242 0.0
C3645 C 0.62822 0.49514 0.27962 0.0
C3646 C 0.60014 0.46812 0.28623 0.0
C3647 C 0.60071 0.47296 0.30751 0.0
C3648 C 0.61523 0.48885 0.31487 0.0
H3649 H 0.52682 0.42113 0.41127 0.0
H3650 H 0.55296 0.44054 0.38975 0.0
C3651 C 0.6289 0.49988 0.30102 0.0
C3652 C 0.58626 0.46106 0.322 0.0
H3653 H 0.55277 0.45843 0.35282 0.0
C3654 C 0.58317 0.44374 0.32514 0.0
C3655 C 0.57523 0.46649 0.3321 0.0
C3656 C 0.57758 0.48475 0.32867 0.0
C3657 C 0.56933 0.43167 0.33822 0.0
C3658 C 0.55816 0.43702 0.3481 0.0
C3659 C 0.56139 0.45441 0.34519 0.0
C3660 C 0.54284 0.42472 0.36128 0.0
C3661 C 0.56688 0.41337 0.34155 0.0
C3662 C 0.52857 0.40943 0.35234 0.0
C3663 C 0.51365 0.39839 0.36458 0.0
C3664 C 0.51279 0.40261 0.38582 0.0
C3665 C 0.52718 0.41775 0.39483 0.0
C3666 C 0.54208 0.42877 0.38261 0.0
H3667 H 0.57911 0.41293 0.33749 0.0
H3668 H 0.56323 0.40898 0.35823 0.0
H3669 H 0.55598 0.40374 0.33119 0.0
H3670 H 0.52879 0.40626 0.33579 0.0
H3671 H 0.50261 0.38682 0.35734 0.0
H3672 H 0.51848 0.12654 0.25295 0.0
H3673 H 0.53653 0.12135 0.2785 0.0
H3674 H 0.50522 0.12429 0.32969 0.0
H3675 H 0.48722 0.1297 0.30423 0.0
H3676 H 0.55648 0.14458 0.31172 0.0
H3677 H 0.50603 0.07782 0.34167 0.0
H3678 H 0.50316 0.08694 0.31724 0.0
H3679 H 0.49972 0.09464 0.34222 0.0
C3680 C 0.51534 0.12593 0.26964 0.0
C3681 C 0.50119 0.12814 0.27654 0.0
C3682 C 0.52564 0.12295 0.28419 0.0
C3683 C 0.52201 0.12216 0.30591 0.0
C3684 C 0.50793 0.1244 0.31293 0.0
H3685 H 0.57653 0.10851 0.41398 0.0
H3686 H 0.55629 0.11319 0.39123 0.0
C3687 C 0.49758 0.12738 0.29834 0.0
C3688 C 0.53362 0.11989 0.32116 0.0
H3689 H 0.53432 0.09147 0.35797 0.0
C3690 C 0.55166 0.13298 0.32185 0.0
C3691 C 0.52719 0.10478 0.3344 0.0
C3692 C 0.508 0.09014 0.33383 0.0
C3693 C 0.56352 0.13136 0.33544 0.0
C3694 C 0.5572 0.11608 0.34834 0.0
C3695 C 0.53909 0.10313 0.34796 0.0
C3696 C 0.56928 0.11312 0.36201 0.0
C3697 C 0.58269 0.14609 0.336 0.0
C3698 C 0.58308 0.11131 0.35302 0.0
C3699 C 0.59456 0.10862 0.36595 0.0
C3700 C 0.59231 0.10759 0.38799 0.0
C3701 C 0.5784 0.1092 0.39697 0.0
C3702 C 0.56691 0.11189 0.38404 0.0
H3703 H 0.58431 0.15874 0.32962 0.0
H3704 H 0.58802 0.14843 0.3524 0.0
H3705 H 0.5908 0.14225 0.32611 0.0
H3706 H 0.58489 0.11189 0.33601 0.0
H3707 H 0.60512 0.10722 0.35874 0.0
H3708 H 0.83493 0.58372 0.79583 0.0
H3709 H 0.80897 0.57821 0.81712 0.0
H3710 H 0.77739 0.52792 0.78546 0.0
H3711 H 0.80334 0.53343 0.76413 0.0
H3712 H 0.76238 0.55249 0.78866 0.0
H3713 H 0.78551 0.53858 0.86476 0.0
H3714 H 0.80125 0.55817 0.85057 0.0
H3715 H 0.79397 0.53662 0.83937 0.0
C3716 C 0.82243 0.57149 0.79355 0.0
C3717 C 0.821 0.55893 0.77855 0.0
C3718 C 0.80769 0.56835 0.80566 0.0
C3719 C 0.79138 0.55264 0.80285 0.0
C3720 C 0.78992 0.5401 0.78781 0.0
H3721 H 0.69912 0.50851 0.88365 0.0
H3722 H 0.72285 0.51319 0.85915 0.0
C3723 C 0.80469 0.54319 0.77579 0.0
C3724 C 0.77579 0.54934 0.81557 0.0
H3725 H 0.7592 0.54027 0.8658 0.0
C3726 C 0.76161 0.5498 0.80552 0.0
C3727 C 0.7749 0.54571 0.83747 0.0
C3728 C 0.78963 0.54459 0.84876 0.0
C3729 C 0.74655 0.54691 0.81698 0.0
C3730 C 0.74581 0.54358 0.83896 0.0
C3731 C 0.75991 0.54292 0.84893 0.0
C3732 C 0.7304 0.54043 0.85201 0.0
C3733 C 0.73145 0.5472 0.80553 0.0
C3734 C 0.72676 0.55419 0.85592 0.0
C3735 C 0.71323 0.55158 0.86999 0.0
C3736 C 0.70315 0.53515 0.88028 0.0
C3737 C 0.70664 0.52131 0.87592 0.0
C3738 C 0.72015 0.52393 0.86193 0.0
H3739 H 0.73258 0.54651 0.78807 0.0
H3740 H 0.71847 0.53592 0.81072 0.0
H3741 H 0.73156 0.55971 0.8094 0.0
H3742 H 0.73482 0.56714 0.84872 0.0
H3743 H 0.7113 0.56269 0.87352 0.0
H3744 H 0.48677 0.1834 0.86931 0.0
H3745 H 0.47968 0.2002 0.84384 0.0
H3746 H 0.424 0.16101 0.84849 0.0
H3747 H 0.43094 0.14429 0.87427 0.0
H3748 H 0.4596 0.18888 0.80354 0.0
H3749 H 0.42863 0.20979 0.86613 0.0
H3750 H 0.44311 0.20106 0.8723 0.0
H3751 H 0.4207 0.18635 0.86381 0.0
C3752 C 0.47304 0.17826 0.8647 0.0
C3753 C 0.45943 0.16244 0.87359 0.0
C3754 C 0.46903 0.18783 0.85014 0.0
C3755 C 0.45133 0.18186 0.84445 0.0
C3756 C 0.43774 0.16582 0.85279 0.0
H3757 H 0.40743 0.23779 0.77488 0.0
H3758 H 0.41104 0.2156 0.79486 0.0
C3759 C 0.44175 0.15617 0.86731 0.0
C3760 C 0.44715 0.19305 0.8307 0.0
H3761 H 0.42941 0.22032 0.83162 0.0
C3762 C 0.45291 0.1957 0.80958 0.0
C3763 C 0.43843 0.20186 0.83874 0.0
C3764 C 0.43243 0.19979 0.86152 0.0
C3765 C 0.45018 0.20702 0.79621 0.0
C3766 C 0.44186 0.21621 0.8044 0.0
C3767 C 0.43581 0.21327 0.82542 0.0
C3768 C 0.43968 0.2293 0.79164 0.0
C3769 C 0.45608 0.20891 0.77341 0.0
C3770 C 0.45461 0.24443 0.78345 0.0
C3771 C 0.45255 0.25701 0.77191 0.0
C3772 C 0.43556 0.25473 0.76859 0.0
C3773 C 0.42066 0.23971 0.77701 0.0
C3774 C 0.4227 0.22709 0.78847 0.0
H3775 H 0.45721 0.19731 0.76813 0.0
H3776 H 0.44669 0.21032 0.76275 0.0
H3777 H 0.46937 0.22098 0.77177 0.0
H3778 H 0.46787 0.2466 0.78614 0.0
H3779 H 0.46423 0.26844 0.76545 0.0
H3780 H 0.80519 0.28011 0.91075 0.0
H3781 H 0.78588 0.2554 0.88738 0.0
H3782 H 0.8243 0.27895 0.83699 0.0
H3783 H 0.84369 0.30369 0.86037 0.0
H3784 H 0.77102 0.25701 0.84944 0.0
H3785 H 0.81462 0.22784 0.83808 0.0
H3786 H 0.81841 0.24376 0.8587 0.0
H3787 H 0.82496 0.2511 0.83189 0.0
C3788 C 0.80957 0.27989 0.89474 0.0
C3789 C 0.82609 0.29351 0.88748 0.0
C3790 C 0.79855 0.26581 0.88143 0.0
C3791 C 0.80382 0.26519 0.86061 0.0
C3792 C 0.82022 0.27893 0.8532 0.0
H3793 H 0.75304 0.19307 0.75562 0.0
H3794 H 0.7725 0.21818 0.77846 0.0
C3795 C 0.8313 0.293 0.86656 0.0
C3796 C 0.7918 0.25046 0.84646 0.0
H3797 H 0.78861 0.21609 0.8169 0.0
C3798 C 0.77482 0.24801 0.84238 0.0
C3799 C 0.79684 0.23879 0.83729 0.0
C3800 C 0.81464 0.24035 0.84182 0.0
C3801 C 0.7628 0.23429 0.82912 0.0
C3802 C 0.76785 0.22263 0.81997 0.0
C3803 C 0.78483 0.22511 0.82397 0.0
C3804 C 0.75571 0.20774 0.80614 0.0
C3805 C 0.74492 0.23256 0.82469 0.0
C3806 C 0.73986 0.1936 0.81422 0.0
C3807 C 0.7288 0.17922 0.80124 0.0
C3808 C 0.73352 0.17879 0.78008 0.0
C3809 C 0.74927 0.19304 0.77198 0.0
C3810 C 0.76033 0.20737 0.78495 0.0
H3811 H 0.7447 0.24488 0.82886 0.0
H3812 H 0.7413 0.22947 0.80773 0.0
H3813 H 0.73462 0.22148 0.83429 0.0
H3814 H 0.73624 0.19354 0.83064 0.0
H3815 H 0.71678 0.16828 0.80782 0.0
H3816 H 0.44657 0.16933 0.30693 0.0
H3817 H 0.45104 0.194 0.33006 0.0
H3818 H 0.44486 0.22111 0.27628 0.0
H3819 H 0.44016 0.1964 0.25328 0.0
H3820 H 0.4761 0.22993 0.32883 0.0
H3821 H 0.40806 0.21935 0.31762 0.0
H3822 H 0.41415 0.20317 0.30957 0.0
H3823 H 0.42 0.22235 0.29334 0.0
C3824 C 0.44627 0.18063 0.30014 0.0
C3825 C 0.44283 0.18099 0.2785 0.0
C3826 C 0.44878 0.19465 0.3133 0.0
C3827 C 0.44789 0.20918 0.30493 0.0
C3828 C 0.44512 0.20981 0.28313 0.0
H3829 H 0.46077 0.3066 0.36055 0.0
H3830 H 0.45719 0.28316 0.33616 0.0
C3831 C 0.44252 0.19577 0.27003 0.0
C3832 C 0.44985 0.22367 0.319 0.0
H3833 H 0.42851 0.24536 0.3363 0.0
C3834 C 0.46568 0.23328 0.33052 0.0
C3835 C 0.43621 0.22799 0.32114 0.0
C3836 C 0.41858 0.21758 0.30992 0.0
C3837 C 0.46832 0.24723 0.344 0.0
C3838 C 0.4547 0.25153 0.34611 0.0
C3839 C 0.43893 0.24203 0.33451 0.0
C3840 C 0.45638 0.26549 0.36083 0.0
C3841 C 0.48572 0.25742 0.35574 0.0
C3842 C 0.45681 0.26312 0.38272 0.0
C3843 C 0.45852 0.27633 0.3967 0.0
C3844 C 0.45972 0.2921 0.38904 0.0
C3845 C 0.45923 0.2944 0.36706 0.0
C3846 C 0.45743 0.28112 0.35306 0.0
H3847 H 0.49619 0.25511 0.3489 0.0
H3848 H 0.49049 0.27191 0.35548 0.0
H3849 H 0.48372 0.25304 0.37252 0.0
H3850 H 0.4558 0.25103 0.38899 0.0
H3851 H 0.45888 0.27416 0.41355 0.0
H3852 H 0.83243 0.23674 0.27902 0.0
H3853 H 0.80651 0.21428 0.29867 0.0
H3854 H 0.77895 0.24309 0.28585 0.0
H3855 H 0.80451 0.26508 0.26549 0.0
H3856 H 0.79164 0.21901 0.33393 0.0
H3857 H 0.74186 0.19305 0.26935 0.0
H3858 H 0.76541 0.20666 0.26439 0.0
H3859 H 0.75245 0.21677 0.2718 0.0
C3860 C 0.82072 0.23809 0.28022 0.0
C3861 C 0.82039 0.25257 0.27081 0.0
C3862 C 0.80598 0.22533 0.29145 0.0
C3863 C 0.7907 0.22685 0.29337 0.0
C3864 C 0.79043 0.24142 0.28411 0.0
H3865 H 0.69838 0.18523 0.37072 0.0
H3866 H 0.72257 0.20078 0.34519 0.0
C3867 C 0.80512 0.25411 0.27278 0.0
C3868 C 0.7754 0.21382 0.30611 0.0
H3869 H 0.73036 0.18639 0.30488 0.0
C3870 C 0.77829 0.21166 0.32751 0.0
C3871 C 0.75801 0.20421 0.29764 0.0
C3872 C 0.75425 0.20513 0.27448 0.0
C3873 C 0.7641 0.20073 0.34091 0.0
C3874 C 0.74667 0.1917 0.33261 0.0
C3875 C 0.7438 0.19343 0.31111 0.0
C3876 C 0.73117 0.18133 0.34644 0.0
C3877 C 0.76772 0.19942 0.36403 0.0
C3878 C 0.72791 0.16514 0.3552 0.0
C3879 C 0.71408 0.15621 0.36972 0.0
C3880 C 0.70334 0.16338 0.37559 0.0
C3881 C 0.70644 0.17941 0.3664 0.0
C3882 C 0.72017 0.18825 0.3518 0.0
H3883 H 0.7817 0.20901 0.36847 0.0
H3884 H 0.75871 0.2019 0.37411 0.0
H3885 H 0.76508 0.18578 0.3675 0.0
H3886 H 0.73633 0.15966 0.35121 0.0
H3887 H 0.71231 0.14414 0.37696 0.0
H3888 H 0.84767 0.56332 0.38497 0.0
H3889 H 0.82989 0.57042 0.36097 0.0
H3890 H 0.79439 0.5145 0.35001 0.0
H3891 H 0.81218 0.50728 0.37383 0.0
H3892 H 0.80926 0.54135 0.31171 0.0
H3893 H 0.7758 0.55645 0.37725 0.0
H3894 H 0.7995 0.56533 0.37865 0.0
H3895 H 0.78478 0.54182 0.38091 0.0
C3896 C 0.83632 0.55257 0.37708 0.0
C3897 C 0.83145 0.53476 0.38094 0.0
C3898 C 0.82611 0.55663 0.36357 0.0
C3899 C 0.81091 0.54295 0.35383 0.0
C3900 C 0.80614 0.52519 0.35742 0.0
H3901 H 0.72975 0.53259 0.26702 0.0
H3902 H 0.75062 0.52847 0.28916 0.0
C3903 C 0.81626 0.52111 0.37102 0.0
C3904 C 0.79963 0.54709 0.34032 0.0
H3905 H 0.76771 0.55897 0.34241 0.0
C3906 C 0.8002 0.54527 0.31833 0.0
C3907 C 0.78796 0.55224 0.34917 0.0
C3908 C 0.7868 0.55405 0.3728 0.0
C3909 C 0.78928 0.54847 0.30484 0.0
C3910 C 0.77726 0.5532 0.31371 0.0
C3911 C 0.77692 0.5553 0.33571 0.0
C3912 C 0.76463 0.55565 0.30047 0.0
C3913 C 0.79081 0.54694 0.28122 0.0
C3914 C 0.76533 0.57214 0.30002 0.0
C3915 C 0.75332 0.57444 0.28759 0.0
C3916 C 0.7404 0.56023 0.2756 0.0
C3917 C 0.73956 0.54368 0.27628 0.0
C3918 C 0.75156 0.54139 0.28869 0.0
H3919 H 0.80368 0.54798 0.27682 0.0
H3920 H 0.77997 0.5338 0.27579 0.0
H3921 H 0.78953 0.55742 0.27267 0.0
H3922 H 0.77524 0.58325 0.30915 0.0
H3923 H 0.7541 0.58728 0.28735 0.0
H3924 H 0.6395 0.1269 0.8074 0.0
H3925 H 0.61629 0.12038 0.83367 0.0
H3926 H 0.57919 0.11199 0.78348 0.0
H3927 H 0.60213 0.11797 0.75717 0.0
H3928 H 0.59779 0.13906 0.8386 0.0
H3929 H 0.55151 0.06789 0.82104 0.0
H3930 H 0.5744 0.07938 0.81238 0.0
H3931 H 0.55789 0.08185 0.79798 0.0
C3932 C 0.62628 0.12315 0.80195 0.0
C3933 C 0.6225 0.12252 0.78022 0.0
C3934 C 0.61309 0.11962 0.81698 0.0
C3935 C 0.59596 0.11536 0.81047 0.0
C3936 C 0.59221 0.11483 0.7888 0.0
H3937 H 0.49864 0.10134 0.86188 0.0
H3938 H 0.52354 0.10462 0.84013 0.0
C3939 C 0.60536 0.11839 0.77381 0.0
C3940 C 0.5822 0.11251 0.82621 0.0
H3941 H 0.53976 0.0829 0.8414 0.0
C3942 C 0.58519 0.12671 0.83947 0.0
C3943 C 0.56581 0.09639 0.82722 0.0
C3944 C 0.56223 0.08044 0.81404 0.0
C3945 C 0.57187 0.12546 0.85312 0.0
C3946 C 0.55528 0.10951 0.85365 0.0
C3947 C 0.55248 0.09515 0.84082 0.0
C3948 C 0.54043 0.10765 0.86688 0.0
C3949 C 0.57537 0.14142 0.86623 0.0
C3950 C 0.54173 0.10817 0.88905 0.0
C3951 C 0.52759 0.10638 0.9014 0.0
C3952 C 0.51198 0.10396 0.89173 0.0
C3953 C 0.51065 0.10334 0.86958 0.0
C3954 C 0.52478 0.10512 0.85723 0.0
H3955 H 0.58736 0.15374 0.86075 0.0
H3956 H 0.56379 0.14356 0.86571 0.0
H3957 H 0.57751 0.13908 0.88297 0.0
H3958 H 0.55361 0.10985 0.89676 0.0
H3959 H 0.52883 0.10691 0.9185 0.0
H3960 H 0.84339 0.47832 0.78424 0.0
H3961 H 0.84923 0.46025 0.80909 0.0
H3962 H 0.90559 0.49696 0.80405 0.0
H3963 H 0.8998 0.51518 0.77932 0.0
H3964 H 0.86804 0.44356 0.80152 0.0
H3965 H 0.8988 0.4915 0.86779 0.0
H3966 H 0.88686 0.49488 0.84658 0.0
H3967 H 0.90936 0.49974 0.84262 0.0
C3968 C 0.85702 0.48263 0.78862 0.0
C3969 C 0.87112 0.49833 0.78019 0.0
C3970 C 0.86033 0.47231 0.80281 0.0
C3971 C 0.87782 0.47742 0.8087 0.0
C3972 C 0.89197 0.49305 0.8002 0.0
H3973 H 0.92024 0.4221 0.88232 0.0
H3974 H 0.91676 0.44276 0.85894 0.0
C3975 C 0.88864 0.50347 0.78611 0.0
C3976 C 0.88117 0.46581 0.82285 0.0
H3977 H 0.89944 0.46453 0.87027 0.0
C3978 C 0.87486 0.44814 0.81658 0.0
C3979 C 0.89013 0.47186 0.84244 0.0
C3980 C 0.89655 0.49048 0.8504 0.0
C3981 C 0.87727 0.43633 0.82938 0.0
C3982 C 0.88613 0.44234 0.84897 0.0
C3983 C 0.89267 0.46005 0.85517 0.0
C3984 C 0.88832 0.43024 0.86345 0.0
C3985 C 0.87044 0.41751 0.82186 0.0
C3986 C 0.87349 0.41659 0.87383 0.0
C3987 C 0.87547 0.40494 0.88728 0.0
C3988 C 0.8923 0.40675 0.89047 0.0
C3989 C 0.90715 0.42053 0.8802 0.0
C3990 C 0.90519 0.43227 0.86685 0.0
H3991 H 0.86697 0.41594 0.80475 0.0
H3992 H 0.8805 0.4134 0.82465 0.0
H3993 H 0.85832 0.40838 0.83095 0.0
H3994 H 0.8604 0.41499 0.87154 0.0
H3995 H 0.86387 0.3946 0.89531 0.0
H3996 H 0.51989 0.38283 0.75786 0.0
H3997 H 0.53916 0.4076 0.7812 0.0
H3998 H 0.50046 0.38445 0.83134 0.0
H3999 H 0.48119 0.35946 0.80809 0.0
H4000 H 0.52986 0.43164 0.80385 0.0
H4001 H 0.54879 0.39226 0.85639 0.0
H4002 H 0.53968 0.38482 0.83021 0.0
H4003 H 0.52541 0.38336 0.85161 0.0
C4004 C 0.51548 0.38309 0.77384 0.0
C4005 C 0.49898 0.36945 0.78112 0.0
C4006 C 0.52645 0.39722 0.7871 0.0
C4007 C 0.52121 0.39775 0.80794 0.0
C4008 C 0.50471 0.38418 0.81529 0.0
H4009 H 0.57539 0.47033 0.91173 0.0
H4010 H 0.55458 0.44558 0.88932 0.0
C4011 C 0.49366 0.37006 0.80196 0.0
C4012 C 0.53318 0.41251 0.82197 0.0
H4013 H 0.56015 0.42244 0.86514 0.0
C4014 C 0.53649 0.42968 0.81727 0.0
C4015 C 0.54172 0.40979 0.83943 0.0
C4016 C 0.53888 0.3916 0.84474 0.0
C4017 C 0.54808 0.44429 0.82975 0.0
C4018 C 0.55687 0.44164 0.84703 0.0
C4019 C 0.55343 0.42441 0.85182 0.0
C4020 C 0.56961 0.45654 0.86046 0.0
C4021 C 0.55055 0.46236 0.82457 0.0
C4022 C 0.58508 0.47071 0.8517 0.0
C4023 C 0.59687 0.48491 0.86444 0.0
C4024 C 0.59341 0.48501 0.88612 0.0
C4025 C 0.57818 0.47061 0.89497 0.0
C4026 C 0.56637 0.45648 0.88223 0.0
H4027 H 0.53943 0.46131 0.81477 0.0
H4028 H 0.55153 0.46987 0.83922 0.0
H4029 H 0.56304 0.47009 0.81544 0.0
H4030 H 0.58801 0.47081 0.83501 0.0
H4031 H 0.60855 0.49591 0.85732 0.0
H4032 H 0.55858 0.80262 0.74583 0.0
H4033 H 0.5537 0.77747 0.72347 0.0
H4034 H 0.54787 0.80395 0.6688 0.0
H4035 H 0.55283 0.82918 0.69117 0.0
H4036 H 0.52106 0.76741 0.67342 0.0
H4037 H 0.58938 0.77754 0.68002 0.0
H4038 H 0.57859 0.77643 0.70473 0.0
H4039 H 0.58416 0.7946 0.68691 0.0
C4040 C 0.55638 0.80307 0.72901 0.0
C4041 C 0.5562 0.81779 0.72009 0.0
C4042 C 0.55364 0.78877 0.71628 0.0
C4043 C 0.5507 0.78902 0.69447 0.0
C4044 C 0.5502 0.80359 0.68561 0.0
H4045 H 0.53061 0.71972 0.58765 0.0
H4046 H 0.53509 0.74346 0.61207 0.0
C4047 C 0.55299 0.81792 0.69834 0.0
C4048 C 0.54784 0.77394 0.68092 0.0
H4049 H 0.5681 0.75171 0.66197 0.0
C4050 C 0.53134 0.76397 0.67087 0.0
C4051 C 0.56126 0.76949 0.6778 0.0
C4052 C 0.57941 0.78013 0.68777 0.0
C4053 C 0.52784 0.74953 0.65778 0.0
C4054 C 0.54135 0.74524 0.65438 0.0
C4055 C 0.55779 0.75507 0.66465 0.0
C4056 C 0.53886 0.73093 0.63967 0.0
C4057 C 0.50964 0.73887 0.64794 0.0
C4058 C 0.53994 0.71624 0.64703 0.0
C4059 C 0.53748 0.7027 0.63307 0.0
C4060 C 0.53411 0.70376 0.61151 0.0
C4061 C 0.53315 0.71854 0.60421 0.0
C4062 C 0.53564 0.73207 0.61813 0.0
H4063 H 0.49952 0.74065 0.65665 0.0
H4064 H 0.5101 0.74342 0.6314 0.0
H4065 H 0.50531 0.72449 0.64757 0.0
H4066 H 0.54239 0.71514 0.66364 0.0
H4067 H 0.53777 0.69124 0.6393 0.0
H4068 H 0.30167 0.81157 0.61868 0.0
H4069 H 0.27743 0.79463 0.64376 0.0
H4070 H 0.2593 0.83234 0.63606 0.0
H4071 H 0.28334 0.84921 0.61075 0.0
H4072 H 0.26841 0.8082 0.68323 0.0
H4073 H 0.21606 0.78139 0.62076 0.0
H4074 H 0.2393 0.79006 0.61476 0.0
H4075 H 0.23131 0.805 0.62096 0.0
C4076 C 0.29258 0.8163 0.62247 0.0
C4077 C 0.29452 0.83182 0.61304 0.0
C4078 C 0.27881 0.80667 0.6368 0.0
C4079 C 0.26663 0.81227 0.64164 0.0
C4080 C 0.26862 0.82786 0.63245 0.0
H4081 H 0.16743 0.75706 0.71269 0.0
H4082 H 0.1925 0.77866 0.69116 0.0
C4083 C 0.28246 0.83757 0.61821 0.0
C4084 C 0.25153 0.8014 0.65581 0.0
H4085 H 0.20679 0.77261 0.65587 0.0
C4086 C 0.25491 0.80046 0.67734 0.0
C4087 C 0.23399 0.79145 0.64797 0.0
C4088 C 0.22982 0.79185 0.62483 0.0
C4089 C 0.24112 0.78971 0.69133 0.0
C4090 C 0.22363 0.77932 0.68337 0.0
C4091 C 0.22023 0.78056 0.66189 0.0
C4092 C 0.20875 0.76663 0.69688 0.0
C4093 C 0.2454 0.78971 0.7145 0.0
C4094 C 0.20953 0.75263 0.70698 0.0
C4095 C 0.19533 0.74044 0.71937 0.0
C4096 C 0.18005 0.74192 0.72161 0.0
C4097 C 0.17917 0.75578 0.71131 0.0
C4098 C 0.19342 0.76804 0.699 0.0
H4099 H 0.25779 0.80208 0.71898 0.0
H4100 H 0.23438 0.78839 0.72468 0.0
H4101 H 0.24744 0.77831 0.71776 0.0
H4102 H 0.22106 0.75106 0.70514 0.0
H4103 H 0.19634 0.72992 0.7273 0.0
H4104 H 0.1806 0.48782 0.62692 0.0
H4105 H 0.19926 0.48161 0.65035 0.0
H4106 H 0.16593 0.42542 0.63868 0.0
H4107 H 0.14722 0.43154 0.6151 0.0
H4108 H 0.17597 0.43464 0.68207 0.0
H4109 H 0.23375 0.46602 0.62746 0.0
H4110 H 0.22488 0.48011 0.63441 0.0
H4111 H 0.21154 0.46018 0.61937 0.0
C4112 C 0.17718 0.47413 0.62947 0.0
C4113 C 0.16236 0.46016 0.61937 0.0
C4114 C 0.18786 0.47062 0.64279 0.0
C4115 C 0.18408 0.45309 0.64597 0.0
C4116 C 0.16902 0.43904 0.63639 0.0
H4117 H 0.23929 0.40881 0.71661 0.0
H4118 H 0.21794 0.41257 0.69494 0.0
C4119 C 0.15827 0.44255 0.62309 0.0
C4120 C 0.19618 0.44954 0.65885 0.0
H4121 H 0.23908 0.45839 0.66173 0.0
C4122 C 0.18974 0.4397 0.6776 0.0
C4123 C 0.21409 0.45614 0.65285 0.0
C4124 C 0.22148 0.46606 0.63233 0.0
C4125 C 0.20095 0.43674 0.69091 0.0
C4126 C 0.21893 0.44361 0.68507 0.0
C4127 C 0.22529 0.45323 0.66617 0.0
C4128 C 0.23152 0.44119 0.69845 0.0
C4129 C 0.19363 0.42671 0.71137 0.0
C4130 C 0.24634 0.45607 0.7072 0.0
C4131 C 0.25849 0.45394 0.71952 0.0
C4132 C 0.25606 0.43692 0.72311 0.0
C4133 C 0.2413 0.42205 0.71422 0.0
C4134 C 0.22911 0.42417 0.70192 0.0
H4135 H 0.18079 0.42576 0.71574 0.0
H4136 H 0.19133 0.413 0.70957 0.0
H4137 H 0.20323 0.4332 0.72453 0.0
H4138 H 0.24842 0.46931 0.70461 0.0
H4139 H 0.26968 0.46558 0.72643 0.0
H4140 H 0.49886 0.92109 0.11742 0.0
H4141 H 0.47373 0.91648 0.13971 0.0
H4142 H 0.44553 0.86095 0.12264 0.0
H4143 H 0.47043 0.86558 0.09997 0.0
H4144 H 0.43539 0.90017 0.12551 0.0
H4145 H 0.4475 0.86371 0.18992 0.0
H4146 H 0.46469 0.87822 0.17166 0.0
H4147 H 0.44773 0.85657 0.16321 0.0
C4148 C 0.48724 0.90794 0.11839 0.0
C4149 C 0.48656 0.89365 0.10716 0.0
C4150 C 0.47297 0.90533 0.1311 0.0
C4151 C 0.45792 0.88836 0.1329 0.0
C4152 C 0.45716 0.87409 0.12161 0.0
H4153 H 0.36162 0.84204 0.2071 0.0
H4154 H 0.38614 0.84795 0.18319 0.0
C4155 C 0.47137 0.87673 0.10878 0.0
C4156 C 0.44293 0.88555 0.14652 0.0
H4157 H 0.42132 0.8655 0.19224 0.0
C4158 C 0.43229 0.89266 0.14016 0.0
C4159 C 0.43901 0.8757 0.1655 0.0
C4160 C 0.45036 0.86817 0.17316 0.0
C4161 C 0.41749 0.88983 0.15215 0.0
C4162 C 0.41356 0.87999 0.17122 0.0
C4163 C 0.42434 0.87301 0.1776 0.0
C4164 C 0.39827 0.8766 0.18477 0.0
C4165 C 0.40593 0.89695 0.14399 0.0
C4166 C 0.39699 0.89074 0.19364 0.0
C4167 C 0.38291 0.88738 0.20718 0.0
C4168 C 0.36997 0.86982 0.21217 0.0
C4169 C 0.37136 0.8557 0.2034 0.0
C4170 C 0.38534 0.85906 0.18976 0.0
H4171 H 0.40779 0.89972 0.12671 0.0
H4172 H 0.39165 0.88744 0.14706 0.0
H4173 H 0.40956 0.90961 0.15222 0.0
H4174 H 0.40711 0.90438 0.19052 0.0
H4175 H 0.38251 0.89852 0.21427 0.0
H4176 H 0.07363 0.57332 0.11075 0.0
H4177 H 0.07791 0.55241 0.13275 0.0
H4178 H 0.13394 0.5809 0.11824 0.0
H4179 H 0.12967 0.60156 0.09589 0.0
H4180 H 0.09663 0.53131 0.11992 0.0
H4181 H 0.12752 0.58003 0.18573 0.0
H4182 H 0.11315 0.58167 0.16626 0.0
H4183 H 0.13557 0.58789 0.1594 0.0
C4184 C 0.0868 0.57497 0.11213 0.0
C4185 C 0.10137 0.5891 0.10187 0.0
C4186 C 0.08922 0.56307 0.12465 0.0
C4187 C 0.10624 0.56526 0.12715 0.0
C4188 C 0.12073 0.57915 0.11658 0.0
H4189 H 0.15442 0.52148 0.2077 0.0
H4190 H 0.14771 0.53792 0.18136 0.0
C4191 C 0.11831 0.59096 0.10398 0.0
C4192 C 0.10906 0.55346 0.14142 0.0
H4193 H 0.12752 0.55298 0.18885 0.0
C4194 C 0.10331 0.53594 0.13505 0.0
C4195 C 0.11777 0.55967 0.16105 0.0
C4196 C 0.12379 0.5783 0.1687 0.0
C4197 C 0.10651 0.52451 0.1477 0.0
C4198 C 0.11534 0.53077 0.16733 0.0
C4199 C 0.12083 0.54825 0.17374 0.0
C4200 C 0.11932 0.51963 0.1815 0.0
C4201 C 0.1009 0.50608 0.13966 0.0
C4202 C 0.10559 0.50378 0.19016 0.0
C4203 C 0.10943 0.49428 0.20509 0.0
C4204 C 0.12703 0.5006 0.21171 0.0
C4205 C 0.14074 0.51631 0.20281 0.0
C4206 C 0.13693 0.52569 0.18778 0.0
H4207 H 0.09871 0.50505 0.12225 0.0
H4208 H 0.11102 0.50226 0.14351 0.0
H4209 H 0.08821 0.49639 0.14737 0.0
H4210 H 0.09186 0.49913 0.18597 0.0
H4211 H 0.09855 0.48249 0.21215 0.0
H4212 H 0.40717 0.49717 0.132 0.0
H4213 H 0.42691 0.52198 0.15521 0.0
H4214 H 0.41255 0.55637 0.12192 0.0
H4215 H 0.39281 0.53154 0.09866 0.0
H4216 H 0.451 0.56927 0.12733 0.0
H4217 H 0.41198 0.54654 0.20208 0.0
H4218 H 0.41529 0.53032 0.18822 0.0
H4219 H 0.40207 0.53859 0.17633 0.0
C4220 C 0.40813 0.51 0.12987 0.0
C4221 C 0.3985 0.51256 0.11377 0.0
C4222 C 0.41933 0.5241 0.14309 0.0
C4223 C 0.42104 0.54091 0.14031 0.0
C4224 C 0.4113 0.54344 0.12431 0.0
H4225 H 0.47303 0.63322 0.2214 0.0
H4226 H 0.45279 0.60925 0.19785 0.0
C4227 C 0.40001 0.5293 0.11117 0.0
C4228 C 0.43353 0.55602 0.15362 0.0
H4229 H 0.44088 0.57171 0.20431 0.0
C4230 C 0.4488 0.56987 0.14415 0.0
C4231 C 0.4305 0.5567 0.17549 0.0
C4232 C 0.41402 0.54234 0.1862 0.0
C4233 C 0.46133 0.58436 0.15612 0.0
C4234 C 0.45845 0.58489 0.17807 0.0
C4235 C 0.44305 0.57115 0.18747 0.0
C4236 C 0.47111 0.59978 0.19154 0.0
C4237 C 0.47743 0.5991 0.14525 0.0
C4238 C 0.48806 0.60229 0.19581 0.0
C4239 C 0.49965 0.61592 0.20938 0.0
C4240 C 0.49447 0.62732 0.21874 0.0
C4241 C 0.47745 0.62472 0.21435 0.0
C4242 C 0.46588 0.61107 0.2009 0.0
H4243 H 0.47603 0.59833 0.12773 0.0
H4244 H 0.47979 0.61229 0.15059 0.0
H4245 H 0.48933 0.59814 0.14949 0.0
H4246 H 0.49216 0.59343 0.18905 0.0
H4247 H 0.51234 0.61707 0.21303 0.0
H4248 H 0.1559 0.6374 0.70166 0.0
H4249 H 0.14805 0.61215 0.67813 0.0
H4250 H 0.09252 0.59135 0.69232 0.0
H4251 H 0.1003 0.61657 0.71586 0.0
H4252 H 0.13079 0.57708 0.69078 0.0
H4253 H 0.0924 0.58768 0.62769 0.0
H4254 H 0.10659 0.60497 0.64602 0.0
H4255 H 0.08493 0.58773 0.65421 0.0
C4256 C 0.142 0.62757 0.6995 0.0
C4257 C 0.12869 0.62912 0.71025 0.0
C4258 C 0.13754 0.61319 0.68607 0.0
C4259 C 0.11969 0.60004 0.68323 0.0
C4260 C 0.10633 0.60161 0.69383 0.0
H4261 H 0.07197 0.49748 0.6187 0.0
H4262 H 0.07691 0.52326 0.64001 0.0
C4263 C 0.11079 0.61606 0.70722 0.0
C4264 C 0.11528 0.58407 0.67048 0.0
H4265 H 0.09262 0.56046 0.62676 0.0
C4266 C 0.12248 0.57347 0.67675 0.0
C4267 C 0.10433 0.57936 0.65229 0.0
C4268 C 0.09672 0.59059 0.6445 0.0
C4269 C 0.11905 0.55827 0.6653 0.0
C4270 C 0.10831 0.55369 0.64697 0.0
C4271 C 0.10086 0.56408 0.64084 0.0
C4272 C 0.10516 0.5384 0.63365 0.0
C4273 C 0.12682 0.54713 0.67298 0.0
C4274 C 0.11936 0.53861 0.62283 0.0
C4275 C 0.11656 0.52402 0.61067 0.0
C4276 C 0.09951 0.50901 0.60916 0.0
C4277 C 0.08523 0.50894 0.61968 0.0
C4278 C 0.08803 0.52358 0.63181 0.0
H4279 H 0.1311 0.54996 0.6898 0.0
H4280 H 0.11704 0.53273 0.67133 0.0
H4281 H 0.13864 0.55013 0.66325 0.0
H4282 H 0.13261 0.55008 0.62379 0.0
H4283 H 0.12769 0.52452 0.60233 0.0
H4284 H 0.38239 0.48228 0.71549 0.0
H4285 H 0.40745 0.50015 0.69177 0.0
H4286 H 0.38433 0.53247 0.67558 0.0
H4287 H 0.35913 0.51453 0.69901 0.0
H4288 H 0.39855 0.52076 0.64003 0.0
H4289 H 0.44563 0.55303 0.70708 0.0
H4290 H 0.43272 0.52913 0.70716 0.0
H4291 H 0.42181 0.54188 0.71049 0.0
C4292 C 0.38242 0.49289 0.70647 0.0
C4293 C 0.3687 0.49688 0.70885 0.0
C4294 C 0.39684 0.50321 0.69314 0.0
C4295 C 0.39773 0.51766 0.68209 0.0
C4296 C 0.38384 0.52136 0.68401 0.0
H4297 H 0.46948 0.60096 0.59731 0.0
H4298 H 0.44419 0.57956 0.61866 0.0
C4299 C 0.3695 0.51115 0.6974 0.0
C4300 C 0.41343 0.5294 0.66909 0.0
H4301 H 0.45712 0.56153 0.67262 0.0
C4302 C 0.4114 0.52964 0.64708 0.0
C4303 C 0.43011 0.5409 0.67844 0.0
C4304 C 0.4328 0.54141 0.7021 0.0
C4305 C 0.42569 0.54111 0.63409 0.0
C4306 C 0.4423 0.55293 0.64348 0.0
C4307 C 0.44437 0.55248 0.66548 0.0
C4308 C 0.45763 0.56607 0.63083 0.0
C4309 C 0.42294 0.54027 0.61043 0.0
C4310 C 0.47376 0.56601 0.63123 0.0
C4311 C 0.48827 0.57841 0.61937 0.0
C4312 C 0.48687 0.59106 0.60695 0.0
C4313 C 0.47086 0.59134 0.60683 0.0
C4314 C 0.45637 0.579 0.61879 0.0
H4315 H 0.41149 0.5273 0.60547 0.0
H4316 H 0.42009 0.55088 0.60558 0.0
H4317 H 0.43499 0.54235 0.60184 0.0
H4318 H 0.47506 0.55626 0.64058 0.0
H4319 H 0.50058 0.57809 0.61984 0.0
H4320 H 0.4189 0.91811 0.61536 0.0
H4321 H 0.44009 0.91446 0.63752 0.0
H4322 H 0.4185 0.86075 0.61464 0.0
H4323 H 0.39738 0.86444 0.59232 0.0
H4324 H 0.431 0.88751 0.66959 0.0
H4325 H 0.47347 0.88457 0.60564 0.0
H4326 H 0.45901 0.8937 0.60159 0.0
H4327 H 0.44992 0.87004 0.60238 0.0
C4328 C 0.41879 0.90558 0.61503 0.0
C4329 C 0.40661 0.89154 0.60222 0.0
C4330 C 0.43084 0.90351 0.62765 0.0
C4331 C 0.43097 0.88743 0.62747 0.0
C4332 C 0.41875 0.87335 0.61473 0.0
H4333 H 0.47413 0.84341 0.71514 0.0
H4334 H 0.45641 0.84921 0.68971 0.0
C4335 C 0.40663 0.8754 0.60218 0.0
C4336 C 0.44345 0.88515 0.64125 0.0
H4337 H 0.47853 0.87771 0.64051 0.0
C4338 C 0.44145 0.88546 0.66326 0.0
C4339 C 0.45713 0.88263 0.63287 0.0
C4340 C 0.46019 0.88284 0.60932 0.0
C4341 C 0.45253 0.88284 0.67715 0.0
C4342 C 0.46588 0.87983 0.66877 0.0
C4343 C 0.46819 0.87994 0.64679 0.0
C4344 C 0.47718 0.87605 0.68279 0.0
C4345 C 0.44989 0.88321 0.70073 0.0
C4346 C 0.49479 0.88917 0.68697 0.0
C4347 C 0.50496 0.88595 0.70162 0.0
C4348 C 0.49768 0.86947 0.71206 0.0
C4349 C 0.48013 0.85624 0.70735 0.0
C4350 C 0.46999 0.85949 0.69283 0.0
H4351 H 0.44088 0.88843 0.70468 0.0
H4352 H 0.44401 0.86951 0.70714 0.0
H4353 H 0.46286 0.89153 0.70876 0.0
H4354 H 0.50046 0.90209 0.67944 0.0
H4355 H 0.51818 0.89664 0.70534 0.0
H4356 H 0.16477 0.44321 0.19246 0.0
H4357 H 0.18839 0.44643 0.16832 0.0
H4358 H 0.21877 0.44507 0.22164 0.0
H4359 H 0.19522 0.44189 0.24575 0.0
H4360 H 0.2246 0.47355 0.16843 0.0
H4361 H 0.21684 0.40673 0.18146 0.0
H4362 H 0.20002 0.41209 0.18906 0.0
H4363 H 0.21951 0.41929 0.20515 0.0
C4364 C 0.17654 0.44366 0.19893 0.0
C4365 C 0.17826 0.44225 0.22084 0.0
C4366 C 0.18994 0.44542 0.1852 0.0
C4367 C 0.20515 0.44569 0.19322 0.0
C4368 C 0.20696 0.4445 0.21514 0.0
H4369 H 0.30189 0.45948 0.13511 0.0
H4370 H 0.27816 0.45459 0.15982 0.0
C4371 C 0.19357 0.44275 0.22886 0.0
C4372 C 0.21936 0.44772 0.17866 0.0
H4373 H 0.24159 0.42708 0.16092 0.0
C4374 C 0.22829 0.46338 0.1667 0.0
C4375 C 0.22414 0.43443 0.1766 0.0
C4376 C 0.21455 0.41711 0.1886 0.0
C4377 C 0.24206 0.46622 0.15282 0.0
C4378 C 0.24675 0.45287 0.15062 0.0
C4379 C 0.23791 0.43726 0.16268 0.0
C4380 C 0.26065 0.45483 0.1356 0.0
C4381 C 0.25167 0.48359 0.14091 0.0
C4382 C 0.25844 0.45617 0.11382 0.0
C4383 C 0.27187 0.45879 0.09968 0.0
C4384 C 0.28765 0.45987 0.10705 0.0
C4385 C 0.28969 0.45816 0.12886 0.0
C4386 C 0.27623 0.45556 0.14302 0.0
H4387 H 0.24964 0.49404 0.14835 0.0
H4388 H 0.26617 0.48846 0.14012 0.0
H4389 H 0.24648 0.48155 0.12448 0.0
H4390 H 0.24637 0.45534 0.10777 0.0
H4391 H 0.26994 0.46004 0.08295 0.0
H4392 H 0.53384 0.7315 0.23211 0.0
H4393 H 0.52895 0.75195 0.20992 0.0
H4394 H 0.57784 0.76717 0.17655 0.0
H4395 H 0.58278 0.74677 0.19875 0.0
H4396 H 0.55678 0.79204 0.20386 0.0
H4397 H 0.53503 0.74997 0.13119 0.0
H4398 H 0.53293 0.74066 0.15735 0.0
H4399 H 0.55434 0.75253 0.14498 0.0
C4400 C 0.54343 0.73915 0.21992 0.0
C4401 C 0.55862 0.73762 0.21694 0.0
C4402 C 0.54069 0.75083 0.20739 0.0
C4403 C 0.55302 0.76095 0.19165 0.0
C4404 C 0.56817 0.75937 0.1886 0.0
H4405 H 0.56399 0.84871 0.1145 0.0
H4406 H 0.56924 0.82991 0.13886 0.0
C4407 C 0.57097 0.74779 0.20122 0.0
C4408 C 0.5501 0.77325 0.17842 0.0
H4409 H 0.53796 0.77843 0.12873 0.0
C4410 C 0.55268 0.78913 0.18743 0.0
C4411 C 0.54468 0.76925 0.15708 0.0
C4412 C 0.54146 0.75215 0.14697 0.0
C4413 C 0.55008 0.80127 0.17547 0.0
C4414 C 0.5448 0.79734 0.15408 0.0
C4415 C 0.54209 0.78138 0.14514 0.0
C4416 C 0.54158 0.80941 0.14074 0.0
C4417 C 0.5527 0.81808 0.18581 0.0
C4418 C 0.5243 0.80405 0.13381 0.0
C4419 C 0.52122 0.81486 0.12016 0.0
C4420 C 0.53538 0.83121 0.11314 0.0
C4421 C 0.5527 0.83657 0.12019 0.0
C4422 C 0.55576 0.82576 0.13397 0.0
H4423 H 0.55401 0.81779 0.20329 0.0
H4424 H 0.56498 0.82962 0.17948 0.0
H4425 H 0.54139 0.82018 0.18206 0.0
H4426 H 0.51321 0.79141 0.1388 0.0
H4427 H 0.50774 0.81032 0.11494 0.0
H4428 H 0.26715 0.80353 0.22636 0.0
H4429 H 0.24658 0.77759 0.20509 0.0
H4430 H 0.22629 0.8086 0.17548 0.0
H4431 H 0.24698 0.83464 0.19657 0.0
H4432 H 0.20208 0.76666 0.19979 0.0
H4433 H 0.24764 0.78032 0.13121 0.0
H4434 H 0.25625 0.78567 0.15788 0.0
H4435 H 0.24763 0.79834 0.14549 0.0
C4436 C 0.25838 0.80479 0.21517 0.0
C4437 C 0.25858 0.82098 0.21296 0.0
C4438 C 0.24663 0.79002 0.20319 0.0
C4439 C 0.23499 0.7913 0.18886 0.0
C4440 C 0.2352 0.80745 0.18655 0.0
H4441 H 0.14839 0.71349 0.11142 0.0
H4442 H 0.16706 0.73814 0.13511 0.0
C4443 C 0.24695 0.82223 0.19854 0.0
C4444 C 0.22266 0.77572 0.17619 0.0
H4445 H 0.21933 0.75468 0.12942 0.0
C4446 C 0.20576 0.76399 0.18438 0.0
C4447 C 0.22768 0.77239 0.15623 0.0
C4448 C 0.24578 0.78477 0.14701 0.0
C4449 C 0.19365 0.74882 0.17302 0.0
C4450 C 0.19862 0.74553 0.15294 0.0
C4451 C 0.21559 0.75729 0.14482 0.0
C4452 C 0.18652 0.72987 0.14007 0.0
C4453 C 0.17581 0.73624 0.1827 0.0
C4454 C 0.19133 0.71713 0.13499 0.0
C4455 C 0.18061 0.70296 0.12164 0.0
C4456 C 0.16488 0.70127 0.11312 0.0
C4457 C 0.16003 0.714 0.11835 0.0
C4458 C 0.17076 0.72818 0.13176 0.0
H4459 H 0.17554 0.73859 0.19996 0.0
H4460 H 0.16544 0.7382 0.17495 0.0
H4461 H 0.17232 0.72221 0.18018 0.0
H4462 H 0.20351 0.71829 0.14116 0.0
H4463 H 0.18475 0.69341 0.11779 0.0
loop_
_geom_bond_atom_site_label_1
_geom_bond_atom_site_label_2
_geom_bond_distance
_geom_bond_site_symmetry_2
_ccdc_geom_bond_type
Co0 O3 1.970 . S
Co0 N17 1.989 . S
Co0 O25 1.967 . S
Co0 O32 1.920 . S
Co1 O4 1.966 . S
Co1 N10 2.022 . S
Co1 N18 1.993 . S
Co1 O26 1.941 . S
C2 O3 1.258 . S
C2 O4 1.263 . S
O3 Co0 1.970 . S
O3 C2 1.258 . S
O4 Co1 1.966 . S
O4 C2 1.263 . S
C5 O6 1.235 . S
C5 O32 1.289 . S
O6 C5 1.235 . S
C7 C9 1.400 . S
C7 N10 1.351 . S
C7 C12 1.501 . S
C8 C9 1.387 . S
C8 N11 1.341 . S
C9 C7 1.400 . S
C9 C8 1.387 . S
N10 Co1 2.022 . S
N10 C7 1.351 . S
N10 N11 1.365 . S
N11 C8 1.341 . S
N11 N10 1.365 . S
N11 H31 0.862 . S
C12 C7 1.501 . S
C12 H13 0.961 . S
C12 H14 0.961 . S
C12 H15 0.960 . S
H13 C12 0.961 . S
H14 C12 0.961 . S
H15 C12 0.960 . S
C16 N17 1.342 . S
C16 C20 1.401 . S
C16 C21 1.499 . S
N17 Co0 1.989 . S
N17 C16 1.342 . S
N17 N18 1.388 . S
N18 Co1 1.993 . S
N18 N17 1.388 . S
N18 C19 1.346 . S
C19 N18 1.346 . S
C19 C20 1.396 . S
C19 C29 1.510 . S
C20 C16 1.401 . S
C20 C19 1.396 . S
C21 C16 1.499 . S
C21 H22 0.959 . S
C21 H23 0.960 . S
C21 H24 0.961 . S
H22 C21 0.959 . S
H23 C21 0.960 . S
H24 C21 0.961 . S
O25 Co0 1.967 . S
O25 C33 1.258 . S
O26 Co1 1.941 . S
O26 C33 1.266 . S
H27 C29 0.959 . S
H28 C29 0.961 . S
C29 C19 1.510 . S
C29 H27 0.959 . S
C29 H28 0.961 . S
C29 H30 0.960 . S
H30 C29 0.960 . S
H31 N11 0.862 . S
O32 Co0 1.920 . S
O32 C5 1.289 . S
C33 O25 1.258 . S
C33 O26 1.266 . S
Co34 O37 1.970 . S
Co34 N51 1.989 . S
Co34 O59 1.967 . S
Co34 O66 1.920 . S
Co35 O38 1.966 . S
Co35 N44 2.022 1_545 S
Co35 N52 1.993 . S
Co35 O60 1.941 . S
C36 O37 1.258 . S
C36 O38 1.263 . S
O37 Co34 1.970 . S
O37 C36 1.258 . S
O38 Co35 1.966 . S
O38 C36 1.263 . S
C39 O40 1.235 . S
C39 O66 1.289 . S
O40 C39 1.235 . S
C41 C43 1.400 . S
C41 N44 1.351 . S
C41 C46 1.501 . S
C42 C43 1.387 . S
C42 N45 1.341 . S
C43 C41 1.400 . S
C43 C42 1.387 . S
N44 Co35 2.022 1_565 S
N44 C41 1.351 . S
N44 N45 1.365 . S
N45 C42 1.341 . S
N45 N44 1.365 . S
N45 H65 0.862 . S
C46 C41 1.501 . S
C46 H47 0.961 . S
C46 H48 0.961 . S
C46 H49 0.960 . S
H47 C46 0.961 . S
H48 C46 0.961 . S
H49 C46 0.960 . S
C50 N51 1.342 . S
C50 C54 1.401 . S
C50 C55 1.499 . S
N51 Co34 1.989 . S
N51 C50 1.342 . S
N51 N52 1.388 . S
N52 Co35 1.993 . S
N52 N51 1.388 . S
N52 C53 1.346 . S
C53 N52 1.346 . S
C53 C54 1.396 . S
C53 C63 1.510 . S
C54 C50 1.401 . S
C54 C53 1.396 . S
C55 C50 1.499 . S
C55 H56 0.959 . S
C55 H57 0.960 . S
C55 H58 0.961 . S
H56 C55 0.959 . S
H57 C55 0.960 . S
H58 C55 0.961 . S
O59 Co34 1.967 . S
O59 C67 1.258 . S
O60 Co35 1.941 . S
O60 C67 1.266 . S
H61 C63 0.959 . S
H62 C63 0.961 . S
C63 C53 1.510 . S
C63 H61 0.959 . S
C63 H62 0.961 . S
C63 H64 0.960 . S
H64 C63 0.960 . S
H65 N45 0.862 . S
O66 Co34 1.920 . S
O66 C39 1.289 . S
C67 O59 1.258 . S
C67 O60 1.266 . S
Co68 O71 1.970 . S
Co68 N85 1.989 . S
Co68 O93 1.967 . S
Co68 O100 1.920 . S
Co69 O72 1.966 . S
Co69 N78 2.022 1_655 S
Co69 N86 1.993 . S
Co69 O94 1.941 . S
C70 O71 1.258 . S
C70 O72 1.263 . S
O71 Co68 1.970 . S
O71 C70 1.258 . S
O72 Co69 1.966 . S
O72 C70 1.263 . S
C73 O74 1.235 . S
C73 O100 1.289 . S
O74 C73 1.235 . S
C75 C77 1.400 . S
C75 N78 1.351 . S
C75 C80 1.501 . S
C76 C77 1.387 . S
C76 N79 1.341 . S
C77 C75 1.400 . S
C77 C76 1.387 . S
N78 Co69 2.022 1_455 S
N78 C75 1.351 . S
N78 N79 1.365 . S
N79 C76 1.341 . S
N79 N78 1.365 . S
N79 H99 0.862 . S
C80 C75 1.501 . S
C80 H81 0.961 . S
C80 H82 0.961 . S
C80 H83 0.960 . S
H81 C80 0.961 . S
H82 C80 0.961 . S
H83 C80 0.960 . S
C84 N85 1.342 . S
C84 C88 1.401 . S
C84 C89 1.499 . S
N85 Co68 1.989 . S
N85 C84 1.342 . S
N85 N86 1.388 . S
N86 Co69 1.993 . S
N86 N85 1.388 . S
N86 C87 1.346 . S
C87 N86 1.346 . S
C87 C88 1.396 . S
C87 C97 1.510 . S
C88 C84 1.401 . S
C88 C87 1.396 . S
C89 C84 1.499 . S
C89 H90 0.959 . S
C89 H91 0.960 . S
C89 H92 0.961 . S
H90 C89 0.959 . S
H91 C89 0.960 . S
H92 C89 0.961 . S
O93 Co68 1.967 . S
O93 C101 1.258 . S
O94 Co69 1.941 . S
O94 C101 1.266 . S
H95 C97 0.959 . S
H96 C97 0.961 . S
C97 C87 1.510 . S
C97 H95 0.959 . S
C97 H96 0.961 . S
C97 H98 0.960 . S
H98 C97 0.960 . S
H99 N79 0.862 . S
O100 Co68 1.920 . S
O100 C73 1.289 . S
C101 O93 1.258 . S
C101 O94 1.266 . S
Co102 O105 1.970 . S
Co102 N119 1.989 . S
Co102 O127 1.967 . S
Co102 O134 1.920 . S
Co103 O106 1.966 . S
Co103 N112 2.022 . S
Co103 N120 1.993 . S
Co103 O128 1.941 . S
C104 O105 1.258 . S
C104 O106 1.263 . S
O105 Co102 1.970 . S
O105 C104 1.258 . S
O106 Co103 1.966 . S
O106 C104 1.263 . S
C107 O108 1.235 . S
C107 O134 1.289 . S
O108 C107 1.235 . S
C109 C111 1.400 . S
C109 N112 1.351 . S
C109 C114 1.501 . S
C110 C111 1.387 . S
C110 N113 1.341 . S
C111 C109 1.400 . S
C111 C110 1.387 . S
N112 Co103 2.022 . S
N112 C109 1.351 . S
N112 N113 1.365 . S
N113 C110 1.341 . S
N113 N112 1.365 . S
N113 H133 0.862 . S
C114 C109 1.501 . S
C114 H115 0.961 . S
C114 H116 0.961 . S
C114 H117 0.960 . S
H115 C114 0.961 . S
H116 C114 0.961 . S
H117 C114 0.960 . S
C118 N119 1.342 . S
C118 C122 1.401 . S
C118 C123 1.499 . S
N119 Co102 1.989 . S
N119 C118 1.342 . S
N119 N120 1.388 . S
N120 Co103 1.993 . S
N120 N119 1.388 . S
N120 C121 1.346 . S
C121 N120 1.346 . S
C121 C122 1.396 . S
C121 C131 1.510 . S
C122 C118 1.401 . S
C122 C121 1.396 . S
C123 C118 1.499 . S
C123 H124 0.959 . S
C123 H125 0.960 . S
C123 H126 0.961 . S
H124 C123 0.959 . S
H125 C123 0.960 . S
H126 C123 0.961 . S
O127 Co102 1.967 . S
O127 C135 1.258 . S
O128 Co103 1.941 . S
O128 C135 1.266 . S
H129 C131 0.959 . S
H130 C131 0.961 . S
C131 C121 1.510 . S
C131 H129 0.959 . S
C131 H130 0.961 . S
C131 H132 0.960 . S
H132 C131 0.960 . S
H133 N113 0.862 . S
O134 Co102 1.920 . S
O134 C107 1.289 . S
C135 O127 1.258 . S
C135 O128 1.266 . S
Co136 O139 1.970 . S
Co136 N153 1.989 . S
Co136 O161 1.967 . S
Co136 O168 1.920 . S
Co137 O140 1.966 . S
Co137 N146 2.022 1_565 S
Co137 N154 1.993 . S
Co137 O162 1.941 . S
C138 O139 1.258 . S
C138 O140 1.263 . S
O139 Co136 1.970 . S
O139 C138 1.258 . S
O140 Co137 1.966 . S
O140 C138 1.263 . S
C141 O142 1.235 . S
C141 O168 1.289 . S
O142 C141 1.235 . S
C143 C145 1.400 . S
C143 N146 1.351 . S
C143 C148 1.501 . S
C144 C145 1.387 . S
C144 N147 1.341 . S
C145 C143 1.400 . S
C145 C144 1.387 . S
N146 Co137 2.022 1_545 S
N146 C143 1.351 . S
N146 N147 1.365 . S
N147 C144 1.341 . S
N147 N146 1.365 . S
N147 H167 0.862 . S
C148 C143 1.501 . S
C148 H149 0.961 . S
C148 H150 0.961 . S
C148 H151 0.960 . S
H149 C148 0.961 . S
H150 C148 0.961 . S
H151 C148 0.960 . S
C152 N153 1.342 . S
C152 C156 1.401 . S
C152 C157 1.499 . S
N153 Co136 1.989 . S
N153 C152 1.342 . S
N153 N154 1.388 . S
N154 Co137 1.993 . S
N154 N153 1.388 . S
N154 C155 1.346 . S
C155 N154 1.346 . S
C155 C156 1.396 . S
C155 C165 1.510 . S
C156 C152 1.401 . S
C156 C155 1.396 . S
C157 C152 1.499 . S
C157 H158 0.959 . S
C157 H159 0.960 . S
C157 H160 0.961 . S
H158 C157 0.959 . S
H159 C157 0.960 . S
H160 C157 0.961 . S
O161 Co136 1.967 . S
O161 C169 1.258 . S
O162 Co137 1.941 . S
O162 C169 1.266 . S
H163 C165 0.959 . S
H164 C165 0.961 . S
C165 C155 1.510 . S
C165 H163 0.959 . S
C165 H164 0.961 . S
C165 H166 0.960 . S
H166 C165 0.960 . S
H167 N147 0.862 . S
O168 Co136 1.920 . S
O168 C141 1.289 . S
C169 O161 1.258 . S
C169 O162 1.266 . S
Co170 O173 1.970 . S
Co170 N187 1.989 . S
Co170 O195 1.967 . S
Co170 O202 1.920 . S
Co171 O174 1.966 . S
Co171 N180 2.022 1_455 S
Co171 N188 1.993 . S
Co171 O196 1.941 . S
C172 O173 1.258 . S
C172 O174 1.263 . S
O173 Co170 1.970 . S
O173 C172 1.258 . S
O174 Co171 1.966 . S
O174 C172 1.263 . S
C175 O176 1.235 . S
C175 O202 1.289 . S
O176 C175 1.235 . S
C177 C179 1.400 . S
C177 N180 1.351 . S
C177 C182 1.501 . S
C178 C179 1.387 . S
C178 N181 1.341 . S
C179 C177 1.400 . S
C179 C178 1.387 . S
N180 Co171 2.022 1_655 S
N180 C177 1.351 . S
N180 N181 1.365 . S
N181 C178 1.341 . S
N181 N180 1.365 . S
N181 H201 0.862 . S
C182 C177 1.501 . S
C182 H183 0.961 . S
C182 H184 0.961 . S
C182 H185 0.960 . S
H183 C182 0.961 . S
H184 C182 0.961 . S
H185 C182 0.960 . S
C186 N187 1.342 . S
C186 C190 1.401 . S
C186 C191 1.499 . S
N187 Co170 1.989 . S
N187 C186 1.342 . S
N187 N188 1.388 . S
N188 Co171 1.993 . S
N188 N187 1.388 . S
N188 C189 1.346 . S
C189 N188 1.346 . S
C189 C190 1.396 . S
C189 C199 1.510 . S
C190 C186 1.401 . S
C190 C189 1.396 . S
C191 C186 1.499 . S
C191 H192 0.959 . S
C191 H193 0.960 . S
C191 H194 0.961 . S
H192 C191 0.959 . S
H193 C191 0.960 . S
H194 C191 0.961 . S
O195 Co170 1.967 . S
O195 C203 1.258 . S
O196 Co171 1.941 . S
O196 C203 1.266 . S
H197 C199 0.959 . S
H198 C199 0.961 . S
C199 C189 1.510 . S
C199 H197 0.959 . S
C199 H198 0.961 . S
C199 H200 0.960 . S
H200 C199 0.960 . S
H201 N181 0.862 . S
O202 Co170 1.920 . S
O202 C175 1.289 . S
C203 O195 1.258 . S
C203 O196 1.266 . S
Co204 O207 1.970 . S
Co204 N221 1.989 . S
Co204 O229 1.967 . S
Co204 O236 1.920 . S
Co205 O208 1.966 . S
Co205 N214 2.022 . S
Co205 N222 1.993 . S
Co205 O230 1.941 . S
C206 O207 1.258 . S
C206 O208 1.263 . S
O207 Co204 1.970 . S
O207 C206 1.258 . S
O208 Co205 1.966 . S
O208 C206 1.263 . S
C209 O210 1.235 . S
C209 O236 1.289 . S
O210 C209 1.235 . S
C211 C213 1.400 . S
C211 N214 1.351 . S
C211 C216 1.501 . S
C212 C213 1.387 . S
C212 N215 1.341 . S
C213 C211 1.400 . S
C213 C212 1.387 . S
N214 Co205 2.022 . S
N214 C211 1.351 . S
N214 N215 1.365 . S
N215 C212 1.341 . S
N215 N214 1.365 . S
N215 H235 0.862 . S
C216 C211 1.501 . S
C216 H217 0.961 . S
C216 H218 0.961 . S
C216 H219 0.960 . S
H217 C216 0.961 . S
H218 C216 0.961 . S
H219 C216 0.960 . S
C220 N221 1.342 . S
C220 C224 1.401 . S
C220 C225 1.499 . S
N221 Co204 1.989 . S
N221 C220 1.342 . S
N221 N222 1.388 . S
N222 Co205 1.993 . S
N222 N221 1.388 . S
N222 C223 1.346 . S
C223 N222 1.346 . S
C223 C224 1.396 . S
C223 C233 1.510 . S
C224 C220 1.401 . S
C224 C223 1.396 . S
C225 C220 1.499 . S
C225 H226 0.959 . S
C225 H227 0.960 . S
C225 H228 0.961 . S
H226 C225 0.959 . S
H227 C225 0.960 . S
H228 C225 0.961 . S
O229 Co204 1.967 . S
O229 C237 1.258 . S
O230 Co205 1.941 . S
O230 C237 1.266 . S
H231 C233 0.959 . S
H232 C233 0.961 . S
C233 C223 1.510 . S
C233 H231 0.959 . S
C233 H232 0.961 . S
C233 H234 0.960 . S
H234 C233 0.960 . S
H235 N215 0.862 . S
O236 Co204 1.920 . S
O236 C209 1.289 . S
C237 O229 1.258 . S
C237 O230 1.266 . S
Co238 O241 1.970 . S
Co238 N255 1.989 . S
Co238 O263 1.967 . S
Co238 O270 1.920 . S
Co239 O242 1.966 . S
Co239 N248 2.022 1_565 S
Co239 N256 1.993 . S
Co239 O264 1.941 . S
C240 O241 1.258 . S
C240 O242 1.263 . S
O241 Co238 1.970 . S
O241 C240 1.258 . S
O242 Co239 1.966 . S
O242 C240 1.263 . S
C243 O244 1.235 . S
C243 O270 1.289 . S
O244 C243 1.235 . S
C245 C247 1.400 . S
C245 N248 1.351 . S
C245 C250 1.501 . S
C246 C247 1.387 . S
C246 N249 1.341 . S
C247 C245 1.400 . S
C247 C246 1.387 . S
N248 Co239 2.022 1_545 S
N248 C245 1.351 . S
N248 N249 1.365 . S
N249 C246 1.341 . S
N249 N248 1.365 . S
N249 H269 0.862 . S
C250 C245 1.501 . S
C250 H251 0.961 . S
C250 H252 0.961 . S
C250 H253 0.960 . S
H251 C250 0.961 . S
H252 C250 0.961 . S
H253 C250 0.960 . S
C254 N255 1.342 . S
C254 C258 1.401 . S
C254 C259 1.499 . S
N255 Co238 1.989 . S
N255 C254 1.342 . S
N255 N256 1.388 . S
N256 Co239 1.993 . S
N256 N255 1.388 . S
N256 C257 1.346 . S
C257 N256 1.346 . S
C257 C258 1.396 . S
C257 C267 1.510 . S
C258 C254 1.401 . S
C258 C257 1.396 . S
C259 C254 1.499 . S
C259 H260 0.959 . S
C259 H261 0.960 . S
C259 H262 0.961 . S
H260 C259 0.959 . S
H261 C259 0.960 . S
H262 C259 0.961 . S
O263 Co238 1.967 . S
O263 C271 1.258 . S
O264 Co239 1.941 . S
O264 C271 1.266 . S
H265 C267 0.959 . S
H266 C267 0.961 . S
C267 C257 1.510 . S
C267 H265 0.959 . S
C267 H266 0.961 . S
C267 H268 0.960 . S
H268 C267 0.960 . S
H269 N249 0.862 . S
O270 Co238 1.920 . S
O270 C243 1.289 . S
C271 O263 1.258 . S
C271 O264 1.266 . S
Co272 O275 1.970 . S
Co272 N289 1.989 . S
Co272 O297 1.967 . S
Co272 O304 1.920 . S
Co273 O276 1.966 . S
Co273 N282 2.022 1_455 S
Co273 N290 1.993 . S
Co273 O298 1.941 . S
C274 O275 1.258 . S
C274 O276 1.263 . S
O275 Co272 1.970 . S
O275 C274 1.258 . S
O276 Co273 1.966 . S
O276 C274 1.263 . S
C277 O278 1.235 . S
C277 O304 1.289 . S
O278 C277 1.235 . S
C279 C281 1.400 . S
C279 N282 1.351 . S
C279 C284 1.501 . S
C280 C281 1.387 . S
C280 N283 1.341 . S
C281 C279 1.400 . S
C281 C280 1.387 . S
N282 Co273 2.022 1_655 S
N282 C279 1.351 . S
N282 N283 1.365 . S
N283 C280 1.341 . S
N283 N282 1.365 . S
N283 H303 0.862 . S
C284 C279 1.501 . S
C284 H285 0.961 . S
C284 H286 0.961 . S
C284 H287 0.960 . S
H285 C284 0.961 . S
H286 C284 0.961 . S
H287 C284 0.960 . S
C288 N289 1.342 . S
C288 C292 1.401 . S
C288 C293 1.499 . S
N289 Co272 1.989 . S
N289 C288 1.342 . S
N289 N290 1.388 . S
N290 Co273 1.993 . S
N290 N289 1.388 . S
N290 C291 1.346 . S
C291 N290 1.346 . S
C291 C292 1.396 . S
C291 C301 1.510 . S
C292 C288 1.401 . S
C292 C291 1.396 . S
C293 C288 1.499 . S
C293 H294 0.959 . S
C293 H295 0.960 . S
C293 H296 0.961 . S
H294 C293 0.959 . S
H295 C293 0.960 . S
H296 C293 0.961 . S
O297 Co272 1.967 . S
O297 C305 1.258 . S
O298 Co273 1.941 . S
O298 C305 1.266 . S
H299 C301 0.959 . S
H300 C301 0.961 . S
C301 C291 1.510 . S
C301 H299 0.959 . S
C301 H300 0.961 . S
C301 H302 0.960 . S
H302 C301 0.960 . S
H303 N283 0.862 . S
O304 Co272 1.920 . S
O304 C277 1.289 . S
C305 O297 1.258 . S
C305 O298 1.266 . S
Co306 O309 1.970 . S
Co306 N323 1.989 . S
Co306 O331 1.967 . S
Co306 O338 1.920 . S
Co307 O310 1.966 . S
Co307 N316 2.022 . S
Co307 N324 1.993 . S
Co307 O332 1.941 . S
C308 O309 1.258 . S
C308 O310 1.263 . S
O309 Co306 1.970 . S
O309 C308 1.258 . S
O310 Co307 1.966 . S
O310 C308 1.263 . S
C311 O312 1.235 . S
C311 O338 1.289 . S
O312 C311 1.235 . S
C313 C315 1.400 . S
C313 N316 1.351 . S
C313 C318 1.501 . S
C314 C315 1.387 . S
C314 N317 1.341 . S
C315 C313 1.400 . S
C315 C314 1.387 . S
N316 Co307 2.022 . S
N316 C313 1.351 . S
N316 N317 1.365 . S
N317 C314 1.341 . S
N317 N316 1.365 . S
N317 H337 0.862 . S
C318 C313 1.501 . S
C318 H319 0.961 . S
C318 H320 0.961 . S
C318 H321 0.960 . S
H319 C318 0.961 . S
H320 C318 0.961 . S
H321 C318 0.960 . S
C322 N323 1.342 . S
C322 C326 1.401 . S
C322 C327 1.499 . S
N323 Co306 1.989 . S
N323 C322 1.342 . S
N323 N324 1.388 . S
N324 Co307 1.993 . S
N324 N323 1.388 . S
N324 C325 1.346 . S
C325 N324 1.346 . S
C325 C326 1.396 . S
C325 C335 1.510 . S
C326 C322 1.401 . S
C326 C325 1.396 . S
C327 C322 1.499 . S
C327 H328 0.959 . S
C327 H329 0.960 . S
C327 H330 0.961 . S
H328 C327 0.959 . S
H329 C327 0.960 . S
H330 C327 0.961 . S
O331 Co306 1.967 . S
O331 C339 1.258 . S
O332 Co307 1.941 . S
O332 C339 1.266 . S
H333 C335 0.959 . S
H334 C335 0.961 . S
C335 C325 1.510 . S
C335 H333 0.959 . S
C335 H334 0.961 . S
C335 H336 0.960 . S
H336 C335 0.960 . S
H337 N317 0.862 . S
O338 Co306 1.920 . S
O338 C311 1.289 . S
C339 O331 1.258 . S
C339 O332 1.266 . S
Co340 O343 1.970 . S
Co340 N357 1.989 . S
Co340 O365 1.967 . S
Co340 O372 1.920 . S
Co341 O344 1.966 . S
Co341 N350 2.022 1_545 S
Co341 N358 1.993 . S
Co341 O366 1.941 . S
C342 O343 1.258 . S
C342 O344 1.263 . S
O343 Co340 1.970 . S
O343 C342 1.258 . S
O344 Co341 1.966 . S
O344 C342 1.263 . S
C345 O346 1.235 . S
C345 O372 1.289 . S
O346 C345 1.235 . S
C347 C349 1.400 . S
C347 N350 1.351 . S
C347 C352 1.501 . S
C348 C349 1.387 . S
C348 N351 1.341 . S
C349 C347 1.400 . S
C349 C348 1.387 . S
N350 Co341 2.022 1_565 S
N350 C347 1.351 . S
N350 N351 1.365 . S
N351 C348 1.341 . S
N351 N350 1.365 . S
N351 H371 0.862 . S
C352 C347 1.501 . S
C352 H353 0.961 . S
C352 H354 0.961 . S
C352 H355 0.960 . S
H353 C352 0.961 . S
H354 C352 0.961 . S
H355 C352 0.960 . S
C356 N357 1.342 . S
C356 C360 1.401 . S
C356 C361 1.499 . S
N357 Co340 1.989 . S
N357 C356 1.342 . S
N357 N358 1.388 . S
N358 Co341 1.993 . S
N358 N357 1.388 . S
N358 C359 1.346 . S
C359 N358 1.346 . S
C359 C360 1.396 . S
C359 C369 1.510 . S
C360 C356 1.401 . S
C360 C359 1.396 . S
C361 C356 1.499 . S
C361 H362 0.959 . S
C361 H363 0.960 . S
C361 H364 0.961 . S
H362 C361 0.959 . S
H363 C361 0.960 . S
H364 C361 0.961 . S
O365 Co340 1.967 . S
O365 C373 1.258 . S
O366 Co341 1.941 . S
O366 C373 1.266 . S
H367 C369 0.959 . S
H368 C369 0.961 . S
C369 C359 1.510 . S
C369 H367 0.959 . S
C369 H368 0.961 . S
C369 H370 0.960 . S
H370 C369 0.960 . S
H371 N351 0.862 . S
O372 Co340 1.920 . S
O372 C345 1.289 . S
C373 O365 1.258 . S
C373 O366 1.266 . S
Co374 O377 1.970 . S
Co374 N391 1.989 . S
Co374 O399 1.967 . S
Co374 O406 1.920 . S
Co375 O378 1.966 . S
Co375 N384 2.022 1_655 S
Co375 N392 1.993 . S
Co375 O400 1.941 . S
C376 O377 1.258 . S
C376 O378 1.263 . S
O377 Co374 1.970 . S
O377 C376 1.258 . S
O378 Co375 1.966 . S
O378 C376 1.263 . S
C379 O380 1.235 . S
C379 O406 1.289 . S
O380 C379 1.235 . S
C381 C383 1.400 . S
C381 N384 1.351 . S
C381 C386 1.501 . S
C382 C383 1.387 . S
C382 N385 1.341 . S
C383 C381 1.400 . S
C383 C382 1.387 . S
N384 Co375 2.022 1_455 S
N384 C381 1.351 . S
N384 N385 1.365 . S
N385 C382 1.341 . S
N385 N384 1.365 . S
N385 H405 0.862 . S
C386 C381 1.501 . S
C386 H387 0.961 . S
C386 H388 0.961 . S
C386 H389 0.960 . S
H387 C386 0.961 . S
H388 C386 0.961 . S
H389 C386 0.960 . S
C390 N391 1.342 . S
C390 C394 1.401 . S
C390 C395 1.499 . S
N391 Co374 1.989 . S
N391 C390 1.342 . S
N391 N392 1.388 . S
N392 Co375 1.993 . S
N392 N391 1.388 . S
N392 C393 1.346 . S
C393 N392 1.346 . S
C393 C394 1.396 . S
C393 C403 1.510 . S
C394 C390 1.401 . S
C394 C393 1.396 . S
C395 C390 1.499 . S
C395 H396 0.959 . S
C395 H397 0.960 . S
C395 H398 0.961 . S
H396 C395 0.959 . S
H397 C395 0.960 . S
H398 C395 0.961 . S
O399 Co374 1.967 . S
O399 C407 1.258 . S
O400 Co375 1.941 . S
O400 C407 1.266 . S
H401 C403 0.959 . S
H402 C403 0.961 . S
C403 C393 1.510 . S
C403 H401 0.959 . S
C403 H402 0.961 . S
C403 H404 0.960 . S
H404 C403 0.960 . S
H405 N385 0.862 . S
O406 Co374 1.920 . S
O406 C379 1.289 . S
C407 O399 1.258 . S
C407 O400 1.266 . S
Co408 O411 1.970 . S
Co408 N425 1.989 . S
Co408 O433 1.967 . S
Co408 O440 1.920 . S
Co409 O412 1.966 . S
Co409 N418 2.022 . S
Co409 N426 1.993 . S
Co409 O434 1.941 . S
C410 O411 1.258 . S
C410 O412 1.263 . S
O411 Co408 1.970 . S
O411 C410 1.258 . S
O412 Co409 1.966 . S
O412 C410 1.263 . S
C413 O414 1.235 . S
C413 O440 1.289 . S
O414 C413 1.235 . S
C415 C417 1.400 . S
C415 N418 1.351 . S
C415 C420 1.501 . S
C416 C417 1.387 . S
C416 N419 1.341 . S
C417 C415 1.400 . S
C417 C416 1.387 . S
N418 Co409 2.022 . S
N418 C415 1.351 . S
N418 N419 1.365 . S
N419 C416 1.341 . S
N419 N418 1.365 . S
N419 H439 0.862 . S
C420 C415 1.501 . S
C420 H421 0.961 . S
C420 H422 0.961 . S
C420 H423 0.960 . S
H421 C420 0.961 . S
H422 C420 0.961 . S
H423 C420 0.960 . S
C424 N425 1.342 . S
C424 C428 1.401 . S
C424 C429 1.499 . S
N425 Co408 1.989 . S
N425 C424 1.342 . S
N425 N426 1.388 . S
N426 Co409 1.993 . S
N426 N425 1.388 . S
N426 C427 1.346 . S
C427 N426 1.346 . S
C427 C428 1.396 . S
C427 C437 1.510 . S
C428 C424 1.401 . S
C428 C427 1.396 . S
C429 C424 1.499 . S
C429 H430 0.959 . S
C429 H431 0.960 . S
C429 H432 0.961 . S
H430 C429 0.959 . S
H431 C429 0.960 . S
H432 C429 0.961 . S
O433 Co408 1.967 . S
O433 C441 1.258 . S
O434 Co409 1.941 . S
O434 C441 1.266 . S
H435 C437 0.959 . S
H436 C437 0.961 . S
C437 C427 1.510 . S
C437 H435 0.959 . S
C437 H436 0.961 . S
C437 H438 0.960 . S
H438 C437 0.960 . S
H439 N419 0.862 . S
O440 Co408 1.920 . S
O440 C413 1.289 . S
C441 O433 1.258 . S
C441 O434 1.266 . S
Co442 O445 1.970 . S
Co442 N459 1.989 . S
Co442 O467 1.967 . S
Co442 O474 1.920 . S
Co443 O446 1.966 . S
Co443 N452 2.022 . S
Co443 N460 1.993 . S
Co443 O468 1.941 . S
C444 O445 1.258 . S
C444 O446 1.263 . S
O445 Co442 1.970 . S
O445 C444 1.258 . S
O446 Co443 1.966 . S
O446 C444 1.263 . S
C447 O448 1.235 . S
C447 O474 1.289 . S
O448 C447 1.235 . S
C449 C451 1.400 . S
C449 N452 1.351 . S
C449 C454 1.501 . S
C450 C451 1.387 . S
C450 N453 1.341 . S
C451 C449 1.400 . S
C451 C450 1.387 . S
N452 Co443 2.022 . S
N452 C449 1.351 . S
N452 N453 1.365 . S
N453 C450 1.341 . S
N453 N452 1.365 . S
N453 H473 0.862 . S
C454 C449 1.501 . S
C454 H455 0.961 . S
C454 H456 0.961 . S
C454 H457 0.960 . S
H455 C454 0.961 . S
H456 C454 0.961 . S
H457 C454 0.960 . S
C458 N459 1.342 . S
C458 C462 1.401 . S
C458 C463 1.499 . S
N459 Co442 1.989 . S
N459 C458 1.342 . S
N459 N460 1.388 . S
N460 Co443 1.993 . S
N460 N459 1.388 . S
N460 C461 1.346 . S
C461 N460 1.346 . S
C461 C462 1.396 . S
C461 C471 1.510 . S
C462 C458 1.401 . S
C462 C461 1.396 . S
C463 C458 1.499 . S
C463 H464 0.959 . S
C463 H465 0.960 . S
C463 H466 0.961 . S
H464 C463 0.959 . S
H465 C463 0.960 . S
H466 C463 0.961 . S
O467 Co442 1.967 . S
O467 C475 1.258 . S
O468 Co443 1.941 . S
O468 C475 1.266 . S
H469 C471 0.959 . S
H470 C471 0.961 . S
C471 C461 1.510 . S
C471 H469 0.959 . S
C471 H470 0.961 . S
C471 H472 0.960 . S
H472 C471 0.960 . S
H473 N453 0.862 . S
O474 Co442 1.920 . S
O474 C447 1.289 . S
C475 O467 1.258 . S
C475 O468 1.266 . S
Co476 O479 1.970 . S
Co476 N493 1.989 . S
Co476 O501 1.967 . S
Co476 O508 1.920 . S
Co477 O480 1.966 . S
Co477 N486 2.022 . S
Co477 N494 1.993 . S
Co477 O502 1.941 . S
C478 O479 1.258 . S
C478 O480 1.263 . S
O479 Co476 1.970 . S
O479 C478 1.258 . S
O480 Co477 1.966 . S
O480 C478 1.263 . S
C481 O482 1.235 . S
C481 O508 1.289 . S
O482 C481 1.235 . S
C483 C485 1.400 . S
C483 N486 1.351 . S
C483 C488 1.501 . S
C484 C485 1.387 . S
C484 N487 1.341 . S
C485 C483 1.400 . S
C485 C484 1.387 . S
N486 Co477 2.022 . S
N486 C483 1.351 . S
N486 N487 1.365 . S
N487 C484 1.341 . S
N487 N486 1.365 . S
N487 H507 0.862 . S
C488 C483 1.501 . S
C488 H489 0.961 . S
C488 H490 0.961 . S
C488 H491 0.960 . S
H489 C488 0.961 . S
H490 C488 0.961 . S
H491 C488 0.960 . S
C492 N493 1.342 . S
C492 C496 1.401 . S
C492 C497 1.499 . S
N493 Co476 1.989 . S
N493 C492 1.342 . S
N493 N494 1.388 . S
N494 Co477 1.993 . S
N494 N493 1.388 . S
N494 C495 1.346 . S
C495 N494 1.346 . S
C495 C496 1.396 . S
C495 C505 1.510 . S
C496 C492 1.401 . S
C496 C495 1.396 . S
C497 C492 1.499 . S
C497 H498 0.959 . S
C497 H499 0.960 . S
C497 H500 0.961 . S
H498 C497 0.959 . S
H499 C497 0.960 . S
H500 C497 0.961 . S
O501 Co476 1.967 . S
O501 C509 1.258 . S
O502 Co477 1.941 . S
O502 C509 1.266 . S
H503 C505 0.959 . S
H504 C505 0.961 . S
C505 C495 1.510 . S
C505 H503 0.959 . S
C505 H504 0.961 . S
C505 H506 0.960 . S
H506 C505 0.960 . S
H507 N487 0.862 . S
O508 Co476 1.920 . S
O508 C481 1.289 . S
C509 O501 1.258 . S
C509 O502 1.266 . S
Co510 O513 1.970 . S
Co510 N527 1.989 . S
Co510 O535 1.967 . S
Co510 O542 1.920 . S
Co511 O514 1.966 . S
Co511 N520 2.022 . S
Co511 N528 1.993 . S
Co511 O536 1.941 . S
C512 O513 1.258 . S
C512 O514 1.263 . S
O513 Co510 1.970 . S
O513 C512 1.258 . S
O514 Co511 1.966 . S
O514 C512 1.263 . S
C515 O516 1.235 . S
C515 O542 1.289 . S
O516 C515 1.235 . S
C517 C519 1.400 . S
C517 N520 1.351 . S
C517 C522 1.501 . S
C518 C519 1.387 . S
C518 N521 1.341 . S
C519 C517 1.400 . S
C519 C518 1.387 . S
N520 Co511 2.022 . S
N520 C517 1.351 . S
N520 N521 1.365 . S
N521 C518 1.341 . S
N521 N520 1.365 . S
N521 H541 0.862 . S
C522 C517 1.501 . S
C522 H523 0.961 . S
C522 H524 0.961 . S
C522 H525 0.960 . S
H523 C522 0.961 . S
H524 C522 0.961 . S
H525 C522 0.960 . S
C526 N527 1.342 . S
C526 C530 1.401 . S
C526 C531 1.499 . S
N527 Co510 1.989 . S
N527 C526 1.342 . S
N527 N528 1.388 . S
N528 Co511 1.993 . S
N528 N527 1.388 . S
N528 C529 1.346 . S
C529 N528 1.346 . S
C529 C530 1.396 . S
C529 C539 1.510 . S
C530 C526 1.401 . S
C530 C529 1.396 . S
C531 C526 1.499 . S
C531 H532 0.959 . S
C531 H533 0.960 . S
C531 H534 0.961 . S
H532 C531 0.959 . S
H533 C531 0.960 . S
H534 C531 0.961 . S
O535 Co510 1.967 . S
O535 C543 1.258 . S
O536 Co511 1.941 . S
O536 C543 1.266 . S
H537 C539 0.959 . S
H538 C539 0.961 . S
C539 C529 1.510 . S
C539 H537 0.959 . S
C539 H538 0.961 . S
C539 H540 0.960 . S
H540 C539 0.960 . S
H541 N521 0.862 . S
O542 Co510 1.920 . S
O542 C515 1.289 . S
C543 O535 1.258 . S
C543 O536 1.266 . S
Co544 O547 1.970 . S
Co544 N561 1.989 . S
Co544 O569 1.967 . S
Co544 O576 1.920 . S
Co545 O548 1.966 . S
Co545 N554 2.022 . S
Co545 N562 1.993 . S
Co545 O570 1.941 . S
C546 O547 1.258 . S
C546 O548 1.263 . S
O547 Co544 1.970 . S
O547 C546 1.258 . S
O548 Co545 1.966 . S
O548 C546 1.263 . S
C549 O550 1.235 . S
C549 O576 1.289 . S
O550 C549 1.235 . S
C551 C553 1.400 . S
C551 N554 1.351 . S
C551 C556 1.501 . S
C552 C553 1.387 . S
C552 N555 1.341 . S
C553 C551 1.400 . S
C553 C552 1.387 . S
N554 Co545 2.022 . S
N554 C551 1.351 . S
N554 N555 1.365 . S
N555 C552 1.341 . S
N555 N554 1.365 . S
N555 H575 0.862 . S
C556 C551 1.501 . S
C556 H557 0.961 . S
C556 H558 0.961 . S
C556 H559 0.960 . S
H557 C556 0.961 . S
H558 C556 0.961 . S
H559 C556 0.960 . S
C560 N561 1.342 . S
C560 C564 1.401 . S
C560 C565 1.499 . S
N561 Co544 1.989 . S
N561 C560 1.342 . S
N561 N562 1.388 . S
N562 Co545 1.993 . S
N562 N561 1.388 . S
N562 C563 1.346 . S
C563 N562 1.346 . S
C563 C564 1.396 . S
C563 C573 1.510 . S
C564 C560 1.401 . S
C564 C563 1.396 . S
C565 C560 1.499 . S
C565 H566 0.959 . S
C565 H567 0.960 . S
C565 H568 0.961 . S
H566 C565 0.959 . S
H567 C565 0.960 . S
H568 C565 0.961 . S
O569 Co544 1.967 . S
O569 C577 1.258 . S
O570 Co545 1.941 . S
O570 C577 1.266 . S
H571 C573 0.959 . S
H572 C573 0.961 . S
C573 C563 1.510 . S
C573 H571 0.959 . S
C573 H572 0.961 . S
C573 H574 0.960 . S
H574 C573 0.960 . S
H575 N555 0.862 . S
O576 Co544 1.920 . S
O576 C549 1.289 . S
C577 O569 1.258 . S
C577 O570 1.266 . S
Co578 O581 1.970 . S
Co578 N595 1.989 . S
Co578 O603 1.967 . S
Co578 O610 1.920 . S
Co579 O582 1.966 . S
Co579 N588 2.022 . S
Co579 N596 1.993 . S
Co579 O604 1.941 . S
C580 O581 1.258 . S
C580 O582 1.263 . S
O581 Co578 1.970 . S
O581 C580 1.258 . S
O582 Co579 1.966 . S
O582 C580 1.263 . S
C583 O584 1.235 . S
C583 O610 1.289 . S
O584 C583 1.235 . S
C585 C587 1.400 . S
C585 N588 1.351 . S
C585 C590 1.501 . S
C586 C587 1.387 . S
C586 N589 1.341 . S
C587 C585 1.400 . S
C587 C586 1.387 . S
N588 Co579 2.022 . S
N588 C585 1.351 . S
N588 N589 1.365 . S
N589 C586 1.341 . S
N589 N588 1.365 . S
N589 H609 0.862 . S
C590 C585 1.501 . S
C590 H591 0.961 . S
C590 H592 0.961 . S
C590 H593 0.960 . S
H591 C590 0.961 . S
H592 C590 0.961 . S
H593 C590 0.960 . S
C594 N595 1.342 . S
C594 C598 1.401 . S
C594 C599 1.499 . S
N595 Co578 1.989 . S
N595 C594 1.342 . S
N595 N596 1.388 . S
N596 Co579 1.993 . S
N596 N595 1.388 . S
N596 C597 1.346 . S
C597 N596 1.346 . S
C597 C598 1.396 . S
C597 C607 1.510 . S
C598 C594 1.401 . S
C598 C597 1.396 . S
C599 C594 1.499 . S
C599 H600 0.959 . S
C599 H601 0.960 . S
C599 H602 0.961 . S
H600 C599 0.959 . S
H601 C599 0.960 . S
H602 C599 0.961 . S
O603 Co578 1.967 . S
O603 C611 1.258 . S
O604 Co579 1.941 . S
O604 C611 1.266 . S
H605 C607 0.959 . S
H606 C607 0.961 . S
C607 C597 1.510 . S
C607 H605 0.959 . S
C607 H606 0.961 . S
C607 H608 0.960 . S
H608 C607 0.960 . S
H609 N589 0.862 . S
O610 Co578 1.920 . S
O610 C583 1.289 . S
C611 O603 1.258 . S
C611 O604 1.266 . S
Co612 O615 1.970 . S
Co612 N629 1.989 . S
Co612 O637 1.967 . S
Co612 O644 1.920 . S
Co613 O616 1.966 . S
Co613 N622 2.022 . S
Co613 N630 1.993 . S
Co613 O638 1.941 . S
C614 O615 1.258 . S
C614 O616 1.263 . S
O615 Co612 1.970 . S
O615 C614 1.258 . S
O616 Co613 1.966 . S
O616 C614 1.263 . S
C617 O618 1.235 . S
C617 O644 1.289 . S
O618 C617 1.235 . S
C619 C621 1.400 . S
C619 N622 1.351 . S
C619 C624 1.501 . S
C620 C621 1.387 . S
C620 N623 1.341 . S
C621 C619 1.400 . S
C621 C620 1.387 . S
N622 Co613 2.022 . S
N622 C619 1.351 . S
N622 N623 1.365 . S
N623 C620 1.341 . S
N623 N622 1.365 . S
N623 H643 0.862 . S
C624 C619 1.501 . S
C624 H625 0.961 . S
C624 H626 0.961 . S
C624 H627 0.960 . S
H625 C624 0.961 . S
H626 C624 0.961 . S
H627 C624 0.960 . S
C628 N629 1.342 . S
C628 C632 1.401 . S
C628 C633 1.499 . S
N629 Co612 1.989 . S
N629 C628 1.342 . S
N629 N630 1.388 . S
N630 Co613 1.993 . S
N630 N629 1.388 . S
N630 C631 1.346 . S
C631 N630 1.346 . S
C631 C632 1.396 . S
C631 C641 1.510 . S
C632 C628 1.401 . S
C632 C631 1.396 . S
C633 C628 1.499 . S
C633 H634 0.959 . S
C633 H635 0.960 . S
C633 H636 0.961 . S
H634 C633 0.959 . S
H635 C633 0.960 . S
H636 C633 0.961 . S
O637 Co612 1.967 . S
O637 C645 1.258 . S
O638 Co613 1.941 . S
O638 C645 1.266 . S
H639 C641 0.959 . S
H640 C641 0.961 . S
C641 C631 1.510 . S
C641 H639 0.959 . S
C641 H640 0.961 . S
C641 H642 0.960 . S
H642 C641 0.960 . S
H643 N623 0.862 . S
O644 Co612 1.920 . S
O644 C617 1.289 . S
C645 O637 1.258 . S
C645 O638 1.266 . S
Co646 O649 1.970 . S
Co646 N663 1.989 . S
Co646 O671 1.967 . S
Co646 O678 1.920 . S
Co647 O650 1.966 . S
Co647 N656 2.022 . S
Co647 N664 1.993 . S
Co647 O672 1.941 . S
C648 O649 1.258 . S
C648 O650 1.263 . S
O649 Co646 1.970 . S
O649 C648 1.258 . S
O650 Co647 1.966 . S
O650 C648 1.263 . S
C651 O652 1.235 . S
C651 O678 1.289 . S
O652 C651 1.235 . S
C653 C655 1.400 . S
C653 N656 1.351 . S
C653 C658 1.501 . S
C654 C655 1.387 . S
C654 N657 1.341 . S
C655 C653 1.400 . S
C655 C654 1.387 . S
N656 Co647 2.022 . S
N656 C653 1.351 . S
N656 N657 1.365 . S
N657 C654 1.341 . S
N657 N656 1.365 . S
N657 H677 0.862 . S
C658 C653 1.501 . S
C658 H659 0.961 . S
C658 H660 0.961 . S
C658 H661 0.960 . S
H659 C658 0.961 . S
H660 C658 0.961 . S
H661 C658 0.960 . S
C662 N663 1.342 . S
C662 C666 1.401 . S
C662 C667 1.499 . S
N663 Co646 1.989 . S
N663 C662 1.342 . S
N663 N664 1.388 . S
N664 Co647 1.993 . S
N664 N663 1.388 . S
N664 C665 1.346 . S
C665 N664 1.346 . S
C665 C666 1.396 . S
C665 C675 1.510 . S
C666 C662 1.401 . S
C666 C665 1.396 . S
C667 C662 1.499 . S
C667 H668 0.959 . S
C667 H669 0.960 . S
C667 H670 0.961 . S
H668 C667 0.959 . S
H669 C667 0.960 . S
H670 C667 0.961 . S
O671 Co646 1.967 . S
O671 C679 1.258 . S
O672 Co647 1.941 . S
O672 C679 1.266 . S
H673 C675 0.959 . S
H674 C675 0.961 . S
C675 C665 1.510 . S
C675 H673 0.959 . S
C675 H674 0.961 . S
C675 H676 0.960 . S
H676 C675 0.960 . S
H677 N657 0.862 . S
O678 Co646 1.920 . S
O678 C651 1.289 . S
C679 O671 1.258 . S
C679 O672 1.266 . S
Co680 O683 1.970 . S
Co680 N697 1.989 . S
Co680 O705 1.967 . S
Co680 O712 1.920 . S
Co681 O684 1.966 . S
Co681 N690 2.022 . S
Co681 N698 1.993 . S
Co681 O706 1.941 . S
C682 O683 1.258 . S
C682 O684 1.263 . S
O683 Co680 1.970 . S
O683 C682 1.258 . S
O684 Co681 1.966 . S
O684 C682 1.263 . S
C685 O686 1.235 . S
C685 O712 1.289 . S
O686 C685 1.235 . S
C687 C689 1.400 . S
C687 N690 1.351 . S
C687 C692 1.501 . S
C688 C689 1.387 . S
C688 N691 1.341 . S
C689 C687 1.400 . S
C689 C688 1.387 . S
N690 Co681 2.022 . S
N690 C687 1.351 . S
N690 N691 1.365 . S
N691 C688 1.341 . S
N691 N690 1.365 . S
N691 H711 0.862 . S
C692 C687 1.501 . S
C692 H693 0.961 . S
C692 H694 0.961 . S
C692 H695 0.960 . S
H693 C692 0.961 . S
H694 C692 0.961 . S
H695 C692 0.960 . S
C696 N697 1.342 . S
C696 C700 1.401 . S
C696 C701 1.499 . S
N697 Co680 1.989 . S
N697 C696 1.342 . S
N697 N698 1.388 . S
N698 Co681 1.993 . S
N698 N697 1.388 . S
N698 C699 1.346 . S
C699 N698 1.346 . S
C699 C700 1.396 . S
C699 C709 1.510 . S
C700 C696 1.401 . S
C700 C699 1.396 . S
C701 C696 1.499 . S
C701 H702 0.959 . S
C701 H703 0.960 . S
C701 H704 0.961 . S
H702 C701 0.959 . S
H703 C701 0.960 . S
H704 C701 0.961 . S
O705 Co680 1.967 . S
O705 C713 1.258 . S
O706 Co681 1.941 . S
O706 C713 1.266 . S
H707 C709 0.959 . S
H708 C709 0.961 . S
C709 C699 1.510 . S
C709 H707 0.959 . S
C709 H708 0.961 . S
C709 H710 0.960 . S
H710 C709 0.960 . S
H711 N691 0.862 . S
O712 Co680 1.920 . S
O712 C685 1.289 . S
C713 O705 1.258 . S
C713 O706 1.266 . S
Co714 O717 1.970 . S
Co714 N731 1.989 . S
Co714 O739 1.967 . S
Co714 O746 1.920 . S
Co715 O718 1.966 . S
Co715 N724 2.022 . S
Co715 N732 1.993 . S
Co715 O740 1.941 . S
C716 O717 1.258 . S
C716 O718 1.263 . S
O717 Co714 1.970 . S
O717 C716 1.258 . S
O718 Co715 1.966 . S
O718 C716 1.263 . S
C719 O720 1.235 . S
C719 O746 1.289 . S
O720 C719 1.235 . S
C721 C723 1.400 . S
C721 N724 1.351 . S
C721 C726 1.501 . S
C722 C723 1.387 . S
C722 N725 1.341 . S
C723 C721 1.400 . S
C723 C722 1.387 . S
N724 Co715 2.022 . S
N724 C721 1.351 . S
N724 N725 1.365 . S
N725 C722 1.341 . S
N725 N724 1.365 . S
N725 H745 0.862 . S
C726 C721 1.501 . S
C726 H727 0.961 . S
C726 H728 0.961 . S
C726 H729 0.960 . S
H727 C726 0.961 . S
H728 C726 0.961 . S
H729 C726 0.960 . S
C730 N731 1.342 . S
C730 C734 1.401 . S
C730 C735 1.499 . S
N731 Co714 1.989 . S
N731 C730 1.342 . S
N731 N732 1.388 . S
N732 Co715 1.993 . S
N732 N731 1.388 . S
N732 C733 1.346 . S
C733 N732 1.346 . S
C733 C734 1.396 . S
C733 C743 1.510 . S
C734 C730 1.401 . S
C734 C733 1.396 . S
C735 C730 1.499 . S
C735 H736 0.959 . S
C735 H737 0.960 . S
C735 H738 0.961 . S
H736 C735 0.959 . S
H737 C735 0.960 . S
H738 C735 0.961 . S
O739 Co714 1.967 . S
O739 C747 1.258 . S
O740 Co715 1.941 . S
O740 C747 1.266 . S
H741 C743 0.959 . S
H742 C743 0.961 . S
C743 C733 1.510 . S
C743 H741 0.959 . S
C743 H742 0.961 . S
C743 H744 0.960 . S
H744 C743 0.960 . S
H745 N725 0.862 . S
O746 Co714 1.920 . S
O746 C719 1.289 . S
C747 O739 1.258 . S
C747 O740 1.266 . S
Co748 O751 1.970 . S
Co748 N765 1.989 . S
Co748 O773 1.967 . S
Co748 O780 1.920 . S
Co749 O752 1.966 . S
Co749 N758 2.022 . S
Co749 N766 1.993 . S
Co749 O774 1.941 . S
C750 O751 1.258 . S
C750 O752 1.263 . S
O751 Co748 1.970 . S
O751 C750 1.258 . S
O752 Co749 1.966 . S
O752 C750 1.263 . S
C753 O754 1.235 . S
C753 O780 1.289 . S
O754 C753 1.235 . S
C755 C757 1.400 . S
C755 N758 1.351 . S
C755 C760 1.501 . S
C756 C757 1.387 . S
C756 N759 1.341 . S
C757 C755 1.400 . S
C757 C756 1.387 . S
N758 Co749 2.022 . S
N758 C755 1.351 . S
N758 N759 1.365 . S
N759 C756 1.341 . S
N759 N758 1.365 . S
N759 H779 0.862 . S
C760 C755 1.501 . S
C760 H761 0.961 . S
C760 H762 0.961 . S
C760 H763 0.960 . S
H761 C760 0.961 . S
H762 C760 0.961 . S
H763 C760 0.960 . S
C764 N765 1.342 . S
C764 C768 1.401 . S
C764 C769 1.499 . S
N765 Co748 1.989 . S
N765 C764 1.342 . S
N765 N766 1.388 . S
N766 Co749 1.993 . S
N766 N765 1.388 . S
N766 C767 1.346 . S
C767 N766 1.346 . S
C767 C768 1.396 . S
C767 C777 1.510 . S
C768 C764 1.401 . S
C768 C767 1.396 . S
C769 C764 1.499 . S
C769 H770 0.959 . S
C769 H771 0.960 . S
C769 H772 0.961 . S
H770 C769 0.959 . S
H771 C769 0.960 . S
H772 C769 0.961 . S
O773 Co748 1.967 . S
O773 C781 1.258 . S
O774 Co749 1.941 . S
O774 C781 1.266 . S
H775 C777 0.959 . S
H776 C777 0.961 . S
C777 C767 1.510 . S
C777 H775 0.959 . S
C777 H776 0.961 . S
C777 H778 0.960 . S
H778 C777 0.960 . S
H779 N759 0.862 . S
O780 Co748 1.920 . S
O780 C753 1.289 . S
C781 O773 1.258 . S
C781 O774 1.266 . S
Co782 O785 1.970 . S
Co782 N799 1.989 . S
Co782 O807 1.967 . S
Co782 O814 1.920 . S
Co783 O786 1.966 . S
Co783 N792 2.022 . S
Co783 N800 1.993 . S
Co783 O808 1.941 . S
C784 O785 1.258 . S
C784 O786 1.263 . S
O785 Co782 1.970 . S
O785 C784 1.258 . S
O786 Co783 1.966 . S
O786 C784 1.263 . S
C787 O788 1.235 . S
C787 O814 1.289 . S
O788 C787 1.235 . S
C789 C791 1.400 . S
C789 N792 1.351 . S
C789 C794 1.501 . S
C790 C791 1.387 . S
C790 N793 1.341 . S
C791 C789 1.400 . S
C791 C790 1.387 . S
N792 Co783 2.022 . S
N792 C789 1.351 . S
N792 N793 1.365 . S
N793 C790 1.341 . S
N793 N792 1.365 . S
N793 H813 0.862 . S
C794 C789 1.501 . S
C794 H795 0.961 . S
C794 H796 0.961 . S
C794 H797 0.960 . S
H795 C794 0.961 . S
H796 C794 0.961 . S
H797 C794 0.960 . S
C798 N799 1.342 . S
C798 C802 1.401 . S
C798 C803 1.499 . S
N799 Co782 1.989 . S
N799 C798 1.342 . S
N799 N800 1.388 . S
N800 Co783 1.993 . S
N800 N799 1.388 . S
N800 C801 1.346 . S
C801 N800 1.346 . S
C801 C802 1.396 . S
C801 C811 1.510 . S
C802 C798 1.401 . S
C802 C801 1.396 . S
C803 C798 1.499 . S
C803 H804 0.959 . S
C803 H805 0.960 . S
C803 H806 0.961 . S
H804 C803 0.959 . S
H805 C803 0.960 . S
H806 C803 0.961 . S
O807 Co782 1.967 . S
O807 C815 1.258 . S
O808 Co783 1.941 . S
O808 C815 1.266 . S
H809 C811 0.959 . S
H810 C811 0.961 . S
C811 C801 1.510 . S
C811 H809 0.959 . S
C811 H810 0.961 . S
C811 H812 0.960 . S
H812 C811 0.960 . S
H813 N793 0.862 . S
O814 Co782 1.920 . S
O814 C787 1.289 . S
C815 O807 1.258 . S
C815 O808 1.266 . S
Co816 O819 1.970 . S
Co816 N833 1.989 . S
Co816 O841 1.967 . S
Co816 O848 1.920 . S
Co817 O820 1.966 . S
Co817 N826 2.022 . S
Co817 N834 1.993 . S
Co817 O842 1.941 . S
C818 O819 1.258 . S
C818 O820 1.263 . S
O819 Co816 1.970 . S
O819 C818 1.258 . S
O820 Co817 1.966 . S
O820 C818 1.263 . S
C821 O822 1.235 . S
C821 O848 1.289 . S
O822 C821 1.235 . S
C823 C825 1.400 . S
C823 N826 1.351 . S
C823 C828 1.501 . S
C824 C825 1.387 . S
C824 N827 1.341 . S
C825 C823 1.400 . S
C825 C824 1.387 . S
N826 Co817 2.022 . S
N826 C823 1.351 . S
N826 N827 1.365 . S
N827 C824 1.341 . S
N827 N826 1.365 . S
N827 H847 0.862 . S
C828 C823 1.501 . S
C828 H829 0.961 . S
C828 H830 0.961 . S
C828 H831 0.960 . S
H829 C828 0.961 . S
H830 C828 0.961 . S
H831 C828 0.960 . S
C832 N833 1.342 . S
C832 C836 1.401 . S
C832 C837 1.499 . S
N833 Co816 1.989 . S
N833 C832 1.342 . S
N833 N834 1.388 . S
N834 Co817 1.993 . S
N834 N833 1.388 . S
N834 C835 1.346 . S
C835 N834 1.346 . S
C835 C836 1.396 . S
C835 C845 1.510 . S
C836 C832 1.401 . S
C836 C835 1.396 . S
C837 C832 1.499 . S
C837 H838 0.959 . S
C837 H839 0.960 . S
C837 H840 0.961 . S
H838 C837 0.959 . S
H839 C837 0.960 . S
H840 C837 0.961 . S
O841 Co816 1.967 . S
O841 C849 1.258 . S
O842 Co817 1.941 . S
O842 C849 1.266 . S
H843 C845 0.959 . S
H844 C845 0.961 . S
C845 C835 1.510 . S
C845 H843 0.959 . S
C845 H844 0.961 . S
C845 H846 0.960 . S
H846 C845 0.960 . S
H847 N827 0.862 . S
O848 Co816 1.920 . S
O848 C821 1.289 . S
C849 O841 1.258 . S
C849 O842 1.266 . S
Co850 O853 1.970 . S
Co850 N867 1.989 . S
Co850 O875 1.967 . S
Co850 O882 1.920 . S
Co851 O854 1.966 . S
Co851 N860 2.022 . S
Co851 N868 1.993 . S
Co851 O876 1.941 . S
C852 O853 1.258 . S
C852 O854 1.263 . S
O853 Co850 1.970 . S
O853 C852 1.258 . S
O854 Co851 1.966 . S
O854 C852 1.263 . S
C855 O856 1.235 . S
C855 O882 1.289 . S
O856 C855 1.235 . S
C857 C859 1.400 . S
C857 N860 1.351 . S
C857 C862 1.501 . S
C858 C859 1.387 . S
C858 N861 1.341 . S
C859 C857 1.400 . S
C859 C858 1.387 . S
N860 Co851 2.022 . S
N860 C857 1.351 . S
N860 N861 1.365 . S
N861 C858 1.341 . S
N861 N860 1.365 . S
N861 H881 0.862 . S
C862 C857 1.501 . S
C862 H863 0.961 . S
C862 H864 0.961 . S
C862 H865 0.960 . S
H863 C862 0.961 . S
H864 C862 0.961 . S
H865 C862 0.960 . S
C866 N867 1.342 . S
C866 C870 1.401 . S
C866 C871 1.499 . S
N867 Co850 1.989 . S
N867 C866 1.342 . S
N867 N868 1.388 . S
N868 Co851 1.993 . S
N868 N867 1.388 . S
N868 C869 1.346 . S
C869 N868 1.346 . S
C869 C870 1.396 . S
C869 C879 1.510 . S
C870 C866 1.401 . S
C870 C869 1.396 . S
C871 C866 1.499 . S
C871 H872 0.959 . S
C871 H873 0.960 . S
C871 H874 0.961 . S
H872 C871 0.959 . S
H873 C871 0.960 . S
H874 C871 0.961 . S
O875 Co850 1.967 . S
O875 C883 1.258 . S
O876 Co851 1.941 . S
O876 C883 1.266 . S
H877 C879 0.959 . S
H878 C879 0.961 . S
C879 C869 1.510 . S
C879 H877 0.959 . S
C879 H878 0.961 . S
C879 H880 0.960 . S
H880 C879 0.960 . S
H881 N861 0.862 . S
O882 Co850 1.920 . S
O882 C855 1.289 . S
C883 O875 1.258 . S
C883 O876 1.266 . S
Co884 O887 1.970 . S
Co884 N901 1.989 . S
Co884 O909 1.967 . S
Co884 O916 1.920 . S
Co885 O888 1.966 . S
Co885 N894 2.022 . S
Co885 N902 1.993 . S
Co885 O910 1.941 . S
C886 O887 1.258 . S
C886 O888 1.263 . S
O887 Co884 1.970 . S
O887 C886 1.258 . S
O888 Co885 1.966 . S
O888 C886 1.263 . S
C889 O890 1.235 . S
C889 O916 1.289 . S
O890 C889 1.235 . S
C891 C893 1.400 . S
C891 N894 1.351 . S
C891 C896 1.501 . S
C892 C893 1.387 . S
C892 N895 1.341 . S
C893 C891 1.400 . S
C893 C892 1.387 . S
N894 Co885 2.022 . S
N894 C891 1.351 . S
N894 N895 1.365 . S
N895 C892 1.341 . S
N895 N894 1.365 . S
N895 H915 0.862 . S
C896 C891 1.501 . S
C896 H897 0.961 . S
C896 H898 0.961 . S
C896 H899 0.960 . S
H897 C896 0.961 . S
H898 C896 0.961 . S
H899 C896 0.960 . S
C900 N901 1.342 . S
C900 C904 1.401 . S
C900 C905 1.499 . S
N901 Co884 1.989 . S
N901 C900 1.342 . S
N901 N902 1.388 . S
N902 Co885 1.993 . S
N902 N901 1.388 . S
N902 C903 1.346 . S
C903 N902 1.346 . S
C903 C904 1.396 . S
C903 C913 1.510 . S
C904 C900 1.401 . S
C904 C903 1.396 . S
C905 C900 1.499 . S
C905 H906 0.959 . S
C905 H907 0.960 . S
C905 H908 0.961 . S
H906 C905 0.959 . S
H907 C905 0.960 . S
H908 C905 0.961 . S
O909 Co884 1.967 . S
O909 C917 1.258 . S
O910 Co885 1.941 . S
O910 C917 1.266 . S
H911 C913 0.959 . S
H912 C913 0.961 . S
C913 C903 1.510 . S
C913 H911 0.959 . S
C913 H912 0.961 . S
C913 H914 0.960 . S
H914 C913 0.960 . S
H915 N895 0.862 . S
O916 Co884 1.920 . S
O916 C889 1.289 . S
C917 O909 1.258 . S
C917 O910 1.266 . S
Co918 O921 1.970 . S
Co918 N935 1.989 . S
Co918 O943 1.967 . S
Co918 O950 1.920 . S
Co919 O922 1.966 . S
Co919 N928 2.022 . S
Co919 N936 1.993 . S
Co919 O944 1.941 . S
C920 O921 1.258 . S
C920 O922 1.263 . S
O921 Co918 1.970 . S
O921 C920 1.258 . S
O922 Co919 1.966 . S
O922 C920 1.263 . S
C923 O924 1.235 . S
C923 O950 1.289 . S
O924 C923 1.235 . S
C925 C927 1.400 . S
C925 N928 1.351 . S
C925 C930 1.501 . S
C926 C927 1.387 . S
C926 N929 1.341 . S
C927 C925 1.400 . S
C927 C926 1.387 . S
N928 Co919 2.022 . S
N928 C925 1.351 . S
N928 N929 1.365 . S
N929 C926 1.341 . S
N929 N928 1.365 . S
N929 H949 0.862 . S
C930 C925 1.501 . S
C930 H931 0.961 . S
C930 H932 0.961 . S
C930 H933 0.960 . S
H931 C930 0.961 . S
H932 C930 0.961 . S
H933 C930 0.960 . S
C934 N935 1.342 . S
C934 C938 1.401 . S
C934 C939 1.499 . S
N935 Co918 1.989 . S
N935 C934 1.342 . S
N935 N936 1.388 . S
N936 Co919 1.993 . S
N936 N935 1.388 . S
N936 C937 1.346 . S
C937 N936 1.346 . S
C937 C938 1.396 . S
C937 C947 1.510 . S
C938 C934 1.401 . S
C938 C937 1.396 . S
C939 C934 1.499 . S
C939 H940 0.959 . S
C939 H941 0.960 . S
C939 H942 0.961 . S
H940 C939 0.959 . S
H941 C939 0.960 . S
H942 C939 0.961 . S
O943 Co918 1.967 . S
O943 C951 1.258 . S
O944 Co919 1.941 . S
O944 C951 1.266 . S
H945 C947 0.959 . S
H946 C947 0.961 . S
C947 C937 1.510 . S
C947 H945 0.959 . S
C947 H946 0.961 . S
C947 H948 0.960 . S
H948 C947 0.960 . S
H949 N929 0.862 . S
O950 Co918 1.920 . S
O950 C923 1.289 . S
C951 O943 1.258 . S
C951 O944 1.266 . S
Co952 O955 1.970 . S
Co952 N969 1.989 . S
Co952 O977 1.967 . S
Co952 O984 1.920 . S
Co953 O956 1.966 . S
Co953 N962 2.022 . S
Co953 N970 1.993 . S
Co953 O978 1.941 . S
C954 O955 1.258 . S
C954 O956 1.263 . S
O955 Co952 1.970 . S
O955 C954 1.258 . S
O956 Co953 1.966 . S
O956 C954 1.263 . S
C957 O958 1.235 . S
C957 O984 1.289 . S
O958 C957 1.235 . S
C959 C961 1.400 . S
C959 N962 1.351 . S
C959 C964 1.501 . S
C960 C961 1.387 . S
C960 N963 1.341 . S
C961 C959 1.400 . S
C961 C960 1.387 . S
N962 Co953 2.022 . S
N962 C959 1.351 . S
N962 N963 1.365 . S
N963 C960 1.341 . S
N963 N962 1.365 . S
N963 H983 0.862 . S
C964 C959 1.501 . S
C964 H965 0.961 . S
C964 H966 0.961 . S
C964 H967 0.960 . S
H965 C964 0.961 . S
H966 C964 0.961 . S
H967 C964 0.960 . S
C968 N969 1.342 . S
C968 C972 1.401 . S
C968 C973 1.499 . S
N969 Co952 1.989 . S
N969 C968 1.342 . S
N969 N970 1.388 . S
N970 Co953 1.993 . S
N970 N969 1.388 . S
N970 C971 1.346 . S
C971 N970 1.346 . S
C971 C972 1.396 . S
C971 C981 1.510 . S
C972 C968 1.401 . S
C972 C971 1.396 . S
C973 C968 1.499 . S
C973 H974 0.959 . S
C973 H975 0.960 . S
C973 H976 0.961 . S
H974 C973 0.959 . S
H975 C973 0.960 . S
H976 C973 0.961 . S
O977 Co952 1.967 . S
O977 C985 1.258 . S
O978 Co953 1.941 . S
O978 C985 1.266 . S
H979 C981 0.959 . S
H980 C981 0.961 . S
C981 C971 1.510 . S
C981 H979 0.959 . S
C981 H980 0.961 . S
C981 H982 0.960 . S
H982 C981 0.960 . S
H983 N963 0.862 . S
O984 Co952 1.920 . S
O984 C957 1.289 . S
C985 O977 1.258 . S
C985 O978 1.266 . S
Co986 O989 1.970 . S
Co986 N1003 1.989 . S
Co986 O1011 1.967 . S
Co986 O1018 1.920 . S
Co987 O990 1.966 . S
Co987 N996 2.022 . S
Co987 N1004 1.993 . S
Co987 O1012 1.941 . S
C988 O989 1.258 . S
C988 O990 1.263 . S
O989 Co986 1.970 . S
O989 C988 1.258 . S
O990 Co987 1.966 . S
O990 C988 1.263 . S
C991 O992 1.235 . S
C991 O1018 1.289 . S
O992 C991 1.235 . S
C993 C995 1.400 . S
C993 N996 1.351 . S
C993 C998 1.501 . S
C994 C995 1.387 . S
C994 N997 1.341 . S
C995 C993 1.400 . S
C995 C994 1.387 . S
N996 Co987 2.022 . S
N996 C993 1.351 . S
N996 N997 1.365 . S
N997 C994 1.341 . S
N997 N996 1.365 . S
N997 H1017 0.862 . S
C998 C993 1.501 . S
C998 H999 0.961 . S
C998 H1000 0.961 . S
C998 H1001 0.960 . S
H999 C998 0.961 . S
H1000 C998 0.961 . S
H1001 C998 0.960 . S
C1002 N1003 1.342 . S
C1002 C1006 1.401 . S
C1002 C1007 1.499 . S
N1003 Co986 1.989 . S
N1003 C1002 1.342 . S
N1003 N1004 1.388 . S
N1004 Co987 1.993 . S
N1004 N1003 1.388 . S
N1004 C1005 1.346 . S
C1005 N1004 1.346 . S
C1005 C1006 1.396 . S
C1005 C1015 1.510 . S
C1006 C1002 1.401 . S
C1006 C1005 1.396 . S
C1007 C1002 1.499 . S
C1007 H1008 0.959 . S
C1007 H1009 0.960 . S
C1007 H1010 0.961 . S
H1008 C1007 0.959 . S
H1009 C1007 0.960 . S
H1010 C1007 0.961 . S
O1011 Co986 1.967 . S
O1011 C1019 1.258 . S
O1012 Co987 1.941 . S
O1012 C1019 1.266 . S
H1013 C1015 0.959 . S
H1014 C1015 0.961 . S
C1015 C1005 1.510 . S
C1015 H1013 0.959 . S
C1015 H1014 0.961 . S
C1015 H1016 0.960 . S
H1016 C1015 0.960 . S
H1017 N997 0.862 . S
O1018 Co986 1.920 . S
O1018 C991 1.289 . S
C1019 O1011 1.258 . S
C1019 O1012 1.266 . S
Co1020 O1023 1.970 . S
Co1020 N1037 1.989 . S
Co1020 O1045 1.967 . S
Co1020 O1052 1.920 . S
Co1021 O1024 1.966 . S
Co1021 N1030 2.022 . S
Co1021 N1038 1.993 . S
Co1021 O1046 1.941 . S
C1022 O1023 1.258 . S
C1022 O1024 1.263 . S
O1023 Co1020 1.970 . S
O1023 C1022 1.258 . S
O1024 Co1021 1.966 . S
O1024 C1022 1.263 . S
C1025 O1026 1.235 . S
C1025 O1052 1.289 . S
O1026 C1025 1.235 . S
C1027 C1029 1.400 . S
C1027 N1030 1.351 . S
C1027 C1032 1.501 . S
C1028 C1029 1.387 . S
C1028 N1031 1.341 . S
C1029 C1027 1.400 . S
C1029 C1028 1.387 . S
N1030 Co1021 2.022 . S
N1030 C1027 1.351 . S
N1030 N1031 1.365 . S
N1031 C1028 1.341 . S
N1031 N1030 1.365 . S
N1031 H1051 0.862 . S
C1032 C1027 1.501 . S
C1032 H1033 0.961 . S
C1032 H1034 0.961 . S
C1032 H1035 0.960 . S
H1033 C1032 0.961 . S
H1034 C1032 0.961 . S
H1035 C1032 0.960 . S
C1036 N1037 1.342 . S
C1036 C1040 1.401 . S
C1036 C1041 1.499 . S
N1037 Co1020 1.989 . S
N1037 C1036 1.342 . S
N1037 N1038 1.388 . S
N1038 Co1021 1.993 . S
N1038 N1037 1.388 . S
N1038 C1039 1.346 . S
C1039 N1038 1.346 . S
C1039 C1040 1.396 . S
C1039 C1049 1.510 . S
C1040 C1036 1.401 . S
C1040 C1039 1.396 . S
C1041 C1036 1.499 . S
C1041 H1042 0.959 . S
C1041 H1043 0.960 . S
C1041 H1044 0.961 . S
H1042 C1041 0.959 . S
H1043 C1041 0.960 . S
H1044 C1041 0.961 . S
O1045 Co1020 1.967 . S
O1045 C1053 1.258 . S
O1046 Co1021 1.941 . S
O1046 C1053 1.266 . S
H1047 C1049 0.959 . S
H1048 C1049 0.961 . S
C1049 C1039 1.510 . S
C1049 H1047 0.959 . S
C1049 H1048 0.961 . S
C1049 H1050 0.960 . S
H1050 C1049 0.960 . S
H1051 N1031 0.862 . S
O1052 Co1020 1.920 . S
O1052 C1025 1.289 . S
C1053 O1045 1.258 . S
C1053 O1046 1.266 . S
Co1054 O1057 1.970 . S
Co1054 N1071 1.989 . S
Co1054 O1079 1.967 . S
Co1054 O1086 1.920 . S
Co1055 O1058 1.966 . S
Co1055 N1064 2.022 . S
Co1055 N1072 1.993 . S
Co1055 O1080 1.941 . S
C1056 O1057 1.258 . S
C1056 O1058 1.263 . S
O1057 Co1054 1.970 . S
O1057 C1056 1.258 . S
O1058 Co1055 1.966 . S
O1058 C1056 1.263 . S
C1059 O1060 1.235 . S
C1059 O1086 1.289 . S
O1060 C1059 1.235 . S
C1061 C1063 1.400 . S
C1061 N1064 1.351 . S
C1061 C1066 1.501 . S
C1062 C1063 1.387 . S
C1062 N1065 1.341 . S
C1063 C1061 1.400 . S
C1063 C1062 1.387 . S
N1064 Co1055 2.022 . S
N1064 C1061 1.351 . S
N1064 N1065 1.365 . S
N1065 C1062 1.341 . S
N1065 N1064 1.365 . S
N1065 H1085 0.862 . S
C1066 C1061 1.501 . S
C1066 H1067 0.961 . S
C1066 H1068 0.961 . S
C1066 H1069 0.960 . S
H1067 C1066 0.961 . S
H1068 C1066 0.961 . S
H1069 C1066 0.960 . S
C1070 N1071 1.342 . S
C1070 C1074 1.401 . S
C1070 C1075 1.499 . S
N1071 Co1054 1.989 . S
N1071 C1070 1.342 . S
N1071 N1072 1.388 . S
N1072 Co1055 1.993 . S
N1072 N1071 1.388 . S
N1072 C1073 1.346 . S
C1073 N1072 1.346 . S
C1073 C1074 1.396 . S
C1073 C1083 1.510 . S
C1074 C1070 1.401 . S
C1074 C1073 1.396 . S
C1075 C1070 1.499 . S
C1075 H1076 0.959 . S
C1075 H1077 0.960 . S
C1075 H1078 0.961 . S
H1076 C1075 0.959 . S
H1077 C1075 0.960 . S
H1078 C1075 0.961 . S
O1079 Co1054 1.967 . S
O1079 C1087 1.258 . S
O1080 Co1055 1.941 . S
O1080 C1087 1.266 . S
H1081 C1083 0.959 . S
H1082 C1083 0.961 . S
C1083 C1073 1.510 . S
C1083 H1081 0.959 . S
C1083 H1082 0.961 . S
C1083 H1084 0.960 . S
H1084 C1083 0.960 . S
H1085 N1065 0.862 . S
O1086 Co1054 1.920 . S
O1086 C1059 1.289 . S
C1087 O1079 1.258 . S
C1087 O1080 1.266 . S
Co1088 O1091 1.970 . S
Co1088 N1105 1.989 . S
Co1088 O1113 1.967 . S
Co1088 O1120 1.920 . S
Co1089 O1092 1.966 . S
Co1089 N1098 2.022 . S
Co1089 N1106 1.993 . S
Co1089 O1114 1.941 . S
C1090 O1091 1.258 . S
C1090 O1092 1.263 . S
O1091 Co1088 1.970 . S
O1091 C1090 1.258 . S
O1092 Co1089 1.966 . S
O1092 C1090 1.263 . S
C1093 O1094 1.235 . S
C1093 O1120 1.289 . S
O1094 C1093 1.235 . S
C1095 C1097 1.400 . S
C1095 N1098 1.351 . S
C1095 C1100 1.501 . S
C1096 C1097 1.387 . S
C1096 N1099 1.341 . S
C1097 C1095 1.400 . S
C1097 C1096 1.387 . S
N1098 Co1089 2.022 . S
N1098 C1095 1.351 . S
N1098 N1099 1.365 . S
N1099 C1096 1.341 . S
N1099 N1098 1.365 . S
N1099 H1119 0.862 . S
C1100 C1095 1.501 . S
C1100 H1101 0.961 . S
C1100 H1102 0.961 . S
C1100 H1103 0.960 . S
H1101 C1100 0.961 . S
H1102 C1100 0.961 . S
H1103 C1100 0.960 . S
C1104 N1105 1.342 . S
C1104 C1108 1.401 . S
C1104 C1109 1.499 . S
N1105 Co1088 1.989 . S
N1105 C1104 1.342 . S
N1105 N1106 1.388 . S
N1106 Co1089 1.993 . S
N1106 N1105 1.388 . S
N1106 C1107 1.346 . S
C1107 N1106 1.346 . S
C1107 C1108 1.396 . S
C1107 C1117 1.510 . S
C1108 C1104 1.401 . S
C1108 C1107 1.396 . S
C1109 C1104 1.499 . S
C1109 H1110 0.959 . S
C1109 H1111 0.960 . S
C1109 H1112 0.961 . S
H1110 C1109 0.959 . S
H1111 C1109 0.960 . S
H1112 C1109 0.961 . S
O1113 Co1088 1.967 . S
O1113 C1121 1.258 . S
O1114 Co1089 1.941 . S
O1114 C1121 1.266 . S
H1115 C1117 0.959 . S
H1116 C1117 0.961 . S
C1117 C1107 1.510 . S
C1117 H1115 0.959 . S
C1117 H1116 0.961 . S
C1117 H1118 0.960 . S
H1118 C1117 0.960 . S
H1119 N1099 0.862 . S
O1120 Co1088 1.920 . S
O1120 C1093 1.289 . S
C1121 O1113 1.258 . S
C1121 O1114 1.266 . S
Co1122 O1125 1.970 . S
Co1122 N1139 1.989 . S
Co1122 O1147 1.967 . S
Co1122 O1154 1.920 . S
Co1123 O1126 1.966 . S
Co1123 N1132 2.022 . S
Co1123 N1140 1.993 . S
Co1123 O1148 1.941 . S
C1124 O1125 1.258 . S
C1124 O1126 1.263 . S
O1125 Co1122 1.970 . S
O1125 C1124 1.258 . S
O1126 Co1123 1.966 . S
O1126 C1124 1.263 . S
C1127 O1128 1.235 . S
C1127 O1154 1.289 . S
O1128 C1127 1.235 . S
C1129 C1131 1.400 . S
C1129 N1132 1.351 . S
C1129 C1134 1.501 . S
C1130 C1131 1.387 . S
C1130 N1133 1.341 . S
C1131 C1129 1.400 . S
C1131 C1130 1.387 . S
N1132 Co1123 2.022 . S
N1132 C1129 1.351 . S
N1132 N1133 1.365 . S
N1133 C1130 1.341 . S
N1133 N1132 1.365 . S
N1133 H1153 0.862 . S
C1134 C1129 1.501 . S
C1134 H1135 0.961 . S
C1134 H1136 0.961 . S
C1134 H1137 0.960 . S
H1135 C1134 0.961 . S
H1136 C1134 0.961 . S
H1137 C1134 0.960 . S
C1138 N1139 1.342 . S
C1138 C1142 1.401 . S
C1138 C1143 1.499 . S
N1139 Co1122 1.989 . S
N1139 C1138 1.342 . S
N1139 N1140 1.388 . S
N1140 Co1123 1.993 . S
N1140 N1139 1.388 . S
N1140 C1141 1.346 . S
C1141 N1140 1.346 . S
C1141 C1142 1.396 . S
C1141 C1151 1.510 . S
C1142 C1138 1.401 . S
C1142 C1141 1.396 . S
C1143 C1138 1.499 . S
C1143 H1144 0.959 . S
C1143 H1145 0.960 . S
C1143 H1146 0.961 . S
H1144 C1143 0.959 . S
H1145 C1143 0.960 . S
H1146 C1143 0.961 . S
O1147 Co1122 1.967 . S
O1147 C1155 1.258 . S
O1148 Co1123 1.941 . S
O1148 C1155 1.266 . S
H1149 C1151 0.959 . S
H1150 C1151 0.961 . S
C1151 C1141 1.510 . S
C1151 H1149 0.959 . S
C1151 H1150 0.961 . S
C1151 H1152 0.960 . S
H1152 C1151 0.960 . S
H1153 N1133 0.862 . S
O1154 Co1122 1.920 . S
O1154 C1127 1.289 . S
C1155 O1147 1.258 . S
C1155 O1148 1.266 . S
Co1156 O1159 1.970 . S
Co1156 N1173 1.989 . S
Co1156 O1181 1.967 . S
Co1156 O1188 1.920 . S
Co1157 O1160 1.966 . S
Co1157 N1166 2.022 . S
Co1157 N1174 1.993 . S
Co1157 O1182 1.941 . S
C1158 O1159 1.258 . S
C1158 O1160 1.263 . S
O1159 Co1156 1.970 . S
O1159 C1158 1.258 . S
O1160 Co1157 1.966 . S
O1160 C1158 1.263 . S
C1161 O1162 1.235 . S
C1161 O1188 1.289 . S
O1162 C1161 1.235 . S
C1163 C1165 1.400 . S
C1163 N1166 1.351 . S
C1163 C1168 1.501 . S
C1164 C1165 1.387 . S
C1164 N1167 1.341 . S
C1165 C1163 1.400 . S
C1165 C1164 1.387 . S
N1166 Co1157 2.022 . S
N1166 C1163 1.351 . S
N1166 N1167 1.365 . S
N1167 C1164 1.341 . S
N1167 N1166 1.365 . S
N1167 H1187 0.862 . S
C1168 C1163 1.501 . S
C1168 H1169 0.961 . S
C1168 H1170 0.961 . S
C1168 H1171 0.960 . S
H1169 C1168 0.961 . S
H1170 C1168 0.961 . S
H1171 C1168 0.960 . S
C1172 N1173 1.342 . S
C1172 C1176 1.401 . S
C1172 C1177 1.499 . S
N1173 Co1156 1.989 . S
N1173 C1172 1.342 . S
N1173 N1174 1.388 . S
N1174 Co1157 1.993 . S
N1174 N1173 1.388 . S
N1174 C1175 1.346 . S
C1175 N1174 1.346 . S
C1175 C1176 1.396 . S
C1175 C1185 1.510 . S
C1176 C1172 1.401 . S
C1176 C1175 1.396 . S
C1177 C1172 1.499 . S
C1177 H1178 0.959 . S
C1177 H1179 0.960 . S
C1177 H1180 0.961 . S
H1178 C1177 0.959 . S
H1179 C1177 0.960 . S
H1180 C1177 0.961 . S
O1181 Co1156 1.967 . S
O1181 C1189 1.258 . S
O1182 Co1157 1.941 . S
O1182 C1189 1.266 . S
H1183 C1185 0.959 . S
H1184 C1185 0.961 . S
C1185 C1175 1.510 . S
C1185 H1183 0.959 . S
C1185 H1184 0.961 . S
C1185 H1186 0.960 . S
H1186 C1185 0.960 . S
H1187 N1167 0.862 . S
O1188 Co1156 1.920 . S
O1188 C1161 1.289 . S
C1189 O1181 1.258 . S
C1189 O1182 1.266 . S
Co1190 O1193 1.970 . S
Co1190 N1207 1.989 . S
Co1190 O1215 1.967 . S
Co1190 O1222 1.920 . S
Co1191 O1194 1.966 . S
Co1191 N1200 2.022 . S
Co1191 N1208 1.993 . S
Co1191 O1216 1.941 . S
C1192 O1193 1.258 . S
C1192 O1194 1.263 . S
O1193 Co1190 1.970 . S
O1193 C1192 1.258 . S
O1194 Co1191 1.966 . S
O1194 C1192 1.263 . S
C1195 O1196 1.235 . S
C1195 O1222 1.289 . S
O1196 C1195 1.235 . S
C1197 C1199 1.400 . S
C1197 N1200 1.351 . S
C1197 C1202 1.501 . S
C1198 C1199 1.387 . S
C1198 N1201 1.341 . S
C1199 C1197 1.400 . S
C1199 C1198 1.387 . S
N1200 Co1191 2.022 . S
N1200 C1197 1.351 . S
N1200 N1201 1.365 . S
N1201 C1198 1.341 . S
N1201 N1200 1.365 . S
N1201 H1221 0.862 . S
C1202 C1197 1.501 . S
C1202 H1203 0.961 . S
C1202 H1204 0.961 . S
C1202 H1205 0.960 . S
H1203 C1202 0.961 . S
H1204 C1202 0.961 . S
H1205 C1202 0.960 . S
C1206 N1207 1.342 . S
C1206 C1210 1.401 . S
C1206 C1211 1.499 . S
N1207 Co1190 1.989 . S
N1207 C1206 1.342 . S
N1207 N1208 1.388 . S
N1208 Co1191 1.993 . S
N1208 N1207 1.388 . S
N1208 C1209 1.346 . S
C1209 N1208 1.346 . S
C1209 C1210 1.396 . S
C1209 C1219 1.510 . S
C1210 C1206 1.401 . S
C1210 C1209 1.396 . S
C1211 C1206 1.499 . S
C1211 H1212 0.959 . S
C1211 H1213 0.960 . S
C1211 H1214 0.961 . S
H1212 C1211 0.959 . S
H1213 C1211 0.960 . S
H1214 C1211 0.961 . S
O1215 Co1190 1.967 . S
O1215 C1223 1.258 . S
O1216 Co1191 1.941 . S
O1216 C1223 1.266 . S
H1217 C1219 0.959 . S
H1218 C1219 0.961 . S
C1219 C1209 1.510 . S
C1219 H1217 0.959 . S
C1219 H1218 0.961 . S
C1219 H1220 0.960 . S
H1220 C1219 0.960 . S
H1221 N1201 0.862 . S
O1222 Co1190 1.920 . S
O1222 C1195 1.289 . S
C1223 O1215 1.258 . S
C1223 O1216 1.266 . S
H1224 C1232 0.929 . S
H1225 C1234 0.930 . S
H1226 C1236 0.930 . S
H1227 C1239 0.929 . S
H1228 C1242 0.930 . S
H1229 C1244 0.960 . S
H1230 C1244 0.960 . S
H1231 C1244 0.960 . S
C1232 H1224 0.929 . S
C1232 C1233 1.377 . S
C1232 C1234 1.384 . S
C1233 C1232 1.377 . S
C1233 C1239 1.390 . S
C1234 H1225 0.930 . S
C1234 C1232 1.384 . S
C1234 C1235 1.372 . S
C1235 C1234 1.372 . S
C1235 C1236 1.400 . S
C1235 C1240 1.490 . S
C1236 H1226 0.930 . S
C1236 C1235 1.400 . S
C1236 C1239 1.386 . S
H1237 C1253 0.930 . S
H1238 C1254 0.931 . S
C1239 H1227 0.929 . S
C1239 C1233 1.390 . S
C1239 C1236 1.386 . S
C1240 C1235 1.490 . S
C1240 C1242 1.395 . S
C1240 C1243 1.403 . S
H1241 C1247 0.930 . S
C1242 H1228 0.930 . S
C1242 C1240 1.395 . S
C1242 C1245 1.403 . S
C1243 C1240 1.403 . S
C1243 C1244 1.524 . S
C1243 C1247 1.400 . S
C1244 H1229 0.960 . S
C1244 H1230 0.960 . S
C1244 H1231 0.960 . S
C1244 C1243 1.524 . S
C1245 C1242 1.403 . S
C1245 C1246 1.392 . S
C1245 C1249 1.495 . S
C1246 C1245 1.392 . S
C1246 C1247 1.385 . S
C1246 C1248 1.478 . S
C1247 H1241 0.930 . S
C1247 C1243 1.400 . S
C1247 C1246 1.385 . S
C1248 C1246 1.478 . S
C1248 C1250 1.381 . S
C1248 C1254 1.383 . S
C1249 C1245 1.495 . S
C1249 H1255 0.959 . S
C1249 H1256 0.961 . S
C1249 H1257 0.960 . S
C1250 C1248 1.381 . S
C1250 C1251 1.394 . S
C1250 H1258 0.930 . S
C1251 C1250 1.394 . S
C1251 C1252 1.383 . S
C1251 H1259 0.929 . S
C1252 C1251 1.383 . S
C1252 C1253 1.377 . S
C1253 H1237 0.930 . S
C1253 C1252 1.377 . S
C1253 C1254 1.379 . S
C1254 H1238 0.931 . S
C1254 C1248 1.383 . S
C1254 C1253 1.379 . S
H1255 C1249 0.959 . S
H1256 C1249 0.961 . S
H1257 C1249 0.960 . S
H1258 C1250 0.930 . S
H1259 C1251 0.929 . S
H1260 C1268 0.929 . S
H1261 C1270 0.930 . S
H1262 C1272 0.930 . S
H1263 C1275 0.929 . S
H1264 C1278 0.930 . S
H1265 C1280 0.960 . S
H1266 C1280 0.960 . S
H1267 C1280 0.960 . S
C1268 H1260 0.929 . S
C1268 C1269 1.377 . S
C1268 C1270 1.384 . S
C1269 C1268 1.377 . S
C1269 C1275 1.390 . S
C1270 H1261 0.930 . S
C1270 C1268 1.384 . S
C1270 C1271 1.372 . S
C1271 C1270 1.372 . S
C1271 C1272 1.400 . S
C1271 C1276 1.490 . S
C1272 H1262 0.930 . S
C1272 C1271 1.400 . S
C1272 C1275 1.386 . S
H1273 C1289 0.930 . S
H1274 C1290 0.931 . S
C1275 H1263 0.929 . S
C1275 C1269 1.390 . S
C1275 C1272 1.386 . S
C1276 C1271 1.490 . S
C1276 C1278 1.395 . S
C1276 C1279 1.403 1_545 S
H1277 C1283 0.930 . S
C1278 H1264 0.930 . S
C1278 C1276 1.395 . S
C1278 C1281 1.403 . S
C1279 C1276 1.403 1_565 S
C1279 C1280 1.524 . S
C1279 C1283 1.400 . S
C1280 H1265 0.960 . S
C1280 H1266 0.960 . S
C1280 H1267 0.960 . S
C1280 C1279 1.524 . S
C1281 C1278 1.403 . S
C1281 C1282 1.392 1_545 S
C1281 C1285 1.495 . S
C1282 C1281 1.392 1_565 S
C1282 C1283 1.385 . S
C1282 C1284 1.478 . S
C1283 H1277 0.930 . S
C1283 C1279 1.400 . S
C1283 C1282 1.385 . S
C1284 C1282 1.478 . S
C1284 C1286 1.381 . S
C1284 C1290 1.383 . S
C1285 C1281 1.495 . S
C1285 H1291 0.959 . S
C1285 H1292 0.961 . S
C1285 H1293 0.960 . S
C1286 C1284 1.381 . S
C1286 C1287 1.394 . S
C1286 H1294 0.930 . S
C1287 C1286 1.394 . S
C1287 C1288 1.383 . S
C1287 H1295 0.929 . S
C1288 C1287 1.383 . S
C1288 C1289 1.377 . S
C1289 H1273 0.930 . S
C1289 C1288 1.377 . S
C1289 C1290 1.379 . S
C1290 H1274 0.931 . S
C1290 C1284 1.383 . S
C1290 C1289 1.379 . S
H1291 C1285 0.959 . S
H1292 C1285 0.961 . S
H1293 C1285 0.960 . S
H1294 C1286 0.930 . S
H1295 C1287 0.929 . S
H1296 C1304 0.929 . S
H1297 C1306 0.930 . S
H1298 C1308 0.915 1_655 S
H1299 C1311 0.929 1_655 S
H1300 C1314 0.930 . S
H1301 C1316 0.960 . S
H1302 C1316 0.960 . S
H1303 C1316 0.960 . S
C1304 H1296 0.929 . S
C1304 C1305 1.377 . S
C1304 C1306 1.384 . S
C1305 C1304 1.377 . S
C1305 C1311 1.390 . S
C1306 H1297 0.930 . S
C1306 C1304 1.384 . S
C1306 C1307 1.372 . S
C1307 C1306 1.372 . S
C1307 C1308 1.407 . S
C1307 C1312 1.490 . S
C1308 H1298 0.915 1_455 S
C1308 C1307 1.407 . S
C1308 C1311 1.396 . S
H1309 C1325 0.930 . S
H1310 C1326 0.931 . S
C1311 H1299 0.929 1_455 S
C1311 C1305 1.390 . S
C1311 C1308 1.396 . S
C1312 C1307 1.490 . S
C1312 C1314 1.395 . S
C1312 C1315 1.403 1_455 S
H1313 C1319 0.930 . S
C1314 H1300 0.930 . S
C1314 C1312 1.395 . S
C1314 C1317 1.403 . S
C1315 C1312 1.403 1_655 S
C1315 C1316 1.524 . S
C1315 C1319 1.400 . S
C1316 H1301 0.960 . S
C1316 H1302 0.960 . S
C1316 H1303 0.960 . S
C1316 C1315 1.524 . S
C1317 C1314 1.403 . S
C1317 C1318 1.392 1_455 S
C1317 C1321 1.495 . S
C1318 C1317 1.392 1_655 S
C1318 C1319 1.385 . S
C1318 C1320 1.478 . S
C1319 H1313 0.930 . S
C1319 C1315 1.400 . S
C1319 C1318 1.385 . S
C1320 C1318 1.478 . S
C1320 C1322 1.381 1_655 S
C1320 C1326 1.383 . S
C1321 C1317 1.495 . S
C1321 H1327 0.959 . S
C1321 H1328 0.961 . S
C1321 H1329 0.960 . S
C1322 C1320 1.381 1_455 S
C1322 C1323 1.394 1_455 S
C1322 H1330 0.930 . S
C1323 C1322 1.394 1_655 S
C1323 C1324 1.383 . S
C1323 H1331 0.929 1_655 S
C1324 C1323 1.383 . S
C1324 C1325 1.377 . S
C1325 H1309 0.930 . S
C1325 C1324 1.377 . S
C1325 C1326 1.379 . S
C1326 H1310 0.931 . S
C1326 C1320 1.383 . S
C1326 C1325 1.379 . S
H1327 C1321 0.959 . S
H1328 C1321 0.961 . S
H1329 C1321 0.960 . S
H1330 C1322 0.930 . S
H1331 C1323 0.929 1_455 S
H1332 C1340 0.929 . S
H1333 C1342 0.930 . S
H1334 C1344 0.930 . S
H1335 C1347 0.929 . S
H1336 C1350 0.930 . S
H1337 C1352 0.960 . S
H1338 C1352 0.960 . S
H1339 C1352 0.960 . S
C1340 H1332 0.929 . S
C1340 C1341 1.377 . S
C1340 C1342 1.384 . S
C1341 C1340 1.377 . S
C1341 C1347 1.390 . S
C1342 H1333 0.930 . S
C1342 C1340 1.384 . S
C1342 C1343 1.372 . S
C1343 C1342 1.372 . S
C1343 C1344 1.400 . S
C1343 C1348 1.490 . S
C1344 H1334 0.930 . S
C1344 C1343 1.400 . S
C1344 C1347 1.386 . S
H1345 C1361 0.930 . S
H1346 C1362 0.931 . S
C1347 H1335 0.929 . S
C1347 C1341 1.390 . S
C1347 C1344 1.386 . S
C1348 C1343 1.490 . S
C1348 C1350 1.395 . S
C1348 C1351 1.403 . S
H1349 C1355 0.930 . S
C1350 H1336 0.930 . S
C1350 C1348 1.395 . S
C1350 C1353 1.403 . S
C1351 C1348 1.403 . S
C1351 C1352 1.524 . S
C1351 C1355 1.400 . S
C1352 H1337 0.960 . S
C1352 H1338 0.960 . S
C1352 H1339 0.960 . S
C1352 C1351 1.524 . S
C1353 C1350 1.403 . S
C1353 C1354 1.392 . S
C1353 C1357 1.495 . S
C1354 C1353 1.392 . S
C1354 C1355 1.385 . S
C1354 C1356 1.478 . S
C1355 H1349 0.930 . S
C1355 C1351 1.400 . S
C1355 C1354 1.385 . S
C1356 C1354 1.478 . S
C1356 C1358 1.381 . S
C1356 C1362 1.383 . S
C1357 C1353 1.495 . S
C1357 H1363 0.959 . S
C1357 H1364 0.961 . S
C1357 H1365 0.960 . S
C1358 C1356 1.381 . S
C1358 C1359 1.394 . S
C1358 H1366 0.930 . S
C1359 C1358 1.394 . S
C1359 C1360 1.383 . S
C1359 H1367 0.929 . S
C1360 C1359 1.383 . S
C1360 C1361 1.377 . S
C1361 H1345 0.930 . S
C1361 C1360 1.377 . S
C1361 C1362 1.379 . S
C1362 H1346 0.931 . S
C1362 C1356 1.383 . S
C1362 C1361 1.379 . S
H1363 C1357 0.959 . S
H1364 C1357 0.961 . S
H1365 C1357 0.960 . S
H1366 C1358 0.930 . S
H1367 C1359 0.929 . S
H1368 C1376 0.929 . S
H1369 C1378 0.930 1_545 S
H1370 C1380 0.930 . S
H1371 C1383 0.929 . S
H1372 C1386 0.930 . S
H1373 C1388 0.960 . S
H1374 C1388 0.960 . S
H1375 C1388 0.960 . S
C1376 H1368 0.929 . S
C1376 C1377 1.377 . S
C1376 C1378 1.384 . S
C1377 C1376 1.377 . S
C1377 C1383 1.390 . S
C1378 H1369 0.930 1_565 S
C1378 C1376 1.384 . S
C1378 C1379 1.372 . S
C1379 C1378 1.372 . S
C1379 C1380 1.400 . S
C1379 C1384 1.490 . S
C1380 H1370 0.930 . S
C1380 C1379 1.400 . S
C1380 C1383 1.386 . S
H1381 C1397 0.930 . S
H1382 C1398 0.931 . S
C1383 H1371 0.929 . S
C1383 C1377 1.390 . S
C1383 C1380 1.386 . S
C1384 C1379 1.490 . S
C1384 C1386 1.395 1_565 S
C1384 C1387 1.403 . S
H1385 C1391 0.930 . S
C1386 H1372 0.930 . S
C1386 C1384 1.395 1_545 S
C1386 C1389 1.403 . S
C1387 C1384 1.403 . S
C1387 C1388 1.524 . S
C1387 C1391 1.400 . S
C1388 H1373 0.960 . S
C1388 H1374 0.960 . S
C1388 H1375 0.960 . S
C1388 C1387 1.524 . S
C1389 C1386 1.403 . S
C1389 C1390 1.392 . S
C1389 C1393 1.495 . S
C1390 C1389 1.392 . S
C1390 C1391 1.385 1_545 S
C1390 C1392 1.478 . S
C1391 H1385 0.930 . S
C1391 C1387 1.400 . S
C1391 C1390 1.385 1_565 S
C1392 C1390 1.478 . S
C1392 C1394 1.381 . S
C1392 C1398 1.383 . S
C1393 C1389 1.495 . S
C1393 H1399 0.959 . S
C1393 H1400 0.961 . S
C1393 H1401 0.960 . S
C1394 C1392 1.381 . S
C1394 C1395 1.394 . S
C1394 H1402 0.930 . S
C1395 C1394 1.394 . S
C1395 C1396 1.383 . S
C1395 H1403 0.929 . S
C1396 C1395 1.383 . S
C1396 C1397 1.377 . S
C1397 H1381 0.930 . S
C1397 C1396 1.377 . S
C1397 C1398 1.379 . S
C1398 H1382 0.931 . S
C1398 C1392 1.383 . S
C1398 C1397 1.379 . S
H1399 C1393 0.959 . S
H1400 C1393 0.961 . S
H1401 C1393 0.960 . S
H1402 C1394 0.930 . S
H1403 C1395 0.929 . S
H1404 C1412 0.929 . S
H1405 C1414 0.930 . S
H1406 C1416 0.930 . S
H1407 C1419 0.929 . S
H1408 C1422 0.930 . S
H1409 C1424 0.960 . S
H1410 C1424 0.960 . S
H1411 C1424 0.960 . S
C1412 H1404 0.929 . S
C1412 C1413 1.377 . S
C1412 C1414 1.384 . S
C1413 C1412 1.377 . S
C1413 C1419 1.390 . S
C1414 H1405 0.930 . S
C1414 C1412 1.384 . S
C1414 C1415 1.372 . S
C1415 C1414 1.372 . S
C1415 C1416 1.400 . S
C1415 C1420 1.490 . S
C1416 H1406 0.930 . S
C1416 C1415 1.400 . S
C1416 C1419 1.386 . S
H1417 C1433 0.930 . S
H1418 C1434 0.931 . S
C1419 H1407 0.929 . S
C1419 C1413 1.390 . S
C1419 C1416 1.386 . S
C1420 C1415 1.490 . S
C1420 C1422 1.395 1_655 S
C1420 C1423 1.403 . S
H1421 C1427 0.930 . S
C1422 H1408 0.930 . S
C1422 C1420 1.395 1_455 S
C1422 C1425 1.403 . S
C1423 C1420 1.403 . S
C1423 C1424 1.524 . S
C1423 C1427 1.400 . S
C1424 H1409 0.960 . S
C1424 H1410 0.960 . S
C1424 H1411 0.960 . S
C1424 C1423 1.524 . S
C1425 C1422 1.403 . S
C1425 C1426 1.392 . S
C1425 C1429 1.495 . S
C1426 C1425 1.392 . S
C1426 C1427 1.385 1_455 S
C1426 C1428 1.478 . S
C1427 H1421 0.930 . S
C1427 C1423 1.400 . S
C1427 C1426 1.385 1_655 S
C1428 C1426 1.478 . S
C1428 C1430 1.381 . S
C1428 C1434 1.383 . S
C1429 C1425 1.495 . S
C1429 H1435 0.959 . S
C1429 H1436 0.961 . S
C1429 H1437 0.960 . S
C1430 C1428 1.381 . S
C1430 C1431 1.394 . S
C1430 H1438 0.930 . S
C1431 C1430 1.394 . S
C1431 C1432 1.383 . S
C1431 H1439 0.929 . S
C1432 C1431 1.383 . S
C1432 C1433 1.377 . S
C1433 H1417 0.930 . S
C1433 C1432 1.377 . S
C1433 C1434 1.379 . S
C1434 H1418 0.931 . S
C1434 C1428 1.383 . S
C1434 C1433 1.379 . S
H1435 C1429 0.959 . S
H1436 C1429 0.961 . S
H1437 C1429 0.960 . S
H1438 C1430 0.930 . S
H1439 C1431 0.929 . S
H1440 C1448 0.929 . S
H1441 C1450 0.930 . S
H1442 C1452 0.930 . S
H1443 C1455 0.929 . S
H1444 C1458 0.930 . S
H1445 C1460 0.960 . S
H1446 C1460 0.960 . S
H1447 C1460 0.960 . S
C1448 H1440 0.929 . S
C1448 C1449 1.377 . S
C1448 C1450 1.384 . S
C1449 C1448 1.377 . S
C1449 C1455 1.390 . S
C1450 H1441 0.930 . S
C1450 C1448 1.384 . S
C1450 C1451 1.372 . S
C1451 C1450 1.372 . S
C1451 C1452 1.400 . S
C1451 C1456 1.490 . S
C1452 H1442 0.930 . S
C1452 C1451 1.400 . S
C1452 C1455 1.386 . S
H1453 C1469 0.930 . S
H1454 C1470 0.931 . S
C1455 H1443 0.929 . S
C1455 C1449 1.390 . S
C1455 C1452 1.386 . S
C1456 C1451 1.490 . S
C1456 C1458 1.395 . S
C1456 C1459 1.403 . S
H1457 C1463 0.930 . S
C1458 H1444 0.930 . S
C1458 C1456 1.395 . S
C1458 C1461 1.403 . S
C1459 C1456 1.403 . S
C1459 C1460 1.524 . S
C1459 C1463 1.400 . S
C1460 H1445 0.960 . S
C1460 H1446 0.960 . S
C1460 H1447 0.960 . S
C1460 C1459 1.524 . S
C1461 C1458 1.403 . S
C1461 C1462 1.392 . S
C1461 C1465 1.495 . S
C1462 C1461 1.392 . S
C1462 C1463 1.385 . S
C1462 C1464 1.478 . S
C1463 H1457 0.930 . S
C1463 C1459 1.400 . S
C1463 C1462 1.385 . S
C1464 C1462 1.478 . S
C1464 C1466 1.381 . S
C1464 C1470 1.383 . S
C1465 C1461 1.495 . S
C1465 H1471 0.959 . S
C1465 H1472 0.961 . S
C1465 H1473 0.960 . S
C1466 C1464 1.381 . S
C1466 C1467 1.394 . S
C1466 H1474 0.930 . S
C1467 C1466 1.394 . S
C1467 C1468 1.383 . S
C1467 H1475 0.929 . S
C1468 C1467 1.383 . S
C1468 C1469 1.377 . S
C1469 H1453 0.930 . S
C1469 C1468 1.377 . S
C1469 C1470 1.379 . S
C1470 H1454 0.931 . S
C1470 C1464 1.383 . S
C1470 C1469 1.379 . S
H1471 C1465 0.959 . S
H1472 C1465 0.961 . S
H1473 C1465 0.960 . S
H1474 C1466 0.930 . S
H1475 C1467 0.929 . S
H1476 C1484 0.929 . S
H1477 C1486 0.930 . S
H1478 C1488 0.930 . S
H1479 C1491 0.929 . S
H1480 C1494 0.930 . S
H1481 C1496 0.960 . S
H1482 C1496 0.960 . S
H1483 C1496 0.960 . S
C1484 H1476 0.929 . S
C1484 C1485 1.377 . S
C1484 C1486 1.384 . S
C1485 C1484 1.377 . S
C1485 C1491 1.390 . S
C1486 H1477 0.930 . S
C1486 C1484 1.384 . S
C1486 C1487 1.372 . S
C1487 C1486 1.372 . S
C1487 C1488 1.400 . S
C1487 C1492 1.490 . S
C1488 H1478 0.930 . S
C1488 C1487 1.400 . S
C1488 C1491 1.386 . S
H1489 C1505 0.930 . S
H1490 C1506 0.931 . S
C1491 H1479 0.929 . S
C1491 C1485 1.390 . S
C1491 C1488 1.386 . S
C1492 C1487 1.490 . S
C1492 C1494 1.395 . S
C1492 C1495 1.403 . S
H1493 C1499 0.930 . S
C1494 H1480 0.930 . S
C1494 C1492 1.395 . S
C1494 C1497 1.403 . S
C1495 C1492 1.403 . S
C1495 C1496 1.524 . S
C1495 C1499 1.400 . S
C1496 H1481 0.960 . S
C1496 H1482 0.960 . S
C1496 H1483 0.960 . S
C1496 C1495 1.524 . S
C1497 C1494 1.403 . S
C1497 C1498 1.392 . S
C1497 C1501 1.495 . S
C1498 C1497 1.392 . S
C1498 C1499 1.385 . S
C1498 C1500 1.478 . S
C1499 H1493 0.930 . S
C1499 C1495 1.400 . S
C1499 C1498 1.385 . S
C1500 C1498 1.478 . S
C1500 C1502 1.381 . S
C1500 C1506 1.383 . S
C1501 C1497 1.495 . S
C1501 H1507 0.959 . S
C1501 H1508 0.961 . S
C1501 H1509 0.960 . S
C1502 C1500 1.381 . S
C1502 C1503 1.394 . S
C1502 H1510 0.930 . S
C1503 C1502 1.394 . S
C1503 C1504 1.383 . S
C1503 H1511 0.929 . S
C1504 C1503 1.383 . S
C1504 C1505 1.377 . S
C1505 H1489 0.930 . S
C1505 C1504 1.377 . S
C1505 C1506 1.379 . S
C1506 H1490 0.931 . S
C1506 C1500 1.383 . S
C1506 C1505 1.379 . S
H1507 C1501 0.959 . S
H1508 C1501 0.961 . S
H1509 C1501 0.960 . S
H1510 C1502 0.930 . S
H1511 C1503 0.929 . S
H1512 C1520 0.929 . S
H1513 C1522 0.930 . S
H1514 C1524 0.930 . S
H1515 C1527 0.929 . S
H1516 C1530 0.930 . S
H1517 C1532 0.960 . S
H1518 C1532 0.960 . S
H1519 C1532 0.960 . S
C1520 H1512 0.929 . S
C1520 C1521 1.377 . S
C1520 C1522 1.384 . S
C1521 C1520 1.377 . S
C1521 C1527 1.390 . S
C1522 H1513 0.930 . S
C1522 C1520 1.384 . S
C1522 C1523 1.372 . S
C1523 C1522 1.372 . S
C1523 C1524 1.400 . S
C1523 C1528 1.490 . S
C1524 H1514 0.930 . S
C1524 C1523 1.400 . S
C1524 C1527 1.386 . S
H1525 C1541 0.930 . S
H1526 C1542 0.931 . S
C1527 H1515 0.929 . S
C1527 C1521 1.390 . S
C1527 C1524 1.386 . S
C1528 C1523 1.490 . S
C1528 C1530 1.395 . S
C1528 C1531 1.403 . S
H1529 C1535 0.930 . S
C1530 H1516 0.930 . S
C1530 C1528 1.395 . S
C1530 C1533 1.403 . S
C1531 C1528 1.403 . S
C1531 C1532 1.524 . S
C1531 C1535 1.400 . S
C1532 H1517 0.960 . S
C1532 H1518 0.960 . S
C1532 H1519 0.960 . S
C1532 C1531 1.524 . S
C1533 C1530 1.403 . S
C1533 C1534 1.392 . S
C1533 C1537 1.495 . S
C1534 C1533 1.392 . S
C1534 C1535 1.385 . S
C1534 C1536 1.478 . S
C1535 H1529 0.930 . S
C1535 C1531 1.400 . S
C1535 C1534 1.385 . S
C1536 C1534 1.478 . S
C1536 C1538 1.381 . S
C1536 C1542 1.383 . S
C1537 C1533 1.495 . S
C1537 H1543 0.959 . S
C1537 H1544 0.961 . S
C1537 H1545 0.960 . S
C1538 C1536 1.381 . S
C1538 C1539 1.394 . S
C1538 H1546 0.930 . S
C1539 C1538 1.394 . S
C1539 C1540 1.383 . S
C1539 H1547 0.929 . S
C1540 C1539 1.383 . S
C1540 C1541 1.377 . S
C1541 H1525 0.930 . S
C1541 C1540 1.377 . S
C1541 C1542 1.379 . S
C1542 H1526 0.931 . S
C1542 C1536 1.383 . S
C1542 C1541 1.379 . S
H1543 C1537 0.959 . S
H1544 C1537 0.961 . S
H1545 C1537 0.960 . S
H1546 C1538 0.930 . S
H1547 C1539 0.929 . S
H1548 C1556 0.929 . S
H1549 C1558 0.930 . S
H1550 C1560 0.930 . S
H1551 C1563 0.929 . S
H1552 C1566 0.930 . S
H1553 C1568 0.960 . S
H1554 C1568 0.960 . S
H1555 C1568 0.960 . S
C1556 H1548 0.929 . S
C1556 C1557 1.377 . S
C1556 C1558 1.384 . S
C1557 C1556 1.377 . S
C1557 C1563 1.390 . S
C1558 H1549 0.930 . S
C1558 C1556 1.384 . S
C1558 C1559 1.372 . S
C1559 C1558 1.372 . S
C1559 C1560 1.400 . S
C1559 C1564 1.490 . S
C1560 H1550 0.930 . S
C1560 C1559 1.400 . S
C1560 C1563 1.386 . S
H1561 C1577 0.930 1_556 S
H1562 C1578 0.931 . S
C1563 H1551 0.929 . S
C1563 C1557 1.390 . S
C1563 C1560 1.386 . S
C1564 C1559 1.490 . S
C1564 C1566 1.395 . S
C1564 C1567 1.403 . S
H1565 C1571 0.930 . S
C1566 H1552 0.930 . S
C1566 C1564 1.395 . S
C1566 C1569 1.403 . S
C1567 C1564 1.403 . S
C1567 C1568 1.524 . S
C1567 C1571 1.400 . S
C1568 H1553 0.960 . S
C1568 H1554 0.960 . S
C1568 H1555 0.960 . S
C1568 C1567 1.524 . S
C1569 C1566 1.403 . S
C1569 C1570 1.392 . S
C1569 C1573 1.495 . S
C1570 C1569 1.392 . S
C1570 C1571 1.385 . S
C1570 C1572 1.478 . S
C1571 H1565 0.930 . S
C1571 C1567 1.400 . S
C1571 C1570 1.385 . S
C1572 C1570 1.478 . S
C1572 C1574 1.381 . S
C1572 C1578 1.383 . S
C1573 C1569 1.495 . S
C1573 H1579 0.959 . S
C1573 H1580 0.961 . S
C1573 H1581 0.960 . S
C1574 C1572 1.381 . S
C1574 C1575 1.394 . S
C1574 H1582 0.930 . S
C1575 C1574 1.394 . S
C1575 C1576 1.383 1_554 S
C1575 H1583 0.929 . S
C1576 C1575 1.383 1_556 S
C1576 C1577 1.377 1_556 S
C1577 H1561 0.930 1_554 S
C1577 C1576 1.377 1_554 S
C1577 C1578 1.379 . S
C1578 H1562 0.931 . S
C1578 C1572 1.383 . S
C1578 C1577 1.379 . S
H1579 C1573 0.959 . S
H1580 C1573 0.961 . S
H1581 C1573 0.960 . S
H1582 C1574 0.930 . S
H1583 C1575 0.929 . S
H1584 C1592 0.929 . S
H1585 C1594 0.930 . S
H1586 C1596 0.930 . S
H1587 C1599 0.929 . S
H1588 C1602 0.930 . S
H1589 C1604 0.960 . S
H1590 C1604 0.960 . S
H1591 C1604 0.960 . S
C1592 H1584 0.929 . S
C1592 C1593 1.377 . S
C1592 C1594 1.384 . S
C1593 C1592 1.377 . S
C1593 C1599 1.390 . S
C1594 H1585 0.930 . S
C1594 C1592 1.384 . S
C1594 C1595 1.372 . S
C1595 C1594 1.372 . S
C1595 C1596 1.400 . S
C1595 C1600 1.490 . S
C1596 H1586 0.930 . S
C1596 C1595 1.400 . S
C1596 C1599 1.386 . S
H1597 C1613 0.930 1_556 S
H1598 C1614 0.931 . S
C1599 H1587 0.929 . S
C1599 C1593 1.390 . S
C1599 C1596 1.386 . S
C1600 C1595 1.490 . S
C1600 C1602 1.395 . S
C1600 C1603 1.403 . S
H1601 C1607 0.930 . S
C1602 H1588 0.930 . S
C1602 C1600 1.395 . S
C1602 C1605 1.403 . S
C1603 C1600 1.403 . S
C1603 C1604 1.524 . S
C1603 C1607 1.400 . S
C1604 H1589 0.960 . S
C1604 H1590 0.960 . S
C1604 H1591 0.960 . S
C1604 C1603 1.524 . S
C1605 C1602 1.403 . S
C1605 C1606 1.392 . S
C1605 C1609 1.495 . S
C1606 C1605 1.392 . S
C1606 C1607 1.385 . S
C1606 C1608 1.478 . S
C1607 H1601 0.930 . S
C1607 C1603 1.400 . S
C1607 C1606 1.385 . S
C1608 C1606 1.478 . S
C1608 C1610 1.381 . S
C1608 C1614 1.383 . S
C1609 C1605 1.495 . S
C1609 H1615 0.959 . S
C1609 H1616 0.961 . S
C1609 H1617 0.960 . S
C1610 C1608 1.381 . S
C1610 C1611 1.394 . S
C1610 H1618 0.930 . S
C1611 C1610 1.394 . S
C1611 C1612 1.383 1_554 S
C1611 H1619 0.913 1_554 S
C1612 C1611 1.383 1_556 S
C1612 C1613 1.377 1_556 S
C1613 H1597 0.930 1_554 S
C1613 C1612 1.377 1_554 S
C1613 C1614 1.379 . S
C1614 H1598 0.931 . S
C1614 C1608 1.383 . S
C1614 C1613 1.379 . S
H1615 C1609 0.959 . S
H1616 C1609 0.961 . S
H1617 C1609 0.960 . S
H1618 C1610 0.930 . S
H1619 C1611 0.913 1_556 S
H1620 C1628 0.929 . S
H1621 C1630 0.930 . S
H1622 C1632 0.930 . S
H1623 C1635 0.929 1_556 S
H1624 C1638 0.930 . S
H1625 C1640 0.960 . S
H1626 C1640 0.960 . S
H1627 C1640 0.960 . S
C1628 H1620 0.929 . S
C1628 C1629 1.377 1_554 S
C1628 C1630 1.384 . S
C1629 C1628 1.377 1_556 S
C1629 C1635 1.390 1_556 S
C1630 H1621 0.930 . S
C1630 C1628 1.384 . S
C1630 C1631 1.372 . S
C1631 C1630 1.372 . S
C1631 C1632 1.400 . S
C1631 C1636 1.490 . S
C1632 H1622 0.930 . S
C1632 C1631 1.400 . S
C1632 C1635 1.386 . S
H1633 C1649 0.930 . S
H1634 C1650 0.931 . S
C1635 H1623 0.929 1_554 S
C1635 C1629 1.390 1_554 S
C1635 C1632 1.386 . S
C1636 C1631 1.490 . S
C1636 C1638 1.395 . S
C1636 C1639 1.403 . S
H1637 C1643 0.930 . S
C1638 H1624 0.930 . S
C1638 C1636 1.395 . S
C1638 C1641 1.403 . S
C1639 C1636 1.403 . S
C1639 C1640 1.524 . S
C1639 C1643 1.400 . S
C1640 H1625 0.960 . S
C1640 H1626 0.960 . S
C1640 H1627 0.960 . S
C1640 C1639 1.524 . S
C1641 C1638 1.403 . S
C1641 C1642 1.392 . S
C1641 C1645 1.495 . S
C1642 C1641 1.392 . S
C1642 C1643 1.385 . S
C1642 C1644 1.478 . S
C1643 H1637 0.930 . S
C1643 C1639 1.400 . S
C1643 C1642 1.385 . S
C1644 C1642 1.478 . S
C1644 C1646 1.381 . S
C1644 C1650 1.383 . S
C1645 C1641 1.495 . S
C1645 H1651 0.959 . S
C1645 H1652 0.961 . S
C1645 H1653 0.960 . S
C1646 C1644 1.381 . S
C1646 C1647 1.394 . S
C1646 H1654 0.930 . S
C1647 C1646 1.394 . S
C1647 C1648 1.383 . S
C1647 H1655 0.929 . S
C1648 C1647 1.383 . S
C1648 C1649 1.377 . S
C1649 H1633 0.930 . S
C1649 C1648 1.377 . S
C1649 C1650 1.379 . S
C1650 H1634 0.931 . S
C1650 C1644 1.383 . S
C1650 C1649 1.379 . S
H1651 C1645 0.959 . S
H1652 C1645 0.961 . S
H1653 C1645 0.960 . S
H1654 C1646 0.930 . S
H1655 C1647 0.929 . S
H1656 C1664 0.929 . S
H1657 C1666 0.930 . S
H1658 C1668 0.930 . S
H1659 C1671 0.929 1_554 S
H1660 C1674 0.930 . S
H1661 C1676 0.960 . S
H1662 C1676 0.960 . S
H1663 C1676 0.960 . S
C1664 H1656 0.929 . S
C1664 C1665 1.377 1_556 S
C1664 C1666 1.384 . S
C1665 C1664 1.377 1_554 S
C1665 C1671 1.390 1_554 S
C1666 H1657 0.930 . S
C1666 C1664 1.384 . S
C1666 C1667 1.372 . S
C1667 C1666 1.372 . S
C1667 C1668 1.400 . S
C1667 C1672 1.490 . S
C1668 H1658 0.930 . S
C1668 C1667 1.400 . S
C1668 C1671 1.386 . S
H1669 C1685 0.930 . S
H1670 C1686 0.931 . S
C1671 H1659 0.929 1_556 S
C1671 C1665 1.390 1_556 S
C1671 C1668 1.386 . S
C1672 C1667 1.490 . S
C1672 C1674 1.395 . S
C1672 C1675 1.403 . S
H1673 C1679 0.930 . S
C1674 H1660 0.930 . S
C1674 C1672 1.395 . S
C1674 C1677 1.403 . S
C1675 C1672 1.403 . S
C1675 C1676 1.524 . S
C1675 C1679 1.400 . S
C1676 H1661 0.960 . S
C1676 H1662 0.960 . S
C1676 H1663 0.960 . S
C1676 C1675 1.524 . S
C1677 C1674 1.403 . S
C1677 C1678 1.392 . S
C1677 C1681 1.495 . S
C1678 C1677 1.392 . S
C1678 C1679 1.385 . S
C1678 C1680 1.478 . S
C1679 H1673 0.930 . S
C1679 C1675 1.400 . S
C1679 C1678 1.385 . S
C1680 C1678 1.478 . S
C1680 C1682 1.381 . S
C1680 C1686 1.383 . S
C1681 C1677 1.495 . S
C1681 H1687 0.959 . S
C1681 H1688 0.961 . S
C1681 H1689 0.960 . S
C1682 C1680 1.381 . S
C1682 C1683 1.394 . S
C1682 H1690 0.930 . S
C1683 C1682 1.394 . S
C1683 C1684 1.383 . S
C1683 H1691 0.929 . S
C1684 C1683 1.383 . S
C1684 C1685 1.377 . S
C1685 H1669 0.930 . S
C1685 C1684 1.377 . S
C1685 C1686 1.379 . S
C1686 H1670 0.931 . S
C1686 C1680 1.383 . S
C1686 C1685 1.379 . S
H1687 C1681 0.959 . S
H1688 C1681 0.961 . S
H1689 C1681 0.960 . S
H1690 C1682 0.930 . S
H1691 C1683 0.929 . S
H1692 C1700 0.921 1_554 S
H1693 C1702 0.930 . S
H1694 C1704 0.930 . S
H1695 C1707 0.914 1_554 S
H1696 C1710 0.930 . S
H1697 C1712 0.960 . S
H1698 C1712 0.960 . S
H1699 C1712 0.960 . S
C1700 H1692 0.921 1_556 S
C1700 C1701 1.377 1_556 S
C1700 C1702 1.384 . S
C1701 C1700 1.377 1_554 S
C1701 C1707 1.390 1_554 S
C1702 H1693 0.930 . S
C1702 C1700 1.384 . S
C1702 C1703 1.372 . S
C1703 C1702 1.372 . S
C1703 C1704 1.400 . S
C1703 C1708 1.490 . S
C1704 H1694 0.930 . S
C1704 C1703 1.400 . S
C1704 C1707 1.386 . S
H1705 C1721 0.930 . S
H1706 C1722 0.931 . S
C1707 H1695 0.914 1_556 S
C1707 C1701 1.390 1_556 S
C1707 C1704 1.386 . S
C1708 C1703 1.490 . S
C1708 C1710 1.395 . S
C1708 C1711 1.403 . S
H1709 C1715 0.930 . S
C1710 H1696 0.930 . S
C1710 C1708 1.395 . S
C1710 C1713 1.403 . S
C1711 C1708 1.403 . S
C1711 C1712 1.524 . S
C1711 C1715 1.400 . S
C1712 H1697 0.960 . S
C1712 H1698 0.960 . S
C1712 H1699 0.960 . S
C1712 C1711 1.524 . S
C1713 C1710 1.403 . S
C1713 C1714 1.392 . S
C1713 C1717 1.495 . S
C1714 C1713 1.392 . S
C1714 C1715 1.385 . S
C1714 C1716 1.478 . S
C1715 H1709 0.930 . S
C1715 C1711 1.400 . S
C1715 C1714 1.385 . S
C1716 C1714 1.478 . S
C1716 C1718 1.381 . S
C1716 C1722 1.383 . S
C1717 C1713 1.495 . S
C1717 H1723 0.959 . S
C1717 H1724 0.961 . S
C1717 H1725 0.960 . S
C1718 C1716 1.381 . S
C1718 C1719 1.394 . S
C1718 H1726 0.930 . S
C1719 C1718 1.394 . S
C1719 C1720 1.383 . S
C1719 H1727 0.929 . S
C1720 C1719 1.383 . S
C1720 C1721 1.377 . S
C1721 H1705 0.930 . S
C1721 C1720 1.377 . S
C1721 C1722 1.379 . S
C1722 H1706 0.931 . S
C1722 C1716 1.383 . S
C1722 C1721 1.379 . S
H1723 C1717 0.959 . S
H1724 C1717 0.961 . S
H1725 C1717 0.960 . S
H1726 C1718 0.930 . S
H1727 C1719 0.929 . S
H1728 C1736 0.929 . S
H1729 C1738 0.930 . S
H1730 C1740 0.930 . S
H1731 C1743 0.929 1_554 S
H1732 C1746 0.930 . S
H1733 C1748 0.960 . S
H1734 C1748 0.960 . S
H1735 C1748 0.960 . S
C1736 H1728 0.929 . S
C1736 C1737 1.377 1_556 S
C1736 C1738 1.384 . S
C1737 C1736 1.377 1_554 S
C1737 C1743 1.390 1_554 S
C1738 H1729 0.930 . S
C1738 C1736 1.384 . S
C1738 C1739 1.372 . S
C1739 C1738 1.372 . S
C1739 C1740 1.400 . S
C1739 C1744 1.490 . S
C1740 H1730 0.930 . S
C1740 C1739 1.400 . S
C1740 C1743 1.386 . S
H1741 C1757 0.930 . S
H1742 C1758 0.931 . S
C1743 H1731 0.929 1_556 S
C1743 C1737 1.390 1_556 S
C1743 C1740 1.386 . S
C1744 C1739 1.490 . S
C1744 C1746 1.395 . S
C1744 C1747 1.403 . S
H1745 C1751 0.930 . S
C1746 H1732 0.930 . S
C1746 C1744 1.395 . S
C1746 C1749 1.403 . S
C1747 C1744 1.403 . S
C1747 C1748 1.524 . S
C1747 C1751 1.400 . S
C1748 H1733 0.960 . S
C1748 H1734 0.960 . S
C1748 H1735 0.960 . S
C1748 C1747 1.524 . S
C1749 C1746 1.403 . S
C1749 C1750 1.392 . S
C1749 C1753 1.495 . S
C1750 C1749 1.392 . S
C1750 C1751 1.385 . S
C1750 C1752 1.478 . S
C1751 H1745 0.930 . S
C1751 C1747 1.400 . S
C1751 C1750 1.385 . S
C1752 C1750 1.478 . S
C1752 C1754 1.381 . S
C1752 C1758 1.383 . S
C1753 C1749 1.495 . S
C1753 H1759 0.959 . S
C1753 H1760 0.961 . S
C1753 H1761 0.960 . S
C1754 C1752 1.381 . S
C1754 C1755 1.394 . S
C1754 H1762 0.930 . S
C1755 C1754 1.394 . S
C1755 C1756 1.383 . S
C1755 H1763 0.929 . S
C1756 C1755 1.383 . S
C1756 C1757 1.377 . S
C1757 H1741 0.930 . S
C1757 C1756 1.377 . S
C1757 C1758 1.379 . S
C1758 H1742 0.931 . S
C1758 C1752 1.383 . S
C1758 C1757 1.379 . S
H1759 C1753 0.959 . S
H1760 C1753 0.961 . S
H1761 C1753 0.960 . S
H1762 C1754 0.930 . S
H1763 C1755 0.929 . S
H1764 C1772 0.929 . S
H1765 C1774 0.930 . S
H1766 C1776 0.930 . S
H1767 C1779 0.929 . S
H1768 C1782 0.930 . S
H1769 C1784 0.960 . S
H1770 C1784 0.960 . S
H1771 C1784 0.960 . S
C1772 H1764 0.929 . S
C1772 C1773 1.377 . S
C1772 C1774 1.384 . S
C1773 C1772 1.377 . S
C1773 C1779 1.390 . S
C1774 H1765 0.930 . S
C1774 C1772 1.384 . S
C1774 C1775 1.372 . S
C1775 C1774 1.372 . S
C1775 C1776 1.400 . S
C1775 C1780 1.490 . S
C1776 H1766 0.930 . S
C1776 C1775 1.400 . S
C1776 C1779 1.386 . S
H1777 C1793 0.930 . S
H1778 C1794 0.931 . S
C1779 H1767 0.929 . S
C1779 C1773 1.390 . S
C1779 C1776 1.386 . S
C1780 C1775 1.490 . S
C1780 C1782 1.395 . S
C1780 C1783 1.403 . S
H1781 C1787 0.930 . S
C1782 H1768 0.930 . S
C1782 C1780 1.395 . S
C1782 C1785 1.403 . S
C1783 C1780 1.403 . S
C1783 C1784 1.524 . S
C1783 C1787 1.400 . S
C1784 H1769 0.960 . S
C1784 H1770 0.960 . S
C1784 H1771 0.960 . S
C1784 C1783 1.524 . S
C1785 C1782 1.403 . S
C1785 C1786 1.392 . S
C1785 C1789 1.495 . S
C1786 C1785 1.392 . S
C1786 C1787 1.385 . S
C1786 C1788 1.478 . S
C1787 H1781 0.930 . S
C1787 C1783 1.400 . S
C1787 C1786 1.385 . S
C1788 C1786 1.478 . S
C1788 C1790 1.381 . S
C1788 C1794 1.383 . S
C1789 C1785 1.495 . S
C1789 H1795 0.959 . S
C1789 H1796 0.961 . S
C1789 H1797 0.960 . S
C1790 C1788 1.381 . S
C1790 C1791 1.394 . S
C1790 H1798 0.930 . S
C1791 C1790 1.394 . S
C1791 C1792 1.383 . S
C1791 H1799 0.929 . S
C1792 C1791 1.383 . S
C1792 C1793 1.377 . S
C1793 H1777 0.930 . S
C1793 C1792 1.377 . S
C1793 C1794 1.379 . S
C1794 H1778 0.931 . S
C1794 C1788 1.383 . S
C1794 C1793 1.379 . S
H1795 C1789 0.959 . S
H1796 C1789 0.961 . S
H1797 C1789 0.960 . S
H1798 C1790 0.930 . S
H1799 C1791 0.929 . S
H1800 C1808 0.929 . S
H1801 C1810 0.930 . S
H1802 C1812 0.930 . S
H1803 C1815 0.929 . S
H1804 C1818 0.930 . S
H1805 C1820 0.960 . S
H1806 C1820 0.960 . S
H1807 C1820 0.960 . S
C1808 H1800 0.929 . S
C1808 C1809 1.377 . S
C1808 C1810 1.384 . S
C1809 C1808 1.377 . S
C1809 C1815 1.390 . S
C1810 H1801 0.930 . S
C1810 C1808 1.384 . S
C1810 C1811 1.372 . S
C1811 C1810 1.372 . S
C1811 C1812 1.400 . S
C1811 C1816 1.490 . S
C1812 H1802 0.930 . S
C1812 C1811 1.400 . S
C1812 C1815 1.386 . S
H1813 C1829 0.930 . S
H1814 C1830 0.931 . S
C1815 H1803 0.929 . S
C1815 C1809 1.390 . S
C1815 C1812 1.386 . S
C1816 C1811 1.490 . S
C1816 C1818 1.395 . S
C1816 C1819 1.403 . S
H1817 C1823 0.930 . S
C1818 H1804 0.930 . S
C1818 C1816 1.395 . S
C1818 C1821 1.403 . S
C1819 C1816 1.403 . S
C1819 C1820 1.524 . S
C1819 C1823 1.400 . S
C1820 H1805 0.960 . S
C1820 H1806 0.960 . S
C1820 H1807 0.960 . S
C1820 C1819 1.524 . S
C1821 C1818 1.403 . S
C1821 C1822 1.392 . S
C1821 C1825 1.495 . S
C1822 C1821 1.392 . S
C1822 C1823 1.385 . S
C1822 C1824 1.478 . S
C1823 H1817 0.930 . S
C1823 C1819 1.400 . S
C1823 C1822 1.385 . S
C1824 C1822 1.478 . S
C1824 C1826 1.381 . S
C1824 C1830 1.383 . S
C1825 C1821 1.495 . S
C1825 H1831 0.959 . S
C1825 H1832 0.961 . S
C1825 H1833 0.960 . S
C1826 C1824 1.381 . S
C1826 C1827 1.394 . S
C1826 H1834 0.930 . S
C1827 C1826 1.394 . S
C1827 C1828 1.383 . S
C1827 H1835 0.929 . S
C1828 C1827 1.383 . S
C1828 C1829 1.377 . S
C1829 H1813 0.930 . S
C1829 C1828 1.377 . S
C1829 C1830 1.379 . S
C1830 H1814 0.931 . S
C1830 C1824 1.383 . S
C1830 C1829 1.379 . S
H1831 C1825 0.959 . S
H1832 C1825 0.961 . S
H1833 C1825 0.960 . S
H1834 C1826 0.930 . S
H1835 C1827 0.929 . S
H1836 C1844 0.929 . S
H1837 C1846 0.930 . S
H1838 C1848 0.930 . S
H1839 C1851 0.929 . S
H1840 C1854 0.930 . S
H1841 C1856 0.960 . S
H1842 C1856 0.960 . S
H1843 C1856 0.960 . S
C1844 H1836 0.929 . S
C1844 C1845 1.377 . S
C1844 C1846 1.384 . S
C1845 C1844 1.377 . S
C1845 C1851 1.390 . S
C1846 H1837 0.930 . S
C1846 C1844 1.384 . S
C1846 C1847 1.372 . S
C1847 C1846 1.372 . S
C1847 C1848 1.400 . S
C1847 C1852 1.490 . S
C1848 H1838 0.930 . S
C1848 C1847 1.400 . S
C1848 C1851 1.386 . S
H1849 C1865 0.930 . S
H1850 C1866 0.931 . S
C1851 H1839 0.929 . S
C1851 C1845 1.390 . S
C1851 C1848 1.386 . S
C1852 C1847 1.490 . S
C1852 C1854 1.395 . S
C1852 C1855 1.403 . S
H1853 C1859 0.930 . S
C1854 H1840 0.930 . S
C1854 C1852 1.395 . S
C1854 C1857 1.403 . S
C1855 C1852 1.403 . S
C1855 C1856 1.524 . S
C1855 C1859 1.400 . S
C1856 H1841 0.960 . S
C1856 H1842 0.960 . S
C1856 H1843 0.960 . S
C1856 C1855 1.524 . S
C1857 C1854 1.403 . S
C1857 C1858 1.392 . S
C1857 C1861 1.495 . S
C1858 C1857 1.392 . S
C1858 C1859 1.385 . S
C1858 C1860 1.478 . S
C1859 H1853 0.930 . S
C1859 C1855 1.400 . S
C1859 C1858 1.385 . S
C1860 C1858 1.478 . S
C1860 C1862 1.381 . S
C1860 C1866 1.383 . S
C1861 C1857 1.495 . S
C1861 H1867 0.959 . S
C1861 H1868 0.961 . S
C1861 H1869 0.960 . S
C1862 C1860 1.381 . S
C1862 C1863 1.394 . S
C1862 H1870 0.930 . S
C1863 C1862 1.394 . S
C1863 C1864 1.383 . S
C1863 H1871 0.929 . S
C1864 C1863 1.383 . S
C1864 C1865 1.377 . S
C1865 H1849 0.930 . S
C1865 C1864 1.377 . S
C1865 C1866 1.379 . S
C1866 H1850 0.931 . S
C1866 C1860 1.383 . S
C1866 C1865 1.379 . S
H1867 C1861 0.959 . S
H1868 C1861 0.961 . S
H1869 C1861 0.960 . S
H1870 C1862 0.930 . S
H1871 C1863 0.929 . S
H1872 C1880 0.929 . S
H1873 C1882 0.930 . S
H1874 C1884 0.930 . S
H1875 C1887 0.929 . S
H1876 C1890 0.930 . S
H1877 C1892 0.960 . S
H1878 C1892 0.960 . S
H1879 C1892 0.960 . S
C1880 H1872 0.929 . S
C1880 C1881 1.377 . S
C1880 C1882 1.384 . S
C1881 C1880 1.377 . S
C1881 C1887 1.390 . S
C1882 H1873 0.930 . S
C1882 C1880 1.384 . S
C1882 C1883 1.372 . S
C1883 C1882 1.372 . S
C1883 C1884 1.400 . S
C1883 C1888 1.490 . S
C1884 H1874 0.930 . S
C1884 C1883 1.400 . S
C1884 C1887 1.386 . S
H1885 C1901 0.930 . S
H1886 C1902 0.931 . S
C1887 H1875 0.929 . S
C1887 C1881 1.390 . S
C1887 C1884 1.386 . S
C1888 C1883 1.490 . S
C1888 C1890 1.395 . S
C1888 C1891 1.403 . S
H1889 C1895 0.930 . S
C1890 H1876 0.930 . S
C1890 C1888 1.395 . S
C1890 C1893 1.403 . S
C1891 C1888 1.403 . S
C1891 C1892 1.524 . S
C1891 C1895 1.400 . S
C1892 H1877 0.960 . S
C1892 H1878 0.960 . S
C1892 H1879 0.960 . S
C1892 C1891 1.524 . S
C1893 C1890 1.403 . S
C1893 C1894 1.392 . S
C1893 C1897 1.495 . S
C1894 C1893 1.392 . S
C1894 C1895 1.385 . S
C1894 C1896 1.478 . S
C1895 H1889 0.930 . S
C1895 C1891 1.400 . S
C1895 C1894 1.385 . S
C1896 C1894 1.478 . S
C1896 C1898 1.381 . S
C1896 C1902 1.383 . S
C1897 C1893 1.495 . S
C1897 H1903 0.959 . S
C1897 H1904 0.961 . S
C1897 H1905 0.960 . S
C1898 C1896 1.381 . S
C1898 C1899 1.394 . S
C1898 H1906 0.930 . S
C1899 C1898 1.394 . S
C1899 C1900 1.383 . S
C1899 H1907 0.929 . S
C1900 C1899 1.383 . S
C1900 C1901 1.377 . S
C1901 H1885 0.930 . S
C1901 C1900 1.377 . S
C1901 C1902 1.379 . S
C1902 H1886 0.931 . S
C1902 C1896 1.383 . S
C1902 C1901 1.379 . S
H1903 C1897 0.959 . S
H1904 C1897 0.961 . S
H1905 C1897 0.960 . S
H1906 C1898 0.930 . S
H1907 C1899 0.929 . S
H1908 C1916 0.929 . S
H1909 C1918 0.930 . S
H1910 C1920 0.930 . S
H1911 C1923 0.929 . S
H1912 C1926 0.930 . S
H1913 C1928 0.960 . S
H1914 C1928 0.960 . S
H1915 C1928 0.960 . S
C1916 H1908 0.929 . S
C1916 C1917 1.377 . S
C1916 C1918 1.384 . S
C1917 C1916 1.377 . S
C1917 C1923 1.390 . S
C1918 H1909 0.930 . S
C1918 C1916 1.384 . S
C1918 C1919 1.372 . S
C1919 C1918 1.372 . S
C1919 C1920 1.400 . S
C1919 C1924 1.490 . S
C1920 H1910 0.930 . S
C1920 C1919 1.400 . S
C1920 C1923 1.386 . S
H1921 C1937 0.930 . S
H1922 C1938 0.931 . S
C1923 H1911 0.929 . S
C1923 C1917 1.390 . S
C1923 C1920 1.386 . S
C1924 C1919 1.490 . S
C1924 C1926 1.395 . S
C1924 C1927 1.403 . S
H1925 C1931 0.930 . S
C1926 H1912 0.930 . S
C1926 C1924 1.395 . S
C1926 C1929 1.403 . S
C1927 C1924 1.403 . S
C1927 C1928 1.524 . S
C1927 C1931 1.400 . S
C1928 H1913 0.960 . S
C1928 H1914 0.960 . S
C1928 H1915 0.960 . S
C1928 C1927 1.524 . S
C1929 C1926 1.403 . S
C1929 C1930 1.392 . S
C1929 C1933 1.495 . S
C1930 C1929 1.392 . S
C1930 C1931 1.385 . S
C1930 C1932 1.478 . S
C1931 H1925 0.930 . S
C1931 C1927 1.400 . S
C1931 C1930 1.385 . S
C1932 C1930 1.478 . S
C1932 C1934 1.381 1_565 S
C1932 C1938 1.383 . S
C1933 C1929 1.495 . S
C1933 H1939 0.959 . S
C1933 H1940 0.961 . S
C1933 H1941 0.960 1_565 S
C1934 C1932 1.381 1_545 S
C1934 C1935 1.394 . S
C1934 H1942 0.930 . S
C1935 C1934 1.394 . S
C1935 C1936 1.383 . S
C1935 H1943 0.929 . S
C1936 C1935 1.383 . S
C1936 C1937 1.377 1_545 S
C1937 H1921 0.930 . S
C1937 C1936 1.377 1_565 S
C1937 C1938 1.379 . S
C1938 H1922 0.931 . S
C1938 C1932 1.383 . S
C1938 C1937 1.379 . S
H1939 C1933 0.959 . S
H1940 C1933 0.961 . S
H1941 C1933 0.960 1_545 S
H1942 C1934 0.930 . S
H1943 C1935 0.929 . S
H1944 C1952 0.929 . S
H1945 C1954 0.930 . S
H1946 C1956 0.930 . S
H1947 C1959 0.941 . S
H1948 C1962 0.930 . S
H1949 C1964 0.960 . S
H1950 C1964 0.960 . S
H1951 C1964 0.960 . S
C1952 H1944 0.929 . S
C1952 C1953 1.377 . S
C1952 C1954 1.384 1_655 S
C1953 C1952 1.377 . S
C1953 C1959 1.390 1_655 S
C1954 H1945 0.930 . S
C1954 C1952 1.384 1_455 S
C1954 C1955 1.372 . S
C1955 C1954 1.372 . S
C1955 C1956 1.400 . S
C1955 C1960 1.490 . S
C1956 H1946 0.930 . S
C1956 C1955 1.400 . S
C1956 C1959 1.386 . S
H1957 C1973 0.930 . S
H1958 C1974 0.931 . S
C1959 H1947 0.941 . S
C1959 C1953 1.390 1_455 S
C1959 C1956 1.386 . S
C1960 C1955 1.490 . S
C1960 C1962 1.395 . S
C1960 C1963 1.403 . S
H1961 C1967 0.930 . S
C1962 H1948 0.930 . S
C1962 C1960 1.395 . S
C1962 C1965 1.403 . S
C1963 C1960 1.403 . S
C1963 C1964 1.524 . S
C1963 C1967 1.400 . S
C1964 H1949 0.960 . S
C1964 H1950 0.960 . S
C1964 H1951 0.960 . S
C1964 C1963 1.524 . S
C1965 C1962 1.403 . S
C1965 C1966 1.392 . S
C1965 C1969 1.495 . S
C1966 C1965 1.392 . S
C1966 C1967 1.385 . S
C1966 C1968 1.478 . S
C1967 H1961 0.930 . S
C1967 C1963 1.400 . S
C1967 C1966 1.385 . S
C1968 C1966 1.478 . S
C1968 C1970 1.381 . S
C1968 C1974 1.383 . S
C1969 C1965 1.495 . S
C1969 H1975 0.959 1_455 S
C1969 H1976 0.961 . S
C1969 H1977 0.960 . S
C1970 C1968 1.381 . S
C1970 C1971 1.394 . S
C1970 H1978 0.930 . S
C1971 C1970 1.394 . S
C1971 C1972 1.383 . S
C1971 H1979 0.929 . S
C1972 C1971 1.383 . S
C1972 C1973 1.377 . S
C1973 H1957 0.930 . S
C1973 C1972 1.377 . S
C1973 C1974 1.379 . S
C1974 H1958 0.931 . S
C1974 C1968 1.383 . S
C1974 C1973 1.379 . S
H1975 C1969 0.959 1_655 S
H1976 C1969 0.961 . S
H1977 C1969 0.960 . S
H1978 C1970 0.930 . S
H1979 C1971 0.929 . S
H1980 C1988 0.929 . S
H1981 C1990 0.930 . S
H1982 C1992 0.930 . S
H1983 C1995 0.929 . S
H1984 C1998 0.930 . S
H1985 C2000 0.960 . S
H1986 C2000 0.960 . S
H1987 C2000 0.960 . S
C1988 H1980 0.929 . S
C1988 C1989 1.377 . S
C1988 C1990 1.384 . S
C1989 C1988 1.377 . S
C1989 C1995 1.390 . S
C1990 H1981 0.930 . S
C1990 C1988 1.384 . S
C1990 C1991 1.372 . S
C1991 C1990 1.372 . S
C1991 C1992 1.400 . S
C1991 C1996 1.490 . S
C1992 H1982 0.930 . S
C1992 C1991 1.400 . S
C1992 C1995 1.386 . S
H1993 C2009 0.930 . S
H1994 C2010 0.931 . S
C1995 H1983 0.929 . S
C1995 C1989 1.390 . S
C1995 C1992 1.386 . S
C1996 C1991 1.490 . S
C1996 C1998 1.395 . S
C1996 C1999 1.403 . S
H1997 C2003 0.930 . S
C1998 H1984 0.930 . S
C1998 C1996 1.395 . S
C1998 C2001 1.403 . S
C1999 C1996 1.403 . S
C1999 C2000 1.524 . S
C1999 C2003 1.400 . S
C2000 H1985 0.960 . S
C2000 H1986 0.960 . S
C2000 H1987 0.960 . S
C2000 C1999 1.524 . S
C2001 C1998 1.403 . S
C2001 C2002 1.392 . S
C2001 C2005 1.495 . S
C2002 C2001 1.392 . S
C2002 C2003 1.385 . S
C2002 C2004 1.478 . S
C2003 H1997 0.930 . S
C2003 C1999 1.400 . S
C2003 C2002 1.385 . S
C2004 C2002 1.478 . S
C2004 C2006 1.381 . S
C2004 C2010 1.383 . S
C2005 C2001 1.495 . S
C2005 H2011 0.959 . S
C2005 H2012 0.961 . S
C2005 H2013 0.960 . S
C2006 C2004 1.381 . S
C2006 C2007 1.394 . S
C2006 H2014 0.930 . S
C2007 C2006 1.394 . S
C2007 C2008 1.383 . S
C2007 H2015 0.929 . S
C2008 C2007 1.383 . S
C2008 C2009 1.377 . S
C2009 H1993 0.930 . S
C2009 C2008 1.377 . S
C2009 C2010 1.379 . S
C2010 H1994 0.931 . S
C2010 C2004 1.383 . S
C2010 C2009 1.379 . S
H2011 C2005 0.959 . S
H2012 C2005 0.961 . S
H2013 C2005 0.960 . S
H2014 C2006 0.930 . S
H2015 C2007 0.929 . S
H2016 C2024 0.929 . S
H2017 C2026 0.930 . S
H2018 C2028 0.930 . S
H2019 C2031 0.946 . S
H2020 C2034 0.930 . S
H2021 C2036 0.960 . S
H2022 C2036 0.960 . S
H2023 C2036 0.960 . S
C2024 H2016 0.929 . S
C2024 C2025 1.377 . S
C2024 C2026 1.384 1_565 S
C2025 C2024 1.377 . S
C2025 C2031 1.390 1_565 S
C2026 H2017 0.930 . S
C2026 C2024 1.384 1_545 S
C2026 C2027 1.372 . S
C2027 C2026 1.372 . S
C2027 C2028 1.400 . S
C2027 C2032 1.490 . S
C2028 H2018 0.930 . S
C2028 C2027 1.400 . S
C2028 C2031 1.386 . S
H2029 C2045 0.930 . S
H2030 C2046 0.931 . S
C2031 H2019 0.946 . S
C2031 C2025 1.390 1_545 S
C2031 C2028 1.386 . S
C2032 C2027 1.490 . S
C2032 C2034 1.395 . S
C2032 C2035 1.403 . S
H2033 C2039 0.930 . S
C2034 H2020 0.930 . S
C2034 C2032 1.395 . S
C2034 C2037 1.403 . S
C2035 C2032 1.403 . S
C2035 C2036 1.524 . S
C2035 C2039 1.400 . S
C2036 H2021 0.960 . S
C2036 H2022 0.960 . S
C2036 H2023 0.960 . S
C2036 C2035 1.524 . S
C2037 C2034 1.403 . S
C2037 C2038 1.392 . S
C2037 C2041 1.495 . S
C2038 C2037 1.392 . S
C2038 C2039 1.385 . S
C2038 C2040 1.478 . S
C2039 H2033 0.930 . S
C2039 C2035 1.400 . S
C2039 C2038 1.385 . S
C2040 C2038 1.478 . S
C2040 C2042 1.381 . S
C2040 C2046 1.383 . S
C2041 C2037 1.495 . S
C2041 H2047 0.959 1_545 S
C2041 H2048 0.961 . S
C2041 H2049 0.960 . S
C2042 C2040 1.381 . S
C2042 C2043 1.394 . S
C2042 H2050 0.930 . S
C2043 C2042 1.394 . S
C2043 C2044 1.383 . S
C2043 H2051 0.929 . S
C2044 C2043 1.383 . S
C2044 C2045 1.377 . S
C2045 H2029 0.930 . S
C2045 C2044 1.377 . S
C2045 C2046 1.379 . S
C2046 H2030 0.931 . S
C2046 C2040 1.383 . S
C2046 C2045 1.379 . S
H2047 C2041 0.959 1_565 S
H2048 C2041 0.961 . S
H2049 C2041 0.960 . S
H2050 C2042 0.930 . S
H2051 C2043 0.929 . S
H2052 C2060 0.929 . S
H2053 C2062 0.930 . S
H2054 C2064 0.930 . S
H2055 C2067 0.929 . S
H2056 C2070 0.930 . S
H2057 C2072 0.960 . S
H2058 C2072 0.960 . S
H2059 C2072 0.960 . S
C2060 H2052 0.929 . S
C2060 C2061 1.377 . S
C2060 C2062 1.384 . S
C2061 C2060 1.377 . S
C2061 C2067 1.390 . S
C2062 H2053 0.930 . S
C2062 C2060 1.384 . S
C2062 C2063 1.372 . S
C2063 C2062 1.372 . S
C2063 C2064 1.400 . S
C2063 C2068 1.490 . S
C2064 H2054 0.930 . S
C2064 C2063 1.400 . S
C2064 C2067 1.386 . S
H2065 C2081 0.930 . S
H2066 C2082 0.931 . S
C2067 H2055 0.929 . S
C2067 C2061 1.390 . S
C2067 C2064 1.386 . S
C2068 C2063 1.490 . S
C2068 C2070 1.395 . S
C2068 C2071 1.403 . S
H2069 C2075 0.930 . S
C2070 H2056 0.930 . S
C2070 C2068 1.395 . S
C2070 C2073 1.403 . S
C2071 C2068 1.403 . S
C2071 C2072 1.524 . S
C2071 C2075 1.400 . S
C2072 H2057 0.960 . S
C2072 H2058 0.960 . S
C2072 H2059 0.960 . S
C2072 C2071 1.524 . S
C2073 C2070 1.403 . S
C2073 C2074 1.392 . S
C2073 C2077 1.518 . S
C2074 C2073 1.392 . S
C2074 C2075 1.385 . S
C2074 C2076 1.478 . S
C2075 H2069 0.930 . S
C2075 C2071 1.400 . S
C2075 C2074 1.385 . S
C2076 C2074 1.478 . S
C2076 C2078 1.381 1_655 S
C2076 C2082 1.383 . S
C2077 C2073 1.518 . S
C2077 H2083 0.919 1_655 S
C2077 H2084 0.976 . S
C2077 H2085 0.940 1_655 S
C2078 C2076 1.381 1_455 S
C2078 C2079 1.394 . S
C2078 H2086 0.930 . S
C2079 C2078 1.394 . S
C2079 C2080 1.383 . S
C2079 H2087 0.929 . S
C2080 C2079 1.383 . S
C2080 C2081 1.377 1_455 S
C2081 H2065 0.930 . S
C2081 C2080 1.377 1_655 S
C2081 C2082 1.379 . S
C2082 H2066 0.931 . S
C2082 C2076 1.383 . S
C2082 C2081 1.379 . S
H2083 C2077 0.919 1_455 S
H2084 C2077 0.976 . S
H2085 C2077 0.940 1_455 S
H2086 C2078 0.930 . S
H2087 C2079 0.929 . S
H2088 C2096 0.929 . S
H2089 C2098 0.930 . S
H2090 C2100 0.930 . S
H2091 C2103 0.929 . S
H2092 C2106 0.930 . S
H2093 C2108 0.960 . S
H2094 C2108 0.960 . S
H2095 C2108 0.960 . S
C2096 H2088 0.929 . S
C2096 C2097 1.377 . S
C2096 C2098 1.384 . S
C2097 C2096 1.377 . S
C2097 C2103 1.390 . S
C2098 H2089 0.930 . S
C2098 C2096 1.384 . S
C2098 C2099 1.372 . S
C2099 C2098 1.372 . S
C2099 C2100 1.400 . S
C2099 C2104 1.490 . S
C2100 H2090 0.930 . S
C2100 C2099 1.400 . S
C2100 C2103 1.386 . S
H2101 C2117 0.930 . S
H2102 C2118 0.931 . S
C2103 H2091 0.929 . S
C2103 C2097 1.390 . S
C2103 C2100 1.386 . S
C2104 C2099 1.490 . S
C2104 C2106 1.395 . S
C2104 C2107 1.403 . S
H2105 C2111 0.930 . S
C2106 H2092 0.930 . S
C2106 C2104 1.395 . S
C2106 C2109 1.403 . S
C2107 C2104 1.403 . S
C2107 C2108 1.524 . S
C2107 C2111 1.400 . S
C2108 H2093 0.960 . S
C2108 H2094 0.960 . S
C2108 H2095 0.960 . S
C2108 C2107 1.524 . S
C2109 C2106 1.403 . S
C2109 C2110 1.392 . S
C2109 C2113 1.495 . S
C2110 C2109 1.392 . S
C2110 C2111 1.385 . S
C2110 C2112 1.478 . S
C2111 H2105 0.930 . S
C2111 C2107 1.400 . S
C2111 C2110 1.385 . S
C2112 C2110 1.478 . S
C2112 C2114 1.381 . S
C2112 C2118 1.383 . S
C2113 C2109 1.495 . S
C2113 H2119 0.959 . S
C2113 H2120 0.961 . S
C2113 H2121 0.960 . S
C2114 C2112 1.381 . S
C2114 C2115 1.394 . S
C2114 H2122 0.930 . S
C2115 C2114 1.394 . S
C2115 C2116 1.383 . S
C2115 H2123 0.929 . S
C2116 C2115 1.383 . S
C2116 C2117 1.377 . S
C2117 H2101 0.930 . S
C2117 C2116 1.377 . S
C2117 C2118 1.379 . S
C2118 H2102 0.931 . S
C2118 C2112 1.383 . S
C2118 C2117 1.379 . S
H2119 C2113 0.959 . S
H2120 C2113 0.961 . S
H2121 C2113 0.960 . S
H2122 C2114 0.930 . S
H2123 C2115 0.929 . S
H2124 C2132 0.929 . S
H2125 C2134 0.930 . S
H2126 C2136 0.930 . S
H2127 C2139 0.929 . S
H2128 C2142 0.930 . S
H2129 C2144 0.960 . S
H2130 C2144 0.960 . S
H2131 C2144 0.960 . S
C2132 H2124 0.929 . S
C2132 C2133 1.377 . S
C2132 C2134 1.384 . S
C2133 C2132 1.377 . S
C2133 C2139 1.390 . S
C2134 H2125 0.930 . S
C2134 C2132 1.384 . S
C2134 C2135 1.372 . S
C2135 C2134 1.372 . S
C2135 C2136 1.400 . S
C2135 C2140 1.490 . S
C2136 H2126 0.930 . S
C2136 C2135 1.400 . S
C2136 C2139 1.386 . S
H2137 C2153 0.930 . S
H2138 C2154 0.931 . S
C2139 H2127 0.929 . S
C2139 C2133 1.390 . S
C2139 C2136 1.386 . S
C2140 C2135 1.490 . S
C2140 C2142 1.395 . S
C2140 C2143 1.403 . S
H2141 C2147 0.930 . S
C2142 H2128 0.930 . S
C2142 C2140 1.395 . S
C2142 C2145 1.403 . S
C2143 C2140 1.403 . S
C2143 C2144 1.524 . S
C2143 C2147 1.400 . S
C2144 H2129 0.960 . S
C2144 H2130 0.960 . S
C2144 H2131 0.960 . S
C2144 C2143 1.524 . S
C2145 C2142 1.403 . S
C2145 C2146 1.392 . S
C2145 C2149 1.495 . S
C2146 C2145 1.392 . S
C2146 C2147 1.385 . S
C2146 C2148 1.478 . S
C2147 H2141 0.930 . S
C2147 C2143 1.400 . S
C2147 C2146 1.385 . S
C2148 C2146 1.478 . S
C2148 C2150 1.381 . S
C2148 C2154 1.383 1_545 S
C2149 C2145 1.495 . S
C2149 H2155 0.959 . S
C2149 H2156 0.961 . S
C2149 H2157 0.960 . S
C2150 C2148 1.381 . S
C2150 C2151 1.394 . S
C2150 H2158 0.930 . S
C2151 C2150 1.394 . S
C2151 C2152 1.383 1_545 S
C2151 H2159 0.929 . S
C2152 C2151 1.383 1_565 S
C2152 C2153 1.377 . S
C2153 H2137 0.930 . S
C2153 C2152 1.377 . S
C2153 C2154 1.379 . S
C2154 H2138 0.931 . S
C2154 C2148 1.383 1_565 S
C2154 C2153 1.379 . S
H2155 C2149 0.959 . S
H2156 C2149 0.961 . S
H2157 C2149 0.960 . S
H2158 C2150 0.930 . S
H2159 C2151 0.929 . S
H2160 C2168 0.929 . S
H2161 C2170 0.930 . S
H2162 C2172 0.930 . S
H2163 C2175 0.929 . S
H2164 C2178 0.930 . S
H2165 C2180 0.960 . S
H2166 C2180 0.960 . S
H2167 C2180 0.960 . S
C2168 H2160 0.929 . S
C2168 C2169 1.377 . S
C2168 C2170 1.384 . S
C2169 C2168 1.377 . S
C2169 C2175 1.390 . S
C2170 H2161 0.930 . S
C2170 C2168 1.384 . S
C2170 C2171 1.372 . S
C2171 C2170 1.372 . S
C2171 C2172 1.400 . S
C2171 C2176 1.490 . S
C2172 H2162 0.930 . S
C2172 C2171 1.400 . S
C2172 C2175 1.386 . S
H2173 C2189 0.926 1_455 S
H2174 C2190 0.931 . S
C2175 H2163 0.929 . S
C2175 C2169 1.390 . S
C2175 C2172 1.386 . S
C2176 C2171 1.490 . S
C2176 C2178 1.395 . S
C2176 C2179 1.403 . S
H2177 C2183 0.930 . S
C2178 H2164 0.930 . S
C2178 C2176 1.395 . S
C2178 C2181 1.403 . S
C2179 C2176 1.403 . S
C2179 C2180 1.524 . S
C2179 C2183 1.400 . S
C2180 H2165 0.960 . S
C2180 H2166 0.960 . S
C2180 H2167 0.960 . S
C2180 C2179 1.524 . S
C2181 C2178 1.403 . S
C2181 C2182 1.392 . S
C2181 C2185 1.495 . S
C2182 C2181 1.392 . S
C2182 C2183 1.385 . S
C2182 C2184 1.478 . S
C2183 H2177 0.930 . S
C2183 C2179 1.400 . S
C2183 C2182 1.385 . S
C2184 C2182 1.478 . S
C2184 C2186 1.381 . S
C2184 C2190 1.383 . S
C2185 C2181 1.495 . S
C2185 H2191 0.959 . S
C2185 H2192 0.961 . S
C2185 H2193 0.960 . S
C2186 C2184 1.381 . S
C2186 C2187 1.365 1_655 S
C2186 H2194 0.930 . S
C2187 C2186 1.365 1_455 S
C2187 C2188 1.394 . S
C2187 H2195 0.948 . S
C2188 C2187 1.394 . S
C2188 C2189 1.377 1_455 S
C2189 H2173 0.926 1_655 S
C2189 C2188 1.377 1_655 S
C2189 C2190 1.379 . S
C2190 H2174 0.931 . S
C2190 C2184 1.383 . S
C2190 C2189 1.379 . S
H2191 C2185 0.959 . S
H2192 C2185 0.961 . S
H2193 C2185 0.960 . S
H2194 C2186 0.930 . S
H2195 C2187 0.948 . S
H2196 C2204 0.929 . S
H2197 C2206 0.930 . S
H2198 C2208 0.930 . S
H2199 C2211 0.929 . S
H2200 C2214 0.930 . S
H2201 C2216 0.960 . S
H2202 C2216 0.960 . S
H2203 C2216 0.960 . S
C2204 H2196 0.929 . S
C2204 C2205 1.377 . S
C2204 C2206 1.384 . S
C2205 C2204 1.377 . S
C2205 C2211 1.390 . S
C2206 H2197 0.930 . S
C2206 C2204 1.384 . S
C2206 C2207 1.372 . S
C2207 C2206 1.372 . S
C2207 C2208 1.400 . S
C2207 C2212 1.490 . S
C2208 H2198 0.930 . S
C2208 C2207 1.400 . S
C2208 C2211 1.386 . S
H2209 C2225 0.930 . S
H2210 C2226 0.931 . S
C2211 H2199 0.929 . S
C2211 C2205 1.390 . S
C2211 C2208 1.386 . S
C2212 C2207 1.490 . S
C2212 C2214 1.395 . S
C2212 C2215 1.403 . S
H2213 C2219 0.930 . S
C2214 H2200 0.930 . S
C2214 C2212 1.395 . S
C2214 C2217 1.403 . S
C2215 C2212 1.403 . S
C2215 C2216 1.524 . S
C2215 C2219 1.400 . S
C2216 H2201 0.960 . S
C2216 H2202 0.960 . S
C2216 H2203 0.960 . S
C2216 C2215 1.524 . S
C2217 C2214 1.403 . S
C2217 C2218 1.392 . S
C2217 C2221 1.495 . S
C2218 C2217 1.392 . S
C2218 C2219 1.385 . S
C2218 C2220 1.478 . S
C2219 H2213 0.930 . S
C2219 C2215 1.400 . S
C2219 C2218 1.385 . S
C2220 C2218 1.478 . S
C2220 C2222 1.381 . S
C2220 C2226 1.383 . S
C2221 C2217 1.495 . S
C2221 H2227 0.959 . S
C2221 H2228 0.961 . S
C2221 H2229 0.960 . S
C2222 C2220 1.381 . S
C2222 C2223 1.394 . S
C2222 H2230 0.930 . S
C2223 C2222 1.394 . S
C2223 C2224 1.383 . S
C2223 H2231 0.929 . S
C2224 C2223 1.383 . S
C2224 C2225 1.377 . S
C2225 H2209 0.930 . S
C2225 C2224 1.377 . S
C2225 C2226 1.379 . S
C2226 H2210 0.931 . S
C2226 C2220 1.383 . S
C2226 C2225 1.379 . S
H2227 C2221 0.959 . S
H2228 C2221 0.961 . S
H2229 C2221 0.960 . S
H2230 C2222 0.930 . S
H2231 C2223 0.929 . S
H2232 C2240 0.929 . S
H2233 C2242 0.930 . S
H2234 C2244 0.930 . S
H2235 C2247 0.929 . S
H2236 C2250 0.930 . S
H2237 C2252 0.960 . S
H2238 C2252 0.960 . S
H2239 C2252 0.960 . S
C2240 H2232 0.929 . S
C2240 C2241 1.377 . S
C2240 C2242 1.384 . S
C2241 C2240 1.377 . S
C2241 C2247 1.390 . S
C2242 H2233 0.930 . S
C2242 C2240 1.384 . S
C2242 C2243 1.372 . S
C2243 C2242 1.372 . S
C2243 C2244 1.400 . S
C2243 C2248 1.490 . S
C2244 H2234 0.930 . S
C2244 C2243 1.400 . S
C2244 C2247 1.386 . S
H2245 C2261 0.907 1_545 S
H2246 C2262 0.931 . S
C2247 H2235 0.929 . S
C2247 C2241 1.390 . S
C2247 C2244 1.386 . S
C2248 C2243 1.490 . S
C2248 C2250 1.395 . S
C2248 C2251 1.403 . S
H2249 C2255 0.930 . S
C2250 H2236 0.930 . S
C2250 C2248 1.395 . S
C2250 C2253 1.403 . S
C2251 C2248 1.403 . S
C2251 C2252 1.524 . S
C2251 C2255 1.400 . S
C2252 H2237 0.960 . S
C2252 H2238 0.960 . S
C2252 H2239 0.960 . S
C2252 C2251 1.524 . S
C2253 C2250 1.403 . S
C2253 C2254 1.392 . S
C2253 C2257 1.495 1_565 S
C2254 C2253 1.392 . S
C2254 C2255 1.385 . S
C2254 C2256 1.478 . S
C2255 H2249 0.930 . S
C2255 C2251 1.400 . S
C2255 C2254 1.385 . S
C2256 C2254 1.478 . S
C2256 C2258 1.381 . S
C2256 C2262 1.383 . S
C2257 C2253 1.495 1_545 S
C2257 H2263 0.959 . S
C2257 H2264 0.961 . S
C2257 H2265 0.960 . S
C2258 C2256 1.381 . S
C2258 C2259 1.394 1_565 S
C2258 H2266 0.930 . S
C2259 C2258 1.394 1_545 S
C2259 C2260 1.383 . S
C2259 H2267 0.929 . S
C2260 C2259 1.383 . S
C2260 C2261 1.369 1_545 S
C2261 H2245 0.907 1_565 S
C2261 C2260 1.369 1_565 S
C2261 C2262 1.394 . S
C2262 H2246 0.931 . S
C2262 C2256 1.383 . S
C2262 C2261 1.394 . S
H2263 C2257 0.959 . S
H2264 C2257 0.961 . S
H2265 C2257 0.960 . S
H2266 C2258 0.930 . S
H2267 C2259 0.929 . S
H2268 C2276 0.929 . S
H2269 C2278 0.930 . S
H2270 C2280 0.930 . S
H2271 C2283 0.929 . S
H2272 C2286 0.930 . S
H2273 C2288 0.960 . S
H2274 C2288 0.960 . S
H2275 C2288 0.960 . S
C2276 H2268 0.929 . S
C2276 C2277 1.377 1_455 S
C2276 C2278 1.384 . S
C2277 C2276 1.377 1_655 S
C2277 C2283 1.390 . S
C2278 H2269 0.930 . S
C2278 C2276 1.384 . S
C2278 C2279 1.372 . S
C2279 C2278 1.372 . S
C2279 C2280 1.400 . S
C2279 C2284 1.490 . S
C2280 H2270 0.930 . S
C2280 C2279 1.400 . S
C2280 C2283 1.386 1_455 S
H2281 C2297 0.930 . S
H2282 C2298 0.931 . S
C2283 H2271 0.929 . S
C2283 C2277 1.390 . S
C2283 C2280 1.386 1_655 S
C2284 C2279 1.490 . S
C2284 C2286 1.395 . S
C2284 C2287 1.403 . S
H2285 C2291 0.930 . S
C2286 H2272 0.930 . S
C2286 C2284 1.395 . S
C2286 C2289 1.403 . S
C2287 C2284 1.403 . S
C2287 C2288 1.524 1_455 S
C2287 C2291 1.400 . S
C2288 H2273 0.960 . S
C2288 H2274 0.960 . S
C2288 H2275 0.960 . S
C2288 C2287 1.524 1_655 S
C2289 C2286 1.403 . S
C2289 C2290 1.392 . S
C2289 C2293 1.495 . S
C2290 C2289 1.392 . S
C2290 C2291 1.385 . S
C2290 C2292 1.478 . S
C2291 H2285 0.930 . S
C2291 C2287 1.400 . S
C2291 C2290 1.385 . S
C2292 C2290 1.478 . S
C2292 C2294 1.381 . S
C2292 C2298 1.383 . S
C2293 C2289 1.495 . S
C2293 H2299 0.959 . S
C2293 H2300 0.961 . S
C2293 H2301 0.960 . S
C2294 C2292 1.381 . S
C2294 C2295 1.394 . S
C2294 H2302 0.930 . S
C2295 C2294 1.394 . S
C2295 C2296 1.383 . S
C2295 H2303 0.929 . S
C2296 C2295 1.383 . S
C2296 C2297 1.377 . S
C2297 H2281 0.930 . S
C2297 C2296 1.377 . S
C2297 C2298 1.379 . S
C2298 H2282 0.931 . S
C2298 C2292 1.383 . S
C2298 C2297 1.379 . S
H2299 C2293 0.959 . S
H2300 C2293 0.961 . S
H2301 C2293 0.960 . S
H2302 C2294 0.930 . S
H2303 C2295 0.929 . S
H2304 C2312 0.929 . S
H2305 C2314 0.930 . S
H2306 C2316 0.930 . S
H2307 C2319 0.929 . S
H2308 C2322 0.930 . S
H2309 C2324 0.960 . S
H2310 C2324 0.960 . S
H2311 C2324 0.960 . S
C2312 H2304 0.929 . S
C2312 C2313 1.377 . S
C2312 C2314 1.384 . S
C2313 C2312 1.377 . S
C2313 C2319 1.390 . S
C2314 H2305 0.930 . S
C2314 C2312 1.384 . S
C2314 C2315 1.372 . S
C2315 C2314 1.372 . S
C2315 C2316 1.400 . S
C2315 C2320 1.490 . S
C2316 H2306 0.930 . S
C2316 C2315 1.400 . S
C2316 C2319 1.386 . S
H2317 C2333 0.930 . S
H2318 C2334 0.931 . S
C2319 H2307 0.929 . S
C2319 C2313 1.390 . S
C2319 C2316 1.386 . S
C2320 C2315 1.490 . S
C2320 C2322 1.395 . S
C2320 C2323 1.403 . S
H2321 C2327 0.930 . S
C2322 H2308 0.930 . S
C2322 C2320 1.395 . S
C2322 C2325 1.403 1_455 S
C2323 C2320 1.403 . S
C2323 C2324 1.524 . S
C2323 C2327 1.400 1_455 S
C2324 H2309 0.960 . S
C2324 H2310 0.960 . S
C2324 H2311 0.960 . S
C2324 C2323 1.524 . S
C2325 C2322 1.403 1_655 S
C2325 C2326 1.392 . S
C2325 C2329 1.495 . S
C2326 C2325 1.392 . S
C2326 C2327 1.385 . S
C2326 C2328 1.478 . S
C2327 H2321 0.930 . S
C2327 C2323 1.400 1_655 S
C2327 C2326 1.385 . S
C2328 C2326 1.478 . S
C2328 C2330 1.381 . S
C2328 C2334 1.383 . S
C2329 C2325 1.495 . S
C2329 H2335 0.959 . S
C2329 H2336 0.961 . S
C2329 H2337 0.960 . S
C2330 C2328 1.381 . S
C2330 C2331 1.394 . S
C2330 H2338 0.930 . S
C2331 C2330 1.394 . S
C2331 C2332 1.383 . S
C2331 H2339 0.929 . S
C2332 C2331 1.383 . S
C2332 C2333 1.377 . S
C2333 H2317 0.930 . S
C2333 C2332 1.377 . S
C2333 C2334 1.379 . S
C2334 H2318 0.931 . S
C2334 C2328 1.383 . S
C2334 C2333 1.379 . S
H2335 C2329 0.959 . S
H2336 C2329 0.961 . S
H2337 C2329 0.960 . S
H2338 C2330 0.930 . S
H2339 C2331 0.929 . S
H2340 C2348 0.929 . S
H2341 C2350 0.930 . S
H2342 C2352 0.930 . S
H2343 C2355 0.929 . S
H2344 C2358 0.930 . S
H2345 C2360 0.960 . S
H2346 C2360 0.960 . S
H2347 C2360 0.960 . S
C2348 H2340 0.929 . S
C2348 C2349 1.377 . S
C2348 C2350 1.384 . S
C2349 C2348 1.377 . S
C2349 C2355 1.390 . S
C2350 H2341 0.930 . S
C2350 C2348 1.384 . S
C2350 C2351 1.372 . S
C2351 C2350 1.372 . S
C2351 C2352 1.400 . S
C2351 C2356 1.490 . S
C2352 H2342 0.930 . S
C2352 C2351 1.400 . S
C2352 C2355 1.386 . S
H2353 C2369 0.930 . S
H2354 C2370 0.931 . S
C2355 H2343 0.929 . S
C2355 C2349 1.390 . S
C2355 C2352 1.386 . S
C2356 C2351 1.490 . S
C2356 C2358 1.395 . S
C2356 C2359 1.403 . S
H2357 C2363 0.930 . S
C2358 H2344 0.930 . S
C2358 C2356 1.395 . S
C2358 C2361 1.403 . S
C2359 C2356 1.403 . S
C2359 C2360 1.524 . S
C2359 C2363 1.400 . S
C2360 H2345 0.960 . S
C2360 H2346 0.960 . S
C2360 H2347 0.960 . S
C2360 C2359 1.524 . S
C2361 C2358 1.403 . S
C2361 C2362 1.392 . S
C2361 C2365 1.495 . S
C2362 C2361 1.392 . S
C2362 C2363 1.385 . S
C2362 C2364 1.478 . S
C2363 H2357 0.930 . S
C2363 C2359 1.400 . S
C2363 C2362 1.385 . S
C2364 C2362 1.478 . S
C2364 C2366 1.381 . S
C2364 C2370 1.383 . S
C2365 C2361 1.495 . S
C2365 H2371 0.959 . S
C2365 H2372 0.961 . S
C2365 H2373 0.960 . S
C2366 C2364 1.381 . S
C2366 C2367 1.394 . S
C2366 H2374 0.930 . S
C2367 C2366 1.394 . S
C2367 C2368 1.383 . S
C2367 H2375 0.929 . S
C2368 C2367 1.383 . S
C2368 C2369 1.377 . S
C2369 H2353 0.930 . S
C2369 C2368 1.377 . S
C2369 C2370 1.379 . S
C2370 H2354 0.931 . S
C2370 C2364 1.383 . S
C2370 C2369 1.379 . S
H2371 C2365 0.959 . S
H2372 C2365 0.961 . S
H2373 C2365 0.960 . S
H2374 C2366 0.930 . S
H2375 C2367 0.929 . S
H2376 C2384 0.929 . S
H2377 C2386 0.930 . S
H2378 C2388 0.930 . S
H2379 C2391 0.929 . S
H2380 C2394 0.930 . S
H2381 C2396 0.960 . S
H2382 C2396 0.960 . S
H2383 C2396 0.960 . S
C2384 H2376 0.929 . S
C2384 C2385 1.377 . S
C2384 C2386 1.384 . S
C2385 C2384 1.377 . S
C2385 C2391 1.390 . S
C2386 H2377 0.930 . S
C2386 C2384 1.384 . S
C2386 C2387 1.372 . S
C2387 C2386 1.372 . S
C2387 C2388 1.400 . S
C2387 C2392 1.490 . S
C2388 H2378 0.930 . S
C2388 C2387 1.400 . S
C2388 C2391 1.386 . S
H2389 C2405 0.930 . S
H2390 C2406 0.931 . S
C2391 H2379 0.929 . S
C2391 C2385 1.390 . S
C2391 C2388 1.386 . S
C2392 C2387 1.490 . S
C2392 C2394 1.395 . S
C2392 C2395 1.403 . S
H2393 C2399 0.930 . S
C2394 H2380 0.930 . S
C2394 C2392 1.395 . S
C2394 C2397 1.403 1_565 S
C2395 C2392 1.403 . S
C2395 C2396 1.524 . S
C2395 C2399 1.400 1_565 S
C2396 H2381 0.960 . S
C2396 H2382 0.960 . S
C2396 H2383 0.960 . S
C2396 C2395 1.524 . S
C2397 C2394 1.403 1_545 S
C2397 C2398 1.392 . S
C2397 C2401 1.495 . S
C2398 C2397 1.392 . S
C2398 C2399 1.385 . S
C2398 C2400 1.478 . S
C2399 H2393 0.930 . S
C2399 C2395 1.400 1_545 S
C2399 C2398 1.385 . S
C2400 C2398 1.478 . S
C2400 C2402 1.381 . S
C2400 C2406 1.383 . S
C2401 C2397 1.495 . S
C2401 H2407 0.959 . S
C2401 H2408 0.961 . S
C2401 H2409 0.960 . S
C2402 C2400 1.381 . S
C2402 C2403 1.394 . S
C2402 H2410 0.930 . S
C2403 C2402 1.394 . S
C2403 C2404 1.383 . S
C2403 H2411 0.929 . S
C2404 C2403 1.383 . S
C2404 C2405 1.377 . S
C2405 H2389 0.930 . S
C2405 C2404 1.377 . S
C2405 C2406 1.379 . S
C2406 H2390 0.931 . S
C2406 C2400 1.383 . S
C2406 C2405 1.379 . S
H2407 C2401 0.959 . S
H2408 C2401 0.961 . S
H2409 C2401 0.960 . S
H2410 C2402 0.930 . S
H2411 C2403 0.929 . S
H2412 C2420 0.929 . S
H2413 C2422 0.930 . S
H2414 C2424 0.930 . S
H2415 C2427 0.929 . S
H2416 C2430 0.930 . S
H2417 C2432 0.960 . S
H2418 C2432 0.960 . S
H2419 C2432 0.960 . S
C2420 H2412 0.929 . S
C2420 C2421 1.377 . S
C2420 C2422 1.384 . S
C2421 C2420 1.377 . S
C2421 C2427 1.390 . S
C2422 H2413 0.930 . S
C2422 C2420 1.384 . S
C2422 C2423 1.372 . S
C2423 C2422 1.372 . S
C2423 C2424 1.400 . S
C2423 C2428 1.490 . S
C2424 H2414 0.930 . S
C2424 C2423 1.400 . S
C2424 C2427 1.386 . S
H2425 C2441 0.930 . S
H2426 C2442 0.931 . S
C2427 H2415 0.929 . S
C2427 C2421 1.390 . S
C2427 C2424 1.386 . S
C2428 C2423 1.490 . S
C2428 C2430 1.395 . S
C2428 C2431 1.403 . S
H2429 C2435 0.930 . S
C2430 H2416 0.930 . S
C2430 C2428 1.395 . S
C2430 C2433 1.403 1_545 S
C2431 C2428 1.403 . S
C2431 C2432 1.524 . S
C2431 C2435 1.400 1_545 S
C2432 H2417 0.960 . S
C2432 H2418 0.960 . S
C2432 H2419 0.960 . S
C2432 C2431 1.524 . S
C2433 C2430 1.403 1_565 S
C2433 C2434 1.392 . S
C2433 C2437 1.495 . S
C2434 C2433 1.392 . S
C2434 C2435 1.385 . S
C2434 C2436 1.478 . S
C2435 H2429 0.930 . S
C2435 C2431 1.400 1_565 S
C2435 C2434 1.385 . S
C2436 C2434 1.478 . S
C2436 C2438 1.381 . S
C2436 C2442 1.383 . S
C2437 C2433 1.495 . S
C2437 H2443 0.959 . S
C2437 H2444 0.961 . S
C2437 H2445 0.960 . S
C2438 C2436 1.381 . S
C2438 C2439 1.394 . S
C2438 H2446 0.930 . S
C2439 C2438 1.394 . S
C2439 C2440 1.383 . S
C2439 H2447 0.929 . S
C2440 C2439 1.383 . S
C2440 C2441 1.377 . S
C2441 H2425 0.930 . S
C2441 C2440 1.377 . S
C2441 C2442 1.379 . S
C2442 H2426 0.931 . S
C2442 C2436 1.383 . S
C2442 C2441 1.379 . S
H2443 C2437 0.959 . S
H2444 C2437 0.961 . S
H2445 C2437 0.960 . S
H2446 C2438 0.930 . S
H2447 C2439 0.929 . S
H2448 C2456 0.929 . S
H2449 C2458 0.930 . S
H2450 C2460 0.930 . S
H2451 C2463 0.929 . S
H2452 C2466 0.930 . S
H2453 C2468 0.960 . S
H2454 C2468 0.960 . S
H2455 C2468 0.960 . S
C2456 H2448 0.929 . S
C2456 C2457 1.377 . S
C2456 C2458 1.384 . S
C2457 C2456 1.377 . S
C2457 C2463 1.390 . S
C2458 H2449 0.930 . S
C2458 C2456 1.384 . S
C2458 C2459 1.372 . S
C2459 C2458 1.372 . S
C2459 C2460 1.400 . S
C2459 C2464 1.490 . S
C2460 H2450 0.930 . S
C2460 C2459 1.400 . S
C2460 C2463 1.386 . S
H2461 C2477 0.930 . S
H2462 C2478 0.931 . S
C2463 H2451 0.929 . S
C2463 C2457 1.390 . S
C2463 C2460 1.386 . S
C2464 C2459 1.490 . S
C2464 C2466 1.395 . S
C2464 C2467 1.403 . S
H2465 C2471 0.930 . S
C2466 H2452 0.930 . S
C2466 C2464 1.395 . S
C2466 C2469 1.403 1_655 S
C2467 C2464 1.403 . S
C2467 C2468 1.524 . S
C2467 C2471 1.400 1_655 S
C2468 H2453 0.960 . S
C2468 H2454 0.960 . S
C2468 H2455 0.960 . S
C2468 C2467 1.524 . S
C2469 C2466 1.403 1_455 S
C2469 C2470 1.392 . S
C2469 C2473 1.495 . S
C2470 C2469 1.392 . S
C2470 C2471 1.385 . S
C2470 C2472 1.478 . S
C2471 H2465 0.930 . S
C2471 C2467 1.400 1_455 S
C2471 C2470 1.385 . S
C2472 C2470 1.478 . S
C2472 C2474 1.381 . S
C2472 C2478 1.383 . S
C2473 C2469 1.495 . S
C2473 H2479 0.959 . S
C2473 H2480 0.961 . S
C2473 H2481 0.960 . S
C2474 C2472 1.381 . S
C2474 C2475 1.394 . S
C2474 H2482 0.930 . S
C2475 C2474 1.394 . S
C2475 C2476 1.383 . S
C2475 H2483 0.929 . S
C2476 C2475 1.383 . S
C2476 C2477 1.377 . S
C2477 H2461 0.930 . S
C2477 C2476 1.377 . S
C2477 C2478 1.379 . S
C2478 H2462 0.931 . S
C2478 C2472 1.383 . S
C2478 C2477 1.379 . S
H2479 C2473 0.959 . S
H2480 C2473 0.961 . S
H2481 C2473 0.960 . S
H2482 C2474 0.930 . S
H2483 C2475 0.929 . S
H2484 C2492 0.929 . S
H2485 C2494 0.930 . S
H2486 C2496 0.930 . S
H2487 C2499 0.929 . S
H2488 C2502 0.930 . S
H2489 C2504 0.960 . S
H2490 C2504 0.960 . S
H2491 C2504 0.960 . S
C2492 H2484 0.929 . S
C2492 C2493 1.377 . S
C2492 C2494 1.384 . S
C2493 C2492 1.377 . S
C2493 C2499 1.390 . S
C2494 H2485 0.930 . S
C2494 C2492 1.384 . S
C2494 C2495 1.372 . S
C2495 C2494 1.372 . S
C2495 C2496 1.400 . S
C2495 C2500 1.490 . S
C2496 H2486 0.930 . S
C2496 C2495 1.400 . S
C2496 C2499 1.386 . S
H2497 C2513 0.930 . S
H2498 C2514 0.931 . S
C2499 H2487 0.929 . S
C2499 C2493 1.390 . S
C2499 C2496 1.386 . S
C2500 C2495 1.490 . S
C2500 C2502 1.395 . S
C2500 C2503 1.403 . S
H2501 C2507 0.930 . S
C2502 H2488 0.930 . S
C2502 C2500 1.395 . S
C2502 C2505 1.403 . S
C2503 C2500 1.403 . S
C2503 C2504 1.524 . S
C2503 C2507 1.400 . S
C2504 H2489 0.960 . S
C2504 H2490 0.960 . S
C2504 H2491 0.960 . S
C2504 C2503 1.524 . S
C2505 C2502 1.403 . S
C2505 C2506 1.392 . S
C2505 C2509 1.495 . S
C2506 C2505 1.392 . S
C2506 C2507 1.385 . S
C2506 C2508 1.478 . S
C2507 H2501 0.930 . S
C2507 C2503 1.400 . S
C2507 C2506 1.385 . S
C2508 C2506 1.478 . S
C2508 C2510 1.381 . S
C2508 C2514 1.383 . S
C2509 C2505 1.495 . S
C2509 H2515 0.959 . S
C2509 H2516 0.961 . S
C2509 H2517 0.960 . S
C2510 C2508 1.381 . S
C2510 C2511 1.394 . S
C2510 H2518 0.930 . S
C2511 C2510 1.394 . S
C2511 C2512 1.383 . S
C2511 H2519 0.929 . S
C2512 C2511 1.383 . S
C2512 C2513 1.377 . S
C2513 H2497 0.930 . S
C2513 C2512 1.377 . S
C2513 C2514 1.379 . S
C2514 H2498 0.931 . S
C2514 C2508 1.383 . S
C2514 C2513 1.379 . S
H2515 C2509 0.959 . S
H2516 C2509 0.961 . S
H2517 C2509 0.960 . S
H2518 C2510 0.930 . S
H2519 C2511 0.929 . S
H2520 C2528 0.929 . S
H2521 C2530 0.930 . S
H2522 C2532 0.930 . S
H2523 C2535 0.929 . S
H2524 C2538 0.930 . S
H2525 C2540 0.960 . S
H2526 C2540 0.960 . S
H2527 C2540 0.960 . S
C2528 H2520 0.929 . S
C2528 C2529 1.377 . S
C2528 C2530 1.384 . S
C2529 C2528 1.377 . S
C2529 C2535 1.390 . S
C2530 H2521 0.930 . S
C2530 C2528 1.384 . S
C2530 C2531 1.372 . S
C2531 C2530 1.372 . S
C2531 C2532 1.400 . S
C2531 C2536 1.490 . S
C2532 H2522 0.930 . S
C2532 C2531 1.400 . S
C2532 C2535 1.386 . S
H2533 C2549 0.930 . S
H2534 C2550 0.931 . S
C2535 H2523 0.929 . S
C2535 C2529 1.390 . S
C2535 C2532 1.386 . S
C2536 C2531 1.490 . S
C2536 C2538 1.395 . S
C2536 C2539 1.403 . S
H2537 C2543 0.930 . S
C2538 H2524 0.930 . S
C2538 C2536 1.395 . S
C2538 C2541 1.403 . S
C2539 C2536 1.403 . S
C2539 C2540 1.524 . S
C2539 C2543 1.400 . S
C2540 H2525 0.960 . S
C2540 H2526 0.960 . S
C2540 H2527 0.960 . S
C2540 C2539 1.524 . S
C2541 C2538 1.403 . S
C2541 C2542 1.392 . S
C2541 C2545 1.495 . S
C2542 C2541 1.392 . S
C2542 C2543 1.385 . S
C2542 C2544 1.478 . S
C2543 H2537 0.930 . S
C2543 C2539 1.400 . S
C2543 C2542 1.385 . S
C2544 C2542 1.478 . S
C2544 C2546 1.381 . S
C2544 C2550 1.383 . S
C2545 C2541 1.495 . S
C2545 H2551 0.959 . S
C2545 H2552 0.961 . S
C2545 H2553 0.960 . S
C2546 C2544 1.381 . S
C2546 C2547 1.394 . S
C2546 H2554 0.930 . S
C2547 C2546 1.394 . S
C2547 C2548 1.383 . S
C2547 H2555 0.929 . S
C2548 C2547 1.383 . S
C2548 C2549 1.377 . S
C2549 H2533 0.930 . S
C2549 C2548 1.377 . S
C2549 C2550 1.379 . S
C2550 H2534 0.931 . S
C2550 C2544 1.383 . S
C2550 C2549 1.379 . S
H2551 C2545 0.959 . S
H2552 C2545 0.961 . S
H2553 C2545 0.960 . S
H2554 C2546 0.930 . S
H2555 C2547 0.929 . S
H2556 C2564 0.929 . S
H2557 C2566 0.930 . S
H2558 C2568 0.930 . S
H2559 C2571 0.929 . S
H2560 C2574 0.930 . S
H2561 C2576 0.960 . S
H2562 C2576 0.960 . S
H2563 C2576 0.960 . S
C2564 H2556 0.929 . S
C2564 C2565 1.377 . S
C2564 C2566 1.384 . S
C2565 C2564 1.377 . S
C2565 C2571 1.390 . S
C2566 H2557 0.930 . S
C2566 C2564 1.384 . S
C2566 C2567 1.372 . S
C2567 C2566 1.372 . S
C2567 C2568 1.400 . S
C2567 C2572 1.490 . S
C2568 H2558 0.930 . S
C2568 C2567 1.400 . S
C2568 C2571 1.386 . S
H2569 C2585 0.930 . S
H2570 C2586 0.931 . S
C2571 H2559 0.929 . S
C2571 C2565 1.390 . S
C2571 C2568 1.386 . S
C2572 C2567 1.490 . S
C2572 C2574 1.395 . S
C2572 C2575 1.403 . S
H2573 C2579 0.930 . S
C2574 H2560 0.930 . S
C2574 C2572 1.395 . S
C2574 C2577 1.403 . S
C2575 C2572 1.403 . S
C2575 C2576 1.524 . S
C2575 C2579 1.400 . S
C2576 H2561 0.960 . S
C2576 H2562 0.960 . S
C2576 H2563 0.960 . S
C2576 C2575 1.524 . S
C2577 C2574 1.403 . S
C2577 C2578 1.392 . S
C2577 C2581 1.495 . S
C2578 C2577 1.392 . S
C2578 C2579 1.385 . S
C2578 C2580 1.478 . S
C2579 H2573 0.930 . S
C2579 C2575 1.400 . S
C2579 C2578 1.385 . S
C2580 C2578 1.478 . S
C2580 C2582 1.381 . S
C2580 C2586 1.383 . S
C2581 C2577 1.495 . S
C2581 H2587 0.959 . S
C2581 H2588 0.961 . S
C2581 H2589 0.960 . S
C2582 C2580 1.381 . S
C2582 C2583 1.394 . S
C2582 H2590 0.930 . S
C2583 C2582 1.394 . S
C2583 C2584 1.383 . S
C2583 H2591 0.929 . S
C2584 C2583 1.383 . S
C2584 C2585 1.377 . S
C2585 H2569 0.930 . S
C2585 C2584 1.377 . S
C2585 C2586 1.379 . S
C2586 H2570 0.931 . S
C2586 C2580 1.383 . S
C2586 C2585 1.379 . S
H2587 C2581 0.959 . S
H2588 C2581 0.961 . S
H2589 C2581 0.960 . S
H2590 C2582 0.930 . S
H2591 C2583 0.929 . S
H2592 C2600 0.929 . S
H2593 C2602 0.930 . S
H2594 C2604 0.930 . S
H2595 C2607 0.929 . S
H2596 C2610 0.930 . S
H2597 C2612 0.960 . S
H2598 C2612 0.960 . S
H2599 C2612 0.960 . S
C2600 H2592 0.929 . S
C2600 C2601 1.377 . S
C2600 C2602 1.384 . S
C2601 C2600 1.377 . S
C2601 C2607 1.390 . S
C2602 H2593 0.930 . S
C2602 C2600 1.384 . S
C2602 C2603 1.372 . S
C2603 C2602 1.372 . S
C2603 C2604 1.400 . S
C2603 C2608 1.490 . S
C2604 H2594 0.930 . S
C2604 C2603 1.400 . S
C2604 C2607 1.386 . S
H2605 C2621 0.930 . S
H2606 C2622 0.931 . S
C2607 H2595 0.929 . S
C2607 C2601 1.390 . S
C2607 C2604 1.386 . S
C2608 C2603 1.490 . S
C2608 C2610 1.395 . S
C2608 C2611 1.403 . S
H2609 C2615 0.930 . S
C2610 H2596 0.930 . S
C2610 C2608 1.395 . S
C2610 C2613 1.403 . S
C2611 C2608 1.403 . S
C2611 C2612 1.524 . S
C2611 C2615 1.400 . S
C2612 H2597 0.960 . S
C2612 H2598 0.960 . S
C2612 H2599 0.960 . S
C2612 C2611 1.524 . S
C2613 C2610 1.403 . S
C2613 C2614 1.392 . S
C2613 C2617 1.495 . S
C2614 C2613 1.392 . S
C2614 C2615 1.385 . S
C2614 C2616 1.478 . S
C2615 H2609 0.930 . S
C2615 C2611 1.400 . S
C2615 C2614 1.385 . S
C2616 C2614 1.478 . S
C2616 C2618 1.381 . S
C2616 C2622 1.383 . S
C2617 C2613 1.495 . S
C2617 H2623 0.959 . S
C2617 H2624 0.961 . S
C2617 H2625 0.960 . S
C2618 C2616 1.381 . S
C2618 C2619 1.394 . S
C2618 H2626 0.930 . S
C2619 C2618 1.394 . S
C2619 C2620 1.383 . S
C2619 H2627 0.929 . S
C2620 C2619 1.383 . S
C2620 C2621 1.377 . S
C2621 H2605 0.930 . S
C2621 C2620 1.377 . S
C2621 C2622 1.379 . S
C2622 H2606 0.931 . S
C2622 C2616 1.383 . S
C2622 C2621 1.379 . S
H2623 C2617 0.959 . S
H2624 C2617 0.961 . S
H2625 C2617 0.960 . S
H2626 C2618 0.930 . S
H2627 C2619 0.929 . S
H2628 C2636 0.929 . S
H2629 C2638 0.930 . S
H2630 C2640 0.930 . S
H2631 C2643 0.929 . S
H2632 C2646 0.930 . S
H2633 C2648 0.960 . S
H2634 C2648 0.960 . S
H2635 C2648 0.960 . S
C2636 H2628 0.929 . S
C2636 C2637 1.377 . S
C2636 C2638 1.384 . S
C2637 C2636 1.377 . S
C2637 C2643 1.390 . S
C2638 H2629 0.930 . S
C2638 C2636 1.384 . S
C2638 C2639 1.372 . S
C2639 C2638 1.372 . S
C2639 C2640 1.400 . S
C2639 C2644 1.490 . S
C2640 H2630 0.930 . S
C2640 C2639 1.400 . S
C2640 C2643 1.386 . S
H2641 C2657 0.930 . S
H2642 C2658 0.931 . S
C2643 H2631 0.929 . S
C2643 C2637 1.390 . S
C2643 C2640 1.386 . S
C2644 C2639 1.490 . S
C2644 C2646 1.395 . S
C2644 C2647 1.403 . S
H2645 C2651 0.930 . S
C2646 H2632 0.930 . S
C2646 C2644 1.395 . S
C2646 C2649 1.403 . S
C2647 C2644 1.403 . S
C2647 C2648 1.524 . S
C2647 C2651 1.400 . S
C2648 H2633 0.960 . S
C2648 H2634 0.960 . S
C2648 H2635 0.960 . S
C2648 C2647 1.524 . S
C2649 C2646 1.403 . S
C2649 C2650 1.392 . S
C2649 C2653 1.495 . S
C2650 C2649 1.392 . S
C2650 C2651 1.385 . S
C2650 C2652 1.478 . S
C2651 H2645 0.930 . S
C2651 C2647 1.400 . S
C2651 C2650 1.385 . S
C2652 C2650 1.478 . S
C2652 C2654 1.381 . S
C2652 C2658 1.383 . S
C2653 C2649 1.495 . S
C2653 H2659 0.959 . S
C2653 H2660 0.961 . S
C2653 H2661 0.960 . S
C2654 C2652 1.381 . S
C2654 C2655 1.394 . S
C2654 H2662 0.930 . S
C2655 C2654 1.394 . S
C2655 C2656 1.383 . S
C2655 H2663 0.929 . S
C2656 C2655 1.383 . S
C2656 C2657 1.377 . S
C2657 H2641 0.930 . S
C2657 C2656 1.377 . S
C2657 C2658 1.379 . S
C2658 H2642 0.931 . S
C2658 C2652 1.383 . S
C2658 C2657 1.379 . S
H2659 C2653 0.959 . S
H2660 C2653 0.961 . S
H2661 C2653 0.960 . S
H2662 C2654 0.930 . S
H2663 C2655 0.929 . S
H2664 C2672 0.929 . S
H2665 C2674 0.930 . S
H2666 C2676 0.930 . S
H2667 C2679 0.929 . S
H2668 C2682 0.930 . S
H2669 C2684 0.960 . S
H2670 C2684 0.960 . S
H2671 C2684 0.960 . S
C2672 H2664 0.929 . S
C2672 C2673 1.377 . S
C2672 C2674 1.384 . S
C2673 C2672 1.377 . S
C2673 C2679 1.390 . S
C2674 H2665 0.930 . S
C2674 C2672 1.384 . S
C2674 C2675 1.372 . S
C2675 C2674 1.372 . S
C2675 C2676 1.400 . S
C2675 C2680 1.490 . S
C2676 H2666 0.930 . S
C2676 C2675 1.400 . S
C2676 C2679 1.386 . S
H2677 C2693 0.930 . S
H2678 C2694 0.931 . S
C2679 H2667 0.929 . S
C2679 C2673 1.390 . S
C2679 C2676 1.386 . S
C2680 C2675 1.490 . S
C2680 C2682 1.395 . S
C2680 C2683 1.403 . S
H2681 C2687 0.930 . S
C2682 H2668 0.930 . S
C2682 C2680 1.395 . S
C2682 C2685 1.403 . S
C2683 C2680 1.403 . S
C2683 C2684 1.524 . S
C2683 C2687 1.400 . S
C2684 H2669 0.960 . S
C2684 H2670 0.960 . S
C2684 H2671 0.960 . S
C2684 C2683 1.524 . S
C2685 C2682 1.403 . S
C2685 C2686 1.392 . S
C2685 C2689 1.495 . S
C2686 C2685 1.392 . S
C2686 C2687 1.385 . S
C2686 C2688 1.478 . S
C2687 H2681 0.930 . S
C2687 C2683 1.400 . S
C2687 C2686 1.385 . S
C2688 C2686 1.478 . S
C2688 C2690 1.381 . S
C2688 C2694 1.383 . S
C2689 C2685 1.495 . S
C2689 H2695 0.959 . S
C2689 H2696 0.961 . S
C2689 H2697 0.960 . S
C2690 C2688 1.381 . S
C2690 C2691 1.394 . S
C2690 H2698 0.930 . S
C2691 C2690 1.394 . S
C2691 C2692 1.383 . S
C2691 H2699 0.929 . S
C2692 C2691 1.383 . S
C2692 C2693 1.377 . S
C2693 H2677 0.930 . S
C2693 C2692 1.377 . S
C2693 C2694 1.379 . S
C2694 H2678 0.931 . S
C2694 C2688 1.383 . S
C2694 C2693 1.379 . S
H2695 C2689 0.959 . S
H2696 C2689 0.961 . S
H2697 C2689 0.960 . S
H2698 C2690 0.930 . S
H2699 C2691 0.929 . S
H2700 C2708 0.929 . S
H2701 C2710 0.930 . S
H2702 C2712 0.930 . S
H2703 C2715 0.929 . S
H2704 C2718 0.930 . S
H2705 C2720 0.960 . S
H2706 C2720 0.960 . S
H2707 C2720 0.960 . S
C2708 H2700 0.929 . S
C2708 C2709 1.377 . S
C2708 C2710 1.384 . S
C2709 C2708 1.377 . S
C2709 C2715 1.390 . S
C2710 H2701 0.930 . S
C2710 C2708 1.384 . S
C2710 C2711 1.372 . S
C2711 C2710 1.372 . S
C2711 C2712 1.400 . S
C2711 C2716 1.490 . S
C2712 H2702 0.930 . S
C2712 C2711 1.400 . S
C2712 C2715 1.386 . S
H2713 C2729 0.930 . S
H2714 C2730 0.931 . S
C2715 H2703 0.929 . S
C2715 C2709 1.390 . S
C2715 C2712 1.386 . S
C2716 C2711 1.490 . S
C2716 C2718 1.395 . S
C2716 C2719 1.403 . S
H2717 C2723 0.930 . S
C2718 H2704 0.930 . S
C2718 C2716 1.395 . S
C2718 C2721 1.403 . S
C2719 C2716 1.403 . S
C2719 C2720 1.524 . S
C2719 C2723 1.400 . S
C2720 H2705 0.960 . S
C2720 H2706 0.960 . S
C2720 H2707 0.960 . S
C2720 C2719 1.524 . S
C2721 C2718 1.403 . S
C2721 C2722 1.392 . S
C2721 C2725 1.495 . S
C2722 C2721 1.392 . S
C2722 C2723 1.385 . S
C2722 C2724 1.478 . S
C2723 H2717 0.930 . S
C2723 C2719 1.400 . S
C2723 C2722 1.385 . S
C2724 C2722 1.478 . S
C2724 C2726 1.381 . S
C2724 C2730 1.383 . S
C2725 C2721 1.495 . S
C2725 H2731 0.959 . S
C2725 H2732 0.961 . S
C2725 H2733 0.960 . S
C2726 C2724 1.381 . S
C2726 C2727 1.394 . S
C2726 H2734 0.930 . S
C2727 C2726 1.394 . S
C2727 C2728 1.383 . S
C2727 H2735 0.929 . S
C2728 C2727 1.383 . S
C2728 C2729 1.377 . S
C2729 H2713 0.930 . S
C2729 C2728 1.377 . S
C2729 C2730 1.379 . S
C2730 H2714 0.931 . S
C2730 C2724 1.383 . S
C2730 C2729 1.379 . S
H2731 C2725 0.959 . S
H2732 C2725 0.961 . S
H2733 C2725 0.960 . S
H2734 C2726 0.930 . S
H2735 C2727 0.929 . S
H2736 C2744 0.929 . S
H2737 C2746 0.930 . S
H2738 C2748 0.930 . S
H2739 C2751 0.929 . S
H2740 C2754 0.930 . S
H2741 C2756 0.960 . S
H2742 C2756 0.960 . S
H2743 C2756 0.960 . S
C2744 H2736 0.929 . S
C2744 C2745 1.377 . S
C2744 C2746 1.384 . S
C2745 C2744 1.377 . S
C2745 C2751 1.390 . S
C2746 H2737 0.930 . S
C2746 C2744 1.384 . S
C2746 C2747 1.372 . S
C2747 C2746 1.372 . S
C2747 C2748 1.400 . S
C2747 C2752 1.490 . S
C2748 H2738 0.930 . S
C2748 C2747 1.400 . S
C2748 C2751 1.386 . S
H2749 C2765 0.930 . S
H2750 C2766 0.931 . S
C2751 H2739 0.929 . S
C2751 C2745 1.390 . S
C2751 C2748 1.386 . S
C2752 C2747 1.490 . S
C2752 C2754 1.395 . S
C2752 C2755 1.403 . S
H2753 C2759 0.930 . S
C2754 H2740 0.930 . S
C2754 C2752 1.395 . S
C2754 C2757 1.403 . S
C2755 C2752 1.403 . S
C2755 C2756 1.524 . S
C2755 C2759 1.400 . S
C2756 H2741 0.960 . S
C2756 H2742 0.960 . S
C2756 H2743 0.960 . S
C2756 C2755 1.524 . S
C2757 C2754 1.403 . S
C2757 C2758 1.392 . S
C2757 C2761 1.495 . S
C2758 C2757 1.392 . S
C2758 C2759 1.385 . S
C2758 C2760 1.478 . S
C2759 H2753 0.930 . S
C2759 C2755 1.400 . S
C2759 C2758 1.385 . S
C2760 C2758 1.478 . S
C2760 C2762 1.381 . S
C2760 C2766 1.383 . S
C2761 C2757 1.495 . S
C2761 H2767 0.959 . S
C2761 H2768 0.961 . S
C2761 H2769 0.960 . S
C2762 C2760 1.381 . S
C2762 C2763 1.394 . S
C2762 H2770 0.930 . S
C2763 C2762 1.394 . S
C2763 C2764 1.383 . S
C2763 H2771 0.929 . S
C2764 C2763 1.383 . S
C2764 C2765 1.377 . S
C2765 H2749 0.930 . S
C2765 C2764 1.377 . S
C2765 C2766 1.379 . S
C2766 H2750 0.931 . S
C2766 C2760 1.383 . S
C2766 C2765 1.379 . S
H2767 C2761 0.959 . S
H2768 C2761 0.961 . S
H2769 C2761 0.960 . S
H2770 C2762 0.930 . S
H2771 C2763 0.929 . S
H2772 C2780 0.929 . S
H2773 C2782 0.930 . S
H2774 C2784 0.930 . S
H2775 C2787 0.929 . S
H2776 C2790 0.930 . S
H2777 C2792 0.960 . S
H2778 C2792 0.960 . S
H2779 C2792 0.960 . S
C2780 H2772 0.929 . S
C2780 C2781 1.377 . S
C2780 C2782 1.384 . S
C2781 C2780 1.377 . S
C2781 C2787 1.390 . S
C2782 H2773 0.930 . S
C2782 C2780 1.384 . S
C2782 C2783 1.372 . S
C2783 C2782 1.372 . S
C2783 C2784 1.400 . S
C2783 C2788 1.490 . S
C2784 H2774 0.930 . S
C2784 C2783 1.400 . S
C2784 C2787 1.386 . S
H2785 C2801 0.930 . S
H2786 C2802 0.931 . S
C2787 H2775 0.929 . S
C2787 C2781 1.390 . S
C2787 C2784 1.386 . S
C2788 C2783 1.490 . S
C2788 C2790 1.395 . S
C2788 C2791 1.403 . S
H2789 C2795 0.930 . S
C2790 H2776 0.930 . S
C2790 C2788 1.395 . S
C2790 C2793 1.403 . S
C2791 C2788 1.403 . S
C2791 C2792 1.524 . S
C2791 C2795 1.400 . S
C2792 H2777 0.960 . S
C2792 H2778 0.960 . S
C2792 H2779 0.960 . S
C2792 C2791 1.524 . S
C2793 C2790 1.403 . S
C2793 C2794 1.392 . S
C2793 C2797 1.495 . S
C2794 C2793 1.392 . S
C2794 C2795 1.385 . S
C2794 C2796 1.478 . S
C2795 H2789 0.930 . S
C2795 C2791 1.400 . S
C2795 C2794 1.385 . S
C2796 C2794 1.478 . S
C2796 C2798 1.381 . S
C2796 C2802 1.383 . S
C2797 C2793 1.495 . S
C2797 H2803 0.959 . S
C2797 H2804 0.961 . S
C2797 H2805 0.960 . S
C2798 C2796 1.381 . S
C2798 C2799 1.394 . S
C2798 H2806 0.930 . S
C2799 C2798 1.394 . S
C2799 C2800 1.383 . S
C2799 H2807 0.929 . S
C2800 C2799 1.383 . S
C2800 C2801 1.377 . S
C2801 H2785 0.930 . S
C2801 C2800 1.377 . S
C2801 C2802 1.379 . S
C2802 H2786 0.931 . S
C2802 C2796 1.383 . S
C2802 C2801 1.379 . S
H2803 C2797 0.959 . S
H2804 C2797 0.961 . S
H2805 C2797 0.960 . S
H2806 C2798 0.930 . S
H2807 C2799 0.929 . S
H2808 C2816 0.929 . S
H2809 C2818 0.930 . S
H2810 C2820 0.930 . S
H2811 C2823 0.929 . S
H2812 C2826 0.930 . S
H2813 C2828 0.960 . S
H2814 C2828 0.960 . S
H2815 C2828 0.960 . S
C2816 H2808 0.929 . S
C2816 C2817 1.377 . S
C2816 C2818 1.384 . S
C2817 C2816 1.377 . S
C2817 C2823 1.390 . S
C2818 H2809 0.930 . S
C2818 C2816 1.384 . S
C2818 C2819 1.372 . S
C2819 C2818 1.372 . S
C2819 C2820 1.400 . S
C2819 C2824 1.490 . S
C2820 H2810 0.930 . S
C2820 C2819 1.400 . S
C2820 C2823 1.386 . S
H2821 C2837 0.930 . S
H2822 C2838 0.931 . S
C2823 H2811 0.929 . S
C2823 C2817 1.390 . S
C2823 C2820 1.386 . S
C2824 C2819 1.490 . S
C2824 C2826 1.395 . S
C2824 C2827 1.403 . S
H2825 C2831 0.930 . S
C2826 H2812 0.930 . S
C2826 C2824 1.395 . S
C2826 C2829 1.403 . S
C2827 C2824 1.403 . S
C2827 C2828 1.524 . S
C2827 C2831 1.400 . S
C2828 H2813 0.960 . S
C2828 H2814 0.960 . S
C2828 H2815 0.960 . S
C2828 C2827 1.524 . S
C2829 C2826 1.403 . S
C2829 C2830 1.392 . S
C2829 C2833 1.495 . S
C2830 C2829 1.392 . S
C2830 C2831 1.385 . S
C2830 C2832 1.478 . S
C2831 H2825 0.930 . S
C2831 C2827 1.400 . S
C2831 C2830 1.385 . S
C2832 C2830 1.478 . S
C2832 C2834 1.381 . S
C2832 C2838 1.383 . S
C2833 C2829 1.495 . S
C2833 H2839 0.959 . S
C2833 H2840 0.961 . S
C2833 H2841 0.960 . S
C2834 C2832 1.381 . S
C2834 C2835 1.394 . S
C2834 H2842 0.930 . S
C2835 C2834 1.394 . S
C2835 C2836 1.383 . S
C2835 H2843 0.929 . S
C2836 C2835 1.383 . S
C2836 C2837 1.377 . S
C2837 H2821 0.930 . S
C2837 C2836 1.377 . S
C2837 C2838 1.379 . S
C2838 H2822 0.931 . S
C2838 C2832 1.383 . S
C2838 C2837 1.379 . S
H2839 C2833 0.959 . S
H2840 C2833 0.961 . S
H2841 C2833 0.960 . S
H2842 C2834 0.930 . S
H2843 C2835 0.929 . S
H2844 C2852 0.929 . S
H2845 C2854 0.930 . S
H2846 C2856 0.930 . S
H2847 C2859 0.929 . S
H2848 C2862 0.930 . S
H2849 C2864 0.960 . S
H2850 C2864 0.960 . S
H2851 C2864 0.960 . S
C2852 H2844 0.929 . S
C2852 C2853 1.377 . S
C2852 C2854 1.384 . S
C2853 C2852 1.377 . S
C2853 C2859 1.390 . S
C2854 H2845 0.930 . S
C2854 C2852 1.384 . S
C2854 C2855 1.372 . S
C2855 C2854 1.372 . S
C2855 C2856 1.400 . S
C2855 C2860 1.490 . S
C2856 H2846 0.930 . S
C2856 C2855 1.400 . S
C2856 C2859 1.386 . S
H2857 C2873 0.930 . S
H2858 C2874 0.931 . S
C2859 H2847 0.929 . S
C2859 C2853 1.390 . S
C2859 C2856 1.386 . S
C2860 C2855 1.490 . S
C2860 C2862 1.395 . S
C2860 C2863 1.403 . S
H2861 C2867 0.930 . S
C2862 H2848 0.930 . S
C2862 C2860 1.395 . S
C2862 C2865 1.403 . S
C2863 C2860 1.403 . S
C2863 C2864 1.524 . S
C2863 C2867 1.400 . S
C2864 H2849 0.960 . S
C2864 H2850 0.960 . S
C2864 H2851 0.960 . S
C2864 C2863 1.524 . S
C2865 C2862 1.403 . S
C2865 C2866 1.392 . S
C2865 C2869 1.495 . S
C2866 C2865 1.392 . S
C2866 C2867 1.385 . S
C2866 C2868 1.478 . S
C2867 H2861 0.930 . S
C2867 C2863 1.400 . S
C2867 C2866 1.385 . S
C2868 C2866 1.478 . S
C2868 C2870 1.381 . S
C2868 C2874 1.383 . S
C2869 C2865 1.495 . S
C2869 H2875 0.959 . S
C2869 H2876 0.961 . S
C2869 H2877 0.960 . S
C2870 C2868 1.381 . S
C2870 C2871 1.394 . S
C2870 H2878 0.930 . S
C2871 C2870 1.394 . S
C2871 C2872 1.383 . S
C2871 H2879 0.929 . S
C2872 C2871 1.383 . S
C2872 C2873 1.377 . S
C2873 H2857 0.930 . S
C2873 C2872 1.377 . S
C2873 C2874 1.379 . S
C2874 H2858 0.931 . S
C2874 C2868 1.383 . S
C2874 C2873 1.379 . S
H2875 C2869 0.959 . S
H2876 C2869 0.961 . S
H2877 C2869 0.960 . S
H2878 C2870 0.930 . S
H2879 C2871 0.929 . S
H2880 C2888 0.929 . S
H2881 C2890 0.930 . S
H2882 C2892 0.930 . S
H2883 C2895 0.929 . S
H2884 C2898 0.930 . S
H2885 C2900 0.960 . S
H2886 C2900 0.960 . S
H2887 C2900 0.960 . S
C2888 H2880 0.929 . S
C2888 C2889 1.377 . S
C2888 C2890 1.384 . S
C2889 C2888 1.377 . S
C2889 C2895 1.390 . S
C2890 H2881 0.930 . S
C2890 C2888 1.384 . S
C2890 C2891 1.372 . S
C2891 C2890 1.372 . S
C2891 C2892 1.400 . S
C2891 C2896 1.490 . S
C2892 H2882 0.930 . S
C2892 C2891 1.400 . S
C2892 C2895 1.386 . S
H2893 C2909 0.930 . S
H2894 C2910 0.931 . S
C2895 H2883 0.929 . S
C2895 C2889 1.390 . S
C2895 C2892 1.386 . S
C2896 C2891 1.490 . S
C2896 C2898 1.395 . S
C2896 C2899 1.403 . S
H2897 C2903 0.930 . S
C2898 H2884 0.930 . S
C2898 C2896 1.395 . S
C2898 C2901 1.403 . S
C2899 C2896 1.403 . S
C2899 C2900 1.524 . S
C2899 C2903 1.400 . S
C2900 H2885 0.960 . S
C2900 H2886 0.960 . S
C2900 H2887 0.960 . S
C2900 C2899 1.524 . S
C2901 C2898 1.403 . S
C2901 C2902 1.392 . S
C2901 C2905 1.495 . S
C2902 C2901 1.392 . S
C2902 C2903 1.385 . S
C2902 C2904 1.478 . S
C2903 H2897 0.930 . S
C2903 C2899 1.400 . S
C2903 C2902 1.385 . S
C2904 C2902 1.478 . S
C2904 C2906 1.381 . S
C2904 C2910 1.383 . S
C2905 C2901 1.495 . S
C2905 H2911 0.959 . S
C2905 H2912 0.961 . S
C2905 H2913 0.960 . S
C2906 C2904 1.381 . S
C2906 C2907 1.394 . S
C2906 H2914 0.930 . S
C2907 C2906 1.394 . S
C2907 C2908 1.383 . S
C2907 H2915 0.929 . S
C2908 C2907 1.383 . S
C2908 C2909 1.377 . S
C2909 H2893 0.930 . S
C2909 C2908 1.377 . S
C2909 C2910 1.379 . S
C2910 H2894 0.931 . S
C2910 C2904 1.383 . S
C2910 C2909 1.379 . S
H2911 C2905 0.959 . S
H2912 C2905 0.961 . S
H2913 C2905 0.960 . S
H2914 C2906 0.930 . S
H2915 C2907 0.929 . S
H2916 C2924 0.929 . S
H2917 C2926 0.930 . S
H2918 C2928 0.930 . S
H2919 C2931 0.929 . S
H2920 C2934 0.930 . S
H2921 C2936 0.960 . S
H2922 C2936 0.960 . S
H2923 C2936 0.960 . S
C2924 H2916 0.929 . S
C2924 C2925 1.377 . S
C2924 C2926 1.384 . S
C2925 C2924 1.377 . S
C2925 C2931 1.390 . S
C2926 H2917 0.930 . S
C2926 C2924 1.384 . S
C2926 C2927 1.372 . S
C2927 C2926 1.372 . S
C2927 C2928 1.400 . S
C2927 C2932 1.490 . S
C2928 H2918 0.930 . S
C2928 C2927 1.400 . S
C2928 C2931 1.386 . S
H2929 C2945 0.930 . S
H2930 C2946 0.931 . S
C2931 H2919 0.929 . S
C2931 C2925 1.390 . S
C2931 C2928 1.386 . S
C2932 C2927 1.490 . S
C2932 C2934 1.395 . S
C2932 C2935 1.403 . S
H2933 C2939 0.930 . S
C2934 H2920 0.930 . S
C2934 C2932 1.395 . S
C2934 C2937 1.403 . S
C2935 C2932 1.403 . S
C2935 C2936 1.524 . S
C2935 C2939 1.400 . S
C2936 H2921 0.960 . S
C2936 H2922 0.960 . S
C2936 H2923 0.960 . S
C2936 C2935 1.524 . S
C2937 C2934 1.403 . S
C2937 C2938 1.392 . S
C2937 C2941 1.495 . S
C2938 C2937 1.392 . S
C2938 C2939 1.385 . S
C2938 C2940 1.478 . S
C2939 H2933 0.930 . S
C2939 C2935 1.400 . S
C2939 C2938 1.385 . S
C2940 C2938 1.478 . S
C2940 C2942 1.381 . S
C2940 C2946 1.383 . S
C2941 C2937 1.495 . S
C2941 H2947 0.959 . S
C2941 H2948 0.961 . S
C2941 H2949 0.960 . S
C2942 C2940 1.381 . S
C2942 C2943 1.394 . S
C2942 H2950 0.930 . S
C2943 C2942 1.394 . S
C2943 C2944 1.383 . S
C2943 H2951 0.929 . S
C2944 C2943 1.383 . S
C2944 C2945 1.377 . S
C2945 H2929 0.930 . S
C2945 C2944 1.377 . S
C2945 C2946 1.379 . S
C2946 H2930 0.931 . S
C2946 C2940 1.383 . S
C2946 C2945 1.379 . S
H2947 C2941 0.959 . S
H2948 C2941 0.961 . S
H2949 C2941 0.960 . S
H2950 C2942 0.930 . S
H2951 C2943 0.929 . S
H2952 C2960 0.929 . S
H2953 C2962 0.930 . S
H2954 C2964 0.930 . S
H2955 C2967 0.929 . S
H2956 C2970 0.930 . S
H2957 C2972 0.960 . S
H2958 C2972 0.960 . S
H2959 C2972 0.960 1_655 S
C2960 H2952 0.929 . S
C2960 C2961 1.377 . S
C2960 C2962 1.384 . S
C2961 C2960 1.377 . S
C2961 C2967 1.390 . S
C2962 H2953 0.930 . S
C2962 C2960 1.384 . S
C2962 C2963 1.372 . S
C2963 C2962 1.372 . S
C2963 C2964 1.400 . S
C2963 C2968 1.490 . S
C2964 H2954 0.930 . S
C2964 C2963 1.400 . S
C2964 C2967 1.386 . S
H2965 C2981 0.930 . S
H2966 C2982 0.931 . S
C2967 H2955 0.929 . S
C2967 C2961 1.390 . S
C2967 C2964 1.386 . S
C2968 C2963 1.490 . S
C2968 C2970 1.395 . S
C2968 C2971 1.382 1_655 S
H2969 C2975 0.930 . S
C2970 H2956 0.930 . S
C2970 C2968 1.395 . S
C2970 C2973 1.406 . S
C2971 C2968 1.382 1_455 S
C2971 C2972 1.525 . S
C2971 C2975 1.421 . S
C2972 H2957 0.960 . S
C2972 H2958 0.960 . S
C2972 H2959 0.960 1_455 S
C2972 C2971 1.525 . S
C2973 C2970 1.406 . S
C2973 C2974 1.390 1_655 S
C2973 C2977 1.496 . S
C2974 C2973 1.390 1_455 S
C2974 C2975 1.385 . S
C2974 C2976 1.478 . S
C2975 H2969 0.930 . S
C2975 C2971 1.421 . S
C2975 C2974 1.385 . S
C2976 C2974 1.478 . S
C2976 C2978 1.381 . S
C2976 C2982 1.383 . S
C2977 C2973 1.496 . S
C2977 H2983 1.028 . S
C2977 H2984 0.951 . S
C2977 H2985 0.907 1_655 S
C2978 C2976 1.381 . S
C2978 C2979 1.394 . S
C2978 H2986 0.930 . S
C2979 C2978 1.394 . S
C2979 C2980 1.383 . S
C2979 H2987 0.929 . S
C2980 C2979 1.383 . S
C2980 C2981 1.377 . S
C2981 H2965 0.930 . S
C2981 C2980 1.377 . S
C2981 C2982 1.379 . S
C2982 H2966 0.931 . S
C2982 C2976 1.383 . S
C2982 C2981 1.379 . S
H2983 C2977 1.028 . S
H2984 C2977 0.951 . S
H2985 C2977 0.907 1_455 S
H2986 C2978 0.930 . S
H2987 C2979 0.929 . S
H2988 C2996 0.929 . S
H2989 C2998 0.930 . S
H2990 C3000 0.930 . S
H2991 C3003 0.929 . S
H2992 C3006 0.930 . S
H2993 C3008 0.960 . S
H2994 C3008 0.960 . S
H2995 C3008 0.960 . S
C2996 H2988 0.929 . S
C2996 C2997 1.377 . S
C2996 C2998 1.384 . S
C2997 C2996 1.377 . S
C2997 C3003 1.390 . S
C2998 H2989 0.930 . S
C2998 C2996 1.384 . S
C2998 C2999 1.372 . S
C2999 C2998 1.372 . S
C2999 C3000 1.400 . S
C2999 C3004 1.490 . S
C3000 H2990 0.930 . S
C3000 C2999 1.400 . S
C3000 C3003 1.386 . S
H3001 C3017 0.930 . S
H3002 C3018 0.931 . S
C3003 H2991 0.929 . S
C3003 C2997 1.390 . S
C3003 C3000 1.386 . S
C3004 C2999 1.490 . S
C3004 C3006 1.395 . S
C3004 C3007 1.403 . S
H3005 C3011 0.930 . S
C3006 H2992 0.930 . S
C3006 C3004 1.395 . S
C3006 C3009 1.403 . S
C3007 C3004 1.403 . S
C3007 C3008 1.524 . S
C3007 C3011 1.400 . S
C3008 H2993 0.960 . S
C3008 H2994 0.960 . S
C3008 H2995 0.960 . S
C3008 C3007 1.524 . S
C3009 C3006 1.403 . S
C3009 C3010 1.392 . S
C3009 C3013 1.495 . S
C3010 C3009 1.392 . S
C3010 C3011 1.385 . S
C3010 C3012 1.478 . S
C3011 H3005 0.930 . S
C3011 C3007 1.400 . S
C3011 C3010 1.385 . S
C3012 C3010 1.478 . S
C3012 C3014 1.381 . S
C3012 C3018 1.383 . S
C3013 C3009 1.495 . S
C3013 H3019 0.959 . S
C3013 H3020 0.961 . S
C3013 H3021 0.960 . S
C3014 C3012 1.381 . S
C3014 C3015 1.394 . S
C3014 H3022 0.930 . S
C3015 C3014 1.394 . S
C3015 C3016 1.383 . S
C3015 H3023 0.929 . S
C3016 C3015 1.383 . S
C3016 C3017 1.377 . S
C3017 H3001 0.930 . S
C3017 C3016 1.377 . S
C3017 C3018 1.379 . S
C3018 H3002 0.931 . S
C3018 C3012 1.383 . S
C3018 C3017 1.379 . S
H3019 C3013 0.959 . S
H3020 C3013 0.961 . S
H3021 C3013 0.960 . S
H3022 C3014 0.930 . S
H3023 C3015 0.929 . S
H3024 C3032 0.929 . S
H3025 C3034 0.930 . S
H3026 C3036 0.930 . S
H3027 C3039 0.929 . S
H3028 C3042 0.930 . S
H3029 C3044 0.960 . S
H3030 C3044 0.960 . S
H3031 C3044 0.960 . S
C3032 H3024 0.929 . S
C3032 C3033 1.377 . S
C3032 C3034 1.384 . S
C3033 C3032 1.377 . S
C3033 C3039 1.390 . S
C3034 H3025 0.930 . S
C3034 C3032 1.384 . S
C3034 C3035 1.372 . S
C3035 C3034 1.372 . S
C3035 C3036 1.400 . S
C3035 C3040 1.490 . S
C3036 H3026 0.930 . S
C3036 C3035 1.400 . S
C3036 C3039 1.386 . S
H3037 C3053 0.930 . S
H3038 C3054 0.931 . S
C3039 H3027 0.929 . S
C3039 C3033 1.390 . S
C3039 C3036 1.386 . S
C3040 C3035 1.490 . S
C3040 C3042 1.395 . S
C3040 C3043 1.403 1_545 S
H3041 C3047 0.930 . S
C3042 H3028 0.930 . S
C3042 C3040 1.395 . S
C3042 C3045 1.403 . S
C3043 C3040 1.403 1_565 S
C3043 C3044 1.524 . S
C3043 C3047 1.400 . S
C3044 H3029 0.960 . S
C3044 H3030 0.960 . S
C3044 H3031 0.960 . S
C3044 C3043 1.524 . S
C3045 C3042 1.403 . S
C3045 C3046 1.392 1_545 S
C3045 C3049 1.495 . S
C3046 C3045 1.392 1_565 S
C3046 C3047 1.385 . S
C3046 C3048 1.478 . S
C3047 H3041 0.930 . S
C3047 C3043 1.400 . S
C3047 C3046 1.385 . S
C3048 C3046 1.478 . S
C3048 C3050 1.381 . S
C3048 C3054 1.383 . S
C3049 C3045 1.495 . S
C3049 H3055 0.959 . S
C3049 H3056 0.961 . S
C3049 H3057 0.960 . S
C3050 C3048 1.381 . S
C3050 C3051 1.394 . S
C3050 H3058 0.930 . S
C3051 C3050 1.394 . S
C3051 C3052 1.383 . S
C3051 H3059 0.929 . S
C3052 C3051 1.383 . S
C3052 C3053 1.377 . S
C3053 H3037 0.930 . S
C3053 C3052 1.377 . S
C3053 C3054 1.379 . S
C3054 H3038 0.931 . S
C3054 C3048 1.383 . S
C3054 C3053 1.379 . S
H3055 C3049 0.959 . S
H3056 C3049 0.961 . S
H3057 C3049 0.960 . S
H3058 C3050 0.930 . S
H3059 C3051 0.929 . S
H3060 C3068 0.929 . S
H3061 C3070 0.930 . S
H3062 C3072 0.930 1_556 S
H3063 C3075 0.929 . S
H3064 C3078 0.930 . S
H3065 C3080 0.951 1_556 S
H3066 C3080 0.979 . S
H3067 C3080 0.951 1_556 S
C3068 H3060 0.929 . S
C3068 C3069 1.377 . S
C3068 C3070 1.384 . S
C3069 C3068 1.377 . S
C3069 C3075 1.390 . S
C3070 H3061 0.930 . S
C3070 C3068 1.384 . S
C3070 C3071 1.372 . S
C3071 C3070 1.372 . S
C3071 C3072 1.400 . S
C3071 C3076 1.490 . S
C3072 H3062 0.930 1_554 S
C3072 C3071 1.400 . S
C3072 C3075 1.386 . S
H3073 C3089 0.930 . S
H3074 C3090 0.931 . S
C3075 H3063 0.929 . S
C3075 C3069 1.390 . S
C3075 C3072 1.386 . S
C3076 C3071 1.490 . S
C3076 C3078 1.395 1_565 S
C3076 C3079 1.423 . S
H3077 C3083 0.930 . S
C3078 H3064 0.930 . S
C3078 C3076 1.395 1_545 S
C3078 C3081 1.403 . S
C3079 C3076 1.423 . S
C3079 C3080 1.523 . S
C3079 C3083 1.382 1_554 S
C3080 H3065 0.951 1_554 S
C3080 H3066 0.979 . S
C3080 H3067 0.951 1_554 S
C3080 C3079 1.523 . S
C3081 C3078 1.403 . S
C3081 C3082 1.392 1_554 S
C3081 C3085 1.495 . S
C3082 C3081 1.392 1_556 S
C3082 C3083 1.385 1_545 S
C3082 C3084 1.478 . S
C3083 H3077 0.930 . S
C3083 C3079 1.382 1_556 S
C3083 C3082 1.385 1_565 S
C3084 C3082 1.478 . S
C3084 C3086 1.381 . S
C3084 C3090 1.383 . S
C3085 C3081 1.495 . S
C3085 H3091 0.959 . S
C3085 H3092 0.961 1_554 S
C3085 H3093 0.960 . S
C3086 C3084 1.381 . S
C3086 C3087 1.394 . S
C3086 H3094 0.930 1_556 S
C3087 C3086 1.394 . S
C3087 C3088 1.383 . S
C3087 H3095 0.929 . S
C3088 C3087 1.383 . S
C3088 C3089 1.377 . S
C3089 H3073 0.930 . S
C3089 C3088 1.377 . S
C3089 C3090 1.379 . S
C3090 H3074 0.931 . S
C3090 C3084 1.383 . S
C3090 C3089 1.379 . S
H3091 C3085 0.959 . S
H3092 C3085 0.961 1_556 S
H3093 C3085 0.960 . S
H3094 C3086 0.930 1_554 S
H3095 C3087 0.929 . S
H3096 C3104 0.929 . S
H3097 C3106 0.930 . S
H3098 C3108 0.930 . S
H3099 C3111 0.929 . S
H3100 C3114 0.930 . S
H3101 C3116 0.960 1_455 S
H3102 C3116 0.960 . S
H3103 C3116 0.958 . S
C3104 H3096 0.929 . S
C3104 C3105 1.377 . S
C3104 C3106 1.384 . S
C3105 C3104 1.377 . S
C3105 C3111 1.390 . S
C3106 H3097 0.930 . S
C3106 C3104 1.384 . S
C3106 C3107 1.372 . S
C3107 C3106 1.372 . S
C3107 C3108 1.400 . S
C3107 C3112 1.490 . S
C3108 H3098 0.930 . S
C3108 C3107 1.400 . S
C3108 C3111 1.386 . S
H3109 C3125 0.930 . S
H3110 C3126 0.931 . S
C3111 H3099 0.929 . S
C3111 C3105 1.390 . S
C3111 C3108 1.386 . S
C3112 C3107 1.490 . S
C3112 C3114 1.395 1_556 S
C3112 C3115 1.403 . S
H3113 C3119 0.930 . S
C3114 H3100 0.930 . S
C3114 C3112 1.395 1_554 S
C3114 C3117 1.402 1_655 S
C3115 C3112 1.403 . S
C3115 C3116 1.524 . S
C3115 C3119 1.400 1_655 S
C3116 H3101 0.960 1_655 S
C3116 H3102 0.960 . S
C3116 H3103 0.958 . S
C3116 C3115 1.524 . S
C3117 C3114 1.402 1_455 S
C3117 C3118 1.393 . S
C3117 C3121 1.496 . S
C3118 C3117 1.393 . S
C3118 C3119 1.385 1_554 S
C3118 C3120 1.478 . S
C3119 H3113 0.930 . S
C3119 C3115 1.400 1_455 S
C3119 C3118 1.385 1_556 S
C3120 C3118 1.478 . S
C3120 C3122 1.381 . S
C3120 C3126 1.383 . S
C3121 C3117 1.496 . S
C3121 H3127 0.959 1_455 S
C3121 H3128 0.961 . S
C3121 H3129 0.960 1_455 S
C3122 C3120 1.381 . S
C3122 C3123 1.394 . S
C3122 H3130 0.930 . S
C3123 C3122 1.394 . S
C3123 C3124 1.383 . S
C3123 H3131 0.929 . S
C3124 C3123 1.383 . S
C3124 C3125 1.377 . S
C3125 H3109 0.930 . S
C3125 C3124 1.377 . S
C3125 C3126 1.379 . S
C3126 H3110 0.931 . S
C3126 C3120 1.383 . S
C3126 C3125 1.379 . S
H3127 C3121 0.959 1_655 S
H3128 C3121 0.961 . S
H3129 C3121 0.960 1_655 S
H3130 C3122 0.930 . S
H3131 C3123 0.929 . S
H3132 C3140 0.929 . S
H3133 C3142 0.930 . S
H3134 C3144 0.930 . S
H3135 C3147 0.929 . S
H3136 C3150 0.930 . S
H3137 C3152 0.960 . S
H3138 C3152 0.960 . S
H3139 C3152 0.960 1_554 S
C3140 H3132 0.929 . S
C3140 C3141 1.377 . S
C3140 C3142 1.384 . S
C3141 C3140 1.377 . S
C3141 C3147 1.390 . S
C3142 H3133 0.930 . S
C3142 C3140 1.384 . S
C3142 C3143 1.372 . S
C3143 C3142 1.372 . S
C3143 C3144 1.400 . S
C3143 C3148 1.490 . S
C3144 H3134 0.930 . S
C3144 C3143 1.400 . S
C3144 C3147 1.386 . S
H3145 C3161 0.930 . S
H3146 C3162 0.908 1_554 S
C3147 H3135 0.929 . S
C3147 C3141 1.390 . S
C3147 C3144 1.386 . S
C3148 C3143 1.490 . S
C3148 C3150 1.395 . S
C3148 C3151 1.403 1_554 S
H3149 C3155 0.930 . S
C3150 H3136 0.930 . S
C3150 C3148 1.395 . S
C3150 C3153 1.403 . S
C3151 C3148 1.403 1_556 S
C3151 C3152 1.524 . S
C3151 C3155 1.400 . S
C3152 H3137 0.960 . S
C3152 H3138 0.960 . S
C3152 H3139 0.960 1_556 S
C3152 C3151 1.524 . S
C3153 C3150 1.403 . S
C3153 C3154 1.392 1_554 S
C3153 C3157 1.495 . S
C3154 C3153 1.392 1_556 S
C3154 C3155 1.385 . S
C3154 C3156 1.478 . S
C3155 H3149 0.930 . S
C3155 C3151 1.400 . S
C3155 C3154 1.385 . S
C3156 C3154 1.478 . S
C3156 C3158 1.381 . S
C3156 C3162 1.383 . S
C3157 C3153 1.495 . S
C3157 H3163 0.959 . S
C3157 H3164 0.961 . S
C3157 H3165 0.960 1_554 S
C3158 C3156 1.381 . S
C3158 C3159 1.394 . S
C3158 H3166 0.930 . S
C3159 C3158 1.394 . S
C3159 C3160 1.383 . S
C3159 H3167 0.929 . S
C3160 C3159 1.383 . S
C3160 C3161 1.377 . S
C3161 H3145 0.930 . S
C3161 C3160 1.377 . S
C3161 C3162 1.379 . S
C3162 H3146 0.908 1_556 S
C3162 C3156 1.383 . S
C3162 C3161 1.379 . S
H3163 C3157 0.959 . S
H3164 C3157 0.961 . S
H3165 C3157 0.960 1_556 S
H3166 C3158 0.930 . S
H3167 C3159 0.929 . S
H3168 C3176 0.929 . S
H3169 C3178 0.930 1_554 S
H3170 C3180 0.930 . S
H3171 C3183 0.929 . S
H3172 C3186 0.930 1_556 S
H3173 C3188 0.960 . S
H3174 C3188 0.960 . S
H3175 C3188 0.960 1_556 S
C3176 H3168 0.929 . S
C3176 C3177 1.377 . S
C3176 C3178 1.384 . S
C3177 C3176 1.377 . S
C3177 C3183 1.390 . S
C3178 H3169 0.930 1_556 S
C3178 C3176 1.384 . S
C3178 C3179 1.372 . S
C3179 C3178 1.372 . S
C3179 C3180 1.400 . S
C3179 C3184 1.515 . S
C3180 H3170 0.930 . S
C3180 C3179 1.400 . S
C3180 C3183 1.386 . S
H3181 C3197 0.930 . S
H3182 C3198 0.931 . S
C3183 H3171 0.929 . S
C3183 C3177 1.390 . S
C3183 C3180 1.386 . S
C3184 C3179 1.515 . S
C3184 C3186 1.388 1_556 S
C3184 C3187 1.386 1_556 S
H3185 C3191 0.930 . S
C3186 H3172 0.930 1_554 S
C3186 C3184 1.388 1_554 S
C3186 C3189 1.403 . S
C3187 C3184 1.386 1_554 S
C3187 C3188 1.524 . S
C3187 C3191 1.400 . S
C3188 H3173 0.960 . S
C3188 H3174 0.960 . S
C3188 H3175 0.960 1_554 S
C3188 C3187 1.524 . S
C3189 C3186 1.403 . S
C3189 C3190 1.392 . S
C3189 C3193 1.495 . S
C3190 C3189 1.392 . S
C3190 C3191 1.385 . S
C3190 C3192 1.478 . S
C3191 H3185 0.930 . S
C3191 C3187 1.400 . S
C3191 C3190 1.385 . S
C3192 C3190 1.478 . S
C3192 C3194 1.381 . S
C3192 C3198 1.383 . S
C3193 C3189 1.495 . S
C3193 H3199 0.959 . S
C3193 H3200 0.961 . S
C3193 H3201 0.960 . S
C3194 C3192 1.381 . S
C3194 C3195 1.394 . S
C3194 H3202 0.930 . S
C3195 C3194 1.394 . S
C3195 C3196 1.383 . S
C3195 H3203 0.929 . S
C3196 C3195 1.383 . S
C3196 C3197 1.377 . S
C3197 H3181 0.930 . S
C3197 C3196 1.377 . S
C3197 C3198 1.379 . S
C3198 H3182 0.931 . S
C3198 C3192 1.383 . S
C3198 C3197 1.379 . S
H3199 C3193 0.959 . S
H3200 C3193 0.961 . S
H3201 C3193 0.960 . S
H3202 C3194 0.930 . S
H3203 C3195 0.929 . S
H3204 C3212 0.929 . S
H3205 C3214 0.930 . S
H3206 C3216 0.930 . S
H3207 C3219 0.929 . S
H3208 C3222 0.930 . S
H3209 C3224 0.960 . S
H3210 C3224 0.960 . S
H3211 C3224 0.960 . S
C3212 H3204 0.929 . S
C3212 C3213 1.377 . S
C3212 C3214 1.384 . S
C3213 C3212 1.377 . S
C3213 C3219 1.390 . S
C3214 H3205 0.930 . S
C3214 C3212 1.384 . S
C3214 C3215 1.372 . S
C3215 C3214 1.372 . S
C3215 C3216 1.400 . S
C3215 C3220 1.490 . S
C3216 H3206 0.930 . S
C3216 C3215 1.400 . S
C3216 C3219 1.386 . S
H3217 C3233 0.930 . S
H3218 C3234 0.931 . S
C3219 H3207 0.929 . S
C3219 C3213 1.390 . S
C3219 C3216 1.386 . S
C3220 C3215 1.490 . S
C3220 C3222 1.395 . S
C3220 C3223 1.403 . S
H3221 C3227 0.943 . S
C3222 H3208 0.930 . S
C3222 C3220 1.395 . S
C3222 C3225 1.403 . S
C3223 C3220 1.403 . S
C3223 C3224 1.524 . S
C3223 C3227 1.400 . S
C3224 H3209 0.960 . S
C3224 H3210 0.960 . S
C3224 H3211 0.960 . S
C3224 C3223 1.524 . S
C3225 C3222 1.403 . S
C3225 C3226 1.392 1_554 S
C3225 C3229 1.495 1_554 S
C3226 C3225 1.392 1_556 S
C3226 C3227 1.385 1_556 S
C3226 C3228 1.478 . S
C3227 H3221 0.943 . S
C3227 C3223 1.400 . S
C3227 C3226 1.385 1_554 S
C3228 C3226 1.478 . S
C3228 C3230 1.381 . S
C3228 C3234 1.383 . S
C3229 C3225 1.495 1_556 S
C3229 H3235 0.959 1_556 S
C3229 H3236 0.961 . S
C3229 H3237 0.960 1_556 S
C3230 C3228 1.381 . S
C3230 C3231 1.394 . S
C3230 H3238 0.930 1_556 S
C3231 C3230 1.394 . S
C3231 C3232 1.383 . S
C3231 H3239 0.929 . S
C3232 C3231 1.383 . S
C3232 C3233 1.377 . S
C3233 H3217 0.930 . S
C3233 C3232 1.377 . S
C3233 C3234 1.379 . S
C3234 H3218 0.931 . S
C3234 C3228 1.383 . S
C3234 C3233 1.379 . S
H3235 C3229 0.959 1_554 S
H3236 C3229 0.961 . S
H3237 C3229 0.960 1_554 S
H3238 C3230 0.930 1_554 S
H3239 C3231 0.929 . S
H3240 C3248 0.929 . S
H3241 C3250 0.930 . S
H3242 C3252 0.930 . S
H3243 C3255 0.929 . S
H3244 C3258 0.930 . S
H3245 C3260 0.960 1_556 S
H3246 C3260 0.960 . S
H3247 C3260 0.960 . S
C3248 H3240 0.929 . S
C3248 C3249 1.377 . S
C3248 C3250 1.384 . S
C3249 C3248 1.377 . S
C3249 C3255 1.390 . S
C3250 H3241 0.930 . S
C3250 C3248 1.384 . S
C3250 C3251 1.372 . S
C3251 C3250 1.372 . S
C3251 C3252 1.400 . S
C3251 C3256 1.490 . S
C3252 H3242 0.930 . S
C3252 C3251 1.400 . S
C3252 C3255 1.386 . S
H3253 C3269 0.930 . S
H3254 C3270 0.931 . S
C3255 H3243 0.929 . S
C3255 C3249 1.390 . S
C3255 C3252 1.386 . S
C3256 C3251 1.490 . S
C3256 C3258 1.395 . S
C3256 C3259 1.403 . S
H3257 C3263 0.930 . S
C3258 H3244 0.930 . S
C3258 C3256 1.395 . S
C3258 C3261 1.403 . S
C3259 C3256 1.403 . S
C3259 C3260 1.524 . S
C3259 C3263 1.400 1_554 S
C3260 H3245 0.960 1_554 S
C3260 H3246 0.960 . S
C3260 H3247 0.960 . S
C3260 C3259 1.524 . S
C3261 C3258 1.403 . S
C3261 C3262 1.413 . S
C3261 C3265 1.495 . S
C3262 C3261 1.413 . S
C3262 C3263 1.382 1_554 S
C3262 C3264 1.461 1_554 S
C3263 H3257 0.930 . S
C3263 C3259 1.400 1_556 S
C3263 C3262 1.382 1_556 S
C3264 C3262 1.461 1_556 S
C3264 C3266 1.381 . S
C3264 C3270 1.383 . S
C3265 C3261 1.495 . S
C3265 H3271 0.959 . S
C3265 H3272 0.961 . S
C3265 H3273 0.960 . S
C3266 C3264 1.381 . S
C3266 C3267 1.394 . S
C3266 H3274 0.930 1_556 S
C3267 C3266 1.394 . S
C3267 C3268 1.383 . S
C3267 H3275 0.929 . S
C3268 C3267 1.383 . S
C3268 C3269 1.377 . S
C3269 H3253 0.930 . S
C3269 C3268 1.377 . S
C3269 C3270 1.379 . S
C3270 H3254 0.931 . S
C3270 C3264 1.383 . S
C3270 C3269 1.379 . S
H3271 C3265 0.959 . S
H3272 C3265 0.961 . S
H3273 C3265 0.960 . S
H3274 C3266 0.930 1_554 S
H3275 C3267 0.929 . S
H3276 C3284 0.929 . S
H3277 C3286 0.930 . S
H3278 C3288 0.930 . S
H3279 C3291 0.929 . S
H3280 C3294 0.930 . S
H3281 C3296 0.960 . S
H3282 C3296 0.960 . S
H3283 C3296 0.960 . S
C3284 H3276 0.929 . S
C3284 C3285 1.377 . S
C3284 C3286 1.384 . S
C3285 C3284 1.377 . S
C3285 C3291 1.390 . S
C3286 H3277 0.930 . S
C3286 C3284 1.384 . S
C3286 C3287 1.372 . S
C3287 C3286 1.372 . S
C3287 C3288 1.400 . S
C3287 C3292 1.490 . S
C3288 H3278 0.930 . S
C3288 C3287 1.400 . S
C3288 C3291 1.386 . S
H3289 C3305 0.930 . S
H3290 C3306 0.931 . S
C3291 H3279 0.929 . S
C3291 C3285 1.390 . S
C3291 C3288 1.386 . S
C3292 C3287 1.490 . S
C3292 C3294 1.395 . S
C3292 C3295 1.403 . S
H3293 C3299 0.930 . S
C3294 H3280 0.930 . S
C3294 C3292 1.395 . S
C3294 C3297 1.403 . S
C3295 C3292 1.403 . S
C3295 C3296 1.524 . S
C3295 C3299 1.400 . S
C3296 H3281 0.960 . S
C3296 H3282 0.960 . S
C3296 H3283 0.960 . S
C3296 C3295 1.524 . S
C3297 C3294 1.403 . S
C3297 C3298 1.392 . S
C3297 C3301 1.495 . S
C3298 C3297 1.392 . S
C3298 C3299 1.385 . S
C3298 C3300 1.478 . S
C3299 H3293 0.930 . S
C3299 C3295 1.400 . S
C3299 C3298 1.385 . S
C3300 C3298 1.478 . S
C3300 C3302 1.381 . S
C3300 C3306 1.383 . S
C3301 C3297 1.495 . S
C3301 H3307 0.959 . S
C3301 H3308 0.961 . S
C3301 H3309 0.960 . S
C3302 C3300 1.381 . S
C3302 C3303 1.394 . S
C3302 H3310 0.930 . S
C3303 C3302 1.394 . S
C3303 C3304 1.383 . S
C3303 H3311 0.929 . S
C3304 C3303 1.383 . S
C3304 C3305 1.377 . S
C3305 H3289 0.930 . S
C3305 C3304 1.377 . S
C3305 C3306 1.379 . S
C3306 H3290 0.931 . S
C3306 C3300 1.383 . S
C3306 C3305 1.379 . S
H3307 C3301 0.959 . S
H3308 C3301 0.961 . S
H3309 C3301 0.960 . S
H3310 C3302 0.930 . S
H3311 C3303 0.929 . S
H3312 C3320 0.929 . S
H3313 C3322 0.930 . S
H3314 C3324 0.930 . S
H3315 C3327 0.929 . S
H3316 C3330 0.930 . S
H3317 C3332 0.960 . S
H3318 C3332 0.960 . S
H3319 C3332 0.960 . S
C3320 H3312 0.929 . S
C3320 C3321 1.377 . S
C3320 C3322 1.384 . S
C3321 C3320 1.377 . S
C3321 C3327 1.390 . S
C3322 H3313 0.930 . S
C3322 C3320 1.384 . S
C3322 C3323 1.372 . S
C3323 C3322 1.372 . S
C3323 C3324 1.400 . S
C3323 C3328 1.490 . S
C3324 H3314 0.930 . S
C3324 C3323 1.400 . S
C3324 C3327 1.386 . S
H3325 C3341 0.930 . S
H3326 C3342 0.931 . S
C3327 H3315 0.929 . S
C3327 C3321 1.390 . S
C3327 C3324 1.386 . S
C3328 C3323 1.490 . S
C3328 C3330 1.395 . S
C3328 C3331 1.403 . S
H3329 C3335 0.930 . S
C3330 H3316 0.930 . S
C3330 C3328 1.395 . S
C3330 C3333 1.403 . S
C3331 C3328 1.403 . S
C3331 C3332 1.524 . S
C3331 C3335 1.400 . S
C3332 H3317 0.960 . S
C3332 H3318 0.960 . S
C3332 H3319 0.960 . S
C3332 C3331 1.524 . S
C3333 C3330 1.403 . S
C3333 C3334 1.392 . S
C3333 C3337 1.495 . S
C3334 C3333 1.392 . S
C3334 C3335 1.385 . S
C3334 C3336 1.478 . S
C3335 H3329 0.930 . S
C3335 C3331 1.400 . S
C3335 C3334 1.385 . S
C3336 C3334 1.478 . S
C3336 C3338 1.381 . S
C3336 C3342 1.383 . S
C3337 C3333 1.495 . S
C3337 H3343 0.959 . S
C3337 H3344 0.961 . S
C3337 H3345 0.960 . S
C3338 C3336 1.381 . S
C3338 C3339 1.394 . S
C3338 H3346 0.930 . S
C3339 C3338 1.394 . S
C3339 C3340 1.383 . S
C3339 H3347 0.929 . S
C3340 C3339 1.383 . S
C3340 C3341 1.377 . S
C3341 H3325 0.930 . S
C3341 C3340 1.377 . S
C3341 C3342 1.379 . S
C3342 H3326 0.931 . S
C3342 C3336 1.383 . S
C3342 C3341 1.379 . S
H3343 C3337 0.959 . S
H3344 C3337 0.961 . S
H3345 C3337 0.960 . S
H3346 C3338 0.930 . S
H3347 C3339 0.929 . S
H3348 C3356 0.929 . S
H3349 C3358 0.930 . S
H3350 C3360 0.930 . S
H3351 C3363 0.929 . S
H3352 C3366 0.930 . S
H3353 C3368 0.960 . S
H3354 C3368 0.960 . S
H3355 C3368 0.960 . S
C3356 H3348 0.929 . S
C3356 C3357 1.377 . S
C3356 C3358 1.384 . S
C3357 C3356 1.377 . S
C3357 C3363 1.390 . S
C3358 H3349 0.930 . S
C3358 C3356 1.384 . S
C3358 C3359 1.372 . S
C3359 C3358 1.372 . S
C3359 C3360 1.400 . S
C3359 C3364 1.490 . S
C3360 H3350 0.930 . S
C3360 C3359 1.400 . S
C3360 C3363 1.386 . S
H3361 C3377 0.930 . S
H3362 C3378 0.931 . S
C3363 H3351 0.929 . S
C3363 C3357 1.390 . S
C3363 C3360 1.386 . S
C3364 C3359 1.490 . S
C3364 C3366 1.395 . S
C3364 C3367 1.403 . S
H3365 C3371 0.930 . S
C3366 H3352 0.930 . S
C3366 C3364 1.395 . S
C3366 C3369 1.403 . S
C3367 C3364 1.403 . S
C3367 C3368 1.524 . S
C3367 C3371 1.400 . S
C3368 H3353 0.960 . S
C3368 H3354 0.960 . S
C3368 H3355 0.960 . S
C3368 C3367 1.524 . S
C3369 C3366 1.403 . S
C3369 C3370 1.392 . S
C3369 C3373 1.495 . S
C3370 C3369 1.392 . S
C3370 C3371 1.385 . S
C3370 C3372 1.478 . S
C3371 H3365 0.930 . S
C3371 C3367 1.400 . S
C3371 C3370 1.385 . S
C3372 C3370 1.478 . S
C3372 C3374 1.381 . S
C3372 C3378 1.383 . S
C3373 C3369 1.495 . S
C3373 H3379 0.959 . S
C3373 H3380 0.961 . S
C3373 H3381 0.960 . S
C3374 C3372 1.381 . S
C3374 C3375 1.394 . S
C3374 H3382 0.930 . S
C3375 C3374 1.394 . S
C3375 C3376 1.383 . S
C3375 H3383 0.929 . S
C3376 C3375 1.383 . S
C3376 C3377 1.377 . S
C3377 H3361 0.930 . S
C3377 C3376 1.377 . S
C3377 C3378 1.379 . S
C3378 H3362 0.931 . S
C3378 C3372 1.383 . S
C3378 C3377 1.379 . S
H3379 C3373 0.959 . S
H3380 C3373 0.961 . S
H3381 C3373 0.960 . S
H3382 C3374 0.930 . S
H3383 C3375 0.929 . S
H3384 C3392 0.929 . S
H3385 C3394 0.930 . S
H3386 C3396 0.930 . S
H3387 C3399 0.929 . S
H3388 C3402 0.930 . S
H3389 C3404 0.960 . S
H3390 C3404 0.960 . S
H3391 C3404 0.960 . S
C3392 H3384 0.929 . S
C3392 C3393 1.377 . S
C3392 C3394 1.384 . S
C3393 C3392 1.377 . S
C3393 C3399 1.390 . S
C3394 H3385 0.930 . S
C3394 C3392 1.384 . S
C3394 C3395 1.372 . S
C3395 C3394 1.372 . S
C3395 C3396 1.400 . S
C3395 C3400 1.517 . S
C3396 H3386 0.930 . S
C3396 C3395 1.400 . S
C3396 C3399 1.386 . S
H3397 C3413 0.930 . S
H3398 C3414 0.931 . S
C3399 H3387 0.929 . S
C3399 C3393 1.390 . S
C3399 C3396 1.386 . S
C3400 C3395 1.517 . S
C3400 C3402 1.352 1_554 S
C3400 C3403 1.418 . S
H3401 C3407 0.930 . S
C3402 H3388 0.930 . S
C3402 C3400 1.352 1_556 S
C3402 C3405 1.403 . S
C3403 C3400 1.418 . S
C3403 C3404 1.524 . S
C3403 C3407 1.400 1_554 S
C3404 H3389 0.960 . S
C3404 H3390 0.960 . S
C3404 H3391 0.960 . S
C3404 C3403 1.524 . S
C3405 C3402 1.403 . S
C3405 C3406 1.392 . S
C3405 C3409 1.495 . S
C3406 C3405 1.392 . S
C3406 C3407 1.385 . S
C3406 C3408 1.478 . S
C3407 H3401 0.930 . S
C3407 C3403 1.400 1_556 S
C3407 C3406 1.385 . S
C3408 C3406 1.478 . S
C3408 C3410 1.381 . S
C3408 C3414 1.383 . S
C3409 C3405 1.495 . S
C3409 H3415 0.959 . S
C3409 H3416 0.961 . S
C3409 H3417 0.960 . S
C3410 C3408 1.381 . S
C3410 C3411 1.394 . S
C3410 H3418 0.930 . S
C3411 C3410 1.394 . S
C3411 C3412 1.383 . S
C3411 H3419 0.929 . S
C3412 C3411 1.383 . S
C3412 C3413 1.377 . S
C3413 H3397 0.930 . S
C3413 C3412 1.377 . S
C3413 C3414 1.379 . S
C3414 H3398 0.931 . S
C3414 C3408 1.383 . S
C3414 C3413 1.379 . S
H3415 C3409 0.959 . S
H3416 C3409 0.961 . S
H3417 C3409 0.960 . S
H3418 C3410 0.930 . S
H3419 C3411 0.929 . S
H3420 C3428 0.929 . S
H3421 C3430 0.930 . S
H3422 C3432 0.930 1_556 S
H3423 C3435 0.929 . S
H3424 C3438 0.937 . S
H3425 C3440 0.960 1_556 S
H3426 C3440 0.960 . S
H3427 C3440 0.967 . S
C3428 H3420 0.929 . S
C3428 C3429 1.377 . S
C3428 C3430 1.384 . S
C3429 C3428 1.377 . S
C3429 C3435 1.390 . S
C3430 H3421 0.930 . S
C3430 C3428 1.384 . S
C3430 C3431 1.372 . S
C3431 C3430 1.372 . S
C3431 C3432 1.400 . S
C3431 C3436 1.490 . S
C3432 H3422 0.930 1_554 S
C3432 C3431 1.400 . S
C3432 C3435 1.386 . S
H3433 C3449 0.930 . S
H3434 C3450 0.931 . S
C3435 H3423 0.929 . S
C3435 C3429 1.390 . S
C3435 C3432 1.386 . S
C3436 C3431 1.490 . S
C3436 C3438 1.395 1_554 S
C3436 C3439 1.403 1_554 S
H3437 C3443 0.930 . S
C3438 H3424 0.937 . S
C3438 C3436 1.395 1_556 S
C3438 C3441 1.403 . S
C3439 C3436 1.403 1_556 S
C3439 C3440 1.524 1_556 S
C3439 C3443 1.400 . S
C3440 H3425 0.960 1_554 S
C3440 H3426 0.960 . S
C3440 H3427 0.967 . S
C3440 C3439 1.524 1_554 S
C3441 C3438 1.403 . S
C3441 C3442 1.392 . S
C3441 C3445 1.495 . S
C3442 C3441 1.392 . S
C3442 C3443 1.385 . S
C3442 C3444 1.478 . S
C3443 H3437 0.930 . S
C3443 C3439 1.400 . S
C3443 C3442 1.385 . S
C3444 C3442 1.478 . S
C3444 C3446 1.381 . S
C3444 C3450 1.383 . S
C3445 C3441 1.495 . S
C3445 H3451 0.959 . S
C3445 H3452 0.961 . S
C3445 H3453 0.960 . S
C3446 C3444 1.381 . S
C3446 C3447 1.394 . S
C3446 H3454 0.930 . S
C3447 C3446 1.394 . S
C3447 C3448 1.383 . S
C3447 H3455 0.929 . S
C3448 C3447 1.383 . S
C3448 C3449 1.377 . S
C3449 H3433 0.930 . S
C3449 C3448 1.377 . S
C3449 C3450 1.379 . S
C3450 H3434 0.931 . S
C3450 C3444 1.383 . S
C3450 C3449 1.379 . S
H3451 C3445 0.959 . S
H3452 C3445 0.961 . S
H3453 C3445 0.960 . S
H3454 C3446 0.930 . S
H3455 C3447 0.929 . S
H3456 C3464 0.929 . S
H3457 C3466 0.930 . S
H3458 C3468 0.930 . S
H3459 C3471 0.929 . S
H3460 C3474 0.930 . S
H3461 C3476 0.960 . S
H3462 C3476 0.960 . S
H3463 C3476 0.960 . S
C3464 H3456 0.929 . S
C3464 C3465 1.377 . S
C3464 C3466 1.384 . S
C3465 C3464 1.377 . S
C3465 C3471 1.390 . S
C3466 H3457 0.930 . S
C3466 C3464 1.384 . S
C3466 C3467 1.372 . S
C3467 C3466 1.372 . S
C3467 C3468 1.400 . S
C3467 C3472 1.490 . S
C3468 H3458 0.930 . S
C3468 C3467 1.400 . S
C3468 C3471 1.386 . S
H3469 C3485 0.930 . S
H3470 C3486 0.931 . S
C3471 H3459 0.929 . S
C3471 C3465 1.390 . S
C3471 C3468 1.386 . S
C3472 C3467 1.490 . S
C3472 C3474 1.395 1_554 S
C3472 C3475 1.403 . S
H3473 C3479 0.930 . S
C3474 H3460 0.930 . S
C3474 C3472 1.395 1_556 S
C3474 C3477 1.403 . S
C3475 C3472 1.403 . S
C3475 C3476 1.523 . S
C3475 C3479 1.401 1_554 S
C3476 H3461 0.960 . S
C3476 H3462 0.960 . S
C3476 H3463 0.960 . S
C3476 C3475 1.523 . S
C3477 C3474 1.403 . S
C3477 C3478 1.392 . S
C3477 C3481 1.495 . S
C3478 C3477 1.392 . S
C3478 C3479 1.385 . S
C3478 C3480 1.478 . S
C3479 H3473 0.930 . S
C3479 C3475 1.401 1_556 S
C3479 C3478 1.385 . S
C3480 C3478 1.478 . S
C3480 C3482 1.381 . S
C3480 C3486 1.383 . S
C3481 C3477 1.495 . S
C3481 H3487 0.959 . S
C3481 H3488 0.961 . S
C3481 H3489 0.960 . S
C3482 C3480 1.381 . S
C3482 C3483 1.394 . S
C3482 H3490 0.930 . S
C3483 C3482 1.394 . S
C3483 C3484 1.383 . S
C3483 H3491 0.929 . S
C3484 C3483 1.383 . S
C3484 C3485 1.377 . S
C3485 H3469 0.930 . S
C3485 C3484 1.377 . S
C3485 C3486 1.379 . S
C3486 H3470 0.931 . S
C3486 C3480 1.383 . S
C3486 C3485 1.379 . S
H3487 C3481 0.959 . S
H3488 C3481 0.961 . S
H3489 C3481 0.960 . S
H3490 C3482 0.930 . S
H3491 C3483 0.929 . S
H3492 C3500 0.929 . S
H3493 C3502 0.930 . S
H3494 C3504 0.930 . S
H3495 C3507 0.929 . S
H3496 C3510 0.930 . S
H3497 C3512 0.960 . S
H3498 C3512 0.960 . S
H3499 C3512 0.960 . S
C3500 H3492 0.929 . S
C3500 C3501 1.377 . S
C3500 C3502 1.384 . S
C3501 C3500 1.377 . S
C3501 C3507 1.390 . S
C3502 H3493 0.930 . S
C3502 C3500 1.384 . S
C3502 C3503 1.372 . S
C3503 C3502 1.372 . S
C3503 C3504 1.400 . S
C3503 C3508 1.490 . S
C3504 H3494 0.930 . S
C3504 C3503 1.400 . S
C3504 C3507 1.386 . S
H3505 C3521 0.930 . S
H3506 C3522 0.931 . S
C3507 H3495 0.929 . S
C3507 C3501 1.390 . S
C3507 C3504 1.386 . S
C3508 C3503 1.490 . S
C3508 C3510 1.395 . S
C3508 C3511 1.403 . S
H3509 C3515 0.930 . S
C3510 H3496 0.930 . S
C3510 C3508 1.395 . S
C3510 C3513 1.403 . S
C3511 C3508 1.403 . S
C3511 C3512 1.524 . S
C3511 C3515 1.400 . S
C3512 H3497 0.960 . S
C3512 H3498 0.960 . S
C3512 H3499 0.960 . S
C3512 C3511 1.524 . S
C3513 C3510 1.403 . S
C3513 C3514 1.392 . S
C3513 C3517 1.495 . S
C3514 C3513 1.392 . S
C3514 C3515 1.385 . S
C3514 C3516 1.478 . S
C3515 H3509 0.930 . S
C3515 C3511 1.400 . S
C3515 C3514 1.385 . S
C3516 C3514 1.478 . S
C3516 C3518 1.381 . S
C3516 C3522 1.383 . S
C3517 C3513 1.495 . S
C3517 H3523 0.959 . S
C3517 H3524 0.961 . S
C3517 H3525 0.960 . S
C3518 C3516 1.381 . S
C3518 C3519 1.394 . S
C3518 H3526 0.930 . S
C3519 C3518 1.394 . S
C3519 C3520 1.383 . S
C3519 H3527 0.929 . S
C3520 C3519 1.383 . S
C3520 C3521 1.377 . S
C3521 H3505 0.930 . S
C3521 C3520 1.377 . S
C3521 C3522 1.379 . S
C3522 H3506 0.931 . S
C3522 C3516 1.383 . S
C3522 C3521 1.379 . S
H3523 C3517 0.959 . S
H3524 C3517 0.961 . S
H3525 C3517 0.960 . S
H3526 C3518 0.930 . S
H3527 C3519 0.929 . S
H3528 C3536 0.929 . S
H3529 C3538 0.930 . S
H3530 C3540 0.930 . S
H3531 C3543 0.929 . S
H3532 C3546 0.930 . S
H3533 C3548 0.960 . S
H3534 C3548 0.960 . S
H3535 C3548 0.960 . S
C3536 H3528 0.929 . S
C3536 C3537 1.377 . S
C3536 C3538 1.384 . S
C3537 C3536 1.377 . S
C3537 C3543 1.390 . S
C3538 H3529 0.930 . S
C3538 C3536 1.384 . S
C3538 C3539 1.372 . S
C3539 C3538 1.372 . S
C3539 C3540 1.400 . S
C3539 C3544 1.490 . S
C3540 H3530 0.930 . S
C3540 C3539 1.400 . S
C3540 C3543 1.386 . S
H3541 C3557 0.930 . S
H3542 C3558 0.931 . S
C3543 H3531 0.929 . S
C3543 C3537 1.390 . S
C3543 C3540 1.386 . S
C3544 C3539 1.490 . S
C3544 C3546 1.395 . S
C3544 C3547 1.403 . S
H3545 C3551 0.930 . S
C3546 H3532 0.930 . S
C3546 C3544 1.395 . S
C3546 C3549 1.403 . S
C3547 C3544 1.403 . S
C3547 C3548 1.524 . S
C3547 C3551 1.400 . S
C3548 H3533 0.960 . S
C3548 H3534 0.960 . S
C3548 H3535 0.960 . S
C3548 C3547 1.524 . S
C3549 C3546 1.403 . S
C3549 C3550 1.392 . S
C3549 C3553 1.495 . S
C3550 C3549 1.392 . S
C3550 C3551 1.385 . S
C3550 C3552 1.478 . S
C3551 H3545 0.930 . S
C3551 C3547 1.400 . S
C3551 C3550 1.385 . S
C3552 C3550 1.478 . S
C3552 C3554 1.381 . S
C3552 C3558 1.383 . S
C3553 C3549 1.495 . S
C3553 H3559 0.959 . S
C3553 H3560 0.961 . S
C3553 H3561 0.960 . S
C3554 C3552 1.381 . S
C3554 C3555 1.394 . S
C3554 H3562 0.930 . S
C3555 C3554 1.394 . S
C3555 C3556 1.383 . S
C3555 H3563 0.929 . S
C3556 C3555 1.383 . S
C3556 C3557 1.377 . S
C3557 H3541 0.930 . S
C3557 C3556 1.377 . S
C3557 C3558 1.379 . S
C3558 H3542 0.931 . S
C3558 C3552 1.383 . S
C3558 C3557 1.379 . S
H3559 C3553 0.959 . S
H3560 C3553 0.961 . S
H3561 C3553 0.960 . S
H3562 C3554 0.930 . S
H3563 C3555 0.929 . S
H3564 C3572 0.929 . S
H3565 C3574 0.930 . S
H3566 C3576 0.930 . S
H3567 C3579 0.929 . S
H3568 C3582 0.930 . S
H3569 C3584 0.960 . S
H3570 C3584 0.960 . S
H3571 C3584 0.960 . S
C3572 H3564 0.929 . S
C3572 C3573 1.377 . S
C3572 C3574 1.384 . S
C3573 C3572 1.377 . S
C3573 C3579 1.390 . S
C3574 H3565 0.930 . S
C3574 C3572 1.384 . S
C3574 C3575 1.372 . S
C3575 C3574 1.372 . S
C3575 C3576 1.400 . S
C3575 C3580 1.490 . S
C3576 H3566 0.930 . S
C3576 C3575 1.400 . S
C3576 C3579 1.386 . S
H3577 C3593 0.930 . S
H3578 C3594 0.931 . S
C3579 H3567 0.929 . S
C3579 C3573 1.390 . S
C3579 C3576 1.386 . S
C3580 C3575 1.490 . S
C3580 C3582 1.395 . S
C3580 C3583 1.403 . S
H3581 C3587 0.930 . S
C3582 H3568 0.930 . S
C3582 C3580 1.395 . S
C3582 C3585 1.403 . S
C3583 C3580 1.403 . S
C3583 C3584 1.524 . S
C3583 C3587 1.400 . S
C3584 H3569 0.960 . S
C3584 H3570 0.960 . S
C3584 H3571 0.960 . S
C3584 C3583 1.524 . S
C3585 C3582 1.403 . S
C3585 C3586 1.392 . S
C3585 C3589 1.495 . S
C3586 C3585 1.392 . S
C3586 C3587 1.385 . S
C3586 C3588 1.478 . S
C3587 H3581 0.930 . S
C3587 C3583 1.400 . S
C3587 C3586 1.385 . S
C3588 C3586 1.478 . S
C3588 C3590 1.381 . S
C3588 C3594 1.383 . S
C3589 C3585 1.495 . S
C3589 H3595 0.959 . S
C3589 H3596 0.961 . S
C3589 H3597 0.960 . S
C3590 C3588 1.381 . S
C3590 C3591 1.394 . S
C3590 H3598 0.930 . S
C3591 C3590 1.394 . S
C3591 C3592 1.383 . S
C3591 H3599 0.929 . S
C3592 C3591 1.383 . S
C3592 C3593 1.377 . S
C3593 H3577 0.930 . S
C3593 C3592 1.377 . S
C3593 C3594 1.379 . S
C3594 H3578 0.931 . S
C3594 C3588 1.383 . S
C3594 C3593 1.379 . S
H3595 C3589 0.959 . S
H3596 C3589 0.961 . S
H3597 C3589 0.960 . S
H3598 C3590 0.930 . S
H3599 C3591 0.929 . S
H3600 C3608 0.929 . S
H3601 C3610 0.930 . S
H3602 C3612 0.930 . S
H3603 C3615 0.929 . S
H3604 C3618 0.930 . S
H3605 C3620 0.960 . S
H3606 C3620 0.960 . S
H3607 C3620 0.960 . S
C3608 H3600 0.929 . S
C3608 C3609 1.377 . S
C3608 C3610 1.384 . S
C3609 C3608 1.377 . S
C3609 C3615 1.390 . S
C3610 H3601 0.930 . S
C3610 C3608 1.384 . S
C3610 C3611 1.372 . S
C3611 C3610 1.372 . S
C3611 C3612 1.400 . S
C3611 C3616 1.490 . S
C3612 H3602 0.930 . S
C3612 C3611 1.400 . S
C3612 C3615 1.386 . S
H3613 C3629 0.930 . S
H3614 C3630 0.931 . S
C3615 H3603 0.929 . S
C3615 C3609 1.390 . S
C3615 C3612 1.386 . S
C3616 C3611 1.490 . S
C3616 C3618 1.395 . S
C3616 C3619 1.403 . S
H3617 C3623 0.930 . S
C3618 H3604 0.930 . S
C3618 C3616 1.395 . S
C3618 C3621 1.403 . S
C3619 C3616 1.403 . S
C3619 C3620 1.524 . S
C3619 C3623 1.400 . S
C3620 H3605 0.960 . S
C3620 H3606 0.960 . S
C3620 H3607 0.960 . S
C3620 C3619 1.524 . S
C3621 C3618 1.403 . S
C3621 C3622 1.392 . S
C3621 C3625 1.495 . S
C3622 C3621 1.392 . S
C3622 C3623 1.385 . S
C3622 C3624 1.478 . S
C3623 H3617 0.930 . S
C3623 C3619 1.400 . S
C3623 C3622 1.385 . S
C3624 C3622 1.478 . S
C3624 C3626 1.381 . S
C3624 C3630 1.383 . S
C3625 C3621 1.495 . S
C3625 H3631 0.959 . S
C3625 H3632 0.961 . S
C3625 H3633 0.960 . S
C3626 C3624 1.381 . S
C3626 C3627 1.394 . S
C3626 H3634 0.930 . S
C3627 C3626 1.394 . S
C3627 C3628 1.383 . S
C3627 H3635 0.929 . S
C3628 C3627 1.383 . S
C3628 C3629 1.377 . S
C3629 H3613 0.930 . S
C3629 C3628 1.377 . S
C3629 C3630 1.379 . S
C3630 H3614 0.931 . S
C3630 C3624 1.383 . S
C3630 C3629 1.379 . S
H3631 C3625 0.959 . S
H3632 C3625 0.961 . S
H3633 C3625 0.960 . S
H3634 C3626 0.930 . S
H3635 C3627 0.929 . S
H3636 C3644 0.929 . S
H3637 C3646 0.930 . S
H3638 C3648 0.930 . S
H3639 C3651 0.929 . S
H3640 C3654 0.930 . S
H3641 C3656 0.960 . S
H3642 C3656 0.960 . S
H3643 C3656 0.960 . S
C3644 H3636 0.929 . S
C3644 C3645 1.377 . S
C3644 C3646 1.384 . S
C3645 C3644 1.377 . S
C3645 C3651 1.390 . S
C3646 H3637 0.930 . S
C3646 C3644 1.384 . S
C3646 C3647 1.372 . S
C3647 C3646 1.372 . S
C3647 C3648 1.400 . S
C3647 C3652 1.490 . S
C3648 H3638 0.930 . S
C3648 C3647 1.400 . S
C3648 C3651 1.386 . S
H3649 C3665 0.930 . S
H3650 C3666 0.931 . S
C3651 H3639 0.929 . S
C3651 C3645 1.390 . S
C3651 C3648 1.386 . S
C3652 C3647 1.490 . S
C3652 C3654 1.395 . S
C3652 C3655 1.403 . S
H3653 C3659 0.930 . S
C3654 H3640 0.930 . S
C3654 C3652 1.395 . S
C3654 C3657 1.403 . S
C3655 C3652 1.403 . S
C3655 C3656 1.524 . S
C3655 C3659 1.400 . S
C3656 H3641 0.960 . S
C3656 H3642 0.960 . S
C3656 H3643 0.960 . S
C3656 C3655 1.524 . S
C3657 C3654 1.403 . S
C3657 C3658 1.392 . S
C3657 C3661 1.495 . S
C3658 C3657 1.392 . S
C3658 C3659 1.385 . S
C3658 C3660 1.478 . S
C3659 H3653 0.930 . S
C3659 C3655 1.400 . S
C3659 C3658 1.385 . S
C3660 C3658 1.478 . S
C3660 C3662 1.381 . S
C3660 C3666 1.383 . S
C3661 C3657 1.495 . S
C3661 H3667 0.959 . S
C3661 H3668 0.961 . S
C3661 H3669 0.960 . S
C3662 C3660 1.381 . S
C3662 C3663 1.394 . S
C3662 H3670 0.930 . S
C3663 C3662 1.394 . S
C3663 C3664 1.383 . S
C3663 H3671 0.929 . S
C3664 C3663 1.383 . S
C3664 C3665 1.377 . S
C3665 H3649 0.930 . S
C3665 C3664 1.377 . S
C3665 C3666 1.379 . S
C3666 H3650 0.931 . S
C3666 C3660 1.383 . S
C3666 C3665 1.379 . S
H3667 C3661 0.959 . S
H3668 C3661 0.961 . S
H3669 C3661 0.960 . S
H3670 C3662 0.930 . S
H3671 C3663 0.929 . S
H3672 C3680 0.929 . S
H3673 C3682 0.930 . S
H3674 C3684 0.930 . S
H3675 C3687 0.929 . S
H3676 C3690 0.930 . S
H3677 C3692 0.960 . S
H3678 C3692 0.960 . S
H3679 C3692 0.960 . S
C3680 H3672 0.929 . S
C3680 C3681 1.377 . S
C3680 C3682 1.384 . S
C3681 C3680 1.377 . S
C3681 C3687 1.390 . S
C3682 H3673 0.930 . S
C3682 C3680 1.384 . S
C3682 C3683 1.372 . S
C3683 C3682 1.372 . S
C3683 C3684 1.400 . S
C3683 C3688 1.490 . S
C3684 H3674 0.930 . S
C3684 C3683 1.400 . S
C3684 C3687 1.386 . S
H3685 C3701 0.930 . S
H3686 C3702 0.931 . S
C3687 H3675 0.929 . S
C3687 C3681 1.390 . S
C3687 C3684 1.386 . S
C3688 C3683 1.490 . S
C3688 C3690 1.395 . S
C3688 C3691 1.403 . S
H3689 C3695 0.930 . S
C3690 H3676 0.930 . S
C3690 C3688 1.395 . S
C3690 C3693 1.403 . S
C3691 C3688 1.403 . S
C3691 C3692 1.524 . S
C3691 C3695 1.400 . S
C3692 H3677 0.960 . S
C3692 H3678 0.960 . S
C3692 H3679 0.960 . S
C3692 C3691 1.524 . S
C3693 C3690 1.403 . S
C3693 C3694 1.392 . S
C3693 C3697 1.495 . S
C3694 C3693 1.392 . S
C3694 C3695 1.385 . S
C3694 C3696 1.478 . S
C3695 H3689 0.930 . S
C3695 C3691 1.400 . S
C3695 C3694 1.385 . S
C3696 C3694 1.478 . S
C3696 C3698 1.381 . S
C3696 C3702 1.383 . S
C3697 C3693 1.495 . S
C3697 H3703 0.959 . S
C3697 H3704 0.961 . S
C3697 H3705 0.960 . S
C3698 C3696 1.381 . S
C3698 C3699 1.394 . S
C3698 H3706 0.930 . S
C3699 C3698 1.394 . S
C3699 C3700 1.383 . S
C3699 H3707 0.929 . S
C3700 C3699 1.383 . S
C3700 C3701 1.377 . S
C3701 H3685 0.930 . S
C3701 C3700 1.377 . S
C3701 C3702 1.379 . S
C3702 H3686 0.931 . S
C3702 C3696 1.383 . S
C3702 C3701 1.379 . S
H3703 C3697 0.959 . S
H3704 C3697 0.961 . S
H3705 C3697 0.960 . S
H3706 C3698 0.930 . S
H3707 C3699 0.929 . S
H3708 C3716 0.929 . S
H3709 C3718 0.930 . S
H3710 C3720 0.930 . S
H3711 C3723 0.929 . S
H3712 C3726 0.930 . S
H3713 C3728 0.960 . S
H3714 C3728 0.960 . S
H3715 C3728 0.960 . S
C3716 H3708 0.929 . S
C3716 C3717 1.377 . S
C3716 C3718 1.384 . S
C3717 C3716 1.377 . S
C3717 C3723 1.390 . S
C3718 H3709 0.930 . S
C3718 C3716 1.384 . S
C3718 C3719 1.372 . S
C3719 C3718 1.372 . S
C3719 C3720 1.400 . S
C3719 C3724 1.490 . S
C3720 H3710 0.930 . S
C3720 C3719 1.400 . S
C3720 C3723 1.386 . S
H3721 C3737 0.930 . S
H3722 C3738 0.931 . S
C3723 H3711 0.929 . S
C3723 C3717 1.390 . S
C3723 C3720 1.386 . S
C3724 C3719 1.490 . S
C3724 C3726 1.395 . S
C3724 C3727 1.403 . S
H3725 C3731 0.930 . S
C3726 H3712 0.930 . S
C3726 C3724 1.395 . S
C3726 C3729 1.403 . S
C3727 C3724 1.403 . S
C3727 C3728 1.524 . S
C3727 C3731 1.400 . S
C3728 H3713 0.960 . S
C3728 H3714 0.960 . S
C3728 H3715 0.960 . S
C3728 C3727 1.524 . S
C3729 C3726 1.403 . S
C3729 C3730 1.392 . S
C3729 C3733 1.495 . S
C3730 C3729 1.392 . S
C3730 C3731 1.385 . S
C3730 C3732 1.478 . S
C3731 H3725 0.930 . S
C3731 C3727 1.400 . S
C3731 C3730 1.385 . S
C3732 C3730 1.478 . S
C3732 C3734 1.381 . S
C3732 C3738 1.383 . S
C3733 C3729 1.495 . S
C3733 H3739 0.959 . S
C3733 H3740 0.961 . S
C3733 H3741 0.960 . S
C3734 C3732 1.381 . S
C3734 C3735 1.394 . S
C3734 H3742 0.930 . S
C3735 C3734 1.394 . S
C3735 C3736 1.383 . S
C3735 H3743 0.929 . S
C3736 C3735 1.383 . S
C3736 C3737 1.377 . S
C3737 H3721 0.930 . S
C3737 C3736 1.377 . S
C3737 C3738 1.379 . S
C3738 H3722 0.931 . S
C3738 C3732 1.383 . S
C3738 C3737 1.379 . S
H3739 C3733 0.959 . S
H3740 C3733 0.961 . S
H3741 C3733 0.960 . S
H3742 C3734 0.930 . S
H3743 C3735 0.929 . S
H3744 C3752 0.929 . S
H3745 C3754 0.930 . S
H3746 C3756 0.930 . S
H3747 C3759 0.929 . S
H3748 C3762 0.930 . S
H3749 C3764 0.960 . S
H3750 C3764 0.960 . S
H3751 C3764 0.960 . S
C3752 H3744 0.929 . S
C3752 C3753 1.377 . S
C3752 C3754 1.384 . S
C3753 C3752 1.377 . S
C3753 C3759 1.390 . S
C3754 H3745 0.930 . S
C3754 C3752 1.384 . S
C3754 C3755 1.372 . S
C3755 C3754 1.372 . S
C3755 C3756 1.400 . S
C3755 C3760 1.490 . S
C3756 H3746 0.930 . S
C3756 C3755 1.400 . S
C3756 C3759 1.386 . S
H3757 C3773 0.930 . S
H3758 C3774 0.931 . S
C3759 H3747 0.929 . S
C3759 C3753 1.390 . S
C3759 C3756 1.386 . S
C3760 C3755 1.490 . S
C3760 C3762 1.395 . S
C3760 C3763 1.403 . S
H3761 C3767 0.930 . S
C3762 H3748 0.930 . S
C3762 C3760 1.395 . S
C3762 C3765 1.403 . S
C3763 C3760 1.403 . S
C3763 C3764 1.524 . S
C3763 C3767 1.400 . S
C3764 H3749 0.960 . S
C3764 H3750 0.960 . S
C3764 H3751 0.960 . S
C3764 C3763 1.524 . S
C3765 C3762 1.403 . S
C3765 C3766 1.392 . S
C3765 C3769 1.495 . S
C3766 C3765 1.392 . S
C3766 C3767 1.385 . S
C3766 C3768 1.478 . S
C3767 H3761 0.930 . S
C3767 C3763 1.400 . S
C3767 C3766 1.385 . S
C3768 C3766 1.478 . S
C3768 C3770 1.381 . S
C3768 C3774 1.383 . S
C3769 C3765 1.495 . S
C3769 H3775 0.959 . S
C3769 H3776 0.961 . S
C3769 H3777 0.960 . S
C3770 C3768 1.381 . S
C3770 C3771 1.394 . S
C3770 H3778 0.930 . S
C3771 C3770 1.394 . S
C3771 C3772 1.383 . S
C3771 H3779 0.929 . S
C3772 C3771 1.383 . S
C3772 C3773 1.377 . S
C3773 H3757 0.930 . S
C3773 C3772 1.377 . S
C3773 C3774 1.379 . S
C3774 H3758 0.931 . S
C3774 C3768 1.383 . S
C3774 C3773 1.379 . S
H3775 C3769 0.959 . S
H3776 C3769 0.961 . S
H3777 C3769 0.960 . S
H3778 C3770 0.930 . S
H3779 C3771 0.929 . S
H3780 C3788 0.929 . S
H3781 C3790 0.930 . S
H3782 C3792 0.930 . S
H3783 C3795 0.929 . S
H3784 C3798 0.930 . S
H3785 C3800 0.960 . S
H3786 C3800 0.960 . S
H3787 C3800 0.960 . S
C3788 H3780 0.929 . S
C3788 C3789 1.377 . S
C3788 C3790 1.384 . S
C3789 C3788 1.377 . S
C3789 C3795 1.390 . S
C3790 H3781 0.930 . S
C3790 C3788 1.384 . S
C3790 C3791 1.372 . S
C3791 C3790 1.372 . S
C3791 C3792 1.400 . S
C3791 C3796 1.490 . S
C3792 H3782 0.930 . S
C3792 C3791 1.400 . S
C3792 C3795 1.386 . S
H3793 C3809 0.930 . S
H3794 C3810 0.931 . S
C3795 H3783 0.929 . S
C3795 C3789 1.390 . S
C3795 C3792 1.386 . S
C3796 C3791 1.490 . S
C3796 C3798 1.395 . S
C3796 C3799 1.403 . S
H3797 C3803 0.930 . S
C3798 H3784 0.930 . S
C3798 C3796 1.395 . S
C3798 C3801 1.403 . S
C3799 C3796 1.403 . S
C3799 C3800 1.524 . S
C3799 C3803 1.400 . S
C3800 H3785 0.960 . S
C3800 H3786 0.960 . S
C3800 H3787 0.960 . S
C3800 C3799 1.524 . S
C3801 C3798 1.403 . S
C3801 C3802 1.392 . S
C3801 C3805 1.495 . S
C3802 C3801 1.392 . S
C3802 C3803 1.385 . S
C3802 C3804 1.478 . S
C3803 H3797 0.930 . S
C3803 C3799 1.400 . S
C3803 C3802 1.385 . S
C3804 C3802 1.478 . S
C3804 C3806 1.381 . S
C3804 C3810 1.383 . S
C3805 C3801 1.495 . S
C3805 H3811 0.959 . S
C3805 H3812 0.961 . S
C3805 H3813 0.960 . S
C3806 C3804 1.381 . S
C3806 C3807 1.394 . S
C3806 H3814 0.930 . S
C3807 C3806 1.394 . S
C3807 C3808 1.383 . S
C3807 H3815 0.929 . S
C3808 C3807 1.383 . S
C3808 C3809 1.377 . S
C3809 H3793 0.930 . S
C3809 C3808 1.377 . S
C3809 C3810 1.379 . S
C3810 H3794 0.931 . S
C3810 C3804 1.383 . S
C3810 C3809 1.379 . S
H3811 C3805 0.959 . S
H3812 C3805 0.961 . S
H3813 C3805 0.960 . S
H3814 C3806 0.930 . S
H3815 C3807 0.929 . S
H3816 C3824 0.929 . S
H3817 C3826 0.930 . S
H3818 C3828 0.930 . S
H3819 C3831 0.929 . S
H3820 C3834 0.930 . S
H3821 C3836 0.960 . S
H3822 C3836 0.960 . S
H3823 C3836 0.960 . S
C3824 H3816 0.929 . S
C3824 C3825 1.377 . S
C3824 C3826 1.384 . S
C3825 C3824 1.377 . S
C3825 C3831 1.390 . S
C3826 H3817 0.930 . S
C3826 C3824 1.384 . S
C3826 C3827 1.372 . S
C3827 C3826 1.372 . S
C3827 C3828 1.400 . S
C3827 C3832 1.490 . S
C3828 H3818 0.930 . S
C3828 C3827 1.400 . S
C3828 C3831 1.386 . S
H3829 C3845 0.930 . S
H3830 C3846 0.931 . S
C3831 H3819 0.929 . S
C3831 C3825 1.390 . S
C3831 C3828 1.386 . S
C3832 C3827 1.490 . S
C3832 C3834 1.395 . S
C3832 C3835 1.403 . S
H3833 C3839 0.930 . S
C3834 H3820 0.930 . S
C3834 C3832 1.395 . S
C3834 C3837 1.403 . S
C3835 C3832 1.403 . S
C3835 C3836 1.524 . S
C3835 C3839 1.400 . S
C3836 H3821 0.960 . S
C3836 H3822 0.960 . S
C3836 H3823 0.960 . S
C3836 C3835 1.524 . S
C3837 C3834 1.403 . S
C3837 C3838 1.392 . S
C3837 C3841 1.495 . S
C3838 C3837 1.392 . S
C3838 C3839 1.385 . S
C3838 C3840 1.478 . S
C3839 H3833 0.930 . S
C3839 C3835 1.400 . S
C3839 C3838 1.385 . S
C3840 C3838 1.478 . S
C3840 C3842 1.381 . S
C3840 C3846 1.383 . S
C3841 C3837 1.495 . S
C3841 H3847 0.959 . S
C3841 H3848 0.961 . S
C3841 H3849 0.960 . S
C3842 C3840 1.381 . S
C3842 C3843 1.394 . S
C3842 H3850 0.930 . S
C3843 C3842 1.394 . S
C3843 C3844 1.383 . S
C3843 H3851 0.929 . S
C3844 C3843 1.383 . S
C3844 C3845 1.377 . S
C3845 H3829 0.930 . S
C3845 C3844 1.377 . S
C3845 C3846 1.379 . S
C3846 H3830 0.931 . S
C3846 C3840 1.383 . S
C3846 C3845 1.379 . S
H3847 C3841 0.959 . S
H3848 C3841 0.961 . S
H3849 C3841 0.960 . S
H3850 C3842 0.930 . S
H3851 C3843 0.929 . S
H3852 C3860 0.929 . S
H3853 C3862 0.930 . S
H3854 C3864 0.930 . S
H3855 C3867 0.929 . S
H3856 C3870 0.930 . S
H3857 C3872 0.960 . S
H3858 C3872 0.960 . S
H3859 C3872 0.960 . S
C3860 H3852 0.929 . S
C3860 C3861 1.377 . S
C3860 C3862 1.384 . S
C3861 C3860 1.377 . S
C3861 C3867 1.390 . S
C3862 H3853 0.930 . S
C3862 C3860 1.384 . S
C3862 C3863 1.372 . S
C3863 C3862 1.372 . S
C3863 C3864 1.400 . S
C3863 C3868 1.490 . S
C3864 H3854 0.930 . S
C3864 C3863 1.400 . S
C3864 C3867 1.386 . S
H3865 C3881 0.930 . S
H3866 C3882 0.931 . S
C3867 H3855 0.929 . S
C3867 C3861 1.390 . S
C3867 C3864 1.386 . S
C3868 C3863 1.490 . S
C3868 C3870 1.395 . S
C3868 C3871 1.403 . S
H3869 C3875 0.930 . S
C3870 H3856 0.930 . S
C3870 C3868 1.395 . S
C3870 C3873 1.403 . S
C3871 C3868 1.403 . S
C3871 C3872 1.524 . S
C3871 C3875 1.400 . S
C3872 H3857 0.960 . S
C3872 H3858 0.960 . S
C3872 H3859 0.960 . S
C3872 C3871 1.524 . S
C3873 C3870 1.403 . S
C3873 C3874 1.392 . S
C3873 C3877 1.495 . S
C3874 C3873 1.392 . S
C3874 C3875 1.385 . S
C3874 C3876 1.478 . S
C3875 H3869 0.930 . S
C3875 C3871 1.400 . S
C3875 C3874 1.385 . S
C3876 C3874 1.478 . S
C3876 C3878 1.381 . S
C3876 C3882 1.383 . S
C3877 C3873 1.495 . S
C3877 H3883 0.959 . S
C3877 H3884 0.961 . S
C3877 H3885 0.960 . S
C3878 C3876 1.381 . S
C3878 C3879 1.394 . S
C3878 H3886 0.930 . S
C3879 C3878 1.394 . S
C3879 C3880 1.383 . S
C3879 H3887 0.929 . S
C3880 C3879 1.383 . S
C3880 C3881 1.377 . S
C3881 H3865 0.930 . S
C3881 C3880 1.377 . S
C3881 C3882 1.379 . S
C3882 H3866 0.931 . S
C3882 C3876 1.383 . S
C3882 C3881 1.379 . S
H3883 C3877 0.959 . S
H3884 C3877 0.961 . S
H3885 C3877 0.960 . S
H3886 C3878 0.930 . S
H3887 C3879 0.929 . S
H3888 C3896 0.929 . S
H3889 C3898 0.930 . S
H3890 C3900 0.930 . S
H3891 C3903 0.929 . S
H3892 C3906 0.930 . S
H3893 C3908 0.960 . S
H3894 C3908 0.960 . S
H3895 C3908 0.960 . S
C3896 H3888 0.929 . S
C3896 C3897 1.377 . S
C3896 C3898 1.384 . S
C3897 C3896 1.377 . S
C3897 C3903 1.390 . S
C3898 H3889 0.930 . S
C3898 C3896 1.384 . S
C3898 C3899 1.372 . S
C3899 C3898 1.372 . S
C3899 C3900 1.400 . S
C3899 C3904 1.490 . S
C3900 H3890 0.930 . S
C3900 C3899 1.400 . S
C3900 C3903 1.386 . S
H3901 C3917 0.930 . S
H3902 C3918 0.931 . S
C3903 H3891 0.929 . S
C3903 C3897 1.390 . S
C3903 C3900 1.386 . S
C3904 C3899 1.490 . S
C3904 C3906 1.395 . S
C3904 C3907 1.403 . S
H3905 C3911 0.930 . S
C3906 H3892 0.930 . S
C3906 C3904 1.395 . S
C3906 C3909 1.403 . S
C3907 C3904 1.403 . S
C3907 C3908 1.524 . S
C3907 C3911 1.400 . S
C3908 H3893 0.960 . S
C3908 H3894 0.960 . S
C3908 H3895 0.960 . S
C3908 C3907 1.524 . S
C3909 C3906 1.403 . S
C3909 C3910 1.392 . S
C3909 C3913 1.495 . S
C3910 C3909 1.392 . S
C3910 C3911 1.385 . S
C3910 C3912 1.478 . S
C3911 H3905 0.930 . S
C3911 C3907 1.400 . S
C3911 C3910 1.385 . S
C3912 C3910 1.478 . S
C3912 C3914 1.381 . S
C3912 C3918 1.383 . S
C3913 C3909 1.495 . S
C3913 H3919 0.959 . S
C3913 H3920 0.961 . S
C3913 H3921 0.960 . S
C3914 C3912 1.381 . S
C3914 C3915 1.394 . S
C3914 H3922 0.930 . S
C3915 C3914 1.394 . S
C3915 C3916 1.383 . S
C3915 H3923 0.929 . S
C3916 C3915 1.383 . S
C3916 C3917 1.377 . S
C3917 H3901 0.930 . S
C3917 C3916 1.377 . S
C3917 C3918 1.379 . S
C3918 H3902 0.931 . S
C3918 C3912 1.383 . S
C3918 C3917 1.379 . S
H3919 C3913 0.959 . S
H3920 C3913 0.961 . S
H3921 C3913 0.960 . S
H3922 C3914 0.930 . S
H3923 C3915 0.929 . S
H3924 C3932 0.929 . S
H3925 C3934 0.930 . S
H3926 C3936 0.930 . S
H3927 C3939 0.929 . S
H3928 C3942 0.930 . S
H3929 C3944 0.960 . S
H3930 C3944 0.960 . S
H3931 C3944 0.960 . S
C3932 H3924 0.929 . S
C3932 C3933 1.377 . S
C3932 C3934 1.384 . S
C3933 C3932 1.377 . S
C3933 C3939 1.390 . S
C3934 H3925 0.930 . S
C3934 C3932 1.384 . S
C3934 C3935 1.372 . S
C3935 C3934 1.372 . S
C3935 C3936 1.400 . S
C3935 C3940 1.490 . S
C3936 H3926 0.930 . S
C3936 C3935 1.400 . S
C3936 C3939 1.386 . S
H3937 C3953 0.930 . S
H3938 C3954 0.931 . S
C3939 H3927 0.929 . S
C3939 C3933 1.390 . S
C3939 C3936 1.386 . S
C3940 C3935 1.490 . S
C3940 C3942 1.395 . S
C3940 C3943 1.403 . S
H3941 C3947 0.930 . S
C3942 H3928 0.930 . S
C3942 C3940 1.395 . S
C3942 C3945 1.403 . S
C3943 C3940 1.403 . S
C3943 C3944 1.524 . S
C3943 C3947 1.400 . S
C3944 H3929 0.960 . S
C3944 H3930 0.960 . S
C3944 H3931 0.960 . S
C3944 C3943 1.524 . S
C3945 C3942 1.403 . S
C3945 C3946 1.392 . S
C3945 C3949 1.495 . S
C3946 C3945 1.392 . S
C3946 C3947 1.385 . S
C3946 C3948 1.478 . S
C3947 H3941 0.930 . S
C3947 C3943 1.400 . S
C3947 C3946 1.385 . S
C3948 C3946 1.478 . S
C3948 C3950 1.381 . S
C3948 C3954 1.383 . S
C3949 C3945 1.495 . S
C3949 H3955 0.959 . S
C3949 H3956 0.961 . S
C3949 H3957 0.960 . S
C3950 C3948 1.381 . S
C3950 C3951 1.394 . S
C3950 H3958 0.930 . S
C3951 C3950 1.394 . S
C3951 C3952 1.383 . S
C3951 H3959 0.929 . S
C3952 C3951 1.383 . S
C3952 C3953 1.377 . S
C3953 H3937 0.930 . S
C3953 C3952 1.377 . S
C3953 C3954 1.379 . S
C3954 H3938 0.931 . S
C3954 C3948 1.383 . S
C3954 C3953 1.379 . S
H3955 C3949 0.959 . S
H3956 C3949 0.961 . S
H3957 C3949 0.960 . S
H3958 C3950 0.930 . S
H3959 C3951 0.929 . S
H3960 C3968 0.929 . S
H3961 C3970 0.930 . S
H3962 C3972 0.930 . S
H3963 C3975 0.929 . S
H3964 C3978 0.930 . S
H3965 C3980 0.960 . S
H3966 C3980 0.960 . S
H3967 C3980 0.960 . S
C3968 H3960 0.929 . S
C3968 C3969 1.377 . S
C3968 C3970 1.384 . S
C3969 C3968 1.377 . S
C3969 C3975 1.390 . S
C3970 H3961 0.930 . S
C3970 C3968 1.384 . S
C3970 C3971 1.372 . S
C3971 C3970 1.372 . S
C3971 C3972 1.400 . S
C3971 C3976 1.490 . S
C3972 H3962 0.930 . S
C3972 C3971 1.400 . S
C3972 C3975 1.386 . S
H3973 C3989 0.930 . S
H3974 C3990 0.931 . S
C3975 H3963 0.929 . S
C3975 C3969 1.390 . S
C3975 C3972 1.386 . S
C3976 C3971 1.490 . S
C3976 C3978 1.395 . S
C3976 C3979 1.403 . S
H3977 C3983 0.930 . S
C3978 H3964 0.930 . S
C3978 C3976 1.395 . S
C3978 C3981 1.403 . S
C3979 C3976 1.403 . S
C3979 C3980 1.524 . S
C3979 C3983 1.400 . S
C3980 H3965 0.960 . S
C3980 H3966 0.960 . S
C3980 H3967 0.960 . S
C3980 C3979 1.524 . S
C3981 C3978 1.403 . S
C3981 C3982 1.392 . S
C3981 C3985 1.495 . S
C3982 C3981 1.392 . S
C3982 C3983 1.385 . S
C3982 C3984 1.478 . S
C3983 H3977 0.930 . S
C3983 C3979 1.400 . S
C3983 C3982 1.385 . S
C3984 C3982 1.478 . S
C3984 C3986 1.381 . S
C3984 C3990 1.383 . S
C3985 C3981 1.495 . S
C3985 H3991 0.959 . S
C3985 H3992 0.961 . S
C3985 H3993 0.960 . S
C3986 C3984 1.381 . S
C3986 C3987 1.394 . S
C3986 H3994 0.930 . S
C3987 C3986 1.394 . S
C3987 C3988 1.383 . S
C3987 H3995 0.929 . S
C3988 C3987 1.383 . S
C3988 C3989 1.377 . S
C3989 H3973 0.930 . S
C3989 C3988 1.377 . S
C3989 C3990 1.379 . S
C3990 H3974 0.931 . S
C3990 C3984 1.383 . S
C3990 C3989 1.379 . S
H3991 C3985 0.959 . S
H3992 C3985 0.961 . S
H3993 C3985 0.960 . S
H3994 C3986 0.930 . S
H3995 C3987 0.929 . S
H3996 C4004 0.929 . S
H3997 C4006 0.930 . S
H3998 C4008 0.930 . S
H3999 C4011 0.929 . S
H4000 C4014 0.930 . S
H4001 C4016 0.960 . S
H4002 C4016 0.960 . S
H4003 C4016 0.960 . S
C4004 H3996 0.929 . S
C4004 C4005 1.377 . S
C4004 C4006 1.384 . S
C4005 C4004 1.377 . S
C4005 C4011 1.390 . S
C4006 H3997 0.930 . S
C4006 C4004 1.384 . S
C4006 C4007 1.372 . S
C4007 C4006 1.372 . S
C4007 C4008 1.400 . S
C4007 C4012 1.490 . S
C4008 H3998 0.930 . S
C4008 C4007 1.400 . S
C4008 C4011 1.386 . S
H4009 C4025 0.930 . S
H4010 C4026 0.931 . S
C4011 H3999 0.929 . S
C4011 C4005 1.390 . S
C4011 C4008 1.386 . S
C4012 C4007 1.490 . S
C4012 C4014 1.395 . S
C4012 C4015 1.403 . S
H4013 C4019 0.930 . S
C4014 H4000 0.930 . S
C4014 C4012 1.395 . S
C4014 C4017 1.403 . S
C4015 C4012 1.403 . S
C4015 C4016 1.524 . S
C4015 C4019 1.400 . S
C4016 H4001 0.960 . S
C4016 H4002 0.960 . S
C4016 H4003 0.960 . S
C4016 C4015 1.524 . S
C4017 C4014 1.403 . S
C4017 C4018 1.392 . S
C4017 C4021 1.495 . S
C4018 C4017 1.392 . S
C4018 C4019 1.385 . S
C4018 C4020 1.478 . S
C4019 H4013 0.930 . S
C4019 C4015 1.400 . S
C4019 C4018 1.385 . S
C4020 C4018 1.478 . S
C4020 C4022 1.381 . S
C4020 C4026 1.383 . S
C4021 C4017 1.495 . S
C4021 H4027 0.959 . S
C4021 H4028 0.961 . S
C4021 H4029 0.960 . S
C4022 C4020 1.381 . S
C4022 C4023 1.394 . S
C4022 H4030 0.930 . S
C4023 C4022 1.394 . S
C4023 C4024 1.383 . S
C4023 H4031 0.929 . S
C4024 C4023 1.383 . S
C4024 C4025 1.377 . S
C4025 H4009 0.930 . S
C4025 C4024 1.377 . S
C4025 C4026 1.379 . S
C4026 H4010 0.931 . S
C4026 C4020 1.383 . S
C4026 C4025 1.379 . S
H4027 C4021 0.959 . S
H4028 C4021 0.961 . S
H4029 C4021 0.960 . S
H4030 C4022 0.930 . S
H4031 C4023 0.929 . S
H4032 C4040 0.929 . S
H4033 C4042 0.930 . S
H4034 C4044 0.930 . S
H4035 C4047 0.929 . S
H4036 C4050 0.930 . S
H4037 C4052 0.960 . S
H4038 C4052 0.960 . S
H4039 C4052 0.960 . S
C4040 H4032 0.929 . S
C4040 C4041 1.377 . S
C4040 C4042 1.384 . S
C4041 C4040 1.377 . S
C4041 C4047 1.390 . S
C4042 H4033 0.930 . S
C4042 C4040 1.384 . S
C4042 C4043 1.372 . S
C4043 C4042 1.372 . S
C4043 C4044 1.400 . S
C4043 C4048 1.490 . S
C4044 H4034 0.930 . S
C4044 C4043 1.400 . S
C4044 C4047 1.386 . S
H4045 C4061 0.930 . S
H4046 C4062 0.931 . S
C4047 H4035 0.929 . S
C4047 C4041 1.390 . S
C4047 C4044 1.386 . S
C4048 C4043 1.490 . S
C4048 C4050 1.395 . S
C4048 C4051 1.403 . S
H4049 C4055 0.930 . S
C4050 H4036 0.930 . S
C4050 C4048 1.395 . S
C4050 C4053 1.403 . S
C4051 C4048 1.403 . S
C4051 C4052 1.524 . S
C4051 C4055 1.400 . S
C4052 H4037 0.960 . S
C4052 H4038 0.960 . S
C4052 H4039 0.960 . S
C4052 C4051 1.524 . S
C4053 C4050 1.403 . S
C4053 C4054 1.392 . S
C4053 C4057 1.495 . S
C4054 C4053 1.392 . S
C4054 C4055 1.385 . S
C4054 C4056 1.478 . S
C4055 H4049 0.930 . S
C4055 C4051 1.400 . S
C4055 C4054 1.385 . S
C4056 C4054 1.478 . S
C4056 C4058 1.381 . S
C4056 C4062 1.383 . S
C4057 C4053 1.495 . S
C4057 H4063 0.959 . S
C4057 H4064 0.961 . S
C4057 H4065 0.960 . S
C4058 C4056 1.381 . S
C4058 C4059 1.394 . S
C4058 H4066 0.930 . S
C4059 C4058 1.394 . S
C4059 C4060 1.383 . S
C4059 H4067 0.929 . S
C4060 C4059 1.383 . S
C4060 C4061 1.377 . S
C4061 H4045 0.930 . S
C4061 C4060 1.377 . S
C4061 C4062 1.379 . S
C4062 H4046 0.931 . S
C4062 C4056 1.383 . S
C4062 C4061 1.379 . S
H4063 C4057 0.959 . S
H4064 C4057 0.961 . S
H4065 C4057 0.960 . S
H4066 C4058 0.930 . S
H4067 C4059 0.929 . S
H4068 C4076 0.929 . S
H4069 C4078 0.930 . S
H4070 C4080 0.930 . S
H4071 C4083 0.929 . S
H4072 C4086 0.930 . S
H4073 C4088 0.960 . S
H4074 C4088 0.960 . S
H4075 C4088 0.960 . S
C4076 H4068 0.929 . S
C4076 C4077 1.377 . S
C4076 C4078 1.384 . S
C4077 C4076 1.377 . S
C4077 C4083 1.390 . S
C4078 H4069 0.930 . S
C4078 C4076 1.384 . S
C4078 C4079 1.372 . S
C4079 C4078 1.372 . S
C4079 C4080 1.400 . S
C4079 C4084 1.490 . S
C4080 H4070 0.930 . S
C4080 C4079 1.400 . S
C4080 C4083 1.386 . S
H4081 C4097 0.930 . S
H4082 C4098 0.931 . S
C4083 H4071 0.929 . S
C4083 C4077 1.390 . S
C4083 C4080 1.386 . S
C4084 C4079 1.490 . S
C4084 C4086 1.395 . S
C4084 C4087 1.403 . S
H4085 C4091 0.930 . S
C4086 H4072 0.930 . S
C4086 C4084 1.395 . S
C4086 C4089 1.403 . S
C4087 C4084 1.403 . S
C4087 C4088 1.524 . S
C4087 C4091 1.400 . S
C4088 H4073 0.960 . S
C4088 H4074 0.960 . S
C4088 H4075 0.960 . S
C4088 C4087 1.524 . S
C4089 C4086 1.403 . S
C4089 C4090 1.392 . S
C4089 C4093 1.495 . S
C4090 C4089 1.392 . S
C4090 C4091 1.385 . S
C4090 C4092 1.478 . S
C4091 H4085 0.930 . S
C4091 C4087 1.400 . S
C4091 C4090 1.385 . S
C4092 C4090 1.478 . S
C4092 C4094 1.381 . S
C4092 C4098 1.383 . S
C4093 C4089 1.495 . S
C4093 H4099 0.959 . S
C4093 H4100 0.961 . S
C4093 H4101 0.960 . S
C4094 C4092 1.381 . S
C4094 C4095 1.394 . S
C4094 H4102 0.930 . S
C4095 C4094 1.394 . S
C4095 C4096 1.383 . S
C4095 H4103 0.929 . S
C4096 C4095 1.383 . S
C4096 C4097 1.377 . S
C4097 H4081 0.930 . S
C4097 C4096 1.377 . S
C4097 C4098 1.379 . S
C4098 H4082 0.931 . S
C4098 C4092 1.383 . S
C4098 C4097 1.379 . S
H4099 C4093 0.959 . S
H4100 C4093 0.961 . S
H4101 C4093 0.960 . S
H4102 C4094 0.930 . S
H4103 C4095 0.929 . S
H4104 C4112 0.929 . S
H4105 C4114 0.930 . S
H4106 C4116 0.930 . S
H4107 C4119 0.929 . S
H4108 C4122 0.930 . S
H4109 C4124 0.960 . S
H4110 C4124 0.960 . S
H4111 C4124 0.960 . S
C4112 H4104 0.929 . S
C4112 C4113 1.377 . S
C4112 C4114 1.384 . S
C4113 C4112 1.377 . S
C4113 C4119 1.390 . S
C4114 H4105 0.930 . S
C4114 C4112 1.384 . S
C4114 C4115 1.372 . S
C4115 C4114 1.372 . S
C4115 C4116 1.400 . S
C4115 C4120 1.490 . S
C4116 H4106 0.930 . S
C4116 C4115 1.400 . S
C4116 C4119 1.386 . S
H4117 C4133 0.930 . S
H4118 C4134 0.931 . S
C4119 H4107 0.929 . S
C4119 C4113 1.390 . S
C4119 C4116 1.386 . S
C4120 C4115 1.490 . S
C4120 C4122 1.395 . S
C4120 C4123 1.403 . S
H4121 C4127 0.930 . S
C4122 H4108 0.930 . S
C4122 C4120 1.395 . S
C4122 C4125 1.403 . S
C4123 C4120 1.403 . S
C4123 C4124 1.524 . S
C4123 C4127 1.400 . S
C4124 H4109 0.960 . S
C4124 H4110 0.960 . S
C4124 H4111 0.960 . S
C4124 C4123 1.524 . S
C4125 C4122 1.403 . S
C4125 C4126 1.392 . S
C4125 C4129 1.495 . S
C4126 C4125 1.392 . S
C4126 C4127 1.385 . S
C4126 C4128 1.478 . S
C4127 H4121 0.930 . S
C4127 C4123 1.400 . S
C4127 C4126 1.385 . S
C4128 C4126 1.478 . S
C4128 C4130 1.381 . S
C4128 C4134 1.383 . S
C4129 C4125 1.495 . S
C4129 H4135 0.959 . S
C4129 H4136 0.961 . S
C4129 H4137 0.960 . S
C4130 C4128 1.381 . S
C4130 C4131 1.394 . S
C4130 H4138 0.930 . S
C4131 C4130 1.394 . S
C4131 C4132 1.383 . S
C4131 H4139 0.929 . S
C4132 C4131 1.383 . S
C4132 C4133 1.377 . S
C4133 H4117 0.930 . S
C4133 C4132 1.377 . S
C4133 C4134 1.379 . S
C4134 H4118 0.931 . S
C4134 C4128 1.383 . S
C4134 C4133 1.379 . S
H4135 C4129 0.959 . S
H4136 C4129 0.961 . S
H4137 C4129 0.960 . S
H4138 C4130 0.930 . S
H4139 C4131 0.929 . S
H4140 C4148 0.929 . S
H4141 C4150 0.930 . S
H4142 C4152 0.930 . S
H4143 C4155 0.929 . S
H4144 C4158 0.930 . S
H4145 C4160 0.960 . S
H4146 C4160 0.960 . S
H4147 C4160 0.960 . S
C4148 H4140 0.929 . S
C4148 C4149 1.377 . S
C4148 C4150 1.384 . S
C4149 C4148 1.377 . S
C4149 C4155 1.390 . S
C4150 H4141 0.930 . S
C4150 C4148 1.384 . S
C4150 C4151 1.372 . S
C4151 C4150 1.372 . S
C4151 C4152 1.400 . S
C4151 C4156 1.490 . S
C4152 H4142 0.930 . S
C4152 C4151 1.400 . S
C4152 C4155 1.386 . S
H4153 C4169 0.930 . S
H4154 C4170 0.931 . S
C4155 H4143 0.929 . S
C4155 C4149 1.390 . S
C4155 C4152 1.386 . S
C4156 C4151 1.490 . S
C4156 C4158 1.395 . S
C4156 C4159 1.403 . S
H4157 C4163 0.930 . S
C4158 H4144 0.930 . S
C4158 C4156 1.395 . S
C4158 C4161 1.403 . S
C4159 C4156 1.403 . S
C4159 C4160 1.524 . S
C4159 C4163 1.400 . S
C4160 H4145 0.960 . S
C4160 H4146 0.960 . S
C4160 H4147 0.960 . S
C4160 C4159 1.524 . S
C4161 C4158 1.403 . S
C4161 C4162 1.392 . S
C4161 C4165 1.495 . S
C4162 C4161 1.392 . S
C4162 C4163 1.385 . S
C4162 C4164 1.478 . S
C4163 H4157 0.930 . S
C4163 C4159 1.400 . S
C4163 C4162 1.385 . S
C4164 C4162 1.478 . S
C4164 C4166 1.381 . S
C4164 C4170 1.383 . S
C4165 C4161 1.495 . S
C4165 H4171 0.959 . S
C4165 H4172 0.961 . S
C4165 H4173 0.960 . S
C4166 C4164 1.381 . S
C4166 C4167 1.394 . S
C4166 H4174 0.930 . S
C4167 C4166 1.394 . S
C4167 C4168 1.383 . S
C4167 H4175 0.929 . S
C4168 C4167 1.383 . S
C4168 C4169 1.377 . S
C4169 H4153 0.930 . S
C4169 C4168 1.377 . S
C4169 C4170 1.379 . S
C4170 H4154 0.931 . S
C4170 C4164 1.383 . S
C4170 C4169 1.379 . S
H4171 C4165 0.959 . S
H4172 C4165 0.961 . S
H4173 C4165 0.960 . S
H4174 C4166 0.930 . S
H4175 C4167 0.929 . S
H4176 C4184 0.929 . S
H4177 C4186 0.930 . S
H4178 C4188 0.930 . S
H4179 C4191 0.929 . S
H4180 C4194 0.930 . S
H4181 C4196 0.960 . S
H4182 C4196 0.960 . S
H4183 C4196 0.960 . S
C4184 H4176 0.929 . S
C4184 C4185 1.377 . S
C4184 C4186 1.384 . S
C4185 C4184 1.377 . S
C4185 C4191 1.390 . S
C4186 H4177 0.930 . S
C4186 C4184 1.384 . S
C4186 C4187 1.372 . S
C4187 C4186 1.372 . S
C4187 C4188 1.400 . S
C4187 C4192 1.490 . S
C4188 H4178 0.930 . S
C4188 C4187 1.400 . S
C4188 C4191 1.386 . S
H4189 C4205 0.930 . S
H4190 C4206 0.931 . S
C4191 H4179 0.929 . S
C4191 C4185 1.390 . S
C4191 C4188 1.386 . S
C4192 C4187 1.490 . S
C4192 C4194 1.395 . S
C4192 C4195 1.403 . S
H4193 C4199 0.930 . S
C4194 H4180 0.930 . S
C4194 C4192 1.395 . S
C4194 C4197 1.403 . S
C4195 C4192 1.403 . S
C4195 C4196 1.524 . S
C4195 C4199 1.400 . S
C4196 H4181 0.960 . S
C4196 H4182 0.960 . S
C4196 H4183 0.960 . S
C4196 C4195 1.524 . S
C4197 C4194 1.403 . S
C4197 C4198 1.392 . S
C4197 C4201 1.495 . S
C4198 C4197 1.392 . S
C4198 C4199 1.385 . S
C4198 C4200 1.478 . S
C4199 H4193 0.930 . S
C4199 C4195 1.400 . S
C4199 C4198 1.385 . S
C4200 C4198 1.478 . S
C4200 C4202 1.381 . S
C4200 C4206 1.383 . S
C4201 C4197 1.495 . S
C4201 H4207 0.959 . S
C4201 H4208 0.961 . S
C4201 H4209 0.960 . S
C4202 C4200 1.381 . S
C4202 C4203 1.394 . S
C4202 H4210 0.930 . S
C4203 C4202 1.394 . S
C4203 C4204 1.383 . S
C4203 H4211 0.929 . S
C4204 C4203 1.383 . S
C4204 C4205 1.377 . S
C4205 H4189 0.930 . S
C4205 C4204 1.377 . S
C4205 C4206 1.379 . S
C4206 H4190 0.931 . S
C4206 C4200 1.383 . S
C4206 C4205 1.379 . S
H4207 C4201 0.959 . S
H4208 C4201 0.961 . S
H4209 C4201 0.960 . S
H4210 C4202 0.930 . S
H4211 C4203 0.929 . S
H4212 C4220 0.929 . S
H4213 C4222 0.930 . S
H4214 C4224 0.930 . S
H4215 C4227 0.929 . S
H4216 C4230 0.930 . S
H4217 C4232 0.960 . S
H4218 C4232 0.960 . S
H4219 C4232 0.960 . S
C4220 H4212 0.929 . S
C4220 C4221 1.377 . S
C4220 C4222 1.384 . S
C4221 C4220 1.377 . S
C4221 C4227 1.390 . S
C4222 H4213 0.930 . S
C4222 C4220 1.384 . S
C4222 C4223 1.372 . S
C4223 C4222 1.372 . S
C4223 C4224 1.400 . S
C4223 C4228 1.490 . S
C4224 H4214 0.930 . S
C4224 C4223 1.400 . S
C4224 C4227 1.386 . S
H4225 C4241 0.930 . S
H4226 C4242 0.931 . S
C4227 H4215 0.929 . S
C4227 C4221 1.390 . S
C4227 C4224 1.386 . S
C4228 C4223 1.490 . S
C4228 C4230 1.395 . S
C4228 C4231 1.403 . S
H4229 C4235 0.930 . S
C4230 H4216 0.930 . S
C4230 C4228 1.395 . S
C4230 C4233 1.403 . S
C4231 C4228 1.403 . S
C4231 C4232 1.524 . S
C4231 C4235 1.400 . S
C4232 H4217 0.960 . S
C4232 H4218 0.960 . S
C4232 H4219 0.960 . S
C4232 C4231 1.524 . S
C4233 C4230 1.403 . S
C4233 C4234 1.392 . S
C4233 C4237 1.495 . S
C4234 C4233 1.392 . S
C4234 C4235 1.385 . S
C4234 C4236 1.478 . S
C4235 H4229 0.930 . S
C4235 C4231 1.400 . S
C4235 C4234 1.385 . S
C4236 C4234 1.478 . S
C4236 C4238 1.381 . S
C4236 C4242 1.383 . S
C4237 C4233 1.495 . S
C4237 H4243 0.959 . S
C4237 H4244 0.961 . S
C4237 H4245 0.960 . S
C4238 C4236 1.381 . S
C4238 C4239 1.394 . S
C4238 H4246 0.930 . S
C4239 C4238 1.394 . S
C4239 C4240 1.383 . S
C4239 H4247 0.929 . S
C4240 C4239 1.383 . S
C4240 C4241 1.377 . S
C4241 H4225 0.930 . S
C4241 C4240 1.377 . S
C4241 C4242 1.379 . S
C4242 H4226 0.931 . S
C4242 C4236 1.383 . S
C4242 C4241 1.379 . S
H4243 C4237 0.959 . S
H4244 C4237 0.961 . S
H4245 C4237 0.960 . S
H4246 C4238 0.930 . S
H4247 C4239 0.929 . S
H4248 C4256 0.929 . S
H4249 C4258 0.930 . S
H4250 C4260 0.930 . S
H4251 C4263 0.929 . S
H4252 C4266 0.930 . S
H4253 C4268 0.960 . S
H4254 C4268 0.960 . S
H4255 C4268 0.960 . S
C4256 H4248 0.929 . S
C4256 C4257 1.377 . S
C4256 C4258 1.384 . S
C4257 C4256 1.377 . S
C4257 C4263 1.390 . S
C4258 H4249 0.930 . S
C4258 C4256 1.384 . S
C4258 C4259 1.372 . S
C4259 C4258 1.372 . S
C4259 C4260 1.400 . S
C4259 C4264 1.490 . S
C4260 H4250 0.930 . S
C4260 C4259 1.400 . S
C4260 C4263 1.386 . S
H4261 C4277 0.930 . S
H4262 C4278 0.931 . S
C4263 H4251 0.929 . S
C4263 C4257 1.390 . S
C4263 C4260 1.386 . S
C4264 C4259 1.490 . S
C4264 C4266 1.395 . S
C4264 C4267 1.403 . S
H4265 C4271 0.930 . S
C4266 H4252 0.930 . S
C4266 C4264 1.395 . S
C4266 C4269 1.403 . S
C4267 C4264 1.403 . S
C4267 C4268 1.524 . S
C4267 C4271 1.400 . S
C4268 H4253 0.960 . S
C4268 H4254 0.960 . S
C4268 H4255 0.960 . S
C4268 C4267 1.524 . S
C4269 C4266 1.403 . S
C4269 C4270 1.392 . S
C4269 C4273 1.495 . S
C4270 C4269 1.392 . S
C4270 C4271 1.385 . S
C4270 C4272 1.478 . S
C4271 H4265 0.930 . S
C4271 C4267 1.400 . S
C4271 C4270 1.385 . S
C4272 C4270 1.478 . S
C4272 C4274 1.381 . S
C4272 C4278 1.383 . S
C4273 C4269 1.495 . S
C4273 H4279 0.959 . S
C4273 H4280 0.961 . S
C4273 H4281 0.960 . S
C4274 C4272 1.381 . S
C4274 C4275 1.394 . S
C4274 H4282 0.930 . S
C4275 C4274 1.394 . S
C4275 C4276 1.383 . S
C4275 H4283 0.929 . S
C4276 C4275 1.383 . S
C4276 C4277 1.377 . S
C4277 H4261 0.930 . S
C4277 C4276 1.377 . S
C4277 C4278 1.379 . S
C4278 H4262 0.931 . S
C4278 C4272 1.383 . S
C4278 C4277 1.379 . S
H4279 C4273 0.959 . S
H4280 C4273 0.961 . S
H4281 C4273 0.960 . S
H4282 C4274 0.930 . S
H4283 C4275 0.929 . S
H4284 C4292 0.929 . S
H4285 C4294 0.930 . S
H4286 C4296 0.930 . S
H4287 C4299 0.929 . S
H4288 C4302 0.930 . S
H4289 C4304 0.960 . S
H4290 C4304 0.960 . S
H4291 C4304 0.960 . S
C4292 H4284 0.929 . S
C4292 C4293 1.377 . S
C4292 C4294 1.384 . S
C4293 C4292 1.377 . S
C4293 C4299 1.390 . S
C4294 H4285 0.930 . S
C4294 C4292 1.384 . S
C4294 C4295 1.372 . S
C4295 C4294 1.372 . S
C4295 C4296 1.400 . S
C4295 C4300 1.490 . S
C4296 H4286 0.930 . S
C4296 C4295 1.400 . S
C4296 C4299 1.386 . S
H4297 C4313 0.930 . S
H4298 C4314 0.931 . S
C4299 H4287 0.929 . S
C4299 C4293 1.390 . S
C4299 C4296 1.386 . S
C4300 C4295 1.490 . S
C4300 C4302 1.395 . S
C4300 C4303 1.403 . S
H4301 C4307 0.930 . S
C4302 H4288 0.930 . S
C4302 C4300 1.395 . S
C4302 C4305 1.403 . S
C4303 C4300 1.403 . S
C4303 C4304 1.524 . S
C4303 C4307 1.400 . S
C4304 H4289 0.960 . S
C4304 H4290 0.960 . S
C4304 H4291 0.960 . S
C4304 C4303 1.524 . S
C4305 C4302 1.403 . S
C4305 C4306 1.392 . S
C4305 C4309 1.495 . S
C4306 C4305 1.392 . S
C4306 C4307 1.385 . S
C4306 C4308 1.478 . S
C4307 H4301 0.930 . S
C4307 C4303 1.400 . S
C4307 C4306 1.385 . S
C4308 C4306 1.478 . S
C4308 C4310 1.381 . S
C4308 C4314 1.383 . S
C4309 C4305 1.495 . S
C4309 H4315 0.959 . S
C4309 H4316 0.961 . S
C4309 H4317 0.960 . S
C4310 C4308 1.381 . S
C4310 C4311 1.394 . S
C4310 H4318 0.930 . S
C4311 C4310 1.394 . S
C4311 C4312 1.383 . S
C4311 H4319 0.929 . S
C4312 C4311 1.383 . S
C4312 C4313 1.377 . S
C4313 H4297 0.930 . S
C4313 C4312 1.377 . S
C4313 C4314 1.379 . S
C4314 H4298 0.931 . S
C4314 C4308 1.383 . S
C4314 C4313 1.379 . S
H4315 C4309 0.959 . S
H4316 C4309 0.961 . S
H4317 C4309 0.960 . S
H4318 C4310 0.930 . S
H4319 C4311 0.929 . S
H4320 C4328 0.929 . S
H4321 C4330 0.930 . S
H4322 C4332 0.930 . S
H4323 C4335 0.929 . S
H4324 C4338 0.930 . S
H4325 C4340 0.960 . S
H4326 C4340 0.960 . S
H4327 C4340 0.960 . S
C4328 H4320 0.929 . S
C4328 C4329 1.377 . S
C4328 C4330 1.384 . S
C4329 C4328 1.377 . S
C4329 C4335 1.390 . S
C4330 H4321 0.930 . S
C4330 C4328 1.384 . S
C4330 C4331 1.372 . S
C4331 C4330 1.372 . S
C4331 C4332 1.400 . S
C4331 C4336 1.490 . S
C4332 H4322 0.930 . S
C4332 C4331 1.400 . S
C4332 C4335 1.386 . S
H4333 C4349 0.930 . S
H4334 C4350 0.931 . S
C4335 H4323 0.929 . S
C4335 C4329 1.390 . S
C4335 C4332 1.386 . S
C4336 C4331 1.490 . S
C4336 C4338 1.395 . S
C4336 C4339 1.403 . S
H4337 C4343 0.930 . S
C4338 H4324 0.930 . S
C4338 C4336 1.395 . S
C4338 C4341 1.403 . S
C4339 C4336 1.403 . S
C4339 C4340 1.524 . S
C4339 C4343 1.400 . S
C4340 H4325 0.960 . S
C4340 H4326 0.960 . S
C4340 H4327 0.960 . S
C4340 C4339 1.524 . S
C4341 C4338 1.403 . S
C4341 C4342 1.392 . S
C4341 C4345 1.495 . S
C4342 C4341 1.392 . S
C4342 C4343 1.385 . S
C4342 C4344 1.478 . S
C4343 H4337 0.930 . S
C4343 C4339 1.400 . S
C4343 C4342 1.385 . S
C4344 C4342 1.478 . S
C4344 C4346 1.381 . S
C4344 C4350 1.383 . S
C4345 C4341 1.495 . S
C4345 H4351 0.959 . S
C4345 H4352 0.961 . S
C4345 H4353 0.960 . S
C4346 C4344 1.381 . S
C4346 C4347 1.394 . S
C4346 H4354 0.930 . S
C4347 C4346 1.394 . S
C4347 C4348 1.383 . S
C4347 H4355 0.929 . S
C4348 C4347 1.383 . S
C4348 C4349 1.377 . S
C4349 H4333 0.930 . S
C4349 C4348 1.377 . S
C4349 C4350 1.379 . S
C4350 H4334 0.931 . S
C4350 C4344 1.383 . S
C4350 C4349 1.379 . S
H4351 C4345 0.959 . S
H4352 C4345 0.961 . S
H4353 C4345 0.960 . S
H4354 C4346 0.930 . S
H4355 C4347 0.929 . S
H4356 C4364 0.929 . S
H4357 C4366 0.930 . S
H4358 C4368 0.930 . S
H4359 C4371 0.929 . S
H4360 C4374 0.930 . S
H4361 C4376 0.960 . S
H4362 C4376 0.960 . S
H4363 C4376 0.960 . S
C4364 H4356 0.929 . S
C4364 C4365 1.377 . S
C4364 C4366 1.384 . S
C4365 C4364 1.377 . S
C4365 C4371 1.390 . S
C4366 H4357 0.930 . S
C4366 C4364 1.384 . S
C4366 C4367 1.372 . S
C4367 C4366 1.372 . S
C4367 C4368 1.400 . S
C4367 C4372 1.490 . S
C4368 H4358 0.930 . S
C4368 C4367 1.400 . S
C4368 C4371 1.386 . S
H4369 C4385 0.930 . S
H4370 C4386 0.931 . S
C4371 H4359 0.929 . S
C4371 C4365 1.390 . S
C4371 C4368 1.386 . S
C4372 C4367 1.490 . S
C4372 C4374 1.395 . S
C4372 C4375 1.403 . S
H4373 C4379 0.930 . S
C4374 H4360 0.930 . S
C4374 C4372 1.395 . S
C4374 C4377 1.403 . S
C4375 C4372 1.403 . S
C4375 C4376 1.524 . S
C4375 C4379 1.400 . S
C4376 H4361 0.960 . S
C4376 H4362 0.960 . S
C4376 H4363 0.960 . S
C4376 C4375 1.524 . S
C4377 C4374 1.403 . S
C4377 C4378 1.392 . S
C4377 C4381 1.495 . S
C4378 C4377 1.392 . S
C4378 C4379 1.385 . S
C4378 C4380 1.478 . S
C4379 H4373 0.930 . S
C4379 C4375 1.400 . S
C4379 C4378 1.385 . S
C4380 C4378 1.478 . S
C4380 C4382 1.381 . S
C4380 C4386 1.383 . S
C4381 C4377 1.495 . S
C4381 H4387 0.959 . S
C4381 H4388 0.961 . S
C4381 H4389 0.960 . S
C4382 C4380 1.381 . S
C4382 C4383 1.394 . S
C4382 H4390 0.930 . S
C4383 C4382 1.394 . S
C4383 C4384 1.383 . S
C4383 H4391 0.929 . S
C4384 C4383 1.383 . S
C4384 C4385 1.377 . S
C4385 H4369 0.930 . S
C4385 C4384 1.377 . S
C4385 C4386 1.379 . S
C4386 H4370 0.931 . S
C4386 C4380 1.383 . S
C4386 C4385 1.379 . S
H4387 C4381 0.959 . S
H4388 C4381 0.961 . S
H4389 C4381 0.960 . S
H4390 C4382 0.930 . S
H4391 C4383 0.929 . S
H4392 C4400 0.929 . S
H4393 C4402 0.930 . S
H4394 C4404 0.930 . S
H4395 C4407 0.929 . S
H4396 C4410 0.930 . S
H4397 C4412 0.960 . S
H4398 C4412 0.960 . S
H4399 C4412 0.960 . S
C4400 H4392 0.929 . S
C4400 C4401 1.377 . S
C4400 C4402 1.384 . S
C4401 C4400 1.377 . S
C4401 C4407 1.390 . S
C4402 H4393 0.930 . S
C4402 C4400 1.384 . S
C4402 C4403 1.372 . S
C4403 C4402 1.372 . S
C4403 C4404 1.400 . S
C4403 C4408 1.490 . S
C4404 H4394 0.930 . S
C4404 C4403 1.400 . S
C4404 C4407 1.386 . S
H4405 C4421 0.930 . S
H4406 C4422 0.931 . S
C4407 H4395 0.929 . S
C4407 C4401 1.390 . S
C4407 C4404 1.386 . S
C4408 C4403 1.490 . S
C4408 C4410 1.395 . S
C4408 C4411 1.403 . S
H4409 C4415 0.930 . S
C4410 H4396 0.930 . S
C4410 C4408 1.395 . S
C4410 C4413 1.403 . S
C4411 C4408 1.403 . S
C4411 C4412 1.524 . S
C4411 C4415 1.400 . S
C4412 H4397 0.960 . S
C4412 H4398 0.960 . S
C4412 H4399 0.960 . S
C4412 C4411 1.524 . S
C4413 C4410 1.403 . S
C4413 C4414 1.392 . S
C4413 C4417 1.495 . S
C4414 C4413 1.392 . S
C4414 C4415 1.385 . S
C4414 C4416 1.478 . S
C4415 H4409 0.930 . S
C4415 C4411 1.400 . S
C4415 C4414 1.385 . S
C4416 C4414 1.478 . S
C4416 C4418 1.381 . S
C4416 C4422 1.383 . S
C4417 C4413 1.495 . S
C4417 H4423 0.959 . S
C4417 H4424 0.961 . S
C4417 H4425 0.960 . S
C4418 C4416 1.381 . S
C4418 C4419 1.394 . S
C4418 H4426 0.930 . S
C4419 C4418 1.394 . S
C4419 C4420 1.383 . S
C4419 H4427 0.929 . S
C4420 C4419 1.383 . S
C4420 C4421 1.377 . S
C4421 H4405 0.930 . S
C4421 C4420 1.377 . S
C4421 C4422 1.379 . S
C4422 H4406 0.931 . S
C4422 C4416 1.383 . S
C4422 C4421 1.379 . S
H4423 C4417 0.959 . S
H4424 C4417 0.961 . S
H4425 C4417 0.960 . S
H4426 C4418 0.930 . S
H4427 C4419 0.929 . S
H4428 C4436 0.929 . S
H4429 C4438 0.930 . S
H4430 C4440 0.930 . S
H4431 C4443 0.929 . S
H4432 C4446 0.930 . S
H4433 C4448 0.960 . S
H4434 C4448 0.960 . S
H4435 C4448 0.960 . S
C4436 H4428 0.929 . S
C4436 C4437 1.377 . S
C4436 C4438 1.384 . S
C4437 C4436 1.377 . S
C4437 C4443 1.390 . S
C4438 H4429 0.930 . S
C4438 C4436 1.384 . S
C4438 C4439 1.372 . S
C4439 C4438 1.372 . S
C4439 C4440 1.400 . S
C4439 C4444 1.490 . S
C4440 H4430 0.930 . S
C4440 C4439 1.400 . S
C4440 C4443 1.386 . S
H4441 C4457 0.930 . S
H4442 C4458 0.931 . S
C4443 H4431 0.929 . S
C4443 C4437 1.390 . S
C4443 C4440 1.386 . S
C4444 C4439 1.490 . S
C4444 C4446 1.395 . S
C4444 C4447 1.403 . S
H4445 C4451 0.930 . S
C4446 H4432 0.930 . S
C4446 C4444 1.395 . S
C4446 C4449 1.403 . S
C4447 C4444 1.403 . S
C4447 C4448 1.524 . S
C4447 C4451 1.400 . S
C4448 H4433 0.960 . S
C4448 H4434 0.960 . S
C4448 H4435 0.960 . S
C4448 C4447 1.524 . S
C4449 C4446 1.403 . S
C4449 C4450 1.392 . S
C4449 C4453 1.495 . S
C4450 C4449 1.392 . S
C4450 C4451 1.385 . S
C4450 C4452 1.478 . S
C4451 H4445 0.930 . S
C4451 C4447 1.400 . S
C4451 C4450 1.385 . S
C4452 C4450 1.478 . S
C4452 C4454 1.381 . S
C4452 C4458 1.383 . S
C4453 C4449 1.495 . S
C4453 H4459 0.959 . S
C4453 H4460 0.961 . S
C4453 H4461 0.960 . S
C4454 C4452 1.381 . S
C4454 C4455 1.394 . S
C4454 H4462 0.930 . S
C4455 C4454 1.394 . S
C4455 C4456 1.383 . S
C4455 H4463 0.929 . S
C4456 C4455 1.383 . S
C4456 C4457 1.377 . S
C4457 H4441 0.930 . S
C4457 C4456 1.377 . S
C4457 C4458 1.379 . S
C4458 H4442 0.931 . S
C4458 C4452 1.383 . S
C4458 C4457 1.379 . S
H4459 C4453 0.959 . S
H4460 C4453 0.961 . S
H4461 C4453 0.960 . S
H4462 C4454 0.930 . S
H4463 C4455 0.929 . S
C1233 C135 1.329 . S
C1252 C33 1.338 . S
C1269 C67 1.332 . S
C1288 C169 1.332 . S
C1305 C203 1.334 . S
C1324 C101 1.322 . S
C1341 C339 1.329 . S
C1360 C237 1.333 . S
C1377 C271 1.334 . S
C1396 C373 1.328 . S
C1413 C407 1.333 . S
C1432 C305 1.335 . S
C1449 C543 1.330 . S
C1468 C441 1.340 . S
C1485 C475 1.333 . S
C1504 C577 1.316 . S
C1521 C611 1.330 . S
C1540 C509 1.340 . S
C1557 C645 1.331 . S
C1576 C747 1.317 . S
C1593 C679 1.329 . S
C1612 C781 1.321 . S
C1629 C815 1.332 . S
C1648 C713 1.339 . S
C1665 C951 1.330 . S
C1684 C849 1.322 . S
C1701 C985 1.332 . S
C1720 C883 1.331 . S
C1737 C1019 1.333 . S
C1756 C917 1.317 . S
C1773 C1155 1.329 . S
C1792 C1053 1.337 . S
C1809 C1087 1.334 . S
C1828 C1189 1.330 . S
C1845 C1223 1.329 . S
C1864 C1121 1.324 . S
C1881 C2 2.376 . S
C1900 C988 2.373 . S
C1917 C920 2.376 . S
C1936 C36 2.373 . S
C1953 C70 2.376 . S
C1972 C954 2.372 . S
C1989 C444 2.376 . S
C2008 C104 2.371 . S
C2025 C138 2.376 . S
C2044 C478 2.372 . S
C2061 C410 2.376 . S
C2080 C172 2.373 . S
C2097 C784 2.376 . S
C2116 C206 2.373 . S
C2133 C716 2.375 . S
C2152 C240 2.372 . S
C2169 C750 2.376 . S
C2188 C274 2.370 . S
C2205 C308 2.376 . S
C2224 C1056 2.371 . S
C2241 C1090 2.375 . S
C2260 C342 2.372 . S
C2277 C376 2.376 . S
C2296 C1022 2.370 . S
C2313 C852 2.376 . S
C2332 C512 2.371 . S
C2349 C886 2.375 . S
C2368 C546 2.371 . S
C2385 C818 2.375 . S
C2404 C580 2.370 . S
C2421 C614 2.376 . S
C2440 C1192 2.370 . S
C2457 C648 2.376 . S
C2476 C1124 2.370 . S
C2493 C1158 2.376 . S
C2512 C682 2.370 . S
C2529 C5 1.381 . S
C2548 C617 1.383 . S
C2565 C651 1.385 . S
C2584 C39 1.376 . S
C2601 C73 1.385 . S
C2620 C685 1.393 . S
C2637 C1127 1.381 . S
C2656 C107 1.370 . S
C2673 C141 1.383 . S
C2692 C1161 1.390 . S
C2709 C1195 1.386 . S
C2728 C175 1.384 . S
C2745 C209 1.382 . S
C2764 C821 1.387 . S
C2781 C243 1.381 . S
C2800 C855 1.372 . S
C2817 C277 1.382 . S
C2836 C889 1.387 . S
C2853 C515 1.384 . S
C2872 C311 1.370 . S
C2889 C549 1.382 . S
C2908 C345 1.386 . S
C2925 C379 1.382 . S
C2944 C583 1.369 . S
C2961 C413 1.384 . S
C2980 C1025 1.373 . S
C2997 C1059 1.381 . S
C3016 C447 1.378 . S
C3033 C481 1.386 . S
C3052 C1093 1.385 . S
C3069 C923 1.381 . S
C3088 C719 1.374 . S
C3105 C753 1.381 . S
C3124 C957 1.370 . S
C3141 C991 1.385 . S
C3160 C787 1.393 . S
C3177 C247 1.005 . S
C3196 C20 0.993 . S
C3213 C54 1.017 . S
C3232 C281 0.973 . S
C3249 C88 1.014 . S
C3268 C213 0.995 . S
C3285 C122 1.016 . S
C3304 C383 0.980 . S
C3321 C156 1.013 . S
C3340 C315 1.005 . S
C3357 C190 1.016 . S
C3376 C349 0.976 . S
C3393 C43 0.999 . S
C3412 C224 1.023 . S
C3429 C77 0.992 . S
C3448 C258 0.997 . S
C3465 C9 0.993 . S
C3484 C292 1.001 . S
C3501 C326 1.013 . S
C3520 C179 0.966 . S
C3537 C360 1.017 . S
C3556 C111 0.993 . S
C3573 C394 1.021 . S
C3592 C145 1.029 . S
C3609 C428 1.012 . S
C3628 C655 1.034 . S
C3645 C689 1.003 . S
C3664 C462 1.018 . S
C3681 C621 1.002 . S
C3700 C496 1.022 . S
C3717 C530 1.011 . S
C3736 C791 1.032 . S
C3753 C723 0.992 . S
C3772 C564 1.036 . S
C3789 C757 1.001 . S
C3808 C598 1.023 . S
C3825 C632 1.012 . S
C3844 C451 0.971 . S
C3861 C666 1.013 . S
C3880 C485 0.967 . S
C3897 C417 0.999 . S
C3916 C700 1.022 . S
C3933 C587 1.006 . S
C3952 C734 1.037 . S
C3969 C519 1.006 . S
C3988 C768 1.026 . S
C4005 C553 0.992 . S
C4024 C802 0.993 . S
C4041 C836 1.017 . S
C4060 C1063 0.972 . S
C4077 C1097 0.992 . S
C4096 C870 1.034 . S
C4113 C1029 0.995 . S
C4132 C904 1.017 . S
C4149 C938 1.012 . S
C4168 C1199 1.033 . S
C4185 C972 1.013 . S
C4204 C1131 1.034 . S
C4221 C1006 1.012 . S
C4240 C1165 1.033 . S
C4257 C859 1.004 . S
C4276 C1040 1.020 . S
C4293 C893 1.002 . S
C4312 C1074 1.030 . S
C4329 C1108 1.012 . S
C4348 C825 0.961 . S
C4365 C1142 1.012 . S
C4384 C995 0.961 . S
C4401 C1176 1.019 . S
C4420 C927 1.029 . S
C4437 C1210 1.020 . S
C4456 C961 1.034 . S
