# Generated by pormake.
# Topology smu, (6)-cn, num edge types: 1
# Building blocks:
#     Node 0, Type 0, BuildingBlock: MIDCAF_clean_sbu_0, # of connection points: 6
#     Node 1, Type 0, BuildingBlock: MIDCAF_clean_sbu_0, # of connection points: 6
#     Node 2, Type 0, BuildingBlock: MIDCAF_clean_sbu_0, # of connection points: 6
#     Node 3, Type 0, BuildingBlock: MIDCAF_clean_sbu_0, # of connection points: 6
#     Node 4, Type 0, BuildingBlock: MIDCAF_clean_sbu_0, # of connection points: 6
#     Node 5, Type 0, BuildingBlock: MIDCAF_clean_sbu_0, # of connection points: 6
#     Edge 6, Type (0, 0), BuildingBlock: MIFKUJ_clean_linker_0, # of connection points: 2
#     Edge 7, Type (0, 0), BuildingBlock: MIFKUJ_clean_linker_0, # of connection points: 2
#     Edge 8, Type (0, 0), BuildingBlock: MIFKUJ_clean_linker_0, # of connection points: 2
#     Edge 9, Type (0, 0), BuildingBlock: MIFKUJ_clean_linker_0, # of connection points: 2
#     Edge 10, Type (0, 0), BuildingBlock: MIFKUJ_clean_linker_0, # of connection points: 2
#     Edge 11, Type (0, 0), BuildingBlock: MIFKUJ_clean_linker_0, # of connection points: 2
#     Edge 12, Type (0, 0), BuildingBlock: MIFKUJ_clean_linker_0, # of connection points: 2
#     Edge 13, Type (0, 0), BuildingBlock: MIFKUJ_clean_linker_0, # of connection points: 2
#     Edge 14, Type (0, 0), BuildingBlock: MIFKUJ_clean_linker_0, # of connection points: 2
#     Edge 15, Type (0, 0), BuildingBlock: MIFKUJ_clean_linker_0, # of connection points: 2
#     Edge 16, Type (0, 0), BuildingBlock: MIFKUJ_clean_linker_0, # of connection points: 2
#     Edge 17, Type (0, 0), BuildingBlock: MIFKUJ_clean_linker_0, # of connection points: 2
#     Edge 18, Type (0, 0), BuildingBlock: MIFKUJ_clean_linker_0, # of connection points: 2
#     Edge 19, Type (0, 0), BuildingBlock: MIFKUJ_clean_linker_0, # of connection points: 2
#     Edge 20, Type (0, 0), BuildingBlock: MIFKUJ_clean_linker_0, # of connection points: 2
#     Edge 21, Type (0, 0), BuildingBlock: MIFKUJ_clean_linker_0, # of connection points: 2
#     Edge 22, Type (0, 0), BuildingBlock: MIFKUJ_clean_linker_0, # of connection points: 2
#     Edge 23, Type (0, 0), BuildingBlock: MIFKUJ_clean_linker_0, # of connection points: 2
# Relax obj value: 0.355
# Max RMSD: 0.260
# Mean RMSD: 0.260
data_MOF--net-smu--node1-MIDCAF_clean_sbu_0--edge1-MIFKUJ_clean_linker_0
_symmetry_space_group_name_H-M    P1
_symmetry_Int_Tables_number       1
_symmetry_cell_setting            triclinic
loop_
_symmetry_equiv_pos_as_xyz
'x, y, z'
_cell_length_a     35.72875
_cell_length_b     35.711311
_cell_length_c     38.96544
_cell_angle_alpha  89.990323
_cell_angle_beta   89.983266
_cell_angle_gamma 120.10414
loop_
_atom_site_label
_atom_site_type_symbol
_atom_site_fract_x
_atom_site_fract_y
_atom_site_fract_z
_atom_type_partial_charge
Zn0 Zn 0.25929 0.0516 0.20492 0.0
Zn1 Zn 0.38865 0.12871 0.28367 0.0
Zn2 Zn 0.32538 0.08774 0.24742 0.0
C3 C 0.40643 0.07499 0.24543 0.0
C4 C 0.32194 0.08358 0.32885 0.0
O5 O 0.3048 0.13489 0.23367 0.0
O6 O 0.24357 0.09816 0.20478 0.0
C7 C 0.32898 0.05328 0.1713 0.0
O8 O 0.37598 0.07472 0.22753 0.0
O9 O 0.41515 0.09244 0.27471 0.0
O10 O 0.35705 0.11919 0.32753 0.0
O11 O 0.3058 0.06192 0.30095 0.0
O12 O 0.2922 0.04861 0.16526 0.0
O13 O 0.34583 0.06429 0.20153 0.0
O14 O 0.27365 0.03573 0.27723 0.0
O15 O 0.22747 -0.00024 0.23541 0.0
C16 C 0.23886 0.0025 0.26645 0.0
O17 O 0.34688 0.15751 0.24532 0.0
O18 O 0.4148 0.18735 0.2624 0.0
C19 C 0.2715 0.13287 0.21893 0.0
C20 C 0.38457 0.19111 0.24936 0.0
Zn21 Zn 0.79915 0.69306 0.21632 0.0
Zn22 Zn 0.70522 0.5847 0.28524 0.0
Zn23 Zn 0.74292 0.65033 0.25179 0.0
C24 C 0.64622 0.59988 0.24225 0.0
C25 C 0.73914 0.65282 0.33286 0.0
O26 O 0.79274 0.70121 0.28288 0.0
O27 O 0.83963 0.69232 0.25257 0.0
C28 C 0.73088 0.645 0.17395 0.0
O29 O 0.68005 0.63416 0.23138 0.0
O30 O 0.64984 0.57556 0.264 0.0
O31 O 0.72076 0.61197 0.3319 0.0
O32 O 0.75009 0.67443 0.30471 0.0
O33 O 0.76967 0.65284 0.17567 0.0
O34 O 0.71314 0.64944 0.20138 0.0
O35 O 0.71684 0.68662 0.22551 0.0
O36 O 0.78366 0.74084 0.22065 0.0
C37 C 0.74344 0.72753 0.22178 0.0
O38 O 0.77209 0.61417 0.23473 0.0
O39 O 0.73624 0.55508 0.26533 0.0
C40 C 0.83055 0.70574 0.27968 0.0
C41 C 0.76511 0.57683 0.24325 0.0
Zn42 Zn 0.95725 0.20573 0.25299 0.0
Zn43 Zn 0.8945 0.2846 0.29525 0.0
Zn44 Zn 0.92207 0.2445 0.26555 0.0
C45 C 0.94382 0.33639 0.23947 0.0
C46 C 0.93874 0.2643 0.34406 0.0
O47 O 0.87461 0.17834 0.25078 0.0
O48 O 0.91101 0.14874 0.27163 0.0
C49 C 0.95968 0.24871 0.19227 0.0
O50 O 0.94888 0.30366 0.23386 0.0
O51 O 0.92314 0.33695 0.26557 0.0
O52 O 0.91943 0.28562 0.34109 0.0
O53 O 0.94249 0.24475 0.31801 0.0
O54 O 0.95787 0.21345 0.20023 0.0
O55 O 0.95611 0.27165 0.21638 0.0
O56 O 0.98772 0.29135 0.24741 0.0
O57 O 0.00807 0.25389 0.27899 0.0
C58 C 0.0178 0.28902 0.26378 0.0
O59 O 0.854 0.20591 0.25262 0.0
O60 O 0.83198 0.24202 0.28452 0.0
C61 C 0.87606 0.14463 0.26009 0.0
C62 C 0.82331 0.2113 0.26391 0.0
Zn63 Zn 0.01646 0.23713 0.82228 0.0
Zn64 Zn 0.12458 0.39133 0.73729 0.0
Zn65 Zn 0.06891 0.32602 0.77242 0.0
C66 C 0.08313 0.41811 0.78645 0.0
C67 C 0.06269 0.33451 0.69078 0.0
O68 O 0.0834 0.28081 0.79132 0.0
O69 O 0.06753 0.22608 0.82494 0.0
C70 C 0.02819 0.32374 0.84598 0.0
O71 O 0.06247 0.37793 0.79469 0.0
O72 O 0.11174 0.43188 0.76327 0.0
O73 O 0.09742 0.37054 0.69167 0.0
O74 O 0.0462 0.31326 0.71868 0.0
O75 O 0.01846 0.28482 0.85109 0.0
O76 O 0.04398 0.34326 0.81727 0.0
O77 O 0.01779 0.27838 0.74052 0.0
O78 O 0.98433 0.22183 0.7763 0.0
C79 C 0.98777 0.23945 0.74721 0.0
O80 O 0.13325 0.33402 0.7827 0.0
O81 O 0.17695 0.38778 0.74893 0.0
C82 C 0.09241 0.25302 0.80287 0.0
C83 C 0.17126 0.35943 0.77092 0.0
Zn84 Zn 0.29343 0.9069 0.7148 0.0
Zn85 Zn 0.21179 0.94939 0.80355 0.0
Zn86 Zn 0.25609 0.93494 0.75729 0.0
C87 C 0.24323 0.01388 0.74994 0.0
C88 C 0.28401 0.9617 0.83771 0.0
O89 O 0.2156 0.86556 0.75047 0.0
O90 O 0.25397 0.84334 0.72127 0.0
C91 C 0.27248 0.9605 0.6771 0.0
O92 O 0.25461 0.98945 0.73438 0.0
O93 O 0.22603 0.00391 0.77935 0.0
O94 O 0.24722 0.95669 0.84439 0.0
O95 O 0.29367 0.95651 0.80679 0.0
O96 O 0.28346 0.93223 0.67361 0.0
O97 O 0.26534 0.97049 0.70731 0.0
O98 O 0.31497 0.94435 0.78238 0.0
O99 O 0.35011 0.93605 0.73902 0.0
C100 C 0.34905 0.94586 0.77 0.0
O101 O 0.18863 0.8806 0.76186 0.0
O102 O 0.15285 0.89822 0.79847 0.0
C103 C 0.22021 0.83491 0.73776 0.0
C104 C 0.15303 0.87198 0.77687 0.0
Zn105 Zn 0.59665 0.6976 0.71773 0.0
Zn106 Zn 0.73154 0.77751 0.78876 0.0
Zn107 Zn 0.66525 0.73635 0.7543 0.0
C108 C 0.75089 0.73452 0.73878 0.0
C109 C 0.67537 0.71908 0.8342 0.0
O110 O 0.6393 0.78043 0.75036 0.0
O111 O 0.57489 0.73842 0.72756 0.0
C112 C 0.66275 0.71135 0.67391 0.0
O113 O 0.71558 0.73 0.72613 0.0
O114 O 0.76381 0.75169 0.76785 0.0
O115 O 0.70915 0.75581 0.83457 0.0
O116 O 0.65456 0.70377 0.80579 0.0
O117 O 0.62329 0.70046 0.67275 0.0
O118 O 0.68328 0.7223 0.70278 0.0
O119 O 0.61771 0.67883 0.78442 0.0
O120 O 0.57063 0.64222 0.74339 0.0
C121 C 0.58403 0.64416 0.77365 0.0
O122 O 0.68327 0.80589 0.75552 0.0
O123 O 0.74905 0.83797 0.77745 0.0
C124 C 0.60174 0.77383 0.74148 0.0
C125 C 0.71887 0.8407 0.76311 0.0
H126 H 0.31462 0.91442 0.8699 0.0
H127 H 0.3475 0.92939 0.92747 0.0
H128 H 0.35313 0.05293 0.92786 0.0
H129 H 0.32017 0.03779 0.8709 0.0
H130 H 0.4224 0.05678 0.96273 0.0
H131 H 0.26527 0.96552 0.95777 0.0
H132 H 0.1974 0.90046 0.9404 0.0
H133 H 0.23806 0.81958 0.99031 0.0
H134 H 0.30648 0.88425 0.00757 0.0
H135 H 0.3613 0.10774 0.11798 0.0
H136 H 0.3793 0.09171 0.06163 0.0
H137 H 0.36464 0.97192 0.10063 0.0
H138 H 0.34586 0.98806 0.15741 0.0
H139 H 0.31476 0.95686 0.04728 0.0
H140 H 0.46337 0.05341 0.06665 0.0
H141 H 0.52879 0.12021 0.08492 0.0
H142 H 0.50432 0.19301 0.00951 0.0
H143 H 0.43834 0.1268 0.99111 0.0
C144 C 0.32464 0.94544 0.88182 0.0
C145 C 0.31532 0.97518 0.86607 0.0
C146 C 0.34308 0.95386 0.91475 0.0
C147 C 0.35237 0.99213 0.93217 0.0
C148 C 0.34646 0.02332 0.91498 0.0
C149 C 0.3277 0.01472 0.8824 0.0
C150 C 0.362 0.99752 0.96962 0.0
C151 C 0.39912 0.03487 0.98134 0.0
C152 C 0.33215 0.96838 0.99394 0.0
C153 C 0.29118 0.92958 0.98349 0.0
C154 C 0.25987 0.93382 0.96476 0.0
C155 C 0.22129 0.89705 0.95499 0.0
C156 C 0.21349 0.8559 0.96413 0.0
C157 C 0.24421 0.85146 0.98315 0.0
C158 C 0.28289 0.88815 0.99292 0.0
C159 C 0.36377 0.0789 0.11486 0.0
C160 C 0.35277 0.04937 0.14197 0.0
C161 C 0.37415 0.06971 0.08259 0.0
C162 C 0.37368 0.03065 0.0767 0.0
C163 C 0.36545 0.00235 0.10452 0.0
C164 C 0.35509 0.01167 0.13699 0.0
C165 C 0.37473 0.01695 0.04069 0.0
C166 C 0.33922 0.97811 0.02907 0.0
C167 C 0.40602 0.04492 0.01656 0.0
C168 C 0.44576 0.08501 0.02751 0.0
C169 C 0.47174 0.08369 0.05409 0.0
C170 C 0.50897 0.12148 0.06447 0.0
C171 C 0.52072 0.16083 0.04837 0.0
C172 C 0.49522 0.16248 0.02191 0.0
C173 C 0.45793 0.1248 0.01144 0.0
H174 H 0.54963 0.19004 0.05634 0.0
H175 H 0.18358 0.82746 0.95658 0.0
H176 H 0.63116 0.6531 0.62243 0.0
H177 H 0.66001 0.66115 0.56439 0.0
H178 H 0.77089 0.78345 0.59243 0.0
H179 H 0.74112 0.77581 0.65074 0.0
H180 H 0.67482 0.72737 0.51952 0.0
H181 H 0.85605 0.78971 0.53373 0.0
H182 H 0.90915 0.7897 0.57421 0.0
H183 H 0.80968 0.67142 0.61905 0.0
H184 H 0.75645 0.6703 0.57845 0.0
H185 H 0.75141 0.73348 0.34829 0.0
H186 H 0.75596 0.7635 0.40609 0.0
H187 H 0.75188 0.65101 0.4507 0.0
H188 H 0.74705 0.62101 0.39379 0.0
H189 H 0.80754 0.72521 0.48571 0.0
H190 H 0.65815 0.65383 0.43921 0.0
H191 H 0.60538 0.64849 0.39577 0.0
H192 H 0.6401 0.78041 0.41526 0.0
H193 H 0.69324 0.7865 0.45868 0.0
C194 C 0.66212 0.68128 0.61642 0.0
C195 C 0.68459 0.71327 0.64127 0.0
C196 C 0.67842 0.68604 0.58321 0.0
C197 C 0.71753 0.72294 0.57404 0.0
C198 C 0.74086 0.75452 0.59907 0.0
C199 C 0.7243 0.74981 0.63247 0.0
C200 C 0.73217 0.72813 0.5378 0.0
C201 C 0.70428 0.72769 0.51218 0.0
C202 C 0.77092 0.72937 0.52804 0.0
C203 C 0.80216 0.73035 0.55345 0.0
C204 C 0.84557 0.76379 0.55233 0.0
C205 C 0.87576 0.76387 0.57516 0.0
C206 C 0.86292 0.73051 0.59909 0.0
C207 C 0.81977 0.6972 0.60044 0.0
C208 C 0.78951 0.6969 0.5776 0.0
C209 C 0.75233 0.71568 0.37047 0.0
C210 C 0.7482 0.67461 0.36661 0.0
C211 C 0.75495 0.73284 0.40337 0.0
C212 C 0.75404 0.70936 0.43265 0.0
C213 C 0.75277 0.66976 0.42853 0.0
C214 C 0.74964 0.65247 0.39593 0.0
C215 C 0.74933 0.72261 0.46774 0.0
C216 C 0.77903 0.7267 0.4931 0.0
C217 C 0.71228 0.7247 0.47735 0.0
C218 C 0.67977 0.72071 0.45189 0.0
C219 C 0.65452 0.68168 0.43413 0.0
C220 C 0.62458 0.67852 0.40955 0.0
C221 C 0.61945 0.71411 0.40272 0.0
C222 C 0.64413 0.75288 0.42057 0.0
C223 C 0.67411 0.75619 0.44518 0.0
H224 H 0.59631 0.71163 0.38363 0.0
H225 H 0.88643 0.7307 0.6167 0.0
H226 H 0.01026 0.23797 0.145 0.0
H227 H 0.02732 0.26756 0.08638 0.0
H228 H 0.94863 0.32636 0.10148 0.0
H229 H 0.93224 0.29764 0.16007 0.0
H230 H 0.9378 0.26174 0.03679 0.0
H231 H 0.03334 0.39427 0.10243 0.0
H232 H 0.09123 0.43283 0.14506 0.0
H233 H 0.1769 0.40693 0.08553 0.0
H234 H 0.11913 0.36725 0.04302 0.0
H235 H 0.96706 0.33947 0.87357 0.0
H236 H 0.96075 0.34792 0.9354 0.0
H237 H 0.0873 0.36297 0.95072 0.0
H238 H 0.09493 0.3587 0.88908 0.0
H239 H 0.07323 0.3945 0.00264 0.0
H240 H 0.99063 0.25975 0.94408 0.0
H241 H 0.93948 0.2105 0.90056 0.0
H242 H 0.83794 0.22609 0.94464 0.0
H243 H 0.88873 0.27597 0.98814 0.0
C244 C 0.99675 0.2573 0.13576 0.0
C245 C 0.97013 0.26585 0.157 0.0
C246 C 0.00667 0.2743 0.10247 0.0
C247 C 0.98945 0.29935 0.08993 0.0
C248 C 0.96249 0.30744 0.11095 0.0
C249 C 0.95334 0.29123 0.14436 0.0
C250 C -0.00214 0.31543 0.05427 0.0
C251 C 0.96696 0.29121 0.0293 0.0
C252 C 0.03683 0.3527 0.04456 0.0
C253 C 0.07175 0.37739 0.06976 0.0
C254 C 0.06435 0.39638 0.09864 0.0
C255 C 0.09718 0.41847 0.12278 0.0
C256 C 0.13767 0.42215 0.11812 0.0
C257 C 0.14548 0.4039 0.08923 0.0
C258 C 0.11271 0.38162 0.0651 0.0
C259 C 0.99453 0.34759 0.89003 0.0
C260 C 0.03141 0.34841 0.87688 0.0
C261 C 0.9907 0.35156 0.92543 0.0
C262 C 0.02264 0.35382 0.94795 0.0
C263 C 0.06187 0.36064 0.93416 0.0
C264 C 0.06634 0.3584 0.8988 0.0
C265 C 0.01262 0.34129 0.98472 0.0
C266 C 0.04346 0.36562 0.00999 0.0
C267 C 0.97443 0.30276 0.99457 0.0
C268 C 0.94353 0.27191 0.96908 0.0
C269 C 0.9574 0.25272 0.94442 0.0
C270 C 0.92851 0.22476 0.91974 0.0
C271 C 0.88552 0.21527 0.91977 0.0
C272 C 0.87128 0.23356 0.9446 0.0
C273 C 0.90009 0.26168 0.96927 0.0
H274 H 0.86322 0.19369 0.90059 0.0
H275 H 0.16302 0.4393 0.13683 0.0
H276 H 0.27082 -0.00033 0.35248 0.0
H277 H 0.24866 0.97761 0.41247 0.0
H278 H 0.30603 0.11173 0.44177 0.0
H279 H 0.32767 0.13365 0.38264 0.0
H280 H 0.3385 0.06775 0.47774 0.0
H281 H 0.19917 0.04655 0.44232 0.0
H282 H 0.13186 0.01361 0.40843 0.0
H283 H 0.09906 0.88773 0.44595 0.0
H284 H 0.1667 0.91976 0.47945 0.0
H285 H 0.30389 0.04477 0.65526 0.0
H286 H 0.29887 0.06718 0.59644 0.0
H287 H 0.21775 0.93316 0.56778 0.0
H288 H 0.221 0.91132 0.62632 0.0
H289 H 0.19441 0.97654 0.53089 0.0
H290 H 0.33052 0.98871 0.55797 0.0
H291 H 0.39835 0.01349 0.59019 0.0
H292 H 0.43827 0.14548 0.56536 0.0
H293 H 0.37033 0.12147 0.53338 0.0
C294 C 0.27751 0.02423 0.37161 0.0
C295 C 0.30127 0.06838 0.36291 0.0
C296 C 0.265 0.01166 0.40587 0.0
C297 C 0.27602 0.04312 0.43165 0.0
C298 C 0.29745 0.08693 0.42242 0.0
C299 C 0.30984 0.09938 0.38854 0.0
C300 C 0.2698 0.03163 0.46872 0.0
C301 C 0.30689 0.04832 0.48944 0.0
C302 C 0.22873 0.00484 0.48372 0.0
C303 C 0.1883 0.98557 0.46317 0.0
C304 C 0.17791 0.01179 0.44303 0.0
C305 C 0.13962 0.99328 0.42394 0.0
C306 C 0.1112 0.94862 0.42505 0.0
C307 C 0.1211 0.92233 0.44512 0.0
C308 C 0.15944 0.94065 0.46414 0.0
C309 C 0.28374 0.02046 0.63662 0.0
C310 C 0.26282 0.9764 0.64522 0.0
C311 C 0.28125 0.0331 0.60292 0.0
C312 C 0.25877 0.00176 0.57727 0.0
C313 C 0.23539 0.95804 0.58678 0.0
C314 C 0.23742 0.94557 0.6203 0.0
C315 C 0.26317 0.01341 0.54008 0.0
C316 C 0.22595 0.9964 0.51927 0.0
C317 C 0.30425 0.03878 0.52456 0.0
C318 C 0.34515 0.05335 0.54368 0.0
C319 C 0.35364 0.02304 0.5596 0.0
C320 C 0.3921 0.03694 0.57779 0.0
C321 C 0.42253 0.08105 0.57992 0.0
C322 C 0.41461 0.11134 0.56376 0.0
C323 C 0.37614 0.09761 0.54561 0.0
H324 H 0.45231 0.09175 0.594 0.0
H325 H 0.08146 0.93442 0.41041 0.0
H326 H 0.73153 0.71388 0.8764 0.0
H327 H 0.71865 0.68229 0.93337 0.0
H328 H 0.5822 0.63652 0.92299 0.0
H329 H 0.59538 0.6692 0.86506 0.0
H330 H 0.62367 0.68462 0.98615 0.0
H331 H 0.60934 0.56157 0.9242 0.0
H332 H 0.63126 0.52737 0.87962 0.0
H333 H 0.75514 0.57658 0.92805 0.0
H334 H 0.73419 0.61148 0.97269 0.0
H335 H 0.64979 0.63172 0.15822 0.0
H336 H 0.6176 0.62252 0.10117 0.0
H337 H 0.73481 0.63799 0.05565 0.0
H338 H 0.76473 0.64231 0.11216 0.0
H339 H 0.67547 0.58448 0.01998 0.0
H340 H 0.70326 0.72354 0.06743 0.0
H341 H 0.69223 0.76852 0.10981 0.0
H342 H 0.55621 0.7012 0.08737 0.0
H343 H 0.56643 0.6555 0.04518 0.0
C344 C 0.69859 0.69651 0.88593 0.0
C345 C 0.66433 0.69364 0.86623 0.0
C346 C 0.69128 0.67837 0.9185 0.0
C347 C 0.64946 0.65671 0.93233 0.0
C348 C 0.6147 0.65289 0.91261 0.0
C349 C 0.62208 0.67101 0.87948 0.0
C350 C 0.64396 0.64062 0.96816 0.0
C351 C 0.63373 0.66174 0.99368 0.0
C352 C 0.65809 0.61158 0.97789 0.0
C353 C 0.67008 0.58903 0.95187 0.0
C354 C 0.64124 0.56507 0.92536 0.0
C355 C 0.65353 0.54561 0.90004 0.0
C356 C 0.69456 0.54979 0.90101 0.0
C357 C 0.72333 0.57327 0.92738 0.0
C358 C 0.7112 0.59277 0.95276 0.0
C359 C 0.66801 0.63168 0.13606 0.0
C360 C 0.70959 0.63709 0.13991 0.0
C361 C 0.6499 0.62725 0.10331 0.0
C362 C 0.67391 0.63033 0.07371 0.0
C363 C 0.71519 0.63514 0.07779 0.0
C364 C 0.73253 0.63795 0.11034 0.0
C365 C 0.65797 0.63065 0.0383 0.0
C366 C 0.664 0.60633 0.01277 0.0
C367 C 0.64143 0.65791 0.02857 0.0
C368 C 0.63551 0.6858 0.05352 0.0
C369 C 0.671 0.71826 0.07167 0.0
C370 C 0.66489 0.74386 0.09564 0.0
C371 C 0.62353 0.73763 0.10135 0.0
C372 C 0.58821 0.70591 0.08299 0.0
C373 C 0.59413 0.68016 0.05906 0.0
H374 H 0.61886 0.75744 0.11994 0.0
H375 H 0.70407 0.53483 0.88131 0.0
H376 H 0.96746 0.32639 0.39256 0.0
H377 H 0.99052 0.32358 0.45079 0.0
H378 H 0.97182 0.19637 0.43167 0.0
H379 H 0.94904 0.19927 0.37234 0.0
H380 H 0.93162 0.20953 0.49626 0.0
H381 H 0.06686 0.26348 0.43915 0.0
H382 H 0.12404 0.30912 0.39785 0.0
H383 H 0.14473 0.4234 0.45079 0.0
H384 H 0.08711 0.37851 0.49206 0.0
H385 H 0.02465 0.25028 0.66883 0.0
H386 H 0.00421 0.22427 0.60959 0.0
H387 H 0.03979 0.35362 0.57734 0.0
H388 H 0.0605 0.37945 0.63597 0.0
H389 H 0.07653 0.32157 0.53735 0.0
H390 H 0.93291 0.26964 0.5858 0.0
H391 H 0.87296 0.22612 0.62577 0.0
H392 H 0.86683 0.10986 0.58897 0.0
H393 H 0.92722 0.15279 0.54909 0.0
C394 C 0.96855 0.29789 0.40055 0.0
C395 C 0.95643 0.263 0.37797 0.0
C396 C 0.98173 0.29636 0.43383 0.0
C397 C 0.98275 0.25977 0.44547 0.0
C398 C 0.97112 0.22484 0.42304 0.0
C399 C 0.95851 0.22667 0.38922 0.0
C400 C 0.99565 0.25909 0.48144 0.0
C401 C 0.96366 0.23308 0.50533 0.0
C402 C 0.03723 0.2903 0.49308 0.0
C403 C 0.0725 0.31755 0.46867 0.0
C404 C 0.08341 0.29835 0.44188 0.0
C405 C 0.11592 0.3241 0.41847 0.0
C406 C 0.13799 0.36913 0.42169 0.0
C407 C 0.12763 0.38851 0.44836 0.0
C408 C 0.09508 0.36291 0.4718 0.0
C409 C 0.02675 0.2727 0.6492 0.0
C410 C 0.04356 0.31672 0.65696 0.0
C411 C 0.01551 0.25795 0.61534 0.0
C412 C 0.02064 0.28706 0.58896 0.0
C413 C 0.03594 0.33064 0.59714 0.0
C414 C 0.04747 0.34533 0.63069 0.0
C415 C 0.01191 0.27347 0.55245 0.0
C416 C 0.04485 0.29695 0.52842 0.0
C417 C 0.97114 0.24014 0.54082 0.0
C418 C 0.93488 0.21444 0.56476 0.0
C419 C 0.91902 0.23483 0.58643 0.0
C420 C 0.88491 0.21027 0.60901 0.0
C421 C 0.8661 0.16526 0.60988 0.0
C422 C 0.88144 0.14472 0.58824 0.0
C423 C 0.91559 0.16914 0.56566 0.0
H424 H 0.83957 0.14629 0.62725 0.0
H425 H 0.16313 0.38901 0.40352 0.0
H426 H 0.44589 0.04056 0.28192 0.0
H427 H 0.51091 0.0399 0.2654 0.0
H428 H 0.49686 0.07302 0.16147 0.0
H429 H 0.4325 0.07619 0.17873 0.0
H430 H 0.55104 0.01393 0.22609 0.0
H431 H 0.59118 0.1532 0.13559 0.0
H432 H 0.56497 0.20312 0.11979 0.0
H433 H 0.52071 0.19859 0.22299 0.0
H434 H 0.54731 0.14927 0.23946 0.0
H435 H 0.79026 0.14076 0.22027 0.0
H436 H 0.715 0.09718 0.20049 0.0
H437 H 0.67946 0.17449 0.26248 0.0
H438 H 0.75342 0.21752 0.28236 0.0
H439 H 0.652 0.16751 0.19653 0.0
H440 H 0.66211 0.07903 0.28558 0.0
H441 H 0.68393 0.03123 0.31362 0.0
H442 H 0.62381 0.9377 0.23312 0.0
H443 H 0.60365 0.98605 0.20348 0.0
C444 C 0.45583 0.04638 0.25526 0.0
C445 C 0.43486 0.05957 0.23181 0.0
C446 C 0.49292 0.04555 0.24569 0.0
C447 C 0.50974 0.05781 0.21243 0.0
C448 C 0.48503 0.06442 0.18753 0.0
C449 C 0.44797 0.06586 0.1973 0.0
C450 C 0.55652 0.07315 0.20722 0.0
C451 C 0.57332 0.04717 0.21872 0.0
C452 C 0.58563 0.11671 0.19803 0.0
C453 C 0.57071 0.14725 0.18857 0.0
C454 C 0.57599 0.16303 0.15487 0.0
C455 C 0.56105 0.19116 0.14581 0.0
C456 C 0.54097 0.20381 0.1703 0.0
C457 C 0.53616 0.18869 0.20401 0.0
C458 C 0.55124 0.16076 0.21324 0.0
C459 C 0.76627 0.14819 0.22983 0.0
C460 C 0.77795 0.18278 0.25283 0.0
C461 C 0.72336 0.12329 0.21844 0.0
C462 C 0.69179 0.1329 0.22972 0.0
C463 C 0.7034 0.16681 0.25312 0.0
C464 C 0.74581 0.19133 0.26459 0.0
C465 C 0.64647 0.10904 0.21733 0.0
C466 C 0.63011 0.13356 0.20219 0.0
C467 C 0.61789 0.06474 0.22475 0.0
C468 C 0.63235 0.03685 0.24173 0.0
C469 C 0.65458 0.0489 0.27325 0.0
C470 C 0.66649 0.02156 0.28956 0.0
C471 C 0.65543 0.98152 0.27509 0.0
C472 C 0.6324 0.96875 0.24429 0.0
C473 C 0.62115 0.99634 0.22752 0.0
H474 H 0.66458 0.96035 0.2878 0.0
H475 H 0.52927 0.22543 0.16318 0.0
H476 H 0.57221 0.59396 0.26618 0.0
H477 H 0.50194 0.52927 0.2562 0.0
H478 H 0.55647 0.49327 0.17255 0.0
H479 H 0.62611 0.55798 0.18217 0.0
H480 H 0.46626 0.45182 0.16755 0.0
H481 H 0.57586 0.46616 0.25185 0.0
H482 H 0.62549 0.50015 0.30083 0.0
H483 H 0.5212 0.4927 0.36095 0.0
H484 H 0.47082 0.45775 0.3125 0.0
H485 H 0.42775 0.23865 0.19375 0.0
H486 H 0.45009 0.31468 0.18277 0.0
H487 H 0.3821 0.31628 0.27389 0.0
H488 H 0.36186 0.24108 0.28564 0.0
H489 H 0.46305 0.377 0.2758 0.0
H490 H 0.35111 0.33197 0.19287 0.0
H491 H 0.30715 0.28972 0.14349 0.0
H492 H 0.41912 0.35078 0.07832 0.0
H493 H 0.46395 0.39299 0.12743 0.0
C494 C 0.56824 0.57403 0.24397 0.0
C495 C 0.60442 0.58116 0.22471 0.0
C496 C 0.52818 0.53671 0.23852 0.0
C497 C 0.52437 0.50582 0.2143 0.0
C498 C 0.5586 0.51656 0.19141 0.0
C499 C 0.59847 0.55406 0.19664 0.0
C500 C 0.4913 0.45951 0.21893 0.0
C501 C 0.46501 0.43536 0.19129 0.0
C502 C 0.48967 0.43795 0.24987 0.0
C503 C 0.51988 0.46 0.27859 0.0
C504 C 0.56367 0.47201 0.27551 0.0
C505 C 0.59183 0.49121 0.30318 0.0
C506 C 0.57659 0.49892 0.33388 0.0
C507 C 0.53301 0.48692 0.3371 0.0
C508 C 0.50459 0.46721 0.30964 0.0
C509 C 0.41685 0.25517 0.21085 0.0
C510 C 0.39246 0.23421 0.24009 0.0
C511 C 0.42917 0.29836 0.20444 0.0
C512 C 0.41713 0.32105 0.2272 0.0
C513 C 0.39128 0.29931 0.25576 0.0
C514 C 0.37947 0.25635 0.26234 0.0
C515 C 0.43758 0.36879 0.22451 0.0
C516 C 0.46233 0.39329 0.25248 0.0
C517 C 0.43797 0.39009 0.19373 0.0
C518 C 0.41095 0.36562 0.16389 0.0
C519 C 0.36643 0.33631 0.16804 0.0
C520 C 0.34134 0.31235 0.14009 0.0
C521 C 0.36034 0.31755 0.10778 0.0
C522 C 0.40444 0.34683 0.10335 0.0
C523 C 0.42969 0.37087 0.13123 0.0
H524 H 0.34089 0.29892 0.08618 0.0
H525 H 0.5985 0.51399 0.35521 0.0
H526 H 0.01176 0.41894 0.23047 0.0
H527 H 0.00145 0.47719 0.20777 0.0
H528 H 0.87456 0.38168 0.1716 0.0
H529 H 0.88711 0.32452 0.19066 0.0
H530 H 0.88908 0.4468 0.14184 0.0
H531 H 0.90263 0.42133 0.26256 0.0
H532 H 0.94119 0.41761 0.31384 0.0
H533 H 0.03724 0.55168 0.30137 0.0
H534 H -0.00059 0.55595 0.24975 0.0
H535 H 0.7482 0.49336 0.24407 0.0
H536 H 0.79536 0.46629 0.22447 0.0
H537 H 0.89066 0.59472 0.1919 0.0
H538 H 0.8432 0.62209 0.21063 0.0
H539 H 0.90776 0.5328 0.24698 0.0
H540 H 0.86444 0.54933 0.13096 0.0
H541 H 0.80702 0.5378 0.08993 0.0
H542 H 0.7452 0.40051 0.10598 0.0
H543 H 0.80193 0.41131 0.14746 0.0
C544 C 0.98321 0.41068 0.21534 0.0
C545 C 0.9501 0.36743 0.21237 0.0
C546 C 0.97677 0.44393 0.20301 0.0
C547 C 0.93604 0.43407 0.18991 0.0
C548 C 0.90602 0.3907 0.18214 0.0
C549 C 0.91331 0.35771 0.19293 0.0
C550 C 0.92067 0.46605 0.19118 0.0
C551 C 0.89382 0.46601 0.16469 0.0
C552 C 0.92604 0.49113 0.22108 0.0
C553 C 0.94863 0.4888 0.25214 0.0
C554 C 0.93205 0.44994 0.27075 0.0
C555 C 0.95377 0.44773 0.29982 0.0
C556 C 0.99172 0.48435 0.31078 0.0
C557 C 0.00793 0.5233 0.29277 0.0
C558 C 0.98641 0.52564 0.2636 0.0
C559 C 0.77892 0.51578 0.23233 0.0
C560 C 0.79202 0.55987 0.22895 0.0
C561 C 0.80573 0.50025 0.22109 0.0
C562 C 0.84625 0.52856 0.20668 0.0
C563 C 0.85931 0.57245 0.20278 0.0
C564 C 0.83215 0.58793 0.21346 0.0
C565 C 0.87583 0.51225 0.19823 0.0
C566 C 0.90485 0.51508 0.22355 0.0
C567 C 0.87036 0.48772 0.16835 0.0
C568 C 0.83739 0.48116 0.14231 0.0
C569 C 0.83853 0.51671 0.12579 0.0
C570 C 0.80611 0.5103 0.10247 0.0
C571 C 0.77248 0.46845 0.09536 0.0
C572 C 0.77131 0.4329 0.11146 0.0
C573 C 0.80364 0.43915 0.13481 0.0
H574 H 0.74735 0.46355 0.07737 0.0
H575 H 0.00851 0.48259 0.33329 0.0
H576 H 0.01439 0.42628 0.77039 0.0
H577 H 0.0151 0.49512 0.77275 0.0
H578 H 0.12946 0.54883 0.83596 0.0
H579 H 0.12946 0.48049 0.83275 0.0
H580 H 0.03678 0.57563 0.82125 0.0
H581 H 0.20045 0.60738 0.78331 0.0
H582 H 0.23721 0.57002 0.76007 0.0
H583 H 0.1258 0.48901 0.69834 0.0
H584 H 0.08854 0.5262 0.72124 0.0
H585 H 0.1806 0.80125 0.79827 0.0
H586 H 0.1349 0.72485 0.81243 0.0
H587 H 0.13744 0.69138 0.70618 0.0
H588 H 0.18626 0.7678 0.69278 0.0
H589 H 0.1608 0.6495 0.74093 0.0
H590 H 0.03602 0.66725 0.75419 0.0
H591 H 0.99403 0.70018 0.77549 0.0
H592 H 0.02114 0.68205 0.8794 0.0
H593 H 0.06237 0.64796 0.8589 0.0
C594 C 0.03792 0.45195 0.78662 0.0
C595 C 0.07194 0.44863 0.80137 0.0
C596 C 0.03824 0.49118 0.78803 0.0
C597 C 0.07255 0.52695 0.80426 0.0
C598 C 0.10262 0.52138 0.82349 0.0
C599 C 0.10268 0.48244 0.82163 0.0
C600 C 0.08517 0.57072 0.79199 0.0
C601 C 0.06374 0.59207 0.80363 0.0
C602 C 0.11945 0.5913 0.76828 0.0
C603 C 0.14181 0.56935 0.75402 0.0
C604 C 0.18396 0.58169 0.76468 0.0
C605 C 0.20478 0.56044 0.75167 0.0
C606 C 0.18379 0.52698 0.72783 0.0
C607 C 0.14199 0.51487 0.71684 0.0
C608 C 0.12097 0.53593 0.72989 0.0
C609 C 0.17069 0.77746 0.77793 0.0
C610 C 0.18728 0.78987 0.74462 0.0
C611 C 0.14401 0.7338 0.78591 0.0
C612 C 0.13233 0.70208 0.76038 0.0
C613 C 0.14625 0.71514 0.72642 0.0
C614 C 0.17418 0.75865 0.71873 0.0
C615 C 0.11256 0.65575 0.76992 0.0
C616 C 0.13312 0.63354 0.75797 0.0
C617 C 0.07688 0.63448 0.79266 0.0
C618 C 0.05247 0.6553 0.805 0.0
C619 C 0.03319 0.67046 0.78158 0.0
C620 C 0.00947 0.68925 0.79349 0.0
C621 C 0.00531 0.69364 0.82868 0.0
C622 C 0.02445 0.67873 0.85212 0.0
C623 C 0.04772 0.65937 0.8404 0.0
H624 H 0.98708 0.7084 0.83776 0.0
H625 H 0.19985 0.51043 0.71787 0.0
H626 H 0.43077 0.0129 0.78258 0.0
H627 H 0.49154 0.00256 0.79804 0.0
H628 H 0.40152 0.86706 0.81687 0.0
H629 H 0.34157 0.87887 0.80549 0.0
H630 H 0.46692 0.88014 0.8453 0.0
H631 H 0.44283 0.917 0.73039 0.0
H632 H 0.43721 0.96446 0.68713 0.0
H633 H 0.56813 0.06335 0.7081 0.0
H634 H 0.57427 0.01653 0.75176 0.0
H635 H 0.53148 0.77622 0.71709 0.0
H636 H 0.50435 0.82353 0.73578 0.0
H637 H 0.61424 0.89151 0.80277 0.0
H638 H 0.64106 0.84344 0.78516 0.0
H639 H 0.55746 0.92732 0.74008 0.0
H640 H 0.56854 0.86565 0.85725 0.0
H641 H 0.55771 0.79996 0.88724 0.0
H642 H 0.42993 0.72721 0.84469 0.0
H643 H 0.44032 0.79241 0.81423 0.0
C644 C 0.42422 0.98177 0.7923 0.0
C645 C 0.38189 0.94652 0.7927 0.0
C646 C 0.45888 0.97555 0.80052 0.0
C647 C 0.45143 0.93347 0.80666 0.0
C648 C 0.40864 0.8998 0.81172 0.0
C649 C 0.37413 0.9065 0.80522 0.0
C650 C 0.48592 0.9222 0.80103 0.0
C651 C 0.48739 0.89144 0.82269 0.0
C652 C 0.51219 0.93569 0.77102 0.0
C653 C 0.50883 0.96358 0.74453 0.0
C654 C 0.47035 0.94891 0.72576 0.0
C655 C 0.46706 0.97569 0.70123 0.0
C656 C 0.50225 0.01694 0.69494 0.0
C657 C 0.54086 0.03143 0.71307 0.0
C658 C 0.54427 0.00482 0.73771 0.0
C659 C 0.55022 0.80151 0.73551 0.0
C660 C 0.58858 0.8061 0.74951 0.0
C661 C 0.53471 0.82855 0.74607 0.0
C662 C 0.55725 0.86068 0.77072 0.0
C663 C 0.59643 0.86671 0.78376 0.0
C664 C 0.61188 0.83945 0.77338 0.0
C665 C 0.53774 0.88561 0.78417 0.0
C666 C 0.53873 0.91822 0.76366 0.0
C667 C 0.5119 0.8721 0.81401 0.0
C668 C 0.50523 0.83373 0.83355 0.0
C669 C 0.5382 0.83561 0.85435 0.0
C670 C 0.53215 0.79848 0.87137 0.0
C671 C 0.49317 0.75943 0.86787 0.0
C672 C 0.46009 0.75746 0.84743 0.0
C673 C 0.46602 0.79447 0.83033 0.0
H674 H 0.48859 0.73071 0.88099 0.0
H675 H 0.49965 0.03765 0.67596 0.0
H676 H 0.20214 0.38159 0.83572 0.0
H677 H 0.27876 0.4151 0.85147 0.0
H678 H 0.30641 0.37801 0.75369 0.0
H679 H 0.23018 0.346 0.73742 0.0
H680 H 0.35997 0.39661 0.84344 0.0
H681 H 0.34898 0.45417 0.72164 0.0
H682 H 0.30374 0.46856 0.68192 0.0
H683 H 0.26843 0.52443 0.76448 0.0
H684 H 0.3132 0.51001 0.80458 0.0
H685 H 0.56908 0.56197 0.77087 0.0
H686 H 0.50148 0.49812 0.78904 0.0
H687 H 0.46455 0.58073 0.84177 0.0
H688 H 0.53235 0.64443 0.82404 0.0
H689 H 0.41615 0.5353 0.7802 0.0
H690 H 0.46542 0.51016 0.88724 0.0
H691 H 0.51419 0.49803 0.92432 0.0
H692 H 0.47917 0.3798 0.87087 0.0
H693 H 0.43083 0.39167 0.83292 0.0
C694 C 0.22415 0.37848 0.81839 0.0
C695 C 0.21032 0.36119 0.7854 0.0
C696 C 0.26801 0.39774 0.82739 0.0
C697 C 0.29841 0.39935 0.80368 0.0
C698 C 0.28355 0.37711 0.77241 0.0
C699 C 0.23994 0.35868 0.76316 0.0
C700 C 0.34482 0.43295 0.80749 0.0
C701 C 0.37252 0.42685 0.82952 0.0
C702 C 0.36117 0.47256 0.7897 0.0
C703 C 0.334 0.48083 0.76595 0.0
C704 C 0.33141 0.46945 0.7312 0.0
C705 C 0.30588 0.47757 0.70867 0.0
C706 C 0.28323 0.49746 0.72064 0.0
C707 C 0.28594 0.50907 0.7552 0.0
C708 C 0.31127 0.50082 0.77786 0.0
C709 C 0.54775 0.56619 0.7882 0.0
C710 C 0.55614 0.60799 0.79655 0.0
C711 C 0.50902 0.52971 0.79843 0.0
C712 C 0.4779 0.53467 0.81665 0.0
C713 C 0.4883 0.57615 0.828 0.0
C714 C 0.52726 0.61255 0.81815 0.0
C715 C 0.43195 0.49942 0.8161 0.0
C716 C 0.40405 0.50522 0.79436 0.0
C717 C 0.41625 0.45967 0.83383 0.0
C718 C 0.44474 0.45204 0.85698 0.0
C719 C 0.46839 0.48177 0.88314 0.0
C720 C 0.49593 0.47491 0.90437 0.0
C721 C 0.49985 0.43821 0.89991 0.0
C722 C 0.47613 0.40823 0.87427 0.0
C723 C 0.44862 0.415 0.8529 0.0
H724 H 0.5212 0.43297 0.91636 0.0
H725 H 0.26371 0.50395 0.7031 0.0
H726 H 0.28998 0.18814 0.27218 0.0
H727 H 0.27083 0.24466 0.27861 0.0
H728 H 0.21286 0.21451 0.17792 0.0
H729 H 0.23381 0.15919 0.17093 0.0
H730 H 0.25157 0.30301 0.19296 0.0
H731 H 0.15262 0.16479 0.24601 0.0
H732 H 0.13303 0.10336 0.28514 0.0
H733 H 0.17913 0.19022 0.37113 0.0
H734 H 0.19959 0.25226 0.33239 0.0
H735 H 0.05567 0.30537 0.20121 0.0
H736 H 0.12544 0.31027 0.19268 0.0
H737 H 0.15429 0.33867 0.30029 0.0
H738 H 0.08328 0.33125 0.30902 0.0
H739 H 0.14526 0.26477 0.28724 0.0
H740 H 0.22675 0.40122 0.2339 0.0
H741 H 0.24486 0.46162 0.19412 0.0
H742 H 0.23045 0.38 0.10835 0.0
H743 H 0.21136 0.31881 0.14748 0.0
C744 C 0.27489 0.19496 0.25087 0.0
C745 C 0.26406 0.16992 0.22088 0.0
C746 C 0.26352 0.22689 0.25469 0.0
C747 C 0.24015 0.23364 0.22883 0.0
C748 C 0.23109 0.21004 0.19812 0.0
C749 C 0.24268 0.17821 0.19427 0.0
C750 C 0.21984 0.26042 0.23558 0.0
C751 C 0.22821 0.29486 0.21349 0.0
C752 C 0.19039 0.25047 0.26301 0.0
C753 C 0.17819 0.21319 0.28627 0.0
C754 C 0.15894 0.17081 0.27323 0.0
C755 C 0.14762 0.13589 0.29533 0.0
C756 C 0.15498 0.1429 0.33058 0.0
C757 C 0.17358 0.18485 0.34381 0.0
C758 C 0.18505 0.2199 0.32179 0.0
C759 C 0.07801 0.31544 0.22259 0.0
C760 C 0.06392 0.31726 0.25587 0.0
C761 C 0.11812 0.31811 0.21773 0.0
C762 C 0.14491 0.32374 0.24603 0.0
C763 C 0.13397 0.3336 0.27813 0.0
C764 C 0.09352 0.3299 0.28309 0.0
C765 C 0.17611 0.30758 0.24425 0.0
C766 C 0.16949 0.27441 0.2672 0.0
C767 C 0.20681 0.31875 0.2175 0.0
C768 C 0.21737 0.35526 0.19372 0.0
C769 C 0.22696 0.39595 0.20654 0.0
C770 C 0.23751 0.4304 0.18409 0.0
C771 C 0.23885 0.42466 0.14875 0.0
C772 C 0.22947 0.38442 0.13575 0.0
C773 C 0.2188 0.34984 0.15807 0.0
H774 H 0.24709 0.45139 0.13141 0.0
H775 H 0.14616 0.11581 0.34766 0.0
H776 H 0.88665 0.68345 0.30593 0.0
H777 H 0.95782 0.73371 0.32983 0.0
H778 H 0.92593 0.83521 0.32934 0.0
H779 H 0.85375 0.78429 0.30704 0.0
H780 H 0.99094 0.8205 0.27514 0.0
H781 H 0.95866 0.84918 0.38886 0.0
H782 H 0.92982 0.83059 0.44771 0.0
H783 H 0.0144 0.78049 0.46889 0.0
H784 H 0.04311 0.798 0.40986 0.0
H785 H 0.19978 0.01355 0.32204 0.0
H786 H 0.13097 0.95748 0.34632 0.0
H787 H 0.14112 0.86028 0.28797 0.0
H788 H 0.20863 0.91653 0.26244 0.0
H789 H 0.08618 0.87479 0.37742 0.0
H790 H 0.05078 0.80635 0.24149 0.0
H791 H 0.07956 0.82667 0.18265 0.0
H792 H 0.1275 0.96068 0.20605 0.0
H793 H 0.09833 0.94103 0.26483 0.0
C794 C 0.89401 0.71584 0.31285 0.0
C795 C 0.86519 0.73035 0.30454 0.0
C796 C 0.9345 0.74442 0.3267 0.0
C797 C 0.94696 0.78802 0.33162 0.0
C798 C 0.91651 0.80142 0.32655 0.0
C799 C 0.87542 0.77243 0.31361 0.0
C800 C 0.99351 0.82028 0.33031 0.0
C801 C 0.01171 0.8326 0.29757 0.0
C802 C 0.02032 0.83571 0.35958 0.0
C803 C 0.00242 0.82415 0.39474 0.0
C804 C 0.97053 0.83346 0.40584 0.0
C805 C 0.95437 0.82333 0.4393 0.0
C806 C 0.97011 0.80417 0.46199 0.0
C807 C 0.00211 0.79517 0.45126 0.0
C808 C 0.01831 0.80517 0.41779 0.0
C809 C 0.18817 0.97995 0.31567 0.0
C810 C 0.20883 0.96908 0.2902 0.0
C811 C 0.14895 0.94794 0.32959 0.0
C812 C 0.1305 0.90496 0.31822 0.0
C813 C 0.15455 0.89341 0.29662 0.0
C814 C 0.19309 0.92545 0.28211 0.0
C815 C 0.08341 0.87515 0.32227 0.0
C816 C 0.06523 0.86297 0.35518 0.0
C817 C 0.0561 0.86001 0.29312 0.0
C818 C 0.07277 0.87225 0.25759 0.0
C819 C 0.06726 0.84012 0.23398 0.0
C820 C 0.08365 0.85152 0.20067 0.0
C821 C 0.10545 0.89495 0.19065 0.0
C822 C 0.11068 0.92706 0.21386 0.0
C823 C 0.09421 0.91581 0.24717 0.0
H824 H 0.11823 0.90372 0.16487 0.0
H825 H 0.95763 0.79645 0.48791 0.0
H826 H 0.86998 0.09668 0.20527 0.0
H827 H 0.81823 0.02003 0.19612 0.0
H828 H 0.75127 0.01758 0.28911 0.0
H829 H 0.8036 0.09488 0.29818 0.0
H830 H 0.77274 0.9569 0.28975 0.0
H831 H 0.7075 0.00414 0.20867 0.0
H832 H 0.69724 0.04098 0.15933 0.0
H833 H 0.74096 0.97662 0.09108 0.0
H834 H 0.75086 0.93874 0.13985 0.0
H835 H 0.68196 0.73366 0.25901 0.0
H836 H 0.67442 0.79834 0.26315 0.0
H837 H 0.76614 0.85764 0.18052 0.0
H838 H 0.77399 0.79378 0.17672 0.0
H839 H 0.70503 0.88323 0.18029 0.0
H840 H 0.80371 0.87102 0.25979 0.0
H841 H 0.8217 0.83522 0.30578 0.0
H842 H 0.72811 0.84003 0.372 0.0
H843 H 0.70932 0.87564 0.32616 0.0
C844 C 0.84342 0.07992 0.22316 0.0
C845 C 0.84036 0.10117 0.2523 0.0
C846 C 0.81369 0.03624 0.21786 0.0
C847 C 0.78034 0.01303 0.24164 0.0
C848 C 0.77633 0.03492 0.27019 0.0
C849 C 0.80611 0.07888 0.2754 0.0
C850 C 0.75416 0.96513 0.2389 0.0
C851 C 0.75659 0.94071 0.26616 0.0
C852 C 0.73403 0.94403 0.20777 0.0
C853 C 0.72917 0.9678 0.17821 0.0
C854 C 0.7146 0.99744 0.18322 0.0
C855 C 0.70901 0.01872 0.15529 0.0
C856 C 0.71842 0.01116 0.12211 0.0
C857 C 0.73346 0.9823 0.11679 0.0
C858 C 0.73879 0.96068 0.14461 0.0
C859 C 0.69907 0.75988 0.2409 0.0
C860 C 0.72882 0.75915 0.21776 0.0
C861 C 0.69492 0.79682 0.24336 0.0
C862 C 0.72015 0.83303 0.22241 0.0
C863 C 0.74632 0.83017 0.19691 0.0
C864 C 0.75095 0.79374 0.19483 0.0
C865 C 0.72579 0.87622 0.23038 0.0
C866 C 0.71958 0.89957 0.20422 0.0
C867 C 0.74378 0.89693 0.26198 0.0
C868 C 0.75474 0.87542 0.2895 0.0
C869 C 0.78675 0.86413 0.28408 0.0
C870 C 0.79713 0.84396 0.3101 0.0
C871 C 0.77601 0.8353 0.34175 0.0
C872 C 0.7444 0.84674 0.34744 0.0
C873 C 0.73387 0.86692 0.32146 0.0
H874 H 0.78434 0.81997 0.36191 0.0
H875 H 0.71413 0.02772 0.10053 0.0
H876 H 0.1069 0.26546 0.73491 0.0
H877 H 0.15249 0.2481 0.69964 0.0
H878 H 0.18899 0.20374 0.78981 0.0
H879 H 0.14311 0.2211 0.82556 0.0
H880 H 0.2591 0.25954 0.73854 0.0
H881 H 0.1079 0.12456 0.74799 0.0
H882 H 0.02983 0.09529 0.73766 0.0
H883 H 0.05686 0.14307 0.63419 0.0
H884 H 0.13507 0.17268 0.64406 0.0
H885 H 0.27061 0.08783 0.78417 0.0
H886 H 0.2675 0.15051 0.76571 0.0
H887 H 0.231 0.09665 0.66368 0.0
H888 H 0.23079 0.03117 0.68358 0.0
H889 H 0.17572 0.11479 0.68445 0.0
H890 H 0.32742 0.20577 0.6807 0.0
H891 H 0.40413 0.23736 0.69693 0.0
H892 H 0.37911 0.27884 0.79333 0.0
H893 H 0.30235 0.24692 0.77814 0.0
C894 C 0.12548 0.25292 0.74737 0.0
C895 C 0.12227 0.24502 0.78301 0.0
C896 C 0.15133 0.24309 0.72713 0.0
C897 C 0.17421 0.22533 0.74235 0.0
C898 C 0.1718 0.2182 0.77797 0.0
C899 C 0.14557 0.22769 0.79826 0.0
C900 C 0.19715 0.20942 0.72129 0.0
C901 C 0.24165 0.22824 0.72602 0.0
C902 C 0.17408 0.17026 0.70313 0.0
C903 C 0.12708 0.15051 0.69666 0.0
C904 C 0.09705 0.12848 0.72299 0.0
C905 C 0.05286 0.11199 0.71726 0.0
C906 C 0.03839 0.11727 0.68528 0.0
C907 C 0.06809 0.13892 0.65892 0.0
C908 C 0.11233 0.15548 0.66454 0.0
C909 C 0.26314 0.08985 0.7575 0.0
C910 C 0.25111 0.05494 0.73517 0.0
C911 C 0.26224 0.12631 0.74664 0.0
C912 C 0.25021 0.12926 0.71288 0.0
C913 C 0.24114 0.09552 0.68967 0.0
C914 C 0.24138 0.05834 0.70086 0.0
C915 C 0.23787 0.16234 0.70538 0.0
C916 C 0.19491 0.14718 0.69484 0.0
C917 C 0.26264 0.20507 0.71846 0.0
C918 C 0.309 0.22422 0.72797 0.0
C919 C 0.33822 0.2215 0.70539 0.0
C920 C 0.38176 0.23947 0.71446 0.0
C921 C 0.3965 0.26021 0.74608 0.0
C922 C 0.36773 0.26297 0.76877 0.0
C923 C 0.32421 0.24506 0.75987 0.0
H924 H 0.43022 0.27409 0.75303 0.0
H925 H 0.00419 0.10466 0.68093 0.0
H926 H 0.13623 0.82708 0.71652 0.0
H927 H 0.06496 0.77986 0.69161 0.0
H928 H 0.00484 0.78754 0.78517 0.0
H929 H 0.07585 0.83399 0.81064 0.0
H930 H 0.97135 0.69905 0.7175 0.0
H931 H 0.96684 0.84982 0.75637 0.0
H932 H 0.01823 0.92753 0.7658 0.0
H933 H 0.10111 0.92556 0.68685 0.0
H934 H 0.04987 0.84803 0.67666 0.0
H935 H 0.77399 0.67742 0.75972 0.0
H936 H 0.84042 0.67911 0.74383 0.0
H937 H 0.85937 0.76807 0.66157 0.0
H938 H 0.79371 0.76762 0.67883 0.0
H939 H 0.92137 0.8045 0.69934 0.0
H940 H 0.86358 0.66493 0.6499 0.0
H941 H 0.8136 0.58658 0.64313 0.0
H942 H 0.85479 0.56309 0.74027 0.0
H943 H 0.9043 0.64143 0.74785 0.0
C944 C 0.10797 0.81703 0.73247 0.0
C945 C 0.11164 0.83469 0.76548 0.0
C946 C 0.06724 0.78998 0.7181 0.0
C947 C 0.02991 0.7807 0.73649 0.0
C948 C 0.0335 0.79453 0.77065 0.0
C949 C 0.07407 0.82129 0.78507 0.0
C950 C 0.98851 0.76595 0.71854 0.0
C951 C 0.9601 0.72176 0.71314 0.0
C952 C 0.97499 0.79603 0.71127 0.0
C953 C 0.00463 0.8432 0.71584 0.0
C954 C 0.99581 0.86613 0.7408 0.0
C955 C 0.02496 0.91009 0.74634 0.0
C956 C 0.06294 0.93146 0.72696 0.0
C957 C 0.07172 0.90897 0.70186 0.0
C958 C 0.04264 0.86504 0.6962 0.0
C959 C 0.79112 0.69532 0.73699 0.0
C960 C 0.77848 0.72188 0.72011 0.0
C961 C 0.82916 0.69609 0.72764 0.0
C962 C 0.85521 0.72336 0.70108 0.0
C963 C 0.83975 0.74614 0.68175 0.0
C964 C 0.80176 0.74558 0.69132 0.0
C965 C 0.90191 0.7365 0.70002 0.0
C966 C 0.93199 0.78105 0.70218 0.0
C967 C 0.91671 0.70648 0.70389 0.0
C968 C 0.88733 0.65919 0.69948 0.0
C969 C 0.86155 0.64311 0.66994 0.0
C970 C 0.83341 0.59867 0.66594 0.0
C971 C 0.83093 0.56986 0.6913 0.0
C972 C 0.85672 0.58545 0.72065 0.0
C973 C 0.8849 0.62989 0.72475 0.0
H974 H 0.8091 0.53545 0.68819 0.0
H975 H 0.08555 0.96544 0.73139 0.0
H976 H 0.92076 0.24502 0.71906 0.0
H977 H 0.85524 0.18261 0.69588 0.0
H978 H 0.9205 0.10846 0.69548 0.0
H979 H 0.98554 0.17067 0.71762 0.0
H980 H 0.85501 0.07165 0.65308 0.0
H981 H 0.87827 0.12547 0.77264 0.0
H982 H 0.89116 0.18138 0.81574 0.0
H983 H 0.77715 0.18221 0.78192 0.0
H984 H 0.76394 0.12656 0.73839 0.0
H985 H 0.77108 0.91653 0.79515 0.0
H986 H 0.79618 0.98916 0.77344 0.0
H987 H 0.71095 0.9362 0.68626 0.0
H988 H 0.68544 0.86262 0.70819 0.0
H989 H 0.76198 0.03931 0.75606 0.0
H990 H 0.7664 0.99231 0.62036 0.0
H991 H 0.76513 0.93301 0.58667 0.0
H992 H 0.8386 0.91436 0.66518 0.0
H993 H 0.84016 0.97348 0.69923 0.0
C994 C 0.92164 0.21612 0.71204 0.0
C995 C 0.95753 0.212 0.72054 0.0
C996 C 0.88417 0.18038 0.69902 0.0
C997 C 0.88237 0.14028 0.69523 0.0
C998 C 0.92071 0.13872 0.69853 0.0
C999 C 0.95796 0.17429 0.71133 0.0
C1000 C 0.8406 0.09872 0.69715 0.0
C1001 C 0.83362 0.06486 0.67486 0.0
C1002 C 0.81288 0.08937 0.72589 0.0
C1003 C 0.82037 0.12232 0.75217 0.0
C1004 C 0.85603 0.13768 0.77443 0.0
C1005 C 0.86343 0.16932 0.79887 0.0
C1006 C 0.83504 0.1854 0.80152 0.0
C1007 C 0.79916 0.16979 0.77978 0.0
C1008 C 0.79171 0.13824 0.75521 0.0
C1009 C 0.75689 0.92029 0.77177 0.0
C1010 C 0.72659 0.88396 0.75323 0.0
C1011 C 0.77111 0.96188 0.75943 0.0
C1012 C 0.75571 0.96817 0.72809 0.0
C1013 C 0.72339 0.93205 0.71044 0.0
C1014 C 0.70871 0.89012 0.72306 0.0
C1015 C 0.77785 0.01227 0.71293 0.0
C1016 C 0.78115 0.04649 0.73282 0.0
C1017 C 0.80325 0.0217 0.68287 0.0
C1018 C 0.80321 0.98698 0.66224 0.0
C1019 C 0.78236 0.97558 0.63028 0.0
C1020 C 0.78152 0.94199 0.6112 0.0
C1021 C 0.80172 0.91989 0.6238 0.0
C1022 C 0.8229 0.93143 0.65547 0.0
C1023 C 0.82374 0.96491 0.67467 0.0
H1024 H 0.80098 0.89387 0.60902 0.0
H1025 H 0.84079 0.20988 0.82047 0.0
loop_
_geom_bond_atom_site_label_1
_geom_bond_atom_site_label_2
_geom_bond_distance
_geom_bond_site_symmetry_2
_ccdc_geom_bond_type
Zn0 O6 1.920 . S
Zn0 O12 1.898 . S
Zn0 O15 1.905 1_545 S
Zn1 O9 1.905 . S
Zn1 O10 1.898 . S
Zn1 O18 1.920 . S
Zn2 O5 2.080 . S
Zn2 O8 2.114 . S
Zn2 O11 2.120 . S
Zn2 O13 2.120 . S
Zn2 O14 2.114 . S
Zn2 O17 2.080 . S
C3 O8 1.166 . S
C3 O9 1.182 . S
C4 O10 1.167 . S
C4 O11 1.299 . S
O5 Zn2 2.080 . S
O5 C19 1.305 . S
O6 Zn0 1.920 . S
O6 C19 1.234 . S
C7 O12 1.167 . S
C7 O13 1.299 . S
O8 Zn2 2.114 . S
O8 C3 1.166 . S
O9 Zn1 1.905 . S
O9 C3 1.182 . S
O10 Zn1 1.898 . S
O10 C4 1.167 . S
O11 Zn2 2.120 . S
O11 C4 1.299 . S
O12 Zn0 1.898 . S
O12 C7 1.167 . S
O13 Zn2 2.120 . S
O13 C7 1.299 . S
O14 Zn2 2.114 . S
O14 C16 1.166 1_545 S
O15 Zn0 1.905 1_565 S
O15 C16 1.180 . S
C16 O14 1.166 1_565 S
C16 O15 1.180 . S
O17 Zn2 2.080 . S
O17 C20 1.305 . S
O18 Zn1 1.920 . S
O18 C20 1.234 . S
C19 O5 1.305 . S
C19 O6 1.234 . S
C20 O17 1.305 . S
C20 O18 1.234 . S
Zn21 O27 1.920 . S
Zn21 O33 1.898 . S
Zn21 O36 1.905 . S
Zn22 O30 1.905 . S
Zn22 O31 1.898 . S
Zn22 O39 1.920 . S
Zn23 O26 2.080 . S
Zn23 O29 2.114 . S
Zn23 O32 2.120 . S
Zn23 O34 2.120 . S
Zn23 O35 2.114 . S
Zn23 O38 2.080 . S
C24 O29 1.166 . S
C24 O30 1.182 . S
C25 O31 1.167 . S
C25 O32 1.299 . S
O26 Zn23 2.080 . S
O26 C40 1.305 . S
O27 Zn21 1.920 . S
O27 C40 1.234 . S
C28 O33 1.167 . S
C28 O34 1.299 . S
O29 Zn23 2.114 . S
O29 C24 1.166 . S
O30 Zn22 1.905 . S
O30 C24 1.182 . S
O31 Zn22 1.898 . S
O31 C25 1.167 . S
O32 Zn23 2.120 . S
O32 C25 1.299 . S
O33 Zn21 1.898 . S
O33 C28 1.167 . S
O34 Zn23 2.120 . S
O34 C28 1.299 . S
O35 Zn23 2.114 . S
O35 C37 1.166 . S
O36 Zn21 1.905 . S
O36 C37 1.182 . S
C37 O35 1.166 . S
C37 O36 1.182 . S
O38 Zn23 2.080 . S
O38 C41 1.305 . S
O39 Zn22 1.920 . S
O39 C41 1.234 . S
C40 O26 1.305 . S
C40 O27 1.234 . S
C41 O38 1.305 . S
C41 O39 1.234 . S
Zn42 O48 1.920 . S
Zn42 O54 1.898 . S
Zn42 O57 1.905 1_655 S
Zn43 O51 1.905 . S
Zn43 O52 1.898 . S
Zn43 O60 1.920 . S
Zn44 O47 2.080 . S
Zn44 O50 2.114 . S
Zn44 O53 2.120 . S
Zn44 O55 2.120 . S
Zn44 O56 2.114 . S
Zn44 O59 2.080 . S
C45 O50 1.166 . S
C45 O51 1.182 . S
C46 O52 1.167 . S
C46 O53 1.299 . S
O47 Zn44 2.080 . S
O47 C61 1.305 . S
O48 Zn42 1.920 . S
O48 C61 1.234 . S
C49 O54 1.167 . S
C49 O55 1.299 . S
O50 Zn44 2.114 . S
O50 C45 1.166 . S
O51 Zn43 1.905 . S
O51 C45 1.182 . S
O52 Zn43 1.898 . S
O52 C46 1.167 . S
O53 Zn44 2.120 . S
O53 C46 1.299 . S
O54 Zn42 1.898 . S
O54 C49 1.167 . S
O55 Zn44 2.120 . S
O55 C49 1.299 . S
O56 Zn44 2.114 . S
O56 C58 1.160 1_655 S
O57 Zn42 1.905 1_455 S
O57 C58 1.185 . S
C58 O56 1.160 1_455 S
C58 O57 1.185 . S
O59 Zn44 2.080 . S
O59 C62 1.305 . S
O60 Zn43 1.920 . S
O60 C62 1.234 . S
C61 O47 1.305 . S
C61 O48 1.234 . S
C62 O59 1.305 . S
C62 O60 1.234 . S
Zn63 O69 1.920 . S
Zn63 O75 1.898 . S
Zn63 O78 1.905 1_455 S
Zn64 O72 1.905 . S
Zn64 O73 1.898 . S
Zn64 O81 1.920 . S
Zn65 O68 2.080 . S
Zn65 O71 2.114 . S
Zn65 O74 2.120 . S
Zn65 O76 2.120 . S
Zn65 O77 2.114 . S
Zn65 O80 2.080 . S
C66 O71 1.166 . S
C66 O72 1.182 . S
C67 O73 1.167 . S
C67 O74 1.299 . S
O68 Zn65 2.080 . S
O68 C82 1.305 . S
O69 Zn63 1.920 . S
O69 C82 1.234 . S
C70 O75 1.167 . S
C70 O76 1.299 . S
O71 Zn65 2.114 . S
O71 C66 1.166 . S
O72 Zn64 1.905 . S
O72 C66 1.182 . S
O73 Zn64 1.898 . S
O73 C67 1.167 . S
O74 Zn65 2.120 . S
O74 C67 1.299 . S
O75 Zn63 1.898 . S
O75 C70 1.167 . S
O76 Zn65 2.120 . S
O76 C70 1.299 . S
O77 Zn65 2.114 . S
O77 C79 1.166 1_455 S
O78 Zn63 1.905 1_655 S
O78 C79 1.180 . S
C79 O77 1.166 1_655 S
C79 O78 1.180 . S
O80 Zn65 2.080 . S
O80 C83 1.305 . S
O81 Zn64 1.920 . S
O81 C83 1.234 . S
C82 O68 1.305 . S
C82 O69 1.234 . S
C83 O80 1.305 . S
C83 O81 1.234 . S
Zn84 O90 1.920 . S
Zn84 O96 1.898 . S
Zn84 O99 1.905 . S
Zn85 O93 1.905 1_565 S
Zn85 O94 1.898 . S
Zn85 O102 1.920 . S
Zn86 O89 2.080 . S
Zn86 O92 2.114 . S
Zn86 O95 2.120 . S
Zn86 O97 2.120 . S
Zn86 O98 2.114 . S
Zn86 O101 2.080 . S
C87 O92 1.160 1_545 S
C87 O93 1.185 . S
C88 O94 1.167 . S
C88 O95 1.299 . S
O89 Zn86 2.080 . S
O89 C103 1.305 . S
O90 Zn84 1.920 . S
O90 C103 1.234 . S
C91 O96 1.167 . S
C91 O97 1.299 . S
O92 Zn86 2.114 . S
O92 C87 1.160 1_565 S
O93 Zn85 1.905 1_545 S
O93 C87 1.185 . S
O94 Zn85 1.898 . S
O94 C88 1.167 . S
O95 Zn86 2.120 . S
O95 C88 1.299 . S
O96 Zn84 1.898 . S
O96 C91 1.167 . S
O97 Zn86 2.120 . S
O97 C91 1.299 . S
O98 Zn86 2.114 . S
O98 C100 1.166 . S
O99 Zn84 1.905 . S
O99 C100 1.182 . S
C100 O98 1.166 . S
C100 O99 1.182 . S
O101 Zn86 2.080 . S
O101 C104 1.305 . S
O102 Zn85 1.920 . S
O102 C104 1.234 . S
C103 O89 1.305 . S
C103 O90 1.234 . S
C104 O101 1.305 . S
C104 O102 1.234 . S
Zn105 O111 1.920 . S
Zn105 O117 1.898 . S
Zn105 O120 1.905 . S
Zn106 O114 1.905 . S
Zn106 O115 1.898 . S
Zn106 O123 1.920 . S
Zn107 O110 2.080 . S
Zn107 O113 2.114 . S
Zn107 O116 2.120 . S
Zn107 O118 2.120 . S
Zn107 O119 2.114 . S
Zn107 O122 2.080 . S
C108 O113 1.166 . S
C108 O114 1.182 . S
C109 O115 1.167 . S
C109 O116 1.299 . S
O110 Zn107 2.080 . S
O110 C124 1.305 . S
O111 Zn105 1.920 . S
O111 C124 1.234 . S
C112 O117 1.167 . S
C112 O118 1.299 . S
O113 Zn107 2.114 . S
O113 C108 1.166 . S
O114 Zn106 1.905 . S
O114 C108 1.182 . S
O115 Zn106 1.898 . S
O115 C109 1.167 . S
O116 Zn107 2.120 . S
O116 C109 1.299 . S
O117 Zn105 1.898 . S
O117 C112 1.167 . S
O118 Zn107 2.120 . S
O118 C112 1.299 . S
O119 Zn107 2.114 . S
O119 C121 1.166 . S
O120 Zn105 1.905 . S
O120 C121 1.182 . S
C121 O119 1.166 . S
C121 O120 1.182 . S
O122 Zn107 2.080 . S
O122 C125 1.305 . S
O123 Zn106 1.920 . S
O123 C125 1.234 . S
C124 O110 1.305 . S
C124 O111 1.234 . S
C125 O122 1.305 . S
C125 O123 1.234 . S
H126 C144 0.951 . S
H127 C146 0.951 . S
H128 C148 0.950 1_545 S
H129 C149 0.950 . S
H130 C151 0.950 . S
H131 C154 0.950 . S
H132 C155 0.950 . S
H133 C157 0.950 . S
H134 C158 0.950 . S
H135 C159 0.951 . S
H136 C161 0.951 . S
H137 C163 0.950 1_565 S
H138 C164 0.950 . S
H139 C166 0.950 . S
H140 C169 0.950 . S
H141 C170 0.950 . S
H142 C172 0.950 . S
H143 C173 0.950 . S
C144 H126 0.951 . S
C144 C145 1.366 . S
C144 C146 1.388 . S
C145 C144 1.366 . S
C145 C149 1.385 . S
C146 H127 0.951 . S
C146 C144 1.388 . S
C146 C147 1.366 . S
C147 C146 1.366 . S
C147 C148 1.414 . S
C147 C150 1.499 . S
C148 H128 0.950 1_565 S
C148 C147 1.414 . S
C148 C149 1.374 . S
C149 H129 0.950 . S
C149 C145 1.385 . S
C149 C148 1.374 . S
C150 C147 1.499 . S
C150 C151 1.373 1_565 S
C150 C152 1.389 . S
C151 H130 0.950 . S
C151 C150 1.373 1_545 S
C151 C167 1.377 1_556 S
C152 C150 1.389 . S
C152 C153 1.524 . S
C152 C166 1.377 1_556 S
C153 C152 1.524 . S
C153 C154 1.397 . S
C153 C158 1.363 1_556 S
C154 H131 0.950 . S
C154 C153 1.397 . S
C154 C155 1.334 . S
C155 H132 0.950 . S
C155 C154 1.334 . S
C155 C156 1.287 . S
C156 C155 1.287 . S
C156 C157 1.524 1_556 S
C156 H175 0.913 . S
C157 H133 0.950 . S
C157 C156 1.524 1_554 S
C157 C158 1.415 . S
C158 H134 0.950 . S
C158 C153 1.363 1_554 S
C158 C157 1.415 . S
C159 H135 0.951 . S
C159 C160 1.366 . S
C159 C161 1.388 . S
C160 C159 1.366 . S
C160 C164 1.385 . S
C161 H136 0.951 . S
C161 C159 1.388 . S
C161 C162 1.366 . S
C162 C161 1.366 . S
C162 C163 1.414 . S
C162 C165 1.499 . S
C163 H137 0.950 1_545 S
C163 C162 1.414 . S
C163 C164 1.374 . S
C164 H138 0.950 . S
C164 C160 1.385 . S
C164 C163 1.374 . S
C165 C162 1.499 . S
C165 C166 1.373 1_545 S
C165 C167 1.389 . S
C166 H139 0.950 . S
C166 C152 1.377 1_554 S
C166 C165 1.373 1_565 S
C167 C151 1.377 1_554 S
C167 C165 1.389 . S
C167 C168 1.524 . S
C168 C167 1.524 . S
C168 C169 1.397 . S
C168 C173 1.363 1_554 S
C169 H140 0.950 . S
C169 C168 1.397 . S
C169 C170 1.334 . S
C170 H141 0.950 . S
C170 C169 1.334 . S
C170 C171 1.287 . S
C171 C170 1.287 . S
C171 C172 1.524 1_554 S
C171 H174 0.999 . S
C172 H142 0.950 . S
C172 C171 1.524 1_556 S
C172 C173 1.415 . S
C173 H143 0.950 . S
C173 C168 1.363 1_556 S
C173 C172 1.415 . S
H174 C171 0.999 . S
H175 C156 0.913 . S
H176 C194 0.951 . S
H177 C196 0.951 . S
H178 C198 0.950 . S
H179 C199 0.950 . S
H180 C201 0.950 . S
H181 C204 0.950 . S
H182 C205 0.950 . S
H183 C207 0.950 . S
H184 C208 0.950 . S
H185 C209 0.951 . S
H186 C211 0.951 . S
H187 C213 0.950 . S
H188 C214 0.950 . S
H189 C216 0.950 . S
H190 C219 0.950 . S
H191 C220 0.950 . S
H192 C222 0.950 . S
H193 C223 0.950 . S
C194 H176 0.951 . S
C194 C195 1.366 . S
C194 C196 1.388 . S
C195 C194 1.366 . S
C195 C199 1.385 . S
C196 H177 0.951 . S
C196 C194 1.388 . S
C196 C197 1.366 . S
C197 C196 1.366 . S
C197 C198 1.414 . S
C197 C200 1.499 . S
C198 H178 0.950 . S
C198 C197 1.414 . S
C198 C199 1.374 . S
C199 H179 0.950 . S
C199 C195 1.385 . S
C199 C198 1.374 . S
C200 C197 1.499 . S
C200 C201 1.373 . S
C200 C202 1.389 . S
C201 H180 0.950 . S
C201 C200 1.373 . S
C201 C217 1.377 . S
C202 C200 1.389 . S
C202 C203 1.524 . S
C202 C216 1.377 . S
C203 C202 1.524 . S
C203 C204 1.397 . S
C203 C208 1.363 . S
C204 H181 0.950 . S
C204 C203 1.397 . S
C204 C205 1.334 . S
C205 H182 0.950 . S
C205 C204 1.334 . S
C205 C206 1.287 . S
C206 C205 1.287 . S
C206 C207 1.524 . S
C206 H225 0.913 . S
C207 H183 0.950 . S
C207 C206 1.524 . S
C207 C208 1.415 . S
C208 H184 0.950 . S
C208 C203 1.363 . S
C208 C207 1.415 . S
C209 H185 0.951 . S
C209 C210 1.366 . S
C209 C211 1.388 . S
C210 C209 1.366 . S
C210 C214 1.385 . S
C211 H186 0.951 . S
C211 C209 1.388 . S
C211 C212 1.366 . S
C212 C211 1.366 . S
C212 C213 1.414 . S
C212 C215 1.499 . S
C213 H187 0.950 . S
C213 C212 1.414 . S
C213 C214 1.374 . S
C214 H188 0.950 . S
C214 C210 1.385 . S
C214 C213 1.374 . S
C215 C212 1.499 . S
C215 C216 1.373 . S
C215 C217 1.389 . S
C216 H189 0.950 . S
C216 C202 1.377 . S
C216 C215 1.373 . S
C217 C201 1.377 . S
C217 C215 1.389 . S
C217 C218 1.524 . S
C218 C217 1.524 . S
C218 C219 1.397 . S
C218 C223 1.363 . S
C219 H190 0.950 . S
C219 C218 1.397 . S
C219 C220 1.334 . S
C220 H191 0.950 . S
C220 C219 1.334 . S
C220 C221 1.287 . S
C221 C220 1.287 . S
C221 C222 1.524 . S
C221 H224 0.999 . S
C222 H192 0.950 . S
C222 C221 1.524 . S
C222 C223 1.415 . S
C223 H193 0.950 . S
C223 C218 1.363 . S
C223 C222 1.415 . S
H224 C221 0.999 . S
H225 C206 0.913 . S
H226 C244 0.951 . S
H227 C246 0.951 1_455 S
H228 C248 0.950 . S
H229 C249 0.950 . S
H230 C251 0.950 . S
H231 C254 0.950 . S
H232 C255 0.950 . S
H233 C257 0.950 . S
H234 C258 0.950 . S
H235 C259 0.951 . S
H236 C261 0.951 1_655 S
H237 C263 0.950 . S
H238 C264 0.950 . S
H239 C266 0.950 . S
H240 C269 0.950 . S
H241 C270 0.950 . S
H242 C272 0.950 . S
H243 C273 0.950 . S
C244 H226 0.951 . S
C244 C245 1.366 . S
C244 C246 1.388 . S
C245 C244 1.366 . S
C245 C249 1.385 . S
C246 H227 0.951 1_655 S
C246 C244 1.388 . S
C246 C247 1.366 . S
C247 C246 1.366 . S
C247 C248 1.414 . S
C247 C250 1.499 . S
C248 H228 0.950 . S
C248 C247 1.414 . S
C248 C249 1.374 . S
C249 H229 0.950 . S
C249 C245 1.385 . S
C249 C248 1.374 . S
C250 C247 1.499 . S
C250 C251 1.373 . S
C250 C252 1.389 1_655 S
C251 H230 0.950 . S
C251 C250 1.373 . S
C251 C267 1.377 1_554 S
C252 C250 1.389 1_455 S
C252 C253 1.524 . S
C252 C266 1.377 1_554 S
C253 C252 1.524 . S
C253 C254 1.397 . S
C253 C258 1.363 . S
C254 H231 0.950 . S
C254 C253 1.397 . S
C254 C255 1.334 . S
C255 H232 0.950 . S
C255 C254 1.334 . S
C255 C256 1.287 . S
C256 C255 1.287 . S
C256 C257 1.524 . S
C256 H275 0.913 . S
C257 H233 0.950 . S
C257 C256 1.524 . S
C257 C258 1.415 . S
C258 H234 0.950 . S
C258 C253 1.363 . S
C258 C257 1.415 . S
C259 H235 0.951 . S
C259 C260 1.366 . S
C259 C261 1.388 . S
C260 C259 1.366 . S
C260 C264 1.385 . S
C261 H236 0.951 1_455 S
C261 C259 1.388 . S
C261 C262 1.366 . S
C262 C261 1.366 . S
C262 C263 1.414 . S
C262 C265 1.499 . S
C263 H237 0.950 . S
C263 C262 1.414 . S
C263 C264 1.374 . S
C264 H238 0.950 . S
C264 C260 1.385 . S
C264 C263 1.374 . S
C265 C262 1.499 . S
C265 C266 1.373 . S
C265 C267 1.389 1_455 S
C266 H239 0.950 . S
C266 C252 1.377 1_556 S
C266 C265 1.373 . S
C267 C251 1.377 1_556 S
C267 C265 1.389 1_655 S
C267 C268 1.524 . S
C268 C267 1.524 . S
C268 C269 1.397 . S
C268 C273 1.363 . S
C269 H240 0.950 . S
C269 C268 1.397 . S
C269 C270 1.334 . S
C270 H241 0.950 . S
C270 C269 1.334 . S
C270 C271 1.287 . S
C271 C270 1.287 . S
C271 C272 1.524 . S
C271 H274 0.999 . S
C272 H242 0.950 . S
C272 C271 1.524 . S
C272 C273 1.415 . S
C273 H243 0.950 . S
C273 C268 1.363 . S
C273 C272 1.415 . S
H274 C271 0.999 . S
H275 C256 0.913 . S
H276 C294 0.951 1_565 S
H277 C296 0.951 . S
H278 C298 0.950 . S
H279 C299 0.950 . S
H280 C301 0.950 . S
H281 C304 0.942 1_545 S
H282 C305 0.950 1_545 S
H283 C307 0.950 . S
H284 C308 0.950 . S
H285 C309 0.951 1_545 S
H286 C311 0.951 . S
H287 C313 0.950 . S
H288 C314 0.950 . S
H289 C316 0.950 . S
H290 C319 0.942 1_565 S
H291 C320 0.950 1_565 S
H292 C322 0.950 . S
H293 C323 0.950 . S
C294 H276 0.951 1_545 S
C294 C295 1.366 . S
C294 C296 1.388 1_545 S
C295 C294 1.366 . S
C295 C299 1.385 . S
C296 H277 0.951 . S
C296 C294 1.388 1_565 S
C296 C297 1.366 1_565 S
C297 C296 1.366 1_545 S
C297 C298 1.414 . S
C297 C300 1.499 . S
C298 H278 0.950 . S
C298 C297 1.414 . S
C298 C299 1.374 . S
C299 H279 0.950 . S
C299 C295 1.385 . S
C299 C298 1.374 . S
C300 C297 1.499 . S
C300 C301 1.373 . S
C300 C302 1.389 1_545 S
C301 H280 0.950 . S
C301 C300 1.373 . S
C301 C317 1.377 . S
C302 C300 1.389 1_565 S
C302 C303 1.524 . S
C302 C316 1.377 . S
C303 C302 1.524 . S
C303 C304 1.405 . S
C303 C308 1.363 . S
C304 H281 0.942 1_565 S
C304 C303 1.405 . S
C304 C305 1.332 . S
C305 H282 0.950 1_565 S
C305 C304 1.332 . S
C305 C306 1.287 . S
C306 C305 1.287 . S
C306 C307 1.524 . S
C306 H325 0.913 . S
C307 H283 0.950 . S
C307 C306 1.524 . S
C307 C308 1.415 . S
C308 H284 0.950 . S
C308 C303 1.363 . S
C308 C307 1.415 . S
C309 H285 0.951 1_565 S
C309 C310 1.366 . S
C309 C311 1.388 1_565 S
C310 C309 1.366 . S
C310 C314 1.385 . S
C311 H286 0.951 . S
C311 C309 1.388 1_545 S
C311 C312 1.366 1_545 S
C312 C311 1.366 1_565 S
C312 C313 1.414 . S
C312 C315 1.499 . S
C313 H287 0.950 . S
C313 C312 1.414 . S
C313 C314 1.374 . S
C314 H288 0.950 . S
C314 C310 1.385 . S
C314 C313 1.374 . S
C315 C312 1.499 . S
C315 C316 1.373 . S
C315 C317 1.389 1_565 S
C316 H289 0.950 . S
C316 C302 1.377 . S
C316 C315 1.373 . S
C317 C301 1.377 . S
C317 C315 1.389 1_545 S
C317 C318 1.524 . S
C318 C317 1.524 . S
C318 C319 1.406 . S
C318 C323 1.363 . S
C319 H290 0.942 1_545 S
C319 C318 1.406 . S
C319 C320 1.332 . S
C320 H291 0.950 1_545 S
C320 C319 1.332 . S
C320 C321 1.287 . S
C321 C320 1.287 . S
C321 C322 1.524 . S
C321 H324 0.999 . S
C322 H292 0.950 . S
C322 C321 1.524 . S
C322 C323 1.415 . S
C323 H293 0.950 . S
C323 C318 1.363 . S
C323 C322 1.415 . S
H324 C321 0.999 . S
H325 C306 0.913 . S
H326 C344 0.951 . S
H327 C346 0.951 . S
H328 C348 0.950 . S
H329 C349 0.950 . S
H330 C351 0.950 . S
H331 C354 0.950 . S
H332 C355 0.950 . S
H333 C357 0.950 . S
H334 C358 0.950 . S
H335 C359 0.951 . S
H336 C361 0.951 . S
H337 C363 0.950 . S
H338 C364 0.950 . S
H339 C366 0.950 . S
H340 C369 0.950 . S
H341 C370 0.950 . S
H342 C372 0.950 . S
H343 C373 0.950 . S
C344 H326 0.951 . S
C344 C345 1.366 . S
C344 C346 1.388 . S
C345 C344 1.366 . S
C345 C349 1.385 . S
C346 H327 0.951 . S
C346 C344 1.388 . S
C346 C347 1.366 . S
C347 C346 1.366 . S
C347 C348 1.414 . S
C347 C350 1.499 . S
C348 H328 0.950 . S
C348 C347 1.414 . S
C348 C349 1.374 . S
C349 H329 0.950 . S
C349 C345 1.385 . S
C349 C348 1.374 . S
C350 C347 1.499 . S
C350 C351 1.373 . S
C350 C352 1.389 . S
C351 H330 0.950 . S
C351 C350 1.373 . S
C351 C367 1.377 1_556 S
C352 C350 1.389 . S
C352 C353 1.524 . S
C352 C366 1.377 1_556 S
C353 C352 1.524 . S
C353 C354 1.397 . S
C353 C358 1.363 . S
C354 H331 0.950 . S
C354 C353 1.397 . S
C354 C355 1.334 . S
C355 H332 0.950 . S
C355 C354 1.334 . S
C355 C356 1.287 . S
C356 C355 1.287 . S
C356 C357 1.524 . S
C356 H375 0.913 . S
C357 H333 0.950 . S
C357 C356 1.524 . S
C357 C358 1.415 . S
C358 H334 0.950 . S
C358 C353 1.363 . S
C358 C357 1.415 . S
C359 H335 0.951 . S
C359 C360 1.366 . S
C359 C361 1.388 . S
C360 C359 1.366 . S
C360 C364 1.385 . S
C361 H336 0.951 . S
C361 C359 1.388 . S
C361 C362 1.366 . S
C362 C361 1.366 . S
C362 C363 1.414 . S
C362 C365 1.499 . S
C363 H337 0.950 . S
C363 C362 1.414 . S
C363 C364 1.374 . S
C364 H338 0.950 . S
C364 C360 1.385 . S
C364 C363 1.374 . S
C365 C362 1.499 . S
C365 C366 1.373 . S
C365 C367 1.389 . S
C366 H339 0.950 . S
C366 C352 1.377 1_554 S
C366 C365 1.373 . S
C367 C351 1.377 1_554 S
C367 C365 1.389 . S
C367 C368 1.524 . S
C368 C367 1.524 . S
C368 C369 1.397 . S
C368 C373 1.363 . S
C369 H340 0.950 . S
C369 C368 1.397 . S
C369 C370 1.334 . S
C370 H341 0.950 . S
C370 C369 1.334 . S
C370 C371 1.287 . S
C371 C370 1.287 . S
C371 C372 1.524 . S
C371 H374 0.999 . S
C372 H342 0.950 . S
C372 C371 1.524 . S
C372 C373 1.415 . S
C373 H343 0.950 . S
C373 C368 1.363 . S
C373 C372 1.415 . S
H374 C371 0.999 . S
H375 C356 0.913 . S
H376 C394 0.951 . S
H377 C396 0.951 . S
H378 C398 0.950 . S
H379 C399 0.950 . S
H380 C401 0.950 . S
H381 C404 0.950 . S
H382 C405 0.950 . S
H383 C407 0.950 . S
H384 C408 0.950 . S
H385 C409 0.951 . S
H386 C411 0.951 . S
H387 C413 0.950 . S
H388 C414 0.950 . S
H389 C416 0.950 . S
H390 C419 0.950 . S
H391 C420 0.950 . S
H392 C422 0.950 . S
H393 C423 0.950 . S
C394 H376 0.951 . S
C394 C395 1.366 . S
C394 C396 1.388 . S
C395 C394 1.366 . S
C395 C399 1.385 . S
C396 H377 0.951 . S
C396 C394 1.388 . S
C396 C397 1.366 . S
C397 C396 1.366 . S
C397 C398 1.414 . S
C397 C400 1.499 . S
C398 H378 0.950 . S
C398 C397 1.414 . S
C398 C399 1.374 . S
C399 H379 0.950 . S
C399 C395 1.385 . S
C399 C398 1.374 . S
C400 C397 1.499 . S
C400 C401 1.373 . S
C400 C402 1.389 1_655 S
C401 H380 0.950 . S
C401 C400 1.373 . S
C401 C417 1.377 . S
C402 C400 1.389 1_455 S
C402 C403 1.524 . S
C402 C416 1.377 . S
C403 C402 1.524 . S
C403 C404 1.397 . S
C403 C408 1.363 . S
C404 H381 0.950 . S
C404 C403 1.397 . S
C404 C405 1.334 . S
C405 H382 0.950 . S
C405 C404 1.334 . S
C405 C406 1.287 . S
C406 C405 1.287 . S
C406 C407 1.524 . S
C406 H425 0.913 . S
C407 H383 0.950 . S
C407 C406 1.524 . S
C407 C408 1.415 . S
C408 H384 0.950 . S
C408 C403 1.363 . S
C408 C407 1.415 . S
C409 H385 0.951 . S
C409 C410 1.366 . S
C409 C411 1.388 . S
C410 C409 1.366 . S
C410 C414 1.385 . S
C411 H386 0.951 . S
C411 C409 1.388 . S
C411 C412 1.366 . S
C412 C411 1.366 . S
C412 C413 1.414 . S
C412 C415 1.499 . S
C413 H387 0.950 . S
C413 C412 1.414 . S
C413 C414 1.374 . S
C414 H388 0.950 . S
C414 C410 1.385 . S
C414 C413 1.374 . S
C415 C412 1.499 . S
C415 C416 1.373 . S
C415 C417 1.389 1_455 S
C416 H389 0.950 . S
C416 C402 1.377 . S
C416 C415 1.373 . S
C417 C401 1.377 . S
C417 C415 1.389 1_655 S
C417 C418 1.524 . S
C418 C417 1.524 . S
C418 C419 1.397 . S
C418 C423 1.363 . S
C419 H390 0.950 . S
C419 C418 1.397 . S
C419 C420 1.334 . S
C420 H391 0.950 . S
C420 C419 1.334 . S
C420 C421 1.287 . S
C421 C420 1.287 . S
C421 C422 1.524 . S
C421 H424 0.999 . S
C422 H392 0.950 . S
C422 C421 1.524 . S
C422 C423 1.415 . S
C423 H393 0.950 . S
C423 C418 1.363 . S
C423 C422 1.415 . S
H424 C421 0.999 . S
H425 C406 0.913 . S
H426 C444 0.951 . S
H427 C446 0.951 . S
H428 C448 0.950 . S
H429 C449 0.950 . S
H430 C451 0.950 . S
H431 C454 0.950 . S
H432 C455 0.950 . S
H433 C457 0.950 . S
H434 C458 0.950 . S
H435 C459 0.951 . S
H436 C461 0.951 . S
H437 C463 0.950 . S
H438 C464 0.950 . S
H439 C466 0.950 . S
H440 C469 0.950 . S
H441 C470 0.950 . S
H442 C472 0.968 . S
H443 C473 0.950 . S
C444 H426 0.951 . S
C444 C445 1.366 . S
C444 C446 1.388 . S
C445 C444 1.366 . S
C445 C449 1.385 . S
C446 H427 0.951 . S
C446 C444 1.388 . S
C446 C447 1.366 . S
C447 C446 1.366 . S
C447 C448 1.414 . S
C447 C450 1.499 . S
C448 H428 0.950 . S
C448 C447 1.414 . S
C448 C449 1.374 . S
C449 H429 0.950 . S
C449 C445 1.385 . S
C449 C448 1.374 . S
C450 C447 1.499 . S
C450 C451 1.373 . S
C450 C452 1.389 . S
C451 H430 0.950 . S
C451 C450 1.373 . S
C451 C467 1.377 . S
C452 C450 1.389 . S
C452 C453 1.524 . S
C452 C466 1.377 . S
C453 C452 1.524 . S
C453 C454 1.397 . S
C453 C458 1.363 . S
C454 H431 0.950 . S
C454 C453 1.397 . S
C454 C455 1.334 . S
C455 H432 0.950 . S
C455 C454 1.334 . S
C455 C456 1.287 . S
C456 C455 1.287 . S
C456 C457 1.524 . S
C456 H475 0.913 . S
C457 H433 0.950 . S
C457 C456 1.524 . S
C457 C458 1.415 . S
C458 H434 0.950 . S
C458 C453 1.363 . S
C458 C457 1.415 . S
C459 H435 0.951 . S
C459 C460 1.366 . S
C459 C461 1.388 . S
C460 C459 1.366 . S
C460 C464 1.385 . S
C461 H436 0.951 . S
C461 C459 1.388 . S
C461 C462 1.366 . S
C462 C461 1.366 . S
C462 C463 1.414 . S
C462 C465 1.499 . S
C463 H437 0.950 . S
C463 C462 1.414 . S
C463 C464 1.374 . S
C464 H438 0.950 . S
C464 C460 1.385 . S
C464 C463 1.374 . S
C465 C462 1.499 . S
C465 C466 1.373 . S
C465 C467 1.389 . S
C466 H439 0.950 . S
C466 C452 1.377 . S
C466 C465 1.373 . S
C467 C451 1.377 . S
C467 C465 1.389 . S
C467 C468 1.524 . S
C468 C467 1.524 . S
C468 C469 1.397 . S
C468 C473 1.363 . S
C469 H440 0.950 . S
C469 C468 1.397 . S
C469 C470 1.334 . S
C470 H441 0.950 . S
C470 C469 1.334 . S
C470 C471 1.287 . S
C471 C470 1.287 . S
C471 C472 1.527 1_545 S
C471 H474 0.999 1_545 S
C472 H442 0.968 . S
C472 C471 1.527 1_565 S
C472 C473 1.392 1_565 S
C473 H443 0.950 . S
C473 C468 1.363 . S
C473 C472 1.392 1_545 S
H474 C471 0.999 1_565 S
H475 C456 0.913 . S
H476 C494 0.951 . S
H477 C496 0.951 . S
H478 C498 0.950 . S
H479 C499 0.950 . S
H480 C501 0.950 . S
H481 C504 0.950 . S
H482 C505 0.950 . S
H483 C507 0.950 . S
H484 C508 0.950 . S
H485 C509 0.951 . S
H486 C511 0.951 . S
H487 C513 0.950 . S
H488 C514 0.950 . S
H489 C516 0.950 . S
H490 C519 0.950 . S
H491 C520 0.950 . S
H492 C522 0.950 . S
H493 C523 0.950 . S
C494 H476 0.951 . S
C494 C495 1.366 . S
C494 C496 1.388 . S
C495 C494 1.366 . S
C495 C499 1.385 . S
C496 H477 0.951 . S
C496 C494 1.388 . S
C496 C497 1.366 . S
C497 C496 1.366 . S
C497 C498 1.414 . S
C497 C500 1.499 . S
C498 H478 0.950 . S
C498 C497 1.414 . S
C498 C499 1.374 . S
C499 H479 0.950 . S
C499 C495 1.385 . S
C499 C498 1.374 . S
C500 C497 1.499 . S
C500 C501 1.373 . S
C500 C502 1.389 . S
C501 H480 0.950 . S
C501 C500 1.373 . S
C501 C517 1.377 . S
C502 C500 1.389 . S
C502 C503 1.524 . S
C502 C516 1.377 . S
C503 C502 1.524 . S
C503 C504 1.397 . S
C503 C508 1.363 . S
C504 H481 0.950 . S
C504 C503 1.397 . S
C504 C505 1.334 . S
C505 H482 0.950 . S
C505 C504 1.334 . S
C505 C506 1.287 . S
C506 C505 1.287 . S
C506 C507 1.524 . S
C506 H525 0.913 . S
C507 H483 0.950 . S
C507 C506 1.524 . S
C507 C508 1.415 . S
C508 H484 0.950 . S
C508 C503 1.363 . S
C508 C507 1.415 . S
C509 H485 0.951 . S
C509 C510 1.366 . S
C509 C511 1.388 . S
C510 C509 1.366 . S
C510 C514 1.385 . S
C511 H486 0.951 . S
C511 C509 1.388 . S
C511 C512 1.366 . S
C512 C511 1.366 . S
C512 C513 1.414 . S
C512 C515 1.499 . S
C513 H487 0.950 . S
C513 C512 1.414 . S
C513 C514 1.374 . S
C514 H488 0.950 . S
C514 C510 1.385 . S
C514 C513 1.374 . S
C515 C512 1.499 . S
C515 C516 1.373 . S
C515 C517 1.389 . S
C516 H489 0.950 . S
C516 C502 1.377 . S
C516 C515 1.373 . S
C517 C501 1.377 . S
C517 C515 1.389 . S
C517 C518 1.524 . S
C518 C517 1.524 . S
C518 C519 1.397 . S
C518 C523 1.363 . S
C519 H490 0.950 . S
C519 C518 1.397 . S
C519 C520 1.334 . S
C520 H491 0.950 . S
C520 C519 1.334 . S
C520 C521 1.287 . S
C521 C520 1.287 . S
C521 C522 1.524 . S
C521 H524 0.999 . S
C522 H492 0.950 . S
C522 C521 1.524 . S
C522 C523 1.415 . S
C523 H493 0.950 . S
C523 C518 1.363 . S
C523 C522 1.415 . S
H524 C521 0.999 . S
H525 C506 0.913 . S
H526 C544 0.951 . S
H527 C546 0.951 . S
H528 C548 0.950 . S
H529 C549 0.950 . S
H530 C551 0.950 . S
H531 C554 0.950 . S
H532 C555 0.950 . S
H533 C557 0.950 . S
H534 C558 0.950 . S
H535 C559 0.951 . S
H536 C561 0.951 . S
H537 C563 0.950 . S
H538 C564 0.950 . S
H539 C566 0.950 . S
H540 C569 0.950 . S
H541 C570 0.950 . S
H542 C572 0.950 . S
H543 C573 0.950 . S
C544 H526 0.951 . S
C544 C545 1.366 . S
C544 C546 1.388 . S
C545 C544 1.366 . S
C545 C549 1.385 . S
C546 H527 0.951 . S
C546 C544 1.388 . S
C546 C547 1.366 . S
C547 C546 1.366 . S
C547 C548 1.414 . S
C547 C550 1.499 . S
C548 H528 0.950 . S
C548 C547 1.414 . S
C548 C549 1.374 . S
C549 H529 0.950 . S
C549 C545 1.385 . S
C549 C548 1.374 . S
C550 C547 1.499 . S
C550 C551 1.373 . S
C550 C552 1.389 . S
C551 H530 0.950 . S
C551 C550 1.373 . S
C551 C567 1.377 . S
C552 C550 1.389 . S
C552 C553 1.524 . S
C552 C566 1.377 . S
C553 C552 1.524 . S
C553 C554 1.397 . S
C553 C558 1.363 . S
C554 H531 0.950 . S
C554 C553 1.397 . S
C554 C555 1.334 . S
C555 H532 0.950 . S
C555 C554 1.334 . S
C555 C556 1.287 1_655 S
C556 C555 1.287 1_455 S
C556 C557 1.524 . S
C556 H575 0.913 . S
C557 H533 0.950 . S
C557 C556 1.524 . S
C557 C558 1.415 1_455 S
C558 H534 0.950 . S
C558 C553 1.363 . S
C558 C557 1.415 1_655 S
C559 H535 0.951 . S
C559 C560 1.366 . S
C559 C561 1.388 . S
C560 C559 1.366 . S
C560 C564 1.385 . S
C561 H536 0.951 . S
C561 C559 1.388 . S
C561 C562 1.366 . S
C562 C561 1.366 . S
C562 C563 1.414 . S
C562 C565 1.499 . S
C563 H537 0.950 . S
C563 C562 1.414 . S
C563 C564 1.374 . S
C564 H538 0.950 . S
C564 C560 1.385 . S
C564 C563 1.374 . S
C565 C562 1.499 . S
C565 C566 1.373 . S
C565 C567 1.389 . S
C566 H539 0.950 . S
C566 C552 1.377 . S
C566 C565 1.373 . S
C567 C551 1.377 . S
C567 C565 1.389 . S
C567 C568 1.524 . S
C568 C567 1.524 . S
C568 C569 1.397 . S
C568 C573 1.363 . S
C569 H540 0.950 . S
C569 C568 1.397 . S
C569 C570 1.334 . S
C570 H541 0.950 . S
C570 C569 1.334 . S
C570 C571 1.287 . S
C571 C570 1.287 . S
C571 C572 1.524 . S
C571 H574 0.999 . S
C572 H542 0.950 . S
C572 C571 1.524 . S
C572 C573 1.415 . S
C573 H543 0.950 . S
C573 C568 1.363 . S
C573 C572 1.415 . S
H574 C571 0.999 . S
H575 C556 0.913 . S
H576 C594 0.951 . S
H577 C596 0.951 . S
H578 C598 0.950 . S
H579 C599 0.950 . S
H580 C601 0.950 . S
H581 C604 0.950 . S
H582 C605 0.950 . S
H583 C607 0.950 . S
H584 C608 0.950 . S
H585 C609 0.951 . S
H586 C611 0.951 . S
H587 C613 0.950 . S
H588 C614 0.950 . S
H589 C616 0.950 . S
H590 C619 0.950 . S
H591 C620 0.950 . S
H592 C622 0.950 . S
H593 C623 0.950 . S
C594 H576 0.951 . S
C594 C595 1.366 . S
C594 C596 1.388 . S
C595 C594 1.366 . S
C595 C599 1.385 . S
C596 H577 0.951 . S
C596 C594 1.388 . S
C596 C597 1.366 . S
C597 C596 1.366 . S
C597 C598 1.414 . S
C597 C600 1.499 . S
C598 H578 0.950 . S
C598 C597 1.414 . S
C598 C599 1.374 . S
C599 H579 0.950 . S
C599 C595 1.385 . S
C599 C598 1.374 . S
C600 C597 1.499 . S
C600 C601 1.373 . S
C600 C602 1.389 . S
C601 H580 0.950 . S
C601 C600 1.373 . S
C601 C617 1.377 . S
C602 C600 1.389 . S
C602 C603 1.524 . S
C602 C616 1.377 . S
C603 C602 1.524 . S
C603 C604 1.397 . S
C603 C608 1.363 . S
C604 H581 0.950 . S
C604 C603 1.397 . S
C604 C605 1.334 . S
C605 H582 0.950 . S
C605 C604 1.334 . S
C605 C606 1.287 . S
C606 C605 1.287 . S
C606 C607 1.524 . S
C606 H625 0.913 . S
C607 H583 0.950 . S
C607 C606 1.524 . S
C607 C608 1.415 . S
C608 H584 0.950 . S
C608 C603 1.363 . S
C608 C607 1.415 . S
C609 H585 0.951 . S
C609 C610 1.366 . S
C609 C611 1.388 . S
C610 C609 1.366 . S
C610 C614 1.385 . S
C611 H586 0.951 . S
C611 C609 1.388 . S
C611 C612 1.366 . S
C612 C611 1.366 . S
C612 C613 1.414 . S
C612 C615 1.499 . S
C613 H587 0.950 . S
C613 C612 1.414 . S
C613 C614 1.374 . S
C614 H588 0.950 . S
C614 C610 1.385 . S
C614 C613 1.374 . S
C615 C612 1.499 . S
C615 C616 1.373 . S
C615 C617 1.389 . S
C616 H589 0.950 . S
C616 C602 1.377 . S
C616 C615 1.373 . S
C617 C601 1.377 . S
C617 C615 1.389 . S
C617 C618 1.524 . S
C618 C617 1.524 . S
C618 C619 1.397 . S
C618 C623 1.363 . S
C619 H590 0.950 . S
C619 C618 1.397 . S
C619 C620 1.334 . S
C620 H591 0.950 . S
C620 C619 1.334 . S
C620 C621 1.287 . S
C621 C620 1.287 . S
C621 C622 1.524 . S
C621 H624 0.999 . S
C622 H592 0.950 . S
C622 C621 1.524 . S
C622 C623 1.415 . S
C623 H593 0.950 . S
C623 C618 1.363 . S
C623 C622 1.415 . S
H624 C621 0.999 . S
H625 C606 0.913 . S
H626 C644 0.951 . S
H627 C646 0.951 . S
H628 C648 0.950 . S
H629 C649 0.950 . S
H630 C651 0.950 . S
H631 C654 0.950 . S
H632 C655 0.950 . S
H633 C657 0.950 . S
H634 C658 0.950 . S
H635 C659 0.951 . S
H636 C661 0.951 . S
H637 C663 0.950 . S
H638 C664 0.950 . S
H639 C666 0.950 . S
H640 C669 0.950 . S
H641 C670 0.950 . S
H642 C672 0.950 . S
H643 C673 0.950 . S
C644 H626 0.951 . S
C644 C645 1.366 . S
C644 C646 1.388 . S
C645 C644 1.366 . S
C645 C649 1.385 . S
C646 H627 0.951 . S
C646 C644 1.388 . S
C646 C647 1.366 . S
C647 C646 1.366 . S
C647 C648 1.414 . S
C647 C650 1.499 . S
C648 H628 0.950 . S
C648 C647 1.414 . S
C648 C649 1.374 . S
C649 H629 0.950 . S
C649 C645 1.385 . S
C649 C648 1.374 . S
C650 C647 1.499 . S
C650 C651 1.373 . S
C650 C652 1.389 . S
C651 H630 0.950 . S
C651 C650 1.373 . S
C651 C667 1.377 . S
C652 C650 1.389 . S
C652 C653 1.524 . S
C652 C666 1.377 . S
C653 C652 1.524 . S
C653 C654 1.397 . S
C653 C658 1.363 . S
C654 H631 0.950 . S
C654 C653 1.397 . S
C654 C655 1.334 . S
C655 H632 0.950 . S
C655 C654 1.334 . S
C655 C656 1.287 1_565 S
C656 C655 1.287 1_545 S
C656 C657 1.524 . S
C656 H675 0.913 . S
C657 H633 0.950 . S
C657 C656 1.524 . S
C657 C658 1.415 1_545 S
C658 H634 0.950 . S
C658 C653 1.363 . S
C658 C657 1.415 1_565 S
C659 H635 0.951 . S
C659 C660 1.366 . S
C659 C661 1.388 . S
C660 C659 1.366 . S
C660 C664 1.385 . S
C661 H636 0.951 . S
C661 C659 1.388 . S
C661 C662 1.366 . S
C662 C661 1.366 . S
C662 C663 1.414 . S
C662 C665 1.499 . S
C663 H637 0.950 . S
C663 C662 1.414 . S
C663 C664 1.374 . S
C664 H638 0.950 . S
C664 C660 1.385 . S
C664 C663 1.374 . S
C665 C662 1.499 . S
C665 C666 1.373 . S
C665 C667 1.389 . S
C666 H639 0.950 . S
C666 C652 1.377 . S
C666 C665 1.373 . S
C667 C651 1.377 . S
C667 C665 1.389 . S
C667 C668 1.524 . S
C668 C667 1.524 . S
C668 C669 1.397 . S
C668 C673 1.363 . S
C669 H640 0.950 . S
C669 C668 1.397 . S
C669 C670 1.334 . S
C670 H641 0.950 . S
C670 C669 1.334 . S
C670 C671 1.287 . S
C671 C670 1.287 . S
C671 C672 1.524 . S
C671 H674 0.999 . S
C672 H642 0.950 . S
C672 C671 1.524 . S
C672 C673 1.415 . S
C673 H643 0.950 . S
C673 C668 1.363 . S
C673 C672 1.415 . S
H674 C671 0.999 . S
H675 C656 0.913 . S
H676 C694 0.951 . S
H677 C696 0.951 . S
H678 C698 0.950 . S
H679 C699 0.950 . S
H680 C701 0.950 . S
H681 C704 0.950 . S
H682 C705 0.950 . S
H683 C707 0.950 . S
H684 C708 0.950 . S
H685 C709 0.951 . S
H686 C711 0.951 . S
H687 C713 0.950 . S
H688 C714 0.950 . S
H689 C716 0.950 . S
H690 C719 0.950 . S
H691 C720 0.950 . S
H692 C722 0.950 . S
H693 C723 0.950 . S
C694 H676 0.951 . S
C694 C695 1.366 . S
C694 C696 1.388 . S
C695 C694 1.366 . S
C695 C699 1.385 . S
C696 H677 0.951 . S
C696 C694 1.388 . S
C696 C697 1.366 . S
C697 C696 1.366 . S
C697 C698 1.414 . S
C697 C700 1.499 . S
C698 H678 0.950 . S
C698 C697 1.414 . S
C698 C699 1.374 . S
C699 H679 0.950 . S
C699 C695 1.385 . S
C699 C698 1.374 . S
C700 C697 1.499 . S
C700 C701 1.373 . S
C700 C702 1.389 . S
C701 H680 0.950 . S
C701 C700 1.373 . S
C701 C717 1.377 . S
C702 C700 1.389 . S
C702 C703 1.524 . S
C702 C716 1.377 . S
C703 C702 1.524 . S
C703 C704 1.397 . S
C703 C708 1.363 . S
C704 H681 0.950 . S
C704 C703 1.397 . S
C704 C705 1.334 . S
C705 H682 0.950 . S
C705 C704 1.334 . S
C705 C706 1.287 . S
C706 C705 1.287 . S
C706 C707 1.524 . S
C706 H725 0.913 . S
C707 H683 0.950 . S
C707 C706 1.524 . S
C707 C708 1.415 . S
C708 H684 0.950 . S
C708 C703 1.363 . S
C708 C707 1.415 . S
C709 H685 0.951 . S
C709 C710 1.366 . S
C709 C711 1.388 . S
C710 C709 1.366 . S
C710 C714 1.385 . S
C711 H686 0.951 . S
C711 C709 1.388 . S
C711 C712 1.366 . S
C712 C711 1.366 . S
C712 C713 1.414 . S
C712 C715 1.499 . S
C713 H687 0.950 . S
C713 C712 1.414 . S
C713 C714 1.374 . S
C714 H688 0.950 . S
C714 C710 1.385 . S
C714 C713 1.374 . S
C715 C712 1.499 . S
C715 C716 1.373 . S
C715 C717 1.389 . S
C716 H689 0.950 . S
C716 C702 1.377 . S
C716 C715 1.373 . S
C717 C701 1.377 . S
C717 C715 1.389 . S
C717 C718 1.524 . S
C718 C717 1.524 . S
C718 C719 1.397 . S
C718 C723 1.363 . S
C719 H690 0.950 . S
C719 C718 1.397 . S
C719 C720 1.334 . S
C720 H691 0.950 . S
C720 C719 1.334 . S
C720 C721 1.287 . S
C721 C720 1.287 . S
C721 C722 1.524 . S
C721 H724 0.999 . S
C722 H692 0.950 . S
C722 C721 1.524 . S
C722 C723 1.415 . S
C723 H693 0.950 . S
C723 C718 1.363 . S
C723 C722 1.415 . S
H724 C721 0.999 . S
H725 C706 0.913 . S
H726 C744 0.951 . S
H727 C746 0.951 . S
H728 C748 0.950 . S
H729 C749 0.950 . S
H730 C751 0.950 . S
H731 C754 0.950 . S
H732 C755 0.950 . S
H733 C757 0.950 . S
H734 C758 0.950 . S
H735 C759 0.951 . S
H736 C761 0.951 . S
H737 C763 0.950 . S
H738 C764 0.950 . S
H739 C766 0.950 . S
H740 C769 0.950 . S
H741 C770 0.950 . S
H742 C772 0.950 . S
H743 C773 0.950 . S
C744 H726 0.951 . S
C744 C745 1.366 . S
C744 C746 1.388 . S
C745 C744 1.366 . S
C745 C749 1.385 . S
C746 H727 0.951 . S
C746 C744 1.388 . S
C746 C747 1.366 . S
C747 C746 1.366 . S
C747 C748 1.414 . S
C747 C750 1.499 . S
C748 H728 0.950 . S
C748 C747 1.414 . S
C748 C749 1.374 . S
C749 H729 0.950 . S
C749 C745 1.385 . S
C749 C748 1.374 . S
C750 C747 1.499 . S
C750 C751 1.373 . S
C750 C752 1.389 . S
C751 H730 0.950 . S
C751 C750 1.373 . S
C751 C767 1.377 . S
C752 C750 1.389 . S
C752 C753 1.524 . S
C752 C766 1.377 . S
C753 C752 1.524 . S
C753 C754 1.397 . S
C753 C758 1.363 . S
C754 H731 0.950 . S
C754 C753 1.397 . S
C754 C755 1.334 . S
C755 H732 0.950 . S
C755 C754 1.334 . S
C755 C756 1.287 . S
C756 C755 1.287 . S
C756 C757 1.524 . S
C756 H775 0.913 . S
C757 H733 0.950 . S
C757 C756 1.524 . S
C757 C758 1.415 . S
C758 H734 0.950 . S
C758 C753 1.363 . S
C758 C757 1.415 . S
C759 H735 0.951 . S
C759 C760 1.366 . S
C759 C761 1.388 . S
C760 C759 1.366 . S
C760 C764 1.385 . S
C761 H736 0.951 . S
C761 C759 1.388 . S
C761 C762 1.366 . S
C762 C761 1.366 . S
C762 C763 1.414 . S
C762 C765 1.499 . S
C763 H737 0.950 . S
C763 C762 1.414 . S
C763 C764 1.374 . S
C764 H738 0.950 . S
C764 C760 1.385 . S
C764 C763 1.374 . S
C765 C762 1.499 . S
C765 C766 1.373 . S
C765 C767 1.389 . S
C766 H739 0.950 . S
C766 C752 1.377 . S
C766 C765 1.373 . S
C767 C751 1.377 . S
C767 C765 1.389 . S
C767 C768 1.524 . S
C768 C767 1.524 . S
C768 C769 1.397 . S
C768 C773 1.363 . S
C769 H740 0.950 . S
C769 C768 1.397 . S
C769 C770 1.334 . S
C770 H741 0.950 . S
C770 C769 1.334 . S
C770 C771 1.287 . S
C771 C770 1.287 . S
C771 C772 1.524 . S
C771 H774 0.999 . S
C772 H742 0.950 . S
C772 C771 1.524 . S
C772 C773 1.415 . S
C773 H743 0.950 . S
C773 C768 1.363 . S
C773 C772 1.415 . S
H774 C771 0.999 . S
H775 C756 0.913 . S
H776 C794 0.951 . S
H777 C796 0.951 . S
H778 C798 0.950 . S
H779 C799 0.950 . S
H780 C801 0.950 . S
H781 C804 0.950 . S
H782 C805 0.950 . S
H783 C807 0.950 1_455 S
H784 C808 0.950 . S
H785 C809 0.951 1_545 S
H786 C811 0.951 . S
H787 C813 0.950 . S
H788 C814 0.950 . S
H789 C816 0.950 . S
H790 C819 0.950 . S
H791 C820 0.950 . S
H792 C822 0.950 . S
H793 C823 0.950 . S
C794 H776 0.951 . S
C794 C795 1.366 . S
C794 C796 1.388 . S
C795 C794 1.366 . S
C795 C799 1.385 . S
C796 H777 0.951 . S
C796 C794 1.388 . S
C796 C797 1.366 . S
C797 C796 1.366 . S
C797 C798 1.414 . S
C797 C800 1.499 1_655 S
C798 H778 0.950 . S
C798 C797 1.414 . S
C798 C799 1.374 . S
C799 H779 0.950 . S
C799 C795 1.385 . S
C799 C798 1.374 . S
C800 C797 1.499 1_455 S
C800 C801 1.373 . S
C800 C802 1.389 . S
C801 H780 0.950 . S
C801 C800 1.373 . S
C801 C817 1.377 . S
C802 C800 1.389 . S
C802 C803 1.524 . S
C802 C816 1.377 . S
C803 C802 1.524 . S
C803 C804 1.397 1_455 S
C803 C808 1.363 . S
C804 H781 0.950 . S
C804 C803 1.397 1_655 S
C804 C805 1.334 . S
C805 H782 0.950 . S
C805 C804 1.334 . S
C805 C806 1.287 . S
C806 C805 1.287 . S
C806 C807 1.524 . S
C806 H825 0.913 . S
C807 H783 0.950 1_655 S
C807 C806 1.524 . S
C807 C808 1.415 1_655 S
C808 H784 0.950 . S
C808 C803 1.363 . S
C808 C807 1.415 1_455 S
C809 H785 0.951 1_565 S
C809 C810 1.366 . S
C809 C811 1.388 . S
C810 C809 1.366 . S
C810 C814 1.385 . S
C811 H786 0.951 . S
C811 C809 1.388 . S
C811 C812 1.366 . S
C812 C811 1.366 . S
C812 C813 1.414 . S
C812 C815 1.499 . S
C813 H787 0.950 . S
C813 C812 1.414 . S
C813 C814 1.374 . S
C814 H788 0.950 . S
C814 C810 1.385 . S
C814 C813 1.374 . S
C815 C812 1.499 . S
C815 C816 1.373 . S
C815 C817 1.389 . S
C816 H789 0.950 . S
C816 C802 1.377 . S
C816 C815 1.373 . S
C817 C801 1.377 . S
C817 C815 1.389 . S
C817 C818 1.524 . S
C818 C817 1.524 . S
C818 C819 1.397 . S
C818 C823 1.363 . S
C819 H790 0.950 . S
C819 C818 1.397 . S
C819 C820 1.334 . S
C820 H791 0.950 . S
C820 C819 1.334 . S
C820 C821 1.287 . S
C821 C820 1.287 . S
C821 C822 1.524 . S
C821 H824 0.999 . S
C822 H792 0.950 . S
C822 C821 1.524 . S
C822 C823 1.415 . S
C823 H793 0.950 . S
C823 C818 1.363 . S
C823 C822 1.415 . S
H824 C821 0.999 . S
H825 C806 0.913 . S
H826 C844 0.951 . S
H827 C846 0.951 . S
H828 C848 0.950 . S
H829 C849 0.950 . S
H830 C851 0.950 . S
H831 C854 0.950 . S
H832 C855 0.950 1_545 S
H833 C857 0.950 . S
H834 C858 0.950 . S
H835 C859 0.951 . S
H836 C861 0.951 . S
H837 C863 0.950 . S
H838 C864 0.950 . S
H839 C866 0.950 . S
H840 C869 0.950 . S
H841 C870 0.950 . S
H842 C872 0.950 . S
H843 C873 0.950 . S
C844 H826 0.951 . S
C844 C845 1.366 . S
C844 C846 1.388 . S
C845 C844 1.366 . S
C845 C849 1.385 . S
C846 H827 0.951 . S
C846 C844 1.388 . S
C846 C847 1.366 . S
C847 C846 1.366 . S
C847 C848 1.414 . S
C847 C850 1.499 1_545 S
C848 H828 0.950 . S
C848 C847 1.414 . S
C848 C849 1.374 . S
C849 H829 0.950 . S
C849 C845 1.385 . S
C849 C848 1.374 . S
C850 C847 1.499 1_565 S
C850 C851 1.373 . S
C850 C852 1.389 . S
C851 H830 0.950 . S
C851 C850 1.373 . S
C851 C867 1.377 . S
C852 C850 1.389 . S
C852 C853 1.524 . S
C852 C866 1.377 . S
C853 C852 1.524 . S
C853 C854 1.397 . S
C853 C858 1.363 . S
C854 H831 0.950 . S
C854 C853 1.397 . S
C854 C855 1.334 . S
C855 H832 0.950 1_565 S
C855 C854 1.334 . S
C855 C856 1.287 . S
C856 C855 1.287 . S
C856 C857 1.524 . S
C856 H875 0.913 . S
C857 H833 0.950 . S
C857 C856 1.524 . S
C857 C858 1.415 . S
C858 H834 0.950 . S
C858 C853 1.363 . S
C858 C857 1.415 . S
C859 H835 0.951 . S
C859 C860 1.366 . S
C859 C861 1.388 . S
C860 C859 1.366 . S
C860 C864 1.385 . S
C861 H836 0.951 . S
C861 C859 1.388 . S
C861 C862 1.366 . S
C862 C861 1.366 . S
C862 C863 1.414 . S
C862 C865 1.499 . S
C863 H837 0.950 . S
C863 C862 1.414 . S
C863 C864 1.374 . S
C864 H838 0.950 . S
C864 C860 1.385 . S
C864 C863 1.374 . S
C865 C862 1.499 . S
C865 C866 1.373 . S
C865 C867 1.389 . S
C866 H839 0.950 . S
C866 C852 1.377 . S
C866 C865 1.373 . S
C867 C851 1.377 . S
C867 C865 1.389 . S
C867 C868 1.524 . S
C868 C867 1.524 . S
C868 C869 1.397 . S
C868 C873 1.363 . S
C869 H840 0.950 . S
C869 C868 1.397 . S
C869 C870 1.334 . S
C870 H841 0.950 . S
C870 C869 1.334 . S
C870 C871 1.287 . S
C871 C870 1.287 . S
C871 C872 1.524 . S
C871 H874 0.999 . S
C872 H842 0.950 . S
C872 C871 1.524 . S
C872 C873 1.415 . S
C873 H843 0.950 . S
C873 C868 1.363 . S
C873 C872 1.415 . S
H874 C871 0.999 . S
H875 C856 0.913 . S
H876 C894 0.951 . S
H877 C896 0.951 . S
H878 C898 0.950 . S
H879 C899 0.950 . S
H880 C901 0.950 . S
H881 C904 0.950 . S
H882 C905 0.950 . S
H883 C907 0.950 . S
H884 C908 0.950 . S
H885 C909 0.951 . S
H886 C911 0.951 . S
H887 C913 0.950 . S
H888 C914 0.950 . S
H889 C916 0.950 . S
H890 C919 0.950 . S
H891 C920 0.950 . S
H892 C922 0.950 . S
H893 C923 0.950 . S
C894 H876 0.951 . S
C894 C895 1.366 . S
C894 C896 1.388 . S
C895 C894 1.366 . S
C895 C899 1.385 . S
C896 H877 0.951 . S
C896 C894 1.388 . S
C896 C897 1.366 . S
C897 C896 1.366 . S
C897 C898 1.414 . S
C897 C900 1.499 . S
C898 H878 0.950 . S
C898 C897 1.414 . S
C898 C899 1.374 . S
C899 H879 0.950 . S
C899 C895 1.385 . S
C899 C898 1.374 . S
C900 C897 1.499 . S
C900 C901 1.373 . S
C900 C902 1.389 . S
C901 H880 0.950 . S
C901 C900 1.373 . S
C901 C917 1.377 . S
C902 C900 1.389 . S
C902 C903 1.524 . S
C902 C916 1.377 . S
C903 C902 1.524 . S
C903 C904 1.397 . S
C903 C908 1.363 . S
C904 H881 0.950 . S
C904 C903 1.397 . S
C904 C905 1.334 . S
C905 H882 0.950 . S
C905 C904 1.334 . S
C905 C906 1.287 . S
C906 C905 1.287 . S
C906 C907 1.524 . S
C906 H925 0.913 . S
C907 H883 0.950 . S
C907 C906 1.524 . S
C907 C908 1.415 . S
C908 H884 0.950 . S
C908 C903 1.363 . S
C908 C907 1.415 . S
C909 H885 0.951 . S
C909 C910 1.366 . S
C909 C911 1.388 . S
C910 C909 1.366 . S
C910 C914 1.385 . S
C911 H886 0.951 . S
C911 C909 1.388 . S
C911 C912 1.366 . S
C912 C911 1.366 . S
C912 C913 1.414 . S
C912 C915 1.499 . S
C913 H887 0.950 . S
C913 C912 1.414 . S
C913 C914 1.374 . S
C914 H888 0.950 . S
C914 C910 1.385 . S
C914 C913 1.374 . S
C915 C912 1.499 . S
C915 C916 1.373 . S
C915 C917 1.389 . S
C916 H889 0.950 . S
C916 C902 1.377 . S
C916 C915 1.373 . S
C917 C901 1.377 . S
C917 C915 1.389 . S
C917 C918 1.524 . S
C918 C917 1.524 . S
C918 C919 1.397 . S
C918 C923 1.363 . S
C919 H890 0.950 . S
C919 C918 1.397 . S
C919 C920 1.334 . S
C920 H891 0.950 . S
C920 C919 1.334 . S
C920 C921 1.287 . S
C921 C920 1.287 . S
C921 C922 1.524 . S
C921 H924 0.999 . S
C922 H892 0.950 . S
C922 C921 1.524 . S
C922 C923 1.415 . S
C923 H893 0.950 . S
C923 C918 1.363 . S
C923 C922 1.415 . S
H924 C921 0.999 . S
H925 C906 0.913 . S
H926 C944 0.951 . S
H927 C946 0.951 . S
H928 C948 0.950 . S
H929 C949 0.950 . S
H930 C951 0.950 . S
H931 C954 0.950 . S
H932 C955 0.950 . S
H933 C957 0.950 . S
H934 C958 0.950 . S
H935 C959 0.951 . S
H936 C961 0.951 . S
H937 C963 0.950 . S
H938 C964 0.950 . S
H939 C966 0.950 . S
H940 C969 0.950 . S
H941 C970 0.950 . S
H942 C972 0.950 . S
H943 C973 0.950 . S
C944 H926 0.951 . S
C944 C945 1.366 . S
C944 C946 1.388 . S
C945 C944 1.366 . S
C945 C949 1.385 . S
C946 H927 0.951 . S
C946 C944 1.388 . S
C946 C947 1.366 . S
C947 C946 1.366 . S
C947 C948 1.414 . S
C947 C950 1.499 1_455 S
C948 H928 0.950 . S
C948 C947 1.414 . S
C948 C949 1.374 . S
C949 H929 0.950 . S
C949 C945 1.385 . S
C949 C948 1.374 . S
C950 C947 1.499 1_655 S
C950 C951 1.373 . S
C950 C952 1.389 . S
C951 H930 0.950 . S
C951 C950 1.373 . S
C951 C967 1.377 . S
C952 C950 1.389 . S
C952 C953 1.522 1_655 S
C952 C966 1.377 . S
C953 C952 1.522 1_455 S
C953 C954 1.410 . S
C953 C958 1.351 1_455 S
C954 H931 0.950 . S
C954 C953 1.410 . S
C954 C955 1.334 . S
C955 H932 0.950 . S
C955 C954 1.334 . S
C955 C956 1.287 . S
C956 C955 1.287 . S
C956 C957 1.524 . S
C956 H975 0.913 1_565 S
C957 H933 0.950 . S
C957 C956 1.524 . S
C957 C958 1.415 1_455 S
C958 H934 0.950 . S
C958 C953 1.351 1_655 S
C958 C957 1.415 1_655 S
C959 H935 0.951 . S
C959 C960 1.366 . S
C959 C961 1.388 . S
C960 C959 1.366 . S
C960 C964 1.385 . S
C961 H936 0.951 . S
C961 C959 1.388 . S
C961 C962 1.366 . S
C962 C961 1.366 . S
C962 C963 1.414 . S
C962 C965 1.499 . S
C963 H937 0.950 . S
C963 C962 1.414 . S
C963 C964 1.374 . S
C964 H938 0.950 . S
C964 C960 1.385 . S
C964 C963 1.374 . S
C965 C962 1.499 . S
C965 C966 1.373 . S
C965 C967 1.389 . S
C966 H939 0.950 . S
C966 C952 1.377 . S
C966 C965 1.373 . S
C967 C951 1.377 . S
C967 C965 1.389 . S
C967 C968 1.524 . S
C968 C967 1.524 . S
C968 C969 1.397 . S
C968 C973 1.363 . S
C969 H940 0.950 . S
C969 C968 1.397 . S
C969 C970 1.334 . S
C970 H941 0.950 . S
C970 C969 1.334 . S
C970 C971 1.287 . S
C971 C970 1.287 . S
C971 C972 1.524 . S
C971 H974 0.999 . S
C972 H942 0.950 . S
C972 C971 1.524 . S
C972 C973 1.415 . S
C973 H943 0.950 . S
C973 C968 1.363 . S
C973 C972 1.415 . S
H974 C971 0.999 . S
H975 C956 0.913 1_545 S
H976 C994 0.951 . S
H977 C996 0.951 . S
H978 C998 0.950 . S
H979 C999 0.950 1_455 S
H980 C1001 0.950 . S
H981 C1004 0.950 . S
H982 C1005 0.950 . S
H983 C1007 0.950 . S
H984 C1008 0.950 . S
H985 C1009 0.951 . S
H986 C1011 0.951 . S
H987 C1013 0.950 . S
H988 C1014 0.950 . S
H989 C1016 0.950 . S
H990 C1019 0.950 . S
H991 C1020 0.950 . S
H992 C1022 0.950 . S
H993 C1023 0.950 . S
C994 H976 0.951 . S
C994 C995 1.366 . S
C994 C996 1.388 . S
C995 C994 1.366 . S
C995 C999 1.385 . S
C996 H977 0.951 . S
C996 C994 1.388 . S
C996 C997 1.366 . S
C997 C996 1.366 . S
C997 C998 1.414 . S
C997 C1000 1.499 . S
C998 H978 0.950 . S
C998 C997 1.414 . S
C998 C999 1.374 . S
C999 H979 0.950 1_655 S
C999 C995 1.385 . S
C999 C998 1.374 . S
C1000 C997 1.499 . S
C1000 C1001 1.373 . S
C1000 C1002 1.389 . S
C1001 H980 0.950 . S
C1001 C1000 1.373 . S
C1001 C1017 1.377 . S
C1002 C1000 1.389 . S
C1002 C1003 1.524 . S
C1002 C1016 1.377 . S
C1003 C1002 1.524 . S
C1003 C1004 1.397 . S
C1003 C1008 1.363 . S
C1004 H981 0.950 . S
C1004 C1003 1.397 . S
C1004 C1005 1.334 . S
C1005 H982 0.950 . S
C1005 C1004 1.334 . S
C1005 C1006 1.287 . S
C1006 C1005 1.287 . S
C1006 C1007 1.524 . S
C1006 H1025 0.913 . S
C1007 H983 0.950 . S
C1007 C1006 1.524 . S
C1007 C1008 1.415 . S
C1008 H984 0.950 . S
C1008 C1003 1.363 . S
C1008 C1007 1.415 . S
C1009 H985 0.951 . S
C1009 C1010 1.366 . S
C1009 C1011 1.388 . S
C1010 C1009 1.366 . S
C1010 C1014 1.385 . S
C1011 H986 0.951 . S
C1011 C1009 1.388 . S
C1011 C1012 1.366 . S
C1012 C1011 1.366 . S
C1012 C1013 1.414 . S
C1012 C1015 1.499 1_565 S
C1013 H987 0.950 . S
C1013 C1012 1.414 . S
C1013 C1014 1.374 . S
C1014 H988 0.950 . S
C1014 C1010 1.385 . S
C1014 C1013 1.374 . S
C1015 C1012 1.499 1_545 S
C1015 C1016 1.373 . S
C1015 C1017 1.389 . S
C1016 H989 0.950 . S
C1016 C1002 1.377 . S
C1016 C1015 1.373 . S
C1017 C1001 1.377 . S
C1017 C1015 1.389 . S
C1017 C1018 1.524 . S
C1018 C1017 1.524 . S
C1018 C1019 1.397 1_545 S
C1018 C1023 1.363 . S
C1019 H990 0.950 . S
C1019 C1018 1.397 1_565 S
C1019 C1020 1.334 . S
C1020 H991 0.950 . S
C1020 C1019 1.334 . S
C1020 C1021 1.287 . S
C1021 C1020 1.287 . S
C1021 C1022 1.524 . S
C1021 H1024 0.999 . S
C1022 H992 0.950 . S
C1022 C1021 1.524 . S
C1022 C1023 1.415 1_565 S
C1023 H993 0.950 . S
C1023 C1018 1.363 . S
C1023 C1022 1.415 1_545 S
H1024 C1021 0.999 . S
H1025 C1006 0.913 . S
C145 C88 1.440 . S
C160 C7 1.439 . S
C195 C112 1.506 . S
C210 C25 1.507 . S
C245 C49 1.439 . S
C260 C70 1.440 . S
C295 C4 1.506 . S
C310 C91 1.507 . S
C345 C109 1.440 . S
C360 C28 1.440 . S
C395 C46 1.506 . S
C410 C67 1.506 . S
C445 C3 0.867 . S
C460 C62 0.963 . S
C495 C24 0.868 . S
C510 C20 0.962 . S
C545 C45 0.867 . S
C560 C41 0.964 . S
C595 C66 0.868 . S
C610 C103 0.962 . S
C645 C100 0.867 . S
C660 C124 0.964 . S
C695 C83 0.964 . S
C710 C121 0.865 . S
C745 C19 0.789 . S
C760 C58 0.773 . S
C795 C40 0.789 . S
C810 C16 0.774 . S
C845 C61 0.788 . S
C860 C37 0.769 . S
C895 C82 0.790 . S
C910 C87 0.772 . S
C945 C104 0.790 . S
C960 C108 0.767 . S
C995 C79 0.775 . S
C1010 C125 0.788 . S
