# Generated by pormake.
# Topology zfn, (5)-cn, num edge types: 1
# Building blocks:
#     Node 0, Type 0, BuildingBlock: XOMCOT_clean_sbu_0, # of connection points: 5
#     Node 1, Type 0, BuildingBlock: XOMCOT_clean_sbu_0, # of connection points: 5
#     Node 2, Type 0, BuildingBlock: XOMCOT_clean_sbu_0, # of connection points: 5
#     Node 3, Type 0, BuildingBlock: XOMCOT_clean_sbu_0, # of connection points: 5
#     Node 4, Type 0, BuildingBlock: XOMCOT_clean_sbu_0, # of connection points: 5
#     Node 5, Type 0, BuildingBlock: XOMCOT_clean_sbu_0, # of connection points: 5
#     Node 6, Type 0, BuildingBlock: XOMCOT_clean_sbu_0, # of connection points: 5
#     Node 7, Type 0, BuildingBlock: XOMCOT_clean_sbu_0, # of connection points: 5
#     Node 8, Type 0, BuildingBlock: XOMCOT_clean_sbu_0, # of connection points: 5
#     Node 9, Type 0, BuildingBlock: XOMCOT_clean_sbu_0, # of connection points: 5
#     Node 10, Type 0, BuildingBlock: XOMCOT_clean_sbu_0, # of connection points: 5
#     Node 11, Type 0, BuildingBlock: XOMCOT_clean_sbu_0, # of connection points: 5
#     Node 12, Type 0, BuildingBlock: XOMCOT_clean_sbu_0, # of connection points: 5
#     Node 13, Type 0, BuildingBlock: XOMCOT_clean_sbu_0, # of connection points: 5
#     Node 14, Type 0, BuildingBlock: XOMCOT_clean_sbu_0, # of connection points: 5
#     Node 15, Type 0, BuildingBlock: XOMCOT_clean_sbu_0, # of connection points: 5
#     Edge 16, Type (0, 0), None
#     Edge 17, Type (0, 0), None
#     Edge 18, Type (0, 0), None
#     Edge 19, Type (0, 0), None
#     Edge 20, Type (0, 0), None
#     Edge 21, Type (0, 0), None
#     Edge 22, Type (0, 0), None
#     Edge 23, Type (0, 0), None
#     Edge 24, Type (0, 0), None
#     Edge 25, Type (0, 0), None
#     Edge 26, Type (0, 0), None
#     Edge 27, Type (0, 0), None
#     Edge 28, Type (0, 0), None
#     Edge 29, Type (0, 0), None
#     Edge 30, Type (0, 0), None
#     Edge 31, Type (0, 0), None
#     Edge 32, Type (0, 0), None
#     Edge 33, Type (0, 0), None
#     Edge 34, Type (0, 0), None
#     Edge 35, Type (0, 0), None
#     Edge 36, Type (0, 0), None
#     Edge 37, Type (0, 0), None
#     Edge 38, Type (0, 0), None
#     Edge 39, Type (0, 0), None
#     Edge 40, Type (0, 0), None
#     Edge 41, Type (0, 0), None
#     Edge 42, Type (0, 0), None
#     Edge 43, Type (0, 0), None
#     Edge 44, Type (0, 0), None
#     Edge 45, Type (0, 0), None
#     Edge 46, Type (0, 0), None
#     Edge 47, Type (0, 0), None
#     Edge 48, Type (0, 0), None
#     Edge 49, Type (0, 0), None
#     Edge 50, Type (0, 0), None
#     Edge 51, Type (0, 0), None
#     Edge 52, Type (0, 0), None
#     Edge 53, Type (0, 0), None
#     Edge 54, Type (0, 0), None
#     Edge 55, Type (0, 0), None
# Relax obj value: 0.131
# Max RMSD: 0.135
# Mean RMSD: 0.135
data_MOF--net-zfn--node1-XOMCOT_clean_sbu_0--edge1-none
_symmetry_space_group_name_H-M    P1
_symmetry_Int_Tables_number       1
_symmetry_cell_setting            triclinic
loop_
_symmetry_equiv_pos_as_xyz
'x, y, z'
_cell_length_a     36.200291
_cell_length_b     36.200423
_cell_length_c     9.3374954
_cell_angle_alpha  90.001153
_cell_angle_beta   90.000725
_cell_angle_gamma 89.999936
loop_
_atom_site_label
_atom_site_type_symbol
_atom_site_fract_x
_atom_site_fract_y
_atom_site_fract_z
_atom_type_partial_charge
Co0 Co 0.04838 0.33415 0.12595 0.0
C1 C 0.03577 0.33955 0.43669 0.0
C2 C 0.09048 0.35613 0.37805 0.0
C3 C 0.0897 0.34999 0.52383 0.0
N4 N 0.05664 0.34969 0.32271 0.0
N5 N 0.0553 0.33931 0.55934 0.0
H6 H 0.00842 0.32805 0.42867 0.0
H7 H 0.11512 0.36007 0.31465 0.0
C8 C 0.09113 0.40476 0.07008 0.0
O9 O 0.07068 0.42194 0.16521 0.0
N10 N 0.04068 0.31822 0.93038 0.0
C11 C 1.00797 0.30815 0.87318 0.0
C12 C 0.00972 0.3123 0.72632 0.0
C13 C 0.06214 0.3275 0.81744 0.0
N14 N 0.04368 0.32492 0.69272 0.0
C15 C 0.97682 0.36493 0.17999 0.0
C16 C 0.98115 0.4244 0.99606 0.0
C17 C 0.95051 0.42199 0.08858 0.0
C18 C 0.94785 0.3902 0.17456 0.0
C19 C 0.00874 0.39718 0.99993 0.0
N20 N 1.00812 0.36988 0.10121 0.0
H21 H 0.97351 0.34095 0.24653 0.0
H22 H 0.03086 0.39867 0.92281 0.0
H23 H 0.98343 0.3019 0.93465 0.0
H24 H 0.08957 0.33897 0.82641 0.0
O25 O 0.01955 0.29301 0.19696 0.0
O26 O 0.08016 0.29174 0.16699 0.0
O27 O 0.08725 0.37009 0.05084 0.0
C28 C 0.05047 0.27553 0.21512 0.0
H29 H 0.11331 0.34986 0.59467 0.0
H30 H 0.98701 0.30887 0.65225 0.0
H31 H 0.98453 0.44723 0.92268 0.0
H32 H 0.92365 0.38442 0.23854 0.0
Co33 Co 0.18219 0.04838 0.62595 0.0
C34 C 0.17679 0.03577 0.9367 0.0
C35 C 0.16022 0.09048 0.87805 0.0
C36 C 0.16635 0.08971 0.02383 0.0
N37 N 0.16666 0.05665 0.82271 0.0
N38 N 0.17704 0.05531 0.05935 0.0
H39 H 0.1883 0.00843 0.92868 0.0
H40 H 0.15627 0.11512 0.81466 0.0
C41 C 0.11158 0.09113 0.57008 0.0
O42 O 0.0944 0.07068 0.66521 0.0
N43 N 0.19812 0.04069 0.43039 0.0
C44 C 0.20819 1.00798 0.37319 0.0
C45 C 0.20404 0.00972 0.22632 0.0
C46 C 0.18884 0.06215 0.31745 0.0
N47 N 0.19143 0.04368 0.19272 0.0
C48 C 0.15141 0.97683 0.68 0.0
C49 C 0.09195 0.98115 0.49606 0.0
C50 C 0.09436 0.95051 0.58858 0.0
C51 C 0.12615 0.94785 0.67457 0.0
C52 C 0.11916 0.00874 0.49994 0.0
N53 N 0.14646 1.00812 0.60122 0.0
H54 H 0.1754 0.97352 0.74654 0.0
H55 H 0.11767 0.03086 0.42281 0.0
H56 H 0.21444 0.98344 0.43466 0.0
H57 H 0.17737 0.08957 0.32641 0.0
O58 O 0.22334 0.01956 0.69696 0.0
O59 O 0.22461 0.08016 0.66699 0.0
O60 O 0.14625 0.08725 0.55084 0.0
C61 C 0.24081 0.05048 0.71512 0.0
H62 H 0.16648 0.11331 0.09467 0.0
H63 H 0.20747 0.98702 0.15226 0.0
H64 H 0.06911 0.98453 0.42269 0.0
H65 H 0.13193 0.92365 0.73854 0.0
Co66 Co 0.46797 0.18219 0.12595 0.0
C67 C 0.48058 0.17679 0.4367 0.0
C68 C 0.42587 0.16021 0.37805 0.0
C69 C 0.42664 0.16635 0.52383 0.0
N70 N 0.4597 0.16666 0.32272 0.0
N71 N 0.46104 0.17704 0.55935 0.0
H72 H 0.50792 0.18829 0.42868 0.0
H73 H 0.40123 0.15627 0.31465 0.0
C74 C 0.42521 0.11158 0.07008 0.0
O75 O 0.44567 0.0944 0.16521 0.0
N76 N 0.47566 0.19812 0.9304 0.0
C77 C 0.50837 0.20819 0.8732 0.0
C78 C 0.50663 0.20404 0.72633 0.0
C79 C 0.4542 0.18884 0.81745 0.0
N80 N 0.47267 0.19143 0.69273 0.0
C81 C 0.53952 0.15141 0.18001 0.0
C82 C 0.5352 0.09195 0.99606 0.0
C83 C 0.56584 0.09436 0.08858 0.0
C84 C 0.5685 0.12614 0.17458 0.0
C85 C 0.50761 0.11916 0.99994 0.0
N86 N 0.50823 0.14646 0.10122 0.0
H87 H 0.54284 0.1754 0.24655 0.0
H88 H 0.48549 0.11767 0.92281 0.0
H89 H 0.53291 0.21444 0.93467 0.0
H90 H 0.42678 0.17737 0.82641 0.0
O91 O 0.49679 0.22334 0.19697 0.0
O92 O 0.43619 0.22461 0.167 0.0
O93 O 0.4291 0.14626 0.05084 0.0
C94 C 0.46587 0.24081 0.21513 0.0
H95 H 0.40304 0.16648 0.59467 0.0
H96 H 0.52934 0.20747 0.65227 0.0
H97 H 0.53182 0.06911 0.92268 0.0
H98 H 0.5927 0.13193 0.23855 0.0
Co99 Co 0.33416 0.46796 0.62596 0.0
C100 C 0.33955 0.48057 0.9367 0.0
C101 C 0.35613 0.42586 0.87805 0.0
C102 C 0.35 0.42664 0.02383 0.0
N103 N 0.34969 0.4597 0.82272 0.0
N104 N 0.33931 0.46104 0.05935 0.0
H105 H 0.32805 0.50791 0.92869 0.0
H106 H 0.36008 0.40122 0.81465 0.0
C107 C 0.40476 0.42521 0.57008 0.0
O108 O 0.42195 0.44566 0.66522 0.0
N109 N 0.31823 0.47566 0.43039 0.0
C110 C 0.30815 0.50836 0.3732 0.0
C111 C 0.3123 0.50662 0.22633 0.0
C112 C 0.3275 0.45419 0.31745 0.0
N113 N 0.32492 0.47266 0.19273 0.0
C114 C 0.36493 0.53952 0.68001 0.0
C115 C 0.42439 0.53519 0.49606 0.0
C116 C 0.42198 0.56583 0.58858 0.0
C117 C 0.3902 0.56849 0.67457 0.0
C118 C 0.39718 0.5076 0.49994 0.0
N119 N 0.36988 0.50822 0.60122 0.0
H120 H 0.34095 0.54283 0.74655 0.0
H121 H 0.39867 0.48548 0.42281 0.0
H122 H 0.3019 0.5329 0.43467 0.0
H123 H 0.33898 0.42677 0.32641 0.0
O124 O 0.29301 0.49678 0.69697 0.0
O125 O 0.29174 0.43618 0.66699 0.0
O126 O 0.37009 0.42909 0.55084 0.0
C127 C 0.27553 0.46587 0.71513 0.0
H128 H 0.34987 0.40303 0.09467 0.0
H129 H 0.30887 0.52933 0.15227 0.0
H130 H 0.44723 0.53181 0.42268 0.0
H131 H 0.38442 0.59269 0.73855 0.0
Co132 Co 0.05031 0.18178 0.38407 0.0
C133 C 0.03895 0.18044 0.07257 0.0
C134 C 0.0896 0.15385 0.12973 0.0
C135 C 0.08991 0.16077 0.98401 0.0
N136 N 0.05746 0.16608 0.18599 0.0
N137 N 0.058 0.17768 0.95 0.0
H138 H 0.01392 0.19646 0.08079 0.0
H139 H 0.11294 0.14448 0.19191 0.0
C140 C 0.08948 0.11086 0.4608 0.0
O141 O 0.06542 0.09214 0.38475 0.0
N142 N 0.04431 0.19863 0.57943 0.0
C143 C 0.01272 0.21159 0.63712 0.0
C144 C 0.01481 0.20833 0.78398 0.0
C145 C 0.0657 0.18888 0.69206 0.0
N146 N 0.0479 0.19343 0.81719 0.0
C147 C 0.98389 0.14196 0.31225 0.0
C148 C 0.97832 0.09997 0.55757 0.0
C149 C 0.9522 0.09428 0.44799 0.0
C150 C 0.95574 0.11598 0.32401 0.0
C151 C 1.00712 0.12551 0.53874 0.0
N152 N 0.01046 0.14551 0.41471 0.0
H153 H 0.98373 0.15931 0.21976 0.0
H154 H 0.02709 0.12847 0.62364 0.0
H155 H 0.98838 0.21908 0.57653 0.0
H156 H 0.09217 0.17538 0.68314 0.0
O157 O 0.02039 0.22244 0.31662 0.0
O158 O 0.08131 0.22436 0.33834 0.0
O159 O 0.08973 0.14612 0.45658 0.0
C160 C 0.05099 0.24034 0.29509 0.0
H161 H 0.11282 0.15651 0.91199 0.0
H162 H 0.99252 0.21352 0.8584 0.0
H163 H 0.97684 0.08506 0.65769 0.0
H164 H 0.93728 0.11311 0.23382 0.0
Co165 Co 0.33457 0.05032 0.88407 0.0
C166 C 0.33591 0.03895 0.57257 0.0
C167 C 0.3625 0.0896 0.62974 0.0
C168 C 0.35557 0.08991 0.48402 0.0
N169 N 0.35027 0.05747 0.68599 0.0
N170 N 0.33866 0.058 0.45 0.0
H171 H 0.31988 0.01393 0.58078 0.0
H172 H 0.37187 0.11294 0.69192 0.0
C173 C 0.40549 0.08949 0.9608 0.0
O174 O 0.42421 0.06542 0.88475 0.0
N175 N 0.31771 0.04431 0.07943 0.0
C176 C 0.30475 0.01272 0.13712 0.0
C177 C 0.30802 0.01482 0.28398 0.0
C178 C 0.32746 0.06571 0.19206 0.0
N179 N 0.32291 0.0479 0.31719 0.0
C180 C 0.37438 0.9839 0.81225 0.0
C181 C 0.41637 0.97832 0.05757 0.0
C182 C 0.42206 0.9522 0.94799 0.0
C183 C 0.40036 0.95575 0.82401 0.0
C184 C 0.39083 1.00712 0.03874 0.0
N185 N 0.37084 0.01046 0.91471 0.0
H186 H 0.35703 0.98373 0.71975 0.0
H187 H 0.38788 0.02709 0.12364 0.0
H188 H 0.29726 0.98839 0.07652 0.0
H189 H 0.34096 0.09218 0.18314 0.0
O190 O 0.29391 0.0204 0.81662 0.0
O191 O 0.29198 0.08132 0.83835 0.0
O192 O 0.37022 0.08973 0.95659 0.0
C193 C 0.276 0.051 0.79509 0.0
H194 H 0.35984 0.11282 0.41199 0.0
H195 H 0.30282 0.99253 0.35839 0.0
H196 H 0.43128 0.97684 0.15769 0.0
H197 H 0.40323 0.93728 0.73381 0.0
Co198 Co 0.46603 0.33457 0.38408 0.0
C199 C 0.4774 0.33591 0.07258 0.0
C200 C 0.42674 0.36249 0.12974 0.0
C201 C 0.42644 0.35557 0.98402 0.0
N202 N 0.45888 0.35027 0.186 0.0
N203 N 0.45835 0.33866 0.95001 0.0
H204 H 0.50242 0.31988 0.08079 0.0
H205 H 0.40341 0.37186 0.19192 0.0
C206 C 0.42686 0.40548 0.46081 0.0
O207 O 0.45093 0.42421 0.38477 0.0
N208 N 0.47204 0.31771 0.57944 0.0
C209 C 0.50363 0.30475 0.63712 0.0
C210 C 0.50153 0.30802 0.78399 0.0
C211 C 0.45064 0.32746 0.69207 0.0
N212 N 0.46845 0.32291 0.81719 0.0
C213 C 0.53245 0.37438 0.31226 0.0
C214 C 0.53803 0.41638 0.55757 0.0
C215 C 0.56415 0.42206 0.448 0.0
C216 C 0.5606 0.40036 0.32401 0.0
C217 C 0.50923 0.39084 0.53875 0.0
N218 N 0.50589 0.37084 0.41471 0.0
H219 H 0.53262 0.35703 0.21977 0.0
H220 H 0.48926 0.38788 0.62364 0.0
H221 H 0.52796 0.29726 0.57653 0.0
H222 H 0.42417 0.34096 0.68314 0.0
O223 O 0.49595 0.29391 0.31663 0.0
O224 O 0.43503 0.29198 0.33835 0.0
O225 O 0.42661 0.37022 0.45659 0.0
C226 C 0.46535 0.276 0.2951 0.0
H227 H 0.40353 0.35983 0.91199 0.0
H228 H 0.52382 0.30282 0.8584 0.0
H229 H 0.53951 0.43129 0.6577 0.0
H230 H 0.57907 0.40322 0.23382 0.0
Co231 Co 0.18178 0.46603 0.88407 0.0
C232 C 0.18044 0.47739 0.57257 0.0
C233 C 0.15385 0.42674 0.62973 0.0
C234 C 0.16077 0.42643 0.48401 0.0
N235 N 0.16608 0.45887 0.68599 0.0
N236 N 0.17768 0.45834 0.45 0.0
H237 H 0.19646 0.50241 0.58079 0.0
H238 H 0.14448 0.4034 0.69191 0.0
C239 C 0.11086 0.42685 0.9608 0.0
O240 O 0.09214 0.45092 0.88475 0.0
N241 N 0.19863 0.47203 0.07943 0.0
C242 C 0.21159 0.50362 0.13713 0.0
C243 C 0.20833 0.50152 0.28399 0.0
C244 C 0.18888 0.45063 0.19206 0.0
N245 N 0.19343 0.46844 0.31719 0.0
C246 C 0.14196 0.53244 0.81226 0.0
C247 C 0.09997 0.53802 0.05757 0.0
C248 C 0.09428 0.56414 0.948 0.0
C249 C 0.11598 0.56059 0.82401 0.0
C250 C 0.12551 0.50922 0.03874 0.0
N251 N 0.14551 0.50588 0.91471 0.0
H252 H 0.15931 0.53261 0.71976 0.0
H253 H 0.12846 0.48925 0.12364 0.0
H254 H 0.21908 0.52795 0.07654 0.0
H255 H 0.17538 0.42416 0.18314 0.0
O256 O 0.22244 0.49594 0.81663 0.0
O257 O 0.22436 0.43502 0.83835 0.0
O258 O 0.14612 0.42661 0.95658 0.0
C259 C 0.24034 0.46534 0.79509 0.0
H260 H 0.15651 0.40352 0.41198 0.0
H261 H 0.21353 0.52381 0.35841 0.0
H262 H 0.08506 0.5395 0.15769 0.0
H263 H 0.11312 0.57906 0.73382 0.0
Co264 Co 0.96797 0.68219 0.92155 0.0
C265 C 0.98058 0.67679 0.6108 0.0
C266 C 0.92587 0.66022 0.66944 0.0
C267 C 0.92664 0.66635 0.52367 0.0
N268 N 0.9597 0.66666 0.72478 0.0
N269 N 0.96104 0.67704 0.48815 0.0
H270 H 1.00792 0.68829 0.61882 0.0
H271 H 0.90122 0.65627 0.73284 0.0
C272 C 0.92521 0.61158 0.97742 0.0
O273 O 0.94567 0.5944 0.88229 0.0
N274 N 0.97567 0.69812 0.11711 0.0
C275 C 0.00837 0.70819 0.17431 0.0
C276 C 1.00663 0.70404 0.32118 0.0
C277 C 0.9542 0.68885 0.23005 0.0
N278 N 0.97267 0.69143 0.35478 0.0
C279 C 0.03952 0.65141 0.8675 0.0
C280 C 0.0352 0.59195 0.05144 0.0
C281 C 0.06584 0.59436 0.95892 0.0
C282 C 0.0685 0.62614 0.87293 0.0
C283 C 1.00761 0.61916 0.04756 0.0
N284 N 0.00823 0.64646 0.94628 0.0
H285 H 0.04284 0.6754 0.80096 0.0
H286 H 0.98549 0.61767 0.12469 0.0
H287 H 0.03291 0.71444 0.11284 0.0
H288 H 0.92678 0.67737 0.22109 0.0
O289 O 0.99679 0.72334 0.85054 0.0
O290 O 0.93619 0.72461 0.88051 0.0
O291 O 0.9291 0.64626 0.99666 0.0
C292 C 0.96588 0.74081 0.83238 0.0
H293 H 0.90304 0.66648 0.45283 0.0
H294 H 0.02934 0.70747 0.39524 0.0
H295 H 0.03182 0.56911 0.12482 0.0
H296 H 0.0927 0.63192 0.80896 0.0
Co297 Co 0.83416 0.96796 0.42155 0.0
C298 C 0.83955 0.98057 0.1108 0.0
C299 C 0.85613 0.92586 0.16944 0.0
C300 C 0.85 0.92663 1.02366 0.0
N301 N 0.84969 0.95969 0.22478 0.0
N302 N 0.83931 0.96103 0.98815 0.0
H303 H 0.82805 1.00791 0.11882 0.0
H304 H 0.86008 0.90122 0.23284 0.0
C305 C 0.90476 0.92521 0.47742 0.0
O306 O 0.92195 0.94566 0.38229 0.0
N307 N 0.81823 0.97566 0.61711 0.0
C308 C 0.80815 0.00836 0.67431 0.0
C309 C 0.8123 1.00662 0.82117 0.0
C310 C 0.8275 0.95419 0.73005 0.0
N311 N 0.82492 0.97266 0.85477 0.0
C312 C 0.86493 0.03952 0.3675 0.0
C313 C 0.9244 0.03519 0.55144 0.0
C314 C 0.92199 0.06583 0.45891 0.0
C315 C 0.8902 0.06849 0.37293 0.0
C316 C 0.89719 1.0076 0.54756 0.0
N317 N 0.86988 0.00822 0.44628 0.0
H318 H 0.84095 0.04283 0.30096 0.0
H319 H 0.89868 0.98548 0.62468 0.0
H320 H 0.80191 0.0329 0.61284 0.0
H321 H 0.83898 0.92677 0.72109 0.0
O322 O 0.79301 0.99678 0.35054 0.0
O323 O 0.79174 0.93618 0.3805 0.0
O324 O 0.87009 0.92909 0.49666 0.0
C325 C 0.77553 0.96587 0.33237 0.0
H326 H 0.84986 0.90303 0.95283 0.0
H327 H 0.80887 0.02933 0.89524 0.0
H328 H 0.94724 0.03182 0.62481 0.0
H329 H 0.88441 0.09269 0.30896 0.0
Co330 Co 0.54838 0.83416 0.92154 0.0
C331 C 0.53577 0.83955 0.6108 0.0
C332 C 0.59048 0.85613 0.66944 0.0
C333 C 0.5897 0.85 0.52366 0.0
N334 N 0.55664 0.84968 0.72478 0.0
N335 N 0.5553 0.83931 0.48815 0.0
H336 H 0.50842 0.82805 0.61881 0.0
H337 H 0.61512 0.86008 0.73285 0.0
C338 C 0.59113 0.90476 0.97742 0.0
O339 O 0.57068 0.92194 0.88229 0.0
N340 N 0.54068 0.81823 0.1171 0.0
C341 C 0.50797 0.80815 0.1743 0.0
C342 C 0.50972 0.8123 0.32116 0.0
C343 C 0.56214 0.8275 0.23005 0.0
N344 N 0.54368 0.82492 0.35477 0.0
C345 C 0.47682 0.86493 0.86749 0.0
C346 C 0.48115 0.9244 0.05144 0.0
C347 C 0.45051 0.92199 0.95891 0.0
C348 C 0.44784 0.8902 0.87292 0.0
C349 C 0.50874 0.89718 0.04756 0.0
N350 N 0.50812 0.86988 0.94628 0.0
H351 H 0.47351 0.84095 0.80095 0.0
H352 H 0.53086 0.89867 0.12469 0.0
H353 H 0.48343 0.8019 0.11283 0.0
H354 H 0.58957 0.83898 0.22109 0.0
O355 O 0.51955 0.79301 0.85053 0.0
O356 O 0.58016 0.79174 0.8805 0.0
O357 O 0.58725 0.87009 0.99666 0.0
C358 C 0.55047 0.77553 0.83237 0.0
H359 H 0.61331 0.84986 0.45283 0.0
H360 H 0.48701 0.80887 0.39523 0.0
H361 H 0.48453 0.94723 0.12482 0.0
H362 H 0.42365 0.88442 0.80895 0.0
Co363 Co 0.68219 0.54838 0.42154 0.0
C364 C 0.6768 0.53577 0.11079 0.0
C365 C 0.66022 0.59048 0.16944 0.0
C366 C 0.66635 0.58971 1.02366 0.0
N367 N 0.66666 0.55665 0.22478 0.0
N368 N 0.67704 0.55531 0.98815 0.0
H369 H 0.6883 0.50843 0.11881 0.0
H370 H 0.65627 0.61512 0.23285 0.0
C371 C 0.61158 0.59113 0.47741 0.0
O372 O 0.5944 0.57068 0.38228 0.0
N373 N 0.69812 0.54069 0.6171 0.0
C374 C 0.7082 0.50798 0.6743 0.0
C375 C 0.70405 0.50972 0.82117 0.0
C376 C 0.68885 0.56215 0.73005 0.0
N377 N 0.69143 0.54369 0.85477 0.0
C378 C 0.65142 0.47683 0.36749 0.0
C379 C 0.59195 0.48115 0.55144 0.0
C380 C 0.59436 0.45051 0.45891 0.0
C381 C 0.62615 0.44785 0.37292 0.0
C382 C 0.61916 0.50874 0.54756 0.0
N383 N 0.64647 0.50812 0.44627 0.0
H384 H 0.6754 0.47352 0.30094 0.0
H385 H 0.61768 0.53086 0.62469 0.0
H386 H 0.71445 0.48344 0.61283 0.0
H387 H 0.67737 0.58957 0.72109 0.0
O388 O 0.72334 0.51956 0.35053 0.0
O389 O 0.72461 0.58016 0.3805 0.0
O390 O 0.64626 0.58725 0.49666 0.0
C391 C 0.74081 0.55048 0.33237 0.0
H392 H 0.66648 0.61331 0.95283 0.0
H393 H 0.70748 0.48702 0.89523 0.0
H394 H 0.56912 0.48453 0.62482 0.0
H395 H 0.63193 0.42365 0.30895 0.0
Co396 Co 0.96603 0.83457 0.66343 0.0
C397 C 0.9774 0.83591 0.97493 0.0
C398 C 0.92674 0.86249 0.91776 0.0
C399 C 0.92644 0.85557 0.06348 0.0
N400 N 0.95888 0.85027 0.86151 0.0
N401 N 0.95835 0.83866 0.0975 0.0
H402 H 1.00242 0.81988 0.96671 0.0
H403 H 0.90341 0.87186 0.85558 0.0
C404 C 0.92686 0.90548 0.5867 0.0
O405 O 0.95093 0.9242 0.66275 0.0
N406 N 0.97204 0.81771 0.46807 0.0
C407 C 1.00363 0.80475 0.41038 0.0
C408 C 1.00153 0.80802 0.26352 0.0
C409 C 0.95064 0.82746 0.35543 0.0
N410 N 0.96845 0.82291 0.23031 0.0
C411 C 0.03245 0.87438 0.73525 0.0
C412 C 0.03803 0.91637 0.48993 0.0
C413 C 0.06414 0.92206 0.59951 0.0
C414 C 0.0606 0.90036 0.72349 0.0
C415 C 0.00923 0.89083 0.50876 0.0
N416 N 1.00589 0.87084 0.63279 0.0
H417 H 0.03262 0.85703 0.82774 0.0
H418 H 0.98926 0.88788 0.42386 0.0
H419 H 0.02796 0.79726 0.47097 0.0
H420 H 0.92417 0.84096 0.36435 0.0
O421 O 0.99595 0.79391 0.73088 0.0
O422 O 0.93503 0.79198 0.70915 0.0
O423 O 0.92661 0.87022 0.59091 0.0
C424 C 0.96535 0.776 0.75241 0.0
H425 H 0.90352 0.85983 0.13551 0.0
H426 H 0.02382 0.80282 0.1891 0.0
H427 H 0.0395 0.93128 0.3898 0.0
H428 H 0.07907 0.90323 0.81368 0.0
Co429 Co 0.68178 0.96603 0.16343 0.0
C430 C 0.68044 0.97739 0.47493 0.0
C431 C 0.65385 0.92674 0.41776 0.0
C432 C 0.66077 0.92643 0.56348 0.0
N433 N 0.66608 0.95887 0.36151 0.0
N434 N 0.67768 0.95834 0.5975 0.0
H435 H 0.69646 1.00241 0.46671 0.0
H436 H 0.64448 0.9034 0.35558 0.0
C437 C 0.61086 0.92686 0.0867 0.0
O438 O 0.59214 0.95092 0.16274 0.0
N439 N 0.69863 0.97203 0.96807 0.0
C440 C 0.7116 1.00362 0.91038 0.0
C441 C 0.70833 1.00152 0.76352 0.0
C442 C 0.68888 0.95063 0.85543 0.0
N443 N 0.69344 0.96844 0.73031 0.0
C444 C 0.64197 0.03244 0.23525 0.0
C445 C 0.59997 0.03802 0.98993 0.0
C446 C 0.59429 0.06414 0.09951 0.0
C447 C 0.61599 0.0606 0.22349 0.0
C448 C 0.62551 0.00922 1.00876 0.0
N449 N 0.64551 1.00588 0.13279 0.0
H450 H 0.65932 0.03261 0.32774 0.0
H451 H 0.62847 0.98925 0.92386 0.0
H452 H 0.71909 0.02795 0.97098 0.0
H453 H 0.67538 0.92416 0.86435 0.0
O454 O 0.72244 0.99595 0.23088 0.0
O455 O 0.72436 0.93502 0.20915 0.0
O456 O 0.64612 0.92661 0.09091 0.0
C457 C 0.74034 0.96534 0.25241 0.0
H458 H 0.65651 0.90352 0.6355 0.0
H459 H 0.71353 0.02381 0.68911 0.0
H460 H 0.58506 0.0395 0.8898 0.0
H461 H 0.61312 0.07906 0.31368 0.0
Co462 Co 0.55031 0.68178 0.66342 0.0
C463 C 0.53895 0.68044 0.97492 0.0
C464 C 0.5896 0.65385 0.91776 0.0
C465 C 0.58991 0.66077 0.06348 0.0
N466 N 0.55746 0.66607 0.8615 0.0
N467 N 0.558 0.67768 0.09749 0.0
H468 H 0.51392 0.69646 0.9667 0.0
H469 H 0.61294 0.64448 0.85558 0.0
C470 C 0.58948 0.61086 0.58669 0.0
O471 O 0.56542 0.59214 0.66273 0.0
N472 N 0.54431 0.69863 0.46806 0.0
C473 C 0.51272 0.71159 0.41037 0.0
C474 C 0.51481 0.70832 0.26351 0.0
C475 C 0.5657 0.68888 0.35543 0.0
N476 N 0.5479 0.69343 0.23031 0.0
C477 C 0.48389 0.64196 0.73524 0.0
C478 C 0.47832 0.59997 0.48992 0.0
C479 C 0.4522 0.59428 0.5995 0.0
C480 C 0.45574 0.61598 0.72348 0.0
C481 C 0.50712 0.62551 0.50875 0.0
N482 N 0.51046 0.6455 0.63278 0.0
H483 H 0.48373 0.65931 0.82773 0.0
H484 H 0.52709 0.62846 0.42385 0.0
H485 H 0.48838 0.71908 0.47096 0.0
H486 H 0.59217 0.67538 0.36435 0.0
O487 O 0.52039 0.72244 0.73087 0.0
O488 O 0.58131 0.72436 0.70915 0.0
O489 O 0.58973 0.64612 0.59091 0.0
C490 C 0.55099 0.74034 0.7524 0.0
H491 H 0.61282 0.65651 0.13551 0.0
H492 H 0.49252 0.71352 0.18909 0.0
H493 H 0.47684 0.58506 0.3898 0.0
H494 H 0.43728 0.61312 0.81368 0.0
Co495 Co 0.83457 0.55032 0.16342 0.0
C496 C 0.83591 0.53895 0.47492 0.0
C497 C 0.8625 0.58961 0.41777 0.0
C498 C 0.85557 0.58991 0.56349 0.0
N499 N 0.85027 0.55747 0.36151 0.0
N500 N 0.83866 0.55801 0.5975 0.0
H501 H 0.81988 0.51393 0.46671 0.0
H502 H 0.87187 0.61294 0.35559 0.0
C503 C 0.90549 0.58949 0.0867 0.0
O504 O 0.92421 0.56542 0.16274 0.0
N505 N 0.81771 0.54431 0.96806 0.0
C506 C 0.80475 0.51272 0.91037 0.0
C507 C 0.80802 0.51482 0.76351 0.0
C508 C 0.82746 0.56571 0.85543 0.0
N509 N 0.82291 0.5479 0.73031 0.0
C510 C 0.87438 0.4839 0.23524 0.0
C511 C 0.91638 0.47832 0.98992 0.0
C512 C 0.92206 0.4522 0.0995 0.0
C513 C 0.90036 0.45575 0.22348 0.0
C514 C 0.89084 0.50712 1.00876 0.0
N515 N 0.87084 0.51046 0.13279 0.0
H516 H 0.85703 0.48373 0.32773 0.0
H517 H 0.88788 0.52709 0.92386 0.0
H518 H 0.79726 0.48839 0.97096 0.0
H519 H 0.84096 0.59218 0.86436 0.0
O520 O 0.79391 0.5204 0.23087 0.0
O521 O 0.79198 0.58132 0.20915 0.0
O522 O 0.87022 0.58974 0.09092 0.0
C523 C 0.776 0.551 0.2524 0.0
H524 H 0.85983 0.61283 0.63552 0.0
H525 H 0.80282 0.49253 0.68909 0.0
H526 H 0.93128 0.47684 0.8898 0.0
H527 H 0.90323 0.43728 0.31367 0.0
loop_
_geom_bond_atom_site_label_1
_geom_bond_atom_site_label_2
_geom_bond_distance
_geom_bond_site_symmetry_2
_ccdc_geom_bond_type
Co0 N4 2.148 . S
Co0 N10 2.128 1_554 S
Co0 N20 2.194 1_455 S
Co0 O25 2.351 . S
Co0 O26 2.155 . S
Co0 O27 2.096 . S
C1 N4 1.301 . S
C1 N5 1.328 . S
C1 H6 0.930 . S
C2 C3 1.333 . S
C2 N4 1.317 . S
C2 H7 0.930 . S
C3 C2 1.333 . S
C3 N5 1.350 . S
C3 H29 0.931 . S
N4 Co0 2.148 . S
N4 C1 1.301 . S
N4 C2 1.317 . S
N5 C1 1.328 . S
N5 C3 1.350 . S
H6 C1 0.930 . S
H7 C2 0.930 . S
C8 O9 1.224 . S
C8 O27 1.247 . S
O9 C8 1.224 . S
N10 Co0 2.128 1_556 S
N10 C11 1.355 1_455 S
N10 C13 1.311 . S
C11 N10 1.355 1_655 S
C11 C12 1.363 . S
C11 H23 0.929 . S
C12 C11 1.363 . S
C12 N14 1.375 1_655 S
C12 H30 0.931 . S
C13 N10 1.311 . S
C13 N14 1.347 . S
C13 H24 0.929 . S
N14 C12 1.375 1_455 S
N14 C13 1.347 . S
C15 C18 1.365 . S
C15 N20 1.328 . S
C15 H21 0.929 . S
C16 C17 1.362 . S
C16 C19 1.378 . S
C16 H31 0.929 . S
C17 C16 1.362 . S
C17 C18 1.366 . S
C18 C15 1.365 . S
C18 C17 1.366 . S
C18 H32 0.930 . S
C19 C16 1.378 . S
C19 N20 1.315 . S
C19 H22 0.930 1_655 S
N20 Co0 2.194 1_655 S
N20 C15 1.328 . S
N20 C19 1.315 . S
H21 C15 0.929 . S
H22 C19 0.930 1_455 S
H23 C11 0.929 . S
H24 C13 0.929 . S
O25 Co0 2.351 . S
O25 C28 1.244 . S
O26 Co0 2.155 . S
O26 C28 1.240 . S
O27 Co0 2.096 . S
O27 C8 1.247 . S
C28 O25 1.244 . S
C28 O26 1.240 . S
H29 C3 0.931 . S
H30 C12 0.931 . S
H31 C16 0.929 . S
H32 C18 0.930 . S
Co33 N37 2.148 . S
Co33 N43 2.128 . S
Co33 N53 2.194 1_545 S
Co33 O58 2.351 . S
Co33 O59 2.155 . S
Co33 O60 2.096 . S
C34 N37 1.301 . S
C34 N38 1.328 1_556 S
C34 H39 0.930 . S
C35 C36 1.333 1_556 S
C35 N37 1.317 . S
C35 H40 0.930 . S
C36 C35 1.333 1_554 S
C36 N38 1.350 . S
C36 H62 0.931 . S
N37 Co33 2.148 . S
N37 C34 1.301 . S
N37 C35 1.317 . S
N38 C34 1.328 1_554 S
N38 C36 1.350 . S
H39 C34 0.930 . S
H40 C35 0.930 . S
C41 O42 1.224 . S
C41 O60 1.247 . S
O42 C41 1.224 . S
N43 Co33 2.128 . S
N43 C44 1.355 1_545 S
N43 C46 1.311 . S
C44 N43 1.355 1_565 S
C44 C45 1.363 . S
C44 H56 0.929 . S
C45 C44 1.363 . S
C45 N47 1.375 1_565 S
C45 H63 0.931 . S
C46 N43 1.311 . S
C46 N47 1.347 . S
C46 H57 0.929 . S
N47 C45 1.375 1_545 S
N47 C46 1.347 . S
C48 C51 1.365 . S
C48 N53 1.328 . S
C48 H54 0.929 . S
C49 C50 1.362 . S
C49 C52 1.378 . S
C49 H64 0.929 . S
C50 C49 1.362 . S
C50 C51 1.366 . S
C51 C48 1.365 . S
C51 C50 1.366 . S
C51 H65 0.930 . S
C52 C49 1.378 . S
C52 N53 1.315 . S
C52 H55 0.930 1_565 S
N53 Co33 2.194 1_565 S
N53 C48 1.328 . S
N53 C52 1.315 . S
H54 C48 0.929 . S
H55 C52 0.930 1_545 S
H56 C44 0.929 . S
H57 C46 0.929 . S
O58 Co33 2.351 . S
O58 C61 1.244 . S
O59 Co33 2.155 . S
O59 C61 1.240 . S
O60 Co33 2.096 . S
O60 C41 1.247 . S
C61 O58 1.244 . S
C61 O59 1.240 . S
H62 C36 0.931 . S
H63 C45 0.931 . S
H64 C49 0.929 . S
H65 C51 0.930 . S
Co66 N70 2.148 . S
Co66 N76 2.128 1_554 S
Co66 N86 2.194 . S
Co66 O91 2.351 . S
Co66 O92 2.155 . S
Co66 O93 2.096 . S
C67 N70 1.301 . S
C67 N71 1.328 . S
C67 H72 0.930 . S
C68 C69 1.333 . S
C68 N70 1.317 . S
C68 H73 0.930 . S
C69 C68 1.333 . S
C69 N71 1.350 . S
C69 H95 0.931 . S
N70 Co66 2.148 . S
N70 C67 1.301 . S
N70 C68 1.317 . S
N71 C67 1.328 . S
N71 C69 1.350 . S
H72 C67 0.930 . S
H73 C68 0.930 . S
C74 O75 1.224 . S
C74 O93 1.247 . S
O75 C74 1.224 . S
N76 Co66 2.128 1_556 S
N76 C77 1.355 . S
N76 C79 1.311 . S
C77 N76 1.355 . S
C77 C78 1.363 . S
C77 H89 0.929 . S
C78 C77 1.363 . S
C78 N80 1.375 . S
C78 H96 0.931 . S
C79 N76 1.311 . S
C79 N80 1.347 . S
C79 H90 0.929 . S
N80 C78 1.375 . S
N80 C79 1.347 . S
C81 C84 1.365 . S
C81 N86 1.328 . S
C81 H87 0.929 . S
C82 C83 1.362 . S
C82 C85 1.378 . S
C82 H97 0.929 . S
C83 C82 1.362 . S
C83 C84 1.366 . S
C84 C81 1.365 . S
C84 C83 1.366 . S
C84 H98 0.930 . S
C85 C82 1.378 . S
C85 N86 1.315 . S
C85 H88 0.930 . S
N86 Co66 2.194 . S
N86 C81 1.328 . S
N86 C85 1.315 . S
H87 C81 0.929 . S
H88 C85 0.930 . S
H89 C77 0.929 . S
H90 C79 0.929 . S
O91 Co66 2.351 . S
O91 C94 1.244 . S
O92 Co66 2.155 . S
O92 C94 1.240 . S
O93 Co66 2.096 . S
O93 C74 1.247 . S
C94 O91 1.244 . S
C94 O92 1.240 . S
H95 C69 0.931 . S
H96 C78 0.931 . S
H97 C82 0.929 . S
H98 C84 0.930 . S
Co99 N103 2.148 . S
Co99 N109 2.128 . S
Co99 N119 2.194 . S
Co99 O124 2.351 . S
Co99 O125 2.155 . S
Co99 O126 2.096 . S
C100 N103 1.301 . S
C100 N104 1.328 1_556 S
C100 H105 0.930 . S
C101 C102 1.333 1_556 S
C101 N103 1.317 . S
C101 H106 0.930 . S
C102 C101 1.333 1_554 S
C102 N104 1.350 . S
C102 H128 0.931 . S
N103 Co99 2.148 . S
N103 C100 1.301 . S
N103 C101 1.317 . S
N104 C100 1.328 1_554 S
N104 C102 1.350 . S
H105 C100 0.930 . S
H106 C101 0.930 . S
C107 O108 1.224 . S
C107 O126 1.247 . S
O108 C107 1.224 . S
N109 Co99 2.128 . S
N109 C110 1.355 . S
N109 C112 1.311 . S
C110 N109 1.355 . S
C110 C111 1.363 . S
C110 H122 0.929 . S
C111 C110 1.363 . S
C111 N113 1.375 . S
C111 H129 0.931 . S
C112 N109 1.311 . S
C112 N113 1.347 . S
C112 H123 0.929 . S
N113 C111 1.375 . S
N113 C112 1.347 . S
C114 C117 1.365 . S
C114 N119 1.328 . S
C114 H120 0.929 . S
C115 C116 1.362 . S
C115 C118 1.378 . S
C115 H130 0.929 . S
C116 C115 1.362 . S
C116 C117 1.366 . S
C117 C114 1.365 . S
C117 C116 1.366 . S
C117 H131 0.930 . S
C118 C115 1.378 . S
C118 N119 1.315 . S
C118 H121 0.930 . S
N119 Co99 2.194 . S
N119 C114 1.328 . S
N119 C118 1.315 . S
H120 C114 0.929 . S
H121 C118 0.930 . S
H122 C110 0.929 . S
H123 C112 0.929 . S
O124 Co99 2.351 . S
O124 C127 1.244 . S
O125 Co99 2.155 . S
O125 C127 1.240 . S
O126 Co99 2.096 . S
O126 C107 1.247 . S
C127 O124 1.244 . S
C127 O125 1.240 . S
H128 C102 0.931 . S
H129 C111 0.931 . S
H130 C115 0.929 . S
H131 C117 0.930 . S
Co132 N136 2.148 . S
Co132 N142 2.128 . S
Co132 N152 2.194 1_455 S
Co132 O157 2.351 . S
Co132 O158 2.155 . S
Co132 O159 2.096 . S
C133 N136 1.301 . S
C133 N137 1.328 1_554 S
C133 H138 0.930 . S
C134 C135 1.333 1_554 S
C134 N136 1.317 . S
C134 H139 0.930 . S
C135 C134 1.333 1_556 S
C135 N137 1.350 . S
C135 H161 0.931 . S
N136 Co132 2.148 . S
N136 C133 1.301 . S
N136 C134 1.317 . S
N137 C133 1.328 1_556 S
N137 C135 1.350 . S
H138 C133 0.930 . S
H139 C134 0.930 . S
C140 O141 1.224 . S
C140 O159 1.247 . S
O141 C140 1.224 . S
N142 Co132 2.128 . S
N142 C143 1.355 1_455 S
N142 C145 1.311 . S
C143 N142 1.355 1_655 S
C143 C144 1.363 . S
C143 H155 0.929 . S
C144 C143 1.363 . S
C144 N146 1.375 1_655 S
C144 H162 0.931 . S
C145 N142 1.311 . S
C145 N146 1.347 . S
C145 H156 0.929 . S
N146 C144 1.375 1_455 S
N146 C145 1.347 . S
C147 C150 1.365 . S
C147 N152 1.328 . S
C147 H153 0.929 . S
C148 C149 1.362 . S
C148 C151 1.378 . S
C148 H163 0.929 . S
C149 C148 1.362 . S
C149 C150 1.366 . S
C150 C147 1.365 . S
C150 C149 1.366 . S
C150 H164 0.930 . S
C151 C148 1.378 . S
C151 N152 1.315 . S
C151 H154 0.930 1_655 S
N152 Co132 2.194 1_655 S
N152 C147 1.328 . S
N152 C151 1.315 . S
H153 C147 0.929 . S
H154 C151 0.930 1_455 S
H155 C143 0.929 . S
H156 C145 0.929 . S
O157 Co132 2.351 . S
O157 C160 1.244 . S
O158 Co132 2.155 . S
O158 C160 1.240 . S
O159 Co132 2.096 . S
O159 C140 1.247 . S
C160 O157 1.244 . S
C160 O158 1.240 . S
H161 C135 0.931 . S
H162 C144 0.931 . S
H163 C148 0.929 . S
H164 C150 0.930 . S
Co165 N169 2.148 . S
Co165 N175 2.128 1_556 S
Co165 N185 2.194 1_545 S
Co165 O190 2.351 . S
Co165 O191 2.155 . S
Co165 O192 2.096 . S
C166 N169 1.301 . S
C166 N170 1.328 . S
C166 H171 0.930 . S
C167 C168 1.333 . S
C167 N169 1.317 . S
C167 H172 0.930 . S
C168 C167 1.333 . S
C168 N170 1.350 . S
C168 H194 0.931 . S
N169 Co165 2.148 . S
N169 C166 1.301 . S
N169 C167 1.317 . S
N170 C166 1.328 . S
N170 C168 1.350 . S
H171 C166 0.930 . S
H172 C167 0.930 . S
C173 O174 1.224 . S
C173 O192 1.247 . S
O174 C173 1.224 . S
N175 Co165 2.128 1_554 S
N175 C176 1.355 1_545 S
N175 C178 1.311 . S
C176 N175 1.355 1_565 S
C176 C177 1.363 . S
C176 H188 0.929 . S
C177 C176 1.363 . S
C177 N179 1.375 1_565 S
C177 H195 0.931 . S
C178 N175 1.311 . S
C178 N179 1.347 . S
C178 H189 0.929 . S
N179 C177 1.375 1_545 S
N179 C178 1.347 . S
C180 C183 1.365 . S
C180 N185 1.328 . S
C180 H186 0.929 . S
C181 C182 1.362 . S
C181 C184 1.378 . S
C181 H196 0.929 . S
C182 C181 1.362 . S
C182 C183 1.366 . S
C183 C180 1.365 . S
C183 C182 1.366 . S
C183 H197 0.930 . S
C184 C181 1.378 . S
C184 N185 1.315 . S
C184 H187 0.930 1_565 S
N185 Co165 2.194 1_565 S
N185 C180 1.328 . S
N185 C184 1.315 . S
H186 C180 0.929 . S
H187 C184 0.930 1_545 S
H188 C176 0.929 . S
H189 C178 0.929 . S
O190 Co165 2.351 . S
O190 C193 1.244 . S
O191 Co165 2.155 . S
O191 C193 1.240 . S
O192 Co165 2.096 . S
O192 C173 1.247 . S
C193 O190 1.244 . S
C193 O191 1.240 . S
H194 C168 0.931 . S
H195 C177 0.931 . S
H196 C181 0.929 . S
H197 C183 0.930 . S
Co198 N202 2.148 . S
Co198 N208 2.128 . S
Co198 N218 2.194 . S
Co198 O223 2.351 . S
Co198 O224 2.155 . S
Co198 O225 2.096 . S
C199 N202 1.301 . S
C199 N203 1.328 1_554 S
C199 H204 0.930 . S
C200 C201 1.333 1_554 S
C200 N202 1.317 . S
C200 H205 0.930 . S
C201 C200 1.333 1_556 S
C201 N203 1.350 . S
C201 H227 0.931 . S
N202 Co198 2.148 . S
N202 C199 1.301 . S
N202 C200 1.317 . S
N203 C199 1.328 1_556 S
N203 C201 1.350 . S
H204 C199 0.930 . S
H205 C200 0.930 . S
C206 O207 1.224 . S
C206 O225 1.247 . S
O207 C206 1.224 . S
N208 Co198 2.128 . S
N208 C209 1.355 . S
N208 C211 1.311 . S
C209 N208 1.355 . S
C209 C210 1.363 . S
C209 H221 0.929 . S
C210 C209 1.363 . S
C210 N212 1.375 . S
C210 H228 0.931 . S
C211 N208 1.311 . S
C211 N212 1.347 . S
C211 H222 0.929 . S
N212 C210 1.375 . S
N212 C211 1.347 . S
C213 C216 1.365 . S
C213 N218 1.328 . S
C213 H219 0.929 . S
C214 C215 1.362 . S
C214 C217 1.378 . S
C214 H229 0.929 . S
C215 C214 1.362 . S
C215 C216 1.366 . S
C216 C213 1.365 . S
C216 C215 1.366 . S
C216 H230 0.930 . S
C217 C214 1.378 . S
C217 N218 1.315 . S
C217 H220 0.930 . S
N218 Co198 2.194 . S
N218 C213 1.328 . S
N218 C217 1.315 . S
H219 C213 0.929 . S
H220 C217 0.930 . S
H221 C209 0.929 . S
H222 C211 0.929 . S
O223 Co198 2.351 . S
O223 C226 1.244 . S
O224 Co198 2.155 . S
O224 C226 1.240 . S
O225 Co198 2.096 . S
O225 C206 1.247 . S
C226 O223 1.244 . S
C226 O224 1.240 . S
H227 C201 0.931 . S
H228 C210 0.931 . S
H229 C214 0.929 . S
H230 C216 0.930 . S
Co231 N235 2.148 . S
Co231 N241 2.128 1_556 S
Co231 N251 2.194 . S
Co231 O256 2.351 . S
Co231 O257 2.155 . S
Co231 O258 2.096 . S
C232 N235 1.301 . S
C232 N236 1.328 . S
C232 H237 0.930 . S
C233 C234 1.333 . S
C233 N235 1.317 . S
C233 H238 0.930 . S
C234 C233 1.333 . S
C234 N236 1.350 . S
C234 H260 0.931 . S
N235 Co231 2.148 . S
N235 C232 1.301 . S
N235 C233 1.317 . S
N236 C232 1.328 . S
N236 C234 1.350 . S
H237 C232 0.930 . S
H238 C233 0.930 . S
C239 O240 1.224 . S
C239 O258 1.247 . S
O240 C239 1.224 . S
N241 Co231 2.128 1_554 S
N241 C242 1.355 . S
N241 C244 1.311 . S
C242 N241 1.355 . S
C242 C243 1.363 . S
C242 H254 0.929 . S
C243 C242 1.363 . S
C243 N245 1.375 . S
C243 H261 0.931 . S
C244 N241 1.311 . S
C244 N245 1.347 . S
C244 H255 0.929 . S
N245 C243 1.375 . S
N245 C244 1.347 . S
C246 C249 1.365 . S
C246 N251 1.328 . S
C246 H252 0.929 . S
C247 C248 1.362 . S
C247 C250 1.378 . S
C247 H262 0.929 . S
C248 C247 1.362 . S
C248 C249 1.366 . S
C249 C246 1.365 . S
C249 C248 1.366 . S
C249 H263 0.930 . S
C250 C247 1.378 . S
C250 N251 1.315 . S
C250 H253 0.930 . S
N251 Co231 2.194 . S
N251 C246 1.328 . S
N251 C250 1.315 . S
H252 C246 0.929 . S
H253 C250 0.930 . S
H254 C242 0.929 . S
H255 C244 0.929 . S
O256 Co231 2.351 . S
O256 C259 1.244 . S
O257 Co231 2.155 . S
O257 C259 1.240 . S
O258 Co231 2.096 . S
O258 C239 1.247 . S
C259 O256 1.244 . S
C259 O257 1.240 . S
H260 C234 0.931 . S
H261 C243 0.931 . S
H262 C247 0.929 . S
H263 C249 0.930 . S
Co264 N268 2.148 . S
Co264 N274 2.128 1_556 S
Co264 N284 2.194 1_655 S
Co264 O289 2.351 . S
Co264 O290 2.155 . S
Co264 O291 2.096 . S
C265 N268 1.301 . S
C265 N269 1.328 . S
C265 H270 0.930 . S
C266 C267 1.333 . S
C266 N268 1.317 . S
C266 H271 0.930 . S
C267 C266 1.333 . S
C267 N269 1.350 . S
C267 H293 0.931 . S
N268 Co264 2.148 . S
N268 C265 1.301 . S
N268 C266 1.317 . S
N269 C265 1.328 . S
N269 C267 1.350 . S
H270 C265 0.930 . S
H271 C266 0.930 . S
C272 O273 1.224 . S
C272 O291 1.247 . S
O273 C272 1.224 . S
N274 Co264 2.128 1_554 S
N274 C275 1.355 1_655 S
N274 C277 1.311 . S
C275 N274 1.355 1_455 S
C275 C276 1.363 . S
C275 H287 0.929 . S
C276 C275 1.363 . S
C276 N278 1.375 1_455 S
C276 H294 0.931 . S
C277 N274 1.311 . S
C277 N278 1.347 . S
C277 H288 0.929 . S
N278 C276 1.375 1_655 S
N278 C277 1.347 . S
C279 C282 1.365 . S
C279 N284 1.328 . S
C279 H285 0.929 . S
C280 C281 1.362 . S
C280 C283 1.378 . S
C280 H295 0.929 . S
C281 C280 1.362 . S
C281 C282 1.366 . S
C282 C279 1.365 . S
C282 C281 1.366 . S
C282 H296 0.930 . S
C283 C280 1.378 . S
C283 N284 1.315 . S
C283 H286 0.930 1_455 S
N284 Co264 2.194 1_455 S
N284 C279 1.328 . S
N284 C283 1.315 . S
H285 C279 0.929 . S
H286 C283 0.930 1_655 S
H287 C275 0.929 . S
H288 C277 0.929 . S
O289 Co264 2.351 . S
O289 C292 1.244 . S
O290 Co264 2.155 . S
O290 C292 1.240 . S
O291 Co264 2.096 . S
O291 C272 1.247 . S
C292 O289 1.244 . S
C292 O290 1.240 . S
H293 C267 0.931 . S
H294 C276 0.931 . S
H295 C280 0.929 . S
H296 C282 0.930 . S
Co297 N301 2.148 . S
Co297 N307 2.128 . S
Co297 N317 2.194 1_565 S
Co297 O322 2.351 . S
Co297 O323 2.155 . S
Co297 O324 2.096 . S
C298 N301 1.301 . S
C298 N302 1.328 1_554 S
C298 H303 0.930 . S
C299 C300 1.333 1_554 S
C299 N301 1.317 . S
C299 H304 0.930 . S
C300 C299 1.333 1_556 S
C300 N302 1.350 . S
C300 H326 0.931 . S
N301 Co297 2.148 . S
N301 C298 1.301 . S
N301 C299 1.317 . S
N302 C298 1.328 1_556 S
N302 C300 1.350 . S
H303 C298 0.930 . S
H304 C299 0.930 . S
C305 O306 1.224 . S
C305 O324 1.247 . S
O306 C305 1.224 . S
N307 Co297 2.128 . S
N307 C308 1.355 1_565 S
N307 C310 1.311 . S
C308 N307 1.355 1_545 S
C308 C309 1.363 . S
C308 H320 0.929 . S
C309 C308 1.363 . S
C309 N311 1.375 1_545 S
C309 H327 0.931 . S
C310 N307 1.311 . S
C310 N311 1.347 . S
C310 H321 0.929 . S
N311 C309 1.375 1_565 S
N311 C310 1.347 . S
C312 C315 1.365 . S
C312 N317 1.328 . S
C312 H318 0.929 . S
C313 C314 1.362 . S
C313 C316 1.378 . S
C313 H328 0.929 . S
C314 C313 1.362 . S
C314 C315 1.366 . S
C315 C312 1.365 . S
C315 C314 1.366 . S
C315 H329 0.930 . S
C316 C313 1.378 . S
C316 N317 1.315 . S
C316 H319 0.930 1_545 S
N317 Co297 2.194 1_545 S
N317 C312 1.328 . S
N317 C316 1.315 . S
H318 C312 0.929 . S
H319 C316 0.930 1_565 S
H320 C308 0.929 . S
H321 C310 0.929 . S
O322 Co297 2.351 . S
O322 C325 1.244 . S
O323 Co297 2.155 . S
O323 C325 1.240 . S
O324 Co297 2.096 . S
O324 C305 1.247 . S
C325 O322 1.244 . S
C325 O323 1.240 . S
H326 C300 0.931 . S
H327 C309 0.931 . S
H328 C313 0.929 . S
H329 C315 0.930 . S
Co330 N334 2.148 . S
Co330 N340 2.128 1_556 S
Co330 N350 2.194 . S
Co330 O355 2.351 . S
Co330 O356 2.155 . S
Co330 O357 2.096 . S
C331 N334 1.301 . S
C331 N335 1.328 . S
C331 H336 0.930 . S
C332 C333 1.333 . S
C332 N334 1.317 . S
C332 H337 0.930 . S
C333 C332 1.333 . S
C333 N335 1.350 . S
C333 H359 0.931 . S
N334 Co330 2.148 . S
N334 C331 1.301 . S
N334 C332 1.317 . S
N335 C331 1.328 . S
N335 C333 1.350 . S
H336 C331 0.930 . S
H337 C332 0.930 . S
C338 O339 1.224 . S
C338 O357 1.247 . S
O339 C338 1.224 . S
N340 Co330 2.128 1_554 S
N340 C341 1.355 . S
N340 C343 1.311 . S
C341 N340 1.355 . S
C341 C342 1.363 . S
C341 H353 0.929 . S
C342 C341 1.363 . S
C342 N344 1.375 . S
C342 H360 0.931 . S
C343 N340 1.311 . S
C343 N344 1.347 . S
C343 H354 0.929 . S
N344 C342 1.375 . S
N344 C343 1.347 . S
C345 C348 1.365 . S
C345 N350 1.328 . S
C345 H351 0.929 . S
C346 C347 1.362 . S
C346 C349 1.378 . S
C346 H361 0.929 . S
C347 C346 1.362 . S
C347 C348 1.366 . S
C348 C345 1.365 . S
C348 C347 1.366 . S
C348 H362 0.930 . S
C349 C346 1.378 . S
C349 N350 1.315 . S
C349 H352 0.930 . S
N350 Co330 2.194 . S
N350 C345 1.328 . S
N350 C349 1.315 . S
H351 C345 0.929 . S
H352 C349 0.930 . S
H353 C341 0.929 . S
H354 C343 0.929 . S
O355 Co330 2.351 . S
O355 C358 1.244 . S
O356 Co330 2.155 . S
O356 C358 1.240 . S
O357 Co330 2.096 . S
O357 C338 1.247 . S
C358 O355 1.244 . S
C358 O356 1.240 . S
H359 C333 0.931 . S
H360 C342 0.931 . S
H361 C346 0.929 . S
H362 C348 0.930 . S
Co363 N367 2.148 . S
Co363 N373 2.128 . S
Co363 N383 2.194 . S
Co363 O388 2.351 . S
Co363 O389 2.155 . S
Co363 O390 2.096 . S
C364 N367 1.301 . S
C364 N368 1.328 1_554 S
C364 H369 0.930 . S
C365 C366 1.333 1_554 S
C365 N367 1.317 . S
C365 H370 0.930 . S
C366 C365 1.333 1_556 S
C366 N368 1.350 . S
C366 H392 0.931 . S
N367 Co363 2.148 . S
N367 C364 1.301 . S
N367 C365 1.317 . S
N368 C364 1.328 1_556 S
N368 C366 1.350 . S
H369 C364 0.930 . S
H370 C365 0.930 . S
C371 O372 1.224 . S
C371 O390 1.247 . S
O372 C371 1.224 . S
N373 Co363 2.128 . S
N373 C374 1.355 . S
N373 C376 1.311 . S
C374 N373 1.355 . S
C374 C375 1.363 . S
C374 H386 0.929 . S
C375 C374 1.363 . S
C375 N377 1.375 . S
C375 H393 0.931 . S
C376 N373 1.311 . S
C376 N377 1.347 . S
C376 H387 0.929 . S
N377 C375 1.375 . S
N377 C376 1.347 . S
C378 C381 1.365 . S
C378 N383 1.328 . S
C378 H384 0.929 . S
C379 C380 1.362 . S
C379 C382 1.378 . S
C379 H394 0.929 . S
C380 C379 1.362 . S
C380 C381 1.366 . S
C381 C378 1.365 . S
C381 C380 1.366 . S
C381 H395 0.930 . S
C382 C379 1.378 . S
C382 N383 1.315 . S
C382 H385 0.930 . S
N383 Co363 2.194 . S
N383 C378 1.328 . S
N383 C382 1.315 . S
H384 C378 0.929 . S
H385 C382 0.930 . S
H386 C374 0.929 . S
H387 C376 0.929 . S
O388 Co363 2.351 . S
O388 C391 1.244 . S
O389 Co363 2.155 . S
O389 C391 1.240 . S
O390 Co363 2.096 . S
O390 C371 1.247 . S
C391 O388 1.244 . S
C391 O389 1.240 . S
H392 C366 0.931 . S
H393 C375 0.931 . S
H394 C379 0.929 . S
H395 C381 0.930 . S
Co396 N400 2.148 . S
Co396 N406 2.128 . S
Co396 N416 2.194 1_655 S
Co396 O421 2.351 . S
Co396 O422 2.155 . S
Co396 O423 2.096 . S
C397 N400 1.301 . S
C397 N401 1.328 1_556 S
C397 H402 0.930 . S
C398 C399 1.333 1_556 S
C398 N400 1.317 . S
C398 H403 0.930 . S
C399 C398 1.333 1_554 S
C399 N401 1.350 . S
C399 H425 0.931 . S
N400 Co396 2.148 . S
N400 C397 1.301 . S
N400 C398 1.317 . S
N401 C397 1.328 1_554 S
N401 C399 1.350 . S
H402 C397 0.930 . S
H403 C398 0.930 . S
C404 O405 1.224 . S
C404 O423 1.247 . S
O405 C404 1.224 . S
N406 Co396 2.128 . S
N406 C407 1.355 1_655 S
N406 C409 1.311 . S
C407 N406 1.355 1_455 S
C407 C408 1.363 . S
C407 H419 0.929 . S
C408 C407 1.363 . S
C408 N410 1.375 1_455 S
C408 H426 0.931 . S
C409 N406 1.311 . S
C409 N410 1.347 . S
C409 H420 0.929 . S
N410 C408 1.375 1_655 S
N410 C409 1.347 . S
C411 C414 1.365 . S
C411 N416 1.328 . S
C411 H417 0.929 . S
C412 C413 1.362 . S
C412 C415 1.378 . S
C412 H427 0.929 . S
C413 C412 1.362 . S
C413 C414 1.366 . S
C414 C411 1.365 . S
C414 C413 1.366 . S
C414 H428 0.930 . S
C415 C412 1.378 . S
C415 N416 1.315 . S
C415 H418 0.930 1_455 S
N416 Co396 2.194 1_455 S
N416 C411 1.328 . S
N416 C415 1.315 . S
H417 C411 0.929 . S
H418 C415 0.930 1_655 S
H419 C407 0.929 . S
H420 C409 0.929 . S
O421 Co396 2.351 . S
O421 C424 1.244 . S
O422 Co396 2.155 . S
O422 C424 1.240 . S
O423 Co396 2.096 . S
O423 C404 1.247 . S
C424 O421 1.244 . S
C424 O422 1.240 . S
H425 C399 0.931 . S
H426 C408 0.931 . S
H427 C412 0.929 . S
H428 C414 0.930 . S
Co429 N433 2.148 . S
Co429 N439 2.128 1_554 S
Co429 N449 2.194 1_565 S
Co429 O454 2.351 . S
Co429 O455 2.155 . S
Co429 O456 2.096 . S
C430 N433 1.301 . S
C430 N434 1.328 . S
C430 H435 0.930 . S
C431 C432 1.333 . S
C431 N433 1.317 . S
C431 H436 0.930 . S
C432 C431 1.333 . S
C432 N434 1.350 . S
C432 H458 0.931 . S
N433 Co429 2.148 . S
N433 C430 1.301 . S
N433 C431 1.317 . S
N434 C430 1.328 . S
N434 C432 1.350 . S
H435 C430 0.930 . S
H436 C431 0.930 . S
C437 O438 1.224 . S
C437 O456 1.247 . S
O438 C437 1.224 . S
N439 Co429 2.128 1_556 S
N439 C440 1.355 1_565 S
N439 C442 1.311 . S
C440 N439 1.355 1_545 S
C440 C441 1.363 . S
C440 H452 0.929 . S
C441 C440 1.363 . S
C441 N443 1.375 1_545 S
C441 H459 0.931 . S
C442 N439 1.311 . S
C442 N443 1.347 . S
C442 H453 0.929 . S
N443 C441 1.375 1_565 S
N443 C442 1.347 . S
C444 C447 1.365 . S
C444 N449 1.328 . S
C444 H450 0.929 . S
C445 C446 1.362 . S
C445 C448 1.378 . S
C445 H460 0.929 . S
C446 C445 1.362 . S
C446 C447 1.366 . S
C447 C444 1.365 . S
C447 C446 1.366 . S
C447 H461 0.930 . S
C448 C445 1.378 . S
C448 N449 1.315 . S
C448 H451 0.930 1_545 S
N449 Co429 2.194 1_545 S
N449 C444 1.328 . S
N449 C448 1.315 . S
H450 C444 0.929 . S
H451 C448 0.930 1_565 S
H452 C440 0.929 . S
H453 C442 0.929 . S
O454 Co429 2.351 . S
O454 C457 1.244 . S
O455 Co429 2.155 . S
O455 C457 1.240 . S
O456 Co429 2.096 . S
O456 C437 1.247 . S
C457 O454 1.244 . S
C457 O455 1.240 . S
H458 C432 0.931 . S
H459 C441 0.931 . S
H460 C445 0.929 . S
H461 C447 0.930 . S
Co462 N466 2.148 . S
Co462 N472 2.128 . S
Co462 N482 2.194 . S
Co462 O487 2.351 . S
Co462 O488 2.155 . S
Co462 O489 2.096 . S
C463 N466 1.301 . S
C463 N467 1.328 1_556 S
C463 H468 0.930 . S
C464 C465 1.333 1_556 S
C464 N466 1.317 . S
C464 H469 0.930 . S
C465 C464 1.333 1_554 S
C465 N467 1.350 . S
C465 H491 0.931 . S
N466 Co462 2.148 . S
N466 C463 1.301 . S
N466 C464 1.317 . S
N467 C463 1.328 1_554 S
N467 C465 1.350 . S
H468 C463 0.930 . S
H469 C464 0.930 . S
C470 O471 1.224 . S
C470 O489 1.247 . S
O471 C470 1.224 . S
N472 Co462 2.128 . S
N472 C473 1.355 . S
N472 C475 1.311 . S
C473 N472 1.355 . S
C473 C474 1.363 . S
C473 H485 0.929 . S
C474 C473 1.363 . S
C474 N476 1.375 . S
C474 H492 0.931 . S
C475 N472 1.311 . S
C475 N476 1.347 . S
C475 H486 0.929 . S
N476 C474 1.375 . S
N476 C475 1.347 . S
C477 C480 1.365 . S
C477 N482 1.328 . S
C477 H483 0.929 . S
C478 C479 1.362 . S
C478 C481 1.378 . S
C478 H493 0.929 . S
C479 C478 1.362 . S
C479 C480 1.366 . S
C480 C477 1.365 . S
C480 C479 1.366 . S
C480 H494 0.930 . S
C481 C478 1.378 . S
C481 N482 1.315 . S
C481 H484 0.930 . S
N482 Co462 2.194 . S
N482 C477 1.328 . S
N482 C481 1.315 . S
H483 C477 0.929 . S
H484 C481 0.930 . S
H485 C473 0.929 . S
H486 C475 0.929 . S
O487 Co462 2.351 . S
O487 C490 1.244 . S
O488 Co462 2.155 . S
O488 C490 1.240 . S
O489 Co462 2.096 . S
O489 C470 1.247 . S
C490 O487 1.244 . S
C490 O488 1.240 . S
H491 C465 0.931 . S
H492 C474 0.931 . S
H493 C478 0.929 . S
H494 C480 0.930 . S
Co495 N499 2.148 . S
Co495 N505 2.128 1_554 S
Co495 N515 2.194 . S
Co495 O520 2.351 . S
Co495 O521 2.155 . S
Co495 O522 2.096 . S
C496 N499 1.301 . S
C496 N500 1.328 . S
C496 H501 0.930 . S
C497 C498 1.333 . S
C497 N499 1.317 . S
C497 H502 0.930 . S
C498 C497 1.333 . S
C498 N500 1.350 . S
C498 H524 0.931 . S
N499 Co495 2.148 . S
N499 C496 1.301 . S
N499 C497 1.317 . S
N500 C496 1.328 . S
N500 C498 1.350 . S
H501 C496 0.930 . S
H502 C497 0.930 . S
C503 O504 1.224 . S
C503 O522 1.247 . S
O504 C503 1.224 . S
N505 Co495 2.128 1_556 S
N505 C506 1.355 . S
N505 C508 1.311 . S
C506 N505 1.355 . S
C506 C507 1.363 . S
C506 H518 0.929 . S
C507 C506 1.363 . S
C507 N509 1.375 . S
C507 H525 0.931 . S
C508 N505 1.311 . S
C508 N509 1.347 . S
C508 H519 0.929 . S
N509 C507 1.375 . S
N509 C508 1.347 . S
C510 C513 1.365 . S
C510 N515 1.328 . S
C510 H516 0.929 . S
C511 C512 1.362 . S
C511 C514 1.378 . S
C511 H526 0.929 . S
C512 C511 1.362 . S
C512 C513 1.366 . S
C513 C510 1.365 . S
C513 C512 1.366 . S
C513 H527 0.930 . S
C514 C511 1.378 . S
C514 N515 1.315 . S
C514 H517 0.930 . S
N515 Co495 2.194 . S
N515 C510 1.328 . S
N515 C514 1.315 . S
H516 C510 0.929 . S
H517 C514 0.930 . S
H518 C506 0.929 . S
H519 C508 0.929 . S
O520 Co495 2.351 . S
O520 C523 1.244 . S
O521 Co495 2.155 . S
O521 C523 1.240 . S
O522 Co495 2.096 . S
O522 C503 1.247 . S
C523 O520 1.244 . S
C523 O521 1.240 . S
H524 C498 0.931 . S
H525 C507 0.931 . S
H526 C511 0.929 . S
H527 C513 0.930 . S
C17 C512 1.630 . S
C50 C413 1.630 . S
C446 C83 1.630 . S
C116 C479 1.630 . S
C314 C149 1.630 . S
C347 C182 1.630 . S
C380 C215 1.630 . S
C281 C248 1.630 . S
C8 C239 1.556 1_554 S
C41 C140 1.556 . S
C74 C173 1.556 1_554 S
C107 C206 1.556 . S
C503 C272 1.556 1_554 S
C404 C305 1.556 . S
C437 C338 1.556 1_554 S
C371 C470 1.556 . S
C28 C160 1.289 . S
C193 C61 1.289 . S
C226 C94 1.289 . S
C127 C259 1.289 . S
C424 C292 1.289 . S
C325 C457 1.289 . S
C358 C490 1.289 . S
C523 C391 1.289 . S
N14 N5 1.753 . S
N38 N47 1.753 . S
N80 N71 1.753 . S
N104 N113 1.753 . S
N146 N137 1.753 . S
N179 N170 1.753 . S
N212 N203 1.753 . S
N245 N236 1.753 . S
N269 N278 1.753 . S
N302 N311 1.753 . S
N335 N344 1.753 . S
N368 N377 1.753 . S
N410 N401 1.753 . S
N443 N434 1.753 . S
N467 N476 1.753 . S
N500 N509 1.753 . S
