# Generated by pormake.
# Topology vcf, (6)-cn, num edge types: 1
# Building blocks:
#     Node 0, Type 0, BuildingBlock: IZENUY_clean_sbu_0, # of connection points: 6
#     Node 1, Type 0, BuildingBlock: IZENUY_clean_sbu_0, # of connection points: 6
#     Node 2, Type 0, BuildingBlock: IZENUY_clean_sbu_0, # of connection points: 6
#     Node 3, Type 0, BuildingBlock: IZENUY_clean_sbu_0, # of connection points: 6
#     Node 4, Type 0, BuildingBlock: IZENUY_clean_sbu_0, # of connection points: 6
#     Node 5, Type 0, BuildingBlock: IZENUY_clean_sbu_0, # of connection points: 6
#     Node 6, Type 0, BuildingBlock: IZENUY_clean_sbu_0, # of connection points: 6
#     Node 7, Type 0, BuildingBlock: IZENUY_clean_sbu_0, # of connection points: 6
#     Node 8, Type 0, BuildingBlock: IZENUY_clean_sbu_0, # of connection points: 6
#     Node 9, Type 0, BuildingBlock: IZENUY_clean_sbu_0, # of connection points: 6
#     Node 10, Type 0, BuildingBlock: IZENUY_clean_sbu_0, # of connection points: 6
#     Node 11, Type 0, BuildingBlock: IZENUY_clean_sbu_0, # of connection points: 6
#     Node 12, Type 0, BuildingBlock: IZENUY_clean_sbu_0, # of connection points: 6
#     Node 13, Type 0, BuildingBlock: IZENUY_clean_sbu_0, # of connection points: 6
#     Node 14, Type 0, BuildingBlock: IZENUY_clean_sbu_0, # of connection points: 6
#     Node 15, Type 0, BuildingBlock: IZENUY_clean_sbu_0, # of connection points: 6
#     Node 16, Type 0, BuildingBlock: IZENUY_clean_sbu_0, # of connection points: 6
#     Node 17, Type 0, BuildingBlock: IZENUY_clean_sbu_0, # of connection points: 6
#     Node 18, Type 0, BuildingBlock: IZENUY_clean_sbu_0, # of connection points: 6
#     Node 19, Type 0, BuildingBlock: IZENUY_clean_sbu_0, # of connection points: 6
#     Node 20, Type 0, BuildingBlock: IZENUY_clean_sbu_0, # of connection points: 6
#     Node 21, Type 0, BuildingBlock: IZENUY_clean_sbu_0, # of connection points: 6
#     Node 22, Type 0, BuildingBlock: IZENUY_clean_sbu_0, # of connection points: 6
#     Node 23, Type 0, BuildingBlock: IZENUY_clean_sbu_0, # of connection points: 6
#     Node 24, Type 0, BuildingBlock: IZENUY_clean_sbu_0, # of connection points: 6
#     Node 25, Type 0, BuildingBlock: IZENUY_clean_sbu_0, # of connection points: 6
#     Node 26, Type 0, BuildingBlock: IZENUY_clean_sbu_0, # of connection points: 6
#     Node 27, Type 0, BuildingBlock: IZENUY_clean_sbu_0, # of connection points: 6
#     Node 28, Type 0, BuildingBlock: IZENUY_clean_sbu_0, # of connection points: 6
#     Node 29, Type 0, BuildingBlock: IZENUY_clean_sbu_0, # of connection points: 6
#     Node 30, Type 0, BuildingBlock: IZENUY_clean_sbu_0, # of connection points: 6
#     Node 31, Type 0, BuildingBlock: IZENUY_clean_sbu_0, # of connection points: 6
#     Edge 32, Type (0, 0), BuildingBlock: AJUNOK_clean_linker_0, # of connection points: 2
#     Edge 33, Type (0, 0), BuildingBlock: AJUNOK_clean_linker_0, # of connection points: 2
#     Edge 34, Type (0, 0), BuildingBlock: AJUNOK_clean_linker_0, # of connection points: 2
#     Edge 35, Type (0, 0), BuildingBlock: AJUNOK_clean_linker_0, # of connection points: 2
#     Edge 36, Type (0, 0), BuildingBlock: AJUNOK_clean_linker_0, # of connection points: 2
#     Edge 37, Type (0, 0), BuildingBlock: AJUNOK_clean_linker_0, # of connection points: 2
#     Edge 38, Type (0, 0), BuildingBlock: AJUNOK_clean_linker_0, # of connection points: 2
#     Edge 39, Type (0, 0), BuildingBlock: AJUNOK_clean_linker_0, # of connection points: 2
#     Edge 40, Type (0, 0), BuildingBlock: AJUNOK_clean_linker_0, # of connection points: 2
#     Edge 41, Type (0, 0), BuildingBlock: AJUNOK_clean_linker_0, # of connection points: 2
#     Edge 42, Type (0, 0), BuildingBlock: AJUNOK_clean_linker_0, # of connection points: 2
#     Edge 43, Type (0, 0), BuildingBlock: AJUNOK_clean_linker_0, # of connection points: 2
#     Edge 44, Type (0, 0), BuildingBlock: AJUNOK_clean_linker_0, # of connection points: 2
#     Edge 45, Type (0, 0), BuildingBlock: AJUNOK_clean_linker_0, # of connection points: 2
#     Edge 46, Type (0, 0), BuildingBlock: AJUNOK_clean_linker_0, # of connection points: 2
#     Edge 47, Type (0, 0), BuildingBlock: AJUNOK_clean_linker_0, # of connection points: 2
#     Edge 48, Type (0, 0), BuildingBlock: AJUNOK_clean_linker_0, # of connection points: 2
#     Edge 49, Type (0, 0), BuildingBlock: AJUNOK_clean_linker_0, # of connection points: 2
#     Edge 50, Type (0, 0), BuildingBlock: AJUNOK_clean_linker_0, # of connection points: 2
#     Edge 51, Type (0, 0), BuildingBlock: AJUNOK_clean_linker_0, # of connection points: 2
#     Edge 52, Type (0, 0), BuildingBlock: AJUNOK_clean_linker_0, # of connection points: 2
#     Edge 53, Type (0, 0), BuildingBlock: AJUNOK_clean_linker_0, # of connection points: 2
#     Edge 54, Type (0, 0), BuildingBlock: AJUNOK_clean_linker_0, # of connection points: 2
#     Edge 55, Type (0, 0), BuildingBlock: AJUNOK_clean_linker_0, # of connection points: 2
#     Edge 56, Type (0, 0), BuildingBlock: AJUNOK_clean_linker_0, # of connection points: 2
#     Edge 57, Type (0, 0), BuildingBlock: AJUNOK_clean_linker_0, # of connection points: 2
#     Edge 58, Type (0, 0), BuildingBlock: AJUNOK_clean_linker_0, # of connection points: 2
#     Edge 59, Type (0, 0), BuildingBlock: AJUNOK_clean_linker_0, # of connection points: 2
#     Edge 60, Type (0, 0), BuildingBlock: AJUNOK_clean_linker_0, # of connection points: 2
#     Edge 61, Type (0, 0), BuildingBlock: AJUNOK_clean_linker_0, # of connection points: 2
#     Edge 62, Type (0, 0), BuildingBlock: AJUNOK_clean_linker_0, # of connection points: 2
#     Edge 63, Type (0, 0), BuildingBlock: AJUNOK_clean_linker_0, # of connection points: 2
#     Edge 64, Type (0, 0), BuildingBlock: AJUNOK_clean_linker_0, # of connection points: 2
#     Edge 65, Type (0, 0), BuildingBlock: AJUNOK_clean_linker_0, # of connection points: 2
#     Edge 66, Type (0, 0), BuildingBlock: AJUNOK_clean_linker_0, # of connection points: 2
#     Edge 67, Type (0, 0), BuildingBlock: AJUNOK_clean_linker_0, # of connection points: 2
#     Edge 68, Type (0, 0), BuildingBlock: AJUNOK_clean_linker_0, # of connection points: 2
#     Edge 69, Type (0, 0), BuildingBlock: AJUNOK_clean_linker_0, # of connection points: 2
#     Edge 70, Type (0, 0), BuildingBlock: AJUNOK_clean_linker_0, # of connection points: 2
#     Edge 71, Type (0, 0), BuildingBlock: AJUNOK_clean_linker_0, # of connection points: 2
#     Edge 72, Type (0, 0), BuildingBlock: AJUNOK_clean_linker_0, # of connection points: 2
#     Edge 73, Type (0, 0), BuildingBlock: AJUNOK_clean_linker_0, # of connection points: 2
#     Edge 74, Type (0, 0), BuildingBlock: AJUNOK_clean_linker_0, # of connection points: 2
#     Edge 75, Type (0, 0), BuildingBlock: AJUNOK_clean_linker_0, # of connection points: 2
#     Edge 76, Type (0, 0), BuildingBlock: AJUNOK_clean_linker_0, # of connection points: 2
#     Edge 77, Type (0, 0), BuildingBlock: AJUNOK_clean_linker_0, # of connection points: 2
#     Edge 78, Type (0, 0), BuildingBlock: AJUNOK_clean_linker_0, # of connection points: 2
#     Edge 79, Type (0, 0), BuildingBlock: AJUNOK_clean_linker_0, # of connection points: 2
#     Edge 80, Type (0, 0), BuildingBlock: AJUNOK_clean_linker_0, # of connection points: 2
#     Edge 81, Type (0, 0), BuildingBlock: AJUNOK_clean_linker_0, # of connection points: 2
#     Edge 82, Type (0, 0), BuildingBlock: AJUNOK_clean_linker_0, # of connection points: 2
#     Edge 83, Type (0, 0), BuildingBlock: AJUNOK_clean_linker_0, # of connection points: 2
#     Edge 84, Type (0, 0), BuildingBlock: AJUNOK_clean_linker_0, # of connection points: 2
#     Edge 85, Type (0, 0), BuildingBlock: AJUNOK_clean_linker_0, # of connection points: 2
#     Edge 86, Type (0, 0), BuildingBlock: AJUNOK_clean_linker_0, # of connection points: 2
#     Edge 87, Type (0, 0), BuildingBlock: AJUNOK_clean_linker_0, # of connection points: 2
#     Edge 88, Type (0, 0), BuildingBlock: AJUNOK_clean_linker_0, # of connection points: 2
#     Edge 89, Type (0, 0), BuildingBlock: AJUNOK_clean_linker_0, # of connection points: 2
#     Edge 90, Type (0, 0), BuildingBlock: AJUNOK_clean_linker_0, # of connection points: 2
#     Edge 91, Type (0, 0), BuildingBlock: AJUNOK_clean_linker_0, # of connection points: 2
#     Edge 92, Type (0, 0), BuildingBlock: AJUNOK_clean_linker_0, # of connection points: 2
#     Edge 93, Type (0, 0), BuildingBlock: AJUNOK_clean_linker_0, # of connection points: 2
#     Edge 94, Type (0, 0), BuildingBlock: AJUNOK_clean_linker_0, # of connection points: 2
#     Edge 95, Type (0, 0), BuildingBlock: AJUNOK_clean_linker_0, # of connection points: 2
#     Edge 96, Type (0, 0), BuildingBlock: AJUNOK_clean_linker_0, # of connection points: 2
#     Edge 97, Type (0, 0), BuildingBlock: AJUNOK_clean_linker_0, # of connection points: 2
#     Edge 98, Type (0, 0), BuildingBlock: AJUNOK_clean_linker_0, # of connection points: 2
#     Edge 99, Type (0, 0), BuildingBlock: AJUNOK_clean_linker_0, # of connection points: 2
#     Edge 100, Type (0, 0), BuildingBlock: AJUNOK_clean_linker_0, # of connection points: 2
#     Edge 101, Type (0, 0), BuildingBlock: AJUNOK_clean_linker_0, # of connection points: 2
#     Edge 102, Type (0, 0), BuildingBlock: AJUNOK_clean_linker_0, # of connection points: 2
#     Edge 103, Type (0, 0), BuildingBlock: AJUNOK_clean_linker_0, # of connection points: 2
#     Edge 104, Type (0, 0), BuildingBlock: AJUNOK_clean_linker_0, # of connection points: 2
#     Edge 105, Type (0, 0), BuildingBlock: AJUNOK_clean_linker_0, # of connection points: 2
#     Edge 106, Type (0, 0), BuildingBlock: AJUNOK_clean_linker_0, # of connection points: 2
#     Edge 107, Type (0, 0), BuildingBlock: AJUNOK_clean_linker_0, # of connection points: 2
#     Edge 108, Type (0, 0), BuildingBlock: AJUNOK_clean_linker_0, # of connection points: 2
#     Edge 109, Type (0, 0), BuildingBlock: AJUNOK_clean_linker_0, # of connection points: 2
#     Edge 110, Type (0, 0), BuildingBlock: AJUNOK_clean_linker_0, # of connection points: 2
#     Edge 111, Type (0, 0), BuildingBlock: AJUNOK_clean_linker_0, # of connection points: 2
#     Edge 112, Type (0, 0), BuildingBlock: AJUNOK_clean_linker_0, # of connection points: 2
#     Edge 113, Type (0, 0), BuildingBlock: AJUNOK_clean_linker_0, # of connection points: 2
#     Edge 114, Type (0, 0), BuildingBlock: AJUNOK_clean_linker_0, # of connection points: 2
#     Edge 115, Type (0, 0), BuildingBlock: AJUNOK_clean_linker_0, # of connection points: 2
#     Edge 116, Type (0, 0), BuildingBlock: AJUNOK_clean_linker_0, # of connection points: 2
#     Edge 117, Type (0, 0), BuildingBlock: AJUNOK_clean_linker_0, # of connection points: 2
#     Edge 118, Type (0, 0), BuildingBlock: AJUNOK_clean_linker_0, # of connection points: 2
#     Edge 119, Type (0, 0), BuildingBlock: AJUNOK_clean_linker_0, # of connection points: 2
#     Edge 120, Type (0, 0), BuildingBlock: AJUNOK_clean_linker_0, # of connection points: 2
#     Edge 121, Type (0, 0), BuildingBlock: AJUNOK_clean_linker_0, # of connection points: 2
#     Edge 122, Type (0, 0), BuildingBlock: AJUNOK_clean_linker_0, # of connection points: 2
#     Edge 123, Type (0, 0), BuildingBlock: AJUNOK_clean_linker_0, # of connection points: 2
#     Edge 124, Type (0, 0), BuildingBlock: AJUNOK_clean_linker_0, # of connection points: 2
#     Edge 125, Type (0, 0), BuildingBlock: AJUNOK_clean_linker_0, # of connection points: 2
#     Edge 126, Type (0, 0), BuildingBlock: AJUNOK_clean_linker_0, # of connection points: 2
#     Edge 127, Type (0, 0), BuildingBlock: AJUNOK_clean_linker_0, # of connection points: 2
# Relax obj value: 0.262
# Max RMSD: 0.251
# Mean RMSD: 0.250
data_MOF--net-vcf--node1-IZENUY_clean_sbu_0--edge1-AJUNOK_clean_linker_0
_symmetry_space_group_name_H-M    P1
_symmetry_Int_Tables_number       1
_symmetry_cell_setting            triclinic
loop_
_symmetry_equiv_pos_as_xyz
'x, y, z'
_cell_length_a     31.16054
_cell_length_b     26.818036
_cell_length_c     64.282197
_cell_angle_alpha  90.003468
_cell_angle_beta   89.990353
_cell_angle_gamma 89.971781
loop_
_atom_site_label
_atom_site_type_symbol
_atom_site_fract_x
_atom_site_fract_y
_atom_site_fract_z
_atom_type_partial_charge
Fe0 Fe 0.04187 0.26136 0.08753 0.0
Fe1 Fe 0.06298 0.37204 0.08314 0.0
O2 O 0.05972 0.31186 0.07217 0.0
Fe3 Fe 0.07375 0.30246 0.04579 0.0
O4 O 1.02055 0.2803 0.03958 0.0
O5 O 1.01568 0.22774 0.06567 0.0
O6 O 0.99076 0.29103 0.09196 0.0
C7 C 0.9855 0.33406 0.0993 0.0
C8 C 0.10506 0.21542 0.06616 0.0
O9 O 1.01721 0.36343 0.10108 0.0
C10 C 0.13571 0.36881 0.05564 0.0
O11 O 0.06541 0.28536 0.11214 0.0
O12 O 0.10157 0.35158 0.10217 0.0
O13 O 0.09379 0.23833 0.04977 0.0
O14 O 0.09159 0.22908 0.08369 0.0
C15 C 0.03162 0.39676 0.04556 0.0
O16 O 0.10879 0.39236 0.06681 0.0
O17 O 0.12791 0.32454 0.0502 0.0
C18 C 0.09524 0.317 0.11506 0.0
O19 O 0.02458 0.3956 0.06478 0.0
O20 O 0.05628 0.36491 0.03718 0.0
C21 C 1.00333 0.24276 0.04788 0.0
Fe22 Fe 0.22128 0.93606 0.04557 0.0
Fe23 Fe 0.25386 0.97944 0.08685 0.0
O24 O 0.23602 0.92799 0.07196 0.0
Fe25 Fe 0.23339 0.86828 0.0835 0.0
O26 O 0.27127 0.8435 0.06499 0.0
O27 O 0.23917 0.87371 0.0374 0.0
O28 O 0.2741 0.95893 0.03891 0.0
C29 C 0.291 -0.0029 0.04688 0.0
C30 C 0.16019 0.86905 0.05639 0.0
O31 O 0.27912 0.01238 0.06468 0.0
C32 C 0.20095 0.92538 0.11484 0.0
O33 O 0.20051 -0.00013 0.04917 0.0
O34 O 0.20379 0.01114 0.08301 0.0
O35 O 0.18751 0.84695 0.06775 0.0
O36 O 0.16729 0.91303 0.05024 0.0
C37 C 0.31082 0.9077 0.09899 0.0
O38 O 0.23105 0.95646 0.11169 0.0
O39 O 0.1951 0.88945 0.10257 0.0
C40 C 0.18914 0.02303 0.06546 0.0
O41 O 0.30541 0.9504 0.0913 0.0
O42 O 0.27929 0.87826 0.10109 0.0
C43 C 0.26283 0.84108 0.04589 0.0
Fe44 Fe 0.04126 0.97915 0.21731 0.0
Fe45 Fe 0.06397 0.86898 0.22128 0.0
O46 O 0.06079 0.92903 0.23242 0.0
Fe47 Fe 0.07663 0.93864 0.2586 0.0
O48 O 0.0237 0.96063 0.2657 0.0
O49 O 1.01602 0.01232 0.23946 0.0
O50 O 0.99016 0.9487 0.21356 0.0
C51 C 0.98537 0.9056 0.20621 0.0
C52 C 0.10469 0.02676 0.23767 0.0
O53 O 1.01758 0.87733 0.20386 0.0
C54 C 0.13811 0.87215 0.2477 0.0
O55 O 0.06375 0.95567 0.19246 0.0
O56 O 0.10141 0.89007 0.20184 0.0
O57 O 0.09603 0.00309 0.25427 0.0
O58 O 0.09074 0.01211 0.22042 0.0
C59 C 0.03573 0.84334 0.25933 0.0
O60 O 0.11046 0.84912 0.23689 0.0
O61 O 0.13081 0.91638 0.25354 0.0
C62 C 0.09449 0.92534 0.18936 0.0
O63 O 0.02693 0.84458 0.24023 0.0
O64 O 0.05989 0.87617 0.26738 0.0
C65 C 1.00525 -0.00247 0.2575 0.0
Fe66 Fe 0.22284 0.30323 0.25948 0.0
Fe67 Fe 0.25396 0.26186 0.21756 0.0
O68 O 0.23656 0.31245 0.23303 0.0
Fe69 Fe 0.23348 0.37254 0.22196 0.0
O70 O 0.27238 0.39593 0.24014 0.0
O71 O 0.24133 0.3652 0.26795 0.0
O72 O 0.27584 0.27963 0.2656 0.0
C73 C 0.29183 0.2414 0.25723 0.0
C74 C 0.16125 0.37076 0.2496 0.0
O75 O 0.27955 0.22761 0.23928 0.0
C76 C 0.20036 0.31757 0.19028 0.0
O77 O 0.20157 0.23974 0.25545 0.0
O78 O 0.20392 0.2302 0.22143 0.0
O79 O 0.18832 0.39374 0.23838 0.0
O80 O 0.16882 0.32663 0.25537 0.0
C81 C 0.31063 0.33432 0.20584 0.0
O82 O 0.23053 0.28624 0.193 0.0
O83 O 0.19429 0.35218 0.20318 0.0
C84 C 0.18905 0.21828 0.23894 0.0
O85 O 0.30551 0.29115 0.21315 0.0
O86 O 0.27859 0.36304 0.20379 0.0
C87 C 0.26569 0.39707 0.25941 0.0
Fe88 Fe 0.97166 0.68764 1.00924 0.0
Fe89 Fe 0.98168 0.61868 0.97163 0.0
O90 O 0.98566 0.67855 0.98286 0.0
Fe91 Fe 1.00411 0.72913 0.96762 0.0
O92 O 0.03003 0.76232 0.9896 0.0
O93 O 0.02497 0.70934 1.01552 0.0
O94 O 0.98869 0.62505 1.01761 0.0
C95 C 1.01191 0.59197 1.00913 0.0
C96 C 0.93958 0.77368 0.98894 0.0
O97 O 1.01964 0.59356 0.98995 0.0
C98 C 0.95019 0.67501 0.93995 0.0
O99 O 0.9173 0.66595 1.00484 0.0
O100 O 0.93569 0.59854 0.98776 0.0
O101 O 0.95451 0.76184 0.97143 0.0
O102 O 0.95179 0.75181 1.00539 0.0
C103 C 0.05984 0.65546 0.95606 0.0
O104 O 0.94333 0.64046 0.95277 0.0
O105 O 0.98069 0.70576 0.94287 0.0
C106 C 0.90906 0.62199 0.99908 0.0
O107 O 0.02742 0.62741 0.95378 0.0
O108 O 0.05524 0.69878 0.96329 0.0
C109 C 0.0422 0.74703 1.00736 0.0
Fe110 Fe 0.79217 0.01152 0.96698 0.0
Fe111 Fe 0.82427 0.05222 1.00881 0.0
O112 O 0.80971 0.06187 0.98245 0.0
Fe113 Fe 0.81204 0.12212 0.97147 0.0
O114 O 0.76649 0.11279 0.95356 0.0
O115 O 0.74053 0.04041 0.96293 0.0
O116 O 0.7671 0.97681 0.98867 0.0
C117 C 0.75527 0.99016 1.00673 0.0
C118 C 0.84508 0.06723 0.93968 0.0
O119 O 0.77149 0.02815 1.0152 0.0
C120 C 0.88477 0.12075 0.99889 0.0
O121 O 0.84243 0.98039 0.97046 0.0
O122 O 0.84555 0.98847 1.00444 0.0
O123 O 0.8509 0.10253 0.9523 0.0
O124 O 0.81474 0.03631 0.94245 0.0
C125 C 0.78081 0.14599 1.00921 0.0
O126 O 0.8781 0.07627 1.00454 0.0
O127 O 0.85732 0.14314 0.98769 0.0
C128 C 0.8556 0.96548 0.98784 0.0
O129 O 0.80554 0.11411 1.01758 0.0
O130 O 0.77349 0.14473 0.99 0.0
C131 C 0.73494 0.08334 0.95553 0.0
Fe132 Fe 0.98238 0.12223 0.83306 0.0
Fe133 Fe 1.00536 0.01226 0.83786 0.0
O134 O 0.9865 0.06184 0.82225 0.0
Fe135 Fe 0.9722 0.05126 0.79596 0.0
O136 O 0.98917 0.11361 0.78701 0.0
O137 O 1.02017 0.14637 0.81444 0.0
O138 O 0.02814 0.11455 0.85095 0.0
C139 C 0.06058 0.08645 0.84892 0.0
C140 C 0.90978 0.11764 0.8057 0.0
O141 O 0.05623 0.04301 0.84184 0.0
C142 C 0.94293 0.96389 0.81708 0.0
O143 O 0.9442 0.10143 0.85227 0.0
O144 O 0.98208 0.03663 0.86235 0.0
O145 O 0.91786 0.07331 0.80034 0.0
O146 O 0.93639 0.14149 0.81685 0.0
C147 C 0.04256 0.99142 0.79806 0.0
O148 O 0.95599 0.97907 0.83444 0.0
O149 O 0.95257 0.98698 0.80046 0.0
C150 C 0.95108 0.06676 0.86506 0.0
O151 O 0.03128 0.97817 0.81622 0.0
O152 O 0.02553 0.02889 0.78955 0.0
C153 C 1.01245 0.14706 0.79524 0.0
Fe154 Fe 0.81271 0.6192 0.83322 0.0
Fe155 Fe 0.79239 0.7301 0.83679 0.0
O156 O 0.81022 0.67888 0.82177 0.0
Fe157 Fe 0.82487 0.68696 0.79538 0.0
O158 O 0.8064 0.6247 0.7872 0.0
O159 O 0.77418 0.59531 0.81494 0.0
O160 O 0.7673 0.6295 0.8511 0.0
C161 C 0.73533 0.6581 0.84863 0.0
C162 C 0.88569 0.61946 0.80604 0.0
O163 O 0.74071 0.70099 0.84108 0.0
C164 C 0.85812 0.77267 0.8156 0.0
O165 O 0.85151 0.64013 0.85201 0.0
O166 O 0.81532 0.7066 0.86165 0.0
O167 O 0.87875 0.66352 0.79997 0.0
O168 O 0.85809 0.59728 0.8172 0.0
C169 C 0.75512 0.74813 0.79687 0.0
O170 O 0.84249 0.76163 0.83304 0.0
O171 O 0.8461 0.75062 0.79914 0.0
C172 C 0.8453 0.67514 0.8647 0.0
O173 O 0.76718 0.76344 0.81465 0.0
O174 O 0.77217 0.71018 0.78881 0.0
C175 C 0.78161 0.59326 0.79575 0.0
Fe176 Fe 0.06333 0.87375 0.58322 0.0
Fe177 Fe 0.0736 0.80514 0.54545 0.0
O178 O 0.05955 0.81391 0.57185 0.0
Fe179 Fe 0.041 0.76325 0.58694 0.0
O180 O 0.99012 0.79375 0.59136 0.0
O181 O 1.0178 0.86485 0.60121 0.0
O182 O 0.02498 0.89838 0.56505 0.0
C183 C 0.03185 0.89993 0.54582 0.0
C184 C 0.09529 0.81685 0.61457 0.0
O185 O 0.0562 0.86802 0.53721 0.0
C186 C 0.10418 0.71704 0.5655 0.0
O187 O 0.10907 0.89431 0.56697 0.0
O188 O 0.12784 0.82692 0.54998 0.0
O189 O 0.06463 0.78635 0.61159 0.0
O190 O 0.10185 0.85224 0.60209 0.0
C191 C 1.00292 0.74551 0.54714 0.0
O192 O 0.09359 0.74076 0.54918 0.0
O193 O 0.09035 0.73013 0.58306 0.0
C194 C 0.13587 0.87094 0.55569 0.0
O195 O 1.02033 0.78315 0.53899 0.0
O196 O 1.01478 0.73042 0.56497 0.0
C197 C 0.98547 0.83673 0.5989 0.0
Fe198 Fe 0.22296 0.43813 0.54519 0.0
Fe199 Fe 0.2529 0.48222 0.58678 0.0
O200 O 0.23613 0.43052 0.57179 0.0
Fe201 Fe 0.23338 0.371 0.58348 0.0
O202 O 0.27257 0.34657 0.5656 0.0
O203 O 0.24194 0.37572 0.5374 0.0
O204 O 0.27603 0.46169 0.53914 0.0
C205 C 0.29143 0.50059 0.5472 0.0
C206 C 0.16176 0.37067 0.55539 0.0
O207 O 0.2785 0.51549 0.56486 0.0
C208 C 0.19954 0.42778 0.61446 0.0
O209 O 0.20129 0.50186 0.54849 0.0
O210 O 0.20263 0.51327 0.58242 0.0
O211 O 0.18857 0.34885 0.56715 0.0
O212 O 0.16899 0.41457 0.5492 0.0
C213 C 0.31002 0.4109 0.59929 0.0
O214 O 0.22955 0.45904 0.61144 0.0
O215 O 0.19394 0.39193 0.60211 0.0
C216 C 0.18884 0.52493 0.56466 0.0
O217 O 0.30459 0.45364 0.59159 0.0
O218 O 0.27823 0.38196 0.6016 0.0
C219 C 0.26599 0.34412 0.54634 0.0
Fe220 Fe 0.04405 0.48079 0.71837 0.0
Fe221 Fe 0.06351 0.36948 0.72134 0.0
O222 O 0.06143 0.42894 0.73309 0.0
Fe223 Fe 0.07606 0.43638 0.75951 0.0
O224 O 0.0234 0.45985 0.76618 0.0
O225 O 1.01943 0.51399 0.74066 0.0
O226 O 0.9922 0.45254 0.71411 0.0
C227 C 0.98624 0.4101 0.70626 0.0
C228 C 0.11008 0.52224 0.73962 0.0
O229 O 1.01762 0.38053 0.70377 0.0
C230 C 0.13658 0.36881 0.74857 0.0
O231 O 0.06609 0.45759 0.69339 0.0
O232 O 0.10209 0.3905 0.70233 0.0
O233 O 0.09764 0.50009 0.756 0.0
O234 O 0.09462 0.51147 0.72211 0.0
C235 C 0.03265 0.34262 0.75882 0.0
O236 O 0.10913 0.34707 0.73714 0.0
O237 O 0.12976 0.41277 0.75479 0.0
C238 C 0.09601 0.42636 0.69003 0.0
O239 O 0.0252 0.34517 0.73964 0.0
O240 O 0.05738 0.37395 0.7675 0.0
C241 C 1.00684 0.49828 0.75827 0.0
Fe242 Fe 0.22252 0.80216 0.7585 0.0
Fe243 Fe 0.25489 0.76288 0.7165 0.0
O244 O 0.23647 0.81264 0.73214 0.0
Fe245 Fe 0.23241 0.87311 0.72136 0.0
O246 O 0.27034 0.89716 0.73991 0.0
O247 O 0.2395 0.86454 0.76738 0.0
O248 O 0.27596 0.77985 0.76471 0.0
C249 C 0.29279 0.74233 0.75613 0.0
C250 C 0.15989 0.86839 0.74889 0.0
O251 O 0.28115 0.72898 0.73805 0.0
C252 C 0.20055 0.81758 0.68942 0.0
O253 O 0.20288 0.73784 0.75418 0.0
O254 O 0.2055 0.72966 0.72019 0.0
O255 O 0.18638 0.8923 0.73767 0.0
O256 O 0.16813 0.82412 0.75427 0.0
C257 C 0.3103 0.83666 0.70501 0.0
O258 O 0.23133 0.78717 0.6921 0.0
O259 O 0.19409 0.85247 0.70216 0.0
C260 C 0.19293 0.71454 0.73767 0.0
O261 O 0.30573 0.79337 0.71221 0.0
O262 O 0.27827 0.86564 0.70344 0.0
C263 C 0.26278 0.89791 0.75911 0.0
Fe264 Fe 0.97066 0.19108 0.50877 0.0
Fe265 Fe 0.98294 0.12021 0.47193 0.0
O266 O 0.98584 0.18075 0.48259 0.0
Fe267 Fe 1.00428 0.23075 0.46713 0.0
O268 O 0.02998 0.26453 0.48906 0.0
O269 O 0.02379 0.21275 0.5154 0.0
O270 O 0.98711 0.12857 0.51785 0.0
C271 C 1.01151 0.09576 0.50993 0.0
C272 C 0.9415 0.27852 0.48778 0.0
O273 O 1.02038 0.097 0.49089 0.0
C274 C 0.95182 0.17451 0.43951 0.0
O275 O 0.91653 0.1694 0.50383 0.0
O276 O 0.93619 0.10087 0.48782 0.0
O277 O 0.95451 0.26316 0.47045 0.0
O278 O 0.95139 0.25561 0.50439 0.0
C279 C 0.06099 0.15787 0.45604 0.0
O280 O 0.94529 0.14009 0.45242 0.0
O281 O 0.98145 0.20632 0.44248 0.0
C282 C 0.90879 0.12499 0.4985 0.0
O283 O 0.02955 0.12805 0.45442 0.0
O284 O 0.05542 0.20103 0.46315 0.0
C285 C 0.04177 0.24966 0.50697 0.0
Fe286 Fe 0.79067 0.51238 0.46731 0.0
Fe287 Fe 0.82242 0.55517 0.5089 0.0
O288 O 0.80864 0.56339 0.4824 0.0
Fe289 Fe 0.81238 0.62272 0.47068 0.0
O290 O 0.76692 0.61263 0.45269 0.0
O291 O 0.73922 0.54196 0.46316 0.0
O292 O 0.76586 0.47848 0.48925 0.0
C293 C 0.7538 0.49253 0.50716 0.0
C294 C 0.84482 0.56482 0.43975 0.0
O295 O 0.76948 0.5313 0.51522 0.0
C296 C 0.88394 0.6227 0.4987 0.0
O297 O 0.84082 0.48069 0.47106 0.0
O298 O 0.84411 0.4917 0.50506 0.0
O299 O 0.85177 0.60015 0.4522 0.0
O300 O 0.81292 0.53611 0.44244 0.0
C301 C 0.78017 0.64976 0.50797 0.0
O302 O 0.87648 0.57887 0.50491 0.0
O303 O 0.85738 0.64447 0.48686 0.0
C304 C 0.85625 0.46962 0.48859 0.0
O305 O 0.80351 0.61738 0.5169 0.0
O306 O 0.77385 0.64818 0.48864 0.0
C307 C 0.7345 0.58466 0.4553 0.0
Fe308 Fe 0.98136 0.62215 0.33385 0.0
Fe309 Fe 1.00375 0.51193 0.33714 0.0
O310 O 0.98552 0.56288 0.32209 0.0
Fe311 Fe 0.97198 0.55466 0.29556 0.0
O312 O 0.99036 0.61709 0.28763 0.0
O313 O 1.01975 0.64807 0.31593 0.0
O314 O 0.02691 0.61245 0.35182 0.0
C315 C 0.05944 0.58467 0.34914 0.0
C316 C 0.90985 0.62142 0.30578 0.0
O317 O 0.05489 0.54189 0.34137 0.0
C318 C 0.93973 0.46747 0.31558 0.0
O319 O 0.94213 0.59923 0.35235 0.0
O320 O 0.98125 0.53528 0.36201 0.0
O321 O 0.91769 0.57768 0.29954 0.0
O322 O 0.93621 0.64345 0.31764 0.0
C323 C 0.04123 0.49297 0.2974 0.0
O324 O 0.9539 0.47972 0.33323 0.0
O325 O 0.95101 0.49082 0.29927 0.0
C326 C 0.94951 0.56416 0.36489 0.0
O327 O 0.02902 0.4785 0.31521 0.0
O328 O 0.02523 0.53153 0.2893 0.0
C329 C 1.01382 0.6493 0.29657 0.0
Fe330 Fe 0.79372 0.22993 0.33714 0.0
Fe331 Fe 0.82445 0.18697 0.29553 0.0
O332 O 0.81028 0.17857 0.32194 0.0
Fe333 Fe 0.812 0.11865 0.33326 0.0
O334 O 0.76663 0.12975 0.35125 0.0
O335 O 0.74172 0.20217 0.34117 0.0
O336 O 0.76901 0.26434 0.31521 0.0
C337 C 0.75613 0.24992 0.29746 0.0
C338 C 0.84571 0.17347 0.36478 0.0
O339 O 0.77174 0.21131 0.28921 0.0
C340 C 0.88466 0.11832 0.3058 0.0
O341 O 0.84443 0.25994 0.33338 0.0
O342 O 0.84645 0.25052 0.29943 0.0
O343 O 0.85127 0.13846 0.35204 0.0
O344 O 0.81612 0.20542 0.36188 0.0
C345 C 0.78019 0.09365 0.29582 0.0
O346 O 0.87806 0.16259 0.29987 0.0
O347 O 0.85705 0.09627 0.31705 0.0
C348 C 0.8581 0.27332 0.31583 0.0
O349 O 0.80512 0.12496 0.28723 0.0
O350 O 0.77305 0.09566 0.31504 0.0
C351 C 0.73552 0.15961 0.34875 0.0
Fe352 Fe 0.5405 0.26473 0.5885 0.0
Fe353 Fe 0.56327 0.3748 0.58346 0.0
O354 O 0.55944 0.31416 0.57282 0.0
Fe355 Fe 0.57418 0.30317 0.54659 0.0
O356 O 0.52098 0.28058 0.54007 0.0
O357 O 0.51482 0.23038 0.56689 0.0
O358 O 0.48957 0.29548 0.59238 0.0
C359 C 0.48498 0.33886 0.59951 0.0
C360 C 0.60331 0.21617 0.56796 0.0
O361 O 0.51704 0.36771 0.60115 0.0
C362 C 0.63646 0.36975 0.55639 0.0
O363 O 0.56351 0.28936 0.61295 0.0
O364 O 0.60112 0.35437 0.60292 0.0
O365 O 0.59383 0.23908 0.5513 0.0
O366 O 0.58991 0.23138 0.58527 0.0
C367 C 0.53393 0.39888 0.54544 0.0
O368 O 0.60964 0.39375 0.56738 0.0
O369 O 0.62845 0.32537 0.55108 0.0
C370 C 0.59443 0.31953 0.61565 0.0
O371 O 0.52584 0.39855 0.5646 0.0
O372 O 0.55732 0.36527 0.53741 0.0
C373 C 0.50389 0.24321 0.54863 0.0
Fe374 Fe 0.72165 0.94033 0.54489 0.0
Fe375 Fe 0.75319 0.9811 0.58689 0.0
O376 O 0.73604 0.93059 0.57126 0.0
Fe377 Fe 0.73374 0.87019 0.58208 0.0
O378 O 0.77218 0.84714 0.56344 0.0
O379 O 0.7404 0.87884 0.53604 0.0
O380 O 0.77435 0.96459 0.53869 0.0
C381 C 0.79029 0.00268 0.54717 0.0
C382 C 0.66098 0.87174 0.55479 0.0
O383 O 0.77821 0.01602 0.5652 0.0
C384 C 0.7006 0.92428 0.61414 0.0
O385 O 0.69994 0.00351 0.5493 0.0
O386 O 0.7028 0.01227 0.58333 0.0
O387 O 0.68843 0.84933 0.56594 0.0
O388 O 0.6678 0.91605 0.54897 0.0
C389 C 0.81058 0.90923 0.59834 0.0
O390 O 0.73036 0.95605 0.61143 0.0
O391 O 0.69487 0.88974 0.60118 0.0
C392 C 0.68755 0.02449 0.56594 0.0
O393 O 0.80506 0.9524 0.59111 0.0
O394 O 0.77916 0.87951 0.59999 0.0
C395 C 0.76407 0.84584 0.54428 0.0
Fe396 Fe 0.56281 0.86897 0.72081 0.0
Fe397 Fe 0.57521 0.93685 0.75858 0.0
O398 O 0.56039 0.9287 0.73223 0.0
Fe399 Fe 0.54245 0.9799 0.71724 0.0
O400 O 0.49084 0.95082 0.71299 0.0
O401 O 0.51727 0.8792 0.70299 0.0
O402 O 0.52439 0.84518 0.73917 0.0
C403 C 0.53198 0.84312 0.75835 0.0
C404 C 0.59509 0.92474 0.68922 0.0
O405 O 0.55685 0.87456 0.76684 0.0
C406 C 0.60741 0.02362 0.7384 0.0
O407 O 0.60829 0.84714 0.7368 0.0
O408 O 0.62906 0.91351 0.75389 0.0
O409 O 0.56531 0.95639 0.69237 0.0
O410 O 0.60145 0.88973 0.70189 0.0
C411 C 0.50543 -0.00199 0.75727 0.0
O412 O 0.59627 0.00056 0.75477 0.0
O413 O 0.5925 0.01154 0.72093 0.0
C414 C 0.63588 0.86931 0.74798 0.0
O415 O 0.52254 0.96004 0.76527 0.0
O416 O 0.51723 0.01322 0.73943 0.0
C417 C 0.48542 0.90803 0.70538 0.0
Fe418 Fe 0.72377 0.30202 0.75891 0.0
Fe419 Fe 0.75608 0.26291 0.71687 0.0
O420 O 0.73747 0.31255 0.73256 0.0
Fe421 Fe 0.7332 0.373 0.72182 0.0
O422 O 0.77129 0.39711 0.74029 0.0
O423 O 0.74086 0.36416 0.7678 0.0
O424 O 0.77719 0.27958 0.76502 0.0
C425 C 0.79382 0.24191 0.75649 0.0
C426 C 0.66099 0.36823 0.74942 0.0
O427 O 0.78222 0.22871 0.73838 0.0
C428 C 0.70137 0.31761 0.68992 0.0
O429 O 0.70393 0.23811 0.75447 0.0
O430 O 0.70677 0.22944 0.72049 0.0
O431 O 0.68741 0.39221 0.73821 0.0
O432 O 0.66935 0.32404 0.75484 0.0
C433 C 0.81125 0.33747 0.70581 0.0
O434 O 0.73238 0.28741 0.69248 0.0
O435 O 0.69473 0.35224 0.70275 0.0
C436 C 0.693 0.21549 0.73796 0.0
O437 O 0.80697 0.29383 0.71274 0.0
O438 O 0.77867 0.36535 0.70377 0.0
C439 C 0.76389 0.39768 0.75951 0.0
Fe440 Fe 0.47306 0.68801 0.5087 0.0
Fe441 Fe 0.48303 0.61917 0.47109 0.0
O442 O 0.48646 0.67916 0.48222 0.0
Fe443 Fe 0.50372 0.73003 0.46684 0.0
O444 O 0.53008 0.76359 0.48861 0.0
O445 O 0.52623 0.71063 0.5146 0.0
O446 O 0.49118 0.62561 0.51697 0.0
C447 C 0.51541 0.59367 0.50836 0.0
C448 C 0.43935 0.7736 0.48866 0.0
O449 O 0.52206 0.59517 0.48909 0.0
C450 C 0.44958 0.67476 0.43967 0.0
O451 O 0.41885 0.66547 0.50465 0.0
O452 O 0.4379 0.59827 0.48759 0.0
O453 O 0.45388 0.76196 0.47105 0.0
O454 O 0.45229 0.75187 0.50502 0.0
C455 C 0.55983 0.65756 0.4545 0.0
O456 O 0.44374 0.64002 0.45252 0.0
O457 O 0.47966 0.7062 0.44234 0.0
C458 C 0.41098 0.62148 0.49883 0.0
O459 O 0.52797 0.62845 0.45282 0.0
O460 O 0.555 0.70057 0.462 0.0
C461 C 0.54284 0.74856 0.50632 0.0
Fe462 Fe 0.29208 0.0134 0.46741 0.0
Fe463 Fe 0.32547 0.05239 0.50926 0.0
O464 O 0.31096 0.063 0.483 0.0
Fe465 Fe 0.31493 0.12339 0.47219 0.0
O466 O 0.26889 0.11574 0.45441 0.0
O467 O 0.24111 0.04402 0.46349 0.0
O468 O 0.26633 0.97932 0.4891 0.0
C469 C 0.255 0.99281 0.50722 0.0
C470 C 0.34626 0.06768 0.44018 0.0
O471 O 0.27215 0.03017 0.51574 0.0
C472 C 0.38782 0.11874 0.49945 0.0
O473 O 0.34154 0.98035 0.47075 0.0
O474 O 0.34505 0.98803 0.50473 0.0
O475 O 0.35299 0.10254 0.45289 0.0
O476 O 0.31518 0.03772 0.44289 0.0
C477 C 0.28528 0.14825 0.51009 0.0
O478 O 0.3798 0.07439 0.5048 0.0
O479 O 0.36114 0.1426 0.48832 0.0
C480 C 0.35464 0.96502 0.48808 0.0
O481 O 0.30862 0.11476 0.51825 0.0
O482 O 0.27733 0.14756 0.49091 0.0
C483 C 0.23654 0.08744 0.45641 0.0
Fe484 Fe 0.50489 0.01193 0.3376 0.0
Fe485 Fe 0.47151 0.05261 0.29612 0.0
O486 O 0.48621 0.06235 0.32238 0.0
Fe487 Fe 0.48278 0.12254 0.33349 0.0
O488 O 0.52956 0.11393 0.35089 0.0
O489 O 0.55616 0.04191 0.34107 0.0
O490 O 0.52962 0.97791 0.31562 0.0
C491 C 0.54123 0.99194 0.29762 0.0
C492 C 0.45218 0.06645 0.36549 0.0
O493 O 0.52468 0.0301 0.28944 0.0
C494 C 0.4094 0.11887 0.30644 0.0
O495 O 0.45499 0.97956 0.33442 0.0
O496 O 0.45153 0.98871 0.30049 0.0
O497 O 0.44522 0.10147 0.35291 0.0
O498 O 0.48284 0.03605 0.36242 0.0
C499 C 0.51173 0.1482 0.29558 0.0
O500 O 0.41743 0.07474 0.30084 0.0
O501 O 0.43612 0.14241 0.31769 0.0
C502 C 0.44063 0.96609 0.31701 0.0
O503 O 0.48846 0.11487 0.28733 0.0
O504 O 0.51979 0.14725 0.31472 0.0
C505 C 0.56133 0.08489 0.34842 0.0
Fe506 Fe 0.29108 0.7297 0.33706 0.0
Fe507 Fe 0.32454 0.68767 0.29563 0.0
O508 O 0.30928 0.67881 0.3219 0.0
Fe509 Fe 0.31173 0.61877 0.33305 0.0
O510 O 0.26578 0.62816 0.35066 0.0
O511 O 0.23946 0.70043 0.3412 0.0
O512 O 0.26607 0.76341 0.31496 0.0
C513 C 0.2548 0.7488 0.29696 0.0
C514 C 0.34346 0.67418 0.36495 0.0
O515 O 0.27191 0.71085 0.28891 0.0
C516 C 0.38537 0.62013 0.30623 0.0
O517 O 0.34112 0.76163 0.3336 0.0
O518 O 0.34525 0.75123 0.29973 0.0
O519 O 0.34985 0.63931 0.35223 0.0
O520 O 0.31368 0.70581 0.36188 0.0
C521 C 0.28261 0.59307 0.29526 0.0
O522 O 0.37847 0.66435 0.30034 0.0
O523 O 0.3577 0.59774 0.31728 0.0
C524 C 0.35613 0.77402 0.31618 0.0
O525 O 0.30667 0.62566 0.28704 0.0
O526 O 0.27392 0.59495 0.31435 0.0
C527 C 0.23416 0.65751 0.34869 0.0
Fe528 Fe 0.54147 0.76202 0.08754 0.0
Fe529 Fe 0.5639 0.87194 0.08259 0.0
O530 O 0.56016 0.81148 0.07187 0.0
Fe531 Fe 0.57457 0.80079 0.04559 0.0
O532 O 0.52132 0.77822 0.03922 0.0
O533 O 0.51568 0.72762 0.06594 0.0
O534 O 0.49049 0.79259 0.09147 0.0
C535 C 0.48584 0.83595 0.09861 0.0
C536 C 0.60413 0.71377 0.06689 0.0
O537 O 0.51815 0.86429 0.10056 0.0
C538 C 0.63664 0.8675 0.05523 0.0
O539 O 0.56467 0.78674 0.11197 0.0
O540 O 0.6023 0.85159 0.10179 0.0
O541 O 0.59445 0.73659 0.05021 0.0
O542 O 0.59097 0.72911 0.08421 0.0
C543 C 0.53281 0.8954 0.04474 0.0
O544 O 0.60974 0.89139 0.06624 0.0
O545 O 0.6288 0.82309 0.04995 0.0
C546 C 0.59569 0.81685 0.11458 0.0
O547 O 0.52583 0.89524 0.06399 0.0
O548 O 0.55725 0.863 0.03654 0.0
C549 C 0.50426 0.74093 0.04782 0.0
Fe550 Fe 0.72228 0.43728 0.04548 0.0
Fe551 Fe 0.75356 0.47833 0.08739 0.0
O552 O 0.73597 0.42781 0.0719 0.0
Fe553 Fe 0.7325 0.3677 0.08296 0.0
O554 O 0.77085 0.34336 0.06462 0.0
O555 O 0.74022 0.37516 0.03695 0.0
O556 O 0.77546 0.46046 0.03938 0.0
C557 C 0.79138 0.49872 0.04775 0.0
C558 C 0.66012 0.37044 0.05544 0.0
O559 O 0.77905 0.51252 0.06567 0.0
C560 C 0.70011 0.42304 0.11477 0.0
O561 O 0.70138 0.50093 0.04957 0.0
O562 O 0.70352 0.5102 0.08359 0.0
O563 O 0.68689 0.34721 0.06673 0.0
O564 O 0.66811 0.4144 0.04957 0.0
C565 C 0.81006 0.40544 0.09884 0.0
O566 O 0.73039 0.4541 0.11199 0.0
O567 O 0.69372 0.38857 0.10185 0.0
C568 C 0.68874 0.52228 0.06608 0.0
O569 O 0.80506 0.4488 0.0917 0.0
O570 O 0.77795 0.37684 0.10093 0.0
C571 C 0.76329 0.34193 0.04542 0.0
Fe572 Fe 0.54183 0.47919 0.21759 0.0
Fe573 Fe 0.56301 0.36845 0.22173 0.0
O574 O 0.55963 0.42843 0.23288 0.0
Fe575 Fe 0.57354 0.43735 0.2593 0.0
O576 O 0.52047 0.4599 0.26549 0.0
O577 O 0.51589 0.5128 0.23951 0.0
O578 O 0.49055 0.44958 0.21306 0.0
C579 C 0.48567 0.40661 0.20554 0.0
C580 C 0.60658 0.52296 0.239 0.0
O581 O 0.51759 0.37757 0.20368 0.0
C582 C 0.63549 0.37075 0.24931 0.0
O583 O 0.56539 0.45536 0.19295 0.0
O584 O 0.60186 0.38934 0.20292 0.0
O585 O 0.59415 0.50124 0.25546 0.0
O586 O 0.59165 0.51121 0.2215 0.0
C587 C 0.53114 0.34321 0.25913 0.0
O588 O 0.60854 0.34753 0.23808 0.0
O589 O 0.62768 0.41486 0.25499 0.0
C590 C 0.59547 0.42397 0.19007 0.0
O591 O 0.52436 0.34457 0.23989 0.0
O592 O 0.55563 0.37497 0.26767 0.0
C593 C 0.50357 0.49776 0.25729 0.0
Fe594 Fe 0.71924 0.80254 0.25864 0.0
Fe595 Fe 0.75372 0.76221 0.21729 0.0
O596 O 0.73479 0.81245 0.23248 0.0
Fe597 Fe 0.73174 0.87275 0.22149 0.0
O598 O 0.76877 0.89666 0.24049 0.0
O599 O 0.73573 0.86509 0.26755 0.0
O600 O 0.77225 0.78061 0.26559 0.0
C601 C 0.79026 0.74343 0.25735 0.0
C602 C 0.65757 0.86881 0.24804 0.0
O603 O 0.779 0.72867 0.23937 0.0
C604 C 0.70112 0.81693 0.18937 0.0
O605 O 0.69991 0.73804 0.25434 0.0
O606 O 0.70399 0.72977 0.22045 0.0
O607 O 0.68488 0.89249 0.23717 0.0
O608 O 0.6652 0.82444 0.25349 0.0
C609 C 0.81014 0.83506 0.20608 0.0
O610 O 0.7314 0.78608 0.19252 0.0
O611 O 0.6944 0.85221 0.20187 0.0
C612 C 0.69054 0.71475 0.23775 0.0
O613 O 0.8048 0.79212 0.21347 0.0
O614 O 0.77855 0.86458 0.20417 0.0
C615 C 0.75986 0.89801 0.25955 0.0
Fe616 Fe 0.47236 0.18604 1.00914 0.0
Fe617 Fe 0.48269 0.11793 0.97114 0.0
O618 O 0.48608 0.17762 0.98264 0.0
Fe619 Fe 0.50386 0.22865 0.96751 0.0
O620 O 0.52935 0.26205 0.98938 0.0
O621 O 0.5255 0.20923 1.01541 0.0
O622 O 0.49054 0.12367 1.01722 0.0
C623 C 0.51363 0.09081 1.00848 0.0
C624 C 0.43973 0.27279 0.98912 0.0
O625 O 0.52115 0.09292 0.98928 0.0
C626 C 0.45 0.17489 0.93996 0.0
O627 O 0.41813 0.16296 1.005 0.0
O628 O 0.43737 0.09683 0.98725 0.0
O629 O 0.45393 0.26072 0.97149 0.0
O630 O 0.45139 0.24981 1.00543 0.0
C631 C 0.56009 0.15593 0.95559 0.0
O632 O 0.44382 0.13941 0.95242 0.0
O633 O 0.48068 0.20532 0.94283 0.0
C634 C 0.41045 0.11921 0.99872 0.0
O635 O 0.52785 0.12781 0.95316 0.0
O636 O 0.55529 0.19901 0.96306 0.0
C637 C 0.54143 0.24778 1.00726 0.0
Fe638 Fe 0.2925 0.51092 0.96706 0.0
Fe639 Fe 0.32393 0.55144 1.00901 0.0
O640 O 0.30988 0.56127 0.98264 0.0
Fe641 Fe 0.31256 0.62173 0.97187 0.0
O642 O 0.2668 0.61293 0.95396 0.0
O643 O 0.24101 0.54005 0.96283 0.0
O644 O 0.26688 0.47646 0.98875 0.0
C645 C 0.25458 0.49025 1.0067 0.0
C646 C 0.3452 0.56773 0.93969 0.0
O647 O 0.27087 0.52814 1.0152 0.0
C648 C 0.38534 0.61883 0.99929 0.0
O649 O 0.34256 0.47905 0.97074 0.0
O650 O 0.34475 0.48776 1.00473 0.0
O651 O 0.35126 0.60217 0.95267 0.0
O652 O 0.31562 0.53575 0.94254 0.0
C653 C 0.28117 0.64536 1.00961 0.0
O654 O 0.37788 0.57447 1.00473 0.0
O655 O 0.35823 0.64222 0.98819 0.0
C656 C 0.35619 0.46529 0.98825 0.0
O657 O 0.30586 0.61342 1.01788 0.0
O658 O 0.27406 0.64447 0.99039 0.0
C659 C 0.2353 0.58325 0.95572 0.0
Fe660 Fe 0.50403 0.51233 0.83737 0.0
Fe661 Fe 0.47338 0.55219 0.79515 0.0
O662 O 0.48661 0.56246 0.8216 0.0
Fe663 Fe 0.48291 0.62298 0.83233 0.0
O664 O 0.52836 0.61485 0.85039 0.0
O665 O 0.55527 0.5421 0.84188 0.0
O666 O 0.5302 0.47784 0.8159 0.0
C667 C 0.54275 0.49128 0.79796 0.0
C668 C 0.4502 0.56848 0.86439 0.0
O669 O 0.52674 0.52924 0.78937 0.0
C670 C 0.41088 0.61898 0.80455 0.0
O671 O 0.4542 0.48005 0.83342 0.0
O672 O 0.45283 0.4885 0.79936 0.0
O673 O 0.44408 0.60281 0.85137 0.0
O674 O 0.48026 0.53703 0.86175 0.0
C675 C 0.51404 0.64753 0.7947 0.0
O676 O 0.41908 0.57484 0.79899 0.0
O677 O 0.4373 0.64264 0.81589 0.0
C678 C 0.44006 0.46727 0.81586 0.0
O679 O 0.49103 0.61414 0.78634 0.0
O680 O 0.52134 0.64674 0.81392 0.0
C681 C 0.5602 0.58558 0.84888 0.0
Fe682 Fe 0.29272 0.22911 0.83708 0.0
Fe683 Fe 0.32667 0.18705 0.79587 0.0
O684 O 0.31104 0.17828 0.82211 0.0
Fe685 Fe 0.31325 0.11843 0.83344 0.0
O686 O 0.267 0.12814 0.85095 0.0
O687 O 0.24119 0.20021 0.84099 0.0
O688 O 0.26796 0.2626 0.81487 0.0
C689 C 0.25639 0.24745 0.797 0.0
C690 C 0.34495 0.1745 0.86512 0.0
O691 O 0.274 0.2099 0.78889 0.0
C692 C 0.38713 0.11954 0.80667 0.0
O693 O 0.34292 0.26028 0.83381 0.0
O694 O 0.34713 0.25141 0.79995 0.0
O695 O 0.3513 0.13888 0.85274 0.0
O696 O 0.31472 0.20541 0.86195 0.0
C697 C 0.28346 0.09314 0.79563 0.0
O698 O 0.38047 0.16392 0.80091 0.0
O699 O 0.35929 0.09713 0.81766 0.0
C700 C 0.35652 0.27494 0.81651 0.0
O701 O 0.30877 0.12454 0.78735 0.0
O702 O 0.27542 0.09503 0.81477 0.0
C703 C 0.23553 0.15768 0.84872 0.0
C704 C 0.12694 0.13572 0.08263 0.0
C705 C 0.12673 0.16653 0.06489 0.0
C706 C 0.14541 0.08855 0.0822 0.0
C707 C 0.16489 0.07006 0.06408 0.0
H708 H 0.11253 0.14783 0.09712 0.0
H709 H 0.14495 0.06668 0.09637 0.0
S710 S 0.17312 0.13538 1.01333 0.0
N711 N 0.14718 0.1749 0.02851 0.0
N712 N 0.18281 0.08575 0.0278 0.0
C713 C 0.16449 0.09985 0.04606 0.0
C714 C 0.14534 0.14824 0.04647 0.0
C715 C 0.16836 0.13873 0.25649 0.0
C716 C 0.16312 0.17268 0.24001 0.0
C717 C 0.14912 0.09146 0.2558 0.0
C718 C 0.1243 0.07683 0.23857 0.0
H719 H 0.18888 0.14787 0.26955 0.0
H720 H 0.15462 0.06584 0.26855 0.0
S721 S 0.09655 0.15558 0.19278 0.0
N722 N 0.12834 0.19078 0.20708 0.0
N723 N 0.09218 0.10253 0.20559 0.0
C724 C 0.11733 0.11169 0.22246 0.0
C725 C 0.13672 0.15951 0.22325 0.0
C726 C 0.91913 0.85327 1.00658 0.0
C727 C 0.91378 0.8194 0.99008 0.0
C728 C 0.89993 0.9006 1.00595 0.0
C729 C 0.87505 0.91532 0.98876 0.0
H730 H 0.93971 0.84402 1.01961 0.0
H731 H 0.90554 0.92622 1.01869 0.0
S732 S 0.8464 0.83653 0.94313 0.0
N733 N 0.87848 0.80132 0.95728 0.0
N734 N 0.84227 0.88961 0.95593 0.0
C735 C 0.86776 0.88044 0.9727 0.0
C736 C 0.88715 0.8326 0.97341 0.0
C737 C 0.89922 0.89896 0.79869 0.0
C738 C 0.92343 0.91376 0.8161 0.0
C739 C 0.87993 0.85171 0.79793 0.0
C740 C 0.88451 0.81795 0.81452 0.0
H741 H 0.89416 0.92447 0.78586 0.0
H742 H 0.85981 0.84248 0.78473 0.0
S743 S 0.94983 0.83536 0.86215 0.0
N744 N 0.95464 0.88831 0.84931 0.0
N745 N 0.91837 0.80009 0.84771 0.0
C746 C 0.91051 0.83122 0.83143 0.0
C747 C 0.92995 0.87902 0.83228 0.0
C748 C 0.12139 0.63443 0.58079 0.0
C749 C 0.12559 0.66796 0.56405 0.0
C750 C 0.14023 0.58739 0.58023 0.0
C751 C 0.1643 0.57172 0.56298 0.0
H752 H 0.1033 0.64436 0.59458 0.0
H753 H 0.13647 0.56334 0.59366 0.0
S754 S 0.18567 0.6451 0.51515 0.0
N755 N 0.15547 0.68209 0.52958 0.0
N756 N 0.19165 0.59315 0.52866 0.0
C757 C 0.16832 0.60425 0.54591 0.0
C758 C 0.14887 0.65252 0.54644 0.0
C759 C 0.14841 0.65013 0.75595 0.0
C760 C 0.17411 0.66409 0.73893 0.0
C761 C 0.12961 0.6026 0.75688 0.0
C762 C 0.13623 0.56771 0.74086 0.0
H763 H 0.14173 0.67654 0.76829 0.0
H764 H 0.10821 0.59402 0.76968 0.0
S765 S 0.20649 0.58267 0.69477 0.0
N766 N 0.20924 0.6367 0.70697 0.0
N767 N 0.17381 0.54795 0.70882 0.0
C768 C 0.16381 0.58018 0.72444 0.0
C769 C 0.18277 0.62826 0.72343 0.0
C770 C 0.87728 0.3904 0.50635 0.0
C771 C 0.8825 0.42424 0.48982 0.0
C772 C 0.89682 0.34325 0.50579 0.0
C773 C 0.92191 0.32863 0.48864 0.0
H774 H 0.85653 0.39952 0.51933 0.0
H775 H 0.89126 0.31765 0.51854 0.0
S776 S 0.94997 0.40721 0.44288 0.0
N777 N 0.91765 0.44227 0.45698 0.0
N778 N 0.95448 0.35428 0.45577 0.0
C779 C 0.92896 0.36342 0.47253 0.0
C780 C 0.90923 0.4111 0.47317 0.0
C781 C 0.8979 0.4002 0.33227 0.0
C782 C 0.91636 0.41977 0.31411 0.0
C783 C 0.8802 0.35264 0.33257 0.0
C784 C 0.87965 0.32239 0.31466 0.0
H785 H 0.8976 0.42154 0.34659 0.0
H786 H 0.86654 0.33986 0.34713 0.0
S787 S 0.92371 0.35618 0.26292 0.0
N788 N 0.93326 0.4055 0.2776 0.0
N789 N 0.89887 0.31567 0.27807 0.0
C790 C 0.89736 0.34165 0.2962 0.0
C791 C 0.91582 0.39046 0.29593 0.0
C792 C 0.64745 0.15163 0.54964 0.0
C793 C 0.62306 0.16618 0.56703 0.0
C794 C 0.66655 0.10432 0.54873 0.0
C795 C 0.66162 0.07018 0.56517 0.0
H796 H 0.65268 0.17735 0.53689 0.0
H797 H 0.68672 0.09526 0.53553 0.0
S798 S 0.59615 0.08712 0.61279 0.0
N799 N 0.59162 0.14035 0.60012 0.0
N800 N 0.62757 0.05191 0.59827 0.0
C801 C 0.63566 0.08331 0.58212 0.0
C802 C 0.6164 0.13123 0.58311 0.0
C803 C 0.64663 0.09216 0.72095 0.0
C804 C 0.6318 0.07072 0.73956 0.0
C805 C 0.66536 0.1392 0.72069 0.0
C806 C 0.67063 0.16696 0.73908 0.0
H807 H 0.64326 0.07278 0.70624 0.0
H808 H 0.67596 0.15362 0.70581 0.0
S809 S 0.63823 0.12733 0.79217 0.0
N810 N 0.62404 0.08041 0.77703 0.0
N811 N 0.66015 0.1692 0.77663 0.0
C812 C 0.65664 0.14579 0.75795 0.0
C813 C 0.63721 0.09755 0.75819 0.0
C814 C 0.4186 0.85284 0.50652 0.0
C815 C 0.4132 0.81907 0.48998 0.0
C816 C 0.39919 0.90006 0.50601 0.0
C817 C 0.37403 0.91481 0.48892 0.0
H818 H 0.43941 0.84362 0.51946 0.0
H819 H 0.40491 0.92563 0.51876 0.0
S820 S 0.34512 0.8363 0.44326 0.0
N821 N 0.3775 0.8011 0.45727 0.0
N822 N 0.34094 0.88925 0.45616 0.0
C823 C 0.36666 0.88003 0.47284 0.0
C824 C 0.38625 0.83227 0.47342 0.0
C825 C 0.39723 0.841 0.33353 0.0
C826 C 0.38013 0.82123 0.31508 0.0
C827 C 0.41575 0.88815 0.33395 0.0
C828 C 0.41837 0.9176 0.31587 0.0
H829 H 0.39586 0.82015 0.34796 0.0
H830 H 0.42833 0.90127 0.34867 0.0
S831 S 0.37851 0.88299 0.2634 0.0
N832 N 0.36688 0.83445 0.27816 0.0
N833 N 0.40248 0.92348 0.27886 0.0
C834 C 0.40191 0.89815 0.29717 0.0
C835 C 0.38278 0.84982 0.29677 0.0
C836 C 0.64865 0.64889 0.04894 0.0
C837 C 0.62376 0.6637 0.06611 0.0
C838 C 0.66803 0.60168 0.04839 0.0
C839 C 0.66287 0.56796 0.06497 0.0
H840 H 0.65412 0.67435 0.03613 0.0
H841 H 0.68858 0.59238 0.03536 0.0
S842 S 0.59592 0.58558 0.11206 0.0
N843 N 0.59146 0.63843 0.09911 0.0
N844 N 0.62797 0.55027 0.09792 0.0
C845 C 0.63636 0.58131 0.08167 0.0
C846 C 0.61679 0.62908 0.0823 0.0
C847 C 0.64686 0.64957 0.25602 0.0
C848 C 0.67113 0.66457 0.23866 0.0
C849 C 0.62774 0.60222 0.25671 0.0
C850 C 0.63256 0.56856 0.24009 0.0
H851 H 0.64166 0.67499 0.26888 0.0
H852 H 0.60763 0.5928 0.26989 0.0
S853 S 0.69796 0.58657 0.19252 0.0
N854 N 0.70249 0.63946 0.20542 0.0
N855 N 0.66662 0.55106 0.20691 0.0
C856 C 0.65855 0.58206 0.22322 0.0
C857 C 0.67779 0.62996 0.22243 0.0
C858 C 0.37378 0.38316 0.97263 0.0
C859 C 0.37775 0.41639 0.98948 0.0
C860 C 0.39234 0.33597 0.97319 0.0
C861 C 0.41579 0.31993 0.99058 0.0
H862 H 0.35596 0.3934 0.95881 0.0
H863 H 0.38878 0.31207 0.95971 0.0
S864 S 0.4367 0.39269 0.03863 0.0
N865 N 0.40704 0.43004 1.0241 0.0
N866 N 0.4426 0.34083 1.02506 0.0
C867 C 0.41972 0.35227 1.00771 0.0
C868 C 0.40061 0.40066 1.00716 0.0
C869 C 0.40104 0.34012 0.79861 0.0
C870 C 0.37593 0.32518 0.81568 0.0
C871 C 0.42024 0.38746 0.79815 0.0
C872 C 0.41469 0.42119 0.81472 0.0
H873 H 0.40678 0.31468 0.78582 0.0
H874 H 0.44089 0.39689 0.78517 0.0
S875 S 0.34714 0.40329 0.86156 0.0
N876 N 0.34307 0.35046 0.84858 0.0
N877 N 0.37926 0.4387 0.84754 0.0
C878 C 0.38802 0.40769 0.83132 0.0
C879 C 0.36862 0.35985 0.83186 0.0
C880 C 0.93175 0.40303 0.10334 0.0
C881 C 0.94114 0.3517 0.10373 0.0
C882 C 0.88919 0.42026 0.103 0.0
C883 C 0.85421 0.38691 0.10328 0.0
H884 H 0.95737 0.43014 0.10201 0.0
H885 H 0.88378 0.46002 0.10159 0.0
S886 S 0.86152 0.24891 0.10707 0.0
N887 N 0.91188 0.26784 0.10648 0.0
N888 N 0.83217 0.30007 0.10597 0.0
C889 C 0.86321 0.33563 0.1052 0.0
C890 C 0.90654 0.31809 0.10538 0.0
C891 C 0.40672 0.82138 0.1016 0.0
C892 C 0.44174 0.85445 0.10313 0.0
C893 C 0.36429 0.83868 0.10181 0.0
C894 C 0.35501 0.88986 0.10338 0.0
H895 H 0.412 0.78185 0.09925 0.0
H896 H 0.33874 0.81189 0.09943 0.0
S897 S 0.43432 0.9913 0.11137 0.0
N898 N 0.46378 0.94043 0.10898 0.0
N899 N 0.38397 0.97289 0.10915 0.0
C900 C 0.38944 0.92303 0.10644 0.0
C901 C 0.43277 0.90535 0.10641 0.0
C902 C 0.8639 0.90362 0.20177 0.0
C903 C 0.85446 0.85233 0.20157 0.0
C904 C 0.90645 0.92065 0.20197 0.0
C905 C 0.94132 0.88712 0.2018 0.0
H906 H 0.83835 0.93086 0.20307 0.0
H907 H 0.91196 0.96042 0.20322 0.0
S908 S 0.93381 0.74913 0.19848 0.0
N909 N 0.88348 0.76825 0.19904 0.0
N910 N 0.96327 0.80019 0.19938 0.0
C911 C 0.93228 0.83586 0.20005 0.0
C912 C 0.88894 0.81851 0.19997 0.0
C913 C 0.39001 0.31962 0.20318 0.0
C914 C 0.3549 0.35252 0.20133 0.0
C915 C 0.43246 0.33705 0.2029 0.0
C916 C 0.44163 0.38822 0.20104 0.0
H917 H 0.38475 0.2802 0.20582 0.0
H918 H 0.4581 0.31046 0.20544 0.0
S919 S 0.36213 0.48901 0.19198 0.0
N920 N 0.33279 0.43818 0.19468 0.0
N921 N 0.41248 0.47084 0.19453 0.0
C922 C 0.40712 0.4211 0.19763 0.0
C923 C 0.36384 0.40329 0.19766 0.0
C924 C 0.13901 0.66956 0.95168 0.0
C925 C 0.10391 0.6364 0.95176 0.0
C926 C 0.18151 0.65213 0.95142 0.0
C927 C 0.19077 0.60075 0.95147 0.0
H928 H 0.13374 0.70942 0.95271 0.0
H929 H 0.2072 0.67923 0.95241 0.0
S930 S 0.1107 0.49819 0.94947 0.0
N931 N 0.08154 0.54955 0.95007 0.0
N932 N 0.16115 0.51688 0.94972 0.0
C933 C 0.15602 0.56721 0.95028 0.0
C934 C 0.11272 0.58498 0.95038 0.0
C935 C 0.63917 0.16999 0.95134 0.0
C936 C 0.60406 0.13691 0.95131 0.0
C937 C 0.68158 0.1524 0.95114 0.0
C938 C 0.69063 0.10096 0.95117 0.0
H939 H 0.63397 0.20985 0.95243 0.0
H940 H 0.70735 0.17937 0.95223 0.0
S941 S 0.61047 -0.00134 0.94879 0.0
N942 N 0.58144 0.05011 0.9494 0.0
N943 N 0.66095 0.01719 0.94921 0.0
C944 C 0.65589 0.06753 0.94983 0.0
C945 C 0.6127 0.08545 0.94984 0.0
C946 C 0.18186 0.08942 0.85392 0.0
C947 C 0.19114 0.14073 0.85327 0.0
C948 C 0.13939 0.07218 0.85382 0.0
C949 C 0.10443 0.10554 0.85328 0.0
H950 H 0.2075 0.06217 0.85322 0.0
H951 H 0.13403 0.0323 0.85321 0.0
S952 S 0.11141 0.24378 0.85418 0.0
N953 N 0.16181 0.22486 0.85417 0.0
N954 N 0.08214 0.19252 0.85407 0.0
C955 C 0.11326 0.15697 0.85418 0.0
C956 C 0.15653 0.17453 0.85413 0.0
C957 C 0.61344 0.65523 0.85057 0.0
C958 C 0.60423 0.60425 0.85316 0.0
C959 C 0.65587 0.67271 0.85036 0.0
C960 C 0.69095 0.64005 0.85294 0.0
H961 H 0.58787 0.68155 0.84742 0.0
H962 H 0.66114 0.71191 0.84722 0.0
S963 S 0.6836 0.50418 0.86376 0.0
N964 N 0.63329 0.52212 0.86076 0.0
N965 N 0.71296 0.55486 0.86066 0.0
C966 C 0.68195 0.58951 0.85714 0.0
C967 C 0.63868 0.57165 0.85714 0.0
C968 C 0.86388 0.84003 0.60104 0.0
C969 C 0.85469 0.8912 0.60283 0.0
C970 C 0.90623 0.8225 0.60114 0.0
C971 C 0.9413 0.85532 0.60321 0.0
H972 H 0.83835 0.81342 0.59828 0.0
H973 H 0.91145 0.78304 0.59859 0.0
S974 S 0.93401 0.99188 0.61228 0.0
N975 N 0.88369 0.97386 0.60941 0.0
N976 N 0.96339 0.94096 0.60984 0.0
C977 C 0.93237 0.90616 0.60672 0.0
C978 C 0.8891 0.92408 0.60642 0.0
C979 C 0.38937 0.42595 0.60109 0.0
C980 C 0.3544 0.39321 0.60379 0.0
C981 C 0.43183 0.40857 0.60126 0.0
C982 C 0.44111 0.35765 0.60395 0.0
H983 H 0.38396 0.46507 0.59781 0.0
H984 H 0.45734 0.43485 0.59795 0.0
S985 S 0.36213 0.25758 0.61506 0.0
N986 N 0.33263 0.30814 0.61186 0.0
N987 N 0.41237 0.2756 0.61191 0.0
C988 C 0.4068 0.32506 0.60814 0.0
C989 C 0.36352 0.3428 0.60817 0.0
C990 C 0.93264 0.34173 0.70078 0.0
C991 C 0.9417 0.39309 0.70189 0.0
C992 C 0.89024 0.32413 0.70083 0.0
C993 C 0.85509 0.35714 0.70172 0.0
H994 H 0.95842 0.31464 0.70111 0.0
H995 H 0.8851 0.28419 0.70104 0.0
S996 S 0.86133 0.49547 0.70239 0.0
N997 N 0.91185 0.47697 0.70206 0.0
N998 N 0.83236 0.444 0.70197 0.0
C999 C 0.86367 0.4087 0.70139 0.0
C1000 C 0.90687 0.42662 0.70154 0.0
C1001 C 0.40611 0.92333 0.70341 0.0
C1002 C 0.44103 0.8904 0.70088 0.0
C1003 C 0.3636 0.90616 0.70315 0.0
C1004 C 0.35422 0.85526 0.70053 0.0
H1005 H 0.41157 0.96248 0.7066 0.0
H1006 H 0.33813 0.9326 0.70634 0.0
S1007 S 0.43311 0.75466 0.68994 0.0
N1008 N 0.4627 0.80513 0.69311 0.0
N1009 N 0.38288 0.77296 0.69286 0.0
C1010 C 0.38851 0.82245 0.69652 0.0
C1011 C 0.43184 0.83998 0.6966 0.0
C1012 C 0.15767 0.07254 0.45174 0.0
C1013 C 0.19251 0.10609 0.45191 0.0
C1014 C 0.11506 0.08951 0.4515 0.0
C1015 C 0.10548 0.14077 0.45158 0.0
H1016 H 0.16322 0.03273 0.45276 0.0
H1017 H 0.08956 0.06217 0.45253 0.0
S1018 S 0.18478 0.24415 0.44943 0.0
N1019 N 0.21432 0.19309 0.45013 0.0
N1020 N 0.13448 0.22496 0.44968 0.0
C1021 C 0.13998 0.17468 0.45031 0.0
C1022 C 0.18338 0.15738 0.45045 0.0
C1023 C 0.65522 0.57025 0.45261 0.0
C1024 C 0.69039 0.60295 0.45058 0.0
C1025 C 0.61284 0.58782 0.45219 0.0
C1026 C 0.6038 0.63895 0.45003 0.0
H1027 H 0.66036 0.5309 0.45549 0.0
H1028 H 0.58715 0.56141 0.4549 0.0
S1029 S 0.6835 0.73903 0.44025 0.0
N1030 N 0.71274 0.6882 0.44333 0.0
N1031 N 0.63309 0.7212 0.44294 0.0
C1032 C 0.63836 0.67157 0.44639 0.0
C1033 C 0.6816 0.65359 0.44654 0.0
C1034 C 0.13872 0.57056 0.35141 0.0
C1035 C 0.10357 0.60332 0.35346 0.0
C1036 C 0.18104 0.58816 0.35135 0.0
C1037 C 0.1901 0.63935 0.35315 0.0
H1038 H 0.13357 0.53109 0.34885 0.0
H1039 H 0.20666 0.56162 0.3486 0.0
S1040 S 0.11051 0.73991 0.36247 0.0
N1041 N 0.08125 0.68892 0.36003 0.0
N1042 N 0.16088 0.72196 0.35966 0.0
C1043 C 0.1556 0.67217 0.3567 0.0
C1044 C 0.11237 0.65417 0.35697 0.0
C1045 C 0.67071 0.12741 0.36796 0.0
C1046 C 0.69123 0.14063 0.34926 0.0
C1047 C 0.62789 0.11033 0.36791 0.0
C1048 C 0.60523 0.10498 0.34911 0.0
H1049 H 0.6876 0.13085 0.38262 0.0
H1050 H 0.61271 0.10061 0.38251 0.0
S1051 S 0.6458 0.13209 0.29609 0.0
N1052 N 0.68586 0.14714 0.31167 0.0
N1053 N 0.60713 0.11178 0.31146 0.0
C1054 C 0.62597 0.11699 0.33041 0.0
C1055 C 0.66859 0.13573 0.33051 0.0
C1056 C 0.13434 0.27208 0.1439 0.0
C1057 C 0.12082 0.31698 0.13459 0.0
C1058 C 0.1611 0.27224 0.16161 0.0
C1059 C 0.17433 0.3173 0.17089 0.0
H1060 H 0.12494 0.23665 0.13721 0.0
H1061 H 0.17086 0.23692 0.16829 0.0
S1062 S 0.14696 0.44487 0.15275 0.0
N1063 N 0.12256 0.40755 0.13613 0.0
N1064 N 0.1717 0.40784 0.16938 0.0
C1065 C 0.16055 0.36229 0.16181 0.0
C1066 C 0.13411 0.36213 0.1437 0.0
C1067 C 0.13442 0.88259 0.16088 0.0
C1068 C 0.12035 0.92739 0.17001 0.0
C1069 C 0.16052 0.88261 0.14316 0.0
C1070 C 0.17465 0.92743 0.13407 0.0
H1071 H 0.1249 0.84702 0.16741 0.0
H1072 H 0.17008 0.84704 0.13663 0.0
S1073 S 0.1475 0.05502 0.15211 0.0
N1074 N 0.12236 0.01794 0.16863 0.0
N1075 N 0.17264 0.01799 0.13554 0.0
C1076 C 0.16124 0.97261 0.14312 0.0
C1077 C 0.1337 0.97259 0.16098 0.0
C1078 C 0.91115 0.72046 0.91119 0.0
C1079 C 0.92469 0.67544 0.92041 0.0
C1080 C 0.88429 0.72048 0.8935 0.0
C1081 C 0.87094 0.67548 0.8842 0.0
H1082 H 0.92067 0.75581 0.91791 0.0
H1083 H 0.8746 0.75585 0.88686 0.0
S1084 S 0.89818 0.5477 0.90219 0.0
N1085 N 0.9228 0.58489 0.91878 0.0
N1086 N 0.87334 0.5849 0.88567 0.0
C1087 C 0.88464 0.6304 0.89324 0.0
C1088 C 0.91124 0.63039 0.91129 0.0
C1089 C 0.91116 0.11008 0.89345 0.0
C1090 C 0.92509 0.06517 0.88436 0.0
C1091 C 0.88544 0.11022 0.91133 0.0
C1092 C 0.87155 0.06544 0.92053 0.0
H1093 H 0.92057 0.14556 0.88681 0.0
H1094 H 0.8759 0.1458 0.91786 0.0
S1095 S 0.89854 0.93768 0.90264 0.0
N1096 N 0.92329 0.97464 0.88593 0.0
N1097 N 0.87369 0.97486 0.91923 0.0
C1098 C 0.88485 0.02019 0.9115 0.0
C1099 C 0.912 0.02006 0.89353 0.0
C1100 C 0.15809 0.86029 0.6617 0.0
C1101 C 0.17415 0.81571 0.67023 0.0
C1102 C 0.13251 0.86006 0.64378 0.0
C1103 C 0.12094 0.81517 0.63395 0.0
H1104 H 0.16581 0.89586 0.66876 0.0
H1105 H 0.12142 0.89543 0.63765 0.0
S1106 S 0.1539 0.68821 0.65019 0.0
N1107 N 0.17663 0.72535 0.66747 0.0
N1108 N 0.12735 0.7249 0.63404 0.0
C1109 C 0.13619 0.77023 0.64244 0.0
C1110 C 0.16317 0.77051 0.66047 0.0
C1111 C 0.16446 0.38449 0.6443 0.0
C1112 C 0.17387 0.42921 0.63385 0.0
C1113 C 0.13943 0.38416 0.66241 0.0
C1114 C 0.12173 0.42841 0.67056 0.0
H1115 H 0.17695 0.34938 0.63854 0.0
H1116 H 0.13351 0.3487 0.66996 0.0
S1117 S 0.13527 0.55517 0.6484 0.0
N1118 N 0.16329 0.51884 0.63271 0.0
N1119 N 0.11482 0.51819 0.66641 0.0
C1120 C 0.13035 0.47338 0.66006 0.0
C1121 C 0.15683 0.47381 0.64184 0.0
C1122 C 0.88501 0.21898 0.39333 0.0
C1123 C 0.87197 0.17384 0.38407 0.0
C1124 C 0.91212 0.21929 0.4109 0.0
C1125 C 0.92629 0.17445 0.42002 0.0
H1126 H 0.8748 0.25424 0.38676 0.0
H1127 H 0.92127 0.25475 0.41764 0.0
S1128 S 0.90103 0.0464 0.40179 0.0
N1129 N 0.8755 0.08328 0.38539 0.0
N1130 N 0.92548 0.08388 0.41833 0.0
C1131 C 0.91328 0.12922 0.41091 0.0
C1132 C 0.88639 0.1289 0.39297 0.0
C1133 C 0.85281 0.5632 0.40097 0.0
C1134 C 0.87159 0.56083 0.42082 0.0
C1135 C 0.87835 0.56397 0.38293 0.0
C1136 C 0.9234 0.56065 0.3841 0.0
H1137 H 0.81828 0.56621 0.39942 0.0
H1138 H 0.86274 0.56723 0.36792 0.0
S1139 S 0.98784 0.55148 0.43242 0.0
N1140 N 0.93768 0.55466 0.44065 0.0
N1141 N 0.98549 0.55339 0.40675 0.0
C1142 C 0.94239 0.55653 0.40385 0.0
C1143 C 0.9165 0.55737 0.42221 0.0
C1144 C 0.63533 0.36191 0.64395 0.0
C1145 C 0.62089 0.31733 0.63479 0.0
C1146 C 0.66138 0.36142 0.66171 0.0
C1147 C 0.67509 0.31632 0.67071 0.0
H1148 H 0.62603 0.39761 0.63746 0.0
H1149 H 0.67122 0.39677 0.66832 0.0
S1150 S 0.64705 0.18922 0.65251 0.0
N1151 N 0.62222 0.22674 0.63604 0.0
N1152 N 0.67244 0.22584 0.66912 0.0
C1153 C 0.66142 0.2714 0.66159 0.0
C1154 C 0.63392 0.2719 0.64374 0.0
C1155 C 0.66207 0.96953 0.64309 0.0
C1156 C 0.67419 0.92448 0.63342 0.0
C1157 C 0.63518 0.96979 0.66075 0.0
C1158 C 0.62034 0.92494 0.6696 0.0
H1159 H 0.6729 0.00481 0.63678 0.0
H1160 H 0.62679 0.00517 0.6678 0.0
S1161 S 0.64279 0.79711 0.65025 0.0
N1162 N 0.66882 0.834 0.63404 0.0
N1163 N 0.61935 0.83449 0.66718 0.0
C1164 C 0.63233 0.87981 0.66007 0.0
C1165 C 0.65896 0.87957 0.64202 0.0
C1166 C 0.40975 0.71981 0.41114 0.0
C1167 C 0.42334 0.67487 0.4204 0.0
C1168 C 0.38264 0.71968 0.39356 0.0
C1169 C 0.36904 0.6746 0.38444 0.0
H1170 H 0.41954 0.75522 0.41771 0.0
H1171 H 0.37304 0.75499 0.38682 0.0
S1172 S 0.39602 0.54697 0.40265 0.0
N1173 N 0.42105 0.58428 0.41905 0.0
N1174 N 0.37105 0.58404 0.38613 0.0
C1175 C 0.38264 0.62959 0.39355 0.0
C1176 C 0.40953 0.62972 0.41148 0.0
C1177 C 0.38762 0.11016 0.41206 0.0
C1178 C 0.37268 0.06554 0.421 0.0
C1179 C 0.41351 0.10983 0.39424 0.0
C1180 C 0.42656 0.06483 0.38492 0.0
H1181 H 0.37879 0.14582 0.41874 0.0
H1182 H 0.42364 0.14524 0.38779 0.0
S1183 S 0.39715 0.93761 0.40248 0.0
N1184 N 0.37295 0.97498 0.41923 0.0
N1185 N 0.42283 0.97435 0.38601 0.0
C1186 C 0.41246 0.01984 0.39384 0.0
C1187 C 0.38514 0.0202 0.41177 0.0
C1188 C 0.6365 0.85992 0.14272 0.0
C1189 C 0.622 0.81511 0.13378 0.0
C1190 C 0.66219 0.85992 0.1606 0.0
C1191 C 0.67547 0.81508 0.16997 0.0
H1192 H 0.62746 0.89545 0.13599 0.0
H1193 H 0.67203 0.89545 0.16704 0.0
S1194 S 0.6472 0.68748 0.15241 0.0
N1195 N 0.6229 0.72457 0.13558 0.0
N1196 N 0.67242 0.72454 0.16892 0.0
C1197 C 0.66179 0.7699 0.16104 0.0
C1198 C 0.63467 0.76993 0.14306 0.0
C1199 C 0.66144 0.46857 0.14356 0.0
C1200 C 0.67428 0.42344 0.1342 0.0
C1201 C 0.63476 0.46884 0.1613 0.0
C1202 C 0.62096 0.42398 0.17054 0.0
H1203 H 0.67142 0.50384 0.13693 0.0
H1204 H 0.6256 0.5043 0.16805 0.0
S1205 S 0.64607 0.29598 0.15214 0.0
N1206 N 0.67102 0.33291 0.13555 0.0
N1207 N 0.62201 0.33341 0.16885 0.0
C1208 C 0.63388 0.37878 0.16135 0.0
C1209 C 0.66023 0.37851 0.14321 0.0
C1210 C 0.38453 0.13171 0.8937 0.0
C1211 C 0.37068 0.17648 0.88448 0.0
C1212 C 0.41013 0.13181 0.91158 0.0
C1213 C 0.42393 0.1767 0.92071 0.0
H1214 H 0.37517 0.09611 0.88713 0.0
H1215 H 0.4196 0.09629 0.91818 0.0
S1216 S 0.39712 0.30422 0.90253 0.0
N1217 N 0.3725 0.26706 0.88585 0.0
N1218 N 0.42186 0.26724 0.91924 0.0
C1219 C 0.41074 0.22184 0.91158 0.0
C1220 C 0.38372 0.22174 0.89357 0.0
C1221 C 0.38432 0.52305 0.91081 0.0
C1222 C 0.37086 0.56792 0.92018 0.0
C1223 C 0.41095 0.52325 0.89306 0.0
C1224 C 0.42411 0.56831 0.88377 0.0
H1225 H 0.37494 0.4876 0.91748 0.0
H1226 H 0.42067 0.48794 0.88636 0.0
S1227 S 0.39685 0.69583 0.902 0.0
N1228 N 0.37261 0.65849 0.91868 0.0
N1229 N 0.42144 0.65884 0.8853 0.0
C1230 C 0.41038 0.61329 0.89288 0.0
C1231 C 0.3841 0.6131 0.91107 0.0
C1232 C 0.05203 0.46168 1.01979 0.0
C1233 C 0.02308 0.44427 0.03492 0.0
C1234 C 0.04934 0.51042 1.0122 0.0
C1235 C 1.01779 0.54356 1.01955 0.0
H1236 H 0.07786 0.43812 1.01423 0.0
H1237 H 0.07211 0.52223 1.00045 0.0
S1238 S 0.93236 0.51465 0.05808 0.0
N1239 N 0.96052 0.46273 0.05618 0.0
N1240 N 0.9556 0.55462 0.04214 0.0
C1241 C 0.98824 0.52634 0.0345 0.0
C1242 C 0.99075 0.47657 0.04205 0.0
C1243 C 0.30181 0.71001 0.03549 0.0
C1244 C 0.27273 0.69275 1.02038 0.0
C1245 C 0.29944 0.75883 0.04305 0.0
C1246 C 0.26812 0.79223 0.03568 0.0
H1247 H 0.32757 0.6863 0.04101 0.0
H1248 H 0.32237 0.77054 0.05474 0.0
S1249 S 0.18238 0.76368 0.99724 0.0
N1250 N 0.21017 0.71153 0.99922 0.0
N1251 N 0.20592 0.80356 1.01311 0.0
C1252 C 0.23835 0.77507 1.0208 0.0
C1253 C 0.24051 0.72521 1.01331 0.0
C1254 C 0.99608 0.76366 0.26365 0.0
C1255 C 0.02937 0.79546 0.27011 0.0
C1256 C 0.99261 0.71524 0.27149 0.0
C1257 C 0.02244 0.69682 0.28601 0.0
H1258 H 0.97259 0.77624 0.25237 0.0
H1259 H 0.96559 0.69268 0.26659 0.0
S1260 S 0.11758 0.76328 0.30662 0.0
N1261 N 0.09412 0.80403 0.29109 0.0
N1262 N 0.08741 0.71276 0.30577 0.0
C1263 C 0.05627 0.72779 0.29235 0.0
C1264 C 0.05973 0.77722 0.28446 0.0
C1265 C 0.24358 0.4625 0.28455 0.0
C1266 C 0.27355 0.44479 0.26994 0.0
C1267 C 0.24557 0.51144 0.29193 0.0
C1268 C 0.27743 0.54447 0.2849 0.0
H1269 H 0.21747 0.43901 0.28983 0.0
H1270 H 0.22202 0.52347 0.30329 0.0
S1271 S 0.36536 0.51476 0.24781 0.0
N1272 N 0.33727 0.46278 0.24952 0.0
N1273 N 0.34097 0.55512 0.26317 0.0
C1274 C 0.30797 0.52694 0.27046 0.0
C1275 C 0.30614 0.47696 0.26312 0.0
C1276 C 0.79992 0.25981 0.04238 0.0
C1277 C 0.7688 0.29342 0.03498 0.0
C1278 C 0.80199 0.21093 0.03488 0.0
C1279 C 0.77281 0.19378 1.01979 0.0
H1280 H 0.82281 0.27134 0.05413 0.0
H1281 H 0.82754 0.18702 0.04048 0.0
S1282 S 0.68322 0.26561 0.99638 0.0
N1283 N 0.70692 0.30532 1.01227 0.0
N1284 N 0.71062 0.21319 0.99843 0.0
C1285 C 0.74097 0.22661 1.01258 0.0
C1286 C 0.73911 0.27653 1.02002 0.0
C1287 C 0.05063 0.22795 0.79168 0.0
C1288 C 1.01886 0.19498 0.78444 0.0
C1289 C 0.05344 0.27668 0.7841 0.0
C1290 C 0.02447 0.29436 0.76902 0.0
H1291 H 0.07335 0.21611 0.80345 0.0
H1292 H 0.07927 0.30011 0.78972 0.0
S1293 S 0.93384 0.22412 0.74574 0.0
N1294 N 0.95684 0.18412 0.76177 0.0
N1295 N 0.96215 0.27593 0.7476 0.0
C1296 C 0.99226 0.26205 0.76178 0.0
C1297 C 0.98954 0.21227 0.7694 0.0
C1298 C 0.80164 0.47866 0.76327 0.0
C1299 C 0.76968 0.44567 0.77024 0.0
C1300 C 0.80382 0.52747 0.77076 0.0
C1301 C 0.77398 0.54514 0.78544 0.0
H1302 H 0.82498 0.46674 0.75179 0.0
H1303 H 0.82987 0.55097 0.76542 0.0
S1304 S 0.68229 0.47493 0.80765 0.0
N1305 N 0.70642 0.43478 0.7921 0.0
N1306 N 0.71051 0.52685 0.80606 0.0
C1307 C 0.7415 0.51285 0.79235 0.0
C1308 C 0.73944 0.46298 0.78485 0.0
C1309 C 0.05382 0.96678 0.52128 0.0
C1310 C 0.02359 0.94787 0.53546 0.0
C1311 C 0.05087 0.01573 0.51394 0.0
C1312 C 1.01769 0.04761 0.52056 0.0
H1313 H 0.08076 0.94419 0.51627 0.0
H1314 H 0.07462 0.02864 0.50286 0.0
S1315 S 0.92879 0.0146 0.5565 0.0
N1316 N 0.95844 0.96368 0.55519 0.0
N1317 N 0.95283 0.0559 0.54147 0.0
C1318 C 0.98701 0.02897 0.53463 0.0
C1319 C 0.9899 0.979 0.54199 0.0
C1320 C 0.24709 0.22912 0.51384 0.0
C1321 C 0.27907 0.1962 0.5209 0.0
C1322 C 0.24449 0.27789 0.52138 0.0
C1323 C 0.27388 0.29568 0.53624 0.0
H1324 H 0.22407 0.21721 0.50221 0.0
H1325 H 0.2185 0.30131 0.51589 0.0
S1326 S 0.36524 0.22566 0.55892 0.0
N1327 N 0.34179 0.18552 0.54313 0.0
N1328 N 0.33677 0.27743 0.55727 0.0
C1329 C 0.30624 0.26341 0.54333 0.0
C1330 C 0.3088 0.21358 0.53574 0.0
C1331 C 0.3044 0.02725 0.77034 0.0
C1332 C 0.27507 0.04528 0.78517 0.0
C1333 C 0.30144 0.97849 0.76278 0.0
C1334 C 0.26922 0.94588 0.76984 0.0
H1335 H 0.33064 0.05039 0.76494 0.0
H1336 H 0.32444 0.9663 0.75119 0.0
S1337 S 0.18312 0.97611 0.80782 0.0
N1338 N 0.21181 0.02765 0.80608 0.0
N1339 N 0.20639 0.93577 0.79204 0.0
C1340 C 0.2395 0.96357 0.78461 0.0
C1341 C 0.2423 0.01337 0.79215 0.0
C1342 C 0.8006 0.76374 0.54084 0.0
C1343 C 0.76935 0.79745 0.53368 0.0
C1344 C 0.80235 0.71491 0.53328 0.0
C1345 C 0.77277 0.6979 0.51834 0.0
H1346 H 0.82377 0.77512 0.55248 0.0
H1347 H 0.82793 0.69087 0.53875 0.0
S1348 S 0.68271 0.76991 0.49561 0.0
N1349 N 0.70689 0.80953 0.51136 0.0
N1350 N 0.71021 0.71748 0.49733 0.0
C1351 C 0.74094 0.73084 0.51128 0.0
C1352 C 0.73931 0.7807 0.51883 0.0
C1353 C 0.79794 0.97898 0.26301 0.0
C1354 C 0.76602 0.94616 0.27022 0.0
C1355 C 0.80074 0.02778 0.2705 0.0
C1356 C 0.7717 0.04563 0.28551 0.0
H1357 H 0.82083 0.96697 0.25134 0.0
H1358 H 0.82672 0.05107 0.26494 0.0
S1359 S 0.68077 0.97577 0.30874 0.0
N1360 N 0.70372 0.93566 0.29274 0.0
N1361 N 0.70929 0.02742 0.30691 0.0
C1362 C 0.73936 0.01345 0.29273 0.0
C1363 C 0.73654 0.96366 0.28514 0.0
C1364 C 0.49625 0.47994 0.54149 0.0
C1365 C 0.52803 0.44666 0.5345 0.0
C1366 C 0.49389 0.52856 0.53378 0.0
C1367 C 0.52332 0.54577 0.51883 0.0
H1368 H 0.47316 0.46842 0.55315 0.0
H1369 H 0.46799 0.55226 0.53916 0.0
S1370 S 0.61429 0.47467 0.49632 0.0
N1371 N 0.59065 0.43503 0.51226 0.0
N1372 N 0.58618 0.52671 0.49789 0.0
C1373 C 0.5556 0.51319 0.51189 0.0
C1374 C 0.55787 0.46351 0.51962 0.0
C1375 C 0.55401 0.77742 0.78345 0.0
C1376 C 0.52431 0.79501 0.76868 0.0
C1377 C 0.55174 0.72864 0.791 0.0
C1378 C 0.51987 0.69559 0.78399 0.0
H1379 H 0.58001 0.80095 0.78881 0.0
H1380 H 0.57498 0.71678 0.80254 0.0
S1381 S 0.43285 0.72463 0.74634 0.0
N1382 N 0.46103 0.77657 0.74796 0.0
N1383 N 0.45683 0.68458 0.76199 0.0
C1384 C 0.48977 0.71283 0.7693 0.0
C1385 C 0.49189 0.76266 0.76176 0.0
C1386 C 0.55219 0.27789 0.28452 0.0
C1387 C 0.52285 0.2955 0.26961 0.0
C1388 C 0.54962 0.22915 0.29205 0.0
C1389 C 0.5178 0.19618 0.28489 0.0
H1390 H 0.57817 0.30133 0.28997 0.0
H1391 H 0.57259 0.2173 0.30371 0.0
S1392 S 0.43166 0.22543 0.24682 0.0
N1393 N 0.45989 0.27731 0.24863 0.0
N1394 N 0.4552 0.18531 0.2626 0.0
C1395 C 0.48802 0.21349 0.27008 0.0
C1396 C 0.49041 0.2633 0.26257 0.0
C1397 C 0.5542 0.96054 1.01921 0.0
C1398 C 0.52431 0.94248 0.03378 0.0
C1399 C 0.55151 0.0094 1.01169 0.0
C1400 C 0.51914 0.04197 1.01863 0.0
H1401 H 0.58078 0.93748 1.01414 0.0
H1402 H 0.57503 0.02184 1.0004 0.0
S1403 S 0.43063 0.01065 0.05512 0.0
N1404 N 0.45964 0.95929 0.05369 0.0
N1405 N 0.45483 0.0514 0.03989 0.0
C1406 C 0.4885 0.02388 0.03287 0.0
C1407 C 0.49095 0.97401 0.04029 0.0
C1408 C 0.17452 0.44901 0.04809 0.0
C1409 C 0.16974 0.39746 0.04441 0.0
C1410 C 0.20187 0.47853 0.03584 0.0
C1411 C 0.22537 0.45805 1.0192 0.0
H1412 H 0.15626 0.46716 0.06026 0.0
H1413 H 0.204 0.51802 0.03925 0.0
S1414 S 0.22734 0.32459 1.00381 0.0
N1415 N 0.19328 0.32678 1.02346 0.0
N1416 N 0.24409 0.38239 1.00043 0.0
C1417 C 0.22181 0.40643 1.0156 0.0
C1418 C 0.19431 0.37616 0.02822 0.0
C1419 C 0.10332 0.85887 0.02886 0.0
C1420 C 0.12678 0.83856 0.04561 0.0
C1421 C 0.07665 0.82901 1.01638 0.0
C1422 C 0.07201 0.7776 1.02018 0.0
H1423 H 0.10636 0.89798 1.02494 0.0
H1424 H 0.05938 0.84651 1.0037 0.0
S1425 S 0.12604 0.70545 0.06194 0.0
N1426 N 0.14296 0.76317 0.0653 0.0
N1427 N 0.09316 0.70753 0.04185 0.0
C1428 C 0.09469 0.75686 0.03701 0.0
C1429 C 0.12186 0.78715 0.04972 0.0
C1430 C 0.21937 0.83085 0.28861 0.0
C1431 C 0.22585 0.78009 0.28391 0.0
C1432 C 0.1931 0.86126 0.27612 0.0
C1433 C 0.17193 0.84215 0.25844 0.0
H1434 H 0.23469 0.84736 0.30208 0.0
H1435 H 0.1883 0.89964 0.28081 0.0
S1436 S 0.17893 0.71167 0.23911 0.0
N1437 N 0.20933 0.71227 0.26011 0.0
N1438 N 0.16056 0.76906 0.23663 0.0
C1439 C 0.17902 0.79164 0.25332 0.0
C1440 C 0.20568 0.76076 0.26604 0.0
C1441 C 0.12448 0.45214 0.25748 0.0
C1442 C 0.12675 0.39996 0.26023 0.0
C1443 C 0.09659 0.48181 0.2694 0.0
C1444 C 0.07005 0.46074 0.28475 0.0
H1445 H 0.14529 0.47065 0.24642 0.0
H1446 H 0.0966 0.52176 0.26689 0.0
S1447 S 0.05953 0.32579 0.29664 0.0
N1448 N 0.09683 0.32829 0.27843 0.0
N1449 N 0.04493 0.38409 0.30085 0.0
C1450 C 0.07072 0.40856 0.28719 0.0
C1451 C 0.09881 0.37822 0.27492 0.0
C1452 C 0.86982 0.54181 1.00599 0.0
C1453 C 0.87488 0.59316 1.01009 0.0
C1454 C 0.84284 0.51174 1.01818 0.0
C1455 C 0.81993 0.53149 0.03516 0.0
H1456 H 0.88777 0.52415 0.99358 0.0
H1457 H 0.84064 0.4724 1.0145 0.0
S1458 S 0.81844 0.66431 0.05155 0.0
N1459 N 0.85198 0.66293 0.03169 0.0
N1460 N 0.80172 0.60639 0.05459 0.0
C1461 C 0.82355 0.58299 0.0391 0.0
C1462 C 0.85073 0.61378 1.02655 0.0
C1463 C 0.94015 0.13132 1.02718 0.0
C1464 C 0.91801 0.1511 1.0099 0.0
C1465 C 0.96698 0.16124 0.03959 0.0
C1466 C 0.97311 0.21219 0.0352 0.0
H1467 H 0.936 0.0926 0.03153 0.0
H1468 H 0.98325 0.14411 0.05266 0.0
S1469 S 0.923 0.28271 0.99178 0.0
N1470 N 0.90473 0.22536 0.98904 0.0
N1471 N 0.9547 0.28118 1.01232 0.0
C1472 C 0.9516 0.23237 1.01786 0.0
C1473 C 0.92431 0.202 1.00524 0.0
C1474 C 0.86984 0.1974 0.79901 0.0
C1475 C 0.87599 0.14645 0.7944 0.0
C1476 C 0.8434 0.22781 0.78669 0.0
C1477 C 0.82215 0.20886 0.76908 0.0
H1478 H 0.88644 0.21448 0.81198 0.0
H1479 H 0.84026 0.2668 0.79083 0.0
S1480 S 0.82445 0.07733 0.75094 0.0
N1481 N 0.85625 0.0779 0.77146 0.0
N1482 N 0.8069 0.13506 0.74834 0.0
C1483 C 0.82696 0.15774 0.76456 0.0
C1484 C 0.85361 0.12658 0.77723 0.0
C1485 C 0.97028 0.57957 0.7665 0.0
C1486 C 0.9766 0.5287 0.771 0.0
C1487 C 0.94263 0.60924 0.77855 0.0
C1488 C 0.91975 0.5893 0.79556 0.0
H1489 H 0.98688 0.59679 0.75356 0.0
H1490 H 0.93836 0.64787 0.77409 0.0
S1491 S 0.92529 0.45804 0.81403 0.0
N1492 N 0.95797 0.45974 0.79385 0.0
N1493 N 0.90625 0.51517 0.81645 0.0
C1494 C 0.92638 0.53858 0.80043 0.0
C1495 C 0.95461 0.50842 0.78817 0.0
C1496 C 0.17444 0.95139 0.54831 0.0
C1497 C 0.17015 0.89973 0.54471 0.0
C1498 C 0.20193 0.98105 0.53619 0.0
C1499 C 0.22601 0.96055 0.51976 0.0
H1500 H 0.15562 0.96955 0.56028 0.0
H1501 H 0.20364 0.02063 0.53947 0.0
S1502 S 0.23003 0.82677 0.50494 0.0
N1503 N 0.19519 0.82891 0.52426 0.0
N1504 N 0.24624 0.88475 0.50146 0.0
C1505 C 0.22313 0.9088 0.51634 0.0
C1506 C 0.19551 0.87841 0.52883 0.0
C1507 C 0.10566 0.36042 0.52751 0.0
C1508 C 0.12836 0.3403 0.54455 0.0
C1509 C 0.0784 0.3308 0.51524 0.0
C1510 C 0.07232 0.27984 0.51955 0.0
H1511 H 0.10964 0.39921 0.52324 0.0
H1512 H 0.06172 0.34818 0.50235 0.0
S1513 S 0.12386 0.20839 0.56229 0.0
N1514 N 0.14238 0.26564 0.56505 0.0
N1515 N 0.09134 0.21039 0.54205 0.0
C1516 C 0.09434 0.25928 0.53665 0.0
C1517 C 0.12218 0.28934 0.54912 0.0
C1518 C 0.22057 0.32886 0.78838 0.0
C1519 C 0.22627 0.27776 0.7842 0.0
C1520 C 0.19333 0.35852 0.77612 0.0
C1521 C 0.17021 0.33834 0.75923 0.0
H1522 H 0.23744 0.34628 0.8012 0.0
H1523 H 0.18962 0.3974 0.78032 0.0
S1524 S 0.17392 0.20621 0.74175 0.0
N1525 N 0.20673 0.20819 0.76188 0.0
N1526 N 0.15561 0.26355 0.73892 0.0
C1527 C 0.17613 0.2873 0.75473 0.0
C1528 C 0.20401 0.25717 0.76718 0.0
C1529 C 0.11928 0.94782 0.75558 0.0
C1530 C 0.12587 0.89695 0.76019 0.0
C1531 C 0.09242 0.97791 0.76786 0.0
C1532 C 0.0712 0.95871 0.78545 0.0
H1533 H 0.13583 0.9651 0.74264 0.0
H1534 H 0.08894 0.01686 0.76372 0.0
S1535 S 0.07462 0.82723 0.8036 0.0
N1536 N 0.10656 0.82819 0.78312 0.0
N1537 N 0.05654 0.88474 0.80616 0.0
C1538 C 0.07649 0.90766 0.78997 0.0
C1539 C 0.10353 0.87683 0.77734 0.0
C1540 C 0.8409 0.01585 0.51727 0.0
C1541 C 0.81902 0.03538 0.53462 0.0
C1542 C 0.86806 0.0457 0.50509 0.0
C1543 C 0.87433 0.09665 0.50955 0.0
H1544 H 0.83776 0.97677 0.51328 0.0
H1545 H 0.88517 0.02817 0.49237 0.0
S1546 S 0.82126 0.16726 0.55223 0.0
N1547 N 0.80332 0.10974 0.5549 0.0
N1548 N 0.8539 0.16594 0.53201 0.0
C1549 C 0.85127 0.11715 0.52642 0.0
C1550 C 0.82392 0.08653 0.53896 0.0
C1551 C 0.93922 0.63399 0.52695 0.0
C1552 C 0.91738 0.65324 0.50948 0.0
C1553 C 0.9662 0.66412 0.53916 0.0
C1554 C 0.97287 0.71481 0.5344 0.0
H1555 H 0.93467 0.59554 0.5316 0.0
H1556 H 0.98212 0.64736 0.55241 0.0
S1557 S 0.92397 0.78388 0.49028 0.0
N1558 N 0.90507 0.72668 0.48798 0.0
N1559 N 0.9555 0.7829 0.51089 0.0
C1560 C 0.95181 0.73443 0.51683 0.0
C1561 C 0.92428 0.70383 0.5044 0.0
C1562 C 0.85475 0.63236 0.27743 0.0
C1563 C 0.87619 0.65165 0.295 0.0
C1564 C 0.82759 0.66232 0.26522 0.0
C1565 C 0.82035 0.71284 0.27011 0.0
H1566 H 0.85977 0.59405 0.27268 0.0
H1567 H 0.81202 0.64558 0.25188 0.0
S1568 S 0.86804 0.7819 0.31454 0.0
N1569 N 0.88749 0.72491 0.31674 0.0
N1570 N 0.83674 0.78081 0.29384 0.0
C1571 C 0.84098 0.73247 0.28779 0.0
C1572 C 0.86869 0.70205 0.30021 0.0
C1573 C 0.9405 0.10793 0.27782 0.0
C1574 C 0.91842 0.08812 0.29511 0.0
C1575 C 0.96795 0.07832 0.26564 0.0
C1576 C 0.97495 0.02768 0.27029 0.0
H1577 H 0.93576 0.14641 0.27324 0.0
H1578 H 0.98395 0.09547 0.2525 0.0
S1579 S 0.92589 0.95738 0.31403 0.0
N1580 N 0.90631 0.01429 0.31638 0.0
N1581 N 0.95787 0.95902 0.29358 0.0
C1582 C 0.95379 0.00752 0.28773 0.0
C1583 C 0.92565 0.03758 0.3001 0.0
C1584 C 0.70305 0.47958 0.53706 0.0
C1585 C 0.72552 0.4598 0.51995 0.0
C1586 C 0.67614 0.44963 0.54935 0.0
C1587 C 0.67068 0.39832 0.54524 0.0
H1588 H 0.70551 0.51889 0.54076 0.0
H1589 H 0.65856 0.46736 0.56187 0.0
S1590 S 0.72574 0.32704 0.5034 0.0
N1591 N 0.74281 0.38482 0.50036 0.0
N1592 N 0.69264 0.32855 0.52343 0.0
C1593 C 0.69437 0.37764 0.52864 0.0
C1594 C 0.7215 0.40831 0.516 0.0
C1595 C 0.60532 0.86073 0.52671 0.0
C1596 C 0.62749 0.84135 0.54405 0.0
C1597 C 0.57863 0.83046 0.5144 0.0
C1598 C 0.57273 0.77955 0.51896 0.0
H1599 H 0.60948 0.89934 0.5222 0.0
H1600 H 0.56241 0.84722 0.50124 0.0
S1601 S 0.6229 0.71011 0.56266 0.0
N1602 N 0.64086 0.76762 0.56523 0.0
N1603 N 0.59131 0.71108 0.54208 0.0
C1604 C 0.59419 0.75981 0.53639 0.0
C1605 C 0.62126 0.79056 0.54893 0.0
C1606 C 0.69219 0.85926 0.7758 0.0
C1607 C 0.66939 0.83903 0.75882 0.0
C1608 C 0.71925 0.8296 0.78818 0.0
C1609 C 0.72503 0.77849 0.78405 0.0
H1610 H 0.68835 0.89813 0.77997 0.0
H1611 H 0.73594 0.84705 0.80105 0.0
S1612 S 0.67344 0.70689 0.74137 0.0
N1613 N 0.65523 0.76424 0.73844 0.0
N1614 N 0.70581 0.70889 0.76166 0.0
C1615 C 0.70302 0.75788 0.76695 0.0
C1616 C 0.67541 0.78799 0.75436 0.0
C1617 C 0.59288 0.47745 0.76794 0.0
C1618 C 0.57165 0.45843 0.78556 0.0
C1619 C 0.61991 0.44735 0.75579 0.0
C1620 C 0.62676 0.39665 0.76058 0.0
H1621 H 0.58925 0.51629 0.76365 0.0
H1622 H 0.63642 0.46451 0.7428 0.0
S1623 S 0.57588 0.32738 0.80421 0.0
N1624 N 0.55738 0.38477 0.80654 0.0
N1625 N 0.60786 0.32819 0.78374 0.0
C1626 C 0.60449 0.37667 0.77778 0.0
C1627 C 0.57721 0.40752 0.79027 0.0
C1628 C 0.37485 0.54029 0.50732 0.0
C1629 C 0.3766 0.59258 0.50961 0.0
C1630 C 0.34717 0.51098 0.51944 0.0
C1631 C 0.32031 0.53255 0.53455 0.0
H1632 H 0.39591 0.52142 0.49647 0.0
H1633 H 0.34754 0.47091 0.51728 0.0
S1634 S 0.30841 0.66793 0.5452 0.0
N1635 N 0.34588 0.6649 0.52708 0.0
N1636 N 0.29435 0.6097 0.54994 0.0
C1637 C 0.32048 0.58482 0.53655 0.0
C1638 C 0.34837 0.61481 0.52405 0.0
C1639 C 0.45494 0.2287 0.51816 0.0
C1640 C 0.47563 0.21009 0.53601 0.0
C1641 C 0.42843 0.19824 0.50589 0.0
C1642 C 0.42167 0.14754 0.51075 0.0
H1643 H 0.45854 0.2675 0.51381 0.0
H1644 H 0.41225 0.21509 0.49274 0.0
S1645 S 0.47152 0.07927 0.55494 0.0
N1646 N 0.48961 0.13681 0.55727 0.0
N1647 N 0.44021 0.07957 0.53424 0.0
C1648 C 0.4435 0.12797 0.52817 0.0
C1649 C 0.47018 0.1592 0.54079 0.0
C1650 C 0.37 0.19892 0.29926 0.0
C1651 C 0.37531 0.14757 0.29525 0.0
C1652 C 0.34308 0.22877 0.28692 0.0
C1653 C 0.32052 0.20883 0.26986 0.0
H1654 H 0.38766 0.21671 0.31172 0.0
H1655 H 0.34063 0.26811 0.29056 0.0
S1656 S 0.32017 0.07601 0.2535 0.0
N1657 N 0.35324 0.07763 0.27354 0.0
N1658 N 0.30318 0.1338 0.25037 0.0
C1659 C 0.32452 0.15737 0.26597 0.0
C1660 C 0.3516 0.12678 0.27867 0.0
C1661 C 0.4686 0.57982 0.26603 0.0
C1662 C 0.4738 0.52858 0.2701 0.0
C1663 C 0.4419 0.60981 0.27848 0.0
C1664 C 0.41898 0.5898 0.29548 0.0
H1665 H 0.48539 0.59706 0.25315 0.0
H1666 H 0.43834 0.64873 0.27434 0.0
S1667 S 0.42146 0.45738 0.31267 0.0
N1668 N 0.45378 0.45908 0.29236 0.0
N1669 N 0.40408 0.51502 0.31575 0.0
C1670 C 0.42453 0.53864 0.29987 0.0
C1671 C 0.45168 0.5082 0.2872 0.0
C1672 C 0.67636 0.94735 0.04833 0.0
C1673 C 0.67086 0.89611 0.04412 0.0
C1674 C 0.70365 0.97725 0.03623 0.0
C1675 C 0.72644 0.95748 1.01922 0.0
H1676 H 0.65865 0.96503 0.06082 0.0
H1677 H 0.70625 0.01649 0.04003 0.0
S1678 S 0.72661 0.82493 1.00244 0.0
N1679 N 0.69305 0.8264 1.0223 0.0
N1680 N 0.74392 0.88266 0.99957 0.0
C1681 C 0.7223 0.9061 1.01513 0.0
C1682 C 0.69479 0.87544 1.02759 0.0
C1683 C 0.62249 0.28949 0.048 0.0
C1684 C 0.6256 0.34144 0.04477 0.0
C1685 C 0.59508 0.25965 0.03594 0.0
C1686 C 0.56985 0.28028 1.01997 0.0
H1687 H 0.64237 0.27123 0.05953 0.0
H1688 H 0.59451 0.21985 0.03881 0.0
S1689 S 0.56167 0.41472 1.00669 0.0
N1690 N 0.59773 0.4126 1.02548 0.0
N1691 N 0.54668 0.35646 1.00279 0.0
C1692 C 0.57125 0.33231 1.01707 0.0
C1693 C 0.59886 0.36284 0.02949 0.0
C1694 C 0.70097 0.2606 0.26935 0.0
C1695 C 0.72676 0.28188 0.28497 0.0
C1696 C 0.67304 0.2899 0.25731 0.0
C1697 C 0.66992 0.34194 0.26019 0.0
H1698 H 0.70169 0.22072 0.26667 0.0
H1699 H 0.65294 0.2712 0.246 0.0
S1700 S 0.73407 0.41663 0.29774 0.0
N1701 N 0.74963 0.3586 0.30177 0.0
N1702 N 0.6977 0.41376 0.27911 0.0
C1703 C 0.69684 0.36391 0.27529 0.0
C1704 C 0.72497 0.33392 0.28769 0.0
C1705 C 0.59247 0.9794 0.2679 0.0
C1706 C 0.56939 0.95933 0.28474 0.0
C1707 C 0.61912 0.94938 0.25548 0.0
C1708 C 0.6236 0.89776 0.2592 0.0
H1709 H 0.59071 0.01893 0.26453 0.0
H1710 H 0.63727 0.96724 0.2432 0.0
S1711 S 0.56656 0.82594 0.30025 0.0
N1712 N 0.55046 0.88398 0.30368 0.0
N1713 N 0.60003 0.82755 0.28036 0.0
C1714 C 0.59927 0.8769 0.27555 0.0
C1715 C 0.57247 0.90763 0.28832 0.0
C1716 C 0.32693 0.07872 0.03864 0.0
C1717 C 0.32057 0.02793 0.034 0.0
C1718 C 0.35406 0.10874 1.02646 0.0
C1719 C 0.37628 0.08921 1.00917 0.0
H1720 H 0.31087 0.09558 0.05183 0.0
H1721 H 0.35859 0.14721 0.03109 0.0
S1722 S 0.37014 0.95837 0.99018 0.0
N1723 N 0.3383 0.95956 1.01068 0.0
N1724 N 0.38889 0.01559 0.9878 0.0
C1725 C 0.36937 0.03863 1.0041 0.0
C1726 C 0.34175 0.00814 1.0165 0.0
C1727 C 0.45115 0.72906 1.01888 0.0
C1728 C 0.47519 0.70862 0.03533 0.0
C1729 C 0.42373 0.69936 1.00675 0.0
C1730 C 0.41946 0.6477 1.01035 0.0
H1731 H 0.45287 0.76863 1.01557 0.0
H1732 H 0.40497 0.71747 0.99474 0.0
S1733 S 0.4791 0.57492 0.05026 0.0
N1734 N 0.49531 0.63291 0.05372 0.0
N1735 N 0.44438 0.57698 0.03089 0.0
C1736 C 0.44473 0.62646 1.02629 0.0
C1737 C 0.47228 0.65689 0.03879 0.0
C1738 C 0.37029 0.69852 0.79818 0.0
C1739 C 0.37667 0.64765 0.79349 0.0
C1740 C 0.3432 0.72869 0.78608 0.0
C1741 C 0.32155 0.70955 0.76861 0.0
H1742 H 0.38721 0.71572 0.81102 0.0
H1743 H 0.33992 0.76765 0.79023 0.0
S1744 S 0.32411 0.57808 0.75042 0.0
N1745 N 0.35659 0.57893 0.77069 0.0
N1746 N 0.30612 0.63565 0.74797 0.0
C1747 C 0.32656 0.65849 0.76404 0.0
C1748 C 0.35384 0.62758 0.77649 0.0
C1749 C 0.46982 0.07965 0.7661 0.0
C1750 C 0.47563 0.02852 0.77023 0.0
C1751 C 0.44305 0.1094 0.77862 0.0
C1752 C 0.42058 0.08929 0.79573 0.0
H1753 H 0.48624 0.09701 0.75314 0.0
H1754 H 0.43912 0.14826 0.77444 0.0
S1755 S 0.425 0.95723 0.81328 0.0
N1756 N 0.45688 0.95909 0.7928 0.0
N1757 N 0.40689 0.01461 0.81625 0.0
C1758 C 0.4267 0.03826 0.80019 0.0
C1759 C 0.454 0.00805 0.78747 0.0
loop_
_geom_bond_atom_site_label_1
_geom_bond_atom_site_label_2
_geom_bond_distance
_geom_bond_site_symmetry_2
_ccdc_geom_bond_type
Fe0 O2 1.918 . S
Fe0 O5 1.997 1_455 S
Fe0 O6 2.002 1_455 S
Fe0 O11 1.976 . S
Fe0 O14 1.996 . S
Fe1 O2 1.918 . S
Fe1 O9 1.997 1_455 S
Fe1 O12 1.996 . S
Fe1 O16 1.976 . S
Fe1 O19 2.002 . S
O2 Fe0 1.918 . S
O2 Fe1 1.918 . S
O2 Fe3 1.918 . S
Fe3 O2 1.918 . S
Fe3 O4 2.002 . S
Fe3 O13 1.976 . S
Fe3 O17 1.996 . S
Fe3 O20 1.997 . S
O4 Fe3 2.002 . S
O4 C21 1.295 1_455 S
O5 Fe0 1.997 1_655 S
O5 C21 1.235 . S
O6 Fe0 2.002 1_655 S
O6 C7 1.295 . S
C7 O6 1.295 . S
C7 O9 1.235 . S
C8 O13 1.287 . S
C8 O14 1.255 . S
O9 Fe1 1.997 1_655 S
O9 C7 1.235 . S
C10 O16 1.287 . S
C10 O17 1.255 . S
O11 Fe0 1.976 . S
O11 C18 1.287 . S
O12 Fe1 1.996 . S
O12 C18 1.255 . S
O13 Fe3 1.976 . S
O13 C8 1.287 . S
O14 Fe0 1.996 . S
O14 C8 1.255 . S
C15 O19 1.295 . S
C15 O20 1.235 . S
O16 Fe1 1.976 . S
O16 C10 1.287 . S
O17 Fe3 1.996 . S
O17 C10 1.255 . S
C18 O11 1.287 . S
C18 O12 1.255 . S
O19 Fe1 2.002 . S
O19 C15 1.295 . S
O20 Fe3 1.997 . S
O20 C15 1.235 . S
C21 O4 1.295 1_655 S
C21 O5 1.235 . S
Fe22 O24 1.918 . S
Fe22 O27 1.997 . S
Fe22 O28 2.002 . S
Fe22 O33 1.976 . S
Fe22 O36 1.996 . S
Fe23 O24 1.918 . S
Fe23 O31 1.997 1_565 S
Fe23 O34 1.996 1_565 S
Fe23 O38 1.976 . S
Fe23 O41 2.002 . S
O24 Fe22 1.918 . S
O24 Fe23 1.918 . S
O24 Fe25 1.918 . S
Fe25 O24 1.918 . S
Fe25 O26 2.002 . S
Fe25 O35 1.976 . S
Fe25 O39 1.996 . S
Fe25 O42 1.997 . S
O26 Fe25 2.002 . S
O26 C43 1.295 . S
O27 Fe22 1.997 . S
O27 C43 1.235 . S
O28 Fe22 2.002 . S
O28 C29 1.297 . S
C29 O28 1.297 . S
C29 O31 1.235 1_565 S
C30 O35 1.287 . S
C30 O36 1.255 . S
O31 Fe23 1.997 1_545 S
O31 C29 1.235 1_545 S
C32 O38 1.287 . S
C32 O39 1.255 . S
O33 Fe22 1.976 . S
O33 C40 1.287 1_565 S
O34 Fe23 1.996 1_545 S
O34 C40 1.255 . S
O35 Fe25 1.976 . S
O35 C30 1.287 . S
O36 Fe22 1.996 . S
O36 C30 1.255 . S
C37 O41 1.295 . S
C37 O42 1.235 . S
O38 Fe23 1.976 . S
O38 C32 1.287 . S
O39 Fe25 1.996 . S
O39 C32 1.255 . S
C40 O33 1.287 1_545 S
C40 O34 1.255 . S
O41 Fe23 2.002 . S
O41 C37 1.295 . S
O42 Fe25 1.997 . S
O42 C37 1.235 . S
C43 O26 1.295 . S
C43 O27 1.235 . S
Fe44 O46 1.918 . S
Fe44 O49 1.997 1_465 S
Fe44 O50 2.002 1_455 S
Fe44 O55 1.976 . S
Fe44 O58 1.996 1_565 S
Fe45 O46 1.918 . S
Fe45 O53 1.997 1_455 S
Fe45 O56 1.996 . S
Fe45 O60 1.976 . S
Fe45 O63 2.002 . S
O46 Fe44 1.918 . S
O46 Fe45 1.918 . S
O46 Fe47 1.918 . S
Fe47 O46 1.918 . S
Fe47 O48 2.002 . S
Fe47 O57 1.976 . S
Fe47 O61 1.996 . S
Fe47 O64 1.997 . S
O48 Fe47 2.002 . S
O48 C65 1.297 1_455 S
O49 Fe44 1.997 1_645 S
O49 C65 1.235 1_545 S
O50 Fe44 2.002 1_655 S
O50 C51 1.295 . S
C51 O50 1.295 . S
C51 O53 1.235 . S
C52 O57 1.287 1_545 S
C52 O58 1.255 . S
O53 Fe45 1.997 1_655 S
O53 C51 1.235 . S
C54 O60 1.287 . S
C54 O61 1.255 . S
O55 Fe44 1.976 . S
O55 C62 1.287 . S
O56 Fe45 1.996 . S
O56 C62 1.255 . S
O57 Fe47 1.976 . S
O57 C52 1.287 1_565 S
O58 Fe44 1.996 1_545 S
O58 C52 1.255 . S
C59 O63 1.295 . S
C59 O64 1.235 . S
O60 Fe45 1.976 . S
O60 C54 1.287 . S
O61 Fe47 1.996 . S
O61 C54 1.255 . S
C62 O55 1.287 . S
C62 O56 1.255 . S
O63 Fe45 2.002 . S
O63 C59 1.295 . S
O64 Fe47 1.997 . S
O64 C59 1.235 . S
C65 O48 1.297 1_655 S
C65 O49 1.235 1_565 S
Fe66 O68 1.918 . S
Fe66 O71 1.997 . S
Fe66 O72 2.002 . S
Fe66 O77 1.976 . S
Fe66 O80 1.996 . S
Fe67 O68 1.918 . S
Fe67 O75 1.997 . S
Fe67 O78 1.996 . S
Fe67 O82 1.976 . S
Fe67 O85 2.002 . S
O68 Fe66 1.918 . S
O68 Fe67 1.918 . S
O68 Fe69 1.918 . S
Fe69 O68 1.918 . S
Fe69 O70 2.002 . S
Fe69 O79 1.976 . S
Fe69 O83 1.996 . S
Fe69 O86 1.997 . S
O70 Fe69 2.002 . S
O70 C87 1.295 . S
O71 Fe66 1.997 . S
O71 C87 1.235 . S
O72 Fe66 2.002 . S
O72 C73 1.295 . S
C73 O72 1.295 . S
C73 O75 1.235 . S
C74 O79 1.287 . S
C74 O80 1.255 . S
O75 Fe67 1.997 . S
O75 C73 1.235 . S
C76 O82 1.287 . S
C76 O83 1.255 . S
O77 Fe66 1.976 . S
O77 C84 1.287 . S
O78 Fe67 1.996 . S
O78 C84 1.255 . S
O79 Fe69 1.976 . S
O79 C74 1.287 . S
O80 Fe66 1.996 . S
O80 C74 1.255 . S
C81 O85 1.295 . S
C81 O86 1.235 . S
O82 Fe67 1.976 . S
O82 C76 1.287 . S
O83 Fe69 1.996 . S
O83 C76 1.255 . S
C84 O77 1.287 . S
C84 O78 1.255 . S
O85 Fe67 2.002 . S
O85 C81 1.295 . S
O86 Fe69 1.997 . S
O86 C81 1.235 . S
C87 O70 1.295 . S
C87 O71 1.235 . S
Fe88 O90 1.918 . S
Fe88 O93 1.997 . S
Fe88 O94 2.002 . S
Fe88 O99 1.976 . S
Fe88 O102 1.996 . S
Fe89 O90 1.918 . S
Fe89 O97 1.997 . S
Fe89 O100 1.996 . S
Fe89 O104 1.976 . S
Fe89 O107 2.002 1_655 S
O90 Fe88 1.918 . S
O90 Fe89 1.918 . S
O90 Fe91 1.918 . S
Fe91 O90 1.918 . S
Fe91 O92 2.002 1_655 S
Fe91 O101 1.976 . S
Fe91 O105 1.996 . S
Fe91 O108 1.997 1_655 S
O92 Fe91 2.002 1_455 S
O92 C109 1.295 . S
O93 Fe88 1.997 . S
O93 C109 1.235 1_655 S
O94 Fe88 2.002 . S
O94 C95 1.295 . S
C95 O94 1.295 . S
C95 O97 1.235 . S
C96 O101 1.287 . S
C96 O102 1.255 . S
O97 Fe89 1.997 . S
O97 C95 1.235 . S
C98 O104 1.287 . S
C98 O105 1.255 . S
O99 Fe88 1.976 . S
O99 C106 1.287 . S
O100 Fe89 1.996 . S
O100 C106 1.255 . S
O101 Fe91 1.976 . S
O101 C96 1.287 . S
O102 Fe88 1.996 . S
O102 C96 1.255 . S
C103 O107 1.295 . S
C103 O108 1.235 . S
O104 Fe89 1.976 . S
O104 C98 1.287 . S
O105 Fe91 1.996 . S
O105 C98 1.255 . S
C106 O99 1.287 . S
C106 O100 1.255 . S
O107 Fe89 2.002 1_455 S
O107 C103 1.295 . S
O108 Fe91 1.997 1_455 S
O108 C103 1.235 . S
C109 O92 1.295 . S
C109 O93 1.235 1_455 S
Fe110 O112 1.918 . S
Fe110 O115 1.997 . S
Fe110 O116 2.002 1_545 S
Fe110 O121 1.976 1_545 S
Fe110 O124 1.996 . S
Fe111 O112 1.918 . S
Fe111 O119 1.997 . S
Fe111 O122 1.997 1_545 S
Fe111 O126 1.976 . S
Fe111 O129 2.002 . S
O112 Fe110 1.918 . S
O112 Fe111 1.918 . S
O112 Fe113 1.918 . S
Fe113 O112 1.918 . S
Fe113 O114 2.002 . S
Fe113 O123 1.976 . S
Fe113 O127 1.996 . S
Fe113 O130 1.997 . S
O114 Fe113 2.002 . S
O114 C131 1.295 . S
O115 Fe110 1.997 . S
O115 C131 1.235 . S
O116 Fe110 2.002 1_565 S
O116 C117 1.295 . S
C117 O116 1.295 . S
C117 O119 1.235 1_565 S
C118 O123 1.287 . S
C118 O124 1.255 . S
O119 Fe111 1.997 . S
O119 C117 1.235 1_545 S
C120 O126 1.287 . S
C120 O127 1.255 . S
O121 Fe110 1.976 1_565 S
O121 C128 1.287 . S
O122 Fe111 1.997 1_565 S
O122 C128 1.254 . S
O123 Fe113 1.976 . S
O123 C118 1.287 . S
O124 Fe110 1.996 . S
O124 C118 1.255 . S
C125 O129 1.295 . S
C125 O130 1.235 . S
O126 Fe111 1.976 . S
O126 C120 1.287 . S
O127 Fe113 1.996 . S
O127 C120 1.255 . S
C128 O121 1.287 . S
C128 O122 1.254 . S
O129 Fe111 2.002 . S
O129 C125 1.295 . S
O130 Fe113 1.997 . S
O130 C125 1.235 . S
C131 O114 1.295 . S
C131 O115 1.235 . S
Fe132 O134 1.918 . S
Fe132 O137 1.997 . S
Fe132 O138 2.002 1_655 S
Fe132 O143 1.976 . S
Fe132 O146 1.996 . S
Fe133 O134 1.918 . S
Fe133 O141 1.997 1_655 S
Fe133 O144 1.996 . S
Fe133 O148 1.976 1_545 S
Fe133 O151 2.002 1_645 S
O134 Fe132 1.918 . S
O134 Fe133 1.918 . S
O134 Fe135 1.918 . S
Fe135 O134 1.918 . S
Fe135 O136 2.002 . S
Fe135 O145 1.976 . S
Fe135 O149 1.997 1_545 S
Fe135 O152 1.997 . S
O136 Fe135 2.002 . S
O136 C153 1.295 . S
O137 Fe132 1.997 . S
O137 C153 1.235 . S
O138 Fe132 2.002 1_455 S
O138 C139 1.295 . S
C139 O138 1.295 . S
C139 O141 1.235 . S
C140 O145 1.287 . S
C140 O146 1.255 . S
O141 Fe133 1.997 1_455 S
O141 C139 1.235 . S
C142 O148 1.287 . S
C142 O149 1.254 . S
O143 Fe132 1.976 . S
O143 C150 1.287 . S
O144 Fe133 1.996 . S
O144 C150 1.255 . S
O145 Fe135 1.976 . S
O145 C140 1.287 . S
O146 Fe132 1.996 . S
O146 C140 1.255 . S
C147 O151 1.295 . S
C147 O152 1.235 1_465 S
O148 Fe133 1.976 1_565 S
O148 C142 1.287 . S
O149 Fe135 1.997 1_565 S
O149 C142 1.254 . S
C150 O143 1.287 . S
C150 O144 1.255 . S
O151 Fe133 2.002 1_465 S
O151 C147 1.295 . S
O152 Fe135 1.997 . S
O152 C147 1.235 1_645 S
C153 O136 1.295 . S
C153 O137 1.235 . S
Fe154 O156 1.918 . S
Fe154 O159 1.997 . S
Fe154 O160 2.002 . S
Fe154 O165 1.976 . S
Fe154 O168 1.996 . S
Fe155 O156 1.918 . S
Fe155 O163 1.997 . S
Fe155 O166 1.996 . S
Fe155 O170 1.976 . S
Fe155 O173 2.002 . S
O156 Fe154 1.918 . S
O156 Fe155 1.918 . S
O156 Fe157 1.918 . S
Fe157 O156 1.918 . S
Fe157 O158 2.002 . S
Fe157 O167 1.976 . S
Fe157 O171 1.996 . S
Fe157 O174 1.997 . S
O158 Fe157 2.002 . S
O158 C175 1.295 . S
O159 Fe154 1.997 . S
O159 C175 1.235 . S
O160 Fe154 2.002 . S
O160 C161 1.295 . S
C161 O160 1.295 . S
C161 O163 1.235 . S
C162 O167 1.287 . S
C162 O168 1.255 . S
O163 Fe155 1.997 . S
O163 C161 1.235 . S
C164 O170 1.287 . S
C164 O171 1.255 . S
O165 Fe154 1.976 . S
O165 C172 1.287 . S
O166 Fe155 1.996 . S
O166 C172 1.255 . S
O167 Fe157 1.976 . S
O167 C162 1.287 . S
O168 Fe154 1.996 . S
O168 C162 1.255 . S
C169 O173 1.295 . S
C169 O174 1.235 . S
O170 Fe155 1.976 . S
O170 C164 1.287 . S
O171 Fe157 1.996 . S
O171 C164 1.255 . S
C172 O165 1.287 . S
C172 O166 1.255 . S
O173 Fe155 2.002 . S
O173 C169 1.295 . S
O174 Fe157 1.997 . S
O174 C169 1.235 . S
C175 O158 1.295 . S
C175 O159 1.235 . S
Fe176 O178 1.918 . S
Fe176 O181 1.997 1_455 S
Fe176 O182 2.002 . S
Fe176 O187 1.976 . S
Fe176 O190 1.996 . S
Fe177 O178 1.918 . S
Fe177 O185 1.997 . S
Fe177 O188 1.996 . S
Fe177 O192 1.976 . S
Fe177 O195 2.002 . S
O178 Fe176 1.918 . S
O178 Fe177 1.918 . S
O178 Fe179 1.918 . S
Fe179 O178 1.918 . S
Fe179 O180 2.002 1_455 S
Fe179 O189 1.976 . S
Fe179 O193 1.996 . S
Fe179 O196 1.997 1_455 S
O180 Fe179 2.002 1_655 S
O180 C197 1.295 . S
O181 Fe176 1.997 1_655 S
O181 C197 1.235 . S
O182 Fe176 2.002 . S
O182 C183 1.295 . S
C183 O182 1.295 . S
C183 O185 1.235 . S
C184 O189 1.287 . S
C184 O190 1.255 . S
O185 Fe177 1.997 . S
O185 C183 1.235 . S
C186 O192 1.287 . S
C186 O193 1.255 . S
O187 Fe176 1.976 . S
O187 C194 1.287 . S
O188 Fe177 1.996 . S
O188 C194 1.255 . S
O189 Fe179 1.976 . S
O189 C184 1.287 . S
O190 Fe176 1.996 . S
O190 C184 1.255 . S
C191 O195 1.295 1_655 S
C191 O196 1.235 . S
O192 Fe177 1.976 . S
O192 C186 1.287 . S
O193 Fe179 1.996 . S
O193 C186 1.255 . S
C194 O187 1.287 . S
C194 O188 1.255 . S
O195 Fe177 2.002 . S
O195 C191 1.295 1_455 S
O196 Fe179 1.997 1_655 S
O196 C191 1.235 . S
C197 O180 1.295 . S
C197 O181 1.235 . S
Fe198 O200 1.918 . S
Fe198 O203 1.997 . S
Fe198 O204 2.002 . S
Fe198 O209 1.976 . S
Fe198 O212 1.996 . S
Fe199 O200 1.918 . S
Fe199 O207 1.997 . S
Fe199 O210 1.996 . S
Fe199 O214 1.976 . S
Fe199 O217 2.002 . S
O200 Fe198 1.918 . S
O200 Fe199 1.918 . S
O200 Fe201 1.918 . S
Fe201 O200 1.918 . S
Fe201 O202 2.002 . S
Fe201 O211 1.976 . S
Fe201 O215 1.996 . S
Fe201 O218 1.997 . S
O202 Fe201 2.002 . S
O202 C219 1.295 . S
O203 Fe198 1.997 . S
O203 C219 1.235 . S
O204 Fe198 2.002 . S
O204 C205 1.295 . S
C205 O204 1.295 . S
C205 O207 1.235 . S
C206 O211 1.287 . S
C206 O212 1.255 . S
O207 Fe199 1.997 . S
O207 C205 1.235 . S
C208 O214 1.287 . S
C208 O215 1.255 . S
O209 Fe198 1.976 . S
O209 C216 1.287 . S
O210 Fe199 1.996 . S
O210 C216 1.255 . S
O211 Fe201 1.976 . S
O211 C206 1.287 . S
O212 Fe198 1.996 . S
O212 C206 1.255 . S
C213 O217 1.295 . S
C213 O218 1.235 . S
O214 Fe199 1.976 . S
O214 C208 1.287 . S
O215 Fe201 1.996 . S
O215 C208 1.255 . S
C216 O209 1.287 . S
C216 O210 1.255 . S
O217 Fe199 2.002 . S
O217 C213 1.295 . S
O218 Fe201 1.997 . S
O218 C213 1.235 . S
C219 O202 1.295 . S
C219 O203 1.235 . S
Fe220 O222 1.918 . S
Fe220 O225 1.997 1_455 S
Fe220 O226 2.002 1_455 S
Fe220 O231 1.976 . S
Fe220 O234 1.996 . S
Fe221 O222 1.918 . S
Fe221 O229 1.997 1_455 S
Fe221 O232 1.996 . S
Fe221 O236 1.976 . S
Fe221 O239 2.002 . S
O222 Fe220 1.918 . S
O222 Fe221 1.918 . S
O222 Fe223 1.918 . S
Fe223 O222 1.918 . S
Fe223 O224 2.002 . S
Fe223 O233 1.976 . S
Fe223 O237 1.996 . S
Fe223 O240 1.997 . S
O224 Fe223 2.002 . S
O224 C241 1.295 1_455 S
O225 Fe220 1.997 1_655 S
O225 C241 1.235 . S
O226 Fe220 2.002 1_655 S
O226 C227 1.295 . S
C227 O226 1.295 . S
C227 O229 1.235 . S
C228 O233 1.287 . S
C228 O234 1.255 . S
O229 Fe221 1.997 1_655 S
O229 C227 1.235 . S
C230 O236 1.287 . S
C230 O237 1.255 . S
O231 Fe220 1.976 . S
O231 C238 1.287 . S
O232 Fe221 1.996 . S
O232 C238 1.255 . S
O233 Fe223 1.976 . S
O233 C228 1.287 . S
O234 Fe220 1.996 . S
O234 C228 1.255 . S
C235 O239 1.295 . S
C235 O240 1.235 . S
O236 Fe221 1.976 . S
O236 C230 1.287 . S
O237 Fe223 1.996 . S
O237 C230 1.255 . S
C238 O231 1.287 . S
C238 O232 1.255 . S
O239 Fe221 2.002 . S
O239 C235 1.295 . S
O240 Fe223 1.997 . S
O240 C235 1.235 . S
C241 O224 1.295 1_655 S
C241 O225 1.235 . S
Fe242 O244 1.918 . S
Fe242 O247 1.997 . S
Fe242 O248 2.002 . S
Fe242 O253 1.976 . S
Fe242 O256 1.996 . S
Fe243 O244 1.918 . S
Fe243 O251 1.997 . S
Fe243 O254 1.996 . S
Fe243 O258 1.976 . S
Fe243 O261 2.002 . S
O244 Fe242 1.918 . S
O244 Fe243 1.918 . S
O244 Fe245 1.918 . S
Fe245 O244 1.918 . S
Fe245 O246 2.002 . S
Fe245 O255 1.976 . S
Fe245 O259 1.996 . S
Fe245 O262 1.997 . S
O246 Fe245 2.002 . S
O246 C263 1.295 . S
O247 Fe242 1.997 . S
O247 C263 1.235 . S
O248 Fe242 2.002 . S
O248 C249 1.295 . S
C249 O248 1.295 . S
C249 O251 1.235 . S
C250 O255 1.287 . S
C250 O256 1.255 . S
O251 Fe243 1.997 . S
O251 C249 1.235 . S
C252 O258 1.287 . S
C252 O259 1.255 . S
O253 Fe242 1.976 . S
O253 C260 1.287 . S
O254 Fe243 1.996 . S
O254 C260 1.255 . S
O255 Fe245 1.976 . S
O255 C250 1.287 . S
O256 Fe242 1.996 . S
O256 C250 1.255 . S
C257 O261 1.295 . S
C257 O262 1.235 . S
O258 Fe243 1.976 . S
O258 C252 1.287 . S
O259 Fe245 1.996 . S
O259 C252 1.255 . S
C260 O253 1.287 . S
C260 O254 1.255 . S
O261 Fe243 2.002 . S
O261 C257 1.295 . S
O262 Fe245 1.997 . S
O262 C257 1.235 . S
C263 O246 1.295 . S
C263 O247 1.235 . S
Fe264 O266 1.918 . S
Fe264 O269 1.997 . S
Fe264 O270 2.002 . S
Fe264 O275 1.976 . S
Fe264 O278 1.996 . S
Fe265 O266 1.918 . S
Fe265 O273 1.997 . S
Fe265 O276 1.996 . S
Fe265 O280 1.976 . S
Fe265 O283 2.002 1_655 S
O266 Fe264 1.918 . S
O266 Fe265 1.918 . S
O266 Fe267 1.918 . S
Fe267 O266 1.918 . S
Fe267 O268 2.002 1_655 S
Fe267 O277 1.976 . S
Fe267 O281 1.996 . S
Fe267 O284 1.997 1_655 S
O268 Fe267 2.002 1_455 S
O268 C285 1.295 . S
O269 Fe264 1.997 . S
O269 C285 1.235 1_655 S
O270 Fe264 2.002 . S
O270 C271 1.295 . S
C271 O270 1.295 . S
C271 O273 1.235 . S
C272 O277 1.287 . S
C272 O278 1.255 . S
O273 Fe265 1.997 . S
O273 C271 1.235 . S
C274 O280 1.287 . S
C274 O281 1.255 . S
O275 Fe264 1.976 . S
O275 C282 1.287 . S
O276 Fe265 1.996 . S
O276 C282 1.255 . S
O277 Fe267 1.976 . S
O277 C272 1.287 . S
O278 Fe264 1.996 . S
O278 C272 1.255 . S
C279 O283 1.295 . S
C279 O284 1.235 . S
O280 Fe265 1.976 . S
O280 C274 1.287 . S
O281 Fe267 1.996 . S
O281 C274 1.255 . S
C282 O275 1.287 . S
C282 O276 1.255 . S
O283 Fe265 2.002 1_455 S
O283 C279 1.295 . S
O284 Fe267 1.997 1_455 S
O284 C279 1.235 . S
C285 O268 1.295 . S
C285 O269 1.235 1_455 S
Fe286 O288 1.918 . S
Fe286 O291 1.997 . S
Fe286 O292 2.002 . S
Fe286 O297 1.976 . S
Fe286 O300 1.996 . S
Fe287 O288 1.918 . S
Fe287 O295 1.997 . S
Fe287 O298 1.996 . S
Fe287 O302 1.976 . S
Fe287 O305 2.002 . S
O288 Fe286 1.918 . S
O288 Fe287 1.918 . S
O288 Fe289 1.918 . S
Fe289 O288 1.918 . S
Fe289 O290 2.002 . S
Fe289 O299 1.976 . S
Fe289 O303 1.996 . S
Fe289 O306 1.997 . S
O290 Fe289 2.002 . S
O290 C307 1.295 . S
O291 Fe286 1.997 . S
O291 C307 1.235 . S
O292 Fe286 2.002 . S
O292 C293 1.295 . S
C293 O292 1.295 . S
C293 O295 1.235 . S
C294 O299 1.287 . S
C294 O300 1.255 . S
O295 Fe287 1.997 . S
O295 C293 1.235 . S
C296 O302 1.287 . S
C296 O303 1.255 . S
O297 Fe286 1.976 . S
O297 C304 1.287 . S
O298 Fe287 1.996 . S
O298 C304 1.255 . S
O299 Fe289 1.976 . S
O299 C294 1.287 . S
O300 Fe286 1.996 . S
O300 C294 1.255 . S
C301 O305 1.295 . S
C301 O306 1.235 . S
O302 Fe287 1.976 . S
O302 C296 1.287 . S
O303 Fe289 1.996 . S
O303 C296 1.255 . S
C304 O297 1.287 . S
C304 O298 1.255 . S
O305 Fe287 2.002 . S
O305 C301 1.295 . S
O306 Fe289 1.997 . S
O306 C301 1.235 . S
C307 O290 1.295 . S
C307 O291 1.235 . S
Fe308 O310 1.918 . S
Fe308 O313 1.997 . S
Fe308 O314 2.002 1_655 S
Fe308 O319 1.976 . S
Fe308 O322 1.996 . S
Fe309 O310 1.918 . S
Fe309 O317 1.997 1_655 S
Fe309 O320 1.996 . S
Fe309 O324 1.976 . S
Fe309 O327 2.002 1_655 S
O310 Fe308 1.918 . S
O310 Fe309 1.918 . S
O310 Fe311 1.918 . S
Fe311 O310 1.918 . S
Fe311 O312 2.002 . S
Fe311 O321 1.976 . S
Fe311 O325 1.996 . S
Fe311 O328 1.997 . S
O312 Fe311 2.002 . S
O312 C329 1.295 . S
O313 Fe308 1.997 . S
O313 C329 1.235 . S
O314 Fe308 2.002 1_455 S
O314 C315 1.295 . S
C315 O314 1.295 . S
C315 O317 1.235 . S
C316 O321 1.287 . S
C316 O322 1.255 . S
O317 Fe309 1.997 1_455 S
O317 C315 1.235 . S
C318 O324 1.287 . S
C318 O325 1.255 . S
O319 Fe308 1.976 . S
O319 C326 1.287 . S
O320 Fe309 1.996 . S
O320 C326 1.255 . S
O321 Fe311 1.976 . S
O321 C316 1.287 . S
O322 Fe308 1.996 . S
O322 C316 1.255 . S
C323 O327 1.295 . S
C323 O328 1.235 1_455 S
O324 Fe309 1.976 . S
O324 C318 1.287 . S
O325 Fe311 1.996 . S
O325 C318 1.255 . S
C326 O319 1.287 . S
C326 O320 1.255 . S
O327 Fe309 2.002 1_455 S
O327 C323 1.295 . S
O328 Fe311 1.997 . S
O328 C323 1.235 1_655 S
C329 O312 1.295 . S
C329 O313 1.235 . S
Fe330 O332 1.918 . S
Fe330 O335 1.997 . S
Fe330 O336 2.002 . S
Fe330 O341 1.976 . S
Fe330 O344 1.996 . S
Fe331 O332 1.918 . S
Fe331 O339 1.997 . S
Fe331 O342 1.996 . S
Fe331 O346 1.976 . S
Fe331 O349 2.002 . S
O332 Fe330 1.918 . S
O332 Fe331 1.918 . S
O332 Fe333 1.918 . S
Fe333 O332 1.918 . S
Fe333 O334 2.002 . S
Fe333 O343 1.976 . S
Fe333 O347 1.996 . S
Fe333 O350 1.997 . S
O334 Fe333 2.002 . S
O334 C351 1.295 . S
O335 Fe330 1.997 . S
O335 C351 1.235 . S
O336 Fe330 2.002 . S
O336 C337 1.295 . S
C337 O336 1.295 . S
C337 O339 1.235 . S
C338 O343 1.287 . S
C338 O344 1.255 . S
O339 Fe331 1.997 . S
O339 C337 1.235 . S
C340 O346 1.287 . S
C340 O347 1.255 . S
O341 Fe330 1.976 . S
O341 C348 1.287 . S
O342 Fe331 1.996 . S
O342 C348 1.255 . S
O343 Fe333 1.976 . S
O343 C338 1.287 . S
O344 Fe330 1.996 . S
O344 C338 1.255 . S
C345 O349 1.295 . S
C345 O350 1.235 . S
O346 Fe331 1.976 . S
O346 C340 1.287 . S
O347 Fe333 1.996 . S
O347 C340 1.255 . S
C348 O341 1.287 . S
C348 O342 1.255 . S
O349 Fe331 2.002 . S
O349 C345 1.295 . S
O350 Fe333 1.997 . S
O350 C345 1.235 . S
C351 O334 1.295 . S
C351 O335 1.235 . S
Fe352 O354 1.918 . S
Fe352 O357 1.997 . S
Fe352 O358 2.002 . S
Fe352 O363 1.976 . S
Fe352 O366 1.996 . S
Fe353 O354 1.918 . S
Fe353 O361 1.997 . S
Fe353 O364 1.996 . S
Fe353 O368 1.976 . S
Fe353 O371 2.002 . S
O354 Fe352 1.918 . S
O354 Fe353 1.918 . S
O354 Fe355 1.918 . S
Fe355 O354 1.918 . S
Fe355 O356 2.002 . S
Fe355 O365 1.976 . S
Fe355 O369 1.996 . S
Fe355 O372 1.997 . S
O356 Fe355 2.002 . S
O356 C373 1.295 . S
O357 Fe352 1.997 . S
O357 C373 1.235 . S
O358 Fe352 2.002 . S
O358 C359 1.295 . S
C359 O358 1.295 . S
C359 O361 1.235 . S
C360 O365 1.287 . S
C360 O366 1.255 . S
O361 Fe353 1.997 . S
O361 C359 1.235 . S
C362 O368 1.287 . S
C362 O369 1.255 . S
O363 Fe352 1.976 . S
O363 C370 1.287 . S
O364 Fe353 1.996 . S
O364 C370 1.255 . S
O365 Fe355 1.976 . S
O365 C360 1.287 . S
O366 Fe352 1.996 . S
O366 C360 1.255 . S
C367 O371 1.295 . S
C367 O372 1.235 . S
O368 Fe353 1.976 . S
O368 C362 1.287 . S
O369 Fe355 1.996 . S
O369 C362 1.255 . S
C370 O363 1.287 . S
C370 O364 1.255 . S
O371 Fe353 2.002 . S
O371 C367 1.295 . S
O372 Fe355 1.997 . S
O372 C367 1.235 . S
C373 O356 1.295 . S
C373 O357 1.235 . S
Fe374 O376 1.918 . S
Fe374 O379 1.997 . S
Fe374 O380 2.002 . S
Fe374 O385 1.976 . S
Fe374 O388 1.996 . S
Fe375 O376 1.918 . S
Fe375 O383 1.997 1_565 S
Fe375 O386 1.996 1_565 S
Fe375 O390 1.976 . S
Fe375 O393 2.002 . S
O376 Fe374 1.918 . S
O376 Fe375 1.918 . S
O376 Fe377 1.918 . S
Fe377 O376 1.918 . S
Fe377 O378 2.002 . S
Fe377 O387 1.976 . S
Fe377 O391 1.996 . S
Fe377 O394 1.997 . S
O378 Fe377 2.002 . S
O378 C395 1.295 . S
O379 Fe374 1.997 . S
O379 C395 1.235 . S
O380 Fe374 2.002 . S
O380 C381 1.297 . S
C381 O380 1.297 . S
C381 O383 1.235 1_565 S
C382 O387 1.287 . S
C382 O388 1.255 . S
O383 Fe375 1.997 1_545 S
O383 C381 1.235 1_545 S
C384 O390 1.287 . S
C384 O391 1.255 . S
O385 Fe374 1.976 . S
O385 C392 1.287 1_565 S
O386 Fe375 1.996 1_545 S
O386 C392 1.255 . S
O387 Fe377 1.976 . S
O387 C382 1.287 . S
O388 Fe374 1.996 . S
O388 C382 1.255 . S
C389 O393 1.295 . S
C389 O394 1.235 . S
O390 Fe375 1.976 . S
O390 C384 1.287 . S
O391 Fe377 1.996 . S
O391 C384 1.255 . S
C392 O385 1.287 1_545 S
C392 O386 1.255 . S
O393 Fe375 2.002 . S
O393 C389 1.295 . S
O394 Fe377 1.997 . S
O394 C389 1.235 . S
C395 O378 1.295 . S
C395 O379 1.235 . S
Fe396 O398 1.918 . S
Fe396 O401 1.997 . S
Fe396 O402 2.002 . S
Fe396 O407 1.976 . S
Fe396 O410 1.996 . S
Fe397 O398 1.918 . S
Fe397 O405 1.997 . S
Fe397 O408 1.996 . S
Fe397 O412 1.976 . S
Fe397 O415 2.002 . S
O398 Fe396 1.918 . S
O398 Fe397 1.918 . S
O398 Fe399 1.918 . S
Fe399 O398 1.918 . S
Fe399 O400 2.002 . S
Fe399 O409 1.976 . S
Fe399 O413 1.996 1_565 S
Fe399 O416 1.997 1_565 S
O400 Fe399 2.002 . S
O400 C417 1.295 . S
O401 Fe396 1.997 . S
O401 C417 1.235 . S
O402 Fe396 2.002 . S
O402 C403 1.295 . S
C403 O402 1.295 . S
C403 O405 1.235 . S
C404 O409 1.287 . S
C404 O410 1.255 . S
O405 Fe397 1.997 . S
O405 C403 1.235 . S
C406 O412 1.287 1_545 S
C406 O413 1.255 . S
O407 Fe396 1.976 . S
O407 C414 1.287 . S
O408 Fe397 1.996 . S
O408 C414 1.255 . S
O409 Fe399 1.976 . S
O409 C404 1.287 . S
O410 Fe396 1.996 . S
O410 C404 1.255 . S
C411 O415 1.297 . S
C411 O416 1.235 1_565 S
O412 Fe397 1.976 . S
O412 C406 1.287 1_565 S
O413 Fe399 1.996 1_545 S
O413 C406 1.255 . S
C414 O407 1.287 . S
C414 O408 1.255 . S
O415 Fe397 2.002 . S
O415 C411 1.297 . S
O416 Fe399 1.997 1_545 S
O416 C411 1.235 1_545 S
C417 O400 1.295 . S
C417 O401 1.235 . S
Fe418 O420 1.918 . S
Fe418 O423 1.997 . S
Fe418 O424 2.002 . S
Fe418 O429 1.976 . S
Fe418 O432 1.996 . S
Fe419 O420 1.918 . S
Fe419 O427 1.997 . S
Fe419 O430 1.996 . S
Fe419 O434 1.976 . S
Fe419 O437 2.002 . S
O420 Fe418 1.918 . S
O420 Fe419 1.918 . S
O420 Fe421 1.918 . S
Fe421 O420 1.918 . S
Fe421 O422 2.002 . S
Fe421 O431 1.976 . S
Fe421 O435 1.996 . S
Fe421 O438 1.997 . S
O422 Fe421 2.002 . S
O422 C439 1.295 . S
O423 Fe418 1.997 . S
O423 C439 1.235 . S
O424 Fe418 2.002 . S
O424 C425 1.295 . S
C425 O424 1.295 . S
C425 O427 1.235 . S
C426 O431 1.287 . S
C426 O432 1.255 . S
O427 Fe419 1.997 . S
O427 C425 1.235 . S
C428 O434 1.287 . S
C428 O435 1.255 . S
O429 Fe418 1.976 . S
O429 C436 1.287 . S
O430 Fe419 1.996 . S
O430 C436 1.255 . S
O431 Fe421 1.976 . S
O431 C426 1.287 . S
O432 Fe418 1.996 . S
O432 C426 1.255 . S
C433 O437 1.295 . S
C433 O438 1.235 . S
O434 Fe419 1.976 . S
O434 C428 1.287 . S
O435 Fe421 1.996 . S
O435 C428 1.255 . S
C436 O429 1.287 . S
C436 O430 1.255 . S
O437 Fe419 2.002 . S
O437 C433 1.295 . S
O438 Fe421 1.997 . S
O438 C433 1.235 . S
C439 O422 1.295 . S
C439 O423 1.235 . S
Fe440 O442 1.918 . S
Fe440 O445 1.997 . S
Fe440 O446 2.002 . S
Fe440 O451 1.976 . S
Fe440 O454 1.996 . S
Fe441 O442 1.918 . S
Fe441 O449 1.997 . S
Fe441 O452 1.996 . S
Fe441 O456 1.976 . S
Fe441 O459 2.002 . S
O442 Fe440 1.918 . S
O442 Fe441 1.918 . S
O442 Fe443 1.918 . S
Fe443 O442 1.918 . S
Fe443 O444 2.002 . S
Fe443 O453 1.976 . S
Fe443 O457 1.996 . S
Fe443 O460 1.997 . S
O444 Fe443 2.002 . S
O444 C461 1.295 . S
O445 Fe440 1.997 . S
O445 C461 1.235 . S
O446 Fe440 2.002 . S
O446 C447 1.295 . S
C447 O446 1.295 . S
C447 O449 1.235 . S
C448 O453 1.287 . S
C448 O454 1.255 . S
O449 Fe441 1.997 . S
O449 C447 1.235 . S
C450 O456 1.287 . S
C450 O457 1.255 . S
O451 Fe440 1.976 . S
O451 C458 1.287 . S
O452 Fe441 1.996 . S
O452 C458 1.255 . S
O453 Fe443 1.976 . S
O453 C448 1.287 . S
O454 Fe440 1.996 . S
O454 C448 1.255 . S
C455 O459 1.295 . S
C455 O460 1.235 . S
O456 Fe441 1.976 . S
O456 C450 1.287 . S
O457 Fe443 1.996 . S
O457 C450 1.255 . S
C458 O451 1.287 . S
C458 O452 1.255 . S
O459 Fe441 2.002 . S
O459 C455 1.295 . S
O460 Fe443 1.997 . S
O460 C455 1.235 . S
C461 O444 1.295 . S
C461 O445 1.235 . S
Fe462 O464 1.918 . S
Fe462 O467 1.997 . S
Fe462 O468 2.002 1_545 S
Fe462 O473 1.976 1_545 S
Fe462 O476 1.996 . S
Fe463 O464 1.918 . S
Fe463 O471 1.997 . S
Fe463 O474 1.997 1_545 S
Fe463 O478 1.976 . S
Fe463 O481 2.002 . S
O464 Fe462 1.918 . S
O464 Fe463 1.918 . S
O464 Fe465 1.918 . S
Fe465 O464 1.918 . S
Fe465 O466 2.002 . S
Fe465 O475 1.976 . S
Fe465 O479 1.996 . S
Fe465 O482 1.997 . S
O466 Fe465 2.002 . S
O466 C483 1.295 . S
O467 Fe462 1.997 . S
O467 C483 1.235 . S
O468 Fe462 2.002 1_565 S
O468 C469 1.295 . S
C469 O468 1.295 . S
C469 O471 1.235 1_565 S
C470 O475 1.287 . S
C470 O476 1.255 . S
O471 Fe463 1.997 . S
O471 C469 1.235 1_545 S
C472 O478 1.287 . S
C472 O479 1.255 . S
O473 Fe462 1.976 1_565 S
O473 C480 1.287 . S
O474 Fe463 1.997 1_565 S
O474 C480 1.254 . S
O475 Fe465 1.976 . S
O475 C470 1.287 . S
O476 Fe462 1.996 . S
O476 C470 1.255 . S
C477 O481 1.295 . S
C477 O482 1.235 . S
O478 Fe463 1.976 . S
O478 C472 1.287 . S
O479 Fe465 1.996 . S
O479 C472 1.255 . S
C480 O473 1.287 . S
C480 O474 1.254 . S
O481 Fe463 2.002 . S
O481 C477 1.295 . S
O482 Fe465 1.997 . S
O482 C477 1.235 . S
C483 O466 1.295 . S
C483 O467 1.235 . S
Fe484 O486 1.918 . S
Fe484 O489 1.997 . S
Fe484 O490 2.002 1_545 S
Fe484 O495 1.976 1_545 S
Fe484 O498 1.996 . S
Fe485 O486 1.918 . S
Fe485 O493 1.997 . S
Fe485 O496 1.997 1_545 S
Fe485 O500 1.976 . S
Fe485 O503 2.002 . S
O486 Fe484 1.918 . S
O486 Fe485 1.918 . S
O486 Fe487 1.918 . S
Fe487 O486 1.918 . S
Fe487 O488 2.002 . S
Fe487 O497 1.976 . S
Fe487 O501 1.996 . S
Fe487 O504 1.997 . S
O488 Fe487 2.002 . S
O488 C505 1.295 . S
O489 Fe484 1.997 . S
O489 C505 1.235 . S
O490 Fe484 2.002 1_565 S
O490 C491 1.295 . S
C491 O490 1.295 . S
C491 O493 1.235 1_565 S
C492 O497 1.287 . S
C492 O498 1.255 . S
O493 Fe485 1.997 . S
O493 C491 1.235 1_545 S
C494 O500 1.287 . S
C494 O501 1.255 . S
O495 Fe484 1.976 1_565 S
O495 C502 1.287 . S
O496 Fe485 1.997 1_565 S
O496 C502 1.254 . S
O497 Fe487 1.976 . S
O497 C492 1.287 . S
O498 Fe484 1.996 . S
O498 C492 1.255 . S
C499 O503 1.295 . S
C499 O504 1.235 . S
O500 Fe485 1.976 . S
O500 C494 1.287 . S
O501 Fe487 1.996 . S
O501 C494 1.255 . S
C502 O495 1.287 . S
C502 O496 1.254 . S
O503 Fe485 2.002 . S
O503 C499 1.295 . S
O504 Fe487 1.997 . S
O504 C499 1.235 . S
C505 O488 1.295 . S
C505 O489 1.235 . S
Fe506 O508 1.918 . S
Fe506 O511 1.997 . S
Fe506 O512 2.002 . S
Fe506 O517 1.976 . S
Fe506 O520 1.996 . S
Fe507 O508 1.918 . S
Fe507 O515 1.997 . S
Fe507 O518 1.996 . S
Fe507 O522 1.976 . S
Fe507 O525 2.002 . S
O508 Fe506 1.918 . S
O508 Fe507 1.918 . S
O508 Fe509 1.918 . S
Fe509 O508 1.918 . S
Fe509 O510 2.002 . S
Fe509 O519 1.976 . S
Fe509 O523 1.996 . S
Fe509 O526 1.997 . S
O510 Fe509 2.002 . S
O510 C527 1.295 . S
O511 Fe506 1.997 . S
O511 C527 1.235 . S
O512 Fe506 2.002 . S
O512 C513 1.295 . S
C513 O512 1.295 . S
C513 O515 1.235 . S
C514 O519 1.287 . S
C514 O520 1.255 . S
O515 Fe507 1.997 . S
O515 C513 1.235 . S
C516 O522 1.287 . S
C516 O523 1.255 . S
O517 Fe506 1.976 . S
O517 C524 1.287 . S
O518 Fe507 1.996 . S
O518 C524 1.255 . S
O519 Fe509 1.976 . S
O519 C514 1.287 . S
O520 Fe506 1.996 . S
O520 C514 1.255 . S
C521 O525 1.295 . S
C521 O526 1.235 . S
O522 Fe507 1.976 . S
O522 C516 1.287 . S
O523 Fe509 1.996 . S
O523 C516 1.255 . S
C524 O517 1.287 . S
C524 O518 1.255 . S
O525 Fe507 2.002 . S
O525 C521 1.295 . S
O526 Fe509 1.997 . S
O526 C521 1.235 . S
C527 O510 1.295 . S
C527 O511 1.235 . S
Fe528 O530 1.918 . S
Fe528 O533 1.997 . S
Fe528 O534 2.002 . S
Fe528 O539 1.976 . S
Fe528 O542 1.996 . S
Fe529 O530 1.918 . S
Fe529 O537 1.997 . S
Fe529 O540 1.996 . S
Fe529 O544 1.976 . S
Fe529 O547 2.002 . S
O530 Fe528 1.918 . S
O530 Fe529 1.918 . S
O530 Fe531 1.918 . S
Fe531 O530 1.918 . S
Fe531 O532 2.002 . S
Fe531 O541 1.976 . S
Fe531 O545 1.996 . S
Fe531 O548 1.997 . S
O532 Fe531 2.002 . S
O532 C549 1.295 . S
O533 Fe528 1.997 . S
O533 C549 1.235 . S
O534 Fe528 2.002 . S
O534 C535 1.295 . S
C535 O534 1.295 . S
C535 O537 1.235 . S
C536 O541 1.287 . S
C536 O542 1.255 . S
O537 Fe529 1.997 . S
O537 C535 1.235 . S
C538 O544 1.287 . S
C538 O545 1.255 . S
O539 Fe528 1.976 . S
O539 C546 1.287 . S
O540 Fe529 1.996 . S
O540 C546 1.255 . S
O541 Fe531 1.976 . S
O541 C536 1.287 . S
O542 Fe528 1.996 . S
O542 C536 1.255 . S
C543 O547 1.295 . S
C543 O548 1.235 . S
O544 Fe529 1.976 . S
O544 C538 1.287 . S
O545 Fe531 1.996 . S
O545 C538 1.255 . S
C546 O539 1.287 . S
C546 O540 1.255 . S
O547 Fe529 2.002 . S
O547 C543 1.295 . S
O548 Fe531 1.997 . S
O548 C543 1.235 . S
C549 O532 1.295 . S
C549 O533 1.235 . S
Fe550 O552 1.918 . S
Fe550 O555 1.997 . S
Fe550 O556 2.002 . S
Fe550 O561 1.976 . S
Fe550 O564 1.996 . S
Fe551 O552 1.918 . S
Fe551 O559 1.997 . S
Fe551 O562 1.996 . S
Fe551 O566 1.976 . S
Fe551 O569 2.002 . S
O552 Fe550 1.918 . S
O552 Fe551 1.918 . S
O552 Fe553 1.918 . S
Fe553 O552 1.918 . S
Fe553 O554 2.002 . S
Fe553 O563 1.976 . S
Fe553 O567 1.996 . S
Fe553 O570 1.997 . S
O554 Fe553 2.002 . S
O554 C571 1.295 . S
O555 Fe550 1.997 . S
O555 C571 1.235 . S
O556 Fe550 2.002 . S
O556 C557 1.295 . S
C557 O556 1.295 . S
C557 O559 1.235 . S
C558 O563 1.287 . S
C558 O564 1.255 . S
O559 Fe551 1.997 . S
O559 C557 1.235 . S
C560 O566 1.287 . S
C560 O567 1.255 . S
O561 Fe550 1.976 . S
O561 C568 1.287 . S
O562 Fe551 1.996 . S
O562 C568 1.255 . S
O563 Fe553 1.976 . S
O563 C558 1.287 . S
O564 Fe550 1.996 . S
O564 C558 1.255 . S
C565 O569 1.295 . S
C565 O570 1.235 . S
O566 Fe551 1.976 . S
O566 C560 1.287 . S
O567 Fe553 1.996 . S
O567 C560 1.255 . S
C568 O561 1.287 . S
C568 O562 1.255 . S
O569 Fe551 2.002 . S
O569 C565 1.295 . S
O570 Fe553 1.997 . S
O570 C565 1.235 . S
C571 O554 1.295 . S
C571 O555 1.235 . S
Fe572 O574 1.918 . S
Fe572 O577 1.997 . S
Fe572 O578 2.002 . S
Fe572 O583 1.976 . S
Fe572 O586 1.996 . S
Fe573 O574 1.918 . S
Fe573 O581 1.997 . S
Fe573 O584 1.996 . S
Fe573 O588 1.976 . S
Fe573 O591 2.002 . S
O574 Fe572 1.918 . S
O574 Fe573 1.918 . S
O574 Fe575 1.918 . S
Fe575 O574 1.918 . S
Fe575 O576 2.002 . S
Fe575 O585 1.976 . S
Fe575 O589 1.996 . S
Fe575 O592 1.997 . S
O576 Fe575 2.002 . S
O576 C593 1.295 . S
O577 Fe572 1.997 . S
O577 C593 1.235 . S
O578 Fe572 2.002 . S
O578 C579 1.295 . S
C579 O578 1.295 . S
C579 O581 1.235 . S
C580 O585 1.287 . S
C580 O586 1.255 . S
O581 Fe573 1.997 . S
O581 C579 1.235 . S
C582 O588 1.287 . S
C582 O589 1.255 . S
O583 Fe572 1.976 . S
O583 C590 1.287 . S
O584 Fe573 1.996 . S
O584 C590 1.255 . S
O585 Fe575 1.976 . S
O585 C580 1.287 . S
O586 Fe572 1.996 . S
O586 C580 1.255 . S
C587 O591 1.295 . S
C587 O592 1.235 . S
O588 Fe573 1.976 . S
O588 C582 1.287 . S
O589 Fe575 1.996 . S
O589 C582 1.255 . S
C590 O583 1.287 . S
C590 O584 1.255 . S
O591 Fe573 2.002 . S
O591 C587 1.295 . S
O592 Fe575 1.997 . S
O592 C587 1.235 . S
C593 O576 1.295 . S
C593 O577 1.235 . S
Fe594 O596 1.918 . S
Fe594 O599 1.997 . S
Fe594 O600 2.002 . S
Fe594 O605 1.976 . S
Fe594 O608 1.996 . S
Fe595 O596 1.918 . S
Fe595 O603 1.997 . S
Fe595 O606 1.996 . S
Fe595 O610 1.976 . S
Fe595 O613 2.002 . S
O596 Fe594 1.918 . S
O596 Fe595 1.918 . S
O596 Fe597 1.918 . S
Fe597 O596 1.918 . S
Fe597 O598 2.002 . S
Fe597 O607 1.976 . S
Fe597 O611 1.996 . S
Fe597 O614 1.997 . S
O598 Fe597 2.002 . S
O598 C615 1.295 . S
O599 Fe594 1.997 . S
O599 C615 1.235 . S
O600 Fe594 2.002 . S
O600 C601 1.295 . S
C601 O600 1.295 . S
C601 O603 1.235 . S
C602 O607 1.287 . S
C602 O608 1.255 . S
O603 Fe595 1.997 . S
O603 C601 1.235 . S
C604 O610 1.287 . S
C604 O611 1.255 . S
O605 Fe594 1.976 . S
O605 C612 1.287 . S
O606 Fe595 1.996 . S
O606 C612 1.255 . S
O607 Fe597 1.976 . S
O607 C602 1.287 . S
O608 Fe594 1.996 . S
O608 C602 1.255 . S
C609 O613 1.295 . S
C609 O614 1.235 . S
O610 Fe595 1.976 . S
O610 C604 1.287 . S
O611 Fe597 1.996 . S
O611 C604 1.255 . S
C612 O605 1.287 . S
C612 O606 1.255 . S
O613 Fe595 2.002 . S
O613 C609 1.295 . S
O614 Fe597 1.997 . S
O614 C609 1.235 . S
C615 O598 1.295 . S
C615 O599 1.235 . S
Fe616 O618 1.918 . S
Fe616 O621 1.997 . S
Fe616 O622 2.002 . S
Fe616 O627 1.976 . S
Fe616 O630 1.996 . S
Fe617 O618 1.918 . S
Fe617 O625 1.997 . S
Fe617 O628 1.996 . S
Fe617 O632 1.976 . S
Fe617 O635 2.002 . S
O618 Fe616 1.918 . S
O618 Fe617 1.918 . S
O618 Fe619 1.918 . S
Fe619 O618 1.918 . S
Fe619 O620 2.002 . S
Fe619 O629 1.976 . S
Fe619 O633 1.996 . S
Fe619 O636 1.997 . S
O620 Fe619 2.002 . S
O620 C637 1.295 . S
O621 Fe616 1.997 . S
O621 C637 1.235 . S
O622 Fe616 2.002 . S
O622 C623 1.295 . S
C623 O622 1.295 . S
C623 O625 1.235 . S
C624 O629 1.287 . S
C624 O630 1.255 . S
O625 Fe617 1.997 . S
O625 C623 1.235 . S
C626 O632 1.287 . S
C626 O633 1.255 . S
O627 Fe616 1.976 . S
O627 C634 1.287 . S
O628 Fe617 1.996 . S
O628 C634 1.255 . S
O629 Fe619 1.976 . S
O629 C624 1.287 . S
O630 Fe616 1.996 . S
O630 C624 1.255 . S
C631 O635 1.295 . S
C631 O636 1.235 . S
O632 Fe617 1.976 . S
O632 C626 1.287 . S
O633 Fe619 1.996 . S
O633 C626 1.255 . S
C634 O627 1.287 . S
C634 O628 1.255 . S
O635 Fe617 2.002 . S
O635 C631 1.295 . S
O636 Fe619 1.997 . S
O636 C631 1.235 . S
C637 O620 1.295 . S
C637 O621 1.235 . S
Fe638 O640 1.918 . S
Fe638 O643 1.997 . S
Fe638 O644 2.002 . S
Fe638 O649 1.976 . S
Fe638 O652 1.996 . S
Fe639 O640 1.918 . S
Fe639 O647 1.997 . S
Fe639 O650 1.996 . S
Fe639 O654 1.976 . S
Fe639 O657 2.002 . S
O640 Fe638 1.918 . S
O640 Fe639 1.918 . S
O640 Fe641 1.918 . S
Fe641 O640 1.918 . S
Fe641 O642 2.002 . S
Fe641 O651 1.976 . S
Fe641 O655 1.996 . S
Fe641 O658 1.997 . S
O642 Fe641 2.002 . S
O642 C659 1.295 . S
O643 Fe638 1.997 . S
O643 C659 1.235 . S
O644 Fe638 2.002 . S
O644 C645 1.295 . S
C645 O644 1.295 . S
C645 O647 1.235 . S
C646 O651 1.287 . S
C646 O652 1.255 . S
O647 Fe639 1.997 . S
O647 C645 1.235 . S
C648 O654 1.287 . S
C648 O655 1.255 . S
O649 Fe638 1.976 . S
O649 C656 1.287 . S
O650 Fe639 1.996 . S
O650 C656 1.255 . S
O651 Fe641 1.976 . S
O651 C646 1.287 . S
O652 Fe638 1.996 . S
O652 C646 1.255 . S
C653 O657 1.295 . S
C653 O658 1.235 . S
O654 Fe639 1.976 . S
O654 C648 1.287 . S
O655 Fe641 1.996 . S
O655 C648 1.255 . S
C656 O649 1.287 . S
C656 O650 1.255 . S
O657 Fe639 2.002 . S
O657 C653 1.295 . S
O658 Fe641 1.997 . S
O658 C653 1.235 . S
C659 O642 1.295 . S
C659 O643 1.235 . S
Fe660 O662 1.918 . S
Fe660 O665 1.997 . S
Fe660 O666 2.002 . S
Fe660 O671 1.976 . S
Fe660 O674 1.996 . S
Fe661 O662 1.918 . S
Fe661 O669 1.997 . S
Fe661 O672 1.996 . S
Fe661 O676 1.976 . S
Fe661 O679 2.002 . S
O662 Fe660 1.918 . S
O662 Fe661 1.918 . S
O662 Fe663 1.918 . S
Fe663 O662 1.918 . S
Fe663 O664 2.002 . S
Fe663 O673 1.976 . S
Fe663 O677 1.996 . S
Fe663 O680 1.997 . S
O664 Fe663 2.002 . S
O664 C681 1.295 . S
O665 Fe660 1.997 . S
O665 C681 1.235 . S
O666 Fe660 2.002 . S
O666 C667 1.295 . S
C667 O666 1.295 . S
C667 O669 1.235 . S
C668 O673 1.287 . S
C668 O674 1.255 . S
O669 Fe661 1.997 . S
O669 C667 1.235 . S
C670 O676 1.287 . S
C670 O677 1.255 . S
O671 Fe660 1.976 . S
O671 C678 1.287 . S
O672 Fe661 1.996 . S
O672 C678 1.255 . S
O673 Fe663 1.976 . S
O673 C668 1.287 . S
O674 Fe660 1.996 . S
O674 C668 1.255 . S
C675 O679 1.295 . S
C675 O680 1.235 . S
O676 Fe661 1.976 . S
O676 C670 1.287 . S
O677 Fe663 1.996 . S
O677 C670 1.255 . S
C678 O671 1.287 . S
C678 O672 1.255 . S
O679 Fe661 2.002 . S
O679 C675 1.295 . S
O680 Fe663 1.997 . S
O680 C675 1.235 . S
C681 O664 1.295 . S
C681 O665 1.235 . S
Fe682 O684 1.918 . S
Fe682 O687 1.997 . S
Fe682 O688 2.002 . S
Fe682 O693 1.976 . S
Fe682 O696 1.996 . S
Fe683 O684 1.918 . S
Fe683 O691 1.997 . S
Fe683 O694 1.996 . S
Fe683 O698 1.976 . S
Fe683 O701 2.002 . S
O684 Fe682 1.918 . S
O684 Fe683 1.918 . S
O684 Fe685 1.918 . S
Fe685 O684 1.918 . S
Fe685 O686 2.002 . S
Fe685 O695 1.976 . S
Fe685 O699 1.996 . S
Fe685 O702 1.997 . S
O686 Fe685 2.002 . S
O686 C703 1.295 . S
O687 Fe682 1.997 . S
O687 C703 1.235 . S
O688 Fe682 2.002 . S
O688 C689 1.295 . S
C689 O688 1.295 . S
C689 O691 1.235 . S
C690 O695 1.287 . S
C690 O696 1.255 . S
O691 Fe683 1.997 . S
O691 C689 1.235 . S
C692 O698 1.287 . S
C692 O699 1.255 . S
O693 Fe682 1.976 . S
O693 C700 1.287 . S
O694 Fe683 1.996 . S
O694 C700 1.255 . S
O695 Fe685 1.976 . S
O695 C690 1.287 . S
O696 Fe682 1.996 . S
O696 C690 1.255 . S
C697 O701 1.295 . S
C697 O702 1.235 . S
O698 Fe683 1.976 . S
O698 C692 1.287 . S
O699 Fe685 1.996 . S
O699 C692 1.255 . S
C700 O693 1.287 . S
C700 O694 1.255 . S
O701 Fe683 2.002 . S
O701 C697 1.295 . S
O702 Fe685 1.997 . S
O702 C697 1.235 . S
C703 O686 1.295 . S
C703 O687 1.235 . S
C704 C705 1.369 . S
C704 C706 1.419 . S
C704 H708 0.930 . S
C705 C704 1.369 . S
C705 C714 1.429 . S
C706 C704 1.419 . S
C706 C707 1.363 . S
C706 H709 0.929 . S
C707 C706 1.363 . S
C707 C713 1.428 . S
H708 C704 0.930 . S
H709 C706 0.929 . S
S710 N711 1.613 . S
S710 N712 1.610 . S
N711 S710 1.613 . S
N711 C714 1.350 . S
N712 S710 1.610 . S
N712 C713 1.351 . S
C713 C707 1.428 . S
C713 N712 1.351 . S
C713 C714 1.434 . S
C714 C705 1.429 . S
C714 N711 1.350 . S
C714 C713 1.434 . S
C715 C716 1.369 . S
C715 C717 1.419 . S
C715 H719 0.930 . S
C716 C715 1.369 . S
C716 C725 1.429 . S
C717 C715 1.419 . S
C717 C718 1.363 . S
C717 H720 0.929 . S
C718 C717 1.363 . S
C718 C724 1.428 . S
H719 C715 0.930 . S
H720 C717 0.929 . S
S721 N722 1.613 . S
S721 N723 1.610 . S
N722 S721 1.613 . S
N722 C725 1.350 . S
N723 S721 1.610 . S
N723 C724 1.351 . S
C724 C718 1.428 . S
C724 N723 1.351 . S
C724 C725 1.434 . S
C725 C716 1.429 . S
C725 N722 1.350 . S
C725 C724 1.434 . S
C726 C727 1.369 . S
C726 C728 1.419 . S
C726 H730 0.930 . S
C727 C726 1.369 . S
C727 C736 1.429 . S
C728 C726 1.419 . S
C728 C729 1.363 . S
C728 H731 0.929 . S
C729 C728 1.363 . S
C729 C735 1.428 . S
H730 C726 0.930 . S
H731 C728 0.929 . S
S732 N733 1.613 . S
S732 N734 1.610 . S
N733 S732 1.613 . S
N733 C736 1.350 . S
N734 S732 1.610 . S
N734 C735 1.351 . S
C735 C729 1.428 . S
C735 N734 1.351 . S
C735 C736 1.434 . S
C736 C727 1.429 . S
C736 N733 1.350 . S
C736 C735 1.434 . S
C737 C738 1.369 . S
C737 C739 1.419 . S
C737 H741 0.930 . S
C738 C737 1.369 . S
C738 C747 1.429 . S
C739 C737 1.419 . S
C739 C740 1.363 . S
C739 H742 0.929 . S
C740 C739 1.363 . S
C740 C746 1.428 . S
H741 C737 0.930 . S
H742 C739 0.929 . S
S743 N744 1.613 . S
S743 N745 1.610 . S
N744 S743 1.613 . S
N744 C747 1.350 . S
N745 S743 1.610 . S
N745 C746 1.351 . S
C746 C740 1.428 . S
C746 N745 1.351 . S
C746 C747 1.434 . S
C747 C738 1.429 . S
C747 N744 1.350 . S
C747 C746 1.434 . S
C748 C749 1.369 . S
C748 C750 1.419 . S
C748 H752 0.930 . S
C749 C748 1.369 . S
C749 C758 1.429 . S
C750 C748 1.419 . S
C750 C751 1.363 . S
C750 H753 0.929 . S
C751 C750 1.363 . S
C751 C757 1.428 . S
H752 C748 0.930 . S
H753 C750 0.929 . S
S754 N755 1.613 . S
S754 N756 1.610 . S
N755 S754 1.613 . S
N755 C758 1.350 . S
N756 S754 1.610 . S
N756 C757 1.351 . S
C757 C751 1.428 . S
C757 N756 1.351 . S
C757 C758 1.434 . S
C758 C749 1.429 . S
C758 N755 1.350 . S
C758 C757 1.434 . S
C759 C760 1.369 . S
C759 C761 1.419 . S
C759 H763 0.930 . S
C760 C759 1.369 . S
C760 C769 1.429 . S
C761 C759 1.419 . S
C761 C762 1.363 . S
C761 H764 0.929 . S
C762 C761 1.363 . S
C762 C768 1.428 . S
H763 C759 0.930 . S
H764 C761 0.929 . S
S765 N766 1.613 . S
S765 N767 1.610 . S
N766 S765 1.613 . S
N766 C769 1.350 . S
N767 S765 1.610 . S
N767 C768 1.351 . S
C768 C762 1.428 . S
C768 N767 1.351 . S
C768 C769 1.434 . S
C769 C760 1.429 . S
C769 N766 1.350 . S
C769 C768 1.434 . S
C770 C771 1.369 . S
C770 C772 1.419 . S
C770 H774 0.930 . S
C771 C770 1.369 . S
C771 C780 1.429 . S
C772 C770 1.419 . S
C772 C773 1.363 . S
C772 H775 0.929 . S
C773 C772 1.363 . S
C773 C779 1.428 . S
H774 C770 0.930 . S
H775 C772 0.929 . S
S776 N777 1.613 . S
S776 N778 1.610 . S
N777 S776 1.613 . S
N777 C780 1.350 . S
N778 S776 1.610 . S
N778 C779 1.351 . S
C779 C773 1.428 . S
C779 N778 1.351 . S
C779 C780 1.434 . S
C780 C771 1.429 . S
C780 N777 1.350 . S
C780 C779 1.434 . S
C781 C782 1.369 . S
C781 C783 1.419 . S
C781 H785 0.930 . S
C782 C781 1.369 . S
C782 C791 1.429 . S
C783 C781 1.419 . S
C783 C784 1.363 . S
C783 H786 0.929 . S
C784 C783 1.363 . S
C784 C790 1.428 . S
H785 C781 0.930 . S
H786 C783 0.929 . S
S787 N788 1.613 . S
S787 N789 1.610 . S
N788 S787 1.613 . S
N788 C791 1.350 . S
N789 S787 1.610 . S
N789 C790 1.351 . S
C790 C784 1.428 . S
C790 N789 1.351 . S
C790 C791 1.434 . S
C791 C782 1.429 . S
C791 N788 1.350 . S
C791 C790 1.434 . S
C792 C793 1.369 . S
C792 C794 1.419 . S
C792 H796 0.930 . S
C793 C792 1.369 . S
C793 C802 1.429 . S
C794 C792 1.419 . S
C794 C795 1.363 . S
C794 H797 0.929 . S
C795 C794 1.363 . S
C795 C801 1.428 . S
H796 C792 0.930 . S
H797 C794 0.929 . S
S798 N799 1.613 . S
S798 N800 1.610 . S
N799 S798 1.613 . S
N799 C802 1.350 . S
N800 S798 1.610 . S
N800 C801 1.351 . S
C801 C795 1.428 . S
C801 N800 1.351 . S
C801 C802 1.434 . S
C802 C793 1.429 . S
C802 N799 1.350 . S
C802 C801 1.434 . S
C803 C804 1.369 . S
C803 C805 1.419 . S
C803 H807 0.930 . S
C804 C803 1.369 . S
C804 C813 1.429 . S
C805 C803 1.419 . S
C805 C806 1.363 . S
C805 H808 0.929 . S
C806 C805 1.363 . S
C806 C812 1.428 . S
H807 C803 0.930 . S
H808 C805 0.929 . S
S809 N810 1.613 . S
S809 N811 1.610 . S
N810 S809 1.613 . S
N810 C813 1.350 . S
N811 S809 1.610 . S
N811 C812 1.351 . S
C812 C806 1.428 . S
C812 N811 1.351 . S
C812 C813 1.434 . S
C813 C804 1.429 . S
C813 N810 1.350 . S
C813 C812 1.434 . S
C814 C815 1.369 . S
C814 C816 1.419 . S
C814 H818 0.930 . S
C815 C814 1.369 . S
C815 C824 1.429 . S
C816 C814 1.419 . S
C816 C817 1.363 . S
C816 H819 0.929 . S
C817 C816 1.363 . S
C817 C823 1.428 . S
H818 C814 0.930 . S
H819 C816 0.929 . S
S820 N821 1.613 . S
S820 N822 1.610 . S
N821 S820 1.613 . S
N821 C824 1.350 . S
N822 S820 1.610 . S
N822 C823 1.351 . S
C823 C817 1.428 . S
C823 N822 1.351 . S
C823 C824 1.434 . S
C824 C815 1.429 . S
C824 N821 1.350 . S
C824 C823 1.434 . S
C825 C826 1.369 . S
C825 C827 1.419 . S
C825 H829 0.930 . S
C826 C825 1.369 . S
C826 C835 1.429 . S
C827 C825 1.419 . S
C827 C828 1.363 . S
C827 H830 0.929 . S
C828 C827 1.363 . S
C828 C834 1.428 . S
H829 C825 0.930 . S
H830 C827 0.929 . S
S831 N832 1.613 . S
S831 N833 1.610 . S
N832 S831 1.613 . S
N832 C835 1.350 . S
N833 S831 1.610 . S
N833 C834 1.351 . S
C834 C828 1.428 . S
C834 N833 1.351 . S
C834 C835 1.434 . S
C835 C826 1.429 . S
C835 N832 1.350 . S
C835 C834 1.434 . S
C836 C837 1.369 . S
C836 C838 1.419 . S
C836 H840 0.930 . S
C837 C836 1.369 . S
C837 C846 1.429 . S
C838 C836 1.419 . S
C838 C839 1.363 . S
C838 H841 0.929 . S
C839 C838 1.363 . S
C839 C845 1.428 . S
H840 C836 0.930 . S
H841 C838 0.929 . S
S842 N843 1.613 . S
S842 N844 1.610 . S
N843 S842 1.613 . S
N843 C846 1.350 . S
N844 S842 1.610 . S
N844 C845 1.351 . S
C845 C839 1.428 . S
C845 N844 1.351 . S
C845 C846 1.434 . S
C846 C837 1.429 . S
C846 N843 1.350 . S
C846 C845 1.434 . S
C847 C848 1.369 . S
C847 C849 1.419 . S
C847 H851 0.930 . S
C848 C847 1.369 . S
C848 C857 1.429 . S
C849 C847 1.419 . S
C849 C850 1.363 . S
C849 H852 0.929 . S
C850 C849 1.363 . S
C850 C856 1.428 . S
H851 C847 0.930 . S
H852 C849 0.929 . S
S853 N854 1.613 . S
S853 N855 1.610 . S
N854 S853 1.613 . S
N854 C857 1.350 . S
N855 S853 1.610 . S
N855 C856 1.351 . S
C856 C850 1.428 . S
C856 N855 1.351 . S
C856 C857 1.434 . S
C857 C848 1.429 . S
C857 N854 1.350 . S
C857 C856 1.434 . S
C858 C859 1.369 . S
C858 C860 1.419 . S
C858 H862 0.930 . S
C859 C858 1.369 . S
C859 C868 1.429 . S
C860 C858 1.419 . S
C860 C861 1.363 . S
C860 H863 0.929 . S
C861 C860 1.363 . S
C861 C867 1.428 . S
H862 C858 0.930 . S
H863 C860 0.929 . S
S864 N865 1.613 . S
S864 N866 1.610 . S
N865 S864 1.613 . S
N865 C868 1.350 . S
N866 S864 1.610 . S
N866 C867 1.351 . S
C867 C861 1.428 . S
C867 N866 1.351 . S
C867 C868 1.434 . S
C868 C859 1.429 . S
C868 N865 1.350 . S
C868 C867 1.434 . S
C869 C870 1.369 . S
C869 C871 1.419 . S
C869 H873 0.930 . S
C870 C869 1.369 . S
C870 C879 1.429 . S
C871 C869 1.419 . S
C871 C872 1.363 . S
C871 H874 0.929 . S
C872 C871 1.363 . S
C872 C878 1.428 . S
H873 C869 0.930 . S
H874 C871 0.929 . S
S875 N876 1.613 . S
S875 N877 1.610 . S
N876 S875 1.613 . S
N876 C879 1.350 . S
N877 S875 1.610 . S
N877 C878 1.351 . S
C878 C872 1.428 . S
C878 N877 1.351 . S
C878 C879 1.434 . S
C879 C870 1.429 . S
C879 N876 1.350 . S
C879 C878 1.434 . S
C880 C881 1.369 . S
C880 C882 1.419 . S
C880 H884 0.930 . S
C881 C880 1.369 . S
C881 C890 1.429 . S
C882 C880 1.419 . S
C882 C883 1.363 . S
C882 H885 0.929 . S
C883 C882 1.363 . S
C883 C889 1.428 . S
H884 C880 0.930 . S
H885 C882 0.929 . S
S886 N887 1.613 . S
S886 N888 1.610 . S
N887 S886 1.613 . S
N887 C890 1.350 . S
N888 S886 1.610 . S
N888 C889 1.351 . S
C889 C883 1.428 . S
C889 N888 1.351 . S
C889 C890 1.434 . S
C890 C881 1.429 . S
C890 N887 1.350 . S
C890 C889 1.434 . S
C891 C892 1.369 . S
C891 C893 1.419 . S
C891 H895 0.930 . S
C892 C891 1.369 . S
C892 C901 1.429 . S
C893 C891 1.419 . S
C893 C894 1.363 . S
C893 H896 0.929 . S
C894 C893 1.363 . S
C894 C900 1.428 . S
H895 C891 0.930 . S
H896 C893 0.929 . S
S897 N898 1.613 . S
S897 N899 1.610 . S
N898 S897 1.613 . S
N898 C901 1.350 . S
N899 S897 1.610 . S
N899 C900 1.351 . S
C900 C894 1.428 . S
C900 N899 1.351 . S
C900 C901 1.434 . S
C901 C892 1.429 . S
C901 N898 1.350 . S
C901 C900 1.434 . S
C902 C903 1.369 . S
C902 C904 1.419 . S
C902 H906 0.930 . S
C903 C902 1.369 . S
C903 C912 1.429 . S
C904 C902 1.419 . S
C904 C905 1.363 . S
C904 H907 0.929 . S
C905 C904 1.363 . S
C905 C911 1.428 . S
H906 C902 0.930 . S
H907 C904 0.929 . S
S908 N909 1.613 . S
S908 N910 1.610 . S
N909 S908 1.613 . S
N909 C912 1.350 . S
N910 S908 1.610 . S
N910 C911 1.351 . S
C911 C905 1.428 . S
C911 N910 1.351 . S
C911 C912 1.434 . S
C912 C903 1.429 . S
C912 N909 1.350 . S
C912 C911 1.434 . S
C913 C914 1.369 . S
C913 C915 1.419 . S
C913 H917 0.930 . S
C914 C913 1.369 . S
C914 C923 1.429 . S
C915 C913 1.419 . S
C915 C916 1.363 . S
C915 H918 0.929 . S
C916 C915 1.363 . S
C916 C922 1.428 . S
H917 C913 0.930 . S
H918 C915 0.929 . S
S919 N920 1.613 . S
S919 N921 1.610 . S
N920 S919 1.613 . S
N920 C923 1.350 . S
N921 S919 1.610 . S
N921 C922 1.351 . S
C922 C916 1.428 . S
C922 N921 1.351 . S
C922 C923 1.434 . S
C923 C914 1.429 . S
C923 N920 1.350 . S
C923 C922 1.434 . S
C924 C925 1.369 . S
C924 C926 1.419 . S
C924 H928 0.930 . S
C925 C924 1.369 . S
C925 C934 1.429 . S
C926 C924 1.419 . S
C926 C927 1.363 . S
C926 H929 0.929 . S
C927 C926 1.363 . S
C927 C933 1.428 . S
H928 C924 0.930 . S
H929 C926 0.929 . S
S930 N931 1.613 . S
S930 N932 1.610 . S
N931 S930 1.613 . S
N931 C934 1.350 . S
N932 S930 1.610 . S
N932 C933 1.351 . S
C933 C927 1.428 . S
C933 N932 1.351 . S
C933 C934 1.434 . S
C934 C925 1.429 . S
C934 N931 1.350 . S
C934 C933 1.434 . S
C935 C936 1.369 . S
C935 C937 1.419 . S
C935 H939 0.930 . S
C936 C935 1.369 . S
C936 C945 1.429 . S
C937 C935 1.419 . S
C937 C938 1.363 . S
C937 H940 0.929 . S
C938 C937 1.363 . S
C938 C944 1.428 . S
H939 C935 0.930 . S
H940 C937 0.929 . S
S941 N942 1.613 1_565 S
S941 N943 1.610 1_565 S
N942 S941 1.613 1_545 S
N942 C945 1.350 . S
N943 S941 1.610 1_545 S
N943 C944 1.351 . S
C944 C938 1.428 . S
C944 N943 1.351 . S
C944 C945 1.434 . S
C945 C936 1.429 . S
C945 N942 1.350 . S
C945 C944 1.434 . S
C946 C947 1.369 . S
C946 C948 1.419 . S
C946 H950 0.930 . S
C947 C946 1.369 . S
C947 C956 1.429 . S
C948 C946 1.419 . S
C948 C949 1.363 . S
C948 H951 0.929 . S
C949 C948 1.363 . S
C949 C955 1.428 . S
H950 C946 0.930 . S
H951 C948 0.929 . S
S952 N953 1.613 . S
S952 N954 1.610 . S
N953 S952 1.613 . S
N953 C956 1.350 . S
N954 S952 1.610 . S
N954 C955 1.351 . S
C955 C949 1.428 . S
C955 N954 1.351 . S
C955 C956 1.434 . S
C956 C947 1.429 . S
C956 N953 1.350 . S
C956 C955 1.434 . S
C957 C958 1.369 . S
C957 C959 1.419 . S
C957 H961 0.930 . S
C958 C957 1.369 . S
C958 C967 1.429 . S
C959 C957 1.419 . S
C959 C960 1.363 . S
C959 H962 0.929 . S
C960 C959 1.363 . S
C960 C966 1.428 . S
H961 C957 0.930 . S
H962 C959 0.929 . S
S963 N964 1.613 . S
S963 N965 1.610 . S
N964 S963 1.613 . S
N964 C967 1.350 . S
N965 S963 1.610 . S
N965 C966 1.351 . S
C966 C960 1.428 . S
C966 N965 1.351 . S
C966 C967 1.434 . S
C967 C958 1.429 . S
C967 N964 1.350 . S
C967 C966 1.434 . S
C968 C969 1.369 . S
C968 C970 1.419 . S
C968 H972 0.930 . S
C969 C968 1.369 . S
C969 C978 1.429 . S
C970 C968 1.419 . S
C970 C971 1.363 . S
C970 H973 0.929 . S
C971 C970 1.363 . S
C971 C977 1.428 . S
H972 C968 0.930 . S
H973 C970 0.929 . S
S974 N975 1.613 . S
S974 N976 1.610 . S
N975 S974 1.613 . S
N975 C978 1.350 . S
N976 S974 1.610 . S
N976 C977 1.351 . S
C977 C971 1.428 . S
C977 N976 1.351 . S
C977 C978 1.434 . S
C978 C969 1.429 . S
C978 N975 1.350 . S
C978 C977 1.434 . S
C979 C980 1.369 . S
C979 C981 1.419 . S
C979 H983 0.930 . S
C980 C979 1.369 . S
C980 C989 1.429 . S
C981 C979 1.419 . S
C981 C982 1.363 . S
C981 H984 0.929 . S
C982 C981 1.363 . S
C982 C988 1.428 . S
H983 C979 0.930 . S
H984 C981 0.929 . S
S985 N986 1.613 . S
S985 N987 1.610 . S
N986 S985 1.613 . S
N986 C989 1.350 . S
N987 S985 1.610 . S
N987 C988 1.351 . S
C988 C982 1.428 . S
C988 N987 1.351 . S
C988 C989 1.434 . S
C989 C980 1.429 . S
C989 N986 1.350 . S
C989 C988 1.434 . S
C990 C991 1.369 . S
C990 C992 1.419 . S
C990 H994 0.930 . S
C991 C990 1.369 . S
C991 C1000 1.429 . S
C992 C990 1.419 . S
C992 C993 1.363 . S
C992 H995 0.929 . S
C993 C992 1.363 . S
C993 C999 1.428 . S
H994 C990 0.930 . S
H995 C992 0.929 . S
S996 N997 1.613 . S
S996 N998 1.610 . S
N997 S996 1.613 . S
N997 C1000 1.350 . S
N998 S996 1.610 . S
N998 C999 1.351 . S
C999 C993 1.428 . S
C999 N998 1.351 . S
C999 C1000 1.434 . S
C1000 C991 1.429 . S
C1000 N997 1.350 . S
C1000 C999 1.434 . S
C1001 C1002 1.369 . S
C1001 C1003 1.419 . S
C1001 H1005 0.930 . S
C1002 C1001 1.369 . S
C1002 C1011 1.429 . S
C1003 C1001 1.419 . S
C1003 C1004 1.363 . S
C1003 H1006 0.929 . S
C1004 C1003 1.363 . S
C1004 C1010 1.428 . S
H1005 C1001 0.930 . S
H1006 C1003 0.929 . S
S1007 N1008 1.613 . S
S1007 N1009 1.610 . S
N1008 S1007 1.613 . S
N1008 C1011 1.350 . S
N1009 S1007 1.610 . S
N1009 C1010 1.351 . S
C1010 C1004 1.428 . S
C1010 N1009 1.351 . S
C1010 C1011 1.434 . S
C1011 C1002 1.429 . S
C1011 N1008 1.350 . S
C1011 C1010 1.434 . S
C1012 C1013 1.369 . S
C1012 C1014 1.419 . S
C1012 H1016 0.930 . S
C1013 C1012 1.369 . S
C1013 C1022 1.429 . S
C1014 C1012 1.419 . S
C1014 C1015 1.363 . S
C1014 H1017 0.929 . S
C1015 C1014 1.363 . S
C1015 C1021 1.428 . S
H1016 C1012 0.930 . S
H1017 C1014 0.929 . S
S1018 N1019 1.613 . S
S1018 N1020 1.610 . S
N1019 S1018 1.613 . S
N1019 C1022 1.350 . S
N1020 S1018 1.610 . S
N1020 C1021 1.351 . S
C1021 C1015 1.428 . S
C1021 N1020 1.351 . S
C1021 C1022 1.434 . S
C1022 C1013 1.429 . S
C1022 N1019 1.350 . S
C1022 C1021 1.434 . S
C1023 C1024 1.369 . S
C1023 C1025 1.419 . S
C1023 H1027 0.930 . S
C1024 C1023 1.369 . S
C1024 C1033 1.429 . S
C1025 C1023 1.419 . S
C1025 C1026 1.363 . S
C1025 H1028 0.929 . S
C1026 C1025 1.363 . S
C1026 C1032 1.428 . S
H1027 C1023 0.930 . S
H1028 C1025 0.929 . S
S1029 N1030 1.613 . S
S1029 N1031 1.610 . S
N1030 S1029 1.613 . S
N1030 C1033 1.350 . S
N1031 S1029 1.610 . S
N1031 C1032 1.351 . S
C1032 C1026 1.428 . S
C1032 N1031 1.351 . S
C1032 C1033 1.434 . S
C1033 C1024 1.429 . S
C1033 N1030 1.350 . S
C1033 C1032 1.434 . S
C1034 C1035 1.369 . S
C1034 C1036 1.419 . S
C1034 H1038 0.930 . S
C1035 C1034 1.369 . S
C1035 C1044 1.429 . S
C1036 C1034 1.419 . S
C1036 C1037 1.363 . S
C1036 H1039 0.929 . S
C1037 C1036 1.363 . S
C1037 C1043 1.428 . S
H1038 C1034 0.930 . S
H1039 C1036 0.929 . S
S1040 N1041 1.613 . S
S1040 N1042 1.610 . S
N1041 S1040 1.613 . S
N1041 C1044 1.350 . S
N1042 S1040 1.610 . S
N1042 C1043 1.351 . S
C1043 C1037 1.428 . S
C1043 N1042 1.351 . S
C1043 C1044 1.434 . S
C1044 C1035 1.429 . S
C1044 N1041 1.350 . S
C1044 C1043 1.434 . S
C1045 C1046 1.369 . S
C1045 C1047 1.419 . S
C1045 H1049 0.930 . S
C1046 C1045 1.369 . S
C1046 C1055 1.429 . S
C1047 C1045 1.419 . S
C1047 C1048 1.363 . S
C1047 H1050 0.929 . S
C1048 C1047 1.363 . S
C1048 C1054 1.428 . S
H1049 C1045 0.930 . S
H1050 C1047 0.929 . S
S1051 N1052 1.613 . S
S1051 N1053 1.610 . S
N1052 S1051 1.613 . S
N1052 C1055 1.350 . S
N1053 S1051 1.610 . S
N1053 C1054 1.351 . S
C1054 C1048 1.428 . S
C1054 N1053 1.351 . S
C1054 C1055 1.434 . S
C1055 C1046 1.429 . S
C1055 N1052 1.350 . S
C1055 C1054 1.434 . S
C1056 C1057 1.369 . S
C1056 C1058 1.419 . S
C1056 H1060 0.930 . S
C1057 C1056 1.369 . S
C1057 C1066 1.429 . S
C1058 C1056 1.419 . S
C1058 C1059 1.363 . S
C1058 H1061 0.929 . S
C1059 C1058 1.363 . S
C1059 C1065 1.428 . S
H1060 C1056 0.930 . S
H1061 C1058 0.929 . S
S1062 N1063 1.613 . S
S1062 N1064 1.610 . S
N1063 S1062 1.613 . S
N1063 C1066 1.350 . S
N1064 S1062 1.610 . S
N1064 C1065 1.351 . S
C1065 C1059 1.428 . S
C1065 N1064 1.351 . S
C1065 C1066 1.434 . S
C1066 C1057 1.429 . S
C1066 N1063 1.350 . S
C1066 C1065 1.434 . S
C1067 C1068 1.369 . S
C1067 C1069 1.419 . S
C1067 H1071 0.930 . S
C1068 C1067 1.369 . S
C1068 C1077 1.429 . S
C1069 C1067 1.419 . S
C1069 C1070 1.363 . S
C1069 H1072 0.929 . S
C1070 C1069 1.363 . S
C1070 C1076 1.428 . S
H1071 C1067 0.930 . S
H1072 C1069 0.929 . S
S1073 N1074 1.613 . S
S1073 N1075 1.610 . S
N1074 S1073 1.613 . S
N1074 C1077 1.350 . S
N1075 S1073 1.610 . S
N1075 C1076 1.351 . S
C1076 C1070 1.428 . S
C1076 N1075 1.351 . S
C1076 C1077 1.434 . S
C1077 C1068 1.429 . S
C1077 N1074 1.350 . S
C1077 C1076 1.434 . S
C1078 C1079 1.369 . S
C1078 C1080 1.419 . S
C1078 H1082 0.930 . S
C1079 C1078 1.369 . S
C1079 C1088 1.429 . S
C1080 C1078 1.419 . S
C1080 C1081 1.363 . S
C1080 H1083 0.929 . S
C1081 C1080 1.363 . S
C1081 C1087 1.428 . S
H1082 C1078 0.930 . S
H1083 C1080 0.929 . S
S1084 N1085 1.613 . S
S1084 N1086 1.610 . S
N1085 S1084 1.613 . S
N1085 C1088 1.350 . S
N1086 S1084 1.610 . S
N1086 C1087 1.351 . S
C1087 C1081 1.428 . S
C1087 N1086 1.351 . S
C1087 C1088 1.434 . S
C1088 C1079 1.429 . S
C1088 N1085 1.350 . S
C1088 C1087 1.434 . S
C1089 C1090 1.369 . S
C1089 C1091 1.419 . S
C1089 H1093 0.930 . S
C1090 C1089 1.369 . S
C1090 C1099 1.429 . S
C1091 C1089 1.419 . S
C1091 C1092 1.363 . S
C1091 H1094 0.929 . S
C1092 C1091 1.363 . S
C1092 C1098 1.428 . S
H1093 C1089 0.930 . S
H1094 C1091 0.929 . S
S1095 N1096 1.613 . S
S1095 N1097 1.610 . S
N1096 S1095 1.613 . S
N1096 C1099 1.350 1_565 S
N1097 S1095 1.610 . S
N1097 C1098 1.351 1_565 S
C1098 C1092 1.428 . S
C1098 N1097 1.351 1_545 S
C1098 C1099 1.434 . S
C1099 C1090 1.429 . S
C1099 N1096 1.350 1_545 S
C1099 C1098 1.434 . S
C1100 C1101 1.369 . S
C1100 C1102 1.419 . S
C1100 H1104 0.930 . S
C1101 C1100 1.369 . S
C1101 C1110 1.429 . S
C1102 C1100 1.419 . S
C1102 C1103 1.363 . S
C1102 H1105 0.929 . S
C1103 C1102 1.363 . S
C1103 C1109 1.428 . S
H1104 C1100 0.930 . S
H1105 C1102 0.929 . S
S1106 N1107 1.613 . S
S1106 N1108 1.610 . S
N1107 S1106 1.613 . S
N1107 C1110 1.350 . S
N1108 S1106 1.610 . S
N1108 C1109 1.351 . S
C1109 C1103 1.428 . S
C1109 N1108 1.351 . S
C1109 C1110 1.434 . S
C1110 C1101 1.429 . S
C1110 N1107 1.350 . S
C1110 C1109 1.434 . S
C1111 C1112 1.369 . S
C1111 C1113 1.419 . S
C1111 H1115 0.930 . S
C1112 C1111 1.369 . S
C1112 C1121 1.429 . S
C1113 C1111 1.419 . S
C1113 C1114 1.363 . S
C1113 H1116 0.929 . S
C1114 C1113 1.363 . S
C1114 C1120 1.428 . S
H1115 C1111 0.930 . S
H1116 C1113 0.929 . S
S1117 N1118 1.613 . S
S1117 N1119 1.610 . S
N1118 S1117 1.613 . S
N1118 C1121 1.350 . S
N1119 S1117 1.610 . S
N1119 C1120 1.351 . S
C1120 C1114 1.428 . S
C1120 N1119 1.351 . S
C1120 C1121 1.434 . S
C1121 C1112 1.429 . S
C1121 N1118 1.350 . S
C1121 C1120 1.434 . S
C1122 C1123 1.369 . S
C1122 C1124 1.419 . S
C1122 H1126 0.930 . S
C1123 C1122 1.369 . S
C1123 C1132 1.429 . S
C1124 C1122 1.419 . S
C1124 C1125 1.363 . S
C1124 H1127 0.929 . S
C1125 C1124 1.363 . S
C1125 C1131 1.428 . S
H1126 C1122 0.930 . S
H1127 C1124 0.929 . S
S1128 N1129 1.613 . S
S1128 N1130 1.610 . S
N1129 S1128 1.613 . S
N1129 C1132 1.350 . S
N1130 S1128 1.610 . S
N1130 C1131 1.351 . S
C1131 C1125 1.428 . S
C1131 N1130 1.351 . S
C1131 C1132 1.434 . S
C1132 C1123 1.429 . S
C1132 N1129 1.350 . S
C1132 C1131 1.434 . S
C1133 C1134 1.369 . S
C1133 C1135 1.419 . S
C1133 H1137 0.930 . S
C1134 C1133 1.369 . S
C1134 C1143 1.429 . S
C1135 C1133 1.419 . S
C1135 C1136 1.363 . S
C1135 H1138 0.929 . S
C1136 C1135 1.363 . S
C1136 C1142 1.428 . S
H1137 C1133 0.930 . S
H1138 C1135 0.929 . S
S1139 N1140 1.613 . S
S1139 N1141 1.610 . S
N1140 S1139 1.613 . S
N1140 C1143 1.350 . S
N1141 S1139 1.610 . S
N1141 C1142 1.351 . S
C1142 C1136 1.428 . S
C1142 N1141 1.351 . S
C1142 C1143 1.434 . S
C1143 C1134 1.429 . S
C1143 N1140 1.350 . S
C1143 C1142 1.434 . S
C1144 C1145 1.369 . S
C1144 C1146 1.419 . S
C1144 H1148 0.930 . S
C1145 C1144 1.369 . S
C1145 C1154 1.429 . S
C1146 C1144 1.419 . S
C1146 C1147 1.363 . S
C1146 H1149 0.929 . S
C1147 C1146 1.363 . S
C1147 C1153 1.428 . S
H1148 C1144 0.930 . S
H1149 C1146 0.929 . S
S1150 N1151 1.613 . S
S1150 N1152 1.610 . S
N1151 S1150 1.613 . S
N1151 C1154 1.350 . S
N1152 S1150 1.610 . S
N1152 C1153 1.351 . S
C1153 C1147 1.428 . S
C1153 N1152 1.351 . S
C1153 C1154 1.434 . S
C1154 C1145 1.429 . S
C1154 N1151 1.350 . S
C1154 C1153 1.434 . S
C1155 C1156 1.369 . S
C1155 C1157 1.419 . S
C1155 H1159 0.930 . S
C1156 C1155 1.369 . S
C1156 C1165 1.429 . S
C1157 C1155 1.419 . S
C1157 C1158 1.363 . S
C1157 H1160 0.929 . S
C1158 C1157 1.363 . S
C1158 C1164 1.428 . S
H1159 C1155 0.930 . S
H1160 C1157 0.929 . S
S1161 N1162 1.613 . S
S1161 N1163 1.610 . S
N1162 S1161 1.613 . S
N1162 C1165 1.350 . S
N1163 S1161 1.610 . S
N1163 C1164 1.351 . S
C1164 C1158 1.428 . S
C1164 N1163 1.351 . S
C1164 C1165 1.434 . S
C1165 C1156 1.429 . S
C1165 N1162 1.350 . S
C1165 C1164 1.434 . S
C1166 C1167 1.369 . S
C1166 C1168 1.419 . S
C1166 H1170 0.930 . S
C1167 C1166 1.369 . S
C1167 C1176 1.429 . S
C1168 C1166 1.419 . S
C1168 C1169 1.363 . S
C1168 H1171 0.929 . S
C1169 C1168 1.363 . S
C1169 C1175 1.428 . S
H1170 C1166 0.930 . S
H1171 C1168 0.929 . S
S1172 N1173 1.613 . S
S1172 N1174 1.610 . S
N1173 S1172 1.613 . S
N1173 C1176 1.350 . S
N1174 S1172 1.610 . S
N1174 C1175 1.351 . S
C1175 C1169 1.428 . S
C1175 N1174 1.351 . S
C1175 C1176 1.434 . S
C1176 C1167 1.429 . S
C1176 N1173 1.350 . S
C1176 C1175 1.434 . S
C1177 C1178 1.369 . S
C1177 C1179 1.419 . S
C1177 H1181 0.930 . S
C1178 C1177 1.369 . S
C1178 C1187 1.429 . S
C1179 C1177 1.419 . S
C1179 C1180 1.363 . S
C1179 H1182 0.929 . S
C1180 C1179 1.363 . S
C1180 C1186 1.428 . S
H1181 C1177 0.930 . S
H1182 C1179 0.929 . S
S1183 N1184 1.613 1_565 S
S1183 N1185 1.610 1_565 S
N1184 S1183 1.613 1_545 S
N1184 C1187 1.350 . S
N1185 S1183 1.610 1_545 S
N1185 C1186 1.351 . S
C1186 C1180 1.428 . S
C1186 N1185 1.351 . S
C1186 C1187 1.434 . S
C1187 C1178 1.429 . S
C1187 N1184 1.350 . S
C1187 C1186 1.434 . S
C1188 C1189 1.369 . S
C1188 C1190 1.419 . S
C1188 H1192 0.930 . S
C1189 C1188 1.369 . S
C1189 C1198 1.429 . S
C1190 C1188 1.419 . S
C1190 C1191 1.363 . S
C1190 H1193 0.929 . S
C1191 C1190 1.363 . S
C1191 C1197 1.428 . S
H1192 C1188 0.930 . S
H1193 C1190 0.929 . S
S1194 N1195 1.613 . S
S1194 N1196 1.610 . S
N1195 S1194 1.613 . S
N1195 C1198 1.350 . S
N1196 S1194 1.610 . S
N1196 C1197 1.351 . S
C1197 C1191 1.428 . S
C1197 N1196 1.351 . S
C1197 C1198 1.434 . S
C1198 C1189 1.429 . S
C1198 N1195 1.350 . S
C1198 C1197 1.434 . S
C1199 C1200 1.369 . S
C1199 C1201 1.419 . S
C1199 H1203 0.930 . S
C1200 C1199 1.369 . S
C1200 C1209 1.429 . S
C1201 C1199 1.419 . S
C1201 C1202 1.363 . S
C1201 H1204 0.929 . S
C1202 C1201 1.363 . S
C1202 C1208 1.428 . S
H1203 C1199 0.930 . S
H1204 C1201 0.929 . S
S1205 N1206 1.613 . S
S1205 N1207 1.610 . S
N1206 S1205 1.613 . S
N1206 C1209 1.350 . S
N1207 S1205 1.610 . S
N1207 C1208 1.351 . S
C1208 C1202 1.428 . S
C1208 N1207 1.351 . S
C1208 C1209 1.434 . S
C1209 C1200 1.429 . S
C1209 N1206 1.350 . S
C1209 C1208 1.434 . S
C1210 C1211 1.369 . S
C1210 C1212 1.419 . S
C1210 H1214 0.930 . S
C1211 C1210 1.369 . S
C1211 C1220 1.429 . S
C1212 C1210 1.419 . S
C1212 C1213 1.363 . S
C1212 H1215 0.929 . S
C1213 C1212 1.363 . S
C1213 C1219 1.428 . S
H1214 C1210 0.930 . S
H1215 C1212 0.929 . S
S1216 N1217 1.613 . S
S1216 N1218 1.610 . S
N1217 S1216 1.613 . S
N1217 C1220 1.350 . S
N1218 S1216 1.610 . S
N1218 C1219 1.351 . S
C1219 C1213 1.428 . S
C1219 N1218 1.351 . S
C1219 C1220 1.434 . S
C1220 C1211 1.429 . S
C1220 N1217 1.350 . S
C1220 C1219 1.434 . S
C1221 C1222 1.369 . S
C1221 C1223 1.419 . S
C1221 H1225 0.930 . S
C1222 C1221 1.369 . S
C1222 C1231 1.429 . S
C1223 C1221 1.419 . S
C1223 C1224 1.363 . S
C1223 H1226 0.929 . S
C1224 C1223 1.363 . S
C1224 C1230 1.428 . S
H1225 C1221 0.930 . S
H1226 C1223 0.929 . S
S1227 N1228 1.613 . S
S1227 N1229 1.610 . S
N1228 S1227 1.613 . S
N1228 C1231 1.350 . S
N1229 S1227 1.610 . S
N1229 C1230 1.351 . S
C1230 C1224 1.428 . S
C1230 N1229 1.351 . S
C1230 C1231 1.434 . S
C1231 C1222 1.429 . S
C1231 N1228 1.350 . S
C1231 C1230 1.434 . S
C1232 C1233 1.369 1_556 S
C1232 C1234 1.419 . S
C1232 H1236 0.930 . S
C1233 C1232 1.369 1_554 S
C1233 C1242 1.429 1_455 S
C1234 C1232 1.419 . S
C1234 C1235 1.363 1_455 S
C1234 H1237 0.929 . S
C1235 C1234 1.363 1_655 S
C1235 C1241 1.428 1_556 S
H1236 C1232 0.930 . S
H1237 C1234 0.929 . S
S1238 N1239 1.613 . S
S1238 N1240 1.610 . S
N1239 S1238 1.613 . S
N1239 C1242 1.350 . S
N1240 S1238 1.610 . S
N1240 C1241 1.351 . S
C1241 C1235 1.428 1_554 S
C1241 N1240 1.351 . S
C1241 C1242 1.434 . S
C1242 C1233 1.429 1_655 S
C1242 N1239 1.350 . S
C1242 C1241 1.434 . S
C1243 C1244 1.369 1_554 S
C1243 C1245 1.419 . S
C1243 H1247 0.930 . S
C1244 C1243 1.369 1_556 S
C1244 C1253 1.429 . S
C1245 C1243 1.419 . S
C1245 C1246 1.363 . S
C1245 H1248 0.929 . S
C1246 C1245 1.363 . S
C1246 C1252 1.428 1_554 S
H1247 C1243 0.930 . S
H1248 C1245 0.929 . S
S1249 N1250 1.613 . S
S1249 N1251 1.610 . S
N1250 S1249 1.613 . S
N1250 C1253 1.350 . S
N1251 S1249 1.610 . S
N1251 C1252 1.351 . S
C1252 C1246 1.428 1_556 S
C1252 N1251 1.351 . S
C1252 C1253 1.434 . S
C1253 C1244 1.429 . S
C1253 N1250 1.350 . S
C1253 C1252 1.434 . S
C1254 C1255 1.369 1_655 S
C1254 C1256 1.419 . S
C1254 H1258 0.930 . S
C1255 C1254 1.369 1_455 S
C1255 C1264 1.429 . S
C1256 C1254 1.419 . S
C1256 C1257 1.363 . S
C1256 H1259 0.929 . S
C1257 C1256 1.363 . S
C1257 C1263 1.428 1_655 S
H1258 C1254 0.930 . S
H1259 C1256 0.929 . S
S1260 N1261 1.613 . S
S1260 N1262 1.610 . S
N1261 S1260 1.613 . S
N1261 C1264 1.350 . S
N1262 S1260 1.610 . S
N1262 C1263 1.351 . S
C1263 C1257 1.428 1_455 S
C1263 N1262 1.351 . S
C1263 C1264 1.434 . S
C1264 C1255 1.429 . S
C1264 N1261 1.350 . S
C1264 C1263 1.434 . S
C1265 C1266 1.369 . S
C1265 C1267 1.419 . S
C1265 H1269 0.930 . S
C1266 C1265 1.369 . S
C1266 C1275 1.429 . S
C1267 C1265 1.419 . S
C1267 C1268 1.363 . S
C1267 H1270 0.929 . S
C1268 C1267 1.363 . S
C1268 C1274 1.428 . S
H1269 C1265 0.930 . S
H1270 C1267 0.929 . S
S1271 N1272 1.613 . S
S1271 N1273 1.610 . S
N1272 S1271 1.613 . S
N1272 C1275 1.350 . S
N1273 S1271 1.610 . S
N1273 C1274 1.351 . S
C1274 C1268 1.428 . S
C1274 N1273 1.351 . S
C1274 C1275 1.434 . S
C1275 C1266 1.429 . S
C1275 N1272 1.350 . S
C1275 C1274 1.434 . S
C1276 C1277 1.369 . S
C1276 C1278 1.419 . S
C1276 H1280 0.930 . S
C1277 C1276 1.369 . S
C1277 C1286 1.429 1_554 S
C1278 C1276 1.419 . S
C1278 C1279 1.363 1_554 S
C1278 H1281 0.929 . S
C1279 C1278 1.363 1_556 S
C1279 C1285 1.428 . S
H1280 C1276 0.930 . S
H1281 C1278 0.929 . S
S1282 N1283 1.613 . S
S1282 N1284 1.610 . S
N1283 S1282 1.613 . S
N1283 C1286 1.350 . S
N1284 S1282 1.610 . S
N1284 C1285 1.351 . S
C1285 C1279 1.428 . S
C1285 N1284 1.351 . S
C1285 C1286 1.434 . S
C1286 C1277 1.429 1_556 S
C1286 N1283 1.350 . S
C1286 C1285 1.434 . S
C1287 C1288 1.369 1_455 S
C1287 C1289 1.419 . S
C1287 H1291 0.930 . S
C1288 C1287 1.369 1_655 S
C1288 C1297 1.429 . S
C1289 C1287 1.419 . S
C1289 C1290 1.363 . S
C1289 H1292 0.929 . S
C1290 C1289 1.363 . S
C1290 C1296 1.428 1_455 S
H1291 C1287 0.930 . S
H1292 C1289 0.929 . S
S1293 N1294 1.613 . S
S1293 N1295 1.610 . S
N1294 S1293 1.613 . S
N1294 C1297 1.350 . S
N1295 S1293 1.610 . S
N1295 C1296 1.351 . S
C1296 C1290 1.428 1_655 S
C1296 N1295 1.351 . S
C1296 C1297 1.434 . S
C1297 C1288 1.429 . S
C1297 N1294 1.350 . S
C1297 C1296 1.434 . S
C1298 C1299 1.369 . S
C1298 C1300 1.419 . S
C1298 H1302 0.930 . S
C1299 C1298 1.369 . S
C1299 C1308 1.429 . S
C1300 C1298 1.419 . S
C1300 C1301 1.363 . S
C1300 H1303 0.929 . S
C1301 C1300 1.363 . S
C1301 C1307 1.428 . S
H1302 C1298 0.930 . S
H1303 C1300 0.929 . S
S1304 N1305 1.613 . S
S1304 N1306 1.610 . S
N1305 S1304 1.613 . S
N1305 C1308 1.350 . S
N1306 S1304 1.610 . S
N1306 C1307 1.351 . S
C1307 C1301 1.428 . S
C1307 N1306 1.351 . S
C1307 C1308 1.434 . S
C1308 C1299 1.429 . S
C1308 N1305 1.350 . S
C1308 C1307 1.434 . S
C1309 C1310 1.369 1_655 S
C1309 C1311 1.419 1_565 S
C1309 H1313 0.930 . S
C1310 C1309 1.369 1_455 S
C1310 C1319 1.429 . S
C1311 C1309 1.419 1_545 S
C1311 C1312 1.363 . S
C1311 H1314 0.929 . S
C1312 C1311 1.363 . S
C1312 C1318 1.428 1_655 S
H1313 C1309 0.930 . S
H1314 C1311 0.929 . S
S1315 N1316 1.613 1_545 S
S1315 N1317 1.610 . S
N1316 S1315 1.613 1_565 S
N1316 C1319 1.350 . S
N1317 S1315 1.610 . S
N1317 C1318 1.351 . S
C1318 C1312 1.428 1_455 S
C1318 N1317 1.351 . S
C1318 C1319 1.434 1_545 S
C1319 C1310 1.429 . S
C1319 N1316 1.350 . S
C1319 C1318 1.434 1_565 S
C1320 C1321 1.369 . S
C1320 C1322 1.419 . S
C1320 H1324 0.930 . S
C1321 C1320 1.369 . S
C1321 C1330 1.429 . S
C1322 C1320 1.419 . S
C1322 C1323 1.363 . S
C1322 H1325 0.929 . S
C1323 C1322 1.363 . S
C1323 C1329 1.428 . S
H1324 C1320 0.930 . S
H1325 C1322 0.929 . S
S1326 N1327 1.613 . S
S1326 N1328 1.610 . S
N1327 S1326 1.613 . S
N1327 C1330 1.350 . S
N1328 S1326 1.610 . S
N1328 C1329 1.351 . S
C1329 C1323 1.428 . S
C1329 N1328 1.351 . S
C1329 C1330 1.434 . S
C1330 C1321 1.429 . S
C1330 N1327 1.350 . S
C1330 C1329 1.434 . S
C1331 C1332 1.369 . S
C1331 C1333 1.419 1_545 S
C1331 H1335 0.930 . S
C1332 C1331 1.369 . S
C1332 C1341 1.429 . S
C1333 C1331 1.419 1_565 S
C1333 C1334 1.363 . S
C1333 H1336 0.929 . S
C1334 C1333 1.363 . S
C1334 C1340 1.428 . S
H1335 C1331 0.930 . S
H1336 C1333 0.929 . S
S1337 N1338 1.613 . S
S1337 N1339 1.610 1_545 S
N1338 S1337 1.613 . S
N1338 C1341 1.350 . S
N1339 S1337 1.610 1_565 S
N1339 C1340 1.351 . S
C1340 C1334 1.428 . S
C1340 N1339 1.351 . S
C1340 C1341 1.434 1_565 S
C1341 C1332 1.429 . S
C1341 N1338 1.350 . S
C1341 C1340 1.434 1_545 S
C1342 C1343 1.369 . S
C1342 C1344 1.419 . S
C1342 H1346 0.930 . S
C1343 C1342 1.369 . S
C1343 C1352 1.429 . S
C1344 C1342 1.419 . S
C1344 C1345 1.363 . S
C1344 H1347 0.929 . S
C1345 C1344 1.363 . S
C1345 C1351 1.428 . S
H1346 C1342 0.930 . S
H1347 C1344 0.929 . S
S1348 N1349 1.613 . S
S1348 N1350 1.610 . S
N1349 S1348 1.613 . S
N1349 C1352 1.350 . S
N1350 S1348 1.610 . S
N1350 C1351 1.351 . S
C1351 C1345 1.428 . S
C1351 N1350 1.351 . S
C1351 C1352 1.434 . S
C1352 C1343 1.429 . S
C1352 N1349 1.350 . S
C1352 C1351 1.434 . S
C1353 C1354 1.369 . S
C1353 C1355 1.419 1_565 S
C1353 H1357 0.930 . S
C1354 C1353 1.369 . S
C1354 C1363 1.429 . S
C1355 C1353 1.419 1_545 S
C1355 C1356 1.363 . S
C1355 H1358 0.929 . S
C1356 C1355 1.363 . S
C1356 C1362 1.428 . S
H1357 C1353 0.930 . S
H1358 C1355 0.929 . S
S1359 N1360 1.620 . S
S1359 N1361 1.603 1_565 S
N1360 S1359 1.620 . S
N1360 C1363 1.350 . S
N1361 S1359 1.603 1_545 S
N1361 C1362 1.351 . S
C1362 C1356 1.428 . S
C1362 N1361 1.351 . S
C1362 C1363 1.434 1_545 S
C1363 C1354 1.429 . S
C1363 N1360 1.350 . S
C1363 C1362 1.434 1_565 S
C1364 C1365 1.369 . S
C1364 C1366 1.419 . S
C1364 H1368 0.930 . S
C1365 C1364 1.369 . S
C1365 C1374 1.429 . S
C1366 C1364 1.419 . S
C1366 C1367 1.363 . S
C1366 H1369 0.929 . S
C1367 C1366 1.363 . S
C1367 C1373 1.428 . S
H1368 C1364 0.930 . S
H1369 C1366 0.929 . S
S1370 N1371 1.613 . S
S1370 N1372 1.610 . S
N1371 S1370 1.613 . S
N1371 C1374 1.350 . S
N1372 S1370 1.610 . S
N1372 C1373 1.351 . S
C1373 C1367 1.428 . S
C1373 N1372 1.351 . S
C1373 C1374 1.434 . S
C1374 C1365 1.429 . S
C1374 N1371 1.350 . S
C1374 C1373 1.434 . S
C1375 C1376 1.369 . S
C1375 C1377 1.419 . S
C1375 H1379 0.930 . S
C1376 C1375 1.369 . S
C1376 C1385 1.429 . S
C1377 C1375 1.419 . S
C1377 C1378 1.363 . S
C1377 H1380 0.929 . S
C1378 C1377 1.363 . S
C1378 C1384 1.428 . S
H1379 C1375 0.930 . S
H1380 C1377 0.929 . S
S1381 N1382 1.613 . S
S1381 N1383 1.610 . S
N1382 S1381 1.613 . S
N1382 C1385 1.350 . S
N1383 S1381 1.610 . S
N1383 C1384 1.351 . S
C1384 C1378 1.428 . S
C1384 N1383 1.351 . S
C1384 C1385 1.434 . S
C1385 C1376 1.429 . S
C1385 N1382 1.350 . S
C1385 C1384 1.434 . S
C1386 C1387 1.369 . S
C1386 C1388 1.419 . S
C1386 H1390 0.930 . S
C1387 C1386 1.369 . S
C1387 C1396 1.429 . S
C1388 C1386 1.419 . S
C1388 C1389 1.363 . S
C1388 H1391 0.929 . S
C1389 C1388 1.363 . S
C1389 C1395 1.428 . S
H1390 C1386 0.930 . S
H1391 C1388 0.929 . S
S1392 N1393 1.613 . S
S1392 N1394 1.610 . S
N1393 S1392 1.613 . S
N1393 C1396 1.350 . S
N1394 S1392 1.610 . S
N1394 C1395 1.351 . S
C1395 C1389 1.428 . S
C1395 N1394 1.351 . S
C1395 C1396 1.434 . S
C1396 C1387 1.429 . S
C1396 N1393 1.350 . S
C1396 C1395 1.434 . S
C1397 C1398 1.369 1_556 S
C1397 C1399 1.419 1_565 S
C1397 H1401 0.930 . S
C1398 C1397 1.369 1_554 S
C1398 C1407 1.429 . S
C1399 C1397 1.419 1_545 S
C1399 C1400 1.363 . S
C1399 H1402 0.929 . S
C1400 C1399 1.363 . S
C1400 C1406 1.428 1_556 S
H1401 C1397 0.930 . S
H1402 C1399 0.929 . S
S1403 N1404 1.613 1_545 S
S1403 N1405 1.610 . S
N1404 S1403 1.613 1_565 S
N1404 C1407 1.350 . S
N1405 S1403 1.610 . S
N1405 C1406 1.351 . S
C1406 C1400 1.428 1_554 S
C1406 N1405 1.351 . S
C1406 C1407 1.434 1_545 S
C1407 C1398 1.429 . S
C1407 N1404 1.350 . S
C1407 C1406 1.434 1_565 S
C1408 C1409 1.369 . S
C1408 C1410 1.419 . S
C1408 H1412 0.930 . S
C1409 C1408 1.369 . S
C1409 C1418 1.429 . S
C1410 C1408 1.419 . S
C1410 C1411 1.363 1_554 S
C1410 H1413 0.929 . S
C1411 C1410 1.363 1_556 S
C1411 C1417 1.428 . S
H1412 C1408 0.930 . S
H1413 C1410 0.929 . S
S1414 N1415 1.613 . S
S1414 N1416 1.610 . S
N1415 S1414 1.613 . S
N1415 C1418 1.350 1_556 S
N1416 S1414 1.610 . S
N1416 C1417 1.351 . S
C1417 C1411 1.428 . S
C1417 N1416 1.351 . S
C1417 C1418 1.434 1_556 S
C1418 C1409 1.429 . S
C1418 N1415 1.350 1_554 S
C1418 C1417 1.434 1_554 S
C1419 C1420 1.369 . S
C1419 C1421 1.419 . S
C1419 H1423 0.930 . S
C1420 C1419 1.369 . S
C1420 C1429 1.429 . S
C1421 C1419 1.419 . S
C1421 C1422 1.363 1_554 S
C1421 H1424 0.929 1_455 S
C1422 C1421 1.363 1_556 S
C1422 C1428 1.428 . S
H1423 C1419 0.930 . S
H1424 C1421 0.929 1_655 S
S1425 N1426 1.613 1_556 S
S1425 N1427 1.610 . S
N1426 S1425 1.613 1_554 S
N1426 C1429 1.350 . S
N1427 S1425 1.610 . S
N1427 C1428 1.351 . S
C1428 C1422 1.428 . S
C1428 N1427 1.351 . S
C1428 C1429 1.434 1_556 S
C1429 C1420 1.429 . S
C1429 N1426 1.350 . S
C1429 C1428 1.434 1_554 S
C1430 C1431 1.369 . S
C1430 C1432 1.419 . S
C1430 H1434 0.930 . S
C1431 C1430 1.369 . S
C1431 C1440 1.429 . S
C1432 C1430 1.419 . S
C1432 C1433 1.363 . S
C1432 H1435 0.929 . S
C1433 C1432 1.363 . S
C1433 C1439 1.428 . S
H1434 C1430 0.930 . S
H1435 C1432 0.929 . S
S1436 N1437 1.613 . S
S1436 N1438 1.610 . S
N1437 S1436 1.613 . S
N1437 C1440 1.350 . S
N1438 S1436 1.610 . S
N1438 C1439 1.351 . S
C1439 C1433 1.428 . S
C1439 N1438 1.351 . S
C1439 C1440 1.434 . S
C1440 C1431 1.429 . S
C1440 N1437 1.350 . S
C1440 C1439 1.434 . S
C1441 C1442 1.369 . S
C1441 C1443 1.419 . S
C1441 H1445 0.930 . S
C1442 C1441 1.369 . S
C1442 C1451 1.429 . S
C1443 C1441 1.419 . S
C1443 C1444 1.363 . S
C1443 H1446 0.936 . S
C1444 C1443 1.363 . S
C1444 C1450 1.428 . S
H1445 C1441 0.930 . S
H1446 C1443 0.936 . S
S1447 N1448 1.613 . S
S1447 N1449 1.610 . S
N1448 S1447 1.613 . S
N1448 C1451 1.350 . S
N1449 S1447 1.610 . S
N1449 C1450 1.351 . S
C1450 C1444 1.428 . S
C1450 N1449 1.351 . S
C1450 C1451 1.434 . S
C1451 C1442 1.429 . S
C1451 N1448 1.350 . S
C1451 C1450 1.434 . S
C1452 C1453 1.369 . S
C1452 C1454 1.419 1_556 S
C1452 H1456 0.930 . S
C1453 C1452 1.369 . S
C1453 C1462 1.429 . S
C1454 C1452 1.419 1_554 S
C1454 C1455 1.363 . S
C1454 H1457 0.929 . S
C1455 C1454 1.363 . S
C1455 C1461 1.428 1_554 S
H1456 C1452 0.930 . S
H1457 C1454 0.929 . S
S1458 N1459 1.613 . S
S1458 N1460 1.610 . S
N1459 S1458 1.613 . S
N1459 C1462 1.350 . S
N1460 S1458 1.610 . S
N1460 C1461 1.351 . S
C1461 C1455 1.428 1_556 S
C1461 N1460 1.351 . S
C1461 C1462 1.434 . S
C1462 C1453 1.429 . S
C1462 N1459 1.350 . S
C1462 C1461 1.434 . S
C1463 C1464 1.369 . S
C1463 C1465 1.419 1_556 S
C1463 H1467 0.930 . S
C1464 C1463 1.369 . S
C1464 C1473 1.429 . S
C1465 C1463 1.419 1_554 S
C1465 C1466 1.363 . S
C1465 H1468 0.929 . S
C1466 C1465 1.363 . S
C1466 C1472 1.428 1_554 S
H1467 C1463 0.930 . S
H1468 C1465 0.929 . S
S1469 N1470 1.613 1_455 S
S1469 N1471 1.610 . S
N1470 S1469 1.613 1_655 S
N1470 C1473 1.350 . S
N1471 S1469 1.610 . S
N1471 C1472 1.351 1_455 S
C1472 C1466 1.428 1_556 S
C1472 N1471 1.351 1_655 S
C1472 C1473 1.434 . S
C1473 C1464 1.429 . S
C1473 N1470 1.350 . S
C1473 C1472 1.434 . S
C1474 C1475 1.369 . S
C1474 C1476 1.419 . S
C1474 H1478 0.930 . S
C1475 C1474 1.369 . S
C1475 C1484 1.429 . S
C1476 C1474 1.419 . S
C1476 C1477 1.363 . S
C1476 H1479 0.929 . S
C1477 C1476 1.363 . S
C1477 C1483 1.428 . S
H1478 C1474 0.930 . S
H1479 C1476 0.929 . S
S1480 N1481 1.613 . S
S1480 N1482 1.610 . S
N1481 S1480 1.613 . S
N1481 C1484 1.350 . S
N1482 S1480 1.610 . S
N1482 C1483 1.351 . S
C1483 C1477 1.428 . S
C1483 N1482 1.351 . S
C1483 C1484 1.434 . S
C1484 C1475 1.429 . S
C1484 N1481 1.350 . S
C1484 C1483 1.434 . S
C1485 C1486 1.369 . S
C1485 C1487 1.419 . S
C1485 H1489 0.930 . S
C1486 C1485 1.369 . S
C1486 C1495 1.429 . S
C1487 C1485 1.419 . S
C1487 C1488 1.363 . S
C1487 H1490 0.929 . S
C1488 C1487 1.363 . S
C1488 C1494 1.428 . S
H1489 C1485 0.930 . S
H1490 C1487 0.929 . S
S1491 N1492 1.613 . S
S1491 N1493 1.610 1_455 S
N1492 S1491 1.613 . S
N1492 C1495 1.350 1_455 S
N1493 S1491 1.610 1_655 S
N1493 C1494 1.351 . S
C1494 C1488 1.428 . S
C1494 N1493 1.351 . S
C1494 C1495 1.434 . S
C1495 C1486 1.429 . S
C1495 N1492 1.350 1_655 S
C1495 C1494 1.434 . S
C1496 C1497 1.369 . S
C1496 C1498 1.419 . S
C1496 H1500 0.930 . S
C1497 C1496 1.369 . S
C1497 C1506 1.429 . S
C1498 C1496 1.419 . S
C1498 C1499 1.363 . S
C1498 H1501 0.929 . S
C1499 C1498 1.363 . S
C1499 C1505 1.428 . S
H1500 C1496 0.930 . S
H1501 C1498 0.929 . S
S1502 N1503 1.613 . S
S1502 N1504 1.610 . S
N1503 S1502 1.613 . S
N1503 C1506 1.350 . S
N1504 S1502 1.610 . S
N1504 C1505 1.351 . S
C1505 C1499 1.428 . S
C1505 N1504 1.351 . S
C1505 C1506 1.434 . S
C1506 C1497 1.429 . S
C1506 N1503 1.350 . S
C1506 C1505 1.434 . S
C1507 C1508 1.369 . S
C1507 C1509 1.419 . S
C1507 H1511 0.930 . S
C1508 C1507 1.369 . S
C1508 C1517 1.429 . S
C1509 C1507 1.419 . S
C1509 C1510 1.363 . S
C1509 H1512 0.929 1_455 S
C1510 C1509 1.363 . S
C1510 C1516 1.428 . S
H1511 C1507 0.930 . S
H1512 C1509 0.929 1_655 S
S1513 N1514 1.613 . S
S1513 N1515 1.610 . S
N1514 S1513 1.613 . S
N1514 C1517 1.350 . S
N1515 S1513 1.610 . S
N1515 C1516 1.351 . S
C1516 C1510 1.428 . S
C1516 N1515 1.351 . S
C1516 C1517 1.434 . S
C1517 C1508 1.429 . S
C1517 N1514 1.350 . S
C1517 C1516 1.434 . S
C1518 C1519 1.369 . S
C1518 C1520 1.419 . S
C1518 H1522 0.930 . S
C1519 C1518 1.369 . S
C1519 C1528 1.429 . S
C1520 C1518 1.419 . S
C1520 C1521 1.363 . S
C1520 H1523 0.929 . S
C1521 C1520 1.363 . S
C1521 C1527 1.428 . S
H1522 C1518 0.930 . S
H1523 C1520 0.929 . S
S1524 N1525 1.613 . S
S1524 N1526 1.610 . S
N1525 S1524 1.613 . S
N1525 C1528 1.350 . S
N1526 S1524 1.610 . S
N1526 C1527 1.351 . S
C1527 C1521 1.428 . S
C1527 N1526 1.351 . S
C1527 C1528 1.434 . S
C1528 C1519 1.429 . S
C1528 N1525 1.350 . S
C1528 C1527 1.434 . S
C1529 C1530 1.369 . S
C1529 C1531 1.419 . S
C1529 H1533 0.930 . S
C1530 C1529 1.369 . S
C1530 C1539 1.429 . S
C1531 C1529 1.419 . S
C1531 C1532 1.363 . S
C1531 H1534 0.929 1_565 S
C1532 C1531 1.363 . S
C1532 C1538 1.428 . S
H1533 C1529 0.930 . S
H1534 C1531 0.929 1_545 S
S1535 N1536 1.613 1_655 S
S1535 N1537 1.610 . S
N1536 S1535 1.613 1_455 S
N1536 C1539 1.350 . S
N1537 S1535 1.610 . S
N1537 C1538 1.351 1_655 S
C1538 C1532 1.428 . S
C1538 N1537 1.351 1_455 S
C1538 C1539 1.434 . S
C1539 C1530 1.429 . S
C1539 N1536 1.350 . S
C1539 C1538 1.434 . S
C1540 C1541 1.369 . S
C1540 C1542 1.419 . S
C1540 H1544 0.930 . S
C1541 C1540 1.369 . S
C1541 C1550 1.429 . S
C1542 C1540 1.419 . S
C1542 C1543 1.363 . S
C1542 H1545 0.929 . S
C1543 C1542 1.363 . S
C1543 C1549 1.428 . S
H1544 C1540 0.930 . S
H1545 C1542 0.929 . S
S1546 N1547 1.613 . S
S1546 N1548 1.610 . S
N1547 S1546 1.613 . S
N1547 C1550 1.350 . S
N1548 S1546 1.610 . S
N1548 C1549 1.351 . S
C1549 C1543 1.428 . S
C1549 N1548 1.351 . S
C1549 C1550 1.434 . S
C1550 C1541 1.429 . S
C1550 N1547 1.350 . S
C1550 C1549 1.434 . S
C1551 C1552 1.369 . S
C1551 C1553 1.419 . S
C1551 H1555 0.930 . S
C1552 C1551 1.369 . S
C1552 C1561 1.429 . S
C1553 C1551 1.419 . S
C1553 C1554 1.363 . S
C1553 H1556 0.929 . S
C1554 C1553 1.363 . S
C1554 C1560 1.428 . S
H1555 C1551 0.930 . S
H1556 C1553 0.929 . S
S1557 N1558 1.621 . S
S1557 N1559 1.610 1_655 S
N1558 S1557 1.621 . S
N1558 C1561 1.350 . S
N1559 S1557 1.610 1_455 S
N1559 C1560 1.351 1_455 S
C1560 C1554 1.428 . S
C1560 N1559 1.351 1_655 S
C1560 C1561 1.434 . S
C1561 C1552 1.429 . S
C1561 N1558 1.350 . S
C1561 C1560 1.434 . S
C1562 C1563 1.369 . S
C1562 C1564 1.419 . S
C1562 H1566 0.930 . S
C1563 C1562 1.369 . S
C1563 C1572 1.429 . S
C1564 C1562 1.419 . S
C1564 C1565 1.363 . S
C1564 H1567 0.929 . S
C1565 C1564 1.363 . S
C1565 C1571 1.428 . S
H1566 C1562 0.930 . S
H1567 C1564 0.929 . S
S1568 N1569 1.613 . S
S1568 N1570 1.610 . S
N1569 S1568 1.613 . S
N1569 C1572 1.350 . S
N1570 S1568 1.610 . S
N1570 C1571 1.351 . S
C1571 C1565 1.428 . S
C1571 N1570 1.351 . S
C1571 C1572 1.434 . S
C1572 C1563 1.429 . S
C1572 N1569 1.350 . S
C1572 C1571 1.434 . S
C1573 C1574 1.369 . S
C1573 C1575 1.419 . S
C1573 H1577 0.930 . S
C1574 C1573 1.369 . S
C1574 C1583 1.429 . S
C1575 C1573 1.419 . S
C1575 C1576 1.363 . S
C1575 H1578 0.929 1_655 S
C1576 C1575 1.363 . S
C1576 C1582 1.428 . S
H1577 C1573 0.930 . S
H1578 C1575 0.929 1_455 S
S1579 N1580 1.613 1_565 S
S1579 N1581 1.610 . S
N1580 S1579 1.613 1_545 S
N1580 C1583 1.350 . S
N1581 S1579 1.610 . S
N1581 C1582 1.351 1_565 S
C1582 C1576 1.428 . S
C1582 N1581 1.351 1_545 S
C1582 C1583 1.434 . S
C1583 C1574 1.429 . S
C1583 N1580 1.350 . S
C1583 C1582 1.434 . S
C1584 C1585 1.369 . S
C1584 C1586 1.419 . S
C1584 H1588 0.930 . S
C1585 C1584 1.369 . S
C1585 C1594 1.429 . S
C1586 C1584 1.419 . S
C1586 C1587 1.363 . S
C1586 H1589 0.929 . S
C1587 C1586 1.363 . S
C1587 C1593 1.428 . S
H1588 C1584 0.930 . S
H1589 C1586 0.929 . S
S1590 N1591 1.613 . S
S1590 N1592 1.610 . S
N1591 S1590 1.613 . S
N1591 C1594 1.350 . S
N1592 S1590 1.610 . S
N1592 C1593 1.351 . S
C1593 C1587 1.428 . S
C1593 N1592 1.351 . S
C1593 C1594 1.434 . S
C1594 C1585 1.429 . S
C1594 N1591 1.350 . S
C1594 C1593 1.434 . S
C1595 C1596 1.369 . S
C1595 C1597 1.419 . S
C1595 H1599 0.930 . S
C1596 C1595 1.369 . S
C1596 C1605 1.429 . S
C1597 C1595 1.419 . S
C1597 C1598 1.363 . S
C1597 H1600 0.929 . S
C1598 C1597 1.363 . S
C1598 C1604 1.428 . S
H1599 C1595 0.930 . S
H1600 C1597 0.929 . S
S1601 N1602 1.613 . S
S1601 N1603 1.610 . S
N1602 S1601 1.613 . S
N1602 C1605 1.350 . S
N1603 S1601 1.610 . S
N1603 C1604 1.351 . S
C1604 C1598 1.428 . S
C1604 N1603 1.351 . S
C1604 C1605 1.434 . S
C1605 C1596 1.429 . S
C1605 N1602 1.350 . S
C1605 C1604 1.434 . S
C1606 C1607 1.369 . S
C1606 C1608 1.419 . S
C1606 H1610 0.930 . S
C1607 C1606 1.369 . S
C1607 C1616 1.429 . S
C1608 C1606 1.419 . S
C1608 C1609 1.363 . S
C1608 H1611 0.929 . S
C1609 C1608 1.363 . S
C1609 C1615 1.428 . S
H1610 C1606 0.930 . S
H1611 C1608 0.929 . S
S1612 N1613 1.613 . S
S1612 N1614 1.610 . S
N1613 S1612 1.613 . S
N1613 C1616 1.350 . S
N1614 S1612 1.610 . S
N1614 C1615 1.351 . S
C1615 C1609 1.428 . S
C1615 N1614 1.351 . S
C1615 C1616 1.434 . S
C1616 C1607 1.429 . S
C1616 N1613 1.350 . S
C1616 C1615 1.434 . S
C1617 C1618 1.369 . S
C1617 C1619 1.419 . S
C1617 H1621 0.930 . S
C1618 C1617 1.369 . S
C1618 C1627 1.429 . S
C1619 C1617 1.419 . S
C1619 C1620 1.363 . S
C1619 H1622 0.929 . S
C1620 C1619 1.363 . S
C1620 C1626 1.428 . S
H1621 C1617 0.930 . S
H1622 C1619 0.929 . S
S1623 N1624 1.613 . S
S1623 N1625 1.610 . S
N1624 S1623 1.613 . S
N1624 C1627 1.350 . S
N1625 S1623 1.610 . S
N1625 C1626 1.351 . S
C1626 C1620 1.428 . S
C1626 N1625 1.351 . S
C1626 C1627 1.434 . S
C1627 C1618 1.429 . S
C1627 N1624 1.350 . S
C1627 C1626 1.434 . S
C1628 C1629 1.369 . S
C1628 C1630 1.419 . S
C1628 H1632 0.930 . S
C1629 C1628 1.369 . S
C1629 C1638 1.429 . S
C1630 C1628 1.419 . S
C1630 C1631 1.363 . S
C1630 H1633 0.929 . S
C1631 C1630 1.363 . S
C1631 C1637 1.428 . S
H1632 C1628 0.930 . S
H1633 C1630 0.929 . S
S1634 N1635 1.613 . S
S1634 N1636 1.610 . S
N1635 S1634 1.613 . S
N1635 C1638 1.350 . S
N1636 S1634 1.610 . S
N1636 C1637 1.351 . S
C1637 C1631 1.428 . S
C1637 N1636 1.351 . S
C1637 C1638 1.434 . S
C1638 C1629 1.429 . S
C1638 N1635 1.350 . S
C1638 C1637 1.434 . S
C1639 C1640 1.369 . S
C1639 C1641 1.419 . S
C1639 H1643 0.930 . S
C1640 C1639 1.369 . S
C1640 C1649 1.429 . S
C1641 C1639 1.419 . S
C1641 C1642 1.363 . S
C1641 H1644 0.929 . S
C1642 C1641 1.363 . S
C1642 C1648 1.428 . S
H1643 C1639 0.930 . S
H1644 C1641 0.929 . S
S1645 N1646 1.613 . S
S1645 N1647 1.610 . S
N1646 S1645 1.613 . S
N1646 C1649 1.350 . S
N1647 S1645 1.610 . S
N1647 C1648 1.351 . S
C1648 C1642 1.428 . S
C1648 N1647 1.351 . S
C1648 C1649 1.434 . S
C1649 C1640 1.429 . S
C1649 N1646 1.350 . S
C1649 C1648 1.434 . S
C1650 C1651 1.369 . S
C1650 C1652 1.419 . S
C1650 H1654 0.930 . S
C1651 C1650 1.369 . S
C1651 C1660 1.429 . S
C1652 C1650 1.419 . S
C1652 C1653 1.363 . S
C1652 H1655 0.929 . S
C1653 C1652 1.363 . S
C1653 C1659 1.428 . S
H1654 C1650 0.930 . S
H1655 C1652 0.929 . S
S1656 N1657 1.613 . S
S1656 N1658 1.610 . S
N1657 S1656 1.613 . S
N1657 C1660 1.350 . S
N1658 S1656 1.610 . S
N1658 C1659 1.351 . S
C1659 C1653 1.428 . S
C1659 N1658 1.351 . S
C1659 C1660 1.434 . S
C1660 C1651 1.429 . S
C1660 N1657 1.350 . S
C1660 C1659 1.434 . S
C1661 C1662 1.369 . S
C1661 C1663 1.419 . S
C1661 H1665 0.930 . S
C1662 C1661 1.369 . S
C1662 C1671 1.429 . S
C1663 C1661 1.419 . S
C1663 C1664 1.363 . S
C1663 H1666 0.929 . S
C1664 C1663 1.363 . S
C1664 C1670 1.428 . S
H1665 C1661 0.930 . S
H1666 C1663 0.929 . S
S1667 N1668 1.613 . S
S1667 N1669 1.610 . S
N1668 S1667 1.613 . S
N1668 C1671 1.350 . S
N1669 S1667 1.610 . S
N1669 C1670 1.351 . S
C1670 C1664 1.428 . S
C1670 N1669 1.351 . S
C1670 C1671 1.434 . S
C1671 C1662 1.429 . S
C1671 N1668 1.350 . S
C1671 C1670 1.434 . S
C1672 C1673 1.369 . S
C1672 C1674 1.419 1_554 S
C1672 H1676 0.930 . S
C1673 C1672 1.369 . S
C1673 C1682 1.429 . S
C1674 C1672 1.419 1_556 S
C1674 C1675 1.363 . S
C1674 H1677 0.929 1_565 S
C1675 C1674 1.363 . S
C1675 C1681 1.428 1_556 S
H1676 C1672 0.930 . S
H1677 C1674 0.929 1_545 S
S1678 N1679 1.613 . S
S1678 N1680 1.610 . S
N1679 S1678 1.613 . S
N1679 C1682 1.350 . S
N1680 S1678 1.610 . S
N1680 C1681 1.351 . S
C1681 C1675 1.428 1_554 S
C1681 N1680 1.351 . S
C1681 C1682 1.434 . S
C1682 C1673 1.429 . S
C1682 N1679 1.350 . S
C1682 C1681 1.434 . S
C1683 C1684 1.369 . S
C1683 C1685 1.419 . S
C1683 H1687 0.930 . S
C1684 C1683 1.369 . S
C1684 C1693 1.429 . S
C1685 C1683 1.419 . S
C1685 C1686 1.363 1_554 S
C1685 H1688 0.929 . S
C1686 C1685 1.363 1_556 S
C1686 C1692 1.428 . S
H1687 C1683 0.930 . S
H1688 C1685 0.929 . S
S1689 N1690 1.613 . S
S1689 N1691 1.610 . S
N1690 S1689 1.613 . S
N1690 C1693 1.350 1_556 S
N1691 S1689 1.610 . S
N1691 C1692 1.351 . S
C1692 C1686 1.428 . S
C1692 N1691 1.351 . S
C1692 C1693 1.434 1_556 S
C1693 C1684 1.429 . S
C1693 N1690 1.350 1_554 S
C1693 C1692 1.434 1_554 S
C1694 C1695 1.369 . S
C1694 C1696 1.419 . S
C1694 H1698 0.930 . S
C1695 C1694 1.369 . S
C1695 C1704 1.429 . S
C1696 C1694 1.419 . S
C1696 C1697 1.363 . S
C1696 H1699 0.929 . S
C1697 C1696 1.363 . S
C1697 C1703 1.428 . S
H1698 C1694 0.930 . S
H1699 C1696 0.929 . S
S1700 N1701 1.613 . S
S1700 N1702 1.610 . S
N1701 S1700 1.613 . S
N1701 C1704 1.350 . S
N1702 S1700 1.610 . S
N1702 C1703 1.351 . S
C1703 C1697 1.428 . S
C1703 N1702 1.351 . S
C1703 C1704 1.434 . S
C1704 C1695 1.429 . S
C1704 N1701 1.350 . S
C1704 C1703 1.434 . S
C1705 C1706 1.369 . S
C1705 C1707 1.419 . S
C1705 H1709 0.930 1_565 S
C1706 C1705 1.369 . S
C1706 C1715 1.429 . S
C1707 C1705 1.419 . S
C1707 C1708 1.363 . S
C1707 H1710 0.929 . S
C1708 C1707 1.363 . S
C1708 C1714 1.428 . S
H1709 C1705 0.930 1_545 S
H1710 C1707 0.929 . S
S1711 N1712 1.613 . S
S1711 N1713 1.610 . S
N1712 S1711 1.613 . S
N1712 C1715 1.350 . S
N1713 S1711 1.610 . S
N1713 C1714 1.351 . S
C1714 C1708 1.428 . S
C1714 N1713 1.351 . S
C1714 C1715 1.434 . S
C1715 C1706 1.429 . S
C1715 N1712 1.350 . S
C1715 C1714 1.434 . S
C1716 C1717 1.369 . S
C1716 C1718 1.419 1_554 S
C1716 H1720 0.930 . S
C1717 C1716 1.369 . S
C1717 C1726 1.429 1_554 S
C1718 C1716 1.419 1_556 S
C1718 C1719 1.363 . S
C1718 H1721 0.929 . S
C1719 C1718 1.363 . S
C1719 C1725 1.428 . S
H1720 C1716 0.930 . S
H1721 C1718 0.929 . S
S1722 N1723 1.613 . S
S1722 N1724 1.610 1_565 S
N1723 S1722 1.613 . S
N1723 C1726 1.350 1_565 S
N1724 S1722 1.610 1_545 S
N1724 C1725 1.351 . S
C1725 C1719 1.428 . S
C1725 N1724 1.351 . S
C1725 C1726 1.434 . S
C1726 C1717 1.429 1_556 S
C1726 N1723 1.350 1_545 S
C1726 C1725 1.434 . S
C1727 C1728 1.369 1_556 S
C1727 C1729 1.419 . S
C1727 H1731 0.930 . S
C1728 C1727 1.369 1_554 S
C1728 C1737 1.429 . S
C1729 C1727 1.419 . S
C1729 C1730 1.363 . S
C1729 H1732 0.929 . S
C1730 C1729 1.363 . S
C1730 C1736 1.428 . S
H1731 C1727 0.930 . S
H1732 C1729 0.929 . S
S1733 N1734 1.613 1_556 S
S1733 N1735 1.610 . S
N1734 S1733 1.613 1_554 S
N1734 C1737 1.350 . S
N1735 S1733 1.610 . S
N1735 C1736 1.351 . S
C1736 C1730 1.428 . S
C1736 N1735 1.351 . S
C1736 C1737 1.434 1_556 S
C1737 C1728 1.429 . S
C1737 N1734 1.350 . S
C1737 C1736 1.434 1_554 S
C1738 C1739 1.369 . S
C1738 C1740 1.419 . S
C1738 H1742 0.930 . S
C1739 C1738 1.369 . S
C1739 C1748 1.429 . S
C1740 C1738 1.419 . S
C1740 C1741 1.363 . S
C1740 H1743 0.929 . S
C1741 C1740 1.363 . S
C1741 C1747 1.428 . S
H1742 C1738 0.930 . S
H1743 C1740 0.929 . S
S1744 N1745 1.613 . S
S1744 N1746 1.610 . S
N1745 S1744 1.613 . S
N1745 C1748 1.350 . S
N1746 S1744 1.610 . S
N1746 C1747 1.351 . S
C1747 C1741 1.428 . S
C1747 N1746 1.351 . S
C1747 C1748 1.434 . S
C1748 C1739 1.429 . S
C1748 N1745 1.350 . S
C1748 C1747 1.434 . S
C1749 C1750 1.369 . S
C1749 C1751 1.419 . S
C1749 H1753 0.930 . S
C1750 C1749 1.369 . S
C1750 C1759 1.429 . S
C1751 C1749 1.419 . S
C1751 C1752 1.363 . S
C1751 H1754 0.929 . S
C1752 C1751 1.363 . S
C1752 C1758 1.428 . S
H1753 C1749 0.930 . S
H1754 C1751 0.929 . S
S1755 N1756 1.613 . S
S1755 N1757 1.610 . S
N1756 S1755 1.613 . S
N1756 C1759 1.350 . S
N1757 S1755 1.610 . S
N1757 C1758 1.351 . S
C1758 C1752 1.428 . S
C1758 N1757 1.351 . S
C1758 C1759 1.434 . S
C1759 C1750 1.429 . S
C1759 N1756 1.350 . S
C1759 C1758 1.434 . S
C705 C8 1.282 . S
C707 C40 1.279 . S
C716 C84 1.281 . S
C718 C52 1.279 . S
C727 C96 1.281 . S
C729 C128 1.278 . S
C738 C142 1.275 . S
C740 C164 1.282 . S
C749 C186 1.280 . S
C751 C216 1.280 . S
C760 C260 1.278 . S
C762 C228 1.281 . S
C771 C304 1.281 . S
C773 C272 1.278 . S
C782 C318 1.281 . S
C784 C348 1.278 . S
C793 C360 1.278 . S
C795 C392 1.282 . S
C804 C406 1.284 . S
C806 C436 1.278 . S
C815 C448 1.280 . S
C817 C480 1.278 . S
C826 C524 1.276 . S
C828 C502 1.281 . S
C837 C536 1.278 . S
C839 C568 1.282 . S
C848 C612 1.277 . S
C850 C580 1.282 . S
C859 C656 1.283 . S
C861 C624 1.276 . S
C870 C700 1.277 . S
C872 C678 1.281 . S
C881 C7 1.645 . S
C883 C565 1.646 . S
C892 C535 1.648 . S
C894 C37 1.646 . S
C903 C609 1.647 . S
C905 C51 1.650 . S
C914 C81 1.650 . S
C916 C579 1.649 . S
C925 C103 1.658 . S
C927 C659 1.656 . S
C936 C631 1.656 . S
C938 C131 1.655 . S
C947 C703 1.657 . S
C949 C139 1.658 . S
C958 C681 1.659 . S
C960 C161 1.658 . S
C969 C389 1.645 . S
C971 C197 1.646 . S
C980 C213 1.649 . S
C982 C359 1.646 . S
C991 C227 1.648 . S
C993 C433 1.650 . S
C1002 C417 1.650 . S
C1004 C257 1.648 . S
C1013 C483 1.655 . S
C1015 C279 1.654 . S
C1024 C307 1.654 . S
C1026 C455 1.655 . S
C1035 C315 1.658 . S
C1037 C527 1.656 . S
C1046 C351 1.654 . S
C1048 C505 1.654 . S
C1057 C18 1.578 . S
C1059 C76 1.577 . S
C1068 C62 1.580 . S
C1070 C32 1.576 . S
C1079 C98 1.583 . S
C1081 C172 1.579 . S
C1090 C150 1.579 . S
C1092 C118 1.582 . S
C1101 C252 1.580 . S
C1103 C184 1.576 . S
C1112 C208 1.580 . S
C1114 C238 1.576 . S
C1123 C338 1.582 . S
C1125 C274 1.581 . S
C1134 C294 1.579 . S
C1136 C326 1.583 . S
C1145 C370 1.580 . S
C1147 C428 1.576 . S
C1156 C384 1.578 . S
C1158 C404 1.577 . S
C1167 C450 1.582 . S
C1169 C514 1.580 . S
C1178 C470 1.581 . S
C1180 C492 1.580 . S
C1189 C546 1.580 . S
C1191 C604 1.576 . S
C1200 C560 1.576 . S
C1202 C590 1.579 . S
C1211 C690 1.582 . S
C1213 C626 1.579 . S
C1222 C646 1.583 . S
C1224 C668 1.579 . S
C1233 C15 1.169 . S
C1235 C95 1.181 . S
C1244 C653 1.176 . S
C1246 C43 1.172 . S
C1255 C59 1.163 . S
C1257 C329 1.184 . S
C1266 C87 1.163 . S
C1268 C521 1.185 . S
C1277 C571 1.176 . S
C1279 C125 1.176 . S
C1288 C153 1.184 . S
C1290 C235 1.167 . S
C1299 C439 1.164 . S
C1301 C175 1.184 . S
C1310 C183 1.162 . S
C1312 C271 1.185 . S
C1321 C477 1.187 . S
C1323 C219 1.164 . S
C1332 C697 1.176 . S
C1334 C263 1.173 . S
C1343 C395 1.177 . S
C1345 C301 1.175 . S
C1354 C615 1.173 . S
C1356 C345 1.178 . S
C1365 C367 1.177 . S
C1367 C447 1.175 . S
C1376 C403 1.162 . S
C1378 C675 1.185 . S
C1387 C587 1.162 . S
C1389 C499 1.186 . S
C1398 C543 1.162 . S
C1400 C623 1.185 . S
C1409 C10 1.376 . S
C1411 C645 1.445 . S
C1420 C30 1.376 . S
C1422 C109 1.446 . S
C1431 C513 1.445 . S
C1433 C54 1.382 . S
C1442 C74 1.377 . S
C1444 C323 1.445 . S
C1453 C106 1.397 . S
C1455 C557 1.446 . S
C1464 C120 1.398 . S
C1466 C21 1.446 . S
C1475 C140 1.389 . S
C1477 C425 1.449 . S
C1486 C241 1.445 . S
C1488 C162 1.397 . S
C1497 C194 1.376 . S
C1499 C469 1.445 . S
C1508 C206 1.376 . S
C1510 C285 1.446 . S
C1519 C689 1.446 . S
C1521 C230 1.380 . S
C1530 C250 1.385 . S
C1532 C147 1.443 . S
C1541 C381 1.447 1_545 S
C1543 C282 1.389 . S
C1552 C296 1.399 . S
C1554 C191 1.446 . S
C1563 C316 1.397 . S
C1565 C601 1.447 . S
C1574 C340 1.390 . S
C1576 C65 1.447 1_545 S
C1585 C293 1.444 . S
C1587 C362 1.379 . S
C1596 C382 1.387 . S
C1598 C461 1.443 . S
C1607 C414 1.386 . S
C1609 C169 1.443 . S
C1618 C667 1.444 . S
C1620 C426 1.380 . S
C1629 C458 1.395 . S
C1631 C205 1.446 . S
C1640 C373 1.445 . S
C1642 C472 1.396 . S
C1651 C494 1.396 . S
C1653 C73 1.446 . S
C1662 C593 1.446 . S
C1664 C516 1.397 . S
C1673 C538 1.387 . S
C1675 C117 1.443 . S
C1684 C558 1.377 . S
C1686 C637 1.445 . S
C1695 C337 1.442 . S
C1697 C582 1.384 . S
C1706 C491 1.443 . S
C1708 C602 1.383 . S
C1717 C29 1.448 1_545 S
C1719 C634 1.391 . S
C1728 C549 1.445 . S
C1730 C648 1.396 . S
C1739 C670 1.389 . S
C1741 C249 1.449 . S
C1750 C411 1.444 1_545 S
C1752 C692 1.397 . S
