# Generated by pormake.
# Topology est, (5)-cn, num edge types: 1
# Building blocks:
#     Node 0, Type 0, BuildingBlock: XOMCOT_clean_sbu_0, # of connection points: 5
#     Node 1, Type 0, BuildingBlock: XOMCOT_clean_sbu_0, # of connection points: 5
#     Node 2, Type 0, BuildingBlock: XOMCOT_clean_sbu_0, # of connection points: 5
#     Node 3, Type 0, BuildingBlock: XOMCOT_clean_sbu_0, # of connection points: 5
#     Edge 4, Type (0, 0), BuildingBlock: CIFDUS_clean_linker_0, # of connection points: 2
#     Edge 5, Type (0, 0), BuildingBlock: CIFDUS_clean_linker_0, # of connection points: 2
#     Edge 6, Type (0, 0), BuildingBlock: CIFDUS_clean_linker_0, # of connection points: 2
#     Edge 7, Type (0, 0), BuildingBlock: CIFDUS_clean_linker_0, # of connection points: 2
#     Edge 8, Type (0, 0), BuildingBlock: CIFDUS_clean_linker_0, # of connection points: 2
#     Edge 9, Type (0, 0), BuildingBlock: CIFDUS_clean_linker_0, # of connection points: 2
#     Edge 10, Type (0, 0), BuildingBlock: CIFDUS_clean_linker_0, # of connection points: 2
#     Edge 11, Type (0, 0), BuildingBlock: CIFDUS_clean_linker_0, # of connection points: 2
#     Edge 12, Type (0, 0), BuildingBlock: CIFDUS_clean_linker_0, # of connection points: 2
#     Edge 13, Type (0, 0), BuildingBlock: CIFDUS_clean_linker_0, # of connection points: 2
# Relax obj value: 0.178
# Max RMSD: 0.238
# Mean RMSD: 0.237
data_MOF--net-est--node1-XOMCOT_clean_sbu_0--edge1-CIFDUS_clean_linker_0
_symmetry_space_group_name_H-M    P1
_symmetry_Int_Tables_number       1
_symmetry_cell_setting            triclinic
loop_
_symmetry_equiv_pos_as_xyz
'x, y, z'
_cell_length_a     15.411719
_cell_length_b     15.096307
_cell_length_c     47.481834
_cell_angle_alpha  88.667006
_cell_angle_beta   92.46696
_cell_angle_gamma 90.306197
loop_
_atom_site_label
_atom_site_type_symbol
_atom_site_fract_x
_atom_site_fract_y
_atom_site_fract_z
_atom_type_partial_charge
Co0 Co 0.23323 0.2363 0.57588 0.0
C1 C 0.04099 0.26303 0.5702 0.0
C2 C 0.10754 0.38329 0.58071 0.0
C3 C 0.01914 0.39872 0.57978 0.0
N4 N 0.12149 0.29792 0.57463 0.0
N5 N 0.97715 0.32265 0.57323 0.0
H6 H 0.0286 0.19472 0.56552 0.0
H7 H 0.15774 0.43052 0.58648 0.0
C8 C 0.33321 0.41875 0.56938 0.0
O9 O 0.34655 0.43939 0.59589 0.0
N10 N 0.34434 0.17588 0.57695 0.0
C11 C 0.3644 0.10123 0.59185 0.0
C12 C 0.45256 0.08731 0.59114 0.0
C13 C 0.42057 0.20592 0.56719 0.0
N14 N 0.48802 0.15367 0.57585 0.0
C15 C 0.18028 0.23421 0.63228 0.0
C16 C 0.33581 0.28362 0.65855 0.0
C17 C 0.26609 0.25997 0.67546 0.0
C18 C 0.18779 0.23441 0.66164 0.0
C19 C 0.32603 0.28038 0.62904 0.0
N20 N 0.24815 0.25808 0.61619 0.0
H21 H 0.12034 0.21066 0.62243 0.0
H22 H 0.38212 0.29305 0.6167 0.0
H23 H 0.319 0.06247 0.60382 0.0
H24 H 0.42742 0.26625 0.5548 0.0
O25 O 0.17304 0.12255 0.57824 0.0
O26 O 0.20741 0.19241 0.53875 0.0
O27 O 0.29179 0.34858 0.56223 0.0
C28 C 0.17036 0.12465 0.55074 0.0
H29 H 0.98856 0.46052 0.58464 0.0
H30 H 0.48836 0.03528 0.60249 0.0
H31 H 0.39797 0.30346 0.66789 0.0
H32 H 0.13287 0.21135 0.67327 0.0
Co33 Co 0.79644 0.78269 0.07514 0.0
C34 C 0.75746 0.59151 0.0748 0.0
C35 C 0.68513 0.66101 0.04197 0.0
C36 C 0.67818 0.57148 0.03731 0.0
N37 N 0.73412 0.67392 0.06578 0.0
N38 N 0.72494 0.52774 0.05783 0.0
H39 H 0.8065 0.5787 0.09116 0.0
H40 H 0.66327 0.71294 0.02733 0.0
C41 C 0.61205 0.84575 0.06188 0.0
O42 O 0.57892 0.77826 0.07579 0.0
N43 N 0.85956 0.89 0.08385 0.0
C44 C 0.91953 0.90139 0.10493 0.0
C45 C 0.93504 0.99099 0.10761 0.0
C46 C 0.84064 0.97206 0.07372 0.0
N47 N 0.88471 0.03528 0.08806 0.0
C48 C 0.80164 0.71299 0.13173 0.0
C49 C 0.69404 0.83556 0.15449 0.0
C50 C 0.73419 0.77134 0.17248 0.0
C51 C 0.78777 0.70911 0.16054 0.0
C52 C 0.70968 0.83706 0.12554 0.0
N53 N 0.76175 0.77501 0.11431 0.0
H54 H 0.84834 0.66818 0.12389 0.0
H55 H 0.68299 0.89073 0.11258 0.0
H56 H 0.94598 0.8488 0.11851 0.0
H57 H 0.79108 0.98584 0.05752 0.0
O58 O 0.90263 0.7148 0.07857 0.0
O59 O 0.84894 0.77841 0.03911 0.0
O60 O 0.69402 0.85685 0.06174 0.0
C61 C 0.90679 0.72666 0.05142 0.0
H62 H 0.64628 0.54185 0.01909 0.0
H63 H 0.97708 0.02111 0.12356 0.0
H64 H 0.65393 0.88651 0.16288 0.0
H65 H 0.82055 0.65842 0.17347 0.0
Co66 Co 0.75491 0.73187 0.44163 0.0
C67 C 0.94521 0.72257 0.44719 0.0
C68 C 0.89024 0.59239 0.45033 0.0
C69 C 0.97904 0.58623 0.45514 0.0
N70 N 0.86917 0.67832 0.44529 0.0
N71 N 0.01237 0.66862 0.45355 0.0
H72 H 0.95217 0.79333 0.44425 0.0
H73 H 0.84489 0.53778 0.45138 0.0
C74 C 0.65501 0.54921 0.45195 0.0
O75 O 0.64585 0.47409 0.43869 0.0
N76 N 0.64251 0.78672 0.43805 0.0
C77 C 0.61448 0.84484 0.41769 0.0
C78 C 0.52598 0.85365 0.41915 0.0
C79 C 0.5723 0.76568 0.45254 0.0
N80 N 0.50004 0.80348 0.44106 0.0
C81 C 0.82402 0.77792 0.38816 0.0
C82 C 0.69977 0.69237 0.35477 0.0
C83 C 0.76674 0.73887 0.3417 0.0
C84 C 0.82915 0.78213 0.35887 0.0
C85 C 0.69749 0.68897 0.38428 0.0
N86 N 0.75958 0.731 0.40062 0.0
H87 H 0.87153 0.81364 0.40084 0.0
H88 H 0.64436 0.65443 0.39389 0.0
H89 H 0.65413 0.87292 0.40147 0.0
H90 H 0.5726 0.72035 0.47024 0.0
O91 O 0.80417 0.8468 0.4478 0.0
O92 O 0.76419 0.75567 0.48203 0.0
O93 O 0.70319 0.60852 0.44077 0.0
C94 C 0.8019 0.82996 0.47466 0.0
H95 H 0.01576 0.52668 0.46031 0.0
H96 H 0.48304 0.88692 0.40371 0.0
H97 H 0.65009 0.65814 0.34234 0.0
H98 H 0.88105 0.82028 0.34973 0.0
Co99 Co 0.19687 0.2592 0.94386 0.0
C100 C 0.24683 0.44546 0.93534 0.0
C101 C 0.31105 0.38853 0.97218 0.0
C102 C 0.31972 0.47945 0.97308 0.0
N103 N 0.26495 0.36702 0.94845 0.0
N104 N 0.27868 0.5148 0.94989 0.0
H105 H 0.20135 0.4535 0.91767 0.0
H106 H 0.32883 0.34224 0.98915 0.0
C107 C 0.38238 0.19414 0.95338 0.0
O108 O 0.41473 0.26398 0.94049 0.0
N109 N 0.12855 0.15245 0.94014 0.0
C110 C 0.07508 0.12903 0.91834 0.0
C111 C 0.06137 0.03871 0.92012 0.0
C112 C 0.14372 0.07731 0.95534 0.0
N113 N 0.10536 0.00646 0.94329 0.0
C114 C 0.16319 0.31578 0.88665 0.0
C115 C 0.27241 0.20144 0.86092 0.0
C116 C 0.22037 0.25943 0.84392 0.0
C117 C 0.16675 0.31808 0.85746 0.0
C118 C 0.26813 0.20248 0.8905 0.0
N119 N 0.21461 0.26029 0.90313 0.0
H120 H 0.11631 0.35779 0.8958 0.0
H121 H 0.30528 0.15418 0.9029 0.0
H122 H 0.05371 0.17266 0.90108 0.0
H123 H 0.18898 0.07311 0.97332 0.0
O124 O 0.0931 0.33051 0.94412 0.0
O125 O 0.16042 0.27079 0.98203 0.0
O126 O 0.30052 0.1825 0.9538 0.0
C127 C 0.09961 0.3224 0.97145 0.0
H128 H 0.34786 0.51668 0.99043 0.0
H129 H 0.02721 0.99899 0.90448 0.0
H130 H 0.31358 0.15348 0.85148 0.0
H131 H 0.12587 0.365 0.84557 0.0
H132 H 0.89424 0.16298 0.57536 0.0
H133 H 0.8473 0.44464 0.56737 0.0
H134 H 0.69117 0.41703 0.5665 0.0
H135 H 0.56754 0.31338 0.56946 0.0
H136 H 0.6163 0.03224 0.57591 0.0
H137 H 0.77232 0.05979 0.57524 0.0
C138 C 0.85077 0.2189 0.57294 0.0
C139 C 0.8841 0.30619 0.57158 0.0
C140 C 0.76077 0.20267 0.57211 0.0
C141 C 0.82471 0.37684 0.56893 0.0
C142 C 0.73496 0.36112 0.56821 0.0
C143 C 0.61206 0.25798 0.57027 0.0
C144 C 0.57975 0.17065 0.57292 0.0
C145 C 0.70218 0.27433 0.56999 0.0
C146 C 0.63907 0.10003 0.5743 0.0
C147 C 0.72843 0.11576 0.57385 0.0
H148 H 0.7899 0.43372 0.10299 0.0
H149 H 0.71906 0.41231 0.01439 0.0
H150 H 0.76629 0.25862 0.01572 0.0
H151 H 0.82763 0.1297 0.04203 0.0
H152 H 0.90077 0.15282 0.13032 0.0
H153 H 0.85679 0.3077 0.12865 0.0
C154 C 0.78557 0.3962 0.08382 0.0
C155 C 0.75034 0.43549 0.05868 0.0
C156 C 0.81468 0.3082 0.08453 0.0
C157 C 0.7442 0.38432 0.03424 0.0
C158 C 0.77215 0.2963 0.03487 0.0
C159 C 0.83401 0.1686 0.0609 0.0
C160 C 0.86731 0.12918 0.08628 0.0
C161 C 0.80736 0.25753 0.05992 0.0
C162 C 0.87646 0.18125 0.11041 0.0
C163 C 0.8504 0.26978 0.10956 0.0
H164 H 0.36701 0.86802 0.46825 0.0
H165 H 0.44744 0.65306 0.41779 0.0
H166 H 0.30348 0.58409 0.42004 0.0
H167 H 0.15193 0.59123 0.43382 0.0
H168 H 0.0691 0.80954 0.4826 0.0
H169 H 0.2162 0.8714 0.48404 0.0
C170 C 0.35213 0.80611 0.45793 0.0
C171 C 0.41586 0.76498 0.44287 0.0
C172 C 0.26924 0.76787 0.45911 0.0
C173 C 0.39782 0.68486 0.42944 0.0
C174 C 0.3161 0.64575 0.43076 0.0
C175 C 0.16705 0.65124 0.44518 0.0
C176 C 0.10069 0.69647 0.45787 0.0
C177 C 0.251 0.68716 0.44527 0.0
C178 C 0.11978 0.77476 0.47237 0.0
C179 C 0.20356 0.80999 0.47318 0.0
H180 H 0.14281 0.88463 0.90557 0.0
H181 H 0.12723 0.92702 0.99457 0.0
H182 H 0.18405 0.77776 1.00502 0.0
H183 H 0.23895 0.63542 0.98845 0.0
H184 H 0.25807 0.59668 0.89928 0.0
H185 H 0.19934 0.74455 0.88914 0.0
C186 C 0.15032 0.86045 0.92721 0.0
C187 C 0.12962 0.91585 0.94928 0.0
C188 C 0.18491 0.77589 0.93297 0.0
C189 C 0.14218 0.8849 0.97729 0.0
C190 C 0.17511 0.80001 0.98323 0.0
C191 C 0.23185 0.66016 0.96687 0.0
C192 C 0.25339 0.60555 0.9446 0.0
C193 C 0.19753 0.74519 0.96122 0.0
C194 C 0.24182 0.63764 0.9167 0.0
C195 C 0.20802 0.72192 0.91091 0.0
H196 H 0.35386 0.23305 0.80794 0.0
H197 H 0.07738 0.27871 0.80847 0.0
H198 H 0.06948 0.28978 0.75744 0.0
H199 H 0.1395 0.29046 0.71271 0.0
H200 H 0.41196 0.22654 0.71032 0.0
H201 H 0.42282 0.22128 0.76176 0.0
C202 C 0.29176 0.24438 0.79689 0.0
C203 C 0.21684 0.25728 0.81238 0.0
C204 C 0.28682 0.2487 0.76708 0.0
C205 C 0.13692 0.27159 0.79745 0.0
C206 C 0.13199 0.27735 0.7681 0.0
C207 C 0.20126 0.27345 0.72315 0.0
C208 C 0.27453 0.25872 0.70713 0.0
C209 C 0.20648 0.26679 0.75272 0.0
C210 C 0.35429 0.2399 0.72169 0.0
C211 C 0.3605 0.23578 0.75127 0.0
H212 H 0.86089 0.74603 0.21343 0.0
H213 H 0.58643 0.79675 0.20172 0.0
H214 H 0.57142 0.79026 0.25292 0.0
H215 H 0.63679 0.76801 0.30123 0.0
H216 H 0.91152 0.71633 0.31189 0.0
H217 H 0.92554 0.72422 0.26095 0.0
C218 C 0.79748 0.75484 0.222 0.0
C219 C 0.72473 0.77099 0.20365 0.0
C220 C 0.78936 0.75059 0.25136 0.0
C221 C 0.64361 0.78462 0.21529 0.0
C222 C 0.63492 0.78036 0.24458 0.0
C223 C 0.69952 0.75782 0.29235 0.0
C224 C 0.77305 0.74173 0.31044 0.0
C225 C 0.70733 0.76287 0.26285 0.0
C226 C 0.85408 0.7298 0.29856 0.0
C227 C 0.86215 0.734 0.26939 0.0
H228 H 0.49355 0.50101 0.5706 0.0
H229 H 0.26848 0.44698 0.51635 0.0
H230 H 0.34656 0.49613 0.47532 0.0
H231 H 0.48451 0.52932 0.45417 0.0
H232 H 0.71236 0.58407 0.5065 0.0
H233 H 0.62784 0.56123 0.54899 0.0
C234 C 0.46097 0.50283 0.5499 0.0
C235 C 0.37539 0.46951 0.54651 0.0
C236 C 0.50726 0.52992 0.52603 0.0
C237 C 0.33437 0.47141 0.51949 0.0
C238 C 0.37909 0.49926 0.49598 0.0
C239 C 0.51489 0.53934 0.47489 0.0
C240 C 0.60396 0.5593 0.47729 0.0
C241 C 0.4664 0.52492 0.49888 0.0
C242 C 0.64344 0.57018 0.50419 0.0
C243 C 0.59524 0.55599 0.52843 0.0
H244 H 0.33368 0.04736 0.98327 0.0
H245 H 0.55912 0.20365 0.9632 0.0
H246 H 0.64903 0.11085 0.99559 0.0
H247 H 0.66247 0.98785 0.03004 0.0
H248 H 0.43599 0.83446 0.0511 0.0
H249 H 0.34681 0.92512 0.01789 0.0
C250 C 0.4024 0.06137 0.98579 0.0
C251 C 0.43925 0.13287 0.97071 0.0
C252 C 0.45319 0.00891 1.00483 0.0
C253 C 0.52886 0.14906 0.97434 0.0
C254 C 0.58023 0.09629 0.99301 0.0
C255 C 0.59354 0.97441 0.02769 0.0
C256 C 0.55611 0.90448 0.04335 0.0
C257 C 0.54283 0.02664 1.00854 0.0
C258 C 0.46658 0.88807 0.0396 0.0
C259 C 0.41563 0.93964 0.02048 0.0
H260 H 0.92379 0.94767 0.45993 0.0
H261 H 0.81146 0.82705 0.53319 0.0
H262 H 0.9192 0.90426 0.56375 0.0
H263 H 0.04735 0.00583 0.56901 0.0
H264 H 0.16262 0.11203 0.49399 0.0
H265 H 0.05355 0.03699 0.46466 0.0
C266 C 0.92187 0.93822 0.4826 0.0
C267 C 0.85866 0.88229 0.49424 0.0
C268 C 0.98614 0.97862 0.49967 0.0
C269 C 0.8587 0.87045 0.52368 0.0
C270 C 0.92087 0.91391 0.54109 0.0
C271 C 0.04942 0.01109 0.54624 0.0
C272 C 0.1132 0.06495 0.53375 0.0
C273 C 0.98567 0.96754 0.52926 0.0
C274 C 0.11448 0.07146 0.50421 0.0
C275 C 0.05159 0.02912 0.48738 0.0
H276 H 0.95539 0.55964 0.06578 0.0
H277 H 0.96357 0.75611 0.99849 0.0
H278 H 0.01862 0.64527 0.96703 0.0
H279 H 0.0587 0.4916 0.95828 0.0
H280 H 0.04994 0.29472 0.02539 0.0
H281 H -0.0029 0.40614 0.0572 0.0
C282 C 0.97113 0.57866 0.04443 0.0
C283 C 0.9567 0.6661 0.03451 0.0
C284 C -0.00037 0.51397 0.02626 0.0
C285 C 0.97521 0.68936 1.00661 0.0
C286 C 0.00566 0.62586 0.98857 0.0
C287 C 0.04368 0.47282 0.97974 0.0
C288 C 0.0563 0.38499 0.98944 0.0
C289 C 0.01637 0.53767 0.99802 0.0
C290 C 0.0394 0.36187 0.01747 0.0
C291 C 0.0102 0.42565 0.03568 0.0
loop_
_geom_bond_atom_site_label_1
_geom_bond_atom_site_label_2
_geom_bond_distance
_geom_bond_site_symmetry_2
_ccdc_geom_bond_type
Co0 N4 2.148 . S
Co0 N10 2.128 . S
Co0 N20 2.194 . S
Co0 O25 2.351 . S
Co0 O26 2.155 . S
Co0 O27 2.096 . S
C1 N4 1.301 . S
C1 N5 1.328 1_455 S
C1 H6 0.930 . S
C2 C3 1.333 . S
C2 N4 1.317 . S
C2 H7 0.930 . S
C3 C2 1.333 . S
C3 N5 1.350 1_455 S
C3 H29 0.931 1_455 S
N4 Co0 2.148 . S
N4 C1 1.301 . S
N4 C2 1.317 . S
N5 C1 1.328 1_655 S
N5 C3 1.350 1_655 S
H6 C1 0.930 . S
H7 C2 0.930 . S
C8 O9 1.224 . S
C8 O27 1.247 . S
O9 C8 1.224 . S
N10 Co0 2.128 . S
N10 C11 1.355 . S
N10 C13 1.311 . S
C11 N10 1.355 . S
C11 C12 1.363 . S
C11 H23 0.929 . S
C12 C11 1.363 . S
C12 N14 1.375 . S
C12 H30 0.931 . S
C13 N10 1.311 . S
C13 N14 1.347 . S
C13 H24 0.929 . S
N14 C12 1.375 . S
N14 C13 1.347 . S
C15 C18 1.365 . S
C15 N20 1.328 . S
C15 H21 0.929 . S
C16 C17 1.362 . S
C16 C19 1.378 . S
C16 H31 0.929 . S
C17 C16 1.362 . S
C17 C18 1.366 . S
C18 C15 1.365 . S
C18 C17 1.366 . S
C18 H32 0.930 . S
C19 C16 1.378 . S
C19 N20 1.315 . S
C19 H22 0.930 . S
N20 Co0 2.194 . S
N20 C15 1.328 . S
N20 C19 1.315 . S
H21 C15 0.929 . S
H22 C19 0.930 . S
H23 C11 0.929 . S
H24 C13 0.929 . S
O25 Co0 2.351 . S
O25 C28 1.244 . S
O26 Co0 2.155 . S
O26 C28 1.240 . S
O27 Co0 2.096 . S
O27 C8 1.247 . S
C28 O25 1.244 . S
C28 O26 1.240 . S
H29 C3 0.931 1_655 S
H30 C12 0.931 . S
H31 C16 0.929 . S
H32 C18 0.930 . S
Co33 N37 2.148 . S
Co33 N43 2.128 . S
Co33 N53 2.194 . S
Co33 O58 2.351 . S
Co33 O59 2.155 . S
Co33 O60 2.096 . S
C34 N37 1.301 . S
C34 N38 1.328 . S
C34 H39 0.930 . S
C35 C36 1.333 . S
C35 N37 1.317 . S
C35 H40 0.930 . S
C36 C35 1.333 . S
C36 N38 1.350 . S
C36 H62 0.931 . S
N37 Co33 2.148 . S
N37 C34 1.301 . S
N37 C35 1.317 . S
N38 C34 1.328 . S
N38 C36 1.350 . S
H39 C34 0.930 . S
H40 C35 0.930 . S
C41 O42 1.224 . S
C41 O60 1.247 . S
O42 C41 1.224 . S
N43 Co33 2.128 . S
N43 C44 1.355 . S
N43 C46 1.311 . S
C44 N43 1.355 . S
C44 C45 1.363 . S
C44 H56 0.929 . S
C45 C44 1.363 . S
C45 N47 1.375 1_565 S
C45 H63 0.931 1_565 S
C46 N43 1.311 . S
C46 N47 1.347 1_565 S
C46 H57 0.929 . S
N47 C45 1.375 1_545 S
N47 C46 1.347 1_545 S
C48 C51 1.365 . S
C48 N53 1.328 . S
C48 H54 0.929 . S
C49 C50 1.362 . S
C49 C52 1.378 . S
C49 H64 0.929 . S
C50 C49 1.362 . S
C50 C51 1.366 . S
C51 C48 1.365 . S
C51 C50 1.366 . S
C51 H65 0.930 . S
C52 C49 1.378 . S
C52 N53 1.315 . S
C52 H55 0.930 . S
N53 Co33 2.194 . S
N53 C48 1.328 . S
N53 C52 1.315 . S
H54 C48 0.929 . S
H55 C52 0.930 . S
H56 C44 0.929 . S
H57 C46 0.929 . S
O58 Co33 2.351 . S
O58 C61 1.244 . S
O59 Co33 2.155 . S
O59 C61 1.240 . S
O60 Co33 2.096 . S
O60 C41 1.247 . S
C61 O58 1.244 . S
C61 O59 1.240 . S
H62 C36 0.931 . S
H63 C45 0.931 1_545 S
H64 C49 0.929 . S
H65 C51 0.930 . S
Co66 N70 2.148 . S
Co66 N76 2.128 . S
Co66 N86 2.194 . S
Co66 O91 2.351 . S
Co66 O92 2.155 . S
Co66 O93 2.096 . S
C67 N70 1.301 . S
C67 N71 1.328 1_655 S
C67 H72 0.930 . S
C68 C69 1.333 . S
C68 N70 1.317 . S
C68 H73 0.930 . S
C69 C68 1.333 . S
C69 N71 1.350 1_655 S
C69 H95 0.931 1_655 S
N70 Co66 2.148 . S
N70 C67 1.301 . S
N70 C68 1.317 . S
N71 C67 1.328 1_455 S
N71 C69 1.350 1_455 S
H72 C67 0.930 . S
H73 C68 0.930 . S
C74 O75 1.224 . S
C74 O93 1.247 . S
O75 C74 1.224 . S
N76 Co66 2.128 . S
N76 C77 1.355 . S
N76 C79 1.311 . S
C77 N76 1.355 . S
C77 C78 1.363 . S
C77 H89 0.929 . S
C78 C77 1.363 . S
C78 N80 1.375 . S
C78 H96 0.931 . S
C79 N76 1.311 . S
C79 N80 1.347 . S
C79 H90 0.929 . S
N80 C78 1.375 . S
N80 C79 1.347 . S
C81 C84 1.365 . S
C81 N86 1.328 . S
C81 H87 0.929 . S
C82 C83 1.362 . S
C82 C85 1.378 . S
C82 H97 0.929 . S
C83 C82 1.362 . S
C83 C84 1.366 . S
C84 C81 1.365 . S
C84 C83 1.366 . S
C84 H98 0.930 . S
C85 C82 1.378 . S
C85 N86 1.315 . S
C85 H88 0.930 . S
N86 Co66 2.194 . S
N86 C81 1.328 . S
N86 C85 1.315 . S
H87 C81 0.929 . S
H88 C85 0.930 . S
H89 C77 0.929 . S
H90 C79 0.929 . S
O91 Co66 2.351 . S
O91 C94 1.244 . S
O92 Co66 2.155 . S
O92 C94 1.240 . S
O93 Co66 2.096 . S
O93 C74 1.247 . S
C94 O91 1.244 . S
C94 O92 1.240 . S
H95 C69 0.931 1_455 S
H96 C78 0.931 . S
H97 C82 0.929 . S
H98 C84 0.930 . S
Co99 N103 2.148 . S
Co99 N109 2.128 . S
Co99 N119 2.194 . S
Co99 O124 2.351 . S
Co99 O125 2.155 . S
Co99 O126 2.096 . S
C100 N103 1.301 . S
C100 N104 1.328 . S
C100 H105 0.930 . S
C101 C102 1.333 . S
C101 N103 1.317 . S
C101 H106 0.930 . S
C102 C101 1.333 . S
C102 N104 1.350 . S
C102 H128 0.931 . S
N103 Co99 2.148 . S
N103 C100 1.301 . S
N103 C101 1.317 . S
N104 C100 1.328 . S
N104 C102 1.350 . S
H105 C100 0.930 . S
H106 C101 0.930 . S
C107 O108 1.224 . S
C107 O126 1.247 . S
O108 C107 1.224 . S
N109 Co99 2.128 . S
N109 C110 1.355 . S
N109 C112 1.311 . S
C110 N109 1.355 . S
C110 C111 1.363 . S
C110 H122 0.929 . S
C111 C110 1.363 . S
C111 N113 1.375 1_545 S
C111 H129 0.931 1_545 S
C112 N109 1.311 . S
C112 N113 1.347 1_545 S
C112 H123 0.929 . S
N113 C111 1.375 1_565 S
N113 C112 1.347 1_565 S
C114 C117 1.365 . S
C114 N119 1.328 . S
C114 H120 0.929 . S
C115 C116 1.362 . S
C115 C118 1.378 . S
C115 H130 0.929 . S
C116 C115 1.362 . S
C116 C117 1.366 . S
C117 C114 1.365 . S
C117 C116 1.366 . S
C117 H131 0.930 . S
C118 C115 1.378 . S
C118 N119 1.315 . S
C118 H121 0.930 . S
N119 Co99 2.194 . S
N119 C114 1.328 . S
N119 C118 1.315 . S
H120 C114 0.929 . S
H121 C118 0.930 . S
H122 C110 0.929 . S
H123 C112 0.929 . S
O124 Co99 2.351 . S
O124 C127 1.244 . S
O125 Co99 2.155 . S
O125 C127 1.240 . S
O126 Co99 2.096 . S
O126 C107 1.247 . S
C127 O124 1.244 . S
C127 O125 1.240 . S
H128 C102 0.931 . S
H129 C111 0.931 1_565 S
H130 C115 0.929 . S
H131 C117 0.930 . S
H132 C138 0.930 . S
H133 C141 0.930 . S
H134 C142 0.930 . S
H135 C143 0.930 . S
H136 C146 0.930 . S
H137 C147 0.930 . S
C138 H132 0.930 . S
C138 C139 1.355 . S
C138 C140 1.415 . S
C139 C138 1.355 . S
C139 C141 1.419 . S
C140 C138 1.415 . S
C140 C145 1.425 . S
C140 C147 1.409 . S
C141 H133 0.930 . S
C141 C139 1.419 . S
C141 C142 1.362 . S
C142 H134 0.930 . S
C142 C141 1.362 . S
C142 C145 1.409 . S
C143 H135 0.930 . S
C143 C144 1.355 . S
C143 C145 1.415 . S
C144 C143 1.355 . S
C144 C146 1.419 . S
C145 C140 1.425 . S
C145 C142 1.409 . S
C145 C143 1.415 . S
C146 H136 0.930 . S
C146 C144 1.419 . S
C146 C147 1.362 . S
C147 H137 0.930 . S
C147 C140 1.409 . S
C147 C146 1.362 . S
H148 C154 0.930 . S
H149 C157 0.930 . S
H150 C158 0.930 . S
H151 C159 0.930 . S
H152 C162 0.930 . S
H153 C163 0.930 . S
C154 H148 0.930 . S
C154 C155 1.355 . S
C154 C156 1.415 . S
C155 C154 1.355 . S
C155 C157 1.419 . S
C156 C154 1.415 . S
C156 C161 1.425 . S
C156 C163 1.409 . S
C157 H149 0.930 . S
C157 C155 1.419 . S
C157 C158 1.362 . S
C158 H150 0.930 . S
C158 C157 1.362 . S
C158 C161 1.409 . S
C159 H151 0.930 . S
C159 C160 1.355 . S
C159 C161 1.415 . S
C160 C159 1.355 . S
C160 C162 1.419 . S
C161 C156 1.425 . S
C161 C158 1.409 . S
C161 C159 1.415 . S
C162 H152 0.930 . S
C162 C160 1.419 . S
C162 C163 1.362 . S
C163 H153 0.930 . S
C163 C156 1.409 . S
C163 C162 1.362 . S
H164 C170 0.930 . S
H165 C173 0.930 . S
H166 C174 0.930 . S
H167 C175 0.930 . S
H168 C178 0.930 . S
H169 C179 0.930 . S
C170 H164 0.930 . S
C170 C171 1.355 . S
C170 C172 1.415 . S
C171 C170 1.355 . S
C171 C173 1.419 . S
C172 C170 1.415 . S
C172 C177 1.425 . S
C172 C179 1.409 . S
C173 H165 0.930 . S
C173 C171 1.419 . S
C173 C174 1.362 . S
C174 H166 0.930 . S
C174 C173 1.362 . S
C174 C177 1.409 . S
C175 H167 0.930 . S
C175 C176 1.355 . S
C175 C177 1.415 . S
C176 C175 1.355 . S
C176 C178 1.419 . S
C177 C172 1.425 . S
C177 C174 1.409 . S
C177 C175 1.415 . S
C178 H168 0.930 . S
C178 C176 1.419 . S
C178 C179 1.362 . S
C179 H169 0.930 . S
C179 C172 1.409 . S
C179 C178 1.362 . S
H180 C186 0.930 . S
H181 C189 0.930 . S
H182 C190 0.930 . S
H183 C191 0.930 . S
H184 C194 0.930 . S
H185 C195 0.930 . S
C186 H180 0.930 . S
C186 C187 1.355 . S
C186 C188 1.415 . S
C187 C186 1.355 . S
C187 C189 1.419 . S
C188 C186 1.415 . S
C188 C193 1.425 . S
C188 C195 1.409 . S
C189 H181 0.930 . S
C189 C187 1.419 . S
C189 C190 1.362 . S
C190 H182 0.930 . S
C190 C189 1.362 . S
C190 C193 1.409 . S
C191 H183 0.930 . S
C191 C192 1.355 . S
C191 C193 1.415 . S
C192 C191 1.355 . S
C192 C194 1.419 . S
C193 C188 1.425 . S
C193 C190 1.409 . S
C193 C191 1.415 . S
C194 H184 0.930 . S
C194 C192 1.419 . S
C194 C195 1.362 . S
C195 H185 0.930 . S
C195 C188 1.409 . S
C195 C194 1.362 . S
H196 C202 0.930 . S
H197 C205 0.930 . S
H198 C206 0.930 . S
H199 C207 0.930 . S
H200 C210 0.930 . S
H201 C211 0.930 . S
C202 H196 0.930 . S
C202 C203 1.355 . S
C202 C204 1.415 . S
C203 C202 1.355 . S
C203 C205 1.419 . S
C204 C202 1.415 . S
C204 C209 1.425 . S
C204 C211 1.409 . S
C205 H197 0.930 . S
C205 C203 1.419 . S
C205 C206 1.362 . S
C206 H198 0.930 . S
C206 C205 1.362 . S
C206 C209 1.409 . S
C207 H199 0.930 . S
C207 C208 1.355 . S
C207 C209 1.415 . S
C208 C207 1.355 . S
C208 C210 1.419 . S
C209 C204 1.425 . S
C209 C206 1.409 . S
C209 C207 1.415 . S
C210 H200 0.930 . S
C210 C208 1.419 . S
C210 C211 1.362 . S
C211 H201 0.930 . S
C211 C204 1.409 . S
C211 C210 1.362 . S
H212 C218 0.930 . S
H213 C221 0.930 . S
H214 C222 0.930 . S
H215 C223 0.930 . S
H216 C226 0.930 . S
H217 C227 0.930 . S
C218 H212 0.930 . S
C218 C219 1.355 . S
C218 C220 1.415 . S
C219 C218 1.355 . S
C219 C221 1.419 . S
C220 C218 1.415 . S
C220 C225 1.425 . S
C220 C227 1.409 . S
C221 H213 0.930 . S
C221 C219 1.419 . S
C221 C222 1.362 . S
C222 H214 0.930 . S
C222 C221 1.362 . S
C222 C225 1.409 . S
C223 H215 0.930 . S
C223 C224 1.355 . S
C223 C225 1.415 . S
C224 C223 1.355 . S
C224 C226 1.419 . S
C225 C220 1.425 . S
C225 C222 1.409 . S
C225 C223 1.415 . S
C226 H216 0.930 . S
C226 C224 1.419 . S
C226 C227 1.362 . S
C227 H217 0.930 . S
C227 C220 1.409 . S
C227 C226 1.362 . S
H228 C234 0.930 . S
H229 C237 0.930 . S
H230 C238 0.930 . S
H231 C239 0.930 . S
H232 C242 0.930 . S
H233 C243 0.930 . S
C234 H228 0.930 . S
C234 C235 1.355 . S
C234 C236 1.415 . S
C235 C234 1.355 . S
C235 C237 1.419 . S
C236 C234 1.415 . S
C236 C241 1.425 . S
C236 C243 1.409 . S
C237 H229 0.930 . S
C237 C235 1.419 . S
C237 C238 1.362 . S
C238 H230 0.930 . S
C238 C237 1.362 . S
C238 C241 1.409 . S
C239 H231 0.930 . S
C239 C240 1.355 . S
C239 C241 1.415 . S
C240 C239 1.355 . S
C240 C242 1.419 . S
C241 C236 1.425 . S
C241 C238 1.409 . S
C241 C239 1.415 . S
C242 H232 0.930 . S
C242 C240 1.419 . S
C242 C243 1.362 . S
C243 H233 0.930 . S
C243 C236 1.409 . S
C243 C242 1.362 . S
H244 C250 0.930 . S
H245 C253 0.930 . S
H246 C254 0.930 . S
H247 C255 0.930 . S
H248 C258 0.930 . S
H249 C259 0.930 . S
C250 H244 0.930 . S
C250 C251 1.355 . S
C250 C252 1.415 1_545 S
C251 C250 1.355 . S
C251 C253 1.419 . S
C252 C250 1.415 1_565 S
C252 C257 1.425 1_566 S
C252 C259 1.409 . S
C253 H245 0.930 . S
C253 C251 1.419 . S
C253 C254 1.362 1_556 S
C254 H246 0.930 . S
C254 C253 1.362 1_554 S
C254 C257 1.409 . S
C255 H247 0.930 . S
C255 C256 1.355 . S
C255 C257 1.415 1_565 S
C256 C255 1.355 . S
C256 C258 1.419 . S
C257 C252 1.425 1_544 S
C257 C254 1.409 . S
C257 C255 1.415 1_545 S
C258 H248 0.930 . S
C258 C256 1.419 . S
C258 C259 1.362 1_554 S
C259 H249 0.930 . S
C259 C252 1.409 . S
C259 C258 1.362 1_556 S
H260 C266 0.930 . S
H261 C269 0.930 . S
H262 C270 0.930 . S
H263 C271 0.930 . S
H264 C274 0.930 . S
H265 C275 0.930 . S
C266 H260 0.930 . S
C266 C267 1.355 . S
C266 C268 1.415 1_655 S
C267 C266 1.355 . S
C267 C269 1.419 . S
C268 C266 1.415 1_455 S
C268 C273 1.425 1_465 S
C268 C275 1.409 . S
C269 H261 0.930 . S
C269 C267 1.419 . S
C269 C270 1.362 1_565 S
C270 H262 0.930 . S
C270 C269 1.362 1_545 S
C270 C273 1.409 . S
C271 H263 0.930 . S
C271 C272 1.355 . S
C271 C273 1.415 1_455 S
C272 C271 1.355 . S
C272 C274 1.419 . S
C273 C268 1.425 1_645 S
C273 C270 1.409 . S
C273 C271 1.415 1_655 S
C274 H264 0.930 . S
C274 C272 1.419 . S
C274 C275 1.362 1_545 S
C275 H265 0.930 . S
C275 C268 1.409 . S
C275 C274 1.362 1_565 S
H276 C282 0.930 . S
H277 C285 0.930 1_556 S
H278 C286 0.930 . S
H279 C287 0.930 . S
H280 C290 0.930 1_554 S
H281 C291 0.930 . S
C282 H276 0.930 . S
C282 C283 1.355 1_455 S
C282 C284 1.415 . S
C283 C282 1.355 1_655 S
C283 C285 1.419 . S
C284 C282 1.415 . S
C284 C289 1.425 1_454 S
C284 C291 1.409 . S
C285 H277 0.930 1_554 S
C285 C283 1.419 . S
C285 C286 1.362 1_554 S
C286 H278 0.930 . S
C286 C285 1.362 1_556 S
C286 C289 1.409 . S
C287 H279 0.930 . S
C287 C288 1.355 1_655 S
C287 C289 1.415 . S
C288 C287 1.355 1_455 S
C288 C290 1.419 . S
C289 C284 1.425 1_656 S
C289 C286 1.409 . S
C289 C287 1.415 . S
C290 H280 0.930 1_556 S
C290 C288 1.419 . S
C290 C291 1.362 1_556 S
C291 H281 0.930 . S
C291 C284 1.409 . S
C291 C290 1.362 1_554 S
C139 N5 1.224 . S
C144 N14 1.218 . S
C155 N38 1.216 . S
C160 N47 1.215 . S
C171 N80 1.226 . S
C176 N71 1.225 . S
C187 N113 1.261 . S
C192 N104 1.260 . S
C203 C116 1.459 . S
C208 C17 1.468 . S
C219 C50 1.456 . S
C224 C83 1.457 . S
C235 C8 1.388 . S
C240 C74 1.388 . S
C251 C107 1.439 . S
C256 C41 1.439 . S
C267 C94 1.368 . S
C272 C28 1.368 . S
C283 C61 1.356 . S
C288 C127 1.356 . S
