# Generated by pormake.
# Topology uoj, (4)-cn, num edge types: 1
# Building blocks:
#     Node 0, Type 0, BuildingBlock: CEKHIL_clean_sbu_0, # of connection points: 4
#     Node 1, Type 0, BuildingBlock: CEKHIL_clean_sbu_0, # of connection points: 4
#     Node 2, Type 0, BuildingBlock: CEKHIL_clean_sbu_0, # of connection points: 4
#     Node 3, Type 0, BuildingBlock: CEKHIL_clean_sbu_0, # of connection points: 4
#     Node 4, Type 0, BuildingBlock: CEKHIL_clean_sbu_0, # of connection points: 4
#     Node 5, Type 0, BuildingBlock: CEKHIL_clean_sbu_0, # of connection points: 4
#     Node 6, Type 0, BuildingBlock: CEKHIL_clean_sbu_0, # of connection points: 4
#     Node 7, Type 0, BuildingBlock: CEKHIL_clean_sbu_0, # of connection points: 4
#     Edge 8, Type (0, 0), BuildingBlock: AJUNOK_clean_linker_0, # of connection points: 2
#     Edge 9, Type (0, 0), BuildingBlock: AJUNOK_clean_linker_0, # of connection points: 2
#     Edge 10, Type (0, 0), BuildingBlock: AJUNOK_clean_linker_0, # of connection points: 2
#     Edge 11, Type (0, 0), BuildingBlock: AJUNOK_clean_linker_0, # of connection points: 2
#     Edge 12, Type (0, 0), BuildingBlock: AJUNOK_clean_linker_0, # of connection points: 2
#     Edge 13, Type (0, 0), BuildingBlock: AJUNOK_clean_linker_0, # of connection points: 2
#     Edge 14, Type (0, 0), BuildingBlock: AJUNOK_clean_linker_0, # of connection points: 2
#     Edge 15, Type (0, 0), BuildingBlock: AJUNOK_clean_linker_0, # of connection points: 2
#     Edge 16, Type (0, 0), BuildingBlock: AJUNOK_clean_linker_0, # of connection points: 2
#     Edge 17, Type (0, 0), BuildingBlock: AJUNOK_clean_linker_0, # of connection points: 2
#     Edge 18, Type (0, 0), BuildingBlock: AJUNOK_clean_linker_0, # of connection points: 2
#     Edge 19, Type (0, 0), BuildingBlock: AJUNOK_clean_linker_0, # of connection points: 2
#     Edge 20, Type (0, 0), BuildingBlock: AJUNOK_clean_linker_0, # of connection points: 2
#     Edge 21, Type (0, 0), BuildingBlock: AJUNOK_clean_linker_0, # of connection points: 2
#     Edge 22, Type (0, 0), BuildingBlock: AJUNOK_clean_linker_0, # of connection points: 2
#     Edge 23, Type (0, 0), BuildingBlock: AJUNOK_clean_linker_0, # of connection points: 2
# Relax obj value: 0.110
# Max RMSD: 0.136
# Mean RMSD: 0.133
data_MOF--net-uoj--node1-CEKHIL_clean_sbu_0--edge1-AJUNOK_clean_linker_0
_symmetry_space_group_name_H-M    P1
_symmetry_Int_Tables_number       1
_symmetry_cell_setting            triclinic
loop_
_symmetry_equiv_pos_as_xyz
'x, y, z'
_cell_length_a     24.341772
_cell_length_b     24.042646
_cell_length_c     26.098289
_cell_angle_alpha  89.933537
_cell_angle_beta   89.971538
_cell_angle_gamma 88.500728
loop_
_atom_site_label
_atom_site_type_symbol
_atom_site_fract_x
_atom_site_fract_y
_atom_site_fract_z
_atom_type_partial_charge
Co0 Co 0.06863 0.27605 0.40682 0.0
O1 O 0.12675 0.31112 0.37024 0.0
O2 O 0.04706 0.28849 0.33597 0.0
C3 C 0.12262 0.21306 0.44789 0.0
O4 O 0.00043 0.2374 0.43357 0.0
Co5 Co 0.06926 0.27901 0.52689 0.0
O6 O 0.01554 0.2195 0.51734 0.0
C7 C 0.03524 0.37863 0.46803 0.0
C8 C 0.09507 0.31044 0.33041 0.0
C9 C 0.98837 0.21321 0.47609 0.0
O10 O 0.03636 0.35063 0.42611 0.0
O11 O 0.051 0.35864 0.51121 0.0
O12 O 0.10691 0.20326 0.40115 0.0
O13 O 0.1095 0.26159 0.4652 0.0
Co14 Co 0.27764 0.92801 0.58218 0.0
O15 O 0.20992 0.89217 0.59405 0.0
O16 O 0.25463 0.89044 0.51998 0.0
C17 C 0.31932 0.89931 0.6551 0.0
O18 O 0.35017 0.95929 0.55856 0.0
Co19 Co 0.30822 0.02124 0.65945 0.0
O20 O 0.37652 0.02106 0.61831 0.0
C21 C 0.22726 0.04572 0.57878 0.0
C22 C 0.21236 0.87558 0.54693 0.0
C23 C 0.38441 0.99406 0.5768 0.0
O24 O 0.23713 0.99762 0.55891 0.0
O25 O 0.24733 0.06056 0.62174 0.0
O26 O 0.31867 0.86679 0.61539 0.0
O27 O 0.28956 0.94429 0.65119 0.0
Co28 Co 0.93164 0.71432 0.41489 0.0
O29 O 0.8757 0.68108 0.37446 0.0
O30 O 0.95785 0.7036 0.34536 0.0
C31 C 0.87715 0.77797 0.45434 0.0
O32 O -0.00085 0.74931 0.44674 0.0
Co33 Co 0.92115 0.70429 0.53408 0.0
O34 O 0.98685 0.75099 0.53243 0.0
C35 C 0.95295 0.6068 0.47256 0.0
C36 C 0.91071 0.68081 0.33703 0.0
C37 C 0.01477 0.76184 0.49241 0.0
O38 O 0.96021 0.63827 0.43358 0.0
O39 O 0.93236 0.6243 0.51489 0.0
O40 O 0.89616 0.78825 0.40875 0.0
O41 O 0.88697 0.7284 0.47104 0.0
Co42 Co 0.72091 0.06726 0.57814 0.0
O43 O 0.79358 0.09398 0.58626 0.0
O44 O 0.74515 0.1005 0.51437 0.0
C45 C 0.68463 0.10115 0.65168 0.0
O46 O 0.64428 0.04411 0.55744 0.0
Co47 Co 0.68512 0.97769 0.65704 0.0
O48 O 0.61815 0.9787 0.61405 0.0
C49 C 0.76332 0.94663 0.57692 0.0
C50 C 0.79119 0.10828 0.53839 0.0
C51 C 0.60996 0.00852 0.57423 0.0
O52 O 0.75291 0.99352 0.55493 0.0
O53 O 0.74512 0.93472 0.62141 0.0
O54 O 0.68888 0.13322 0.61182 0.0
O55 O 0.70909 0.05306 0.64776 0.0
Co56 Co 0.43366 0.78979 0.92528 0.0
O57 O 0.37825 0.82732 0.88522 0.0
O58 O 0.46219 0.80612 0.85748 0.0
C59 C 0.37904 0.72198 0.95383 0.0
O60 O 0.50097 0.74979 0.95626 0.0
Co61 Co 0.41901 0.78733 0.04214 0.0
O62 O 0.48097 0.73283 0.03867 0.0
C63 C 0.46008 0.88866 0.9945 0.0
C64 C 0.41366 0.82796 0.84821 0.0
C65 C 0.51267 0.72763 1.00001 0.0
O66 O 0.45956 0.86341 0.95117 0.0
O67 O 0.44244 0.86673 0.03586 0.0
O68 O 0.40281 0.7186 0.90945 0.0
O69 O 0.38424 0.76874 0.97779 0.0
Co70 Co 0.79504 0.564 0.07235 0.0
O71 O 0.83356 0.62117 0.10762 0.0
O72 O 0.81947 0.53706 0.13874 0.0
C73 C 0.722 0.61666 0.04829 0.0
O74 O 0.75517 0.49567 0.0466 0.0
Co75 Co 0.78255 0.57473 0.95553 0.0
O76 O 0.72718 0.51713 0.96671 0.0
C77 C 0.88682 0.53152 0.99626 0.0
C78 C 0.83937 0.58634 0.14525 0.0
C79 C 0.7268 0.48574 0.00609 0.0
O80 O 0.86539 0.5359 0.04095 0.0
O81 O 0.86191 0.54825 0.95568 0.0
O82 O 0.72562 0.59562 0.09396 0.0
O83 O 0.76612 0.61152 0.02039 0.0
Co84 Co 0.57239 0.21106 0.9221 0.0
O85 O 0.62973 0.17847 0.88047 0.0
O86 O 0.54341 0.19303 0.85523 0.0
C87 C 0.6202 0.28309 0.95131 0.0
O88 O 0.50345 0.24676 0.95365 0.0
Co89 Co 0.58653 0.21498 0.03952 0.0
O90 O 0.52559 0.27096 0.03397 0.0
C91 C 0.55273 0.11056 0.99205 0.0
C92 C 0.5932 0.17579 0.84453 0.0
C93 C 0.49325 0.27326 0.99558 0.0
O94 O 0.55198 0.13556 0.94846 0.0
O95 O 0.56842 0.13411 0.0333 0.0
O96 O 0.59742 0.28469 0.90637 0.0
O97 O 0.61939 0.23547 0.97463 0.0
Co98 Co 0.21014 0.43461 0.06638 0.0
O99 O 0.18419 0.37194 0.10411 0.0
O100 O 0.18362 0.45845 0.13339 0.0
C101 C 0.28882 0.393 0.03968 0.0
O102 O 0.23689 0.50885 0.03827 0.0
Co103 Co 0.22054 0.42377 0.94904 0.0
O104 O 0.25985 0.49426 0.95567 0.0
C105 C 0.1119 0.44631 0.99293 0.0
C106 C 0.17315 0.40625 0.14108 0.0
C107 C 0.25761 0.52497 0.99541 0.0
O108 O 0.13484 0.4487 0.03712 0.0
O109 O 0.13836 0.43462 0.95181 0.0
O110 O 0.28507 0.41533 0.08487 0.0
O111 O 0.24324 0.39114 0.01414 0.0
C112 C 0.10102 0.39789 0.20911 0.0
C113 C 0.15404 0.38474 0.1906 0.0
C114 C 0.08097 0.37223 0.25367 0.0
C115 C 0.11401 0.33387 0.28143 0.0
H116 H 0.07463 0.42715 0.18849 0.0
H117 H 0.03997 0.38323 0.26703 0.0
S118 S 0.25572 0.2862 0.2486 0.0
N119 N 0.23856 0.33061 0.20263 0.0
N120 N 0.20209 0.28446 0.28732 0.0
C121 C 0.16723 0.3212 0.26346 0.0
C122 C 0.18694 0.3461 0.21771 0.0
C123 C 0.33124 0.90834 0.74923 0.0
C124 C 0.3491 0.88469 0.70275 0.0
C125 C 0.35435 0.89126 0.79586 0.0
C126 C 0.39701 0.8507 0.79781 0.0
H127 H 0.29751 0.93864 0.74991 0.0
H128 H 0.33765 0.90906 0.83087 0.0
S129 S 0.46314 0.78082 0.68635 0.0
N130 N 0.41495 0.82188 0.66091 0.0
N131 N 0.45931 0.79051 0.74894 0.0
C132 C 0.41765 0.82912 0.75144 0.0
C133 C 0.39336 0.84586 0.70379 0.0
C134 C 0.91381 0.67537 0.24141 0.0
C135 C 0.89775 0.65273 0.28846 0.0
C136 C 0.89644 0.65211 0.19506 0.0
C137 C 0.8636 0.60464 0.19423 0.0
H138 H 0.93783 0.71266 0.2404 0.0
H139 H 0.90778 0.67231 0.15961 0.0
S140 S 0.81699 0.52555 0.30759 0.0
N141 N 0.85128 0.57771 0.3318 0.0
N142 N 0.81995 0.53315 0.24476 0.0
C143 C 0.85031 0.57963 0.24111 0.0
C144 C 0.86699 0.60398 0.28824 0.0
C145 C 0.63822 0.19391 0.76131 0.0
C146 C 0.60949 0.15752 0.79303 0.0
C147 C 0.66071 0.17563 0.71462 0.0
C148 C 0.65652 0.11996 0.69899 0.0
H149 H 0.64436 0.23646 0.77323 0.0
H150 H 0.68336 0.20475 0.6916 0.0
S151 S 0.58208 0.00951 0.76756 0.0
N152 N 0.57508 0.06469 0.80491 0.0
N153 N 0.61864 0.02953 0.71779 0.0
C154 C 0.62672 0.08354 0.73004 0.0
C155 C 0.60286 0.10257 0.77703 0.0
C156 C 0.1744 0.07368 0.49979 0.0
C157 C 0.19618 0.08792 0.54799 0.0
C158 C 0.15072 0.11422 0.46734 0.0
C159 C 0.14801 0.17045 0.48187 0.0
H160 H 0.17645 0.03102 0.48645 0.0
H161 H 0.13468 0.10141 0.43062 0.0
S162 S 0.19779 0.22994 0.60428 0.0
N163 N 0.21173 0.16268 0.60893 0.0
N164 N 0.16855 0.23844 0.54778 0.0
C165 C 0.16875 0.18518 0.5302 0.0
C166 C 0.19237 0.14405 0.56334 0.0
C167 C 0.14339 0.80417 0.56107 0.0
C168 C 0.16799 0.84116 0.52698 0.0
C169 C 0.09515 0.77756 0.54831 0.0
C170 C 0.06896 0.787 0.50092 0.0
H171 H 0.16073 0.7969 0.59882 0.0
H172 H 0.0776 0.75019 0.57661 0.0
S173 S 0.11859 0.87803 0.39673 0.0
N174 N 0.1647 0.88421 0.44273 0.0
N175 N 0.07305 0.83388 0.41835 0.0
C176 C 0.09455 0.82183 0.46518 0.0
C177 C 0.14432 0.84904 0.47832 0.0
C178 C 0.81844 0.9168 0.50015 0.0
C179 C 0.79483 0.90351 0.54782 0.0
C180 C 0.84513 0.87609 0.47013 0.0
C181 C 0.84925 0.82052 0.48662 0.0
H182 H 0.81598 0.95899 0.48547 0.0
H183 H 0.86242 0.88828 0.4337 0.0
S184 S 0.7953 0.76363 0.60868 0.0
N185 N 0.77845 0.83047 0.61039 0.0
N186 N 0.8279 0.75414 0.55388 0.0
C187 C 0.82648 0.80667 0.53443 0.0
C188 C 0.79954 0.84808 0.5651 0.0
C189 C 0.83863 0.17532 0.48034 0.0
C190 C 0.84078 0.12855 0.51276 0.0
C191 C 0.88731 0.20055 0.46423 0.0
C192 C 0.93904 0.17926 0.48001 0.0
H193 H 0.79938 0.1946 0.47028 0.0
H194 H 0.88433 0.23898 0.44258 0.0
S195 S 0.96619 0.05084 0.55548 0.0
N196 N 0.89853 0.05714 0.55319 0.0
N197 N 0.98946 0.10428 0.52298 0.0
C198 C 0.94138 0.12966 0.50836 0.0
C199 C 0.8923 0.10434 0.52478 0.0
C200 C 0.31405 0.60423 0.02768 0.0
C201 C 0.27974 0.58148 0.99005 0.0
C202 C 0.34395 0.65255 0.01748 0.0
C203 C 0.3402 0.67903 0.96945 0.0
H204 H 0.32042 0.58276 0.06378 0.0
H205 H 0.37252 0.66714 0.04598 0.0
S206 S 0.24875 0.64183 0.86201 0.0
N207 N 0.23827 0.59378 0.90592 0.0
N208 N 0.29454 0.68343 0.88686 0.0
C209 C 0.30298 0.65901 0.93333 0.0
C210 C 0.27265 0.61052 0.94363 0.0
C211 C 0.63156 0.65851 0.0707 0.0
C212 C 0.67036 0.64566 0.03235 0.0
C213 C 0.58116 0.68405 0.05922 0.0
C214 C 0.56655 0.69836 0.00863 0.0
H215 H 0.64001 0.64898 0.11056 0.0
H216 H 0.55368 0.69302 0.09098 0.0
S217 S 0.65304 0.67257 0.8933 0.0
N218 N 0.69094 0.64822 0.94126 0.0
N219 N 0.59527 0.69689 0.91917 0.0
C220 C 0.60488 0.68577 0.96944 0.0
C221 C 0.65693 0.65939 0.9814 0.0
C222 C 0.64956 0.43488 0.96809 0.0
C223 C 0.69449 0.43462 0.00195 0.0
C224 C 0.62435 0.38571 0.95425 0.0
C225 C 0.64274 0.33405 0.97379 0.0
H226 H 0.63504 0.4733 0.95033 0.0
H227 H 0.59123 0.38817 0.92654 0.0
S228 S 0.75451 0.31089 0.06848 0.0
N229 N 0.75331 0.37879 0.05841 0.0
N230 N 0.70512 0.28574 0.03253 0.0
C231 C 0.68487 0.33328 0.01064 0.0
C232 C 0.71093 0.38377 0.02474 0.0
C233 C 0.438 0.34674 0.04058 0.0
C234 C 0.44166 0.30695 0.00115 0.0
C235 C 0.38892 0.37583 0.05092 0.0
C236 C 0.34112 0.36653 0.02236 0.0
H237 H 0.47317 0.35495 0.06459 0.0
H238 H 0.38828 0.40493 0.08259 0.0
S239 S 0.32936 0.27035 0.91207 0.0
N240 N 0.39384 0.26235 0.931 0.0
N241 N 0.30107 0.31742 0.95063 0.0
C242 C 0.34452 0.32897 0.98111 0.0
C243 C 0.3949 0.29911 0.97046 0.0
C244 C 0.98037 0.51779 0.5149 0.0
C245 C 0.97195 0.54819 0.46949 0.0
C246 C 0.00078 0.46316 0.51378 0.0
C247 C 0.01337 0.43644 0.46713 0.0
H248 H 0.97202 0.5365 0.55196 0.0
H249 H 0.00663 0.44185 0.55001 0.0
S250 S 0.99635 0.49707 0.33687 0.0
N251 N 0.97595 0.54722 0.37617 0.0
N252 N 0.01464 0.44414 0.37398 0.0
C253 C 0.00429 0.46598 0.42117 0.0
C254 C 0.98356 0.52193 0.42234 0.0
C255 C 0.52142 0.05433 0.5516 0.0
C256 C 0.55493 0.00598 0.55168 0.0
C257 C 0.46414 0.05054 0.55304 0.0
C258 C 0.43912 -0.0016 0.55363 0.0
H259 H 0.53933 0.09472 0.55686 0.0
H260 H 0.43959 0.08825 0.55889 0.0
S261 S 0.50933 0.86055 0.54233 0.0
N262 N 0.55962 0.90536 0.54353 0.0
N263 N 0.45172 0.8983 0.5451 0.0
C264 C 0.47206 0.95039 0.54622 0.0
C265 C 0.5303 0.9542 0.54557 0.0
C266 C 0.51144 0.02825 0.94933 0.0
C267 C 0.53132 0.05303 0.99436 0.0
C268 C 0.48823 0.97561 0.95009 0.0
C269 C 0.48353 0.94516 0.99589 0.0
H270 H 0.51327 0.04974 0.9129 0.0
H271 H 0.47347 0.95891 0.91424 0.0
S272 S 0.53156 0.98929 0.12425 0.0
N273 N 0.54627 0.04169 0.08614 0.0
N274 N 0.50258 0.94268 0.08737 0.0
C275 C 0.50368 0.9689 0.04123 0.0
C276 C 0.52764 0.02266 0.04048 0.0
C277 C 0.03089 0.49206 0.94894 0.0
C278 C 0.05262 0.46096 0.9903 0.0
C279 C 0.97663 0.51367 0.95018 0.0
C280 C 0.94243 0.50479 0.9928 0.0
H281 H 0.05668 0.50194 0.91652 0.0
H282 H 0.96215 0.53909 0.91841 0.0
S283 S 0.9776 0.41803 0.10697 0.0
N284 N 0.03419 0.41704 0.07215 0.0
N285 N 0.93266 0.45665 0.07456 0.0
C286 C 0.96296 0.47073 0.03291 0.0
C287 C 0.01792 0.44909 0.03164 0.0
loop_
_geom_bond_atom_site_label_1
_geom_bond_atom_site_label_2
_geom_bond_distance
_geom_bond_site_symmetry_2
_ccdc_geom_bond_type
Co0 O1 2.216 . S
Co0 O2 2.091 . S
Co0 O4 2.004 . S
Co0 O10 2.021 . S
Co0 O12 2.137 . S
Co0 O13 2.244 . S
O1 Co0 2.216 . S
O1 C8 1.247 . S
O2 Co0 2.091 . S
O2 C8 1.261 . S
C3 O12 1.247 . S
C3 O13 1.272 . S
O4 Co0 2.004 . S
O4 C9 1.259 1_455 S
Co5 O6 2.061 . S
Co5 O11 2.052 . S
Co5 O13 2.135 . S
O6 Co5 2.061 . S
O6 C9 1.235 1_455 S
C7 O10 1.238 . S
C7 O11 1.241 . S
C8 O1 1.247 . S
C8 O2 1.261 . S
C9 O4 1.259 1_655 S
C9 O6 1.235 1_655 S
O10 Co0 2.021 . S
O10 C7 1.238 . S
O11 Co5 2.052 . S
O11 C7 1.241 . S
O12 Co0 2.137 . S
O12 C3 1.247 . S
O13 Co0 2.244 . S
O13 C3 1.272 . S
O13 Co5 2.135 . S
Co14 O15 2.216 . S
Co14 O16 2.091 . S
Co14 O18 2.004 . S
Co14 O24 2.021 . S
Co14 O26 2.137 . S
Co14 O27 2.244 . S
O15 Co14 2.216 . S
O15 C22 1.247 . S
O16 Co14 2.091 . S
O16 C22 1.261 . S
C17 O26 1.247 . S
C17 O27 1.272 . S
O18 Co14 2.004 . S
O18 C23 1.259 . S
Co19 O20 2.061 1_545 S
Co19 O25 2.052 . S
Co19 O27 2.135 1_545 S
O20 Co19 2.061 1_565 S
O20 C23 1.235 . S
C21 O24 1.238 1_545 S
C21 O25 1.241 . S
C22 O15 1.247 . S
C22 O16 1.261 . S
C23 O18 1.259 . S
C23 O20 1.235 . S
O24 Co14 2.021 . S
O24 C21 1.238 1_565 S
O25 Co19 2.052 . S
O25 C21 1.241 . S
O26 Co14 2.137 . S
O26 C17 1.247 . S
O27 Co14 2.244 . S
O27 C17 1.272 . S
O27 Co19 2.135 1_565 S
Co28 O29 2.216 . S
Co28 O30 2.091 . S
Co28 O32 2.004 . S
Co28 O38 2.021 . S
Co28 O40 2.137 . S
Co28 O41 2.244 . S
O29 Co28 2.216 . S
O29 C36 1.247 . S
O30 Co28 2.091 . S
O30 C36 1.261 . S
C31 O40 1.247 . S
C31 O41 1.272 . S
O32 Co28 2.004 . S
O32 C37 1.259 1_655 S
Co33 O34 2.061 . S
Co33 O39 2.052 . S
Co33 O41 2.135 . S
O34 Co33 2.061 . S
O34 C37 1.235 1_655 S
C35 O38 1.238 . S
C35 O39 1.241 . S
C36 O29 1.247 . S
C36 O30 1.261 . S
C37 O32 1.259 1_455 S
C37 O34 1.235 1_455 S
O38 Co28 2.021 . S
O38 C35 1.238 . S
O39 Co33 2.052 . S
O39 C35 1.241 . S
O40 Co28 2.137 . S
O40 C31 1.247 . S
O41 Co28 2.244 . S
O41 C31 1.272 . S
O41 Co33 2.135 . S
Co42 O43 2.216 . S
Co42 O44 2.091 . S
Co42 O46 2.004 . S
Co42 O52 2.021 . S
Co42 O54 2.137 . S
Co42 O55 2.244 . S
O43 Co42 2.216 . S
O43 C50 1.247 . S
O44 Co42 2.091 . S
O44 C50 1.261 . S
C45 O54 1.247 . S
C45 O55 1.272 . S
O46 Co42 2.004 . S
O46 C51 1.259 . S
Co47 O48 2.061 1_565 S
Co47 O53 2.052 . S
Co47 O55 2.135 1_565 S
O48 Co47 2.061 1_545 S
O48 C51 1.235 . S
C49 O52 1.238 1_565 S
C49 O53 1.241 . S
C50 O43 1.247 . S
C50 O44 1.261 . S
C51 O46 1.259 . S
C51 O48 1.235 . S
O52 Co42 2.021 . S
O52 C49 1.238 1_545 S
O53 Co47 2.052 . S
O53 C49 1.241 . S
O54 Co42 2.137 . S
O54 C45 1.247 . S
O55 Co42 2.244 . S
O55 C45 1.272 . S
O55 Co47 2.135 1_545 S
Co56 O57 2.216 . S
Co56 O58 2.091 . S
Co56 O60 2.004 . S
Co56 O66 2.021 . S
Co56 O68 2.137 . S
Co56 O69 2.244 1_556 S
O57 Co56 2.216 . S
O57 C64 1.247 . S
O58 Co56 2.091 . S
O58 C64 1.261 . S
C59 O68 1.247 . S
C59 O69 1.272 1_556 S
O60 Co56 2.004 . S
O60 C65 1.259 . S
Co61 O62 2.061 . S
Co61 O67 2.052 . S
Co61 O69 2.135 . S
O62 Co61 2.061 . S
O62 C65 1.235 1_554 S
C63 O66 1.238 . S
C63 O67 1.241 1_556 S
C64 O57 1.247 . S
C64 O58 1.261 . S
C65 O60 1.259 . S
C65 O62 1.235 1_556 S
O66 Co56 2.021 . S
O66 C63 1.238 . S
O67 Co61 2.052 . S
O67 C63 1.241 1_554 S
O68 Co56 2.137 . S
O68 C59 1.247 . S
O69 Co56 2.244 1_554 S
O69 C59 1.272 1_554 S
O69 Co61 2.135 . S
Co70 O71 2.216 . S
Co70 O72 2.091 . S
Co70 O74 2.004 . S
Co70 O80 2.021 . S
Co70 O82 2.137 . S
Co70 O83 2.244 1_554 S
O71 Co70 2.216 . S
O71 C78 1.247 . S
O72 Co70 2.091 . S
O72 C78 1.261 . S
C73 O82 1.247 . S
C73 O83 1.272 1_554 S
O74 Co70 2.004 . S
O74 C79 1.259 . S
Co75 O76 2.061 . S
Co75 O81 2.052 . S
Co75 O83 2.135 . S
O76 Co75 2.061 . S
O76 C79 1.235 1_556 S
C77 O80 1.238 . S
C77 O81 1.241 1_554 S
C78 O71 1.247 . S
C78 O72 1.261 . S
C79 O74 1.259 . S
C79 O76 1.235 1_554 S
O80 Co70 2.021 . S
O80 C77 1.238 . S
O81 Co75 2.052 . S
O81 C77 1.241 1_556 S
O82 Co70 2.137 . S
O82 C73 1.247 . S
O83 Co70 2.244 1_556 S
O83 C73 1.272 1_556 S
O83 Co75 2.135 . S
Co84 O85 2.216 . S
Co84 O86 2.091 . S
Co84 O88 2.004 . S
Co84 O94 2.021 . S
Co84 O96 2.137 . S
Co84 O97 2.244 1_556 S
O85 Co84 2.216 . S
O85 C92 1.247 . S
O86 Co84 2.091 . S
O86 C92 1.261 . S
C87 O96 1.247 . S
C87 O97 1.272 1_556 S
O88 Co84 2.004 . S
O88 C93 1.259 . S
Co89 O90 2.061 . S
Co89 O95 2.052 . S
Co89 O97 2.135 . S
O90 Co89 2.061 . S
O90 C93 1.235 1_554 S
C91 O94 1.238 . S
C91 O95 1.241 1_556 S
C92 O85 1.247 . S
C92 O86 1.261 . S
C93 O88 1.259 . S
C93 O90 1.235 1_556 S
O94 Co84 2.021 . S
O94 C91 1.238 . S
O95 Co89 2.052 . S
O95 C91 1.241 1_554 S
O96 Co84 2.137 . S
O96 C87 1.247 . S
O97 Co84 2.244 1_554 S
O97 C87 1.272 1_554 S
O97 Co89 2.135 . S
Co98 O99 2.216 . S
Co98 O100 2.091 . S
Co98 O102 2.004 . S
Co98 O108 2.021 . S
Co98 O110 2.137 . S
Co98 O111 2.244 1_554 S
O99 Co98 2.216 . S
O99 C106 1.247 . S
O100 Co98 2.091 . S
O100 C106 1.261 . S
C101 O110 1.247 . S
C101 O111 1.272 1_554 S
O102 Co98 2.004 . S
O102 C107 1.259 . S
Co103 O104 2.061 . S
Co103 O109 2.052 . S
Co103 O111 2.135 . S
O104 Co103 2.061 . S
O104 C107 1.235 1_556 S
C105 O108 1.238 . S
C105 O109 1.241 1_554 S
C106 O99 1.247 . S
C106 O100 1.261 . S
C107 O102 1.259 . S
C107 O104 1.235 1_554 S
O108 Co98 2.021 . S
O108 C105 1.238 . S
O109 Co103 2.052 . S
O109 C105 1.241 1_556 S
O110 Co98 2.137 . S
O110 C101 1.247 . S
O111 Co98 2.244 1_556 S
O111 C101 1.272 1_556 S
O111 Co103 2.135 . S
C112 C113 1.369 . S
C112 C114 1.419 . S
C112 H116 0.930 . S
C113 C112 1.369 . S
C113 C122 1.429 . S
C114 C112 1.419 . S
C114 C115 1.363 . S
C114 H117 0.929 . S
C115 C114 1.363 . S
C115 C121 1.428 . S
H116 C112 0.930 . S
H117 C114 0.929 . S
S118 N119 1.613 . S
S118 N120 1.610 . S
N119 S118 1.613 . S
N119 C122 1.350 . S
N120 S118 1.610 . S
N120 C121 1.351 . S
C121 C115 1.428 . S
C121 N120 1.351 . S
C121 C122 1.434 . S
C122 C113 1.429 . S
C122 N119 1.350 . S
C122 C121 1.434 . S
C123 C124 1.369 . S
C123 C125 1.419 . S
C123 H127 0.930 . S
C124 C123 1.369 . S
C124 C133 1.429 . S
C125 C123 1.419 . S
C125 C126 1.363 . S
C125 H128 0.929 . S
C126 C125 1.363 . S
C126 C132 1.428 . S
H127 C123 0.930 . S
H128 C125 0.929 . S
S129 N130 1.613 . S
S129 N131 1.610 . S
N130 S129 1.613 . S
N130 C133 1.350 . S
N131 S129 1.610 . S
N131 C132 1.351 . S
C132 C126 1.428 . S
C132 N131 1.351 . S
C132 C133 1.434 . S
C133 C124 1.429 . S
C133 N130 1.350 . S
C133 C132 1.434 . S
C134 C135 1.369 . S
C134 C136 1.419 . S
C134 H138 0.930 . S
C135 C134 1.369 . S
C135 C144 1.429 . S
C136 C134 1.419 . S
C136 C137 1.363 . S
C136 H139 0.929 . S
C137 C136 1.363 . S
C137 C143 1.428 . S
H138 C134 0.930 . S
H139 C136 0.929 . S
S140 N141 1.613 . S
S140 N142 1.610 . S
N141 S140 1.613 . S
N141 C144 1.350 . S
N142 S140 1.610 . S
N142 C143 1.351 . S
C143 C137 1.428 . S
C143 N142 1.351 . S
C143 C144 1.434 . S
C144 C135 1.429 . S
C144 N141 1.350 . S
C144 C143 1.434 . S
C145 C146 1.369 . S
C145 C147 1.419 . S
C145 H149 0.930 . S
C146 C145 1.369 . S
C146 C155 1.429 . S
C147 C145 1.419 . S
C147 C148 1.363 . S
C147 H150 0.929 . S
C148 C147 1.363 . S
C148 C154 1.428 . S
H149 C145 0.930 . S
H150 C147 0.929 . S
S151 N152 1.613 . S
S151 N153 1.610 . S
N152 S151 1.613 . S
N152 C155 1.350 . S
N153 S151 1.610 . S
N153 C154 1.351 . S
C154 C148 1.428 . S
C154 N153 1.351 . S
C154 C155 1.434 . S
C155 C146 1.429 . S
C155 N152 1.350 . S
C155 C154 1.434 . S
C156 C157 1.369 . S
C156 C158 1.419 . S
C156 H160 0.930 . S
C157 C156 1.369 . S
C157 C166 1.429 . S
C158 C156 1.419 . S
C158 C159 1.363 . S
C158 H161 0.929 . S
C159 C158 1.363 . S
C159 C165 1.428 . S
H160 C156 0.930 . S
H161 C158 0.929 . S
S162 N163 1.613 . S
S162 N164 1.610 . S
N163 S162 1.613 . S
N163 C166 1.350 . S
N164 S162 1.610 . S
N164 C165 1.351 . S
C165 C159 1.428 . S
C165 N164 1.351 . S
C165 C166 1.434 . S
C166 C157 1.429 . S
C166 N163 1.350 . S
C166 C165 1.434 . S
C167 C168 1.369 . S
C167 C169 1.419 . S
C167 H171 0.930 . S
C168 C167 1.369 . S
C168 C177 1.429 . S
C169 C167 1.419 . S
C169 C170 1.363 . S
C169 H172 0.929 . S
C170 C169 1.363 . S
C170 C176 1.428 . S
H171 C167 0.930 . S
H172 C169 0.929 . S
S173 N174 1.613 . S
S173 N175 1.610 . S
N174 S173 1.613 . S
N174 C177 1.350 . S
N175 S173 1.610 . S
N175 C176 1.351 . S
C176 C170 1.428 . S
C176 N175 1.351 . S
C176 C177 1.434 . S
C177 C168 1.429 . S
C177 N174 1.350 . S
C177 C176 1.434 . S
C178 C179 1.369 . S
C178 C180 1.419 . S
C178 H182 0.930 . S
C179 C178 1.369 . S
C179 C188 1.429 . S
C180 C178 1.419 . S
C180 C181 1.363 . S
C180 H183 0.929 . S
C181 C180 1.363 . S
C181 C187 1.428 . S
H182 C178 0.930 . S
H183 C180 0.929 . S
S184 N185 1.613 . S
S184 N186 1.610 . S
N185 S184 1.613 . S
N185 C188 1.350 . S
N186 S184 1.610 . S
N186 C187 1.351 . S
C187 C181 1.428 . S
C187 N186 1.351 . S
C187 C188 1.434 . S
C188 C179 1.429 . S
C188 N185 1.350 . S
C188 C187 1.434 . S
C189 C190 1.369 . S
C189 C191 1.419 . S
C189 H193 0.930 . S
C190 C189 1.369 . S
C190 C199 1.429 . S
C191 C189 1.419 . S
C191 C192 1.363 . S
C191 H194 0.929 . S
C192 C191 1.363 . S
C192 C198 1.428 . S
H193 C189 0.930 . S
H194 C191 0.929 . S
S195 N196 1.613 . S
S195 N197 1.610 . S
N196 S195 1.613 . S
N196 C199 1.350 . S
N197 S195 1.610 . S
N197 C198 1.351 . S
C198 C192 1.428 . S
C198 N197 1.351 . S
C198 C199 1.434 . S
C199 C190 1.429 . S
C199 N196 1.350 . S
C199 C198 1.434 . S
C200 C201 1.369 . S
C200 C202 1.419 . S
C200 H204 0.930 . S
C201 C200 1.369 . S
C201 C210 1.429 1_554 S
C202 C200 1.419 . S
C202 C203 1.363 1_554 S
C202 H205 0.929 . S
C203 C202 1.363 1_556 S
C203 C209 1.428 . S
H204 C200 0.930 . S
H205 C202 0.929 . S
S206 N207 1.613 . S
S206 N208 1.610 . S
N207 S206 1.613 . S
N207 C210 1.350 . S
N208 S206 1.610 . S
N208 C209 1.351 . S
C209 C203 1.428 . S
C209 N208 1.351 . S
C209 C210 1.434 . S
C210 C201 1.429 1_556 S
C210 N207 1.350 . S
C210 C209 1.434 . S
C211 C212 1.361 1_554 S
C211 C213 1.419 . S
C211 H215 0.930 . S
C212 C211 1.361 1_556 S
C212 C221 1.439 . S
C213 C211 1.419 . S
C213 C214 1.363 1_554 S
C213 H216 0.929 . S
C214 C213 1.363 1_556 S
C214 C220 1.428 . S
H215 C211 0.930 . S
H216 C213 0.929 . S
S217 N218 1.613 . S
S217 N219 1.610 . S
N218 S217 1.613 . S
N218 C221 1.350 . S
N219 S217 1.610 . S
N219 C220 1.351 . S
C220 C214 1.428 . S
C220 N219 1.351 . S
C220 C221 1.434 . S
C221 C212 1.439 . S
C221 N218 1.350 . S
C221 C220 1.434 . S
C222 C223 1.369 1_556 S
C222 C224 1.419 . S
C222 H226 0.930 . S
C223 C222 1.369 1_554 S
C223 C232 1.429 . S
C224 C222 1.419 . S
C224 C225 1.368 . S
C224 H227 0.929 . S
C225 C224 1.368 . S
C225 C231 1.423 1_556 S
H226 C222 0.930 . S
H227 C224 0.929 . S
S228 N229 1.613 . S
S228 N230 1.610 . S
N229 S228 1.613 . S
N229 C232 1.350 . S
N230 S228 1.610 . S
N230 C231 1.351 . S
C231 C225 1.423 1_554 S
C231 N230 1.351 . S
C231 C232 1.434 . S
C232 C223 1.429 . S
C232 N229 1.350 . S
C232 C231 1.434 . S
C233 C234 1.369 1_554 S
C233 C235 1.419 . S
C233 H237 0.930 . S
C234 C233 1.369 1_556 S
C234 C243 1.429 . S
C235 C233 1.419 . S
C235 C236 1.355 1_554 S
C235 H238 0.929 . S
C236 C235 1.355 1_556 S
C236 C242 1.438 . S
H237 C233 0.930 . S
H238 C235 0.929 . S
S239 N240 1.613 . S
S239 N241 1.610 . S
N240 S239 1.613 . S
N240 C243 1.350 . S
N241 S239 1.610 . S
N241 C242 1.351 . S
C242 C236 1.438 . S
C242 N241 1.351 . S
C242 C243 1.434 . S
C243 C234 1.429 . S
C243 N240 1.350 . S
C243 C242 1.434 . S
C244 C245 1.369 . S
C244 C246 1.419 . S
C244 H248 0.930 . S
C245 C244 1.369 . S
C245 C254 1.429 1_655 S
C246 C244 1.419 . S
C246 C247 1.363 1_655 S
C246 H249 0.929 . S
C247 C246 1.363 1_455 S
C247 C253 1.428 . S
H248 C244 0.930 . S
H249 C246 0.929 . S
S250 N251 1.613 . S
S250 N252 1.610 . S
N251 S250 1.613 . S
N251 C254 1.350 . S
N252 S250 1.610 . S
N252 C253 1.351 . S
C253 C247 1.428 . S
C253 N252 1.351 . S
C253 C254 1.434 . S
C254 C245 1.429 1_455 S
C254 N251 1.350 . S
C254 C253 1.434 . S
C255 C256 1.369 . S
C255 C257 1.419 . S
C255 H259 0.930 . S
C256 C255 1.369 . S
C256 C265 1.429 1_545 S
C257 C255 1.419 . S
C257 C258 1.363 1_545 S
C257 H260 0.929 . S
C258 C257 1.363 1_565 S
C258 C264 1.428 . S
H259 C255 0.930 . S
H260 C257 0.929 . S
S261 N262 1.613 . S
S261 N263 1.610 . S
N262 S261 1.613 . S
N262 C265 1.350 . S
N263 S261 1.610 . S
N263 C264 1.351 . S
C264 C258 1.428 . S
C264 N263 1.351 . S
C264 C265 1.434 . S
C265 C256 1.429 1_565 S
C265 N262 1.350 . S
C265 C264 1.434 . S
C266 C267 1.369 . S
C266 C268 1.419 . S
C266 H270 0.930 . S
C267 C266 1.369 . S
C267 C276 1.429 1_545 S
C268 C266 1.419 . S
C268 C269 1.363 1_545 S
C268 H271 0.929 . S
C269 C268 1.363 1_565 S
C269 C275 1.428 . S
H270 C266 0.930 . S
H271 C268 0.929 . S
S272 N273 1.613 . S
S272 N274 1.610 . S
N273 S272 1.613 . S
N273 C276 1.350 . S
N274 S272 1.610 . S
N274 C275 1.351 . S
C275 C269 1.428 . S
C275 N274 1.351 . S
C275 C276 1.434 . S
C276 C267 1.429 1_565 S
C276 N273 1.350 . S
C276 C275 1.434 . S
C277 C278 1.369 1_556 S
C277 C279 1.419 1_455 S
C277 H281 0.930 . S
C278 C277 1.369 1_554 S
C278 C287 1.429 . S
C279 C277 1.419 1_655 S
C279 C280 1.363 1_556 S
C279 H282 0.929 . S
C280 C279 1.363 1_554 S
C280 C286 1.428 . S
H281 C277 0.930 . S
H282 C279 0.929 . S
S283 N284 1.613 1_655 S
S283 N285 1.610 . S
N284 S283 1.613 1_455 S
N284 C287 1.350 . S
N285 S283 1.610 . S
N285 C286 1.351 . S
C286 C280 1.428 . S
C286 N285 1.351 . S
C286 C287 1.434 1_655 S
C287 C278 1.429 . S
C287 N284 1.350 . S
C287 C286 1.434 1_455 S
C113 C106 1.555 . S
C115 C8 1.552 . S
C124 C17 1.541 . S
C126 C64 1.534 . S
C135 C36 1.552 . S
C137 C78 1.553 . S
C146 C92 1.535 . S
C148 C45 1.541 . S
C157 C21 1.430 . S
C159 C3 1.438 . S
C168 C22 1.476 . S
C170 C37 1.507 . S
C179 C49 1.436 . S
C181 C31 1.434 . S
C190 C50 1.474 . S
C192 C9 1.507 . S
C201 C107 1.568 . S
C203 C59 1.491 . S
C212 C73 1.471 1_556 S
C214 C65 1.539 . S
C223 C79 1.567 . S
C225 C87 1.499 . S
C234 C93 1.539 . S
C236 C101 1.474 1_556 S
C245 C35 1.250 . S
C247 C7 1.255 . S
C256 C51 1.152 . S
C258 C23 1.157 . S
C267 C91 1.271 . S
C269 C63 1.263 . S
C278 C105 1.286 . S
C280 C77 1.282 . S
