# Generated by pormake.
# Topology umc, (4)-cn, num edge types: 1
# Building blocks:
#     Node 0, Type 0, BuildingBlock: QUQFOY_clean_sbu_3, # of connection points: 4
#     Node 1, Type 0, BuildingBlock: QUQFOY_clean_sbu_3, # of connection points: 4
#     Node 2, Type 0, BuildingBlock: QUQFOY_clean_sbu_3, # of connection points: 4
#     Node 3, Type 0, BuildingBlock: QUQFOY_clean_sbu_3, # of connection points: 4
#     Node 4, Type 0, BuildingBlock: QUQFOY_clean_sbu_3, # of connection points: 4
#     Node 5, Type 0, BuildingBlock: QUQFOY_clean_sbu_3, # of connection points: 4
#     Node 6, Type 0, BuildingBlock: QUQFOY_clean_sbu_3, # of connection points: 4
#     Node 7, Type 0, BuildingBlock: QUQFOY_clean_sbu_3, # of connection points: 4
#     Node 8, Type 0, BuildingBlock: QUQFOY_clean_sbu_3, # of connection points: 4
#     Node 9, Type 0, BuildingBlock: QUQFOY_clean_sbu_3, # of connection points: 4
#     Node 10, Type 0, BuildingBlock: QUQFOY_clean_sbu_3, # of connection points: 4
#     Node 11, Type 0, BuildingBlock: QUQFOY_clean_sbu_3, # of connection points: 4
#     Node 12, Type 0, BuildingBlock: QUQFOY_clean_sbu_3, # of connection points: 4
#     Node 13, Type 0, BuildingBlock: QUQFOY_clean_sbu_3, # of connection points: 4
#     Node 14, Type 0, BuildingBlock: QUQFOY_clean_sbu_3, # of connection points: 4
#     Node 15, Type 0, BuildingBlock: QUQFOY_clean_sbu_3, # of connection points: 4
#     Edge 16, Type (0, 0), BuildingBlock: MIFKUJ_clean_linker_0, # of connection points: 2
#     Edge 17, Type (0, 0), BuildingBlock: MIFKUJ_clean_linker_0, # of connection points: 2
#     Edge 18, Type (0, 0), BuildingBlock: MIFKUJ_clean_linker_0, # of connection points: 2
#     Edge 19, Type (0, 0), BuildingBlock: MIFKUJ_clean_linker_0, # of connection points: 2
#     Edge 20, Type (0, 0), BuildingBlock: MIFKUJ_clean_linker_0, # of connection points: 2
#     Edge 21, Type (0, 0), BuildingBlock: MIFKUJ_clean_linker_0, # of connection points: 2
#     Edge 22, Type (0, 0), BuildingBlock: MIFKUJ_clean_linker_0, # of connection points: 2
#     Edge 23, Type (0, 0), BuildingBlock: MIFKUJ_clean_linker_0, # of connection points: 2
#     Edge 24, Type (0, 0), BuildingBlock: MIFKUJ_clean_linker_0, # of connection points: 2
#     Edge 25, Type (0, 0), BuildingBlock: MIFKUJ_clean_linker_0, # of connection points: 2
#     Edge 26, Type (0, 0), BuildingBlock: MIFKUJ_clean_linker_0, # of connection points: 2
#     Edge 27, Type (0, 0), BuildingBlock: MIFKUJ_clean_linker_0, # of connection points: 2
#     Edge 28, Type (0, 0), BuildingBlock: MIFKUJ_clean_linker_0, # of connection points: 2
#     Edge 29, Type (0, 0), BuildingBlock: MIFKUJ_clean_linker_0, # of connection points: 2
#     Edge 30, Type (0, 0), BuildingBlock: MIFKUJ_clean_linker_0, # of connection points: 2
#     Edge 31, Type (0, 0), BuildingBlock: MIFKUJ_clean_linker_0, # of connection points: 2
#     Edge 32, Type (0, 0), BuildingBlock: MIFKUJ_clean_linker_0, # of connection points: 2
#     Edge 33, Type (0, 0), BuildingBlock: MIFKUJ_clean_linker_0, # of connection points: 2
#     Edge 34, Type (0, 0), BuildingBlock: MIFKUJ_clean_linker_0, # of connection points: 2
#     Edge 35, Type (0, 0), BuildingBlock: MIFKUJ_clean_linker_0, # of connection points: 2
#     Edge 36, Type (0, 0), BuildingBlock: MIFKUJ_clean_linker_0, # of connection points: 2
#     Edge 37, Type (0, 0), BuildingBlock: MIFKUJ_clean_linker_0, # of connection points: 2
#     Edge 38, Type (0, 0), BuildingBlock: MIFKUJ_clean_linker_0, # of connection points: 2
#     Edge 39, Type (0, 0), BuildingBlock: MIFKUJ_clean_linker_0, # of connection points: 2
#     Edge 40, Type (0, 0), BuildingBlock: MIFKUJ_clean_linker_0, # of connection points: 2
#     Edge 41, Type (0, 0), BuildingBlock: MIFKUJ_clean_linker_0, # of connection points: 2
#     Edge 42, Type (0, 0), BuildingBlock: MIFKUJ_clean_linker_0, # of connection points: 2
#     Edge 43, Type (0, 0), BuildingBlock: MIFKUJ_clean_linker_0, # of connection points: 2
#     Edge 44, Type (0, 0), BuildingBlock: MIFKUJ_clean_linker_0, # of connection points: 2
#     Edge 45, Type (0, 0), BuildingBlock: MIFKUJ_clean_linker_0, # of connection points: 2
#     Edge 46, Type (0, 0), BuildingBlock: MIFKUJ_clean_linker_0, # of connection points: 2
#     Edge 47, Type (0, 0), BuildingBlock: MIFKUJ_clean_linker_0, # of connection points: 2
# Relax obj value: 0.086
# Max RMSD: 0.169
# Mean RMSD: 0.169
data_MOF--net-umc--node1-QUQFOY_clean_sbu_3--edge1-MIFKUJ_clean_linker_0
_symmetry_space_group_name_H-M    P1
_symmetry_Int_Tables_number       1
_symmetry_cell_setting            triclinic
loop_
_symmetry_equiv_pos_as_xyz
'x, y, z'
_cell_length_a     58.419613
_cell_length_b     45.275456
_cell_length_c     75.219426
_cell_angle_alpha  90.115487
_cell_angle_beta   89.961674
_cell_angle_gamma 90.081836
loop_
_atom_site_label
_atom_site_type_symbol
_atom_site_fract_x
_atom_site_fract_y
_atom_site_fract_z
_atom_type_partial_charge
C0 C 0.29885 0.00362 0.32603 0.0
O1 O 0.30085 0.98257 0.33705 0.0
Cd2 Cd 0.31843 0.99008 0.36548 0.0
O3 O 0.3053 0.02962 0.33015 0.0
Cd4 Cd 0.32089 0.05952 0.35466 0.0
C5 C 0.37044 0.02087 0.35253 0.0
O6 O 0.30056 0.03277 0.37801 0.0
O7 O 0.32629 0.06407 0.38639 0.0
O8 O 0.29234 0.09352 0.34322 0.0
C9 C 0.3109 0.04567 0.39065 0.0
O10 O 0.35882 -0.00043 0.35896 0.0
C11 C 0.30372 0.1169 0.34609 0.0
O12 O 0.36092 0.04543 0.34875 0.0
O13 O 0.32364 0.11383 0.35261 0.0
C14 C 0.68703 0.98604 0.32555 0.0
O15 O 0.6855 0.01052 0.3337 0.0
Cd16 Cd 0.66695 0.01106 0.36233 0.0
O17 O 0.67983 0.96249 0.33279 0.0
Cd18 Cd 0.66377 0.94278 0.36017 0.0
C19 C 0.61438 0.97954 0.35336 0.0
O20 O 0.6841 0.97464 0.38152 0.0
O21 O 0.65637 0.94735 0.39136 0.0
O22 O 0.69461 0.9082 0.35611 0.0
C23 C 0.67299 0.96451 0.3947 0.0
O24 O 0.62628 0.00227 0.35717 0.0
C25 C 0.68293 0.88481 0.3579 0.0
O26 O 0.62367 0.95409 0.35253 0.0
O27 O 0.66157 0.88799 0.36067 0.0
C28 C 0.29913 0.97774 0.14226 0.0
O29 O 0.30161 0.00179 0.13383 0.0
Cd30 Cd 0.32191 0.00301 0.10604 0.0
O31 O 0.30619 0.95356 0.13564 0.0
Cd32 Cd 0.32344 0.93213 0.10888 0.0
C33 C 0.37278 0.96844 0.11776 0.0
O34 O 0.30704 0.96548 0.0868 0.0
O35 O 0.33481 0.93721 0.07828 0.0
O36 O 0.29157 0.89822 0.10974 0.0
C37 C 0.31991 0.95644 0.07433 0.0
O38 O 0.36154 0.99142 0.11339 0.0
C39 C 0.30318 0.87459 0.10962 0.0
O40 O 0.36311 0.94313 0.11822 0.0
O41 O 0.32486 0.87737 0.10921 0.0
C42 C 0.68857 -0.00333 0.14158 0.0
O43 O 0.68671 0.97555 0.13056 0.0
Cd44 Cd 0.66809 0.98445 0.10259 0.0
O45 O 0.68157 0.02236 0.13753 0.0
Cd46 Cd 0.66527 0.05139 0.11333 0.0
C47 C 0.61594 0.01266 0.11614 0.0
O48 O 0.68564 0.0269 0.08895 0.0
O49 O 0.65819 0.05676 0.08198 0.0
O50 O 0.69534 0.08522 0.122 0.0
C51 C 0.6748 0.04079 0.07699 0.0
O52 O 0.62757 0.99164 0.10941 0.0
C53 C 0.68333 0.10849 0.1217 0.0
O54 O 0.62542 0.03731 0.11987 0.0
O55 O 0.66222 0.10538 0.11797 0.0
C56 C 0.68376 0.98587 0.64356 0.0
O57 O 0.68235 0.00859 0.63377 0.0
Cd58 Cd 0.66456 0.00505 0.60506 0.0
O59 O 0.67704 0.96086 0.63788 0.0
Cd60 Cd 0.66228 0.93565 0.61148 0.0
C61 C 0.61229 0.97304 0.61529 0.0
O62 O 0.68319 0.9653 0.58971 0.0
O63 O 0.65766 0.93499 0.57956 0.0
O64 O 0.693 0.9019 0.61807 0.0
C65 C 0.67364 0.95324 0.57641 0.0
O66 O 0.62398 0.99543 0.61051 0.0
C67 C 0.68134 0.87831 0.61735 0.0
O68 O 0.62185 0.94798 0.61744 0.0
O69 O 0.66005 0.88107 0.61416 0.0
C70 C 0.29591 0.00165 0.64139 0.0
O71 O 0.29781 0.97961 0.63104 0.0
Cd72 Cd 0.31714 0.98439 0.60303 0.0
O73 O 0.30297 0.02701 0.6366 0.0
Cd74 Cd 0.31929 0.05398 0.61133 0.0
C75 C 0.36866 0.0159 0.61642 0.0
O76 O 0.30109 0.02555 0.58755 0.0
O77 O 0.32848 0.05525 0.5801 0.0
O78 O 0.2881 0.08779 0.61701 0.0
C79 C 0.31303 0.03722 0.57533 0.0
O80 O 0.35715 0.99405 0.61052 0.0
C81 C 0.29991 0.11131 0.61691 0.0
O82 O 0.35918 0.04096 0.61894 0.0
O83 O 0.32136 0.10843 0.61449 0.0
C84 C 0.70027 0.0058 0.82686 0.0
O85 O 0.69621 0.98439 0.83726 0.0
Cd86 Cd 0.67747 0.99408 0.86535 0.0
O87 O 0.69439 0.03188 0.83107 0.0
Cd88 Cd 0.67695 0.06159 0.85433 0.0
C89 C 0.6267 0.02465 0.85108 0.0
O90 O 0.69502 0.0362 0.87927 0.0
O91 O 0.66815 0.06748 0.88545 0.0
O92 O 0.70876 0.0938 0.84809 0.0
C93 C 0.6838 0.05039 0.89094 0.0
O94 O 0.63731 0.00388 0.85893 0.0
C95 C 0.69743 0.11748 0.84647 0.0
O96 O 0.63719 0.04804 0.84622 0.0
O97 O 0.67579 0.11544 0.84809 0.0
C98 C 0.30963 0.98917 0.82489 0.0
O99 O 0.31256 0.01336 0.83315 0.0
Cd100 Cd 0.33282 0.01415 0.86111 0.0
O101 O 0.31691 0.9651 0.83142 0.0
Cd102 Cd 0.33568 0.94387 0.85735 0.0
C103 C 0.38444 0.98208 0.84944 0.0
O104 O 0.31803 0.97579 0.87972 0.0
O105 O 0.34638 0.94857 0.88826 0.0
O106 O 0.30495 0.90823 0.85615 0.0
C107 C 0.33072 0.96678 0.89228 0.0
O108 O 0.3731 0.00436 0.85488 0.0
C109 C 0.3173 0.88526 0.85557 0.0
O110 O 0.37482 0.95695 0.84747 0.0
O111 O 0.33888 0.88923 0.85582 0.0
C112 C 0.79428 0.50533 0.31986 0.0
O113 O 0.79785 0.48058 0.32722 0.0
Cd114 Cd 0.81904 0.47884 0.35465 0.0
O115 O 0.80104 0.52903 0.32726 0.0
Cd116 Cd 0.81936 0.54729 0.35436 0.0
C117 C 0.86944 0.51424 0.34395 0.0
O118 O 0.80304 0.51261 0.3761 0.0
O119 O 0.83118 0.54045 0.38464 0.0
O120 O 0.78769 0.58134 0.35643 0.0
C121 C 0.8156 0.5221 0.38867 0.0
O122 O 0.85878 0.49047 0.34764 0.0
C123 C 0.79937 0.60491 0.3559 0.0
O124 O 0.85911 0.53905 0.3444 0.0
O125 O 0.82097 0.60205 0.35456 0.0
C126 C 0.18861 0.50143 0.32364 0.0
O127 O 0.18579 0.52334 0.33394 0.0
Cd128 Cd 0.1638 0.51601 0.36067 0.0
O129 O 0.18104 0.47612 0.32798 0.0
Cd130 Cd 0.16233 0.4483 0.35174 0.0
C131 C 0.1134 0.48564 0.34458 0.0
O132 O 0.17951 0.47494 0.37697 0.0
O133 O 0.15109 0.44565 0.38244 0.0
O134 O 0.19278 0.41467 0.3434 0.0
C135 C 0.16671 0.46242 0.38836 0.0
O136 O 0.12408 0.50737 0.3515 0.0
C137 C 0.18128 0.39108 0.34504 0.0
O138 O 0.12348 0.46103 0.34201 0.0
O139 O 0.16046 0.39375 0.3497 0.0
C140 C 0.79787 0.4973 0.13765 0.0
O141 O 0.80156 0.51901 0.12739 0.0
Cd142 Cd 0.82284 0.51156 0.10031 0.0
O143 O 0.80425 0.47148 0.13323 0.0
Cd144 Cd 0.8217 0.44327 0.10899 0.0
C145 C 0.87231 0.47827 0.11554 0.0
O146 O 0.80597 0.47131 0.08403 0.0
O147 O 0.83263 0.43956 0.07816 0.0
O148 O 0.78939 0.41026 0.11184 0.0
C149 C 0.81787 0.45775 0.07248 0.0
O150 O 0.86224 0.50074 0.10904 0.0
C151 C 0.80074 0.38686 0.11453 0.0
O152 O 0.86146 0.4541 0.11787 0.0
O153 O 0.82243 0.38941 0.1149 0.0
C154 C 0.1925 0.49661 0.14287 0.0
O155 O 0.18903 0.47137 0.13602 0.0
Cd156 Cd 0.16741 0.46775 0.10881 0.0
O157 O 0.18523 0.51972 0.13517 0.0
Cd158 Cd 0.16606 0.53695 0.10829 0.0
C159 C 0.11668 0.50263 0.11952 0.0
O160 O 0.18241 0.50162 0.08705 0.0
O161 O 0.15405 0.5285 0.07808 0.0
O162 O 0.1976 0.57126 0.10675 0.0
C163 C 0.16946 0.50974 0.07442 0.0
O164 O 0.1276 0.47901 0.11595 0.0
C165 C 0.18585 0.59476 0.1069 0.0
O166 O 0.12668 0.52768 0.11884 0.0
O167 O 0.1642 0.59173 0.1075 0.0
C168 C 0.18703 0.49514 0.64349 0.0
O169 O 0.18431 0.51817 0.63415 0.0
Cd170 Cd 0.1616 0.51488 0.60754 0.0
O171 O 0.17928 0.47045 0.63812 0.0
Cd172 Cd 0.16063 0.44679 0.61268 0.0
C173 C 0.11129 0.4822 0.62181 0.0
O174 O 0.17629 0.47674 0.58837 0.0
O175 O 0.14721 0.44867 0.58244 0.0
O176 O 0.19269 0.41326 0.61267 0.0
C177 C 0.16283 0.46578 0.57684 0.0
O178 O 0.12207 0.50496 0.61641 0.0
C179 C 0.18138 0.38961 0.61473 0.0
O180 O 0.12132 0.45723 0.62277 0.0
O181 O 0.15973 0.39217 0.61593 0.0
C182 C 0.79136 0.49146 0.64015 0.0
O183 O 0.79667 0.46813 0.63174 0.0
Cd184 Cd 0.81787 0.47224 0.6043 0.0
O185 O 0.79732 0.51663 0.63432 0.0
Cd186 Cd 0.81666 0.54125 0.60973 0.0
C187 C 0.86725 0.50697 0.61804 0.0
O188 O 0.80062 0.51004 0.58612 0.0
O189 O 0.8266 0.54185 0.57867 0.0
O190 O 0.78505 0.57528 0.61272 0.0
C191 C 0.81202 0.52263 0.57391 0.0
O192 O 0.85733 0.48374 0.61235 0.0
C193 C 0.79693 0.59864 0.61391 0.0
O194 O 0.85626 0.53119 0.61944 0.0
O195 O 0.81856 0.59561 0.61315 0.0
C196 C 0.20793 0.49562 0.82476 0.0
O197 O 0.20308 0.47211 0.83313 0.0
Cd198 Cd 0.18225 0.47411 0.86072 0.0
O199 O 0.20224 0.5207 0.83097 0.0
Cd200 Cd 0.18415 0.54469 0.85658 0.0
C201 C 0.13343 0.51125 0.84737 0.0
O202 O 0.19888 0.51145 0.8794 0.0
O203 O 0.1723 0.542 0.88729 0.0
O204 O 0.21641 0.57825 0.85518 0.0
C205 C 0.1864 0.52204 0.89167 0.0
O206 O 0.14318 0.48767 0.85263 0.0
C207 C 0.20488 0.60194 0.85461 0.0
O208 O 0.14455 0.5355 0.84644 0.0
O209 O 0.1832 0.59929 0.85498 0.0
C210 C 0.81446 0.4995 0.81936 0.0
O211 O 0.81665 0.52236 0.82899 0.0
Cd212 Cd 0.83775 0.51778 0.85638 0.0
O213 O 0.82199 0.47476 0.82473 0.0
Cd214 Cd 0.83942 0.44977 0.85004 0.0
C215 C 0.88906 0.48632 0.84348 0.0
O216 O 0.82094 0.47861 0.87373 0.0
O217 O 0.84811 0.4487 0.88131 0.0
O218 O 0.80793 0.41644 0.84465 0.0
C219 C 0.83228 0.46619 0.88601 0.0
O220 O 0.87789 0.50876 0.84888 0.0
C221 C 0.81941 0.39273 0.84464 0.0
O222 O 0.8792 0.46133 0.84175 0.0
O223 O 0.8409 0.39519 0.84703 0.0
H224 H 0.33415 0.06601 0.41938 0.0
H225 H 0.32982 0.0509 0.45021 0.0
H226 H 0.27534 0.99136 0.43541 0.0
H227 H 0.2796 0.00642 0.40418 0.0
H228 H 0.26639 0.02715 0.46632 0.0
H229 H 0.3223 0.95979 0.44543 0.0
H230 H 0.3566 0.94401 0.42886 0.0
H231 H 0.39865 -0.00019 0.46156 0.0
H232 H 0.36457 0.0163 0.47816 0.0
H233 H 0.281 0.0001 0.56064 0.0
H234 H 0.27622 0.98801 0.529 0.0
H235 H 0.33341 0.04451 0.51613 0.0
H236 H 0.33836 0.05644 0.54742 0.0
H237 H 0.33527 0.99184 0.49844 0.0
H238 H 0.27842 0.06857 0.51235 0.0
H239 H 0.24442 0.08727 0.52824 0.0
H240 H 0.20459 0.01459 0.50834 0.0
H241 H 0.23848 0.9953 0.49249 0.0
C242 C 0.3212 0.04974 0.42261 0.0
C243 C 0.30729 0.03727 0.40936 0.0
C244 C 0.31883 0.04103 0.44023 0.0
C245 C 0.30253 0.01969 0.44496 0.0
C246 C 0.28813 0.00769 0.43191 0.0
C247 C 0.29059 0.01631 0.41415 0.0
C248 C 0.30081 0.01067 0.46374 0.0
C249 C 0.28116 0.01854 0.47334 0.0
C250 C 0.32013 -0.00052 0.47279 0.0
C251 C 0.34082 0.9893 0.46304 0.0
C252 C 0.33884 0.96881 0.44904 0.0
C253 C 0.35826 0.95973 0.43964 0.0
C254 C 0.37979 0.97091 0.44415 0.0
C255 C 0.38196 0.99114 0.4581 0.0
C256 C 0.3626 0.00031 0.46754 0.0
C257 C 0.29257 0.00981 0.55103 0.0
C258 C 0.31 0.0293 0.55646 0.0
C259 C 0.28982 0.00288 0.53301 0.0
C260 C 0.30447 0.01538 0.52029 0.0
C261 C 0.32203 0.03446 0.52577 0.0
C262 C 0.32475 0.04141 0.54366 0.0
C263 C 0.30139 0.00999 0.50107 0.0
C264 C 0.32015 -0.00072 0.49139 0.0
C265 C 0.2813 0.01865 0.49198 0.0
C266 C 0.261 0.0303 0.50146 0.0
C267 C 0.26245 0.05647 0.51149 0.0
C268 C 0.2432 0.0672 0.52046 0.0
C269 C 0.22238 0.05207 0.51935 0.0
C270 C 0.22075 0.02624 0.50922 0.0
C271 C 0.23996 0.01541 0.50025 0.0
H272 H 0.20749 0.06041 0.5263 0.0
H273 H 0.3948 0.96388 0.43685 0.0
H274 H 0.70296 -0.00348 0.56493 0.0
H275 H 0.71505 0.00613 0.53417 0.0
H276 H 0.67371 0.93293 0.51616 0.0
H277 H 0.66155 0.92333 0.54657 0.0
H278 H 0.71752 0.93394 0.50106 0.0
H279 H 0.65328 0.00119 0.51386 0.0
H280 H 0.63538 0.04242 0.53023 0.0
H281 H 0.69079 0.09959 0.51518 0.0
H282 H 0.70913 0.05853 0.49888 0.0
H283 H 0.65721 0.93696 0.42418 0.0
H284 H 0.67011 0.9433 0.45465 0.0
H285 H 0.71788 0.01045 0.43795 0.0
H286 H 0.70517 0.00395 0.40695 0.0
H287 H 0.68737 0.02255 0.47025 0.0
H288 H 0.74369 0.95613 0.44896 0.0
H289 H 0.75832 0.91401 0.43154 0.0
H290 H 0.71663 0.85449 0.46197 0.0
H291 H 0.70148 0.89628 0.47942 0.0
C292 C 0.69655 0.98246 0.55437 0.0
C293 C 0.68123 0.95925 0.55809 0.0
C294 C 0.7035 0.98795 0.53688 0.0
C295 C 0.69533 0.97013 0.52299 0.0
C296 C 0.68034 0.94674 0.52676 0.0
C297 C 0.67327 0.94144 0.54412 0.0
C298 C 0.70113 0.97618 0.50425 0.0
C299 C 0.7113 0.9535 0.49431 0.0
C300 C 0.69373 0.00219 0.49561 0.0
C301 C 0.68272 0.02675 0.5054 0.0
C302 C 0.66173 0.02249 0.51419 0.0
C303 C 0.65149 0.04583 0.52342 0.0
C304 C 0.66199 0.07358 0.52381 0.0
C305 C 0.68272 0.07806 0.51491 0.0
C306 C 0.69304 0.05478 0.50568 0.0
C307 C 0.6704 0.95318 0.4269 0.0
C308 C 0.68024 0.96991 0.41318 0.0
C309 C 0.67781 0.95668 0.44431 0.0
C310 C 0.69509 0.97706 0.44841 0.0
C311 C 0.70462 0.99448 0.43491 0.0
C312 C 0.69736 0.99073 0.4173 0.0
C313 C 0.70255 0.97956 0.46704 0.0
C314 C 0.6948 0.00372 0.47702 0.0
C315 C 0.71211 0.95484 0.47573 0.0
C316 C 0.72144 0.92942 0.46552 0.0
C317 C 0.73756 0.93408 0.4519 0.0
C318 C 0.74595 0.91025 0.44202 0.0
C319 C 0.73841 0.88159 0.44565 0.0
C320 C 0.72249 0.8767 0.4592 0.0
C321 C 0.71404 0.90046 0.46913 0.0
H322 H 0.7449 0.86318 0.43797 0.0
H323 H 0.65403 0.09162 0.53095 0.0
H324 H 0.34972 0.94697 0.04728 0.0
H325 H 0.34771 0.96587 0.01711 0.0
H326 H 0.28566 0.01286 0.03001 0.0
H327 H 0.28754 0.99382 0.06056 0.0
H328 H 0.2822 0.97977 -0.00069 0.0
H329 H 0.33188 0.05313 0.02153 0.0
H330 H 0.36405 0.07358 0.03882 0.0
H331 H 0.41169 0.02468 0.00682 0.0
H332 H 0.37982 0.00356 -0.01051 0.0
H333 H 0.29717 0.00297 0.90552 0.0
H334 H 0.2917 0.01801 0.9366 0.0
H335 H 0.35224 0.96944 0.95141 0.0
H336 H 0.35788 0.95461 0.9206 0.0
H337 H 0.34964 0.0227 0.96861 0.0
H338 H 0.2992 0.93854 0.95467 0.0
H339 H 0.26749 0.91495 0.93825 0.0
H340 H 0.22179 0.98356 0.95541 0.0
H341 H 0.25334 0.0077 0.97178 0.0
C342 C 0.33571 0.96149 0.0438 0.0
C343 C 0.31875 0.96886 0.05626 0.0
C344 C 0.3347 0.9725 0.02658 0.0
C345 C 0.31675 0.99117 0.02144 0.0
C346 C 0.29976 -0.00127 0.03383 0.0
C347 C 0.30085 0.98782 0.0512 0.0
C348 C 0.31519 0.00037 0.00266 0.0
C349 C 0.29658 0.9901 -0.00738 0.0
C350 C 0.33401 0.01376 -0.00601 0.0
C351 C 0.35339 0.02674 0.00418 0.0
C352 C 0.34921 0.04663 0.01821 0.0
C353 C 0.3674 0.05835 0.02803 0.0
C354 C 0.3899 0.05044 0.02392 0.0
C355 C 0.39425 0.03083 0.00996 0.0
C356 C 0.37612 0.01903 0.0001 0.0
C357 C 0.3094 0.99576 0.91541 0.0
C358 C 0.32784 0.97738 0.91069 0.0
C359 C 0.30627 0.00441 0.93311 0.0
C360 C 0.32153 0.99475 0.94626 0.0
C361 C 0.34034 0.97728 0.94143 0.0
C362 C 0.34344 0.96862 0.92383 0.0
C363 C 0.31732 0.00047 0.96533 0.0
C364 C 0.33483 0.01361 0.97537 0.0
C365 C 0.29754 0.98964 0.97402 0.0
C366 C 0.27864 0.97511 0.96422 0.0
C367 C 0.28242 0.94869 0.95482 0.0
C368 C 0.26448 0.93521 0.94555 0.0
C369 C 0.24266 0.94781 0.94573 0.0
C370 C 0.23871 0.97387 0.95524 0.0
C371 C 0.25661 0.98746 0.96451 0.0
H372 H 0.22879 0.93734 0.93855 0.0
H373 H 0.40396 0.05951 0.03155 0.0
H374 H 0.71488 0.01383 0.90696 0.0
H375 H 0.72276 0.00962 0.9389 0.0
H376 H 0.67188 0.07628 0.94973 0.0
H377 H 0.66406 0.08076 0.91806 0.0
H378 H 0.7113 0.08528 0.96862 0.0
H379 H 0.65952 0.0037 0.95407 0.0
H380 H 0.64899 0.95794 0.93818 0.0
H381 H 0.70848 0.91462 0.95911 0.0
H382 H 0.7195 0.96029 0.97495 0.0
H383 H 0.65743 0.07313 0.04983 0.0
H384 H 0.66891 0.07223 0.01874 0.0
H385 H 0.71927 0.00533 0.03023 0.0
H386 H 0.70777 0.00603 0.06165 0.0
H387 H 0.69269 0.99253 0.00059 0.0
H388 H 0.73835 0.07192 0.0212 0.0
H389 H 0.74763 0.1178 0.0374 0.0
H390 H 0.69949 0.16568 0.00546 0.0
H391 H 0.68963 0.12004 -0.01076 0.0
C392 C 0.70544 0.02761 0.91618 0.0
C393 C 0.68879 0.04755 0.91005 0.0
C394 C 0.70997 0.02517 0.93437 0.0
C395 C 0.69788 0.04264 0.94661 0.0
C396 C 0.68148 0.06275 0.94046 0.0
C397 C 0.67693 0.06514 0.92237 0.0
C398 C 0.70145 0.03965 0.96594 0.0
C399 C 0.70732 0.06502 0.97566 0.0
C400 C 0.69713 0.01286 0.97498 0.0
C401 C 0.69049 0.98548 0.96548 0.0
C402 C 0.67045 0.98448 0.95515 0.0
C403 C 0.66437 0.95856 0.94618 0.0
C404 C 0.6781 0.93342 0.94758 0.0
C405 C 0.6979 0.93413 0.958 0.0
C406 C 0.70406 0.96002 0.96697 0.0
C407 C 0.67097 0.05822 0.04581 0.0
C408 C 0.68172 0.03966 0.05817 0.0
C409 C 0.67763 0.0579 0.02806 0.0
C410 C 0.69519 0.03909 0.02231 0.0
C411 C 0.70582 0.02019 0.03452 0.0
C412 C 0.69923 0.02061 0.05239 0.0
C413 C 0.70137 0.03859 0.00329 0.0
C414 C 0.69742 0.01258 -0.00639 0.0
C415 C 0.7074 0.06485 -0.00573 0.0
C416 C 0.71323 0.09246 0.00401 0.0
C417 C 0.72962 0.09218 0.0177 0.0
C418 C 0.735 0.11816 0.02688 0.0
C419 C 0.72418 0.14464 0.02244 0.0
C420 C 0.7079 0.14517 0.00885 0.0
C421 C 0.70244 0.11925 -0.00036 0.0
H422 H 0.72845 0.16475 0.02949 0.0
H423 H 0.67337 0.91336 0.94064 0.0
H424 H 0.7856 0.47877 0.55924 0.0
H425 H 0.77819 0.47021 0.52746 0.0
H426 H 0.8211 0.54467 0.51433 0.0
H427 H 0.82866 0.55321 0.54574 0.0
H428 H 0.77854 0.54475 0.49698 0.0
H429 H 0.84191 0.47777 0.51056 0.0
H430 H 0.85933 0.43573 0.52634 0.0
H431 H 0.80659 0.37822 0.50661 0.0
H432 H 0.7887 0.42008 0.49089 0.0
H433 H 0.83607 0.54564 0.41778 0.0
H434 H 0.82683 0.5366 0.44885 0.0
H435 H 0.7761 0.47226 0.43337 0.0
H436 H 0.78506 0.48148 0.40188 0.0
H437 H 0.81003 0.45824 0.46457 0.0
H438 H 0.7521 0.52506 0.4453 0.0
H439 H 0.73697 0.56785 0.42886 0.0
H440 H 0.78004 0.62606 0.45916 0.0
H441 H 0.79573 0.58357 0.47557 0.0
C442 C 0.79344 0.49325 0.54953 0.0
C443 C 0.8077 0.51666 0.55494 0.0
C444 C 0.7892 0.48832 0.53145 0.0
C445 C 0.79903 0.50691 0.51865 0.0
C446 C 0.81323 0.53023 0.52406 0.0
C447 C 0.81763 0.53497 0.54201 0.0
C448 C 0.79503 0.50245 0.49947 0.0
C449 C 0.78516 0.52569 0.48988 0.0
C450 C 0.80304 0.47715 0.49034 0.0
C451 C 0.8138 0.45209 0.49978 0.0
C452 C 0.83391 0.45622 0.50973 0.0
C453 C 0.8439 0.43242 0.51863 0.0
C454 C 0.83402 0.40435 0.51754 0.0
C455 C 0.81418 0.4 0.50749 0.0
C456 C 0.80412 0.42374 0.49858 0.0
C457 C 0.82307 0.52936 0.4209 0.0
C458 C 0.81116 0.51442 0.40739 0.0
C459 C 0.81783 0.52424 0.43866 0.0
C460 C 0.80071 0.50397 0.44328 0.0
C461 C 0.78935 0.48802 0.42995 0.0
C462 C 0.79444 0.49338 0.41204 0.0
C463 C 0.79441 0.5011 0.46215 0.0
C464 C 0.80244 0.47666 0.47169 0.0
C465 C 0.7847 0.52531 0.47129 0.0
C466 C 0.77516 0.55107 0.46162 0.0
C467 C 0.75847 0.54696 0.44837 0.0
C468 C 0.74978 0.57117 0.43907 0.0
C469 C 0.75756 0.59965 0.44295 0.0
C470 C 0.77402 0.60399 0.45617 0.0
C471 C 0.78279 0.57984 0.4655 0.0
H472 H 0.75081 0.61837 0.43573 0.0
H473 H 0.84179 0.38594 0.52443 0.0
H474 H 0.13382 0.45 0.5503 0.0
H475 H 0.14004 0.45437 0.5184 0.0
H476 H 0.20476 0.49759 0.52786 0.0
H477 H 0.1985 0.49367 0.56006 0.0
H478 H 0.17954 0.52233 0.49938 0.0
H479 H 0.20666 0.42787 0.5179 0.0
H480 H 0.20481 0.38038 0.53383 0.0
H481 H 0.14572 0.35525 0.5034 0.0
H482 H 0.14701 0.40278 0.48747 0.0
H483 H 0.20125 0.49181 0.40578 0.0
H484 H 0.20616 0.49681 0.43809 0.0
H485 H 0.1432 0.4488 0.44642 0.0
H486 H 0.13843 0.4433 0.41449 0.0
H487 H 0.17708 0.42731 0.46641 0.0
H488 H 0.14686 0.52443 0.45122 0.0
H489 H 0.14783 0.57239 0.43574 0.0
H490 H 0.21269 0.59238 0.45978 0.0
H491 H 0.21222 0.54435 0.47524 0.0
C492 C 0.1493 0.46068 0.54565 0.0
C493 C 0.16582 0.47114 0.55766 0.0
C494 C 0.15283 0.46314 0.52742 0.0
C495 C 0.17305 0.47579 0.52084 0.0
C496 C 0.18911 0.48762 0.53274 0.0
C497 C 0.18553 0.48529 0.55108 0.0
C498 C 0.1776 0.47496 0.50153 0.0
C499 C 0.17948 0.50158 0.49214 0.0
C500 C 0.1775 0.44783 0.49219 0.0
C501 C 0.17689 0.41897 0.50154 0.0
C502 C 0.1932 0.41229 0.51467 0.0
C503 C 0.19225 0.38535 0.5237 0.0
C504 C 0.17514 0.36483 0.51965 0.0
C505 C 0.15898 0.37117 0.50652 0.0
C506 C 0.15983 0.39808 0.49747 0.0
C507 C 0.18844 0.48248 0.41455 0.0
C508 C 0.16953 0.46702 0.40764 0.0
C509 C 0.19123 0.48542 0.43296 0.0
C510 C 0.17503 0.47316 0.44461 0.0
C511 C 0.15598 0.45824 0.43766 0.0
C512 C 0.15326 0.45516 0.41939 0.0
C513 C 0.17785 0.47473 0.46412 0.0
C514 C 0.17757 0.4481 0.47361 0.0
C515 C 0.17942 0.50183 0.47346 0.0
C516 C 0.17964 0.53067 0.4642 0.0
C517 C 0.16142 0.53896 0.45308 0.0
C518 C 0.16186 0.56617 0.44434 0.0
C519 C 0.18035 0.58538 0.44672 0.0
C520 C 0.19841 0.57745 0.45791 0.0
C521 C 0.19806 0.55025 0.46667 0.0
H522 H 0.18066 0.60644 0.43994 0.0
H523 H 0.17443 0.344 0.52666 0.0
H524 H 0.84951 0.43569 0.91399 0.0
H525 H 0.83856 0.43962 0.94513 0.0
H526 H 0.79065 0.50873 0.93227 0.0
H527 H 0.80146 0.50483 0.90075 0.0
H528 H 0.81913 0.52 0.96297 0.0
H529 H 0.7677 0.44743 0.9413 0.0
H530 H 0.75557 0.40345 0.92438 0.0
H531 H 0.79947 0.34895 0.95617 0.0
H532 H 0.81216 0.39267 0.97311 0.0
H533 H 0.79035 0.49843 0.05606 0.0
H534 H 0.78488 0.50507 0.02394 0.0
H535 H 0.83211 0.43386 0.01369 0.0
H536 H 0.83765 0.4271 0.0455 0.0
H537 H 0.79232 0.4296 -0.00609 0.0
H538 H 0.84934 0.50401 0.01038 0.0
H539 H 0.86252 0.548 0.02688 0.0
H540 H 0.80765 0.59895 0.00461 0.0
H541 H 0.79399 0.55511 -0.01185 0.0
C542 C 0.83669 0.45182 0.91773 0.0
C543 C 0.82626 0.46987 0.90492 0.0
C544 C 0.83039 0.45394 0.93552 0.0
C545 C 0.8136 0.47417 0.94088 0.0
C546 C 0.80354 0.49287 0.92828 0.0
C547 C 0.80971 0.49057 0.91035 0.0
C548 C 0.80697 0.47536 0.9598 0.0
C549 C 0.81265 0.50056 0.96973 0.0
C550 C 0.7986 0.44991 0.96852 0.0
C551 C 0.79095 0.42341 0.95844 0.0
C552 C 0.77489 0.42611 0.94461 0.0
C553 C 0.76789 0.40121 0.93503 0.0
C554 C 0.77675 0.37342 0.93919 0.0
C555 C 0.79261 0.37048 0.95297 0.0
C556 C 0.79968 0.39532 0.96259 0.0
C557 C 0.79953 0.48421 0.04692 0.0
C558 C 0.81446 0.46227 0.05327 0.0
C559 C 0.79639 0.48805 0.02863 0.0
C560 C 0.80808 0.46992 0.01652 0.0
C561 C 0.82284 0.44795 0.02286 0.0
C562 C 0.82608 0.44423 0.04104 0.0
C563 C 0.80554 0.4737 -0.00287 0.0
C564 C 0.79808 0.44938 -0.01289 0.0
C565 C 0.81222 0.49995 -0.01163 0.0
C566 C 0.82047 0.52623 -0.00176 0.0
C567 C 0.83997 0.52453 0.00914 0.0
C568 C 0.84755 0.54944 0.01845 0.0
C569 C 0.83588 0.57622 0.01685 0.0
C570 C 0.81664 0.57817 0.00588 0.0
C571 C 0.80897 0.55331 -0.00345 0.0
H572 H 0.84178 0.59549 0.02406 0.0
H573 H 0.77132 0.35417 0.93174 0.0
H574 H 0.20425 0.47544 0.06123 0.0
H575 H 0.2108 0.46184 0.03004 0.0
H576 H 0.14855 0.50666 0.0152 0.0
H577 H 0.14182 0.51999 0.04611 0.0
H578 H 0.15373 0.4553 -0.0031 0.0
H579 H 0.2002 0.54149 0.01324 0.0
H580 H 0.23024 0.56667 0.03067 0.0
H581 H 0.27956 0.50252 0.01334 0.0
H582 H 0.24971 0.47678 -0.00404 0.0
H583 H 0.15574 0.53258 0.91803 0.0
H584 H 0.15675 0.51463 0.9485 0.0
H585 H 0.21935 0.4676 0.93744 0.0
H586 H 0.2184 0.48547 0.9066 0.0
H587 H 0.22082 0.50297 0.96831 0.0
H588 H 0.17438 0.427 0.94447 0.0
H589 H 0.14351 0.4052 0.92635 0.0
H590 H 0.09328 0.45183 0.95717 0.0
H591 H 0.12383 0.47429 0.97531 0.0
C592 C 0.19183 0.48201 0.05132 0.0
C593 C 0.17265 0.49905 0.05605 0.0
C594 C 0.1956 0.47424 0.03354 0.0
C595 C 0.18023 0.48343 0.02033 0.0
C596 C 0.16058 0.49925 0.0252 0.0
C597 C 0.15684 0.50705 0.04287 0.0
C598 C 0.18517 0.47911 0.00123 0.0
C599 C 0.16847 0.46547 -0.00939 0.0
C600 C 0.20481 0.49153 -0.00687 0.0
C601 C 0.2227 0.50701 0.00353 0.0
C602 C 0.21742 0.53265 0.01327 0.0
C603 C 0.23441 0.54703 0.02311 0.0
C604 C 0.25678 0.53614 0.02317 0.0
C605 C 0.26222 0.51088 0.01332 0.0
C606 C 0.24528 0.49639 0.00348 0.0
C607 C 0.16968 0.51829 0.922 0.0
C608 C 0.18702 0.51046 0.90996 0.0
C609 C 0.17013 0.50786 0.93938 0.0
C610 C 0.18795 0.48947 0.9451 0.0
C611 C 0.20536 0.48157 0.93317 0.0
C612 C 0.20479 0.49179 0.91563 0.0
C613 C 0.18876 0.48052 0.96396 0.0
C614 C 0.20653 0.49167 0.97455 0.0
C615 C 0.17 0.46602 0.97202 0.0
C616 C 0.15145 0.45238 0.96125 0.0
C617 C 0.15676 0.43274 0.94733 0.0
C618 C 0.13931 0.42025 0.93706 0.0
C619 C 0.11645 0.42713 0.9406 0.0
C620 C 0.11099 0.44649 0.95445 0.0
C621 C 0.12838 0.45906 0.96477 0.0
H622 H 0.10297 0.41745 0.93262 0.0
H623 H 0.26991 0.54731 0.03079 0.0
H624 H 0.58121 0.93643 0.3518 0.0
H625 H 0.53977 0.94346 0.34931 0.0
H626 H 0.54976 0.0377 0.34568 0.0
H627 H 0.59094 0.03095 0.34858 0.0
H628 H 0.51738 0.02646 0.36853 0.0
H629 H 0.53425 0.99438 0.30912 0.0
H630 H 0.54996 0.96132 0.28607 0.0
H631 H 0.50656 0.89099 0.3043 0.0
H632 H 0.4908 0.92353 0.32763 0.0
H633 H 0.40293 0.06309 0.34514 0.0
H634 H 0.44444 0.05616 0.34288 0.0
H635 H 0.43594 0.96274 0.35187 0.0
H636 H 0.39461 0.96937 0.3541 0.0
H637 H 0.46734 0.97415 0.32547 0.0
H638 H 0.4517 0.00585 0.3854 0.0
H639 H 0.43594 0.03891 0.40844 0.0
H640 H 0.4773 0.11027 0.38884 0.0
H641 H 0.49308 0.07771 0.36552 0.0
C642 C 0.57458 0.95862 0.3503 0.0
C643 C 0.58941 0.98311 0.35045 0.0
C644 C 0.55088 0.96261 0.34882 0.0
C645 C 0.5416 0.99113 0.3472 0.0
C646 C 0.55645 0.0155 0.34698 0.0
C647 C 0.58005 0.01157 0.34861 0.0
C648 C 0.51641 0.99588 0.34653 0.0
C649 C 0.50653 0.01536 0.3589 0.0
C650 C 0.5021 0.98091 0.33427 0.0
C651 C 0.51151 0.96132 0.32023 0.0
C652 C 0.52818 0.9718 0.30831 0.0
C653 C 0.53707 0.95317 0.29517 0.0
C654 C 0.52931 0.92405 0.29375 0.0
C655 C 0.51258 0.91354 0.30544 0.0
C656 C 0.50365 0.93207 0.3186 0.0
C657 C 0.40987 0.04105 0.34648 0.0
C658 C 0.39543 0.01684 0.34993 0.0
C659 C 0.4336 0.03713 0.34524 0.0
C660 C 0.44328 0.00896 0.34737 0.0
C661 C 0.42884 0.98466 0.35019 0.0
C662 C 0.4052 0.98856 0.35155 0.0
C663 C 0.46848 0.00482 0.34736 0.0
C664 C 0.4783 0.98538 0.33496 0.0
C665 C 0.48279 0.01986 0.35956 0.0
C666 C 0.47337 0.03944 0.3736 0.0
C667 C 0.45729 0.02866 0.38591 0.0
C668 C 0.44838 0.04729 0.39904 0.0
C669 C 0.45556 0.0767 0.40007 0.0
C670 C 0.47172 0.0875 0.38801 0.0
C671 C 0.48066 0.06897 0.37484 0.0
H672 H 0.44865 0.09109 0.41024 0.0
H673 H 0.53621 0.90966 0.28358 0.0
H674 H 0.39617 0.01921 0.12473 0.0
H675 H 0.4374 0.02585 0.12731 0.0
H676 H 0.44727 0.932 0.12111 0.0
H677 H 0.40569 0.92503 0.11884 0.0
H678 H 0.4768 0.95495 0.14543 0.0
H679 H 0.45398 0.97758 0.08591 0.0
H680 H 0.43124 0.00194 0.06256 0.0
H681 H 0.45485 0.08679 0.08046 0.0
H682 H 0.47749 0.06294 0.10409 0.0
H683 H 0.59216 0.96076 0.11494 0.0
H684 H 0.55102 0.95337 0.11825 0.0
H685 H 0.54202 0.04669 0.12739 0.0
H686 H 0.58337 0.05438 0.12407 0.0
H687 H 0.51218 0.02409 0.10225 0.0
H688 H 0.53666 -0.00016 0.16127 0.0
H689 H 0.56003 0.97407 0.18367 0.0
H690 H 0.53403 0.89053 0.16555 0.0
H691 H 0.51077 0.91577 0.14285 0.0
C692 C 0.40703 -0.00013 0.12408 0.0
C693 C 0.39762 0.97159 0.12136 0.0
C694 C 0.43065 0.00375 0.12551 0.0
C695 C 0.44547 0.97952 0.12401 0.0
C696 C 0.43614 0.95104 0.1222 0.0
C697 C 0.41239 0.94709 0.1209 0.0
C698 C 0.47063 0.98431 0.12347 0.0
C699 C 0.48458 0.96979 0.13587 0.0
C700 C 0.48076 0.00407 0.11116 0.0
C701 C 0.46725 0.01848 0.09689 0.0
C702 C 0.45419 0.00144 0.08496 0.0
C703 C 0.44134 0.01516 0.07166 0.0
C704 C 0.44155 0.0459 0.07006 0.0
C705 C 0.45467 0.06298 0.08173 0.0
C706 C 0.46753 0.04938 0.09507 0.0
C707 C 0.5815 0.97976 0.11777 0.0
C708 C 0.59109 0.00821 0.1192 0.0
C709 C 0.55797 0.97543 0.11975 0.0
C710 C 0.54348 -0.00057 0.12319 0.0
C711 C 0.55294 0.02785 0.12478 0.0
C712 C 0.57657 0.03219 0.12294 0.0
C713 C 0.51834 0.99491 0.12428 0.0
C714 C 0.5044 0.0094 0.1119 0.0
C715 C 0.50831 0.97493 0.13648 0.0
C716 C 0.52212 0.9597 0.15024 0.0
C717 C 0.53606 0.97596 0.16197 0.0
C718 C 0.54926 0.96145 0.17474 0.0
C719 C 0.54856 0.93068 0.17601 0.0
C720 C 0.53458 0.91436 0.16454 0.0
C721 C 0.52136 0.92876 0.15173 0.0
H722 H 0.55881 0.91949 0.1859 0.0
H723 H 0.43159 0.05647 0.05976 0.0
H724 H 0.58805 0.02448 0.61696 0.0
H725 H 0.54679 0.03068 0.61997 0.0
H726 H 0.53827 0.93618 0.62275 0.0
H727 H 0.57977 0.92968 0.61969 0.0
H728 H 0.50879 0.96237 0.59893 0.0
H729 H 0.53154 0.97709 0.65951 0.0
H730 H 0.55399 -0.00082 0.6839 0.0
H731 H 0.52815 0.08507 0.67062 0.0
H732 H 0.50578 0.06356 0.64597 0.0
H733 H 0.39177 0.96392 0.6194 0.0
H734 H 0.43292 0.95651 0.62188 0.0
H735 H 0.44338 0.05084 0.62272 0.0
H736 H 0.40189 0.05849 0.62064 0.0
H737 H 0.47199 0.02396 0.6455 0.0
H738 H 0.45105 0.01094 0.58445 0.0
H739 H 0.42915 0.99034 0.55929 0.0
H740 H 0.45231 0.90312 0.57248 0.0
H741 H 0.47411 0.92317 0.59788 0.0
C742 C 0.57748 0.00494 0.61831 0.0
C743 C 0.58727 0.97654 0.61805 0.0
C744 C 0.55386 0.00857 0.62013 0.0
C745 C 0.53946 0.98392 0.62173 0.0
C746 C 0.54911 0.95552 0.62159 0.0
C747 C 0.57282 0.95184 0.61989 0.0
C748 C 0.51425 0.98792 0.62272 0.0
C749 C 0.50069 0.97538 0.6093 0.0
C750 C 0.5038 0.00574 0.63591 0.0
C751 C 0.51713 0.01873 0.65079 0.0
C752 C 0.53078 0.00072 0.66169 0.0
C753 C 0.54347 0.01313 0.67558 0.0
C754 C 0.54254 0.04352 0.67878 0.0
C755 C 0.52887 0.06154 0.66812 0.0
C756 C 0.51616 0.04924 0.6542 0.0
C757 C 0.40275 0.98317 0.62024 0.0
C758 C 0.39352 0.01184 0.61962 0.0
C759 C 0.42633 0.97886 0.6216 0.0
C760 C 0.44131 0.00309 0.62208 0.0
C761 C 0.43215 0.03179 0.62226 0.0
C762 C 0.40844 0.03614 0.62106 0.0
C763 C 0.4665 -0.00169 0.62174 0.0
C764 C 0.48007 0.01079 0.6352 0.0
C765 C 0.47704 0.98065 0.60849 0.0
C766 C 0.46402 0.96853 0.59318 0.0
C767 C 0.45133 0.98734 0.58207 0.0
C768 C 0.43896 0.97577 0.56775 0.0
C769 C 0.43929 0.94543 0.56432 0.0
C770 C 0.45205 0.92661 0.57517 0.0
C771 C 0.46443 0.93807 0.58952 0.0
H772 H 0.42971 0.93651 0.55323 0.0
H773 H 0.55238 0.05309 0.68954 0.0
H774 H 0.59668 0.99256 0.87065 0.0
H775 H 0.55598 0.98518 0.86551 0.0
H776 H 0.55973 0.03998 0.81868 0.0
H777 H 0.60055 0.0488 0.82444 0.0
H778 H 0.52276 0.05191 0.8339 0.0
H779 H 0.5549 0.96105 0.81681 0.0
H780 H 0.579 0.9165 0.81856 0.0
H781 H 0.54201 0.88773 0.86475 0.0
H782 H 0.51788 0.93232 0.86343 0.0
H783 H 0.41247 0.94893 0.8278 0.0
H784 H 0.45351 0.95638 0.82235 0.0
H785 H 0.4535 0.02971 0.85913 0.0
H786 H 0.41264 0.02338 0.8638 0.0
H787 H 0.48895 0.95199 0.84076 0.0
H788 H 0.49195 0.08041 0.85097 0.0
H789 H 0.46803 0.1237 0.84402 0.0
H790 H 0.43513 0.07531 0.80203 0.0
H791 H 0.45907 0.03187 0.80855 0.0
C792 C 0.58886 0.00306 0.85924 0.0
C793 C 0.60184 0.02111 0.84787 0.0
C794 C 0.56557 -0.00141 0.8562 0.0
C795 C 0.55476 0.01126 0.84139 0.0
C796 C 0.56763 0.02974 0.83014 0.0
C797 C 0.59095 0.0348 0.83343 0.0
C798 C 0.52991 0.0058 0.83817 0.0
C799 C 0.51541 0.03002 0.83527 0.0
C800 C 0.52022 0.9771 0.83919 0.0
C801 C 0.53465 0.95015 0.84006 0.0
C802 C 0.55199 0.94532 0.8274 0.0
C803 C 0.56565 0.92005 0.82832 0.0
C804 C 0.56206 0.89932 0.84177 0.0
C805 C 0.54477 0.9038 0.85433 0.0
C806 C 0.53107 0.92906 0.85349 0.0
C807 C 0.42126 0.96678 0.83457 0.0
C808 C 0.40927 0.98576 0.84607 0.0
C809 C 0.44472 0.97103 0.83147 0.0
C810 C 0.45665 0.99407 0.84 0.0
C811 C 0.44469 0.01247 0.85184 0.0
C812 C 0.42127 0.00866 0.85462 0.0
C813 C 0.48175 -0.00172 0.83735 0.0
C814 C 0.4963 0.97382 0.83911 0.0
C815 C 0.49152 0.02658 0.83447 0.0
C816 C 0.47723 0.05279 0.83034 0.0
C817 C 0.47971 0.07905 0.84018 0.0
C818 C 0.46612 0.10361 0.83633 0.0
C819 C 0.45004 0.10223 0.82262 0.0
C820 C 0.44755 0.07632 0.81269 0.0
C821 C 0.46111 0.05171 0.81647 0.0
H822 H 0.43952 0.12126 0.81967 0.0
H823 H 0.57266 0.87977 0.84246 0.0
H824 H 0.89448 0.46508 0.33628 0.0
H825 H 0.93582 0.46118 0.33285 0.0
H826 H 0.94244 0.55542 0.33966 0.0
H827 H 0.90076 0.55964 0.34278 0.0
H828 H 0.97206 0.5349 0.31454 0.0
H829 H 0.95182 0.50968 0.37434 0.0
H830 H 0.93077 0.48332 0.39791 0.0
H831 H 0.95702 0.40056 0.37885 0.0
H832 H 0.97798 0.42641 0.355 0.0
H833 H 0.08818 0.53645 0.34423 0.0
H834 H 0.04692 0.54142 0.34024 0.0
H835 H 0.04118 0.44747 0.33175 0.0
H836 H 0.08257 0.44222 0.33578 0.0
H837 H 0.01118 0.46772 0.35676 0.0
H838 H 0.03337 0.49447 0.29764 0.0
H839 H 0.05485 0.52204 0.27483 0.0
H840 H 0.02569 0.60339 0.29353 0.0
H841 H 0.00428 0.57634 0.31663 0.0
C842 C 0.90464 0.48509 0.3369 0.0
C843 C 0.8943 0.51266 0.34003 0.0
C844 C 0.92832 0.48278 0.33497 0.0
C845 C 0.94229 0.50791 0.33637 0.0
C846 C 0.93199 0.53571 0.33862 0.0
C847 C 0.90818 0.53808 0.34043 0.0
C848 C 0.96761 0.50479 0.3364 0.0
C849 C 0.98066 0.52048 0.32389 0.0
C850 C 0.97881 0.48557 0.34841 0.0
C851 C 0.96628 0.46996 0.36278 0.0
C852 C 0.95296 0.48584 0.37509 0.0
C853 C 0.94107 0.47099 0.38851 0.0
C854 C 0.94251 0.44027 0.38985 0.0
C855 C 0.9559 0.42435 0.37778 0.0
C856 C 0.9678 0.43909 0.36432 0.0
C857 C 0.07822 0.51684 0.34131 0.0
C858 C 0.0887 0.48889 0.34041 0.0
C859 C 0.05462 0.51977 0.33894 0.0
C860 C 0.04097 0.49485 0.3356 0.0
C861 C 0.05141 0.46701 0.33428 0.0
C862 C 0.07508 0.46406 0.33654 0.0
C863 C 0.01567 0.49763 0.33482 0.0
C864 C 0.0026 0.48198 0.3473 0.0
C865 C 0.00456 0.51706 0.32289 0.0
C866 C 0.01738 0.53339 0.30898 0.0
C867 C 0.03168 0.51826 0.29699 0.0
C868 C 0.04382 0.53379 0.28399 0.0
C869 C 0.04168 0.56445 0.28276 0.0
C870 C 0.02735 0.57964 0.29451 0.0
C871 C 0.01519 0.56421 0.30755 0.0
H872 H 0.05109 0.57644 0.27268 0.0
H873 H 0.9333 0.42882 0.40025 0.0
H874 H 0.08517 0.54761 0.12153 0.0
H875 H 0.0436 0.54292 0.12464 0.0
H876 H 0.0504 0.4484 0.12945 0.0
H877 H 0.09174 0.45282 0.12605 0.0
H878 H 0.01907 0.46116 0.10572 0.0
H879 H 0.03521 0.49241 0.1652 0.0
H880 H 0.05135 0.52435 0.18865 0.0
H881 H 0.01114 0.59722 0.16989 0.0
H882 H 0.99498 0.56581 0.14616 0.0
H883 H 0.90189 0.43349 0.1244 0.0
H884 H 0.94336 0.43707 0.1288 0.0
H885 H 0.94028 0.53114 0.1203 0.0
H886 H 0.89898 0.52787 0.11601 0.0
H887 H 0.96957 0.51712 0.14744 0.0
H888 H 0.95566 0.48661 0.08693 0.0
H889 H 0.93955 0.45478 0.06341 0.0
H890 H 0.976 0.3803 0.08439 0.0
H891 H 0.99208 0.41165 0.1082 0.0
C892 C 0.07784 0.52588 0.1235 0.0
C893 C 0.09181 0.50059 0.12343 0.0
C894 C 0.05406 0.52322 0.12534 0.0
C895 C 0.04383 0.49528 0.12733 0.0
C896 C 0.05785 0.47017 0.12785 0.0
C897 C 0.08153 0.47277 0.12593 0.0
C898 C 0.0185 0.49188 0.12765 0.0
C899 C 0.00831 0.47302 0.11508 0.0
C900 C 0.00435 0.50785 0.13955 0.0
C901 C 0.01405 0.52682 0.15379 0.0
C902 C 0.02995 0.51531 0.16598 0.0
C903 C 0.03908 0.53331 0.17934 0.0
C904 C 0.03232 0.56282 0.18073 0.0
C905 C 0.01638 0.57437 0.16878 0.0
C906 C 0.00722 0.55647 0.15538 0.0
C907 C 0.91 0.45498 0.12366 0.0
C908 C 0.8971 0.48034 0.11969 0.0
C909 C 0.93371 0.45698 0.12613 0.0
C910 C 0.94494 0.48435 0.12469 0.0
C911 C 0.93199 0.50981 0.12146 0.0
C912 C 0.90836 0.50784 0.11892 0.0
C913 C 0.9703 0.48637 0.12557 0.0
C914 C 0.98043 0.50506 0.13825 0.0
C915 C 0.98446 0.47024 0.11379 0.0
C916 C 0.97486 0.45139 0.09946 0.0
C917 C 0.96009 0.46339 0.08662 0.0
C918 C 0.95099 0.44545 0.07322 0.0
C919 C 0.95669 0.41551 0.07244 0.0
C920 C 0.97156 0.40348 0.08503 0.0
C921 C 0.98068 0.42132 0.09847 0.0
H922 H 0.94964 0.40166 0.06205 0.0
H923 H 0.0394 0.57671 0.19109 0.0
H924 H 0.89413 0.45786 0.62051 0.0
H925 H 0.93536 0.45553 0.62521 0.0
H926 H 0.93807 0.55042 0.62988 0.0
H927 H 0.89662 0.55303 0.62507 0.0
H928 H 0.96998 0.52921 0.60679 0.0
H929 H 0.94606 0.50766 0.66614 0.0
H930 H 0.92419 0.48196 0.68951 0.0
H931 H 0.95521 0.39964 0.67457 0.0
H932 H 0.97704 0.42478 0.65093 0.0
H933 H 0.08704 0.53278 0.62752 0.0
H934 H 0.04573 0.53804 0.63082 0.0
H935 H 0.03784 0.4434 0.6281 0.0
H936 H 0.07942 0.43787 0.62521 0.0
H937 H 0.0085 0.46674 0.65187 0.0
H938 H 0.02967 0.48665 0.59133 0.0
H939 H 0.05118 0.5112 0.5673 0.0
H940 H 0.02466 0.59532 0.58379 0.0
H941 H 0.00323 0.5713 0.60808 0.0
C942 C 0.9034 0.47829 0.6227 0.0
C943 C 0.89203 0.50568 0.62235 0.0
C944 C 0.927 0.47687 0.62549 0.0
C945 C 0.9398 0.50276 0.62804 0.0
C946 C 0.9285 0.53014 0.62799 0.0
C947 C 0.90481 0.53159 0.62529 0.0
C948 C 0.96513 0.5012 0.62958 0.0
C949 C 0.97841 0.51603 0.61688 0.0
C950 C 0.9761 0.48328 0.64241 0.0
C951 C 0.96305 0.46809 0.65666 0.0
C952 C 0.94809 0.48404 0.66774 0.0
C953 C 0.93572 0.46958 0.68105 0.0
C954 C 0.93827 0.43918 0.6835 0.0
C955 C 0.95324 0.42319 0.67266 0.0
C956 C 0.96563 0.43754 0.65931 0.0
C957 C 0.07659 0.51301 0.62781 0.0
C958 C 0.08653 0.48489 0.62589 0.0
C959 C 0.05293 0.51608 0.62965 0.0
C960 C 0.03861 0.49117 0.62931 0.0
C961 C 0.04854 0.46296 0.6283 0.0
C962 C 0.07231 0.45983 0.62663 0.0
C963 C 0.01331 0.49471 0.62906 0.0
C964 C 5e-05 0.48017 0.64192 0.0
C965 C 0.00228 0.51274 0.61629 0.0
C966 C 0.01505 0.52722 0.60163 0.0
C967 C 0.02856 0.51041 0.58991 0.0
C968 C 0.04072 0.52423 0.57623 0.0
C969 C 0.03934 0.55481 0.57405 0.0
C970 C 0.02574 0.57164 0.58551 0.0
C971 C 0.01358 0.55794 0.59923 0.0
H972 H 0.04876 0.56547 0.56345 0.0
H973 H 0.92868 0.42802 0.69382 0.0
H974 H 0.10638 0.46237 0.84395 0.0
H975 H 0.06511 0.46033 0.83952 0.0
H976 H 0.06265 0.55541 0.8368 0.0
H977 H 0.10418 0.55772 0.84138 0.0
H978 H 0.031 0.53312 0.85971 0.0
H979 H 0.05401 0.51417 0.79973 0.0
H980 H 0.07546 0.48939 0.77574 0.0
H981 H 0.04439 0.40653 0.78952 0.0
H982 H 0.02298 0.43073 0.81377 0.0
H983 H 0.91349 0.53737 0.83981 0.0
H984 H 0.95483 0.54298 0.83687 0.0
H985 H 0.96267 0.44825 0.837 0.0
H986 H 0.92108 0.44241 0.8395 0.0
H987 H 0.99166 0.47276 0.81381 0.0
H988 H 0.97147 0.48965 0.87487 0.0
H989 H 0.95046 0.51289 0.89966 0.0
H990 H 0.97691 0.59785 0.88474 0.0
H991 H -0.00216 0.57514 0.8597 0.0
C992 C 0.09717 0.48291 0.84224 0.0
C993 C 0.10864 0.51025 0.84308 0.0
C994 C 0.07354 0.48166 0.8396 0.0
C995 C 0.06079 0.50769 0.83768 0.0
C996 C 0.07218 0.53503 0.83819 0.0
C997 C 0.09592 0.53632 0.84076 0.0
C998 C 0.03544 0.50622 0.83634 0.0
C999 C 0.02238 0.52043 0.84945 0.0
C1000 C 0.02422 0.48886 0.82329 0.0
C1001 C 0.03702 0.47424 0.80867 0.0
C1002 C 0.05188 0.49062 0.79774 0.0
C1003 C 0.06401 0.47668 0.78407 0.0
C1004 C 0.06133 0.4464 0.78113 0.0
C1005 C 0.04646 0.42999 0.79183 0.0
C1006 C 0.0343 0.44382 0.80552 0.0
C1007 C 0.92395 0.51767 0.83907 0.0
C1008 C 0.91397 0.48942 0.84008 0.0
C1009 C 0.94763 0.52094 0.83745 0.0
C1010 C 0.96193 0.49606 0.8371 0.0
C1011 C 0.95198 0.46778 0.83733 0.0
C1012 C 0.92821 0.46448 0.83878 0.0
C1013 C 0.98725 0.49963 0.83722 0.0
C1014 C 0.00029 0.48572 0.82394 0.0
C1015 C -0.00149 0.51705 0.85022 0.0
C1016 C 0.98602 0.53074 0.86531 0.0
C1017 C 0.97266 0.51332 0.8768 0.0
C1018 C 0.9608 0.52639 0.8909 0.0
C1019 C 0.9623 0.55684 0.89374 0.0
C1020 C 0.97573 0.57427 0.88251 0.0
C1021 C 0.98761 0.56131 0.86836 0.0
H1022 H 0.9531 0.56692 0.90467 0.0
H1023 H 0.07073 0.43565 0.77055 0.0
H1024 H 0.21628 0.37821 0.32261 0.0
H1025 H 0.23645 0.33131 0.31935 0.0
H1026 H 0.19254 0.29252 0.35924 0.0
H1027 H 0.17135 0.33896 0.36155 0.0
H1028 H 0.26176 0.30353 0.33942 0.0
H1029 H 0.18934 0.21938 0.35625 0.0
H1030 H 0.14777 0.21359 0.35164 0.0
H1031 H 0.15107 0.27058 0.30614 0.0
H1032 H 0.19269 0.27641 0.31034 0.0
H1033 H 0.31167 0.16792 0.36437 0.0
H1034 H 0.29095 0.21455 0.36166 0.0
H1035 H 0.25241 0.17872 0.31759 0.0
H1036 H 0.27201 0.13146 0.32118 0.0
H1037 H 0.22462 0.20516 0.33637 0.0
H1038 H 0.29699 0.23442 0.31358 0.0
H1039 H 0.33893 0.24054 0.3127 0.0
H1040 H 0.33633 0.29376 0.35997 0.0
H1041 H 0.29439 0.28765 0.36126 0.0
C1042 C 0.21071 0.35947 0.33044 0.0
C1043 C 0.19219 0.36208 0.34224 0.0
C1044 C 0.22233 0.33269 0.32866 0.0
C1045 C 0.21603 0.30811 0.33894 0.0
C1046 C 0.19744 0.31078 0.35077 0.0
C1047 C 0.18537 0.33737 0.35217 0.0
C1048 C 0.22958 0.28026 0.33786 0.0
C1049 C 0.25359 0.28204 0.33864 0.0
C1050 C 0.21912 0.25211 0.33643 0.0
C1051 C 0.19411 0.24855 0.33373 0.0
C1052 C 0.18121 0.23058 0.34522 0.0
C1053 C 0.15763 0.22731 0.34269 0.0
C1054 C 0.14677 0.24178 0.32864 0.0
C1055 C 0.15948 0.25947 0.31706 0.0
C1056 C 0.18306 0.2628 0.31952 0.0
C1057 C 0.29898 0.17021 0.35397 0.0
C1058 C 0.29346 0.14619 0.34296 0.0
C1059 C 0.28718 0.19693 0.35235 0.0
C1060 C 0.27021 0.20049 0.33925 0.0
C1061 C 0.26528 0.17664 0.32788 0.0
C1062 C 0.27659 0.14968 0.32985 0.0
C1063 C 0.2568 0.22842 0.33798 0.0
C1064 C 0.23281 0.22665 0.33692 0.0
C1065 C 0.26733 0.25663 0.3383 0.0
C1066 C 0.29256 0.26036 0.3376 0.0
C1067 C 0.30538 0.24726 0.32386 0.0
C1068 C 0.32915 0.25076 0.32328 0.0
C1069 C 0.34029 0.26747 0.3363 0.0
C1070 C 0.32768 0.2808 0.3499 0.0
C1071 C 0.3039 0.27735 0.35056 0.0
H1072 H 0.35869 0.27015 0.33582 0.0
H1073 H 0.12852 0.23923 0.32671 0.0
H1074 H 0.66411 0.8302 0.36446 0.0
H1075 H 0.68386 0.78238 0.36419 0.0
H1076 H 0.74687 0.82583 0.34959 0.0
H1077 H 0.72736 0.87335 0.34966 0.0
H1078 H 0.74075 0.77664 0.33035 0.0
H1079 H 0.73804 0.80411 0.39188 0.0
H1080 H 0.71971 0.81958 0.41993 0.0
H1081 H 0.67933 0.74025 0.42014 0.0
H1082 H 0.69721 0.72449 0.39194 0.0
H1083 H 0.81836 0.65976 0.3507 0.0
H1084 H 0.79858 0.70755 0.35119 0.0
H1085 H 0.73498 0.6635 0.36338 0.0
H1086 H 0.7545 0.61591 0.36293 0.0
H1087 H 0.7415 0.71294 0.38394 0.0
H1088 H 0.7451 0.68589 0.32199 0.0
H1089 H 0.7644 0.67103 0.29421 0.0
H1090 H 0.80441 0.75065 0.29526 0.0
H1091 H 0.78556 0.76579 0.3232 0.0
C1092 C 0.68214 0.82949 0.36111 0.0
C1093 C 0.69417 0.85555 0.35714 0.0
C1094 C 0.69342 0.80221 0.36104 0.0
C1095 C 0.7169 0.8006 0.35703 0.0
C1096 C 0.72878 0.82654 0.35272 0.0
C1097 C 0.71757 0.85371 0.35283 0.0
C1098 C 0.7293 0.77202 0.35744 0.0
C1099 C 0.74112 0.76287 0.34213 0.0
C1100 C 0.72955 0.75388 0.37274 0.0
C1101 C 0.71878 0.76327 0.3897 0.0
C1102 C 0.72511 0.79008 0.39782 0.0
C1103 C 0.71483 0.79888 0.41376 0.0
C1104 C 0.69832 0.78095 0.42178 0.0
C1105 C 0.6921 0.75414 0.4139 0.0
C1106 C 0.70231 0.74525 0.39794 0.0
C1107 C 0.80019 0.66032 0.35354 0.0
C1108 C 0.78799 0.63407 0.35669 0.0
C1109 C 0.7889 0.68758 0.35377 0.0
C1110 C 0.76527 0.68901 0.35719 0.0
C1111 C 0.7532 0.66289 0.36071 0.0
C1112 C 0.7644 0.6357 0.36037 0.0
C1113 C 0.75291 0.71759 0.35685 0.0
C1114 C 0.74111 0.72673 0.37216 0.0
C1115 C 0.75281 0.73583 0.3416 0.0
C1116 C 0.7641 0.72681 0.32478 0.0
C1117 C 0.75815 0.70011 0.31637 0.0
C1118 C 0.76898 0.69166 0.30059 0.0
C1119 C 0.78567 0.70984 0.293 0.0
C1120 C 0.79151 0.73656 0.30117 0.0
C1121 C 0.78075 0.7451 0.31697 0.0
H1122 H 0.79403 0.70327 0.28078 0.0
H1123 H 0.69039 0.78779 0.43413 0.0
H1124 H 0.23156 0.60578 0.10499 0.0
H1125 H 0.25095 0.65342 0.10565 0.0
H1126 H 0.1858 0.69771 0.10937 0.0
H1127 H 0.16608 0.64979 0.10849 0.0
H1128 H 0.21436 0.72468 0.08577 0.0
H1129 H 0.21913 0.69033 0.14582 0.0
H1130 H 0.22769 0.65472 0.16966 0.0
H1131 H 0.29859 0.65462 0.15457 0.0
H1132 H 0.29039 0.68991 0.13046 0.0
H1133 H 0.25739 0.86397 0.11146 0.0
H1134 H 0.23776 0.81648 0.11102 0.0
H1135 H 0.30269 0.77162 0.10743 0.0
H1136 H 0.32264 0.81938 0.10811 0.0
H1137 H 0.27407 0.74503 0.1311 0.0
H1138 H 0.26922 0.77907 0.07091 0.0
H1139 H 0.26061 0.81453 0.04701 0.0
H1140 H 0.18982 0.81515 0.06238 0.0
H1141 H 0.19806 0.77999 0.08656 0.0
C1142 C 0.22128 0.62561 0.10592 0.0
C1143 C 0.19725 0.62399 0.10677 0.0
C1144 C 0.23244 0.65285 0.10638 0.0
C1145 C 0.21986 0.6791 0.10784 0.0
C1146 C 0.19583 0.67768 0.10832 0.0
C1147 C 0.1846 0.65032 0.10785 0.0
C1148 C 0.23194 0.70793 0.10878 0.0
C1149 C 0.22716 0.72932 0.09585 0.0
C1150 C 0.24908 0.71366 0.12165 0.0
C1151 C 0.2541 0.69257 0.13622 0.0
C1152 C 0.23651 0.68254 0.14749 0.0
C1153 C 0.24131 0.66244 0.16107 0.0
C1154 C 0.26366 0.65236 0.1636 0.0
C1155 C 0.28128 0.66243 0.15259 0.0
C1156 C 0.27657 0.6825 0.13897 0.0
C1157 C 0.26757 0.84405 0.11059 0.0
C1158 C 0.2916 0.84546 0.10972 0.0
C1159 C 0.25627 0.81689 0.11026 0.0
C1160 C 0.26872 0.79052 0.10891 0.0
C1161 C 0.29275 0.79174 0.1084 0.0
C1162 C 0.30412 0.81901 0.10875 0.0
C1163 C 0.2565 0.76176 0.10808 0.0
C1164 C 0.26126 0.74039 0.12103 0.0
C1165 C 0.23934 0.75605 0.09523 0.0
C1166 C 0.23431 0.7771 0.08065 0.0
C1167 C 0.25185 0.78694 0.06929 0.0
C1168 C 0.24703 0.80696 0.05567 0.0
C1169 C 0.22469 0.81714 0.05321 0.0
C1170 C 0.20712 0.80727 0.06432 0.0
C1171 C 0.21185 0.78727 0.07797 0.0
H1172 H 0.22099 0.83264 0.04266 0.0
H1173 H 0.26734 0.63679 0.17412 0.0
H1174 H 0.66446 0.16307 0.11599 0.0
H1175 H 0.68418 0.21088 0.11684 0.0
H1176 H 0.74626 0.16776 0.1337 0.0
H1177 H 0.72671 0.12009 0.133 0.0
H1178 H 0.74021 0.21993 0.15103 0.0
H1179 H 0.73944 0.18417 0.09127 0.0
H1180 H 0.72201 0.16452 0.06386 0.0
H1181 H 0.68224 0.24366 0.05833 0.0
H1182 H 0.69911 0.26355 0.08595 0.0
H1183 H 0.81922 0.33339 0.12407 0.0
H1184 H 0.79902 0.28607 0.1272 0.0
H1185 H 0.73554 0.32832 0.11291 0.0
H1186 H 0.75543 0.37542 0.10984 0.0
H1187 H 0.74289 0.27624 0.09453 0.0
H1188 H 0.74514 0.31162 0.15505 0.0
H1189 H 0.76398 0.32998 0.18225 0.0
H1190 H 0.8033 0.25013 0.18557 0.0
H1191 H 0.78492 0.23146 0.15824 0.0
C1192 C 0.6822 0.16385 0.12014 0.0
C1193 C 0.69408 0.1378 0.12428 0.0
C1194 C 0.69347 0.19114 0.12055 0.0
C1195 C 0.71678 0.19279 0.12509 0.0
C1196 C 0.72831 0.16699 0.13011 0.0
C1197 C 0.7171 0.13975 0.12964 0.0
C1198 C 0.72952 0.22105 0.12364 0.0
C1199 C 0.74098 0.23212 0.13864 0.0
C1200 C 0.73043 0.23699 0.10748 0.0
C1201 C 0.72034 0.22521 0.0908 0.0
C1202 C 0.72682 0.19729 0.0843 0.0
C1203 C 0.71707 0.18611 0.06871 0.0
C1204 C 0.70099 0.20281 0.05936 0.0
C1205 C 0.69467 0.23073 0.06559 0.0
C1206 C 0.70432 0.24197 0.08123 0.0
C1207 C 0.80096 0.33256 0.12165 0.0
C1208 C 0.78893 0.35815 0.11673 0.0
C1209 C 0.78944 0.30558 0.12349 0.0
C1210 C 0.76577 0.30376 0.12035 0.0
C1211 C 0.7538 0.32924 0.11538 0.0
C1212 C 0.76522 0.35617 0.11369 0.0
C1213 C 0.75335 0.27531 0.12197 0.0
C1214 C 0.74204 0.26411 0.10694 0.0
C1215 C 0.75281 0.25913 0.13804 0.0
C1216 C 0.76383 0.27029 0.15449 0.0
C1217 C 0.75795 0.29809 0.1615 0.0
C1218 C 0.76852 0.30853 0.17696 0.0
C1219 C 0.78487 0.29127 0.18561 0.0
C1220 C 0.79065 0.26349 0.17884 0.0
C1221 C 0.78016 0.25296 0.16337 0.0
H1222 H 0.79303 0.29938 0.19758 0.0
H1223 H 0.69348 0.19413 0.04728 0.0
H1224 H 0.72662 0.8678 0.62277 0.0
H1225 H 0.74608 0.82028 0.62399 0.0
H1226 H 0.68148 0.77528 0.61767 0.0
H1227 H 0.66168 0.82308 0.61641 0.0
H1228 H 0.71079 0.74949 0.64359 0.0
H1229 H 0.714 0.78212 0.58272 0.0
H1230 H 0.72208 0.81758 0.55867 0.0
H1231 H 0.79301 0.81954 0.57356 0.0
H1232 H 0.78529 0.78439 0.59788 0.0
H1233 H 0.75126 0.60989 0.61601 0.0
H1234 H 0.73237 0.65763 0.6186 0.0
H1235 H 0.79808 0.70125 0.61912 0.0
H1236 H 0.81723 0.65327 0.61625 0.0
H1237 H 0.76882 0.72839 0.59705 0.0
H1238 H 0.7668 0.69483 0.65698 0.0
H1239 H 0.75954 0.65971 0.68136 0.0
H1240 H 0.68774 0.66008 0.66918 0.0
H1241 H 0.69461 0.69484 0.64453 0.0
C1242 C 0.71645 0.84784 0.62175 0.0
C1243 C 0.69259 0.84922 0.61936 0.0
C1244 C 0.72764 0.82069 0.62243 0.0
C1245 C 0.71526 0.79431 0.62071 0.0
C1246 C 0.69134 0.79545 0.61898 0.0
C1247 C 0.68007 0.82273 0.61821 0.0
C1248 C 0.72754 0.7657 0.62005 0.0
C1249 C 0.72326 0.74465 0.6333 0.0
C1250 C 0.74431 0.75987 0.60692 0.0
C1251 C 0.74902 0.78085 0.59223 0.0
C1252 C 0.73129 0.7903 0.58096 0.0
C1253 C 0.73581 0.81031 0.56726 0.0
C1254 C 0.75803 0.82087 0.56462 0.0
C1255 C 0.7758 0.81137 0.57564 0.0
C1256 C 0.77136 0.79139 0.58937 0.0
C1257 C 0.76176 0.62959 0.61674 0.0
C1258 C 0.78578 0.62779 0.61593 0.0
C1259 C 0.75091 0.65688 0.61832 0.0
C1260 C 0.7638 0.68299 0.61929 0.0
C1261 C 0.7878 0.68134 0.61846 0.0
C1262 C 0.79872 0.65394 0.61685 0.0
C1263 C 0.75206 0.71198 0.62056 0.0
C1264 C 0.75643 0.73317 0.60741 0.0
C1265 C 0.73551 0.71798 0.63386 0.0
C1266 C 0.73126 0.69726 0.64879 0.0
C1267 C 0.74948 0.68726 0.65941 0.0
C1268 C 0.74544 0.66743 0.67329 0.0
C1269 C 0.7232 0.65762 0.67679 0.0
C1270 C 0.70496 0.66768 0.66644 0.0
C1271 C 0.70892 0.68747 0.65252 0.0
H1272 H 0.72011 0.64227 0.68754 0.0
H1273 H 0.7615 0.83636 0.55401 0.0
H1274 H 0.16313 0.33501 0.62225 0.0
H1275 H 0.18359 0.28775 0.62379 0.0
H1276 H 0.2468 0.33203 0.61071 0.0
H1277 H 0.22662 0.37903 0.60911 0.0
H1278 H 0.24136 0.28189 0.59145 0.0
H1279 H 0.23663 0.31139 0.65265 0.0
H1280 H 0.2172 0.32733 0.68015 0.0
H1281 H 0.17785 0.24715 0.6805 0.0
H1282 H 0.19684 0.23091 0.65285 0.0
H1283 H 0.31892 0.16626 0.61231 0.0
H1284 H 0.29913 0.214 0.61318 0.0
H1285 H 0.23589 0.16984 0.62633 0.0
H1286 H 0.25547 0.12228 0.62559 0.0
H1287 H 0.24146 0.22002 0.64582 0.0
H1288 H 0.24589 0.1909 0.5844 0.0
H1289 H 0.26532 0.17504 0.55689 0.0
H1290 H 0.30524 0.25476 0.55695 0.0
H1291 H 0.28625 0.27091 0.58462 0.0
C1292 C 0.18137 0.33462 0.6197 0.0
C1293 C 0.19324 0.36076 0.6156 0.0
C1294 C 0.19306 0.30766 0.62065 0.0
C1295 C 0.21676 0.30643 0.61748 0.0
C1296 C 0.22853 0.33245 0.6132 0.0
C1297 C 0.21694 0.35933 0.61235 0.0
C1298 C 0.22942 0.27807 0.61845 0.0
C1299 C 0.24161 0.26854 0.60342 0.0
C1300 C 0.22941 0.2604 0.63395 0.0
C1301 C 0.21797 0.27009 0.65058 0.0
C1302 C 0.22369 0.29728 0.65851 0.0
C1303 C 0.21279 0.30634 0.67414 0.0
C1304 C 0.19625 0.2883 0.68204 0.0
C1305 C 0.19063 0.26112 0.67435 0.0
C1306 C 0.20147 0.25197 0.65871 0.0
C1307 C 0.30086 0.16679 0.61555 0.0
C1308 C 0.28874 0.14049 0.61877 0.0
C1309 C 0.28955 0.19404 0.61597 0.0
C1310 C 0.26597 0.19542 0.61962 0.0
C1311 C 0.25407 0.1693 0.62346 0.0
C1312 C 0.2653 0.14211 0.62297 0.0
C1313 C 0.25343 0.22389 0.61883 0.0
C1314 C 0.24124 0.23341 0.63388 0.0
C1315 C 0.25343 0.24158 0.60334 0.0
C1316 C 0.26483 0.23196 0.58668 0.0
C1317 C 0.25894 0.20494 0.57863 0.0
C1318 C 0.26986 0.19591 0.56299 0.0
C1319 C 0.28655 0.21384 0.55521 0.0
C1320 C 0.29233 0.24087 0.56302 0.0
C1321 C 0.28149 0.24998 0.57867 0.0
H1322 H 0.29498 0.20682 0.5431 0.0
H1323 H 0.18784 0.29535 0.69415 0.0
H1324 H 0.74336 0.1267 0.84496 0.0
H1325 H 0.76365 0.17358 0.84274 0.0
H1326 H 0.69933 0.21987 0.83957 0.0
H1327 H 0.67866 0.17268 0.84189 0.0
H1328 H 0.73391 0.24017 0.81507 0.0
H1329 H 0.72464 0.22036 0.87741 0.0
H1330 H 0.72685 0.19004 0.90455 0.0
H1331 H 0.79975 0.18327 0.89849 0.0
H1332 H 0.79793 0.2132 0.87115 0.0
H1333 H 0.77449 0.38304 0.83713 0.0
H1334 H 0.75444 0.33594 0.83521 0.0
H1335 H 0.81768 0.2898 0.84521 0.0
H1336 H 0.83796 0.33719 0.84737 0.0
H1337 H 0.78357 0.26908 0.86574 0.0
H1338 H 0.79375 0.28848 0.80399 0.0
H1339 H 0.79248 0.31733 0.77625 0.0
H1340 H 0.71938 0.32409 0.78053 0.0
H1341 H 0.72023 0.29548 0.80843 0.0
C1342 C 0.73343 0.14677 0.84366 0.0
C1343 C 0.70936 0.14598 0.84372 0.0
C1344 C 0.7451 0.17356 0.84242 0.0
C1345 C 0.73299 0.20016 0.84118 0.0
C1346 C 0.70896 0.19951 0.84056 0.0
C1347 C 0.6972 0.17259 0.84193 0.0
C1348 C 0.74561 0.22856 0.84125 0.0
C1349 C 0.7445 0.24679 0.82623 0.0
C1350 C 0.75995 0.23662 0.85563 0.0
C1351 C 0.76111 0.21878 0.87213 0.0
C1352 C 0.74112 0.2122 0.88178 0.0
C1353 C 0.7423 0.19512 0.89722 0.0
C1354 C 0.76342 0.18467 0.90322 0.0
C1355 C 0.7834 0.19135 0.89382 0.0
C1356 C 0.7823 0.20839 0.87836 0.0
C1357 C 0.78423 0.3629 0.8388 0.0
C1358 C 0.80784 0.36385 0.84243 0.0
C1359 C 0.77273 0.33595 0.8376 0.0
C1360 C 0.78458 0.30932 0.83989 0.0
C1361 C 0.80822 0.31011 0.84335 0.0
C1362 C 0.81979 0.33716 0.84453 0.0
C1363 C 0.77196 0.28084 0.83952 0.0
C1364 C 0.77302 0.26256 0.85453 0.0
C1365 C 0.75771 0.27268 0.82509 0.0
C1366 C 0.75708 0.29003 0.80838 0.0
C1367 C 0.77742 0.29632 0.7991 0.0
C1368 C 0.77677 0.31257 0.78333 0.0
C1369 C 0.75587 0.32254 0.77664 0.0
C1370 C 0.73556 0.31632 0.78573 0.0
C1371 C 0.73611 0.30004 0.8015 0.0
H1372 H 0.75542 0.33495 0.76438 0.0
H1373 H 0.7643 0.17146 0.91517 0.0
H1374 H 0.1854 0.65709 0.85521 0.0
H1375 H 0.20516 0.70485 0.85433 0.0
H1376 H 0.27017 0.66013 0.85078 0.0
H1377 H 0.25066 0.61252 0.85197 0.0
H1378 H 0.27237 0.70342 0.87441 0.0
H1379 H 0.24574 0.69338 0.81439 0.0
H1380 H 0.21716 0.68528 0.79075 0.0
H1381 H 0.18011 0.76201 0.808 0.0
H1382 H 0.2083 0.77033 0.83191 0.0
H1383 H 0.33856 0.83126 0.85295 0.0
H1384 H 0.32024 0.78251 0.85163 0.0
H1385 H 0.25381 0.82362 0.85519 0.0
H1386 H 0.27186 0.87213 0.85618 0.0
H1387 H 0.25332 0.78146 0.8307 0.0
H1388 H 0.27909 0.79027 0.89137 0.0
H1389 H 0.30749 0.7982 0.91516 0.0
H1390 H 0.3461 0.72359 0.89662 0.0
H1391 H 0.31806 0.71545 0.87257 0.0
C1392 C 0.20389 0.65747 0.85419 0.0
C1393 C 0.21645 0.63102 0.85367 0.0
C1394 C 0.21517 0.68476 0.85361 0.0
C1395 C 0.23916 0.68608 0.85233 0.0
C1396 C 0.25167 0.65968 0.85179 0.0
C1397 C 0.24046 0.63246 0.85243 0.0
C1398 C 0.25136 0.7149 0.85194 0.0
C1399 C 0.26842 0.72032 0.86469 0.0
C1400 C 0.24594 0.73719 0.83947 0.0
C1401 C 0.22902 0.73231 0.82505 0.0
C1402 C 0.2314 0.70839 0.81323 0.0
C1403 C 0.21529 0.70379 0.79977 0.0
C1404 C 0.1968 0.72308 0.7979 0.0
C1405 C 0.19442 0.74707 0.80948 0.0
C1406 C 0.21047 0.75175 0.82298 0.0
C1407 C 0.32006 0.82986 0.85343 0.0
C1408 C 0.30668 0.85556 0.85472 0.0
C1409 C 0.30961 0.80201 0.85273 0.0
C1410 C 0.28563 0.79938 0.85347 0.0
C1411 C 0.27231 0.82506 0.85457 0.0
C1412 C 0.2827 0.85281 0.8552 0.0
C1413 C 0.27424 0.77001 0.85323 0.0
C1414 C 0.25732 0.7645 0.84037 0.0
C1415 C 0.27978 0.74762 0.8656 0.0
C1416 C 0.29661 0.75245 0.88007 0.0
C1417 C 0.29373 0.7757 0.89229 0.0
C1418 C 0.30974 0.7802 0.90583 0.0
C1419 C 0.32862 0.76147 0.90737 0.0
C1420 C 0.33149 0.73812 0.89539 0.0
C1421 C 0.31553 0.73354 0.88181 0.0
H1422 H 0.341 0.76499 0.91786 0.0
H1423 H 0.18435 0.71948 0.78747 0.0
H1424 H 0.28621 0.95055 0.31135 0.0
H1425 H 0.27558 0.94114 0.28038 0.0
H1426 H 0.28082 0.03428 0.26905 0.0
H1427 H 0.29105 0.04397 0.29989 0.0
H1428 H 0.24569 0.00864 0.2506 0.0
H1429 H 0.32617 0.99011 0.26264 0.0
H1430 H 0.35823 0.96593 0.27818 0.0
H1431 H 0.33362 0.88095 0.26133 0.0
H1432 H 0.30123 0.90467 0.24588 0.0
H1433 H 0.28912 0.02533 0.1634 0.0
H1434 H 0.27825 0.02441 0.19475 0.0
H1435 H 0.27577 0.92917 0.19329 0.0
H1436 H 0.28695 0.92985 0.16206 0.0
H1437 H 0.30331 0.94809 0.21864 0.0
H1438 H 0.22714 0.96927 0.20083 0.0
H1439 H 0.19631 0.99496 0.18475 0.0
H1440 H 0.2132 0.07593 0.21154 0.0
H1441 H 0.24437 0.05084 0.2276 0.0
C1442 C 0.28473 0.96909 0.30233 0.0
C1443 C 0.28986 -0.00204 0.30799 0.0
C1444 C 0.27863 0.96365 0.28467 0.0
C1445 C 0.27771 0.98698 0.27243 0.0
C1446 C 0.28142 0.01598 0.27831 0.0
C1447 C 0.28747 0.02144 0.29592 0.0
C1448 C 0.27556 0.98117 0.25317 0.0
C1449 C 0.25822 0.99538 0.24354 0.0
C1450 C 0.29166 0.96336 0.2441 0.0
C1451 C 0.31114 0.94911 0.25332 0.0
C1452 C 0.32751 0.96626 0.26238 0.0
C1453 C 0.34575 0.95264 0.27114 0.0
C1454 C 0.34791 0.92191 0.2708 0.0
C1455 C 0.33188 0.90474 0.26163 0.0
C1456 C 0.31359 0.91825 0.25287 0.0
C1457 C 0.28581 0.00422 0.16965 0.0
C1458 C 0.28922 0.97766 0.16033 0.0
C1459 C 0.27943 0.00372 0.18754 0.0
C1460 C 0.27613 0.9767 0.19632 0.0
C1461 C 0.27825 0.95024 0.18676 0.0
C1462 C 0.28472 0.9507 0.16892 0.0
C1463 C 0.27364 0.976 0.21588 0.0
C1464 C 0.29028 0.96067 0.22562 0.0
C1465 C 0.25698 0.99294 0.22496 0.0
C1466 C 0.23821 0.00817 0.21535 0.0
C1467 C 0.22441 0.9926 0.2032 0.0
C1468 C 0.20684 0.00705 0.19411 0.0
C1469 C 0.20282 0.03706 0.1971 0.0
C1470 C 0.21633 0.05268 0.20923 0.0
C1471 C 0.23393 0.03834 0.21836 0.0
H1472 H 0.18921 0.04821 0.19005 0.0
H1473 H 0.36205 0.91141 0.27759 0.0
H1474 H 0.69988 0.94394 0.15726 0.0
H1475 H 0.71053 0.93618 0.18841 0.0
H1476 H 0.7087 0.03029 0.19747 0.0
H1477 H 0.69856 0.03827 0.16652 0.0
H1478 H 0.74229 0.00495 0.21675 0.0
H1479 H 0.66146 0.98855 0.20449 0.0
H1480 H 0.62894 0.96429 0.18945 0.0
H1481 H 0.65121 0.87998 0.20889 0.0
H1482 H 0.68403 0.90376 0.22388 0.0
H1483 H 0.69698 0.03168 0.30287 0.0
H1484 H 0.708 0.02771 0.27156 0.0
H1485 H 0.70971 0.93274 0.27604 0.0
H1486 H 0.69848 0.93643 0.30715 0.0
H1487 H 0.68237 0.95008 0.24984 0.0
H1488 H 0.75867 0.97078 0.26815 0.0
H1489 H 0.78947 -0.00256 0.28383 0.0
H1490 H 0.77469 0.07577 0.2539 0.0
H1491 H 0.74356 0.04972 0.23821 0.0
C1492 C 0.70218 0.96298 0.16582 0.0
C1493 C 0.69794 0.99167 0.15953 0.0
C1494 C 0.70828 0.95851 0.18358 0.0
C1495 C 0.71007 0.98266 0.19525 0.0
C1496 C 0.7074 0.01136 0.18868 0.0
C1497 C 0.70138 0.01584 0.171 0.0
C1498 C 0.71183 0.97831 0.21466 0.0
C1499 C 0.72928 0.99289 0.22405 0.0
C1500 C 0.69504 0.96214 0.22408 0.0
C1501 C 0.67533 0.94785 0.21509 0.0
C1502 C 0.6595 0.96481 0.20543 0.0
C1503 C 0.64101 0.95116 0.19694 0.0
C1504 C 0.63806 0.9206 0.19816 0.0
C1505 C 0.65356 0.90364 0.20792 0.0
C1506 C 0.6721 0.91718 0.21641 0.0
C1507 C 0.70011 0.01001 0.29726 0.0
C1508 C 0.69653 0.98438 0.30739 0.0
C1509 C 0.70656 0.00776 0.27941 0.0
C1510 C 0.70973 0.9799 0.27153 0.0
C1511 C 0.70732 0.95442 0.28188 0.0
C1512 C 0.70081 0.95662 0.29964 0.0
C1513 C 0.7126 0.97722 0.25207 0.0
C1514 C 0.69587 0.96142 0.24264 0.0
C1515 C 0.72991 0.99253 0.2427 0.0
C1516 C 0.74867 0.00831 0.25207 0.0
C1517 C 0.76186 0.99376 0.265 0.0
C1518 C 0.77941 0.00875 0.27387 0.0
C1519 C 0.78401 0.0383 0.26988 0.0
C1520 C 0.7711 0.05289 0.25698 0.0
C1521 C 0.75353 0.038 0.24807 0.0
H1522 H 0.7976 0.04987 0.27677 0.0
H1523 H 0.62372 0.91007 0.19159 0.0
H1524 H 0.69934 0.95538 0.80669 0.0
H1525 H 0.70821 0.95187 0.77493 0.0
H1526 H 0.73272 0.04183 0.77545 0.0
H1527 H 0.72355 0.04563 0.80698 0.0
H1528 H 0.69822 0.0347 0.75294 0.0
H1529 H 0.7686 0.98541 0.76469 0.0
H1530 H 0.79401 0.94824 0.77815 0.0
H1531 H 0.75649 0.87885 0.75224 0.0
H1532 H 0.73062 0.91556 0.73882 0.0
H1533 H 0.70466 0.03347 0.65933 0.0
H1534 H 0.71835 0.03708 0.69001 0.0
H1535 H 0.69745 0.947 0.69944 0.0
H1536 H 0.68436 0.94292 0.66884 0.0
H1537 H 0.73661 0.95823 0.71629 0.0
H1538 H 0.66254 0.00512 0.7101 0.0
H1539 H 0.63506 0.04065 0.69746 0.0
H1540 H 0.67786 0.11278 0.71408 0.0
H1541 H 0.70574 0.0776 0.72663 0.0
C1542 C 0.70728 0.97405 0.80013 0.0
C1543 C 0.71035 0.00093 0.80915 0.0
C1544 C 0.71243 0.972 0.78201 0.0
C1545 C 0.72101 -0.00332 0.77284 0.0
C1546 C 0.726 0.02262 0.78227 0.0
C1547 C 0.72067 0.02476 0.80026 0.0
C1548 C 0.72096 -0.00279 0.7532 0.0
C1549 C 0.70714 0.01843 0.74491 0.0
C1550 C 0.73203 0.97547 0.7428 0.0
C1551 C 0.74756 0.95327 0.75084 0.0
C1552 C 0.76564 0.96221 0.76197 0.0
C1553 C 0.78015 0.94122 0.76957 0.0
C1554 C 0.77684 0.9112 0.76608 0.0
C1555 C 0.75903 0.90211 0.75494 0.0
C1556 C 0.74446 0.92301 0.74731 0.0
C1557 C 0.70316 0.01438 0.66791 0.0
C1558 C 0.69315 0.98805 0.66173 0.0
C1559 C 0.71104 0.01645 0.6854 0.0
C1560 C 0.70866 0.9924 0.69703 0.0
C1561 C 0.69951 0.96578 0.69067 0.0
C1562 C 0.69186 0.9636 0.67319 0.0
C1563 C 0.71371 0.9955 0.7162 0.0
C1564 C 0.72826 0.97492 0.72437 0.0
C1565 C 0.70309 0.0176 0.72661 0.0
C1566 C 0.68634 0.03875 0.71909 0.0
C1567 C 0.66616 0.02855 0.71093 0.0
C1568 C 0.65051 0.04862 0.70381 0.0
C1569 C 0.65475 0.07895 0.70491 0.0
C1570 C 0.67463 0.08927 0.71319 0.0
C1571 C 0.69036 0.06929 0.72032 0.0
H1572 H 0.6426 0.09445 0.69939 0.0
H1573 H 0.7881 0.89498 0.77197 0.0
H1574 H 0.29822 0.03608 0.80363 0.0
H1575 H 0.28471 0.03388 0.77286 0.0
H1576 H 0.28238 0.93876 0.77566 0.0
H1577 H 0.29602 0.94068 0.80623 0.0
H1578 H 0.30845 0.9575 0.74885 0.0
H1579 H 0.23349 0.97738 0.77047 0.0
H1580 H 0.20371 0.00333 0.78765 0.0
H1581 H 0.21663 0.08278 0.75821 0.0
H1582 H 0.24674 0.05744 0.74102 0.0
H1583 H 0.28369 0.95012 0.65801 0.0
H1584 H 0.27468 0.94378 0.68954 0.0
H1585 H 0.27905 0.03803 0.69738 0.0
H1586 H 0.28763 0.04467 0.66596 0.0
H1587 H 0.24643 0.01323 0.71894 0.0
H1588 H 0.3258 -0.00307 0.70256 0.0
H1589 H 0.35692 0.97294 0.68573 0.0
H1590 H 0.33656 0.8884 0.70619 0.0
H1591 H 0.3051 0.9119 0.72297 0.0
C1592 C 0.29441 0.01475 0.79779 0.0
C1593 C 0.29854 0.98856 0.80725 0.0
C1594 C 0.28654 0.01352 0.78026 0.0
C1595 C 0.28252 0.98613 0.77203 0.0
C1596 C 0.28541 0.96009 0.78179 0.0
C1597 C 0.29331 0.96127 0.79924 0.0
C1598 C 0.27844 0.98445 0.75266 0.0
C1599 C 0.2945 0.96904 0.74236 0.0
C1600 C 0.2606 0.00014 0.74421 0.0
C1601 C 0.24251 0.01553 0.75453 0.0
C1602 C 0.23013 0.00045 0.76775 0.0
C1603 C 0.21315 0.01504 0.77748 0.0
C1604 C 0.20831 0.0447 0.77405 0.0
C1605 C 0.2204 0.05981 0.76086 0.0
C1606 C 0.23741 0.04532 0.7511 0.0
C1607 C 0.28223 0.96954 0.66636 0.0
C1608 C 0.28687 -0.00216 0.65958 0.0
C1609 C 0.27705 0.96588 0.68435 0.0
C1610 C 0.27658 0.99041 0.69579 0.0
C1611 C 0.27937 0.01882 0.68876 0.0
C1612 C 0.28449 0.02252 0.67082 0.0
C1613 C 0.27653 0.9865 0.71528 0.0
C1614 C 0.25992 0.00103 0.72555 0.0
C1615 C 0.29399 0.97022 0.72381 0.0
C1616 C 0.31295 0.9561 0.71381 0.0
C1617 C 0.32787 0.9732 0.70336 0.0
C1618 C 0.34557 0.9597 0.69385 0.0
C1619 C 0.34867 0.92915 0.69484 0.0
C1620 C 0.3341 0.91205 0.7054 0.0
C1621 C 0.31633 0.92544 0.71491 0.0
H1622 H 0.36239 0.91874 0.68748 0.0
H1623 H 0.19515 0.05595 0.78159 0.0
H1624 H 0.78245 0.5491 0.15254 0.0
H1625 H 0.76915 0.55642 0.18313 0.0
H1626 H 0.77639 0.46307 0.19307 0.0
H1627 H 0.78895 0.45544 0.16264 0.0
H1628 H 0.74059 0.48415 0.21093 0.0
H1629 H 0.82043 0.51248 0.20141 0.0
H1630 H 0.8512 0.54168 0.18739 0.0
H1631 H 0.81979 0.62188 0.2057 0.0
H1632 H 0.78868 0.59311 0.21966 0.0
H1633 H 0.78601 0.46013 0.29646 0.0
H1634 H 0.77399 0.46462 0.2655 0.0
H1635 H 0.76599 0.55871 0.27228 0.0
H1636 H 0.77837 0.5545 0.30312 0.0
H1637 H 0.79382 0.54693 0.24582 0.0
H1638 H 0.71958 0.5148 0.26251 0.0
H1639 H 0.69066 0.48362 0.27726 0.0
H1640 H 0.71244 0.40882 0.24646 0.0
H1641 H 0.74174 0.43942 0.2317 0.0
C1642 C 0.78081 0.53008 0.16117 0.0
C1643 C 0.78717 0.50178 0.15526 0.0
C1644 C 0.77319 0.5343 0.17862 0.0
C1645 C 0.77214 0.51035 0.19044 0.0
C1646 C 0.77706 0.48187 0.18419 0.0
C1647 C 0.78446 0.4776 0.16679 0.0
C1648 C 0.76872 0.51488 0.20975 0.0
C1649 C 0.75212 0.49795 0.21862 0.0
C1650 C 0.78342 0.53345 0.2197 0.0
C1651 C 0.80211 0.55071 0.21135 0.0
C1652 C 0.82002 0.53635 0.20233 0.0
C1653 C 0.83753 0.55281 0.19441 0.0
C1654 C 0.83741 0.58362 0.1956 0.0
C1655 C 0.81982 0.59802 0.20475 0.0
C1656 C 0.80226 0.58166 0.21266 0.0
C1657 C 0.78121 0.48167 0.29147 0.0
C1658 C 0.78349 0.507 0.30214 0.0
C1659 C 0.77417 0.4842 0.2738 0.0
C1660 C 0.76902 0.51202 0.2666 0.0
C1661 C 0.7699 0.53706 0.27757 0.0
C1662 C 0.77706 0.53459 0.29518 0.0
C1663 C 0.76615 0.51543 0.24716 0.0
C1664 C 0.78168 0.53384 0.23823 0.0
C1665 C 0.75062 0.49797 0.23725 0.0
C1666 C 0.73295 0.47943 0.24604 0.0
C1667 C 0.71832 0.49166 0.25896 0.0
C1668 C 0.70184 0.47408 0.26731 0.0
C1669 C 0.69973 0.44425 0.26281 0.0
C1670 C 0.71409 0.43194 0.24993 0.0
C1671 C 0.73061 0.44941 0.24154 0.0
H1672 H 0.68696 0.43068 0.2693 0.0
H1673 H 0.85098 0.59633 0.18946 0.0
H1674 H 0.20575 0.55216 0.30853 0.0
H1675 H 0.22023 0.55788 0.27813 0.0
H1676 H 0.21092 0.46449 0.26902 0.0
H1677 H 0.19719 0.45845 0.29924 0.0
H1678 H 0.24772 0.48347 0.25159 0.0
H1679 H 0.16819 0.51566 0.25958 0.0
H1680 H 0.13815 0.54713 0.27276 0.0
H1681 H 0.17273 0.62469 0.25379 0.0
H1682 H 0.2031 0.59363 0.24066 0.0
H1683 H 0.20076 0.45348 0.16751 0.0
H1684 H 0.21384 0.46062 0.19805 0.0
H1685 H 0.22344 0.55364 0.18801 0.0
H1686 H 0.20994 0.5468 0.15761 0.0
H1687 H 0.19623 0.54567 0.21507 0.0
H1688 H 0.26929 0.50931 0.19906 0.0
H1689 H 0.29743 0.47597 0.18514 0.0
H1690 H 0.27435 0.40469 0.2182 0.0
H1691 H 0.24582 0.43744 0.23215 0.0
C1692 C 0.20719 0.5328 0.30013 0.0
C1693 C 0.1999 0.50496 0.30618 0.0
C1694 C 0.21549 0.53609 0.28279 0.0
C1695 C 0.21631 0.51167 0.27124 0.0
C1696 C 0.21045 0.48364 0.27768 0.0
C1697 C 0.20237 0.4803 0.29496 0.0
C1698 C 0.22035 0.51528 0.25194 0.0
C1699 C 0.23661 0.49717 0.24354 0.0
C1700 C 0.20626 0.53379 0.24151 0.0
C1701 C 0.18802 0.5524 0.24937 0.0
C1702 C 0.16944 0.53944 0.25834 0.0
C1703 C 0.15236 0.55719 0.26578 0.0
C1704 C 0.15358 0.5879 0.26417 0.0
C1705 C 0.17185 0.60091 0.25507 0.0
C1706 C 0.18899 0.58326 0.24763 0.0
C1707 C 0.20615 0.47532 0.17169 0.0
C1708 C 0.20395 0.49964 0.16027 0.0
C1709 C 0.21381 0.47935 0.18911 0.0
C1710 C 0.2197 0.50768 0.19529 0.0
C1711 C 0.21896 0.53162 0.18352 0.0
C1712 C 0.21114 0.52766 0.16618 0.0
C1713 C 0.223 0.51292 0.21456 0.0
C1714 C 0.20803 0.53271 0.22299 0.0
C1715 C 0.23814 0.49573 0.22492 0.0
C1716 C 0.25533 0.47587 0.21662 0.0
C1717 C 0.2701 0.48648 0.20329 0.0
C1718 C 0.28614 0.46768 0.1954 0.0
C1719 C 0.28767 0.43823 0.20077 0.0
C1720 C 0.27316 0.42752 0.21406 0.0
C1721 C 0.25708 0.44621 0.22199 0.0
H1722 H 0.3001 0.42371 0.19464 0.0
H1723 H 0.14034 0.6016 0.26994 0.0
H1724 H 0.23201 0.53882 0.80795 0.0
H1725 H 0.24217 0.54051 0.77647 0.0
H1726 H 0.2167 0.4517 0.76968 0.0
H1727 H 0.2072 0.4495 0.80131 0.0
H1728 H 0.25216 0.46324 0.74693 0.0
H1729 H 0.18081 0.51064 0.76537 0.0
H1730 H 0.15855 0.54643 0.78309 0.0
H1731 H 0.19807 0.61778 0.76131 0.0
H1732 H 0.22073 0.58231 0.74361 0.0
H1733 H 0.19189 0.45082 0.66756 0.0
H1734 H 0.20815 0.45372 0.69717 0.0
H1735 H 0.22563 0.54524 0.68854 0.0
H1736 H 0.20861 0.54276 0.65881 0.0
H1737 H 0.20366 0.53941 0.71827 0.0
H1738 H 0.26798 0.49068 0.69354 0.0
H1739 H 0.28878 0.45376 0.67564 0.0
H1740 H 0.26218 0.38419 0.70843 0.0
H1741 H 0.24097 0.42062 0.7264 0.0
C1742 C 0.22914 0.51937 0.79984 0.0
C1743 C 0.21838 0.49423 0.80695 0.0
C1744 C 0.235 0.52036 0.78188 0.0
C1745 C 0.22966 0.49651 0.77069 0.0
C1746 C 0.22088 0.47039 0.77809 0.0
C1747 C 0.21536 0.4692 0.79615 0.0
C1748 C 0.22972 0.50023 0.75116 0.0
C1749 C 0.24166 0.4799 0.74058 0.0
C1750 C 0.21647 0.52252 0.74295 0.0
C1751 C 0.2026 0.54385 0.75334 0.0
C1752 C 0.1848 0.53395 0.76443 0.0
C1753 C 0.17212 0.55417 0.77446 0.0
C1754 C 0.17694 0.58435 0.77336 0.0
C1755 C 0.19439 0.59439 0.76217 0.0
C1756 C 0.20715 0.57425 0.75213 0.0
C1757 C 0.19943 0.47152 0.6718 0.0
C1758 C 0.19878 0.49665 0.66086 0.0
C1759 C 0.209 0.47304 0.68872 0.0
C1760 C 0.2185 0.49955 0.695 0.0
C1761 C 0.21854 0.52449 0.68391 0.0
C1762 C 0.20875 0.52306 0.66696 0.0
C1763 C 0.22561 0.50186 0.71385 0.0
C1764 C 0.21487 0.5233 0.72442 0.0
C1765 C 0.23989 0.48049 0.72196 0.0
C1766 C 0.25282 0.45844 0.71131 0.0
C1767 C 0.26647 0.4675 0.69689 0.0
C1768 C 0.27834 0.44665 0.68673 0.0
C1769 C 0.27679 0.41665 0.69089 0.0
C1770 C 0.26339 0.40744 0.70524 0.0
C1771 C 0.25148 0.4282 0.71545 0.0
H1772 H 0.28598 0.40055 0.683 0.0
H1773 H 0.16712 0.59997 0.78115 0.0
H1774 H 0.76358 0.53275 0.65499 0.0
H1775 H 0.75222 0.53597 0.6862 0.0
H1776 H 0.78311 0.45103 0.69602 0.0
H1777 H 0.79374 0.4472 0.66465 0.0
H1778 H 0.74662 0.46125 0.7183 0.0
H1779 H 0.81544 0.51509 0.698 0.0
H1780 H 0.83422 0.55213 0.67884 0.0
H1781 H 0.78893 0.61921 0.69868 0.0
H1782 H 0.76978 0.58245 0.71784 0.0
H1783 H 0.81124 0.45561 0.79481 0.0
H1784 H 0.79351 0.45746 0.76573 0.0
H1785 H 0.77295 0.54767 0.7752 0.0
H1786 H 0.79143 0.54627 0.80447 0.0
H1787 H 0.79219 0.54321 0.74432 0.0
H1788 H 0.73284 0.49061 0.77228 0.0
H1789 H 0.71441 0.45327 0.79132 0.0
H1790 H 0.73999 0.38413 0.75766 0.0
H1791 H 0.7591 0.4209 0.73866 0.0
C1792 C 0.76731 0.51436 0.66371 0.0
C1793 C 0.77995 0.48998 0.65757 0.0
C1794 C 0.76078 0.51622 0.68151 0.0
C1795 C 0.76738 0.49412 0.69348 0.0
C1796 C 0.77795 0.4684 0.68699 0.0
C1797 C 0.7841 0.46626 0.66909 0.0
C1798 C 0.76702 0.49974 0.71285 0.0
C1799 C 0.75646 0.47917 0.72409 0.0
C1800 C 0.77915 0.52385 0.72032 0.0
C1801 C 0.79108 0.54604 0.7092 0.0
C1802 C 0.80949 0.53775 0.69824 0.0
C1803 C 0.82018 0.55867 0.68738 0.0
C1804 C 0.81274 0.58799 0.68752 0.0
C1805 C 0.79466 0.59648 0.69858 0.0
C1806 C 0.7839 0.57563 0.70944 0.0
C1807 C 0.8028 0.47584 0.79085 0.0
C1808 C 0.80284 0.50087 0.80195 0.0
C1809 C 0.79238 0.47673 0.77425 0.0
C1810 C 0.78141 0.50247 0.76841 0.0
C1811 C 0.78113 0.52747 0.77952 0.0
C1812 C 0.79176 0.52668 0.79619 0.0
C1813 C 0.77268 0.50385 0.74995 0.0
C1814 C 0.78159 0.52579 0.73877 0.0
C1815 C 0.75896 0.48102 0.74263 0.0
C1816 C 0.74749 0.45863 0.75404 0.0
C1817 C 0.73472 0.46744 0.769 0.0
C1818 C 0.72415 0.44633 0.77981 0.0
C1819 C 0.72609 0.41632 0.77574 0.0
C1820 C 0.73857 0.40736 0.76084 0.0
C1821 C 0.74925 0.42834 0.75002 0.0
H1822 H 0.71789 0.40001 0.78411 0.0
H1823 H 0.821 0.60414 0.67907 0.0
loop_
_geom_bond_atom_site_label_1
_geom_bond_atom_site_label_2
_geom_bond_distance
_geom_bond_site_symmetry_2
_ccdc_geom_bond_type
C0 O1 1.306 1_545 S
C0 O3 1.160 . S
O1 C0 1.306 1_565 S
O1 Cd2 2.228 . S
Cd2 O1 2.228 . S
Cd2 O6 2.273 1_565 S
Cd2 O10 2.277 1_565 S
O3 C0 1.160 . S
O3 Cd4 2.203 . S
Cd4 O3 2.203 . S
Cd4 O6 2.411 . S
Cd4 O7 2.333 . S
Cd4 O8 2.352 . S
Cd4 O12 2.277 . S
Cd4 O13 2.356 . S
C5 O10 1.209 . S
C5 O12 1.226 . S
O6 Cd2 2.273 1_545 S
O6 Cd4 2.411 . S
O6 C9 1.320 . S
O7 Cd4 2.333 . S
O7 C9 1.214 . S
O8 Cd4 2.352 . S
O8 C11 1.258 . S
C9 O6 1.320 . S
C9 O7 1.214 . S
O10 Cd2 2.277 1_545 S
O10 C5 1.209 . S
C11 O8 1.258 . S
C11 O13 1.282 . S
O12 Cd4 2.277 . S
O12 C5 1.226 . S
O13 Cd4 2.356 . S
O13 C11 1.282 . S
C14 O15 1.306 1_565 S
C14 O17 1.160 . S
O15 C14 1.306 1_545 S
O15 Cd16 2.228 . S
Cd16 O15 2.228 . S
Cd16 O20 2.273 1_545 S
Cd16 O24 2.277 1_545 S
O17 C14 1.160 . S
O17 Cd18 2.203 . S
Cd18 O17 2.203 . S
Cd18 O20 2.411 . S
Cd18 O21 2.333 . S
Cd18 O22 2.352 . S
Cd18 O26 2.277 . S
Cd18 O27 2.356 . S
C19 O24 1.209 . S
C19 O26 1.226 . S
O20 Cd16 2.273 1_565 S
O20 Cd18 2.411 . S
O20 C23 1.320 . S
O21 Cd18 2.333 . S
O21 C23 1.214 . S
O22 Cd18 2.352 . S
O22 C25 1.258 . S
C23 O20 1.320 . S
C23 O21 1.214 . S
O24 Cd16 2.277 1_565 S
O24 C19 1.209 . S
C25 O22 1.258 . S
C25 O27 1.282 . S
O26 Cd18 2.277 . S
O26 C19 1.226 . S
O27 Cd18 2.356 . S
O27 C25 1.282 . S
C28 O29 1.306 1_565 S
C28 O31 1.160 . S
O29 C28 1.306 1_545 S
O29 Cd30 2.228 . S
Cd30 O29 2.228 . S
Cd30 O34 2.273 1_545 S
Cd30 O38 2.277 1_545 S
O31 C28 1.160 . S
O31 Cd32 2.203 . S
Cd32 O31 2.203 . S
Cd32 O34 2.411 . S
Cd32 O35 2.333 . S
Cd32 O36 2.352 . S
Cd32 O40 2.277 . S
Cd32 O41 2.356 . S
C33 O38 1.209 . S
C33 O40 1.226 . S
O34 Cd30 2.273 1_565 S
O34 Cd32 2.411 . S
O34 C37 1.320 . S
O35 Cd32 2.333 . S
O35 C37 1.214 . S
O36 Cd32 2.352 . S
O36 C39 1.258 . S
C37 O34 1.320 . S
C37 O35 1.214 . S
O38 Cd30 2.277 1_565 S
O38 C33 1.209 . S
C39 O36 1.258 . S
C39 O41 1.282 . S
O40 Cd32 2.277 . S
O40 C33 1.226 . S
O41 Cd32 2.356 . S
O41 C39 1.282 . S
C42 O43 1.306 1_545 S
C42 O45 1.160 . S
O43 C42 1.306 1_565 S
O43 Cd44 2.228 . S
Cd44 O43 2.228 . S
Cd44 O48 2.273 1_565 S
Cd44 O52 2.277 1_565 S
O45 C42 1.160 . S
O45 Cd46 2.203 . S
Cd46 O45 2.203 . S
Cd46 O48 2.411 . S
Cd46 O49 2.333 . S
Cd46 O50 2.352 . S
Cd46 O54 2.277 . S
Cd46 O55 2.356 . S
C47 O52 1.209 . S
C47 O54 1.226 . S
O48 Cd44 2.273 1_545 S
O48 Cd46 2.411 . S
O48 C51 1.320 . S
O49 Cd46 2.333 . S
O49 C51 1.214 . S
O50 Cd46 2.352 . S
O50 C53 1.258 . S
C51 O48 1.320 . S
C51 O49 1.214 . S
O52 Cd44 2.277 1_545 S
O52 C47 1.209 . S
C53 O50 1.258 . S
C53 O55 1.282 . S
O54 Cd46 2.277 . S
O54 C47 1.226 . S
O55 Cd46 2.356 . S
O55 C53 1.282 . S
C56 O57 1.306 1_565 S
C56 O59 1.160 . S
O57 C56 1.306 1_545 S
O57 Cd58 2.228 . S
Cd58 O57 2.228 . S
Cd58 O62 2.273 1_545 S
Cd58 O66 2.277 1_545 S
O59 C56 1.160 . S
O59 Cd60 2.203 . S
Cd60 O59 2.203 . S
Cd60 O62 2.411 . S
Cd60 O63 2.333 . S
Cd60 O64 2.352 . S
Cd60 O68 2.277 . S
Cd60 O69 2.356 . S
C61 O66 1.209 . S
C61 O68 1.226 . S
O62 Cd58 2.273 1_565 S
O62 Cd60 2.411 . S
O62 C65 1.320 . S
O63 Cd60 2.333 . S
O63 C65 1.214 . S
O64 Cd60 2.352 . S
O64 C67 1.258 . S
C65 O62 1.320 . S
C65 O63 1.214 . S
O66 Cd58 2.277 1_565 S
O66 C61 1.209 . S
C67 O64 1.258 . S
C67 O69 1.282 . S
O68 Cd60 2.277 . S
O68 C61 1.226 . S
O69 Cd60 2.356 . S
O69 C67 1.282 . S
C70 O71 1.306 1_545 S
C70 O73 1.160 . S
O71 C70 1.306 1_565 S
O71 Cd72 2.228 . S
Cd72 O71 2.228 . S
Cd72 O76 2.273 1_565 S
Cd72 O80 2.277 1_565 S
O73 C70 1.160 . S
O73 Cd74 2.203 . S
Cd74 O73 2.203 . S
Cd74 O76 2.411 . S
Cd74 O77 2.333 . S
Cd74 O78 2.352 . S
Cd74 O82 2.277 . S
Cd74 O83 2.356 . S
C75 O80 1.209 . S
C75 O82 1.226 . S
O76 Cd72 2.273 1_545 S
O76 Cd74 2.411 . S
O76 C79 1.320 . S
O77 Cd74 2.333 . S
O77 C79 1.214 . S
O78 Cd74 2.352 . S
O78 C81 1.258 . S
C79 O76 1.320 . S
C79 O77 1.214 . S
O80 Cd72 2.277 1_545 S
O80 C75 1.209 . S
C81 O78 1.258 . S
C81 O83 1.282 . S
O82 Cd74 2.277 . S
O82 C75 1.226 . S
O83 Cd74 2.356 . S
O83 C81 1.282 . S
C84 O85 1.306 1_545 S
C84 O87 1.160 . S
O85 C84 1.306 1_565 S
O85 Cd86 2.228 . S
Cd86 O85 2.228 . S
Cd86 O90 2.273 1_565 S
Cd86 O94 2.277 1_565 S
O87 C84 1.160 . S
O87 Cd88 2.203 . S
Cd88 O87 2.203 . S
Cd88 O90 2.411 . S
Cd88 O91 2.333 . S
Cd88 O92 2.352 . S
Cd88 O96 2.277 . S
Cd88 O97 2.356 . S
C89 O94 1.209 . S
C89 O96 1.226 . S
O90 Cd86 2.273 1_545 S
O90 Cd88 2.411 . S
O90 C93 1.320 . S
O91 Cd88 2.333 . S
O91 C93 1.214 . S
O92 Cd88 2.352 . S
O92 C95 1.258 . S
C93 O90 1.320 . S
C93 O91 1.214 . S
O94 Cd86 2.277 1_545 S
O94 C89 1.209 . S
C95 O92 1.258 . S
C95 O97 1.282 . S
O96 Cd88 2.277 . S
O96 C89 1.226 . S
O97 Cd88 2.356 . S
O97 C95 1.282 . S
C98 O99 1.306 1_565 S
C98 O101 1.160 . S
O99 C98 1.306 1_545 S
O99 Cd100 2.228 . S
Cd100 O99 2.228 . S
Cd100 O104 2.273 1_545 S
Cd100 O108 2.277 1_545 S
O101 C98 1.160 . S
O101 Cd102 2.203 . S
Cd102 O101 2.203 . S
Cd102 O104 2.411 . S
Cd102 O105 2.333 . S
Cd102 O106 2.352 . S
Cd102 O110 2.277 . S
Cd102 O111 2.356 . S
C103 O108 1.209 . S
C103 O110 1.226 . S
O104 Cd100 2.273 1_565 S
O104 Cd102 2.411 . S
O104 C107 1.320 . S
O105 Cd102 2.333 . S
O105 C107 1.214 . S
O106 Cd102 2.352 . S
O106 C109 1.258 . S
C107 O104 1.320 . S
C107 O105 1.214 . S
O108 Cd100 2.277 1_565 S
O108 C103 1.209 . S
C109 O106 1.258 . S
C109 O111 1.282 . S
O110 Cd102 2.277 . S
O110 C103 1.226 . S
O111 Cd102 2.356 . S
O111 C109 1.282 . S
C112 O113 1.306 . S
C112 O115 1.160 . S
O113 C112 1.306 . S
O113 Cd114 2.228 . S
Cd114 O113 2.228 . S
Cd114 O118 2.273 . S
Cd114 O122 2.277 . S
O115 C112 1.160 . S
O115 Cd116 2.203 . S
Cd116 O115 2.203 . S
Cd116 O118 2.411 . S
Cd116 O119 2.333 . S
Cd116 O120 2.352 . S
Cd116 O124 2.277 . S
Cd116 O125 2.356 . S
C117 O122 1.209 . S
C117 O124 1.226 . S
O118 Cd114 2.273 . S
O118 Cd116 2.411 . S
O118 C121 1.320 . S
O119 Cd116 2.333 . S
O119 C121 1.214 . S
O120 Cd116 2.352 . S
O120 C123 1.258 . S
C121 O118 1.320 . S
C121 O119 1.214 . S
O122 Cd114 2.277 . S
O122 C117 1.209 . S
C123 O120 1.258 . S
C123 O125 1.282 . S
O124 Cd116 2.277 . S
O124 C117 1.226 . S
O125 Cd116 2.356 . S
O125 C123 1.282 . S
C126 O127 1.306 . S
C126 O129 1.160 . S
O127 C126 1.306 . S
O127 Cd128 2.228 . S
Cd128 O127 2.228 . S
Cd128 O132 2.273 . S
Cd128 O136 2.277 . S
O129 C126 1.160 . S
O129 Cd130 2.203 . S
Cd130 O129 2.203 . S
Cd130 O132 2.411 . S
Cd130 O133 2.333 . S
Cd130 O134 2.352 . S
Cd130 O138 2.277 . S
Cd130 O139 2.356 . S
C131 O136 1.209 . S
C131 O138 1.226 . S
O132 Cd128 2.273 . S
O132 Cd130 2.411 . S
O132 C135 1.320 . S
O133 Cd130 2.333 . S
O133 C135 1.214 . S
O134 Cd130 2.352 . S
O134 C137 1.258 . S
C135 O132 1.320 . S
C135 O133 1.214 . S
O136 Cd128 2.277 . S
O136 C131 1.209 . S
C137 O134 1.258 . S
C137 O139 1.282 . S
O138 Cd130 2.277 . S
O138 C131 1.226 . S
O139 Cd130 2.356 . S
O139 C137 1.282 . S
C140 O141 1.306 . S
C140 O143 1.160 . S
O141 C140 1.306 . S
O141 Cd142 2.228 . S
Cd142 O141 2.228 . S
Cd142 O146 2.273 . S
Cd142 O150 2.277 . S
O143 C140 1.160 . S
O143 Cd144 2.203 . S
Cd144 O143 2.203 . S
Cd144 O146 2.411 . S
Cd144 O147 2.333 . S
Cd144 O148 2.352 . S
Cd144 O152 2.277 . S
Cd144 O153 2.356 . S
C145 O150 1.209 . S
C145 O152 1.226 . S
O146 Cd142 2.273 . S
O146 Cd144 2.411 . S
O146 C149 1.320 . S
O147 Cd144 2.333 . S
O147 C149 1.214 . S
O148 Cd144 2.352 . S
O148 C151 1.258 . S
C149 O146 1.320 . S
C149 O147 1.214 . S
O150 Cd142 2.277 . S
O150 C145 1.209 . S
C151 O148 1.258 . S
C151 O153 1.282 . S
O152 Cd144 2.277 . S
O152 C145 1.226 . S
O153 Cd144 2.356 . S
O153 C151 1.282 . S
C154 O155 1.306 . S
C154 O157 1.160 . S
O155 C154 1.306 . S
O155 Cd156 2.228 . S
Cd156 O155 2.228 . S
Cd156 O160 2.273 . S
Cd156 O164 2.277 . S
O157 C154 1.160 . S
O157 Cd158 2.203 . S
Cd158 O157 2.203 . S
Cd158 O160 2.411 . S
Cd158 O161 2.333 . S
Cd158 O162 2.352 . S
Cd158 O166 2.277 . S
Cd158 O167 2.356 . S
C159 O164 1.209 . S
C159 O166 1.226 . S
O160 Cd156 2.273 . S
O160 Cd158 2.411 . S
O160 C163 1.320 . S
O161 Cd158 2.333 . S
O161 C163 1.214 . S
O162 Cd158 2.352 . S
O162 C165 1.258 . S
C163 O160 1.320 . S
C163 O161 1.214 . S
O164 Cd156 2.277 . S
O164 C159 1.209 . S
C165 O162 1.258 . S
C165 O167 1.282 . S
O166 Cd158 2.277 . S
O166 C159 1.226 . S
O167 Cd158 2.356 . S
O167 C165 1.282 . S
C168 O169 1.306 . S
C168 O171 1.160 . S
O169 C168 1.306 . S
O169 Cd170 2.228 . S
Cd170 O169 2.228 . S
Cd170 O174 2.273 . S
Cd170 O178 2.277 . S
O171 C168 1.160 . S
O171 Cd172 2.203 . S
Cd172 O171 2.203 . S
Cd172 O174 2.411 . S
Cd172 O175 2.333 . S
Cd172 O176 2.352 . S
Cd172 O180 2.277 . S
Cd172 O181 2.356 . S
C173 O178 1.209 . S
C173 O180 1.226 . S
O174 Cd170 2.273 . S
O174 Cd172 2.411 . S
O174 C177 1.320 . S
O175 Cd172 2.333 . S
O175 C177 1.214 . S
O176 Cd172 2.352 . S
O176 C179 1.258 . S
C177 O174 1.320 . S
C177 O175 1.214 . S
O178 Cd170 2.277 . S
O178 C173 1.209 . S
C179 O176 1.258 . S
C179 O181 1.282 . S
O180 Cd172 2.277 . S
O180 C173 1.226 . S
O181 Cd172 2.356 . S
O181 C179 1.282 . S
C182 O183 1.306 . S
C182 O185 1.160 . S
O183 C182 1.306 . S
O183 Cd184 2.228 . S
Cd184 O183 2.228 . S
Cd184 O188 2.273 . S
Cd184 O192 2.277 . S
O185 C182 1.160 . S
O185 Cd186 2.203 . S
Cd186 O185 2.203 . S
Cd186 O188 2.411 . S
Cd186 O189 2.333 . S
Cd186 O190 2.352 . S
Cd186 O194 2.277 . S
Cd186 O195 2.356 . S
C187 O192 1.209 . S
C187 O194 1.226 . S
O188 Cd184 2.273 . S
O188 Cd186 2.411 . S
O188 C191 1.320 . S
O189 Cd186 2.333 . S
O189 C191 1.214 . S
O190 Cd186 2.352 . S
O190 C193 1.258 . S
C191 O188 1.320 . S
C191 O189 1.214 . S
O192 Cd184 2.277 . S
O192 C187 1.209 . S
C193 O190 1.258 . S
C193 O195 1.282 . S
O194 Cd186 2.277 . S
O194 C187 1.226 . S
O195 Cd186 2.356 . S
O195 C193 1.282 . S
C196 O197 1.306 . S
C196 O199 1.160 . S
O197 C196 1.306 . S
O197 Cd198 2.228 . S
Cd198 O197 2.228 . S
Cd198 O202 2.273 . S
Cd198 O206 2.277 . S
O199 C196 1.160 . S
O199 Cd200 2.203 . S
Cd200 O199 2.203 . S
Cd200 O202 2.411 . S
Cd200 O203 2.333 . S
Cd200 O204 2.352 . S
Cd200 O208 2.277 . S
Cd200 O209 2.356 . S
C201 O206 1.209 . S
C201 O208 1.226 . S
O202 Cd198 2.273 . S
O202 Cd200 2.411 . S
O202 C205 1.320 . S
O203 Cd200 2.333 . S
O203 C205 1.214 . S
O204 Cd200 2.352 . S
O204 C207 1.258 . S
C205 O202 1.320 . S
C205 O203 1.214 . S
O206 Cd198 2.277 . S
O206 C201 1.209 . S
C207 O204 1.258 . S
C207 O209 1.282 . S
O208 Cd200 2.277 . S
O208 C201 1.226 . S
O209 Cd200 2.356 . S
O209 C207 1.282 . S
C210 O211 1.306 . S
C210 O213 1.160 . S
O211 C210 1.306 . S
O211 Cd212 2.228 . S
Cd212 O211 2.228 . S
Cd212 O216 2.273 . S
Cd212 O220 2.277 . S
O213 C210 1.160 . S
O213 Cd214 2.203 . S
Cd214 O213 2.203 . S
Cd214 O216 2.411 . S
Cd214 O217 2.333 . S
Cd214 O218 2.352 . S
Cd214 O222 2.277 . S
Cd214 O223 2.356 . S
C215 O220 1.209 . S
C215 O222 1.226 . S
O216 Cd212 2.273 . S
O216 Cd214 2.411 . S
O216 C219 1.320 . S
O217 Cd214 2.333 . S
O217 C219 1.214 . S
O218 Cd214 2.352 . S
O218 C221 1.258 . S
C219 O216 1.320 . S
C219 O217 1.214 . S
O220 Cd212 2.277 . S
O220 C215 1.209 . S
C221 O218 1.258 . S
C221 O223 1.282 . S
O222 Cd214 2.277 . S
O222 C215 1.226 . S
O223 Cd214 2.356 . S
O223 C221 1.282 . S
H224 C242 0.951 . S
H225 C244 0.951 . S
H226 C246 0.950 1_565 S
H227 C247 0.950 1_565 S
H228 C249 0.950 1_565 S
H229 C252 0.950 . S
H230 C253 0.950 . S
H231 C255 0.950 . S
H232 C256 0.950 . S
H233 C257 0.951 1_565 S
H234 C259 0.951 1_565 S
H235 C261 0.950 . S
H236 C262 0.950 . S
H237 C264 0.950 . S
H238 C267 0.950 . S
H239 C268 0.950 . S
H240 C270 0.950 . S
H241 C271 0.950 . S
C242 H224 0.951 . S
C242 C243 1.366 . S
C242 C244 1.388 . S
C243 C242 1.366 . S
C243 C247 1.385 . S
C244 H225 0.951 . S
C244 C242 1.388 . S
C244 C245 1.366 . S
C245 C244 1.366 . S
C245 C246 1.414 . S
C245 C248 1.499 . S
C246 H226 0.950 1_545 S
C246 C245 1.414 . S
C246 C247 1.374 . S
C247 H227 0.950 1_545 S
C247 C243 1.385 . S
C247 C246 1.374 . S
C248 C245 1.499 . S
C248 C249 1.373 . S
C248 C250 1.389 . S
C249 H228 0.950 1_545 S
C249 C248 1.373 . S
C249 C265 1.377 . S
C250 C248 1.389 . S
C250 C251 1.524 . S
C250 C264 1.377 . S
C251 C250 1.524 . S
C251 C252 1.397 . S
C251 C256 1.363 . S
C252 H229 0.950 . S
C252 C251 1.397 . S
C252 C253 1.334 . S
C253 H230 0.950 . S
C253 C252 1.334 . S
C253 C254 1.287 . S
C254 C253 1.287 . S
C254 C255 1.524 . S
C254 H273 0.913 . S
C255 H231 0.950 . S
C255 C254 1.524 . S
C255 C256 1.415 . S
C256 H232 0.950 . S
C256 C251 1.363 . S
C256 C255 1.415 . S
C257 H233 0.951 1_545 S
C257 C258 1.366 . S
C257 C259 1.388 . S
C258 C257 1.366 . S
C258 C262 1.385 . S
C259 H234 0.951 1_545 S
C259 C257 1.388 . S
C259 C260 1.366 . S
C260 C259 1.366 . S
C260 C261 1.414 . S
C260 C263 1.499 . S
C261 H235 0.950 . S
C261 C260 1.414 . S
C261 C262 1.374 . S
C262 H236 0.950 . S
C262 C258 1.385 . S
C262 C261 1.374 . S
C263 C260 1.499 . S
C263 C264 1.373 . S
C263 C265 1.389 . S
C264 H237 0.950 . S
C264 C250 1.377 . S
C264 C263 1.373 . S
C265 C249 1.377 . S
C265 C263 1.389 . S
C265 C266 1.524 1_545 S
C266 C265 1.524 1_565 S
C266 C267 1.397 . S
C266 C271 1.363 . S
C267 H238 0.950 . S
C267 C266 1.397 . S
C267 C268 1.334 . S
C268 H239 0.950 . S
C268 C267 1.334 . S
C268 C269 1.287 . S
C269 C268 1.287 . S
C269 C270 1.524 . S
C269 H272 0.999 . S
C270 H240 0.950 . S
C270 C269 1.524 . S
C270 C271 1.415 . S
C271 H241 0.950 . S
C271 C266 1.363 . S
C271 C270 1.415 . S
H272 C269 0.999 . S
H273 C254 0.913 . S
H274 C292 0.951 1_545 S
H275 C294 0.951 1_545 S
H276 C296 0.950 . S
H277 C297 0.950 . S
H278 C299 0.950 . S
H279 C302 0.950 . S
H280 C303 0.950 1_565 S
H281 C305 0.950 . S
H282 C306 0.950 . S
H283 C307 0.951 . S
H284 C309 0.951 . S
H285 C311 0.950 1_545 S
H286 C312 0.950 1_545 S
H287 C314 0.936 1_545 S
H288 C317 0.950 . S
H289 C318 0.950 . S
H290 C320 0.950 . S
H291 C321 0.950 . S
C292 H274 0.951 1_565 S
C292 C293 1.366 . S
C292 C294 1.388 . S
C293 C292 1.366 . S
C293 C297 1.385 . S
C294 H275 0.951 1_565 S
C294 C292 1.388 . S
C294 C295 1.366 . S
C295 C294 1.366 . S
C295 C296 1.414 . S
C295 C298 1.499 . S
C296 H276 0.950 . S
C296 C295 1.414 . S
C296 C297 1.374 . S
C297 H277 0.950 . S
C297 C293 1.385 . S
C297 C296 1.374 . S
C298 C295 1.499 . S
C298 C299 1.373 . S
C298 C300 1.389 . S
C299 H278 0.950 . S
C299 C298 1.373 . S
C299 C315 1.377 . S
C300 C298 1.389 . S
C300 C301 1.524 1_565 S
C300 C314 1.377 . S
C301 C300 1.524 1_545 S
C301 C302 1.397 1_545 S
C301 C306 1.363 . S
C302 H279 0.950 . S
C302 C301 1.397 1_565 S
C302 C303 1.334 1_565 S
C303 H280 0.950 1_545 S
C303 C302 1.334 1_545 S
C303 C304 1.287 . S
C304 C303 1.287 . S
C304 C305 1.524 . S
C304 H323 0.913 . S
C305 H281 0.950 . S
C305 C304 1.524 . S
C305 C306 1.415 . S
C306 H282 0.950 . S
C306 C301 1.363 . S
C306 C305 1.415 . S
C307 H283 0.951 . S
C307 C308 1.366 . S
C307 C309 1.388 . S
C308 C307 1.366 . S
C308 C312 1.385 . S
C309 H284 0.951 . S
C309 C307 1.388 . S
C309 C310 1.366 . S
C310 C309 1.366 . S
C310 C311 1.414 . S
C310 C313 1.499 . S
C311 H285 0.950 1_565 S
C311 C310 1.414 . S
C311 C312 1.374 . S
C312 H286 0.950 1_565 S
C312 C308 1.385 . S
C312 C311 1.374 . S
C313 C310 1.499 . S
C313 C314 1.373 . S
C313 C315 1.389 . S
C314 H287 0.936 1_565 S
C314 C300 1.377 . S
C314 C313 1.373 . S
C315 C299 1.377 . S
C315 C313 1.389 . S
C315 C316 1.524 . S
C316 C315 1.524 . S
C316 C317 1.397 . S
C316 C321 1.363 . S
C317 H288 0.950 . S
C317 C316 1.397 . S
C317 C318 1.334 . S
C318 H289 0.950 . S
C318 C317 1.334 . S
C318 C319 1.287 . S
C319 C318 1.287 . S
C319 C320 1.524 . S
C319 H322 0.999 . S
C320 H290 0.950 . S
C320 C319 1.524 . S
C320 C321 1.415 . S
C321 H291 0.950 . S
C321 C316 1.363 . S
C321 C320 1.415 . S
H322 C319 0.999 . S
H323 C304 0.913 . S
H324 C342 0.951 . S
H325 C344 0.951 . S
H326 C346 0.950 1_545 S
H327 C347 0.950 1_545 S
H328 C349 0.950 . S
H329 C352 0.950 1_545 S
H330 C353 0.950 . S
H331 C355 0.950 . S
H332 C356 0.950 . S
H333 C357 0.951 1_545 S
H334 C359 0.951 1_545 S
H335 C361 0.950 . S
H336 C362 0.950 . S
H337 C364 0.950 . S
H338 C367 0.950 . S
H339 C368 0.950 . S
H340 C370 0.950 . S
H341 C371 0.950 1_545 S
C342 H324 0.951 . S
C342 C343 1.366 . S
C342 C344 1.388 . S
C343 C342 1.366 . S
C343 C347 1.385 . S
C344 H325 0.951 . S
C344 C342 1.388 . S
C344 C345 1.366 . S
C345 C344 1.366 . S
C345 C346 1.414 . S
C345 C348 1.499 . S
C346 H326 0.950 1_565 S
C346 C345 1.414 . S
C346 C347 1.374 . S
C347 H327 0.950 1_565 S
C347 C343 1.385 . S
C347 C346 1.374 . S
C348 C345 1.499 . S
C348 C349 1.373 . S
C348 C350 1.389 . S
C349 H328 0.950 . S
C349 C348 1.373 . S
C349 C365 1.377 1_554 S
C350 C348 1.389 . S
C350 C351 1.524 . S
C350 C364 1.377 1_554 S
C351 C350 1.524 . S
C351 C352 1.397 . S
C351 C356 1.363 . S
C352 H329 0.950 1_565 S
C352 C351 1.397 . S
C352 C353 1.334 1_565 S
C353 H330 0.950 . S
C353 C352 1.334 1_545 S
C353 C354 1.287 1_545 S
C354 C353 1.287 1_565 S
C354 C355 1.524 . S
C354 H373 0.913 . S
C355 H331 0.950 . S
C355 C354 1.524 . S
C355 C356 1.415 . S
C356 H332 0.950 . S
C356 C351 1.363 . S
C356 C355 1.415 . S
C357 H333 0.951 1_565 S
C357 C358 1.366 . S
C357 C359 1.388 . S
C358 C357 1.366 . S
C358 C362 1.385 . S
C359 H334 0.951 1_565 S
C359 C357 1.388 . S
C359 C360 1.366 . S
C360 C359 1.366 . S
C360 C361 1.414 . S
C360 C363 1.499 . S
C361 H335 0.950 . S
C361 C360 1.414 . S
C361 C362 1.374 . S
C362 H336 0.950 . S
C362 C358 1.385 . S
C362 C361 1.374 . S
C363 C360 1.499 . S
C363 C364 1.373 . S
C363 C365 1.389 . S
C364 H337 0.950 . S
C364 C350 1.377 1_556 S
C364 C363 1.373 . S
C365 C349 1.377 1_556 S
C365 C363 1.389 . S
C365 C366 1.524 . S
C366 C365 1.524 . S
C366 C367 1.397 . S
C366 C371 1.363 . S
C367 H338 0.950 . S
C367 C366 1.397 . S
C367 C368 1.334 . S
C368 H339 0.950 . S
C368 C367 1.334 . S
C368 C369 1.287 . S
C369 C368 1.287 . S
C369 C370 1.524 . S
C369 H372 0.999 . S
C370 H340 0.950 . S
C370 C369 1.524 . S
C370 C371 1.415 . S
C371 H341 0.950 1_565 S
C371 C366 1.363 . S
C371 C370 1.415 . S
H372 C369 0.999 . S
H373 C354 0.913 . S
H374 C392 0.951 . S
H375 C394 0.951 . S
H376 C396 0.950 . S
H377 C397 0.950 . S
H378 C399 0.950 . S
H379 C402 0.950 . S
H380 C403 0.950 . S
H381 C405 0.950 . S
H382 C406 0.950 . S
H383 C407 0.951 . S
H384 C409 0.951 . S
H385 C411 0.950 . S
H386 C412 0.950 . S
H387 C414 0.950 1_565 S
H388 C417 0.950 . S
H389 C418 0.950 . S
H390 C420 0.950 . S
H391 C421 0.950 . S
C392 H374 0.951 . S
C392 C393 1.366 . S
C392 C394 1.388 . S
C393 C392 1.366 . S
C393 C397 1.385 . S
C394 H375 0.951 . S
C394 C392 1.388 . S
C394 C395 1.366 . S
C395 C394 1.366 . S
C395 C396 1.414 . S
C395 C398 1.499 . S
C396 H376 0.950 . S
C396 C395 1.414 . S
C396 C397 1.374 . S
C397 H377 0.950 . S
C397 C393 1.385 . S
C397 C396 1.374 . S
C398 C395 1.499 . S
C398 C399 1.373 . S
C398 C400 1.389 . S
C399 H378 0.950 . S
C399 C398 1.373 . S
C399 C415 1.377 1_556 S
C400 C398 1.389 . S
C400 C401 1.524 1_545 S
C400 C414 1.377 1_556 S
C401 C400 1.524 1_565 S
C401 C402 1.397 . S
C401 C406 1.363 . S
C402 H379 0.950 . S
C402 C401 1.397 . S
C402 C403 1.334 . S
C403 H380 0.950 . S
C403 C402 1.334 . S
C403 C404 1.287 . S
C404 C403 1.287 . S
C404 C405 1.524 . S
C404 H423 0.913 . S
C405 H381 0.950 . S
C405 C404 1.524 . S
C405 C406 1.415 . S
C406 H382 0.950 . S
C406 C401 1.363 . S
C406 C405 1.415 . S
C407 H383 0.951 . S
C407 C408 1.366 . S
C407 C409 1.388 . S
C408 C407 1.366 . S
C408 C412 1.385 . S
C409 H384 0.951 . S
C409 C407 1.388 . S
C409 C410 1.366 . S
C410 C409 1.366 . S
C410 C411 1.414 . S
C410 C413 1.499 . S
C411 H385 0.950 . S
C411 C410 1.414 . S
C411 C412 1.374 . S
C412 H386 0.950 . S
C412 C408 1.385 . S
C412 C411 1.374 . S
C413 C410 1.499 . S
C413 C414 1.373 . S
C413 C415 1.389 . S
C414 H387 0.950 1_545 S
C414 C400 1.377 1_554 S
C414 C413 1.373 . S
C415 C399 1.377 1_554 S
C415 C413 1.389 . S
C415 C416 1.524 . S
C416 C415 1.524 . S
C416 C417 1.397 . S
C416 C421 1.363 . S
C417 H388 0.950 . S
C417 C416 1.397 . S
C417 C418 1.334 . S
C418 H389 0.950 . S
C418 C417 1.334 . S
C418 C419 1.287 . S
C419 C418 1.287 . S
C419 C420 1.524 . S
C419 H422 0.999 . S
C420 H390 0.950 . S
C420 C419 1.524 . S
C420 C421 1.415 . S
C421 H391 0.950 . S
C421 C416 1.363 . S
C421 C420 1.415 . S
H422 C419 0.999 . S
H423 C404 0.913 . S
H424 C442 0.951 . S
H425 C444 0.951 . S
H426 C446 0.950 . S
H427 C447 0.950 . S
H428 C449 0.950 . S
H429 C452 0.950 . S
H430 C453 0.950 . S
H431 C455 0.950 . S
H432 C456 0.950 . S
H433 C457 0.951 . S
H434 C459 0.951 . S
H435 C461 0.950 . S
H436 C462 0.950 . S
H437 C464 0.950 . S
H438 C467 0.950 . S
H439 C468 0.950 . S
H440 C470 0.950 . S
H441 C471 0.950 . S
C442 H424 0.951 . S
C442 C443 1.366 . S
C442 C444 1.388 . S
C443 C442 1.366 . S
C443 C447 1.385 . S
C444 H425 0.951 . S
C444 C442 1.388 . S
C444 C445 1.366 . S
C445 C444 1.366 . S
C445 C446 1.414 . S
C445 C448 1.499 . S
C446 H426 0.950 . S
C446 C445 1.414 . S
C446 C447 1.374 . S
C447 H427 0.950 . S
C447 C443 1.385 . S
C447 C446 1.374 . S
C448 C445 1.499 . S
C448 C449 1.373 . S
C448 C450 1.389 . S
C449 H428 0.950 . S
C449 C448 1.373 . S
C449 C465 1.377 . S
C450 C448 1.389 . S
C450 C451 1.524 . S
C450 C464 1.377 . S
C451 C450 1.524 . S
C451 C452 1.397 . S
C451 C456 1.363 . S
C452 H429 0.950 . S
C452 C451 1.397 . S
C452 C453 1.334 . S
C453 H430 0.950 . S
C453 C452 1.334 . S
C453 C454 1.287 . S
C454 C453 1.287 . S
C454 C455 1.524 . S
C454 H473 0.913 . S
C455 H431 0.950 . S
C455 C454 1.524 . S
C455 C456 1.415 . S
C456 H432 0.950 . S
C456 C451 1.363 . S
C456 C455 1.415 . S
C457 H433 0.951 . S
C457 C458 1.366 . S
C457 C459 1.388 . S
C458 C457 1.366 . S
C458 C462 1.385 . S
C459 H434 0.951 . S
C459 C457 1.388 . S
C459 C460 1.366 . S
C460 C459 1.366 . S
C460 C461 1.414 . S
C460 C463 1.499 . S
C461 H435 0.950 . S
C461 C460 1.414 . S
C461 C462 1.374 . S
C462 H436 0.950 . S
C462 C458 1.385 . S
C462 C461 1.374 . S
C463 C460 1.499 . S
C463 C464 1.373 . S
C463 C465 1.389 . S
C464 H437 0.950 . S
C464 C450 1.377 . S
C464 C463 1.373 . S
C465 C449 1.377 . S
C465 C463 1.389 . S
C465 C466 1.524 . S
C466 C465 1.524 . S
C466 C467 1.397 . S
C466 C471 1.363 . S
C467 H438 0.950 . S
C467 C466 1.397 . S
C467 C468 1.334 . S
C468 H439 0.950 . S
C468 C467 1.334 . S
C468 C469 1.287 . S
C469 C468 1.287 . S
C469 C470 1.524 . S
C469 H472 0.999 . S
C470 H440 0.950 . S
C470 C469 1.524 . S
C470 C471 1.415 . S
C471 H441 0.950 . S
C471 C466 1.363 . S
C471 C470 1.415 . S
H472 C469 0.999 . S
H473 C454 0.913 . S
H474 C492 0.951 . S
H475 C494 0.951 . S
H476 C496 0.950 . S
H477 C497 0.950 . S
H478 C499 0.950 . S
H479 C502 0.950 . S
H480 C503 0.950 . S
H481 C505 0.950 . S
H482 C506 0.950 . S
H483 C507 0.951 . S
H484 C509 0.951 . S
H485 C511 0.950 . S
H486 C512 0.950 . S
H487 C514 0.950 . S
H488 C517 0.950 . S
H489 C518 0.950 . S
H490 C520 0.950 . S
H491 C521 0.950 . S
C492 H474 0.951 . S
C492 C493 1.366 . S
C492 C494 1.388 . S
C493 C492 1.366 . S
C493 C497 1.385 . S
C494 H475 0.951 . S
C494 C492 1.388 . S
C494 C495 1.366 . S
C495 C494 1.366 . S
C495 C496 1.414 . S
C495 C498 1.499 . S
C496 H476 0.950 . S
C496 C495 1.414 . S
C496 C497 1.374 . S
C497 H477 0.950 . S
C497 C493 1.385 . S
C497 C496 1.374 . S
C498 C495 1.499 . S
C498 C499 1.373 . S
C498 C500 1.389 . S
C499 H478 0.950 . S
C499 C498 1.373 . S
C499 C515 1.377 . S
C500 C498 1.389 . S
C500 C501 1.524 . S
C500 C514 1.377 . S
C501 C500 1.524 . S
C501 C502 1.397 . S
C501 C506 1.363 . S
C502 H479 0.950 . S
C502 C501 1.397 . S
C502 C503 1.334 . S
C503 H480 0.950 . S
C503 C502 1.334 . S
C503 C504 1.287 . S
C504 C503 1.287 . S
C504 C505 1.524 . S
C504 H523 0.913 . S
C505 H481 0.950 . S
C505 C504 1.524 . S
C505 C506 1.415 . S
C506 H482 0.950 . S
C506 C501 1.363 . S
C506 C505 1.415 . S
C507 H483 0.951 . S
C507 C508 1.366 . S
C507 C509 1.388 . S
C508 C507 1.366 . S
C508 C512 1.385 . S
C509 H484 0.951 . S
C509 C507 1.388 . S
C509 C510 1.366 . S
C510 C509 1.366 . S
C510 C511 1.414 . S
C510 C513 1.499 . S
C511 H485 0.950 . S
C511 C510 1.414 . S
C511 C512 1.374 . S
C512 H486 0.950 . S
C512 C508 1.385 . S
C512 C511 1.374 . S
C513 C510 1.499 . S
C513 C514 1.373 . S
C513 C515 1.389 . S
C514 H487 0.950 . S
C514 C500 1.377 . S
C514 C513 1.373 . S
C515 C499 1.377 . S
C515 C513 1.389 . S
C515 C516 1.524 . S
C516 C515 1.524 . S
C516 C517 1.397 . S
C516 C521 1.363 . S
C517 H488 0.950 . S
C517 C516 1.397 . S
C517 C518 1.334 . S
C518 H489 0.950 . S
C518 C517 1.334 . S
C518 C519 1.287 . S
C519 C518 1.287 . S
C519 C520 1.524 . S
C519 H522 0.999 . S
C520 H490 0.950 . S
C520 C519 1.524 . S
C520 C521 1.415 . S
C521 H491 0.950 . S
C521 C516 1.363 . S
C521 C520 1.415 . S
H522 C519 0.999 . S
H523 C504 0.913 . S
H524 C542 0.951 . S
H525 C544 0.951 . S
H526 C546 0.950 . S
H527 C547 0.950 . S
H528 C549 0.950 . S
H529 C552 0.950 . S
H530 C553 0.950 . S
H531 C555 0.950 . S
H532 C556 0.950 . S
H533 C557 0.951 . S
H534 C559 0.951 . S
H535 C561 0.950 . S
H536 C562 0.950 . S
H537 C564 0.950 . S
H538 C567 0.950 . S
H539 C568 0.950 . S
H540 C570 0.950 . S
H541 C571 0.950 . S
C542 H524 0.951 . S
C542 C543 1.366 . S
C542 C544 1.388 . S
C543 C542 1.366 . S
C543 C547 1.385 . S
C544 H525 0.951 . S
C544 C542 1.388 . S
C544 C545 1.366 . S
C545 C544 1.366 . S
C545 C546 1.414 . S
C545 C548 1.499 . S
C546 H526 0.950 . S
C546 C545 1.414 . S
C546 C547 1.374 . S
C547 H527 0.950 . S
C547 C543 1.385 . S
C547 C546 1.374 . S
C548 C545 1.499 . S
C548 C549 1.373 . S
C548 C550 1.389 . S
C549 H528 0.950 . S
C549 C548 1.373 . S
C549 C565 1.377 1_556 S
C550 C548 1.389 . S
C550 C551 1.524 . S
C550 C564 1.377 1_556 S
C551 C550 1.524 . S
C551 C552 1.397 . S
C551 C556 1.363 . S
C552 H529 0.950 . S
C552 C551 1.397 . S
C552 C553 1.334 . S
C553 H530 0.950 . S
C553 C552 1.334 . S
C553 C554 1.287 . S
C554 C553 1.287 . S
C554 C555 1.524 . S
C554 H573 0.913 . S
C555 H531 0.950 . S
C555 C554 1.524 . S
C555 C556 1.415 . S
C556 H532 0.950 . S
C556 C551 1.363 . S
C556 C555 1.415 . S
C557 H533 0.951 . S
C557 C558 1.366 . S
C557 C559 1.388 . S
C558 C557 1.366 . S
C558 C562 1.385 . S
C559 H534 0.951 . S
C559 C557 1.388 . S
C559 C560 1.366 . S
C560 C559 1.366 . S
C560 C561 1.414 . S
C560 C563 1.499 . S
C561 H535 0.950 . S
C561 C560 1.414 . S
C561 C562 1.374 . S
C562 H536 0.950 . S
C562 C558 1.385 . S
C562 C561 1.374 . S
C563 C560 1.499 . S
C563 C564 1.373 . S
C563 C565 1.389 . S
C564 H537 0.950 . S
C564 C550 1.377 1_554 S
C564 C563 1.373 . S
C565 C549 1.377 1_554 S
C565 C563 1.389 . S
C565 C566 1.524 . S
C566 C565 1.524 . S
C566 C567 1.397 . S
C566 C571 1.363 . S
C567 H538 0.950 . S
C567 C566 1.397 . S
C567 C568 1.334 . S
C568 H539 0.950 . S
C568 C567 1.334 . S
C568 C569 1.287 . S
C569 C568 1.287 . S
C569 C570 1.524 . S
C569 H572 0.999 . S
C570 H540 0.950 . S
C570 C569 1.524 . S
C570 C571 1.415 . S
C571 H541 0.950 . S
C571 C566 1.363 . S
C571 C570 1.415 . S
H572 C569 0.999 . S
H573 C554 0.913 . S
H574 C592 0.951 . S
H575 C594 0.951 . S
H576 C596 0.950 . S
H577 C597 0.950 . S
H578 C599 0.950 . S
H579 C602 0.950 . S
H580 C603 0.950 . S
H581 C605 0.950 . S
H582 C606 0.950 . S
H583 C607 0.951 . S
H584 C609 0.951 . S
H585 C611 0.950 . S
H586 C612 0.950 . S
H587 C614 0.950 . S
H588 C617 0.950 . S
H589 C618 0.950 . S
H590 C620 0.950 . S
H591 C621 0.950 . S
C592 H574 0.951 . S
C592 C593 1.366 . S
C592 C594 1.388 . S
C593 C592 1.366 . S
C593 C597 1.385 . S
C594 H575 0.951 . S
C594 C592 1.388 . S
C594 C595 1.366 . S
C595 C594 1.366 . S
C595 C596 1.414 . S
C595 C598 1.499 . S
C596 H576 0.950 . S
C596 C595 1.414 . S
C596 C597 1.374 . S
C597 H577 0.950 . S
C597 C593 1.385 . S
C597 C596 1.374 . S
C598 C595 1.499 . S
C598 C599 1.373 . S
C598 C600 1.389 . S
C599 H578 0.950 . S
C599 C598 1.373 . S
C599 C615 1.377 1_554 S
C600 C598 1.389 . S
C600 C601 1.524 . S
C600 C614 1.377 1_554 S
C601 C600 1.524 . S
C601 C602 1.397 . S
C601 C606 1.363 . S
C602 H579 0.950 . S
C602 C601 1.397 . S
C602 C603 1.334 . S
C603 H580 0.950 . S
C603 C602 1.334 . S
C603 C604 1.287 . S
C604 C603 1.287 . S
C604 C605 1.524 . S
C604 H623 0.913 . S
C605 H581 0.950 . S
C605 C604 1.524 . S
C605 C606 1.415 . S
C606 H582 0.950 . S
C606 C601 1.363 . S
C606 C605 1.415 . S
C607 H583 0.951 . S
C607 C608 1.366 . S
C607 C609 1.388 . S
C608 C607 1.366 . S
C608 C612 1.385 . S
C609 H584 0.951 . S
C609 C607 1.388 . S
C609 C610 1.366 . S
C610 C609 1.366 . S
C610 C611 1.414 . S
C610 C613 1.499 . S
C611 H585 0.950 . S
C611 C610 1.414 . S
C611 C612 1.374 . S
C612 H586 0.950 . S
C612 C608 1.385 . S
C612 C611 1.374 . S
C613 C610 1.499 . S
C613 C614 1.373 . S
C613 C615 1.389 . S
C614 H587 0.950 . S
C614 C600 1.377 1_556 S
C614 C613 1.373 . S
C615 C599 1.377 1_556 S
C615 C613 1.389 . S
C615 C616 1.524 . S
C616 C615 1.524 . S
C616 C617 1.397 . S
C616 C621 1.363 . S
C617 H588 0.950 . S
C617 C616 1.397 . S
C617 C618 1.334 . S
C618 H589 0.950 . S
C618 C617 1.334 . S
C618 C619 1.287 . S
C619 C618 1.287 . S
C619 C620 1.524 . S
C619 H622 0.999 . S
C620 H590 0.950 . S
C620 C619 1.524 . S
C620 C621 1.415 . S
C621 H591 0.950 . S
C621 C616 1.363 . S
C621 C620 1.415 . S
H622 C619 0.999 . S
H623 C604 0.913 . S
H624 C642 0.951 . S
H625 C644 0.951 . S
H626 C646 0.950 . S
H627 C647 0.950 1_545 S
H628 C649 0.950 . S
H629 C652 0.950 . S
H630 C653 0.950 . S
H631 C655 0.950 . S
H632 C656 0.950 . S
H633 C657 0.951 . S
H634 C659 0.951 . S
H635 C661 0.950 . S
H636 C662 0.950 1_565 S
H637 C664 0.950 . S
H638 C667 0.950 . S
H639 C668 0.950 . S
H640 C670 0.950 . S
H641 C671 0.950 . S
C642 H624 0.951 . S
C642 C643 1.366 . S
C642 C644 1.388 . S
C643 C642 1.366 . S
C643 C647 1.385 . S
C644 H625 0.951 . S
C644 C642 1.388 . S
C644 C645 1.366 . S
C645 C644 1.366 . S
C645 C646 1.414 1_565 S
C645 C648 1.499 . S
C646 H626 0.950 . S
C646 C645 1.414 1_545 S
C646 C647 1.374 1_545 S
C647 H627 0.950 1_565 S
C647 C643 1.385 . S
C647 C646 1.374 1_565 S
C648 C645 1.499 . S
C648 C649 1.373 1_565 S
C648 C650 1.389 . S
C649 H628 0.950 . S
C649 C648 1.373 1_545 S
C649 C665 1.377 . S
C650 C648 1.389 . S
C650 C651 1.524 . S
C650 C664 1.377 . S
C651 C650 1.524 . S
C651 C652 1.397 . S
C651 C656 1.363 . S
C652 H629 0.950 . S
C652 C651 1.397 . S
C652 C653 1.334 . S
C653 H630 0.950 . S
C653 C652 1.334 . S
C653 C654 1.287 . S
C654 C653 1.287 . S
C654 C655 1.524 . S
C654 H673 0.913 . S
C655 H631 0.950 . S
C655 C654 1.524 . S
C655 C656 1.415 . S
C656 H632 0.950 . S
C656 C651 1.363 . S
C656 C655 1.415 . S
C657 H633 0.951 . S
C657 C658 1.366 . S
C657 C659 1.388 . S
C658 C657 1.366 . S
C658 C662 1.385 . S
C659 H634 0.951 . S
C659 C657 1.388 . S
C659 C660 1.366 . S
C660 C659 1.366 . S
C660 C661 1.414 1_545 S
C660 C663 1.499 . S
C661 H635 0.950 . S
C661 C660 1.414 1_565 S
C661 C662 1.374 1_565 S
C662 H636 0.950 1_545 S
C662 C658 1.385 . S
C662 C661 1.374 1_545 S
C663 C660 1.499 . S
C663 C664 1.373 1_545 S
C663 C665 1.389 . S
C664 H637 0.950 . S
C664 C650 1.377 . S
C664 C663 1.373 1_565 S
C665 C649 1.377 . S
C665 C663 1.389 . S
C665 C666 1.524 . S
C666 C665 1.524 . S
C666 C667 1.397 . S
C666 C671 1.363 . S
C667 H638 0.950 . S
C667 C666 1.397 . S
C667 C668 1.334 . S
C668 H639 0.950 . S
C668 C667 1.334 . S
C668 C669 1.287 . S
C669 C668 1.287 . S
C669 C670 1.524 . S
C669 H672 0.999 . S
C670 H640 0.950 . S
C670 C669 1.524 . S
C670 C671 1.415 . S
C671 H641 0.950 . S
C671 C666 1.363 . S
C671 C670 1.415 . S
H672 C669 0.999 . S
H673 C654 0.913 . S
H674 C692 0.951 1_545 S
H675 C694 0.951 . S
H676 C696 0.950 . S
H677 C697 0.950 . S
H678 C699 0.950 . S
H679 C702 0.950 . S
H680 C703 0.950 . S
H681 C705 0.950 . S
H682 C706 0.950 . S
H683 C707 0.951 1_565 S
H684 C709 0.951 . S
H685 C711 0.950 . S
H686 C712 0.950 . S
H687 C714 0.950 . S
H688 C717 0.950 . S
H689 C718 0.950 . S
H690 C720 0.950 . S
H691 C721 0.950 . S
C692 H674 0.951 1_565 S
C692 C693 1.366 . S
C692 C694 1.388 1_565 S
C693 C692 1.366 . S
C693 C697 1.385 . S
C694 H675 0.951 . S
C694 C692 1.388 1_545 S
C694 C695 1.366 1_545 S
C695 C694 1.366 1_565 S
C695 C696 1.414 . S
C695 C698 1.499 . S
C696 H676 0.950 . S
C696 C695 1.414 . S
C696 C697 1.374 . S
C697 H677 0.950 . S
C697 C693 1.385 . S
C697 C696 1.374 . S
C698 C695 1.499 . S
C698 C699 1.373 . S
C698 C700 1.389 1_565 S
C699 H678 0.950 . S
C699 C698 1.373 . S
C699 C715 1.377 . S
C700 C698 1.389 1_545 S
C700 C701 1.524 . S
C700 C714 1.377 . S
C701 C700 1.524 . S
C701 C702 1.397 . S
C701 C706 1.363 . S
C702 H679 0.950 . S
C702 C701 1.397 . S
C702 C703 1.334 . S
C703 H680 0.950 . S
C703 C702 1.334 . S
C703 C704 1.287 . S
C704 C703 1.287 . S
C704 C705 1.524 . S
C704 H723 0.913 . S
C705 H681 0.950 . S
C705 C704 1.524 . S
C705 C706 1.415 . S
C706 H682 0.950 . S
C706 C701 1.363 . S
C706 C705 1.415 . S
C707 H683 0.951 1_545 S
C707 C708 1.366 . S
C707 C709 1.388 1_545 S
C708 C707 1.366 . S
C708 C712 1.385 . S
C709 H684 0.951 . S
C709 C707 1.388 1_565 S
C709 C710 1.366 1_565 S
C710 C709 1.366 1_545 S
C710 C711 1.414 . S
C710 C713 1.499 . S
C711 H685 0.950 . S
C711 C710 1.414 . S
C711 C712 1.374 . S
C712 H686 0.950 . S
C712 C708 1.385 . S
C712 C711 1.374 . S
C713 C710 1.499 . S
C713 C714 1.373 . S
C713 C715 1.389 1_545 S
C714 H687 0.950 . S
C714 C700 1.377 . S
C714 C713 1.373 . S
C715 C699 1.377 . S
C715 C713 1.389 1_565 S
C715 C716 1.524 . S
C716 C715 1.524 . S
C716 C717 1.397 . S
C716 C721 1.363 . S
C717 H688 0.950 . S
C717 C716 1.397 . S
C717 C718 1.334 . S
C718 H689 0.950 . S
C718 C717 1.334 . S
C718 C719 1.287 . S
C719 C718 1.287 . S
C719 C720 1.524 . S
C719 H722 0.999 . S
C720 H690 0.950 . S
C720 C719 1.524 . S
C720 C721 1.415 . S
C721 H691 0.950 . S
C721 C716 1.363 . S
C721 C720 1.415 . S
H722 C719 0.999 . S
H723 C704 0.913 . S
H724 C742 0.929 1_545 S
H725 C744 0.951 . S
H726 C746 0.950 . S
H727 C747 0.950 . S
H728 C749 0.950 . S
H729 C752 0.950 . S
H730 C753 0.950 1_565 S
H731 C755 0.950 . S
H732 C756 0.950 . S
H733 C757 0.929 1_565 S
H734 C759 0.951 . S
H735 C761 0.950 . S
H736 C762 0.950 . S
H737 C764 0.950 . S
H738 C767 0.950 . S
H739 C768 0.950 1_545 S
H740 C770 0.950 . S
H741 C771 0.950 . S
C742 H724 0.929 1_565 S
C742 C743 1.395 . S
C742 C744 1.381 1_565 S
C743 C742 1.395 . S
C743 C747 1.385 . S
C744 H725 0.951 . S
C744 C742 1.381 1_545 S
C744 C745 1.366 1_545 S
C745 C744 1.366 1_565 S
C745 C746 1.414 . S
C745 C748 1.499 . S
C746 H726 0.950 . S
C746 C745 1.414 . S
C746 C747 1.374 . S
C747 H727 0.950 . S
C747 C743 1.385 . S
C747 C746 1.374 . S
C748 C745 1.499 . S
C748 C749 1.373 . S
C748 C750 1.389 1_565 S
C749 H728 0.950 . S
C749 C748 1.373 . S
C749 C765 1.377 . S
C750 C748 1.389 1_545 S
C750 C751 1.524 . S
C750 C764 1.377 . S
C751 C750 1.524 . S
C751 C752 1.397 1_545 S
C751 C756 1.363 . S
C752 H729 0.950 . S
C752 C751 1.397 1_565 S
C752 C753 1.334 1_565 S
C753 H730 0.950 1_545 S
C753 C752 1.334 1_545 S
C753 C754 1.287 . S
C754 C753 1.287 . S
C754 C755 1.524 . S
C754 H773 0.913 . S
C755 H731 0.950 . S
C755 C754 1.524 . S
C755 C756 1.415 . S
C756 H732 0.950 . S
C756 C751 1.363 . S
C756 C755 1.415 . S
C757 H733 0.929 1_545 S
C757 C758 1.395 . S
C757 C759 1.381 1_545 S
C758 C757 1.395 . S
C758 C762 1.385 . S
C759 H734 0.951 . S
C759 C757 1.381 1_565 S
C759 C760 1.366 1_565 S
C760 C759 1.366 1_545 S
C760 C761 1.414 . S
C760 C763 1.499 . S
C761 H735 0.950 . S
C761 C760 1.414 . S
C761 C762 1.374 . S
C762 H736 0.950 . S
C762 C758 1.385 . S
C762 C761 1.374 . S
C763 C760 1.499 . S
C763 C764 1.373 . S
C763 C765 1.389 1_545 S
C764 H737 0.950 . S
C764 C750 1.377 . S
C764 C763 1.373 . S
C765 C749 1.377 . S
C765 C763 1.389 1_565 S
C765 C766 1.524 . S
C766 C765 1.524 . S
C766 C767 1.397 1_565 S
C766 C771 1.363 . S
C767 H738 0.950 . S
C767 C766 1.397 1_545 S
C767 C768 1.334 1_545 S
C768 H739 0.950 1_565 S
C768 C767 1.334 1_565 S
C768 C769 1.287 . S
C769 C768 1.287 . S
C769 C770 1.524 . S
C769 H772 0.999 . S
C770 H740 0.950 . S
C770 C769 1.524 . S
C770 C771 1.415 . S
C771 H741 0.950 . S
C771 C766 1.363 . S
C771 C770 1.415 . S
H772 C769 0.999 . S
H773 C754 0.913 . S
H774 C792 0.951 . S
H775 C794 0.951 . S
H776 C796 0.950 . S
H777 C797 0.950 . S
H778 C799 0.950 . S
H779 C802 0.950 . S
H780 C803 0.950 . S
H781 C805 0.950 . S
H782 C806 0.950 . S
H783 C807 0.951 . S
H784 C809 0.951 . S
H785 C811 0.950 . S
H786 C812 0.950 . S
H787 C814 0.950 . S
H788 C817 0.950 . S
H789 C818 0.950 . S
H790 C820 0.950 . S
H791 C821 0.950 . S
C792 H774 0.951 . S
C792 C793 1.366 . S
C792 C794 1.388 . S
C793 C792 1.366 . S
C793 C797 1.385 . S
C794 H775 0.951 . S
C794 C792 1.388 . S
C794 C795 1.366 . S
C795 C794 1.366 . S
C795 C796 1.414 . S
C795 C798 1.499 . S
C796 H776 0.950 . S
C796 C795 1.414 . S
C796 C797 1.374 . S
C797 H777 0.950 . S
C797 C793 1.385 . S
C797 C796 1.374 . S
C798 C795 1.499 . S
C798 C799 1.373 . S
C798 C800 1.389 1_545 S
C799 H778 0.950 . S
C799 C798 1.373 . S
C799 C815 1.377 . S
C800 C798 1.389 1_565 S
C800 C801 1.524 . S
C800 C814 1.377 . S
C801 C800 1.524 . S
C801 C802 1.397 . S
C801 C806 1.363 . S
C802 H779 0.950 . S
C802 C801 1.397 . S
C802 C803 1.334 . S
C803 H780 0.950 . S
C803 C802 1.334 . S
C803 C804 1.287 . S
C804 C803 1.287 . S
C804 C805 1.524 . S
C804 H823 0.913 . S
C805 H781 0.950 . S
C805 C804 1.524 . S
C805 C806 1.415 . S
C806 H782 0.950 . S
C806 C801 1.363 . S
C806 C805 1.415 . S
C807 H783 0.951 . S
C807 C808 1.366 . S
C807 C809 1.388 . S
C808 C807 1.366 . S
C808 C812 1.385 . S
C809 H784 0.951 . S
C809 C807 1.388 . S
C809 C810 1.366 . S
C810 C809 1.366 . S
C810 C811 1.414 . S
C810 C813 1.499 . S
C811 H785 0.950 . S
C811 C810 1.414 . S
C811 C812 1.374 . S
C812 H786 0.950 . S
C812 C808 1.385 . S
C812 C811 1.374 . S
C813 C810 1.499 . S
C813 C814 1.373 . S
C813 C815 1.389 1_565 S
C814 H787 0.950 . S
C814 C800 1.377 . S
C814 C813 1.373 . S
C815 C799 1.377 . S
C815 C813 1.389 1_545 S
C815 C816 1.524 . S
C816 C815 1.524 . S
C816 C817 1.397 . S
C816 C821 1.363 . S
C817 H788 0.950 . S
C817 C816 1.397 . S
C817 C818 1.334 . S
C818 H789 0.950 . S
C818 C817 1.334 . S
C818 C819 1.287 . S
C819 C818 1.287 . S
C819 C820 1.524 . S
C819 H822 0.999 . S
C820 H790 0.950 . S
C820 C819 1.524 . S
C820 C821 1.415 . S
C821 H791 0.950 . S
C821 C816 1.363 . S
C821 C820 1.415 . S
H822 C819 0.999 . S
H823 C804 0.913 . S
H824 C842 0.951 . S
H825 C844 0.951 . S
H826 C846 0.950 . S
H827 C847 0.950 . S
H828 C849 0.950 . S
H829 C852 0.950 . S
H830 C853 0.950 . S
H831 C855 0.950 . S
H832 C856 0.950 . S
H833 C857 0.951 . S
H834 C859 0.951 . S
H835 C861 0.950 . S
H836 C862 0.950 . S
H837 C864 0.950 . S
H838 C867 0.950 . S
H839 C868 0.950 . S
H840 C870 0.950 . S
H841 C871 0.950 . S
C842 H824 0.951 . S
C842 C843 1.366 . S
C842 C844 1.388 . S
C843 C842 1.366 . S
C843 C847 1.385 . S
C844 H825 0.951 . S
C844 C842 1.388 . S
C844 C845 1.366 . S
C845 C844 1.366 . S
C845 C846 1.414 . S
C845 C848 1.499 . S
C846 H826 0.950 . S
C846 C845 1.414 . S
C846 C847 1.374 . S
C847 H827 0.950 . S
C847 C843 1.385 . S
C847 C846 1.374 . S
C848 C845 1.499 . S
C848 C849 1.373 . S
C848 C850 1.389 . S
C849 H828 0.950 . S
C849 C848 1.373 . S
C849 C865 1.377 1_655 S
C850 C848 1.389 . S
C850 C851 1.524 . S
C850 C864 1.377 1_655 S
C851 C850 1.524 . S
C851 C852 1.397 . S
C851 C856 1.363 . S
C852 H829 0.950 . S
C852 C851 1.397 . S
C852 C853 1.334 . S
C853 H830 0.950 . S
C853 C852 1.334 . S
C853 C854 1.287 . S
C854 C853 1.287 . S
C854 C855 1.524 . S
C854 H873 0.913 . S
C855 H831 0.950 . S
C855 C854 1.524 . S
C855 C856 1.415 . S
C856 H832 0.950 . S
C856 C851 1.363 . S
C856 C855 1.415 . S
C857 H833 0.951 . S
C857 C858 1.366 . S
C857 C859 1.388 . S
C858 C857 1.366 . S
C858 C862 1.385 . S
C859 H834 0.951 . S
C859 C857 1.388 . S
C859 C860 1.366 . S
C860 C859 1.366 . S
C860 C861 1.414 . S
C860 C863 1.499 . S
C861 H835 0.950 . S
C861 C860 1.414 . S
C861 C862 1.374 . S
C862 H836 0.950 . S
C862 C858 1.385 . S
C862 C861 1.374 . S
C863 C860 1.499 . S
C863 C864 1.373 . S
C863 C865 1.389 . S
C864 H837 0.950 . S
C864 C850 1.377 1_455 S
C864 C863 1.373 . S
C865 C849 1.377 1_455 S
C865 C863 1.389 . S
C865 C866 1.524 . S
C866 C865 1.524 . S
C866 C867 1.397 . S
C866 C871 1.363 . S
C867 H838 0.950 . S
C867 C866 1.397 . S
C867 C868 1.334 . S
C868 H839 0.950 . S
C868 C867 1.334 . S
C868 C869 1.287 . S
C869 C868 1.287 . S
C869 C870 1.524 . S
C869 H872 0.999 . S
C870 H840 0.950 . S
C870 C869 1.524 . S
C870 C871 1.415 . S
C871 H841 0.950 . S
C871 C866 1.363 . S
C871 C870 1.415 . S
H872 C869 0.999 . S
H873 C854 0.913 . S
H874 C892 0.951 . S
H875 C894 0.951 . S
H876 C896 0.950 . S
H877 C897 0.950 . S
H878 C899 0.950 . S
H879 C902 0.950 . S
H880 C903 0.950 . S
H881 C905 0.950 . S
H882 C906 0.950 1_655 S
H883 C907 0.951 . S
H884 C909 0.951 . S
H885 C911 0.950 . S
H886 C912 0.950 . S
H887 C914 0.950 . S
H888 C917 0.950 . S
H889 C918 0.950 . S
H890 C920 0.950 . S
H891 C921 0.950 1_455 S
C892 H874 0.951 . S
C892 C893 1.366 . S
C892 C894 1.388 . S
C893 C892 1.366 . S
C893 C897 1.385 . S
C894 H875 0.951 . S
C894 C892 1.388 . S
C894 C895 1.366 . S
C895 C894 1.366 . S
C895 C896 1.414 . S
C895 C898 1.499 . S
C896 H876 0.950 . S
C896 C895 1.414 . S
C896 C897 1.374 . S
C897 H877 0.950 . S
C897 C893 1.385 . S
C897 C896 1.374 . S
C898 C895 1.499 . S
C898 C899 1.373 . S
C898 C900 1.389 . S
C899 H878 0.950 . S
C899 C898 1.373 . S
C899 C915 1.377 1_455 S
C900 C898 1.389 . S
C900 C901 1.524 . S
C900 C914 1.377 1_455 S
C901 C900 1.524 . S
C901 C902 1.397 . S
C901 C906 1.363 . S
C902 H879 0.950 . S
C902 C901 1.397 . S
C902 C903 1.334 . S
C903 H880 0.950 . S
C903 C902 1.334 . S
C903 C904 1.287 . S
C904 C903 1.287 . S
C904 C905 1.524 . S
C904 H923 0.913 . S
C905 H881 0.950 . S
C905 C904 1.524 . S
C905 C906 1.415 . S
C906 H882 0.950 1_455 S
C906 C901 1.363 . S
C906 C905 1.415 . S
C907 H883 0.951 . S
C907 C908 1.366 . S
C907 C909 1.388 . S
C908 C907 1.366 . S
C908 C912 1.385 . S
C909 H884 0.951 . S
C909 C907 1.388 . S
C909 C910 1.366 . S
C910 C909 1.366 . S
C910 C911 1.414 . S
C910 C913 1.499 . S
C911 H885 0.950 . S
C911 C910 1.414 . S
C911 C912 1.374 . S
C912 H886 0.950 . S
C912 C908 1.385 . S
C912 C911 1.374 . S
C913 C910 1.499 . S
C913 C914 1.373 . S
C913 C915 1.389 . S
C914 H887 0.950 . S
C914 C900 1.377 1_655 S
C914 C913 1.373 . S
C915 C899 1.377 1_655 S
C915 C913 1.389 . S
C915 C916 1.524 . S
C916 C915 1.524 . S
C916 C917 1.397 . S
C916 C921 1.363 . S
C917 H888 0.950 . S
C917 C916 1.397 . S
C917 C918 1.334 . S
C918 H889 0.950 . S
C918 C917 1.334 . S
C918 C919 1.287 . S
C919 C918 1.287 . S
C919 C920 1.524 . S
C919 H922 0.999 . S
C920 H890 0.950 . S
C920 C919 1.524 . S
C920 C921 1.415 . S
C921 H891 0.950 1_655 S
C921 C916 1.363 . S
C921 C920 1.415 . S
H922 C919 0.999 . S
H923 C904 0.913 . S
H924 C942 0.951 . S
H925 C944 0.951 . S
H926 C946 0.950 . S
H927 C947 0.950 . S
H928 C949 0.950 . S
H929 C952 0.950 . S
H930 C953 0.950 . S
H931 C955 0.950 . S
H932 C956 0.950 . S
H933 C957 0.951 . S
H934 C959 0.951 . S
H935 C961 0.950 . S
H936 C962 0.950 . S
H937 C964 0.950 . S
H938 C967 0.950 . S
H939 C968 0.950 . S
H940 C970 0.950 . S
H941 C971 0.950 . S
C942 H924 0.951 . S
C942 C943 1.366 . S
C942 C944 1.388 . S
C943 C942 1.366 . S
C943 C947 1.385 . S
C944 H925 0.951 . S
C944 C942 1.388 . S
C944 C945 1.366 . S
C945 C944 1.366 . S
C945 C946 1.414 . S
C945 C948 1.499 . S
C946 H926 0.950 . S
C946 C945 1.414 . S
C946 C947 1.374 . S
C947 H927 0.950 . S
C947 C943 1.385 . S
C947 C946 1.374 . S
C948 C945 1.499 . S
C948 C949 1.373 . S
C948 C950 1.389 . S
C949 H928 0.950 . S
C949 C948 1.373 . S
C949 C965 1.377 1_655 S
C950 C948 1.389 . S
C950 C951 1.524 . S
C950 C964 1.377 1_655 S
C951 C950 1.524 . S
C951 C952 1.397 . S
C951 C956 1.363 . S
C952 H929 0.950 . S
C952 C951 1.397 . S
C952 C953 1.334 . S
C953 H930 0.950 . S
C953 C952 1.334 . S
C953 C954 1.287 . S
C954 C953 1.287 . S
C954 C955 1.524 . S
C954 H973 0.913 . S
C955 H931 0.950 . S
C955 C954 1.524 . S
C955 C956 1.415 . S
C956 H932 0.950 . S
C956 C951 1.363 . S
C956 C955 1.415 . S
C957 H933 0.951 . S
C957 C958 1.366 . S
C957 C959 1.388 . S
C958 C957 1.366 . S
C958 C962 1.385 . S
C959 H934 0.951 . S
C959 C957 1.388 . S
C959 C960 1.366 . S
C960 C959 1.366 . S
C960 C961 1.414 . S
C960 C963 1.499 . S
C961 H935 0.950 . S
C961 C960 1.414 . S
C961 C962 1.374 . S
C962 H936 0.950 . S
C962 C958 1.385 . S
C962 C961 1.374 . S
C963 C960 1.499 . S
C963 C964 1.373 . S
C963 C965 1.389 . S
C964 H937 0.950 . S
C964 C950 1.377 1_455 S
C964 C963 1.373 . S
C965 C949 1.377 1_455 S
C965 C963 1.389 . S
C965 C966 1.524 . S
C966 C965 1.524 . S
C966 C967 1.397 . S
C966 C971 1.363 . S
C967 H938 0.950 . S
C967 C966 1.397 . S
C967 C968 1.334 . S
C968 H939 0.950 . S
C968 C967 1.334 . S
C968 C969 1.287 . S
C969 C968 1.287 . S
C969 C970 1.524 . S
C969 H972 0.999 . S
C970 H940 0.950 . S
C970 C969 1.524 . S
C970 C971 1.415 . S
C971 H941 0.950 . S
C971 C966 1.363 . S
C971 C970 1.415 . S
H972 C969 0.999 . S
H973 C954 0.913 . S
H974 C992 0.951 . S
H975 C994 0.951 . S
H976 C996 0.950 . S
H977 C997 0.950 . S
H978 C999 0.950 . S
H979 C1002 0.950 . S
H980 C1003 0.950 . S
H981 C1005 0.950 . S
H982 C1006 0.950 . S
H983 C1007 0.951 . S
H984 C1009 0.951 . S
H985 C1011 0.950 . S
H986 C1012 0.950 . S
H987 C1014 0.950 . S
H988 C1017 0.950 . S
H989 C1018 0.950 . S
H990 C1020 0.950 . S
H991 C1021 0.950 . S
C992 H974 0.951 . S
C992 C993 1.366 . S
C992 C994 1.388 . S
C993 C992 1.366 . S
C993 C997 1.385 . S
C994 H975 0.951 . S
C994 C992 1.388 . S
C994 C995 1.366 . S
C995 C994 1.366 . S
C995 C996 1.414 . S
C995 C998 1.499 . S
C996 H976 0.950 . S
C996 C995 1.414 . S
C996 C997 1.374 . S
C997 H977 0.950 . S
C997 C993 1.385 . S
C997 C996 1.374 . S
C998 C995 1.499 . S
C998 C999 1.373 . S
C998 C1000 1.389 . S
C999 H978 0.950 . S
C999 C998 1.373 . S
C999 C1015 1.377 1_455 S
C1000 C998 1.389 . S
C1000 C1001 1.524 . S
C1000 C1014 1.377 1_455 S
C1001 C1000 1.524 . S
C1001 C1002 1.397 . S
C1001 C1006 1.363 . S
C1002 H979 0.950 . S
C1002 C1001 1.397 . S
C1002 C1003 1.334 . S
C1003 H980 0.950 . S
C1003 C1002 1.334 . S
C1003 C1004 1.287 . S
C1004 C1003 1.287 . S
C1004 C1005 1.524 . S
C1004 H1023 0.913 . S
C1005 H981 0.950 . S
C1005 C1004 1.524 . S
C1005 C1006 1.415 . S
C1006 H982 0.950 . S
C1006 C1001 1.363 . S
C1006 C1005 1.415 . S
C1007 H983 0.951 . S
C1007 C1008 1.366 . S
C1007 C1009 1.388 . S
C1008 C1007 1.366 . S
C1008 C1012 1.385 . S
C1009 H984 0.951 . S
C1009 C1007 1.388 . S
C1009 C1010 1.366 . S
C1010 C1009 1.366 . S
C1010 C1011 1.414 . S
C1010 C1013 1.499 . S
C1011 H985 0.950 . S
C1011 C1010 1.414 . S
C1011 C1012 1.374 . S
C1012 H986 0.950 . S
C1012 C1008 1.385 . S
C1012 C1011 1.374 . S
C1013 C1010 1.499 . S
C1013 C1014 1.373 . S
C1013 C1015 1.389 . S
C1014 H987 0.950 . S
C1014 C1000 1.377 1_655 S
C1014 C1013 1.373 . S
C1015 C999 1.377 1_655 S
C1015 C1013 1.389 . S
C1015 C1016 1.524 . S
C1016 C1015 1.524 . S
C1016 C1017 1.397 . S
C1016 C1021 1.363 . S
C1017 H988 0.950 . S
C1017 C1016 1.397 . S
C1017 C1018 1.334 . S
C1018 H989 0.950 . S
C1018 C1017 1.334 . S
C1018 C1019 1.287 . S
C1019 C1018 1.287 . S
C1019 C1020 1.524 . S
C1019 H1022 0.999 . S
C1020 H990 0.950 . S
C1020 C1019 1.524 . S
C1020 C1021 1.415 . S
C1021 H991 0.950 . S
C1021 C1016 1.363 . S
C1021 C1020 1.415 . S
H1022 C1019 0.999 . S
H1023 C1004 0.913 . S
H1024 C1042 0.951 . S
H1025 C1044 0.951 . S
H1026 C1046 0.950 . S
H1027 C1047 0.950 . S
H1028 C1049 0.950 . S
H1029 C1052 0.950 . S
H1030 C1053 0.950 . S
H1031 C1055 0.950 . S
H1032 C1056 0.950 . S
H1033 C1057 0.951 . S
H1034 C1059 0.951 . S
H1035 C1061 0.950 . S
H1036 C1062 0.950 . S
H1037 C1064 0.950 . S
H1038 C1067 0.950 . S
H1039 C1068 0.950 . S
H1040 C1070 0.950 . S
H1041 C1071 0.950 . S
C1042 H1024 0.951 . S
C1042 C1043 1.366 . S
C1042 C1044 1.388 . S
C1043 C1042 1.366 . S
C1043 C1047 1.385 . S
C1044 H1025 0.951 . S
C1044 C1042 1.388 . S
C1044 C1045 1.366 . S
C1045 C1044 1.366 . S
C1045 C1046 1.414 . S
C1045 C1048 1.499 . S
C1046 H1026 0.950 . S
C1046 C1045 1.414 . S
C1046 C1047 1.374 . S
C1047 H1027 0.950 . S
C1047 C1043 1.385 . S
C1047 C1046 1.374 . S
C1048 C1045 1.499 . S
C1048 C1049 1.373 . S
C1048 C1050 1.389 . S
C1049 H1028 0.950 . S
C1049 C1048 1.373 . S
C1049 C1065 1.377 . S
C1050 C1048 1.389 . S
C1050 C1051 1.524 . S
C1050 C1064 1.377 . S
C1051 C1050 1.524 . S
C1051 C1052 1.397 . S
C1051 C1056 1.363 . S
C1052 H1029 0.950 . S
C1052 C1051 1.397 . S
C1052 C1053 1.334 . S
C1053 H1030 0.950 . S
C1053 C1052 1.334 . S
C1053 C1054 1.287 . S
C1054 C1053 1.287 . S
C1054 C1055 1.524 . S
C1054 H1073 0.913 . S
C1055 H1031 0.950 . S
C1055 C1054 1.524 . S
C1055 C1056 1.415 . S
C1056 H1032 0.950 . S
C1056 C1051 1.363 . S
C1056 C1055 1.415 . S
C1057 H1033 0.951 . S
C1057 C1058 1.366 . S
C1057 C1059 1.388 . S
C1058 C1057 1.366 . S
C1058 C1062 1.385 . S
C1059 H1034 0.951 . S
C1059 C1057 1.388 . S
C1059 C1060 1.366 . S
C1060 C1059 1.366 . S
C1060 C1061 1.414 . S
C1060 C1063 1.499 . S
C1061 H1035 0.950 . S
C1061 C1060 1.414 . S
C1061 C1062 1.374 . S
C1062 H1036 0.950 . S
C1062 C1058 1.385 . S
C1062 C1061 1.374 . S
C1063 C1060 1.499 . S
C1063 C1064 1.373 . S
C1063 C1065 1.389 . S
C1064 H1037 0.950 . S
C1064 C1050 1.377 . S
C1064 C1063 1.373 . S
C1065 C1049 1.377 . S
C1065 C1063 1.389 . S
C1065 C1066 1.524 . S
C1066 C1065 1.524 . S
C1066 C1067 1.397 . S
C1066 C1071 1.363 . S
C1067 H1038 0.950 . S
C1067 C1066 1.397 . S
C1067 C1068 1.334 . S
C1068 H1039 0.950 . S
C1068 C1067 1.334 . S
C1068 C1069 1.287 . S
C1069 C1068 1.287 . S
C1069 C1070 1.524 . S
C1069 H1072 0.999 . S
C1070 H1040 0.950 . S
C1070 C1069 1.524 . S
C1070 C1071 1.415 . S
C1071 H1041 0.950 . S
C1071 C1066 1.363 . S
C1071 C1070 1.415 . S
H1072 C1069 0.999 . S
H1073 C1054 0.913 . S
H1074 C1092 0.951 . S
H1075 C1094 0.951 . S
H1076 C1096 0.950 . S
H1077 C1097 0.950 . S
H1078 C1099 0.950 . S
H1079 C1102 0.950 . S
H1080 C1103 0.950 . S
H1081 C1105 0.950 . S
H1082 C1106 0.950 . S
H1083 C1107 0.951 . S
H1084 C1109 0.951 . S
H1085 C1111 0.950 . S
H1086 C1112 0.950 . S
H1087 C1114 0.950 . S
H1088 C1117 0.950 . S
H1089 C1118 0.950 . S
H1090 C1120 0.950 . S
H1091 C1121 0.950 . S
C1092 H1074 0.951 . S
C1092 C1093 1.366 . S
C1092 C1094 1.388 . S
C1093 C1092 1.366 . S
C1093 C1097 1.385 . S
C1094 H1075 0.951 . S
C1094 C1092 1.388 . S
C1094 C1095 1.366 . S
C1095 C1094 1.366 . S
C1095 C1096 1.414 . S
C1095 C1098 1.499 . S
C1096 H1076 0.950 . S
C1096 C1095 1.414 . S
C1096 C1097 1.374 . S
C1097 H1077 0.950 . S
C1097 C1093 1.385 . S
C1097 C1096 1.374 . S
C1098 C1095 1.499 . S
C1098 C1099 1.373 . S
C1098 C1100 1.389 . S
C1099 H1078 0.950 . S
C1099 C1098 1.373 . S
C1099 C1115 1.377 . S
C1100 C1098 1.389 . S
C1100 C1101 1.524 . S
C1100 C1114 1.377 . S
C1101 C1100 1.524 . S
C1101 C1102 1.397 . S
C1101 C1106 1.363 . S
C1102 H1079 0.950 . S
C1102 C1101 1.397 . S
C1102 C1103 1.334 . S
C1103 H1080 0.950 . S
C1103 C1102 1.334 . S
C1103 C1104 1.287 . S
C1104 C1103 1.287 . S
C1104 C1105 1.524 . S
C1104 H1123 0.913 . S
C1105 H1081 0.950 . S
C1105 C1104 1.524 . S
C1105 C1106 1.415 . S
C1106 H1082 0.950 . S
C1106 C1101 1.363 . S
C1106 C1105 1.415 . S
C1107 H1083 0.951 . S
C1107 C1108 1.366 . S
C1107 C1109 1.388 . S
C1108 C1107 1.366 . S
C1108 C1112 1.385 . S
C1109 H1084 0.951 . S
C1109 C1107 1.388 . S
C1109 C1110 1.366 . S
C1110 C1109 1.366 . S
C1110 C1111 1.414 . S
C1110 C1113 1.499 . S
C1111 H1085 0.950 . S
C1111 C1110 1.414 . S
C1111 C1112 1.374 . S
C1112 H1086 0.950 . S
C1112 C1108 1.385 . S
C1112 C1111 1.374 . S
C1113 C1110 1.499 . S
C1113 C1114 1.373 . S
C1113 C1115 1.389 . S
C1114 H1087 0.950 . S
C1114 C1100 1.377 . S
C1114 C1113 1.373 . S
C1115 C1099 1.377 . S
C1115 C1113 1.389 . S
C1115 C1116 1.524 . S
C1116 C1115 1.524 . S
C1116 C1117 1.397 . S
C1116 C1121 1.363 . S
C1117 H1088 0.950 . S
C1117 C1116 1.397 . S
C1117 C1118 1.334 . S
C1118 H1089 0.950 . S
C1118 C1117 1.334 . S
C1118 C1119 1.287 . S
C1119 C1118 1.287 . S
C1119 C1120 1.524 . S
C1119 H1122 0.999 . S
C1120 H1090 0.950 . S
C1120 C1119 1.524 . S
C1120 C1121 1.415 . S
C1121 H1091 0.950 . S
C1121 C1116 1.363 . S
C1121 C1120 1.415 . S
H1122 C1119 0.999 . S
H1123 C1104 0.913 . S
H1124 C1142 0.951 . S
H1125 C1144 0.951 . S
H1126 C1146 0.950 . S
H1127 C1147 0.950 . S
H1128 C1149 0.950 . S
H1129 C1152 0.950 . S
H1130 C1153 0.950 . S
H1131 C1155 0.950 . S
H1132 C1156 0.950 . S
H1133 C1157 0.951 . S
H1134 C1159 0.951 . S
H1135 C1161 0.950 . S
H1136 C1162 0.950 . S
H1137 C1164 0.950 . S
H1138 C1167 0.950 . S
H1139 C1168 0.950 . S
H1140 C1170 0.950 . S
H1141 C1171 0.950 . S
C1142 H1124 0.951 . S
C1142 C1143 1.366 . S
C1142 C1144 1.388 . S
C1143 C1142 1.366 . S
C1143 C1147 1.385 . S
C1144 H1125 0.951 . S
C1144 C1142 1.388 . S
C1144 C1145 1.366 . S
C1145 C1144 1.366 . S
C1145 C1146 1.414 . S
C1145 C1148 1.499 . S
C1146 H1126 0.950 . S
C1146 C1145 1.414 . S
C1146 C1147 1.374 . S
C1147 H1127 0.950 . S
C1147 C1143 1.385 . S
C1147 C1146 1.374 . S
C1148 C1145 1.499 . S
C1148 C1149 1.373 . S
C1148 C1150 1.389 . S
C1149 H1128 0.950 . S
C1149 C1148 1.373 . S
C1149 C1165 1.377 . S
C1150 C1148 1.389 . S
C1150 C1151 1.524 . S
C1150 C1164 1.377 . S
C1151 C1150 1.524 . S
C1151 C1152 1.397 . S
C1151 C1156 1.363 . S
C1152 H1129 0.950 . S
C1152 C1151 1.397 . S
C1152 C1153 1.334 . S
C1153 H1130 0.950 . S
C1153 C1152 1.334 . S
C1153 C1154 1.287 . S
C1154 C1153 1.287 . S
C1154 C1155 1.524 . S
C1154 H1173 0.913 . S
C1155 H1131 0.950 . S
C1155 C1154 1.524 . S
C1155 C1156 1.415 . S
C1156 H1132 0.950 . S
C1156 C1151 1.363 . S
C1156 C1155 1.415 . S
C1157 H1133 0.951 . S
C1157 C1158 1.366 . S
C1157 C1159 1.388 . S
C1158 C1157 1.366 . S
C1158 C1162 1.385 . S
C1159 H1134 0.951 . S
C1159 C1157 1.388 . S
C1159 C1160 1.366 . S
C1160 C1159 1.366 . S
C1160 C1161 1.414 . S
C1160 C1163 1.499 . S
C1161 H1135 0.950 . S
C1161 C1160 1.414 . S
C1161 C1162 1.374 . S
C1162 H1136 0.950 . S
C1162 C1158 1.385 . S
C1162 C1161 1.374 . S
C1163 C1160 1.499 . S
C1163 C1164 1.373 . S
C1163 C1165 1.389 . S
C1164 H1137 0.950 . S
C1164 C1150 1.377 . S
C1164 C1163 1.373 . S
C1165 C1149 1.377 . S
C1165 C1163 1.389 . S
C1165 C1166 1.524 . S
C1166 C1165 1.524 . S
C1166 C1167 1.397 . S
C1166 C1171 1.363 . S
C1167 H1138 0.950 . S
C1167 C1166 1.397 . S
C1167 C1168 1.334 . S
C1168 H1139 0.950 . S
C1168 C1167 1.334 . S
C1168 C1169 1.287 . S
C1169 C1168 1.287 . S
C1169 C1170 1.524 . S
C1169 H1172 0.999 . S
C1170 H1140 0.950 . S
C1170 C1169 1.524 . S
C1170 C1171 1.415 . S
C1171 H1141 0.950 . S
C1171 C1166 1.363 . S
C1171 C1170 1.415 . S
H1172 C1169 0.999 . S
H1173 C1154 0.913 . S
H1174 C1192 0.951 . S
H1175 C1194 0.951 . S
H1176 C1196 0.950 . S
H1177 C1197 0.950 . S
H1178 C1199 0.950 . S
H1179 C1202 0.950 . S
H1180 C1203 0.950 . S
H1181 C1205 0.950 . S
H1182 C1206 0.950 . S
H1183 C1207 0.951 . S
H1184 C1209 0.951 . S
H1185 C1211 0.950 . S
H1186 C1212 0.950 . S
H1187 C1214 0.950 . S
H1188 C1217 0.950 . S
H1189 C1218 0.950 . S
H1190 C1220 0.950 . S
H1191 C1221 0.950 . S
C1192 H1174 0.951 . S
C1192 C1193 1.366 . S
C1192 C1194 1.388 . S
C1193 C1192 1.366 . S
C1193 C1197 1.385 . S
C1194 H1175 0.951 . S
C1194 C1192 1.388 . S
C1194 C1195 1.366 . S
C1195 C1194 1.366 . S
C1195 C1196 1.414 . S
C1195 C1198 1.499 . S
C1196 H1176 0.950 . S
C1196 C1195 1.414 . S
C1196 C1197 1.374 . S
C1197 H1177 0.950 . S
C1197 C1193 1.385 . S
C1197 C1196 1.374 . S
C1198 C1195 1.499 . S
C1198 C1199 1.373 . S
C1198 C1200 1.389 . S
C1199 H1178 0.950 . S
C1199 C1198 1.373 . S
C1199 C1215 1.377 . S
C1200 C1198 1.389 . S
C1200 C1201 1.524 . S
C1200 C1214 1.377 . S
C1201 C1200 1.524 . S
C1201 C1202 1.397 . S
C1201 C1206 1.363 . S
C1202 H1179 0.950 . S
C1202 C1201 1.397 . S
C1202 C1203 1.334 . S
C1203 H1180 0.950 . S
C1203 C1202 1.334 . S
C1203 C1204 1.287 . S
C1204 C1203 1.287 . S
C1204 C1205 1.524 . S
C1204 H1223 0.913 . S
C1205 H1181 0.950 . S
C1205 C1204 1.524 . S
C1205 C1206 1.415 . S
C1206 H1182 0.950 . S
C1206 C1201 1.363 . S
C1206 C1205 1.415 . S
C1207 H1183 0.951 . S
C1207 C1208 1.366 . S
C1207 C1209 1.388 . S
C1208 C1207 1.366 . S
C1208 C1212 1.385 . S
C1209 H1184 0.951 . S
C1209 C1207 1.388 . S
C1209 C1210 1.366 . S
C1210 C1209 1.366 . S
C1210 C1211 1.414 . S
C1210 C1213 1.499 . S
C1211 H1185 0.950 . S
C1211 C1210 1.414 . S
C1211 C1212 1.374 . S
C1212 H1186 0.950 . S
C1212 C1208 1.385 . S
C1212 C1211 1.374 . S
C1213 C1210 1.499 . S
C1213 C1214 1.373 . S
C1213 C1215 1.389 . S
C1214 H1187 0.950 . S
C1214 C1200 1.377 . S
C1214 C1213 1.373 . S
C1215 C1199 1.377 . S
C1215 C1213 1.389 . S
C1215 C1216 1.524 . S
C1216 C1215 1.524 . S
C1216 C1217 1.397 . S
C1216 C1221 1.363 . S
C1217 H1188 0.950 . S
C1217 C1216 1.397 . S
C1217 C1218 1.334 . S
C1218 H1189 0.950 . S
C1218 C1217 1.334 . S
C1218 C1219 1.287 . S
C1219 C1218 1.287 . S
C1219 C1220 1.524 . S
C1219 H1222 0.999 . S
C1220 H1190 0.950 . S
C1220 C1219 1.524 . S
C1220 C1221 1.415 . S
C1221 H1191 0.950 . S
C1221 C1216 1.363 . S
C1221 C1220 1.415 . S
H1222 C1219 0.999 . S
H1223 C1204 0.913 . S
H1224 C1242 0.951 . S
H1225 C1244 0.951 . S
H1226 C1246 0.950 . S
H1227 C1247 0.950 . S
H1228 C1249 0.950 . S
H1229 C1252 0.950 . S
H1230 C1253 0.950 . S
H1231 C1255 0.950 . S
H1232 C1256 0.950 . S
H1233 C1257 0.951 . S
H1234 C1259 0.951 . S
H1235 C1261 0.950 . S
H1236 C1262 0.950 . S
H1237 C1264 0.950 . S
H1238 C1267 0.950 . S
H1239 C1268 0.950 . S
H1240 C1270 0.950 . S
H1241 C1271 0.950 . S
C1242 H1224 0.951 . S
C1242 C1243 1.366 . S
C1242 C1244 1.388 . S
C1243 C1242 1.366 . S
C1243 C1247 1.385 . S
C1244 H1225 0.951 . S
C1244 C1242 1.388 . S
C1244 C1245 1.366 . S
C1245 C1244 1.366 . S
C1245 C1246 1.414 . S
C1245 C1248 1.499 . S
C1246 H1226 0.950 . S
C1246 C1245 1.414 . S
C1246 C1247 1.374 . S
C1247 H1227 0.950 . S
C1247 C1243 1.385 . S
C1247 C1246 1.374 . S
C1248 C1245 1.499 . S
C1248 C1249 1.373 . S
C1248 C1250 1.389 . S
C1249 H1228 0.950 . S
C1249 C1248 1.373 . S
C1249 C1265 1.377 . S
C1250 C1248 1.389 . S
C1250 C1251 1.524 . S
C1250 C1264 1.377 . S
C1251 C1250 1.524 . S
C1251 C1252 1.397 . S
C1251 C1256 1.363 . S
C1252 H1229 0.950 . S
C1252 C1251 1.397 . S
C1252 C1253 1.334 . S
C1253 H1230 0.950 . S
C1253 C1252 1.334 . S
C1253 C1254 1.287 . S
C1254 C1253 1.287 . S
C1254 C1255 1.524 . S
C1254 H1273 0.913 . S
C1255 H1231 0.950 . S
C1255 C1254 1.524 . S
C1255 C1256 1.415 . S
C1256 H1232 0.950 . S
C1256 C1251 1.363 . S
C1256 C1255 1.415 . S
C1257 H1233 0.951 . S
C1257 C1258 1.366 . S
C1257 C1259 1.388 . S
C1258 C1257 1.366 . S
C1258 C1262 1.385 . S
C1259 H1234 0.951 . S
C1259 C1257 1.388 . S
C1259 C1260 1.366 . S
C1260 C1259 1.366 . S
C1260 C1261 1.414 . S
C1260 C1263 1.499 . S
C1261 H1235 0.950 . S
C1261 C1260 1.414 . S
C1261 C1262 1.374 . S
C1262 H1236 0.950 . S
C1262 C1258 1.385 . S
C1262 C1261 1.374 . S
C1263 C1260 1.499 . S
C1263 C1264 1.373 . S
C1263 C1265 1.389 . S
C1264 H1237 0.950 . S
C1264 C1250 1.377 . S
C1264 C1263 1.373 . S
C1265 C1249 1.377 . S
C1265 C1263 1.389 . S
C1265 C1266 1.524 . S
C1266 C1265 1.524 . S
C1266 C1267 1.397 . S
C1266 C1271 1.363 . S
C1267 H1238 0.950 . S
C1267 C1266 1.397 . S
C1267 C1268 1.334 . S
C1268 H1239 0.950 . S
C1268 C1267 1.334 . S
C1268 C1269 1.287 . S
C1269 C1268 1.287 . S
C1269 C1270 1.524 . S
C1269 H1272 0.999 . S
C1270 H1240 0.950 . S
C1270 C1269 1.524 . S
C1270 C1271 1.415 . S
C1271 H1241 0.950 . S
C1271 C1266 1.363 . S
C1271 C1270 1.415 . S
H1272 C1269 0.999 . S
H1273 C1254 0.913 . S
H1274 C1292 0.951 . S
H1275 C1294 0.951 . S
H1276 C1296 0.950 . S
H1277 C1297 0.950 . S
H1278 C1299 0.950 . S
H1279 C1302 0.950 . S
H1280 C1303 0.950 . S
H1281 C1305 0.950 . S
H1282 C1306 0.950 . S
H1283 C1307 0.951 . S
H1284 C1309 0.951 . S
H1285 C1311 0.950 . S
H1286 C1312 0.950 . S
H1287 C1314 0.950 . S
H1288 C1317 0.950 . S
H1289 C1318 0.950 . S
H1290 C1320 0.950 . S
H1291 C1321 0.950 . S
C1292 H1274 0.951 . S
C1292 C1293 1.366 . S
C1292 C1294 1.388 . S
C1293 C1292 1.366 . S
C1293 C1297 1.385 . S
C1294 H1275 0.951 . S
C1294 C1292 1.388 . S
C1294 C1295 1.366 . S
C1295 C1294 1.366 . S
C1295 C1296 1.414 . S
C1295 C1298 1.499 . S
C1296 H1276 0.950 . S
C1296 C1295 1.414 . S
C1296 C1297 1.374 . S
C1297 H1277 0.950 . S
C1297 C1293 1.385 . S
C1297 C1296 1.374 . S
C1298 C1295 1.499 . S
C1298 C1299 1.373 . S
C1298 C1300 1.389 . S
C1299 H1278 0.950 . S
C1299 C1298 1.373 . S
C1299 C1315 1.377 . S
C1300 C1298 1.389 . S
C1300 C1301 1.524 . S
C1300 C1314 1.377 . S
C1301 C1300 1.524 . S
C1301 C1302 1.397 . S
C1301 C1306 1.363 . S
C1302 H1279 0.950 . S
C1302 C1301 1.397 . S
C1302 C1303 1.334 . S
C1303 H1280 0.950 . S
C1303 C1302 1.334 . S
C1303 C1304 1.287 . S
C1304 C1303 1.287 . S
C1304 C1305 1.524 . S
C1304 H1323 0.913 . S
C1305 H1281 0.950 . S
C1305 C1304 1.524 . S
C1305 C1306 1.415 . S
C1306 H1282 0.950 . S
C1306 C1301 1.363 . S
C1306 C1305 1.415 . S
C1307 H1283 0.951 . S
C1307 C1308 1.366 . S
C1307 C1309 1.388 . S
C1308 C1307 1.366 . S
C1308 C1312 1.385 . S
C1309 H1284 0.951 . S
C1309 C1307 1.388 . S
C1309 C1310 1.366 . S
C1310 C1309 1.366 . S
C1310 C1311 1.414 . S
C1310 C1313 1.499 . S
C1311 H1285 0.950 . S
C1311 C1310 1.414 . S
C1311 C1312 1.374 . S
C1312 H1286 0.950 . S
C1312 C1308 1.385 . S
C1312 C1311 1.374 . S
C1313 C1310 1.499 . S
C1313 C1314 1.373 . S
C1313 C1315 1.389 . S
C1314 H1287 0.950 . S
C1314 C1300 1.377 . S
C1314 C1313 1.373 . S
C1315 C1299 1.377 . S
C1315 C1313 1.389 . S
C1315 C1316 1.524 . S
C1316 C1315 1.524 . S
C1316 C1317 1.397 . S
C1316 C1321 1.363 . S
C1317 H1288 0.950 . S
C1317 C1316 1.397 . S
C1317 C1318 1.334 . S
C1318 H1289 0.950 . S
C1318 C1317 1.334 . S
C1318 C1319 1.287 . S
C1319 C1318 1.287 . S
C1319 C1320 1.524 . S
C1319 H1322 0.999 . S
C1320 H1290 0.950 . S
C1320 C1319 1.524 . S
C1320 C1321 1.415 . S
C1321 H1291 0.950 . S
C1321 C1316 1.363 . S
C1321 C1320 1.415 . S
H1322 C1319 0.999 . S
H1323 C1304 0.913 . S
H1324 C1342 0.951 . S
H1325 C1344 0.951 . S
H1326 C1346 0.950 . S
H1327 C1347 0.950 . S
H1328 C1349 0.950 . S
H1329 C1352 0.950 . S
H1330 C1353 0.950 . S
H1331 C1355 0.950 . S
H1332 C1356 0.950 . S
H1333 C1357 0.951 . S
H1334 C1359 0.951 . S
H1335 C1361 0.950 . S
H1336 C1362 0.950 . S
H1337 C1364 0.950 . S
H1338 C1367 0.950 . S
H1339 C1368 0.950 . S
H1340 C1370 0.950 . S
H1341 C1371 0.950 . S
C1342 H1324 0.951 . S
C1342 C1343 1.366 . S
C1342 C1344 1.388 . S
C1343 C1342 1.366 . S
C1343 C1347 1.385 . S
C1344 H1325 0.951 . S
C1344 C1342 1.388 . S
C1344 C1345 1.366 . S
C1345 C1344 1.366 . S
C1345 C1346 1.414 . S
C1345 C1348 1.499 . S
C1346 H1326 0.950 . S
C1346 C1345 1.414 . S
C1346 C1347 1.374 . S
C1347 H1327 0.950 . S
C1347 C1343 1.385 . S
C1347 C1346 1.374 . S
C1348 C1345 1.499 . S
C1348 C1349 1.373 . S
C1348 C1350 1.389 . S
C1349 H1328 0.950 . S
C1349 C1348 1.373 . S
C1349 C1365 1.377 . S
C1350 C1348 1.389 . S
C1350 C1351 1.524 . S
C1350 C1364 1.377 . S
C1351 C1350 1.524 . S
C1351 C1352 1.397 . S
C1351 C1356 1.363 . S
C1352 H1329 0.950 . S
C1352 C1351 1.397 . S
C1352 C1353 1.334 . S
C1353 H1330 0.950 . S
C1353 C1352 1.334 . S
C1353 C1354 1.287 . S
C1354 C1353 1.287 . S
C1354 C1355 1.524 . S
C1354 H1373 0.913 . S
C1355 H1331 0.950 . S
C1355 C1354 1.524 . S
C1355 C1356 1.415 . S
C1356 H1332 0.950 . S
C1356 C1351 1.363 . S
C1356 C1355 1.415 . S
C1357 H1333 0.951 . S
C1357 C1358 1.366 . S
C1357 C1359 1.388 . S
C1358 C1357 1.366 . S
C1358 C1362 1.385 . S
C1359 H1334 0.951 . S
C1359 C1357 1.388 . S
C1359 C1360 1.366 . S
C1360 C1359 1.366 . S
C1360 C1361 1.414 . S
C1360 C1363 1.499 . S
C1361 H1335 0.950 . S
C1361 C1360 1.414 . S
C1361 C1362 1.374 . S
C1362 H1336 0.950 . S
C1362 C1358 1.385 . S
C1362 C1361 1.374 . S
C1363 C1360 1.499 . S
C1363 C1364 1.373 . S
C1363 C1365 1.389 . S
C1364 H1337 0.950 . S
C1364 C1350 1.377 . S
C1364 C1363 1.373 . S
C1365 C1349 1.377 . S
C1365 C1363 1.389 . S
C1365 C1366 1.524 . S
C1366 C1365 1.524 . S
C1366 C1367 1.397 . S
C1366 C1371 1.363 . S
C1367 H1338 0.950 . S
C1367 C1366 1.397 . S
C1367 C1368 1.334 . S
C1368 H1339 0.950 . S
C1368 C1367 1.334 . S
C1368 C1369 1.287 . S
C1369 C1368 1.287 . S
C1369 C1370 1.524 . S
C1369 H1372 0.999 . S
C1370 H1340 0.950 . S
C1370 C1369 1.524 . S
C1370 C1371 1.415 . S
C1371 H1341 0.950 . S
C1371 C1366 1.363 . S
C1371 C1370 1.415 . S
H1372 C1369 0.999 . S
H1373 C1354 0.913 . S
H1374 C1392 0.951 . S
H1375 C1394 0.951 . S
H1376 C1396 0.950 . S
H1377 C1397 0.950 . S
H1378 C1399 0.950 . S
H1379 C1402 0.950 . S
H1380 C1403 0.950 . S
H1381 C1405 0.950 . S
H1382 C1406 0.950 . S
H1383 C1407 0.951 . S
H1384 C1409 0.951 . S
H1385 C1411 0.950 . S
H1386 C1412 0.950 . S
H1387 C1414 0.950 . S
H1388 C1417 0.950 . S
H1389 C1418 0.950 . S
H1390 C1420 0.950 . S
H1391 C1421 0.950 . S
C1392 H1374 0.951 . S
C1392 C1393 1.366 . S
C1392 C1394 1.388 . S
C1393 C1392 1.366 . S
C1393 C1397 1.385 . S
C1394 H1375 0.951 . S
C1394 C1392 1.388 . S
C1394 C1395 1.366 . S
C1395 C1394 1.366 . S
C1395 C1396 1.414 . S
C1395 C1398 1.499 . S
C1396 H1376 0.950 . S
C1396 C1395 1.414 . S
C1396 C1397 1.374 . S
C1397 H1377 0.950 . S
C1397 C1393 1.385 . S
C1397 C1396 1.374 . S
C1398 C1395 1.499 . S
C1398 C1399 1.373 . S
C1398 C1400 1.389 . S
C1399 H1378 0.950 . S
C1399 C1398 1.373 . S
C1399 C1415 1.377 . S
C1400 C1398 1.389 . S
C1400 C1401 1.524 . S
C1400 C1414 1.377 . S
C1401 C1400 1.524 . S
C1401 C1402 1.397 . S
C1401 C1406 1.363 . S
C1402 H1379 0.950 . S
C1402 C1401 1.397 . S
C1402 C1403 1.334 . S
C1403 H1380 0.950 . S
C1403 C1402 1.334 . S
C1403 C1404 1.287 . S
C1404 C1403 1.287 . S
C1404 C1405 1.524 . S
C1404 H1423 0.913 . S
C1405 H1381 0.950 . S
C1405 C1404 1.524 . S
C1405 C1406 1.415 . S
C1406 H1382 0.950 . S
C1406 C1401 1.363 . S
C1406 C1405 1.415 . S
C1407 H1383 0.951 . S
C1407 C1408 1.366 . S
C1407 C1409 1.388 . S
C1408 C1407 1.366 . S
C1408 C1412 1.385 . S
C1409 H1384 0.951 . S
C1409 C1407 1.388 . S
C1409 C1410 1.366 . S
C1410 C1409 1.366 . S
C1410 C1411 1.414 . S
C1410 C1413 1.499 . S
C1411 H1385 0.950 . S
C1411 C1410 1.414 . S
C1411 C1412 1.374 . S
C1412 H1386 0.950 . S
C1412 C1408 1.385 . S
C1412 C1411 1.374 . S
C1413 C1410 1.499 . S
C1413 C1414 1.373 . S
C1413 C1415 1.389 . S
C1414 H1387 0.950 . S
C1414 C1400 1.377 . S
C1414 C1413 1.373 . S
C1415 C1399 1.377 . S
C1415 C1413 1.389 . S
C1415 C1416 1.524 . S
C1416 C1415 1.524 . S
C1416 C1417 1.397 . S
C1416 C1421 1.363 . S
C1417 H1388 0.950 . S
C1417 C1416 1.397 . S
C1417 C1418 1.334 . S
C1418 H1389 0.950 . S
C1418 C1417 1.334 . S
C1418 C1419 1.287 . S
C1419 C1418 1.287 . S
C1419 C1420 1.524 . S
C1419 H1422 0.999 . S
C1420 H1390 0.950 . S
C1420 C1419 1.524 . S
C1420 C1421 1.415 . S
C1421 H1391 0.950 . S
C1421 C1416 1.363 . S
C1421 C1420 1.415 . S
H1422 C1419 0.999 . S
H1423 C1404 0.913 . S
H1424 C1442 0.951 . S
H1425 C1444 0.951 . S
H1426 C1446 0.950 . S
H1427 C1447 0.950 . S
H1428 C1449 0.951 . S
H1429 C1452 0.950 . S
H1430 C1453 0.950 . S
H1431 C1455 0.950 1_565 S
H1432 C1456 0.950 . S
H1433 C1457 0.951 . S
H1434 C1459 0.951 . S
H1435 C1461 0.950 . S
H1436 C1462 0.950 . S
H1437 C1464 0.951 . S
H1438 C1467 0.950 . S
H1439 C1468 0.950 . S
H1440 C1470 0.950 1_545 S
H1441 C1471 0.950 . S
C1442 H1424 0.951 . S
C1442 C1443 1.366 1_565 S
C1442 C1444 1.388 . S
C1443 C1442 1.366 1_545 S
C1443 C1447 1.385 . S
C1444 H1425 0.951 . S
C1444 C1442 1.388 . S
C1444 C1445 1.366 1_565 S
C1445 C1444 1.366 1_545 S
C1445 C1446 1.414 . S
C1445 C1448 1.499 . S
C1446 H1426 0.950 . S
C1446 C1445 1.414 . S
C1446 C1447 1.374 . S
C1447 H1427 0.950 . S
C1447 C1443 1.385 . S
C1447 C1446 1.374 . S
C1448 C1445 1.499 . S
C1448 C1449 1.378 . S
C1448 C1450 1.389 . S
C1449 H1428 0.951 . S
C1449 C1448 1.378 . S
C1449 C1465 1.372 1_545 S
C1450 C1448 1.389 . S
C1450 C1451 1.524 . S
C1450 C1464 1.372 1_545 S
C1451 C1450 1.524 . S
C1451 C1452 1.397 . S
C1451 C1456 1.363 1_545 S
C1452 H1429 0.950 . S
C1452 C1451 1.397 . S
C1452 C1453 1.334 . S
C1453 H1430 0.950 . S
C1453 C1452 1.334 . S
C1453 C1454 1.287 . S
C1454 C1453 1.287 . S
C1454 C1455 1.524 . S
C1454 H1473 0.913 . S
C1455 H1431 0.950 1_545 S
C1455 C1454 1.524 . S
C1455 C1456 1.415 1_545 S
C1456 H1432 0.950 . S
C1456 C1451 1.363 1_565 S
C1456 C1455 1.415 1_565 S
C1457 H1433 0.951 . S
C1457 C1458 1.366 1_545 S
C1457 C1459 1.388 . S
C1458 C1457 1.366 1_565 S
C1458 C1462 1.385 . S
C1459 H1434 0.951 . S
C1459 C1457 1.388 . S
C1459 C1460 1.366 1_545 S
C1460 C1459 1.366 1_565 S
C1460 C1461 1.414 . S
C1460 C1463 1.499 . S
C1461 H1435 0.950 . S
C1461 C1460 1.414 . S
C1461 C1462 1.374 . S
C1462 H1436 0.950 . S
C1462 C1458 1.385 . S
C1462 C1461 1.374 . S
C1463 C1460 1.499 . S
C1463 C1464 1.378 . S
C1463 C1465 1.389 . S
C1464 H1437 0.951 . S
C1464 C1450 1.372 1_565 S
C1464 C1463 1.378 . S
C1465 C1449 1.372 1_565 S
C1465 C1463 1.389 . S
C1465 C1466 1.524 . S
C1466 C1465 1.524 . S
C1466 C1467 1.397 . S
C1466 C1471 1.363 1_565 S
C1467 H1438 0.950 . S
C1467 C1466 1.397 . S
C1467 C1468 1.334 . S
C1468 H1439 0.950 . S
C1468 C1467 1.334 . S
C1468 C1469 1.287 . S
C1469 C1468 1.287 . S
C1469 C1470 1.524 . S
C1469 H1472 0.999 . S
C1470 H1440 0.950 1_565 S
C1470 C1469 1.524 . S
C1470 C1471 1.415 1_565 S
C1471 H1441 0.950 . S
C1471 C1466 1.363 1_545 S
C1471 C1470 1.415 1_545 S
H1472 C1469 0.999 . S
H1473 C1454 0.913 . S
H1474 C1492 0.951 . S
H1475 C1494 0.951 . S
H1476 C1496 0.950 . S
H1477 C1497 0.950 . S
H1478 C1499 0.950 . S
H1479 C1502 0.950 1_545 S
H1480 C1503 0.950 . S
H1481 C1505 0.950 . S
H1482 C1506 0.950 . S
H1483 C1507 0.951 . S
H1484 C1509 0.951 . S
H1485 C1511 0.950 . S
H1486 C1512 0.950 . S
H1487 C1514 0.950 . S
H1488 C1517 0.950 1_565 S
H1489 C1518 0.950 . S
H1490 C1520 0.950 . S
H1491 C1521 0.950 . S
C1492 H1474 0.951 . S
C1492 C1493 1.366 1_565 S
C1492 C1494 1.388 . S
C1493 C1492 1.366 1_545 S
C1493 C1497 1.385 . S
C1494 H1475 0.951 . S
C1494 C1492 1.388 . S
C1494 C1495 1.366 1_565 S
C1495 C1494 1.366 1_545 S
C1495 C1496 1.414 . S
C1495 C1498 1.499 . S
C1496 H1476 0.950 . S
C1496 C1495 1.414 . S
C1496 C1497 1.374 . S
C1497 H1477 0.950 . S
C1497 C1493 1.385 . S
C1497 C1496 1.374 . S
C1498 C1495 1.499 . S
C1498 C1499 1.373 . S
C1498 C1500 1.389 1_545 S
C1499 H1478 0.950 . S
C1499 C1498 1.373 . S
C1499 C1515 1.377 . S
C1500 C1498 1.389 1_565 S
C1500 C1501 1.524 . S
C1500 C1514 1.377 . S
C1501 C1500 1.524 . S
C1501 C1502 1.397 . S
C1501 C1506 1.363 . S
C1502 H1479 0.950 1_565 S
C1502 C1501 1.397 . S
C1502 C1503 1.334 . S
C1503 H1480 0.950 . S
C1503 C1502 1.334 . S
C1503 C1504 1.287 . S
C1504 C1503 1.287 . S
C1504 C1505 1.524 . S
C1504 H1523 0.913 . S
C1505 H1481 0.950 . S
C1505 C1504 1.524 . S
C1505 C1506 1.415 . S
C1506 H1482 0.950 . S
C1506 C1501 1.363 . S
C1506 C1505 1.415 . S
C1507 H1483 0.951 . S
C1507 C1508 1.366 1_545 S
C1507 C1509 1.388 . S
C1508 C1507 1.366 1_565 S
C1508 C1512 1.385 . S
C1509 H1484 0.951 . S
C1509 C1507 1.388 . S
C1509 C1510 1.366 1_545 S
C1510 C1509 1.366 1_565 S
C1510 C1511 1.414 . S
C1510 C1513 1.499 . S
C1511 H1485 0.950 . S
C1511 C1510 1.414 . S
C1511 C1512 1.374 . S
C1512 H1486 0.950 . S
C1512 C1508 1.385 . S
C1512 C1511 1.374 . S
C1513 C1510 1.499 . S
C1513 C1514 1.373 . S
C1513 C1515 1.389 1_565 S
C1514 H1487 0.950 . S
C1514 C1500 1.377 . S
C1514 C1513 1.373 . S
C1515 C1499 1.377 . S
C1515 C1513 1.389 1_545 S
C1515 C1516 1.524 . S
C1516 C1515 1.524 . S
C1516 C1517 1.397 . S
C1516 C1521 1.363 . S
C1517 H1488 0.950 1_545 S
C1517 C1516 1.397 . S
C1517 C1518 1.334 . S
C1518 H1489 0.950 . S
C1518 C1517 1.334 . S
C1518 C1519 1.287 . S
C1519 C1518 1.287 . S
C1519 C1520 1.524 . S
C1519 H1522 0.999 . S
C1520 H1490 0.950 . S
C1520 C1519 1.524 . S
C1520 C1521 1.415 . S
C1521 H1491 0.950 . S
C1521 C1516 1.363 . S
C1521 C1520 1.415 . S
H1522 C1519 0.999 . S
H1523 C1504 0.913 . S
H1524 C1542 0.951 . S
H1525 C1544 0.951 . S
H1526 C1546 0.950 . S
H1527 C1547 0.950 . S
H1528 C1549 0.950 . S
H1529 C1552 0.950 . S
H1530 C1553 0.950 . S
H1531 C1555 0.950 . S
H1532 C1556 0.950 . S
H1533 C1557 0.951 . S
H1534 C1559 0.951 . S
H1535 C1561 0.950 . S
H1536 C1562 0.950 . S
H1537 C1564 0.950 . S
H1538 C1567 0.950 . S
H1539 C1568 0.950 . S
H1540 C1570 0.950 . S
H1541 C1571 0.950 . S
C1542 H1524 0.951 . S
C1542 C1543 1.366 1_565 S
C1542 C1544 1.388 . S
C1543 C1542 1.366 1_545 S
C1543 C1547 1.385 . S
C1544 H1525 0.951 . S
C1544 C1542 1.388 . S
C1544 C1545 1.366 1_565 S
C1545 C1544 1.366 1_545 S
C1545 C1546 1.414 . S
C1545 C1548 1.499 . S
C1546 H1526 0.950 . S
C1546 C1545 1.414 . S
C1546 C1547 1.374 . S
C1547 H1527 0.950 . S
C1547 C1543 1.385 . S
C1547 C1546 1.374 . S
C1548 C1545 1.499 . S
C1548 C1549 1.373 . S
C1548 C1550 1.389 1_545 S
C1549 H1528 0.950 . S
C1549 C1548 1.373 . S
C1549 C1565 1.377 . S
C1550 C1548 1.389 1_565 S
C1550 C1551 1.524 . S
C1550 C1564 1.377 . S
C1551 C1550 1.524 . S
C1551 C1552 1.397 . S
C1551 C1556 1.363 . S
C1552 H1529 0.950 . S
C1552 C1551 1.397 . S
C1552 C1553 1.334 . S
C1553 H1530 0.950 . S
C1553 C1552 1.334 . S
C1553 C1554 1.287 . S
C1554 C1553 1.287 . S
C1554 C1555 1.524 . S
C1554 H1573 0.913 . S
C1555 H1531 0.950 . S
C1555 C1554 1.524 . S
C1555 C1556 1.415 . S
C1556 H1532 0.950 . S
C1556 C1551 1.363 . S
C1556 C1555 1.415 . S
C1557 H1533 0.951 . S
C1557 C1558 1.366 1_545 S
C1557 C1559 1.388 . S
C1558 C1557 1.366 1_565 S
C1558 C1562 1.385 . S
C1559 H1534 0.951 . S
C1559 C1557 1.388 . S
C1559 C1560 1.366 1_545 S
C1560 C1559 1.366 1_565 S
C1560 C1561 1.414 . S
C1560 C1563 1.499 . S
C1561 H1535 0.950 . S
C1561 C1560 1.414 . S
C1561 C1562 1.374 . S
C1562 H1536 0.950 . S
C1562 C1558 1.385 . S
C1562 C1561 1.374 . S
C1563 C1560 1.499 . S
C1563 C1564 1.373 . S
C1563 C1565 1.389 1_565 S
C1564 H1537 0.950 . S
C1564 C1550 1.377 . S
C1564 C1563 1.373 . S
C1565 C1549 1.377 . S
C1565 C1563 1.389 1_545 S
C1565 C1566 1.524 . S
C1566 C1565 1.524 . S
C1566 C1567 1.397 . S
C1566 C1571 1.363 . S
C1567 H1538 0.950 . S
C1567 C1566 1.397 . S
C1567 C1568 1.334 . S
C1568 H1539 0.950 . S
C1568 C1567 1.334 . S
C1568 C1569 1.287 . S
C1569 C1568 1.287 . S
C1569 C1570 1.524 . S
C1569 H1572 0.999 . S
C1570 H1540 0.950 . S
C1570 C1569 1.524 . S
C1570 C1571 1.415 . S
C1571 H1541 0.950 . S
C1571 C1566 1.363 . S
C1571 C1570 1.415 . S
H1572 C1569 0.999 . S
H1573 C1554 0.913 . S
H1574 C1592 0.951 1_545 S
H1575 C1594 0.945 1_545 S
H1576 C1596 0.950 . S
H1577 C1597 0.950 . S
H1578 C1599 0.950 . S
H1579 C1602 0.950 . S
H1580 C1603 0.950 . S
H1581 C1605 0.950 . S
H1582 C1606 0.950 . S
H1583 C1607 0.951 1_565 S
H1584 C1609 0.945 1_565 S
H1585 C1611 0.950 . S
H1586 C1612 0.950 . S
H1587 C1614 0.950 . S
H1588 C1617 0.950 . S
H1589 C1618 0.950 . S
H1590 C1620 0.950 . S
H1591 C1621 0.950 . S
C1592 H1574 0.951 1_565 S
C1592 C1593 1.366 . S
C1592 C1594 1.389 . S
C1593 C1592 1.366 . S
C1593 C1597 1.385 . S
C1594 H1575 0.945 1_565 S
C1594 C1592 1.389 . S
C1594 C1595 1.370 . S
C1595 C1594 1.370 . S
C1595 C1596 1.414 . S
C1595 C1598 1.499 . S
C1596 H1576 0.950 . S
C1596 C1595 1.414 . S
C1596 C1597 1.374 . S
C1597 H1577 0.950 . S
C1597 C1593 1.385 . S
C1597 C1596 1.374 . S
C1598 C1595 1.499 . S
C1598 C1599 1.373 1_565 S
C1598 C1600 1.389 . S
C1599 H1578 0.950 . S
C1599 C1598 1.373 1_545 S
C1599 C1615 1.377 . S
C1600 C1598 1.389 . S
C1600 C1601 1.524 . S
C1600 C1614 1.377 . S
C1601 C1600 1.524 . S
C1601 C1602 1.397 . S
C1601 C1606 1.363 . S
C1602 H1579 0.950 . S
C1602 C1601 1.397 . S
C1602 C1603 1.334 . S
C1603 H1580 0.950 . S
C1603 C1602 1.334 . S
C1603 C1604 1.287 . S
C1604 C1603 1.287 . S
C1604 C1605 1.524 . S
C1604 H1623 0.913 . S
C1605 H1581 0.950 . S
C1605 C1604 1.524 . S
C1605 C1606 1.415 . S
C1606 H1582 0.950 . S
C1606 C1601 1.363 . S
C1606 C1605 1.415 . S
C1607 H1583 0.951 1_545 S
C1607 C1608 1.366 . S
C1607 C1609 1.389 . S
C1608 C1607 1.366 . S
C1608 C1612 1.385 . S
C1609 H1584 0.945 1_545 S
C1609 C1607 1.389 . S
C1609 C1610 1.370 . S
C1610 C1609 1.370 . S
C1610 C1611 1.414 . S
C1610 C1613 1.499 . S
C1611 H1585 0.950 . S
C1611 C1610 1.414 . S
C1611 C1612 1.374 . S
C1612 H1586 0.950 . S
C1612 C1608 1.385 . S
C1612 C1611 1.374 . S
C1613 C1610 1.499 . S
C1613 C1614 1.373 1_545 S
C1613 C1615 1.389 . S
C1614 H1587 0.950 . S
C1614 C1600 1.377 . S
C1614 C1613 1.373 1_565 S
C1615 C1599 1.377 . S
C1615 C1613 1.389 . S
C1615 C1616 1.524 . S
C1616 C1615 1.524 . S
C1616 C1617 1.397 . S
C1616 C1621 1.363 . S
C1617 H1588 0.950 . S
C1617 C1616 1.397 . S
C1617 C1618 1.334 . S
C1618 H1589 0.950 . S
C1618 C1617 1.334 . S
C1618 C1619 1.287 . S
C1619 C1618 1.287 . S
C1619 C1620 1.524 . S
C1619 H1622 0.999 . S
C1620 H1590 0.950 . S
C1620 C1619 1.524 . S
C1620 C1621 1.415 . S
C1621 H1591 0.950 . S
C1621 C1616 1.363 . S
C1621 C1620 1.415 . S
H1622 C1619 0.999 . S
H1623 C1604 0.913 . S
H1624 C1642 0.951 . S
H1625 C1644 0.951 . S
H1626 C1646 0.950 . S
H1627 C1647 0.950 . S
H1628 C1649 0.950 . S
H1629 C1652 0.950 . S
H1630 C1653 0.950 . S
H1631 C1655 0.950 . S
H1632 C1656 0.950 . S
H1633 C1657 0.951 . S
H1634 C1659 0.951 . S
H1635 C1661 0.950 . S
H1636 C1662 0.950 . S
H1637 C1664 0.950 . S
H1638 C1667 0.950 . S
H1639 C1668 0.950 . S
H1640 C1670 0.950 . S
H1641 C1671 0.950 . S
C1642 H1624 0.951 . S
C1642 C1643 1.366 . S
C1642 C1644 1.388 . S
C1643 C1642 1.366 . S
C1643 C1647 1.385 . S
C1644 H1625 0.951 . S
C1644 C1642 1.388 . S
C1644 C1645 1.366 . S
C1645 C1644 1.366 . S
C1645 C1646 1.414 . S
C1645 C1648 1.499 . S
C1646 H1626 0.950 . S
C1646 C1645 1.414 . S
C1646 C1647 1.374 . S
C1647 H1627 0.950 . S
C1647 C1643 1.385 . S
C1647 C1646 1.374 . S
C1648 C1645 1.499 . S
C1648 C1649 1.373 . S
C1648 C1650 1.389 . S
C1649 H1628 0.950 . S
C1649 C1648 1.373 . S
C1649 C1665 1.377 . S
C1650 C1648 1.389 . S
C1650 C1651 1.524 . S
C1650 C1664 1.377 . S
C1651 C1650 1.524 . S
C1651 C1652 1.397 . S
C1651 C1656 1.363 . S
C1652 H1629 0.950 . S
C1652 C1651 1.397 . S
C1652 C1653 1.334 . S
C1653 H1630 0.950 . S
C1653 C1652 1.334 . S
C1653 C1654 1.287 . S
C1654 C1653 1.287 . S
C1654 C1655 1.524 . S
C1654 H1673 0.913 . S
C1655 H1631 0.950 . S
C1655 C1654 1.524 . S
C1655 C1656 1.415 . S
C1656 H1632 0.950 . S
C1656 C1651 1.363 . S
C1656 C1655 1.415 . S
C1657 H1633 0.951 . S
C1657 C1658 1.366 . S
C1657 C1659 1.388 . S
C1658 C1657 1.366 . S
C1658 C1662 1.385 . S
C1659 H1634 0.951 . S
C1659 C1657 1.388 . S
C1659 C1660 1.366 . S
C1660 C1659 1.366 . S
C1660 C1661 1.414 . S
C1660 C1663 1.499 . S
C1661 H1635 0.950 . S
C1661 C1660 1.414 . S
C1661 C1662 1.374 . S
C1662 H1636 0.950 . S
C1662 C1658 1.385 . S
C1662 C1661 1.374 . S
C1663 C1660 1.499 . S
C1663 C1664 1.373 . S
C1663 C1665 1.389 . S
C1664 H1637 0.950 . S
C1664 C1650 1.377 . S
C1664 C1663 1.373 . S
C1665 C1649 1.377 . S
C1665 C1663 1.389 . S
C1665 C1666 1.524 . S
C1666 C1665 1.524 . S
C1666 C1667 1.397 . S
C1666 C1671 1.363 . S
C1667 H1638 0.950 . S
C1667 C1666 1.397 . S
C1667 C1668 1.334 . S
C1668 H1639 0.950 . S
C1668 C1667 1.334 . S
C1668 C1669 1.287 . S
C1669 C1668 1.287 . S
C1669 C1670 1.524 . S
C1669 H1672 0.999 . S
C1670 H1640 0.950 . S
C1670 C1669 1.524 . S
C1670 C1671 1.415 . S
C1671 H1641 0.950 . S
C1671 C1666 1.363 . S
C1671 C1670 1.415 . S
H1672 C1669 0.999 . S
H1673 C1654 0.913 . S
H1674 C1692 0.951 . S
H1675 C1694 0.951 . S
H1676 C1696 0.950 . S
H1677 C1697 0.950 . S
H1678 C1699 0.950 . S
H1679 C1702 0.950 . S
H1680 C1703 0.950 . S
H1681 C1705 0.950 . S
H1682 C1706 0.950 . S
H1683 C1707 0.951 . S
H1684 C1709 0.951 . S
H1685 C1711 0.950 . S
H1686 C1712 0.950 . S
H1687 C1714 0.950 . S
H1688 C1717 0.950 . S
H1689 C1718 0.950 . S
H1690 C1720 0.950 . S
H1691 C1721 0.950 . S
C1692 H1674 0.951 . S
C1692 C1693 1.366 . S
C1692 C1694 1.388 . S
C1693 C1692 1.366 . S
C1693 C1697 1.385 . S
C1694 H1675 0.951 . S
C1694 C1692 1.388 . S
C1694 C1695 1.366 . S
C1695 C1694 1.366 . S
C1695 C1696 1.414 . S
C1695 C1698 1.499 . S
C1696 H1676 0.950 . S
C1696 C1695 1.414 . S
C1696 C1697 1.374 . S
C1697 H1677 0.950 . S
C1697 C1693 1.385 . S
C1697 C1696 1.374 . S
C1698 C1695 1.499 . S
C1698 C1699 1.373 . S
C1698 C1700 1.389 . S
C1699 H1678 0.950 . S
C1699 C1698 1.373 . S
C1699 C1715 1.377 . S
C1700 C1698 1.389 . S
C1700 C1701 1.524 . S
C1700 C1714 1.377 . S
C1701 C1700 1.524 . S
C1701 C1702 1.397 . S
C1701 C1706 1.363 . S
C1702 H1679 0.950 . S
C1702 C1701 1.397 . S
C1702 C1703 1.334 . S
C1703 H1680 0.950 . S
C1703 C1702 1.334 . S
C1703 C1704 1.287 . S
C1704 C1703 1.287 . S
C1704 C1705 1.524 . S
C1704 H1723 0.913 . S
C1705 H1681 0.950 . S
C1705 C1704 1.524 . S
C1705 C1706 1.415 . S
C1706 H1682 0.950 . S
C1706 C1701 1.363 . S
C1706 C1705 1.415 . S
C1707 H1683 0.951 . S
C1707 C1708 1.366 . S
C1707 C1709 1.388 . S
C1708 C1707 1.366 . S
C1708 C1712 1.385 . S
C1709 H1684 0.951 . S
C1709 C1707 1.388 . S
C1709 C1710 1.366 . S
C1710 C1709 1.366 . S
C1710 C1711 1.414 . S
C1710 C1713 1.499 . S
C1711 H1685 0.950 . S
C1711 C1710 1.414 . S
C1711 C1712 1.374 . S
C1712 H1686 0.950 . S
C1712 C1708 1.385 . S
C1712 C1711 1.374 . S
C1713 C1710 1.499 . S
C1713 C1714 1.373 . S
C1713 C1715 1.389 . S
C1714 H1687 0.950 . S
C1714 C1700 1.377 . S
C1714 C1713 1.373 . S
C1715 C1699 1.377 . S
C1715 C1713 1.389 . S
C1715 C1716 1.524 . S
C1716 C1715 1.524 . S
C1716 C1717 1.397 . S
C1716 C1721 1.363 . S
C1717 H1688 0.950 . S
C1717 C1716 1.397 . S
C1717 C1718 1.334 . S
C1718 H1689 0.950 . S
C1718 C1717 1.334 . S
C1718 C1719 1.287 . S
C1719 C1718 1.287 . S
C1719 C1720 1.524 . S
C1719 H1722 0.999 . S
C1720 H1690 0.950 . S
C1720 C1719 1.524 . S
C1720 C1721 1.415 . S
C1721 H1691 0.950 . S
C1721 C1716 1.363 . S
C1721 C1720 1.415 . S
H1722 C1719 0.999 . S
H1723 C1704 0.913 . S
H1724 C1742 0.951 . S
H1725 C1744 0.951 . S
H1726 C1746 0.950 . S
H1727 C1747 0.950 . S
H1728 C1749 0.950 . S
H1729 C1752 0.950 . S
H1730 C1753 0.950 . S
H1731 C1755 0.950 . S
H1732 C1756 0.950 . S
H1733 C1757 0.951 . S
H1734 C1759 0.951 . S
H1735 C1761 0.950 . S
H1736 C1762 0.950 . S
H1737 C1764 0.950 . S
H1738 C1767 0.950 . S
H1739 C1768 0.950 . S
H1740 C1770 0.950 . S
H1741 C1771 0.950 . S
C1742 H1724 0.951 . S
C1742 C1743 1.366 . S
C1742 C1744 1.388 . S
C1743 C1742 1.366 . S
C1743 C1747 1.385 . S
C1744 H1725 0.951 . S
C1744 C1742 1.388 . S
C1744 C1745 1.366 . S
C1745 C1744 1.366 . S
C1745 C1746 1.414 . S
C1745 C1748 1.499 . S
C1746 H1726 0.950 . S
C1746 C1745 1.414 . S
C1746 C1747 1.374 . S
C1747 H1727 0.950 . S
C1747 C1743 1.385 . S
C1747 C1746 1.374 . S
C1748 C1745 1.499 . S
C1748 C1749 1.373 . S
C1748 C1750 1.389 . S
C1749 H1728 0.950 . S
C1749 C1748 1.373 . S
C1749 C1765 1.377 . S
C1750 C1748 1.389 . S
C1750 C1751 1.524 . S
C1750 C1764 1.377 . S
C1751 C1750 1.524 . S
C1751 C1752 1.397 . S
C1751 C1756 1.363 . S
C1752 H1729 0.950 . S
C1752 C1751 1.397 . S
C1752 C1753 1.334 . S
C1753 H1730 0.950 . S
C1753 C1752 1.334 . S
C1753 C1754 1.287 . S
C1754 C1753 1.287 . S
C1754 C1755 1.524 . S
C1754 H1773 0.913 . S
C1755 H1731 0.950 . S
C1755 C1754 1.524 . S
C1755 C1756 1.415 . S
C1756 H1732 0.950 . S
C1756 C1751 1.363 . S
C1756 C1755 1.415 . S
C1757 H1733 0.951 . S
C1757 C1758 1.366 . S
C1757 C1759 1.388 . S
C1758 C1757 1.366 . S
C1758 C1762 1.385 . S
C1759 H1734 0.951 . S
C1759 C1757 1.388 . S
C1759 C1760 1.366 . S
C1760 C1759 1.366 . S
C1760 C1761 1.414 . S
C1760 C1763 1.499 . S
C1761 H1735 0.950 . S
C1761 C1760 1.414 . S
C1761 C1762 1.374 . S
C1762 H1736 0.950 . S
C1762 C1758 1.385 . S
C1762 C1761 1.374 . S
C1763 C1760 1.499 . S
C1763 C1764 1.373 . S
C1763 C1765 1.389 . S
C1764 H1737 0.950 . S
C1764 C1750 1.377 . S
C1764 C1763 1.373 . S
C1765 C1749 1.377 . S
C1765 C1763 1.389 . S
C1765 C1766 1.524 . S
C1766 C1765 1.524 . S
C1766 C1767 1.397 . S
C1766 C1771 1.363 . S
C1767 H1738 0.950 . S
C1767 C1766 1.397 . S
C1767 C1768 1.334 . S
C1768 H1739 0.950 . S
C1768 C1767 1.334 . S
C1768 C1769 1.287 . S
C1769 C1768 1.287 . S
C1769 C1770 1.524 . S
C1769 H1772 0.999 . S
C1770 H1740 0.950 . S
C1770 C1769 1.524 . S
C1770 C1771 1.415 . S
C1771 H1741 0.950 . S
C1771 C1766 1.363 . S
C1771 C1770 1.415 . S
H1772 C1769 0.999 . S
H1773 C1754 0.913 . S
H1774 C1792 0.951 . S
H1775 C1794 0.951 . S
H1776 C1796 0.950 . S
H1777 C1797 0.950 . S
H1778 C1799 0.950 . S
H1779 C1802 0.950 . S
H1780 C1803 0.950 . S
H1781 C1805 0.950 . S
H1782 C1806 0.950 . S
H1783 C1807 0.951 . S
H1784 C1809 0.951 . S
H1785 C1811 0.950 . S
H1786 C1812 0.950 . S
H1787 C1814 0.950 . S
H1788 C1817 0.950 . S
H1789 C1818 0.950 . S
H1790 C1820 0.950 . S
H1791 C1821 0.950 . S
C1792 H1774 0.951 . S
C1792 C1793 1.366 . S
C1792 C1794 1.388 . S
C1793 C1792 1.366 . S
C1793 C1797 1.385 . S
C1794 H1775 0.951 . S
C1794 C1792 1.388 . S
C1794 C1795 1.366 . S
C1795 C1794 1.366 . S
C1795 C1796 1.414 . S
C1795 C1798 1.499 . S
C1796 H1776 0.950 . S
C1796 C1795 1.414 . S
C1796 C1797 1.374 . S
C1797 H1777 0.950 . S
C1797 C1793 1.385 . S
C1797 C1796 1.374 . S
C1798 C1795 1.499 . S
C1798 C1799 1.373 . S
C1798 C1800 1.389 . S
C1799 H1778 0.950 . S
C1799 C1798 1.373 . S
C1799 C1815 1.377 . S
C1800 C1798 1.389 . S
C1800 C1801 1.524 . S
C1800 C1814 1.377 . S
C1801 C1800 1.524 . S
C1801 C1802 1.397 . S
C1801 C1806 1.363 . S
C1802 H1779 0.950 . S
C1802 C1801 1.397 . S
C1802 C1803 1.334 . S
C1803 H1780 0.950 . S
C1803 C1802 1.334 . S
C1803 C1804 1.287 . S
C1804 C1803 1.287 . S
C1804 C1805 1.524 . S
C1804 H1823 0.913 . S
C1805 H1781 0.950 . S
C1805 C1804 1.524 . S
C1805 C1806 1.415 . S
C1806 H1782 0.950 . S
C1806 C1801 1.363 . S
C1806 C1805 1.415 . S
C1807 H1783 0.951 . S
C1807 C1808 1.366 . S
C1807 C1809 1.388 . S
C1808 C1807 1.366 . S
C1808 C1812 1.385 . S
C1809 H1784 0.951 . S
C1809 C1807 1.388 . S
C1809 C1810 1.366 . S
C1810 C1809 1.366 . S
C1810 C1811 1.414 . S
C1810 C1813 1.499 . S
C1811 H1785 0.950 . S
C1811 C1810 1.414 . S
C1811 C1812 1.374 . S
C1812 H1786 0.950 . S
C1812 C1808 1.385 . S
C1812 C1811 1.374 . S
C1813 C1810 1.499 . S
C1813 C1814 1.373 . S
C1813 C1815 1.389 . S
C1814 H1787 0.950 . S
C1814 C1800 1.377 . S
C1814 C1813 1.373 . S
C1815 C1799 1.377 . S
C1815 C1813 1.389 . S
C1815 C1816 1.524 . S
C1816 C1815 1.524 . S
C1816 C1817 1.397 . S
C1816 C1821 1.363 . S
C1817 H1788 0.950 . S
C1817 C1816 1.397 . S
C1817 C1818 1.334 . S
C1818 H1789 0.950 . S
C1818 C1817 1.334 . S
C1818 C1819 1.287 . S
C1819 C1818 1.287 . S
C1819 C1820 1.524 . S
C1819 H1822 0.999 . S
C1820 H1790 0.950 . S
C1820 C1819 1.524 . S
C1820 C1821 1.415 . S
C1821 H1791 0.950 . S
C1821 C1816 1.363 . S
C1821 C1820 1.415 . S
H1822 C1819 0.999 . S
H1823 C1804 0.913 . S
C243 C9 1.102 . S
C258 C79 1.101 . S
C293 C65 1.102 . S
C308 C23 1.101 . S
C343 C37 1.102 . S
C358 C107 1.102 . S
C393 C93 1.101 . S
C408 C51 1.102 . S
C443 C191 1.102 . S
C458 C121 1.102 . S
C493 C177 1.102 . S
C508 C135 1.101 . S
C543 C219 1.102 . S
C558 C149 1.101 . S
C593 C163 1.102 . S
C608 C205 1.101 . S
C643 C19 1.505 . S
C658 C5 1.505 . S
C693 C33 1.505 . S
C708 C47 1.505 . S
C743 C61 1.505 . S
C758 C75 1.505 . S
C793 C89 1.505 . S
C808 C103 1.505 . S
C843 C117 1.505 . S
C858 C131 1.505 . S
C893 C159 1.505 . S
C908 C145 1.505 . S
C943 C187 1.505 . S
C958 C173 1.505 . S
C993 C201 1.505 . S
C1008 C215 1.505 . S
C1043 C137 1.522 . S
C1058 C11 1.523 . S
C1093 C25 1.522 . S
C1108 C123 1.522 . S
C1143 C165 1.522 . S
C1158 C39 1.522 . S
C1193 C53 1.522 . S
C1208 C151 1.522 . S
C1243 C67 1.522 . S
C1258 C193 1.522 . S
C1293 C179 1.522 . S
C1308 C81 1.522 . S
C1343 C95 1.523 . S
C1358 C221 1.522 . S
C1393 C207 1.522 . S
C1408 C109 1.523 . S
C1443 C0 1.128 . S
C1458 C28 1.127 . S
C1493 C42 1.128 . S
C1508 C14 1.127 . S
C1543 C84 1.127 . S
C1558 C56 1.128 . S
C1593 C98 1.127 . S
C1608 C70 1.128 . S
C1643 C140 1.128 . S
C1658 C112 1.127 . S
C1693 C126 1.127 . S
C1708 C154 1.127 . S
C1743 C196 1.128 . S
C1758 C168 1.127 . S
C1793 C182 1.128 . S
C1808 C210 1.127 . S
