# Generated by pormake.
# Topology wix, (3)-cn, num edge types: 1
# Building blocks:
#     Node 0, Type 0, BuildingBlock: WUSLED_clean_sbu_0, # of connection points: 3
#     Node 1, Type 0, BuildingBlock: WUSLED_clean_sbu_0, # of connection points: 3
#     Node 2, Type 0, BuildingBlock: WUSLED_clean_sbu_0, # of connection points: 3
#     Node 3, Type 0, BuildingBlock: WUSLED_clean_sbu_0, # of connection points: 3
#     Node 4, Type 0, BuildingBlock: WUSLED_clean_sbu_0, # of connection points: 3
#     Node 5, Type 0, BuildingBlock: WUSLED_clean_sbu_0, # of connection points: 3
#     Node 6, Type 0, BuildingBlock: WUSLED_clean_sbu_0, # of connection points: 3
#     Node 7, Type 0, BuildingBlock: WUSLED_clean_sbu_0, # of connection points: 3
#     Node 8, Type 0, BuildingBlock: WUSLED_clean_sbu_0, # of connection points: 3
#     Node 9, Type 0, BuildingBlock: WUSLED_clean_sbu_0, # of connection points: 3
#     Node 10, Type 0, BuildingBlock: WUSLED_clean_sbu_0, # of connection points: 3
#     Node 11, Type 0, BuildingBlock: WUSLED_clean_sbu_0, # of connection points: 3
#     Edge 12, Type (0, 0), BuildingBlock: ZUJKAS_clean_linker_0, # of connection points: 2
#     Edge 13, Type (0, 0), BuildingBlock: ZUJKAS_clean_linker_0, # of connection points: 2
#     Edge 14, Type (0, 0), BuildingBlock: ZUJKAS_clean_linker_0, # of connection points: 2
#     Edge 15, Type (0, 0), BuildingBlock: ZUJKAS_clean_linker_0, # of connection points: 2
#     Edge 16, Type (0, 0), BuildingBlock: ZUJKAS_clean_linker_0, # of connection points: 2
#     Edge 17, Type (0, 0), BuildingBlock: ZUJKAS_clean_linker_0, # of connection points: 2
#     Edge 18, Type (0, 0), BuildingBlock: ZUJKAS_clean_linker_0, # of connection points: 2
#     Edge 19, Type (0, 0), BuildingBlock: ZUJKAS_clean_linker_0, # of connection points: 2
#     Edge 20, Type (0, 0), BuildingBlock: ZUJKAS_clean_linker_0, # of connection points: 2
#     Edge 21, Type (0, 0), BuildingBlock: ZUJKAS_clean_linker_0, # of connection points: 2
#     Edge 22, Type (0, 0), BuildingBlock: ZUJKAS_clean_linker_0, # of connection points: 2
#     Edge 23, Type (0, 0), BuildingBlock: ZUJKAS_clean_linker_0, # of connection points: 2
#     Edge 24, Type (0, 0), BuildingBlock: ZUJKAS_clean_linker_0, # of connection points: 2
#     Edge 25, Type (0, 0), BuildingBlock: ZUJKAS_clean_linker_0, # of connection points: 2
#     Edge 26, Type (0, 0), BuildingBlock: ZUJKAS_clean_linker_0, # of connection points: 2
#     Edge 27, Type (0, 0), BuildingBlock: ZUJKAS_clean_linker_0, # of connection points: 2
#     Edge 28, Type (0, 0), BuildingBlock: ZUJKAS_clean_linker_0, # of connection points: 2
#     Edge 29, Type (0, 0), BuildingBlock: ZUJKAS_clean_linker_0, # of connection points: 2
# Relax obj value: 0.022
# Max RMSD: 0.029
# Mean RMSD: 0.029
data_MOF--net-wix--node1-WUSLED_clean_sbu_0--edge1-ZUJKAS_clean_linker_0
_symmetry_space_group_name_H-M    P1
_symmetry_Int_Tables_number       1
_symmetry_cell_setting            triclinic
loop_
_symmetry_equiv_pos_as_xyz
'x, y, z'
_cell_length_a     80.889564
_cell_length_b     80.879167
_cell_length_c     69.986506
_cell_angle_alpha  89.988811
_cell_angle_beta   90.000847
_cell_angle_gamma 120.01404
loop_
_atom_site_label
_atom_site_type_symbol
_atom_site_fract_x
_atom_site_fract_y
_atom_site_fract_z
_atom_type_partial_charge
C0 C 0.39149 0.59947 0.06226 0.0
C1 C 0.40193 0.59298 0.05179 0.0
C2 C 0.39261 0.60165 0.022 0.0
C3 C 0.40245 0.59402 0.03185 0.0
C4 C 0.38231 0.6083 0.03261 0.0
C5 C 0.38174 0.60718 0.05258 0.0
U6 U 0.40836 0.58817 0.10818 0.0
O7 O 0.41512 0.60215 0.13635 0.0
O8 O 0.39267 0.57212 0.13366 0.0
C9 C 0.40156 0.58698 0.145 0.0
C10 C 0.39069 0.59808 0.08322 0.0
C11 C 0.38932 0.59029 0.15809 0.0
C12 C 0.36399 0.59746 0.16421 0.0
C13 C 0.37592 0.59508 0.15134 0.0
C14 C 0.37895 0.59047 0.19058 0.0
C15 C 0.36525 0.595 0.18398 0.0
C16 C 0.39084 0.58814 0.17775 0.0
C17 C 0.44514 0.57212 0.10542 0.0
C18 C 0.45593 0.56338 0.13406 0.0
C19 C 0.46744 0.56041 0.103 0.0
C20 C 0.45649 0.56728 0.09431 0.0
C21 C 0.46721 0.55827 0.12297 0.0
C22 C 0.44497 0.57022 0.12535 0.0
C23 C 0.43319 0.57867 0.09608 0.0
O24 O 0.3834 0.58066 0.09002 0.0
O25 O 0.40634 0.61051 0.09212 0.0
O26 O 0.4377 0.59637 0.09982 0.0
O27 O 0.41474 0.56662 0.09686 0.0
H28 H 0.40964 0.58707 0.05907 0.0
H29 H 0.41073 0.58903 0.02414 0.0
H30 H 0.37443 0.61407 0.02546 0.0
H31 H 0.37361 0.61224 0.06046 0.0
H32 H 0.3535 0.6008 0.15865 0.0
H33 H 0.37456 0.59677 0.13616 0.0
H34 H 0.38054 0.5888 0.2057 0.0
H35 H 0.40116 0.5845 0.18319 0.0
H36 H 0.45525 0.56169 0.14945 0.0
H37 H 0.47615 0.55685 0.09407 0.0
H38 H 0.45679 0.5687 0.0789 0.0
H39 H 0.43619 0.57384 0.13413 0.0
C40 C 0.79218 0.39165 0.2304 0.0
C41 C 0.80917 0.40118 0.21986 0.0
C42 C 0.7911 0.39232 0.1901 0.0
C43 C 0.80865 0.40148 0.19991 0.0
C44 C 0.7741 0.38286 0.2008 0.0
C45 C 0.77465 0.38253 0.22078 0.0
U46 U 0.82045 0.40854 0.27627 0.0
O47 O 0.81365 0.41632 0.30412 0.0
O48 O 0.82002 0.39298 0.30219 0.0
C49 C 0.81449 0.4025 0.31315 0.0
C50 C 0.79274 0.39121 0.25138 0.0
C51 C 0.79852 0.39084 0.32607 0.0
C52 C 0.76514 0.3676 0.3318 0.0
C53 C 0.77996 0.37898 0.31915 0.0
C54 C 0.78733 0.38 0.35832 0.0
C55 C 0.76867 0.36793 0.35155 0.0
C56 C 0.80208 0.39133 0.3457 0.0
C57 C 0.87377 0.44383 0.27316 0.0
C58 C 0.89322 0.45669 0.30166 0.0
C59 C 0.90821 0.46328 0.27047 0.0
C60 C 0.89029 0.45259 0.26191 0.0
C61 C 0.9099 0.46539 0.29045 0.0
C62 C 0.8753 0.44595 0.29308 0.0
C63 C 0.85511 0.43215 0.264 0.0
O64 O 0.80234 0.38347 0.2585 0.0
O65 O 0.79656 0.40721 0.25992 0.0
O66 O 0.8424 0.43738 0.26738 0.0
O67 O 0.84808 0.41361 0.26528 0.0
H68 H 0.82285 0.4083 0.22709 0.0
H69 H 0.82202 0.40867 0.19216 0.0
H70 H 0.76034 0.37588 0.19375 0.0
H71 H 0.7614 0.37518 0.22872 0.0
H72 H 0.75092 0.35862 0.32612 0.0
H73 H 0.77699 0.37845 0.30399 0.0
H74 H 0.79066 0.38038 0.37336 0.0
H75 H 0.81635 0.40035 0.35125 0.0
H76 H 0.89404 0.45786 0.31709 0.0
H77 H 0.92075 0.46999 0.26142 0.0
H78 H 0.88934 0.45108 0.2465 0.0
H79 H 0.86265 0.43915 0.30199 0.0
C80 C 0.40046 0.79118 0.39616 0.0
C81 C 0.40779 0.8083 0.38585 0.0
C82 C 0.39907 0.79063 0.35587 0.0
C83 C 0.40714 0.80804 0.36588 0.0
C84 C 0.39165 0.7735 0.36632 0.0
C85 C 0.39237 0.77379 0.3863 0.0
U86 U 0.41125 0.81865 0.44256 0.0
O87 O 0.3961 0.81122 0.47018 0.0
O88 O 0.42588 0.81771 0.4686 0.0
C89 C 0.41062 0.81189 0.47933 0.0
C90 C 0.40119 0.79142 0.41715 0.0
C91 C 0.40619 0.7958 0.49217 0.0
C92 C 0.40412 0.76531 0.49881 0.0
C93 C 0.40684 0.77966 0.48585 0.0
C94 C 0.39948 0.78282 0.52434 0.0
C95 C 0.40071 0.76688 0.51829 0.0
C96 C 0.40222 0.79713 0.5114 0.0
C97 C 0.42989 0.87236 0.44048 0.0
C98 C 0.42754 0.89256 0.46484 0.0
C99 C 0.454 0.90596 0.44256 0.0
C100 C 0.44671 0.88815 0.43376 0.0
C101 C 0.44452 0.90842 0.45822 0.0
C102 C 0.42035 0.87469 0.45612 0.0
C103 C 0.42281 0.85366 0.43113 0.0
O104 O 0.41843 0.80086 0.42454 0.0
O105 O 0.38892 0.79515 0.42564 0.0
O106 O 0.40472 0.84089 0.43385 0.0
O107 O 0.43419 0.84647 0.43228 0.0
H108 H 0.414 0.82187 0.39327 0.0
H109 H 0.41273 0.82146 0.3583 0.0
H110 H 0.38553 0.75988 0.35904 0.0
H111 H 0.38666 0.76044 0.39406 0.0
H112 H 0.4053 0.75331 0.4937 0.0
H113 H 0.40988 0.77839 0.47102 0.0
H114 H 0.39653 0.78432 0.53913 0.0
H115 H 0.40159 0.80945 0.51651 0.0
H116 H 0.41971 0.89394 0.47668 0.0
H117 H 0.46727 0.91772 0.43727 0.0
H118 H 0.45435 0.88665 0.42178 0.0
H119 H 0.40735 0.86274 0.46166 0.0
C120 C 0.60976 0.40005 0.56297 0.0
C121 C 0.59847 0.4056 0.55263 0.0
C122 C 0.60815 0.3975 0.52271 0.0
C123 C 0.59769 0.40437 0.5327 0.0
C124 C 0.61932 0.39181 0.53321 0.0
C125 C 0.62011 0.39309 0.55317 0.0
U126 U 0.5934 0.41162 0.60908 0.0
O127 O 0.58773 0.39837 0.63755 0.0
O128 O 0.60958 0.42854 0.63401 0.0
C129 C 0.6013 0.4139 0.6457 0.0
C130 C 0.61095 0.40179 0.58389 0.0
C131 C 0.61414 0.4114 0.65873 0.0
C132 C 0.63445 0.39815 0.6667 0.0
C133 C 0.6223 0.40019 0.65383 0.0
C134 C 0.63046 0.41859 0.68929 0.0
C135 C 0.63872 0.40742 0.68455 0.0
C136 C 0.6183 0.42054 0.67651 0.0
C137 C 0.55596 0.42676 0.60711 0.0
C138 C 0.54568 0.43549 0.63611 0.0
C139 C 0.53397 0.4389 0.60533 0.0
C140 C 0.54465 0.43189 0.59631 0.0
C141 C 0.53447 0.44092 0.62533 0.0
C142 C 0.55635 0.42849 0.62707 0.0
C143 C 0.56778 0.42024 0.59745 0.0
O144 O 0.61804 0.4193 0.59039 0.0
O145 O 0.5956 0.38931 0.59318 0.0
O146 O 0.5637 0.40272 0.60148 0.0
O147 O 0.58619 0.43253 0.59759 0.0
H148 H 0.5904 0.41106 0.56 0.0
H149 H 0.58915 0.40912 0.5251 0.0
H150 H 0.62734 0.38622 0.52602 0.0
H151 H 0.62885 0.38869 0.56095 0.0
H152 H 0.64071 0.38958 0.66257 0.0
H153 H 0.6193 0.39309 0.6401 0.0
H154 H 0.63321 0.42568 0.70302 0.0
H155 H 0.61209 0.4292 0.68054 0.0
H156 H 0.54618 0.43662 0.65154 0.0
H157 H 0.52571 0.44318 0.59658 0.0
H158 H 0.54428 0.43072 0.58087 0.0
H159 H 0.56503 0.42457 0.63562 0.0
C160 C 0.20996 0.6084 0.73003 0.0
C161 C 0.19285 0.59856 0.71972 0.0
C162 C 0.21053 0.6074 0.68974 0.0
C163 C 0.19312 0.5981 0.69976 0.0
C164 C 0.22766 0.61709 0.70019 0.0
C165 C 0.22736 0.6176 0.72017 0.0
U166 U 0.18239 0.5918 0.77633 0.0
O167 O 0.18979 0.58482 0.80427 0.0
O168 O 0.18273 0.60767 0.80199 0.0
C169 C 0.18861 0.59854 0.8131 0.0
C170 C 0.20967 0.60916 0.75101 0.0
C171 C 0.20441 0.61056 0.82606 0.0
C172 C 0.23806 0.63227 0.83241 0.0
C173 C 0.22338 0.62078 0.81967 0.0
C174 C 0.21488 0.62339 0.85791 0.0
C175 C 0.23397 0.6337 0.85171 0.0
C176 C 0.20028 0.61193 0.84521 0.0
C177 C 0.12936 0.55569 0.77443 0.0
C178 C 0.11067 0.54426 0.80356 0.0
C179 C 0.09502 0.5348 0.77273 0.0
C180 C 0.11266 0.54551 0.76364 0.0
C181 C 0.09379 0.53412 0.79281 0.0
C182 C 0.1283 0.55497 0.79444 0.0
C183 C 0.14771 0.56739 0.76473 0.0
O184 O 0.19987 0.61669 0.75809 0.0
O185 O 0.2063 0.5934 0.75979 0.0
O186 O 0.16076 0.56261 0.76807 0.0
O187 O 0.15442 0.5859 0.76557 0.0
H188 H 0.17928 0.59128 0.72713 0.0
H189 H 0.1797 0.5903 0.69217 0.0
H190 H 0.24128 0.62455 0.69291 0.0
H191 H 0.2407 0.62526 0.72793 0.0
H192 H 0.25261 0.63989 0.82719 0.0
H193 H 0.2268 0.61988 0.80487 0.0
H194 H 0.21112 0.62442 0.87254 0.0
H195 H 0.18569 0.60422 0.85034 0.0
H196 H 0.11028 0.54385 0.81903 0.0
H197 H 0.08229 0.52741 0.76403 0.0
H198 H 0.11324 0.54601 0.74817 0.0
H199 H 0.1411 0.56278 0.80298 0.0
C200 C 0.60327 0.2109 0.8967 0.0
C201 C 0.59537 0.19379 0.88631 0.0
C202 C 0.60495 0.21162 0.85642 0.0
C203 C 0.59615 0.19414 0.86635 0.0
C204 C 0.61303 0.22873 0.86695 0.0
C205 C 0.61216 0.22836 0.88694 0.0
U206 U 0.59177 0.18322 0.94303 0.0
O207 O 0.60615 0.19057 0.97101 0.0
O208 O 0.57637 0.18386 0.96862 0.0
C209 C 0.59135 0.18969 0.97975 0.0
C210 C 0.60217 0.21056 0.91768 0.0
C211 C 0.59539 0.2058 0.99237 0.0
C212 C 0.60325 0.23867 0.99737 0.0
C213 C 0.60028 0.22381 0.985 0.0
C214 C 0.59673 0.21766 0.0245 0.0
C215 C 0.60139 0.23573 0.01729 0.0
C216 C 0.59376 0.20287 0.01215 0.0
C217 C 0.57396 0.12998 0.94116 0.0
C218 C 0.56507 0.11099 0.97019 0.0
C219 C 0.56085 0.09569 0.93938 0.0
C220 C 0.56823 0.11342 0.93035 0.0
C221 C 0.55906 0.09424 0.9594 0.0
C222 C 0.57244 0.12871 0.96114 0.0
C223 C 0.58098 0.1484 0.93149 0.0
O224 O 0.58481 0.20098 0.92473 0.0
O225 O 0.61436 0.20691 0.92647 0.0
O226 O 0.59888 0.16122 0.93493 0.0
O227 O 0.56943 0.15541 0.93223 0.0
H228 H 0.58855 0.18016 0.89365 0.0
H229 H 0.59004 0.18072 0.85869 0.0
H230 H 0.61975 0.24241 0.85974 0.0
H231 H 0.61833 0.2417 0.89476 0.0
H232 H 0.60701 0.25245 0.99135 0.0
H233 H 0.60161 0.2263 0.96972 0.0
H234 H 0.59487 0.21478 0.0397 0.0
H235 H 0.58991 0.18901 0.01805 0.0
H236 H 0.56412 0.11041 0.98563 0.0
H237 H 0.55613 0.08307 0.93063 0.0
H238 H 0.56924 0.11417 0.91491 0.0
H239 H 0.57684 0.1414 0.9697 0.0
C240 C 0.39981 0.60846 0.77576 0.0
C241 C 0.40742 0.59906 0.78628 0.0
C242 C 0.39755 0.60724 0.81604 0.0
C243 C 0.40635 0.59849 0.80623 0.0
C244 C 0.38988 0.61658 0.80537 0.0
C245 C 0.39101 0.61718 0.7854 0.0
U246 U 0.41143 0.59202 0.72971 0.0
O247 O 0.39698 0.58463 0.70176 0.0
O248 O 0.42674 0.6078 0.70397 0.0
C249 C 0.41172 0.59852 0.69291 0.0
C250 C 0.40099 0.60913 0.75479 0.0
C251 C 0.40758 0.61045 0.6802 0.0
C252 C 0.4008 0.63618 0.675 0.0
C253 C 0.40378 0.62438 0.68748 0.0
C254 C 0.40505 0.61998 0.64794 0.0
C255 C 0.40154 0.63421 0.65506 0.0
C256 C 0.40804 0.60824 0.66041 0.0
C257 C 0.42926 0.55652 0.73252 0.0
C258 C 0.43581 0.54366 0.704 0.0
C259 C 0.44428 0.5371 0.73517 0.0
C260 C 0.43705 0.54778 0.74375 0.0
C261 C 0.44382 0.53498 0.71519 0.0
C262 C 0.42863 0.5544 0.7126 0.0
C263 C 0.42227 0.56817 0.74173 0.0
O264 O 0.41837 0.61688 0.74779 0.0
O265 O 0.38882 0.59325 0.74606 0.0
O266 O 0.40437 0.56303 0.73825 0.0
O267 O 0.43384 0.58671 0.74065 0.0
H268 H 0.41427 0.59224 0.77905 0.0
H269 H 0.41264 0.5914 0.81397 0.0
H270 H 0.38278 0.62324 0.81242 0.0
H271 H 0.38497 0.62442 0.77748 0.0
H272 H 0.39792 0.64685 0.68095 0.0
H273 H 0.40333 0.62624 0.70276 0.0
H274 H 0.40601 0.61824 0.63271 0.0
H275 H 0.41103 0.5976 0.65457 0.0
H276 H 0.43544 0.54249 0.68857 0.0
H277 H 0.45014 0.53041 0.7442 0.0
H278 H 0.43764 0.54929 0.75915 0.0
H279 H 0.42276 0.56118 0.70371 0.0
C280 C 0.79214 0.39988 0.94392 0.0
C281 C 0.80912 0.40647 0.95433 0.0
C282 C 0.7912 0.39755 0.98417 0.0
C283 C 0.80866 0.40535 0.97427 0.0
C284 C 0.7742 0.39073 0.97362 0.0
C285 C 0.77469 0.39193 0.95365 0.0
U286 U 0.82008 0.41182 0.89777 0.0
O287 O 0.81263 0.39864 0.86926 0.0
O288 O 0.82053 0.42869 0.8729 0.0
C289 C 0.81415 0.41405 0.86122 0.0
C290 C 0.79267 0.40159 0.92299 0.0
C291 C 0.7985 0.41134 0.84846 0.0
C292 C 0.76509 0.39471 0.83897 0.0
C293 C 0.77951 0.39695 0.8516 0.0
C294 C 0.78845 0.42133 0.82015 0.0
C295 C 0.76942 0.40693 0.82313 0.0
C296 C 0.80283 0.42347 0.83267 0.0
C297 C 0.87296 0.42772 0.90007 0.0
C298 C 0.89218 0.43499 0.87131 0.0
C299 C 0.90735 0.44189 0.90243 0.0
C300 C 0.88952 0.43468 0.91118 0.0
C301 C 0.9089 0.44222 0.88239 0.0
C302 C 0.87436 0.42785 0.88008 0.0
C303 C 0.85444 0.42093 0.90946 0.0
O304 O 0.80285 0.41912 0.91647 0.0
O305 O 0.79576 0.38927 0.91371 0.0
O306 O 0.8412 0.40335 0.90535 0.0
O307 O 0.8481 0.43304 0.90923 0.0
H308 H 0.82273 0.41257 0.94702 0.0
H309 H 0.82197 0.41048 0.98195 0.0
H310 H 0.76055 0.38482 0.98081 0.0
H311 H 0.76145 0.3868 0.94582 0.0
H312 H 0.75053 0.3836 0.84173 0.0
H313 H 0.77583 0.38748 0.86378 0.0
H314 H 0.7923 0.43081 0.80796 0.0
H315 H 0.8174 0.43462 0.82998 0.0
H316 H 0.89292 0.43525 0.85585 0.0
H317 H 0.91992 0.44714 0.91136 0.0
H318 H 0.88867 0.43469 0.92663 0.0
H319 H 0.86169 0.42263 0.87129 0.0
C320 C 0.39261 0.79144 0.10962 0.0
C321 C 0.40253 0.80845 0.12008 0.0
C322 C 0.39433 0.79043 0.14987 0.0
C323 C 0.40336 0.80795 0.14001 0.0
C324 C 0.38453 0.77341 0.13924 0.0
C325 C 0.38368 0.77393 0.11929 0.0
U326 U 0.40795 0.81958 0.06355 0.0
O327 O 0.41439 0.81269 0.03511 0.0
O328 O 0.39132 0.81931 0.03853 0.0
C329 C 0.40022 0.81358 0.02692 0.0
C330 C 0.39142 0.79197 0.08869 0.0
C331 C 0.38793 0.79779 0.014 0.0
C332 C 0.37178 0.76429 0.00485 0.0
C333 C 0.3832 0.77886 0.01772 0.0
C334 C 0.36949 0.7874 0.98466 0.0
C335 C 0.36484 0.76841 0.9881 0.0
C336 C 0.38093 0.80191 0.99745 0.0
C337 C 0.44359 0.87285 0.06602 0.0
C338 C 0.45562 0.89215 0.03731 0.0
C339 C 0.4627 0.90734 0.06841 0.0
C340 C 0.45241 0.88945 0.07713 0.0
C341 C 0.46434 0.90891 0.04839 0.0
C342 C 0.44528 0.87426 0.04605 0.0
C343 C 0.43224 0.85422 0.07536 0.0
O344 O 0.38355 0.80166 0.08216 0.0
O345 O 0.40705 0.79565 0.07944 0.0
O346 O 0.43721 0.84142 0.07136 0.0
O347 O 0.41369 0.8473 0.07497 0.0
H348 H 0.40951 0.82212 0.11282 0.0
H349 H 0.4108 0.82134 0.14771 0.0
H350 H 0.37765 0.75966 0.14632 0.0
H351 H 0.37603 0.76067 0.11141 0.0
H352 H 0.36861 0.74987 0.00789 0.0
H353 H 0.38841 0.77536 0.03047 0.0
H354 H 0.3641 0.79107 0.97216 0.0
H355 H 0.38434 0.81642 0.99441 0.0
H356 H 0.45644 0.89289 0.02186 0.0
H357 H 0.46943 0.91996 0.07735 0.0
H358 H 0.45123 0.88859 0.09257 0.0
H359 H 0.43842 0.86155 0.03725 0.0
C360 C 0.60209 0.3925 0.27643 0.0
C361 C 0.59357 0.40104 0.28694 0.0
C362 C 0.60337 0.39286 0.31673 0.0
C363 C 0.59415 0.40117 0.30691 0.0
C364 C 0.61202 0.38446 0.30609 0.0
C365 C 0.61135 0.38426 0.2861 0.0
U366 U 0.59173 0.40989 0.23023 0.0
O367 O 0.60693 0.41768 0.20264 0.0
O368 O 0.57702 0.39465 0.20407 0.0
C369 C 0.59234 0.40401 0.1934 0.0
C370 C 0.60142 0.39225 0.25544 0.0
C371 C 0.59663 0.39231 0.18046 0.0
C372 C 0.59768 0.36343 0.17333 0.0
C373 C 0.59497 0.37497 0.18642 0.0
C374 C 0.60433 0.38677 0.14843 0.0
C375 C 0.6021 0.36907 0.1541 0.0
C376 C 0.60158 0.39824 0.16149 0.0
C377 C 0.57406 0.44544 0.23243 0.0
C378 C 0.56812 0.4582 0.20347 0.0
C379 C 0.55908 0.46496 0.23426 0.0
C380 C 0.56609 0.45427 0.24325 0.0
C381 C 0.55993 0.46699 0.21424 0.0
C382 C 0.57509 0.44749 0.21249 0.0
C383 C 0.58072 0.43368 0.242 0.0
O384 O 0.58423 0.38469 0.248 0.0
O385 O 0.61385 0.40828 0.2471 0.0
O386 O 0.5987 0.43878 0.23902 0.0
O387 O 0.56914 0.41517 0.24068 0.0
H388 H 0.58648 0.40761 0.27969 0.0
H389 H 0.58759 0.40799 0.31466 0.0
H390 H 0.61907 0.37779 0.31322 0.0
H391 H 0.61801 0.37763 0.2782 0.0
H392 H 0.59572 0.34984 0.17815 0.0
H393 H 0.59118 0.37017 0.20104 0.0
H394 H 0.60807 0.39171 0.13384 0.0
H395 H 0.60301 0.41162 0.15667 0.0
H396 H 0.56922 0.45966 0.18808 0.0
H397 H 0.55263 0.47128 0.24296 0.0
H398 H 0.56509 0.45272 0.25865 0.0
H399 H 0.58118 0.44071 0.20392 0.0
C400 C 0.21058 0.60098 0.44345 0.0
C401 C 0.19342 0.59379 0.45365 0.0
C402 C 0.2109 0.60239 0.48376 0.0
C403 C 0.19357 0.59446 0.47362 0.0
C404 C 0.22808 0.60968 0.4734 0.0
C405 C 0.2279 0.60896 0.45342 0.0
U406 U 0.18367 0.59075 0.39669 0.0
O407 O 0.19184 0.60575 0.36901 0.0
O408 O 0.18441 0.57571 0.37088 0.0
C409 C 0.19087 0.591 0.36007 0.0
C410 C 0.21047 0.60016 0.42246 0.0
C411 C 0.20718 0.595 0.34773 0.0
C412 C 0.23757 0.59649 0.34227 0.0
C413 C 0.22283 0.59381 0.35466 0.0
C414 C 0.2214 0.60211 0.31608 0.0
C415 C 0.23693 0.60049 0.32279 0.0
C416 C 0.20667 0.59937 0.32844 0.0
C417 C 0.13059 0.57396 0.39779 0.0
C418 C 0.1121 0.56634 0.3685 0.0
C419 C 0.09632 0.56106 0.39917 0.0
C420 C 0.11388 0.56795 0.40842 0.0
C421 C 0.0952 0.56007 0.3791 0.0
C422 C 0.12965 0.57321 0.37778 0.0
C423 C 0.14881 0.58044 0.4077 0.0
O424 O 0.20068 0.58293 0.41515 0.0
O425 O 0.20731 0.61273 0.41378 0.0
O426 O 0.16196 0.59831 0.40463 0.0
O427 O 0.15546 0.56859 0.40684 0.0
H428 H 0.17989 0.58757 0.44615 0.0
H429 H 0.18007 0.58849 0.48111 0.0
H430 H 0.2417 0.61614 0.48072 0.0
H431 H 0.24129 0.61466 0.44575 0.0
H432 H 0.24944 0.59537 0.34793 0.0
H433 H 0.22352 0.59055 0.36956 0.0
H434 H 0.22033 0.60494 0.30114 0.0
H435 H 0.19467 0.6003 0.32285 0.0
H436 H 0.11178 0.56598 0.35303 0.0
H437 H 0.08358 0.55611 0.40778 0.0
H438 H 0.11437 0.56835 0.4239 0.0
H439 H 0.14246 0.57781 0.36935 0.0
C440 C 0.61088 0.21011 0.61018 0.0
C441 C 0.60021 0.19315 0.62054 0.0
C442 C 0.60952 0.21098 0.65045 0.0
C443 C 0.59955 0.19358 0.64049 0.0
C444 C 0.62008 0.22796 0.63992 0.0
C445 C 0.62076 0.2275 0.61995 0.0
U446 U 0.59472 0.1823 0.56393 0.0
O447 O 0.58838 0.18969 0.53567 0.0
O448 O 0.61102 0.18239 0.53871 0.0
C449 C 0.60239 0.1886 0.52732 0.0
C450 C 0.6119 0.20964 0.58923 0.0
C451 C 0.61493 0.20443 0.51449 0.0
C452 C 0.62915 0.23736 0.50368 0.0
C453 C 0.61764 0.2229 0.51661 0.0
C454 C 0.63565 0.21516 0.48665 0.0
C455 C 0.63821 0.23362 0.48846 0.0
C456 C 0.6241 0.20074 0.49949 0.0
C457 C 0.55812 0.12913 0.56613 0.0
C458 C 0.54048 0.11008 0.53866 0.0
C459 C 0.54319 0.09459 0.56715 0.0
C460 C 0.55395 0.11238 0.57592 0.0
C461 C 0.53631 0.09319 0.54839 0.0
C462 C 0.55136 0.1279 0.54742 0.0
C463 C 0.56996 0.14772 0.57549 0.0
O464 O 0.61934 0.19963 0.58251 0.0
O465 O 0.59633 0.20639 0.58014 0.0
O466 O 0.56537 0.16089 0.57192 0.0
O467 O 0.58844 0.15425 0.57494 0.0
H468 H 0.59251 0.17957 0.6132 0.0
H469 H 0.59148 0.18022 0.64812 0.0
H470 H 0.62771 0.24163 0.64709 0.0
H471 H 0.62901 0.24073 0.61214 0.0
H472 H 0.63067 0.25136 0.50542 0.0
H473 H 0.61074 0.22612 0.52812 0.0
H474 H 0.64269 0.21183 0.47538 0.0
H475 H 0.62227 0.18661 0.49765 0.0
H476 H 0.53524 0.10957 0.52431 0.0
H477 H 0.5406 0.08195 0.57496 0.0
H478 H 0.55919 0.11308 0.59032 0.0
H479 H 0.55453 0.14069 0.53955 0.0
H480 H 0.34714 0.57225 0.21475 0.0
H481 H 0.32647 0.5756 0.23797 0.0
H482 H 0.33305 0.62501 0.20777 0.0
H483 H 0.3539 0.62182 0.18444 0.0
H484 H 0.33538 0.60699 0.26174 0.0
H485 H 0.27487 0.59127 0.21314 0.0
H486 H 0.2933 0.58585 0.20692 0.0
H487 H 0.29788 0.60995 0.20537 0.0
C488 C 0.34428 0.5839 0.21306 0.0
C489 C 0.35222 0.5968 0.19774 0.0
C490 C 0.3324 0.58574 0.22632 0.0
C491 C 0.32807 0.60043 0.2245 0.0
C492 C 0.33591 0.61335 0.20923 0.0
H493 H 0.25397 0.6264 0.29377 0.0
H494 H 0.27719 0.62784 0.27039 0.0
C495 C 0.34782 0.6115 0.19592 0.0
C496 C 0.31568 0.60235 0.23891 0.0
H497 H 0.2726 0.5999 0.24483 0.0
C498 C 0.32167 0.60547 0.25805 0.0
C499 C 0.29785 0.60047 0.23403 0.0
C500 C 0.29045 0.59655 0.21379 0.0
C501 C 0.31027 0.60671 0.27249 0.0
C502 C 0.29225 0.6044 0.26769 0.0
C503 C 0.28643 0.60166 0.24848 0.0
C504 C 0.2789 0.6041 0.28242 0.0
C505 C 0.31775 0.61068 0.29271 0.0
C506 C 0.2721 0.59023 0.29691 0.0
C507 C 0.25883 0.58936 0.31027 0.0
C508 C 0.25194 0.60222 0.3093 0.0
C509 C 0.25887 0.61617 0.29482 0.0
C510 C 0.27218 0.61707 0.28149 0.0
H511 H 0.33357 0.61763 0.29308 0.0
H512 H 0.3134 0.61997 0.30026 0.0
H513 H 0.31183 0.59698 0.30061 0.0
H514 H 0.27671 0.57978 0.29763 0.0
H515 H 0.25353 0.57822 0.321 0.0
H516 H 0.64048 0.23006 0.44975 0.0
H517 H 0.66167 0.2544 0.42706 0.0
H518 H 0.6837 0.29616 0.47231 0.0
H519 H 0.66318 0.27167 0.49533 0.0
H520 H 0.66484 0.2884 0.41618 0.0
H521 H 0.73213 0.30074 0.45016 0.0
H522 H 0.70913 0.28081 0.45646 0.0
H523 H 0.71659 0.30419 0.46588 0.0
C524 C 0.64999 0.24436 0.45497 0.0
C525 C 0.65029 0.2488 0.47446 0.0
C526 C 0.66197 0.25831 0.44192 0.0
C527 C 0.67452 0.27702 0.44803 0.0
C528 C 0.67443 0.28171 0.46734 0.0
H529 H 0.76197 0.37671 0.38752 0.0
H530 H 0.73823 0.35534 0.41068 0.0
C531 C 0.6625 0.26773 0.48045 0.0
C532 C 0.68781 0.29147 0.43417 0.0
H533 H 0.73512 0.32085 0.4243 0.0
C534 C 0.6802 0.29551 0.41796 0.0
C535 C 0.70787 0.3007 0.43648 0.0
C536 C 0.71697 0.2963 0.45308 0.0
C537 C 0.69211 0.30859 0.40405 0.0
C538 C 0.71214 0.31771 0.40634 0.0
C539 C 0.71974 0.31387 0.42264 0.0
C540 C 0.72555 0.33093 0.39177 0.0
C541 C 0.68318 0.31269 0.38711 0.0
C542 C 0.72626 0.32429 0.37343 0.0
C543 C 0.73992 0.33642 0.36019 0.0
C544 C 0.75321 0.35542 0.36508 0.0
C545 C 0.75216 0.3621 0.38336 0.0
C546 C 0.73853 0.34995 0.39659 0.0
H547 H 0.668 0.30833 0.38982 0.0
H548 H 0.69113 0.32812 0.38345 0.0
H549 H 0.68371 0.30458 0.37456 0.0
H550 H 0.71661 0.30956 0.36955 0.0
H551 H 0.7405 0.33071 0.34637 0.0
H552 H 0.38207 0.62535 0.62107 0.0
H553 H 0.38084 0.64738 0.59788 0.0
H554 H 0.41437 0.6946 0.6357 0.0
H555 H 0.4162 0.6728 0.65868 0.0
H556 H 0.36724 0.67321 0.6011 0.0
H557 H 0.44499 0.71066 0.58578 0.0
H558 H 0.43293 0.68818 0.59837 0.0
H559 H 0.43924 0.71009 0.61064 0.0
C560 C 0.38927 0.64044 0.62442 0.0
C561 C 0.3994 0.64732 0.64167 0.0
C562 C 0.38844 0.65298 0.6112 0.0
C563 C 0.3978 0.67266 0.61492 0.0
C564 C 0.40734 0.67951 0.63239 0.0
H565 H 0.4162 0.7733 0.5541 0.0
H566 H 0.41425 0.74984 0.57729 0.0
C567 C 0.40819 0.66699 0.64561 0.0
C568 C 0.39784 0.68604 0.6004 0.0
H569 H 0.42743 0.72413 0.57247 0.0
C570 C 0.38038 0.6843 0.59475 0.0
C571 C 0.415 0.70042 0.59209 0.0
C572 C 0.4341 0.7024 0.59686 0.0
C573 C 0.37966 0.6969 0.58138 0.0
C574 C 0.39685 0.71142 0.57325 0.0
C575 C 0.41428 0.71303 0.57877 0.0
C576 C 0.39721 0.72538 0.55927 0.0
C577 C 0.36059 0.6949 0.57643 0.0
C578 C 0.38835 0.71943 0.54136 0.0
C579 C 0.38933 0.73283 0.52806 0.0
C580 C 0.39925 0.75245 0.53242 0.0
C581 C 0.40815 0.75831 0.55038 0.0
C582 C 0.40717 0.74493 0.56362 0.0
H583 H 0.34945 0.68609 0.5871 0.0
H584 H 0.36166 0.70911 0.5755 0.0
H585 H 0.35589 0.68784 0.5623 0.0
H586 H 0.38087 0.70443 0.53757 0.0
H587 H 0.38226 0.72783 0.51441 0.0
H588 H 0.63992 0.37513 0.69428 0.0
H589 H 0.6603 0.37214 0.71839 0.0
H590 H 0.68729 0.43253 0.72981 0.0
H591 H 0.66708 0.43563 0.70584 0.0
H592 H 0.70005 0.38995 0.72145 0.0
H593 H 0.66961 0.40907 0.78276 0.0
H594 H 0.65823 0.4028 0.75962 0.0
H595 H 0.67779 0.42651 0.76398 0.0
C596 C 0.6503 0.38779 0.70183 0.0
C597 C 0.65172 0.40558 0.69831 0.0
C598 C 0.66187 0.38604 0.71566 0.0
C599 C 0.67499 0.40203 0.7262 0.0
C600 C 0.67688 0.4199 0.72223 0.0
H601 H 0.76427 0.43518 0.80806 0.0
H602 H 0.74032 0.43202 0.78477 0.0
C603 C 0.66533 0.42165 0.7085 0.0
C604 C 0.68691 0.40024 0.74127 0.0
H605 H 0.69915 0.4098 0.78835 0.0
C606 C 0.6997 0.39403 0.73614 0.0
C607 C 0.68633 0.40547 0.76046 0.0
C608 C 0.67211 0.41115 0.76711 0.0
C609 C 0.71256 0.39379 0.7495 0.0
C610 C 0.71244 0.39973 0.76849 0.0
C611 C 0.69926 0.40536 0.77375 0.0
C612 C 0.72661 0.40126 0.78284 0.0
C613 C 0.72669 0.38793 0.74307 0.0
C614 C 0.72663 0.38495 0.78969 0.0
C615 C 0.74032 0.38671 0.80303 0.0
C616 C 0.75425 0.40482 0.80968 0.0
C617 C 0.75392 0.42106 0.80301 0.0
C618 C 0.7402 0.41928 0.78978 0.0
H619 H 0.72707 0.38687 0.72726 0.0
H620 H 0.74125 0.39829 0.74822 0.0
H621 H 0.72265 0.37377 0.74924 0.0
H622 H 0.71608 0.37089 0.78469 0.0
H623 H 0.74026 0.37395 0.80784 0.0
H624 H 0.36574 0.77029 0.94898 0.0
H625 H 0.34437 0.74598 0.92636 0.0
H626 H 0.31579 0.70712 0.97297 0.0
H627 H 0.33652 0.73168 0.99581 0.0
H628 H 0.33751 0.70987 0.91863 0.0
H629 H 0.2717 0.7073 0.94561 0.0
H630 H 0.29528 0.72575 0.95256 0.0
H631 H 0.28467 0.70255 0.96351 0.0
C632 C 0.35478 0.75665 0.95448 0.0
C633 C 0.3527 0.75308 0.97427 0.0
C634 C 0.34268 0.7427 0.94149 0.0
C635 C 0.32824 0.72485 0.94798 0.0
C636 C 0.32656 0.72094 0.96766 0.0
H637 H 0.23792 0.62631 0.88914 0.0
H638 H 0.2616 0.64778 0.91226 0.0
C639 C 0.3386 0.73493 0.98069 0.0
C640 C 0.31482 0.71052 0.93411 0.0
H641 H 0.26767 0.68472 0.92192 0.0
C642 C 0.32224 0.70437 0.91934 0.0
C643 C 0.2949 0.70342 0.93501 0.0
C644 C 0.28614 0.7102 0.9499 0.0
C645 C 0.31024 0.69118 0.90555 0.0
C646 C 0.29036 0.68411 0.90648 0.0
C647 C 0.28293 0.69013 0.92132 0.0
C648 C 0.27694 0.6707 0.89204 0.0
C649 C 0.31887 0.68473 0.89023 0.0
C650 C 0.27775 0.67646 0.87298 0.0
C651 C 0.26411 0.66429 0.85974 0.0
C652 C 0.24935 0.64614 0.86535 0.0
C653 C 0.24889 0.64029 0.88439 0.0
C654 C 0.26248 0.65249 0.89761 0.0
H655 H 0.33352 0.68795 0.89405 0.0
H656 H 0.30987 0.66915 0.88761 0.0
H657 H 0.31973 0.69228 0.8767 0.0
H658 H 0.2886 0.6906 0.86848 0.0
H659 H 0.26476 0.66936 0.84529 0.0
H660 H 0.61913 0.24516 0.05221 0.0
H661 H 0.62036 0.26862 0.0751 0.0
H662 H 0.59058 0.28502 0.03512 0.0
H663 H 0.58869 0.26116 0.01241 0.0
H664 H 0.63585 0.30827 0.07231 0.0
H665 H 0.55737 0.27103 0.08317 0.0
H666 H 0.56914 0.25989 0.0714 0.0
H667 H 0.56468 0.27657 0.05868 0.0
C668 C 0.61274 0.25368 0.04832 0.0
C669 C 0.60362 0.25111 0.03054 0.0
C670 C 0.61358 0.26717 0.06136 0.0
C671 C 0.60526 0.27831 0.05694 0.0
C672 C 0.59677 0.27631 0.03896 0.0
H673 H 0.58842 0.3619 0.11751 0.0
H674 H 0.59046 0.34064 0.09405 0.0
C675 C 0.59591 0.26281 0.0259 0.0
C676 C 0.60516 0.29177 0.07129 0.0
H677 H 0.57544 0.30146 0.09755 0.0
C678 C 0.62266 0.30677 0.07789 0.0
C679 C 0.58792 0.28971 0.0786 0.0
C680 C 0.5687 0.27334 0.07276 0.0
C681 C 0.62338 0.32005 0.0913 0.0
C682 C 0.60612 0.31806 0.0985 0.0
C683 C 0.58864 0.30299 0.09196 0.0
C684 C 0.60578 0.33155 0.11264 0.0
C685 C 0.64256 0.33635 0.09732 0.0
C686 C 0.61365 0.33344 0.13094 0.0
C687 C 0.61263 0.34572 0.14438 0.0
C688 C 0.60365 0.35628 0.13979 0.0
C689 C 0.59575 0.35427 0.12143 0.0
C690 C 0.59678 0.34202 0.10803 0.0
H691 H 0.65402 0.33852 0.08715 0.0
H692 H 0.64218 0.34985 0.09846 0.0
H693 H 0.6463 0.33314 0.11156 0.0
H694 H 0.62035 0.32523 0.13491 0.0
H695 H 0.61893 0.34699 0.15835 0.0
H696 H 0.48824 0.57016 0.15599 0.0
H697 H 0.5059 0.55649 0.17136 0.0
H698 H 0.48885 0.51477 0.12627 0.0
H699 H 0.47114 0.52827 0.11087 0.0
H700 H 0.49188 0.51965 0.18472 0.0
H701 H 0.54638 0.53629 0.1286 0.0
H702 H 0.53171 0.5473 0.12928 0.0
H703 H 0.52234 0.52361 0.11977 0.0
C704 C 0.48824 0.55806 0.14935 0.0
C705 C 0.47835 0.55036 0.13215 0.0
C706 C 0.49841 0.55034 0.15811 0.0
C707 C 0.49896 0.53483 0.14979 0.0
C708 C 0.48903 0.52705 0.13268 0.0
H709 H 0.53922 0.45798 0.18107 0.0
H710 H 0.5253 0.4754 0.1658 0.0
C711 C 0.4789 0.53478 0.1239 0.0
C712 C 0.50918 0.52621 0.15941 0.0
H713 H 0.54382 0.51436 0.15282 0.0
C714 C 0.50336 0.51866 0.17784 0.0
C715 C 0.52416 0.52494 0.15038 0.0
C716 C 0.53166 0.53363 0.13099 0.0
C717 C 0.51173 0.50933 0.18726 0.0
C718 C 0.52646 0.50777 0.17809 0.0
C719 C 0.53247 0.51554 0.15977 0.0
C720 C 0.53552 0.49771 0.18712 0.0
C721 C 0.50435 0.50072 0.20671 0.0
C722 C 0.54617 0.5047 0.20399 0.0
C723 C 0.55426 0.49486 0.21269 0.0
C724 C 0.55191 0.47786 0.20465 0.0
C725 C 0.54151 0.47112 0.18754 0.0
C726 C 0.53346 0.481 0.17883 0.0
H727 H 0.49036 0.49957 0.20995 0.0
H728 H 0.50276 0.4863 0.20774 0.0
H729 H 0.51471 0.50989 0.21778 0.0
H730 H 0.54823 0.51779 0.21041 0.0
H731 H 0.56247 0.50063 0.22566 0.0
H732 H 0.94239 0.46458 0.28148 0.0
H733 H 0.97374 0.48229 0.29667 0.0
H734 H 0.95209 0.50869 0.33509 0.0
H735 H 0.92064 0.491 0.31996 0.0
H736 H 0.99788 0.52149 0.30032 0.0
H737 H 0.97571 0.48678 0.3715 0.0
H738 H 0.96087 0.47736 0.35055 0.0
H739 H 0.96219 0.4974 0.36304 0.0
C740 C 0.94432 0.47424 0.29309 0.0
C741 C 0.929 0.47633 0.29956 0.0
C742 C 0.96222 0.48429 0.3018 0.0
C743 C 0.96517 0.49658 0.31718 0.0
C744 C 0.95001 0.49894 0.32352 0.0
H745 H 0.06537 0.56577 0.38788 0.0
H746 H 0.03402 0.55146 0.37248 0.0
C747 C 0.93206 0.48884 0.31485 0.0
C748 C 0.98419 0.50702 0.32643 0.0
H749 H 0.00746 0.5123 0.36867 0.0
C750 C 0.99999 0.51948 0.31526 0.0
C751 C 0.98688 0.50441 0.34594 0.0
C752 C 0.97056 0.49065 0.35846 0.0
C753 C 0.01842 0.52946 0.3231 0.0
C754 C 0.02113 0.52667 0.34254 0.0
C755 C 0.00531 0.51442 0.35378 0.0
C756 C 0.04035 0.53586 0.35139 0.0
C757 C 0.0348 0.54307 0.31057 0.0
C758 C 0.05423 0.53171 0.34472 0.0
C759 C 0.0721 0.53977 0.35354 0.0
C760 C 0.07641 0.55206 0.3693 0.0
C761 C 0.06245 0.55621 0.37591 0.0
C762 C 0.04458 0.54813 0.36708 0.0
H763 H 0.02973 0.54748 0.29784 0.0
H764 H 0.04497 0.55605 0.31863 0.0
H765 H 0.04262 0.5359 0.30546 0.0
H766 H 0.05111 0.52193 0.33291 0.0
H767 H 0.08237 0.53597 0.34831 0.0
H768 H 0.46221 0.94391 0.44155 0.0
H769 H 0.47679 0.97497 0.45736 0.0
H770 H 0.45847 0.94711 0.51207 0.0
H771 H 0.44482 0.91599 0.49653 0.0
H772 H 0.46176 0.99166 0.47925 0.0
H773 H 0.51454 0.98237 0.52158 0.0
H774 H 0.5008 0.96631 0.50255 0.0
H775 H 0.49035 0.96398 0.5258 0.0
C776 C 0.46151 0.94434 0.45697 0.0
C777 C 0.4525 0.92738 0.46775 0.0
C778 C 0.46971 0.96214 0.46598 0.0
C779 C 0.46906 0.96338 0.48593 0.0
C780 C 0.45956 0.94651 0.4967 0.0
H781 H 0.50944 0.05925 0.5644 0.0
H782 H 0.49245 0.02785 0.54918 0.0
C783 C 0.4515 0.9287 0.48773 0.0
C784 C 0.47829 0.98234 0.49541 0.0
H785 H 0.5119 0.00967 0.52865 0.0
C786 C 0.47276 0.99561 0.49001 0.0
C787 C 0.49271 0.98752 0.50941 0.0
C788 C 0.5001 0.97438 0.51506 0.0
C789 C 0.48112 0.01382 0.49837 0.0
C790 C 0.49537 0.01887 0.51243 0.0
C791 C 0.50086 0.00564 0.51793 0.0
C792 C 0.50512 0.03801 0.52136 0.0
C793 C 0.47455 0.0275 0.49229 0.0
C794 C 0.51792 0.05406 0.51074 0.0
C795 C 0.52788 0.07199 0.51943 0.0
C796 C 0.52519 0.07422 0.53894 0.0
C797 C 0.51212 0.05806 0.54945 0.0
C798 C 0.50228 0.04011 0.54076 0.0
H799 H 0.46112 0.02029 0.48386 0.0
H800 H 0.47229 0.03439 0.50496 0.0
H801 H 0.48576 0.03892 0.48332 0.0
H802 H 0.52049 0.05263 0.4958 0.0
H803 H 0.53805 0.08401 0.51096 0.0
H804 H 0.42895 0.50942 0.68562 0.0
H805 H 0.44262 0.49159 0.67059 0.0
H806 H 0.49076 0.51813 0.7089 0.0
H807 H 0.47721 0.53595 0.72398 0.0
H808 H 0.47717 0.50536 0.65212 0.0
H809 H 0.47376 0.46182 0.71477 0.0
H810 H 0.46098 0.4748 0.71381 0.0
H811 H 0.486 0.48698 0.71963 0.0
C812 C 0.44246 0.51147 0.69082 0.0
C813 C 0.45194 0.52401 0.70608 0.0
C814 C 0.45021 0.50122 0.68227 0.0
C815 C 0.46753 0.50326 0.68886 0.0
C816 C 0.47712 0.51593 0.70393 0.0
H817 H 0.54631 0.46645 0.65494 0.0
H818 H 0.52904 0.48059 0.67003 0.0
C819 C 0.46937 0.52613 0.71252 0.0
C820 C 0.47596 0.49272 0.67954 0.0
H821 H 0.49267 0.46215 0.68844 0.0
C822 C 0.48039 0.49576 0.66 0.0
C823 C 0.48012 0.48019 0.68986 0.0
C824 C 0.4748 0.47558 0.71063 0.0
C825 C 0.48944 0.48709 0.65064 0.0
C826 C 0.49394 0.47487 0.66106 0.0
C827 C 0.48925 0.47159 0.68052 0.0
C828 C 0.50401 0.46576 0.65213 0.0
C829 C 0.49467 0.49154 0.62982 0.0
C830 C 0.49551 0.45248 0.63728 0.0
C831 C 0.50529 0.44428 0.62868 0.0
C832 C 0.52374 0.44913 0.63485 0.0
C833 C 0.53205 0.46221 0.64998 0.0
C834 C 0.52225 0.47039 0.65856 0.0
H835 H 0.49401 0.50429 0.62504 0.0
H836 H 0.50926 0.49402 0.62709 0.0
H837 H 0.48452 0.4792 0.62101 0.0
H838 H 0.48128 0.44844 0.63237 0.0
H839 H 0.49835 0.43402 0.6173 0.0
H840 H 0.94174 0.47487 0.89209 0.0
H841 H 0.97295 0.48872 0.87657 0.0
H842 H 0.95043 0.44214 0.83628 0.0
H843 H 0.91911 0.4282 0.85172 0.0
H844 H 0.99663 0.47345 0.87127 0.0
H845 H 0.97435 0.48893 0.80156 0.0
H846 H 0.95965 0.48286 0.82269 0.0
H847 H 0.96066 0.4645 0.80916 0.0
C848 C 0.94345 0.4675 0.88 0.0
C849 C 0.92793 0.45046 0.87309 0.0
C850 C 0.96127 0.47547 0.87111 0.0
C851 C 0.96394 0.46662 0.85511 0.0
C852 C 0.94857 0.44945 0.84834 0.0
H853 H 0.06366 0.49906 0.78312 0.0
H854 H 0.03231 0.48179 0.79849 0.0
C855 C 0.9307 0.44149 0.85719 0.0
C856 C 0.98288 0.47533 0.84568 0.0
H857 H 0.00599 0.4947 0.80366 0.0
C858 C 0.99869 0.4781 0.85649 0.0
C859 C 0.98551 0.48135 0.82638 0.0
C860 C 0.96919 0.47944 0.81428 0.0
C861 C 0.01706 0.48668 0.8485 0.0
C862 C 0.01971 0.4929 0.82928 0.0
C863 C 0.00388 0.48989 0.81839 0.0
C864 C 0.03889 0.5031 0.82036 0.0
C865 C 0.03345 0.48885 0.86063 0.0
C866 C 0.05289 0.52087 0.82747 0.0
C867 C 0.07076 0.53082 0.81866 0.0
C868 C 0.07495 0.52324 0.80249 0.0
C869 C 0.06085 0.5054 0.79541 0.0
C870 C 0.04297 0.49547 0.80423 0.0
H871 H 0.02838 0.47898 0.87306 0.0
H872 H 0.04344 0.48615 0.85212 0.0
H873 H 0.04148 0.50367 0.8662 0.0
H874 H 0.04988 0.52721 0.83964 0.0
H875 H 0.08113 0.54468 0.82426 0.0
H876 H 0.53372 0.08113 0.98917 0.0
H877 H 0.51903 0.04972 0.00435 0.0
H878 H 0.54949 0.0327 0.96592 0.0
H879 H 0.56476 0.06432 0.95105 0.0
H880 H 0.49587 0.01466 0.98695 0.0
H881 H 0.56042 0.01759 0.01817 0.0
H882 H 0.56026 0.0386 0.00973 0.0
H883 H 0.56203 0.02268 0.99304 0.0
C884 C 0.53758 0.07084 0.98416 0.0
C885 C 0.5505 0.07528 0.96894 0.0
C886 C 0.52906 0.05284 0.99276 0.0
C887 C 0.53334 0.03896 0.98642 0.0
C888 C 0.54624 0.04331 0.97127 0.0
H889 H 0.48936 0.91994 0.01832 0.0
H890 H 0.50598 0.9513 1.00276 0.0
C891 C 0.55478 0.06132 0.96264 0.0
C892 C 0.52366 0.01967 0.99517 0.0
H893 H 0.53159 0.98783 0.01982 0.0
C894 C 0.50367 0.00881 0.99419 0.0
C895 C 0.53389 0.01206 0.00452 0.0
C896 C 0.55532 0.02337 0.00662 0.0
C897 C 0.49362 0.99047 1.00221 0.0
C898 C 0.50383 0.98293 0.01169 0.0
C899 C 0.52383 0.99368 0.01252 0.0
C900 C 0.49393 0.96403 0.02118 0.0
C901 C 0.47218 0.9792 1.00024 0.0
C902 C 0.48186 0.96093 0.03682 0.0
C903 C 0.47235 0.94307 0.04569 0.0
C904 C 0.47475 0.92797 0.03912 0.0
C905 C 0.48703 0.93121 0.02356 0.0
C906 C 0.49661 0.94912 0.01474 0.0
H907 H 0.46703 0.98494 0.98869 0.0
H908 H 0.4672 0.96394 0.99721 0.0
H909 H 0.46556 0.97997 0.01386 0.0
H910 H 0.47981 0.97235 0.04216 0.0
H911 H 0.46288 0.94101 0.05753 0.0
H912 H 0.38934 0.57427 0.99682 0.0
H913 H 0.3903 0.57583 0.96188 0.0
H914 H 0.39712 0.63219 0.96412 0.0
H915 H 0.3966 0.63093 0.99909 0.0
H916 H 0.36558 0.58154 0.93704 0.0
H917 H 0.44137 0.6387 0.92937 0.0
H918 H 0.43195 0.62545 0.95127 0.0
H919 H 0.42719 0.64422 0.94504 0.0
C920 C 0.39127 0.5871 0.98989 0.0
C921 C 0.393 0.60253 1.00076 0.0
C922 C 0.39169 0.58791 0.96993 0.0
C923 C 0.39402 0.60421 0.96043 0.0
C924 C 0.3956 0.61958 0.97119 0.0
H925 H 0.40249 0.63585 0.84054 0.0
H926 H 0.40069 0.6348 0.87545 0.0
C927 C 0.39511 0.61876 0.99116 0.0
C928 C 0.39442 0.60495 0.93926 0.0
H929 H 0.42283 0.62861 0.90113 0.0
C930 C 0.3781 0.59179 0.92916 0.0
C931 C 0.41076 0.61838 0.92906 0.0
C932 C 0.42889 0.63242 0.93918 0.0
C933 C 0.37757 0.59187 0.9091 0.0
C934 C 0.39397 0.6052 0.89887 0.0
C935 C 0.41027 0.61841 0.90899 0.0
C936 C 0.3946 0.60559 0.87767 0.0
C937 C 0.35933 0.57793 0.89908 0.0
C938 C 0.39192 0.58958 0.86731 0.0
C939 C 0.39275 0.59006 0.84735 0.0
C940 C 0.39646 0.60665 0.83731 0.0
C941 C 0.39929 0.62274 0.84776 0.0
C942 C 0.39842 0.62221 0.86773 0.0
H943 H 0.34678 0.57262 0.90873 0.0
H944 H 0.35678 0.58454 0.88635 0.0
H945 H 0.36041 0.56544 0.89426 0.0
H946 H 0.38934 0.57672 0.87468 0.0
H947 H 0.39034 0.57737 0.83979 0.0
H948 H 0.76635 0.36816 0.00723 0.0
H949 H 0.76565 0.36716 0.04224 0.0
H950 H 0.81459 0.42393 0.04411 0.0
H951 H 0.81517 0.42521 0.00917 0.0
H952 H 0.79566 0.37185 0.06757 0.0
H953 H 0.77494 0.42703 0.07905 0.0
H954 H 0.77209 0.41531 0.05633 0.0
H955 H 0.79519 0.43413 0.06367 0.0
C956 C 0.77684 0.3805 0.0151 0.0
C957 C 0.79078 0.39679 0.00541 0.0
C958 C 0.77648 0.37986 0.03508 0.0
C959 C 0.78992 0.39556 0.04574 0.0
C960 C 0.80392 0.41177 0.03614 0.0
H961 H 0.81324 0.42207 0.16604 0.0
H962 H 0.81293 0.4222 0.13112 0.0
C963 C 0.80435 0.4124 0.01618 0.0
C964 C 0.78954 0.39485 0.06691 0.0
H965 H 0.78385 0.41617 0.10651 0.0
C966 C 0.79297 0.38144 0.07612 0.0
C967 C 0.7861 0.40745 0.07797 0.0
C968 C 0.78171 0.42171 0.06881 0.0
C969 C 0.79347 0.38057 0.09615 0.0
C970 C 0.79001 0.39318 0.10723 0.0
C971 C 0.7865 0.40652 0.09799 0.0
C972 C 0.79016 0.39289 0.12844 0.0
C973 C 0.79822 0.36653 0.10523 0.0
C974 C 0.7773 0.37643 0.13857 0.0
C975 C 0.77756 0.37624 0.15855 0.0
C976 C 0.79059 0.39257 0.16883 0.0
C977 C 0.80324 0.40914 0.15861 0.0
C978 C 0.803 0.40929 0.13864 0.0
H979 H 0.80544 0.36169 0.09501 0.0
H980 H 0.80757 0.37287 0.11789 0.0
H981 H 0.78482 0.35377 0.11 0.0
H982 H 0.76701 0.36373 0.13101 0.0
H983 H 0.76771 0.3632 0.16592 0.0
H984 H 0.42711 0.81437 0.33101 0.0
H985 H 0.42592 0.81411 0.29605 0.0
H986 H 0.36875 0.76581 0.29764 0.0
H987 H 0.36964 0.76623 0.3326 0.0
H988 H 0.41951 0.78372 0.27101 0.0
H989 H 0.36404 0.80458 0.26298 0.0
H990 H 0.37689 0.80775 0.28503 0.0
H991 H 0.35767 0.78456 0.27849 0.0
C992 C 0.4142 0.80382 0.32393 0.0
C993 C 0.39843 0.79038 0.33461 0.0
C994 C 0.41359 0.80363 0.30396 0.0
C995 C 0.39717 0.7901 0.29427 0.0
C996 C 0.38146 0.77656 0.30484 0.0
H997 H 0.36558 0.7673 0.17449 0.0
H998 H 0.36668 0.76669 0.20939 0.0
C999 C 0.38207 0.7767 0.32482 0.0
C1000 C 0.39664 0.78995 0.27309 0.0
H1001 H 0.37365 0.79547 0.23482 0.0
C1002 C 0.40954 0.78635 0.26307 0.0
C1003 C 0.38357 0.79333 0.2628 0.0
C1004 C 0.36984 0.79794 0.27282 0.0
C1005 C 0.40953 0.78573 0.24301 0.0
C1006 C 0.39651 0.78921 0.2327 0.0
C1007 C 0.38359 0.79279 0.24274 0.0
C1008 C 0.39612 0.78931 0.21149 0.0
C1009 C 0.42316 0.78094 0.23307 0.0
C1010 C 0.41226 0.80232 0.20106 0.0
C1011 C 0.41174 0.80258 0.18109 0.0
C1012 C 0.395 0.78994 0.17113 0.0
C1013 C 0.37881 0.77701 0.18166 0.0
C1014 C 0.37936 0.77674 0.20162 0.0
H1015 H 0.42821 0.77353 0.2428 0.0
H1016 H 0.41638 0.77175 0.22039 0.0
H1017 H 0.43583 0.79434 0.22818 0.0
H1018 H 0.42524 0.81242 0.20837 0.0
H1019 H 0.42452 0.81262 0.17347 0.0
H1020 H 0.63773 0.40629 0.49797 0.0
H1021 H 0.63676 0.40514 0.46303 0.0
H1022 H 0.57647 0.38562 0.4643 0.0
H1023 H 0.5772 0.38642 0.49923 0.0
H1024 H 0.61393 0.37337 0.43858 0.0
H1025 H 0.59875 0.43265 0.42859 0.0
H1026 H 0.6075 0.42866 0.45085 0.0
H1027 H 0.58279 0.41405 0.44451 0.0
C1028 C 0.62421 0.40157 0.49085 0.0
C1029 C 0.60755 0.39652 0.50145 0.0
C1030 C 0.62372 0.40103 0.47087 0.0
C1031 C 0.60661 0.39557 0.46109 0.0
C1032 C 0.5899 0.39026 0.47157 0.0
H1033 H 0.57436 0.38559 0.34158 0.0
H1034 H 0.57531 0.38588 0.37653 0.0
C1035 C 0.59037 0.39075 0.49155 0.0
C1036 C 0.6062 0.39522 0.43991 0.0
H1037 H 0.59766 0.41527 0.40094 0.0
C1038 C 0.61046 0.38257 0.43032 0.0
C1039 C 0.6016 0.40722 0.4292 0.0
C1040 C 0.59755 0.42155 0.43875 0.0
C1041 C 0.60989 0.38132 0.41028 0.0
C1042 C 0.60536 0.39337 0.39956 0.0
C1043 C 0.60112 0.40604 0.40917 0.0
C1044 C 0.60487 0.39305 0.37834 0.0
C1045 C 0.61369 0.36678 0.40083 0.0
C1046 C 0.62124 0.39721 0.36773 0.0
C1047 C 0.62074 0.39704 0.34775 0.0
C1048 C 0.6039 0.39293 0.33798 0.0
C1049 C 0.5876 0.38898 0.34866 0.0
C1050 C 0.58809 0.38906 0.36864 0.0
H1051 H 0.61168 0.35532 0.41092 0.0
H1052 H 0.60416 0.36014 0.38833 0.0
H1053 H 0.62869 0.37397 0.39573 0.0
H1054 H 0.63448 0.4008 0.37491 0.0
H1055 H 0.63363 0.40047 0.33995 0.0
H1056 H 0.23465 0.60205 0.66639 0.0
H1057 H 0.23503 0.60168 0.63139 0.0
H1058 H 0.18712 0.61115 0.63005 0.0
H1059 H 0.18688 0.61194 0.665 0.0
H1060 H 0.20457 0.57683 0.60637 0.0
H1061 H 0.227 0.65317 0.59469 0.0
H1062 H 0.22973 0.6442 0.6174 0.0
H1063 H 0.20678 0.6404 0.6102 0.0
C1064 C 0.22433 0.60427 0.65864 0.0
C1065 C 0.21078 0.6071 0.66849 0.0
C1066 C 0.2245 0.60394 0.63866 0.0
C1067 C 0.21125 0.60662 0.62815 0.0
C1068 C 0.19764 0.60933 0.6379 0.0
H1069 H 0.18885 0.61048 0.50745 0.0
H1070 H 0.18869 0.61078 0.54239 0.0
C1071 C 0.19741 0.60959 0.65787 0.0
C1072 C 0.21142 0.60619 0.60697 0.0
H1073 H 0.21774 0.63333 0.5673 0.0
C1074 C 0.20754 0.58919 0.5978 0.0
C1075 C 0.21521 0.62233 0.59586 0.0
C1076 C 0.22008 0.64113 0.60498 0.0
C1077 C 0.207 0.58778 0.57778 0.0
C1078 C 0.21088 0.60395 0.56665 0.0
C1079 C 0.21477 0.62095 0.57584 0.0
C1080 C 0.21093 0.60353 0.54544 0.0
C1081 C 0.20181 0.56885 0.56874 0.0
C1082 C 0.22363 0.59956 0.53553 0.0
C1083 C 0.22364 0.5992 0.51555 0.0
C1084 C 0.21104 0.60296 0.50505 0.0
C1085 C 0.19852 0.6072 0.51505 0.0
C1086 C 0.1985 0.60752 0.53503 0.0
H1087 H 0.19423 0.55683 0.57896 0.0
H1088 H 0.19261 0.56608 0.55599 0.0
H1089 H 0.21504 0.56907 0.56413 0.0
H1090 H 0.23362 0.59682 0.54324 0.0
H1091 H 0.23337 0.59574 0.50834 0.0
H1092 H 0.63895 0.2327 0.67502 0.0
H1093 H 0.63813 0.23297 0.70996 0.0
H1094 H 0.57837 0.19038 0.70904 0.0
H1095 H 0.57894 0.1902 0.67411 0.0
H1096 H 0.61457 0.24081 0.73442 0.0
H1097 H 0.60237 0.16743 0.74482 0.0
H1098 H 0.61062 0.18012 0.72247 0.0
H1099 H 0.58585 0.16917 0.72894 0.0
C1100 C 0.62558 0.22351 0.68222 0.0
C1101 C 0.60902 0.21137 0.67172 0.0
C1102 C 0.62517 0.22361 0.7022 0.0
C1103 C 0.60827 0.21149 0.71208 0.0
C1104 C 0.59166 0.19955 0.70169 0.0
H1105 H 0.57634 0.18901 0.83157 0.0
H1106 H 0.57737 0.18951 0.79663 0.0
C1107 C 0.59203 0.19946 0.68172 0.0
C1108 C 0.60794 0.21154 0.73326 0.0
H1109 H 0.60055 0.18343 0.77239 0.0
C1110 C 0.61159 0.22831 0.74275 0.0
C1111 C 0.604 0.19518 0.74405 0.0
C1112 C 0.60064 0.17698 0.73461 0.0
C1113 C 0.61103 0.22906 0.76279 0.0
C1114 C 0.60713 0.21271 0.7736 0.0
C1115 C 0.60352 0.19595 0.76408 0.0
C1116 C 0.60661 0.21262 0.79481 0.0
C1117 C 0.61414 0.24721 0.77214 0.0
C1118 C 0.62278 0.22529 0.80542 0.0
C1119 C 0.62224 0.22505 0.8254 0.0
C1120 C 0.60556 0.21196 0.83517 0.0
C1121 C 0.58946 0.19914 0.82449 0.0
C1122 C 0.59 0.19946 0.80452 0.0
H1123 H 0.61172 0.25635 0.76198 0.0
H1124 H 0.60451 0.24404 0.78461 0.0
H1125 H 0.6291 0.2555 0.77727 0.0
H1126 H 0.63591 0.23525 0.79824 0.0
H1127 H 0.63498 0.23488 0.8332 0.0
loop_
_geom_bond_atom_site_label_1
_geom_bond_atom_site_label_2
_geom_bond_distance
_geom_bond_site_symmetry_2
_ccdc_geom_bond_type
C0 C1 1.264 . S
C0 C5 1.479 . S
C0 C10 1.465 . S
C1 C0 1.264 . S
C1 C3 1.339 . S
C1 H28 0.931 . S
C2 C3 1.395 . S
C2 C4 1.320 . S
C3 C1 1.339 . S
C3 C2 1.395 . S
C3 H29 0.929 . S
C4 C2 1.320 . S
C4 C5 1.405 . S
C4 H30 0.930 . S
C5 C0 1.479 . S
C5 C4 1.405 . S
C5 H31 0.931 . S
U6 O7 2.454 . S
U6 O8 2.458 . S
U6 C9 2.984 . S
U6 C10 2.847 . S
U6 C23 2.882 . S
U6 O24 2.441 . S
U6 O25 2.420 . S
U6 O26 2.455 . S
U6 O27 2.449 . S
O7 U6 2.454 . S
O7 C9 1.353 . S
O8 U6 2.458 . S
O8 C9 1.286 . S
C9 U6 2.984 . S
C9 O7 1.353 . S
C9 O8 1.286 . S
C9 C11 1.363 . S
C10 C0 1.465 . S
C10 U6 2.847 . S
C10 O24 1.249 . S
C10 O25 1.202 . S
C11 C9 1.363 . S
C11 C13 1.408 . S
C11 C16 1.342 . S
C12 C13 1.310 . S
C12 C15 1.461 . S
C12 H32 0.932 . S
C13 C11 1.408 . S
C13 C12 1.310 . S
C13 H33 0.930 . S
C14 C15 1.474 . S
C14 C16 1.285 . S
C14 H34 0.929 . S
C15 C12 1.461 . S
C15 C14 1.474 . S
C16 C11 1.342 . S
C16 C14 1.285 . S
C16 H35 0.930 . S
C17 C20 1.424 . S
C17 C22 1.245 . S
C17 C23 1.428 . S
C18 C21 1.260 . S
C18 C22 1.477 . S
C18 H36 0.932 . S
C19 C20 1.384 . S
C19 C21 1.479 . S
C19 H37 0.929 . S
C20 C17 1.424 . S
C20 C19 1.384 . S
C20 H38 0.928 . S
C21 C18 1.260 . S
C21 C19 1.479 . S
C22 C17 1.245 . S
C22 C18 1.477 . S
C22 H39 0.932 . S
C23 U6 2.882 . S
C23 C17 1.428 . S
C23 O26 1.301 . S
C23 O27 1.282 . S
O24 U6 2.441 . S
O24 C10 1.249 . S
O25 U6 2.420 . S
O25 C10 1.202 . S
O26 U6 2.455 . S
O26 C23 1.301 . S
O27 U6 2.449 . S
O27 C23 1.282 . S
H28 C1 0.931 . S
H29 C3 0.929 . S
H30 C4 0.930 . S
H31 C5 0.931 . S
H32 C12 0.932 . S
H33 C13 0.930 . S
H34 C14 0.929 . S
H35 C16 0.930 . S
H36 C18 0.932 . S
H37 C19 0.929 . S
H38 C20 0.928 . S
H39 C22 0.932 . S
C40 C41 1.264 . S
C40 C45 1.479 . S
C40 C50 1.465 . S
C41 C40 1.264 . S
C41 C43 1.339 . S
C41 H68 0.931 . S
C42 C43 1.395 . S
C42 C44 1.320 . S
C43 C41 1.339 . S
C43 C42 1.395 . S
C43 H69 0.929 . S
C44 C42 1.320 . S
C44 C45 1.405 . S
C44 H70 0.930 . S
C45 C40 1.479 . S
C45 C44 1.405 . S
C45 H71 0.931 . S
U46 O47 2.454 . S
U46 O48 2.458 . S
U46 C49 2.984 . S
U46 C50 2.847 . S
U46 C63 2.882 . S
U46 O64 2.441 . S
U46 O65 2.420 . S
U46 O66 2.455 . S
U46 O67 2.449 . S
O47 U46 2.454 . S
O47 C49 1.353 . S
O48 U46 2.458 . S
O48 C49 1.286 . S
C49 U46 2.984 . S
C49 O47 1.353 . S
C49 O48 1.286 . S
C49 C51 1.363 . S
C50 C40 1.465 . S
C50 U46 2.847 . S
C50 O64 1.249 . S
C50 O65 1.202 . S
C51 C49 1.363 . S
C51 C53 1.408 . S
C51 C56 1.342 . S
C52 C53 1.310 . S
C52 C55 1.461 . S
C52 H72 0.932 . S
C53 C51 1.408 . S
C53 C52 1.310 . S
C53 H73 0.930 . S
C54 C55 1.474 . S
C54 C56 1.285 . S
C54 H74 0.929 . S
C55 C52 1.461 . S
C55 C54 1.474 . S
C56 C51 1.342 . S
C56 C54 1.285 . S
C56 H75 0.930 . S
C57 C60 1.424 . S
C57 C62 1.245 . S
C57 C63 1.428 . S
C58 C61 1.260 . S
C58 C62 1.477 . S
C58 H76 0.932 . S
C59 C60 1.384 . S
C59 C61 1.479 . S
C59 H77 0.929 . S
C60 C57 1.424 . S
C60 C59 1.384 . S
C60 H78 0.928 . S
C61 C58 1.260 . S
C61 C59 1.479 . S
C62 C57 1.245 . S
C62 C58 1.477 . S
C62 H79 0.932 . S
C63 U46 2.882 . S
C63 C57 1.428 . S
C63 O66 1.301 . S
C63 O67 1.282 . S
O64 U46 2.441 . S
O64 C50 1.249 . S
O65 U46 2.420 . S
O65 C50 1.202 . S
O66 U46 2.455 . S
O66 C63 1.301 . S
O67 U46 2.449 . S
O67 C63 1.282 . S
H68 C41 0.931 . S
H69 C43 0.929 . S
H70 C44 0.930 . S
H71 C45 0.931 . S
H72 C52 0.932 . S
H73 C53 0.930 . S
H74 C54 0.929 . S
H75 C56 0.930 . S
H76 C58 0.932 . S
H77 C59 0.929 . S
H78 C60 0.928 . S
H79 C62 0.932 . S
C80 C81 1.264 . S
C80 C85 1.479 . S
C80 C90 1.465 . S
C81 C80 1.264 . S
C81 C83 1.339 . S
C81 H108 0.931 . S
C82 C83 1.395 . S
C82 C84 1.320 . S
C83 C81 1.339 . S
C83 C82 1.395 . S
C83 H109 0.929 . S
C84 C82 1.320 . S
C84 C85 1.405 . S
C84 H110 0.930 . S
C85 C80 1.479 . S
C85 C84 1.405 . S
C85 H111 0.931 . S
U86 O87 2.454 . S
U86 O88 2.458 . S
U86 C89 2.984 . S
U86 C90 2.847 . S
U86 C103 2.882 . S
U86 O104 2.441 . S
U86 O105 2.420 . S
U86 O106 2.455 . S
U86 O107 2.449 . S
O87 U86 2.454 . S
O87 C89 1.353 . S
O88 U86 2.458 . S
O88 C89 1.286 . S
C89 U86 2.984 . S
C89 O87 1.353 . S
C89 O88 1.286 . S
C89 C91 1.363 . S
C90 C80 1.465 . S
C90 U86 2.847 . S
C90 O104 1.249 . S
C90 O105 1.202 . S
C91 C89 1.363 . S
C91 C93 1.408 . S
C91 C96 1.342 . S
C92 C93 1.310 . S
C92 C95 1.461 . S
C92 H112 0.932 . S
C93 C91 1.408 . S
C93 C92 1.310 . S
C93 H113 0.930 . S
C94 C95 1.474 . S
C94 C96 1.285 . S
C94 H114 0.929 . S
C95 C92 1.461 . S
C95 C94 1.474 . S
C96 C91 1.342 . S
C96 C94 1.285 . S
C96 H115 0.930 . S
C97 C100 1.424 . S
C97 C102 1.245 . S
C97 C103 1.428 . S
C98 C101 1.260 . S
C98 C102 1.477 . S
C98 H116 0.932 . S
C99 C100 1.384 . S
C99 C101 1.479 . S
C99 H117 0.929 . S
C100 C97 1.424 . S
C100 C99 1.384 . S
C100 H118 0.928 . S
C101 C98 1.260 . S
C101 C99 1.479 . S
C102 C97 1.245 . S
C102 C98 1.477 . S
C102 H119 0.932 . S
C103 U86 2.882 . S
C103 C97 1.428 . S
C103 O106 1.301 . S
C103 O107 1.282 . S
O104 U86 2.441 . S
O104 C90 1.249 . S
O105 U86 2.420 . S
O105 C90 1.202 . S
O106 U86 2.455 . S
O106 C103 1.301 . S
O107 U86 2.449 . S
O107 C103 1.282 . S
H108 C81 0.931 . S
H109 C83 0.929 . S
H110 C84 0.930 . S
H111 C85 0.931 . S
H112 C92 0.932 . S
H113 C93 0.930 . S
H114 C94 0.929 . S
H115 C96 0.930 . S
H116 C98 0.932 . S
H117 C99 0.929 . S
H118 C100 0.928 . S
H119 C102 0.932 . S
C120 C121 1.264 . S
C120 C125 1.479 . S
C120 C130 1.465 . S
C121 C120 1.264 . S
C121 C123 1.339 . S
C121 H148 0.931 . S
C122 C123 1.395 . S
C122 C124 1.320 . S
C123 C121 1.339 . S
C123 C122 1.395 . S
C123 H149 0.929 . S
C124 C122 1.320 . S
C124 C125 1.405 . S
C124 H150 0.930 . S
C125 C120 1.479 . S
C125 C124 1.405 . S
C125 H151 0.931 . S
U126 O127 2.454 . S
U126 O128 2.458 . S
U126 C129 2.984 . S
U126 C130 2.847 . S
U126 C143 2.882 . S
U126 O144 2.441 . S
U126 O145 2.420 . S
U126 O146 2.455 . S
U126 O147 2.449 . S
O127 U126 2.454 . S
O127 C129 1.353 . S
O128 U126 2.458 . S
O128 C129 1.286 . S
C129 U126 2.984 . S
C129 O127 1.353 . S
C129 O128 1.286 . S
C129 C131 1.363 . S
C130 C120 1.465 . S
C130 U126 2.847 . S
C130 O144 1.249 . S
C130 O145 1.202 . S
C131 C129 1.363 . S
C131 C133 1.408 . S
C131 C136 1.342 . S
C132 C133 1.310 . S
C132 C135 1.461 . S
C132 H152 0.932 . S
C133 C131 1.408 . S
C133 C132 1.310 . S
C133 H153 0.930 . S
C134 C135 1.474 . S
C134 C136 1.285 . S
C134 H154 0.929 . S
C135 C132 1.461 . S
C135 C134 1.474 . S
C136 C131 1.342 . S
C136 C134 1.285 . S
C136 H155 0.930 . S
C137 C140 1.424 . S
C137 C142 1.245 . S
C137 C143 1.428 . S
C138 C141 1.260 . S
C138 C142 1.477 . S
C138 H156 0.932 . S
C139 C140 1.384 . S
C139 C141 1.479 . S
C139 H157 0.929 . S
C140 C137 1.424 . S
C140 C139 1.384 . S
C140 H158 0.928 . S
C141 C138 1.260 . S
C141 C139 1.479 . S
C142 C137 1.245 . S
C142 C138 1.477 . S
C142 H159 0.932 . S
C143 U126 2.882 . S
C143 C137 1.428 . S
C143 O146 1.301 . S
C143 O147 1.282 . S
O144 U126 2.441 . S
O144 C130 1.249 . S
O145 U126 2.420 . S
O145 C130 1.202 . S
O146 U126 2.455 . S
O146 C143 1.301 . S
O147 U126 2.449 . S
O147 C143 1.282 . S
H148 C121 0.931 . S
H149 C123 0.929 . S
H150 C124 0.930 . S
H151 C125 0.931 . S
H152 C132 0.932 . S
H153 C133 0.930 . S
H154 C134 0.929 . S
H155 C136 0.930 . S
H156 C138 0.932 . S
H157 C139 0.929 . S
H158 C140 0.928 . S
H159 C142 0.932 . S
C160 C161 1.264 . S
C160 C165 1.479 . S
C160 C170 1.465 . S
C161 C160 1.264 . S
C161 C163 1.339 . S
C161 H188 0.931 . S
C162 C163 1.395 . S
C162 C164 1.320 . S
C163 C161 1.339 . S
C163 C162 1.395 . S
C163 H189 0.929 . S
C164 C162 1.320 . S
C164 C165 1.405 . S
C164 H190 0.930 . S
C165 C160 1.479 . S
C165 C164 1.405 . S
C165 H191 0.931 . S
U166 O167 2.454 . S
U166 O168 2.458 . S
U166 C169 2.984 . S
U166 C170 2.847 . S
U166 C183 2.882 . S
U166 O184 2.441 . S
U166 O185 2.420 . S
U166 O186 2.455 . S
U166 O187 2.449 . S
O167 U166 2.454 . S
O167 C169 1.353 . S
O168 U166 2.458 . S
O168 C169 1.286 . S
C169 U166 2.984 . S
C169 O167 1.353 . S
C169 O168 1.286 . S
C169 C171 1.363 . S
C170 C160 1.465 . S
C170 U166 2.847 . S
C170 O184 1.249 . S
C170 O185 1.202 . S
C171 C169 1.363 . S
C171 C173 1.408 . S
C171 C176 1.342 . S
C172 C173 1.310 . S
C172 C175 1.461 . S
C172 H192 0.932 . S
C173 C171 1.408 . S
C173 C172 1.310 . S
C173 H193 0.930 . S
C174 C175 1.474 . S
C174 C176 1.285 . S
C174 H194 0.929 . S
C175 C172 1.461 . S
C175 C174 1.474 . S
C176 C171 1.342 . S
C176 C174 1.285 . S
C176 H195 0.930 . S
C177 C180 1.424 . S
C177 C182 1.245 . S
C177 C183 1.428 . S
C178 C181 1.260 . S
C178 C182 1.477 . S
C178 H196 0.932 . S
C179 C180 1.384 . S
C179 C181 1.479 . S
C179 H197 0.929 . S
C180 C177 1.424 . S
C180 C179 1.384 . S
C180 H198 0.928 . S
C181 C178 1.260 . S
C181 C179 1.479 . S
C182 C177 1.245 . S
C182 C178 1.477 . S
C182 H199 0.932 . S
C183 U166 2.882 . S
C183 C177 1.428 . S
C183 O186 1.301 . S
C183 O187 1.282 . S
O184 U166 2.441 . S
O184 C170 1.249 . S
O185 U166 2.420 . S
O185 C170 1.202 . S
O186 U166 2.455 . S
O186 C183 1.301 . S
O187 U166 2.449 . S
O187 C183 1.282 . S
H188 C161 0.931 . S
H189 C163 0.929 . S
H190 C164 0.930 . S
H191 C165 0.931 . S
H192 C172 0.932 . S
H193 C173 0.930 . S
H194 C174 0.929 . S
H195 C176 0.930 . S
H196 C178 0.932 . S
H197 C179 0.929 . S
H198 C180 0.928 . S
H199 C182 0.932 . S
C200 C201 1.264 . S
C200 C205 1.479 . S
C200 C210 1.465 . S
C201 C200 1.264 . S
C201 C203 1.339 . S
C201 H228 0.931 . S
C202 C203 1.395 . S
C202 C204 1.320 . S
C203 C201 1.339 . S
C203 C202 1.395 . S
C203 H229 0.929 . S
C204 C202 1.320 . S
C204 C205 1.405 . S
C204 H230 0.930 . S
C205 C200 1.479 . S
C205 C204 1.405 . S
C205 H231 0.931 . S
U206 O207 2.454 . S
U206 O208 2.458 . S
U206 C209 2.984 . S
U206 C210 2.847 . S
U206 C223 2.882 . S
U206 O224 2.441 . S
U206 O225 2.420 . S
U206 O226 2.455 . S
U206 O227 2.449 . S
O207 U206 2.454 . S
O207 C209 1.353 . S
O208 U206 2.458 . S
O208 C209 1.286 . S
C209 U206 2.984 . S
C209 O207 1.353 . S
C209 O208 1.286 . S
C209 C211 1.363 . S
C210 C200 1.465 . S
C210 U206 2.847 . S
C210 O224 1.249 . S
C210 O225 1.202 . S
C211 C209 1.363 . S
C211 C213 1.408 . S
C211 C216 1.284 1_556 S
C212 C213 1.310 . S
C212 C215 1.461 1_556 S
C212 H232 0.932 . S
C213 C211 1.408 . S
C213 C212 1.310 . S
C213 H233 0.930 . S
C214 C215 1.474 . S
C214 C216 1.329 . S
C214 H234 0.929 . S
C215 C212 1.461 1_554 S
C215 C214 1.474 . S
C216 C211 1.284 1_554 S
C216 C214 1.329 . S
C216 H235 0.948 . S
C217 C220 1.424 . S
C217 C222 1.245 . S
C217 C223 1.428 . S
C218 C221 1.260 . S
C218 C222 1.477 . S
C218 H236 0.932 . S
C219 C220 1.384 . S
C219 C221 1.479 . S
C219 H237 0.929 . S
C220 C217 1.424 . S
C220 C219 1.384 . S
C220 H238 0.928 . S
C221 C218 1.260 . S
C221 C219 1.479 . S
C222 C217 1.245 . S
C222 C218 1.477 . S
C222 H239 0.932 . S
C223 U206 2.882 . S
C223 C217 1.428 . S
C223 O226 1.301 . S
C223 O227 1.282 . S
O224 U206 2.441 . S
O224 C210 1.249 . S
O225 U206 2.420 . S
O225 C210 1.202 . S
O226 U206 2.455 . S
O226 C223 1.301 . S
O227 U206 2.449 . S
O227 C223 1.282 . S
H228 C201 0.931 . S
H229 C203 0.929 . S
H230 C204 0.930 . S
H231 C205 0.931 . S
H232 C212 0.932 . S
H233 C213 0.930 . S
H234 C214 0.929 . S
H235 C216 0.948 . S
H236 C218 0.932 . S
H237 C219 0.929 . S
H238 C220 0.928 . S
H239 C222 0.932 . S
C240 C241 1.264 . S
C240 C245 1.479 . S
C240 C250 1.465 . S
C241 C240 1.264 . S
C241 C243 1.339 . S
C241 H268 0.931 . S
C242 C243 1.395 . S
C242 C244 1.320 . S
C243 C241 1.339 . S
C243 C242 1.395 . S
C243 H269 0.929 . S
C244 C242 1.320 . S
C244 C245 1.405 . S
C244 H270 0.930 . S
C245 C240 1.479 . S
C245 C244 1.405 . S
C245 H271 0.931 . S
U246 O247 2.454 . S
U246 O248 2.458 . S
U246 C249 2.984 . S
U246 C250 2.847 . S
U246 C263 2.882 . S
U246 O264 2.441 . S
U246 O265 2.420 . S
U246 O266 2.455 . S
U246 O267 2.449 . S
O247 U246 2.454 . S
O247 C249 1.353 . S
O248 U246 2.458 . S
O248 C249 1.286 . S
C249 U246 2.984 . S
C249 O247 1.353 . S
C249 O248 1.286 . S
C249 C251 1.363 . S
C250 C240 1.465 . S
C250 U246 2.847 . S
C250 O264 1.249 . S
C250 O265 1.202 . S
C251 C249 1.363 . S
C251 C253 1.408 . S
C251 C256 1.342 . S
C252 C253 1.310 . S
C252 C255 1.461 . S
C252 H272 0.932 . S
C253 C251 1.408 . S
C253 C252 1.310 . S
C253 H273 0.930 . S
C254 C255 1.474 . S
C254 C256 1.285 . S
C254 H274 0.929 . S
C255 C252 1.461 . S
C255 C254 1.474 . S
C256 C251 1.342 . S
C256 C254 1.285 . S
C256 H275 0.930 . S
C257 C260 1.424 . S
C257 C262 1.245 . S
C257 C263 1.428 . S
C258 C261 1.260 . S
C258 C262 1.477 . S
C258 H276 0.932 . S
C259 C260 1.384 . S
C259 C261 1.479 . S
C259 H277 0.929 . S
C260 C257 1.424 . S
C260 C259 1.384 . S
C260 H278 0.928 . S
C261 C258 1.260 . S
C261 C259 1.479 . S
C262 C257 1.245 . S
C262 C258 1.477 . S
C262 H279 0.932 . S
C263 U246 2.882 . S
C263 C257 1.428 . S
C263 O266 1.301 . S
C263 O267 1.282 . S
O264 U246 2.441 . S
O264 C250 1.249 . S
O265 U246 2.420 . S
O265 C250 1.202 . S
O266 U246 2.455 . S
O266 C263 1.301 . S
O267 U246 2.449 . S
O267 C263 1.282 . S
H268 C241 0.931 . S
H269 C243 0.929 . S
H270 C244 0.930 . S
H271 C245 0.931 . S
H272 C252 0.932 . S
H273 C253 0.930 . S
H274 C254 0.929 . S
H275 C256 0.930 . S
H276 C258 0.932 . S
H277 C259 0.929 . S
H278 C260 0.928 . S
H279 C262 0.932 . S
C280 C281 1.264 . S
C280 C285 1.479 . S
C280 C290 1.465 . S
C281 C280 1.264 . S
C281 C283 1.339 . S
C281 H308 0.931 . S
C282 C283 1.395 . S
C282 C284 1.320 . S
C283 C281 1.339 . S
C283 C282 1.395 . S
C283 H309 0.929 . S
C284 C282 1.320 . S
C284 C285 1.405 . S
C284 H310 0.930 . S
C285 C280 1.479 . S
C285 C284 1.405 . S
C285 H311 0.931 . S
U286 O287 2.454 . S
U286 O288 2.458 . S
U286 C289 2.984 . S
U286 C290 2.847 . S
U286 C303 2.882 . S
U286 O304 2.441 . S
U286 O305 2.420 . S
U286 O306 2.455 . S
U286 O307 2.449 . S
O287 U286 2.454 . S
O287 C289 1.353 . S
O288 U286 2.458 . S
O288 C289 1.286 . S
C289 U286 2.984 . S
C289 O287 1.353 . S
C289 O288 1.286 . S
C289 C291 1.363 . S
C290 C280 1.465 . S
C290 U286 2.847 . S
C290 O304 1.249 . S
C290 O305 1.202 . S
C291 C289 1.363 . S
C291 C293 1.408 . S
C291 C296 1.342 . S
C292 C293 1.310 . S
C292 C295 1.461 . S
C292 H312 0.932 . S
C293 C291 1.408 . S
C293 C292 1.310 . S
C293 H313 0.930 . S
C294 C295 1.474 . S
C294 C296 1.285 . S
C294 H314 0.929 . S
C295 C292 1.461 . S
C295 C294 1.474 . S
C296 C291 1.342 . S
C296 C294 1.285 . S
C296 H315 0.930 . S
C297 C300 1.424 . S
C297 C302 1.245 . S
C297 C303 1.428 . S
C298 C301 1.260 . S
C298 C302 1.477 . S
C298 H316 0.932 . S
C299 C300 1.384 . S
C299 C301 1.479 . S
C299 H317 0.929 . S
C300 C297 1.424 . S
C300 C299 1.384 . S
C300 H318 0.928 . S
C301 C298 1.260 . S
C301 C299 1.479 . S
C302 C297 1.245 . S
C302 C298 1.477 . S
C302 H319 0.932 . S
C303 U286 2.882 . S
C303 C297 1.428 . S
C303 O306 1.301 . S
C303 O307 1.282 . S
O304 U286 2.441 . S
O304 C290 1.249 . S
O305 U286 2.420 . S
O305 C290 1.202 . S
O306 U286 2.455 . S
O306 C303 1.301 . S
O307 U286 2.449 . S
O307 C303 1.282 . S
H308 C281 0.931 . S
H309 C283 0.929 . S
H310 C284 0.930 . S
H311 C285 0.931 . S
H312 C292 0.932 . S
H313 C293 0.930 . S
H314 C294 0.929 . S
H315 C296 0.930 . S
H316 C298 0.932 . S
H317 C299 0.929 . S
H318 C300 0.928 . S
H319 C302 0.932 . S
C320 C321 1.264 . S
C320 C325 1.479 . S
C320 C330 1.465 . S
C321 C320 1.264 . S
C321 C323 1.339 . S
C321 H348 0.931 . S
C322 C323 1.395 . S
C322 C324 1.320 . S
C323 C321 1.339 . S
C323 C322 1.395 . S
C323 H349 0.929 . S
C324 C322 1.320 . S
C324 C325 1.405 . S
C324 H350 0.930 . S
C325 C320 1.479 . S
C325 C324 1.405 . S
C325 H351 0.931 . S
U326 O327 2.454 . S
U326 O328 2.458 . S
U326 C329 2.984 . S
U326 C330 2.847 . S
U326 C343 2.882 . S
U326 O344 2.441 . S
U326 O345 2.420 . S
U326 O346 2.455 . S
U326 O347 2.449 . S
O327 U326 2.454 . S
O327 C329 1.353 . S
O328 U326 2.458 . S
O328 C329 1.286 . S
C329 U326 2.984 . S
C329 O327 1.353 . S
C329 O328 1.286 . S
C329 C331 1.363 . S
C330 C320 1.465 . S
C330 U326 2.847 . S
C330 O344 1.249 . S
C330 O345 1.202 . S
C331 C329 1.363 . S
C331 C333 1.408 . S
C331 C336 1.284 1_554 S
C332 C333 1.310 . S
C332 C335 1.461 1_554 S
C332 H352 0.932 . S
C333 C331 1.408 . S
C333 C332 1.310 . S
C333 H353 0.930 . S
C334 C335 1.474 . S
C334 C336 1.328 . S
C334 H354 0.929 . S
C335 C332 1.461 1_556 S
C335 C334 1.474 . S
C336 C331 1.284 1_556 S
C336 C334 1.328 . S
C336 H355 0.948 . S
C337 C340 1.424 . S
C337 C342 1.245 . S
C337 C343 1.428 . S
C338 C341 1.260 . S
C338 C342 1.477 . S
C338 H356 0.932 . S
C339 C340 1.384 . S
C339 C341 1.479 . S
C339 H357 0.929 . S
C340 C337 1.424 . S
C340 C339 1.384 . S
C340 H358 0.928 . S
C341 C338 1.260 . S
C341 C339 1.479 . S
C342 C337 1.245 . S
C342 C338 1.477 . S
C342 H359 0.932 . S
C343 U326 2.882 . S
C343 C337 1.428 . S
C343 O346 1.301 . S
C343 O347 1.282 . S
O344 U326 2.441 . S
O344 C330 1.249 . S
O345 U326 2.420 . S
O345 C330 1.202 . S
O346 U326 2.455 . S
O346 C343 1.301 . S
O347 U326 2.449 . S
O347 C343 1.282 . S
H348 C321 0.931 . S
H349 C323 0.929 . S
H350 C324 0.930 . S
H351 C325 0.931 . S
H352 C332 0.932 . S
H353 C333 0.930 . S
H354 C334 0.929 . S
H355 C336 0.948 . S
H356 C338 0.932 . S
H357 C339 0.929 . S
H358 C340 0.928 . S
H359 C342 0.932 . S
C360 C361 1.264 . S
C360 C365 1.479 . S
C360 C370 1.465 . S
C361 C360 1.264 . S
C361 C363 1.339 . S
C361 H388 0.931 . S
C362 C363 1.395 . S
C362 C364 1.320 . S
C363 C361 1.339 . S
C363 C362 1.395 . S
C363 H389 0.929 . S
C364 C362 1.320 . S
C364 C365 1.405 . S
C364 H390 0.930 . S
C365 C360 1.479 . S
C365 C364 1.405 . S
C365 H391 0.931 . S
U366 O367 2.454 . S
U366 O368 2.458 . S
U366 C369 2.984 . S
U366 C370 2.847 . S
U366 C383 2.882 . S
U366 O384 2.441 . S
U366 O385 2.420 . S
U366 O386 2.455 . S
U366 O387 2.449 . S
O367 U366 2.454 . S
O367 C369 1.353 . S
O368 U366 2.458 . S
O368 C369 1.286 . S
C369 U366 2.984 . S
C369 O367 1.353 . S
C369 O368 1.286 . S
C369 C371 1.363 . S
C370 C360 1.465 . S
C370 U366 2.847 . S
C370 O384 1.249 . S
C370 O385 1.202 . S
C371 C369 1.363 . S
C371 C373 1.408 . S
C371 C376 1.342 . S
C372 C373 1.310 . S
C372 C375 1.461 . S
C372 H392 0.932 . S
C373 C371 1.408 . S
C373 C372 1.310 . S
C373 H393 0.930 . S
C374 C375 1.474 . S
C374 C376 1.285 . S
C374 H394 0.929 . S
C375 C372 1.461 . S
C375 C374 1.474 . S
C376 C371 1.342 . S
C376 C374 1.285 . S
C376 H395 0.930 . S
C377 C380 1.424 . S
C377 C382 1.245 . S
C377 C383 1.428 . S
C378 C381 1.260 . S
C378 C382 1.477 . S
C378 H396 0.932 . S
C379 C380 1.384 . S
C379 C381 1.479 . S
C379 H397 0.929 . S
C380 C377 1.424 . S
C380 C379 1.384 . S
C380 H398 0.928 . S
C381 C378 1.260 . S
C381 C379 1.479 . S
C382 C377 1.245 . S
C382 C378 1.477 . S
C382 H399 0.932 . S
C383 U366 2.882 . S
C383 C377 1.428 . S
C383 O386 1.301 . S
C383 O387 1.282 . S
O384 U366 2.441 . S
O384 C370 1.249 . S
O385 U366 2.420 . S
O385 C370 1.202 . S
O386 U366 2.455 . S
O386 C383 1.301 . S
O387 U366 2.449 . S
O387 C383 1.282 . S
H388 C361 0.931 . S
H389 C363 0.929 . S
H390 C364 0.930 . S
H391 C365 0.931 . S
H392 C372 0.932 . S
H393 C373 0.930 . S
H394 C374 0.929 . S
H395 C376 0.930 . S
H396 C378 0.932 . S
H397 C379 0.929 . S
H398 C380 0.928 . S
H399 C382 0.932 . S
C400 C401 1.264 . S
C400 C405 1.479 . S
C400 C410 1.465 . S
C401 C400 1.264 . S
C401 C403 1.339 . S
C401 H428 0.931 . S
C402 C403 1.395 . S
C402 C404 1.320 . S
C403 C401 1.339 . S
C403 C402 1.395 . S
C403 H429 0.929 . S
C404 C402 1.320 . S
C404 C405 1.405 . S
C404 H430 0.930 . S
C405 C400 1.479 . S
C405 C404 1.405 . S
C405 H431 0.931 . S
U406 O407 2.454 . S
U406 O408 2.458 . S
U406 C409 2.984 . S
U406 C410 2.847 . S
U406 C423 2.882 . S
U406 O424 2.441 . S
U406 O425 2.420 . S
U406 O426 2.455 . S
U406 O427 2.449 . S
O407 U406 2.454 . S
O407 C409 1.353 . S
O408 U406 2.458 . S
O408 C409 1.286 . S
C409 U406 2.984 . S
C409 O407 1.353 . S
C409 O408 1.286 . S
C409 C411 1.363 . S
C410 C400 1.465 . S
C410 U406 2.847 . S
C410 O424 1.249 . S
C410 O425 1.202 . S
C411 C409 1.363 . S
C411 C413 1.408 . S
C411 C416 1.342 . S
C412 C413 1.310 . S
C412 C415 1.461 . S
C412 H432 0.932 . S
C413 C411 1.408 . S
C413 C412 1.310 . S
C413 H433 0.930 . S
C414 C415 1.474 . S
C414 C416 1.285 . S
C414 H434 0.929 . S
C415 C412 1.461 . S
C415 C414 1.474 . S
C416 C411 1.342 . S
C416 C414 1.285 . S
C416 H435 0.930 . S
C417 C420 1.424 . S
C417 C422 1.245 . S
C417 C423 1.428 . S
C418 C421 1.260 . S
C418 C422 1.477 . S
C418 H436 0.932 . S
C419 C420 1.384 . S
C419 C421 1.479 . S
C419 H437 0.929 . S
C420 C417 1.424 . S
C420 C419 1.384 . S
C420 H438 0.928 . S
C421 C418 1.260 . S
C421 C419 1.479 . S
C422 C417 1.245 . S
C422 C418 1.477 . S
C422 H439 0.932 . S
C423 U406 2.882 . S
C423 C417 1.428 . S
C423 O426 1.301 . S
C423 O427 1.282 . S
O424 U406 2.441 . S
O424 C410 1.249 . S
O425 U406 2.420 . S
O425 C410 1.202 . S
O426 U406 2.455 . S
O426 C423 1.301 . S
O427 U406 2.449 . S
O427 C423 1.282 . S
H428 C401 0.931 . S
H429 C403 0.929 . S
H430 C404 0.930 . S
H431 C405 0.931 . S
H432 C412 0.932 . S
H433 C413 0.930 . S
H434 C414 0.929 . S
H435 C416 0.930 . S
H436 C418 0.932 . S
H437 C419 0.929 . S
H438 C420 0.928 . S
H439 C422 0.932 . S
C440 C441 1.264 . S
C440 C445 1.479 . S
C440 C450 1.465 . S
C441 C440 1.264 . S
C441 C443 1.339 . S
C441 H468 0.931 . S
C442 C443 1.395 . S
C442 C444 1.320 . S
C443 C441 1.339 . S
C443 C442 1.395 . S
C443 H469 0.929 . S
C444 C442 1.320 . S
C444 C445 1.405 . S
C444 H470 0.930 . S
C445 C440 1.479 . S
C445 C444 1.405 . S
C445 H471 0.931 . S
U446 O447 2.454 . S
U446 O448 2.458 . S
U446 C449 2.984 . S
U446 C450 2.847 . S
U446 C463 2.882 . S
U446 O464 2.441 . S
U446 O465 2.420 . S
U446 O466 2.455 . S
U446 O467 2.449 . S
O447 U446 2.454 . S
O447 C449 1.353 . S
O448 U446 2.458 . S
O448 C449 1.286 . S
C449 U446 2.984 . S
C449 O447 1.353 . S
C449 O448 1.286 . S
C449 C451 1.363 . S
C450 C440 1.465 . S
C450 U446 2.847 . S
C450 O464 1.249 . S
C450 O465 1.202 . S
C451 C449 1.363 . S
C451 C453 1.408 . S
C451 C456 1.342 . S
C452 C453 1.310 . S
C452 C455 1.461 . S
C452 H472 0.932 . S
C453 C451 1.408 . S
C453 C452 1.310 . S
C453 H473 0.930 . S
C454 C455 1.474 . S
C454 C456 1.285 . S
C454 H474 0.929 . S
C455 C452 1.461 . S
C455 C454 1.474 . S
C456 C451 1.342 . S
C456 C454 1.285 . S
C456 H475 0.930 . S
C457 C460 1.424 . S
C457 C462 1.245 . S
C457 C463 1.428 . S
C458 C461 1.260 . S
C458 C462 1.477 . S
C458 H476 0.932 . S
C459 C460 1.384 . S
C459 C461 1.479 . S
C459 H477 0.929 . S
C460 C457 1.424 . S
C460 C459 1.384 . S
C460 H478 0.928 . S
C461 C458 1.260 . S
C461 C459 1.479 . S
C462 C457 1.245 . S
C462 C458 1.477 . S
C462 H479 0.932 . S
C463 U446 2.882 . S
C463 C457 1.428 . S
C463 O466 1.301 . S
C463 O467 1.282 . S
O464 U446 2.441 . S
O464 C450 1.249 . S
O465 U446 2.420 . S
O465 C450 1.202 . S
O466 U446 2.455 . S
O466 C463 1.301 . S
O467 U446 2.449 . S
O467 C463 1.282 . S
H468 C441 0.931 . S
H469 C443 0.929 . S
H470 C444 0.930 . S
H471 C445 0.931 . S
H472 C452 0.932 . S
H473 C453 0.930 . S
H474 C454 0.929 . S
H475 C456 0.930 . S
H476 C458 0.932 . S
H477 C459 0.929 . S
H478 C460 0.928 . S
H479 C462 0.932 . S
H480 C488 0.929 . S
H481 C490 0.930 . S
H482 C492 0.930 . S
H483 C495 0.929 . S
H484 C498 0.930 . S
H485 C500 0.960 . S
H486 C500 0.960 . S
H487 C500 0.960 . S
C488 H480 0.929 . S
C488 C489 1.377 . S
C488 C490 1.384 . S
C489 C488 1.377 . S
C489 C495 1.390 . S
C490 H481 0.930 . S
C490 C488 1.384 . S
C490 C491 1.372 . S
C491 C490 1.372 . S
C491 C492 1.400 . S
C491 C496 1.490 . S
C492 H482 0.930 . S
C492 C491 1.400 . S
C492 C495 1.386 . S
H493 C509 0.930 . S
H494 C510 0.931 . S
C495 H483 0.929 . S
C495 C489 1.390 . S
C495 C492 1.386 . S
C496 C491 1.490 . S
C496 C498 1.395 . S
C496 C499 1.403 . S
H497 C503 0.930 . S
C498 H484 0.930 . S
C498 C496 1.395 . S
C498 C501 1.403 . S
C499 C496 1.403 . S
C499 C500 1.524 . S
C499 C503 1.400 . S
C500 H485 0.960 . S
C500 H486 0.960 . S
C500 H487 0.960 . S
C500 C499 1.524 . S
C501 C498 1.403 . S
C501 C502 1.392 . S
C501 C505 1.495 . S
C502 C501 1.392 . S
C502 C503 1.385 . S
C502 C504 1.478 . S
C503 H497 0.930 . S
C503 C499 1.400 . S
C503 C502 1.385 . S
C504 C502 1.478 . S
C504 C506 1.381 . S
C504 C510 1.383 . S
C505 C501 1.495 . S
C505 H511 0.959 . S
C505 H512 0.961 . S
C505 H513 0.960 . S
C506 C504 1.381 . S
C506 C507 1.394 . S
C506 H514 0.930 . S
C507 C506 1.394 . S
C507 C508 1.383 . S
C507 H515 0.929 . S
C508 C507 1.383 . S
C508 C509 1.377 . S
C509 H493 0.930 . S
C509 C508 1.377 . S
C509 C510 1.379 . S
C510 H494 0.931 . S
C510 C504 1.383 . S
C510 C509 1.379 . S
H511 C505 0.959 . S
H512 C505 0.961 . S
H513 C505 0.960 . S
H514 C506 0.930 . S
H515 C507 0.929 . S
H516 C524 0.929 . S
H517 C526 0.930 . S
H518 C528 0.930 . S
H519 C531 0.929 . S
H520 C534 0.930 . S
H521 C536 0.960 . S
H522 C536 0.960 . S
H523 C536 0.960 . S
C524 H516 0.929 . S
C524 C525 1.377 . S
C524 C526 1.384 . S
C525 C524 1.377 . S
C525 C531 1.390 . S
C526 H517 0.930 . S
C526 C524 1.384 . S
C526 C527 1.372 . S
C527 C526 1.372 . S
C527 C528 1.400 . S
C527 C532 1.490 . S
C528 H518 0.930 . S
C528 C527 1.400 . S
C528 C531 1.386 . S
H529 C545 0.930 . S
H530 C546 0.931 . S
C531 H519 0.929 . S
C531 C525 1.390 . S
C531 C528 1.386 . S
C532 C527 1.490 . S
C532 C534 1.395 . S
C532 C535 1.403 . S
H533 C539 0.930 . S
C534 H520 0.930 . S
C534 C532 1.395 . S
C534 C537 1.403 . S
C535 C532 1.403 . S
C535 C536 1.524 . S
C535 C539 1.400 . S
C536 H521 0.960 . S
C536 H522 0.960 . S
C536 H523 0.960 . S
C536 C535 1.524 . S
C537 C534 1.403 . S
C537 C538 1.392 . S
C537 C541 1.495 . S
C538 C537 1.392 . S
C538 C539 1.385 . S
C538 C540 1.478 . S
C539 H533 0.930 . S
C539 C535 1.400 . S
C539 C538 1.385 . S
C540 C538 1.478 . S
C540 C542 1.381 . S
C540 C546 1.383 . S
C541 C537 1.495 . S
C541 H547 0.959 . S
C541 H548 0.961 . S
C541 H549 0.960 . S
C542 C540 1.381 . S
C542 C543 1.394 . S
C542 H550 0.930 . S
C543 C542 1.394 . S
C543 C544 1.383 . S
C543 H551 0.929 . S
C544 C543 1.383 . S
C544 C545 1.377 . S
C545 H529 0.930 . S
C545 C544 1.377 . S
C545 C546 1.379 . S
C546 H530 0.931 . S
C546 C540 1.383 . S
C546 C545 1.379 . S
H547 C541 0.959 . S
H548 C541 0.961 . S
H549 C541 0.960 . S
H550 C542 0.930 . S
H551 C543 0.929 . S
H552 C560 0.929 . S
H553 C562 0.930 . S
H554 C564 0.930 . S
H555 C567 0.929 . S
H556 C570 0.930 . S
H557 C572 0.960 . S
H558 C572 0.960 . S
H559 C572 0.960 . S
C560 H552 0.929 . S
C560 C561 1.377 . S
C560 C562 1.384 . S
C561 C560 1.377 . S
C561 C567 1.390 . S
C562 H553 0.930 . S
C562 C560 1.384 . S
C562 C563 1.372 . S
C563 C562 1.372 . S
C563 C564 1.400 . S
C563 C568 1.490 . S
C564 H554 0.930 . S
C564 C563 1.400 . S
C564 C567 1.386 . S
H565 C581 0.930 . S
H566 C582 0.931 . S
C567 H555 0.929 . S
C567 C561 1.390 . S
C567 C564 1.386 . S
C568 C563 1.490 . S
C568 C570 1.395 . S
C568 C571 1.403 . S
H569 C575 0.930 . S
C570 H556 0.930 . S
C570 C568 1.395 . S
C570 C573 1.403 . S
C571 C568 1.403 . S
C571 C572 1.524 . S
C571 C575 1.400 . S
C572 H557 0.960 . S
C572 H558 0.960 . S
C572 H559 0.960 . S
C572 C571 1.524 . S
C573 C570 1.403 . S
C573 C574 1.392 . S
C573 C577 1.495 . S
C574 C573 1.392 . S
C574 C575 1.385 . S
C574 C576 1.478 . S
C575 H569 0.930 . S
C575 C571 1.400 . S
C575 C574 1.385 . S
C576 C574 1.478 . S
C576 C578 1.381 . S
C576 C582 1.383 . S
C577 C573 1.495 . S
C577 H583 0.959 . S
C577 H584 0.961 . S
C577 H585 0.960 . S
C578 C576 1.381 . S
C578 C579 1.394 . S
C578 H586 0.930 . S
C579 C578 1.394 . S
C579 C580 1.383 . S
C579 H587 0.929 . S
C580 C579 1.383 . S
C580 C581 1.377 . S
C581 H565 0.930 . S
C581 C580 1.377 . S
C581 C582 1.379 . S
C582 H566 0.931 . S
C582 C576 1.383 . S
C582 C581 1.379 . S
H583 C577 0.959 . S
H584 C577 0.961 . S
H585 C577 0.960 . S
H586 C578 0.930 . S
H587 C579 0.929 . S
H588 C596 0.929 . S
H589 C598 0.930 . S
H590 C600 0.930 . S
H591 C603 0.929 . S
H592 C606 0.930 . S
H593 C608 0.960 . S
H594 C608 0.960 . S
H595 C608 0.960 . S
C596 H588 0.929 . S
C596 C597 1.377 . S
C596 C598 1.384 . S
C597 C596 1.377 . S
C597 C603 1.390 . S
C598 H589 0.930 . S
C598 C596 1.384 . S
C598 C599 1.372 . S
C599 C598 1.372 . S
C599 C600 1.400 . S
C599 C604 1.490 . S
C600 H590 0.930 . S
C600 C599 1.400 . S
C600 C603 1.386 . S
H601 C617 0.930 . S
H602 C618 0.931 . S
C603 H591 0.929 . S
C603 C597 1.390 . S
C603 C600 1.386 . S
C604 C599 1.490 . S
C604 C606 1.395 . S
C604 C607 1.403 . S
H605 C611 0.930 . S
C606 H592 0.930 . S
C606 C604 1.395 . S
C606 C609 1.403 . S
C607 C604 1.403 . S
C607 C608 1.524 . S
C607 C611 1.400 . S
C608 H593 0.960 . S
C608 H594 0.960 . S
C608 H595 0.960 . S
C608 C607 1.524 . S
C609 C606 1.403 . S
C609 C610 1.392 . S
C609 C613 1.495 . S
C610 C609 1.392 . S
C610 C611 1.385 . S
C610 C612 1.478 . S
C611 H605 0.930 . S
C611 C607 1.400 . S
C611 C610 1.385 . S
C612 C610 1.478 . S
C612 C614 1.381 . S
C612 C618 1.383 . S
C613 C609 1.495 . S
C613 H619 0.959 . S
C613 H620 0.961 . S
C613 H621 0.960 . S
C614 C612 1.381 . S
C614 C615 1.394 . S
C614 H622 0.930 . S
C615 C614 1.394 . S
C615 C616 1.383 . S
C615 H623 0.929 . S
C616 C615 1.383 . S
C616 C617 1.377 . S
C617 H601 0.930 . S
C617 C616 1.377 . S
C617 C618 1.379 . S
C618 H602 0.931 . S
C618 C612 1.383 . S
C618 C617 1.379 . S
H619 C613 0.959 . S
H620 C613 0.961 . S
H621 C613 0.960 . S
H622 C614 0.930 . S
H623 C615 0.929 . S
H624 C632 0.929 . S
H625 C634 0.930 . S
H626 C636 0.930 . S
H627 C639 0.929 . S
H628 C642 0.930 . S
H629 C644 0.960 . S
H630 C644 0.960 . S
H631 C644 0.960 . S
C632 H624 0.929 . S
C632 C633 1.377 . S
C632 C634 1.384 . S
C633 C632 1.377 . S
C633 C639 1.390 . S
C634 H625 0.930 . S
C634 C632 1.384 . S
C634 C635 1.372 . S
C635 C634 1.372 . S
C635 C636 1.400 . S
C635 C640 1.490 . S
C636 H626 0.930 . S
C636 C635 1.400 . S
C636 C639 1.386 . S
H637 C653 0.930 . S
H638 C654 0.931 . S
C639 H627 0.929 . S
C639 C633 1.390 . S
C639 C636 1.386 . S
C640 C635 1.490 . S
C640 C642 1.395 . S
C640 C643 1.403 . S
H641 C647 0.930 . S
C642 H628 0.930 . S
C642 C640 1.395 . S
C642 C645 1.403 . S
C643 C640 1.403 . S
C643 C644 1.524 . S
C643 C647 1.400 . S
C644 H629 0.960 . S
C644 H630 0.960 . S
C644 H631 0.960 . S
C644 C643 1.524 . S
C645 C642 1.403 . S
C645 C646 1.392 . S
C645 C649 1.495 . S
C646 C645 1.392 . S
C646 C647 1.385 . S
C646 C648 1.478 . S
C647 H641 0.930 . S
C647 C643 1.400 . S
C647 C646 1.385 . S
C648 C646 1.478 . S
C648 C650 1.381 . S
C648 C654 1.383 . S
C649 C645 1.495 . S
C649 H655 0.959 . S
C649 H656 0.961 . S
C649 H657 0.960 . S
C650 C648 1.381 . S
C650 C651 1.394 . S
C650 H658 0.930 . S
C651 C650 1.394 . S
C651 C652 1.383 . S
C651 H659 0.929 . S
C652 C651 1.383 . S
C652 C653 1.377 . S
C653 H637 0.930 . S
C653 C652 1.377 . S
C653 C654 1.379 . S
C654 H638 0.931 . S
C654 C648 1.383 . S
C654 C653 1.379 . S
H655 C649 0.959 . S
H656 C649 0.961 . S
H657 C649 0.960 . S
H658 C650 0.930 . S
H659 C651 0.929 . S
H660 C668 0.929 . S
H661 C670 0.930 . S
H662 C672 0.930 . S
H663 C675 0.929 . S
H664 C678 0.930 . S
H665 C680 0.960 . S
H666 C680 0.960 . S
H667 C680 0.960 . S
C668 H660 0.929 . S
C668 C669 1.377 . S
C668 C670 1.384 . S
C669 C668 1.377 . S
C669 C675 1.390 . S
C670 H661 0.930 . S
C670 C668 1.384 . S
C670 C671 1.372 . S
C671 C670 1.372 . S
C671 C672 1.400 . S
C671 C676 1.490 . S
C672 H662 0.930 . S
C672 C671 1.400 . S
C672 C675 1.386 . S
H673 C689 0.930 . S
H674 C690 0.931 . S
C675 H663 0.929 . S
C675 C669 1.390 . S
C675 C672 1.386 . S
C676 C671 1.490 . S
C676 C678 1.395 . S
C676 C679 1.403 . S
H677 C683 0.930 . S
C678 H664 0.930 . S
C678 C676 1.395 . S
C678 C681 1.403 . S
C679 C676 1.403 . S
C679 C680 1.524 . S
C679 C683 1.400 . S
C680 H665 0.960 . S
C680 H666 0.960 . S
C680 H667 0.960 . S
C680 C679 1.524 . S
C681 C678 1.403 . S
C681 C682 1.392 . S
C681 C685 1.495 . S
C682 C681 1.392 . S
C682 C683 1.385 . S
C682 C684 1.478 . S
C683 H677 0.930 . S
C683 C679 1.400 . S
C683 C682 1.385 . S
C684 C682 1.478 . S
C684 C686 1.381 . S
C684 C690 1.383 . S
C685 C681 1.495 . S
C685 H691 0.959 . S
C685 H692 0.961 . S
C685 H693 0.960 . S
C686 C684 1.381 . S
C686 C687 1.394 . S
C686 H694 0.930 . S
C687 C686 1.394 . S
C687 C688 1.383 . S
C687 H695 0.929 . S
C688 C687 1.383 . S
C688 C689 1.377 . S
C689 H673 0.930 . S
C689 C688 1.377 . S
C689 C690 1.379 . S
C690 H674 0.931 . S
C690 C684 1.383 . S
C690 C689 1.379 . S
H691 C685 0.959 . S
H692 C685 0.961 . S
H693 C685 0.960 . S
H694 C686 0.930 . S
H695 C687 0.929 . S
H696 C704 0.929 . S
H697 C706 0.930 . S
H698 C708 0.930 . S
H699 C711 0.929 . S
H700 C714 0.930 . S
H701 C716 0.960 . S
H702 C716 0.960 . S
H703 C716 0.960 . S
C704 H696 0.929 . S
C704 C705 1.377 . S
C704 C706 1.384 . S
C705 C704 1.377 . S
C705 C711 1.390 . S
C706 H697 0.930 . S
C706 C704 1.384 . S
C706 C707 1.372 . S
C707 C706 1.372 . S
C707 C708 1.400 . S
C707 C712 1.490 . S
C708 H698 0.930 . S
C708 C707 1.400 . S
C708 C711 1.386 . S
H709 C725 0.930 . S
H710 C726 0.931 . S
C711 H699 0.929 . S
C711 C705 1.390 . S
C711 C708 1.386 . S
C712 C707 1.490 . S
C712 C714 1.395 . S
C712 C715 1.403 . S
H713 C719 0.930 . S
C714 H700 0.930 . S
C714 C712 1.395 . S
C714 C717 1.403 . S
C715 C712 1.403 . S
C715 C716 1.524 . S
C715 C719 1.400 . S
C716 H701 0.960 . S
C716 H702 0.960 . S
C716 H703 0.960 . S
C716 C715 1.524 . S
C717 C714 1.403 . S
C717 C718 1.392 . S
C717 C721 1.495 . S
C718 C717 1.392 . S
C718 C719 1.385 . S
C718 C720 1.478 . S
C719 H713 0.930 . S
C719 C715 1.400 . S
C719 C718 1.385 . S
C720 C718 1.478 . S
C720 C722 1.381 . S
C720 C726 1.383 . S
C721 C717 1.495 . S
C721 H727 0.959 . S
C721 H728 0.961 . S
C721 H729 0.960 . S
C722 C720 1.381 . S
C722 C723 1.394 . S
C722 H730 0.930 . S
C723 C722 1.394 . S
C723 C724 1.383 . S
C723 H731 0.929 . S
C724 C723 1.383 . S
C724 C725 1.377 . S
C725 H709 0.930 . S
C725 C724 1.377 . S
C725 C726 1.379 . S
C726 H710 0.931 . S
C726 C720 1.383 . S
C726 C725 1.379 . S
H727 C721 0.959 . S
H728 C721 0.961 . S
H729 C721 0.960 . S
H730 C722 0.930 . S
H731 C723 0.929 . S
H732 C740 0.929 . S
H733 C742 0.930 . S
H734 C744 0.930 . S
H735 C747 0.929 . S
H736 C750 0.930 . S
H737 C752 0.960 . S
H738 C752 0.960 . S
H739 C752 0.960 . S
C740 H732 0.929 . S
C740 C741 1.377 . S
C740 C742 1.384 . S
C741 C740 1.377 . S
C741 C747 1.390 . S
C742 H733 0.930 . S
C742 C740 1.384 . S
C742 C743 1.372 . S
C743 C742 1.372 . S
C743 C744 1.400 . S
C743 C748 1.490 . S
C744 H734 0.930 . S
C744 C743 1.400 . S
C744 C747 1.386 . S
H745 C761 0.930 . S
H746 C762 0.931 . S
C747 H735 0.929 . S
C747 C741 1.390 . S
C747 C744 1.386 . S
C748 C743 1.490 . S
C748 C750 1.395 . S
C748 C751 1.403 . S
H749 C755 0.930 . S
C750 H736 0.930 . S
C750 C748 1.395 . S
C750 C753 1.403 1_655 S
C751 C748 1.403 . S
C751 C752 1.524 . S
C751 C755 1.400 1_655 S
C752 H737 0.960 . S
C752 H738 0.960 . S
C752 H739 0.960 . S
C752 C751 1.524 . S
C753 C750 1.403 1_455 S
C753 C754 1.392 . S
C753 C757 1.495 . S
C754 C753 1.392 . S
C754 C755 1.385 . S
C754 C756 1.478 . S
C755 H749 0.930 . S
C755 C751 1.400 1_455 S
C755 C754 1.385 . S
C756 C754 1.478 . S
C756 C758 1.381 . S
C756 C762 1.383 . S
C757 C753 1.495 . S
C757 H763 0.959 . S
C757 H764 0.961 . S
C757 H765 0.960 . S
C758 C756 1.381 . S
C758 C759 1.394 . S
C758 H766 0.930 . S
C759 C758 1.394 . S
C759 C760 1.383 . S
C759 H767 0.929 . S
C760 C759 1.383 . S
C760 C761 1.377 . S
C761 H745 0.930 . S
C761 C760 1.377 . S
C761 C762 1.379 . S
C762 H746 0.931 . S
C762 C756 1.383 . S
C762 C761 1.379 . S
H763 C757 0.959 . S
H764 C757 0.961 . S
H765 C757 0.960 . S
H766 C758 0.930 . S
H767 C759 0.929 . S
H768 C776 0.929 . S
H769 C778 0.930 . S
H770 C780 0.930 . S
H771 C783 0.929 . S
H772 C786 0.930 . S
H773 C788 0.960 . S
H774 C788 0.960 . S
H775 C788 0.960 . S
C776 H768 0.929 . S
C776 C777 1.377 . S
C776 C778 1.384 . S
C777 C776 1.377 . S
C777 C783 1.390 . S
C778 H769 0.930 . S
C778 C776 1.384 . S
C778 C779 1.372 . S
C779 C778 1.372 . S
C779 C780 1.400 . S
C779 C784 1.490 . S
C780 H770 0.930 . S
C780 C779 1.400 . S
C780 C783 1.386 . S
H781 C797 0.930 . S
H782 C798 0.931 . S
C783 H771 0.929 . S
C783 C777 1.390 . S
C783 C780 1.386 . S
C784 C779 1.490 . S
C784 C786 1.395 . S
C784 C787 1.403 . S
H785 C791 0.930 . S
C786 H772 0.930 . S
C786 C784 1.395 . S
C786 C789 1.403 1_565 S
C787 C784 1.403 . S
C787 C788 1.524 . S
C787 C791 1.400 1_565 S
C788 H773 0.960 . S
C788 H774 0.960 . S
C788 H775 0.960 . S
C788 C787 1.524 . S
C789 C786 1.403 1_545 S
C789 C790 1.392 . S
C789 C793 1.495 . S
C790 C789 1.392 . S
C790 C791 1.385 . S
C790 C792 1.478 . S
C791 H785 0.930 . S
C791 C787 1.400 1_545 S
C791 C790 1.385 . S
C792 C790 1.478 . S
C792 C794 1.381 . S
C792 C798 1.383 . S
C793 C789 1.495 . S
C793 H799 0.959 . S
C793 H800 0.961 . S
C793 H801 0.960 . S
C794 C792 1.381 . S
C794 C795 1.394 . S
C794 H802 0.930 . S
C795 C794 1.394 . S
C795 C796 1.383 . S
C795 H803 0.929 . S
C796 C795 1.383 . S
C796 C797 1.377 . S
C797 H781 0.930 . S
C797 C796 1.377 . S
C797 C798 1.379 . S
C798 H782 0.931 . S
C798 C792 1.383 . S
C798 C797 1.379 . S
H799 C793 0.959 . S
H800 C793 0.961 . S
H801 C793 0.960 . S
H802 C794 0.930 . S
H803 C795 0.929 . S
H804 C812 0.929 . S
H805 C814 0.930 . S
H806 C816 0.930 . S
H807 C819 0.929 . S
H808 C822 0.930 . S
H809 C824 0.960 . S
H810 C824 0.960 . S
H811 C824 0.960 . S
C812 H804 0.929 . S
C812 C813 1.377 . S
C812 C814 1.384 . S
C813 C812 1.377 . S
C813 C819 1.390 . S
C814 H805 0.930 . S
C814 C812 1.384 . S
C814 C815 1.372 . S
C815 C814 1.372 . S
C815 C816 1.400 . S
C815 C820 1.490 . S
C816 H806 0.930 . S
C816 C815 1.400 . S
C816 C819 1.386 . S
H817 C833 0.930 . S
H818 C834 0.931 . S
C819 H807 0.929 . S
C819 C813 1.390 . S
C819 C816 1.386 . S
C820 C815 1.490 . S
C820 C822 1.395 . S
C820 C823 1.403 . S
H821 C827 0.930 . S
C822 H808 0.930 . S
C822 C820 1.395 . S
C822 C825 1.403 . S
C823 C820 1.403 . S
C823 C824 1.524 . S
C823 C827 1.400 . S
C824 H809 0.960 . S
C824 H810 0.960 . S
C824 H811 0.960 . S
C824 C823 1.524 . S
C825 C822 1.403 . S
C825 C826 1.392 . S
C825 C829 1.495 . S
C826 C825 1.392 . S
C826 C827 1.385 . S
C826 C828 1.478 . S
C827 H821 0.930 . S
C827 C823 1.400 . S
C827 C826 1.385 . S
C828 C826 1.478 . S
C828 C830 1.381 . S
C828 C834 1.383 . S
C829 C825 1.495 . S
C829 H835 0.959 . S
C829 H836 0.961 . S
C829 H837 0.960 . S
C830 C828 1.381 . S
C830 C831 1.394 . S
C830 H838 0.930 . S
C831 C830 1.394 . S
C831 C832 1.383 . S
C831 H839 0.929 . S
C832 C831 1.383 . S
C832 C833 1.377 . S
C833 H817 0.930 . S
C833 C832 1.377 . S
C833 C834 1.379 . S
C834 H818 0.931 . S
C834 C828 1.383 . S
C834 C833 1.379 . S
H835 C829 0.959 . S
H836 C829 0.961 . S
H837 C829 0.960 . S
H838 C830 0.930 . S
H839 C831 0.929 . S
H840 C848 0.929 . S
H841 C850 0.930 . S
H842 C852 0.930 . S
H843 C855 0.929 . S
H844 C858 0.930 . S
H845 C860 0.960 . S
H846 C860 0.960 . S
H847 C860 0.960 . S
C848 H840 0.929 . S
C848 C849 1.377 . S
C848 C850 1.384 . S
C849 C848 1.377 . S
C849 C855 1.390 . S
C850 H841 0.930 . S
C850 C848 1.384 . S
C850 C851 1.372 . S
C851 C850 1.372 . S
C851 C852 1.400 . S
C851 C856 1.490 . S
C852 H842 0.930 . S
C852 C851 1.400 . S
C852 C855 1.386 . S
H853 C869 0.930 . S
H854 C870 0.931 . S
C855 H843 0.929 . S
C855 C849 1.390 . S
C855 C852 1.386 . S
C856 C851 1.490 . S
C856 C858 1.395 . S
C856 C859 1.403 . S
H857 C863 0.930 . S
C858 H844 0.930 . S
C858 C856 1.395 . S
C858 C861 1.403 1_655 S
C859 C856 1.403 . S
C859 C860 1.524 . S
C859 C863 1.400 1_655 S
C860 H845 0.960 . S
C860 H846 0.960 . S
C860 H847 0.960 . S
C860 C859 1.524 . S
C861 C858 1.403 1_455 S
C861 C862 1.392 . S
C861 C865 1.495 . S
C862 C861 1.392 . S
C862 C863 1.385 . S
C862 C864 1.478 . S
C863 H857 0.930 . S
C863 C859 1.400 1_455 S
C863 C862 1.385 . S
C864 C862 1.478 . S
C864 C866 1.381 . S
C864 C870 1.383 . S
C865 C861 1.495 . S
C865 H871 0.959 . S
C865 H872 0.961 . S
C865 H873 0.960 . S
C866 C864 1.381 . S
C866 C867 1.394 . S
C866 H874 0.930 . S
C867 C866 1.394 . S
C867 C868 1.383 . S
C867 H875 0.929 . S
C868 C867 1.383 . S
C868 C869 1.377 . S
C869 H853 0.930 . S
C869 C868 1.377 . S
C869 C870 1.379 . S
C870 H854 0.931 . S
C870 C864 1.383 . S
C870 C869 1.379 . S
H871 C865 0.959 . S
H872 C865 0.961 . S
H873 C865 0.960 . S
H874 C866 0.930 . S
H875 C867 0.929 . S
H876 C884 0.929 . S
H877 C886 0.936 . S
H878 C888 0.930 . S
H879 C891 0.929 . S
H880 C894 0.930 . S
H881 C896 0.960 . S
H882 C896 0.960 . S
H883 C896 0.960 . S
C884 H876 0.929 . S
C884 C885 1.377 . S
C884 C886 1.384 . S
C885 C884 1.377 . S
C885 C891 1.390 . S
C886 H877 0.936 . S
C886 C884 1.384 . S
C886 C887 1.372 . S
C887 C886 1.372 . S
C887 C888 1.400 . S
C887 C892 1.490 . S
C888 H878 0.930 . S
C888 C887 1.400 . S
C888 C891 1.386 . S
H889 C905 0.930 . S
H890 C906 0.931 1_556 S
C891 H879 0.929 . S
C891 C885 1.390 . S
C891 C888 1.386 . S
C892 C887 1.490 . S
C892 C894 1.395 . S
C892 C895 1.403 1_556 S
H893 C899 0.930 . S
C894 H880 0.930 . S
C894 C892 1.395 . S
C894 C897 1.403 1_545 S
C895 C892 1.403 1_554 S
C895 C896 1.524 . S
C895 C899 1.400 1_545 S
C896 H881 0.960 . S
C896 H882 0.960 . S
C896 H883 0.960 . S
C896 C895 1.524 . S
C897 C894 1.403 1_565 S
C897 C898 1.392 1_556 S
C897 C901 1.495 . S
C898 C897 1.392 1_554 S
C898 C899 1.385 . S
C898 C900 1.478 . S
C899 H893 0.930 . S
C899 C895 1.400 1_565 S
C899 C898 1.385 . S
C900 C898 1.478 . S
C900 C902 1.381 . S
C900 C906 1.383 . S
C901 C897 1.495 . S
C901 H907 0.959 . S
C901 H908 0.961 . S
C901 H909 0.960 . S
C902 C900 1.381 . S
C902 C903 1.394 . S
C902 H910 0.930 . S
C903 C902 1.394 . S
C903 C904 1.383 . S
C903 H911 0.929 . S
C904 C903 1.383 . S
C904 C905 1.377 . S
C905 H889 0.930 . S
C905 C904 1.377 . S
C905 C906 1.379 . S
C906 H890 0.931 1_554 S
C906 C900 1.383 . S
C906 C905 1.379 . S
H907 C901 0.959 . S
H908 C901 0.961 . S
H909 C901 0.960 . S
H910 C902 0.930 . S
H911 C903 0.929 . S
H912 C920 0.929 . S
H913 C922 0.930 . S
H914 C924 0.930 . S
H915 C927 0.929 . S
H916 C930 0.930 . S
H917 C932 0.960 . S
H918 C932 0.960 . S
H919 C932 0.960 . S
C920 H912 0.929 . S
C920 C921 1.377 . S
C920 C922 1.384 . S
C921 C920 1.377 . S
C921 C927 1.390 . S
C922 H913 0.930 . S
C922 C920 1.384 . S
C922 C923 1.372 . S
C923 C922 1.372 . S
C923 C924 1.400 . S
C923 C928 1.490 . S
C924 H914 0.930 . S
C924 C923 1.400 . S
C924 C927 1.386 . S
H925 C941 0.930 . S
H926 C942 0.931 . S
C927 H915 0.929 . S
C927 C921 1.390 . S
C927 C924 1.386 . S
C928 C923 1.490 . S
C928 C930 1.395 . S
C928 C931 1.403 . S
H929 C935 0.930 . S
C930 H916 0.930 . S
C930 C928 1.395 . S
C930 C933 1.403 . S
C931 C928 1.403 . S
C931 C932 1.524 . S
C931 C935 1.400 . S
C932 H917 0.960 . S
C932 H918 0.960 . S
C932 H919 0.960 . S
C932 C931 1.524 . S
C933 C930 1.403 . S
C933 C934 1.392 . S
C933 C937 1.495 . S
C934 C933 1.392 . S
C934 C935 1.385 . S
C934 C936 1.478 . S
C935 H929 0.930 . S
C935 C931 1.400 . S
C935 C934 1.385 . S
C936 C934 1.478 . S
C936 C938 1.381 . S
C936 C942 1.383 . S
C937 C933 1.495 . S
C937 H943 0.959 . S
C937 H944 0.961 . S
C937 H945 0.960 . S
C938 C936 1.381 . S
C938 C939 1.394 . S
C938 H946 0.930 . S
C939 C938 1.394 . S
C939 C940 1.383 . S
C939 H947 0.929 . S
C940 C939 1.383 . S
C940 C941 1.377 . S
C941 H925 0.930 . S
C941 C940 1.377 . S
C941 C942 1.379 . S
C942 H926 0.931 . S
C942 C936 1.383 . S
C942 C941 1.379 . S
H943 C937 0.959 . S
H944 C937 0.961 . S
H945 C937 0.960 . S
H946 C938 0.930 . S
H947 C939 0.929 . S
H948 C956 0.929 . S
H949 C958 0.930 . S
H950 C960 0.930 . S
H951 C963 0.929 . S
H952 C966 0.930 . S
H953 C968 0.960 . S
H954 C968 0.960 . S
H955 C968 0.960 . S
C956 H948 0.929 . S
C956 C957 1.377 . S
C956 C958 1.384 . S
C957 C956 1.377 . S
C957 C963 1.390 . S
C958 H949 0.930 . S
C958 C956 1.384 . S
C958 C959 1.372 . S
C959 C958 1.372 . S
C959 C960 1.400 . S
C959 C964 1.490 . S
C960 H950 0.930 . S
C960 C959 1.400 . S
C960 C963 1.386 . S
H961 C977 0.930 . S
H962 C978 0.931 . S
C963 H951 0.929 . S
C963 C957 1.390 . S
C963 C960 1.386 . S
C964 C959 1.490 . S
C964 C966 1.395 . S
C964 C967 1.403 . S
H965 C971 0.930 . S
C966 H952 0.930 . S
C966 C964 1.395 . S
C966 C969 1.403 . S
C967 C964 1.403 . S
C967 C968 1.524 . S
C967 C971 1.400 . S
C968 H953 0.960 . S
C968 H954 0.960 . S
C968 H955 0.960 . S
C968 C967 1.524 . S
C969 C966 1.403 . S
C969 C970 1.392 . S
C969 C973 1.495 . S
C970 C969 1.392 . S
C970 C971 1.385 . S
C970 C972 1.478 . S
C971 H965 0.930 . S
C971 C967 1.400 . S
C971 C970 1.385 . S
C972 C970 1.478 . S
C972 C974 1.381 . S
C972 C978 1.383 . S
C973 C969 1.495 . S
C973 H979 0.959 . S
C973 H980 0.961 . S
C973 H981 0.960 . S
C974 C972 1.381 . S
C974 C975 1.394 . S
C974 H982 0.930 . S
C975 C974 1.394 . S
C975 C976 1.383 . S
C975 H983 0.929 . S
C976 C975 1.383 . S
C976 C977 1.377 . S
C977 H961 0.930 . S
C977 C976 1.377 . S
C977 C978 1.379 . S
C978 H962 0.931 . S
C978 C972 1.383 . S
C978 C977 1.379 . S
H979 C973 0.959 . S
H980 C973 0.961 . S
H981 C973 0.960 . S
H982 C974 0.930 . S
H983 C975 0.929 . S
H984 C992 0.929 . S
H985 C994 0.930 . S
H986 C996 0.930 . S
H987 C999 0.929 . S
H988 C1002 0.930 . S
H989 C1004 0.960 . S
H990 C1004 0.960 . S
H991 C1004 0.960 . S
C992 H984 0.929 . S
C992 C993 1.377 . S
C992 C994 1.384 . S
C993 C992 1.377 . S
C993 C999 1.390 . S
C994 H985 0.930 . S
C994 C992 1.384 . S
C994 C995 1.372 . S
C995 C994 1.372 . S
C995 C996 1.400 . S
C995 C1000 1.490 . S
C996 H986 0.930 . S
C996 C995 1.400 . S
C996 C999 1.386 . S
H997 C1013 0.930 . S
H998 C1014 0.931 . S
C999 H987 0.929 . S
C999 C993 1.390 . S
C999 C996 1.386 . S
C1000 C995 1.490 . S
C1000 C1002 1.395 . S
C1000 C1003 1.403 . S
H1001 C1007 0.930 . S
C1002 H988 0.930 . S
C1002 C1000 1.395 . S
C1002 C1005 1.403 . S
C1003 C1000 1.403 . S
C1003 C1004 1.524 . S
C1003 C1007 1.400 . S
C1004 H989 0.960 . S
C1004 H990 0.960 . S
C1004 H991 0.960 . S
C1004 C1003 1.524 . S
C1005 C1002 1.403 . S
C1005 C1006 1.392 . S
C1005 C1009 1.495 . S
C1006 C1005 1.392 . S
C1006 C1007 1.385 . S
C1006 C1008 1.478 . S
C1007 H1001 0.930 . S
C1007 C1003 1.400 . S
C1007 C1006 1.385 . S
C1008 C1006 1.478 . S
C1008 C1010 1.381 . S
C1008 C1014 1.383 . S
C1009 C1005 1.495 . S
C1009 H1015 0.959 . S
C1009 H1016 0.961 . S
C1009 H1017 0.960 . S
C1010 C1008 1.381 . S
C1010 C1011 1.394 . S
C1010 H1018 0.930 . S
C1011 C1010 1.394 . S
C1011 C1012 1.383 . S
C1011 H1019 0.929 . S
C1012 C1011 1.383 . S
C1012 C1013 1.377 . S
C1013 H997 0.930 . S
C1013 C1012 1.377 . S
C1013 C1014 1.379 . S
C1014 H998 0.931 . S
C1014 C1008 1.383 . S
C1014 C1013 1.379 . S
H1015 C1009 0.959 . S
H1016 C1009 0.961 . S
H1017 C1009 0.960 . S
H1018 C1010 0.930 . S
H1019 C1011 0.929 . S
H1020 C1028 0.929 . S
H1021 C1030 0.930 . S
H1022 C1032 0.930 . S
H1023 C1035 0.929 . S
H1024 C1038 0.930 . S
H1025 C1040 0.960 . S
H1026 C1040 0.960 . S
H1027 C1040 0.960 . S
C1028 H1020 0.929 . S
C1028 C1029 1.377 . S
C1028 C1030 1.384 . S
C1029 C1028 1.377 . S
C1029 C1035 1.390 . S
C1030 H1021 0.930 . S
C1030 C1028 1.384 . S
C1030 C1031 1.372 . S
C1031 C1030 1.372 . S
C1031 C1032 1.400 . S
C1031 C1036 1.490 . S
C1032 H1022 0.930 . S
C1032 C1031 1.400 . S
C1032 C1035 1.386 . S
H1033 C1049 0.930 . S
H1034 C1050 0.931 . S
C1035 H1023 0.929 . S
C1035 C1029 1.390 . S
C1035 C1032 1.386 . S
C1036 C1031 1.490 . S
C1036 C1038 1.395 . S
C1036 C1039 1.403 . S
H1037 C1043 0.930 . S
C1038 H1024 0.930 . S
C1038 C1036 1.395 . S
C1038 C1041 1.403 . S
C1039 C1036 1.403 . S
C1039 C1040 1.524 . S
C1039 C1043 1.400 . S
C1040 H1025 0.960 . S
C1040 H1026 0.960 . S
C1040 H1027 0.960 . S
C1040 C1039 1.524 . S
C1041 C1038 1.403 . S
C1041 C1042 1.392 . S
C1041 C1045 1.495 . S
C1042 C1041 1.392 . S
C1042 C1043 1.385 . S
C1042 C1044 1.478 . S
C1043 H1037 0.930 . S
C1043 C1039 1.400 . S
C1043 C1042 1.385 . S
C1044 C1042 1.478 . S
C1044 C1046 1.381 . S
C1044 C1050 1.383 . S
C1045 C1041 1.495 . S
C1045 H1051 0.959 . S
C1045 H1052 0.961 . S
C1045 H1053 0.960 . S
C1046 C1044 1.381 . S
C1046 C1047 1.394 . S
C1046 H1054 0.930 . S
C1047 C1046 1.394 . S
C1047 C1048 1.383 . S
C1047 H1055 0.929 . S
C1048 C1047 1.383 . S
C1048 C1049 1.377 . S
C1049 H1033 0.930 . S
C1049 C1048 1.377 . S
C1049 C1050 1.379 . S
C1050 H1034 0.931 . S
C1050 C1044 1.383 . S
C1050 C1049 1.379 . S
H1051 C1045 0.959 . S
H1052 C1045 0.961 . S
H1053 C1045 0.960 . S
H1054 C1046 0.930 . S
H1055 C1047 0.929 . S
H1056 C1064 0.929 . S
H1057 C1066 0.930 . S
H1058 C1068 0.930 . S
H1059 C1071 0.929 . S
H1060 C1074 0.930 . S
H1061 C1076 0.960 . S
H1062 C1076 0.960 . S
H1063 C1076 0.960 . S
C1064 H1056 0.929 . S
C1064 C1065 1.377 . S
C1064 C1066 1.384 . S
C1065 C1064 1.377 . S
C1065 C1071 1.390 . S
C1066 H1057 0.930 . S
C1066 C1064 1.384 . S
C1066 C1067 1.372 . S
C1067 C1066 1.372 . S
C1067 C1068 1.400 . S
C1067 C1072 1.490 . S
C1068 H1058 0.930 . S
C1068 C1067 1.400 . S
C1068 C1071 1.386 . S
H1069 C1085 0.930 . S
H1070 C1086 0.931 . S
C1071 H1059 0.929 . S
C1071 C1065 1.390 . S
C1071 C1068 1.386 . S
C1072 C1067 1.490 . S
C1072 C1074 1.395 . S
C1072 C1075 1.403 . S
H1073 C1079 0.930 . S
C1074 H1060 0.930 . S
C1074 C1072 1.395 . S
C1074 C1077 1.403 . S
C1075 C1072 1.403 . S
C1075 C1076 1.524 . S
C1075 C1079 1.400 . S
C1076 H1061 0.960 . S
C1076 H1062 0.960 . S
C1076 H1063 0.960 . S
C1076 C1075 1.524 . S
C1077 C1074 1.403 . S
C1077 C1078 1.392 . S
C1077 C1081 1.495 . S
C1078 C1077 1.392 . S
C1078 C1079 1.385 . S
C1078 C1080 1.478 . S
C1079 H1073 0.930 . S
C1079 C1075 1.400 . S
C1079 C1078 1.385 . S
C1080 C1078 1.478 . S
C1080 C1082 1.381 . S
C1080 C1086 1.383 . S
C1081 C1077 1.495 . S
C1081 H1087 0.959 . S
C1081 H1088 0.961 . S
C1081 H1089 0.960 . S
C1082 C1080 1.381 . S
C1082 C1083 1.394 . S
C1082 H1090 0.930 . S
C1083 C1082 1.394 . S
C1083 C1084 1.383 . S
C1083 H1091 0.929 . S
C1084 C1083 1.383 . S
C1084 C1085 1.377 . S
C1085 H1069 0.930 . S
C1085 C1084 1.377 . S
C1085 C1086 1.379 . S
C1086 H1070 0.931 . S
C1086 C1080 1.383 . S
C1086 C1085 1.379 . S
H1087 C1081 0.959 . S
H1088 C1081 0.961 . S
H1089 C1081 0.960 . S
H1090 C1082 0.930 . S
H1091 C1083 0.929 . S
H1092 C1100 0.929 . S
H1093 C1102 0.930 . S
H1094 C1104 0.930 . S
H1095 C1107 0.929 . S
H1096 C1110 0.930 . S
H1097 C1112 0.960 . S
H1098 C1112 0.960 . S
H1099 C1112 0.960 . S
C1100 H1092 0.929 . S
C1100 C1101 1.377 . S
C1100 C1102 1.384 . S
C1101 C1100 1.377 . S
C1101 C1107 1.390 . S
C1102 H1093 0.930 . S
C1102 C1100 1.384 . S
C1102 C1103 1.372 . S
C1103 C1102 1.372 . S
C1103 C1104 1.400 . S
C1103 C1108 1.490 . S
C1104 H1094 0.930 . S
C1104 C1103 1.400 . S
C1104 C1107 1.386 . S
H1105 C1121 0.930 . S
H1106 C1122 0.931 . S
C1107 H1095 0.929 . S
C1107 C1101 1.390 . S
C1107 C1104 1.386 . S
C1108 C1103 1.490 . S
C1108 C1110 1.395 . S
C1108 C1111 1.403 . S
H1109 C1115 0.930 . S
C1110 H1096 0.930 . S
C1110 C1108 1.395 . S
C1110 C1113 1.403 . S
C1111 C1108 1.403 . S
C1111 C1112 1.524 . S
C1111 C1115 1.400 . S
C1112 H1097 0.960 . S
C1112 H1098 0.960 . S
C1112 H1099 0.960 . S
C1112 C1111 1.524 . S
C1113 C1110 1.403 . S
C1113 C1114 1.392 . S
C1113 C1117 1.495 . S
C1114 C1113 1.392 . S
C1114 C1115 1.385 . S
C1114 C1116 1.478 . S
C1115 H1109 0.930 . S
C1115 C1111 1.400 . S
C1115 C1114 1.385 . S
C1116 C1114 1.478 . S
C1116 C1118 1.381 . S
C1116 C1122 1.383 . S
C1117 C1113 1.495 . S
C1117 H1123 0.959 . S
C1117 H1124 0.961 . S
C1117 H1125 0.960 . S
C1118 C1116 1.381 . S
C1118 C1119 1.394 . S
C1118 H1126 0.930 . S
C1119 C1118 1.394 . S
C1119 C1120 1.383 . S
C1119 H1127 0.929 . S
C1120 C1119 1.383 . S
C1120 C1121 1.377 . S
C1121 H1105 0.930 . S
C1121 C1120 1.377 . S
C1121 C1122 1.379 . S
C1122 H1106 0.931 . S
C1122 C1116 1.383 . S
C1122 C1121 1.379 . S
H1123 C1117 0.959 . S
H1124 C1117 0.961 . S
H1125 C1117 0.960 . S
H1126 C1118 0.930 . S
H1127 C1119 0.929 . S
C489 C15 2.010 . S
C508 C415 2.006 . S
C525 C455 2.009 . S
C544 C55 2.014 . S
C561 C255 2.011 . S
C580 C95 2.015 . S
C597 C135 2.012 . S
C616 C295 2.009 . S
C633 C335 2.009 . S
C652 C175 2.014 . S
C669 C215 2.010 . S
C688 C375 2.015 . S
C705 C21 1.926 . S
C724 C381 1.918 . S
C741 C61 1.926 . S
C760 C421 1.927 . S
C777 C101 1.925 . S
C796 C461 1.923 . S
C813 C261 1.925 . S
C832 C141 1.917 . S
C849 C301 1.926 . S
C868 C181 1.926 . S
C885 C221 1.926 . S
C904 C341 1.925 . S
C921 C2 2.019 1_556 S
C940 C242 2.023 . S
C957 C282 2.019 1_554 S
C976 C42 2.007 . S
C993 C82 2.020 . S
C1012 C322 2.025 . S
C1029 C122 2.017 . S
C1048 C362 2.014 . S
C1065 C162 2.019 . S
C1084 C402 2.007 . S
C1101 C442 2.017 . S
C1120 C202 2.013 . S
