# Generated by pormake.
# Topology zfb, (5)-cn, num edge types: 1
# Building blocks:
#     Node 0, Type 0, BuildingBlock: XOMCOT_clean_sbu_1, # of connection points: 5
#     Node 1, Type 0, BuildingBlock: XOMCOT_clean_sbu_1, # of connection points: 5
#     Node 2, Type 0, BuildingBlock: XOMCOT_clean_sbu_1, # of connection points: 5
#     Node 3, Type 0, BuildingBlock: XOMCOT_clean_sbu_1, # of connection points: 5
#     Node 4, Type 0, BuildingBlock: XOMCOT_clean_sbu_1, # of connection points: 5
#     Node 5, Type 0, BuildingBlock: XOMCOT_clean_sbu_1, # of connection points: 5
#     Node 6, Type 0, BuildingBlock: XOMCOT_clean_sbu_1, # of connection points: 5
#     Node 7, Type 0, BuildingBlock: XOMCOT_clean_sbu_1, # of connection points: 5
#     Edge 8, Type (0, 0), BuildingBlock: OJICUG_clean_linker_0, # of connection points: 2
#     Edge 9, Type (0, 0), BuildingBlock: OJICUG_clean_linker_0, # of connection points: 2
#     Edge 10, Type (0, 0), BuildingBlock: OJICUG_clean_linker_0, # of connection points: 2
#     Edge 11, Type (0, 0), BuildingBlock: OJICUG_clean_linker_0, # of connection points: 2
#     Edge 12, Type (0, 0), BuildingBlock: OJICUG_clean_linker_0, # of connection points: 2
#     Edge 13, Type (0, 0), BuildingBlock: OJICUG_clean_linker_0, # of connection points: 2
#     Edge 14, Type (0, 0), BuildingBlock: OJICUG_clean_linker_0, # of connection points: 2
#     Edge 15, Type (0, 0), BuildingBlock: OJICUG_clean_linker_0, # of connection points: 2
#     Edge 16, Type (0, 0), BuildingBlock: OJICUG_clean_linker_0, # of connection points: 2
#     Edge 17, Type (0, 0), BuildingBlock: OJICUG_clean_linker_0, # of connection points: 2
#     Edge 18, Type (0, 0), BuildingBlock: OJICUG_clean_linker_0, # of connection points: 2
#     Edge 19, Type (0, 0), BuildingBlock: OJICUG_clean_linker_0, # of connection points: 2
#     Edge 20, Type (0, 0), BuildingBlock: OJICUG_clean_linker_0, # of connection points: 2
#     Edge 21, Type (0, 0), BuildingBlock: OJICUG_clean_linker_0, # of connection points: 2
#     Edge 22, Type (0, 0), BuildingBlock: OJICUG_clean_linker_0, # of connection points: 2
#     Edge 23, Type (0, 0), BuildingBlock: OJICUG_clean_linker_0, # of connection points: 2
#     Edge 24, Type (0, 0), BuildingBlock: OJICUG_clean_linker_0, # of connection points: 2
#     Edge 25, Type (0, 0), BuildingBlock: OJICUG_clean_linker_0, # of connection points: 2
#     Edge 26, Type (0, 0), BuildingBlock: OJICUG_clean_linker_0, # of connection points: 2
#     Edge 27, Type (0, 0), BuildingBlock: OJICUG_clean_linker_0, # of connection points: 2
# Relax obj value: 0.168
# Max RMSD: 0.182
# Mean RMSD: 0.182
data_MOF--net-zfb--node1-XOMCOT_clean_sbu_1--edge1-OJICUG_clean_linker_0
_symmetry_space_group_name_H-M    P1
_symmetry_Int_Tables_number       1
_symmetry_cell_setting            triclinic
loop_
_symmetry_equiv_pos_as_xyz
'x, y, z'
_cell_length_a     24.716326
_cell_length_b     24.728726
_cell_length_c     25.952765
_cell_angle_alpha  90.076608
_cell_angle_beta   90.101871
_cell_angle_gamma 90.039201
loop_
_atom_site_label
_atom_site_type_symbol
_atom_site_fract_x
_atom_site_fract_y
_atom_site_fract_z
_atom_type_partial_charge
C0 C 0.25284 0.38143 0.98206 0.0
C1 C 0.24495 0.37156 0.9305 0.0
N2 N 0.1916 0.36488 0.92211 0.0
N3 N 0.20473 0.38178 1.00642 0.0
C4 C 0.16797 0.37074 0.96895 0.0
H5 H 0.29134 0.38861 1.00073 0.0
Co6 Co 0.19958 0.39821 0.07684 0.0
C7 C 0.10288 0.46313 0.09045 0.0
O8 O 0.13236 0.4961 0.11866 0.0
N9 N 0.1951 0.41311 0.14998 0.0
C10 C 0.21132 0.43491 0.23222 0.0
C11 C 0.22817 0.44102 0.18207 0.0
C12 C 0.15827 0.39059 0.1825 0.0
N13 N 0.16752 0.40268 0.23271 0.0
O14 O 0.176 0.32664 0.08929 0.0
H15 H 0.26387 0.46304 0.17127 0.0
H16 H 0.12585 0.36447 0.16952 0.0
O17 O 0.12428 0.42123 0.06979 0.0
C18 C 0.2072 0.29632 0.11524 0.0
O19 O 0.25284 0.31596 0.13339 0.0
N20 N 0.22585 0.46778 0.06127 0.0
C21 C 0.26804 0.56852 1.03542 0.0
C22 C 0.21807 0.55146 1.01563 0.0
C23 C 0.1987 0.50038 1.02754 0.0
C24 C 0.27757 0.48053 0.07502 0.0
C25 C 0.29901 0.53152 0.06388 0.0
H26 H 0.16148 0.48735 1.00959 0.0
H27 H 0.30228 0.45105 0.09481 0.0
H28 H 0.12484 0.36802 0.97561 0.0
H29 H 0.27619 0.36858 0.90145 0.0
H30 H 0.23174 0.45071 0.26596 0.0
H31 H 0.19292 0.57773 0.99242 0.0
H32 H 0.33909 0.54192 0.07761 0.0
C33 C 0.60124 0.24843 0.48656 0.0
C34 C 0.61117 0.24038 0.4351 0.0
N35 N 0.61647 0.18693 0.42674 0.0
N36 N 0.59944 0.20035 0.51088 0.0
C37 C 0.60973 0.16337 0.47349 0.0
H38 H 0.59501 0.28706 0.50521 0.0
Co39 Co 0.58244 0.19652 0.5811 0.0
C40 C 0.51721 0.10022 0.59648 0.0
O41 O 0.48407 0.13053 0.62353 0.0
N42 N 0.56691 0.1938 0.65413 0.0
C43 C 0.54224 0.21178 0.73514 0.0
C44 C 0.53669 0.22655 0.6844 0.0
C45 C 0.59 0.15903 0.68837 0.0
N46 N 0.57639 0.16956 0.73799 0.0
O47 O 0.6539 0.17314 0.59455 0.0
H48 H 0.5126 0.2602 0.67189 0.0
H49 H 0.61821 0.12779 0.67709 0.0
O50 O 0.55926 0.12102 0.5755 0.0
C51 C 0.68469 0.20491 0.61946 0.0
O52 O 0.66539 0.25093 0.63685 0.0
N53 N 0.51306 0.22254 0.56418 0.0
C54 C 0.41304 0.26469 0.53565 0.0
C55 C 0.42979 0.21396 0.51766 0.0
C56 C 0.48054 0.19456 0.53087 0.0
C57 C 0.5007 0.2748 0.57609 0.0
C58 C 0.45003 0.29627 0.56365 0.0
H59 H 0.49341 0.15671 0.5142 0.0
H60 H 0.53012 0.29978 0.59583 0.0
H61 H 0.61128 0.12019 0.48013 0.0
H62 H 0.61517 0.27156 0.40611 0.0
H63 H 0.52294 0.23154 0.76744 0.0
H64 H 0.4035 0.18831 0.49486 0.0
H65 H 0.43983 0.33681 0.57609 0.0
C66 C 0.72503 0.61337 0.98915 0.0
C67 C 0.72802 0.62861 0.9385 0.0
N68 N 0.78026 0.6276 0.92375 0.0
N69 N 0.77497 0.60239 1.00696 0.0
C70 C 0.80818 0.6113 0.96613 0.0
H71 H 0.68861 0.61082 1.01207 0.0
Co72 Co 0.78261 0.58258 0.0762 0.0
C73 C 0.87837 0.51588 0.08536 0.0
O74 O 0.84858 0.48203 0.11212 0.0
N75 N 0.7891 0.56465 0.14863 0.0
C76 C 0.77421 0.54049 0.2304 0.0
C77 C 0.75663 0.53573 0.18028 0.0
C78 C 0.82645 0.58624 0.1814 0.0
N79 N 0.81794 0.57283 0.23138 0.0
O80 O 0.80751 0.65334 0.0908 0.0
H81 H 0.72072 0.51407 0.16933 0.0
H82 H 0.85853 0.61288 0.16881 0.0
O83 O 0.85743 0.55896 0.06651 0.0
C84 C 0.77732 0.68346 0.11802 0.0
O85 O 0.73208 0.6638 0.13685 0.0
N86 N 0.75479 0.51411 0.05839 0.0
C87 C 0.71208 0.4134 1.03298 0.0
C88 C 0.76088 0.43109 1.01126 0.0
C89 C 0.78045 0.48225 1.02301 0.0
C90 C 0.70353 0.50127 0.07327 0.0
C91 C 0.68189 0.45024 0.06242 0.0
H92 H 0.8171 0.49558 1.00437 0.0
H93 H 0.67968 0.53038 0.09448 0.0
H94 H 0.85177 0.6075 0.96781 0.0
H95 H 0.69415 0.63998 0.91435 0.0
H96 H 0.75417 0.52384 0.26386 0.0
H97 H 0.78529 0.40511 0.98709 0.0
H98 H 0.64252 0.43951 0.07753 0.0
C99 C 0.38027 0.72775 0.48351 0.0
C100 C 0.37101 0.73621 0.43197 0.0
N101 N 0.36507 0.78967 0.42415 0.0
N102 N 0.38097 0.7756 0.50841 0.0
C103 C 0.37074 0.81281 0.47129 0.0
H104 H 0.38687 0.68904 0.5018 0.0
Co105 Co 0.39703 0.77954 0.5789 0.0
C106 C 0.46229 0.87579 0.59499 0.0
O107 O 0.49515 0.84541 0.62234 0.0
N108 N 0.41154 0.78261 0.65199 0.0
C109 C 0.43236 0.76499 0.73412 0.0
C110 C 0.4381 0.74833 0.68382 0.0
C111 C 0.39001 0.8198 0.68475 0.0
N112 N 0.40164 0.80983 0.73488 0.0
O113 O 0.32511 0.80287 0.59147 0.0
H114 H 0.4588 0.71197 0.67269 0.0
H115 H 0.365 0.85309 0.67196 0.0
O116 O 0.42028 0.85511 0.57364 0.0
C117 C 0.29424 0.77202 0.61721 0.0
O118 O 0.31334 0.7264 0.63568 0.0
N119 N 0.46686 0.75366 0.56309 0.0
C120 C 0.56744 0.71201 0.5355 0.0
C121 C 0.5503 0.76239 0.51706 0.0
C122 C 0.49933 0.78151 0.5298 0.0
C123 C 0.47983 0.70179 0.57585 0.0
C124 C 0.53075 0.68061 0.56384 0.0
H125 H 0.4862 0.81903 0.51268 0.0
H126 H 0.45043 0.67654 0.59507 0.0
H127 H 0.36852 0.85589 0.47842 0.0
H128 H 0.36794 0.70529 0.40253 0.0
H129 H 0.44732 0.74386 0.76774 0.0
H130 H 0.57637 0.78792 0.49406 0.0
H131 H 0.5412 0.64025 0.57655 0.0
C132 C 0.75358 0.09895 0.17196 0.0
C133 C 0.74529 0.10813 0.22354 0.0
N134 N 0.69182 0.11385 0.23155 0.0
N135 N 0.7056 0.0981 0.14722 0.0
C136 C 0.6685 0.10814 0.18449 0.0
H137 H 0.79226 0.09252 0.15353 0.0
Co138 Co 0.70121 0.08209 0.07675 0.0
C139 C 0.60467 0.01696 0.06132 0.0
O140 O 0.63472 0.98398 1.03382 0.0
N141 N 0.6976 0.06755 1.00365 0.0
C142 C 0.71448 0.04623 0.9215 0.0
C143 C 0.73132 0.04038 0.97174 0.0
C144 C 0.6605 0.08946 0.97098 0.0
N145 N 0.67008 0.07758 0.92085 0.0
O146 O 0.67774 0.15389 0.06429 0.0
H147 H 0.76741 0.01911 0.98274 0.0
H148 H 0.62758 0.11492 0.98382 0.0
O149 O 0.62569 0.05886 0.08252 0.0
C150 C 0.70875 0.18456 1.03851 0.0
O151 O 0.75442 0.16531 1.0203 0.0
N152 N 0.72737 0.01245 0.09235 0.0
C153 C 0.7697 0.91185 0.11852 0.0
C154 C 0.71941 0.92854 0.13762 0.0
C155 C 0.69992 0.97955 0.12554 0.0
C156 C 0.77928 -1e-05 0.07926 0.0
C157 C 0.8008 0.94907 0.09052 0.0
H158 H 0.6624 -0.0077 0.14293 0.0
H159 H 0.80416 0.02969 0.06001 0.0
H160 H 0.62536 0.1102 0.17751 0.0
H161 H 0.77635 0.1113 0.25287 0.0
H162 H 0.73522 0.03088 0.88783 0.0
H163 H 0.69417 0.90202 0.16045 0.0
H164 H 0.84107 0.93892 0.07732 0.0
C165 C 0.86412 0.75319 0.65862 0.0
C166 C 0.84837 0.74995 0.7091 0.0
N167 N 0.85038 0.69781 0.72399 0.0
N168 N 0.87639 0.70349 0.64103 0.0
C169 C 0.86776 0.67018 0.68185 0.0
H170 H 0.86612 0.7896 0.63565 0.0
Co171 Co 0.89708 0.69661 0.57197 0.0
C172 C 0.96404 0.60112 0.5624 0.0
O173 O -0.00183 0.63128 0.53638 0.0
N174 N 0.91595 0.69106 0.49956 0.0
C175 C 0.94437 0.70631 0.41913 0.0
C176 C 0.94839 0.72212 0.46976 0.0
C177 C 0.8933 0.65602 0.46511 0.0
N178 N 0.9091 0.66502 0.41581 0.0
O179 O 0.8265 0.67175 0.55654 0.0
H180 H 0.97311 0.75528 0.48246 0.0
H181 H 0.86376 0.6258 0.47581 0.0
O182 O 0.92075 0.62176 0.58111 0.0
C183 C 0.79605 0.7027 0.53045 0.0
O184 O 0.81559 0.74833 0.5124 0.0
N185 N 0.96528 0.72443 0.59094 0.0
C186 C 0.06524 0.7675 0.61868 0.0
C187 C 0.04761 0.71815 0.63925 0.0
C188 C -0.00318 0.69836 0.62633 0.0
C189 C 0.97791 0.77609 0.57718 0.0
C190 C 0.02863 0.79791 0.58916 0.0
H191 H 0.9835 0.66128 0.64418 0.0
H192 H 0.94912 0.79987 0.55544 0.0
H193 H 0.87256 0.62671 0.68031 0.0
H194 H 0.83598 0.78359 0.73306 0.0
H195 H 0.96543 0.72473 0.38714 0.0
H196 H 0.07342 0.69353 0.66342 0.0
H197 H 0.03934 0.83757 0.57476 0.0
C198 C 0.23054 0.8803 0.16891 0.0
C199 C 0.23843 0.8704 0.2204 0.0
N200 N 0.29188 0.86516 0.22898 0.0
N201 N 0.27874 0.88212 0.14477 0.0
C202 C 0.31561 0.87191 0.18231 0.0
H203 H 0.19196 0.88644 0.1501 0.0
Co204 Co 0.28307 0.89899 0.07454 0.0
C205 C 0.37962 0.96415 0.05989 0.0
O206 O 0.34965 -0.00259 1.03261 0.0
N207 N 0.2864 0.91448 1.00145 0.0
C208 C 0.26941 0.93979 0.9204 0.0
C209 C 0.25451 0.94552 0.97107 0.0
C210 C 0.32089 0.89079 0.96732 0.0
N211 N 0.31089 0.90474 0.91767 0.0
O212 O 0.30666 0.82763 0.06142 0.0
H213 H 0.22145 0.97048 0.98345 0.0
H214 H 0.35156 0.86198 0.97866 0.0
O215 O 0.3585 0.92222 0.08072 0.0
C216 C 0.27472 0.79695 1.03658 0.0
O217 O 0.22865 0.81636 1.01933 0.0
N218 N 0.25669 0.96821 0.09106 0.0
C219 C 0.2137 0.0682 0.11807 0.0
C220 C 0.26433 0.05193 0.13682 0.0
C221 C 0.28419 0.00118 0.12431 0.0
C222 C 0.2044 0.98004 0.07865 0.0
C223 C 0.18253 0.0307 0.0903 0.0
H224 H 0.32203 0.98871 0.14134 0.0
H225 H 0.17988 0.95034 0.05876 0.0
H226 H 0.35882 0.87038 0.17582 0.0
H227 H 0.20713 0.86634 0.24928 0.0
H228 H 0.25028 0.95967 0.88805 0.0
H229 H 0.28962 0.07866 0.15953 0.0
H230 H 0.14208 0.04057 0.07726 0.0
C231 C 0.10179 0.22816 0.6669 0.0
C232 C 0.1119 0.23627 0.71838 0.0
N233 N 0.11734 0.28973 0.72671 0.0
N234 N 0.10003 0.27622 0.64253 0.0
C235 C 0.1105 0.31322 0.67992 0.0
H236 H 0.09536 0.18952 0.6483 0.0
Co237 Co 0.08271 0.28035 0.57226 0.0
C238 C 0.01758 0.37673 0.55766 0.0
O239 O 0.98438 0.34677 0.53015 0.0
N240 N 0.06686 0.28354 0.49916 0.0
C241 C 0.04204 0.26587 0.41803 0.0
C242 C 0.03676 0.25075 0.46869 0.0
C243 C 0.08964 0.31868 0.46509 0.0
N244 N 0.07591 0.30838 0.41538 0.0
O245 O 0.15409 0.30382 0.55883 0.0
H246 H 0.01297 0.21681 0.481 0.0
H247 H 0.11773 0.35005 0.47654 0.0
O248 O 0.05967 0.35569 0.57839 0.0
C249 C 0.18462 0.27217 0.53364 0.0
O250 O 0.16508 0.22624 0.51612 0.0
N251 N 0.01333 0.25422 0.58909 0.0
C252 C 0.9132 0.21214 0.6173 0.0
C253 C 0.93025 0.26267 0.63566 0.0
C254 C 0.98104 0.28203 0.6226 0.0
C255 C 0.00071 0.20209 0.57682 0.0
C256 C 0.94997 0.18067 0.58909 0.0
H257 H -0.00589 0.3197 0.63956 0.0
H258 H 0.02997 0.17715 0.55697 0.0
H259 H 0.11205 0.35639 0.67324 0.0
H260 H 0.11586 0.20512 0.74741 0.0
H261 H 0.02275 0.24617 0.3856 0.0
H262 H 0.90416 0.28823 0.65864 0.0
H263 H 0.93957 0.14025 0.57638 0.0
C264 C 0.1746 0.15281 0.0809 0.0
C265 C 0.19707 0.12545 0.12333 0.0
H266 H 0.15961 0.22958 0.04548 0.0
C267 C 0.21252 0.15538 0.16708 0.0
H268 H 0.16236 0.13106 0.04656 0.0
C269 C 0.21251 0.21165 0.1657 0.0
C270 C 0.19531 0.23873 0.12126 0.0
H271 H 0.22824 0.13542 0.20107 0.0
H272 H 0.22849 0.23394 0.19834 0.0
C273 C 0.17331 0.20923 0.08008 0.0
C274 C 0.82715 0.21175 0.66803 0.0
C275 C 0.85596 0.19572 0.62386 0.0
H276 H 0.74939 0.22796 0.70076 0.0
C277 C 0.82746 0.17259 0.58235 0.0
H278 H 0.84799 0.22793 0.7014 0.0
C279 C 0.77101 0.17105 0.58283 0.0
C280 C 0.74255 0.19348 0.62436 0.0
H281 H 0.8483 0.15991 0.54771 0.0
H282 H 0.74974 0.15674 0.54889 0.0
C283 C 0.77082 0.21155 0.66788 0.0
C284 C 0.80866 0.82673 0.08202 0.0
C285 C 0.78629 0.8546 0.12418 0.0
H286 H 0.82401 0.74957 0.04745 0.0
C287 C 0.77129 0.82521 0.16829 0.0
H288 H 0.82055 0.84805 0.04742 0.0
C289 C 0.77179 0.7689 0.1676 0.0
C290 C 0.78899 0.74123 0.12347 0.0
H291 H 0.75567 0.84557 0.20211 0.0
H292 H 0.75617 0.74702 0.20053 0.0
C293 C 0.8104 0.77031 0.08187 0.0
C294 C 0.15254 0.76859 0.66799 0.0
C295 C 0.12295 0.78327 0.6238 0.0
H296 H 0.23082 0.75284 0.70009 0.0
C297 C 0.15092 0.80432 0.58109 0.0
H298 H 0.13225 0.75403 0.70223 0.0
C299 C 0.20742 0.80519 0.58065 0.0
C300 C 0.23651 0.78415 0.62247 0.0
H301 H 0.12956 0.81588 0.54635 0.0
H302 H 0.22815 0.81791 0.54595 0.0
C303 C 0.20889 0.76812 0.66698 0.0
C304 C 0.71101 0.32519 0.98527 0.0
C305 C 0.69669 0.35552 1.02908 0.0
H306 H 0.72679 0.24642 0.95441 0.0
C307 C 0.67633 0.32827 0.07252 0.0
H308 H 0.72499 0.34487 0.9505 0.0
C309 C 0.67575 0.27183 0.07397 0.0
C310 C 0.69644 0.24209 1.03243 0.0
H311 H 0.66506 0.3502 0.107 0.0
H312 H 0.66354 0.25169 0.10914 0.0
C313 C 0.71181 0.26891 0.98729 0.0
C314 C 0.6534 0.67211 0.5695 0.0
C315 C 0.62456 0.6954 0.52837 0.0
H316 H 0.73138 0.65546 0.60189 0.0
C317 C 0.65292 0.71098 0.48381 0.0
H318 H 0.63292 0.65976 0.60441 0.0
C319 C 0.70925 0.71003 0.48313 0.0
C320 C 0.73798 0.69171 0.52623 0.0
H321 H 0.63179 0.72729 0.45072 0.0
H322 H 0.73038 0.7261 0.44994 0.0
C323 C 0.70982 0.66987 0.56821 0.0
C324 C 0.30654 0.65378 0.07235 0.0
C325 C 0.28431 0.62591 1.03002 0.0
H326 H 0.32157 0.73098 0.10714 0.0
C327 C 0.26906 0.65537 0.98598 0.0
H328 H 0.3186 0.63245 0.10691 0.0
C329 C 0.26907 0.71165 0.98693 0.0
C330 C 0.28626 0.73924 1.03115 0.0
H331 H 0.25362 0.63505 0.952 0.0
H332 H 0.25325 0.73358 0.95407 0.0
C333 C 0.30795 0.71021 0.07268 0.0
C334 C 0.27048 0.26525 0.48515 0.0
C335 C 0.24246 0.28356 0.52862 0.0
H336 H 0.34745 0.24857 0.45165 0.0
C337 C 0.27117 0.30618 0.57002 0.0
H338 H 0.24885 0.2487 0.45236 0.0
C339 C 0.32762 0.30459 0.57045 0.0
C340 C 0.35585 0.2812 0.52902 0.0
H341 H 0.2501 0.32069 0.60391 0.0
H342 H 0.34864 0.31742 0.60501 0.0
C343 C 0.32681 0.26499 0.48495 0.0
C344 C 0.02944 0.53108 0.08154 0.0
C345 C 0.04592 0.47666 0.08132 0.0
H346 H 0.96264 0.58636 0.08147 0.0
C347 C 0.00714 0.43569 0.07632 0.0
H348 H 0.05889 0.56338 0.08483 0.0
C349 C 0.95228 0.44884 0.07535 0.0
C350 C 0.93571 0.50314 0.078 0.0
H351 H 0.01902 0.39352 0.07601 0.0
H352 H 0.92272 0.41648 0.07405 0.0
C353 C 0.97463 0.54428 0.07924 0.0
C354 C 0.53058 0.94907 0.58733 0.0
C355 C 0.476 0.93301 0.58801 0.0
H356 H 0.58656 0.01538 0.58813 0.0
C357 C 0.43525 0.97226 0.58637 0.0
H358 H 0.56268 0.91926 0.58817 0.0
C359 C 0.44895 0.027 0.58748 0.0
C360 C 0.50352 0.04306 0.58885 0.0
H361 H 0.39297 0.96068 0.58695 0.0
H362 H 0.41684 0.0568 0.5884 0.0
C363 C 0.54427 0.00382 0.58705 0.0
C364 C 0.45351 0.03171 0.06894 0.0
C365 C 0.43693 0.97733 0.06759 0.0
H366 H 0.52039 0.08703 0.06943 0.0
C367 C 0.47581 0.93622 0.06939 0.0
H368 H 0.424 0.06408 0.068 0.0
C369 C 0.53072 0.94939 0.06908 0.0
C370 C 0.54731 0.00377 0.06838 0.0
H371 H 0.46385 0.89407 0.06832 0.0
H372 H 0.56024 0.91702 0.06822 0.0
C373 C 0.50842 0.04487 0.07004 0.0
C374 C 0.03135 0.5274 0.57226 0.0
C375 C 0.97697 0.54379 0.56952 0.0
H376 H 0.08692 0.46088 0.57183 0.0
C377 C 0.93594 0.50475 0.56815 0.0
H378 H 0.06363 0.55704 0.57369 0.0
C379 C 0.94935 0.45 0.56593 0.0
C380 C 0.00384 0.43369 0.56635 0.0
H381 H 0.89381 0.51659 0.56585 0.0
H382 H 0.91712 0.42047 0.56265 0.0
C383 C 0.04469 0.47261 0.57136 0.0
C384 C 0.11631 0.32949 0.2764 0.0
C385 C 0.1412 0.38058 0.27798 0.0
H386 H 0.07737 0.26624 0.31812 0.0
C387 C 0.14265 0.40832 0.32544 0.0
H388 H 0.11521 0.3064 0.24097 0.0
C389 C 0.1207 0.38522 0.37019 0.0
C390 C 0.0967 0.3336 0.36886 0.0
H391 H 0.16089 0.44802 0.32809 0.0
H392 H 0.12257 0.40796 0.40578 0.0
C393 C 0.09453 0.30634 0.32107 0.0
C394 C 0.61773 0.14976 0.87696 0.0
C395 C 0.64329 0.09905 0.87554 0.0
H396 H 0.57774 0.21221 0.83504 0.0
C397 C 0.64483 0.07105 0.82824 0.0
H398 H 0.61655 0.17302 0.91229 0.0
C399 C 0.62229 0.09356 0.78346 0.0
C400 C 0.59764 0.14485 0.78461 0.0
H401 H 0.6636 0.03161 0.82577 0.0
H402 H 0.62424 0.07064 0.74799 0.0
C403 C 0.59539 0.17235 0.83224 0.0
C404 C 0.86397 0.58889 0.36955 0.0
C405 C 0.88865 0.64018 0.36885 0.0
H406 H 0.82349 0.52678 0.32656 0.0
C407 C 0.89175 0.66759 0.32129 0.0
H408 H 0.8614 0.5661 0.40502 0.0
C409 C 0.87006 0.64498 0.27618 0.0
C410 C 0.84442 0.59422 0.27707 0.0
H411 H 0.9095 0.70747 0.31888 0.0
H412 H 0.87181 0.6683 0.24098 0.0
C413 C 0.84224 0.56626 0.32435 0.0
C414 C 0.30806 0.88608 0.82338 0.0
C415 C 0.33533 0.88308 0.87111 0.0
H416 H 0.30723 0.86525 0.74328 0.0
C417 C 0.38608 0.85731 0.8724 0.0
H418 H 0.26858 0.9046 0.82047 0.0
C419 C 0.40828 0.83445 0.82764 0.0
C420 C 0.38051 0.83678 0.78023 0.0
H421 H 0.40882 0.85473 0.90796 0.0
H422 H 0.44732 0.81484 0.83021 0.0
C423 C 0.33034 0.86342 0.7787 0.0
C424 C 0.77346 0.68726 0.84803 0.0
C425 C 0.80005 0.64506 0.87395 0.0
H426 H 0.76771 0.73594 0.78045 0.0
C427 C 0.84368 0.61927 0.84912 0.0
H428 H 0.74007 0.70835 0.86601 0.0
C429 C 0.85963 0.6352 0.79913 0.0
C430 C 0.83283 0.6778 0.77367 0.0
H431 H 0.86467 0.58634 0.86794 0.0
H432 H 0.8934 0.61505 0.78082 0.0
C433 C 0.78956 0.70335 0.79892 0.0
C434 C 0.31363 0.8559 0.37211 0.0
C435 C 0.35257 0.81479 0.37533 0.0
H436 H 0.26359 0.90409 0.3225 0.0
C437 C 0.37533 0.79467 0.3294 0.0
H438 H 0.29523 0.87189 0.40675 0.0
C439 C 0.35786 0.81357 0.28124 0.0
C440 C 0.31643 0.85218 0.27797 0.0
H441 H 0.40571 0.76319 0.33081 0.0
H442 H 0.37457 0.79589 0.24656 0.0
C443 C 0.29536 0.87399 0.32393 0.0
C444 C 0.10826 0.29373 0.82164 0.0
C445 C 0.13025 0.31453 0.77568 0.0
H446 H 0.10983 0.29434 0.90448 0.0
C447 C 0.16881 0.35606 0.77895 0.0
H448 H 0.0782 0.26189 0.82022 0.0
C449 C 0.1874 0.374 0.82715 0.0
C450 C 0.16702 0.35162 0.87311 0.0
H451 H 0.18663 0.37258 0.74429 0.0
H452 H 0.21879 0.40453 0.82856 0.0
C453 C 0.12603 0.31247 0.86983 0.0
C454 C 0.62531 0.16479 0.28368 0.0
C455 C 0.66682 0.12627 0.28043 0.0
H456 H 0.57682 0.21447 0.3333 0.0
C457 C 0.68733 0.10383 0.32637 0.0
H458 H 0.60899 0.18293 0.24904 0.0
C459 C 0.66843 0.12124 0.37455 0.0
C460 C 0.62942 0.16228 0.3778 0.0
H461 H 0.71911 0.07376 0.32496 0.0
H462 H 0.68642 0.10482 0.40923 0.0
C463 C 0.60722 0.183 0.33185 0.0
loop_
_geom_bond_atom_site_label_1
_geom_bond_atom_site_label_2
_geom_bond_distance
_geom_bond_site_symmetry_2
_ccdc_geom_bond_type
C0 C1 1.351 . S
C0 N3 1.368 . S
C0 H5 0.931 . S
C1 C0 1.351 . S
C1 N2 1.373 . S
C1 H29 0.930 . S
N2 C1 1.373 . S
N2 C4 1.340 . S
N3 C0 1.368 . S
N3 C4 1.321 . S
N3 Co6 2.135 1_556 S
C4 N2 1.340 . S
C4 N3 1.321 . S
C4 H28 0.930 . S
H5 C0 0.931 . S
Co6 N3 2.135 1_554 S
Co6 N9 2.121 . S
Co6 O14 2.055 . S
Co6 O17 2.039 . S
Co6 N20 2.140 . S
C7 O8 1.227 . S
C7 O17 1.265 . S
O8 C7 1.227 . S
N9 Co6 2.121 . S
N9 C11 1.375 . S
N9 C12 1.313 . S
C10 C11 1.338 . S
C10 N13 1.377 . S
C10 H30 0.930 . S
C11 N9 1.375 . S
C11 C10 1.338 . S
C11 H15 0.931 . S
C12 N9 1.313 . S
C12 N13 1.344 . S
C12 H16 0.930 . S
N13 C10 1.377 . S
N13 C12 1.344 . S
O14 Co6 2.055 . S
O14 C18 1.253 . S
H15 C11 0.931 . S
H16 C12 0.930 . S
O17 Co6 2.039 . S
O17 C7 1.265 . S
C18 O14 1.253 . S
C18 O19 1.227 . S
O19 C18 1.227 . S
N20 Co6 2.140 . S
N20 C23 1.346 1_554 S
N20 C24 1.345 . S
C21 C22 1.387 1_554 S
C21 C25 1.391 . S
C22 C21 1.387 1_556 S
C22 C23 1.369 . S
C22 H31 0.929 . S
C23 N20 1.346 1_556 S
C23 C22 1.369 . S
C23 H26 0.928 . S
C24 N20 1.345 . S
C24 C25 1.371 . S
C24 H27 0.931 . S
C25 C21 1.391 . S
C25 C24 1.371 . S
C25 H32 0.930 . S
H26 C23 0.928 . S
H27 C24 0.931 . S
H28 C4 0.930 . S
H29 C1 0.930 . S
H30 C10 0.930 . S
H31 C22 0.929 . S
H32 C25 0.930 . S
C33 C34 1.351 . S
C33 N36 1.368 . S
C33 H38 0.931 . S
C34 C33 1.351 . S
C34 N35 1.373 . S
C34 H62 0.930 . S
N35 C34 1.373 . S
N35 C37 1.340 . S
N36 C33 1.368 . S
N36 C37 1.321 . S
N36 Co39 2.135 . S
C37 N35 1.340 . S
C37 N36 1.321 . S
C37 H61 0.930 . S
H38 C33 0.931 . S
Co39 N36 2.135 . S
Co39 N42 2.121 . S
Co39 O47 2.055 . S
Co39 O50 2.039 . S
Co39 N53 2.140 . S
C40 O41 1.227 . S
C40 O50 1.265 . S
O41 C40 1.227 . S
N42 Co39 2.121 . S
N42 C44 1.375 . S
N42 C45 1.313 . S
C43 C44 1.338 . S
C43 N46 1.377 . S
C43 H63 0.930 . S
C44 N42 1.375 . S
C44 C43 1.338 . S
C44 H48 0.931 . S
C45 N42 1.313 . S
C45 N46 1.344 . S
C45 H49 0.930 . S
N46 C43 1.377 . S
N46 C45 1.344 . S
O47 Co39 2.055 . S
O47 C51 1.253 . S
H48 C44 0.931 . S
H49 C45 0.930 . S
O50 Co39 2.039 . S
O50 C40 1.265 . S
C51 O47 1.253 . S
C51 O52 1.227 . S
O52 C51 1.227 . S
N53 Co39 2.140 . S
N53 C56 1.346 . S
N53 C57 1.345 . S
C54 C55 1.387 . S
C54 C58 1.391 . S
C55 C54 1.387 . S
C55 C56 1.369 . S
C55 H64 0.929 . S
C56 N53 1.346 . S
C56 C55 1.369 . S
C56 H59 0.928 . S
C57 N53 1.345 . S
C57 C58 1.371 . S
C57 H60 0.931 . S
C58 C54 1.391 . S
C58 C57 1.371 . S
C58 H65 0.930 . S
H59 C56 0.928 . S
H60 C57 0.931 . S
H61 C37 0.930 . S
H62 C34 0.930 . S
H63 C43 0.930 . S
H64 C55 0.929 . S
H65 C58 0.930 . S
C66 C67 1.351 . S
C66 N69 1.368 . S
C66 H71 0.931 . S
C67 C66 1.351 . S
C67 N68 1.373 . S
C67 H95 0.930 . S
N68 C67 1.373 . S
N68 C70 1.340 . S
N69 C66 1.368 . S
N69 C70 1.321 . S
N69 Co72 2.135 1_556 S
C70 N68 1.340 . S
C70 N69 1.321 . S
C70 H94 0.930 . S
H71 C66 0.931 . S
Co72 N69 2.135 1_554 S
Co72 N75 2.121 . S
Co72 O80 2.055 . S
Co72 O83 2.039 . S
Co72 N86 2.140 . S
C73 O74 1.227 . S
C73 O83 1.265 . S
O74 C73 1.227 . S
N75 Co72 2.121 . S
N75 C77 1.375 . S
N75 C78 1.313 . S
C76 C77 1.338 . S
C76 N79 1.377 . S
C76 H96 0.930 . S
C77 N75 1.375 . S
C77 C76 1.338 . S
C77 H81 0.931 . S
C78 N75 1.313 . S
C78 N79 1.344 . S
C78 H82 0.930 . S
N79 C76 1.377 . S
N79 C78 1.344 . S
O80 Co72 2.055 . S
O80 C84 1.253 . S
H81 C77 0.931 . S
H82 C78 0.930 . S
O83 Co72 2.039 . S
O83 C73 1.265 . S
C84 O80 1.253 . S
C84 O85 1.227 . S
O85 C84 1.227 . S
N86 Co72 2.140 . S
N86 C89 1.346 1_554 S
N86 C90 1.345 . S
C87 C88 1.387 1_554 S
C87 C91 1.391 . S
C88 C87 1.387 1_556 S
C88 C89 1.369 . S
C88 H97 0.929 . S
C89 N86 1.346 1_556 S
C89 C88 1.369 . S
C89 H92 0.928 . S
C90 N86 1.345 . S
C90 C91 1.371 . S
C90 H93 0.931 . S
C91 C87 1.391 . S
C91 C90 1.371 . S
C91 H98 0.930 . S
H92 C89 0.928 . S
H93 C90 0.931 . S
H94 C70 0.930 . S
H95 C67 0.930 . S
H96 C76 0.930 . S
H97 C88 0.929 . S
H98 C91 0.930 . S
C99 C100 1.351 . S
C99 N102 1.368 . S
C99 H104 0.931 . S
C100 C99 1.351 . S
C100 N101 1.373 . S
C100 H128 0.930 . S
N101 C100 1.373 . S
N101 C103 1.340 . S
N102 C99 1.368 . S
N102 C103 1.321 . S
N102 Co105 2.135 . S
C103 N101 1.340 . S
C103 N102 1.321 . S
C103 H127 0.930 . S
H104 C99 0.931 . S
Co105 N102 2.135 . S
Co105 N108 2.121 . S
Co105 O113 2.055 . S
Co105 O116 2.039 . S
Co105 N119 2.140 . S
C106 O107 1.227 . S
C106 O116 1.265 . S
O107 C106 1.227 . S
N108 Co105 2.121 . S
N108 C110 1.375 . S
N108 C111 1.313 . S
C109 C110 1.338 . S
C109 N112 1.377 . S
C109 H129 0.930 . S
C110 N108 1.375 . S
C110 C109 1.338 . S
C110 H114 0.931 . S
C111 N108 1.313 . S
C111 N112 1.344 . S
C111 H115 0.930 . S
N112 C109 1.377 . S
N112 C111 1.344 . S
O113 Co105 2.055 . S
O113 C117 1.253 . S
H114 C110 0.931 . S
H115 C111 0.930 . S
O116 Co105 2.039 . S
O116 C106 1.265 . S
C117 O113 1.253 . S
C117 O118 1.227 . S
O118 C117 1.227 . S
N119 Co105 2.140 . S
N119 C122 1.346 . S
N119 C123 1.345 . S
C120 C121 1.387 . S
C120 C124 1.391 . S
C121 C120 1.387 . S
C121 C122 1.369 . S
C121 H130 0.929 . S
C122 N119 1.346 . S
C122 C121 1.369 . S
C122 H125 0.928 . S
C123 N119 1.345 . S
C123 C124 1.371 . S
C123 H126 0.931 . S
C124 C120 1.391 . S
C124 C123 1.371 . S
C124 H131 0.930 . S
H125 C122 0.928 . S
H126 C123 0.931 . S
H127 C103 0.930 . S
H128 C100 0.930 . S
H129 C109 0.930 . S
H130 C121 0.929 . S
H131 C124 0.930 . S
C132 C133 1.351 . S
C132 N135 1.368 . S
C132 H137 0.931 . S
C133 C132 1.351 . S
C133 N134 1.373 . S
C133 H161 0.930 . S
N134 C133 1.373 . S
N134 C136 1.340 . S
N135 C132 1.368 . S
N135 C136 1.321 . S
N135 Co138 2.135 . S
C136 N134 1.340 . S
C136 N135 1.321 . S
C136 H160 0.930 . S
H137 C132 0.931 . S
Co138 N135 2.135 . S
Co138 N141 2.121 1_554 S
Co138 O146 2.055 . S
Co138 O149 2.039 . S
Co138 N152 2.140 . S
C139 O140 1.227 . S
C139 O149 1.265 . S
O140 C139 1.227 . S
N141 Co138 2.121 1_556 S
N141 C143 1.375 . S
N141 C144 1.313 . S
C142 C143 1.338 . S
C142 N145 1.377 . S
C142 H162 0.930 . S
C143 N141 1.375 . S
C143 C142 1.338 . S
C143 H147 0.931 . S
C144 N141 1.313 . S
C144 N145 1.344 . S
C144 H148 0.930 . S
N145 C142 1.377 . S
N145 C144 1.344 . S
O146 Co138 2.055 . S
O146 C150 1.253 . S
H147 C143 0.931 . S
H148 C144 0.930 . S
O149 Co138 2.039 . S
O149 C139 1.265 . S
C150 O146 1.253 . S
C150 O151 1.227 . S
O151 C150 1.227 . S
N152 Co138 2.140 . S
N152 C155 1.346 1_545 S
N152 C156 1.345 . S
C153 C154 1.387 . S
C153 C157 1.391 . S
C154 C153 1.387 . S
C154 C155 1.369 . S
C154 H163 0.929 . S
C155 N152 1.346 1_565 S
C155 C154 1.369 . S
C155 H158 0.928 . S
C156 N152 1.345 . S
C156 C157 1.371 1_545 S
C156 H159 0.931 1_554 S
C157 C153 1.391 . S
C157 C156 1.371 1_565 S
C157 H164 0.930 1_554 S
H158 C155 0.928 . S
H159 C156 0.931 1_556 S
H160 C136 0.930 . S
H161 C133 0.930 . S
H162 C142 0.930 . S
H163 C154 0.929 . S
H164 C157 0.930 1_556 S
C165 C166 1.351 . S
C165 N168 1.368 . S
C165 H170 0.931 . S
C166 C165 1.351 . S
C166 N167 1.373 . S
C166 H194 0.930 . S
N167 C166 1.373 . S
N167 C169 1.340 . S
N168 C165 1.368 . S
N168 C169 1.321 . S
N168 Co171 2.135 . S
C169 N167 1.340 . S
C169 N168 1.321 . S
C169 H193 0.930 . S
H170 C165 0.931 . S
Co171 N168 2.135 . S
Co171 N174 2.121 . S
Co171 O179 2.055 . S
Co171 O182 2.039 . S
Co171 N185 2.140 . S
C172 O173 1.227 . S
C172 O182 1.265 . S
O173 C172 1.227 . S
N174 Co171 2.121 . S
N174 C176 1.375 . S
N174 C177 1.313 . S
C175 C176 1.338 . S
C175 N178 1.377 . S
C175 H195 0.930 . S
C176 N174 1.375 . S
C176 C175 1.338 . S
C176 H180 0.931 . S
C177 N174 1.313 . S
C177 N178 1.344 . S
C177 H181 0.930 . S
N178 C175 1.377 . S
N178 C177 1.344 . S
O179 Co171 2.055 . S
O179 C183 1.253 . S
H180 C176 0.931 . S
H181 C177 0.930 . S
O182 Co171 2.039 . S
O182 C172 1.265 . S
C183 O179 1.253 . S
C183 O184 1.227 . S
O184 C183 1.227 . S
N185 Co171 2.140 . S
N185 C188 1.346 1_655 S
N185 C189 1.345 . S
C186 C187 1.387 . S
C186 C190 1.391 . S
C187 C186 1.387 . S
C187 C188 1.369 . S
C187 H196 0.929 . S
C188 N185 1.346 1_455 S
C188 C187 1.369 . S
C188 H191 0.928 . S
C189 N185 1.345 . S
C189 C190 1.371 1_655 S
C189 H192 0.931 . S
C190 C186 1.391 . S
C190 C189 1.371 1_455 S
C190 H197 0.930 . S
H191 C188 0.928 . S
H192 C189 0.931 . S
H193 C169 0.930 . S
H194 C166 0.930 . S
H195 C175 0.930 . S
H196 C187 0.929 . S
H197 C190 0.930 . S
C198 C199 1.351 . S
C198 N201 1.368 . S
C198 H203 0.931 . S
C199 C198 1.351 . S
C199 N200 1.373 . S
C199 H227 0.930 . S
N200 C199 1.373 . S
N200 C202 1.340 . S
N201 C198 1.368 . S
N201 C202 1.321 . S
N201 Co204 2.135 . S
C202 N200 1.340 . S
C202 N201 1.321 . S
C202 H226 0.930 . S
H203 C198 0.931 . S
Co204 N201 2.135 . S
Co204 N207 2.121 1_554 S
Co204 O212 2.055 . S
Co204 O215 2.039 . S
Co204 N218 2.140 . S
C205 O206 1.227 . S
C205 O215 1.265 . S
O206 C205 1.227 . S
N207 Co204 2.121 1_556 S
N207 C209 1.375 . S
N207 C210 1.313 . S
C208 C209 1.338 . S
C208 N211 1.377 . S
C208 H228 0.930 . S
C209 N207 1.375 . S
C209 C208 1.338 . S
C209 H213 0.931 . S
C210 N207 1.313 . S
C210 N211 1.344 . S
C210 H214 0.930 . S
N211 C208 1.377 . S
N211 C210 1.344 . S
O212 Co204 2.055 . S
O212 C216 1.253 . S
H213 C209 0.931 . S
H214 C210 0.930 . S
O215 Co204 2.039 . S
O215 C205 1.265 . S
C216 O212 1.253 . S
C216 O217 1.227 . S
O217 C216 1.227 . S
N218 Co204 2.140 . S
N218 C221 1.346 1_565 S
N218 C222 1.345 . S
C219 C220 1.387 . S
C219 C223 1.391 . S
C220 C219 1.387 . S
C220 C221 1.369 . S
C220 H229 0.929 . S
C221 N218 1.346 1_545 S
C221 C220 1.369 . S
C221 H224 0.928 . S
C222 N218 1.345 . S
C222 C223 1.371 1_565 S
C222 H225 0.931 1_554 S
C223 C219 1.391 . S
C223 C222 1.371 1_545 S
C223 H230 0.930 1_554 S
H224 C221 0.928 . S
H225 C222 0.931 1_556 S
H226 C202 0.930 . S
H227 C199 0.930 . S
H228 C208 0.930 . S
H229 C220 0.929 . S
H230 C223 0.930 1_556 S
C231 C232 1.351 . S
C231 N234 1.368 . S
C231 H236 0.931 . S
C232 C231 1.351 . S
C232 N233 1.373 . S
C232 H260 0.930 . S
N233 C232 1.373 . S
N233 C235 1.340 . S
N234 C231 1.368 . S
N234 C235 1.321 . S
N234 Co237 2.135 . S
C235 N233 1.340 . S
C235 N234 1.321 . S
C235 H259 0.930 . S
H236 C231 0.931 . S
Co237 N234 2.135 . S
Co237 N240 2.121 . S
Co237 O245 2.055 . S
Co237 O248 2.039 . S
Co237 N251 2.140 . S
C238 O239 1.227 . S
C238 O248 1.265 . S
O239 C238 1.227 . S
N240 Co237 2.121 . S
N240 C242 1.375 . S
N240 C243 1.313 . S
C241 C242 1.338 . S
C241 N244 1.377 . S
C241 H261 0.930 . S
C242 N240 1.375 . S
C242 C241 1.338 . S
C242 H246 0.931 . S
C243 N240 1.313 . S
C243 N244 1.344 . S
C243 H247 0.930 . S
N244 C241 1.377 . S
N244 C243 1.344 . S
O245 Co237 2.055 . S
O245 C249 1.253 . S
H246 C242 0.931 . S
H247 C243 0.930 . S
O248 Co237 2.039 . S
O248 C238 1.265 . S
C249 O245 1.253 . S
C249 O250 1.227 . S
O250 C249 1.227 . S
N251 Co237 2.140 . S
N251 C254 1.346 1_455 S
N251 C255 1.345 . S
C252 C253 1.387 . S
C252 C256 1.391 . S
C253 C252 1.387 . S
C253 C254 1.369 . S
C253 H262 0.929 . S
C254 N251 1.346 1_655 S
C254 C253 1.369 . S
C254 H257 0.928 . S
C255 N251 1.345 . S
C255 C256 1.371 1_455 S
C255 H258 0.931 . S
C256 C252 1.391 . S
C256 C255 1.371 1_655 S
C256 H263 0.930 . S
H257 C254 0.928 . S
H258 C255 0.931 . S
H259 C235 0.930 . S
H260 C232 0.930 . S
H261 C241 0.930 . S
H262 C253 0.929 . S
H263 C256 0.930 . S
C264 C265 1.387 1_556 S
C264 H268 0.950 . S
C264 C273 1.390 . S
C265 C264 1.387 1_554 S
C265 C267 1.387 . S
H266 C273 0.950 . S
C267 C265 1.387 . S
C267 C269 1.390 . S
C267 H271 0.950 . S
H268 C264 0.950 . S
C269 C267 1.390 . S
C269 C270 1.387 . S
C269 H272 0.950 . S
C270 C269 1.387 . S
C270 C273 1.387 1_554 S
H271 C267 0.950 . S
H272 C269 0.950 . S
C273 C264 1.390 . S
C273 H266 0.950 . S
C273 C270 1.387 1_556 S
C274 C275 1.387 . S
C274 H278 0.950 . S
C274 C283 1.390 . S
C275 C274 1.387 . S
C275 C277 1.387 . S
H276 C283 0.950 . S
C277 C275 1.387 . S
C277 C279 1.390 . S
C277 H281 0.950 . S
H278 C274 0.950 . S
C279 C277 1.390 . S
C279 C280 1.387 . S
C279 H282 0.950 . S
C280 C279 1.387 . S
C280 C283 1.387 . S
H281 C277 0.950 . S
H282 C279 0.950 . S
C283 C274 1.390 . S
C283 H276 0.950 . S
C283 C280 1.387 . S
C284 C285 1.387 1_556 S
C284 H288 0.950 . S
C284 C293 1.390 . S
C285 C284 1.387 1_554 S
C285 C287 1.387 . S
H286 C293 0.950 . S
C287 C285 1.387 . S
C287 C289 1.390 . S
C287 H291 0.950 . S
H288 C284 0.950 . S
C289 C287 1.390 . S
C289 C290 1.387 . S
C289 H292 0.950 . S
C290 C289 1.387 . S
C290 C293 1.387 1_554 S
H291 C287 0.950 . S
H292 C289 0.950 . S
C293 C284 1.390 . S
C293 H286 0.950 . S
C293 C290 1.387 1_556 S
C294 C295 1.387 . S
C294 H298 0.950 . S
C294 C303 1.390 . S
C295 C294 1.387 . S
C295 C297 1.387 . S
H296 C303 0.950 . S
C297 C295 1.387 . S
C297 C299 1.390 . S
C297 H301 0.950 . S
H298 C294 0.950 . S
C299 C297 1.390 . S
C299 C300 1.387 . S
C299 H302 0.950 . S
C300 C299 1.387 . S
C300 C303 1.387 . S
H301 C297 0.950 . S
H302 C299 0.950 . S
C303 C294 1.390 . S
C303 H296 0.950 . S
C303 C300 1.387 . S
C304 C305 1.387 1_556 S
C304 H308 0.950 . S
C304 C313 1.390 . S
C305 C304 1.387 1_554 S
C305 C307 1.387 . S
H306 C313 0.950 . S
C307 C305 1.387 . S
C307 C309 1.390 . S
C307 H311 0.950 . S
H308 C304 0.950 . S
C309 C307 1.390 . S
C309 C310 1.387 . S
C309 H312 0.950 . S
C310 C309 1.387 . S
C310 C313 1.387 1_554 S
H311 C307 0.950 . S
H312 C309 0.950 . S
C313 C304 1.390 . S
C313 H306 0.950 . S
C313 C310 1.387 1_556 S
C314 C315 1.387 . S
C314 H318 0.950 . S
C314 C323 1.390 . S
C315 C314 1.387 . S
C315 C317 1.387 . S
H316 C323 0.950 . S
C317 C315 1.387 . S
C317 C319 1.390 . S
C317 H321 0.950 . S
H318 C314 0.950 . S
C319 C317 1.390 . S
C319 C320 1.387 . S
C319 H322 0.950 . S
C320 C319 1.387 . S
C320 C323 1.387 . S
H321 C317 0.950 . S
H322 C319 0.950 . S
C323 C314 1.390 . S
C323 H316 0.950 . S
C323 C320 1.387 . S
C324 C325 1.387 . S
C324 H328 0.950 . S
C324 C333 1.390 . S
C325 C324 1.387 . S
C325 C327 1.387 1_554 S
H326 C333 0.950 . S
C327 C325 1.387 1_556 S
C327 C329 1.390 . S
C327 H331 0.950 . S
H328 C324 0.950 . S
C329 C327 1.390 . S
C329 C330 1.387 1_556 S
C329 H332 0.950 . S
C330 C329 1.387 1_554 S
C330 C333 1.387 . S
H331 C327 0.950 . S
H332 C329 0.950 . S
C333 C324 1.390 . S
C333 H326 0.950 . S
C333 C330 1.387 . S
C334 C335 1.387 . S
C334 H338 0.950 . S
C334 C343 1.390 . S
C335 C334 1.387 . S
C335 C337 1.387 . S
H336 C343 0.950 . S
C337 C335 1.387 . S
C337 C339 1.390 . S
C337 H341 0.950 . S
H338 C334 0.950 . S
C339 C337 1.390 . S
C339 C340 1.387 . S
C339 H342 0.950 . S
C340 C339 1.387 . S
C340 C343 1.387 . S
H341 C337 0.950 . S
H342 C339 0.950 . S
C343 C334 1.390 . S
C343 H336 0.950 . S
C343 C340 1.387 . S
C344 C345 1.387 . S
C344 H348 0.950 . S
C344 C353 1.390 1_455 S
C345 C344 1.387 . S
C345 C347 1.387 1_554 S
H346 C353 0.950 . S
C347 C345 1.387 1_556 S
C347 C349 1.390 1_455 S
C347 H351 0.950 . S
H348 C344 0.950 . S
C349 C347 1.390 1_655 S
C349 C350 1.387 1_556 S
C349 H352 0.950 . S
C350 C349 1.387 1_554 S
C350 C353 1.387 . S
H351 C347 0.950 . S
H352 C349 0.950 . S
C353 C344 1.390 1_655 S
C353 H346 0.950 . S
C353 C350 1.387 . S
C354 C355 1.387 . S
C354 H358 0.950 . S
C354 C363 1.390 1_565 S
C355 C354 1.387 . S
C355 C357 1.387 . S
H356 C363 0.950 . S
C357 C355 1.387 . S
C357 C359 1.390 1_565 S
C357 H361 0.950 . S
H358 C354 0.950 . S
C359 C357 1.390 1_545 S
C359 C360 1.387 . S
C359 H362 0.950 . S
C360 C359 1.387 . S
C360 C363 1.387 . S
H361 C357 0.950 . S
H362 C359 0.950 . S
C363 C354 1.390 1_545 S
C363 H356 0.950 . S
C363 C360 1.387 . S
C364 C365 1.387 . S
C364 H368 0.950 1_554 S
C364 C373 1.390 1_565 S
C365 C364 1.387 . S
C365 C367 1.387 . S
H366 C373 0.950 1_556 S
C367 C365 1.387 . S
C367 C369 1.390 1_565 S
C367 H371 0.950 . S
H368 C364 0.950 1_556 S
C369 C367 1.390 1_545 S
C369 C370 1.387 . S
C369 H372 0.950 . S
C370 C369 1.387 . S
C370 C373 1.387 . S
H371 C367 0.950 . S
H372 C369 0.950 . S
C373 C364 1.390 1_545 S
C373 H366 0.950 1_554 S
C373 C370 1.387 . S
C374 C375 1.387 . S
C374 H378 0.950 . S
C374 C383 1.390 1_655 S
C375 C374 1.387 . S
C375 C377 1.387 . S
H376 C383 0.950 . S
C377 C375 1.387 . S
C377 C379 1.390 1_655 S
C377 H381 0.950 . S
H378 C374 0.950 . S
C379 C377 1.390 1_455 S
C379 C380 1.387 . S
C379 H382 0.950 . S
C380 C379 1.387 . S
C380 C383 1.387 . S
H381 C377 0.950 . S
H382 C379 0.950 . S
C383 C374 1.390 1_455 S
C383 H376 0.950 . S
C383 C380 1.387 . S
C384 C385 1.387 . S
C384 H388 0.950 . S
C384 C393 1.390 . S
C385 C384 1.387 . S
C385 C387 1.387 . S
H386 C393 0.950 . S
C387 C385 1.387 . S
C387 C389 1.390 . S
C387 H391 0.950 . S
H388 C384 0.950 . S
C389 C387 1.390 . S
C389 C390 1.387 . S
C389 H392 0.950 . S
C390 C389 1.387 . S
C390 C393 1.387 . S
H391 C387 0.950 . S
H392 C389 0.950 . S
C393 C384 1.390 . S
C393 H386 0.950 . S
C393 C390 1.387 . S
C394 C395 1.387 . S
C394 H398 0.950 . S
C394 C403 1.390 . S
C395 C394 1.387 . S
C395 C397 1.387 . S
H396 C403 0.950 . S
C397 C395 1.387 . S
C397 C399 1.390 . S
C397 H401 0.950 . S
H398 C394 0.950 . S
C399 C397 1.390 . S
C399 C400 1.387 . S
C399 H402 0.950 . S
C400 C399 1.387 . S
C400 C403 1.387 . S
H401 C397 0.950 . S
H402 C399 0.950 . S
C403 C394 1.390 . S
C403 H396 0.950 . S
C403 C400 1.387 . S
C404 C405 1.387 . S
C404 H408 0.950 . S
C404 C413 1.390 . S
C405 C404 1.387 . S
C405 C407 1.387 . S
H406 C413 0.950 . S
C407 C405 1.387 . S
C407 C409 1.390 . S
C407 H411 0.950 . S
H408 C404 0.950 . S
C409 C407 1.390 . S
C409 C410 1.387 . S
C409 H412 0.950 . S
C410 C409 1.387 . S
C410 C413 1.387 . S
H411 C407 0.950 . S
H412 C409 0.950 . S
C413 C404 1.390 . S
C413 H406 0.950 . S
C413 C410 1.387 . S
C414 C415 1.387 . S
C414 H418 0.950 . S
C414 C423 1.390 . S
C415 C414 1.387 . S
C415 C417 1.387 . S
H416 C423 0.950 . S
C417 C415 1.387 . S
C417 C419 1.390 . S
C417 H421 0.950 . S
H418 C414 0.950 . S
C419 C417 1.390 . S
C419 C420 1.387 . S
C419 H422 0.950 . S
C420 C419 1.387 . S
C420 C423 1.387 . S
H421 C417 0.950 . S
H422 C419 0.950 . S
C423 C414 1.390 . S
C423 H416 0.950 . S
C423 C420 1.387 . S
C424 C425 1.387 . S
C424 H428 0.950 . S
C424 C433 1.390 . S
C425 C424 1.387 . S
C425 C427 1.387 . S
H426 C433 0.950 . S
C427 C425 1.387 . S
C427 C429 1.390 . S
C427 H431 0.950 . S
H428 C424 0.950 . S
C429 C427 1.390 . S
C429 C430 1.387 . S
C429 H432 0.950 . S
C430 C429 1.387 . S
C430 C433 1.387 . S
H431 C427 0.950 . S
H432 C429 0.950 . S
C433 C424 1.390 . S
C433 H426 0.950 . S
C433 C430 1.387 . S
C434 C435 1.387 . S
C434 H438 0.950 . S
C434 C443 1.390 . S
C435 C434 1.387 . S
C435 C437 1.387 . S
H436 C443 0.950 . S
C437 C435 1.387 . S
C437 C439 1.390 . S
C437 H441 0.950 . S
H438 C434 0.950 . S
C439 C437 1.390 . S
C439 C440 1.387 . S
C439 H442 0.950 . S
C440 C439 1.387 . S
C440 C443 1.387 . S
H441 C437 0.950 . S
H442 C439 0.950 . S
C443 C434 1.390 . S
C443 H436 0.950 . S
C443 C440 1.387 . S
C444 C445 1.387 . S
C444 H448 0.950 . S
C444 C453 1.390 . S
C445 C444 1.387 . S
C445 C447 1.387 . S
H446 C453 0.950 . S
C447 C445 1.387 . S
C447 C449 1.390 . S
C447 H451 0.950 . S
H448 C444 0.950 . S
C449 C447 1.390 . S
C449 C450 1.387 . S
C449 H452 0.950 . S
C450 C449 1.387 . S
C450 C453 1.387 . S
H451 C447 0.950 . S
H452 C449 0.950 . S
C453 C444 1.390 . S
C453 H446 0.950 . S
C453 C450 1.387 . S
C454 C455 1.387 . S
C454 H458 0.950 . S
C454 C463 1.390 . S
C455 C454 1.387 . S
C455 C457 1.387 . S
H456 C463 0.950 . S
C457 C455 1.387 . S
C457 C459 1.390 . S
C457 H461 0.950 . S
H458 C454 0.950 . S
C459 C457 1.390 . S
C459 C460 1.387 . S
C459 H462 0.950 . S
C460 C459 1.387 . S
C460 C463 1.387 . S
H461 C457 0.950 . S
H462 C459 0.950 . S
C463 C454 1.390 . S
C463 H456 0.950 . S
C463 C460 1.387 . S
C265 C219 1.583 . S
C270 C18 1.641 . S
C275 C252 1.586 . S
C280 C51 1.642 . S
C285 C153 1.583 . S
C290 C84 1.641 . S
C295 C186 1.586 . S
C300 C117 1.642 . S
C305 C87 1.586 . S
C310 C150 1.643 . S
C315 C120 1.582 . S
C320 C183 1.640 . S
C325 C21 1.583 . S
C330 C216 1.641 . S
C335 C249 1.642 . S
C340 C54 1.586 . S
C345 C7 0.698 . S
C350 C73 0.698 . S
C355 C106 0.698 . S
C360 C40 0.698 . S
C365 C205 0.698 . S
C370 C139 0.698 . S
C375 C172 0.686 . S
C380 C238 0.686 . S
C385 N13 1.720 . S
C390 N244 1.721 . S
C395 N145 1.720 . S
C400 N46 1.721 . S
C405 N178 1.721 . S
C410 N79 1.722 . S
C415 N211 1.722 . S
C420 N112 1.720 . S
C425 N68 1.454 . S
C430 N167 1.455 . S
C435 N101 1.453 . S
C440 N200 1.455 . S
C445 N233 1.455 . S
C450 N2 1.452 . S
C455 N134 1.453 . S
C460 N35 1.455 . S
