# Generated by pormake.
# Topology wga, (5)-cn, num edge types: 1
# Building blocks:
#     Node 0, Type 0, BuildingBlock: XOMCOT_clean_sbu_0, # of connection points: 5
#     Node 1, Type 0, BuildingBlock: XOMCOT_clean_sbu_0, # of connection points: 5
#     Node 2, Type 0, BuildingBlock: XOMCOT_clean_sbu_0, # of connection points: 5
#     Node 3, Type 0, BuildingBlock: XOMCOT_clean_sbu_0, # of connection points: 5
#     Node 4, Type 0, BuildingBlock: XOMCOT_clean_sbu_0, # of connection points: 5
#     Node 5, Type 0, BuildingBlock: XOMCOT_clean_sbu_0, # of connection points: 5
#     Node 6, Type 0, BuildingBlock: XOMCOT_clean_sbu_0, # of connection points: 5
#     Node 7, Type 0, BuildingBlock: XOMCOT_clean_sbu_0, # of connection points: 5
#     Node 8, Type 0, BuildingBlock: XOMCOT_clean_sbu_0, # of connection points: 5
#     Node 9, Type 0, BuildingBlock: XOMCOT_clean_sbu_0, # of connection points: 5
#     Node 10, Type 0, BuildingBlock: XOMCOT_clean_sbu_0, # of connection points: 5
#     Node 11, Type 0, BuildingBlock: XOMCOT_clean_sbu_0, # of connection points: 5
#     Node 12, Type 0, BuildingBlock: XOMCOT_clean_sbu_0, # of connection points: 5
#     Node 13, Type 0, BuildingBlock: XOMCOT_clean_sbu_0, # of connection points: 5
#     Node 14, Type 0, BuildingBlock: XOMCOT_clean_sbu_0, # of connection points: 5
#     Node 15, Type 0, BuildingBlock: XOMCOT_clean_sbu_0, # of connection points: 5
#     Node 16, Type 0, BuildingBlock: XOMCOT_clean_sbu_0, # of connection points: 5
#     Node 17, Type 0, BuildingBlock: XOMCOT_clean_sbu_0, # of connection points: 5
#     Node 18, Type 0, BuildingBlock: XOMCOT_clean_sbu_0, # of connection points: 5
#     Node 19, Type 0, BuildingBlock: XOMCOT_clean_sbu_0, # of connection points: 5
#     Node 20, Type 0, BuildingBlock: XOMCOT_clean_sbu_0, # of connection points: 5
#     Node 21, Type 0, BuildingBlock: XOMCOT_clean_sbu_0, # of connection points: 5
#     Node 22, Type 0, BuildingBlock: XOMCOT_clean_sbu_0, # of connection points: 5
#     Node 23, Type 0, BuildingBlock: XOMCOT_clean_sbu_0, # of connection points: 5
#     Node 24, Type 0, BuildingBlock: XOMCOT_clean_sbu_0, # of connection points: 5
#     Node 25, Type 0, BuildingBlock: XOMCOT_clean_sbu_0, # of connection points: 5
#     Node 26, Type 0, BuildingBlock: XOMCOT_clean_sbu_0, # of connection points: 5
#     Node 27, Type 0, BuildingBlock: XOMCOT_clean_sbu_0, # of connection points: 5
#     Node 28, Type 0, BuildingBlock: XOMCOT_clean_sbu_0, # of connection points: 5
#     Node 29, Type 0, BuildingBlock: XOMCOT_clean_sbu_0, # of connection points: 5
#     Node 30, Type 0, BuildingBlock: XOMCOT_clean_sbu_0, # of connection points: 5
#     Node 31, Type 0, BuildingBlock: XOMCOT_clean_sbu_0, # of connection points: 5
#     Edge 32, Type (0, 0), BuildingBlock: CIFDUS_clean_linker_0, # of connection points: 2
#     Edge 33, Type (0, 0), BuildingBlock: CIFDUS_clean_linker_0, # of connection points: 2
#     Edge 34, Type (0, 0), BuildingBlock: CIFDUS_clean_linker_0, # of connection points: 2
#     Edge 35, Type (0, 0), BuildingBlock: CIFDUS_clean_linker_0, # of connection points: 2
#     Edge 36, Type (0, 0), BuildingBlock: CIFDUS_clean_linker_0, # of connection points: 2
#     Edge 37, Type (0, 0), BuildingBlock: CIFDUS_clean_linker_0, # of connection points: 2
#     Edge 38, Type (0, 0), BuildingBlock: CIFDUS_clean_linker_0, # of connection points: 2
#     Edge 39, Type (0, 0), BuildingBlock: CIFDUS_clean_linker_0, # of connection points: 2
#     Edge 40, Type (0, 0), BuildingBlock: CIFDUS_clean_linker_0, # of connection points: 2
#     Edge 41, Type (0, 0), BuildingBlock: CIFDUS_clean_linker_0, # of connection points: 2
#     Edge 42, Type (0, 0), BuildingBlock: CIFDUS_clean_linker_0, # of connection points: 2
#     Edge 43, Type (0, 0), BuildingBlock: CIFDUS_clean_linker_0, # of connection points: 2
#     Edge 44, Type (0, 0), BuildingBlock: CIFDUS_clean_linker_0, # of connection points: 2
#     Edge 45, Type (0, 0), BuildingBlock: CIFDUS_clean_linker_0, # of connection points: 2
#     Edge 46, Type (0, 0), BuildingBlock: CIFDUS_clean_linker_0, # of connection points: 2
#     Edge 47, Type (0, 0), BuildingBlock: CIFDUS_clean_linker_0, # of connection points: 2
#     Edge 48, Type (0, 0), BuildingBlock: CIFDUS_clean_linker_0, # of connection points: 2
#     Edge 49, Type (0, 0), BuildingBlock: CIFDUS_clean_linker_0, # of connection points: 2
#     Edge 50, Type (0, 0), BuildingBlock: CIFDUS_clean_linker_0, # of connection points: 2
#     Edge 51, Type (0, 0), BuildingBlock: CIFDUS_clean_linker_0, # of connection points: 2
#     Edge 52, Type (0, 0), BuildingBlock: CIFDUS_clean_linker_0, # of connection points: 2
#     Edge 53, Type (0, 0), BuildingBlock: CIFDUS_clean_linker_0, # of connection points: 2
#     Edge 54, Type (0, 0), BuildingBlock: CIFDUS_clean_linker_0, # of connection points: 2
#     Edge 55, Type (0, 0), BuildingBlock: CIFDUS_clean_linker_0, # of connection points: 2
#     Edge 56, Type (0, 0), BuildingBlock: CIFDUS_clean_linker_0, # of connection points: 2
#     Edge 57, Type (0, 0), BuildingBlock: CIFDUS_clean_linker_0, # of connection points: 2
#     Edge 58, Type (0, 0), BuildingBlock: CIFDUS_clean_linker_0, # of connection points: 2
#     Edge 59, Type (0, 0), BuildingBlock: CIFDUS_clean_linker_0, # of connection points: 2
#     Edge 60, Type (0, 0), BuildingBlock: CIFDUS_clean_linker_0, # of connection points: 2
#     Edge 61, Type (0, 0), BuildingBlock: CIFDUS_clean_linker_0, # of connection points: 2
#     Edge 62, Type (0, 0), BuildingBlock: CIFDUS_clean_linker_0, # of connection points: 2
#     Edge 63, Type (0, 0), BuildingBlock: CIFDUS_clean_linker_0, # of connection points: 2
#     Edge 64, Type (0, 0), BuildingBlock: CIFDUS_clean_linker_0, # of connection points: 2
#     Edge 65, Type (0, 0), BuildingBlock: CIFDUS_clean_linker_0, # of connection points: 2
#     Edge 66, Type (0, 0), BuildingBlock: CIFDUS_clean_linker_0, # of connection points: 2
#     Edge 67, Type (0, 0), BuildingBlock: CIFDUS_clean_linker_0, # of connection points: 2
#     Edge 68, Type (0, 0), BuildingBlock: CIFDUS_clean_linker_0, # of connection points: 2
#     Edge 69, Type (0, 0), BuildingBlock: CIFDUS_clean_linker_0, # of connection points: 2
#     Edge 70, Type (0, 0), BuildingBlock: CIFDUS_clean_linker_0, # of connection points: 2
#     Edge 71, Type (0, 0), BuildingBlock: CIFDUS_clean_linker_0, # of connection points: 2
#     Edge 72, Type (0, 0), BuildingBlock: CIFDUS_clean_linker_0, # of connection points: 2
#     Edge 73, Type (0, 0), BuildingBlock: CIFDUS_clean_linker_0, # of connection points: 2
#     Edge 74, Type (0, 0), BuildingBlock: CIFDUS_clean_linker_0, # of connection points: 2
#     Edge 75, Type (0, 0), BuildingBlock: CIFDUS_clean_linker_0, # of connection points: 2
#     Edge 76, Type (0, 0), BuildingBlock: CIFDUS_clean_linker_0, # of connection points: 2
#     Edge 77, Type (0, 0), BuildingBlock: CIFDUS_clean_linker_0, # of connection points: 2
#     Edge 78, Type (0, 0), BuildingBlock: CIFDUS_clean_linker_0, # of connection points: 2
#     Edge 79, Type (0, 0), BuildingBlock: CIFDUS_clean_linker_0, # of connection points: 2
#     Edge 80, Type (0, 0), BuildingBlock: CIFDUS_clean_linker_0, # of connection points: 2
#     Edge 81, Type (0, 0), BuildingBlock: CIFDUS_clean_linker_0, # of connection points: 2
#     Edge 82, Type (0, 0), BuildingBlock: CIFDUS_clean_linker_0, # of connection points: 2
#     Edge 83, Type (0, 0), BuildingBlock: CIFDUS_clean_linker_0, # of connection points: 2
#     Edge 84, Type (0, 0), BuildingBlock: CIFDUS_clean_linker_0, # of connection points: 2
#     Edge 85, Type (0, 0), BuildingBlock: CIFDUS_clean_linker_0, # of connection points: 2
#     Edge 86, Type (0, 0), BuildingBlock: CIFDUS_clean_linker_0, # of connection points: 2
#     Edge 87, Type (0, 0), BuildingBlock: CIFDUS_clean_linker_0, # of connection points: 2
#     Edge 88, Type (0, 0), BuildingBlock: CIFDUS_clean_linker_0, # of connection points: 2
#     Edge 89, Type (0, 0), BuildingBlock: CIFDUS_clean_linker_0, # of connection points: 2
#     Edge 90, Type (0, 0), BuildingBlock: CIFDUS_clean_linker_0, # of connection points: 2
#     Edge 91, Type (0, 0), BuildingBlock: CIFDUS_clean_linker_0, # of connection points: 2
#     Edge 92, Type (0, 0), BuildingBlock: CIFDUS_clean_linker_0, # of connection points: 2
#     Edge 93, Type (0, 0), BuildingBlock: CIFDUS_clean_linker_0, # of connection points: 2
#     Edge 94, Type (0, 0), BuildingBlock: CIFDUS_clean_linker_0, # of connection points: 2
#     Edge 95, Type (0, 0), BuildingBlock: CIFDUS_clean_linker_0, # of connection points: 2
#     Edge 96, Type (0, 0), BuildingBlock: CIFDUS_clean_linker_0, # of connection points: 2
#     Edge 97, Type (0, 0), BuildingBlock: CIFDUS_clean_linker_0, # of connection points: 2
#     Edge 98, Type (0, 0), BuildingBlock: CIFDUS_clean_linker_0, # of connection points: 2
#     Edge 99, Type (0, 0), BuildingBlock: CIFDUS_clean_linker_0, # of connection points: 2
#     Edge 100, Type (0, 0), BuildingBlock: CIFDUS_clean_linker_0, # of connection points: 2
#     Edge 101, Type (0, 0), BuildingBlock: CIFDUS_clean_linker_0, # of connection points: 2
#     Edge 102, Type (0, 0), BuildingBlock: CIFDUS_clean_linker_0, # of connection points: 2
#     Edge 103, Type (0, 0), BuildingBlock: CIFDUS_clean_linker_0, # of connection points: 2
#     Edge 104, Type (0, 0), BuildingBlock: CIFDUS_clean_linker_0, # of connection points: 2
#     Edge 105, Type (0, 0), BuildingBlock: CIFDUS_clean_linker_0, # of connection points: 2
#     Edge 106, Type (0, 0), BuildingBlock: CIFDUS_clean_linker_0, # of connection points: 2
#     Edge 107, Type (0, 0), BuildingBlock: CIFDUS_clean_linker_0, # of connection points: 2
#     Edge 108, Type (0, 0), BuildingBlock: CIFDUS_clean_linker_0, # of connection points: 2
#     Edge 109, Type (0, 0), BuildingBlock: CIFDUS_clean_linker_0, # of connection points: 2
#     Edge 110, Type (0, 0), BuildingBlock: CIFDUS_clean_linker_0, # of connection points: 2
#     Edge 111, Type (0, 0), BuildingBlock: CIFDUS_clean_linker_0, # of connection points: 2
# Relax obj value: 0.122
# Max RMSD: 0.130
# Mean RMSD: 0.130
data_MOF--net-wga--node1-XOMCOT_clean_sbu_0--edge1-CIFDUS_clean_linker_0
_symmetry_space_group_name_H-M    P1
_symmetry_Int_Tables_number       1
_symmetry_cell_setting            triclinic
loop_
_symmetry_equiv_pos_as_xyz
'x, y, z'
_cell_length_a     96.077182
_cell_length_b     96.093501
_cell_length_c     15.985066
_cell_angle_alpha  90.053009
_cell_angle_beta   89.990037
_cell_angle_gamma 90.114127
loop_
_atom_site_label
_atom_site_type_symbol
_atom_site_fract_x
_atom_site_fract_y
_atom_site_fract_z
_atom_type_partial_charge
Co0 Co 0.09689 0.56255 0.09808 0.0
C1 C 0.09562 0.5628 0.28617 0.0
C2 C 0.11116 0.54905 0.23773 0.0
C3 C 0.11147 0.54836 0.32366 0.0
N4 N 0.10102 0.55788 0.21394 0.0
N5 N 0.10165 0.55699 0.35412 0.0
H6 H 0.0878 0.57073 0.29008 0.0
H7 H 0.11781 0.54337 0.19514 0.0
C8 C 0.09139 0.5323 0.11273 0.0
O9 O 0.08502 0.53551 0.18289 0.0
N10 N 0.09336 0.56726 0.983 0.0
C11 C 0.08519 0.57768 0.95584 0.0
C12 C 0.08547 0.57782 0.86987 0.0
C13 C 0.09864 0.56127 0.91368 0.0
N14 N 0.09392 0.56751 0.84343 0.0
C15 C 0.07055 0.57245 0.16318 0.0
C16 C 0.05422 0.55284 0.08334 0.0
C17 C 0.04786 0.56219 0.1386 0.0
C18 C 0.05616 0.57238 0.17694 0.0
C19 C 0.06857 0.55336 0.07122 0.0
N20 N 0.07674 0.56234 0.11603 0.0
H21 H 0.07667 0.58081 0.18934 0.0
H22 H 0.07304 0.54659 0.02452 0.0
H23 H 0.0795 0.58475 0.99589 0.0
H24 H 0.1057 0.55251 0.91476 0.0
O25 O 0.10063 0.58193 0.12166 0.0
O26 O 0.11647 0.56651 0.08227 0.0
O27 O 0.09694 0.54196 0.06859 0.0
C28 C 0.11356 0.57926 0.10385 0.0
H29 H 0.11829 0.54184 0.36051 0.0
H30 H 0.08009 0.58515 0.82998 0.0
H31 H 0.04811 0.54535 0.04832 0.0
H32 H 0.05161 0.58018 0.21746 0.0
Co33 Co 0.68318 0.83692 0.32668 0.0
C34 C 0.6821 0.83616 0.51448 0.0
C35 C 0.69622 0.85148 0.46666 0.0
C36 C 0.69615 0.85243 0.55246 0.0
N37 N 0.68765 0.84107 0.44266 0.0
N38 N 0.68723 0.84281 0.58235 0.0
H39 H 0.67428 0.82816 0.51799 0.0
H40 H 0.70195 0.85813 0.42426 0.0
C41 C 0.71366 0.83308 0.34131 0.0
O42 O 0.71066 0.82596 0.40917 0.0
N43 N 0.67858 0.83334 0.21139 0.0
C44 C 0.6683 0.82493 0.18444 0.0
C45 C 0.6683 0.82493 0.09855 0.0
C46 C 0.68466 0.83844 0.14191 0.0
N47 N 0.67856 0.83345 0.07163 0.0
C48 C 0.67438 0.80989 0.38749 0.0
C49 C 0.69327 0.79468 0.29492 0.0
C50 C 0.68338 0.78751 0.34279 0.0
C51 C 0.67389 0.79531 0.39006 0.0
C52 C 0.69338 0.80918 0.29413 0.0
N53 N 0.68437 0.81673 0.34248 0.0
H54 H 0.66612 0.8156 0.4174 0.0
H55 H 0.70032 0.81428 0.25077 0.0
H56 H 0.66136 0.81909 0.22461 0.0
H57 H 0.69326 0.84573 0.14306 0.0
O58 O 0.66364 0.83949 0.35053 0.0
O59 O 0.67811 0.85632 0.3127 0.0
O60 O 0.70377 0.83824 0.29745 0.0
C61 C 0.66555 0.8526 0.33388 0.0
H62 H 0.7018 0.85996 0.58971 0.0
H63 H 0.66141 0.81888 0.05922 0.0
H64 H 0.70067 0.78913 0.25622 0.0
H65 H 0.66569 0.79023 0.42511 0.0
Co66 Co 0.41205 0.43589 0.65129 0.0
C67 C 0.41229 0.43431 0.83911 0.0
C68 C 0.39585 0.44702 0.79088 0.0
C69 C 0.39488 0.44689 0.87673 0.0
N70 N 0.4069 0.43932 0.76715 0.0
N71 N 0.40522 0.43888 0.90687 0.0
H72 H 0.42113 0.4275 0.84291 0.0
H73 H 0.38893 0.45235 0.74832 0.0
C74 C 0.41565 0.46622 0.67778 0.0
O75 O 0.42163 0.46277 0.74871 0.0
N76 N 0.41669 0.43231 0.53597 0.0
C77 C 0.42584 0.42274 0.50879 0.0
C78 C 0.42595 0.42287 0.42294 0.0
C79 C 0.41122 0.43807 0.46651 0.0
N80 N 0.4167 0.43245 0.39609 0.0
C81 C 0.43824 0.42571 0.71538 0.0
C82 C 0.45466 0.44654 0.64859 0.0
C83 C 0.46121 0.43566 0.69179 0.0
C84 C 0.45271 0.42508 0.72494 0.0
C85 C 0.44025 0.4465 0.63823 0.0
N86 N 0.43205 0.43661 0.67518 0.0
H87 H 0.43206 0.41706 0.73723 0.0
H88 H 0.43585 0.45423 0.59731 0.0
H89 H 0.43196 0.41603 0.54867 0.0
H90 H 0.40318 0.44593 0.46778 0.0
O91 O 0.40881 0.4162 0.66738 0.0
O92 O 0.39275 0.4314 0.62863 0.0
O93 O 0.41128 0.45666 0.62835 0.0
C94 C 0.39593 0.4186 0.64705 0.0
H95 H 0.387 0.45202 0.91393 0.0
H96 H 0.43245 0.41642 0.38361 0.0
H97 H 0.46055 0.45497 0.62108 0.0
H98 H 0.45716 0.41608 0.75535 0.0
Co99 Co 0.81478 0.15186 0.84295 0.0
C100 C 0.81533 0.15251 0.03031 0.0
C101 C 0.80022 0.13819 0.98224 0.0
C102 C 0.80019 0.13731 0.06829 0.0
N103 N 0.80952 0.14794 0.95827 0.0
N104 N 0.80974 0.14629 0.09834 0.0
H105 H 0.82367 0.15996 0.03384 0.0
H106 H 0.79408 0.13192 0.93976 0.0
C107 C 0.78388 0.15718 0.84798 0.0
O108 O 0.7852 0.1626 0.92304 0.0
N109 N 0.82001 0.15535 0.72829 0.0
C110 C 0.83084 0.16305 0.70152 0.0
C111 C 0.83079 0.16312 0.61539 0.0
C112 C 0.81358 0.15075 0.65851 0.0
N113 N 0.81994 0.15537 0.58819 0.0
C114 C 0.82697 0.17701 0.90709 0.0
C115 C 0.80806 0.19534 0.83876 0.0
C116 C 0.81904 0.20064 0.8871 0.0
C117 C 0.82867 0.19126 0.92056 0.0
C118 C 0.80681 0.18098 0.82638 0.0
N119 N 0.81579 0.1719 0.86391 0.0
H120 H 0.83492 0.1701 0.93019 0.0
H121 H 0.79891 0.17735 0.78381 0.0
H122 H 0.83817 0.16835 0.74182 0.0
H123 H 0.80452 0.14405 0.65949 0.0
O124 O 0.83379 0.14695 0.86854 0.0
O125 O 0.81761 0.1321 0.82594 0.0
O126 O 0.79455 0.15275 0.80839 0.0
C127 C 0.83042 0.13424 0.84935 0.0
H128 H 0.794 0.13021 0.10557 0.0
H129 H 0.83808 0.1687 0.57612 0.0
H130 H 0.80076 0.20226 0.80836 0.0
H131 H 0.83749 0.19489 0.95674 0.0
Co132 Co 0.08227 0.4268 0.91507 0.0
C133 C 0.08136 0.42647 0.73049 0.0
C134 C 0.09415 0.44316 0.77623 0.0
C135 C 0.09426 0.44345 0.68992 0.0
N136 N 0.08602 0.43254 0.80134 0.0
N137 N 0.08621 0.43294 0.66106 0.0
H138 H 0.0747 0.41738 0.73021 0.0
H139 H 0.09964 0.45018 0.81767 0.0
C140 C 0.07461 0.45272 1.00502 0.0
O141 O 0.06402 0.4456 0.0349 0.0
N142 N 0.07899 0.42081 0.03061 0.0
C143 C 0.07229 0.40931 0.05795 0.0
C144 C 0.07309 0.40874 0.14381 0.0
C145 C 0.08445 0.42658 0.10081 0.0
N146 N 0.08065 0.41967 0.171 0.0
C147 C 0.05428 0.41639 0.89096 0.0
C148 C 0.04243 0.44157 0.84816 0.0
C149 C 0.03374 0.42995 0.85787 0.0
C150 C 0.03994 0.41713 0.87692 0.0
C151 C 0.05673 0.44033 0.86269 0.0
N152 N 0.06235 0.42809 0.89029 0.0
H153 H 0.05889 0.40632 0.90024 0.0
H154 H 0.06326 0.44933 0.85251 0.0
H155 H 0.06769 0.40139 0.01925 0.0
H156 H 0.09101 0.43573 0.10052 0.0
O157 O 0.08544 0.40765 0.88337 0.0
O158 O 0.10172 0.42214 0.92926 0.0
O159 O 0.08302 0.44695 0.95347 0.0
C160 C 0.09842 0.40974 0.90292 0.0
H161 H 0.09974 0.45095 0.65165 0.0
H162 H 0.0688 0.4006 0.18291 0.0
H163 H 0.03823 0.45163 0.83112 0.0
H164 H 0.03379 0.40768 0.87997 0.0
Co165 Co 0.82135 0.83571 0.17323 0.0
C166 C 0.82167 0.83473 0.98859 0.0
C167 C 0.80466 0.84702 0.03446 0.0
C168 C 0.80434 0.84712 0.94818 0.0
N169 N 0.8155 0.83923 0.05949 0.0
N170 N 0.81505 0.83938 0.91923 0.0
H171 H 0.83094 0.82836 0.9882 0.0
H172 H 0.79752 0.85231 0.07597 0.0
C173 C 0.79566 0.82709 0.26276 0.0
O174 O 0.80326 0.81697 0.2938 0.0
N175 N 0.82741 0.83267 0.28887 0.0
C176 C 0.83905 0.8263 0.31638 0.0
C177 C 0.83959 0.82713 0.40222 0.0
C178 C 0.8215 0.83799 0.35899 0.0
N179 N 0.82848 0.83438 0.42926 0.0
C180 C 0.83281 0.8083 0.14873 0.0
C181 C 0.80815 0.79512 0.10833 0.0
C182 C 0.82021 0.78706 0.11793 0.0
C183 C 0.83274 0.79395 0.13547 0.0
C184 C 0.80872 0.80949 0.12196 0.0
N185 N 0.82074 0.81575 0.14869 0.0
H186 H 0.84267 0.81342 0.15711 0.0
H187 H 0.79942 0.81554 0.11189 0.0
H188 H 0.84709 0.82187 0.27786 0.0
H189 H 0.81217 0.84426 0.35858 0.0
O190 O 0.84036 0.8393 0.14169 0.0
O191 O 0.82566 0.85536 0.18716 0.0
O192 O 0.80111 0.83572 0.21117 0.0
C193 C 0.83815 0.85223 0.16137 0.0
H194 H 0.79669 0.85236 0.90997 0.0
H195 H 0.84781 0.82305 0.44143 0.0
H196 H 0.79828 0.79036 0.09218 0.0
H197 H 0.84249 0.78831 0.1382 0.0
Co198 Co 0.40577 0.56858 0.39173 0.0
C199 C 0.4066 0.56885 0.20706 0.0
C200 C 0.39317 0.55269 0.2529 0.0
C201 C 0.39303 0.55239 0.16653 0.0
N202 N 0.40171 0.56299 0.27799 0.0
N203 N 0.4015 0.56256 0.13767 0.0
H204 H 0.41361 0.57768 0.20658 0.0
H205 H 0.38744 0.5459 0.29441 0.0
C206 C 0.41327 0.54269 0.48226 0.0
O207 O 0.42365 0.54987 0.51425 0.0
N208 N 0.40943 0.57441 0.50709 0.0
C209 C 0.41759 0.58488 0.53482 0.0
C210 C 0.41685 0.58548 0.6207 0.0
C211 C 0.40335 0.56923 0.57705 0.0
N212 N 0.40799 0.57554 0.64759 0.0
C213 C 0.43307 0.57949 0.35699 0.0
C214 C 0.44586 0.55437 0.32458 0.0
C215 C 0.45401 0.56652 0.32465 0.0
C216 C 0.44724 0.57926 0.33804 0.0
C217 C 0.43162 0.55516 0.34171 0.0
N218 N 0.4256 0.56747 0.36462 0.0
H219 H 0.42808 0.58946 0.3637 0.0
H220 H 0.42549 0.54578 0.33638 0.0
H221 H 0.42347 0.59197 0.49649 0.0
H222 H 0.39593 0.56075 0.5762 0.0
O223 O 0.40265 0.5877 0.36164 0.0
O224 O 0.38632 0.57335 0.40832 0.0
O225 O 0.4051 0.54839 0.42909 0.0
C226 C 0.38974 0.58578 0.38279 0.0
H227 H 0.38727 0.5451 0.12818 0.0
H228 H 0.42225 0.5929 0.66006 0.0
H229 H 0.45038 0.54426 0.31247 0.0
H230 H 0.45277 0.58905 0.33317 0.0
Co231 Co 0.67397 0.15704 0.68868 0.0
C232 C 0.675 0.15592 0.49527 0.0
C233 C 0.68795 0.14101 0.55685 0.0
C234 C 0.68896 0.13899 0.47185 0.0
N235 N 0.67939 0.15179 0.57293 0.0
N236 N 0.6808 0.1483 0.43221 0.0
H237 H 0.66732 0.16383 0.48406 0.0
H238 H 0.69305 0.13484 0.60435 0.0
C239 C 0.70502 0.15958 0.68878 0.0
O240 O 0.70419 0.16532 0.61437 0.0
N241 N 0.66852 0.16176 0.80392 0.0
C242 C 0.65819 0.17062 0.82366 0.0
C243 C 0.65757 0.17211 0.90927 0.0
C244 C 0.67399 0.15783 0.8791 0.0
N245 N 0.66748 0.16413 0.94491 0.0
C246 C 0.667 0.18308 0.60968 0.0
C247 C 0.68569 0.19934 0.69773 0.0
C248 C 0.67741 0.20561 0.63639 0.0
C249 C 0.66789 0.19732 0.59245 0.0
C250 C 0.68467 0.18501 0.71163 0.0
N251 N 0.67585 0.17691 0.66512 0.0
H252 H 0.65883 0.17711 0.58041 0.0
H253 H 0.69073 0.18054 0.76165 0.0
H254 H 0.65164 0.17584 0.77853 0.0
H255 H 0.68272 0.15082 0.88546 0.0
O256 O 0.65459 0.15442 0.65955 0.0
O257 O 0.66848 0.1379 0.70791 0.0
O258 O 0.69397 0.15571 0.72698 0.0
C259 C 0.65618 0.14148 0.68156 0.0
H260 H 0.69526 0.13112 0.44172 0.0
H261 H 0.65028 0.17862 0.9429 0.0
H262 H 0.69288 0.20547 0.73483 0.0
H263 H 0.66086 0.2019 0.5473 0.0
Co264 Co 0.90131 0.42992 0.91602 0.0
C265 C 0.90258 0.42936 0.73116 0.0
C266 C 0.89028 0.44638 0.77684 0.0
C267 C 0.89031 0.44679 0.69078 0.0
N268 N 0.89801 0.4355 0.80189 0.0
N269 N 0.89803 0.43607 0.6619 0.0
H270 H 0.90892 0.42007 0.73079 0.0
H271 H 0.88495 0.45351 0.81823 0.0
C272 C 0.90939 0.4572 0.99838 0.0
O273 O 0.91979 0.4511 0.03705 0.0
N274 N 0.90428 0.42428 0.03188 0.0
C275 C 0.91005 0.41233 0.05948 0.0
C276 C 0.90944 0.412 0.14526 0.0
C277 C 0.89963 0.4307 0.1019 0.0
N278 N 0.90297 0.42359 0.1721 0.0
C279 C 0.92785 0.4169 0.89223 0.0
C280 C 0.94334 0.44075 0.86693 0.0
C281 C 0.95031 0.42806 0.878 0.0
C282 C 0.94229 0.41596 0.88677 0.0
C283 C 0.92877 0.44118 0.8728 0.0
N284 N 0.92133 0.4295 0.89299 0.0
H285 H 0.92195 0.4074 0.89636 0.0
H286 H 0.92357 0.45097 0.86251 0.0
H287 H 0.91386 0.40398 0.02093 0.0
H288 H 0.89388 0.44036 0.10152 0.0
O289 O 0.89666 0.41088 0.88746 0.0
O290 O 0.88156 0.42673 0.93048 0.0
O291 O 0.90156 0.45024 0.94897 0.0
C292 C 0.88387 0.41401 0.90632 0.0
H293 H 0.88516 0.45452 0.65273 0.0
H294 H 0.91305 0.40359 0.18464 0.0
H295 H 0.94907 0.45031 0.85663 0.0
H296 H 0.94715 0.40582 0.89026 0.0
Co297 Co 0.32071 0.16923 0.66152 0.0
C298 C 0.3223 0.16922 0.47631 0.0
C299 C 0.30584 0.15617 0.52229 0.0
C300 C 0.30609 0.15526 0.43639 0.0
N301 N 0.31594 0.16496 0.54709 0.0
N302 N 0.31645 0.16347 0.40731 0.0
H303 H 0.33103 0.17634 0.47563 0.0
H304 H 0.29894 0.15058 0.56393 0.0
C305 C 0.29306 0.17541 0.74587 0.0
O306 O 0.29904 0.18412 0.79804 0.0
N307 N 0.32563 0.17315 0.77729 0.0
C308 C 0.33518 0.18228 0.80606 0.0
C309 C 0.33565 0.18149 0.89185 0.0
C310 C 0.32083 0.16655 0.84625 0.0
N311 N 0.32655 0.17167 0.9173 0.0
C312 C 0.33353 0.1953 0.61907 0.0
C313 C 0.30976 0.21133 0.61691 0.0
C314 C 0.32274 0.21803 0.61097 0.0
C315 C 0.33466 0.20966 0.60807 0.0
C316 C 0.3091 0.19685 0.62565 0.0
N317 N 0.32095 0.18911 0.63366 0.0
H318 H 0.34297 0.18925 0.61887 0.0
H319 H 0.29897 0.19208 0.62609 0.0
H320 H 0.34156 0.18903 0.7684 0.0
H321 H 0.31313 0.15832 0.84427 0.0
O322 O 0.33998 0.16485 0.63921 0.0
O323 O 0.32419 0.14961 0.68147 0.0
O324 O 0.3001 0.16931 0.68873 0.0
C325 C 0.33702 0.15212 0.66 0.0
H326 H 0.2994 0.14872 0.39868 0.0
H327 H 0.34199 0.18793 0.93235 0.0
H328 H 0.30014 0.21716 0.61721 0.0
H329 H 0.3449 0.21413 0.59885 0.0
Co330 Co 0.58598 0.56926 0.37147 0.0
C331 C 0.58562 0.57089 0.18559 0.0
C332 C 0.59986 0.55547 0.23058 0.0
C333 C 0.60041 0.55558 0.14461 0.0
N334 N 0.59048 0.56496 0.2563 0.0
N335 N 0.59144 0.56528 0.11631 0.0
H336 H 0.57802 0.57915 0.18454 0.0
H337 H 0.6061 0.54906 0.27129 0.0
C338 C 0.59496 0.54075 0.42296 0.0
O339 O 0.60731 0.54578 0.44134 0.0
N340 N 0.5815 0.57356 0.48662 0.0
C341 C 0.573 0.58382 0.51275 0.0
C342 C 0.57268 0.58382 0.59874 0.0
C343 C 0.58636 0.56756 0.55708 0.0
N344 N 0.58109 0.57361 0.62672 0.0
C345 C 0.56022 0.58119 0.31551 0.0
C346 C 0.5432 0.55897 0.35568 0.0
C347 C 0.53714 0.57134 0.32803 0.0
C348 C 0.54581 0.5825 0.30688 0.0
C349 C 0.55763 0.55817 0.3652 0.0
N350 N 0.56604 0.56922 0.3456 0.0
H351 H 0.56662 0.59009 0.30087 0.0
H352 H 0.56168 0.54875 0.39188 0.0
H353 H 0.56749 0.59092 0.47228 0.0
H354 H 0.59382 0.55919 0.55759 0.0
O355 O 0.59005 0.58869 0.35224 0.0
O356 O 0.60555 0.57315 0.39295 0.0
O357 O 0.58542 0.54877 0.39588 0.0
C358 C 0.6028 0.58599 0.37319 0.0
H359 H 0.60717 0.54925 0.10612 0.0
H360 H 0.56658 0.59077 0.63741 0.0
H361 H 0.53679 0.5502 0.37404 0.0
H362 H 0.54147 0.59227 0.28547 0.0
Co363 Co 0.18341 0.84433 0.15738 0.0
C364 C 0.1831 0.84303 0.9726 0.0
C365 C 0.19933 0.85641 0.01813 0.0
C366 C 0.19962 0.85653 0.93192 0.0
N367 N 0.18901 0.84793 0.04336 0.0
N368 N 0.18939 0.84812 0.90318 0.0
H369 H 0.1742 0.83612 0.97229 0.0
H370 H 0.20612 0.86221 0.05948 0.0
C371 C 0.21002 0.83787 0.24699 0.0
O372 O 0.20329 0.82773 0.28464 0.0
N373 N 0.1776 0.84109 0.27303 0.0
C374 C 0.16663 0.83356 0.30034 0.0
C375 C 0.16596 0.83437 0.38608 0.0
C376 C 0.18298 0.84696 0.3431 0.0
N377 N 0.17633 0.84268 0.41328 0.0
C378 C 0.17266 0.81667 0.13012 0.0
C379 C 0.19798 0.80347 0.11204 0.0
C380 C 0.18586 0.79542 0.1182 0.0
C381 C 0.17303 0.80219 0.12327 0.0
C382 C 0.19706 0.81798 0.11688 0.0
N383 N 0.18466 0.82431 0.13449 0.0
H384 H 0.16266 0.82169 0.13275 0.0
H385 H 0.20642 0.82403 0.10816 0.0
H386 H 0.15921 0.82818 0.26165 0.0
H387 H 0.19177 0.854 0.34271 0.0
O388 O 0.16422 0.84717 0.12682 0.0
O389 O 0.17844 0.86382 0.17058 0.0
O390 O 0.2037 0.84547 0.19335 0.0
C391 C 0.16603 0.8602 0.14566 0.0
H392 H 0.20691 0.86228 0.89359 0.0
H393 H 0.15819 0.82944 0.42515 0.0
H394 H 0.20804 0.79857 0.10432 0.0
H395 H 0.1634 0.79631 0.12503 0.0
Co396 Co 0.91591 0.56713 0.14926 0.0
C397 C 0.91645 0.56869 0.33522 0.0
C398 C 0.90665 0.54997 0.29213 0.0
C399 C 0.90648 0.54999 0.37812 0.0
N400 N 0.91306 0.56162 0.26494 0.0
N401 N 0.91267 0.56175 0.40519 0.0
H402 H 0.92118 0.57888 0.33565 0.0
H403 H 0.90223 0.54197 0.25298 0.0
C404 C 0.90654 0.53911 0.09056 0.0
O405 O 0.89401 0.54424 0.07999 0.0
N406 N 0.91876 0.57272 0.03436 0.0
C407 C 0.92618 0.58387 1.00952 0.0
C408 C 0.92575 0.58466 0.92369 0.0
C409 C 0.91385 0.56689 0.96343 0.0
N410 N 0.91801 0.57396 0.89458 0.0
C411 C 0.94222 0.57756 0.20843 0.0
C412 C 0.95867 0.55832 0.12662 0.0
C413 C 0.96514 0.56891 0.17287 0.0
C414 C 0.9567 0.57859 0.21433 0.0
C415 C 0.94418 0.55765 0.12238 0.0
N416 N 0.93606 0.56705 0.16415 0.0
H417 H 0.93601 0.58557 0.23711 0.0
H418 H 0.93966 0.54988 0.08197 0.0
H419 H 0.93147 0.59101 0.05113 0.0
H420 H 0.90747 0.55765 0.96196 0.0
O421 O 0.91216 0.58627 0.17754 0.0
O422 O 0.89609 0.57102 0.13928 0.0
O423 O 0.91637 0.5469 0.11686 0.0
C424 C 0.89916 0.5837 0.16163 0.0
H425 H 0.90228 0.54185 0.41756 0.0
H426 H 0.9306 0.59265 0.88598 0.0
H427 H 0.96475 0.55091 0.09104 0.0
H428 H 0.96122 0.58703 0.25022 0.0
Co429 Co 0.18437 0.16061 0.90249 0.0
C430 C 0.18291 0.16036 0.08751 0.0
C431 C 0.20067 0.14923 0.04114 0.0
C432 C 0.20062 0.1484 0.12708 0.0
N433 N 0.18962 0.15677 0.0166 0.0
N434 N 0.18945 0.15539 0.1563 0.0
H435 H 0.17348 0.16649 0.08845 0.0
H436 H 0.20812 0.14445 0.99935 0.0
C437 C 0.21113 0.17038 0.82189 0.0
O438 O 0.20418 0.17932 0.77601 0.0
N439 N 0.17907 0.16403 0.78656 0.0
C440 C 0.16777 0.17083 0.75771 0.0
C441 C 0.1676 0.17016 0.67193 0.0
C442 C 0.18525 0.15879 0.71728 0.0
N443 N 0.17862 0.16264 0.64624 0.0
C444 C 0.16988 0.18625 0.93541 0.0
C445 C 0.19303 0.20255 0.96492 0.0
C446 C 0.17999 0.20904 0.95916 0.0
C447 C 0.16826 0.20056 0.94716 0.0
C448 C 0.19416 0.18818 0.95236 0.0
N449 N 0.18279 0.18038 0.9309 0.0
H450 H 0.16066 0.17992 0.92895 0.0
H451 H 0.20421 0.18343 0.96052 0.0
H452 H 0.15984 0.17567 0.79506 0.0
H453 H 0.1944 0.15225 0.71907 0.0
O454 O 0.16552 0.1547 0.92609 0.0
O455 O 0.1824 0.1408 0.88256 0.0
O456 O 0.20482 0.16251 0.8741 0.0
C457 C 0.16946 0.14223 0.90505 0.0
H458 H 0.20805 0.14275 0.16484 0.0
H459 H 0.15995 0.175 0.63172 0.0
H460 H 0.20232 0.2085 0.97914 0.0
H461 H 0.15789 0.20494 0.94458 0.0
Co462 Co 0.59258 0.43135 0.59502 0.0
C463 C 0.59168 0.43079 0.77977 0.0
C464 C 0.60656 0.44566 0.73425 0.0
C465 C 0.60671 0.44595 0.82046 0.0
N466 N 0.59711 0.4362 0.70906 0.0
N467 N 0.59734 0.43659 0.84917 0.0
H468 H 0.58387 0.42267 0.78007 0.0
H469 H 0.6129 0.45192 0.69287 0.0
C470 C 0.5881 0.459 0.51105 0.0
O471 O 0.5772 0.45372 0.47265 0.0
N472 N 0.58835 0.42634 0.47944 0.0
C473 C 0.57978 0.41619 0.45182 0.0
C474 C 0.58041 0.41561 0.36601 0.0
C475 C 0.59453 0.43136 0.40952 0.0
N476 N 0.5896 0.42523 0.33915 0.0
C477 C 0.56452 0.42234 0.62804 0.0
C478 C 0.55313 0.44839 0.6521 0.0
C479 C 0.54431 0.4368 0.649 0.0
C480 C 0.55019 0.42359 0.64047 0.0
C481 C 0.56747 0.4466 0.64162 0.0
N482 N 0.57285 0.43384 0.62186 0.0
H483 H 0.56886 0.41204 0.62296 0.0
H484 H 0.57415 0.45555 0.64885 0.0
H485 H 0.57382 0.40919 0.49032 0.0
H486 H 0.60237 0.43945 0.41028 0.0
O487 O 0.59442 0.41185 0.62207 0.0
O488 O 0.61158 0.42536 0.5773 0.0
O489 O 0.59509 0.45155 0.56223 0.0
C490 C 0.60745 0.41309 0.6014 0.0
H491 H 0.61308 0.45271 0.85877 0.0
H492 H 0.5748 0.40834 0.3267 0.0
H493 H 0.54897 0.45872 0.6623 0.0
H494 H 0.54371 0.41435 0.64063 0.0
Co495 Co 0.31972 0.84023 0.36205 0.0
C496 C 0.32032 0.83918 0.55058 0.0
C497 C 0.30887 0.85643 0.50153 0.0
C498 C 0.308 0.85679 0.58731 0.0
N499 N 0.31643 0.84528 0.4782 0.0
N500 N 0.31516 0.84589 0.61815 0.0
H501 H 0.32675 0.83009 0.55486 0.0
H502 H 0.30397 0.86361 0.45865 0.0
C503 C 0.2898 0.83547 0.39271 0.0
O504 O 0.29421 0.82907 0.46027 0.0
N505 N 0.32308 0.83583 0.24636 0.0
C506 C 0.33277 0.82689 0.21777 0.0
C507 C 0.33251 0.82703 0.13195 0.0
C508 C 0.31718 0.84147 0.17792 0.0
N509 N 0.32274 0.8362 0.10697 0.0
C510 C 0.32996 0.81407 0.42611 0.0
C511 C 0.31081 0.79748 0.34387 0.0
C512 C 0.3214 0.79118 0.39 0.0
C513 C 0.33104 0.79957 0.43183 0.0
C514 C 0.31001 0.81196 0.34063 0.0
N515 N 0.31921 0.82017 0.38386 0.0
H516 H 0.33822 0.82034 0.45211 0.0
H517 H 0.30246 0.8165 0.29889 0.0
H518 H 0.33972 0.82089 0.25671 0.0
H519 H 0.30911 0.8493 0.18011 0.0
O520 O 0.3394 0.84326 0.37678 0.0
O521 O 0.32441 0.85962 0.34008 0.0
O522 O 0.29873 0.84076 0.34202 0.0
C523 C 0.33724 0.85616 0.3566 0.0
H524 H 0.30217 0.86429 0.62371 0.0
H525 H 0.33932 0.82119 0.09105 0.0
H526 H 0.30353 0.79125 0.30798 0.0
H527 H 0.33971 0.79498 0.46504 0.0
Co528 Co 0.58401 0.06294 0.64214 0.0
C529 C 0.584 0.06438 0.82996 0.0
C530 C 0.59473 0.04657 0.78221 0.0
C531 C 0.59593 0.04657 0.86783 0.0
N532 N 0.58684 0.05748 0.75821 0.0
N533 N 0.58918 0.05778 0.89781 0.0
H534 H 0.57882 0.07427 0.83314 0.0
H535 H 0.59969 0.03932 0.73997 0.0
C536 C 0.57512 0.03344 0.64882 0.0
O537 O 0.56773 0.03731 0.714 0.0
N538 N 0.58187 0.06842 0.52691 0.0
C539 C 0.57561 0.0801 0.49991 0.0
C540 C 0.57587 0.08021 0.41397 0.0
C541 C 0.58594 0.06159 0.45747 0.0
N542 N 0.58237 0.06857 0.38719 0.0
C543 C 0.55778 0.07376 0.70649 0.0
C544 C 0.54107 0.05861 0.59888 0.0
C545 C 0.5348 0.06758 0.65638 0.0
C546 C 0.54328 0.07526 0.71068 0.0
C547 C 0.5555 0.05724 0.59794 0.0
N548 N 0.56374 0.06431 0.65361 0.0
H549 H 0.56414 0.08076 0.74242 0.0
H550 H 0.56008 0.05072 0.5503 0.0
H551 H 0.57096 0.08788 0.54007 0.0
H552 H 0.59141 0.05176 0.45858 0.0
O553 O 0.58917 0.0819 0.66958 0.0
O554 O 0.60396 0.06532 0.63266 0.0
O555 O 0.58251 0.04248 0.60983 0.0
C556 C 0.60196 0.07823 0.65466 0.0
H557 H 0.60183 0.03922 0.90478 0.0
H558 H 0.57129 0.08809 0.3744 0.0
H559 H 0.53485 0.05287 0.55404 0.0
H560 H 0.53878 0.0828 0.75317 0.0
Co561 Co 0.17895 0.34052 0.85444 0.0
C562 C 0.17996 0.34184 0.04493 0.0
C563 C 0.19718 0.35211 0.98552 0.0
C564 C 0.19847 0.35358 0.07086 0.0
N565 N 0.18562 0.34473 0.96839 0.0
N566 N 0.18764 0.34724 0.10926 0.0
H567 H 0.1703 0.33619 0.05315 0.0
H568 H 0.20419 0.3563 0.93897 0.0
C569 C 0.20419 0.33071 0.76439 0.0
O570 O 0.1966 0.32009 0.73941 0.0
N571 N 0.17205 0.33688 0.73856 0.0
C572 C 0.15915 0.33235 0.7185 0.0
C573 C 0.1578 0.33151 0.63295 0.0
C574 C 0.17799 0.33963 0.66223 0.0
N575 N 0.16966 0.33595 0.59667 0.0
C576 C 0.16809 0.31239 0.87583 0.0
C577 C 0.19299 0.30104 0.92881 0.0
C578 C 0.18173 0.29212 0.91345 0.0
C579 C 0.16898 0.29802 0.88966 0.0
C580 C 0.19159 0.3153 0.91488 0.0
N581 N 0.17957 0.32071 0.8827 0.0
H582 H 0.15815 0.31674 0.86009 0.0
H583 H 0.20042 0.32197 0.92743 0.0
H584 H 0.15086 0.33036 0.76237 0.0
H585 H 0.1882 0.3442 0.65435 0.0
O586 O 0.16019 0.34491 0.88978 0.0
O587 O 0.17534 0.36003 0.83714 0.0
O588 O 0.19885 0.33998 0.81211 0.0
C589 C 0.16297 0.35765 0.86729 0.0
H590 H 0.20691 0.35895 0.10207 0.0
H591 H 0.14854 0.32821 0.59976 0.0
H592 H 0.20286 0.29702 0.95063 0.0
H593 H 0.15988 0.29156 0.87963 0.0
Co594 Co 0.91032 0.93065 0.12877 0.0
C595 C 0.90961 0.92943 0.31337 0.0
C596 C 0.89978 0.94795 0.26732 0.0
C597 C 0.89902 0.94795 0.35349 0.0
N598 N 0.9065 0.93638 0.24251 0.0
N599 N 0.90518 0.93628 0.38234 0.0
H600 H 0.91511 0.91961 0.3142 0.0
H601 H 0.8956 0.95577 0.22574 0.0
C602 C 0.92219 0.95615 0.05161 0.0
O603 O 0.93213 0.94813 0.02233 0.0
N604 N 0.9135 0.92474 1.01308 0.0
C605 C 0.91691 0.9119 0.98549 0.0
C606 C 0.91654 0.91172 0.89951 0.0
C607 C 0.91023 0.93186 0.94268 0.0
N608 N 0.91238 0.92432 0.87224 0.0
C609 C 0.93819 0.91861 0.13997 0.0
C610 C 0.95048 0.94221 0.20608 0.0
C611 C 0.95905 0.93131 0.17922 0.0
C612 C 0.95269 0.91912 0.14929 0.0
C613 C 0.9361 0.94123 0.19583 0.0
N614 N 0.93018 0.92999 0.15684 0.0
H615 H 0.93353 0.90909 0.11861 0.0
H616 H 0.92977 0.94993 0.21523 0.0
H617 H 0.91872 0.90292 0.02437 0.0
H618 H 0.90579 0.94218 0.94313 0.0
O619 O 0.90489 0.91186 0.15748 0.0
O620 O 0.89058 0.92818 0.11059 0.0
O621 O 0.91219 0.95089 0.09423 0.0
C622 C 0.8923 0.91545 0.13645 0.0
H623 H 0.89403 0.95578 0.39176 0.0
H624 H 0.91896 0.90284 0.86058 0.0
H625 H 0.95486 0.95159 0.23295 0.0
H626 H 0.95887 0.91025 0.13031 0.0
Co627 Co 0.31428 0.6603 0.35416 0.0
C628 C 0.31489 0.66078 0.53866 0.0
C629 C 0.29601 0.65151 0.49306 0.0
C630 C 0.29573 0.65145 0.57939 0.0
N631 N 0.308 0.65742 0.46788 0.0
N632 N 0.30762 0.65729 0.60819 0.0
H633 H 0.32508 0.66557 0.53874 0.0
H634 H 0.28801 0.64757 0.45168 0.0
C635 C 0.2902 0.673 0.26772 0.0
O636 O 0.29912 0.68237 0.24072 0.0
N637 N 0.32074 0.66257 0.23854 0.0
C638 C 0.33368 0.66579 0.21141 0.0
C639 C 0.33406 0.66493 0.1255 0.0
C640 C 0.31378 0.65887 0.16812 0.0
N641 N 0.32151 0.66065 0.09816 0.0
C642 C 0.32887 0.68667 0.37117 0.0
C643 C 0.30638 0.70132 0.43315 0.0
C644 C 0.31879 0.70847 0.41684 0.0
C645 C 0.33022 0.70093 0.387 0.0
C646 C 0.30543 0.68713 0.41525 0.0
N647 N 0.31634 0.68011 0.37998 0.0
H648 H 0.338 0.68093 0.35387 0.0
H649 H 0.29578 0.6818 0.42883 0.0
H650 H 0.34261 0.6677 0.25048 0.0
H651 H 0.3033 0.65477 0.16802 0.0
O652 O 0.33255 0.65395 0.38574 0.0
O653 O 0.31552 0.64037 0.33898 0.0
O654 O 0.29436 0.66322 0.31598 0.0
C655 C 0.32829 0.64153 0.36553 0.0
H656 H 0.28728 0.64758 0.61765 0.0
H657 H 0.34311 0.66669 0.08652 0.0
H658 H 0.29736 0.70669 0.45769 0.0
H659 H 0.34018 0.70597 0.37711 0.0
Co660 Co 0.59265 0.92958 0.39555 0.0
C661 C 0.59195 0.92864 0.21093 0.0
C662 C 0.60069 0.94781 0.25615 0.0
C663 C 0.60118 0.94788 0.17008 0.0
N664 N 0.59483 0.93579 0.28149 0.0
N665 N 0.59574 0.9358 0.14175 0.0
H666 H 0.58732 0.91837 0.21046 0.0
H667 H 0.6047 0.9558 0.29728 0.0
C668 C 0.58162 0.95526 0.47926 0.0
O669 O 0.5718 0.94747 0.51236 0.0
N670 N 0.59105 0.92326 0.51158 0.0
C671 C 0.58862 0.91018 0.53885 0.0
C672 C 0.58906 0.90997 0.62472 0.0
C673 C 0.59392 0.93055 0.58201 0.0
N674 N 0.59229 0.92284 0.65215 0.0
C675 C 0.56592 0.91574 0.39361 0.0
C676 C 0.55056 0.93835 0.34061 0.0
C677 C 0.54355 0.92637 0.36775 0.0
C678 C 0.55143 0.91481 0.39163 0.0
C679 C 0.56512 0.93889 0.3449 0.0
N680 N 0.57256 0.928 0.37725 0.0
H681 H 0.57174 0.90655 0.40838 0.0
H682 H 0.57038 0.94829 0.32537 0.0
H683 H 0.58722 0.90112 0.4998 0.0
H684 H 0.59761 0.94117 0.58209 0.0
O685 O 0.5982 0.91105 0.36248 0.0
O686 O 0.61266 0.92767 0.4043 0.0
O687 O 0.59086 0.94974 0.43214 0.0
C688 C 0.61092 0.91492 0.37833 0.0
H689 H 0.60571 0.95596 0.13153 0.0
H690 H 0.58715 0.90095 0.66351 0.0
H691 H 0.54484 0.9474 0.31965 0.0
H692 H 0.54641 0.90514 0.40916 0.0
Co693 Co 0.31433 0.34981 0.66289 0.0
C694 C 0.31454 0.34849 0.47509 0.0
C695 C 0.30095 0.3642 0.52323 0.0
C696 C 0.30025 0.36445 0.43728 0.0
N697 N 0.30971 0.35401 0.54717 0.0
N698 N 0.30879 0.35453 0.40698 0.0
H699 H 0.32234 0.34052 0.47151 0.0
H700 H 0.29531 0.37091 0.5657 0.0
C701 C 0.28397 0.34433 0.64767 0.0
O702 O 0.2869 0.3381 0.5766 0.0
N703 N 0.31898 0.34611 0.77791 0.0
C704 C 0.32938 0.3379 0.80507 0.0
C705 C 0.32948 0.33812 0.89108 0.0
C706 C 0.31296 0.35134 0.84728 0.0
N707 N 0.31916 0.34657 0.91755 0.0
C708 C 0.32524 0.32387 0.59856 0.0
C709 C 0.30517 0.30686 0.66867 0.0
C710 C 0.31533 0.30092 0.61745 0.0
C711 C 0.32573 0.3095 0.58414 0.0
C712 C 0.30528 0.32118 0.68304 0.0
N713 N 0.31456 0.32969 0.64288 0.0
H714 H 0.3336 0.33028 0.57496 0.0
H715 H 0.29801 0.3253 0.72798 0.0
H716 H 0.33649 0.33227 0.76505 0.0
H717 H 0.30423 0.35843 0.84621 0.0
O718 O 0.33368 0.35413 0.64058 0.0
O719 O 0.31777 0.36941 0.68068 0.0
O720 O 0.29379 0.34954 0.69196 0.0
C721 C 0.33061 0.36694 0.6595 0.0
H722 H 0.29378 0.3713 0.40032 0.0
H723 H 0.3368 0.33274 0.93097 0.0
H724 H 0.29741 0.30042 0.6992 0.0
H725 H 0.33411 0.30515 0.54713 0.0
Co726 Co 0.9108 0.06506 0.9001 0.0
C727 C 0.91085 0.06611 0.71548 0.0
C728 C 0.89885 0.04884 0.76126 0.0
C729 C 0.89818 0.0489 0.67512 0.0
N730 N 0.90684 0.05959 0.78624 0.0
N731 N 0.9057 0.05979 0.64641 0.0
H732 H 0.91739 0.07529 0.71485 0.0
H733 H 0.89364 0.04163 0.80272 0.0
C734 C 0.9185 0.03818 0.98139 0.0
O735 O 0.92948 0.04452 1.01253 0.0
N736 N 0.9143 0.0707 0.01585 0.0
C737 C 0.91993 0.08273 0.04367 0.0
C738 C 0.91955 0.08294 0.12963 0.0
C739 C 0.90982 0.0642 0.08601 0.0
N740 N 0.91324 0.07122 0.15654 0.0
C741 C 0.93898 0.0752 0.88151 0.0
C742 C 0.95051 0.05024 0.83117 0.0
C743 C 0.95937 0.06155 0.84697 0.0
C744 C 0.95336 0.0743 0.86964 0.0
C745 C 0.93616 0.05167 0.84326 0.0
N746 N 0.93069 0.06372 0.87478 0.0
H747 H 0.93457 0.08521 0.89509 0.0
H748 H 0.92949 0.04293 0.82892 0.0
H749 H 0.92348 0.09122 1.00521 0.0
H750 H 0.90379 0.0547 0.0854 0.0
O751 O 0.90776 0.08428 0.87017 0.0
O752 O 0.89141 0.06977 0.91532 0.0
O753 O 0.90989 0.04485 0.93547 0.0
C754 C 0.89476 0.08218 0.88939 0.0
H755 H 0.89226 0.04173 0.63682 0.0
H756 H 0.92357 0.09119 0.16889 0.0
H757 H 0.95461 0.04037 0.80978 0.0
H758 H 0.95971 0.08346 0.88002 0.0
Co759 Co 0.17933 0.66288 0.14884 0.0
C760 C 0.17945 0.6646 0.96134 0.0
C761 C 0.19295 0.64875 1.00874 0.0
C762 C 0.1936 0.64854 0.92279 0.0
N763 N 0.18429 0.659 0.03316 0.0
N764 N 0.1851 0.65853 0.89289 0.0
H765 H 0.17163 0.67256 0.95833 0.0
H766 H 0.19846 0.6419 0.05086 0.0
C767 C 0.20999 0.66713 0.13981 0.0
O768 O 0.2078 0.67387 0.06952 0.0
N769 N 0.17434 0.66629 0.26378 0.0
C770 C 0.16394 0.67453 0.29069 0.0
C771 C 0.16374 0.67429 0.37671 0.0
C772 C 0.18026 0.66103 0.33332 0.0
N773 N 0.174 0.66581 0.40346 0.0
C774 C 0.16943 0.68938 0.08781 0.0
C775 C 0.18977 0.70555 0.16193 0.0
C776 C 0.17972 0.71219 0.11223 0.0
C777 C 0.16925 0.70383 0.0766 0.0
C778 C 0.18929 0.69116 0.17352 0.0
N779 N 0.17984 0.68308 0.13179 0.0
H780 H 0.16095 0.68331 0.06269 0.0
H781 H 0.19646 0.68665 0.21758 0.0
H782 H 0.15696 0.68027 0.25049 0.0
H783 H 0.18903 0.65397 0.3325 0.0
O784 O 0.15996 0.65927 0.12306 0.0
O785 O 0.17522 0.64333 0.16298 0.0
O786 O 0.19969 0.66224 0.18117 0.0
C787 C 0.16257 0.64629 0.1402 0.0
H788 H 0.19994 0.64161 0.88556 0.0
H789 H 0.15643 0.67974 0.41643 0.0
H790 H 0.19802 0.71131 0.19234 0.0
H791 H 0.16073 0.70836 0.04178 0.0
Co792 Co 0.41144 0.93273 0.3782 0.0
C793 C 0.40668 0.9318 0.19336 0.0
C794 C 0.41559 0.95116 0.23332 0.0
C795 C 0.41468 0.95124 0.14757 0.0
N796 N 0.41051 0.93901 0.2625 0.0
N797 N 0.40913 0.93905 0.12221 0.0
H798 H 0.40265 0.9213 0.19464 0.0
H799 H 0.42039 0.95919 0.2709 0.0
C800 C 0.40426 0.9615 0.42703 0.0
O801 O 0.39117 0.95791 0.41733 0.0
N802 N 0.4125 0.9266 0.49322 0.0
C803 C 0.41854 0.91484 0.52072 0.0
C804 C 0.41777 0.91456 0.60673 0.0
C805 C 0.40803 0.93327 0.56246 0.0
N806 N 0.41119 0.92618 0.63306 0.0
C807 C 0.43702 0.92353 0.30339 0.0
C808 C 0.45449 0.93666 0.41643 0.0
C809 C 0.46036 0.92949 0.34867 0.0
C810 C 0.45144 0.92282 0.29183 0.0
C811 C 0.44004 0.93734 0.42479 0.0
N812 N 0.4315 0.93097 0.36812 0.0
H813 H 0.43023 0.91825 0.25974 0.0
H814 H 0.4357 0.94303 0.47698 0.0
H815 H 0.42349 0.90719 0.48101 0.0
H816 H 0.40265 0.94312 0.56123 0.0
O817 O 0.40574 0.91407 0.34646 0.0
O818 O 0.39137 0.93103 0.38222 0.0
O819 O 0.41387 0.95258 0.41528 0.0
C820 C 0.393 0.91812 0.35993 0.0
H821 H 0.41861 0.95935 0.10695 0.0
H822 H 0.42221 0.90665 0.64673 0.0
H823 H 0.46103 0.94195 0.46168 0.0
H824 H 0.45558 0.91702 0.23933 0.0
Co825 Co 0.82082 0.65529 0.20031 0.0
C826 C 0.82126 0.65633 0.01567 0.0
C827 C 0.80283 0.64621 0.06124 0.0
C828 C 0.80251 0.64618 0.97497 0.0
N829 N 0.81457 0.65261 0.08645 0.0
N830 N 0.81412 0.65254 0.9462 0.0
H831 H 0.83127 0.6615 0.01545 0.0
H832 H 0.79507 0.64182 0.1026 0.0
C833 C 0.79613 0.66659 0.28964 0.0
O834 O 0.80465 0.67589 0.32179 0.0
N835 N 0.82723 0.65747 0.316 0.0
C836 C 0.83971 0.66208 0.34334 0.0
C837 C 0.84016 0.6612 0.42916 0.0
C838 C 0.82064 0.65305 0.38618 0.0
N839 N 0.82811 0.65563 0.45632 0.0
C840 C 0.83523 0.68146 0.17984 0.0
C841 C 0.81207 0.69718 0.14126 0.0
C842 C 0.8248 0.704 0.15462 0.0
C843 C 0.83659 0.69585 0.17062 0.0
C844 C 0.81123 0.68273 0.15075 0.0
N845 N 0.82248 0.67522 0.17722 0.0
H846 H 0.8445 0.67537 0.18793 0.0
H847 H 0.80139 0.67765 0.13873 0.0
H848 H 0.84832 0.66524 0.3046 0.0
H849 H 0.81051 0.64812 0.38595 0.0
O850 O 0.83927 0.64951 0.16821 0.0
O851 O 0.82266 0.63531 0.21312 0.0
O852 O 0.80077 0.65747 0.23833 0.0
C853 C 0.83542 0.63691 0.18708 0.0
H854 H 0.79425 0.64192 0.93668 0.0
H855 H 0.84892 0.66403 0.46828 0.0
H856 H 0.80273 0.70294 0.12617 0.0
H857 H 0.84681 0.70054 0.17605 0.0
Co858 Co 0.09032 0.07038 0.91529 0.0
C859 C 0.08985 0.07115 0.7307 0.0
C860 C 0.10301 0.05483 0.77651 0.0
C861 C 0.10304 0.05442 0.69034 0.0
N862 N 0.09468 0.06527 0.80148 0.0
N863 N 0.09474 0.06469 0.66139 0.0
H864 H 0.0829 0.07999 0.73044 0.0
H865 H 0.10855 0.04789 0.81803 0.0
C866 C 0.08207 0.04311 0.99151 0.0
O867 O 0.07105 0.04931 0.02271 0.0
N868 N 0.08636 0.07558 0.03107 0.0
C869 C 0.08048 0.08745 0.05933 0.0
C870 C 0.08097 0.08765 0.14521 0.0
C871 C 0.09099 0.06911 0.10095 0.0
N872 N 0.08753 0.07609 0.17151 0.0
C873 C 0.06286 0.08142 0.88913 0.0
C874 C 0.05045 0.05711 0.83466 0.0
C875 C 0.04221 0.06904 0.84416 0.0
C876 C 0.0487 0.08137 0.8701 0.0
C877 C 0.06466 0.05766 0.8541 0.0
N878 N 0.07052 0.06948 0.88659 0.0
H879 H 0.06769 0.09122 0.90356 0.0
H880 H 0.07094 0.04855 0.84256 0.0
H881 H 0.07691 0.09597 0.02135 0.0
H882 H 0.09699 0.05961 0.10016 0.0
O883 O 0.0937 0.08966 0.8886 0.0
O884 O 0.10976 0.07501 0.93438 0.0
O885 O 0.09085 0.05 0.94773 0.0
C886 C 0.10656 0.08756 0.9103 0.0
H887 H 0.10854 0.04691 0.65231 0.0
H888 H 0.07739 0.09603 0.185 0.0
H889 H 0.04602 0.04749 0.81122 0.0
H890 H 0.04289 0.09096 0.87636 0.0
Co891 Co 0.68224 0.33799 0.64588 0.0
C892 C 0.68165 0.33616 0.46095 0.0
C893 C 0.70065 0.34523 0.50602 0.0
C894 C 0.70099 0.34513 0.42002 0.0
N895 N 0.68858 0.33954 0.53154 0.0
N896 N 0.689 0.33949 0.39139 0.0
H897 H 0.6713 0.33172 0.46094 0.0
H898 H 0.70859 0.34941 0.54693 0.0
C899 C 0.70786 0.32744 0.73222 0.0
O900 O 0.7002 0.31779 0.76811 0.0
N901 N 0.67577 0.33704 0.76213 0.0
C902 C 0.66257 0.33499 0.78878 0.0
C903 C 0.66213 0.3359 0.8745 0.0
C904 C 0.68293 0.34018 0.83274 0.0
N905 N 0.67497 0.33907 0.90221 0.0
C906 C 0.66814 0.3114 0.64937 0.0
C907 C 0.69074 0.29554 0.60138 0.0
C908 C 0.67873 0.28882 0.63052 0.0
C909 C 0.66718 0.29691 0.65188 0.0
C910 C 0.69133 0.31011 0.60146 0.0
N911 N 0.68045 0.31784 0.63138 0.0
H912 H 0.65897 0.31737 0.66248 0.0
H913 H 0.70078 0.31517 0.58085 0.0
H914 H 0.65357 0.33366 0.7492 0.0
H915 H 0.69369 0.34343 0.83372 0.0
O916 O 0.6638 0.34371 0.61163 0.0
O917 O 0.68075 0.35798 0.65151 0.0
O918 O 0.70228 0.33625 0.6828 0.0
C919 C 0.66797 0.3564 0.626 0.0
H920 H 0.70947 0.34896 0.38189 0.0
H921 H 0.65295 0.33484 0.91321 0.0
H922 H 0.69978 0.2896 0.58235 0.0
H923 H 0.65751 0.29205 0.67121 0.0
Co924 Co 0.40325 0.06895 0.6363 0.0
C925 C 0.40418 0.06957 0.82098 0.0
C926 C 0.39189 0.0525 0.77534 0.0
C927 C 0.39194 0.05209 0.86143 0.0
N928 N 0.39962 0.06341 0.75027 0.0
N929 N 0.39967 0.06284 0.89033 0.0
H930 H 0.41058 0.07884 0.82111 0.0
H931 H 0.38661 0.04531 0.73397 0.0
C932 C 0.41124 0.04158 0.55753 0.0
O933 O 0.42248 0.04739 0.52604 0.0
N934 N 0.40645 0.0746 0.52041 0.0
C935 C 0.41095 0.08712 0.49282 0.0
C936 C 0.41045 0.08737 0.40695 0.0
C937 C 0.4025 0.06777 0.45015 0.0
N938 N 0.40518 0.07518 0.38007 0.0
C939 C 0.43101 0.08019 0.65115 0.0
C940 C 0.44354 0.05618 0.70851 0.0
C941 C 0.45188 0.06782 0.69126 0.0
C942 C 0.44538 0.08004 0.66416 0.0
C943 C 0.4292 0.05675 0.69361 0.0
N944 N 0.42321 0.06841 0.66025 0.0
H945 H 0.42619 0.08991 0.63554 0.0
H946 H 0.42291 0.04774 0.70829 0.0
H947 H 0.41353 0.09594 0.53152 0.0
H948 H 0.39743 0.05773 0.45008 0.0
O949 O 0.39941 0.0881 0.66597 0.0
O950 O 0.38371 0.07283 0.62157 0.0
O951 O 0.40282 0.04872 0.60208 0.0
C952 C 0.38651 0.08541 0.64678 0.0
H953 H 0.38682 0.0443 0.89941 0.0
H954 H 0.41309 0.09615 0.36757 0.0
H955 H 0.44809 0.04662 0.73157 0.0
H956 H 0.45133 0.08948 0.65412 0.0
Co957 Co 0.68397 0.6552 0.35862 0.0
C958 C 0.68279 0.6556 0.54641 0.0
C959 C 0.69856 0.64207 0.49832 0.0
C960 C 0.69855 0.64106 0.58412 0.0
N961 N 0.6889 0.65144 0.47448 0.0
N962 N 0.6886 0.64955 0.61421 0.0
H963 H 0.67408 0.66258 0.55002 0.0
H964 H 0.705 0.63614 0.45584 0.0
C965 C 0.71413 0.66162 0.37078 0.0
O966 O 0.71097 0.66863 0.43883 0.0
N967 N 0.67901 0.65841 0.24348 0.0
C968 C 0.66805 0.66587 0.21662 0.0
C969 C 0.66804 0.66585 0.13066 0.0
C970 C 0.68549 0.65385 0.17392 0.0
N971 N 0.67899 0.65827 0.10366 0.0
C972 C 0.67313 0.68127 0.42278 0.0
C973 C 0.69116 0.69826 0.33494 0.0
C974 C 0.68126 0.70446 0.38738 0.0
C975 C 0.67209 0.69575 0.43126 0.0
C976 C 0.69184 0.6838 0.32846 0.0
N977 N 0.68342 0.67539 0.37556 0.0
H978 H 0.66522 0.67485 0.4511 0.0
H979 H 0.69893 0.67943 0.28321 0.0
H980 H 0.66066 0.67108 0.25689 0.0
H981 H 0.69466 0.64735 0.17498 0.0
O982 O 0.66475 0.65065 0.38274 0.0
O983 O 0.68085 0.63548 0.34364 0.0
O984 O 0.70446 0.65571 0.32845 0.0
C985 C 0.668 0.63782 0.36513 0.0
H986 H 0.70501 0.63422 0.62122 0.0
H987 H 0.66066 0.67125 0.09132 0.0
H988 H 0.6983 0.70452 0.29835 0.0
H989 H 0.66383 0.70008 0.46931 0.0
Co990 Co 0.09069 0.93522 0.11634 0.0
C991 C 0.09018 0.93439 0.30093 0.0
C992 C 0.09967 0.95316 0.25538 0.0
C993 C 0.09961 0.95353 0.34153 0.0
N994 N 0.09369 0.9412 0.23025 0.0
N995 N 0.09364 0.94172 0.37035 0.0
H996 H 0.08525 0.92427 0.30097 0.0
H997 H 0.1037 0.9611 0.21402 0.0
C998 C 0.07773 0.96045 0.03948 0.0
O999 O 0.06804 0.95226 1.00851 0.0
N1000 N 0.08818 0.92917 1.00046 0.0
C1001 C 0.0856 0.91613 0.97265 0.0
C1002 C 0.08618 0.91596 0.88678 0.0
C1003 C 0.09111 0.93652 0.93032 0.0
N1004 N 0.0896 0.9288 0.86009 0.0
C1005 C 0.06484 0.91997 0.13263 0.0
C1006 C 0.04917 0.94179 0.19362 0.0
C1007 C 0.04249 0.9291 0.1763 0.0
C1008 C 0.05064 0.918 0.14744 0.0
C1009 C 0.06341 0.94328 0.17774 0.0
N1010 N 0.07091 0.93272 0.14225 0.0
H1011 H 0.07094 0.9111 0.11492 0.0
H1012 H 0.06838 0.95304 0.19326 0.0
H1013 H 0.0844 0.90701 1.01118 0.0
H1014 H 0.09461 0.94721 0.93054 0.0
O1015 O 0.09728 0.91688 0.14524 0.0
O1016 O 0.11065 0.93414 0.10018 0.0
O1017 O 0.08771 0.95534 0.0826 0.0
C1018 C 0.10965 0.92127 0.1252 0.0
H1019 H 0.10347 0.96201 0.37958 0.0
H1020 H 0.08492 0.90688 0.84729 0.0
H1021 H 0.04347 0.95048 0.21963 0.0
H1022 H 0.0461 0.90789 0.13513 0.0
Co1023 Co 0.81519 0.33235 0.89239 0.0
C1024 C 0.81697 0.33224 0.08048 0.0
C1025 C 0.80304 0.34763 0.03206 0.0
C1026 C 0.8032 0.34875 0.11775 0.0
N1027 N 0.81144 0.33709 1.00851 0.0
N1028 N 0.81198 0.33908 0.14804 0.0
H1029 H 0.82454 0.32405 0.08443 0.0
H1030 H 0.79724 0.35415 0.98938 0.0
C1031 C 0.78515 0.32741 0.9175 0.0
O1032 O 0.78907 0.32115 0.98666 0.0
N1033 N 0.81912 0.32825 0.77681 0.0
C1034 C 0.82917 0.31962 0.74959 0.0
C1035 C 0.82914 0.31965 0.66376 0.0
C1036 C 0.81317 0.33354 0.70748 0.0
N1037 N 0.81914 0.32845 0.63708 0.0
C1038 C 0.82449 0.30563 0.95772 0.0
C1039 C 0.80445 0.29009 0.87573 0.0
C1040 C 0.8139 0.28323 0.92759 0.0
C1041 C 0.82428 0.29111 0.96744 0.0
C1042 C 0.80517 0.30446 0.86697 0.0
N1043 N 0.81446 0.31224 0.91208 0.0
H1044 H 0.83303 0.31144 0.98417 0.0
H1045 H 0.79841 0.30925 0.8215 0.0
H1046 H 0.83606 0.31372 0.78956 0.0
H1047 H 0.80488 0.34114 0.70883 0.0
O1048 O 0.83482 0.33566 0.91054 0.0
O1049 O 0.81954 0.35176 0.8731 0.0
O1050 O 0.79437 0.33277 0.8691 0.0
C1051 C 0.83235 0.3486 0.89173 0.0
H1052 H 0.79759 0.35633 0.15473 0.0
H1053 H 0.83592 0.31352 0.62427 0.0
H1054 H 0.7968 0.28434 0.83976 0.0
H1055 H 0.83218 0.28611 1.00513 0.0
H1056 H 0.07748 0.57101 0.70913 0.0
H1057 H 0.11799 0.5565 0.78504 0.0
H1058 H 0.12402 0.5518 0.63904 0.0
H1059 H 0.118 0.55261 0.48964 0.0
H1060 H 0.07716 0.56667 0.41534 0.0
H1061 H 0.07122 0.57112 0.56074 0.0
C1062 C 0.08767 0.56691 0.69372 0.0
C1063 C 0.0973 0.56419 0.75786 0.0
C1064 C 0.09106 0.56429 0.60983 0.0
C1065 C 0.11034 0.55858 0.73696 0.0
C1066 C 0.11382 0.55598 0.65343 0.0
C1067 C 0.10775 0.55651 0.50502 0.0
C1068 C 0.09813 0.55941 0.44083 0.0
C1069 C 0.10428 0.55887 0.58928 0.0
C1070 C 0.08493 0.56461 0.46265 0.0
C1071 C 0.08145 0.56706 0.54611 0.0
H1072 H 0.70364 0.84659 0.71705 0.0
H1073 H 0.66233 0.83413 0.64194 0.0
H1074 H 0.65593 0.83037 0.78791 0.0
H1075 H 0.66198 0.83081 0.93623 0.0
H1076 H 0.70347 0.84262 1.01233 0.0
H1077 H 0.70975 0.84689 0.86666 0.0
C1078 C 0.69321 0.84316 0.73276 0.0
C1079 C 0.6835 0.84061 0.66863 0.0
C1080 C 0.6896 0.84102 0.81694 0.0
C1081 C 0.67007 0.83597 0.68988 0.0
C1082 C 0.66638 0.83391 0.77341 0.0
C1083 C 0.67245 0.83417 0.92131 0.0
C1084 C 0.68223 0.83632 0.98571 0.0
C1085 C 0.67607 0.83637 0.83736 0.0
C1086 C 0.69566 0.84101 0.96457 0.0
C1087 C 0.6993 0.84336 0.88106 0.0
H1088 H 0.40026 0.45523 0.04076 0.0
H1089 H 0.41632 0.41513 0.96776 0.0
H1090 H 0.42111 0.40955 0.11377 0.0
H1091 H 0.42055 0.41592 0.26141 0.0
H1092 H 0.40517 0.45625 0.33583 0.0
H1093 H 0.39989 0.46171 0.19008 0.0
C1094 C 0.4047 0.44523 0.05696 0.0
C1095 C 0.40795 0.43562 0.99334 0.0
C1096 C 0.40745 0.4421 0.14122 0.0
C1097 C 0.4139 0.42279 1.01524 0.0
C1098 C 0.41656 0.41955 0.09881 0.0
C1099 C 0.41621 0.42598 0.24616 0.0
C1100 C 0.41335 0.43566 0.31012 0.0
C1101 C 0.41341 0.42914 0.16221 0.0
C1102 C 0.40737 0.44852 0.28845 0.0
C1103 C 0.40443 0.45169 0.20489 0.0
H1104 H 0.79339 0.14355 0.23477 0.0
H1105 H 0.83523 0.15344 0.15669 0.0
H1106 H 0.84209 0.15701 0.30197 0.0
H1107 H 0.83633 0.15716 0.45102 0.0
H1108 H 0.79437 0.14786 0.53016 0.0
H1109 H 0.78757 0.14386 0.38511 0.0
C1110 C 0.80403 0.14639 0.24966 0.0
C1111 C 0.81375 0.14828 0.18464 0.0
C1112 C 0.80793 0.14844 0.33367 0.0
C1113 C 0.82747 0.15213 0.20508 0.0
C1114 C 0.83143 0.15408 0.28833 0.0
C1115 C 0.82566 0.1544 0.4369 0.0
C1116 C 0.81592 0.15284 0.50221 0.0
C1117 C 0.82175 0.15231 0.35311 0.0
C1118 C 0.80219 0.14897 0.4819 0.0
C1119 C 0.79824 0.14677 0.39864 0.0
H1120 H 0.10172 0.43952 0.5246 0.0
H1121 H 0.06411 0.41837 0.60095 0.0
H1122 H 0.05926 0.41222 0.45606 0.0
H1123 H 0.06539 0.41311 0.30729 0.0
H1124 H 0.10275 0.43447 0.22963 0.0
H1125 H 0.10776 0.44057 0.375 0.0
C1126 C 0.09239 0.43367 0.5098 0.0
C1127 C 0.08335 0.4294 0.57456 0.0
C1128 C 0.08955 0.43026 0.42574 0.0
C1129 C 0.07141 0.42165 0.55334 0.0
C1130 C 0.06856 0.41819 0.47011 0.0
C1131 C 0.07472 0.41896 0.322 0.0
C1132 C 0.0837 0.42324 0.2571 0.0
C1133 C 0.07756 0.42242 0.40583 0.0
C1134 C 0.09557 0.43111 0.27777 0.0
C1135 C 0.09849 0.43455 0.36113 0.0
H1136 H 0.80811 0.85476 0.78309 0.0
H1137 H 0.8301 0.8177 0.85879 0.0
H1138 H 0.83634 0.81306 0.71381 0.0
H1139 H 0.83533 0.81923 0.56522 0.0
H1140 H 0.81315 0.85604 0.48814 0.0
H1141 H 0.80691 0.86082 0.6336 0.0
C1142 C 0.81416 0.84559 0.76812 0.0
C1143 C 0.81864 0.83664 0.83271 0.0
C1144 C 0.81763 0.84288 0.68403 0.0
C1145 C 0.82665 0.82492 0.8113 0.0
C1146 C 0.83017 0.82219 0.72802 0.0
C1147 C 0.82926 0.82839 0.58007 0.0
C1148 C 0.8248 0.83729 0.51534 0.0
C1149 C 0.82574 0.8311 0.66392 0.0
C1150 C 0.81665 0.84894 0.53618 0.0
C1151 C 0.81314 0.85172 0.61957 0.0
H1152 H 0.42379 0.58069 0.78424 0.0
H1153 H 0.38476 0.56257 0.70633 0.0
H1154 H 0.37932 0.55678 0.85155 0.0
H1155 H 0.38549 0.55722 1.00135 0.0
H1156 H 0.42462 0.57537 0.07776 0.0
H1157 H 0.42995 0.58111 0.93284 0.0
C1158 C 0.414 0.57563 0.79873 0.0
C1159 C 0.40469 0.57216 0.73372 0.0
C1160 C 0.4109 0.5724 0.88252 0.0
C1161 C 0.3922 0.56529 0.75441 0.0
C1162 C 0.38905 0.56203 0.83774 0.0
C1163 C 0.39524 0.56233 0.98645 0.0
C1164 C 0.40459 0.56588 0.05121 0.0
C1165 C 0.39832 0.56554 0.90239 0.0
C1166 C 0.41709 0.57268 0.03005 0.0
C1167 C 0.42021 0.5759 0.94684 0.0
H1168 H 0.67589 0.14167 0.0371 0.0
H1169 H 0.66539 0.18511 0.0571 0.0
H1170 H 0.66812 0.18415 0.2087 0.0
H1171 H 0.67328 0.17095 0.33853 0.0
H1172 H 0.68333 0.12735 0.31863 0.0
H1173 H 0.68107 0.12846 0.16722 0.0
C1174 C 0.67435 0.15095 0.07454 0.0
C1175 C 0.67037 0.16344 0.03461 0.0
C1176 C 0.67581 0.15031 0.16313 0.0
C1177 C 0.66829 0.17529 0.08526 0.0
C1178 C 0.66987 0.17477 0.17253 0.0
C1179 C 0.67487 0.16166 0.30131 0.0
C1180 C 0.67861 0.14911 0.34163 0.0
C1181 C 0.6735 0.16231 0.2127 0.0
C1182 C 0.68071 0.13726 0.2908 0.0
C1183 C 0.67935 0.13784 0.20338 0.0
H1184 H 0.91806 0.4163 0.30704 0.0
H1185 H 0.8818 0.43949 0.2312 0.0
H1186 H 0.87706 0.44547 0.37712 0.0
H1187 H 0.88292 0.44361 0.52618 0.0
H1188 H 0.91948 0.4207 0.60114 0.0
H1189 H 0.92413 0.41477 0.45564 0.0
C1190 C 0.90904 0.42255 0.32235 0.0
C1191 C 0.90025 0.42736 0.25804 0.0
C1192 C 0.90636 0.42591 0.40634 0.0
C1193 C 0.8888 0.43573 0.27913 0.0
C1194 C 0.88604 0.43909 0.3627 0.0
C1195 C 0.892 0.43745 0.51102 0.0
C1196 C 0.90079 0.43261 0.57538 0.0
C1197 C 0.89473 0.4342 0.42683 0.0
C1198 C 0.91238 0.42442 0.55371 0.0
C1199 C 0.91512 0.42109 0.47021 0.0
H1200 H 0.34292 0.17439 0.05362 0.0
H1201 H 0.30184 0.16182 0.97444 0.0
H1202 H 0.29513 0.15796 0.1199 0.0
H1203 H 0.30057 0.15922 0.26969 0.0
H1204 H 0.34168 0.17184 0.3488 0.0
H1205 H 0.34855 0.17506 0.20334 0.0
C1206 C 0.33248 0.17085 0.06806 0.0
C1207 C 0.32291 0.16843 1.00281 0.0
C1208 C 0.32862 0.16885 0.15199 0.0
C1209 C 0.3095 0.1636 0.02295 0.0
C1210 C 0.3056 0.16151 0.10633 0.0
C1211 C 0.31109 0.16252 0.25546 0.0
C1212 C 0.32054 0.16531 0.32089 0.0
C1213 C 0.31504 0.16423 0.17139 0.0
C1214 C 0.33407 0.16981 0.30042 0.0
C1215 C 0.33806 0.17155 0.21697 0.0
H1216 H 0.57857 0.5903 0.76213 0.0
H1217 H 0.58974 0.54865 0.68662 0.0
H1218 H 0.59408 0.54243 0.83219 0.0
H1219 H 0.59424 0.54866 0.98121 0.0
H1220 H 0.58282 0.59022 0.05664 0.0
H1221 H 0.57862 0.59649 0.9109 0.0
C1222 C 0.58181 0.57981 0.77727 0.0
C1223 C 0.5838 0.56998 0.71292 0.0
C1224 C 0.58414 0.57625 0.86131 0.0
C1225 C 0.58829 0.55651 0.73428 0.0
C1226 C 0.59068 0.55291 0.81775 0.0
C1227 C 0.59096 0.55913 0.96583 0.0
C1228 C 0.58887 0.56895 0.03011 0.0
C1229 C 0.58863 0.56269 0.88176 0.0
C1230 C 0.58435 0.5824 1.00884 0.0
C1231 C 0.58204 0.58602 0.92534 0.0
H1232 H 0.19505 0.8642 0.76793 0.0
H1233 H 0.17589 0.82545 0.84215 0.0
H1234 H 0.17001 0.8205 0.69688 0.0
H1235 H 0.17065 0.82686 0.54863 0.0
H1236 H 0.18992 0.86545 0.47311 0.0
H1237 H 0.19575 0.87055 0.61881 0.0
C1238 C 0.1897 0.85461 0.75254 0.0
C1239 C 0.18592 0.84524 0.8167 0.0
C1240 C 0.18644 0.85174 0.66839 0.0
C1241 C 0.17878 0.83297 0.79489 0.0
C1242 C 0.17548 0.83007 0.7115 0.0
C1243 C 0.17598 0.83648 0.56383 0.0
C1244 C 0.17975 0.84579 0.49948 0.0
C1245 C 0.17925 0.83937 0.64778 0.0
C1246 C 0.18696 0.85804 0.52084 0.0
C1247 C 0.19024 0.861 0.60436 0.0
H1248 H 0.93271 0.58192 0.75844 0.0
H1249 H 0.89633 0.55871 0.83461 0.0
H1250 H 0.8914 0.55299 0.68906 0.0
H1251 H 0.89737 0.55457 0.54001 0.0
H1252 H 0.93359 0.57796 0.46397 0.0
H1253 H 0.93834 0.584 0.60955 0.0
C1254 C 0.9236 0.57576 0.74352 0.0
C1255 C 0.91496 0.57075 0.80812 0.0
C1256 C 0.92072 0.57262 0.65946 0.0
C1257 C 0.90332 0.56256 0.78686 0.0
C1258 C 0.90042 0.55935 0.70337 0.0
C1259 C 0.90635 0.56092 0.55525 0.0
C1260 C 0.91512 0.56576 0.49094 0.0
C1261 C 0.90908 0.56427 0.63921 0.0
C1262 C 0.92657 0.57421 0.5119 0.0
C1263 C 0.92935 0.57759 0.59528 0.0
H1264 H 0.16195 0.16231 0.51018 0.0
H1265 H 0.20464 0.1573 0.58831 0.0
H1266 H 0.21177 0.15439 0.44271 0.0
H1267 H 0.206 0.15426 0.29287 0.0
H1268 H 0.16333 0.15964 0.21528 0.0
H1269 H 0.15616 0.16191 0.36101 0.0
C1270 C 0.17283 0.16068 0.49563 0.0
C1271 C 0.18273 0.16007 0.56061 0.0
C1272 C 0.1769 0.15926 0.41165 0.0
C1273 C 0.19675 0.15764 0.54007 0.0
C1274 C 0.20086 0.1561 0.4566 0.0
C1275 C 0.19511 0.15579 0.30768 0.0
C1276 C 0.18524 0.1568 0.2427 0.0
C1277 C 0.19103 0.157 0.39185 0.0
C1278 C 0.1712 0.15902 0.26351 0.0
C1279 C 0.16706 0.16022 0.34703 0.0
H1280 H 0.61358 0.44103 0.98538 0.0
H1281 H 0.57333 0.42548 0.90909 0.0
H1282 H 0.56751 0.42049 0.05426 0.0
H1283 H 0.57357 0.4209 0.20297 0.0
H1284 H 0.61366 0.43656 0.28056 0.0
H1285 H 0.61961 0.44154 0.13498 0.0
C1286 C 0.60348 0.43667 1.00028 0.0
C1287 C 0.59395 0.43362 0.93558 0.0
C1288 C 0.60011 0.43393 0.08439 0.0
C1289 C 0.58099 0.42776 0.95678 0.0
C1290 C 0.57759 0.42498 0.04012 0.0
C1291 C 0.58368 0.42525 0.18826 0.0
C1292 C 0.59316 0.42826 0.25313 0.0
C1293 C 0.58706 0.42802 0.10438 0.0
C1294 C 0.60609 0.43423 0.23241 0.0
C1295 C 0.60954 0.43701 0.14896 0.0
H1296 H 0.32411 0.81952 0.9728 0.0
H1297 H 0.31453 0.86141 0.04994 0.0
H1298 H 0.31111 0.86819 0.90382 0.0
H1299 H 0.31205 0.86239 0.75421 0.0
H1300 H 0.32113 0.82019 0.67869 0.0
H1301 H 0.32396 0.81347 0.82415 0.0
C1302 C 0.32131 0.83014 0.95755 0.0
C1303 C 0.31968 0.83998 0.02189 0.0
C1304 C 0.31947 0.83395 0.87373 0.0
C1305 C 0.31575 0.85363 1.0015 0.0
C1306 C 0.3139 0.85753 0.91798 0.0
C1307 C 0.31449 0.85169 0.7693 0.0
C1308 C 0.31653 0.84189 0.70481 0.0
C1309 C 0.31589 0.8478 0.85352 0.0
C1310 C 0.31982 0.82808 0.72625 0.0
C1311 C 0.32132 0.82417 0.80973 0.0
H1312 H 0.58928 0.04109 0.03302 0.0
H1313 H 0.58691 0.08411 0.95739 0.0
H1314 H 0.58487 0.09127 0.10334 0.0
H1315 H 0.58375 0.08532 0.25207 0.0
H1316 H 0.58572 0.04228 0.32812 0.0
H1317 H 0.5884 0.03516 0.18247 0.0
C1318 C 0.58846 0.05204 0.0485 0.0
C1319 C 0.5882 0.06203 0.98415 0.0
C1320 C 0.58733 0.05609 0.13266 0.0
C1321 C 0.58692 0.07617 1.00535 0.0
C1322 C 0.58585 0.08029 0.08892 0.0
C1323 C 0.58465 0.07437 0.237 0.0
C1324 C 0.58447 0.06437 0.30138 0.0
C1325 C 0.58598 0.07033 0.15301 0.0
C1326 C 0.58596 0.05024 0.28031 0.0
C1327 C 0.5874 0.04614 0.19683 0.0
H1328 H 0.17268 0.32832 0.20186 0.0
H1329 H 0.19686 0.36601 0.22428 0.0
H1330 H 0.19429 0.3655 0.3754 0.0
H1331 H 0.18503 0.35457 0.50495 0.0
H1332 H 0.16028 0.31731 0.48289 0.0
H1333 H 0.16317 0.31753 0.33129 0.0
C1334 C 0.17731 0.33648 0.23953 0.0
C1335 C 0.18514 0.34707 0.19982 0.0
C1336 C 0.17572 0.33624 0.32822 0.0
C1337 C 0.19104 0.35749 0.25141 0.0
C1338 C 0.18952 0.35728 0.33878 0.0
C1339 C 0.18037 0.34644 0.4671 0.0
C1340 C 0.17237 0.33597 0.50655 0.0
C1341 C 0.18195 0.34668 0.37844 0.0
C1342 C 0.16634 0.32562 0.45521 0.0
C1343 C 0.16802 0.32571 0.36788 0.0
H1344 H 0.90686 0.95278 0.51891 0.0
H1345 H 0.90618 0.90984 0.44033 0.0
H1346 H 0.90808 0.90232 0.5857 0.0
H1347 H 0.90971 0.90789 0.73476 0.0
H1348 H 0.91118 0.95088 0.81363 0.0
H1349 H 0.90876 0.95837 0.66888 0.0
C1350 C 0.90702 0.94178 0.53362 0.0
C1351 C 0.90639 0.9319 0.4685 0.0
C1352 C 0.90813 0.93751 0.61757 0.0
C1353 C 0.90683 0.91768 0.48883 0.0
C1354 C 0.90782 0.91336 0.57212 0.0
C1355 C 0.90963 0.91891 0.72085 0.0
C1356 C 0.91061 0.92875 0.7862 0.0
C1357 C 0.9085 0.92319 0.637 0.0
C1358 C 0.91024 0.94299 0.76565 0.0
C1359 C 0.90896 0.94732 0.68245 0.0
H1360 H 0.29758 0.64399 0.74554 0.0
H1361 H 0.32679 0.67565 0.66764 0.0
H1362 H 0.33383 0.67921 0.81225 0.0
H1363 H 0.33155 0.67367 0.96149 0.0
H1364 H 0.30201 0.64249 0.04055 0.0
H1365 H 0.29502 0.63871 0.89531 0.0
C1366 C 0.30539 0.65177 0.75985 0.0
C1367 C 0.31165 0.65946 0.69465 0.0
C1368 C 0.30931 0.65393 0.84381 0.0
C1369 C 0.32191 0.66936 0.71545 0.0
C1370 C 0.3259 0.6715 0.79858 0.0
C1371 C 0.32368 0.66595 0.947 0.0
C1372 C 0.31737 0.65835 1.01221 0.0
C1373 C 0.31969 0.66383 0.86325 0.0
C1374 C 0.30697 0.64859 0.99206 0.0
C1375 C 0.30301 0.64636 0.90879 0.0
H1376 H 0.59302 0.95191 1.00487 0.0
H1377 H 0.59718 0.90928 0.08507 0.0
H1378 H 0.59684 0.90149 0.93965 0.0
H1379 H 0.59574 0.90682 0.79016 0.0
H1380 H 0.59076 0.94944 0.70983 0.0
H1381 H 0.59154 0.9572 0.85471 0.0
C1382 C 0.59394 0.94092 0.99048 0.0
C1383 C 0.59512 0.9312 0.0559 0.0
C1384 C 0.59376 0.93652 0.90664 0.0
C1385 C 0.59607 0.91697 0.03616 0.0
C1386 C 0.59599 0.91252 0.95291 0.0
C1387 C 0.59471 0.9178 0.80383 0.0
C1388 C 0.59325 0.92748 0.73815 0.0
C1389 C 0.59485 0.92221 0.88765 0.0
C1390 C 0.59215 0.94171 0.75821 0.0
C1391 C 0.59246 0.94618 0.84142 0.0
H1392 H 0.30441 0.37081 0.27121 0.0
H1393 H 0.31838 0.32997 0.34595 0.0
H1394 H 0.32277 0.32395 0.20057 0.0
H1395 H 0.32265 0.33016 0.05202 0.0
H1396 H 0.30822 0.37067 0.97589 0.0
H1397 H 0.30358 0.37676 0.12183 0.0
C1398 C 0.30828 0.36054 0.25596 0.0
C1399 C 0.31116 0.35094 0.32029 0.0
C1400 C 0.3106 0.35703 0.17173 0.0
C1401 C 0.31632 0.33772 0.29857 0.0
C1402 C 0.31874 0.3342 0.21511 0.0
C1403 C 0.31857 0.34036 0.06737 0.0
C1404 C 0.31587 0.34997 1.00314 0.0
C1405 C 0.31598 0.34379 0.15127 0.0
C1406 C 0.31029 0.36304 0.02399 0.0
C1407 C 0.30772 0.36655 0.1075 0.0
H1408 H 0.90491 0.04336 0.50928 0.0
H1409 H 0.91006 0.08596 0.58901 0.0
H1410 H 0.91255 0.09332 0.44371 0.0
H1411 H 0.91304 0.08773 0.29426 0.0
H1412 H 0.90852 0.04502 0.21424 0.0
H1413 H 0.90554 0.03775 0.35911 0.0
C1414 C 0.90647 0.05427 0.49489 0.0
C1415 C 0.90731 0.06407 0.56031 0.0
C1416 C 0.90787 0.05845 0.41098 0.0
C1417 C 0.90956 0.07815 0.54031 0.0
C1418 C 0.91088 0.08239 0.45705 0.0
C1419 C 0.91152 0.07681 0.30805 0.0
C1420 C 0.911 0.06699 0.24246 0.0
C1421 C 0.91007 0.07263 0.39187 0.0
C1422 C 0.90876 0.0529 0.26259 0.0
C1423 C 0.90717 0.04868 0.34578 0.0
H1424 H 0.17045 0.68232 0.53776 0.0
H1425 H 0.18509 0.64183 0.46228 0.0
H1426 H 0.18995 0.63595 0.60818 0.0
H1427 H 0.18932 0.6421 0.75727 0.0
H1428 H 0.17518 0.68292 0.83159 0.0
H1429 H 0.17048 0.68872 0.68623 0.0
C1430 C 0.17461 0.67218 0.55324 0.0
C1431 C 0.17732 0.66251 0.48916 0.0
C1432 C 0.17735 0.66887 0.63716 0.0
C1433 C 0.18301 0.6495 0.51023 0.0
C1434 C 0.18571 0.64611 0.59373 0.0
C1435 C 0.18535 0.65232 0.74199 0.0
C1436 C 0.18253 0.66198 0.8062 0.0
C1437 C 0.18285 0.6557 0.65777 0.0
C1438 C 0.17722 0.67513 0.78434 0.0
C1439 C 0.17462 0.67852 0.70087 0.0
H1440 H 0.40617 0.95497 0.98446 0.0
H1441 H 0.4094 0.91231 0.06613 0.0
H1442 H 0.40936 0.90448 0.92097 0.0
H1443 H 0.40986 0.90982 0.77061 0.0
H1444 H 0.40796 0.95264 0.68975 0.0
H1445 H 0.406 0.96027 0.83451 0.0
C1446 C 0.40691 0.94396 0.97071 0.0
C1447 C 0.4079 0.93429 0.03666 0.0
C1448 C 0.40717 0.93953 0.88693 0.0
C1449 C 0.40851 0.92002 0.0172 0.0
C1450 C 0.40861 0.91552 0.93393 0.0
C1451 C 0.40907 0.92083 0.78445 0.0
C1452 C 0.40915 0.9306 0.71871 0.0
C1453 C 0.40818 0.9252 0.86828 0.0
C1454 C 0.40781 0.94482 0.73837 0.0
C1455 C 0.40678 0.94923 0.82146 0.0
H1456 H 0.80517 0.6382 0.80994 0.0
H1457 H 0.832 0.67203 0.8859 0.0
H1458 H 0.83885 0.67576 0.74096 0.0
H1459 H 0.83701 0.66974 0.59226 0.0
H1460 H 0.80997 0.63622 0.5151 0.0
H1461 H 0.80315 0.63232 0.66054 0.0
C1462 C 0.81241 0.64648 0.79506 0.0
C1463 C 0.81806 0.65477 0.85971 0.0
C1464 C 0.81623 0.64869 0.71102 0.0
C1465 C 0.82761 0.66532 0.83837 0.0
C1466 C 0.83148 0.66753 0.75512 0.0
C1467 C 0.82974 0.66147 0.60713 0.0
C1468 C 0.82409 0.65324 0.54239 0.0
C1469 C 0.82588 0.65928 0.69097 0.0
C1470 C 0.81443 0.64279 0.56318 0.0
C1471 C 0.81057 0.64051 0.64655 0.0
H1472 H 0.10957 0.05734 0.5238 0.0
H1473 H 0.07248 0.07908 0.60236 0.0
H1474 H 0.06708 0.08453 0.45741 0.0
H1475 H 0.07267 0.083 0.30804 0.0
H1476 H 0.10938 0.0609 0.22839 0.0
H1477 H 0.11487 0.05534 0.37389 0.0
C1478 C 0.10022 0.06315 0.50959 0.0
C1479 C 0.09152 0.06782 0.57494 0.0
C1480 C 0.09703 0.0661 0.42556 0.0
C1481 C 0.07955 0.07551 0.55431 0.0
C1482 C 0.07637 0.07856 0.47105 0.0
C1483 C 0.08193 0.07706 0.32246 0.0
C1484 C 0.09063 0.07245 0.25717 0.0
C1485 C 0.08504 0.07394 0.40623 0.0
C1486 C 0.10243 0.06449 0.27709 0.0
C1487 C 0.10563 0.06138 0.36043 0.0
H1488 H 0.66423 0.32595 0.03618 0.0
H1489 H 0.69536 0.3559 0.96216 0.0
H1490 H 0.70249 0.35868 0.10803 0.0
H1491 H 0.69957 0.35292 0.2562 0.0
H1492 H 0.66891 0.32234 0.32972 0.0
H1493 H 0.66167 0.3198 0.18451 0.0
C1494 C 0.67249 0.33319 0.05204 0.0
C1495 C 0.67919 0.34076 0.98826 0.0
C1496 C 0.67656 0.33469 0.13598 0.0
C1497 C 0.69008 0.34987 1.00977 0.0
C1498 C 0.69412 0.35151 0.09327 0.0
C1499 C 0.69142 0.34556 0.24094 0.0
C1500 C 0.68482 0.33786 0.30489 0.0
C1501 C 0.68742 0.34397 0.15689 0.0
C1502 C 0.67409 0.32857 0.28278 0.0
C1503 C 0.66998 0.32703 0.19938 0.0
H1504 H 0.41957 0.08338 0.24443 0.0
H1505 H 0.38476 0.05815 0.32241 0.0
H1506 H 0.37997 0.05203 0.17675 0.0
H1507 H 0.38531 0.05438 0.02742 0.0
H1508 H 0.42062 0.07913 0.95011 0.0
H1509 H 0.4253 0.0852 0.09519 0.0
C1510 C 0.41087 0.07663 0.22951 0.0
C1511 C 0.4025 0.0713 0.29433 0.0
C1512 C 0.40819 0.07316 0.14566 0.0
C1513 C 0.39144 0.06231 0.27399 0.0
C1514 C 0.38865 0.05888 0.19059 0.0
C1515 C 0.39413 0.06098 0.04184 0.0
C1516 C 0.40253 0.06631 0.97683 0.0
C1517 C 0.39693 0.06428 0.12588 0.0
C1518 C 0.41379 0.07502 0.99786 0.0
C1519 C 0.41656 0.07844 0.08121 0.0
H1520 H 0.66224 0.65918 0.96817 0.0
H1521 H 0.70465 0.65158 0.04448 0.0
H1522 H 0.71132 0.64784 0.8989 0.0
H1523 H 0.70525 0.64745 0.74924 0.0
H1524 H 0.66294 0.6556 0.67385 0.0
H1525 H 0.65619 0.65881 0.8197 0.0
C1526 C 0.67299 0.65685 0.95327 0.0
C1527 C 0.68291 0.65572 0.01774 0.0
C1528 C 0.6768 0.65493 0.86933 0.0
C1529 C 0.69673 0.65237 0.99668 0.0
C1530 C 0.70059 0.65033 0.91321 0.0
C1531 C 0.69454 0.64981 0.76483 0.0
C1532 C 0.68464 0.65133 0.70057 0.0
C1533 C 0.69072 0.65164 0.849 0.0
C1534 C 0.67082 0.65459 0.72178 0.0
C1535 C 0.66693 0.65633 0.80529 0.0
H1536 H 0.10641 0.95231 0.5079 0.0
H1537 H 0.07539 0.92241 0.42964 0.0
H1538 H 0.07156 0.91573 0.57453 0.0
H1539 H 0.07678 0.91846 0.72391 0.0
H1540 H 0.10724 0.94874 0.80303 0.0
H1541 H 0.11119 0.95548 0.65751 0.0
C1542 C 0.0987 0.94444 0.52208 0.0
C1543 C 0.09128 0.93787 0.45681 0.0
C1544 C 0.09636 0.94077 0.60607 0.0
C1545 C 0.08147 0.92753 0.47755 0.0
C1546 C 0.07917 0.92375 0.56081 0.0
C1547 C 0.08436 0.92646 0.70929 0.0
C1548 C 0.09174 0.93303 0.77441 0.0
C1549 C 0.08657 0.93027 0.62551 0.0
C1550 C 0.10132 0.94359 0.7544 0.0
C1551 C 0.10364 0.94739 0.67107 0.0
H1552 H 0.83604 0.32593 0.50312 0.0
H1553 H 0.79462 0.33829 0.57658 0.0
H1554 H 0.78884 0.34307 0.43066 0.0
H1555 H 0.79533 0.34298 0.28157 0.0
H1556 H 0.83655 0.32994 0.2092 0.0
H1557 H 0.84249 0.32578 0.35547 0.0
C1558 C 0.82568 0.32952 0.48755 0.0
C1559 C 0.81577 0.33165 0.5512 0.0
C1560 C 0.82235 0.33201 0.40352 0.0
C1561 C 0.80252 0.33666 0.52933 0.0
C1562 C 0.79916 0.33931 0.44571 0.0
C1563 C 0.80565 0.33934 0.29796 0.0
C1564 C 0.81547 0.33674 0.23452 0.0
C1565 C 0.80898 0.33695 0.38227 0.0
C1566 C 0.82874 0.33184 0.25661 0.0
C1567 C 0.83217 0.32954 0.3403 0.0
H1568 H 0.16635 0.61832 0.13186 0.0
H1569 H 0.13447 0.64987 0.13222 0.0
H1570 H 0.11648 0.63191 0.12175 0.0
H1571 H 0.1098 0.60722 0.11303 0.0
H1572 H 0.14172 0.57573 0.10625 0.0
H1573 H 0.1597 0.59366 0.11845 0.0
C1574 C 0.15546 0.62125 0.12986 0.0
C1575 C 0.15173 0.63539 0.13332 0.0
C1576 C 0.14518 0.61088 0.12252 0.0
C1577 C 0.1376 0.63905 0.12964 0.0
C1578 C 0.12731 0.62879 0.12375 0.0
C1579 C 0.12069 0.60429 0.11426 0.0
C1580 C 0.12442 0.59016 0.10911 0.0
C1581 C 0.13098 0.61467 0.12022 0.0
C1582 C 0.13858 0.58653 0.10998 0.0
C1583 C 0.14886 0.59678 0.11715 0.0
H1584 H 0.60971 0.88687 0.36125 0.0
H1585 H 0.63871 0.92112 0.37446 0.0
H1586 H 0.65822 0.90496 0.35905 0.0
H1587 H 0.66706 0.88095 0.34342 0.0
H1588 H 0.63788 0.84677 0.33725 0.0
H1589 H 0.61848 0.86301 0.3481 0.0
C1590 C 0.6203 0.89081 0.36044 0.0
C1591 C 0.62275 0.90518 0.36865 0.0
C1592 C 0.63145 0.88145 0.35288 0.0
C1593 C 0.63654 0.9101 0.36834 0.0
C1594 C 0.6477 0.90086 0.35943 0.0
C1595 C 0.65645 0.87708 0.34409 0.0
C1596 C 0.65392 0.86267 0.33926 0.0
C1597 C 0.64529 0.8865 0.35182 0.0
C1598 C 0.64012 0.8578 0.34107 0.0
C1599 C 0.629 0.86709 0.34719 0.0
H1600 H 0.35877 0.36425 0.6512 0.0
H1601 H 0.32607 0.39492 0.66138 0.0
H1602 H 0.34333 0.4136 0.65564 0.0
H1603 H 0.36776 0.42128 0.6489 0.0
H1604 H 0.4005 0.39063 0.64561 0.0
H1605 H 0.38322 0.37193 0.6473 0.0
C1606 C 0.35543 0.37503 0.65196 0.0
C1607 C 0.34116 0.37819 0.65647 0.0
C1608 C 0.36543 0.38574 0.64985 0.0
C1609 C 0.33699 0.3922 0.65814 0.0
C1610 C 0.34686 0.4029 0.65469 0.0
C1611 C 0.3711 0.41051 0.64814 0.0
C1612 C 0.38539 0.40735 0.64671 0.0
C1613 C 0.3611 0.3998 0.65063 0.0
C1614 C 0.38956 0.39334 0.64675 0.0
C1615 C 0.37969 0.38264 0.64767 0.0
H1616 H 0.86658 0.07959 0.88072 0.0
H1617 H 0.89969 0.10999 0.88091 0.0
H1618 H 0.8827 0.12876 0.86928 0.0
H1619 H 0.85846 0.13657 0.85939 0.0
H1620 H 0.8253 0.10627 0.85214 0.0
H1621 H 0.84226 0.08743 0.86585 0.0
C1622 C 0.87005 0.09033 0.87844 0.0
C1623 C 0.88435 0.09341 0.88211 0.0
C1624 C 0.86022 0.10108 0.87026 0.0
C1625 C 0.88873 0.10736 0.87808 0.0
C1626 C 0.87902 0.1181 0.87153 0.0
C1627 C 0.85494 0.12584 0.86085 0.0
C1628 C 0.84065 0.12282 0.85515 0.0
C1629 C 0.86475 0.11508 0.8676 0.0
C1630 C 0.83626 0.10886 0.85626 0.0
C1631 C 0.84594 0.09809 0.86432 0.0
H1632 H 0.13484 0.35514 0.87897 0.0
H1633 H 0.16791 0.38554 0.87234 0.0
H1634 H 0.15094 0.40434 0.8849 0.0
H1635 H 0.12663 0.41221 0.89688 0.0
H1636 H 0.09348 0.38187 0.89501 0.0
H1637 H 0.11049 0.36304 0.88659 0.0
C1638 C 0.13831 0.36588 0.88062 0.0
C1639 C 0.1526 0.36894 0.87519 0.0
C1640 C 0.12847 0.37667 0.88611 0.0
C1641 C 0.15695 0.38291 0.87629 0.0
C1642 C 0.14726 0.39368 0.88358 0.0
C1643 C 0.12315 0.40147 0.89479 0.0
C1644 C 0.10882 0.39844 0.89686 0.0
C1645 C 0.13298 0.39069 0.8884 0.0
C1646 C 0.10445 0.38448 0.89324 0.0
C1647 C 0.11417 0.3737 0.88862 0.0
H1648 H 0.89369 0.88734 0.14609 0.0
H1649 H 0.86448 0.92131 0.13716 0.0
H1650 H 0.84503 0.90487 0.14632 0.0
H1651 H 0.83631 0.88065 0.15643 0.0
H1652 H 0.8658 0.84684 0.15753 0.0
H1653 H 0.88507 0.86334 0.15198 0.0
C1654 C 0.88306 0.89114 0.14639 0.0
C1655 C 0.88053 0.90551 0.14138 0.0
C1656 C 0.87195 0.88163 0.15018 0.0
C1657 C 0.86671 0.91028 0.14084 0.0
C1658 C 0.85558 0.90089 0.14622 0.0
C1659 C 0.84696 0.87694 0.15558 0.0
C1660 C 0.8496 0.86254 0.15752 0.0
C1661 C 0.85807 0.88652 0.15088 0.0
C1662 C 0.86346 0.85786 0.15569 0.0
C1663 C 0.87451 0.86729 0.15271 0.0
H1664 H 0.35634 0.64208 0.37377 0.0
H1665 H 0.32141 0.61387 0.36652 0.0
H1666 H 0.33727 0.59395 0.37366 0.0
H1667 H 0.36128 0.5846 0.38087 0.0
H1668 H 0.39595 0.61323 0.3801 0.0
H1669 H 0.38001 0.6329 0.37729 0.0
C1670 C 0.35219 0.63157 0.37415 0.0
C1671 C 0.33774 0.62943 0.37018 0.0
C1672 C 0.36135 0.62024 0.37664 0.0
C1673 C 0.33251 0.61576 0.36954 0.0
C1674 C 0.34158 0.60439 0.3737 0.0
C1675 C 0.3653 0.59515 0.38025 0.0
C1676 C 0.37976 0.59745 0.38079 0.0
C1677 C 0.35604 0.60649 0.37713 0.0
C1678 C 0.38486 0.61117 0.37928 0.0
C1679 C 0.37575 0.62245 0.37788 0.0
H1680 H 0.60048 0.10648 0.65768 0.0
H1681 H 0.6297 0.07249 0.66627 0.0
H1682 H 0.64903 0.089 0.67749 0.0
H1683 H 0.65768 0.11316 0.68397 0.0
H1684 H 0.6285 0.14711 0.66785 0.0
H1685 H 0.60916 0.1306 0.66044 0.0
C1686 C 0.61108 0.10269 0.6623 0.0
C1687 C 0.61364 0.08827 0.66155 0.0
C1688 C 0.62217 0.11225 0.66724 0.0
C1689 C 0.62745 0.08353 0.66661 0.0
C1690 C 0.63851 0.09297 0.67313 0.0
C1691 C 0.64708 0.11694 0.67907 0.0
C1692 C 0.64454 0.13136 0.67683 0.0
C1693 C 0.636 0.10736 0.6734 0.0
C1694 C 0.63075 0.13607 0.66957 0.0
C1695 C 0.61968 0.12663 0.66546 0.0
H1696 H 0.82955 0.37678 0.89415 0.0
H1697 H 0.86033 0.34415 0.89119 0.0
H1698 H 0.87896 0.36149 0.89291 0.0
H1699 H 0.88656 0.38593 0.89685 0.0
H1700 H 0.85585 0.41858 0.90693 0.0
H1701 H 0.83717 0.40127 0.9008 0.0
C1702 C 0.84034 0.37348 0.89356 0.0
C1703 C 0.84355 0.3592 0.89222 0.0
C1704 C 0.85102 0.38352 0.89596 0.0
C1705 C 0.85758 0.35507 0.89236 0.0
C1706 C 0.86824 0.36499 0.89323 0.0
C1707 C 0.87577 0.38925 0.89735 0.0
C1708 C 0.87259 0.40352 0.90195 0.0
C1709 C 0.86509 0.37923 0.89523 0.0
C1710 C 0.85858 0.40766 0.90349 0.0
C1711 C 0.84789 0.39776 0.89991 0.0
H1712 H 0.39005 0.11341 0.65432 0.0
H1713 H 0.35839 0.08153 0.64954 0.0
H1714 H 0.34023 0.0993 0.65598 0.0
H1715 H 0.33331 0.124 0.66095 0.0
H1716 H 0.36506 0.1558 0.65803 0.0
H1717 H 0.38316 0.13802 0.6567 0.0
C1718 C 0.37917 0.11036 0.65511 0.0
C1719 C 0.37557 0.09619 0.65184 0.0
C1720 C 0.36878 0.12064 0.65724 0.0
C1721 C 0.36143 0.09239 0.6519 0.0
C1722 C 0.35104 0.10254 0.65567 0.0
C1723 C 0.3442 0.12701 0.66033 0.0
C1724 C 0.34784 0.14119 0.6598 0.0
C1725 C 0.35458 0.11671 0.65807 0.0
C1726 C 0.36198 0.14495 0.6582 0.0
C1727 C 0.37235 0.13479 0.65757 0.0
H1728 H 0.63109 0.5832 0.37429 0.0
H1729 H 0.59834 0.61386 0.37494 0.0
H1730 H 0.61555 0.63255 0.37511 0.0
H1731 H 0.63989 0.64029 0.37274 0.0
H1732 H 0.67278 0.60983 0.36507 0.0
H1733 H 0.6556 0.59102 0.36994 0.0
C1734 C 0.62775 0.59397 0.37483 0.0
C1735 C 0.61346 0.59713 0.37475 0.0
C1736 C 0.63774 0.60473 0.37344 0.0
C1737 C 0.60928 0.61114 0.3747 0.0
C1738 C 0.61911 0.62185 0.37491 0.0
C1739 C 0.6433 0.62953 0.37246 0.0
C1740 C 0.65758 0.62647 0.36877 0.0
C1741 C 0.63336 0.61878 0.37392 0.0
C1742 C 0.66183 0.61247 0.36769 0.0
C1743 C 0.65201 0.60171 0.37059 0.0
H1744 H 0.16692 0.88872 0.14202 0.0
H1745 H 0.13859 0.85381 0.14081 0.0
H1746 H 0.11879 0.86957 0.13618 0.0
H1747 H 0.10938 0.89318 0.13221 0.0
H1748 H 0.1373 0.92834 0.12591 0.0
H1749 H 0.15734 0.91264 0.13354 0.0
C1750 C 0.15641 0.8846 0.14082 0.0
C1751 C 0.15425 0.8701 0.14191 0.0
C1752 C 0.14498 0.89377 0.13676 0.0
C1753 C 0.14056 0.86491 0.13966 0.0
C1754 C 0.12921 0.87392 0.13721 0.0
C1755 C 0.11985 0.89742 0.13278 0.0
C1756 C 0.12185 0.9119 0.12907 0.0
C1757 C 0.13128 0.88835 0.13573 0.0
C1758 C 0.13549 0.91722 0.12873 0.0
C1759 C 0.14695 0.90825 0.1332 0.0
H1760 H 0.87073 0.58133 0.16795 0.0
H1761 H 0.90415 0.61142 0.16459 0.0
H1762 H 0.88741 0.63037 0.16997 0.0
H1763 H 0.86341 0.63856 0.17628 0.0
H1764 H 0.82968 0.60894 0.18693 0.0
H1765 H 0.84635 0.5897 0.17815 0.0
C1766 C 0.8743 0.59204 0.16831 0.0
C1767 C 0.88867 0.59495 0.16576 0.0
C1768 C 0.86457 0.60299 0.17274 0.0
C1769 C 0.89317 0.60887 0.16688 0.0
C1770 C 0.8836 0.61975 0.16976 0.0
C1771 C 0.85968 0.62789 0.17634 0.0
C1772 C 0.84533 0.62518 0.18167 0.0
C1773 C 0.8693 0.61694 0.17275 0.0
C1774 C 0.84069 0.6113 0.18281 0.0
C1775 C 0.85021 0.6003 0.17772 0.0
H1776 H 0.1413 0.14336 0.90892 0.0
H1777 H 0.17555 0.11444 0.90286 0.0
H1778 H 0.15919 0.09486 0.90608 0.0
H1779 H 0.13499 0.08595 0.91041 0.0
H1780 H 0.10096 0.11519 0.90892 0.0
H1781 H 0.11735 0.13458 0.90894 0.0
C1782 C 0.14519 0.13277 0.90851 0.0
C1783 C 0.15961 0.13036 0.90611 0.0
C1784 C 0.13574 0.12159 0.90896 0.0
C1785 C 0.16449 0.11657 0.90462 0.0
C1786 C 0.15514 0.10537 0.90661 0.0
C1787 C 0.1312 0.09657 0.91024 0.0
C1788 C 0.11677 0.09911 0.90986 0.0
C1789 C 0.14072 0.10775 0.90879 0.0
C1790 C 0.112 0.11293 0.90888 0.0
C1791 C 0.12137 0.12405 0.90907 0.0
H1792 H 0.63576 0.41344 0.597 0.0
H1793 H 0.6005 0.3857 0.61297 0.0
H1794 H 0.61609 0.36567 0.6183 0.0
H1795 H 0.63975 0.35602 0.62075 0.0
H1796 H 0.67506 0.38377 0.61234 0.0
H1797 H 0.65948 0.40379 0.60148 0.0
C1798 C 0.63151 0.40301 0.60139 0.0
C1799 C 0.61701 0.40106 0.60444 0.0
C1800 C 0.64054 0.39154 0.60576 0.0
C1801 C 0.61163 0.38749 0.61081 0.0
C1802 C 0.62053 0.37602 0.61369 0.0
C1803 C 0.64402 0.36645 0.61595 0.0
C1804 C 0.65852 0.36842 0.61689 0.0
C1805 C 0.635 0.37792 0.61145 0.0
C1806 C 0.66392 0.38199 0.61178 0.0
C1807 C 0.65502 0.39344 0.60556 0.0
H1808 H 0.39371 0.88992 0.3501 0.0
H1809 H 0.36534 0.92463 0.35634 0.0
H1810 H 0.3455 0.90864 0.3523 0.0
H1811 H 0.33616 0.88463 0.35162 0.0
H1812 H 0.36479 0.85009 0.35221 0.0
H1813 H 0.38447 0.86611 0.34885 0.0
C1814 C 0.38318 0.89399 0.34991 0.0
C1815 C 0.38102 0.90844 0.35328 0.0
C1816 C 0.37183 0.88473 0.3492 0.0
C1817 C 0.36731 0.91354 0.35383 0.0
C1818 C 0.35595 0.9044 0.35157 0.0
C1819 C 0.34671 0.88064 0.35057 0.0
C1820 C 0.34898 0.86618 0.35225 0.0
C1821 C 0.35806 0.88995 0.34997 0.0
C1822 C 0.36272 0.86116 0.35139 0.0
C1823 C 0.37401 0.87032 0.34933 0.0
H1824 H 0.09122 0.47307 0.93638 0.0
H1825 H 0.06314 0.46477 0.14156 0.0
H1826 H 0.06631 0.48832 0.19331 0.0
H1827 H 0.07656 0.51127 0.18041 0.0
H1828 H 0.10404 0.52067 0.97447 0.0
H1829 H 0.10164 0.4967 0.92322 0.0
C1830 C 0.08584 0.47644 0.99248 0.0
C1831 C 0.07691 0.46715 0.03479 0.0
C1832 C 0.08759 0.49018 0.02187 0.0
C1833 C 0.06997 0.47169 0.10724 0.0
C1834 C 0.07181 0.48517 0.1372 0.0
C1835 C 0.08211 0.50813 0.12444 0.0
C1836 C 0.09051 0.51777 0.08159 0.0
C1837 C 0.08052 0.4945 0.09494 0.0
C1838 C 0.09752 0.51346 1.00883 0.0
C1839 C 0.09613 0.49976 0.97947 0.0
H1840 H 0.73604 0.82289 0.42244 0.0
H1841 H 0.72459 0.84569 0.20057 0.0
H1842 H 0.74912 0.84655 0.15767 0.0
H1843 H 0.77391 0.84001 0.18199 0.0
H1844 H 0.78432 0.81658 0.40367 0.0
H1845 H 0.76013 0.81685 0.44769 0.0
C1846 C 0.73883 0.8281 0.36464 0.0
C1847 C 0.72844 0.83418 0.31477 0.0
C1848 C 0.75283 0.82843 0.34022 0.0
C1849 C 0.73236 0.84091 0.24023 0.0
C1850 C 0.7464 0.84139 0.21566 0.0
C1851 C 0.77086 0.83508 0.24016 0.0
C1852 C 0.78093 0.82822 0.28923 0.0
C1853 C 0.75674 0.83509 0.26497 0.0
C1854 C 0.7768 0.82181 0.36424 0.0
C1855 C 0.76295 0.82197 0.38968 0.0
H1856 H 0.42346 0.53056 0.62083 0.0
H1857 H 0.39898 0.52185 0.40081 0.0
H1858 H 0.39731 0.49728 0.44183 0.0
H1859 H 0.40353 0.47813 0.53932 0.0
H1860 H 0.42763 0.48782 0.7602 0.0
H1861 H 0.4287 0.5121 0.71947 0.0
C1862 C 0.41775 0.52331 0.58162 0.0
C1863 C 0.41147 0.52798 0.50752 0.0
C1864 C 0.41678 0.50933 0.60575 0.0
C1865 C 0.40392 0.51849 0.45823 0.0
C1866 C 0.403 0.50444 0.48155 0.0
C1867 C 0.40897 0.48557 0.57856 0.0
C1868 C 0.41555 0.48107 0.65255 0.0
C1869 C 0.4095 0.49971 0.55502 0.0
C1870 C 0.42248 0.4909 0.7029 0.0
C1871 C 0.42313 0.50484 0.67969 0.0
H1872 H 0.75828 0.1575 0.92075 0.0
H1873 H 0.7787 0.15688 0.68036 0.0
H1874 H 0.75616 0.15761 0.60993 0.0
H1875 H 0.73059 0.1588 0.61642 0.0
H1876 H 0.71008 0.15812 0.85649 0.0
H1877 H 0.73264 0.15748 0.9271 0.0
C1878 C 0.75777 0.15754 0.85296 0.0
C1879 C 0.77014 0.15722 0.80593 0.0
C1880 C 0.74475 0.15771 0.81276 0.0
C1881 C 0.76933 0.15708 0.7181 0.0
C1882 C 0.75644 0.15754 0.67772 0.0
C1883 C 0.73107 0.1585 0.68419 0.0
C1884 C 0.71869 0.15858 0.7311 0.0
C1885 C 0.74408 0.15791 0.72438 0.0
C1886 C 0.71946 0.15802 0.81887 0.0
C1887 C 0.73236 0.1577 0.85933 0.0
H1888 H 0.92656 0.47652 0.06947 0.0
H1889 H 0.88635 0.47187 0.9522 0.0
H1890 H 0.88192 0.49669 0.96986 0.0
H1891 H 0.88937 0.51979 0.01907 0.0
H1892 H 0.92984 0.52452 0.13306 0.0
H1893 H 0.93422 0.49971 0.11587 0.0
C1894 C 0.91681 0.48092 0.04798 0.0
C1895 C 0.90681 0.4723 1.00984 0.0
C1896 C 0.91436 0.49527 0.05752 0.0
C1897 C 0.89427 0.47824 0.9817 0.0
C1898 C 0.8917 0.49245 0.99182 0.0
C1899 C 0.89915 0.5154 0.04011 0.0
C1900 C 0.90922 0.52405 0.07744 0.0
C1901 C 0.90167 0.50108 0.02965 0.0
C1902 C 0.92188 0.51816 0.10388 0.0
C1903 C 0.9244 0.50393 0.0943 0.0
H1904 H 0.22809 0.17256 0.68684 0.0
H1905 H 0.22845 0.16864 0.95541 0.0
H1906 H 0.25388 0.17023 0.95627 0.0
H1907 H 0.27607 0.17316 0.88045 0.0
H1908 H 0.27588 0.17455 0.61099 0.0
H1909 H 0.25042 0.17348 0.6102 0.0
C1910 C 0.23379 0.17203 0.74534 0.0
C1911 C 0.22648 0.17062 0.82096 0.0
C1912 C 0.24843 0.17251 0.74508 0.0
C1913 C 0.23391 0.16972 0.89643 0.0
C1914 C 0.24843 0.17067 0.89698 0.0
C1915 C 0.2704 0.1732 0.82174 0.0
C1916 C 0.27775 0.17407 0.74598 0.0
C1917 C 0.2558 0.17213 0.82173 0.0
C1918 C 0.27039 0.17389 0.67007 0.0
C1919 C 0.25585 0.17331 0.66961 0.0
H1920 H 0.57346 0.4786 0.4258 0.0
H1921 H 0.61073 0.47302 0.57259 0.0
H1922 H 0.6163 0.49771 0.55757 0.0
H1923 H 0.6104 0.52106 0.5042 0.0
H1924 H 0.57289 0.52641 0.35912 0.0
H1925 H 0.56763 0.50173 0.37241 0.0
C1926 C 0.58284 0.48275 0.45432 0.0
C1927 C 0.59165 0.47393 0.50019 0.0
C1928 C 0.58592 0.49698 0.44608 0.0
C1929 C 0.60373 0.47955 0.53696 0.0
C1930 C 0.60693 0.49369 0.52844 0.0
C1931 C 0.6011 0.51681 0.47535 0.0
C1932 C 0.59203 0.52564 0.43119 0.0
C1933 C 0.59808 0.50253 0.48337 0.0
C1934 C 0.57999 0.51994 0.39436 0.0
C1935 C 0.57699 0.50578 0.40157 0.0
H1936 H 0.27528 0.84855 0.26552 0.0
H1937 H 0.26998 0.82177 0.4804 0.0
H1938 H 0.2452 0.82049 0.45491 0.0
H1939 H 0.22493 0.82645 0.37224 0.0
H1940 H 0.22912 0.85338 0.15805 0.0
H1941 H 0.25426 0.85519 0.1831 0.0
C1942 C 0.26868 0.84247 0.30666 0.0
C1943 C 0.27461 0.83526 0.37467 0.0
C1944 C 0.25418 0.84179 0.29204 0.0
C1945 C 0.26584 0.82746 0.42753 0.0
C1946 C 0.25159 0.82668 0.41313 0.0
C1947 C 0.2313 0.83274 0.33084 0.0
C1948 C 0.22513 0.8397 0.26317 0.0
C1949 C 0.24565 0.83374 0.34561 0.0
C1950 C 0.23358 0.84791 0.2108 0.0
C1951 C 0.24798 0.84891 0.22495 0.0
H1952 H 0.56526 0.96936 0.5882 0.0
H1953 H 0.59928 0.97513 0.41537 0.0
H1954 H 0.60015 -7e-05 0.45022 0.0
H1955 H 0.59135 0.02003 0.53211 0.0
H1956 H 0.5575 0.01352 0.70574 0.0
H1957 H 0.55648 0.98907 0.66787 0.0
C1958 C 0.57286 0.97601 0.55782 0.0
C1959 C 0.58218 0.97035 0.49926 0.0
C1960 C 0.57335 0.9902 0.57837 0.0
C1961 C 0.59198 0.97918 0.46087 0.0
C1962 C 0.59248 0.99339 0.48072 0.0
C1963 C 0.58373 0.01326 0.56133 0.0
C1964 C 0.57456 0.01867 0.62192 0.0
C1965 C 0.58323 0.99903 0.53968 0.0
C1966 C 0.56476 0.00971 0.65925 0.0
C1967 C 0.56414 0.99567 0.63764 0.0
H1968 H 0.22509 0.34725 0.82579 0.0
H1969 H 0.21572 0.31722 0.63255 0.0
H1970 H 0.23933 0.31913 0.57891 0.0
H1971 H 0.26263 0.32901 0.58672 0.0
H1972 H 0.27285 0.35839 0.78164 0.0
H1973 H 0.24894 0.35706 0.8346 0.0
C1974 C 0.22824 0.34117 0.77185 0.0
C1975 C 0.21864 0.3321 0.73333 0.0
C1976 C 0.24197 0.34218 0.74156 0.0
C1977 C 0.22289 0.32421 0.66381 0.0
C1978 C 0.2364 0.32532 0.63282 0.0
C1979 C 0.25965 0.3352 0.64059 0.0
C1980 C 0.26951 0.34385 0.67983 0.0
C1981 C 0.24602 0.33423 0.67122 0.0
C1982 C 0.26546 0.35166 0.75014 0.0
C1983 C 0.25179 0.3509 0.78045 0.0
H1984 H 0.90137 0.97515 0.03286 0.0
H1985 H 0.946 0.97108 0.04785 0.0
H1986 H 0.94874 0.99617 0.0311 0.0
H1987 H 0.93857 0.0192 1.00996 0.0
H1988 H 0.89413 0.02345 0.9833 0.0
H1989 H 0.89115 0.99841 1.00659 0.0
C1990 C 0.91165 0.97982 0.03267 0.0
C1991 C 0.92346 0.97134 0.04161 0.0
C1992 C 0.91318 0.99426 0.02076 0.0
C1993 C 0.93677 0.97742 0.04041 0.0
C1994 C 0.93834 0.99176 0.03111 0.0
C1995 C 0.92822 0.01465 1.00978 0.0
C1996 C 0.91658 0.02313 0.99571 0.0
C1997 C 0.92664 0.00026 0.02093 0.0
C1998 C 0.90325 0.01709 0.99405 0.0
C1999 C 0.90155 0.00279 1.00747 0.0
H2000 H 0.26768 0.65809 0.32349 0.0
H2001 H 0.28016 0.68881 0.14094 0.0
H2002 H 0.25664 0.68946 0.08527 0.0
H2003 H 0.23261 0.68142 0.08713 0.0
H2004 H 0.2194 0.65129 0.27084 0.0
H2005 H 0.24309 0.65031 0.32711 0.0
C2006 C 0.26523 0.66492 0.27158 0.0
C2007 C 0.2757 0.67337 0.23654 0.0
C2008 C 0.25156 0.66535 0.23986 0.0
C2009 C 0.27233 0.68222 0.16952 0.0
C2010 C 0.25887 0.68259 0.13731 0.0
C2011 C 0.23489 0.67458 0.13932 0.0
C2012 C 0.22427 0.66638 0.17434 0.0
C2013 C 0.24843 0.6742 0.17182 0.0
C2014 C 0.2274 0.65771 0.24259 0.0
C2015 C 0.24094 0.65714 0.27479 0.0
H2016 H 0.42864 0.02157 0.49687 0.0
H2017 H 0.38629 0.02845 0.5769 0.0
H2018 H 0.38042 0.00436 0.54379 0.0
H2019 H 0.38716 0.9814 0.49036 0.0
H2020 H 0.42968 0.97414 0.41524 0.0
H2021 H 0.43562 0.99826 0.44838 0.0
C2022 C 0.41813 0.0178 0.50698 0.0
C2023 C 0.40792 0.02684 0.53889 0.0
C2024 C 0.41484 0.00385 0.48872 0.0
C2025 C 0.39438 0.02173 0.55249 0.0
C2026 C 0.39099 0.00795 0.53343 0.0
C2027 C 0.39773 0.98509 0.48121 0.0
C2028 C 0.40792 0.976 0.44988 0.0
C2029 C 0.40111 0.99893 0.50124 0.0
C2030 C 0.42161 0.98091 0.43932 0.0
C2031 C 0.42502 0.99472 0.45807 0.0
H2032 H 0.73613 0.67496 0.43967 0.0
H2033 H 0.72521 0.64681 0.23953 0.0
H2034 H 0.74968 0.64564 0.19685 0.0
H2035 H 0.77429 0.65267 0.2172 0.0
H2036 H 0.78453 0.68118 0.41708 0.0
H2037 H 0.76022 0.6821 0.45885 0.0
C2038 C 0.73905 0.66854 0.38665 0.0
C2039 C 0.72884 0.66096 0.34309 0.0
C2040 C 0.75306 0.66797 0.36239 0.0
C2041 C 0.73286 0.65276 0.27428 0.0
C2042 C 0.74686 0.65208 0.24989 0.0
C2043 C 0.77119 0.65904 0.26999 0.0
C2044 C 0.78125 0.66684 0.31388 0.0
C2045 C 0.75707 0.65963 0.29364 0.0
C2046 C 0.77704 0.67512 0.38185 0.0
C2047 C 0.76312 0.67565 0.406 0.0
H2048 H 0.09855 0.97976 0.03337 0.0
H2049 H 0.0539 0.97529 0.02399 0.0
H2050 H 0.05129 0.00048 1.01181 0.0
H2051 H 0.06165 0.02382 1.0035 0.0
H2052 H 0.10628 0.02839 1.00072 0.0
H2053 H 0.109 0.00318 0.0179 0.0
C2054 C 0.08827 0.98434 0.02866 0.0
C2055 C 0.07643 0.9757 0.02981 0.0
C2056 C 0.08686 0.99885 0.01959 0.0
C2057 C 0.06317 0.98172 0.02274 0.0
C2058 C 0.06167 0.99613 0.01609 0.0
C2059 C 0.07197 0.01928 1.00714 0.0
C2060 C 0.08375 0.02792 1.00186 0.0
C2061 C 0.07342 0.00479 1.01452 0.0
C2062 C 0.09706 0.02192 1.00486 0.0
C2063 C 0.09861 0.00753 1.01474 0.0
H2064 H 0.72107 0.31629 0.86558 0.0
H2065 H 0.72812 0.34171 0.64738 0.0
H2066 H 0.75272 0.3441 0.68472 0.0
H2067 H 0.77232 0.33887 0.78028 0.0
H2068 H 0.76447 0.31398 1.00038 0.0
H2069 H 0.74021 0.31156 0.96134 0.0
C2070 C 0.72799 0.3223 0.82587 0.0
C2071 C 0.72279 0.32874 0.75365 0.0
C2072 C 0.74203 0.32378 0.84826 0.0
C2073 C 0.73187 0.33664 0.70348 0.0
C2074 C 0.74594 0.33801 0.72476 0.0
C2075 C 0.76528 0.33297 0.81971 0.0
C2076 C 0.77029 0.32662 0.89308 0.0
C2077 C 0.75115 0.33164 0.79722 0.0
C2078 C 0.76099 0.31901 0.94355 0.0
C2079 C 0.74705 0.31757 0.92129 0.0
H2080 H 0.0292 0.58357 0.14511 0.0
H2081 H 0.03233 0.53891 0.16571 0.0
H2082 H 0.00714 0.53711 0.18186 0.0
H2083 H 0.98417 0.54809 0.18548 0.0
H2084 H 0.98083 0.59268 0.1613 0.0
H2085 H 0.00614 0.59466 0.15367 0.0
C2086 C 0.02438 0.57347 0.15427 0.0
C2087 C 0.03263 0.56139 0.15365 0.0
C2088 C 0.00984 0.57249 0.16313 0.0
C2089 C 0.0262 0.54836 0.1647 0.0
C2090 C 0.0118 0.54732 0.17429 0.0
C2091 C 0.98897 0.55824 0.17829 0.0
C2092 C 0.98057 0.5702 0.17371 0.0
C2093 C 0.00351 0.55929 0.17252 0.0
C2094 C 0.98701 0.58331 0.16597 0.0
C2095 C 0.00149 0.58444 0.16092 0.0
H2096 H 0.68317 0.72321 0.26057 0.0
H2097 H 0.67697 0.72044 0.5273 0.0
H2098 H 0.6765 0.74587 0.5372 0.0
H2099 H 0.679 0.76897 0.47037 0.0
H2100 H 0.68537 0.77129 0.20342 0.0
H2101 H 0.6849 0.746 0.19377 0.0
C2102 C 0.68182 0.72815 0.32107 0.0
C2103 C 0.68026 0.7199 0.39319 0.0
C2104 C 0.68171 0.74273 0.32639 0.0
C2105 C 0.67814 0.72652 0.47069 0.0
C2106 C 0.67796 0.74106 0.47646 0.0
C2107 C 0.68017 0.76393 0.41008 0.0
C2108 C 0.68242 0.77205 0.33796 0.0
C2109 C 0.67987 0.74929 0.40478 0.0
C2110 C 0.68394 0.76533 0.26027 0.0
C2111 C 0.68359 0.75085 0.25452 0.0
H2112 H 0.4806 0.44555 0.58035 0.0
H2113 H 0.47721 0.42418 0.81743 0.0
H2114 H 0.50248 0.42236 0.82449 0.0
H2115 H 0.52574 0.42681 0.76291 0.0
H2116 H 0.52883 0.45039 0.53451 0.0
H2117 H 0.50344 0.45184 0.52621 0.0
C2118 C 0.48524 0.44079 0.63497 0.0
C2119 C 0.47676 0.435 0.69811 0.0
C2120 C 0.49981 0.44025 0.64046 0.0
C2121 C 0.48329 0.4285 0.76668 0.0
C2122 C 0.49781 0.42756 0.77133 0.0
C2123 C 0.52078 0.43235 0.7119 0.0
C2124 C 0.52903 0.43849 0.64934 0.0
C2125 C 0.50618 0.43336 0.70846 0.0
C2126 C 0.52261 0.44568 0.58352 0.0
C2127 C 0.50813 0.44644 0.57861 0.0
H2128 H 0.835 0.26445 0.91171 0.0
H2129 H 0.7909 0.26759 0.95816 0.0
H2130 H 0.78865 0.2423 0.95213 0.0
H2131 H 0.79894 0.21938 0.92583 0.0
H2132 H 0.84295 0.21608 0.87682 0.0
H2133 H 0.84556 0.24125 0.8927 0.0
C2134 C 0.82497 0.25955 0.92206 0.0
C2135 C 0.81313 0.26786 0.935 0.0
C2136 C 0.82371 0.24498 0.91739 0.0
C2137 C 0.80014 0.2614 0.94737 0.0
C2138 C 0.79884 0.24695 0.94384 0.0
C2139 C 0.80909 0.22418 0.91846 0.0
C2140 C 0.82071 0.21587 0.89974 0.0
C2141 C 0.8105 0.23866 0.92721 0.0
C2142 C 0.83385 0.22222 0.89182 0.0
C2143 C 0.83534 0.23663 0.90054 0.0
H2144 H 0.9699 0.44124 0.7808 0.0
H2145 H 0.96543 0.41318 0.98982 0.0
H2146 H 0.99062 0.41119 1.00105 0.0
H2147 H 0.01393 0.41746 0.95305 0.0
H2148 H 0.01885 0.44528 0.74337 0.0
H2149 H 0.99356 0.4475 0.73196 0.0
C2150 C 0.97446 0.43476 0.82902 0.0
C2151 C 0.96575 0.42728 0.88388 0.0
C2152 C 0.98905 0.43364 0.83528 0.0
C2153 C 0.97185 0.41886 0.94577 0.0
C2154 C 0.98628 0.41776 0.95261 0.0
C2155 C 0.0095 0.42388 0.9041 0.0
C2156 C 0.01833 0.43114 0.84907 0.0
C2157 C 0.99497 0.42505 0.89756 0.0
C2158 C 0.01234 0.43966 0.78722 0.0
C2159 C 0.99786 0.44089 0.78037 0.0
H2160 H 0.83379 0.76835 0.21497 0.0
H2161 H 0.80555 0.771 1.00574 0.0
H2162 H 0.80456 0.7456 0.99774 0.0
H2163 H 0.81174 0.72258 0.05059 0.0
H2164 H 0.83988 0.7203 0.26077 0.0
H2165 H 0.84117 0.74558 0.26614 0.0
C2166 C 0.82755 0.7634 0.16681 0.0
C2167 C 0.81978 0.77161 0.11098 0.0
C2168 C 0.82707 0.74882 0.16235 0.0
C2169 C 0.81153 0.76496 0.05014 0.0
C2170 C 0.81101 0.75043 0.04523 0.0
C2171 C 0.81811 0.72761 0.0978 0.0
C2172 C 0.82575 0.71948 0.1549 0.0
C2173 C 0.8187 0.74224 0.10126 0.0
C2174 C 0.83407 0.72623 0.21502 0.0
C2175 C 0.83474 0.74072 0.21865 0.0
H2176 H 0.47381 0.58363 0.39203 0.0
H2177 H 0.46915 0.54816 0.22774 0.0
H2178 H 0.49435 0.54648 0.21478 0.0
H2179 H 0.51788 0.55482 0.25231 0.0
H2180 H 0.52223 0.59138 0.40662 0.0
H2181 H 0.49693 0.59317 0.41878 0.0
C2182 C 0.47819 0.57569 0.35172 0.0
C2183 C 0.46941 0.56598 0.31168 0.0
C2184 C 0.49269 0.57502 0.34234 0.0
C2185 C 0.47552 0.55561 0.26128 0.0
C2186 C 0.48998 0.5547 0.25307 0.0
C2187 C 0.51323 0.56321 0.288 0.0
C2188 C 0.52183 0.57295 0.32861 0.0
C2189 C 0.49867 0.56427 0.29389 0.0
C2190 C 0.51577 0.58385 0.37432 0.0
C2191 C 0.50133 0.58482 0.38166 0.0
H2192 H 0.67522 0.22634 0.75058 0.0
H2193 H 0.6813 0.21884 0.48736 0.0
H2194 H 0.6828 0.24396 0.46172 0.0
H2195 H 0.68221 0.26821 0.51486 0.0
H2196 H 0.67449 0.27546 0.77681 0.0
H2197 H 0.67386 0.25038 0.80267 0.0
C2198 C 0.67694 0.23024 0.68775 0.0
C2199 C 0.67825 0.22081 0.62101 0.0
C2200 C 0.67749 0.24466 0.67339 0.0
C2201 C 0.68025 0.22595 0.53962 0.0
C2202 C 0.68113 0.24029 0.52503 0.0
C2203 C 0.68043 0.26422 0.57743 0.0
C2204 C 0.67844 0.27358 0.64398 0.0
C2205 C 0.67975 0.24976 0.59144 0.0
C2206 C 0.676 0.26839 0.72476 0.0
C2207 C 0.67566 0.25408 0.73954 0.0
H2208 H 0.33527 0.28237 0.66003 0.0
H2209 H 0.29504 0.28565 0.54296 0.0
H2210 H 0.29413 0.26033 0.5248 0.0
H2211 H 0.30449 0.2373 0.54643 0.0
H2212 H 0.34364 0.23403 0.67816 0.0
H2213 H 0.34542 0.25921 0.68409 0.0
C2214 C 0.3264 0.27749 0.6298 0.0
C2215 C 0.31528 0.28575 0.60227 0.0
C2216 C 0.32578 0.26293 0.62193 0.0
C2217 C 0.30372 0.2794 0.56438 0.0
C2218 C 0.3032 0.26497 0.55412 0.0
C2219 C 0.31336 0.24201 0.57726 0.0
C2220 C 0.32393 0.23357 0.61125 0.0
C2221 C 0.3141 0.2566 0.58361 0.0
C2222 C 0.33546 0.24009 0.64939 0.0
C2223 C 0.33645 0.25457 0.65379 0.0
H2224 H 0.18972 0.73239 0.21889 0.0
H2225 H 0.17031 0.72725 0.97665 0.0
H2226 H 0.17019 0.75237 0.95781 0.0
H2227 H 0.17566 0.77605 1.00989 0.0
H2228 H 0.19743 0.78071 0.2438 0.0
H2229 H 0.19705 0.75548 0.26448 0.0
C2230 C 0.18573 0.73658 0.16083 0.0
C2231 C 0.17996 0.72766 0.09972 0.0
C2232 C 0.18623 0.75105 0.14848 0.0
C2233 C 0.17452 0.73367 0.02622 0.0
C2234 C 0.17458 0.74811 1.01471 0.0
C2235 C 0.18041 0.77145 0.06482 0.0
C2236 C 0.18658 0.78011 0.1253 0.0
C2237 C 0.18039 0.75691 0.07545 0.0
C2238 C 0.19273 0.77416 0.1963 0.0
C2239 C 0.19245 0.75977 0.20827 0.0
H2240 H 0.16445 0.27303 0.98708 0.0
H2241 H 0.20311 0.27677 0.85152 0.0
H2242 H 0.20622 0.2516 0.85635 0.0
H2243 H 0.1976 0.22847 0.89413 0.0
H2244 H 0.15927 0.22451 0.03322 0.0
H2245 H 0.15632 0.24973 0.03075 0.0
C2246 C 0.17353 0.26831 0.95853 0.0
C2247 C 0.18354 0.27678 0.91909 0.0
C2248 C 0.17529 0.25377 0.96171 0.0
C2249 C 0.19533 0.27052 0.88312 0.0
C2250 C 0.19709 0.25611 0.88547 0.0
C2251 C 0.18871 0.23309 0.92527 0.0
C2252 C 0.17866 0.2245 0.96344 0.0
C2253 C 0.18712 0.24763 0.92431 0.0
C2254 C 0.16708 0.23078 1.00206 0.0
C2255 C 0.1654 0.24524 1.00109 0.0
H2256 H 0.32885 0.72756 0.30797 0.0
H2257 H 0.31036 0.72359 0.55255 0.0
H2258 H 0.31028 0.74894 0.56837 0.0
H2259 H 0.31449 0.77237 0.50929 0.0
H2260 H 0.33185 0.77617 0.26198 0.0
H2261 H 0.3335 0.7508 0.25044 0.0
C2262 C 0.32499 0.73226 0.36516 0.0
C2263 C 0.31964 0.72375 0.42904 0.0
C2264 C 0.32474 0.74681 0.37305 0.0
C2265 C 0.31445 0.72996 0.50232 0.0
C2266 C 0.31442 0.74443 0.51142 0.0
C2267 C 0.31875 0.76756 0.45348 0.0
C2268 C 0.32312 0.77596 0.38667 0.0
C2269 C 0.31938 0.75298 0.44677 0.0
C2270 C 0.32849 0.76978 0.31404 0.0
C2271 C 0.3294 0.75532 0.30747 0.0
H2272 H 0.51595 0.06053 0.7759 0.0
H2273 H 0.5197 0.07875 0.5308 0.0
H2274 H 0.49437 0.08091 0.52121 0.0
H2275 H 0.47116 0.07683 0.58025 0.0
H2276 H 0.46707 0.05745 0.82213 0.0
H2277 H 0.49246 0.05638 0.83532 0.0
C2278 C 0.51115 0.06509 0.72099 0.0
C2279 C 0.51956 0.06958 0.65435 0.0
C2280 C 0.49655 0.06596 0.71513 0.0
C2281 C 0.51334 0.07529 0.58278 0.0
C2282 C 0.49889 0.07649 0.57728 0.0
C2283 C 0.47584 0.07249 0.63618 0.0
C2284 C 0.46726 0.06727 0.70025 0.0
C2285 C 0.49039 0.07175 0.64271 0.0
C2286 C 0.47346 0.06145 0.77174 0.0
C2287 C 0.48797 0.06089 0.77942 0.0
H2288 H 0.02234 0.948 0.13951 0.0
H2289 H 0.02805 0.90651 0.23668 0.0
H2290 H 0.00286 0.90347 0.24616 0.0
H2291 H 0.97907 0.91251 0.22517 0.0
H2292 H 0.97364 0.95413 0.12948 0.0
H2293 H 0.99879 0.95727 0.12314 0.0
C2294 C 0.01811 0.93836 0.16403 0.0
C2295 C 0.02715 0.9275 0.187 0.0
C2296 C 0.00361 0.93669 0.16985 0.0
C2297 C 0.02139 0.91499 0.21725 0.0
C2298 C 0.00696 0.91325 0.22314 0.0
C2299 C 0.9834 0.92225 0.2028 0.0
C2300 C 0.97445 0.93308 0.17823 0.0
C2301 C 0.99795 0.924 0.19898 0.0
C2302 C 0.98026 0.94569 0.15007 0.0
C2303 C 0.99466 0.94747 0.14587 0.0
H2304 H 0.52413 0.93287 0.24919 0.0
H2305 H 0.52856 0.91918 0.50455 0.0
H2306 H 0.50329 0.91893 0.52149 0.0
H2307 H 0.47988 0.92279 0.46433 0.0
H2308 H 0.47515 0.9354 0.20727 0.0
H2309 H 0.50049 0.93579 0.18993 0.0
C2310 C 0.51951 0.92985 0.30839 0.0
C2311 C 0.52816 0.92607 0.37558 0.0
C2312 C 0.50492 0.9295 0.31728 0.0
C2313 C 0.52209 0.92205 0.45182 0.0
C2314 C 0.50765 0.92194 0.46163 0.0
C2315 C 0.48443 0.92564 0.4046 0.0
C2316 C 0.47569 0.92913 0.33731 0.0
C2317 C 0.49896 0.92567 0.3949 0.0
C2318 C 0.48169 0.93261 0.25985 0.0
C2319 C 0.49616 0.93289 0.25005 0.0
H2320 H 0.02353 0.0489 0.88773 0.0
H2321 H 0.02656 0.08865 0.76359 0.0
H2322 H 0.00129 0.08953 0.7499 0.0
H2323 H 0.97823 0.07965 0.77989 0.0
H2324 H 0.97512 0.03999 0.9048 0.0
H2325 H 0.00047 0.03826 0.90928 0.0
C2326 C 0.01868 0.05764 0.85638 0.0
C2327 C 0.02695 0.06877 0.82771 0.0
C2328 C 0.0041 0.05811 0.84882 0.0
C2329 C 0.02045 0.08007 0.7878 0.0
C2330 C 0.00599 0.08056 0.77959 0.0
C2331 C 0.9831 0.07063 0.80805 0.0
C2332 C 0.97477 0.06002 0.84245 0.0
C2333 C 0.99769 0.06977 0.81129 0.0
C2334 C 0.98126 0.04826 0.87725 0.0
C2335 C 0.99578 0.04731 0.88038 0.0
loop_
_geom_bond_atom_site_label_1
_geom_bond_atom_site_label_2
_geom_bond_distance
_geom_bond_site_symmetry_2
_ccdc_geom_bond_type
Co0 N4 2.148 . S
Co0 N10 2.128 1_554 S
Co0 N20 2.194 . S
Co0 O25 2.351 . S
Co0 O26 2.155 . S
Co0 O27 2.096 . S
C1 N4 1.301 . S
C1 N5 1.328 . S
C1 H6 0.930 . S
C2 C3 1.333 . S
C2 N4 1.317 . S
C2 H7 0.930 . S
C3 C2 1.333 . S
C3 N5 1.350 . S
C3 H29 0.931 . S
N4 Co0 2.148 . S
N4 C1 1.301 . S
N4 C2 1.317 . S
N5 C1 1.328 . S
N5 C3 1.350 . S
H6 C1 0.930 . S
H7 C2 0.930 . S
C8 O9 1.224 . S
C8 O27 1.247 . S
O9 C8 1.224 . S
N10 Co0 2.128 1_556 S
N10 C11 1.355 . S
N10 C13 1.311 . S
C11 N10 1.355 . S
C11 C12 1.363 . S
C11 H23 0.929 . S
C12 C11 1.363 . S
C12 N14 1.375 . S
C12 H30 0.931 . S
C13 N10 1.311 . S
C13 N14 1.347 . S
C13 H24 0.929 . S
N14 C12 1.375 . S
N14 C13 1.347 . S
C15 C18 1.365 . S
C15 N20 1.328 . S
C15 H21 0.929 . S
C16 C17 1.362 . S
C16 C19 1.378 . S
C16 H31 0.929 . S
C17 C16 1.362 . S
C17 C18 1.366 . S
C18 C15 1.365 . S
C18 C17 1.366 . S
C18 H32 0.930 . S
C19 C16 1.378 . S
C19 N20 1.315 . S
C19 H22 0.930 . S
N20 Co0 2.194 . S
N20 C15 1.328 . S
N20 C19 1.315 . S
H21 C15 0.929 . S
H22 C19 0.930 . S
H23 C11 0.929 . S
H24 C13 0.929 . S
O25 Co0 2.351 . S
O25 C28 1.244 . S
O26 Co0 2.155 . S
O26 C28 1.240 . S
O27 Co0 2.096 . S
O27 C8 1.247 . S
C28 O25 1.244 . S
C28 O26 1.240 . S
H29 C3 0.931 . S
H30 C12 0.931 . S
H31 C16 0.929 . S
H32 C18 0.930 . S
Co33 N37 2.148 . S
Co33 N43 2.128 . S
Co33 N53 2.194 . S
Co33 O58 2.351 . S
Co33 O59 2.155 . S
Co33 O60 2.096 . S
C34 N37 1.301 . S
C34 N38 1.328 . S
C34 H39 0.930 . S
C35 C36 1.333 . S
C35 N37 1.317 . S
C35 H40 0.930 . S
C36 C35 1.333 . S
C36 N38 1.350 . S
C36 H62 0.931 . S
N37 Co33 2.148 . S
N37 C34 1.301 . S
N37 C35 1.317 . S
N38 C34 1.328 . S
N38 C36 1.350 . S
H39 C34 0.930 . S
H40 C35 0.930 . S
C41 O42 1.224 . S
C41 O60 1.247 . S
O42 C41 1.224 . S
N43 Co33 2.128 . S
N43 C44 1.355 . S
N43 C46 1.311 . S
C44 N43 1.355 . S
C44 C45 1.363 . S
C44 H56 0.929 . S
C45 C44 1.363 . S
C45 N47 1.375 . S
C45 H63 0.931 . S
C46 N43 1.311 . S
C46 N47 1.347 . S
C46 H57 0.929 . S
N47 C45 1.375 . S
N47 C46 1.347 . S
C48 C51 1.365 . S
C48 N53 1.328 . S
C48 H54 0.929 . S
C49 C50 1.362 . S
C49 C52 1.378 . S
C49 H64 0.929 . S
C50 C49 1.362 . S
C50 C51 1.366 . S
C51 C48 1.365 . S
C51 C50 1.366 . S
C51 H65 0.930 . S
C52 C49 1.378 . S
C52 N53 1.315 . S
C52 H55 0.930 . S
N53 Co33 2.194 . S
N53 C48 1.328 . S
N53 C52 1.315 . S
H54 C48 0.929 . S
H55 C52 0.930 . S
H56 C44 0.929 . S
H57 C46 0.929 . S
O58 Co33 2.351 . S
O58 C61 1.244 . S
O59 Co33 2.155 . S
O59 C61 1.240 . S
O60 Co33 2.096 . S
O60 C41 1.247 . S
C61 O58 1.244 . S
C61 O59 1.240 . S
H62 C36 0.931 . S
H63 C45 0.931 . S
H64 C49 0.929 . S
H65 C51 0.930 . S
Co66 N70 2.148 . S
Co66 N76 2.128 . S
Co66 N86 2.194 . S
Co66 O91 2.351 . S
Co66 O92 2.155 . S
Co66 O93 2.096 . S
C67 N70 1.301 . S
C67 N71 1.328 . S
C67 H72 0.930 . S
C68 C69 1.333 . S
C68 N70 1.317 . S
C68 H73 0.930 . S
C69 C68 1.333 . S
C69 N71 1.350 . S
C69 H95 0.931 . S
N70 Co66 2.148 . S
N70 C67 1.301 . S
N70 C68 1.317 . S
N71 C67 1.328 . S
N71 C69 1.350 . S
H72 C67 0.930 . S
H73 C68 0.930 . S
C74 O75 1.224 . S
C74 O93 1.247 . S
O75 C74 1.224 . S
N76 Co66 2.128 . S
N76 C77 1.355 . S
N76 C79 1.311 . S
C77 N76 1.355 . S
C77 C78 1.363 . S
C77 H89 0.929 . S
C78 C77 1.363 . S
C78 N80 1.375 . S
C78 H96 0.931 . S
C79 N76 1.311 . S
C79 N80 1.347 . S
C79 H90 0.929 . S
N80 C78 1.375 . S
N80 C79 1.347 . S
C81 C84 1.365 . S
C81 N86 1.328 . S
C81 H87 0.929 . S
C82 C83 1.362 . S
C82 C85 1.378 . S
C82 H97 0.929 . S
C83 C82 1.362 . S
C83 C84 1.366 . S
C84 C81 1.365 . S
C84 C83 1.366 . S
C84 H98 0.930 . S
C85 C82 1.378 . S
C85 N86 1.315 . S
C85 H88 0.930 . S
N86 Co66 2.194 . S
N86 C81 1.328 . S
N86 C85 1.315 . S
H87 C81 0.929 . S
H88 C85 0.930 . S
H89 C77 0.929 . S
H90 C79 0.929 . S
O91 Co66 2.351 . S
O91 C94 1.244 . S
O92 Co66 2.155 . S
O92 C94 1.240 . S
O93 Co66 2.096 . S
O93 C74 1.247 . S
C94 O91 1.244 . S
C94 O92 1.240 . S
H95 C69 0.931 . S
H96 C78 0.931 . S
H97 C82 0.929 . S
H98 C84 0.930 . S
Co99 N103 2.148 . S
Co99 N109 2.128 . S
Co99 N119 2.194 . S
Co99 O124 2.351 . S
Co99 O125 2.155 . S
Co99 O126 2.096 . S
C100 N103 1.301 1_554 S
C100 N104 1.328 . S
C100 H105 0.930 . S
C101 C102 1.333 1_556 S
C101 N103 1.317 . S
C101 H106 0.930 . S
C102 C101 1.333 1_554 S
C102 N104 1.350 . S
C102 H128 0.931 . S
N103 Co99 2.148 . S
N103 C100 1.301 1_556 S
N103 C101 1.317 . S
N104 C100 1.328 . S
N104 C102 1.350 . S
H105 C100 0.930 . S
H106 C101 0.930 . S
C107 O108 1.224 . S
C107 O126 1.247 . S
O108 C107 1.224 . S
N109 Co99 2.128 . S
N109 C110 1.355 . S
N109 C112 1.311 . S
C110 N109 1.355 . S
C110 C111 1.363 . S
C110 H122 0.929 . S
C111 C110 1.363 . S
C111 N113 1.375 . S
C111 H129 0.931 . S
C112 N109 1.311 . S
C112 N113 1.347 . S
C112 H123 0.929 . S
N113 C111 1.375 . S
N113 C112 1.347 . S
C114 C117 1.365 . S
C114 N119 1.328 . S
C114 H120 0.929 . S
C115 C116 1.362 . S
C115 C118 1.378 . S
C115 H130 0.929 . S
C116 C115 1.362 . S
C116 C117 1.366 . S
C117 C114 1.365 . S
C117 C116 1.366 . S
C117 H131 0.930 . S
C118 C115 1.378 . S
C118 N119 1.315 . S
C118 H121 0.930 . S
N119 Co99 2.194 . S
N119 C114 1.328 . S
N119 C118 1.315 . S
H120 C114 0.929 . S
H121 C118 0.930 . S
H122 C110 0.929 . S
H123 C112 0.929 . S
O124 Co99 2.351 . S
O124 C127 1.244 . S
O125 Co99 2.155 . S
O125 C127 1.240 . S
O126 Co99 2.096 . S
O126 C107 1.247 . S
C127 O124 1.244 . S
C127 O125 1.240 . S
H128 C102 0.931 . S
H129 C111 0.931 . S
H130 C115 0.929 . S
H131 C117 0.930 . S
Co132 N136 2.148 . S
Co132 N142 2.128 1_556 S
Co132 N152 2.194 . S
Co132 O157 2.351 . S
Co132 O158 2.155 . S
Co132 O159 2.096 . S
C133 N136 1.301 . S
C133 N137 1.328 . S
C133 H138 0.930 . S
C134 C135 1.333 . S
C134 N136 1.317 . S
C134 H139 0.930 . S
C135 C134 1.333 . S
C135 N137 1.350 . S
C135 H161 0.931 . S
N136 Co132 2.148 . S
N136 C133 1.301 . S
N136 C134 1.317 . S
N137 C133 1.328 . S
N137 C135 1.350 . S
H138 C133 0.930 . S
H139 C134 0.930 . S
C140 O141 1.224 . S
C140 O159 1.247 . S
O141 C140 1.224 . S
N142 Co132 2.128 1_554 S
N142 C143 1.355 . S
N142 C145 1.311 . S
C143 N142 1.355 . S
C143 C144 1.363 . S
C143 H155 0.929 . S
C144 C143 1.363 . S
C144 N146 1.375 . S
C144 H162 0.931 . S
C145 N142 1.311 . S
C145 N146 1.347 . S
C145 H156 0.929 . S
N146 C144 1.375 . S
N146 C145 1.347 . S
C147 C150 1.365 . S
C147 N152 1.328 . S
C147 H153 0.929 . S
C148 C149 1.362 . S
C148 C151 1.378 . S
C148 H163 0.929 . S
C149 C148 1.362 . S
C149 C150 1.366 . S
C150 C147 1.365 . S
C150 C149 1.366 . S
C150 H164 0.930 . S
C151 C148 1.378 . S
C151 N152 1.315 . S
C151 H154 0.930 . S
N152 Co132 2.194 . S
N152 C147 1.328 . S
N152 C151 1.315 . S
H153 C147 0.929 . S
H154 C151 0.930 . S
H155 C143 0.929 . S
H156 C145 0.929 . S
O157 Co132 2.351 . S
O157 C160 1.244 . S
O158 Co132 2.155 . S
O158 C160 1.240 . S
O159 Co132 2.096 . S
O159 C140 1.247 . S
C160 O157 1.244 . S
C160 O158 1.240 . S
H161 C135 0.931 . S
H162 C144 0.931 . S
H163 C148 0.929 . S
H164 C150 0.930 . S
Co165 N169 2.148 . S
Co165 N175 2.128 . S
Co165 N185 2.194 . S
Co165 O190 2.351 . S
Co165 O191 2.155 . S
Co165 O192 2.096 . S
C166 N169 1.301 1_556 S
C166 N170 1.328 . S
C166 H171 0.930 . S
C167 C168 1.333 1_554 S
C167 N169 1.317 . S
C167 H172 0.930 . S
C168 C167 1.333 1_556 S
C168 N170 1.350 . S
C168 H194 0.931 . S
N169 Co165 2.148 . S
N169 C166 1.301 1_554 S
N169 C167 1.317 . S
N170 C166 1.328 . S
N170 C168 1.350 . S
H171 C166 0.930 . S
H172 C167 0.930 . S
C173 O174 1.224 . S
C173 O192 1.247 . S
O174 C173 1.224 . S
N175 Co165 2.128 . S
N175 C176 1.355 . S
N175 C178 1.311 . S
C176 N175 1.355 . S
C176 C177 1.363 . S
C176 H188 0.929 . S
C177 C176 1.363 . S
C177 N179 1.375 . S
C177 H195 0.931 . S
C178 N175 1.311 . S
C178 N179 1.347 . S
C178 H189 0.929 . S
N179 C177 1.375 . S
N179 C178 1.347 . S
C180 C183 1.365 . S
C180 N185 1.328 . S
C180 H186 0.929 . S
C181 C182 1.362 . S
C181 C184 1.378 . S
C181 H196 0.929 . S
C182 C181 1.362 . S
C182 C183 1.366 . S
C183 C180 1.365 . S
C183 C182 1.366 . S
C183 H197 0.930 . S
C184 C181 1.378 . S
C184 N185 1.315 . S
C184 H187 0.930 . S
N185 Co165 2.194 . S
N185 C180 1.328 . S
N185 C184 1.315 . S
H186 C180 0.929 . S
H187 C184 0.930 . S
H188 C176 0.929 . S
H189 C178 0.929 . S
O190 Co165 2.351 . S
O190 C193 1.244 . S
O191 Co165 2.155 . S
O191 C193 1.240 . S
O192 Co165 2.096 . S
O192 C173 1.247 . S
C193 O190 1.244 . S
C193 O191 1.240 . S
H194 C168 0.931 . S
H195 C177 0.931 . S
H196 C181 0.929 . S
H197 C183 0.930 . S
Co198 N202 2.148 . S
Co198 N208 2.128 . S
Co198 N218 2.194 . S
Co198 O223 2.351 . S
Co198 O224 2.155 . S
Co198 O225 2.096 . S
C199 N202 1.301 . S
C199 N203 1.328 . S
C199 H204 0.930 . S
C200 C201 1.333 . S
C200 N202 1.317 . S
C200 H205 0.930 . S
C201 C200 1.333 . S
C201 N203 1.350 . S
C201 H227 0.931 . S
N202 Co198 2.148 . S
N202 C199 1.301 . S
N202 C200 1.317 . S
N203 C199 1.328 . S
N203 C201 1.350 . S
H204 C199 0.930 . S
H205 C200 0.930 . S
C206 O207 1.224 . S
C206 O225 1.247 . S
O207 C206 1.224 . S
N208 Co198 2.128 . S
N208 C209 1.355 . S
N208 C211 1.311 . S
C209 N208 1.355 . S
C209 C210 1.363 . S
C209 H221 0.929 . S
C210 C209 1.363 . S
C210 N212 1.375 . S
C210 H228 0.931 . S
C211 N208 1.311 . S
C211 N212 1.347 . S
C211 H222 0.929 . S
N212 C210 1.375 . S
N212 C211 1.347 . S
C213 C216 1.365 . S
C213 N218 1.328 . S
C213 H219 0.929 . S
C214 C215 1.362 . S
C214 C217 1.378 . S
C214 H229 0.929 . S
C215 C214 1.362 . S
C215 C216 1.366 . S
C216 C213 1.365 . S
C216 C215 1.366 . S
C216 H230 0.930 . S
C217 C214 1.378 . S
C217 N218 1.315 . S
C217 H220 0.930 . S
N218 Co198 2.194 . S
N218 C213 1.328 . S
N218 C217 1.315 . S
H219 C213 0.929 . S
H220 C217 0.930 . S
H221 C209 0.929 . S
H222 C211 0.929 . S
O223 Co198 2.351 . S
O223 C226 1.244 . S
O224 Co198 2.155 . S
O224 C226 1.240 . S
O225 Co198 2.096 . S
O225 C206 1.247 . S
C226 O223 1.244 . S
C226 O224 1.240 . S
H227 C201 0.931 . S
H228 C210 0.931 . S
H229 C214 0.929 . S
H230 C216 0.930 . S
Co231 N235 2.148 . S
Co231 N241 2.128 . S
Co231 N251 2.194 . S
Co231 O256 2.351 . S
Co231 O257 2.155 . S
Co231 O258 2.096 . S
C232 N235 1.301 . S
C232 N236 1.328 . S
C232 H237 0.930 . S
C233 C234 1.333 . S
C233 N235 1.317 . S
C233 H238 0.930 . S
C234 C233 1.333 . S
C234 N236 1.350 . S
C234 H260 0.931 . S
N235 Co231 2.148 . S
N235 C232 1.301 . S
N235 C233 1.317 . S
N236 C232 1.328 . S
N236 C234 1.350 . S
H237 C232 0.930 . S
H238 C233 0.930 . S
C239 O240 1.224 . S
C239 O258 1.247 . S
O240 C239 1.224 . S
N241 Co231 2.128 . S
N241 C242 1.355 . S
N241 C244 1.311 . S
C242 N241 1.355 . S
C242 C243 1.363 . S
C242 H254 0.929 . S
C243 C242 1.363 . S
C243 N245 1.375 . S
C243 H261 0.931 . S
C244 N241 1.311 . S
C244 N245 1.347 . S
C244 H255 0.929 . S
N245 C243 1.375 . S
N245 C244 1.347 . S
C246 C249 1.365 . S
C246 N251 1.328 . S
C246 H252 0.929 . S
C247 C248 1.362 . S
C247 C250 1.378 . S
C247 H262 0.929 . S
C248 C247 1.362 . S
C248 C249 1.366 . S
C249 C246 1.365 . S
C249 C248 1.366 . S
C249 H263 0.930 . S
C250 C247 1.378 . S
C250 N251 1.315 . S
C250 H253 0.930 . S
N251 Co231 2.194 . S
N251 C246 1.328 . S
N251 C250 1.315 . S
H252 C246 0.929 . S
H253 C250 0.930 . S
H254 C242 0.929 . S
H255 C244 0.929 . S
O256 Co231 2.351 . S
O256 C259 1.244 . S
O257 Co231 2.155 . S
O257 C259 1.240 . S
O258 Co231 2.096 . S
O258 C239 1.247 . S
C259 O256 1.244 . S
C259 O257 1.240 . S
H260 C234 0.931 . S
H261 C243 0.931 . S
H262 C247 0.929 . S
H263 C249 0.930 . S
Co264 N268 2.148 . S
Co264 N274 2.128 1_556 S
Co264 N284 2.194 . S
Co264 O289 2.351 . S
Co264 O290 2.155 . S
Co264 O291 2.096 . S
C265 N268 1.301 . S
C265 N269 1.328 . S
C265 H270 0.930 . S
C266 C267 1.333 . S
C266 N268 1.317 . S
C266 H271 0.930 . S
C267 C266 1.333 . S
C267 N269 1.350 . S
C267 H293 0.931 . S
N268 Co264 2.148 . S
N268 C265 1.301 . S
N268 C266 1.317 . S
N269 C265 1.328 . S
N269 C267 1.350 . S
H270 C265 0.930 . S
H271 C266 0.930 . S
C272 O273 1.224 . S
C272 O291 1.247 . S
O273 C272 1.224 . S
N274 Co264 2.128 1_554 S
N274 C275 1.355 . S
N274 C277 1.311 . S
C275 N274 1.355 . S
C275 C276 1.363 . S
C275 H287 0.929 . S
C276 C275 1.363 . S
C276 N278 1.375 . S
C276 H294 0.931 . S
C277 N274 1.311 . S
C277 N278 1.347 . S
C277 H288 0.929 . S
N278 C276 1.375 . S
N278 C277 1.347 . S
C279 C282 1.365 . S
C279 N284 1.328 . S
C279 H285 0.929 . S
C280 C281 1.362 . S
C280 C283 1.378 . S
C280 H295 0.929 . S
C281 C280 1.362 . S
C281 C282 1.366 . S
C282 C279 1.365 . S
C282 C281 1.366 . S
C282 H296 0.930 . S
C283 C280 1.378 . S
C283 N284 1.315 . S
C283 H286 0.930 . S
N284 Co264 2.194 . S
N284 C279 1.328 . S
N284 C283 1.315 . S
H285 C279 0.929 . S
H286 C283 0.930 . S
H287 C275 0.929 . S
H288 C277 0.929 . S
O289 Co264 2.351 . S
O289 C292 1.244 . S
O290 Co264 2.155 . S
O290 C292 1.240 . S
O291 Co264 2.096 . S
O291 C272 1.247 . S
C292 O289 1.244 . S
C292 O290 1.240 . S
H293 C267 0.931 . S
H294 C276 0.931 . S
H295 C280 0.929 . S
H296 C282 0.930 . S
Co297 N301 2.148 . S
Co297 N307 2.128 . S
Co297 N317 2.194 . S
Co297 O322 2.351 . S
Co297 O323 2.155 . S
Co297 O324 2.096 . S
C298 N301 1.301 . S
C298 N302 1.328 . S
C298 H303 0.930 . S
C299 C300 1.333 . S
C299 N301 1.317 . S
C299 H304 0.930 . S
C300 C299 1.333 . S
C300 N302 1.350 . S
C300 H326 0.931 . S
N301 Co297 2.148 . S
N301 C298 1.301 . S
N301 C299 1.317 . S
N302 C298 1.328 . S
N302 C300 1.350 . S
H303 C298 0.930 . S
H304 C299 0.930 . S
C305 O306 1.224 . S
C305 O324 1.247 . S
O306 C305 1.224 . S
N307 Co297 2.128 . S
N307 C308 1.355 . S
N307 C310 1.311 . S
C308 N307 1.355 . S
C308 C309 1.363 . S
C308 H320 0.929 . S
C309 C308 1.363 . S
C309 N311 1.375 . S
C309 H327 0.931 . S
C310 N307 1.311 . S
C310 N311 1.347 . S
C310 H321 0.929 . S
N311 C309 1.375 . S
N311 C310 1.347 . S
C312 C315 1.365 . S
C312 N317 1.328 . S
C312 H318 0.929 . S
C313 C314 1.362 . S
C313 C316 1.378 . S
C313 H328 0.929 . S
C314 C313 1.362 . S
C314 C315 1.366 . S
C315 C312 1.365 . S
C315 C314 1.366 . S
C315 H329 0.930 . S
C316 C313 1.378 . S
C316 N317 1.315 . S
C316 H319 0.930 . S
N317 Co297 2.194 . S
N317 C312 1.328 . S
N317 C316 1.315 . S
H318 C312 0.929 . S
H319 C316 0.930 . S
H320 C308 0.929 . S
H321 C310 0.929 . S
O322 Co297 2.351 . S
O322 C325 1.244 . S
O323 Co297 2.155 . S
O323 C325 1.240 . S
O324 Co297 2.096 . S
O324 C305 1.247 . S
C325 O322 1.244 . S
C325 O323 1.240 . S
H326 C300 0.931 . S
H327 C309 0.931 . S
H328 C313 0.929 . S
H329 C315 0.930 . S
Co330 N334 2.148 . S
Co330 N340 2.128 . S
Co330 N350 2.194 . S
Co330 O355 2.351 . S
Co330 O356 2.155 . S
Co330 O357 2.096 . S
C331 N334 1.301 . S
C331 N335 1.328 . S
C331 H336 0.930 . S
C332 C333 1.333 . S
C332 N334 1.317 . S
C332 H337 0.930 . S
C333 C332 1.333 . S
C333 N335 1.350 . S
C333 H359 0.931 . S
N334 Co330 2.148 . S
N334 C331 1.301 . S
N334 C332 1.317 . S
N335 C331 1.328 . S
N335 C333 1.350 . S
H336 C331 0.930 . S
H337 C332 0.930 . S
C338 O339 1.224 . S
C338 O357 1.247 . S
O339 C338 1.224 . S
N340 Co330 2.128 . S
N340 C341 1.355 . S
N340 C343 1.311 . S
C341 N340 1.355 . S
C341 C342 1.363 . S
C341 H353 0.929 . S
C342 C341 1.363 . S
C342 N344 1.375 . S
C342 H360 0.931 . S
C343 N340 1.311 . S
C343 N344 1.347 . S
C343 H354 0.929 . S
N344 C342 1.375 . S
N344 C343 1.347 . S
C345 C348 1.365 . S
C345 N350 1.328 . S
C345 H351 0.929 . S
C346 C347 1.362 . S
C346 C349 1.378 . S
C346 H361 0.929 . S
C347 C346 1.362 . S
C347 C348 1.366 . S
C348 C345 1.365 . S
C348 C347 1.366 . S
C348 H362 0.930 . S
C349 C346 1.378 . S
C349 N350 1.315 . S
C349 H352 0.930 . S
N350 Co330 2.194 . S
N350 C345 1.328 . S
N350 C349 1.315 . S
H351 C345 0.929 . S
H352 C349 0.930 . S
H353 C341 0.929 . S
H354 C343 0.929 . S
O355 Co330 2.351 . S
O355 C358 1.244 . S
O356 Co330 2.155 . S
O356 C358 1.240 . S
O357 Co330 2.096 . S
O357 C338 1.247 . S
C358 O355 1.244 . S
C358 O356 1.240 . S
H359 C333 0.931 . S
H360 C342 0.931 . S
H361 C346 0.929 . S
H362 C348 0.930 . S
Co363 N367 2.148 . S
Co363 N373 2.128 . S
Co363 N383 2.194 . S
Co363 O388 2.351 . S
Co363 O389 2.155 . S
Co363 O390 2.096 . S
C364 N367 1.301 1_556 S
C364 N368 1.328 . S
C364 H369 0.930 . S
C365 C366 1.333 1_554 S
C365 N367 1.317 . S
C365 H370 0.930 . S
C366 C365 1.333 1_556 S
C366 N368 1.350 . S
C366 H392 0.931 . S
N367 Co363 2.148 . S
N367 C364 1.301 1_554 S
N367 C365 1.317 . S
N368 C364 1.328 . S
N368 C366 1.350 . S
H369 C364 0.930 . S
H370 C365 0.930 . S
C371 O372 1.224 . S
C371 O390 1.247 . S
O372 C371 1.224 . S
N373 Co363 2.128 . S
N373 C374 1.355 . S
N373 C376 1.311 . S
C374 N373 1.355 . S
C374 C375 1.363 . S
C374 H386 0.929 . S
C375 C374 1.363 . S
C375 N377 1.375 . S
C375 H393 0.931 . S
C376 N373 1.311 . S
C376 N377 1.347 . S
C376 H387 0.929 . S
N377 C375 1.375 . S
N377 C376 1.347 . S
C378 C381 1.365 . S
C378 N383 1.328 . S
C378 H384 0.929 . S
C379 C380 1.362 . S
C379 C382 1.378 . S
C379 H394 0.929 . S
C380 C379 1.362 . S
C380 C381 1.366 . S
C381 C378 1.365 . S
C381 C380 1.366 . S
C381 H395 0.930 . S
C382 C379 1.378 . S
C382 N383 1.315 . S
C382 H385 0.930 . S
N383 Co363 2.194 . S
N383 C378 1.328 . S
N383 C382 1.315 . S
H384 C378 0.929 . S
H385 C382 0.930 . S
H386 C374 0.929 . S
H387 C376 0.929 . S
O388 Co363 2.351 . S
O388 C391 1.244 . S
O389 Co363 2.155 . S
O389 C391 1.240 . S
O390 Co363 2.096 . S
O390 C371 1.247 . S
C391 O388 1.244 . S
C391 O389 1.240 . S
H392 C366 0.931 . S
H393 C375 0.931 . S
H394 C379 0.929 . S
H395 C381 0.930 . S
Co396 N400 2.148 . S
Co396 N406 2.128 1_554 S
Co396 N416 2.194 . S
Co396 O421 2.351 . S
Co396 O422 2.155 . S
Co396 O423 2.096 . S
C397 N400 1.301 . S
C397 N401 1.328 . S
C397 H402 0.930 . S
C398 C399 1.333 . S
C398 N400 1.317 . S
C398 H403 0.930 . S
C399 C398 1.333 . S
C399 N401 1.350 . S
C399 H425 0.931 . S
N400 Co396 2.148 . S
N400 C397 1.301 . S
N400 C398 1.317 . S
N401 C397 1.328 . S
N401 C399 1.350 . S
H402 C397 0.930 . S
H403 C398 0.930 . S
C404 O405 1.224 . S
C404 O423 1.247 . S
O405 C404 1.224 . S
N406 Co396 2.128 1_556 S
N406 C407 1.355 . S
N406 C409 1.311 . S
C407 N406 1.355 . S
C407 C408 1.363 . S
C407 H419 0.929 . S
C408 C407 1.363 . S
C408 N410 1.375 . S
C408 H426 0.931 . S
C409 N406 1.311 . S
C409 N410 1.347 . S
C409 H420 0.929 . S
N410 C408 1.375 . S
N410 C409 1.347 . S
C411 C414 1.365 . S
C411 N416 1.328 . S
C411 H417 0.929 . S
C412 C413 1.362 . S
C412 C415 1.378 . S
C412 H427 0.929 . S
C413 C412 1.362 . S
C413 C414 1.366 . S
C414 C411 1.365 . S
C414 C413 1.366 . S
C414 H428 0.930 . S
C415 C412 1.378 . S
C415 N416 1.315 . S
C415 H418 0.930 . S
N416 Co396 2.194 . S
N416 C411 1.328 . S
N416 C415 1.315 . S
H417 C411 0.929 . S
H418 C415 0.930 . S
H419 C407 0.929 . S
H420 C409 0.929 . S
O421 Co396 2.351 . S
O421 C424 1.244 . S
O422 Co396 2.155 . S
O422 C424 1.240 . S
O423 Co396 2.096 . S
O423 C404 1.247 . S
C424 O421 1.244 . S
C424 O422 1.240 . S
H425 C399 0.931 . S
H426 C408 0.931 . S
H427 C412 0.929 . S
H428 C414 0.930 . S
Co429 N433 2.148 . S
Co429 N439 2.128 . S
Co429 N449 2.194 . S
Co429 O454 2.351 . S
Co429 O455 2.155 . S
Co429 O456 2.096 . S
C430 N433 1.301 1_554 S
C430 N434 1.328 . S
C430 H435 0.930 . S
C431 C432 1.333 1_556 S
C431 N433 1.317 . S
C431 H436 0.930 . S
C432 C431 1.333 1_554 S
C432 N434 1.350 . S
C432 H458 0.931 . S
N433 Co429 2.148 . S
N433 C430 1.301 1_556 S
N433 C431 1.317 . S
N434 C430 1.328 . S
N434 C432 1.350 . S
H435 C430 0.930 . S
H436 C431 0.930 . S
C437 O438 1.224 . S
C437 O456 1.247 . S
O438 C437 1.224 . S
N439 Co429 2.128 . S
N439 C440 1.355 . S
N439 C442 1.311 . S
C440 N439 1.355 . S
C440 C441 1.363 . S
C440 H452 0.929 . S
C441 C440 1.363 . S
C441 N443 1.375 . S
C441 H459 0.931 . S
C442 N439 1.311 . S
C442 N443 1.347 . S
C442 H453 0.929 . S
N443 C441 1.375 . S
N443 C442 1.347 . S
C444 C447 1.365 . S
C444 N449 1.328 . S
C444 H450 0.929 . S
C445 C446 1.362 . S
C445 C448 1.378 . S
C445 H460 0.929 . S
C446 C445 1.362 . S
C446 C447 1.366 . S
C447 C444 1.365 . S
C447 C446 1.366 . S
C447 H461 0.930 . S
C448 C445 1.378 . S
C448 N449 1.315 . S
C448 H451 0.930 . S
N449 Co429 2.194 . S
N449 C444 1.328 . S
N449 C448 1.315 . S
H450 C444 0.929 . S
H451 C448 0.930 . S
H452 C440 0.929 . S
H453 C442 0.929 . S
O454 Co429 2.351 . S
O454 C457 1.244 . S
O455 Co429 2.155 . S
O455 C457 1.240 . S
O456 Co429 2.096 . S
O456 C437 1.247 . S
C457 O454 1.244 . S
C457 O455 1.240 . S
H458 C432 0.931 . S
H459 C441 0.931 . S
H460 C445 0.929 . S
H461 C447 0.930 . S
Co462 N466 2.148 . S
Co462 N472 2.128 . S
Co462 N482 2.194 . S
Co462 O487 2.351 . S
Co462 O488 2.155 . S
Co462 O489 2.096 . S
C463 N466 1.301 . S
C463 N467 1.328 . S
C463 H468 0.930 . S
C464 C465 1.333 . S
C464 N466 1.317 . S
C464 H469 0.930 . S
C465 C464 1.333 . S
C465 N467 1.350 . S
C465 H491 0.931 . S
N466 Co462 2.148 . S
N466 C463 1.301 . S
N466 C464 1.317 . S
N467 C463 1.328 . S
N467 C465 1.350 . S
H468 C463 0.930 . S
H469 C464 0.930 . S
C470 O471 1.224 . S
C470 O489 1.247 . S
O471 C470 1.224 . S
N472 Co462 2.128 . S
N472 C473 1.355 . S
N472 C475 1.311 . S
C473 N472 1.355 . S
C473 C474 1.363 . S
C473 H485 0.929 . S
C474 C473 1.363 . S
C474 N476 1.375 . S
C474 H492 0.931 . S
C475 N472 1.311 . S
C475 N476 1.347 . S
C475 H486 0.929 . S
N476 C474 1.375 . S
N476 C475 1.347 . S
C477 C480 1.365 . S
C477 N482 1.328 . S
C477 H483 0.929 . S
C478 C479 1.362 . S
C478 C481 1.378 . S
C478 H493 0.929 . S
C479 C478 1.362 . S
C479 C480 1.366 . S
C480 C477 1.365 . S
C480 C479 1.366 . S
C480 H494 0.930 . S
C481 C478 1.378 . S
C481 N482 1.315 . S
C481 H484 0.930 . S
N482 Co462 2.194 . S
N482 C477 1.328 . S
N482 C481 1.315 . S
H483 C477 0.929 . S
H484 C481 0.930 . S
H485 C473 0.929 . S
H486 C475 0.929 . S
O487 Co462 2.351 . S
O487 C490 1.244 . S
O488 Co462 2.155 . S
O488 C490 1.240 . S
O489 Co462 2.096 . S
O489 C470 1.247 . S
C490 O487 1.244 . S
C490 O488 1.240 . S
H491 C465 0.931 . S
H492 C474 0.931 . S
H493 C478 0.929 . S
H494 C480 0.930 . S
Co495 N499 2.148 . S
Co495 N505 2.128 . S
Co495 N515 2.194 . S
Co495 O520 2.351 . S
Co495 O521 2.155 . S
Co495 O522 2.096 . S
C496 N499 1.301 . S
C496 N500 1.328 . S
C496 H501 0.930 . S
C497 C498 1.333 . S
C497 N499 1.317 . S
C497 H502 0.930 . S
C498 C497 1.333 . S
C498 N500 1.350 . S
C498 H524 0.931 . S
N499 Co495 2.148 . S
N499 C496 1.301 . S
N499 C497 1.317 . S
N500 C496 1.328 . S
N500 C498 1.350 . S
H501 C496 0.930 . S
H502 C497 0.930 . S
C503 O504 1.224 . S
C503 O522 1.247 . S
O504 C503 1.224 . S
N505 Co495 2.128 . S
N505 C506 1.355 . S
N505 C508 1.311 . S
C506 N505 1.355 . S
C506 C507 1.363 . S
C506 H518 0.929 . S
C507 C506 1.363 . S
C507 N509 1.375 . S
C507 H525 0.931 . S
C508 N505 1.311 . S
C508 N509 1.347 . S
C508 H519 0.929 . S
N509 C507 1.375 . S
N509 C508 1.347 . S
C510 C513 1.365 . S
C510 N515 1.328 . S
C510 H516 0.929 . S
C511 C512 1.362 . S
C511 C514 1.378 . S
C511 H526 0.929 . S
C512 C511 1.362 . S
C512 C513 1.366 . S
C513 C510 1.365 . S
C513 C512 1.366 . S
C513 H527 0.930 . S
C514 C511 1.378 . S
C514 N515 1.315 . S
C514 H517 0.930 . S
N515 Co495 2.194 . S
N515 C510 1.328 . S
N515 C514 1.315 . S
H516 C510 0.929 . S
H517 C514 0.930 . S
H518 C506 0.929 . S
H519 C508 0.929 . S
O520 Co495 2.351 . S
O520 C523 1.244 . S
O521 Co495 2.155 . S
O521 C523 1.240 . S
O522 Co495 2.096 . S
O522 C503 1.247 . S
C523 O520 1.244 . S
C523 O521 1.240 . S
H524 C498 0.931 . S
H525 C507 0.931 . S
H526 C511 0.929 . S
H527 C513 0.930 . S
Co528 N532 2.148 . S
Co528 N538 2.128 . S
Co528 N548 2.194 . S
Co528 O553 2.351 . S
Co528 O554 2.155 . S
Co528 O555 2.096 . S
C529 N532 1.301 . S
C529 N533 1.328 . S
C529 H534 0.930 . S
C530 C531 1.333 . S
C530 N532 1.317 . S
C530 H535 0.930 . S
C531 C530 1.333 . S
C531 N533 1.350 . S
C531 H557 0.931 . S
N532 Co528 2.148 . S
N532 C529 1.301 . S
N532 C530 1.317 . S
N533 C529 1.328 . S
N533 C531 1.350 . S
H534 C529 0.930 . S
H535 C530 0.930 . S
C536 O537 1.224 . S
C536 O555 1.247 . S
O537 C536 1.224 . S
N538 Co528 2.128 . S
N538 C539 1.355 . S
N538 C541 1.311 . S
C539 N538 1.355 . S
C539 C540 1.363 . S
C539 H551 0.929 . S
C540 C539 1.363 . S
C540 N542 1.375 . S
C540 H558 0.931 . S
C541 N538 1.311 . S
C541 N542 1.347 . S
C541 H552 0.929 . S
N542 C540 1.375 . S
N542 C541 1.347 . S
C543 C546 1.365 . S
C543 N548 1.328 . S
C543 H549 0.929 . S
C544 C545 1.362 . S
C544 C547 1.378 . S
C544 H559 0.929 . S
C545 C544 1.362 . S
C545 C546 1.366 . S
C546 C543 1.365 . S
C546 C545 1.366 . S
C546 H560 0.930 . S
C547 C544 1.378 . S
C547 N548 1.315 . S
C547 H550 0.930 . S
N548 Co528 2.194 . S
N548 C543 1.328 . S
N548 C547 1.315 . S
H549 C543 0.929 . S
H550 C547 0.930 . S
H551 C539 0.929 . S
H552 C541 0.929 . S
O553 Co528 2.351 . S
O553 C556 1.244 . S
O554 Co528 2.155 . S
O554 C556 1.240 . S
O555 Co528 2.096 . S
O555 C536 1.247 . S
C556 O553 1.244 . S
C556 O554 1.240 . S
H557 C531 0.931 . S
H558 C540 0.931 . S
H559 C544 0.929 . S
H560 C546 0.930 . S
Co561 N565 2.148 . S
Co561 N571 2.128 . S
Co561 N581 2.194 . S
Co561 O586 2.351 . S
Co561 O587 2.155 . S
Co561 O588 2.096 . S
C562 N565 1.301 1_554 S
C562 N566 1.328 . S
C562 H567 0.930 . S
C563 C564 1.333 1_556 S
C563 N565 1.317 . S
C563 H568 0.930 . S
C564 C563 1.333 1_554 S
C564 N566 1.350 . S
C564 H590 0.931 . S
N565 Co561 2.148 . S
N565 C562 1.301 1_556 S
N565 C563 1.317 . S
N566 C562 1.328 . S
N566 C564 1.350 . S
H567 C562 0.930 . S
H568 C563 0.930 . S
C569 O570 1.224 . S
C569 O588 1.247 . S
O570 C569 1.224 . S
N571 Co561 2.128 . S
N571 C572 1.355 . S
N571 C574 1.311 . S
C572 N571 1.355 . S
C572 C573 1.363 . S
C572 H584 0.929 . S
C573 C572 1.363 . S
C573 N575 1.375 . S
C573 H591 0.931 . S
C574 N571 1.311 . S
C574 N575 1.347 . S
C574 H585 0.929 . S
N575 C573 1.375 . S
N575 C574 1.347 . S
C576 C579 1.365 . S
C576 N581 1.328 . S
C576 H582 0.929 . S
C577 C578 1.362 . S
C577 C580 1.378 . S
C577 H592 0.929 . S
C578 C577 1.362 . S
C578 C579 1.366 . S
C579 C576 1.365 . S
C579 C578 1.366 . S
C579 H593 0.930 . S
C580 C577 1.378 . S
C580 N581 1.315 . S
C580 H583 0.930 . S
N581 Co561 2.194 . S
N581 C576 1.328 . S
N581 C580 1.315 . S
H582 C576 0.929 . S
H583 C580 0.930 . S
H584 C572 0.929 . S
H585 C574 0.929 . S
O586 Co561 2.351 . S
O586 C589 1.244 . S
O587 Co561 2.155 . S
O587 C589 1.240 . S
O588 Co561 2.096 . S
O588 C569 1.247 . S
C589 O586 1.244 . S
C589 O587 1.240 . S
H590 C564 0.931 . S
H591 C573 0.931 . S
H592 C577 0.929 . S
H593 C579 0.930 . S
Co594 N598 2.148 . S
Co594 N604 2.128 1_554 S
Co594 N614 2.194 . S
Co594 O619 2.351 . S
Co594 O620 2.155 . S
Co594 O621 2.096 . S
C595 N598 1.301 . S
C595 N599 1.328 . S
C595 H600 0.930 . S
C596 C597 1.333 . S
C596 N598 1.317 . S
C596 H601 0.930 . S
C597 C596 1.333 . S
C597 N599 1.350 . S
C597 H623 0.931 . S
N598 Co594 2.148 . S
N598 C595 1.301 . S
N598 C596 1.317 . S
N599 C595 1.328 . S
N599 C597 1.350 . S
H600 C595 0.930 . S
H601 C596 0.930 . S
C602 O603 1.224 . S
C602 O621 1.247 . S
O603 C602 1.224 . S
N604 Co594 2.128 1_556 S
N604 C605 1.355 . S
N604 C607 1.311 . S
C605 N604 1.355 . S
C605 C606 1.363 . S
C605 H617 0.929 . S
C606 C605 1.363 . S
C606 N608 1.375 . S
C606 H624 0.931 . S
C607 N604 1.311 . S
C607 N608 1.347 . S
C607 H618 0.929 . S
N608 C606 1.375 . S
N608 C607 1.347 . S
C609 C612 1.365 . S
C609 N614 1.328 . S
C609 H615 0.929 . S
C610 C611 1.362 . S
C610 C613 1.378 . S
C610 H625 0.929 . S
C611 C610 1.362 . S
C611 C612 1.366 . S
C612 C609 1.365 . S
C612 C611 1.366 . S
C612 H626 0.930 . S
C613 C610 1.378 . S
C613 N614 1.315 . S
C613 H616 0.930 . S
N614 Co594 2.194 . S
N614 C609 1.328 . S
N614 C613 1.315 . S
H615 C609 0.929 . S
H616 C613 0.930 . S
H617 C605 0.929 . S
H618 C607 0.929 . S
O619 Co594 2.351 . S
O619 C622 1.244 . S
O620 Co594 2.155 . S
O620 C622 1.240 . S
O621 Co594 2.096 . S
O621 C602 1.247 . S
C622 O619 1.244 . S
C622 O620 1.240 . S
H623 C597 0.931 . S
H624 C606 0.931 . S
H625 C610 0.929 . S
H626 C612 0.930 . S
Co627 N631 2.148 . S
Co627 N637 2.128 . S
Co627 N647 2.194 . S
Co627 O652 2.351 . S
Co627 O653 2.155 . S
Co627 O654 2.096 . S
C628 N631 1.301 . S
C628 N632 1.328 . S
C628 H633 0.930 . S
C629 C630 1.333 . S
C629 N631 1.317 . S
C629 H634 0.930 . S
C630 C629 1.333 . S
C630 N632 1.350 . S
C630 H656 0.931 . S
N631 Co627 2.148 . S
N631 C628 1.301 . S
N631 C629 1.317 . S
N632 C628 1.328 . S
N632 C630 1.350 . S
H633 C628 0.930 . S
H634 C629 0.930 . S
C635 O636 1.224 . S
C635 O654 1.247 . S
O636 C635 1.224 . S
N637 Co627 2.128 . S
N637 C638 1.355 . S
N637 C640 1.311 . S
C638 N637 1.355 . S
C638 C639 1.363 . S
C638 H650 0.929 . S
C639 C638 1.363 . S
C639 N641 1.375 . S
C639 H657 0.931 . S
C640 N637 1.311 . S
C640 N641 1.347 . S
C640 H651 0.929 . S
N641 C639 1.375 . S
N641 C640 1.347 . S
C642 C645 1.365 . S
C642 N647 1.328 . S
C642 H648 0.929 . S
C643 C644 1.362 . S
C643 C646 1.378 . S
C643 H658 0.929 . S
C644 C643 1.362 . S
C644 C645 1.366 . S
C645 C642 1.365 . S
C645 C644 1.366 . S
C645 H659 0.930 . S
C646 C643 1.378 . S
C646 N647 1.315 . S
C646 H649 0.930 . S
N647 Co627 2.194 . S
N647 C642 1.328 . S
N647 C646 1.315 . S
H648 C642 0.929 . S
H649 C646 0.930 . S
H650 C638 0.929 . S
H651 C640 0.929 . S
O652 Co627 2.351 . S
O652 C655 1.244 . S
O653 Co627 2.155 . S
O653 C655 1.240 . S
O654 Co627 2.096 . S
O654 C635 1.247 . S
C655 O652 1.244 . S
C655 O653 1.240 . S
H656 C630 0.931 . S
H657 C639 0.931 . S
H658 C643 0.929 . S
H659 C645 0.930 . S
Co660 N664 2.148 . S
Co660 N670 2.128 . S
Co660 N680 2.194 . S
Co660 O685 2.351 . S
Co660 O686 2.155 . S
Co660 O687 2.096 . S
C661 N664 1.301 . S
C661 N665 1.328 . S
C661 H666 0.930 . S
C662 C663 1.333 . S
C662 N664 1.317 . S
C662 H667 0.930 . S
C663 C662 1.333 . S
C663 N665 1.350 . S
C663 H689 0.931 . S
N664 Co660 2.148 . S
N664 C661 1.301 . S
N664 C662 1.317 . S
N665 C661 1.328 . S
N665 C663 1.350 . S
H666 C661 0.930 . S
H667 C662 0.930 . S
C668 O669 1.224 . S
C668 O687 1.247 . S
O669 C668 1.224 . S
N670 Co660 2.128 . S
N670 C671 1.355 . S
N670 C673 1.311 . S
C671 N670 1.355 . S
C671 C672 1.363 . S
C671 H683 0.929 . S
C672 C671 1.363 . S
C672 N674 1.375 . S
C672 H690 0.931 . S
C673 N670 1.311 . S
C673 N674 1.347 . S
C673 H684 0.929 . S
N674 C672 1.375 . S
N674 C673 1.347 . S
C675 C678 1.365 . S
C675 N680 1.328 . S
C675 H681 0.929 . S
C676 C677 1.362 . S
C676 C679 1.378 . S
C676 H691 0.929 . S
C677 C676 1.362 . S
C677 C678 1.366 . S
C678 C675 1.365 . S
C678 C677 1.366 . S
C678 H692 0.930 . S
C679 C676 1.378 . S
C679 N680 1.315 . S
C679 H682 0.930 . S
N680 Co660 2.194 . S
N680 C675 1.328 . S
N680 C679 1.315 . S
H681 C675 0.929 . S
H682 C679 0.930 . S
H683 C671 0.929 . S
H684 C673 0.929 . S
O685 Co660 2.351 . S
O685 C688 1.244 . S
O686 Co660 2.155 . S
O686 C688 1.240 . S
O687 Co660 2.096 . S
O687 C668 1.247 . S
C688 O685 1.244 . S
C688 O686 1.240 . S
H689 C663 0.931 . S
H690 C672 0.931 . S
H691 C676 0.929 . S
H692 C678 0.930 . S
Co693 N697 2.148 . S
Co693 N703 2.128 . S
Co693 N713 2.194 . S
Co693 O718 2.351 . S
Co693 O719 2.155 . S
Co693 O720 2.096 . S
C694 N697 1.301 . S
C694 N698 1.328 . S
C694 H699 0.930 . S
C695 C696 1.333 . S
C695 N697 1.317 . S
C695 H700 0.930 . S
C696 C695 1.333 . S
C696 N698 1.350 . S
C696 H722 0.931 . S
N697 Co693 2.148 . S
N697 C694 1.301 . S
N697 C695 1.317 . S
N698 C694 1.328 . S
N698 C696 1.350 . S
H699 C694 0.930 . S
H700 C695 0.930 . S
C701 O702 1.224 . S
C701 O720 1.247 . S
O702 C701 1.224 . S
N703 Co693 2.128 . S
N703 C704 1.355 . S
N703 C706 1.311 . S
C704 N703 1.355 . S
C704 C705 1.363 . S
C704 H716 0.929 . S
C705 C704 1.363 . S
C705 N707 1.375 . S
C705 H723 0.931 . S
C706 N703 1.311 . S
C706 N707 1.347 . S
C706 H717 0.929 . S
N707 C705 1.375 . S
N707 C706 1.347 . S
C708 C711 1.365 . S
C708 N713 1.328 . S
C708 H714 0.929 . S
C709 C710 1.362 . S
C709 C712 1.378 . S
C709 H724 0.929 . S
C710 C709 1.362 . S
C710 C711 1.366 . S
C711 C708 1.365 . S
C711 C710 1.366 . S
C711 H725 0.930 . S
C712 C709 1.378 . S
C712 N713 1.315 . S
C712 H715 0.930 . S
N713 Co693 2.194 . S
N713 C708 1.328 . S
N713 C712 1.315 . S
H714 C708 0.929 . S
H715 C712 0.930 . S
H716 C704 0.929 . S
H717 C706 0.929 . S
O718 Co693 2.351 . S
O718 C721 1.244 . S
O719 Co693 2.155 . S
O719 C721 1.240 . S
O720 Co693 2.096 . S
O720 C701 1.247 . S
C721 O718 1.244 . S
C721 O719 1.240 . S
H722 C696 0.931 . S
H723 C705 0.931 . S
H724 C709 0.929 . S
H725 C711 0.930 . S
Co726 N730 2.148 . S
Co726 N736 2.128 1_556 S
Co726 N746 2.194 . S
Co726 O751 2.351 . S
Co726 O752 2.155 . S
Co726 O753 2.096 . S
C727 N730 1.301 . S
C727 N731 1.328 . S
C727 H732 0.930 . S
C728 C729 1.333 . S
C728 N730 1.317 . S
C728 H733 0.930 . S
C729 C728 1.333 . S
C729 N731 1.350 . S
C729 H755 0.931 . S
N730 Co726 2.148 . S
N730 C727 1.301 . S
N730 C728 1.317 . S
N731 C727 1.328 . S
N731 C729 1.350 . S
H732 C727 0.930 . S
H733 C728 0.930 . S
C734 O735 1.224 . S
C734 O753 1.247 . S
O735 C734 1.224 . S
N736 Co726 2.128 1_554 S
N736 C737 1.355 . S
N736 C739 1.311 . S
C737 N736 1.355 . S
C737 C738 1.363 . S
C737 H749 0.929 . S
C738 C737 1.363 . S
C738 N740 1.375 . S
C738 H756 0.931 . S
C739 N736 1.311 . S
C739 N740 1.347 . S
C739 H750 0.929 . S
N740 C738 1.375 . S
N740 C739 1.347 . S
C741 C744 1.365 . S
C741 N746 1.328 . S
C741 H747 0.929 . S
C742 C743 1.362 . S
C742 C745 1.378 . S
C742 H757 0.929 . S
C743 C742 1.362 . S
C743 C744 1.366 . S
C744 C741 1.365 . S
C744 C743 1.366 . S
C744 H758 0.930 . S
C745 C742 1.378 . S
C745 N746 1.315 . S
C745 H748 0.930 . S
N746 Co726 2.194 . S
N746 C741 1.328 . S
N746 C745 1.315 . S
H747 C741 0.929 . S
H748 C745 0.930 . S
H749 C737 0.929 . S
H750 C739 0.929 . S
O751 Co726 2.351 . S
O751 C754 1.244 . S
O752 Co726 2.155 . S
O752 C754 1.240 . S
O753 Co726 2.096 . S
O753 C734 1.247 . S
C754 O751 1.244 . S
C754 O752 1.240 . S
H755 C729 0.931 . S
H756 C738 0.931 . S
H757 C742 0.929 . S
H758 C744 0.930 . S
Co759 N763 2.148 . S
Co759 N769 2.128 . S
Co759 N779 2.194 . S
Co759 O784 2.351 . S
Co759 O785 2.155 . S
Co759 O786 2.096 . S
C760 N763 1.301 1_556 S
C760 N764 1.328 . S
C760 H765 0.930 . S
C761 C762 1.333 1_554 S
C761 N763 1.317 . S
C761 H766 0.930 . S
C762 C761 1.333 1_556 S
C762 N764 1.350 . S
C762 H788 0.931 . S
N763 Co759 2.148 . S
N763 C760 1.301 1_554 S
N763 C761 1.317 . S
N764 C760 1.328 . S
N764 C762 1.350 . S
H765 C760 0.930 . S
H766 C761 0.930 . S
C767 O768 1.224 . S
C767 O786 1.247 . S
O768 C767 1.224 . S
N769 Co759 2.128 . S
N769 C770 1.355 . S
N769 C772 1.311 . S
C770 N769 1.355 . S
C770 C771 1.363 . S
C770 H782 0.929 . S
C771 C770 1.363 . S
C771 N773 1.375 . S
C771 H789 0.931 . S
C772 N769 1.311 . S
C772 N773 1.347 . S
C772 H783 0.929 . S
N773 C771 1.375 . S
N773 C772 1.347 . S
C774 C777 1.365 . S
C774 N779 1.328 . S
C774 H780 0.929 . S
C775 C776 1.362 . S
C775 C778 1.378 . S
C775 H790 0.929 . S
C776 C775 1.362 . S
C776 C777 1.366 . S
C777 C774 1.365 . S
C777 C776 1.366 . S
C777 H791 0.930 . S
C778 C775 1.378 . S
C778 N779 1.315 . S
C778 H781 0.930 . S
N779 Co759 2.194 . S
N779 C774 1.328 . S
N779 C778 1.315 . S
H780 C774 0.929 . S
H781 C778 0.930 . S
H782 C770 0.929 . S
H783 C772 0.929 . S
O784 Co759 2.351 . S
O784 C787 1.244 . S
O785 Co759 2.155 . S
O785 C787 1.240 . S
O786 Co759 2.096 . S
O786 C767 1.247 . S
C787 O784 1.244 . S
C787 O785 1.240 . S
H788 C762 0.931 . S
H789 C771 0.931 . S
H790 C775 0.929 . S
H791 C777 0.930 . S
Co792 N796 2.148 . S
Co792 N802 2.128 . S
Co792 N812 2.194 . S
Co792 O817 2.351 . S
Co792 O818 2.155 . S
Co792 O819 2.096 . S
C793 N796 1.301 . S
C793 N797 1.328 . S
C793 H798 0.930 . S
C794 C795 1.333 . S
C794 N796 1.317 . S
C794 H799 0.930 . S
C795 C794 1.333 . S
C795 N797 1.350 . S
C795 H821 0.931 . S
N796 Co792 2.148 . S
N796 C793 1.301 . S
N796 C794 1.317 . S
N797 C793 1.328 . S
N797 C795 1.350 . S
H798 C793 0.930 . S
H799 C794 0.930 . S
C800 O801 1.224 . S
C800 O819 1.247 . S
O801 C800 1.224 . S
N802 Co792 2.128 . S
N802 C803 1.355 . S
N802 C805 1.311 . S
C803 N802 1.355 . S
C803 C804 1.363 . S
C803 H815 0.929 . S
C804 C803 1.363 . S
C804 N806 1.375 . S
C804 H822 0.931 . S
C805 N802 1.311 . S
C805 N806 1.347 . S
C805 H816 0.929 . S
N806 C804 1.375 . S
N806 C805 1.347 . S
C807 C810 1.365 . S
C807 N812 1.328 . S
C807 H813 0.929 . S
C808 C809 1.362 . S
C808 C811 1.378 . S
C808 H823 0.929 . S
C809 C808 1.362 . S
C809 C810 1.366 . S
C810 C807 1.365 . S
C810 C809 1.366 . S
C810 H824 0.930 . S
C811 C808 1.378 . S
C811 N812 1.315 . S
C811 H814 0.930 . S
N812 Co792 2.194 . S
N812 C807 1.328 . S
N812 C811 1.315 . S
H813 C807 0.929 . S
H814 C811 0.930 . S
H815 C803 0.929 . S
H816 C805 0.929 . S
O817 Co792 2.351 . S
O817 C820 1.244 . S
O818 Co792 2.155 . S
O818 C820 1.240 . S
O819 Co792 2.096 . S
O819 C800 1.247 . S
C820 O817 1.244 . S
C820 O818 1.240 . S
H821 C795 0.931 . S
H822 C804 0.931 . S
H823 C808 0.929 . S
H824 C810 0.930 . S
Co825 N829 2.148 . S
Co825 N835 2.128 . S
Co825 N845 2.194 . S
Co825 O850 2.351 . S
Co825 O851 2.155 . S
Co825 O852 2.096 . S
C826 N829 1.301 1_556 S
C826 N830 1.328 . S
C826 H831 0.930 . S
C827 C828 1.333 1_554 S
C827 N829 1.317 . S
C827 H832 0.930 . S
C828 C827 1.333 1_556 S
C828 N830 1.350 . S
C828 H854 0.931 . S
N829 Co825 2.148 . S
N829 C826 1.301 1_554 S
N829 C827 1.317 . S
N830 C826 1.328 . S
N830 C828 1.350 . S
H831 C826 0.930 . S
H832 C827 0.930 . S
C833 O834 1.224 . S
C833 O852 1.247 . S
O834 C833 1.224 . S
N835 Co825 2.128 . S
N835 C836 1.355 . S
N835 C838 1.311 . S
C836 N835 1.355 . S
C836 C837 1.363 . S
C836 H848 0.929 . S
C837 C836 1.363 . S
C837 N839 1.375 . S
C837 H855 0.931 . S
C838 N835 1.311 . S
C838 N839 1.347 . S
C838 H849 0.929 . S
N839 C837 1.375 . S
N839 C838 1.347 . S
C840 C843 1.365 . S
C840 N845 1.328 . S
C840 H846 0.929 . S
C841 C842 1.362 . S
C841 C844 1.378 . S
C841 H856 0.929 . S
C842 C841 1.362 . S
C842 C843 1.366 . S
C843 C840 1.365 . S
C843 C842 1.366 . S
C843 H857 0.930 . S
C844 C841 1.378 . S
C844 N845 1.315 . S
C844 H847 0.930 . S
N845 Co825 2.194 . S
N845 C840 1.328 . S
N845 C844 1.315 . S
H846 C840 0.929 . S
H847 C844 0.930 . S
H848 C836 0.929 . S
H849 C838 0.929 . S
O850 Co825 2.351 . S
O850 C853 1.244 . S
O851 Co825 2.155 . S
O851 C853 1.240 . S
O852 Co825 2.096 . S
O852 C833 1.247 . S
C853 O850 1.244 . S
C853 O851 1.240 . S
H854 C828 0.931 . S
H855 C837 0.931 . S
H856 C841 0.929 . S
H857 C843 0.930 . S
Co858 N862 2.148 . S
Co858 N868 2.128 1_556 S
Co858 N878 2.194 . S
Co858 O883 2.351 . S
Co858 O884 2.155 . S
Co858 O885 2.096 . S
C859 N862 1.301 . S
C859 N863 1.328 . S
C859 H864 0.930 . S
C860 C861 1.333 . S
C860 N862 1.317 . S
C860 H865 0.930 . S
C861 C860 1.333 . S
C861 N863 1.350 . S
C861 H887 0.931 . S
N862 Co858 2.148 . S
N862 C859 1.301 . S
N862 C860 1.317 . S
N863 C859 1.328 . S
N863 C861 1.350 . S
H864 C859 0.930 . S
H865 C860 0.930 . S
C866 O867 1.224 . S
C866 O885 1.247 . S
O867 C866 1.224 . S
N868 Co858 2.128 1_554 S
N868 C869 1.355 . S
N868 C871 1.311 . S
C869 N868 1.355 . S
C869 C870 1.363 . S
C869 H881 0.929 . S
C870 C869 1.363 . S
C870 N872 1.375 . S
C870 H888 0.931 . S
C871 N868 1.311 . S
C871 N872 1.347 . S
C871 H882 0.929 . S
N872 C870 1.375 . S
N872 C871 1.347 . S
C873 C876 1.365 . S
C873 N878 1.328 . S
C873 H879 0.929 . S
C874 C875 1.362 . S
C874 C877 1.378 . S
C874 H889 0.929 . S
C875 C874 1.362 . S
C875 C876 1.366 . S
C876 C873 1.365 . S
C876 C875 1.366 . S
C876 H890 0.930 . S
C877 C874 1.378 . S
C877 N878 1.315 . S
C877 H880 0.930 . S
N878 Co858 2.194 . S
N878 C873 1.328 . S
N878 C877 1.315 . S
H879 C873 0.929 . S
H880 C877 0.930 . S
H881 C869 0.929 . S
H882 C871 0.929 . S
O883 Co858 2.351 . S
O883 C886 1.244 . S
O884 Co858 2.155 . S
O884 C886 1.240 . S
O885 Co858 2.096 . S
O885 C866 1.247 . S
C886 O883 1.244 . S
C886 O884 1.240 . S
H887 C861 0.931 . S
H888 C870 0.931 . S
H889 C874 0.929 . S
H890 C876 0.930 . S
Co891 N895 2.148 . S
Co891 N901 2.128 . S
Co891 N911 2.194 . S
Co891 O916 2.351 . S
Co891 O917 2.155 . S
Co891 O918 2.096 . S
C892 N895 1.301 . S
C892 N896 1.328 . S
C892 H897 0.930 . S
C893 C894 1.333 . S
C893 N895 1.317 . S
C893 H898 0.930 . S
C894 C893 1.333 . S
C894 N896 1.350 . S
C894 H920 0.931 . S
N895 Co891 2.148 . S
N895 C892 1.301 . S
N895 C893 1.317 . S
N896 C892 1.328 . S
N896 C894 1.350 . S
H897 C892 0.930 . S
H898 C893 0.930 . S
C899 O900 1.224 . S
C899 O918 1.247 . S
O900 C899 1.224 . S
N901 Co891 2.128 . S
N901 C902 1.355 . S
N901 C904 1.311 . S
C902 N901 1.355 . S
C902 C903 1.363 . S
C902 H914 0.929 . S
C903 C902 1.363 . S
C903 N905 1.375 . S
C903 H921 0.931 . S
C904 N901 1.311 . S
C904 N905 1.347 . S
C904 H915 0.929 . S
N905 C903 1.375 . S
N905 C904 1.347 . S
C906 C909 1.365 . S
C906 N911 1.328 . S
C906 H912 0.929 . S
C907 C908 1.362 . S
C907 C910 1.378 . S
C907 H922 0.929 . S
C908 C907 1.362 . S
C908 C909 1.366 . S
C909 C906 1.365 . S
C909 C908 1.366 . S
C909 H923 0.930 . S
C910 C907 1.378 . S
C910 N911 1.315 . S
C910 H913 0.930 . S
N911 Co891 2.194 . S
N911 C906 1.328 . S
N911 C910 1.315 . S
H912 C906 0.929 . S
H913 C910 0.930 . S
H914 C902 0.929 . S
H915 C904 0.929 . S
O916 Co891 2.351 . S
O916 C919 1.244 . S
O917 Co891 2.155 . S
O917 C919 1.240 . S
O918 Co891 2.096 . S
O918 C899 1.247 . S
C919 O916 1.244 . S
C919 O917 1.240 . S
H920 C894 0.931 . S
H921 C903 0.931 . S
H922 C907 0.929 . S
H923 C909 0.930 . S
Co924 N928 2.148 . S
Co924 N934 2.128 . S
Co924 N944 2.194 . S
Co924 O949 2.351 . S
Co924 O950 2.155 . S
Co924 O951 2.096 . S
C925 N928 1.301 . S
C925 N929 1.328 . S
C925 H930 0.930 . S
C926 C927 1.333 . S
C926 N928 1.317 . S
C926 H931 0.930 . S
C927 C926 1.333 . S
C927 N929 1.350 . S
C927 H953 0.931 . S
N928 Co924 2.148 . S
N928 C925 1.301 . S
N928 C926 1.317 . S
N929 C925 1.328 . S
N929 C927 1.350 . S
H930 C925 0.930 . S
H931 C926 0.930 . S
C932 O933 1.224 . S
C932 O951 1.247 . S
O933 C932 1.224 . S
N934 Co924 2.128 . S
N934 C935 1.355 . S
N934 C937 1.311 . S
C935 N934 1.355 . S
C935 C936 1.363 . S
C935 H947 0.929 . S
C936 C935 1.363 . S
C936 N938 1.375 . S
C936 H954 0.931 . S
C937 N934 1.311 . S
C937 N938 1.347 . S
C937 H948 0.929 . S
N938 C936 1.375 . S
N938 C937 1.347 . S
C939 C942 1.365 . S
C939 N944 1.328 . S
C939 H945 0.929 . S
C940 C941 1.362 . S
C940 C943 1.378 . S
C940 H955 0.929 . S
C941 C940 1.362 . S
C941 C942 1.366 . S
C942 C939 1.365 . S
C942 C941 1.366 . S
C942 H956 0.930 . S
C943 C940 1.378 . S
C943 N944 1.315 . S
C943 H946 0.930 . S
N944 Co924 2.194 . S
N944 C939 1.328 . S
N944 C943 1.315 . S
H945 C939 0.929 . S
H946 C943 0.930 . S
H947 C935 0.929 . S
H948 C937 0.929 . S
O949 Co924 2.351 . S
O949 C952 1.244 . S
O950 Co924 2.155 . S
O950 C952 1.240 . S
O951 Co924 2.096 . S
O951 C932 1.247 . S
C952 O949 1.244 . S
C952 O950 1.240 . S
H953 C927 0.931 . S
H954 C936 0.931 . S
H955 C940 0.929 . S
H956 C942 0.930 . S
Co957 N961 2.148 . S
Co957 N967 2.128 . S
Co957 N977 2.194 . S
Co957 O982 2.351 . S
Co957 O983 2.155 . S
Co957 O984 2.096 . S
C958 N961 1.301 . S
C958 N962 1.328 . S
C958 H963 0.930 . S
C959 C960 1.333 . S
C959 N961 1.317 . S
C959 H964 0.930 . S
C960 C959 1.333 . S
C960 N962 1.350 . S
C960 H986 0.931 . S
N961 Co957 2.148 . S
N961 C958 1.301 . S
N961 C959 1.317 . S
N962 C958 1.328 . S
N962 C960 1.350 . S
H963 C958 0.930 . S
H964 C959 0.930 . S
C965 O966 1.224 . S
C965 O984 1.247 . S
O966 C965 1.224 . S
N967 Co957 2.128 . S
N967 C968 1.355 . S
N967 C970 1.311 . S
C968 N967 1.355 . S
C968 C969 1.363 . S
C968 H980 0.929 . S
C969 C968 1.363 . S
C969 N971 1.375 . S
C969 H987 0.931 . S
C970 N967 1.311 . S
C970 N971 1.347 . S
C970 H981 0.929 . S
N971 C969 1.375 . S
N971 C970 1.347 . S
C972 C975 1.365 . S
C972 N977 1.328 . S
C972 H978 0.929 . S
C973 C974 1.362 . S
C973 C976 1.378 . S
C973 H988 0.929 . S
C974 C973 1.362 . S
C974 C975 1.366 . S
C975 C972 1.365 . S
C975 C974 1.366 . S
C975 H989 0.930 . S
C976 C973 1.378 . S
C976 N977 1.315 . S
C976 H979 0.930 . S
N977 Co957 2.194 . S
N977 C972 1.328 . S
N977 C976 1.315 . S
H978 C972 0.929 . S
H979 C976 0.930 . S
H980 C968 0.929 . S
H981 C970 0.929 . S
O982 Co957 2.351 . S
O982 C985 1.244 . S
O983 Co957 2.155 . S
O983 C985 1.240 . S
O984 Co957 2.096 . S
O984 C965 1.247 . S
C985 O982 1.244 . S
C985 O983 1.240 . S
H986 C960 0.931 . S
H987 C969 0.931 . S
H988 C973 0.929 . S
H989 C975 0.930 . S
Co990 N994 2.148 . S
Co990 N1000 2.128 1_554 S
Co990 N1010 2.194 . S
Co990 O1015 2.351 . S
Co990 O1016 2.155 . S
Co990 O1017 2.096 . S
C991 N994 1.301 . S
C991 N995 1.328 . S
C991 H996 0.930 . S
C992 C993 1.333 . S
C992 N994 1.317 . S
C992 H997 0.930 . S
C993 C992 1.333 . S
C993 N995 1.350 . S
C993 H1019 0.931 . S
N994 Co990 2.148 . S
N994 C991 1.301 . S
N994 C992 1.317 . S
N995 C991 1.328 . S
N995 C993 1.350 . S
H996 C991 0.930 . S
H997 C992 0.930 . S
C998 O999 1.224 . S
C998 O1017 1.247 . S
O999 C998 1.224 . S
N1000 Co990 2.128 1_556 S
N1000 C1001 1.355 . S
N1000 C1003 1.311 . S
C1001 N1000 1.355 . S
C1001 C1002 1.363 . S
C1001 H1013 0.929 . S
C1002 C1001 1.363 . S
C1002 N1004 1.375 . S
C1002 H1020 0.931 . S
C1003 N1000 1.311 . S
C1003 N1004 1.347 . S
C1003 H1014 0.929 . S
N1004 C1002 1.375 . S
N1004 C1003 1.347 . S
C1005 C1008 1.365 . S
C1005 N1010 1.328 . S
C1005 H1011 0.929 . S
C1006 C1007 1.362 . S
C1006 C1009 1.378 . S
C1006 H1021 0.929 . S
C1007 C1006 1.362 . S
C1007 C1008 1.366 . S
C1008 C1005 1.365 . S
C1008 C1007 1.366 . S
C1008 H1022 0.930 . S
C1009 C1006 1.378 . S
C1009 N1010 1.315 . S
C1009 H1012 0.930 . S
N1010 Co990 2.194 . S
N1010 C1005 1.328 . S
N1010 C1009 1.315 . S
H1011 C1005 0.929 . S
H1012 C1009 0.930 . S
H1013 C1001 0.929 . S
H1014 C1003 0.929 . S
O1015 Co990 2.351 . S
O1015 C1018 1.244 . S
O1016 Co990 2.155 . S
O1016 C1018 1.240 . S
O1017 Co990 2.096 . S
O1017 C998 1.247 . S
C1018 O1015 1.244 . S
C1018 O1016 1.240 . S
H1019 C993 0.931 . S
H1020 C1002 0.931 . S
H1021 C1006 0.929 . S
H1022 C1008 0.930 . S
Co1023 N1027 2.148 . S
Co1023 N1033 2.128 . S
Co1023 N1043 2.194 . S
Co1023 O1048 2.351 . S
Co1023 O1049 2.155 . S
Co1023 O1050 2.096 . S
C1024 N1027 1.301 1_554 S
C1024 N1028 1.328 . S
C1024 H1029 0.930 . S
C1025 C1026 1.333 1_556 S
C1025 N1027 1.317 . S
C1025 H1030 0.930 . S
C1026 C1025 1.333 1_554 S
C1026 N1028 1.350 . S
C1026 H1052 0.931 . S
N1027 Co1023 2.148 . S
N1027 C1024 1.301 1_556 S
N1027 C1025 1.317 . S
N1028 C1024 1.328 . S
N1028 C1026 1.350 . S
H1029 C1024 0.930 . S
H1030 C1025 0.930 . S
C1031 O1032 1.224 . S
C1031 O1050 1.247 . S
O1032 C1031 1.224 . S
N1033 Co1023 2.128 . S
N1033 C1034 1.355 . S
N1033 C1036 1.311 . S
C1034 N1033 1.355 . S
C1034 C1035 1.363 . S
C1034 H1046 0.929 . S
C1035 C1034 1.363 . S
C1035 N1037 1.375 . S
C1035 H1053 0.931 . S
C1036 N1033 1.311 . S
C1036 N1037 1.347 . S
C1036 H1047 0.929 . S
N1037 C1035 1.375 . S
N1037 C1036 1.347 . S
C1038 C1041 1.365 . S
C1038 N1043 1.328 . S
C1038 H1044 0.929 . S
C1039 C1040 1.362 . S
C1039 C1042 1.378 . S
C1039 H1054 0.929 . S
C1040 C1039 1.362 . S
C1040 C1041 1.366 . S
C1041 C1038 1.365 . S
C1041 C1040 1.366 . S
C1041 H1055 0.930 . S
C1042 C1039 1.378 . S
C1042 N1043 1.315 . S
C1042 H1045 0.930 . S
N1043 Co1023 2.194 . S
N1043 C1038 1.328 . S
N1043 C1042 1.315 . S
H1044 C1038 0.929 . S
H1045 C1042 0.930 . S
H1046 C1034 0.929 . S
H1047 C1036 0.929 . S
O1048 Co1023 2.351 . S
O1048 C1051 1.244 . S
O1049 Co1023 2.155 . S
O1049 C1051 1.240 . S
O1050 Co1023 2.096 . S
O1050 C1031 1.247 . S
C1051 O1048 1.244 . S
C1051 O1049 1.240 . S
H1052 C1026 0.931 . S
H1053 C1035 0.931 . S
H1054 C1039 0.929 . S
H1055 C1041 0.930 . S
H1056 C1062 0.930 . S
H1057 C1065 0.930 . S
H1058 C1066 0.930 . S
H1059 C1067 0.930 . S
H1060 C1070 0.930 . S
H1061 C1071 0.930 . S
C1062 H1056 0.930 . S
C1062 C1063 1.355 . S
C1062 C1064 1.415 . S
C1063 C1062 1.355 . S
C1063 C1065 1.419 . S
C1064 C1062 1.415 . S
C1064 C1069 1.425 . S
C1064 C1071 1.409 . S
C1065 H1057 0.930 . S
C1065 C1063 1.419 . S
C1065 C1066 1.362 . S
C1066 H1058 0.930 . S
C1066 C1065 1.362 . S
C1066 C1069 1.409 . S
C1067 H1059 0.930 . S
C1067 C1068 1.355 . S
C1067 C1069 1.415 . S
C1068 C1067 1.355 . S
C1068 C1070 1.419 . S
C1069 C1064 1.425 . S
C1069 C1066 1.409 . S
C1069 C1067 1.415 . S
C1070 H1060 0.930 . S
C1070 C1068 1.419 . S
C1070 C1071 1.362 . S
C1071 H1061 0.930 . S
C1071 C1064 1.409 . S
C1071 C1070 1.362 . S
H1072 C1078 0.930 . S
H1073 C1081 0.930 . S
H1074 C1082 0.930 . S
H1075 C1083 0.930 . S
H1076 C1086 0.930 . S
H1077 C1087 0.930 . S
C1078 H1072 0.930 . S
C1078 C1079 1.355 . S
C1078 C1080 1.415 . S
C1079 C1078 1.355 . S
C1079 C1081 1.419 . S
C1080 C1078 1.415 . S
C1080 C1085 1.425 . S
C1080 C1087 1.409 . S
C1081 H1073 0.930 . S
C1081 C1079 1.419 . S
C1081 C1082 1.362 . S
C1082 H1074 0.930 . S
C1082 C1081 1.362 . S
C1082 C1085 1.409 . S
C1083 H1075 0.930 . S
C1083 C1084 1.355 . S
C1083 C1085 1.415 . S
C1084 C1083 1.355 . S
C1084 C1086 1.419 . S
C1085 C1080 1.425 . S
C1085 C1082 1.409 . S
C1085 C1083 1.415 . S
C1086 H1076 0.930 . S
C1086 C1084 1.419 . S
C1086 C1087 1.362 . S
C1087 H1077 0.930 . S
C1087 C1080 1.409 . S
C1087 C1086 1.362 . S
H1088 C1094 0.930 . S
H1089 C1097 0.930 . S
H1090 C1098 0.930 . S
H1091 C1099 0.930 . S
H1092 C1102 0.930 . S
H1093 C1103 0.930 . S
C1094 H1088 0.930 . S
C1094 C1095 1.355 . S
C1094 C1096 1.415 1_556 S
C1095 C1094 1.355 . S
C1095 C1097 1.419 . S
C1096 C1094 1.415 1_554 S
C1096 C1101 1.425 . S
C1096 C1103 1.409 . S
C1097 H1089 0.930 . S
C1097 C1095 1.419 . S
C1097 C1098 1.362 1_556 S
C1098 H1090 0.930 . S
C1098 C1097 1.362 1_554 S
C1098 C1101 1.409 . S
C1099 H1091 0.930 . S
C1099 C1100 1.355 . S
C1099 C1101 1.415 . S
C1100 C1099 1.355 . S
C1100 C1102 1.419 . S
C1101 C1096 1.425 . S
C1101 C1098 1.409 . S
C1101 C1099 1.415 . S
C1102 H1092 0.930 . S
C1102 C1100 1.419 . S
C1102 C1103 1.362 . S
C1103 H1093 0.930 . S
C1103 C1096 1.409 . S
C1103 C1102 1.362 . S
H1104 C1110 0.930 . S
H1105 C1113 0.930 . S
H1106 C1114 0.930 . S
H1107 C1115 0.930 . S
H1108 C1118 0.930 . S
H1109 C1119 0.930 . S
C1110 H1104 0.930 . S
C1110 C1111 1.355 . S
C1110 C1112 1.415 . S
C1111 C1110 1.355 . S
C1111 C1113 1.419 . S
C1112 C1110 1.415 . S
C1112 C1117 1.425 . S
C1112 C1119 1.409 . S
C1113 H1105 0.930 . S
C1113 C1111 1.419 . S
C1113 C1114 1.362 . S
C1114 H1106 0.930 . S
C1114 C1113 1.362 . S
C1114 C1117 1.409 . S
C1115 H1107 0.930 . S
C1115 C1116 1.355 . S
C1115 C1117 1.415 . S
C1116 C1115 1.355 . S
C1116 C1118 1.419 . S
C1117 C1112 1.425 . S
C1117 C1114 1.409 . S
C1117 C1115 1.415 . S
C1118 H1108 0.930 . S
C1118 C1116 1.419 . S
C1118 C1119 1.362 . S
C1119 H1109 0.930 . S
C1119 C1112 1.409 . S
C1119 C1118 1.362 . S
H1120 C1126 0.930 . S
H1121 C1129 0.930 . S
H1122 C1130 0.930 . S
H1123 C1131 0.930 . S
H1124 C1134 0.930 . S
H1125 C1135 0.930 . S
C1126 H1120 0.930 . S
C1126 C1127 1.355 . S
C1126 C1128 1.415 . S
C1127 C1126 1.355 . S
C1127 C1129 1.419 . S
C1128 C1126 1.415 . S
C1128 C1133 1.425 . S
C1128 C1135 1.409 . S
C1129 H1121 0.930 . S
C1129 C1127 1.419 . S
C1129 C1130 1.362 . S
C1130 H1122 0.930 . S
C1130 C1129 1.362 . S
C1130 C1133 1.409 . S
C1131 H1123 0.930 . S
C1131 C1132 1.355 . S
C1131 C1133 1.415 . S
C1132 C1131 1.355 . S
C1132 C1134 1.419 . S
C1133 C1128 1.425 . S
C1133 C1130 1.409 . S
C1133 C1131 1.415 . S
C1134 H1124 0.930 . S
C1134 C1132 1.419 . S
C1134 C1135 1.362 . S
C1135 H1125 0.930 . S
C1135 C1128 1.409 . S
C1135 C1134 1.362 . S
H1136 C1142 0.930 . S
H1137 C1145 0.930 . S
H1138 C1146 0.930 . S
H1139 C1147 0.930 . S
H1140 C1150 0.930 . S
H1141 C1151 0.930 . S
C1142 H1136 0.930 . S
C1142 C1143 1.355 . S
C1142 C1144 1.415 . S
C1143 C1142 1.355 . S
C1143 C1145 1.419 . S
C1144 C1142 1.415 . S
C1144 C1149 1.425 . S
C1144 C1151 1.409 . S
C1145 H1137 0.930 . S
C1145 C1143 1.419 . S
C1145 C1146 1.362 . S
C1146 H1138 0.930 . S
C1146 C1145 1.362 . S
C1146 C1149 1.409 . S
C1147 H1139 0.930 . S
C1147 C1148 1.355 . S
C1147 C1149 1.415 . S
C1148 C1147 1.355 . S
C1148 C1150 1.419 . S
C1149 C1144 1.425 . S
C1149 C1146 1.409 . S
C1149 C1147 1.415 . S
C1150 H1140 0.930 . S
C1150 C1148 1.419 . S
C1150 C1151 1.362 . S
C1151 H1141 0.930 . S
C1151 C1144 1.409 . S
C1151 C1150 1.362 . S
H1152 C1158 0.930 . S
H1153 C1161 0.930 . S
H1154 C1162 0.930 . S
H1155 C1163 0.930 . S
H1156 C1166 0.930 . S
H1157 C1167 0.930 . S
C1158 H1152 0.930 . S
C1158 C1159 1.355 . S
C1158 C1160 1.415 . S
C1159 C1158 1.355 . S
C1159 C1161 1.419 . S
C1160 C1158 1.415 . S
C1160 C1165 1.425 . S
C1160 C1167 1.409 . S
C1161 H1153 0.930 . S
C1161 C1159 1.419 . S
C1161 C1162 1.362 . S
C1162 H1154 0.930 . S
C1162 C1161 1.362 . S
C1162 C1165 1.409 . S
C1163 H1155 0.930 . S
C1163 C1164 1.355 . S
C1163 C1165 1.415 1_554 S
C1164 C1163 1.355 . S
C1164 C1166 1.419 . S
C1165 C1160 1.425 . S
C1165 C1162 1.409 . S
C1165 C1163 1.415 1_556 S
C1166 H1156 0.930 . S
C1166 C1164 1.419 . S
C1166 C1167 1.362 1_554 S
C1167 H1157 0.930 . S
C1167 C1160 1.409 . S
C1167 C1166 1.362 1_556 S
H1168 C1174 0.930 . S
H1169 C1177 0.930 . S
H1170 C1178 0.930 . S
H1171 C1179 0.930 . S
H1172 C1182 0.930 . S
H1173 C1183 0.930 . S
C1174 H1168 0.930 . S
C1174 C1175 1.355 . S
C1174 C1176 1.415 . S
C1175 C1174 1.355 . S
C1175 C1177 1.419 . S
C1176 C1174 1.415 . S
C1176 C1181 1.425 . S
C1176 C1183 1.409 . S
C1177 H1169 0.930 . S
C1177 C1175 1.419 . S
C1177 C1178 1.362 . S
C1178 H1170 0.930 . S
C1178 C1177 1.362 . S
C1178 C1181 1.409 . S
C1179 H1171 0.930 . S
C1179 C1180 1.355 . S
C1179 C1181 1.415 . S
C1180 C1179 1.355 . S
C1180 C1182 1.419 . S
C1181 C1176 1.425 . S
C1181 C1178 1.409 . S
C1181 C1179 1.415 . S
C1182 H1172 0.930 . S
C1182 C1180 1.419 . S
C1182 C1183 1.362 . S
C1183 H1173 0.930 . S
C1183 C1176 1.409 . S
C1183 C1182 1.362 . S
H1184 C1190 0.930 . S
H1185 C1193 0.930 . S
H1186 C1194 0.930 . S
H1187 C1195 0.930 . S
H1188 C1198 0.930 . S
H1189 C1199 0.930 . S
C1190 H1184 0.930 . S
C1190 C1191 1.355 . S
C1190 C1192 1.415 . S
C1191 C1190 1.355 . S
C1191 C1193 1.419 . S
C1192 C1190 1.415 . S
C1192 C1197 1.425 . S
C1192 C1199 1.409 . S
C1193 H1185 0.930 . S
C1193 C1191 1.419 . S
C1193 C1194 1.362 . S
C1194 H1186 0.930 . S
C1194 C1193 1.362 . S
C1194 C1197 1.409 . S
C1195 H1187 0.930 . S
C1195 C1196 1.355 . S
C1195 C1197 1.415 . S
C1196 C1195 1.355 . S
C1196 C1198 1.419 . S
C1197 C1192 1.425 . S
C1197 C1194 1.409 . S
C1197 C1195 1.415 . S
C1198 H1188 0.930 . S
C1198 C1196 1.419 . S
C1198 C1199 1.362 . S
C1199 H1189 0.930 . S
C1199 C1192 1.409 . S
C1199 C1198 1.362 . S
H1200 C1206 0.930 . S
H1201 C1209 0.930 . S
H1202 C1210 0.930 . S
H1203 C1211 0.930 . S
H1204 C1214 0.930 . S
H1205 C1215 0.930 . S
C1206 H1200 0.930 . S
C1206 C1207 1.355 . S
C1206 C1208 1.415 . S
C1207 C1206 1.355 . S
C1207 C1209 1.419 . S
C1208 C1206 1.415 . S
C1208 C1213 1.425 . S
C1208 C1215 1.409 . S
C1209 H1201 0.930 . S
C1209 C1207 1.419 . S
C1209 C1210 1.362 . S
C1210 H1202 0.930 . S
C1210 C1209 1.362 . S
C1210 C1213 1.409 . S
C1211 H1203 0.930 . S
C1211 C1212 1.355 . S
C1211 C1213 1.415 . S
C1212 C1211 1.355 . S
C1212 C1214 1.419 . S
C1213 C1208 1.425 . S
C1213 C1210 1.409 . S
C1213 C1211 1.415 . S
C1214 H1204 0.930 . S
C1214 C1212 1.419 . S
C1214 C1215 1.362 . S
C1215 H1205 0.930 . S
C1215 C1208 1.409 . S
C1215 C1214 1.362 . S
H1216 C1222 0.930 . S
H1217 C1225 0.930 . S
H1218 C1226 0.930 . S
H1219 C1227 0.930 . S
H1220 C1230 0.930 . S
H1221 C1231 0.930 . S
C1222 H1216 0.930 . S
C1222 C1223 1.355 . S
C1222 C1224 1.415 . S
C1223 C1222 1.355 . S
C1223 C1225 1.419 . S
C1224 C1222 1.415 . S
C1224 C1229 1.425 . S
C1224 C1231 1.409 . S
C1225 H1217 0.930 . S
C1225 C1223 1.419 . S
C1225 C1226 1.362 . S
C1226 H1218 0.930 . S
C1226 C1225 1.362 . S
C1226 C1229 1.409 . S
C1227 H1219 0.930 . S
C1227 C1228 1.355 . S
C1227 C1229 1.415 1_554 S
C1228 C1227 1.355 . S
C1228 C1230 1.419 . S
C1229 C1224 1.425 . S
C1229 C1226 1.409 . S
C1229 C1227 1.415 1_556 S
C1230 H1220 0.930 . S
C1230 C1228 1.419 . S
C1230 C1231 1.362 1_554 S
C1231 H1221 0.930 . S
C1231 C1224 1.409 . S
C1231 C1230 1.362 1_556 S
H1232 C1238 0.930 . S
H1233 C1241 0.930 . S
H1234 C1242 0.930 . S
H1235 C1243 0.930 . S
H1236 C1246 0.930 . S
H1237 C1247 0.930 . S
C1238 H1232 0.930 . S
C1238 C1239 1.355 . S
C1238 C1240 1.415 . S
C1239 C1238 1.355 . S
C1239 C1241 1.419 . S
C1240 C1238 1.415 . S
C1240 C1245 1.425 . S
C1240 C1247 1.409 . S
C1241 H1233 0.930 . S
C1241 C1239 1.419 . S
C1241 C1242 1.362 . S
C1242 H1234 0.930 . S
C1242 C1241 1.362 . S
C1242 C1245 1.409 . S
C1243 H1235 0.930 . S
C1243 C1244 1.355 . S
C1243 C1245 1.415 . S
C1244 C1243 1.355 . S
C1244 C1246 1.419 . S
C1245 C1240 1.425 . S
C1245 C1242 1.409 . S
C1245 C1243 1.415 . S
C1246 H1236 0.930 . S
C1246 C1244 1.419 . S
C1246 C1247 1.362 . S
C1247 H1237 0.930 . S
C1247 C1240 1.409 . S
C1247 C1246 1.362 . S
H1248 C1254 0.930 . S
H1249 C1257 0.930 . S
H1250 C1258 0.930 . S
H1251 C1259 0.930 . S
H1252 C1262 0.930 . S
H1253 C1263 0.930 . S
C1254 H1248 0.930 . S
C1254 C1255 1.355 . S
C1254 C1256 1.415 . S
C1255 C1254 1.355 . S
C1255 C1257 1.419 . S
C1256 C1254 1.415 . S
C1256 C1261 1.425 . S
C1256 C1263 1.409 . S
C1257 H1249 0.930 . S
C1257 C1255 1.419 . S
C1257 C1258 1.362 . S
C1258 H1250 0.930 . S
C1258 C1257 1.362 . S
C1258 C1261 1.409 . S
C1259 H1251 0.930 . S
C1259 C1260 1.355 . S
C1259 C1261 1.415 . S
C1260 C1259 1.355 . S
C1260 C1262 1.419 . S
C1261 C1256 1.425 . S
C1261 C1258 1.409 . S
C1261 C1259 1.415 . S
C1262 H1252 0.930 . S
C1262 C1260 1.419 . S
C1262 C1263 1.362 . S
C1263 H1253 0.930 . S
C1263 C1256 1.409 . S
C1263 C1262 1.362 . S
H1264 C1270 0.930 . S
H1265 C1273 0.930 . S
H1266 C1274 0.930 . S
H1267 C1275 0.930 . S
H1268 C1278 0.930 . S
H1269 C1279 0.930 . S
C1270 H1264 0.930 . S
C1270 C1271 1.355 . S
C1270 C1272 1.415 . S
C1271 C1270 1.355 . S
C1271 C1273 1.419 . S
C1272 C1270 1.415 . S
C1272 C1277 1.425 . S
C1272 C1279 1.409 . S
C1273 H1265 0.930 . S
C1273 C1271 1.419 . S
C1273 C1274 1.362 . S
C1274 H1266 0.930 . S
C1274 C1273 1.362 . S
C1274 C1277 1.409 . S
C1275 H1267 0.930 . S
C1275 C1276 1.355 . S
C1275 C1277 1.415 . S
C1276 C1275 1.355 . S
C1276 C1278 1.419 . S
C1277 C1272 1.425 . S
C1277 C1274 1.409 . S
C1277 C1275 1.415 . S
C1278 H1268 0.930 . S
C1278 C1276 1.419 . S
C1278 C1279 1.362 . S
C1279 H1269 0.930 . S
C1279 C1272 1.409 . S
C1279 C1278 1.362 . S
H1280 C1286 0.930 . S
H1281 C1289 0.930 . S
H1282 C1290 0.930 . S
H1283 C1291 0.930 . S
H1284 C1294 0.930 . S
H1285 C1295 0.930 . S
C1286 H1280 0.930 . S
C1286 C1287 1.355 . S
C1286 C1288 1.415 1_556 S
C1287 C1286 1.355 . S
C1287 C1289 1.419 . S
C1288 C1286 1.415 1_554 S
C1288 C1293 1.425 . S
C1288 C1295 1.409 . S
C1289 H1281 0.930 . S
C1289 C1287 1.419 . S
C1289 C1290 1.362 1_556 S
C1290 H1282 0.930 . S
C1290 C1289 1.362 1_554 S
C1290 C1293 1.409 . S
C1291 H1283 0.930 . S
C1291 C1292 1.355 . S
C1291 C1293 1.415 . S
C1292 C1291 1.355 . S
C1292 C1294 1.419 . S
C1293 C1288 1.425 . S
C1293 C1290 1.409 . S
C1293 C1291 1.415 . S
C1294 H1284 0.930 . S
C1294 C1292 1.419 . S
C1294 C1295 1.362 . S
C1295 H1285 0.930 . S
C1295 C1288 1.409 . S
C1295 C1294 1.362 . S
H1296 C1302 0.930 . S
H1297 C1305 0.930 . S
H1298 C1306 0.930 . S
H1299 C1307 0.930 . S
H1300 C1310 0.930 . S
H1301 C1311 0.930 . S
C1302 H1296 0.930 . S
C1302 C1303 1.355 . S
C1302 C1304 1.415 . S
C1303 C1302 1.355 . S
C1303 C1305 1.419 . S
C1304 C1302 1.415 . S
C1304 C1309 1.425 . S
C1304 C1311 1.409 . S
C1305 H1297 0.930 . S
C1305 C1303 1.419 . S
C1305 C1306 1.362 . S
C1306 H1298 0.930 . S
C1306 C1305 1.362 . S
C1306 C1309 1.409 . S
C1307 H1299 0.930 . S
C1307 C1308 1.355 . S
C1307 C1309 1.415 . S
C1308 C1307 1.355 . S
C1308 C1310 1.419 . S
C1309 C1304 1.425 . S
C1309 C1306 1.409 . S
C1309 C1307 1.415 . S
C1310 H1300 0.930 . S
C1310 C1308 1.419 . S
C1310 C1311 1.362 . S
C1311 H1301 0.930 . S
C1311 C1304 1.409 . S
C1311 C1310 1.362 . S
H1312 C1318 0.930 . S
H1313 C1321 0.930 . S
H1314 C1322 0.930 . S
H1315 C1323 0.930 . S
H1316 C1326 0.930 . S
H1317 C1327 0.930 . S
C1318 H1312 0.930 . S
C1318 C1319 1.355 . S
C1318 C1320 1.415 1_556 S
C1319 C1318 1.355 . S
C1319 C1321 1.419 . S
C1320 C1318 1.415 1_554 S
C1320 C1325 1.425 . S
C1320 C1327 1.409 . S
C1321 H1313 0.930 . S
C1321 C1319 1.419 . S
C1321 C1322 1.362 1_556 S
C1322 H1314 0.930 . S
C1322 C1321 1.362 1_554 S
C1322 C1325 1.409 . S
C1323 H1315 0.930 . S
C1323 C1324 1.355 . S
C1323 C1325 1.415 . S
C1324 C1323 1.355 . S
C1324 C1326 1.419 . S
C1325 C1320 1.425 . S
C1325 C1322 1.409 . S
C1325 C1323 1.415 . S
C1326 H1316 0.930 . S
C1326 C1324 1.419 . S
C1326 C1327 1.362 . S
C1327 H1317 0.930 . S
C1327 C1320 1.409 . S
C1327 C1326 1.362 . S
H1328 C1334 0.930 . S
H1329 C1337 0.930 . S
H1330 C1338 0.930 . S
H1331 C1339 0.930 . S
H1332 C1342 0.930 . S
H1333 C1343 0.930 . S
C1334 H1328 0.930 . S
C1334 C1335 1.355 . S
C1334 C1336 1.415 . S
C1335 C1334 1.355 . S
C1335 C1337 1.419 . S
C1336 C1334 1.415 . S
C1336 C1341 1.425 . S
C1336 C1343 1.409 . S
C1337 H1329 0.930 . S
C1337 C1335 1.419 . S
C1337 C1338 1.362 . S
C1338 H1330 0.930 . S
C1338 C1337 1.362 . S
C1338 C1341 1.409 . S
C1339 H1331 0.930 . S
C1339 C1340 1.355 . S
C1339 C1341 1.415 . S
C1340 C1339 1.355 . S
C1340 C1342 1.419 . S
C1341 C1336 1.425 . S
C1341 C1338 1.409 . S
C1341 C1339 1.415 . S
C1342 H1332 0.930 . S
C1342 C1340 1.419 . S
C1342 C1343 1.362 . S
C1343 H1333 0.930 . S
C1343 C1336 1.409 . S
C1343 C1342 1.362 . S
H1344 C1350 0.930 . S
H1345 C1353 0.930 . S
H1346 C1354 0.930 . S
H1347 C1355 0.930 . S
H1348 C1358 0.930 . S
H1349 C1359 0.930 . S
C1350 H1344 0.930 . S
C1350 C1351 1.355 . S
C1350 C1352 1.415 . S
C1351 C1350 1.355 . S
C1351 C1353 1.419 . S
C1352 C1350 1.415 . S
C1352 C1357 1.425 . S
C1352 C1359 1.409 . S
C1353 H1345 0.930 . S
C1353 C1351 1.419 . S
C1353 C1354 1.362 . S
C1354 H1346 0.930 . S
C1354 C1353 1.362 . S
C1354 C1357 1.409 . S
C1355 H1347 0.930 . S
C1355 C1356 1.355 . S
C1355 C1357 1.415 . S
C1356 C1355 1.355 . S
C1356 C1358 1.419 . S
C1357 C1352 1.425 . S
C1357 C1354 1.409 . S
C1357 C1355 1.415 . S
C1358 H1348 0.930 . S
C1358 C1356 1.419 . S
C1358 C1359 1.362 . S
C1359 H1349 0.930 . S
C1359 C1352 1.409 . S
C1359 C1358 1.362 . S
H1360 C1366 0.930 . S
H1361 C1369 0.930 . S
H1362 C1370 0.930 . S
H1363 C1371 0.930 . S
H1364 C1374 0.930 . S
H1365 C1375 0.930 . S
C1366 H1360 0.930 . S
C1366 C1367 1.355 . S
C1366 C1368 1.415 . S
C1367 C1366 1.355 . S
C1367 C1369 1.419 . S
C1368 C1366 1.415 . S
C1368 C1373 1.425 . S
C1368 C1375 1.409 . S
C1369 H1361 0.930 . S
C1369 C1367 1.419 . S
C1369 C1370 1.362 . S
C1370 H1362 0.930 . S
C1370 C1369 1.362 . S
C1370 C1373 1.409 . S
C1371 H1363 0.930 . S
C1371 C1372 1.355 . S
C1371 C1373 1.415 . S
C1372 C1371 1.355 . S
C1372 C1374 1.419 . S
C1373 C1368 1.425 . S
C1373 C1370 1.409 . S
C1373 C1371 1.415 . S
C1374 H1364 0.930 . S
C1374 C1372 1.419 . S
C1374 C1375 1.362 . S
C1375 H1365 0.930 . S
C1375 C1368 1.409 . S
C1375 C1374 1.362 . S
H1376 C1382 0.930 . S
H1377 C1385 0.930 . S
H1378 C1386 0.930 . S
H1379 C1387 0.930 . S
H1380 C1390 0.930 . S
H1381 C1391 0.930 . S
C1382 H1376 0.930 . S
C1382 C1383 1.355 . S
C1382 C1384 1.415 1_554 S
C1383 C1382 1.355 . S
C1383 C1385 1.419 . S
C1384 C1382 1.415 1_556 S
C1384 C1389 1.425 . S
C1384 C1391 1.409 . S
C1385 H1377 0.930 . S
C1385 C1383 1.419 . S
C1385 C1386 1.362 1_554 S
C1386 H1378 0.930 . S
C1386 C1385 1.362 1_556 S
C1386 C1389 1.409 . S
C1387 H1379 0.930 . S
C1387 C1388 1.355 . S
C1387 C1389 1.415 . S
C1388 C1387 1.355 . S
C1388 C1390 1.419 . S
C1389 C1384 1.425 . S
C1389 C1386 1.409 . S
C1389 C1387 1.415 . S
C1390 H1380 0.930 . S
C1390 C1388 1.419 . S
C1390 C1391 1.362 . S
C1391 H1381 0.930 . S
C1391 C1384 1.409 . S
C1391 C1390 1.362 . S
H1392 C1398 0.930 . S
H1393 C1401 0.930 . S
H1394 C1402 0.930 . S
H1395 C1403 0.930 . S
H1396 C1406 0.930 . S
H1397 C1407 0.930 . S
C1398 H1392 0.930 . S
C1398 C1399 1.355 . S
C1398 C1400 1.415 . S
C1399 C1398 1.355 . S
C1399 C1401 1.419 . S
C1400 C1398 1.415 . S
C1400 C1405 1.425 . S
C1400 C1407 1.409 . S
C1401 H1393 0.930 . S
C1401 C1399 1.419 . S
C1401 C1402 1.362 . S
C1402 H1394 0.930 . S
C1402 C1401 1.362 . S
C1402 C1405 1.409 . S
C1403 H1395 0.930 . S
C1403 C1404 1.355 . S
C1403 C1405 1.415 . S
C1404 C1403 1.355 . S
C1404 C1406 1.419 . S
C1405 C1400 1.425 . S
C1405 C1402 1.409 . S
C1405 C1403 1.415 . S
C1406 H1396 0.930 . S
C1406 C1404 1.419 . S
C1406 C1407 1.362 . S
C1407 H1397 0.930 . S
C1407 C1400 1.409 . S
C1407 C1406 1.362 . S
H1408 C1414 0.930 . S
H1409 C1417 0.930 . S
H1410 C1418 0.930 . S
H1411 C1419 0.930 . S
H1412 C1422 0.930 . S
H1413 C1423 0.930 . S
C1414 H1408 0.930 . S
C1414 C1415 1.355 . S
C1414 C1416 1.415 . S
C1415 C1414 1.355 . S
C1415 C1417 1.419 . S
C1416 C1414 1.415 . S
C1416 C1421 1.425 . S
C1416 C1423 1.409 . S
C1417 H1409 0.930 . S
C1417 C1415 1.419 . S
C1417 C1418 1.362 . S
C1418 H1410 0.930 . S
C1418 C1417 1.362 . S
C1418 C1421 1.409 . S
C1419 H1411 0.930 . S
C1419 C1420 1.355 . S
C1419 C1421 1.415 . S
C1420 C1419 1.355 . S
C1420 C1422 1.419 . S
C1421 C1416 1.425 . S
C1421 C1418 1.409 . S
C1421 C1419 1.415 . S
C1422 H1412 0.930 . S
C1422 C1420 1.419 . S
C1422 C1423 1.362 . S
C1423 H1413 0.930 . S
C1423 C1416 1.409 . S
C1423 C1422 1.362 . S
H1424 C1430 0.930 . S
H1425 C1433 0.930 . S
H1426 C1434 0.930 . S
H1427 C1435 0.930 . S
H1428 C1438 0.930 . S
H1429 C1439 0.930 . S
C1430 H1424 0.930 . S
C1430 C1431 1.355 . S
C1430 C1432 1.415 . S
C1431 C1430 1.355 . S
C1431 C1433 1.419 . S
C1432 C1430 1.415 . S
C1432 C1437 1.425 . S
C1432 C1439 1.409 . S
C1433 H1425 0.930 . S
C1433 C1431 1.419 . S
C1433 C1434 1.362 . S
C1434 H1426 0.930 . S
C1434 C1433 1.362 . S
C1434 C1437 1.409 . S
C1435 H1427 0.930 . S
C1435 C1436 1.355 . S
C1435 C1437 1.415 . S
C1436 C1435 1.355 . S
C1436 C1438 1.419 . S
C1437 C1432 1.425 . S
C1437 C1434 1.409 . S
C1437 C1435 1.415 . S
C1438 H1428 0.930 . S
C1438 C1436 1.419 . S
C1438 C1439 1.362 . S
C1439 H1429 0.930 . S
C1439 C1432 1.409 . S
C1439 C1438 1.362 . S
H1440 C1446 0.930 . S
H1441 C1449 0.930 . S
H1442 C1450 0.930 . S
H1443 C1451 0.930 . S
H1444 C1454 0.930 . S
H1445 C1455 0.930 . S
C1446 H1440 0.930 . S
C1446 C1447 1.355 . S
C1446 C1448 1.415 1_554 S
C1447 C1446 1.355 . S
C1447 C1449 1.419 . S
C1448 C1446 1.415 1_556 S
C1448 C1453 1.425 . S
C1448 C1455 1.409 . S
C1449 H1441 0.930 . S
C1449 C1447 1.419 . S
C1449 C1450 1.362 1_554 S
C1450 H1442 0.930 . S
C1450 C1449 1.362 1_556 S
C1450 C1453 1.409 . S
C1451 H1443 0.930 . S
C1451 C1452 1.355 . S
C1451 C1453 1.415 . S
C1452 C1451 1.355 . S
C1452 C1454 1.419 . S
C1453 C1448 1.425 . S
C1453 C1450 1.409 . S
C1453 C1451 1.415 . S
C1454 H1444 0.930 . S
C1454 C1452 1.419 . S
C1454 C1455 1.362 . S
C1455 H1445 0.930 . S
C1455 C1448 1.409 . S
C1455 C1454 1.362 . S
H1456 C1462 0.930 . S
H1457 C1465 0.930 . S
H1458 C1466 0.930 . S
H1459 C1467 0.930 . S
H1460 C1470 0.930 . S
H1461 C1471 0.930 . S
C1462 H1456 0.930 . S
C1462 C1463 1.355 . S
C1462 C1464 1.415 . S
C1463 C1462 1.355 . S
C1463 C1465 1.419 . S
C1464 C1462 1.415 . S
C1464 C1469 1.425 . S
C1464 C1471 1.409 . S
C1465 H1457 0.930 . S
C1465 C1463 1.419 . S
C1465 C1466 1.362 . S
C1466 H1458 0.930 . S
C1466 C1465 1.362 . S
C1466 C1469 1.409 . S
C1467 H1459 0.930 . S
C1467 C1468 1.355 . S
C1467 C1469 1.415 . S
C1468 C1467 1.355 . S
C1468 C1470 1.419 . S
C1469 C1464 1.425 . S
C1469 C1466 1.409 . S
C1469 C1467 1.415 . S
C1470 H1460 0.930 . S
C1470 C1468 1.419 . S
C1470 C1471 1.362 . S
C1471 H1461 0.930 . S
C1471 C1464 1.409 . S
C1471 C1470 1.362 . S
H1472 C1478 0.930 . S
H1473 C1481 0.930 . S
H1474 C1482 0.930 . S
H1475 C1483 0.930 . S
H1476 C1486 0.930 . S
H1477 C1487 0.930 . S
C1478 H1472 0.930 . S
C1478 C1479 1.355 . S
C1478 C1480 1.415 . S
C1479 C1478 1.355 . S
C1479 C1481 1.419 . S
C1480 C1478 1.415 . S
C1480 C1485 1.425 . S
C1480 C1487 1.409 . S
C1481 H1473 0.930 . S
C1481 C1479 1.419 . S
C1481 C1482 1.362 . S
C1482 H1474 0.930 . S
C1482 C1481 1.362 . S
C1482 C1485 1.409 . S
C1483 H1475 0.930 . S
C1483 C1484 1.355 . S
C1483 C1485 1.415 . S
C1484 C1483 1.355 . S
C1484 C1486 1.419 . S
C1485 C1480 1.425 . S
C1485 C1482 1.409 . S
C1485 C1483 1.415 . S
C1486 H1476 0.930 . S
C1486 C1484 1.419 . S
C1486 C1487 1.362 . S
C1487 H1477 0.930 . S
C1487 C1480 1.409 . S
C1487 C1486 1.362 . S
H1488 C1494 0.930 . S
H1489 C1497 0.930 . S
H1490 C1498 0.930 . S
H1491 C1499 0.930 . S
H1492 C1502 0.930 . S
H1493 C1503 0.930 . S
C1494 H1488 0.930 . S
C1494 C1495 1.355 . S
C1494 C1496 1.415 . S
C1495 C1494 1.355 . S
C1495 C1497 1.419 . S
C1496 C1494 1.415 . S
C1496 C1501 1.425 . S
C1496 C1503 1.409 . S
C1497 H1489 0.930 . S
C1497 C1495 1.419 . S
C1497 C1498 1.362 . S
C1498 H1490 0.930 . S
C1498 C1497 1.362 . S
C1498 C1501 1.409 . S
C1499 H1491 0.930 . S
C1499 C1500 1.355 . S
C1499 C1501 1.415 . S
C1500 C1499 1.355 . S
C1500 C1502 1.419 . S
C1501 C1496 1.425 . S
C1501 C1498 1.409 . S
C1501 C1499 1.415 . S
C1502 H1492 0.930 . S
C1502 C1500 1.419 . S
C1502 C1503 1.362 . S
C1503 H1493 0.930 . S
C1503 C1496 1.409 . S
C1503 C1502 1.362 . S
H1504 C1510 0.930 . S
H1505 C1513 0.930 . S
H1506 C1514 0.930 . S
H1507 C1515 0.930 . S
H1508 C1518 0.930 . S
H1509 C1519 0.930 . S
C1510 H1504 0.930 . S
C1510 C1511 1.355 . S
C1510 C1512 1.415 . S
C1511 C1510 1.355 . S
C1511 C1513 1.419 . S
C1512 C1510 1.415 . S
C1512 C1517 1.425 . S
C1512 C1519 1.409 . S
C1513 H1505 0.930 . S
C1513 C1511 1.419 . S
C1513 C1514 1.362 . S
C1514 H1506 0.930 . S
C1514 C1513 1.362 . S
C1514 C1517 1.409 . S
C1515 H1507 0.930 . S
C1515 C1516 1.355 . S
C1515 C1517 1.415 1_556 S
C1516 C1515 1.355 . S
C1516 C1518 1.419 . S
C1517 C1512 1.425 . S
C1517 C1514 1.409 . S
C1517 C1515 1.415 1_554 S
C1518 H1508 0.930 . S
C1518 C1516 1.419 . S
C1518 C1519 1.362 1_556 S
C1519 H1509 0.930 . S
C1519 C1512 1.409 . S
C1519 C1518 1.362 1_554 S
H1520 C1526 0.930 . S
H1521 C1529 0.930 . S
H1522 C1530 0.930 . S
H1523 C1531 0.930 . S
H1524 C1534 0.930 . S
H1525 C1535 0.930 . S
C1526 H1520 0.930 . S
C1526 C1527 1.355 . S
C1526 C1528 1.415 . S
C1527 C1526 1.355 . S
C1527 C1529 1.419 . S
C1528 C1526 1.415 . S
C1528 C1533 1.425 . S
C1528 C1535 1.409 . S
C1529 H1521 0.930 . S
C1529 C1527 1.419 . S
C1529 C1530 1.362 . S
C1530 H1522 0.930 . S
C1530 C1529 1.362 . S
C1530 C1533 1.409 . S
C1531 H1523 0.930 . S
C1531 C1532 1.355 . S
C1531 C1533 1.415 . S
C1532 C1531 1.355 . S
C1532 C1534 1.419 . S
C1533 C1528 1.425 . S
C1533 C1530 1.409 . S
C1533 C1531 1.415 . S
C1534 H1524 0.930 . S
C1534 C1532 1.419 . S
C1534 C1535 1.362 . S
C1535 H1525 0.930 . S
C1535 C1528 1.409 . S
C1535 C1534 1.362 . S
H1536 C1542 0.930 . S
H1537 C1545 0.930 . S
H1538 C1546 0.930 . S
H1539 C1547 0.930 . S
H1540 C1550 0.930 . S
H1541 C1551 0.930 . S
C1542 H1536 0.930 . S
C1542 C1543 1.355 . S
C1542 C1544 1.415 . S
C1543 C1542 1.355 . S
C1543 C1545 1.419 . S
C1544 C1542 1.415 . S
C1544 C1549 1.425 . S
C1544 C1551 1.409 . S
C1545 H1537 0.930 . S
C1545 C1543 1.419 . S
C1545 C1546 1.362 . S
C1546 H1538 0.930 . S
C1546 C1545 1.362 . S
C1546 C1549 1.409 . S
C1547 H1539 0.930 . S
C1547 C1548 1.355 . S
C1547 C1549 1.415 . S
C1548 C1547 1.355 . S
C1548 C1550 1.419 . S
C1549 C1544 1.425 . S
C1549 C1546 1.409 . S
C1549 C1547 1.415 . S
C1550 H1540 0.930 . S
C1550 C1548 1.419 . S
C1550 C1551 1.362 . S
C1551 H1541 0.930 . S
C1551 C1544 1.409 . S
C1551 C1550 1.362 . S
H1552 C1558 0.930 . S
H1553 C1561 0.930 . S
H1554 C1562 0.930 . S
H1555 C1563 0.930 . S
H1556 C1566 0.930 . S
H1557 C1567 0.930 . S
C1558 H1552 0.930 . S
C1558 C1559 1.355 . S
C1558 C1560 1.415 . S
C1559 C1558 1.355 . S
C1559 C1561 1.419 . S
C1560 C1558 1.415 . S
C1560 C1565 1.425 . S
C1560 C1567 1.409 . S
C1561 H1553 0.930 . S
C1561 C1559 1.419 . S
C1561 C1562 1.362 . S
C1562 H1554 0.930 . S
C1562 C1561 1.362 . S
C1562 C1565 1.409 . S
C1563 H1555 0.930 . S
C1563 C1564 1.355 . S
C1563 C1565 1.415 . S
C1564 C1563 1.355 . S
C1564 C1566 1.419 . S
C1565 C1560 1.425 . S
C1565 C1562 1.409 . S
C1565 C1563 1.415 . S
C1566 H1556 0.930 . S
C1566 C1564 1.419 . S
C1566 C1567 1.362 . S
C1567 H1557 0.930 . S
C1567 C1560 1.409 . S
C1567 C1566 1.362 . S
H1568 C1574 0.930 . S
H1569 C1577 0.930 . S
H1570 C1578 0.930 . S
H1571 C1579 0.930 . S
H1572 C1582 0.930 . S
H1573 C1583 0.930 . S
C1574 H1568 0.930 . S
C1574 C1575 1.355 . S
C1574 C1576 1.415 . S
C1575 C1574 1.355 . S
C1575 C1577 1.419 . S
C1576 C1574 1.415 . S
C1576 C1581 1.425 . S
C1576 C1583 1.409 . S
C1577 H1569 0.930 . S
C1577 C1575 1.419 . S
C1577 C1578 1.362 . S
C1578 H1570 0.930 . S
C1578 C1577 1.362 . S
C1578 C1581 1.409 . S
C1579 H1571 0.930 . S
C1579 C1580 1.355 . S
C1579 C1581 1.415 . S
C1580 C1579 1.355 . S
C1580 C1582 1.419 . S
C1581 C1576 1.425 . S
C1581 C1578 1.409 . S
C1581 C1579 1.415 . S
C1582 H1572 0.930 . S
C1582 C1580 1.419 . S
C1582 C1583 1.362 . S
C1583 H1573 0.930 . S
C1583 C1576 1.409 . S
C1583 C1582 1.362 . S
H1584 C1590 0.930 . S
H1585 C1593 0.930 . S
H1586 C1594 0.930 . S
H1587 C1595 0.930 . S
H1588 C1598 0.930 . S
H1589 C1599 0.930 . S
C1590 H1584 0.930 . S
C1590 C1591 1.355 . S
C1590 C1592 1.415 . S
C1591 C1590 1.355 . S
C1591 C1593 1.419 . S
C1592 C1590 1.415 . S
C1592 C1597 1.425 . S
C1592 C1599 1.409 . S
C1593 H1585 0.930 . S
C1593 C1591 1.419 . S
C1593 C1594 1.362 . S
C1594 H1586 0.930 . S
C1594 C1593 1.362 . S
C1594 C1597 1.409 . S
C1595 H1587 0.930 . S
C1595 C1596 1.355 . S
C1595 C1597 1.415 . S
C1596 C1595 1.355 . S
C1596 C1598 1.419 . S
C1597 C1592 1.425 . S
C1597 C1594 1.409 . S
C1597 C1595 1.415 . S
C1598 H1588 0.930 . S
C1598 C1596 1.419 . S
C1598 C1599 1.362 . S
C1599 H1589 0.930 . S
C1599 C1592 1.409 . S
C1599 C1598 1.362 . S
H1600 C1606 0.930 . S
H1601 C1609 0.930 . S
H1602 C1610 0.930 . S
H1603 C1611 0.930 . S
H1604 C1614 0.930 . S
H1605 C1615 0.930 . S
C1606 H1600 0.930 . S
C1606 C1607 1.355 . S
C1606 C1608 1.415 . S
C1607 C1606 1.355 . S
C1607 C1609 1.419 . S
C1608 C1606 1.415 . S
C1608 C1613 1.425 . S
C1608 C1615 1.409 . S
C1609 H1601 0.930 . S
C1609 C1607 1.419 . S
C1609 C1610 1.362 . S
C1610 H1602 0.930 . S
C1610 C1609 1.362 . S
C1610 C1613 1.409 . S
C1611 H1603 0.930 . S
C1611 C1612 1.355 . S
C1611 C1613 1.415 . S
C1612 C1611 1.355 . S
C1612 C1614 1.419 . S
C1613 C1608 1.425 . S
C1613 C1610 1.409 . S
C1613 C1611 1.415 . S
C1614 H1604 0.930 . S
C1614 C1612 1.419 . S
C1614 C1615 1.362 . S
C1615 H1605 0.930 . S
C1615 C1608 1.409 . S
C1615 C1614 1.362 . S
H1616 C1622 0.930 . S
H1617 C1625 0.930 . S
H1618 C1626 0.930 . S
H1619 C1627 0.930 . S
H1620 C1630 0.930 . S
H1621 C1631 0.930 . S
C1622 H1616 0.930 . S
C1622 C1623 1.355 . S
C1622 C1624 1.415 . S
C1623 C1622 1.355 . S
C1623 C1625 1.419 . S
C1624 C1622 1.415 . S
C1624 C1629 1.425 . S
C1624 C1631 1.409 . S
C1625 H1617 0.930 . S
C1625 C1623 1.419 . S
C1625 C1626 1.362 . S
C1626 H1618 0.930 . S
C1626 C1625 1.362 . S
C1626 C1629 1.409 . S
C1627 H1619 0.930 . S
C1627 C1628 1.355 . S
C1627 C1629 1.415 . S
C1628 C1627 1.355 . S
C1628 C1630 1.419 . S
C1629 C1624 1.425 . S
C1629 C1626 1.409 . S
C1629 C1627 1.415 . S
C1630 H1620 0.930 . S
C1630 C1628 1.419 . S
C1630 C1631 1.362 . S
C1631 H1621 0.930 . S
C1631 C1624 1.409 . S
C1631 C1630 1.362 . S
H1632 C1638 0.930 . S
H1633 C1641 0.930 . S
H1634 C1642 0.930 1_554 S
H1635 C1643 0.930 . S
H1636 C1646 0.930 . S
H1637 C1647 0.930 . S
C1638 H1632 0.930 . S
C1638 C1639 1.355 . S
C1638 C1640 1.415 . S
C1639 C1638 1.355 . S
C1639 C1641 1.419 . S
C1640 C1638 1.415 . S
C1640 C1645 1.425 . S
C1640 C1647 1.409 . S
C1641 H1633 0.930 . S
C1641 C1639 1.419 . S
C1641 C1642 1.362 . S
C1642 H1634 0.930 1_556 S
C1642 C1641 1.362 . S
C1642 C1645 1.409 . S
C1643 H1635 0.930 . S
C1643 C1644 1.355 . S
C1643 C1645 1.415 . S
C1644 C1643 1.355 . S
C1644 C1646 1.419 . S
C1645 C1640 1.425 . S
C1645 C1642 1.409 . S
C1645 C1643 1.415 . S
C1646 H1636 0.930 . S
C1646 C1644 1.419 . S
C1646 C1647 1.362 . S
C1647 H1637 0.930 . S
C1647 C1640 1.409 . S
C1647 C1646 1.362 . S
H1648 C1654 0.930 . S
H1649 C1657 0.930 . S
H1650 C1658 0.930 . S
H1651 C1659 0.930 . S
H1652 C1662 0.930 . S
H1653 C1663 0.930 1_556 S
C1654 H1648 0.930 . S
C1654 C1655 1.355 . S
C1654 C1656 1.415 . S
C1655 C1654 1.355 . S
C1655 C1657 1.419 . S
C1656 C1654 1.415 . S
C1656 C1661 1.425 . S
C1656 C1663 1.409 . S
C1657 H1649 0.930 . S
C1657 C1655 1.419 . S
C1657 C1658 1.362 . S
C1658 H1650 0.930 . S
C1658 C1657 1.362 . S
C1658 C1661 1.409 . S
C1659 H1651 0.930 . S
C1659 C1660 1.355 . S
C1659 C1661 1.415 . S
C1660 C1659 1.355 . S
C1660 C1662 1.419 . S
C1661 C1656 1.425 . S
C1661 C1658 1.409 . S
C1661 C1659 1.415 . S
C1662 H1652 0.930 . S
C1662 C1660 1.419 . S
C1662 C1663 1.362 . S
C1663 H1653 0.930 1_554 S
C1663 C1656 1.409 . S
C1663 C1662 1.362 . S
H1664 C1670 0.930 . S
H1665 C1673 0.930 . S
H1666 C1674 0.930 . S
H1667 C1675 0.930 . S
H1668 C1678 0.930 . S
H1669 C1679 0.930 . S
C1670 H1664 0.930 . S
C1670 C1671 1.355 . S
C1670 C1672 1.415 . S
C1671 C1670 1.355 . S
C1671 C1673 1.419 . S
C1672 C1670 1.415 . S
C1672 C1677 1.425 . S
C1672 C1679 1.409 . S
C1673 H1665 0.930 . S
C1673 C1671 1.419 . S
C1673 C1674 1.362 . S
C1674 H1666 0.930 . S
C1674 C1673 1.362 . S
C1674 C1677 1.409 . S
C1675 H1667 0.930 . S
C1675 C1676 1.355 . S
C1675 C1677 1.415 . S
C1676 C1675 1.355 . S
C1676 C1678 1.419 . S
C1677 C1672 1.425 . S
C1677 C1674 1.409 . S
C1677 C1675 1.415 . S
C1678 H1668 0.930 . S
C1678 C1676 1.419 . S
C1678 C1679 1.362 . S
C1679 H1669 0.930 . S
C1679 C1672 1.409 . S
C1679 C1678 1.362 . S
H1680 C1686 0.930 . S
H1681 C1689 0.930 . S
H1682 C1690 0.930 . S
H1683 C1691 0.930 . S
H1684 C1694 0.930 . S
H1685 C1695 0.930 . S
C1686 H1680 0.930 . S
C1686 C1687 1.355 . S
C1686 C1688 1.415 . S
C1687 C1686 1.355 . S
C1687 C1689 1.419 . S
C1688 C1686 1.415 . S
C1688 C1693 1.425 . S
C1688 C1695 1.409 . S
C1689 H1681 0.930 . S
C1689 C1687 1.419 . S
C1689 C1690 1.362 . S
C1690 H1682 0.930 . S
C1690 C1689 1.362 . S
C1690 C1693 1.409 . S
C1691 H1683 0.930 . S
C1691 C1692 1.355 . S
C1691 C1693 1.415 . S
C1692 C1691 1.355 . S
C1692 C1694 1.419 . S
C1693 C1688 1.425 . S
C1693 C1690 1.409 . S
C1693 C1691 1.415 . S
C1694 H1684 0.930 . S
C1694 C1692 1.419 . S
C1694 C1695 1.362 . S
C1695 H1685 0.930 . S
C1695 C1688 1.409 . S
C1695 C1694 1.362 . S
H1696 C1702 0.930 . S
H1697 C1705 0.930 . S
H1698 C1706 0.930 . S
H1699 C1707 0.930 . S
H1700 C1710 0.930 . S
H1701 C1711 0.930 . S
C1702 H1696 0.930 . S
C1702 C1703 1.355 . S
C1702 C1704 1.415 . S
C1703 C1702 1.355 . S
C1703 C1705 1.419 . S
C1704 C1702 1.415 . S
C1704 C1709 1.425 . S
C1704 C1711 1.409 . S
C1705 H1697 0.930 . S
C1705 C1703 1.419 . S
C1705 C1706 1.362 . S
C1706 H1698 0.930 . S
C1706 C1705 1.362 . S
C1706 C1709 1.409 . S
C1707 H1699 0.930 . S
C1707 C1708 1.355 . S
C1707 C1709 1.415 . S
C1708 C1707 1.355 . S
C1708 C1710 1.419 . S
C1709 C1704 1.425 . S
C1709 C1706 1.409 . S
C1709 C1707 1.415 . S
C1710 H1700 0.930 . S
C1710 C1708 1.419 . S
C1710 C1711 1.362 . S
C1711 H1701 0.930 . S
C1711 C1704 1.409 . S
C1711 C1710 1.362 . S
H1712 C1718 0.930 . S
H1713 C1721 0.930 . S
H1714 C1722 0.930 . S
H1715 C1723 0.930 . S
H1716 C1726 0.930 . S
H1717 C1727 0.930 . S
C1718 H1712 0.930 . S
C1718 C1719 1.355 . S
C1718 C1720 1.415 . S
C1719 C1718 1.355 . S
C1719 C1721 1.419 . S
C1720 C1718 1.415 . S
C1720 C1725 1.425 . S
C1720 C1727 1.409 . S
C1721 H1713 0.930 . S
C1721 C1719 1.419 . S
C1721 C1722 1.362 . S
C1722 H1714 0.930 . S
C1722 C1721 1.362 . S
C1722 C1725 1.409 . S
C1723 H1715 0.930 . S
C1723 C1724 1.355 . S
C1723 C1725 1.415 . S
C1724 C1723 1.355 . S
C1724 C1726 1.419 . S
C1725 C1720 1.425 . S
C1725 C1722 1.409 . S
C1725 C1723 1.415 . S
C1726 H1716 0.930 . S
C1726 C1724 1.419 . S
C1726 C1727 1.362 . S
C1727 H1717 0.930 . S
C1727 C1720 1.409 . S
C1727 C1726 1.362 . S
H1728 C1734 0.930 . S
H1729 C1737 0.930 . S
H1730 C1738 0.930 . S
H1731 C1739 0.930 . S
H1732 C1742 0.930 . S
H1733 C1743 0.930 . S
C1734 H1728 0.930 . S
C1734 C1735 1.355 . S
C1734 C1736 1.415 . S
C1735 C1734 1.355 . S
C1735 C1737 1.419 . S
C1736 C1734 1.415 . S
C1736 C1741 1.425 . S
C1736 C1743 1.409 . S
C1737 H1729 0.930 . S
C1737 C1735 1.419 . S
C1737 C1738 1.362 . S
C1738 H1730 0.930 . S
C1738 C1737 1.362 . S
C1738 C1741 1.409 . S
C1739 H1731 0.930 . S
C1739 C1740 1.355 . S
C1739 C1741 1.415 . S
C1740 C1739 1.355 . S
C1740 C1742 1.419 . S
C1741 C1736 1.425 . S
C1741 C1738 1.409 . S
C1741 C1739 1.415 . S
C1742 H1732 0.930 . S
C1742 C1740 1.419 . S
C1742 C1743 1.362 . S
C1743 H1733 0.930 . S
C1743 C1736 1.409 . S
C1743 C1742 1.362 . S
H1744 C1750 0.930 . S
H1745 C1753 0.930 . S
H1746 C1754 0.930 . S
H1747 C1755 0.930 . S
H1748 C1758 0.930 . S
H1749 C1759 0.930 . S
C1750 H1744 0.930 . S
C1750 C1751 1.355 . S
C1750 C1752 1.415 . S
C1751 C1750 1.355 . S
C1751 C1753 1.419 . S
C1752 C1750 1.415 . S
C1752 C1757 1.425 . S
C1752 C1759 1.409 . S
C1753 H1745 0.930 . S
C1753 C1751 1.419 . S
C1753 C1754 1.362 . S
C1754 H1746 0.930 . S
C1754 C1753 1.362 . S
C1754 C1757 1.409 . S
C1755 H1747 0.930 . S
C1755 C1756 1.355 . S
C1755 C1757 1.415 . S
C1756 C1755 1.355 . S
C1756 C1758 1.419 . S
C1757 C1752 1.425 . S
C1757 C1754 1.409 . S
C1757 C1755 1.415 . S
C1758 H1748 0.930 . S
C1758 C1756 1.419 . S
C1758 C1759 1.362 . S
C1759 H1749 0.930 . S
C1759 C1752 1.409 . S
C1759 C1758 1.362 . S
H1760 C1766 0.930 . S
H1761 C1769 0.930 . S
H1762 C1770 0.930 . S
H1763 C1771 0.930 . S
H1764 C1774 0.930 . S
H1765 C1775 0.930 . S
C1766 H1760 0.930 . S
C1766 C1767 1.355 . S
C1766 C1768 1.415 . S
C1767 C1766 1.355 . S
C1767 C1769 1.419 . S
C1768 C1766 1.415 . S
C1768 C1773 1.425 . S
C1768 C1775 1.409 . S
C1769 H1761 0.930 . S
C1769 C1767 1.419 . S
C1769 C1770 1.362 . S
C1770 H1762 0.930 . S
C1770 C1769 1.362 . S
C1770 C1773 1.409 . S
C1771 H1763 0.930 . S
C1771 C1772 1.355 . S
C1771 C1773 1.415 . S
C1772 C1771 1.355 . S
C1772 C1774 1.419 . S
C1773 C1768 1.425 . S
C1773 C1770 1.409 . S
C1773 C1771 1.415 . S
C1774 H1764 0.930 . S
C1774 C1772 1.419 . S
C1774 C1775 1.362 . S
C1775 H1765 0.930 . S
C1775 C1768 1.409 . S
C1775 C1774 1.362 . S
H1776 C1782 0.930 . S
H1777 C1785 0.930 . S
H1778 C1786 0.930 1_554 S
H1779 C1787 0.930 . S
H1780 C1790 0.930 . S
H1781 C1791 0.930 . S
C1782 H1776 0.930 . S
C1782 C1783 1.355 . S
C1782 C1784 1.415 . S
C1783 C1782 1.355 . S
C1783 C1785 1.419 . S
C1784 C1782 1.415 . S
C1784 C1789 1.425 . S
C1784 C1791 1.409 . S
C1785 H1777 0.930 . S
C1785 C1783 1.419 . S
C1785 C1786 1.362 . S
C1786 H1778 0.930 1_556 S
C1786 C1785 1.362 . S
C1786 C1789 1.409 . S
C1787 H1779 0.930 . S
C1787 C1788 1.355 . S
C1787 C1789 1.415 . S
C1788 C1787 1.355 . S
C1788 C1790 1.419 . S
C1789 C1784 1.425 . S
C1789 C1786 1.409 . S
C1789 C1787 1.415 . S
C1790 H1780 0.930 . S
C1790 C1788 1.419 . S
C1790 C1791 1.362 . S
C1791 H1781 0.930 . S
C1791 C1784 1.409 . S
C1791 C1790 1.362 . S
H1792 C1798 0.930 . S
H1793 C1801 0.930 . S
H1794 C1802 0.930 . S
H1795 C1803 0.930 . S
H1796 C1806 0.930 . S
H1797 C1807 0.930 . S
C1798 H1792 0.930 . S
C1798 C1799 1.355 . S
C1798 C1800 1.415 . S
C1799 C1798 1.355 . S
C1799 C1801 1.419 . S
C1800 C1798 1.415 . S
C1800 C1805 1.425 . S
C1800 C1807 1.409 . S
C1801 H1793 0.930 . S
C1801 C1799 1.419 . S
C1801 C1802 1.362 . S
C1802 H1794 0.930 . S
C1802 C1801 1.362 . S
C1802 C1805 1.409 . S
C1803 H1795 0.930 . S
C1803 C1804 1.355 . S
C1803 C1805 1.415 . S
C1804 C1803 1.355 . S
C1804 C1806 1.419 . S
C1805 C1800 1.425 . S
C1805 C1802 1.409 . S
C1805 C1803 1.415 . S
C1806 H1796 0.930 . S
C1806 C1804 1.419 . S
C1806 C1807 1.362 . S
C1807 H1797 0.930 . S
C1807 C1800 1.409 . S
C1807 C1806 1.362 . S
H1808 C1814 0.930 . S
H1809 C1817 0.930 . S
H1810 C1818 0.930 . S
H1811 C1819 0.930 . S
H1812 C1822 0.930 . S
H1813 C1823 0.930 . S
C1814 H1808 0.930 . S
C1814 C1815 1.355 . S
C1814 C1816 1.415 . S
C1815 C1814 1.355 . S
C1815 C1817 1.419 . S
C1816 C1814 1.415 . S
C1816 C1821 1.425 . S
C1816 C1823 1.409 . S
C1817 H1809 0.930 . S
C1817 C1815 1.419 . S
C1817 C1818 1.362 . S
C1818 H1810 0.930 . S
C1818 C1817 1.362 . S
C1818 C1821 1.409 . S
C1819 H1811 0.930 . S
C1819 C1820 1.355 . S
C1819 C1821 1.415 . S
C1820 C1819 1.355 . S
C1820 C1822 1.419 . S
C1821 C1816 1.425 . S
C1821 C1818 1.409 . S
C1821 C1819 1.415 . S
C1822 H1812 0.930 . S
C1822 C1820 1.419 . S
C1822 C1823 1.362 . S
C1823 H1813 0.930 . S
C1823 C1816 1.409 . S
C1823 C1822 1.362 . S
H1824 C1830 0.930 . S
H1825 C1833 0.930 . S
H1826 C1834 0.930 . S
H1827 C1835 0.930 . S
H1828 C1838 0.930 . S
H1829 C1839 0.930 . S
C1830 H1824 0.930 . S
C1830 C1831 1.355 . S
C1830 C1832 1.415 . S
C1831 C1830 1.355 . S
C1831 C1833 1.419 1_556 S
C1832 C1830 1.415 . S
C1832 C1837 1.425 1_556 S
C1832 C1839 1.409 . S
C1833 H1825 0.930 . S
C1833 C1831 1.419 1_554 S
C1833 C1834 1.362 . S
C1834 H1826 0.930 . S
C1834 C1833 1.362 . S
C1834 C1837 1.409 . S
C1835 H1827 0.930 . S
C1835 C1836 1.355 . S
C1835 C1837 1.415 . S
C1836 C1835 1.355 . S
C1836 C1838 1.419 1_554 S
C1837 C1832 1.425 1_554 S
C1837 C1834 1.409 . S
C1837 C1835 1.415 . S
C1838 H1828 0.930 . S
C1838 C1836 1.419 1_556 S
C1838 C1839 1.362 . S
C1839 H1829 0.930 . S
C1839 C1832 1.409 . S
C1839 C1838 1.362 . S
H1840 C1846 0.930 . S
H1841 C1849 0.930 . S
H1842 C1850 0.930 . S
H1843 C1851 0.930 . S
H1844 C1854 0.930 . S
H1845 C1855 0.930 . S
C1846 H1840 0.930 . S
C1846 C1847 1.355 . S
C1846 C1848 1.415 . S
C1847 C1846 1.355 . S
C1847 C1849 1.419 . S
C1848 C1846 1.415 . S
C1848 C1853 1.425 . S
C1848 C1855 1.409 . S
C1849 H1841 0.930 . S
C1849 C1847 1.419 . S
C1849 C1850 1.362 . S
C1850 H1842 0.930 . S
C1850 C1849 1.362 . S
C1850 C1853 1.409 . S
C1851 H1843 0.930 . S
C1851 C1852 1.355 . S
C1851 C1853 1.415 . S
C1852 C1851 1.355 . S
C1852 C1854 1.419 . S
C1853 C1848 1.425 . S
C1853 C1850 1.409 . S
C1853 C1851 1.415 . S
C1854 H1844 0.930 . S
C1854 C1852 1.419 . S
C1854 C1855 1.362 . S
C1855 H1845 0.930 . S
C1855 C1848 1.409 . S
C1855 C1854 1.362 . S
H1856 C1862 0.930 . S
H1857 C1865 0.930 . S
H1858 C1866 0.930 . S
H1859 C1867 0.930 . S
H1860 C1870 0.930 . S
H1861 C1871 0.930 . S
C1862 H1856 0.930 . S
C1862 C1863 1.355 . S
C1862 C1864 1.415 . S
C1863 C1862 1.355 . S
C1863 C1865 1.419 . S
C1864 C1862 1.415 . S
C1864 C1869 1.425 . S
C1864 C1871 1.409 . S
C1865 H1857 0.930 . S
C1865 C1863 1.419 . S
C1865 C1866 1.362 . S
C1866 H1858 0.930 . S
C1866 C1865 1.362 . S
C1866 C1869 1.409 . S
C1867 H1859 0.930 . S
C1867 C1868 1.355 . S
C1867 C1869 1.415 . S
C1868 C1867 1.355 . S
C1868 C1870 1.419 . S
C1869 C1864 1.425 . S
C1869 C1866 1.409 . S
C1869 C1867 1.415 . S
C1870 H1860 0.930 . S
C1870 C1868 1.419 . S
C1870 C1871 1.362 . S
C1871 H1861 0.930 . S
C1871 C1864 1.409 . S
C1871 C1870 1.362 . S
H1872 C1878 0.930 . S
H1873 C1881 0.930 . S
H1874 C1882 0.930 . S
H1875 C1883 0.930 . S
H1876 C1886 0.930 . S
H1877 C1887 0.930 . S
C1878 H1872 0.930 . S
C1878 C1879 1.355 . S
C1878 C1880 1.415 . S
C1879 C1878 1.355 . S
C1879 C1881 1.419 . S
C1880 C1878 1.415 . S
C1880 C1885 1.425 . S
C1880 C1887 1.409 . S
C1881 H1873 0.930 . S
C1881 C1879 1.419 . S
C1881 C1882 1.362 . S
C1882 H1874 0.930 . S
C1882 C1881 1.362 . S
C1882 C1885 1.409 . S
C1883 H1875 0.930 . S
C1883 C1884 1.355 . S
C1883 C1885 1.415 . S
C1884 C1883 1.355 . S
C1884 C1886 1.419 . S
C1885 C1880 1.425 . S
C1885 C1882 1.409 . S
C1885 C1883 1.415 . S
C1886 H1876 0.930 . S
C1886 C1884 1.419 . S
C1886 C1887 1.362 . S
C1887 H1877 0.930 . S
C1887 C1880 1.409 . S
C1887 C1886 1.362 . S
H1888 C1894 0.930 . S
H1889 C1897 0.930 . S
H1890 C1898 0.930 . S
H1891 C1899 0.930 . S
H1892 C1902 0.930 . S
H1893 C1903 0.930 . S
C1894 H1888 0.930 . S
C1894 C1895 1.355 1_554 S
C1894 C1896 1.415 . S
C1895 C1894 1.355 1_556 S
C1895 C1897 1.419 . S
C1896 C1894 1.415 . S
C1896 C1901 1.425 1_554 S
C1896 C1903 1.409 . S
C1897 H1889 0.930 . S
C1897 C1895 1.419 . S
C1897 C1898 1.362 . S
C1898 H1890 0.930 . S
C1898 C1897 1.362 . S
C1898 C1901 1.409 . S
C1899 H1891 0.930 . S
C1899 C1900 1.355 1_556 S
C1899 C1901 1.415 . S
C1900 C1899 1.355 1_554 S
C1900 C1902 1.419 . S
C1901 C1896 1.425 1_556 S
C1901 C1898 1.409 . S
C1901 C1899 1.415 . S
C1902 H1892 0.930 . S
C1902 C1900 1.419 . S
C1902 C1903 1.362 . S
C1903 H1893 0.930 . S
C1903 C1896 1.409 . S
C1903 C1902 1.362 . S
H1904 C1910 0.930 . S
H1905 C1913 0.930 . S
H1906 C1914 0.930 . S
H1907 C1915 0.930 . S
H1908 C1918 0.930 . S
H1909 C1919 0.930 . S
C1910 H1904 0.930 . S
C1910 C1911 1.355 . S
C1910 C1912 1.415 . S
C1911 C1910 1.355 . S
C1911 C1913 1.419 . S
C1912 C1910 1.415 . S
C1912 C1917 1.425 . S
C1912 C1919 1.409 . S
C1913 H1905 0.930 . S
C1913 C1911 1.419 . S
C1913 C1914 1.362 . S
C1914 H1906 0.930 . S
C1914 C1913 1.362 . S
C1914 C1917 1.409 . S
C1915 H1907 0.930 . S
C1915 C1916 1.355 . S
C1915 C1917 1.415 . S
C1916 C1915 1.355 . S
C1916 C1918 1.419 . S
C1917 C1912 1.425 . S
C1917 C1914 1.409 . S
C1917 C1915 1.415 . S
C1918 H1908 0.930 . S
C1918 C1916 1.419 . S
C1918 C1919 1.362 . S
C1919 H1909 0.930 . S
C1919 C1912 1.409 . S
C1919 C1918 1.362 . S
H1920 C1926 0.930 . S
H1921 C1929 0.930 . S
H1922 C1930 0.930 . S
H1923 C1931 0.930 . S
H1924 C1934 0.930 . S
H1925 C1935 0.930 . S
C1926 H1920 0.930 . S
C1926 C1927 1.355 . S
C1926 C1928 1.415 . S
C1927 C1926 1.355 . S
C1927 C1929 1.419 . S
C1928 C1926 1.415 . S
C1928 C1933 1.425 . S
C1928 C1935 1.409 . S
C1929 H1921 0.930 . S
C1929 C1927 1.419 . S
C1929 C1930 1.362 . S
C1930 H1922 0.930 . S
C1930 C1929 1.362 . S
C1930 C1933 1.409 . S
C1931 H1923 0.930 . S
C1931 C1932 1.355 . S
C1931 C1933 1.415 . S
C1932 C1931 1.355 . S
C1932 C1934 1.419 . S
C1933 C1928 1.425 . S
C1933 C1930 1.409 . S
C1933 C1931 1.415 . S
C1934 H1924 0.930 . S
C1934 C1932 1.419 . S
C1934 C1935 1.362 . S
C1935 H1925 0.930 . S
C1935 C1928 1.409 . S
C1935 C1934 1.362 . S
H1936 C1942 0.930 . S
H1937 C1945 0.930 . S
H1938 C1946 0.930 . S
H1939 C1947 0.930 . S
H1940 C1950 0.930 . S
H1941 C1951 0.930 . S
C1942 H1936 0.930 . S
C1942 C1943 1.355 . S
C1942 C1944 1.415 . S
C1943 C1942 1.355 . S
C1943 C1945 1.419 . S
C1944 C1942 1.415 . S
C1944 C1949 1.425 . S
C1944 C1951 1.409 . S
C1945 H1937 0.930 . S
C1945 C1943 1.419 . S
C1945 C1946 1.362 . S
C1946 H1938 0.930 . S
C1946 C1945 1.362 . S
C1946 C1949 1.409 . S
C1947 H1939 0.930 . S
C1947 C1948 1.355 . S
C1947 C1949 1.415 . S
C1948 C1947 1.355 . S
C1948 C1950 1.419 . S
C1949 C1944 1.425 . S
C1949 C1946 1.409 . S
C1949 C1947 1.415 . S
C1950 H1940 0.930 . S
C1950 C1948 1.419 . S
C1950 C1951 1.362 . S
C1951 H1941 0.930 . S
C1951 C1944 1.409 . S
C1951 C1950 1.362 . S
H1952 C1958 0.930 . S
H1953 C1961 0.930 . S
H1954 C1962 0.930 . S
H1955 C1963 0.930 . S
H1956 C1966 0.930 . S
H1957 C1967 0.930 . S
C1958 H1952 0.930 . S
C1958 C1959 1.355 . S
C1958 C1960 1.415 . S
C1959 C1958 1.355 . S
C1959 C1961 1.419 . S
C1960 C1958 1.415 . S
C1960 C1965 1.425 1_565 S
C1960 C1967 1.409 1_565 S
C1961 H1953 0.930 . S
C1961 C1959 1.419 . S
C1961 C1962 1.362 . S
C1962 H1954 0.930 . S
C1962 C1961 1.362 . S
C1962 C1965 1.409 1_565 S
C1963 H1955 0.930 . S
C1963 C1964 1.355 . S
C1963 C1965 1.415 . S
C1964 C1963 1.355 . S
C1964 C1966 1.419 . S
C1965 C1960 1.425 1_545 S
C1965 C1962 1.409 1_545 S
C1965 C1963 1.415 . S
C1966 H1956 0.930 . S
C1966 C1964 1.419 . S
C1966 C1967 1.362 . S
C1967 H1957 0.930 . S
C1967 C1960 1.409 1_545 S
C1967 C1966 1.362 . S
H1968 C1974 0.930 . S
H1969 C1977 0.930 . S
H1970 C1978 0.930 . S
H1971 C1979 0.930 . S
H1972 C1982 0.930 . S
H1973 C1983 0.930 . S
C1974 H1968 0.930 . S
C1974 C1975 1.355 . S
C1974 C1976 1.415 . S
C1975 C1974 1.355 . S
C1975 C1977 1.419 . S
C1976 C1974 1.415 . S
C1976 C1981 1.425 . S
C1976 C1983 1.409 . S
C1977 H1969 0.930 . S
C1977 C1975 1.419 . S
C1977 C1978 1.362 . S
C1978 H1970 0.930 . S
C1978 C1977 1.362 . S
C1978 C1981 1.409 . S
C1979 H1971 0.930 . S
C1979 C1980 1.355 . S
C1979 C1981 1.415 . S
C1980 C1979 1.355 . S
C1980 C1982 1.419 . S
C1981 C1976 1.425 . S
C1981 C1978 1.409 . S
C1981 C1979 1.415 . S
C1982 H1972 0.930 . S
C1982 C1980 1.419 . S
C1982 C1983 1.362 . S
C1983 H1973 0.930 . S
C1983 C1976 1.409 . S
C1983 C1982 1.362 . S
H1984 C1990 0.930 . S
H1985 C1993 0.930 . S
H1986 C1994 0.950 . S
H1987 C1995 0.930 . S
H1988 C1998 0.930 . S
H1989 C1999 0.950 . S
C1990 H1984 0.930 . S
C1990 C1991 1.355 1_556 S
C1990 C1992 1.415 . S
C1991 C1990 1.355 1_554 S
C1991 C1993 1.419 . S
C1992 C1990 1.415 . S
C1992 C1997 1.425 1_566 S
C1992 C1999 1.409 1_565 S
C1993 H1985 0.930 . S
C1993 C1991 1.419 . S
C1993 C1994 1.362 . S
C1994 H1986 0.950 . S
C1994 C1993 1.362 . S
C1994 C1997 1.409 1_565 S
C1995 H1987 0.930 . S
C1995 C1996 1.355 1_554 S
C1995 C1997 1.415 . S
C1996 C1995 1.355 1_556 S
C1996 C1998 1.419 . S
C1997 C1992 1.425 1_544 S
C1997 C1994 1.409 1_545 S
C1997 C1995 1.415 . S
C1998 H1988 0.930 . S
C1998 C1996 1.419 . S
C1998 C1999 1.362 . S
C1999 H1989 0.950 . S
C1999 C1992 1.409 1_545 S
C1999 C1998 1.362 . S
H2000 C2006 0.930 . S
H2001 C2009 0.930 . S
H2002 C2010 0.930 . S
H2003 C2011 0.930 . S
H2004 C2014 0.930 . S
H2005 C2015 0.930 . S
C2006 H2000 0.930 . S
C2006 C2007 1.355 . S
C2006 C2008 1.415 . S
C2007 C2006 1.355 . S
C2007 C2009 1.419 . S
C2008 C2006 1.415 . S
C2008 C2013 1.425 . S
C2008 C2015 1.409 . S
C2009 H2001 0.930 . S
C2009 C2007 1.419 . S
C2009 C2010 1.362 . S
C2010 H2002 0.930 . S
C2010 C2009 1.362 . S
C2010 C2013 1.409 . S
C2011 H2003 0.930 . S
C2011 C2012 1.355 . S
C2011 C2013 1.415 . S
C2012 C2011 1.355 . S
C2012 C2014 1.419 . S
C2013 C2008 1.425 . S
C2013 C2010 1.409 . S
C2013 C2011 1.415 . S
C2014 H2004 0.930 . S
C2014 C2012 1.419 . S
C2014 C2015 1.362 . S
C2015 H2005 0.930 . S
C2015 C2008 1.409 . S
C2015 C2014 1.362 . S
H2016 C2022 0.930 . S
H2017 C2025 0.930 . S
H2018 C2026 0.930 . S
H2019 C2027 0.930 . S
H2020 C2030 0.930 . S
H2021 C2031 0.930 . S
C2022 H2016 0.930 . S
C2022 C2023 1.355 . S
C2022 C2024 1.415 . S
C2023 C2022 1.355 . S
C2023 C2025 1.419 . S
C2024 C2022 1.415 . S
C2024 C2029 1.425 1_545 S
C2024 C2031 1.409 1_545 S
C2025 H2017 0.930 . S
C2025 C2023 1.419 . S
C2025 C2026 1.362 . S
C2026 H2018 0.930 . S
C2026 C2025 1.362 . S
C2026 C2029 1.409 1_545 S
C2027 H2019 0.930 . S
C2027 C2028 1.355 . S
C2027 C2029 1.415 . S
C2028 C2027 1.355 . S
C2028 C2030 1.419 . S
C2029 C2024 1.425 1_565 S
C2029 C2026 1.409 1_565 S
C2029 C2027 1.415 . S
C2030 H2020 0.930 . S
C2030 C2028 1.419 . S
C2030 C2031 1.362 . S
C2031 H2021 0.930 . S
C2031 C2024 1.409 1_565 S
C2031 C2030 1.362 . S
H2032 C2038 0.930 . S
H2033 C2041 0.930 . S
H2034 C2042 0.930 . S
H2035 C2043 0.930 . S
H2036 C2046 0.930 . S
H2037 C2047 0.930 . S
C2038 H2032 0.930 . S
C2038 C2039 1.355 . S
C2038 C2040 1.415 . S
C2039 C2038 1.355 . S
C2039 C2041 1.419 . S
C2040 C2038 1.415 . S
C2040 C2045 1.425 . S
C2040 C2047 1.409 . S
C2041 H2033 0.930 . S
C2041 C2039 1.419 . S
C2041 C2042 1.362 . S
C2042 H2034 0.930 . S
C2042 C2041 1.362 . S
C2042 C2045 1.409 . S
C2043 H2035 0.930 . S
C2043 C2044 1.355 . S
C2043 C2045 1.415 . S
C2044 C2043 1.355 . S
C2044 C2046 1.419 . S
C2045 C2040 1.425 . S
C2045 C2042 1.409 . S
C2045 C2043 1.415 . S
C2046 H2036 0.930 . S
C2046 C2044 1.419 . S
C2046 C2047 1.362 . S
C2047 H2037 0.930 . S
C2047 C2040 1.409 . S
C2047 C2046 1.362 . S
H2048 C2054 0.930 . S
H2049 C2057 0.930 . S
H2050 C2058 0.930 . S
H2051 C2059 0.930 . S
H2052 C2062 0.930 . S
H2053 C2063 0.930 . S
C2054 H2048 0.930 . S
C2054 C2055 1.355 1_556 S
C2054 C2056 1.415 . S
C2055 C2054 1.355 1_554 S
C2055 C2057 1.419 . S
C2056 C2054 1.415 . S
C2056 C2061 1.425 1_566 S
C2056 C2063 1.409 1_565 S
C2057 H2049 0.930 . S
C2057 C2055 1.419 . S
C2057 C2058 1.362 . S
C2058 H2050 0.930 . S
C2058 C2057 1.362 . S
C2058 C2061 1.409 1_565 S
C2059 H2051 0.930 . S
C2059 C2060 1.355 1_554 S
C2059 C2061 1.415 . S
C2060 C2059 1.355 1_556 S
C2060 C2062 1.419 . S
C2061 C2056 1.425 1_544 S
C2061 C2058 1.409 1_545 S
C2061 C2059 1.415 . S
C2062 H2052 0.930 . S
C2062 C2060 1.419 . S
C2062 C2063 1.362 . S
C2063 H2053 0.930 . S
C2063 C2056 1.409 1_545 S
C2063 C2062 1.362 . S
H2064 C2070 0.930 . S
H2065 C2073 0.930 . S
H2066 C2074 0.930 . S
H2067 C2075 0.930 . S
H2068 C2078 0.930 . S
H2069 C2079 0.930 . S
C2070 H2064 0.930 . S
C2070 C2071 1.355 . S
C2070 C2072 1.415 . S
C2071 C2070 1.355 . S
C2071 C2073 1.419 . S
C2072 C2070 1.415 . S
C2072 C2077 1.425 . S
C2072 C2079 1.409 . S
C2073 H2065 0.930 . S
C2073 C2071 1.419 . S
C2073 C2074 1.362 . S
C2074 H2066 0.930 . S
C2074 C2073 1.362 . S
C2074 C2077 1.409 . S
C2075 H2067 0.930 . S
C2075 C2076 1.355 . S
C2075 C2077 1.415 . S
C2076 C2075 1.355 . S
C2076 C2078 1.419 . S
C2077 C2072 1.425 . S
C2077 C2074 1.409 . S
C2077 C2075 1.415 . S
C2078 H2068 0.930 . S
C2078 C2076 1.419 . S
C2078 C2079 1.362 . S
C2079 H2069 0.930 . S
C2079 C2072 1.409 . S
C2079 C2078 1.362 . S
H2080 C2086 0.930 . S
H2081 C2089 0.930 . S
H2082 C2090 0.930 . S
H2083 C2091 0.930 . S
H2084 C2094 0.930 . S
H2085 C2095 0.930 . S
C2086 H2080 0.930 . S
C2086 C2087 1.355 . S
C2086 C2088 1.415 . S
C2087 C2086 1.355 . S
C2087 C2089 1.419 . S
C2088 C2086 1.415 . S
C2088 C2093 1.425 1_455 S
C2088 C2095 1.409 1_455 S
C2089 H2081 0.930 . S
C2089 C2087 1.419 . S
C2089 C2090 1.362 . S
C2090 H2082 0.930 . S
C2090 C2089 1.362 . S
C2090 C2093 1.409 1_455 S
C2091 H2083 0.930 . S
C2091 C2092 1.355 . S
C2091 C2093 1.415 . S
C2092 C2091 1.355 . S
C2092 C2094 1.419 . S
C2093 C2088 1.425 1_655 S
C2093 C2090 1.409 1_655 S
C2093 C2091 1.415 . S
C2094 H2084 0.930 . S
C2094 C2092 1.419 . S
C2094 C2095 1.362 . S
C2095 H2085 0.930 . S
C2095 C2088 1.409 1_655 S
C2095 C2094 1.362 . S
H2096 C2102 0.930 . S
H2097 C2105 0.930 . S
H2098 C2106 0.930 . S
H2099 C2107 0.930 . S
H2100 C2110 0.930 . S
H2101 C2111 0.930 . S
C2102 H2096 0.930 . S
C2102 C2103 1.355 . S
C2102 C2104 1.415 . S
C2103 C2102 1.355 . S
C2103 C2105 1.419 . S
C2104 C2102 1.415 . S
C2104 C2109 1.425 . S
C2104 C2111 1.409 . S
C2105 H2097 0.930 . S
C2105 C2103 1.419 . S
C2105 C2106 1.362 . S
C2106 H2098 0.930 . S
C2106 C2105 1.362 . S
C2106 C2109 1.409 . S
C2107 H2099 0.930 . S
C2107 C2108 1.355 . S
C2107 C2109 1.415 . S
C2108 C2107 1.355 . S
C2108 C2110 1.419 . S
C2109 C2104 1.425 . S
C2109 C2106 1.409 . S
C2109 C2107 1.415 . S
C2110 H2100 0.930 . S
C2110 C2108 1.419 . S
C2110 C2111 1.362 . S
C2111 H2101 0.930 . S
C2111 C2104 1.409 . S
C2111 C2110 1.362 . S
H2112 C2118 0.930 . S
H2113 C2121 0.930 . S
H2114 C2122 0.930 . S
H2115 C2123 0.930 . S
H2116 C2126 0.930 . S
H2117 C2127 0.930 . S
C2118 H2112 0.930 . S
C2118 C2119 1.355 . S
C2118 C2120 1.415 . S
C2119 C2118 1.355 . S
C2119 C2121 1.419 . S
C2120 C2118 1.415 . S
C2120 C2125 1.425 . S
C2120 C2127 1.409 . S
C2121 H2113 0.930 . S
C2121 C2119 1.419 . S
C2121 C2122 1.362 . S
C2122 H2114 0.930 . S
C2122 C2121 1.362 . S
C2122 C2125 1.409 . S
C2123 H2115 0.930 . S
C2123 C2124 1.355 . S
C2123 C2125 1.415 . S
C2124 C2123 1.355 . S
C2124 C2126 1.419 . S
C2125 C2120 1.425 . S
C2125 C2122 1.409 . S
C2125 C2123 1.415 . S
C2126 H2116 0.930 . S
C2126 C2124 1.419 . S
C2126 C2127 1.362 . S
C2127 H2117 0.930 . S
C2127 C2120 1.409 . S
C2127 C2126 1.362 . S
H2128 C2134 0.930 . S
H2129 C2137 0.930 . S
H2130 C2138 0.930 . S
H2131 C2139 0.930 . S
H2132 C2142 0.930 . S
H2133 C2143 0.930 . S
C2134 H2128 0.930 . S
C2134 C2135 1.355 . S
C2134 C2136 1.415 . S
C2135 C2134 1.355 . S
C2135 C2137 1.419 . S
C2136 C2134 1.415 . S
C2136 C2141 1.425 . S
C2136 C2143 1.409 . S
C2137 H2129 0.930 . S
C2137 C2135 1.419 . S
C2137 C2138 1.362 . S
C2138 H2130 0.930 . S
C2138 C2137 1.362 . S
C2138 C2141 1.409 . S
C2139 H2131 0.930 . S
C2139 C2140 1.355 . S
C2139 C2141 1.415 . S
C2140 C2139 1.355 . S
C2140 C2142 1.419 . S
C2141 C2136 1.425 . S
C2141 C2138 1.409 . S
C2141 C2139 1.415 . S
C2142 H2132 0.930 . S
C2142 C2140 1.419 . S
C2142 C2143 1.362 . S
C2143 H2133 0.930 . S
C2143 C2136 1.409 . S
C2143 C2142 1.362 . S
H2144 C2150 0.930 . S
H2145 C2153 0.930 . S
H2146 C2154 0.935 . S
H2147 C2155 0.930 . S
H2148 C2158 0.930 . S
H2149 C2159 0.930 . S
C2150 H2144 0.930 . S
C2150 C2151 1.355 . S
C2150 C2152 1.415 . S
C2151 C2150 1.355 . S
C2151 C2153 1.419 . S
C2152 C2150 1.415 . S
C2152 C2157 1.425 1_655 S
C2152 C2159 1.409 1_655 S
C2153 H2145 0.930 . S
C2153 C2151 1.419 . S
C2153 C2154 1.362 . S
C2154 H2146 0.935 . S
C2154 C2153 1.362 . S
C2154 C2157 1.409 1_655 S
C2155 H2147 0.930 . S
C2155 C2156 1.355 . S
C2155 C2157 1.415 . S
C2156 C2155 1.355 . S
C2156 C2158 1.419 . S
C2157 C2152 1.425 1_455 S
C2157 C2154 1.409 1_455 S
C2157 C2155 1.415 . S
C2158 H2148 0.930 . S
C2158 C2156 1.419 . S
C2158 C2159 1.362 . S
C2159 H2149 0.930 . S
C2159 C2152 1.409 1_455 S
C2159 C2158 1.362 . S
H2160 C2166 0.930 . S
H2161 C2169 0.930 . S
H2162 C2170 0.930 . S
H2163 C2171 0.930 . S
H2164 C2174 0.930 . S
H2165 C2175 0.930 . S
C2166 H2160 0.930 . S
C2166 C2167 1.355 . S
C2166 C2168 1.415 . S
C2167 C2166 1.355 . S
C2167 C2169 1.419 . S
C2168 C2166 1.415 . S
C2168 C2173 1.425 . S
C2168 C2175 1.409 . S
C2169 H2161 0.930 . S
C2169 C2167 1.419 . S
C2169 C2170 1.362 . S
C2170 H2162 0.930 . S
C2170 C2169 1.362 . S
C2170 C2173 1.409 . S
C2171 H2163 0.930 . S
C2171 C2172 1.355 . S
C2171 C2173 1.415 . S
C2172 C2171 1.355 . S
C2172 C2174 1.419 . S
C2173 C2168 1.425 . S
C2173 C2170 1.409 . S
C2173 C2171 1.415 . S
C2174 H2164 0.930 . S
C2174 C2172 1.419 . S
C2174 C2175 1.362 . S
C2175 H2165 0.930 . S
C2175 C2168 1.409 . S
C2175 C2174 1.362 . S
H2176 C2182 0.930 . S
H2177 C2185 0.930 . S
H2178 C2186 0.930 . S
H2179 C2187 0.930 . S
H2180 C2190 0.930 . S
H2181 C2191 0.930 . S
C2182 H2176 0.930 . S
C2182 C2183 1.355 . S
C2182 C2184 1.415 . S
C2183 C2182 1.355 . S
C2183 C2185 1.419 . S
C2184 C2182 1.415 . S
C2184 C2189 1.425 . S
C2184 C2191 1.409 . S
C2185 H2177 0.930 . S
C2185 C2183 1.419 . S
C2185 C2186 1.362 . S
C2186 H2178 0.930 . S
C2186 C2185 1.362 . S
C2186 C2189 1.409 . S
C2187 H2179 0.930 . S
C2187 C2188 1.355 . S
C2187 C2189 1.415 . S
C2188 C2187 1.355 . S
C2188 C2190 1.419 . S
C2189 C2184 1.425 . S
C2189 C2186 1.409 . S
C2189 C2187 1.415 . S
C2190 H2180 0.930 . S
C2190 C2188 1.419 . S
C2190 C2191 1.362 . S
C2191 H2181 0.930 . S
C2191 C2184 1.409 . S
C2191 C2190 1.362 . S
H2192 C2198 0.930 . S
H2193 C2201 0.930 . S
H2194 C2202 0.930 . S
H2195 C2203 0.930 . S
H2196 C2206 0.930 . S
H2197 C2207 0.930 . S
C2198 H2192 0.930 . S
C2198 C2199 1.355 . S
C2198 C2200 1.415 . S
C2199 C2198 1.355 . S
C2199 C2201 1.419 . S
C2200 C2198 1.415 . S
C2200 C2205 1.425 . S
C2200 C2207 1.409 . S
C2201 H2193 0.930 . S
C2201 C2199 1.419 . S
C2201 C2202 1.362 . S
C2202 H2194 0.930 . S
C2202 C2201 1.362 . S
C2202 C2205 1.409 . S
C2203 H2195 0.930 . S
C2203 C2204 1.355 . S
C2203 C2205 1.415 . S
C2204 C2203 1.355 . S
C2204 C2206 1.419 . S
C2205 C2200 1.425 . S
C2205 C2202 1.409 . S
C2205 C2203 1.415 . S
C2206 H2196 0.930 . S
C2206 C2204 1.419 . S
C2206 C2207 1.362 . S
C2207 H2197 0.930 . S
C2207 C2200 1.409 . S
C2207 C2206 1.362 . S
H2208 C2214 0.930 . S
H2209 C2217 0.930 . S
H2210 C2218 0.930 . S
H2211 C2219 0.930 . S
H2212 C2222 0.930 . S
H2213 C2223 0.930 . S
C2214 H2208 0.930 . S
C2214 C2215 1.355 . S
C2214 C2216 1.415 . S
C2215 C2214 1.355 . S
C2215 C2217 1.419 . S
C2216 C2214 1.415 . S
C2216 C2221 1.425 . S
C2216 C2223 1.409 . S
C2217 H2209 0.930 . S
C2217 C2215 1.419 . S
C2217 C2218 1.362 . S
C2218 H2210 0.930 . S
C2218 C2217 1.362 . S
C2218 C2221 1.409 . S
C2219 H2211 0.930 . S
C2219 C2220 1.355 . S
C2219 C2221 1.415 . S
C2220 C2219 1.355 . S
C2220 C2222 1.419 . S
C2221 C2216 1.425 . S
C2221 C2218 1.409 . S
C2221 C2219 1.415 . S
C2222 H2212 0.930 . S
C2222 C2220 1.419 . S
C2222 C2223 1.362 . S
C2223 H2213 0.930 . S
C2223 C2216 1.409 . S
C2223 C2222 1.362 . S
H2224 C2230 0.930 . S
H2225 C2233 0.930 . S
H2226 C2234 0.930 . S
H2227 C2235 0.930 . S
H2228 C2238 0.930 . S
H2229 C2239 0.930 . S
C2230 H2224 0.930 . S
C2230 C2231 1.355 . S
C2230 C2232 1.415 . S
C2231 C2230 1.355 . S
C2231 C2233 1.419 . S
C2232 C2230 1.415 . S
C2232 C2237 1.425 . S
C2232 C2239 1.409 . S
C2233 H2225 0.930 . S
C2233 C2231 1.419 . S
C2233 C2234 1.362 . S
C2234 H2226 0.930 . S
C2234 C2233 1.362 . S
C2234 C2237 1.409 . S
C2235 H2227 0.930 . S
C2235 C2236 1.355 . S
C2235 C2237 1.415 . S
C2236 C2235 1.355 . S
C2236 C2238 1.419 . S
C2237 C2232 1.425 . S
C2237 C2234 1.409 . S
C2237 C2235 1.415 . S
C2238 H2228 0.930 . S
C2238 C2236 1.419 . S
C2238 C2239 1.362 . S
C2239 H2229 0.930 . S
C2239 C2232 1.409 . S
C2239 C2238 1.362 . S
H2240 C2246 0.930 . S
H2241 C2249 0.930 . S
H2242 C2250 0.930 . S
H2243 C2251 0.930 . S
H2244 C2254 0.930 . S
H2245 C2255 0.930 . S
C2246 H2240 0.930 . S
C2246 C2247 1.355 . S
C2246 C2248 1.415 . S
C2247 C2246 1.355 . S
C2247 C2249 1.419 . S
C2248 C2246 1.415 . S
C2248 C2253 1.425 . S
C2248 C2255 1.409 . S
C2249 H2241 0.930 . S
C2249 C2247 1.419 . S
C2249 C2250 1.362 . S
C2250 H2242 0.930 . S
C2250 C2249 1.362 . S
C2250 C2253 1.409 . S
C2251 H2243 0.930 . S
C2251 C2252 1.355 . S
C2251 C2253 1.415 . S
C2252 C2251 1.355 . S
C2252 C2254 1.419 . S
C2253 C2248 1.425 . S
C2253 C2250 1.409 . S
C2253 C2251 1.415 . S
C2254 H2244 0.930 . S
C2254 C2252 1.419 . S
C2254 C2255 1.362 . S
C2255 H2245 0.930 . S
C2255 C2248 1.409 . S
C2255 C2254 1.362 . S
H2256 C2262 0.930 . S
H2257 C2265 0.930 . S
H2258 C2266 0.930 . S
H2259 C2267 0.930 . S
H2260 C2270 0.930 . S
H2261 C2271 0.930 . S
C2262 H2256 0.930 . S
C2262 C2263 1.355 . S
C2262 C2264 1.415 . S
C2263 C2262 1.355 . S
C2263 C2265 1.419 . S
C2264 C2262 1.415 . S
C2264 C2269 1.425 . S
C2264 C2271 1.409 . S
C2265 H2257 0.930 . S
C2265 C2263 1.419 . S
C2265 C2266 1.362 . S
C2266 H2258 0.930 . S
C2266 C2265 1.362 . S
C2266 C2269 1.409 . S
C2267 H2259 0.930 . S
C2267 C2268 1.355 . S
C2267 C2269 1.415 . S
C2268 C2267 1.355 . S
C2268 C2270 1.419 . S
C2269 C2264 1.425 . S
C2269 C2266 1.409 . S
C2269 C2267 1.415 . S
C2270 H2260 0.930 . S
C2270 C2268 1.419 . S
C2270 C2271 1.362 . S
C2271 H2261 0.930 . S
C2271 C2264 1.409 . S
C2271 C2270 1.362 . S
H2272 C2278 0.930 . S
H2273 C2281 0.930 . S
H2274 C2282 0.930 . S
H2275 C2283 0.930 . S
H2276 C2286 0.930 . S
H2277 C2287 0.930 . S
C2278 H2272 0.930 . S
C2278 C2279 1.355 . S
C2278 C2280 1.415 . S
C2279 C2278 1.355 . S
C2279 C2281 1.419 . S
C2280 C2278 1.415 . S
C2280 C2285 1.425 . S
C2280 C2287 1.409 . S
C2281 H2273 0.930 . S
C2281 C2279 1.419 . S
C2281 C2282 1.362 . S
C2282 H2274 0.930 . S
C2282 C2281 1.362 . S
C2282 C2285 1.409 . S
C2283 H2275 0.930 . S
C2283 C2284 1.355 . S
C2283 C2285 1.415 . S
C2284 C2283 1.355 . S
C2284 C2286 1.419 . S
C2285 C2280 1.425 . S
C2285 C2282 1.409 . S
C2285 C2283 1.415 . S
C2286 H2276 0.930 . S
C2286 C2284 1.419 . S
C2286 C2287 1.362 . S
C2287 H2277 0.930 . S
C2287 C2280 1.409 . S
C2287 C2286 1.362 . S
H2288 C2294 0.930 . S
H2289 C2297 0.930 . S
H2290 C2298 0.930 . S
H2291 C2299 0.930 . S
H2292 C2302 0.930 . S
H2293 C2303 0.930 . S
C2294 H2288 0.930 . S
C2294 C2295 1.355 . S
C2294 C2296 1.415 . S
C2295 C2294 1.355 . S
C2295 C2297 1.419 . S
C2296 C2294 1.415 . S
C2296 C2301 1.425 1_455 S
C2296 C2303 1.409 1_455 S
C2297 H2289 0.930 . S
C2297 C2295 1.419 . S
C2297 C2298 1.362 . S
C2298 H2290 0.930 . S
C2298 C2297 1.362 . S
C2298 C2301 1.409 1_455 S
C2299 H2291 0.930 . S
C2299 C2300 1.355 . S
C2299 C2301 1.415 . S
C2300 C2299 1.355 . S
C2300 C2302 1.419 . S
C2301 C2296 1.425 1_655 S
C2301 C2298 1.409 1_655 S
C2301 C2299 1.415 . S
C2302 H2292 0.930 . S
C2302 C2300 1.419 . S
C2302 C2303 1.362 . S
C2303 H2293 0.930 . S
C2303 C2296 1.409 1_655 S
C2303 C2302 1.362 . S
H2304 C2310 0.930 . S
H2305 C2313 0.930 . S
H2306 C2314 0.930 . S
H2307 C2315 0.930 . S
H2308 C2318 0.930 . S
H2309 C2319 0.930 . S
C2310 H2304 0.930 . S
C2310 C2311 1.355 . S
C2310 C2312 1.415 . S
C2311 C2310 1.355 . S
C2311 C2313 1.419 . S
C2312 C2310 1.415 . S
C2312 C2317 1.425 . S
C2312 C2319 1.409 . S
C2313 H2305 0.930 . S
C2313 C2311 1.419 . S
C2313 C2314 1.362 . S
C2314 H2306 0.930 . S
C2314 C2313 1.362 . S
C2314 C2317 1.409 . S
C2315 H2307 0.930 . S
C2315 C2316 1.355 . S
C2315 C2317 1.415 . S
C2316 C2315 1.355 . S
C2316 C2318 1.419 . S
C2317 C2312 1.425 . S
C2317 C2314 1.409 . S
C2317 C2315 1.415 . S
C2318 H2308 0.930 . S
C2318 C2316 1.419 . S
C2318 C2319 1.362 . S
C2319 H2309 0.930 . S
C2319 C2312 1.409 . S
C2319 C2318 1.362 . S
H2320 C2326 0.930 1_554 S
H2321 C2329 0.930 . S
H2322 C2330 0.930 . S
H2323 C2331 0.930 . S
H2324 C2334 0.930 1_554 S
H2325 C2335 0.930 . S
C2326 H2320 0.930 1_556 S
C2326 C2327 1.355 . S
C2326 C2328 1.415 . S
C2327 C2326 1.355 . S
C2327 C2329 1.419 . S
C2328 C2326 1.415 . S
C2328 C2333 1.425 1_455 S
C2328 C2335 1.409 1_456 S
C2329 H2321 0.930 . S
C2329 C2327 1.419 . S
C2329 C2330 1.362 . S
C2330 H2322 0.930 . S
C2330 C2329 1.362 . S
C2330 C2333 1.409 1_455 S
C2331 H2323 0.930 . S
C2331 C2332 1.355 . S
C2331 C2333 1.415 . S
C2332 C2331 1.355 . S
C2332 C2334 1.419 . S
C2333 C2328 1.425 1_655 S
C2333 C2330 1.409 1_655 S
C2333 C2331 1.415 . S
C2334 H2324 0.930 1_556 S
C2334 C2332 1.419 . S
C2334 C2335 1.362 1_556 S
C2335 H2325 0.930 . S
C2335 C2328 1.409 1_654 S
C2335 C2334 1.362 1_554 S
C1063 N14 1.505 . S
C1068 N5 1.507 . S
C1079 N38 1.513 . S
C1084 N47 1.509 1_556 S
C1095 N71 1.487 . S
C1100 N80 1.478 . S
C1111 N104 1.486 . S
C1116 N113 1.478 . S
C1127 N137 1.495 . S
C1132 N146 1.493 . S
C1143 N170 1.461 . S
C1148 N179 1.456 . S
C1159 N212 1.498 . S
C1164 N203 1.500 . S
C1175 N245 1.453 1_554 S
C1180 N236 1.463 . S
C1191 N278 1.488 . S
C1196 N269 1.490 . S
C1207 N311 1.507 1_554 S
C1212 N302 1.509 . S
C1223 N344 1.509 . S
C1228 N335 1.513 . S
C1239 N368 1.498 . S
C1244 N377 1.496 . S
C1255 N410 1.482 . S
C1260 N401 1.485 . S
C1271 N443 1.507 . S
C1276 N434 1.511 . S
C1287 N467 1.489 . S
C1292 N476 1.481 . S
C1303 N509 1.451 1_556 S
C1308 N500 1.457 . S
C1319 N533 1.513 . S
C1324 N542 1.509 . S
C1335 N566 1.464 . S
C1340 N575 1.454 . S
C1351 N599 1.513 . S
C1356 N608 1.509 . S
C1367 N632 1.474 . S
C1372 N641 1.470 1_556 S
C1383 N665 1.470 . S
C1388 N674 1.461 . S
C1399 N698 1.474 . S
C1404 N707 1.471 1_554 S
C1415 N731 1.467 . S
C1420 N740 1.458 . S
C1431 N773 1.509 . S
C1436 N764 1.513 . S
C1447 N797 1.504 . S
C1452 N806 1.502 . S
C1463 N830 1.509 . S
C1468 N839 1.507 . S
C1479 N863 1.481 . S
C1484 N872 1.478 . S
C1495 N905 1.458 1_554 S
C1500 N896 1.463 . S
C1511 N938 1.491 . S
C1516 N929 1.493 . S
C1527 N971 1.509 1_556 S
C1532 N962 1.512 . S
C1543 N995 1.502 . S
C1548 N1004 1.495 . S
C1559 N1037 1.507 . S
C1564 N1028 1.512 . S
C1575 C787 1.046 . S
C1580 C28 1.034 . S
C1591 C688 1.025 . S
C1596 C61 1.031 . S
C1607 C721 1.025 . S
C1612 C94 1.030 . S
C1623 C754 1.047 . S
C1628 C127 1.037 . S
C1639 C589 1.039 . S
C1644 C160 1.048 . S
C1655 C622 1.039 . S
C1660 C193 1.048 . S
C1671 C655 1.034 . S
C1676 C226 1.046 . S
C1687 C556 1.032 . S
C1692 C259 1.045 . S
C1703 C1051 1.044 . S
C1708 C292 1.031 . S
C1719 C952 1.025 . S
C1724 C325 1.035 . S
C1735 C358 1.037 . S
C1740 C985 1.026 . S
C1751 C391 1.047 . S
C1756 C1018 1.036 . S
C1767 C424 1.033 . S
C1772 C853 1.025 . S
C1783 C457 1.046 . S
C1788 C886 1.046 . S
C1799 C490 1.031 . S
C1804 C919 1.025 . S
C1815 C820 1.028 . S
C1820 C523 1.040 . S
C1831 C140 1.424 . S
C1836 C8 1.393 . S
C1847 C41 1.409 . S
C1852 C173 1.409 . S
C1863 C206 1.430 . S
C1868 C74 1.385 . S
C1879 C107 1.421 . S
C1884 C239 1.397 . S
C1895 C272 1.430 . S
C1900 C404 1.384 . S
C1911 C437 1.409 . S
C1916 C305 1.400 . S
C1927 C470 1.430 . S
C1932 C338 1.385 . S
C1943 C503 1.384 . S
C1948 C371 1.429 . S
C1959 C668 1.430 . S
C1964 C536 1.385 . S
C1975 C569 1.416 . S
C1980 C701 1.401 . S
C1991 C602 1.391 . S
C1996 C734 1.420 . S
C2007 C635 1.427 . S
C2012 C767 1.389 . S
C2023 C932 1.429 . S
C2028 C800 1.384 . S
C2039 C965 1.391 . S
C2044 C833 1.425 . S
C2055 C998 1.392 . S
C2060 C866 1.419 . S
C2071 C899 1.425 . S
C2076 C1031 1.392 . S
C2087 C17 1.499 . S
C2092 C413 1.528 . S
C2103 C974 1.504 . S
C2108 C50 1.523 . S
C2119 C83 1.520 . S
C2124 C479 1.507 . S
C2135 C1040 1.500 . S
C2140 C116 1.527 . S
C2151 C281 1.529 . S
C2156 C149 1.498 . S
C2167 C182 1.498 . S
C2172 C842 1.529 . S
C2183 C215 1.498 . S
C2188 C347 1.529 . S
C2199 C248 1.528 . S
C2204 C908 1.499 . S
C2215 C710 1.498 . S
C2220 C314 1.529 . S
C2231 C776 1.499 . S
C2236 C380 1.528 . S
C2247 C578 1.500 . S
C2252 C446 1.527 . S
C2263 C644 1.528 . S
C2268 C512 1.499 . S
C2279 C545 1.529 . S
C2284 C941 1.498 . S
C2295 C1007 1.521 . S
C2300 C611 1.507 . S
C2311 C677 1.506 . S
C2316 C809 1.521 . S
C2327 C875 1.511 . S
C2332 C743 1.517 . S
