# Generated by pormake.
# Topology wgs, (5)-cn, num edge types: 1
# Building blocks:
#     Node 0, Type 0, BuildingBlock: BEQFEK_clean_sbu_0, # of connection points: 5
#     Node 1, Type 0, BuildingBlock: BEQFEK_clean_sbu_0, # of connection points: 5
#     Node 2, Type 0, BuildingBlock: BEQFEK_clean_sbu_0, # of connection points: 5
#     Node 3, Type 0, BuildingBlock: BEQFEK_clean_sbu_0, # of connection points: 5
#     Node 4, Type 0, BuildingBlock: BEQFEK_clean_sbu_0, # of connection points: 5
#     Node 5, Type 0, BuildingBlock: BEQFEK_clean_sbu_0, # of connection points: 5
#     Node 6, Type 0, BuildingBlock: BEQFEK_clean_sbu_0, # of connection points: 5
#     Node 7, Type 0, BuildingBlock: BEQFEK_clean_sbu_0, # of connection points: 5
#     Node 8, Type 0, BuildingBlock: BEQFEK_clean_sbu_0, # of connection points: 5
#     Node 9, Type 0, BuildingBlock: BEQFEK_clean_sbu_0, # of connection points: 5
#     Node 10, Type 0, BuildingBlock: BEQFEK_clean_sbu_0, # of connection points: 5
#     Node 11, Type 0, BuildingBlock: BEQFEK_clean_sbu_0, # of connection points: 5
#     Node 12, Type 0, BuildingBlock: BEQFEK_clean_sbu_0, # of connection points: 5
#     Node 13, Type 0, BuildingBlock: BEQFEK_clean_sbu_0, # of connection points: 5
#     Node 14, Type 0, BuildingBlock: BEQFEK_clean_sbu_0, # of connection points: 5
#     Node 15, Type 0, BuildingBlock: BEQFEK_clean_sbu_0, # of connection points: 5
#     Node 16, Type 0, BuildingBlock: BEQFEK_clean_sbu_0, # of connection points: 5
#     Node 17, Type 0, BuildingBlock: BEQFEK_clean_sbu_0, # of connection points: 5
#     Node 18, Type 0, BuildingBlock: BEQFEK_clean_sbu_0, # of connection points: 5
#     Node 19, Type 0, BuildingBlock: BEQFEK_clean_sbu_0, # of connection points: 5
#     Node 20, Type 0, BuildingBlock: BEQFEK_clean_sbu_0, # of connection points: 5
#     Node 21, Type 0, BuildingBlock: BEQFEK_clean_sbu_0, # of connection points: 5
#     Node 22, Type 0, BuildingBlock: BEQFEK_clean_sbu_0, # of connection points: 5
#     Node 23, Type 0, BuildingBlock: BEQFEK_clean_sbu_0, # of connection points: 5
#     Node 24, Type 0, BuildingBlock: BEQFEK_clean_sbu_0, # of connection points: 5
#     Node 25, Type 0, BuildingBlock: BEQFEK_clean_sbu_0, # of connection points: 5
#     Node 26, Type 0, BuildingBlock: BEQFEK_clean_sbu_0, # of connection points: 5
#     Node 27, Type 0, BuildingBlock: BEQFEK_clean_sbu_0, # of connection points: 5
#     Node 28, Type 0, BuildingBlock: BEQFEK_clean_sbu_0, # of connection points: 5
#     Node 29, Type 0, BuildingBlock: BEQFEK_clean_sbu_0, # of connection points: 5
#     Node 30, Type 0, BuildingBlock: BEQFEK_clean_sbu_0, # of connection points: 5
#     Node 31, Type 0, BuildingBlock: BEQFEK_clean_sbu_0, # of connection points: 5
#     Edge 32, Type (0, 0), BuildingBlock: EZIPEK_clean_linker_0, # of connection points: 2
#     Edge 33, Type (0, 0), BuildingBlock: EZIPEK_clean_linker_0, # of connection points: 2
#     Edge 34, Type (0, 0), BuildingBlock: EZIPEK_clean_linker_0, # of connection points: 2
#     Edge 35, Type (0, 0), BuildingBlock: EZIPEK_clean_linker_0, # of connection points: 2
#     Edge 36, Type (0, 0), BuildingBlock: EZIPEK_clean_linker_0, # of connection points: 2
#     Edge 37, Type (0, 0), BuildingBlock: EZIPEK_clean_linker_0, # of connection points: 2
#     Edge 38, Type (0, 0), BuildingBlock: EZIPEK_clean_linker_0, # of connection points: 2
#     Edge 39, Type (0, 0), BuildingBlock: EZIPEK_clean_linker_0, # of connection points: 2
#     Edge 40, Type (0, 0), BuildingBlock: EZIPEK_clean_linker_0, # of connection points: 2
#     Edge 41, Type (0, 0), BuildingBlock: EZIPEK_clean_linker_0, # of connection points: 2
#     Edge 42, Type (0, 0), BuildingBlock: EZIPEK_clean_linker_0, # of connection points: 2
#     Edge 43, Type (0, 0), BuildingBlock: EZIPEK_clean_linker_0, # of connection points: 2
#     Edge 44, Type (0, 0), BuildingBlock: EZIPEK_clean_linker_0, # of connection points: 2
#     Edge 45, Type (0, 0), BuildingBlock: EZIPEK_clean_linker_0, # of connection points: 2
#     Edge 46, Type (0, 0), BuildingBlock: EZIPEK_clean_linker_0, # of connection points: 2
#     Edge 47, Type (0, 0), BuildingBlock: EZIPEK_clean_linker_0, # of connection points: 2
#     Edge 48, Type (0, 0), BuildingBlock: EZIPEK_clean_linker_0, # of connection points: 2
#     Edge 49, Type (0, 0), BuildingBlock: EZIPEK_clean_linker_0, # of connection points: 2
#     Edge 50, Type (0, 0), BuildingBlock: EZIPEK_clean_linker_0, # of connection points: 2
#     Edge 51, Type (0, 0), BuildingBlock: EZIPEK_clean_linker_0, # of connection points: 2
#     Edge 52, Type (0, 0), BuildingBlock: EZIPEK_clean_linker_0, # of connection points: 2
#     Edge 53, Type (0, 0), BuildingBlock: EZIPEK_clean_linker_0, # of connection points: 2
#     Edge 54, Type (0, 0), BuildingBlock: EZIPEK_clean_linker_0, # of connection points: 2
#     Edge 55, Type (0, 0), BuildingBlock: EZIPEK_clean_linker_0, # of connection points: 2
#     Edge 56, Type (0, 0), BuildingBlock: EZIPEK_clean_linker_0, # of connection points: 2
#     Edge 57, Type (0, 0), BuildingBlock: EZIPEK_clean_linker_0, # of connection points: 2
#     Edge 58, Type (0, 0), BuildingBlock: EZIPEK_clean_linker_0, # of connection points: 2
#     Edge 59, Type (0, 0), BuildingBlock: EZIPEK_clean_linker_0, # of connection points: 2
#     Edge 60, Type (0, 0), BuildingBlock: EZIPEK_clean_linker_0, # of connection points: 2
#     Edge 61, Type (0, 0), BuildingBlock: EZIPEK_clean_linker_0, # of connection points: 2
#     Edge 62, Type (0, 0), BuildingBlock: EZIPEK_clean_linker_0, # of connection points: 2
#     Edge 63, Type (0, 0), BuildingBlock: EZIPEK_clean_linker_0, # of connection points: 2
#     Edge 64, Type (0, 0), BuildingBlock: EZIPEK_clean_linker_0, # of connection points: 2
#     Edge 65, Type (0, 0), BuildingBlock: EZIPEK_clean_linker_0, # of connection points: 2
#     Edge 66, Type (0, 0), BuildingBlock: EZIPEK_clean_linker_0, # of connection points: 2
#     Edge 67, Type (0, 0), BuildingBlock: EZIPEK_clean_linker_0, # of connection points: 2
#     Edge 68, Type (0, 0), BuildingBlock: EZIPEK_clean_linker_0, # of connection points: 2
#     Edge 69, Type (0, 0), BuildingBlock: EZIPEK_clean_linker_0, # of connection points: 2
#     Edge 70, Type (0, 0), BuildingBlock: EZIPEK_clean_linker_0, # of connection points: 2
#     Edge 71, Type (0, 0), BuildingBlock: EZIPEK_clean_linker_0, # of connection points: 2
#     Edge 72, Type (0, 0), BuildingBlock: EZIPEK_clean_linker_0, # of connection points: 2
#     Edge 73, Type (0, 0), BuildingBlock: EZIPEK_clean_linker_0, # of connection points: 2
#     Edge 74, Type (0, 0), BuildingBlock: EZIPEK_clean_linker_0, # of connection points: 2
#     Edge 75, Type (0, 0), BuildingBlock: EZIPEK_clean_linker_0, # of connection points: 2
#     Edge 76, Type (0, 0), BuildingBlock: EZIPEK_clean_linker_0, # of connection points: 2
#     Edge 77, Type (0, 0), BuildingBlock: EZIPEK_clean_linker_0, # of connection points: 2
#     Edge 78, Type (0, 0), BuildingBlock: EZIPEK_clean_linker_0, # of connection points: 2
#     Edge 79, Type (0, 0), BuildingBlock: EZIPEK_clean_linker_0, # of connection points: 2
#     Edge 80, Type (0, 0), BuildingBlock: EZIPEK_clean_linker_0, # of connection points: 2
#     Edge 81, Type (0, 0), BuildingBlock: EZIPEK_clean_linker_0, # of connection points: 2
#     Edge 82, Type (0, 0), BuildingBlock: EZIPEK_clean_linker_0, # of connection points: 2
#     Edge 83, Type (0, 0), BuildingBlock: EZIPEK_clean_linker_0, # of connection points: 2
#     Edge 84, Type (0, 0), BuildingBlock: EZIPEK_clean_linker_0, # of connection points: 2
#     Edge 85, Type (0, 0), BuildingBlock: EZIPEK_clean_linker_0, # of connection points: 2
#     Edge 86, Type (0, 0), BuildingBlock: EZIPEK_clean_linker_0, # of connection points: 2
#     Edge 87, Type (0, 0), BuildingBlock: EZIPEK_clean_linker_0, # of connection points: 2
#     Edge 88, Type (0, 0), BuildingBlock: EZIPEK_clean_linker_0, # of connection points: 2
#     Edge 89, Type (0, 0), BuildingBlock: EZIPEK_clean_linker_0, # of connection points: 2
#     Edge 90, Type (0, 0), BuildingBlock: EZIPEK_clean_linker_0, # of connection points: 2
#     Edge 91, Type (0, 0), BuildingBlock: EZIPEK_clean_linker_0, # of connection points: 2
#     Edge 92, Type (0, 0), BuildingBlock: EZIPEK_clean_linker_0, # of connection points: 2
#     Edge 93, Type (0, 0), BuildingBlock: EZIPEK_clean_linker_0, # of connection points: 2
#     Edge 94, Type (0, 0), BuildingBlock: EZIPEK_clean_linker_0, # of connection points: 2
#     Edge 95, Type (0, 0), BuildingBlock: EZIPEK_clean_linker_0, # of connection points: 2
#     Edge 96, Type (0, 0), BuildingBlock: EZIPEK_clean_linker_0, # of connection points: 2
#     Edge 97, Type (0, 0), BuildingBlock: EZIPEK_clean_linker_0, # of connection points: 2
#     Edge 98, Type (0, 0), BuildingBlock: EZIPEK_clean_linker_0, # of connection points: 2
#     Edge 99, Type (0, 0), BuildingBlock: EZIPEK_clean_linker_0, # of connection points: 2
#     Edge 100, Type (0, 0), BuildingBlock: EZIPEK_clean_linker_0, # of connection points: 2
#     Edge 101, Type (0, 0), BuildingBlock: EZIPEK_clean_linker_0, # of connection points: 2
#     Edge 102, Type (0, 0), BuildingBlock: EZIPEK_clean_linker_0, # of connection points: 2
#     Edge 103, Type (0, 0), BuildingBlock: EZIPEK_clean_linker_0, # of connection points: 2
#     Edge 104, Type (0, 0), BuildingBlock: EZIPEK_clean_linker_0, # of connection points: 2
#     Edge 105, Type (0, 0), BuildingBlock: EZIPEK_clean_linker_0, # of connection points: 2
#     Edge 106, Type (0, 0), BuildingBlock: EZIPEK_clean_linker_0, # of connection points: 2
#     Edge 107, Type (0, 0), BuildingBlock: EZIPEK_clean_linker_0, # of connection points: 2
#     Edge 108, Type (0, 0), BuildingBlock: EZIPEK_clean_linker_0, # of connection points: 2
#     Edge 109, Type (0, 0), BuildingBlock: EZIPEK_clean_linker_0, # of connection points: 2
#     Edge 110, Type (0, 0), BuildingBlock: EZIPEK_clean_linker_0, # of connection points: 2
#     Edge 111, Type (0, 0), BuildingBlock: EZIPEK_clean_linker_0, # of connection points: 2
# Relax obj value: 0.093
# Max RMSD: 0.156
# Mean RMSD: 0.156
data_MOF--net-wgs--node1-BEQFEK_clean_sbu_0--edge1-EZIPEK_clean_linker_0
_symmetry_space_group_name_H-M    P1
_symmetry_Int_Tables_number       1
_symmetry_cell_setting            triclinic
loop_
_symmetry_equiv_pos_as_xyz
'x, y, z'
_cell_length_a     21.600208
_cell_length_b     21.590537
_cell_length_c     123.09212
_cell_angle_alpha  90.031702
_cell_angle_beta   90.017171
_cell_angle_gamma 90.04629
loop_
_atom_site_label
_atom_site_type_symbol
_atom_site_fract_x
_atom_site_fract_y
_atom_site_fract_z
_atom_type_partial_charge
Co0 Co 0.34613 0.0697 0.32946 0.0
Co1 Co 0.34185 0.06378 0.30384 0.0
C2 C 0.44172 0.13272 0.31587 0.0
O3 O 0.42046 0.11577 0.32507 0.0
O4 O 0.41653 0.11396 0.30707 0.0
C5 C 0.38024 0.06607 0.35254 0.0
O6 O 0.43773 0.05798 0.34936 0.0
C7 C 0.37348 0.03297 0.28085 0.0
C8 C 0.27982 0.03617 0.27361 0.0
C9 C 0.34121 0.02483 0.27122 0.0
N10 N 0.33254 0.04809 0.28867 0.0
N11 N 0.27682 0.05023 0.28423 0.0
C12 C 0.44146 0.02547 0.28262 0.0
H13 H 0.45208 0.02223 0.29142 0.0
H14 H 0.45831 0.98354 0.27831 0.0
H15 H 0.46591 0.06614 0.27915 0.0
C16 C 0.34024 0.93265 0.32643 0.0
N17 N 0.34288 0.99102 0.32257 0.0
N18 N 0.34124 0.98907 0.31189 0.0
C19 C 0.33704 0.92961 0.30867 0.0
C20 C 0.33615 0.89197 0.31776 0.0
C21 C 0.33499 0.91617 0.33815 0.0
H22 H 0.28714 0.92629 0.34088 0.0
H23 H 0.36794 0.94443 0.34295 0.0
H24 H 0.34457 0.86623 0.33948 0.0
O25 O 0.27992 0.12682 0.32522 0.0
O26 O 0.27209 0.11944 0.30734 0.0
H27 H 0.2888 0.9328 0.2935 0.0
H28 H 0.32255 0.85818 0.29655 0.0
C29 C 0.32919 0.90904 0.29716 0.0
H30 H 0.37128 0.92185 0.29255 0.0
H31 H 0.23642 0.06054 0.28851 0.0
O32 O 0.3372 0.06774 0.34552 0.0
C33 C 0.25611 0.1438 0.3163 0.0
Co34 Co 0.17119 0.09508 0.57949 0.0
Co35 Co 0.18121 0.09976 0.55397 0.0
C36 C 0.11507 0.19784 0.56555 0.0
O37 O 0.1267 0.16935 0.57439 0.0
O38 O 0.13683 0.17795 0.55657 0.0
C39 C 0.19722 0.12729 0.60245 0.0
O40 O 0.23862 0.16743 0.59905 0.0
C41 C 0.21345 0.1259 0.53085 0.0
C42 C 0.21578 0.03008 0.5245 0.0
C43 C 0.2243 0.09121 0.52156 0.0
N44 N 0.19942 0.08665 0.53898 0.0
N45 N 0.20061 0.02959 0.53508 0.0
C46 C 0.21724 0.19469 0.53199 0.0
H47 H 0.22449 0.20778 0.54062 0.0
H48 H 0.25523 0.21332 0.52687 0.0
H49 H 0.17311 0.2154 0.52915 0.0
C50 C 0.30837 0.07974 0.57712 0.0
N51 N 0.251 0.08948 0.57313 0.0
N52 N 0.25455 0.09466 0.56248 0.0
C53 C 0.31427 0.09031 0.55945 0.0
C54 C 0.35018 0.08076 0.56858 0.0
C55 C 0.3224 0.06159 0.58857 0.0
H56 H 0.28079 0.04171 0.59247 0.0
H57 H 0.33768 0.10312 0.59315 0.0
H58 H 0.36063 0.02729 0.58883 0.0
O59 O 0.1166 0.02689 0.57535 0.0
O60 O 0.11869 0.03516 0.55742 0.0
H61 H 0.31828 0.04851 0.54373 0.0
H62 H 0.38786 0.0895 0.5475 0.0
C63 C 0.33654 0.09003 0.54795 0.0
H64 H 0.31927 0.13195 0.54376 0.0
H65 H 0.19173 0.99009 0.53971 0.0
O66 O 0.16816 0.09438 0.5956 0.0
C67 C 0.09678 0.01141 0.56605 0.0
Co68 Co 0.18033 0.93207 0.83006 0.0
Co69 Co 0.17424 0.93116 0.80473 0.0
C70 C 0.08894 0.85587 0.81619 0.0
O71 O 0.11706 0.87066 0.82493 0.0
O72 O 0.10007 0.88233 0.80717 0.0
C73 C 0.12996 0.92183 0.85179 0.0
O74 O 0.07707 0.90998 0.84694 0.0
C75 C 0.14572 0.95286 0.78159 0.0
C76 C 0.23978 0.95875 0.7746 0.0
C77 C 0.17762 0.96267 0.77199 0.0
N78 N 0.18727 0.94379 0.78957 0.0
N79 N 0.24337 0.94691 0.78531 0.0
C80 C 0.07712 0.95333 0.78315 0.0
H81 H 0.06538 0.96499 0.79168 0.0
H82 H 0.05504 0.98683 0.77751 0.0
H83 H 0.05864 0.90652 0.7813 0.0
C84 C 0.17468 0.06786 0.82641 0.0
N85 N 0.17231 0.00872 0.82295 0.0
N86 N 0.16937 0.00805 0.81228 0.0
C87 C 0.16787 0.06684 0.80866 0.0
C88 C 0.17163 0.10667 0.81746 0.0
C89 C 0.18736 0.08658 0.83788 0.0
H90 H 0.21824 0.05225 0.84182 0.0
H91 H 0.14282 0.08777 0.84236 0.0
H92 H 0.20863 0.13334 0.83829 0.0
O93 O 0.26149 0.89573 0.82702 0.0
O94 O 0.23946 0.87288 0.80995 0.0
H95 H 0.21203 0.06703 0.79313 0.0
H96 H 0.1675 0.13608 0.79592 0.0
C97 C 0.1692 0.08504 0.79696 0.0
H98 H 0.1287 0.06444 0.7928 0.0
H99 H 0.28417 0.94192 0.78977 0.0
O100 O 0.17683 0.93707 0.84614 0.0
C101 C 0.27034 0.86325 0.81859 0.0
Co102 Co 0.31027 0.90905 0.08021 0.0
Co103 Co 0.31264 0.90108 0.05507 0.0
C104 C 0.38106 0.81029 0.06686 0.0
O105 O 0.3671 0.8408 0.07541 0.0
O106 O 0.35704 0.8247 0.05776 0.0
C107 C 0.30122 0.85936 0.10194 0.0
O108 O 0.29762 0.8046 0.09735 0.0
C109 C 0.29408 0.8753 0.03163 0.0
C110 C 0.28665 0.97076 0.02528 0.0
C111 C 0.2846 0.90916 0.02223 0.0
N112 N 0.30103 0.91531 0.03994 0.0
N113 N 0.29692 0.97222 0.03605 0.0
C114 C 0.29586 0.80639 0.03269 0.0
H115 H 0.28252 0.79217 0.04103 0.0
H116 H 0.26475 0.78436 0.02664 0.0
H117 H 0.34377 0.79022 0.03111 0.0
C118 C 0.17459 0.90726 0.07643 0.0
N119 N 0.23386 0.90474 0.07307 0.0
N120 N 0.23519 0.90006 0.06243 0.0
C121 C 0.17668 0.89729 0.05871 0.0
C122 C 0.13636 0.90229 0.06743 0.0
C123 C 0.15509 0.9193 0.08789 0.0
H124 H 0.1905 0.94739 0.09217 0.0
H125 H 0.15029 0.87429 0.09214 0.0
H126 H 0.10966 0.94327 0.08816 0.0
O127 O 0.35238 0.98737 0.0772 0.0
O128 O 0.37401 0.96396 0.06015 0.0
H129 H 0.17481 0.93633 0.04277 0.0
H130 H 0.10858 0.88826 0.04589 0.0
C131 C 0.1593 0.89366 0.04698 0.0
H132 H 0.18292 0.85345 0.04325 0.0
H133 H 0.30037 0.01213 0.0408 0.0
O134 O 0.30372 0.90776 0.09614 0.0
C135 C 0.38472 0.99502 0.06873 0.0
Co136 Co 0.32328 0.92466 0.16948 0.0
Co137 Co 0.33735 0.92373 0.19467 0.0
C138 C 0.41304 0.84277 0.18275 0.0
O139 O 0.38228 0.86014 0.17448 0.0
O140 O 0.40908 0.87071 0.19185 0.0
C141 C 0.35235 0.89094 0.14759 0.0
O142 O 0.38946 0.85074 0.15222 0.0
C143 C 0.36694 0.94778 0.21779 0.0
C144 C 0.27281 0.9532 0.22476 0.0
C145 C 0.33489 0.95808 0.22736 0.0
N146 N 0.32547 0.93766 0.20982 0.0
N147 N 0.26936 0.94064 0.21407 0.0
C148 C 0.43553 0.94827 0.21625 0.0
H149 H 0.45463 0.90327 0.21902 0.0
H150 H 0.44733 0.95485 0.20755 0.0
H151 H 0.45688 0.98542 0.22124 0.0
C152 C 0.33978 0.05836 0.17257 0.0
N153 N 0.33958 -5e-05 0.17632 0.0
N154 N 0.34405 0.00042 0.18697 0.0
C155 C 0.34771 0.05974 0.19033 0.0
C156 C 0.34444 0.09846 0.18135 0.0
C157 C 0.32552 0.07526 0.16106 0.0
H158 H 0.35775 0.05048 0.15555 0.0
H159 H 0.3296 0.12595 0.15972 0.0
H160 H 0.27779 0.05995 0.15906 0.0
O161 O 0.24036 0.89429 0.17327 0.0
O162 O 0.2695 0.86692 0.18974 0.0
H163 H 0.30324 0.06094 0.20584 0.0
H164 H 0.34616 0.13074 0.20277 0.0
C165 C 0.34564 0.07954 0.20195 0.0
H166 H 0.38652 0.06037 0.2062 0.0
H167 H 0.2286 0.93485 0.20963 0.0
O168 O 0.32323 0.93011 0.15337 0.0
C169 C 0.23481 0.85941 0.18149 0.0
Co170 Co 0.31436 0.06588 0.41958 0.0
Co171 Co 0.31981 0.08179 0.44465 0.0
C172 C 0.40103 0.15455 0.4323 0.0
O173 O 0.38213 0.12341 0.42413 0.0
O174 O 0.37398 0.15189 0.44149 0.0
C175 C 0.31999 0.11372 0.39774 0.0
O176 O 0.32525 0.16825 0.40238 0.0
C177 C 0.30123 0.11178 0.46798 0.0
C178 C 0.29051 0.01775 0.47481 0.0
C179 C 0.2899 0.07986 0.47754 0.0
N180 N 0.30791 0.07023 0.4599 0.0
N181 N 0.30193 0.01416 0.46409 0.0
C182 C 0.30419 0.18044 0.46655 0.0
H183 H 0.29864 0.19305 0.45787 0.0
H184 H 0.26785 0.20322 0.47152 0.0
H185 H 0.34985 0.19729 0.46945 0.0
C186 C 0.18094 0.08483 0.42334 0.0
N187 N 0.24024 0.08411 0.42667 0.0
N188 N 0.24227 0.09051 0.43729 0.0
C189 C 0.18404 0.0972 0.441 0.0
C190 C 0.14321 0.09308 0.43233 0.0
C191 C 0.16089 0.06953 0.41203 0.0
H192 H 0.18854 0.03009 0.4089 0.0
H193 H 0.16993 0.11025 0.40677 0.0
H194 H 0.11082 0.05813 0.41166 0.0
O195 O 0.34149 0.98225 0.42335 0.0
O196 O 0.37425 0.01286 0.43941 0.0
H197 H 0.1817 0.0569 0.45682 0.0
H198 H 0.11629 0.10633 0.45386 0.0
C199 C 0.1669 0.10018 0.45273 0.0
H200 H 0.19123 0.13976 0.45654 0.0
H201 H 0.3045 0.97336 0.45956 0.0
O202 O 0.30931 0.06627 0.40353 0.0
C203 C 0.37897 0.97733 0.43121 0.0
Co204 Co 0.14567 0.06639 0.66976 0.0
Co205 Co 0.14588 0.06303 0.69533 0.0
C206 C 0.04384 0.12402 0.68351 0.0
O207 O 0.06957 0.10984 0.6745 0.0
O208 O 0.06726 0.10633 0.69251 0.0
C209 C 0.13012 0.10379 0.64799 0.0
O210 O 0.09745 0.14752 0.65269 0.0
C211 C 0.12309 0.03603 0.71878 0.0
C212 C 0.22002 0.03365 0.72458 0.0
C213 C 0.15942 0.02636 0.7279 0.0
N214 N 0.16093 0.0481 0.71035 0.0
N215 N 0.21865 0.04693 0.71392 0.0
C216 C 0.05413 0.03288 0.71807 0.0
H217 H 0.03924 0.02531 0.70954 0.0
H218 H 0.0362 0.99532 0.72336 0.0
H219 H 0.03447 0.07735 0.72099 0.0
C220 C 0.15853 0.93106 0.67295 0.0
N221 N 0.15261 0.98928 0.67675 0.0
N222 N 0.15005 0.9879 0.68742 0.0
C223 C 0.15293 0.92862 0.69073 0.0
C224 C 0.15877 0.8907 0.68172 0.0
C225 C 0.16765 0.9152 0.66124 0.0
H226 H 0.20716 0.94223 0.65796 0.0
H227 H 0.12572 0.92881 0.65662 0.0
H228 H 0.17627 0.86494 0.6601 0.0
O229 O 0.21229 0.12434 0.67331 0.0
O230 O 0.20999 0.12456 0.69129 0.0
H231 H 0.19536 0.92625 0.70641 0.0
H232 H 0.15218 0.85713 0.70308 0.0
C233 C 0.1532 0.90835 0.70234 0.0
H234 H 0.11201 0.92763 0.70648 0.0
H235 H 0.25733 0.05439 0.70901 0.0
O236 O 0.1514 0.05979 0.65374 0.0
C237 C 0.23081 0.14537 0.68235 0.0
Co238 Co 0.17412 0.91458 0.92041 0.0
Co239 Co 0.18289 0.92335 0.94586 0.0
C240 C 0.11279 0.82145 0.93406 0.0
O241 O 0.13181 0.83901 0.92476 0.0
O242 O 0.12943 0.85024 0.94264 0.0
C243 C 0.17666 0.87779 0.89761 0.0
O244 O 0.18797 0.8216 0.90119 0.0
C245 C 0.2165 0.8863 0.96833 0.0
C246 C 0.21027 0.9771 0.97658 0.0
C247 C 0.22368 0.91534 0.97829 0.0
N248 N 0.19978 0.92937 0.961 0.0
N249 N 0.19598 0.9834 0.96602 0.0
C250 C 0.22584 0.81927 0.96583 0.0
H251 H 0.22767 0.81161 0.95692 0.0
H252 H 0.26916 0.8026 0.9697 0.0
H253 H 0.18683 0.79227 0.9693 0.0
C254 C 0.31131 0.91995 0.92289 0.0
N255 N 0.2535 0.91899 0.92698 0.0
N256 N 0.25683 0.92298 0.93764 0.0
C257 C 0.31665 0.92804 0.94061 0.0
C258 C 0.35303 0.92612 0.93138 0.0
C259 C 0.32658 0.91995 0.91107 0.0
H260 H 0.29544 0.88787 0.90667 0.0
H261 H 0.37547 0.90613 0.90971 0.0
H262 H 0.31999 0.96744 0.90785 0.0
O263 O 0.1155 0.97882 0.92513 0.0
O264 O 0.13084 0.99583 0.94266 0.0
H265 H 0.31123 0.97738 0.95568 0.0
H266 H 0.38832 0.95137 0.95225 0.0
C267 C 0.3384 0.93933 0.95197 0.0
H268 H 0.33092 0.89665 0.95679 0.0
H269 H 0.18403 0.02483 0.9622 0.0
O270 O 0.17343 0.92233 0.90433 0.0
C271 C 0.10219 0.00687 0.93387 0.0
Co272 Co 0.67925 0.92991 0.66895 0.0
Co273 Co 0.67216 0.92916 0.69409 0.0
C274 C 0.58798 0.85296 0.68264 0.0
O275 O 0.61677 0.86768 0.67398 0.0
O276 O 0.59824 0.87969 0.69168 0.0
C277 C 0.63199 0.91374 0.64734 0.0
O278 O 0.57976 0.89875 0.65213 0.0
C279 C 0.64357 0.95152 0.71715 0.0
C280 C 0.73757 0.9575 0.72418 0.0
C281 C 0.67538 0.96147 0.72675 0.0
N282 N 0.68521 0.94226 0.7092 0.0
N283 N 0.74127 0.94547 0.71348 0.0
C284 C 0.57498 0.95191 0.71556 0.0
H285 H 0.56336 0.96351 0.70702 0.0
H286 H 0.5528 0.98543 0.72118 0.0
H287 H 0.55653 0.90509 0.71739 0.0
C288 C 0.66986 0.06521 0.67226 0.0
N289 N 0.66882 0.00634 0.67585 0.0
N290 N 0.66639 0.00613 0.68652 0.0
C291 C 0.66422 0.06513 0.69004 0.0
C292 C 0.66685 0.10451 0.68115 0.0
C293 C 0.68136 0.08313 0.66071 0.0
H294 H 0.71572 0.05132 0.65701 0.0
H295 H 0.63732 0.07871 0.65614 0.0
H296 H 0.69786 0.13169 0.66006 0.0
O297 O 0.76148 0.89681 0.6721 0.0
O298 O 0.73752 0.8707 0.68889 0.0
H299 H 0.70904 0.06589 0.70551 0.0
H300 H 0.66479 0.13508 0.70267 0.0
C301 C 0.66619 0.08399 0.70171 0.0
H302 H 0.62576 0.06379 0.70595 0.0
H303 H 0.78211 0.94036 0.70904 0.0
O304 O 0.677 0.9338 0.65297 0.0
C305 C 0.76939 0.86262 0.68032 0.0
Co306 Co 0.81893 0.9246 0.42043 0.0
Co307 Co 0.8084 0.93204 0.44574 0.0
C308 C 0.88083 0.83161 0.43363 0.0
O309 O 0.86111 0.84825 0.42433 0.0
O310 O 0.86431 0.86109 0.44214 0.0
C311 C 0.82378 0.89121 0.39766 0.0
O312 O 0.81868 0.83398 0.40117 0.0
C313 C 0.77466 0.88536 0.46751 0.0
C314 C 0.78125 0.97167 0.47712 0.0
C315 C 0.76796 0.90921 0.47787 0.0
N316 N 0.79099 0.93199 0.46086 0.0
N317 N 0.79489 0.98336 0.46667 0.0
C318 C 0.76584 0.81967 0.46403 0.0
H319 H 0.76719 0.81576 0.45504 0.0
H320 H 0.72099 0.80196 0.46715 0.0
H321 H 0.80305 0.79076 0.46762 0.0
C322 C 0.68146 0.92315 0.42265 0.0
N323 N 0.73896 0.92665 0.42683 0.0
N324 N 0.73482 0.93112 0.43747 0.0
C325 C 0.67467 0.93287 0.44034 0.0
C326 C 0.6389 0.92727 0.43106 0.0
C327 C 0.66726 0.91724 0.41082 0.0
H328 H 0.66972 0.96381 0.40705 0.0
H329 H 0.70181 0.88686 0.40685 0.0
H330 H 0.62003 0.89828 0.40953 0.0
O331 O 0.87768 0.9876 0.42586 0.0
O332 O 0.85741 0.00725 0.44312 0.0
H333 H 0.68 0.9786 0.45578 0.0
H334 H 0.60241 0.95701 0.45176 0.0
C335 C 0.65174 0.94271 0.45167 0.0
H336 H 0.65628 0.89866 0.45621 0.0
H337 H 0.80688 0.02652 0.46349 0.0
O338 O 0.82019 0.93571 0.40439 0.0
C339 C 0.88893 0.01672 0.4346 0.0
Co340 Co 0.85125 0.06427 0.16902 0.0
Co341 Co 0.85785 0.0594 0.19458 0.0
C342 C 0.95505 0.12369 0.18209 0.0
O343 O 0.92667 0.11057 0.17329 0.0
O344 O 0.93519 0.10326 0.19117 0.0
C345 C 0.88693 0.05038 0.14606 0.0
O346 O 0.94129 0.03139 0.1495 0.0
C347 C 0.89019 0.0316 0.21757 0.0
C348 C 0.7968 0.03482 0.22491 0.0
C349 C 0.85846 0.02458 0.22727 0.0
N350 N 0.84874 0.04498 0.20975 0.0
N351 N 0.79316 0.04709 0.21423 0.0
C352 C 0.9583 0.02549 0.21578 0.0
H353 H 0.96832 0.01665 0.20707 0.0
H354 H 0.97733 0.98761 0.22087 0.0
H355 H 0.98125 0.0693 0.21824 0.0
C356 C 0.83837 0.92796 0.17229 0.0
N357 N 0.84725 0.98601 0.176 0.0
N358 N 0.85109 0.98439 0.18667 0.0
C359 C 0.84548 0.92528 0.19003 0.0
C360 C 0.837 0.88773 0.18106 0.0
C361 C 0.82455 0.91201 0.16076 0.0
H362 H 0.86054 0.9323 0.15543 0.0
H363 H 0.82292 0.8611 0.1595 0.0
H364 H 0.77908 0.93222 0.15854 0.0
O365 O 0.78346 0.11979 0.17321 0.0
O366 O 0.79268 0.1207 0.19113 0.0
H367 H 0.83799 0.85442 0.20242 0.0
H368 H 0.8859 0.92014 0.20578 0.0
C369 C 0.84279 0.90541 0.20165 0.0
H370 H 0.80294 0.92802 0.2057 0.0
H371 H 0.75251 0.05644 0.20995 0.0
O372 O 0.84444 0.06184 0.1529 0.0
C373 C 0.76826 0.14096 0.18244 0.0
Co374 Co 0.67744 0.09704 0.91854 0.0
Co375 Co 0.67778 0.10539 0.94373 0.0
C376 C 0.60745 0.19511 0.93242 0.0
O377 O 0.62123 0.16403 0.92394 0.0
O378 O 0.63254 0.18187 0.94148 0.0
C379 C 0.70807 0.13362 0.89578 0.0
O380 O 0.75065 0.17213 0.89933 0.0
C381 C 0.69746 0.12671 0.96734 0.0
C382 C 0.70697 0.03003 0.97301 0.0
C383 C 0.70796 0.0909 0.97649 0.0
N384 N 0.69096 0.0885 0.95876 0.0
N385 N 0.69635 0.03085 0.96225 0.0
C386 C 0.69403 0.19574 0.96677 0.0
H387 H 0.64558 0.21033 0.96832 0.0
H388 H 0.70767 0.21214 0.95857 0.0
H389 H 0.72407 0.21713 0.97305 0.0
C390 C 0.81421 0.09334 0.92208 0.0
N391 N 0.75519 0.10036 0.92542 0.0
N392 N 0.75453 0.10679 0.93606 0.0
C393 C 0.81322 0.10717 0.93973 0.0
C394 C 0.85284 0.09826 0.93103 0.0
C395 C 0.83286 0.07227 0.91099 0.0
H396 H 0.79263 0.05281 0.90658 0.0
H397 H 0.85192 0.11221 0.90641 0.0
H398 H 0.86984 0.03672 0.91153 0.0
O399 O 0.63685 0.01827 0.92159 0.0
O400 O 0.61628 0.04257 0.93864 0.0
H401 H 0.81698 0.06619 0.9555 0.0
H402 H 0.88187 0.1159 0.95243 0.0
C403 C 0.83115 0.10978 0.95144 0.0
H404 H 0.80697 0.14898 0.9554 0.0
H405 H 0.69341 0.99198 0.95723 0.0
O406 O 0.67739 0.10131 0.90249 0.0
C407 C 0.60527 0.01086 0.93014 0.0
Co408 Co 0.65073 0.06767 0.82878 0.0
Co409 Co 0.64943 0.06298 0.80327 0.0
C410 C 0.54819 0.12487 0.81519 0.0
O411 O 0.57424 0.11106 0.82419 0.0
O412 O 0.57121 0.10665 0.80619 0.0
C413 C 0.63913 0.10733 0.85042 0.0
O414 O 0.60742 0.15161 0.84569 0.0
C415 C 0.62417 0.03523 0.77997 0.0
C416 C 0.72045 0.0322 0.77386 0.0
C417 C 0.65945 0.02516 0.77074 0.0
N418 N 0.66297 0.04733 0.78826 0.0
N419 N 0.7203 0.04575 0.78451 0.0
C420 C 0.55527 0.03247 0.7809 0.0
H421 H 0.54133 0.02431 0.78946 0.0
H422 H 0.53645 0.99547 0.77558 0.0
H423 H 0.53559 0.07733 0.77819 0.0
C424 C 0.66285 0.93202 0.82577 0.0
N425 N 0.65699 0.99009 0.82191 0.0
N426 N 0.65386 0.98821 0.81124 0.0
C427 C 0.65631 0.92876 0.808 0.0
C428 C 0.66244 0.89123 0.81705 0.0
C429 C 0.67262 0.91669 0.83748 0.0
H430 H 0.71299 0.94305 0.84061 0.0
H431 H 0.63142 0.93151 0.84219 0.0
H432 H 0.68027 0.86633 0.83869 0.0
O433 O 0.71703 0.12545 0.825 0.0
O434 O 0.71417 0.12443 0.80703 0.0
H435 H 0.69784 0.92565 0.79225 0.0
H436 H 0.65483 0.8567 0.79574 0.0
C437 C 0.65592 0.90795 0.79642 0.0
H438 H 0.6145 0.92705 0.79232 0.0
H439 H 0.75954 0.05317 0.78929 0.0
O440 O 0.6582 0.06199 0.84475 0.0
C441 C 0.73528 0.14584 0.8159 0.0
Co442 Co 0.67475 0.89389 0.57942 0.0
Co443 Co 0.67724 0.89487 0.55391 0.0
C444 C 0.61334 0.79454 0.56642 0.0
O445 O 0.63042 0.8178 0.57546 0.0
O446 O 0.63034 0.81899 0.55746 0.0
C447 C 0.68659 0.8592 0.60225 0.0
O448 O 0.70277 0.80377 0.59888 0.0
C449 C 0.70218 0.86059 0.53091 0.0
C450 C 0.69983 0.95368 0.52343 0.0
C451 C 0.70865 0.89169 0.52114 0.0
N452 N 0.69051 0.90275 0.5387 0.0
N453 N 0.6889 0.95814 0.53414 0.0
C454 C 0.70706 0.79244 0.53279 0.0
H455 H 0.71533 0.78257 0.54152 0.0
H456 H 0.74481 0.77256 0.52777 0.0
H457 H 0.66307 0.77012 0.53025 0.0
C458 C 0.81108 0.90513 0.57591 0.0
N459 N 0.75246 0.89917 0.5723 0.0
N460 N 0.75297 0.89901 0.56161 0.0
C461 C 0.81174 0.90496 0.55812 0.0
C462 C 0.85038 0.9091 0.56704 0.0
C463 C 0.82864 0.91413 0.58753 0.0
H464 H 0.81408 0.96116 0.5901 0.0
H465 H 0.80445 0.87957 0.59264 0.0
H466 H 0.87943 0.90969 0.58868 0.0
O467 O 0.61592 0.95894 0.57536 0.0
O468 O 0.61974 0.96308 0.55741 0.0
H469 H 0.80698 0.95189 0.54285 0.0
H470 H 0.88127 0.91669 0.5456 0.0
C471 C 0.83042 0.91122 0.54649 0.0
H472 H 0.81568 0.86914 0.54204 0.0
H473 H 0.68077 -0.0008 0.53838 0.0
O474 O 0.67783 0.90208 0.59538 0.0
C475 C 0.59696 0.98067 0.5664 0.0
Co476 Co 0.84709 0.93687 0.32973 0.0
Co477 Co 0.851 0.9351 0.3041 0.0
C478 C 0.94752 0.87155 0.31664 0.0
O479 O 0.92067 0.88681 0.3255 0.0
O480 O 0.9277 0.89167 0.30756 0.0
C481 C 0.88554 0.94122 0.35255 0.0
O482 O 0.9427 0.93997 0.34891 0.0
C483 C 0.88391 0.95981 0.28112 0.0
C484 C 0.792 0.95074 0.27337 0.0
C485 C 0.85349 0.96365 0.27124 0.0
N486 N 0.84197 0.94571 0.28882 0.0
N487 N 0.78725 0.94005 0.2841 0.0
C488 C 0.95136 0.96961 0.28319 0.0
H489 H 0.95994 0.97834 0.29195 0.0
H490 H 0.96881 0.00894 0.27825 0.0
H491 H 0.97701 0.92745 0.28068 0.0
C492 C 0.8388 0.07175 0.32558 0.0
N493 N 0.84496 0.01287 0.32218 0.0
N494 N 0.84605 0.01207 0.31149 0.0
C495 C 0.84083 0.07057 0.3078 0.0
C496 C 0.83601 0.11023 0.31659 0.0
C497 C 0.83018 0.09006 0.33716 0.0
H498 H 0.87179 0.07585 0.34181 0.0
H499 H 0.82339 0.14077 0.33804 0.0
H500 H 0.78952 0.06515 0.34052 0.0
O501 O 0.77583 0.88371 0.3262 0.0
O502 O 0.78745 0.8738 0.30839 0.0
H503 H 0.79726 0.06159 0.29227 0.0
H504 H 0.82694 0.13833 0.29505 0.0
C505 C 0.83549 0.08801 0.2961 0.0
H506 H 0.87937 0.07588 0.29198 0.0
H507 H 0.74646 0.92942 0.28824 0.0
O508 O 0.84092 0.94496 0.34585 0.0
C509 C 0.76213 0.85769 0.31726 0.0
Co510 Co 0.81769 0.07763 0.07841 0.0
Co511 Co 0.80827 0.06462 0.05301 0.0
C512 C 0.88702 0.16162 0.06479 0.0
O513 O 0.86453 0.15098 0.07417 0.0
O514 O 0.86968 0.13187 0.05635 0.0
C515 C 0.83585 0.1105 0.10091 0.0
O516 O 0.85098 0.16504 0.097 0.0
C517 C 0.77547 0.10443 0.03061 0.0
C518 C 0.78228 0.0148 0.022 0.0
C519 C 0.76881 0.07674 0.02051 0.0
N520 N 0.7921 0.06047 0.03779 0.0
N521 N 0.79622 0.00714 0.03255 0.0
C522 C 0.76572 0.17105 0.03339 0.0
H523 H 0.76288 0.17729 0.04233 0.0
H524 H 0.72284 0.1883 0.02945 0.0
H525 H 0.80513 0.19862 0.03022 0.0
C526 C 0.68114 0.08097 0.07592 0.0
N527 N 0.73856 0.07829 0.07173 0.0
N528 N 0.73452 0.07269 0.06111 0.0
C529 C 0.67436 0.06988 0.05826 0.0
C530 C 0.63853 0.07521 0.06754 0.0
C531 C 0.6675 0.084 0.08778 0.0
H532 H 0.69437 0.12258 0.09142 0.0
H533 H 0.61738 0.09114 0.08933 0.0
H534 H 0.68258 0.04013 0.09165 0.0
O535 O 0.8733 0.01054 0.07345 0.0
O536 O 0.85046 0.98645 0.05647 0.0
H537 H 0.60197 0.04309 0.04699 0.0
H538 H 0.65771 0.09804 0.04197 0.0
C539 C 0.65167 0.05609 0.04703 0.0
H540 H 0.67926 0.01801 0.04343 0.0
H541 H 0.80816 0.96523 0.0362 0.0
O542 O 0.81568 0.06878 0.09452 0.0
C543 C 0.88249 0.9783 0.06498 0.0
Co544 Co 0.84212 0.57005 0.82881 0.0
Co545 Co 0.84288 0.56513 0.80329 0.0
C546 C 0.93671 0.63694 0.81659 0.0
O547 O 0.91836 0.61511 0.82564 0.0
O548 O 0.91233 0.62129 0.80755 0.0
C549 C 0.87197 0.57763 0.85144 0.0
O550 O 0.92946 0.58133 0.84802 0.0
C551 C 0.88719 0.54195 0.78073 0.0
C552 C 0.797 0.53502 0.7723 0.0
C553 C 0.86018 0.53209 0.77065 0.0
N554 N 0.84157 0.54998 0.78805 0.0
N555 N 0.78794 0.54599 0.78292 0.0
C556 C 0.95465 0.54399 0.78337 0.0
H557 H 0.97111 0.59254 0.78268 0.0
H558 H 0.96249 0.52829 0.79185 0.0
H559 H 0.98148 0.51502 0.7776 0.0
C560 C 0.83777 0.43391 0.82574 0.0
N561 N 0.84201 0.492 0.82186 0.0
N562 N 0.8435 0.49001 0.81118 0.0
C563 C 0.83975 0.43056 0.80795 0.0
C564 C 0.83582 0.39308 0.81705 0.0
C565 C 0.82882 0.41854 0.83746 0.0
H566 H 0.78517 0.44001 0.84035 0.0
H567 H 0.8676 0.4386 0.84221 0.0
H568 H 0.82692 0.36772 0.83879 0.0
O569 O 0.77803 0.62782 0.82366 0.0
O570 O 0.76688 0.61325 0.80599 0.0
H571 H 0.79087 0.43077 0.79285 0.0
H572 H 0.83093 0.35905 0.79569 0.0
C573 C 0.83337 0.41025 0.79639 0.0
H574 H 0.87375 0.42715 0.79171 0.0
H575 H 0.74494 0.55039 0.7867 0.0
O576 O 0.82885 0.56681 0.84468 0.0
C577 C 0.75256 0.64127 0.81469 0.0
Co578 Co 0.67546 0.59768 0.07821 0.0
Co579 Co 0.68213 0.59405 0.05278 0.0
C580 C 0.61839 0.69702 0.06525 0.0
O581 O 0.63507 0.67587 0.07446 0.0
O582 O 0.63421 0.66953 0.0565 0.0
C583 C 0.64023 0.60819 0.10032 0.0
O584 O 0.59902 0.6467 0.09634 0.0
C585 C 0.71468 0.63498 0.03056 0.0
C586 C 0.70515 0.54649 0.02165 0.0
C587 C 0.71983 0.60835 0.02037 0.0
N588 N 0.69786 0.59049 0.03761 0.0
N589 N 0.6922 0.53782 0.03222 0.0
C590 C 0.72551 0.70124 0.03349 0.0
H591 H 0.72755 0.70703 0.04244 0.0
H592 H 0.76922 0.71779 0.02974 0.0
H593 H 0.68723 0.72977 0.03017 0.0
C594 C 0.81083 0.58894 0.07557 0.0
N595 N 0.75334 0.59182 0.07143 0.0
N596 N 0.75655 0.58962 0.06077 0.0
C597 C 0.81634 0.58428 0.0578 0.0
C598 C 0.85266 0.58403 0.06708 0.0
C599 C 0.82499 0.58797 0.08746 0.0
H600 H 0.80516 0.63003 0.09127 0.0
H601 H 0.8756 0.58655 0.089 0.0
H602 H 0.80259 0.54701 0.09123 0.0
O603 O 0.61512 0.53481 0.0736 0.0
O604 O 0.62523 0.52446 0.05579 0.0
H605 H 0.88777 0.56291 0.04603 0.0
H606 H 0.83141 0.61977 0.04192 0.0
C607 C 0.83806 0.57573 0.04637 0.0
H608 H 0.81014 0.53929 0.04233 0.0
H609 H 0.67956 0.49581 0.03577 0.0
O610 O 0.68101 0.58523 0.09407 0.0
C611 C 0.59917 0.51006 0.06468 0.0
Co612 Co 0.64615 0.43501 0.32792 0.0
Co613 Co 0.64663 0.43656 0.30239 0.0
C614 C 0.54557 0.37434 0.31465 0.0
O615 O 0.57021 0.38998 0.32367 0.0
O616 O 0.56913 0.39218 0.30568 0.0
C617 C 0.63316 0.3998 0.34986 0.0
O618 O 0.59872 0.35626 0.34549 0.0
C619 C 0.61302 0.46718 0.27971 0.0
C620 C 0.70321 0.45356 0.27157 0.0
C621 C 0.64237 0.47033 0.26973 0.0
N622 N 0.65492 0.44946 0.28718 0.0
N623 N 0.70861 0.44121 0.28223 0.0
C624 C 0.54668 0.48106 0.28209 0.0
H625 H 0.53935 0.48678 0.29096 0.0
H626 H 0.53214 0.52358 0.27772 0.0
H627 H 0.51762 0.44219 0.27911 0.0
C628 C 0.65754 0.56936 0.32466 0.0
N629 N 0.65155 0.51146 0.3208 0.0
N630 N 0.65275 0.51272 0.31012 0.0
C631 C 0.66011 0.57189 0.30686 0.0
C632 C 0.66317 0.60965 0.31596 0.0
C633 C 0.66273 0.58493 0.33646 0.0
H634 H 0.62192 0.5661 0.34082 0.0
H635 H 0.66548 0.63572 0.33779 0.0
H636 H 0.70462 0.56243 0.33987 0.0
O637 O 0.71431 0.37891 0.32428 0.0
O638 O 0.71082 0.37496 0.30631 0.0
H639 H 0.68194 0.64109 0.29471 0.0
H640 H 0.6245 0.58446 0.29092 0.0
C641 C 0.66868 0.59155 0.29532 0.0
H642 H 0.70479 0.56265 0.29142 0.0
H643 H 0.74915 0.42751 0.28616 0.0
O644 O 0.65426 0.4428 0.34386 0.0
C645 C 0.73231 0.35614 0.31533 0.0
Co646 Co 0.81095 0.39855 0.5782 0.0
Co647 Co 0.80343 0.40142 0.55251 0.0
C648 C 0.87414 0.30316 0.56493 0.0
O649 O 0.85594 0.32324 0.57414 0.0
O650 O 0.85616 0.32909 0.55617 0.0
C651 C 0.81312 0.36549 0.60122 0.0
O652 O 0.81005 0.30785 0.59784 0.0
C653 C 0.77321 0.3608 0.52997 0.0
C654 C 0.77694 0.45099 0.5215 0.0
C655 C 0.76616 0.38859 0.5199 0.0
N656 N 0.78727 0.40517 0.53726 0.0
N657 N 0.78956 0.45883 0.53211 0.0
C658 C 0.76654 0.2936 0.53258 0.0
H659 H 0.76499 0.28639 0.54151 0.0
H660 H 0.7239 0.27493 0.52875 0.0
H661 H 0.80651 0.26802 0.52914 0.0
C662 C 0.67436 0.4046 0.57536 0.0
N663 N 0.73219 0.40111 0.57134 0.0
N664 N 0.72929 0.40218 0.56066 0.0
C665 C 0.66964 0.40714 0.55759 0.0
C666 C 0.63288 0.40887 0.56679 0.0
C667 C 0.65949 0.40989 0.58715 0.0
H668 H 0.68515 0.37382 0.59171 0.0
H669 H 0.60905 0.4047 0.58864 0.0
H670 H 0.67473 0.45605 0.59008 0.0
O671 O 0.86869 0.4632 0.57332 0.0
O672 O 0.85639 0.47395 0.55555 0.0
H673 H 0.6739 0.45553 0.54244 0.0
H674 H 0.59809 0.42488 0.54563 0.0
C675 C 0.64862 0.41608 0.54612 0.0
H676 H 0.65948 0.37371 0.54143 0.0
H677 H 0.79953 0.50104 0.53585 0.0
O678 O 0.8094 0.40929 0.59435 0.0
C679 C 0.88333 0.48833 0.56437 0.0
Co680 Co 0.84379 0.42753 0.66925 0.0
Co681 Co 0.83826 0.43603 0.69484 0.0
C682 C 0.93711 0.36395 0.68243 0.0
O683 O 0.91934 0.38316 0.67315 0.0
O684 O 0.90936 0.38153 0.69105 0.0
C685 C 0.87486 0.4233 0.64617 0.0
O686 O 0.93276 0.42475 0.64943 0.0
C687 C 0.88216 0.46846 0.71704 0.0
C688 C 0.79436 0.46039 0.72615 0.0
C689 C 0.85647 0.4742 0.7273 0.0
N690 N 0.83687 0.4521 0.71008 0.0
N691 N 0.78466 0.44723 0.71562 0.0
C692 C 0.94819 0.47865 0.71392 0.0
H693 H 0.95344 0.47867 0.70495 0.0
H694 H 0.96482 0.52325 0.71734 0.0
H695 H 0.977 0.44121 0.71746 0.0
C696 C 0.84377 0.56454 0.67198 0.0
N697 N 0.84234 0.50667 0.67603 0.0
N698 N 0.83887 0.50996 0.6867 0.0
C699 C 0.83617 0.56986 0.68971 0.0
C700 C 0.83955 0.60637 0.68051 0.0
C701 C 0.84565 0.5797 0.66016 0.0
H702 H 0.87726 0.54735 0.65591 0.0
H703 H 0.86112 0.62815 0.65883 0.0
H704 H 0.79841 0.57424 0.65676 0.0
O705 O 0.77986 0.36933 0.67443 0.0
O706 O 0.76403 0.38562 0.69197 0.0
H707 H 0.813 0.64132 0.70139 0.0
H708 H 0.8701 0.58578 0.70569 0.0
C709 C 0.82635 0.59173 0.70111 0.0
H710 H 0.78984 0.5636 0.70507 0.0
H711 H 0.74216 0.43514 0.71218 0.0
O712 O 0.83168 0.42858 0.65313 0.0
C713 C 0.7523 0.35648 0.68325 0.0
Co714 Co 0.81279 0.61294 0.91849 0.0
Co715 Co 0.80979 0.6132 0.94405 0.0
C716 C 0.87352 0.71342 0.93163 0.0
O717 O 0.85785 0.68889 0.92261 0.0
O718 O 0.85561 0.68988 0.94061 0.0
C719 C 0.80573 0.64654 0.89546 0.0
O720 O 0.79591 0.70383 0.89862 0.0
C721 C 0.78457 0.64772 0.96697 0.0
C722 C 0.78643 0.55491 0.97456 0.0
C723 C 0.77801 0.61706 0.97678 0.0
N724 N 0.79598 0.60521 0.95923 0.0
N725 N 0.79723 0.54997 0.96385 0.0
C726 C 0.78032 0.71583 0.96501 0.0
H727 H 0.76864 0.72521 0.95638 0.0
H728 H 0.74524 0.73699 0.97045 0.0
H729 H 0.8258 0.73728 0.96687 0.0
C730 C 0.6769 0.60214 0.92188 0.0
N731 N 0.73524 0.60814 0.92559 0.0
N732 N 0.73423 0.60835 0.93628 0.0
C733 C 0.67524 0.60231 0.93966 0.0
C734 C 0.63706 0.5981 0.93066 0.0
C735 C 0.66025 0.59381 0.91022 0.0
H736 H 0.67807 0.54831 0.90744 0.0
H737 H 0.6825 0.63081 0.90535 0.0
H738 H 0.60935 0.59528 0.90899 0.0
O739 O 0.8705 0.54686 0.92257 0.0
O740 O 0.86869 0.546 0.94055 0.0
H741 H 0.67901 0.55516 0.95491 0.0
H742 H 0.60501 0.59079 0.95205 0.0
C743 C 0.65594 0.59601 0.95126 0.0
H744 H 0.67072 0.6379 0.95576 0.0
H745 H 0.80521 0.50873 0.95965 0.0
O746 O 0.80892 0.60362 0.90248 0.0
C747 C 0.89013 0.52638 0.93158 0.0
Co748 Co 0.65493 0.56187 0.16778 0.0
Co749 Co 0.6383 0.56049 0.19302 0.0
C750 C 0.54257 0.61543 0.1797 0.0
O751 O 0.57642 0.60371 0.17149 0.0
O752 O 0.55921 0.59864 0.18919 0.0
C753 C 0.62394 0.53002 0.14528 0.0
O754 O 0.58275 0.49091 0.1491 0.0
C755 C 0.6053 0.53924 0.21617 0.0
C756 C 0.69926 0.5347 0.22328 0.0
C757 C 0.63712 0.53058 0.22583 0.0
N758 N 0.64716 0.54759 0.20821 0.0
N759 N 0.70309 0.54513 0.21255 0.0
C760 C 0.53677 0.53969 0.21452 0.0
H761 H 0.52044 0.58841 0.21445 0.0
H762 H 0.52505 0.51868 0.20655 0.0
H763 H 0.51282 0.5146 0.22118 0.0
C764 C 0.67231 0.42678 0.17162 0.0
N765 N 0.65992 0.48492 0.17493 0.0
N766 N 0.64889 0.48443 0.18544 0.0
C767 C 0.65131 0.42561 0.18904 0.0
C768 C 0.6666 0.38734 0.18044 0.0
C769 C 0.69515 0.41001 0.16055 0.0
H770 H 0.71783 0.45048 0.15672 0.0
H771 H 0.65535 0.3953 0.15547 0.0
H772 H 0.72824 0.37077 0.16096 0.0
O773 O 0.72139 0.61847 0.17195 0.0
O774 O 0.70099 0.62507 0.18953 0.0
H775 H 0.68438 0.42364 0.20539 0.0
H776 H 0.64154 0.35543 0.20145 0.0
C777 C 0.64421 0.40657 0.20065 0.0
H778 H 0.60151 0.42747 0.20401 0.0
H779 H 0.74403 0.55007 0.20813 0.0
O780 O 0.65891 0.55921 0.15179 0.0
C781 C 0.73067 0.64278 0.18118 0.0
Co782 Co 0.67402 0.4045 0.41782 0.0
Co783 Co 0.67549 0.38905 0.44327 0.0
C784 C 0.62435 0.29073 0.42941 0.0
O785 O 0.63614 0.32402 0.42115 0.0
O786 O 0.63893 0.30907 0.43893 0.0
C787 C 0.70604 0.37853 0.3951 0.0
O788 O 0.74557 0.33716 0.39871 0.0
C789 C 0.70069 0.35211 0.46623 0.0
C790 C 0.6943 0.44388 0.47414 0.0
C791 C 0.70561 0.382 0.47617 0.0
N792 N 0.6875 0.39488 0.45861 0.0
N793 N 0.68345 0.44944 0.46344 0.0
C794 C 0.70827 0.28452 0.464 0.0
H795 H 0.72623 0.27729 0.45565 0.0
H796 H 0.73972 0.26296 0.47005 0.0
H797 H 0.66236 0.2617 0.46461 0.0
C798 C 0.80818 0.4272 0.42184 0.0
N799 N 0.75044 0.41301 0.42514 0.0
N800 N 0.75089 0.40437 0.43575 0.0
C801 C 0.80912 0.41167 0.43944 0.0
C802 C 0.8471 0.42613 0.43077 0.0
C803 C 0.82489 0.44727 0.4106 0.0
H804 H 0.78446 0.46901 0.40661 0.0
H805 H 0.8394 0.40621 0.40583 0.0
H806 H 0.86418 0.48043 0.41073 0.0
O807 O 0.61344 0.4665 0.42227 0.0
O808 O 0.61063 0.45133 0.44008 0.0
H809 H 0.80452 0.4458 0.45572 0.0
H810 H 0.87864 0.41305 0.45212 0.0
C811 C 0.82779 0.40832 0.45111 0.0
H812 H 0.81291 0.36318 0.45449 0.0
H813 H 0.6738 0.49075 0.45938 0.0
O814 O 0.67634 0.41174 0.40181 0.0
C815 C 0.59072 0.47785 0.43155 0.0
Co816 Co 0.15981 0.42592 0.1695 0.0
Co817 Co 0.16435 0.42736 0.19506 0.0
C818 C 0.06216 0.36392 0.18314 0.0
O819 O 0.08496 0.38014 0.17401 0.0
O820 O 0.0872 0.38167 0.19199 0.0
C821 C 0.1441 0.38863 0.14772 0.0
O822 O 0.11219 0.34445 0.15246 0.0
C823 C 0.13165 0.45783 0.21778 0.0
C824 C 0.22214 0.44484 0.22585 0.0
C825 C 0.16127 0.46137 0.22774 0.0
N826 N 0.17341 0.44023 0.21028 0.0
N827 N 0.2273 0.43237 0.21519 0.0
C828 C 0.06508 0.47105 0.21546 0.0
H829 H 0.05728 0.47608 0.20659 0.0
H830 H 0.05044 0.51379 0.21977 0.0
H831 H 0.03646 0.43222 0.21857 0.0
C832 C 0.16384 0.56094 0.1729 0.0
N833 N 0.16406 0.50259 0.17669 0.0
N834 N 0.16795 0.50368 0.18736 0.0
C835 C 0.17173 0.56315 0.19066 0.0
C836 C 0.16868 0.60134 0.18163 0.0
C837 C 0.16101 0.57725 0.1611 0.0
H838 H 0.12163 0.55249 0.15727 0.0
H839 H 0.15554 0.62789 0.15989 0.0
H840 H 0.20409 0.56139 0.15706 0.0
O841 O 0.22949 0.3706 0.17291 0.0
O842 O 0.2288 0.36676 0.1909 0.0
H843 H 0.21619 0.55374 0.20614 0.0
H844 H 0.19542 0.63242 0.20268 0.0
C845 C 0.18083 0.58321 0.20217 0.0
H846 H 0.13638 0.57779 0.20655 0.0
H847 H 0.26779 0.41883 0.21122 0.0
O848 O 0.16505 0.43301 0.15346 0.0
C849 C 0.24896 0.3479 0.18178 0.0
Co850 Co 0.3136 0.40585 0.9186 0.0
Co851 Co 0.3076 0.41298 0.94418 0.0
C852 C 0.36951 0.30754 0.93279 0.0
O853 O 0.35563 0.32989 0.9235 0.0
O854 O 0.35203 0.33448 0.9415 0.0
C855 C 0.30816 0.365 0.89585 0.0
O856 O 0.29596 0.30917 0.89952 0.0
C857 C 0.2771 0.38757 0.96735 0.0
C858 C 0.28296 0.48269 0.97396 0.0
C859 C 0.27063 0.42204 0.97678 0.0
N860 N 0.29233 0.42648 0.95924 0.0
N861 N 0.29596 0.48312 0.96329 0.0
C862 C 0.26832 0.31934 0.96609 0.0
H863 H 0.26387 0.30675 0.95738 0.0
H864 H 0.22664 0.30411 0.97064 0.0
H865 H 0.30894 0.29508 0.9696 0.0
C866 C 0.17715 0.41887 0.92148 0.0
N867 N 0.23522 0.41401 0.92539 0.0
N868 N 0.23323 0.41683 0.93607 0.0
C869 C 0.17402 0.42383 0.93924 0.0
C870 C 0.13663 0.42534 0.93013 0.0
C871 C 0.1613 0.42339 0.90972 0.0
H872 H 0.17797 0.46861 0.9066 0.0
H873 H 0.185 0.38585 0.90521 0.0
H874 H 0.11055 0.42004 0.90841 0.0
O875 O 0.37253 0.47195 0.92238 0.0
O876 O 0.36783 0.47799 0.94031 0.0
H877 H 0.17783 0.47357 0.95426 0.0
H878 H 0.10287 0.44022 0.95132 0.0
C879 C 0.15362 0.43298 0.95073 0.0
H880 H 0.16606 0.39134 0.9555 0.0
H881 H 0.30687 0.52232 0.95872 0.0
O882 O 0.31204 0.40999 0.90247 0.0
C883 C 0.39091 0.49483 0.9313 0.0
Co884 Co 0.33775 0.57006 0.66936 0.0
Co885 Co 0.34034 0.56416 0.69479 0.0
C886 C 0.43379 0.6357 0.68141 0.0
O887 O 0.41473 0.61456 0.67235 0.0
O888 O 0.40965 0.61988 0.69045 0.0
C889 C 0.36604 0.56615 0.64653 0.0
O890 O 0.42322 0.55559 0.64966 0.0
C891 C 0.38778 0.54076 0.71707 0.0
C892 C 0.29899 0.53388 0.72594 0.0
C893 C 0.36242 0.53096 0.72727 0.0
N894 N 0.34098 0.54876 0.70999 0.0
N895 N 0.28819 0.54481 0.71537 0.0
C896 C 0.45478 0.5428 0.71409 0.0
H897 H 0.46131 0.5258 0.70565 0.0
H898 H 0.48276 0.51491 0.71986 0.0
H899 H 0.47099 0.59154 0.71446 0.0
C900 C 0.33318 0.43319 0.6723 0.0
N901 N 0.33787 0.49136 0.67617 0.0
N902 N 0.34018 0.48924 0.68685 0.0
C903 C 0.33654 0.42982 0.69008 0.0
C904 C 0.33178 0.39239 0.68099 0.0
C905 C 0.32206 0.41751 0.66065 0.0
H906 H 0.27489 0.4331 0.65837 0.0
H907 H 0.35604 0.44229 0.65549 0.0
H908 H 0.32582 0.36687 0.65922 0.0
O909 O 0.27443 0.62791 0.67475 0.0
O910 O 0.2642 0.61245 0.69241 0.0
H911 H 0.28885 0.43032 0.70529 0.0
H912 H 0.3281 0.35831 0.70234 0.0
C913 C 0.33091 0.40949 0.70165 0.0
H914 H 0.37179 0.42599 0.70624 0.0
H915 H 0.24461 0.54928 0.7118 0.0
O916 O 0.32313 0.56838 0.65355 0.0
C917 C 0.24944 0.64093 0.68379 0.0
Co918 Co 0.17234 0.61122 0.41963 0.0
Co919 Co 0.17694 0.61241 0.44521 0.0
C920 C 0.11682 0.71474 0.43278 0.0
O921 O 0.131 0.68902 0.42378 0.0
O922 O 0.13392 0.6909 0.44179 0.0
C923 C 0.17895 0.64354 0.3965 0.0
O924 O 0.19147 0.70054 0.39954 0.0
C925 C 0.20751 0.64414 0.46809 0.0
C926 C 0.2004 0.55104 0.47549 0.0
C927 C 0.21386 0.6122 0.47778 0.0
N928 N 0.19154 0.60318 0.46034 0.0
N929 N 0.18711 0.5478 0.46485 0.0
C930 C 0.21648 0.71191 0.46624 0.0
H931 H 0.17365 0.73667 0.46866 0.0
H932 H 0.22574 0.72125 0.45752 0.0
H933 H 0.25506 0.72964 0.47133 0.0
C934 C 0.30766 0.59343 0.42282 0.0
N935 N 0.24997 0.60295 0.42661 0.0
N936 N 0.25157 0.60336 0.4373 0.0
C937 C 0.31022 0.59362 0.4406 0.0
C938 C 0.34748 0.58689 0.43156 0.0
C939 C 0.32341 0.58456 0.41113 0.0
H940 H 0.30453 0.53933 0.40842 0.0
H941 H 0.30172 0.62187 0.40626 0.0
H942 H 0.37428 0.58491 0.40984 0.0
O943 O 0.11244 0.54762 0.4239 0.0
O944 O 0.11547 0.54769 0.44188 0.0
H945 H 0.30421 0.54822 0.45599 0.0
H946 H 0.38037 0.578 0.45288 0.0
C947 C 0.32994 0.58692 0.45217 0.0
H948 H 0.3188 0.63026 0.45656 0.0
H949 H 0.17557 0.50753 0.46062 0.0
O950 O 0.17444 0.60118 0.40361 0.0
C951 C 0.09285 0.52834 0.43299 0.0
Co952 Co 0.14841 0.56936 0.32979 0.0
Co953 Co 0.14965 0.56329 0.30422 0.0
C954 C 0.04962 0.62968 0.3162 0.0
O955 O 0.07333 0.61448 0.32531 0.0
O956 O 0.0735 0.61076 0.30731 0.0
C957 C 0.11162 0.57779 0.35234 0.0
O958 O 0.0549 0.58317 0.34864 0.0
C959 C 0.11954 0.53545 0.28109 0.0
C960 C 0.21425 0.5334 0.27428 0.0
C961 C 0.1526 0.52619 0.27158 0.0
N962 N 0.16022 0.54719 0.28912 0.0
N963 N 0.21661 0.54611 0.28495 0.0
C964 C 0.05092 0.53295 0.2825 0.0
H965 H 0.03877 0.52669 0.29119 0.0
H966 H 0.03108 0.49475 0.27756 0.0
H967 H 0.03062 0.57706 0.27955 0.0
C968 C 0.15806 0.43326 0.32692 0.0
N969 N 0.15304 0.49119 0.32298 0.0
N970 N 0.15215 0.4888 0.3123 0.0
C971 C 0.15597 0.42924 0.30915 0.0
C972 C 0.15996 0.39212 0.31828 0.0
C973 C 0.1657 0.41827 0.33868 0.0
H974 H 0.20378 0.44668 0.34212 0.0
H975 H 0.12235 0.43059 0.34299 0.0
H976 H 0.17563 0.36836 0.33995 0.0
O977 O 0.21515 0.62637 0.32572 0.0
O978 O 0.2175 0.62155 0.30777 0.0
H979 H 0.2019 0.42803 0.29376 0.0
H980 H 0.16168 0.3569 0.29698 0.0
C981 C 0.15991 0.40816 0.2976 0.0
H982 H 0.11871 0.42503 0.29315 0.0
H983 H 0.25692 0.55363 0.28944 0.0
O984 O 0.15559 0.56608 0.34582 0.0
C985 C 0.23637 0.64453 0.31667 0.0
Co986 Co 0.17497 0.40521 0.0792 0.0
Co987 Co 0.17729 0.4085 0.05382 0.0
C988 C 0.10532 0.31477 0.06402 0.0
O989 O 0.11871 0.33928 0.07316 0.0
O990 O 0.13051 0.3322 0.0552 0.0
C991 C 0.20549 0.36487 0.10193 0.0
O992 O 0.2479 0.32663 0.09827 0.0
C993 C 0.20004 0.38932 0.03041 0.0
C994 C 0.20544 0.48609 0.02462 0.0
C995 C 0.20943 0.42515 0.02124 0.0
N996 N 0.19117 0.42748 0.03891 0.0
N997 N 0.19408 0.48522 0.03537 0.0
C998 C 0.20002 0.32022 0.03108 0.0
H999 H 0.21421 0.30492 0.03932 0.0
H1000 H 0.2313 0.30009 0.02486 0.0
H1001 H 0.15241 0.30307 0.02951 0.0
C1002 C 0.31228 0.41171 0.07588 0.0
N1003 N 0.25345 0.40528 0.07235 0.0
N1004 N 0.25352 0.40411 0.06164 0.0
C1005 C 0.31242 0.40683 0.0581 0.0
C1006 C 0.35148 0.41199 0.06696 0.0
C1007 C 0.33013 0.42814 0.08726 0.0
H1008 H 0.28977 0.44645 0.09175 0.0
H1009 H 0.34806 0.38622 0.0914 0.0
H1010 H 0.3677 0.46327 0.08728 0.0
O1011 O 0.13371 0.48461 0.07684 0.0
O1012 O 0.11677 0.47078 0.0593 0.0
H1013 H 0.31348 0.45529 0.04297 0.0
H1014 H 0.38212 0.40981 0.04548 0.0
C1015 C 0.33105 0.4113 0.04644 0.0
H1016 H 0.31045 0.37212 0.0419 0.0
H1017 H 0.18891 0.52408 0.04033 0.0
O1018 O 0.17479 0.39776 0.0953 0.0
C1019 C 0.10421 0.4974 0.06824 0.0
Co1020 Co 0.34951 0.4295 0.82834 0.0
Co1021 Co 0.34318 0.4372 0.80284 0.0
C1022 C 0.44231 0.36524 0.81524 0.0
O1023 O 0.42506 0.38519 0.8245 0.0
O1024 O 0.41417 0.38231 0.80662 0.0
C1025 C 0.37859 0.41796 0.85126 0.0
O1026 O 0.43589 0.41004 0.84799 0.0
C1027 C 0.38723 0.46885 0.7807 0.0
C1028 C 0.2994 0.46161 0.77156 0.0
C1029 C 0.36168 0.47474 0.77044 0.0
N1030 N 0.34173 0.45306 0.78764 0.0
N1031 N 0.28948 0.44871 0.78209 0.0
C1032 C 0.45336 0.47828 0.78384 0.0
H1033 H 0.45853 0.47845 0.79281 0.0
H1034 H 0.47061 0.52257 0.7804 0.0
H1035 H 0.48172 0.44039 0.78033 0.0
C1036 C 0.34885 0.56595 0.82566 0.0
N1037 N 0.34781 0.50822 0.82156 0.0
N1038 N 0.34412 0.51155 0.81091 0.0
C1039 C 0.34098 0.57153 0.80794 0.0
C1040 C 0.34421 0.60795 0.81718 0.0
C1041 C 0.35078 0.58053 0.8375 0.0
H1042 H 0.38619 0.55111 0.84148 0.0
H1043 H 0.36158 0.63014 0.83893 0.0
H1044 H 0.30494 0.5697 0.84109 0.0
O1045 O 0.28549 0.37122 0.82328 0.0
O1046 O 0.2688 0.38695 0.80576 0.0
H1047 H 0.29396 0.56558 0.79264 0.0
H1048 H 0.31788 0.64319 0.79631 0.0
C1049 C 0.33083 0.59348 0.79656 0.0
H1050 H 0.37431 0.5871 0.79193 0.0
H1051 H 0.24685 0.4371 0.78552 0.0
O1052 O 0.33694 0.43171 0.84437 0.0
C1053 C 0.25744 0.35812 0.81452 0.0
Co1054 Co 0.30594 0.59312 0.57969 0.0
Co1055 Co 0.3074 0.5964 0.55424 0.0
C1056 C 0.37113 0.69347 0.56655 0.0
O1057 O 0.35589 0.66696 0.57544 0.0
O1058 O 0.35093 0.67322 0.55751 0.0
C1059 C 0.30672 0.63256 0.60215 0.0
O1060 O 0.3119 0.68914 0.59835 0.0
C1061 C 0.28265 0.63045 0.53141 0.0
C1062 C 0.28974 0.53891 0.52345 0.0
C1063 C 0.27791 0.6008 0.52148 0.0
N1064 N 0.29623 0.58773 0.53899 0.0
N1065 N 0.30073 0.53322 0.53416 0.0
C1066 C 0.27386 0.69792 0.53361 0.0
H1067 H 0.26624 0.70623 0.54241 0.0
H1068 H 0.2341 0.71593 0.52885 0.0
H1069 H 0.31588 0.72333 0.53096 0.0
C1070 C 0.17093 0.58391 0.57579 0.0
N1071 N 0.22974 0.59016 0.57234 0.0
N1072 N 0.23039 0.59196 0.56166 0.0
C1073 C 0.17178 0.58781 0.55801 0.0
C1074 C 0.13224 0.58248 0.56681 0.0
C1075 C 0.15292 0.57461 0.58738 0.0
H1076 H 0.1825 0.53817 0.59103 0.0
H1077 H 0.16116 0.61844 0.59185 0.0
H1078 H 0.10342 0.56154 0.58817 0.0
O1079 O 0.35864 0.52162 0.57633 0.0
O1080 O 0.36901 0.53275 0.55854 0.0
H1081 H 0.17825 0.54691 0.54222 0.0
H1082 H 0.10314 0.57974 0.54524 0.0
C1083 C 0.15383 0.58561 0.5463 0.0
H1084 H 0.16798 0.62966 0.54243 0.0
H1085 H 0.31077 0.49198 0.53821 0.0
O1086 O 0.29817 0.58776 0.59565 0.0
C1087 C 0.38486 0.50762 0.56745 0.0
C1088 C 0.35297 0.77675 0.31901 0.0
C1089 C 0.31206 0.82788 0.31807 0.0
C1090 C 0.22514 0.75836 0.31475 0.0
C1091 C 0.26482 0.70669 0.31643 0.0
N1092 N 0.36433 0.66535 0.32135 0.0
N1093 N 0.2077 0.86771 0.31747 0.0
C1094 C 0.32825 0.71545 0.31894 0.0
C1095 C 0.24771 0.81876 0.31666 0.0
N1096 N 0.41526 0.78695 0.31975 0.0
N1097 N 0.16586 0.75003 0.31113 0.0
H1098 H 0.22205 0.91319 0.3188 0.0
H1099 H 0.15979 0.86266 0.31788 0.0
H1100 H 0.146 0.70681 0.30988 0.0
H1101 H 0.13795 0.78613 0.30841 0.0
H1102 H 0.4482 0.75187 0.31942 0.0
H1103 H 0.43435 0.83133 0.32011 0.0
H1104 H 0.40937 0.66866 0.3243 0.0
H1105 H 0.34773 0.62 0.32094 0.0
C1106 C 0.42264 0.99251 0.56617 0.0
C1107 C 0.41397 0.05603 0.56855 0.0
C1108 C 0.52637 0.07147 0.56967 0.0
C1109 C 0.53488 0.00916 0.56637 0.0
N1110 N 0.49149 0.91202 0.56004 0.0
N1111 N 0.45537 0.15813 0.57163 0.0
C1112 C 0.48311 0.97027 0.56417 0.0
C1113 C 0.46526 0.09624 0.57006 0.0
N1114 N 0.37311 0.95286 0.56615 0.0
N1115 N 0.57659 0.1064 0.57253 0.0
H1116 H 0.41114 0.17719 0.57227 0.0
H1117 H 0.49055 0.19107 0.57171 0.0
H1118 H 0.6219 0.09008 0.57187 0.0
H1119 H 0.57347 0.15006 0.57607 0.0
H1120 H 0.37736 0.90484 0.56589 0.0
H1121 H 0.32757 0.96719 0.56737 0.0
H1122 H 0.45569 0.8851 0.5569 0.0
H1123 H 0.53463 0.89186 0.5589 0.0
C1124 C 0.1503 0.2209 0.81952 0.0
C1125 C 0.19177 0.17213 0.81693 0.0
C1126 C 0.26783 0.24644 0.8103 0.0
C1127 C 0.22945 0.29583 0.8139 0.0
N1128 N 0.13694 0.33121 0.82283 0.0
N1129 N 0.29548 0.13895 0.81251 0.0
C1130 C 0.17132 0.2834 0.81878 0.0
C1131 C 0.25212 0.18504 0.81308 0.0
N1132 N 0.09088 0.2074 0.82249 0.0
N1133 N 0.31934 0.25777 0.80415 0.0
H1134 H 0.2865 0.09322 0.81472 0.0
H1135 H 0.34219 0.14725 0.81096 0.0
H1136 H 0.33316 0.30179 0.80177 0.0
H1137 H 0.34484 0.22286 0.8004 0.0
H1138 H 0.05665 0.24079 0.82351 0.0
H1139 H 0.07482 0.16206 0.82334 0.0
H1140 H 0.09729 0.32506 0.82751 0.0
H1141 H 0.15004 0.37745 0.8219 0.0
C1142 C 0.05384 0.97531 0.06168 0.0
C1143 C 0.07 0.91882 0.06674 0.0
C1144 C 0.96017 0.89622 0.0699 0.0
C1145 C 0.94444 0.95004 0.06392 0.0
N1146 N 0.97713 0.03107 0.0515 0.0
N1147 N 0.03957 0.82067 0.07439 0.0
C1148 C 0.99148 0.98615 0.0589 0.0
C1149 C 0.02342 0.87761 0.07048 0.0
N1150 N 0.09763 0.0201 0.05997 0.0
N1151 N 0.91484 0.86368 0.07512 0.0
H1152 H 0.08553 0.80631 0.07505 0.0
H1153 H 0.00751 0.7863 0.07628 0.0
H1154 H 0.86799 0.87466 0.07432 0.0
H1155 H 0.9238 0.8279 0.08056 0.0
H1156 H 0.08685 0.06465 0.05733 0.0
H1157 H 0.14373 0.01537 0.06234 0.0
H1158 H 0.01054 0.05442 0.04697 0.0
H1159 H 0.93241 0.04033 0.04887 0.0
C1160 C 0.33998 0.27502 0.18311 0.0
C1161 C 0.27595 0.28512 0.18136 0.0
C1162 C 0.25712 0.17335 0.18087 0.0
C1163 C 0.32171 0.16306 0.18153 0.0
N1164 N 0.42597 0.2023 0.18243 0.0
N1165 N 0.1749 0.24416 0.17663 0.0
C1166 C 0.3637 0.21345 0.18242 0.0
C1167 C 0.23502 0.23437 0.17965 0.0
N1168 N 0.37758 0.32405 0.18552 0.0
N1169 N 0.21638 0.12502 0.18185 0.0
H1170 H 0.15535 0.28781 0.17594 0.0
H1171 H 0.14573 0.20909 0.17386 0.0
H1172 H 0.22991 0.07898 0.18271 0.0
H1173 H 0.16888 0.13101 0.18287 0.0
H1174 H 0.42359 0.31954 0.1879 0.0
H1175 H 0.36142 0.36958 0.18573 0.0
H1176 H 0.45936 0.23699 0.18207 0.0
H1177 H 0.44438 0.15765 0.18217 0.0
C1178 C 0.03022 0.11838 0.4298 0.0
C1179 C 0.07692 0.07628 0.43313 0.0
C1180 C -0.00134 0.00527 0.44009 0.0
C1181 C 0.9515 0.0436 0.43566 0.0
N1182 N 0.92124 0.13418 0.42561 0.0
N1183 N 0.10531 0.97315 0.43888 0.0
C1184 C 0.96695 0.09967 0.43031 0.0
C1185 C 0.06111 0.01794 0.43758 0.0
N1186 N 0.04643 0.17613 0.42626 0.0
N1187 N 0.98422 0.95646 0.44671 0.0
H1188 H 0.1517 0.97947 0.43683 0.0
H1189 H 0.09491 0.9274 0.44088 0.0
H1190 H 0.93931 0.94475 0.44891 0.0
H1191 H 0.01739 0.93137 0.45099 0.0
H1192 H 0.01456 0.21091 0.42458 0.0
H1193 H 0.09242 0.19052 0.42562 0.0
H1194 H 0.92963 0.17204 0.42059 0.0
H1195 H 0.87443 0.12295 0.42638 0.0
C1196 C 0.13989 0.77638 0.67912 0.0
C1197 C 0.18029 0.82571 0.68192 0.0
C1198 C 0.25712 0.75234 0.68859 0.0
C1199 C 0.22016 0.70252 0.68467 0.0
N1200 N 0.12883 0.66626 0.67543 0.0
N1201 N 0.2826 0.86076 0.68685 0.0
C1202 C 0.16211 0.71429 0.67969 0.0
C1203 C 0.24038 0.8137 0.68595 0.0
N1204 N 0.08026 0.78889 0.67615 0.0
N1205 N 0.3085 0.74158 0.6948 0.0
H1206 H 0.27287 0.90643 0.6847 0.0
H1207 H 0.32924 0.85356 0.68859 0.0
H1208 H 0.3245 0.69777 0.69684 0.0
H1209 H 0.33247 0.77666 0.69883 0.0
H1210 H 0.04668 0.75487 0.67502 0.0
H1211 H 0.06331 0.83395 0.67543 0.0
H1212 H 0.08942 0.67217 0.67067 0.0
H1213 H 0.14257 0.62016 0.67626 0.0
C1214 C 0.52876 0.92626 0.93434 0.0
C1215 C 0.54313 0.98297 0.92913 0.0
C1216 C 0.43316 0.00373 0.92626 0.0
C1217 C 0.41878 0.94471 0.93056 0.0
N1218 N 0.45212 0.84565 0.93741 0.0
N1219 N 0.50961 0.06807 0.91767 0.0
C1220 C 0.46644 0.90453 0.93421 0.0
C1221 C 0.49559 0.01908 0.92426 0.0
N1222 N 0.5744 0.89393 0.93952 0.0
N1223 N 0.38755 0.04675 0.92466 0.0
H1224 H 0.55451 0.08124 0.91574 0.0
H1225 H 0.47645 0.09156 0.91311 0.0
H1226 H 0.341 0.03852 0.92637 0.0
H1227 H 0.39666 0.09291 0.92277 0.0
H1228 H 0.56602 0.85571 0.94446 0.0
H1229 H 0.62077 0.90756 0.9393 0.0
H1230 H 0.48524 0.8123 0.93927 0.0
H1231 H 0.40685 0.82874 0.93748 0.0
C1232 C 0.66614 0.28109 0.67933 0.0
C1233 C 0.72469 0.29406 0.68402 0.0
C1234 C 0.74752 0.1834 0.68513 0.0
C1235 C 0.68681 0.17005 0.6815 0.0
N1236 N 0.58546 0.20462 0.67607 0.0
N1237 N 0.81544 0.25706 0.69365 0.0
C1238 C 0.6451 0.2185 0.67886 0.0
C1239 C 0.76343 0.24508 0.68767 0.0
N1240 N 0.63137 0.32843 0.67522 0.0
N1241 N 0.79103 0.13746 0.68571 0.0
H1242 H 0.8294 0.30129 0.69589 0.0
H1243 H 0.8413 0.22254 0.69744 0.0
H1244 H 0.78194 0.09147 0.68367 0.0
H1245 H 0.83789 0.14601 0.68707 0.0
H1246 H 0.59126 0.32178 0.67068 0.0
H1247 H 0.64456 0.37477 0.67596 0.0
H1248 H 0.55115 0.23786 0.675 0.0
H1249 H 0.56935 0.15918 0.67542 0.0
C1250 C 0.54653 0.98579 0.42455 0.0
C1251 C 0.57081 0.93432 0.4302 0.0
C1252 C 0.46557 0.90336 0.43543 0.0
C1253 C 0.44162 0.9523 0.42903 0.0
N1254 N 0.46039 0.02573 0.41444 0.0
N1255 N 0.5535 0.83684 0.4393 0.0
C1256 C 0.48233 0.98856 0.42254 0.0
C1257 C 0.53029 0.89058 0.4351 0.0
N1258 N 0.58392 0.03417 0.42164 0.0
N1259 N 0.42669 0.87006 0.44194 0.0
H1260 H 0.60057 0.82608 0.4391 0.0
H1261 H 0.52572 0.80094 0.44215 0.0
H1262 H 0.37879 0.87655 0.44186 0.0
H1263 H 0.44211 0.83833 0.4477 0.0
H1264 H 0.56667 0.07572 0.41856 0.0
H1265 H 0.63105 0.03588 0.42344 0.0
H1266 H 0.48938 0.04921 0.40907 0.0
H1267 H 0.41421 0.02709 0.41213 0.0
C1268 C 0.74571 0.81722 0.18103 0.0
C1269 C 0.81088 0.82441 0.18118 0.0
C1270 C 0.82435 0.71176 0.18248 0.0
C1271 C 0.75945 0.70469 0.18142 0.0
N1272 N 0.65873 0.74935 0.17791 0.0
N1273 N 0.91334 0.78047 0.18114 0.0
C1274 C 0.72024 0.75706 0.18021 0.0
C1275 C 0.85066 0.77216 0.18166 0.0
N1276 N 0.70794 0.86782 0.182 0.0
N1277 N 0.8603 0.66094 0.18445 0.0
H1278 H 0.93383 0.82421 0.18078 0.0
H1279 H 0.94494 0.74437 0.18039 0.0
H1280 H 0.842 0.61625 0.1849 0.0
H1281 H 0.90722 0.66315 0.18633 0.0
H1282 H 0.66044 0.86475 0.18335 0.0
H1283 H 0.72428 0.9132 0.18237 0.0
H1284 H 0.62974 0.78538 0.17554 0.0
H1285 H 0.63734 0.70622 0.1775 0.0
C1286 C 0.99065 -0.00034 0.93852 0.0
C1287 C 0.04048 0.03593 0.93443 0.0
C1288 C 0.96717 0.11598 0.92862 0.0
C1289 C 0.91766 0.07674 0.93179 0.0
N1290 N 0.88166 0.97575 0.93736 0.0
N1291 N 0.07725 0.12554 0.92477 0.0
C1292 C 0.9292 0.01712 0.9361 0.0
C1293 C 0.02906 0.09336 0.92923 0.0
N1294 N 0.00164 0.94823 0.94471 0.0
N1295 N 0.95494 0.1749 0.92519 0.0
H1296 H 0.12322 0.11146 0.9256 0.0
H1297 H 0.07169 0.1643 0.91984 0.0
H1298 H 0.91003 0.19221 0.92447 0.0
H1299 H 0.98906 0.20778 0.92366 0.0
H1300 H 0.96699 0.9249 0.94895 0.0
H1301 H 0.04558 0.93175 0.94654 0.0
H1302 H 0.88839 0.92914 0.9392 0.0
H1303 H 0.83574 0.98595 0.93548 0.0
C1304 C 0.66566 0.71478 0.81903 0.0
C1305 C 0.72341 0.703 0.81394 0.0
C1306 C 0.74386 0.81418 0.81278 0.0
C1307 C 0.68397 0.82623 0.81688 0.0
N1308 N 0.58412 0.78946 0.82274 0.0
N1309 N 0.81118 0.74229 0.80369 0.0
C1310 C 0.6436 0.77691 0.81968 0.0
C1311 C 0.76026 0.75289 0.81003 0.0
N1312 N 0.63251 0.66673 0.8233 0.0
N1313 N 0.78619 0.86113 0.8119 0.0
H1314 H 0.8268 0.69854 0.80152 0.0
H1315 H 0.83501 0.7775 0.79969 0.0
H1316 H 0.77666 0.90676 0.81412 0.0
H1317 H 0.83274 0.85383 0.8101 0.0
H1318 H 0.59338 0.67264 0.82813 0.0
H1319 H 0.64612 0.62063 0.82241 0.0
H1320 H 0.55051 0.75548 0.82385 0.0
H1321 H 0.56732 0.83454 0.82353 0.0
C1322 C 0.02667 0.91837 0.56697 0.0
C1323 C 0.03469 0.98297 0.56556 0.0
C1324 C 0.92245 -0.00108 0.56633 0.0
C1325 C 0.91415 0.93398 0.56696 0.0
N1326 N 0.95613 0.83072 0.56646 0.0
N1327 N 0.99042 0.08414 0.5621 0.0
C1328 C 0.96567 0.89324 0.56688 0.0
C1329 C 0.98261 0.02301 0.56469 0.0
N1330 N 0.07722 0.88146 0.56857 0.0
N1331 N 0.87295 0.03786 0.56759 0.0
H1332 H 0.03348 0.10481 0.56114 0.0
H1333 H 0.95418 0.11354 0.55999 0.0
H1334 H 0.82747 0.0225 0.56845 0.0
H1335 H 0.87725 0.0855 0.56869 0.0
H1336 H 0.0744 0.83504 0.5708 0.0
H1337 H 0.12244 0.89844 0.56825 0.0
H1338 H 0.99139 0.79885 0.56509 0.0
H1339 H 0.91208 0.81089 0.56673 0.0
C1340 C 0.85062 0.22522 0.31453 0.0
C1341 C 0.8108 0.17384 0.31629 0.0
C1342 C 0.72184 0.24259 0.31804 0.0
C1343 C 0.76075 0.29406 0.31567 0.0
N1344 N 0.85982 0.33524 0.31045 0.0
N1345 N 0.70734 0.13174 0.31742 0.0
C1346 C 0.82461 0.28565 0.31353 0.0
C1347 C 0.74612 0.18198 0.31742 0.0
N1348 N 0.91316 0.21609 0.31401 0.0
N1349 N 0.66154 0.25149 0.32105 0.0
H1350 H 0.72278 0.08607 0.31709 0.0
H1351 H 0.65939 0.13515 0.31677 0.0
H1352 H 0.63998 0.29444 0.32099 0.0
H1353 H 0.63388 0.21684 0.32438 0.0
H1354 H 0.94538 0.25184 0.31365 0.0
H1355 H 0.93328 0.17228 0.31457 0.0
H1356 H 0.90537 0.33179 0.30777 0.0
H1357 H 0.84201 0.38007 0.30996 0.0
C1358 C 0.52548 0.09916 0.06479 0.0
C1359 C 0.57232 0.05837 0.06857 0.0
C1360 C 0.49381 0.98594 0.07497 0.0
C1361 C 0.44712 0.02236 0.06991 0.0
N1362 N 0.41794 0.11134 0.05933 0.0
N1363 N 0.60139 0.95642 0.07485 0.0
C1364 C 0.46277 0.07853 0.06463 0.0
C1365 C 0.55666 8e-05 0.07304 0.0
N1366 N 0.54097 0.15757 0.0615 0.0
N1367 N 0.47863 0.93765 0.08165 0.0
H1368 H 0.64819 0.96358 0.07322 0.0
H1369 H 0.59135 0.91063 0.07686 0.0
H1370 H 0.43344 0.92503 0.08347 0.0
H1371 H 0.51109 0.91416 0.08636 0.0
H1372 H 0.5085 0.19151 0.05961 0.0
H1373 H 0.58657 0.17358 0.06143 0.0
H1374 H 0.42725 0.14909 0.05433 0.0
H1375 H 0.37132 0.09861 0.05953 0.0
C1376 C 0.85236 0.27784 0.81738 0.0
C1377 C 0.81132 0.32913 0.81717 0.0
C1378 C 0.72284 0.25997 0.81486 0.0
C1379 C 0.76321 0.20821 0.8158 0.0
N1380 N 0.86454 0.16628 0.81917 0.0
N1381 N 0.70717 0.36977 0.8175 0.0
C1382 C 0.82758 0.21664 0.81743 0.0
C1383 C 0.74647 0.32039 0.81643 0.0
N1384 N 0.91485 0.28781 0.81728 0.0
N1385 N 0.66182 0.25154 0.81225 0.0
H1386 H 0.72215 0.41545 0.81826 0.0
H1387 H 0.65953 0.36531 0.81851 0.0
H1388 H 0.6414 0.20822 0.81142 0.0
H1389 H 0.63217 0.28739 0.81004 0.0
H1390 H 0.94733 0.25276 0.81623 0.0
H1391 H 0.93427 0.33205 0.8176 0.0
H1392 H 0.91074 0.16929 0.82152 0.0
H1393 H 0.84776 0.12096 0.81886 0.0
C1394 C 0.02871 0.58389 0.06472 0.0
C1395 C 0.04208 0.52525 0.06933 0.0
C1396 C 0.93156 0.50425 0.07154 0.0
C1397 C 0.91816 0.56474 0.06785 0.0
N1398 N 0.95293 0.66591 0.06226 0.0
N1399 N 0.00633 0.43606 0.07961 0.0
C1400 C 0.9665 0.60589 0.06484 0.0
C1401 C 0.99363 0.4877 0.07358 0.0
N1402 N 0.07521 0.61788 0.06014 0.0
N1403 N 0.88533 0.46123 0.07255 0.0
H1404 H 0.05075 0.42107 0.08145 0.0
H1405 H 0.97244 0.41138 0.0838 0.0
H1406 H 0.83897 0.4706 0.07088 0.0
H1407 H 0.89374 0.41435 0.07392 0.0
H1408 H 0.06769 0.65793 0.05562 0.0
H1409 H 0.12147 0.604 0.0604 0.0
H1410 H 0.98645 0.69978 0.06097 0.0
H1411 H 0.90774 0.68296 0.06216 0.0
C1412 C 0.77063 0.74484 0.32102 0.0
C1413 C 0.7333 0.79566 0.31767 0.0
C1414 C 0.6474 0.7246 0.31386 0.0
C1415 C 0.68677 0.67396 0.31637 0.0
N1416 N 0.78962 0.63489 0.31981 0.0
N1417 N 0.63905 0.83463 0.30981 0.0
C1418 C 0.74938 0.68378 0.31927 0.0
C1419 C 0.67239 0.78577 0.31375 0.0
N1420 N 0.82652 0.75456 0.32596 0.0
N1421 N 0.58612 0.71415 0.31178 0.0
H1422 H 0.65546 0.88009 0.31005 0.0
H1423 H 0.5969 0.82995 0.3058 0.0
H1424 H 0.56685 0.66982 0.31166 0.0
H1425 H 0.55364 0.74929 0.31085 0.0
H1426 H 0.85138 0.71958 0.32982 0.0
H1427 H 0.84594 0.79806 0.3271 0.0
H1428 H 0.83739 0.64015 0.32055 0.0
H1429 H 0.77649 0.58909 0.31843 0.0
C1430 C 0.45691 0.41732 0.56451 0.0
C1431 C 0.44692 0.47904 0.56801 0.0
C1432 C 0.55864 0.49524 0.56988 0.0
C1433 C 0.56853 0.43212 0.56733 0.0
N1434 N 0.52839 0.33058 0.56329 0.0
N1435 N 0.48753 0.57348 0.57599 0.0
C1436 C 0.51796 0.39228 0.56495 0.0
C1437 C 0.49752 0.51682 0.57134 0.0
N1438 N 0.4083 0.38325 0.56066 0.0
N1439 N 0.60749 0.53564 0.57035 0.0
H1440 H 0.44398 0.593 0.57693 0.0
H1441 H 0.52219 0.59897 0.57983 0.0
H1442 H 0.65341 0.52238 0.56922 0.0
H1443 H 0.60218 0.58353 0.5708 0.0
H1444 H 0.41317 0.34022 0.55694 0.0
H1445 H 0.36293 0.39987 0.56063 0.0
H1446 H 0.49325 0.29791 0.56248 0.0
H1447 H 0.57265 0.31125 0.56342 0.0
C1448 C 0.75882 0.75559 0.67311 0.0
C1449 C 0.79579 0.80019 0.67863 0.0
C1450 C 0.86807 0.71802 0.68387 0.0
C1451 C 0.82573 0.67336 0.67977 0.0
N1452 N 0.72309 0.64991 0.67312 0.0
N1453 N 0.88373 0.82422 0.68987 0.0
C1454 C 0.76901 0.69213 0.6751 0.0
C1455 C 0.85011 0.78152 0.68419 0.0
N1456 N 0.71397 0.77317 0.66591 0.0
N1457 N 0.92534 0.69978 0.68732 0.0
H1458 H 0.8731 0.87138 0.68978 0.0
H1459 H 0.92001 0.81262 0.69506 0.0
H1460 H 0.93953 0.6536 0.68722 0.0
H1461 H 0.96022 0.73067 0.68951 0.0
H1462 H 0.68992 0.74165 0.66107 0.0
H1463 H 0.70578 0.81881 0.6637 0.0
H1464 H 0.67829 0.66268 0.6709 0.0
H1465 H 0.7273 0.60285 0.67485 0.0
C1466 C 0.56523 0.50822 0.93178 0.0
C1467 C 0.57339 0.57291 0.93055 0.0
C1468 C 0.4609 0.58749 0.92929 0.0
C1469 C 0.4529 0.52353 0.93144 0.0
N1470 N 0.49652 0.42402 0.93629 0.0
N1471 N 0.53104 0.6757 0.92907 0.0
C1472 C 0.50482 0.48426 0.93315 0.0
C1473 C 0.52174 0.61313 0.92955 0.0
N1474 N 0.61518 0.46929 0.93128 0.0
N1475 N 0.4105 0.62315 0.92689 0.0
H1476 H 0.5751 0.69556 0.92899 0.0
H1477 H 0.49549 0.70813 0.92936 0.0
H1478 H 0.36542 0.60572 0.927 0.0
H1479 H 0.41331 0.66875 0.9242 0.0
H1480 H 0.61139 0.42131 0.93072 0.0
H1481 H 0.66069 0.48467 0.93047 0.0
H1482 H 0.53223 0.39576 0.93905 0.0
H1483 H 0.45329 0.40322 0.93698 0.0
C1484 C 0.77889 0.25511 0.18446 0.0
C1485 C 0.73966 0.20303 0.18272 0.0
C1486 C 0.65245 0.27215 0.17887 0.0
C1487 C 0.69101 0.32363 0.18127 0.0
N1488 N 0.78807 0.3649 0.18785 0.0
N1489 N 0.63854 0.16028 0.17947 0.0
C1490 C 0.75325 0.31528 0.18456 0.0
C1491 C 0.67612 0.21105 0.18025 0.0
N1492 N 0.84155 0.24751 0.18537 0.0
N1493 N 0.59378 0.28193 0.17507 0.0
H1494 H 0.65512 0.1152 0.1804 0.0
H1495 H 0.59063 0.16266 0.17868 0.0
H1496 H 0.57467 0.32608 0.17428 0.0
H1497 H 0.56533 0.24694 0.17208 0.0
H1498 H 0.87318 0.28389 0.18508 0.0
H1499 H 0.86291 0.2045 0.18553 0.0
H1500 H 0.83041 0.36053 0.19183 0.0
H1501 H 0.77327 0.41071 0.18731 0.0
C1502 C 0.97892 0.53953 0.43467 0.0
C1503 C 0.03087 0.49992 0.43319 0.0
C1504 C 0.96215 0.41072 0.43087 0.0
C1505 C 0.91057 0.45121 0.43148 0.0
N1506 N 0.86837 0.55441 0.4328 0.0
N1507 N 0.07365 0.39998 0.42893 0.0
C1508 C 0.91853 0.51568 0.43309 0.0
C1509 C 0.02302 0.43599 0.43103 0.0
N1510 N 0.98728 0.59999 0.43771 0.0
N1511 N 0.95275 0.34816 0.43036 0.0
H1512 H 0.11884 0.41692 0.4294 0.0
H1513 H 0.07102 0.35451 0.42615 0.0
H1514 H 0.90874 0.32834 0.42991 0.0
H1515 H 0.98806 0.31573 0.43112 0.0
H1516 H 0.95162 0.62898 0.44025 0.0
H1517 H 0.03054 0.62072 0.43847 0.0
H1518 H 0.87168 0.60245 0.43242 0.0
H1519 H 0.82284 0.5388 0.43216 0.0
C1520 C 0.15641 0.77638 0.18588 0.0
C1521 C 0.20888 0.79639 0.17992 0.0
C1522 C 0.23713 0.6888 0.17625 0.0
C1523 C 0.18176 0.66869 0.18121 0.0
N1524 N 0.08329 0.69311 0.18939 0.0
N1525 N 0.28764 0.7708 0.1666 0.0
C1526 C 0.13954 0.71246 0.18562 0.0
C1527 C 0.24539 0.75242 0.17417 0.0
N1528 N 0.12347 0.81819 0.19186 0.0
N1529 N 0.28349 0.64766 0.17397 0.0
H1530 H 0.29327 0.81654 0.16428 0.0
H1531 H 0.31138 0.73983 0.16161 0.0
H1532 H 0.28064 0.60054 0.17575 0.0
H1533 H 0.32747 0.66148 0.17145 0.0
H1534 H 0.08877 0.8056 0.19731 0.0
H1535 H 0.13322 0.86555 0.19174 0.0
H1536 H 0.04837 0.72336 0.1918 0.0
H1537 H 0.06985 0.64668 0.18933 0.0
C1538 C 0.0043 0.5383 0.93228 0.0
C1539 C 0.95227 0.49807 0.93158 0.0
C1540 C 0.02136 0.40872 0.92989 0.0
C1541 C 0.07276 0.44972 0.92978 0.0
N1542 N 0.11329 0.5538 0.92879 0.0
N1543 N 0.90965 0.39663 0.92847 0.0
C1544 C 0.06422 0.5146 0.93034 0.0
C1545 C 0.96027 0.4336 0.93 0.0
N1546 N 0.99671 0.59915 0.93508 0.0
N1547 N 0.03114 0.34622 0.93015 0.0
H1548 H 0.86446 0.41356 0.9289 0.0
H1549 H 0.91234 0.3503 0.92617 0.0
H1550 H 0.07523 0.32668 0.92968 0.0
H1551 H 0.9961 0.31402 0.93149 0.0
H1552 H 0.03324 0.62865 0.93702 0.0
H1553 H 0.95372 0.61917 0.93645 0.0
H1554 H 0.10851 0.60142 0.92774 0.0
H1555 H 0.15853 0.53858 0.92758 0.0
C1556 C 0.21843 0.25957 0.68318 0.0
C1557 C 0.25876 0.20772 0.68233 0.0
C1558 C 0.34806 0.27713 0.68078 0.0
C1559 C 0.30711 0.32851 0.68091 0.0
N1560 N 0.20306 0.36941 0.68054 0.0
N1561 N 0.36011 0.16549 0.6791 0.0
C1562 C 0.24222 0.31993 0.68161 0.0
C1563 C 0.32318 0.21598 0.68076 0.0
N1564 N 0.15731 0.25127 0.68573 0.0
N1565 N 0.41056 0.28699 0.68093 0.0
H1566 H 0.34323 0.12022 0.67942 0.0
H1567 H 0.40639 0.16835 0.6768 0.0
H1568 H 0.4301 0.33117 0.68059 0.0
H1569 H 0.44293 0.25193 0.68207 0.0
H1570 H 0.12762 0.28719 0.68788 0.0
H1571 H 0.13682 0.20799 0.68654 0.0
H1572 H 0.15543 0.36507 0.67948 0.0
H1573 H 0.21813 0.41508 0.67985 0.0
C1574 C 0.47631 0.46792 0.43189 0.0
C1575 C 0.52923 0.50713 0.43191 0.0
C1576 C 0.46297 0.5991 0.43205 0.0
C1577 C 0.41033 0.55988 0.43141 0.0
N1578 N 0.36542 0.45796 0.42957 0.0
N1579 N 0.57501 0.60857 0.43088 0.0
C1580 C 0.41659 0.49454 0.43102 0.0
C1581 C 0.5232 0.57243 0.43166 0.0
N1582 N 0.4832 0.40507 0.43284 0.0
N1583 N 0.45509 0.66159 0.43323 0.0
H1584 H 0.61968 0.59018 0.43095 0.0
H1585 H 0.57406 0.65615 0.42955 0.0
H1586 H 0.4116 0.6826 0.43322 0.0
H1587 H 0.49101 0.69238 0.43483 0.0
H1588 H 0.44681 0.37458 0.43429 0.0
H1589 H 0.526 0.38288 0.43285 0.0
H1590 H 0.36736 0.41094 0.42774 0.0
H1591 H 0.3203 0.47501 0.42947 0.0
C1592 C 0.16644 0.21568 0.31976 0.0
C1593 C 0.22789 0.20605 0.3161 0.0
C1594 C 0.24646 0.31791 0.31592 0.0
C1595 C 0.1834 0.32783 0.31843 0.0
N1596 N 0.0813 0.28822 0.32208 0.0
N1597 N 0.32371 0.24828 0.30895 0.0
C1598 C 0.14266 0.27725 0.3202 0.0
C1599 C 0.26698 0.25725 0.31363 0.0
N1600 N 0.1314 0.16611 0.3229 0.0
N1601 N 0.28743 0.36634 0.31609 0.0
H1602 H 0.34203 0.20491 0.30728 0.0
H1603 H 0.35049 0.2841 0.30578 0.0
H1604 H 0.2745 0.41184 0.31778 0.0
H1605 H 0.33525 0.3607 0.31564 0.0
H1606 H 0.08852 0.17006 0.32669 0.0
H1607 H 0.14695 0.12052 0.3222 0.0
H1608 H 0.04797 0.2535 0.32247 0.0
H1609 H 0.0631 0.33283 0.32272 0.0
C1610 C 0.48605 0.51973 0.06168 0.0
C1611 C 0.53725 0.48123 0.06433 0.0
C1612 C 0.46656 0.39541 0.06837 0.0
C1613 C 0.41573 0.43577 0.0666 0.0
N1614 N 0.37659 0.53924 0.06378 0.0
N1615 N 0.57755 0.3851 0.07121 0.0
C1616 C 0.42533 0.49873 0.06386 0.0
C1617 C 0.52792 0.41969 0.06798 0.0
N1618 N 0.49521 0.57649 0.05701 0.0
N1619 N 0.45607 0.33385 0.0702 0.0
H1620 H 0.62305 0.40097 0.07056 0.0
H1621 H 0.57364 0.34229 0.07504 0.0
H1622 H 0.41163 0.31517 0.0708 0.0
H1623 H 0.491 0.30071 0.07046 0.0
H1624 H 0.45962 0.6027 0.05364 0.0
H1625 H 0.5387 0.59547 0.05558 0.0
H1626 H 0.38183 0.58706 0.06315 0.0
H1627 H 0.33107 0.52609 0.06539 0.0
C1628 C 0.37093 0.72053 0.81432 0.0
C1629 C 0.32891 0.67459 0.81805 0.0
C1630 C 0.26014 0.75462 0.82499 0.0
C1631 C 0.29726 0.80076 0.81992 0.0
N1632 N 0.38584 0.82812 0.80908 0.0
N1633 N 0.22618 0.64837 0.8243 0.0
C1634 C 0.35225 0.78387 0.81438 0.0
C1635 C 0.2715 0.69169 0.82266 0.0
N1636 N 0.42863 0.70367 0.81088 0.0
N1637 N 0.21401 0.77026 0.83207 0.0
H1638 H 0.23143 0.60168 0.82234 0.0
H1639 H 0.18096 0.65993 0.82644 0.0
H1640 H 0.20469 0.81538 0.83448 0.0
H1641 H 0.18974 0.73761 0.83663 0.0
H1642 H 0.46334 0.73537 0.80899 0.0
H1643 H 0.44326 0.65763 0.81066 0.0
H1644 H 0.42268 0.81805 0.80392 0.0
H1645 H 0.37467 0.87511 0.80947 0.0
C1646 C 0.99576 0.47953 0.56051 0.0
C1647 C 0.9452 0.51728 0.56383 0.0
C1648 C 0.01751 0.60012 0.56886 0.0
C1649 C 0.06758 0.55997 0.56641 0.0
N1650 N 0.10462 0.45694 0.56249 0.0
N1651 N 0.9069 0.61058 0.57214 0.0
C1652 C 0.05678 0.49842 0.56296 0.0
C1653 C 0.95577 0.57687 0.56831 0.0
N1654 N 0.98589 0.42546 0.55498 0.0
N1655 N 0.0291 0.66046 0.57153 0.0
H1656 H 0.86111 0.59578 0.57133 0.0
H1657 H 0.91167 0.65144 0.57655 0.0
H1658 H 0.07385 0.67832 0.5722 0.0
H1659 H 0.99466 0.69363 0.57251 0.0
H1660 H 0.02127 0.40046 0.55126 0.0
H1661 H 0.9423 0.4081 0.55314 0.0
H1662 H 0.0983 0.40957 0.5613 0.0
H1663 H 0.15021 0.46838 0.56443 0.0
C1664 C 0.49135 0.28959 0.32466 0.0
C1665 C 0.50355 0.31903 0.31462 0.0
C1666 C 0.49197 0.21918 0.30534 0.0
C1667 C 0.48155 0.18965 0.31548 0.0
N1668 N 0.5012 0.1946 0.33475 0.0
N1669 N 0.48743 0.31535 0.29528 0.0
C1670 C 0.48994 0.22421 0.32516 0.0
C1671 C 0.49569 0.28483 0.30488 0.0
N1672 N 0.47829 0.32431 0.33363 0.0
N1673 N 0.50244 0.18423 0.29628 0.0
H1674 H 0.48242 0.3634 0.29498 0.0
H1675 H 0.47681 0.29294 0.28802 0.0
H1676 H 0.50707 0.13617 0.29669 0.0
H1677 H 0.51491 0.20315 0.28881 0.0
H1678 H 0.46461 0.30483 0.341 0.0
H1679 H 0.4736 0.37239 0.33319 0.0
H1680 H 0.51226 0.21821 0.34188 0.0
H1681 H 0.5085 0.14686 0.33512 0.0
C1682 C 0.03107 0.254 0.55538 0.0
C1683 C 0.05999 0.24002 0.56542 0.0
C1684 C 0.96016 0.24862 0.57463 0.0
C1685 C 0.93093 0.26323 0.56465 0.0
N1686 N 0.93545 0.2528 0.54517 0.0
N1687 N 0.05532 0.25357 0.58484 0.0
C1688 C 0.9655 0.25827 0.55488 0.0
C1689 C 0.02547 0.24647 0.57514 0.0
N1690 N 0.0665 0.26709 0.5465 0.0
N1691 N 0.92538 0.23275 0.58345 0.0
H1692 H 0.10337 0.25848 0.58528 0.0
H1693 H 0.03211 0.26282 0.59209 0.0
H1694 H 0.87749 0.22692 0.58292 0.0
H1695 H 0.94478 0.21713 0.5907 0.0
H1696 H 0.04802 0.28231 0.53915 0.0
H1697 H 0.11456 0.27119 0.54703 0.0
H1698 H 0.95823 0.24455 0.53786 0.0
H1699 H 0.88752 0.24732 0.54473 0.0
C1700 C 0.03679 0.68938 0.81214 0.0
C1701 C 0.97716 0.69193 0.81684 0.0
C1702 C 0.99246 0.8011 0.82178 0.0
C1703 C 0.04983 0.80002 0.81627 0.0
N1704 N 0.12768 0.74501 0.80594 0.0
N1705 N 0.89414 0.75109 0.82505 0.0
C1706 C 0.07228 0.74467 0.81134 0.0
C1707 C 0.95401 0.74789 0.82146 0.0
N1708 N 0.06019 0.63355 0.80885 0.0
N1709 N 0.97488 0.853 0.82737 0.0
H1710 H 0.86386 0.71362 0.825 0.0
H1711 H 0.87235 0.79205 0.82732 0.0
H1712 H -0.00019 0.89438 0.82718 0.0
H1713 H 0.93778 0.85421 0.83276 0.0
H1714 H 0.10575 0.6267 0.8064 0.0
H1715 H 0.03502 0.59236 0.80932 0.0
H1716 H 0.14347 0.70866 0.80114 0.0
H1717 H 0.15739 0.783 0.80583 0.0
C1718 C 0.47645 0.76984 0.07627 0.0
C1719 C 0.43786 0.77042 0.06693 0.0
C1720 C 0.52706 0.74328 0.05563 0.0
C1721 C 0.5652 0.74139 0.06499 0.0
N1722 N 0.58091 0.77973 0.08312 0.0
N1723 N 0.42316 0.73018 0.04883 0.0
C1724 C 0.54126 0.7631 0.07499 0.0
C1725 C 0.46219 0.74918 0.05689 0.0
N1726 N 0.45081 0.77003 0.08639 0.0
N1727 N 0.55302 0.74321 0.04553 0.0
H1728 H 0.37554 0.72601 0.05007 0.0
H1729 H 0.4387 0.71006 0.04163 0.0
H1730 H 0.60074 0.74706 0.04442 0.0
H1731 H 0.52723 0.74874 0.03844 0.0
H1732 H 0.47676 0.7652 0.09348 0.0
H1733 H 0.40323 0.7654 0.08758 0.0
H1734 H 0.56627 0.80062 0.09031 0.0
H1735 H 0.62883 0.77991 0.08198 0.0
C1736 C 0.4982 0.70838 0.17047 0.0
C1737 C 0.49244 0.66254 0.17863 0.0
C1738 C 0.42221 0.73148 0.18852 0.0
C1739 C 0.4435 0.7818 0.182 0.0
N1740 N 0.50626 0.81799 0.16705 0.0
N1741 N 0.43716 0.62492 0.19424 0.0
C1742 C 0.48281 0.77016 0.17303 0.0
C1743 C 0.45052 0.67241 0.18731 0.0
N1744 N 0.51509 0.69267 0.16014 0.0
N1745 N 0.37274 0.73886 0.19534 0.0
H1746 H 0.44998 0.5793 0.19255 0.0
H1747 H 0.41426 0.6308 0.20162 0.0
H1748 H 0.34933 0.78058 0.19632 0.0
H1749 H 0.3511 0.70227 0.19932 0.0
H1750 H 0.51635 0.72458 0.15379 0.0
H1751 H 0.51791 0.64665 0.15761 0.0
H1752 H 0.53922 0.81149 0.16097 0.0
H1753 H 0.49747 0.86435 0.16889 0.0
C1754 C 0.53409 0.24237 0.41995 0.0
C1755 C 0.57944 0.23859 0.42824 0.0
C1756 C 0.51243 0.16564 0.43794 0.0
C1757 C 0.46186 0.18523 0.43132 0.0
N1758 N 0.42455 0.24756 0.41641 0.0
N1759 N 0.61765 0.18518 0.44401 0.0
C1760 C 0.47272 0.22498 0.4224 0.0
C1761 C 0.57043 0.19636 0.4369 0.0
N1762 N 0.54986 0.25952 0.40964 0.0
N1763 N 0.50624 0.11578 0.4447 0.0
H1764 H 0.66275 0.20035 0.4425 0.0
H1765 H 0.61197 0.16179 0.45134 0.0
H1766 H 0.46537 0.09058 0.44546 0.0
H1767 H 0.54322 0.0956 0.44881 0.0
H1768 H 0.51828 0.25935 0.40323 0.0
H1769 H 0.59588 0.26395 0.4072 0.0
H1770 H 0.43052 0.28072 0.41034 0.0
H1771 H 0.37841 0.23811 0.41829 0.0
C1772 C 0.98886 0.20799 0.67352 0.0
C1773 C 2e-05 0.17777 0.68352 0.0
C1774 C 0.98461 0.27623 0.69305 0.0
C1775 C 0.97637 0.30677 0.68293 0.0
N1776 N 0.00072 0.30385 0.6638 0.0
N1777 N 0.98047 0.17871 0.70275 0.0
C1778 C 0.98718 0.27331 0.67321 0.0
C1779 C 0.98958 0.21061 0.69332 0.0
N1780 N 0.97745 0.17404 0.6644 0.0
N1781 N 0.99244 0.31029 0.70229 0.0
H1782 H 0.97701 0.13048 0.70284 0.0
H1783 H 0.9679 0.19988 0.71002 0.0
H1784 H 0.99676 0.35842 0.70208 0.0
H1785 H 0.00328 0.29077 0.70979 0.0
H1786 H 0.96467 0.19418 0.65703 0.0
H1787 H 0.97331 0.12586 0.66467 0.0
H1788 H 0.0133 0.28087 0.65668 0.0
H1789 H 0.00854 0.35154 0.66364 0.0
C1790 C 0.96857 0.75607 0.92272 0.0
C1791 C 0.9288 0.75538 0.93186 0.0
C1792 C 0.01711 0.78155 0.94355 0.0
C1793 C 0.05678 0.78048 0.93435 0.0
N1794 N 0.07277 0.73818 0.91647 0.0
N1795 N 0.91167 0.79186 0.95005 0.0
C1796 C 0.03321 0.75874 0.92432 0.0
C1797 C 0.95212 0.77541 0.94204 0.0
N1798 N 0.94467 0.75882 0.91247 0.0
N1799 N 0.04179 0.78341 0.95375 0.0
H1800 H 0.86396 0.79298 0.94868 0.0
H1801 H 0.92543 0.81169 0.95738 0.0
H1802 H 0.08925 0.77903 0.95511 0.0
H1803 H 0.01526 0.77997 0.96079 0.0
H1804 H 0.97236 0.76378 0.90559 0.0
H1805 H 0.89753 0.76583 0.91108 0.0
H1806 H 0.05745 0.71757 0.90929 0.0
H1807 H 0.12032 0.73448 0.91786 0.0
C1808 C 0.57048 0.74137 0.68701 0.0
C1809 C 0.54829 0.79759 0.68239 0.0
C1810 C 0.45197 0.74703 0.67699 0.0
C1811 C 0.47492 0.69016 0.68126 0.0
N1812 N 0.55776 0.62993 0.68889 0.0
N1813 N 0.47348 0.85289 0.67161 0.0
C1814 C 0.53466 0.68643 0.68591 0.0
C1815 C 0.49079 0.79999 0.67692 0.0
N1816 N 0.62585 0.74059 0.69242 0.0
N1817 N 0.39196 0.75128 0.6735 0.0
H1818 H 0.49882 0.89399 0.67197 0.0
H1819 H 0.43618 0.85523 0.66627 0.0
H1820 H 0.36144 0.71399 0.67336 0.0
H1821 H 0.37038 0.7928 0.6715 0.0
H1822 H 0.64166 0.70325 0.69697 0.0
H1823 H 0.65541 0.77867 0.69283 0.0
H1824 H 0.6033 0.62243 0.6913 0.0
H1825 H 0.53235 0.589 0.68818 0.0
C1826 C 0.97274 0.78702 0.44372 0.0
C1827 C 0.93662 0.79031 0.43407 0.0
C1828 C 0.02829 0.76607 0.4233 0.0
C1829 C 0.06407 0.75983 0.43286 0.0
N1830 N 0.07578 0.79037 0.45152 0.0
N1831 N 0.92658 0.75335 0.41566 0.0
C1832 C 0.03784 0.77805 0.44292 0.0
C1833 C 0.96335 0.77094 0.42413 0.0
N1834 N 0.94429 0.78707 0.45361 0.0
N1835 N 0.0565 0.7711 0.41343 0.0
H1836 H 0.87866 0.74909 0.41648 0.0
H1837 H 0.94438 0.7348 0.40848 0.0
H1838 H 0.1045 0.77503 0.41271 0.0
H1839 H 0.03199 0.78052 0.40632 0.0
H1840 H 0.96784 0.78037 0.4609 0.0
H1841 H 0.89628 0.78449 0.45438 0.0
H1842 H 0.06007 0.8088 0.45884 0.0
H1843 H 0.12391 0.78995 0.45073 0.0
C1844 C 0.01616 0.2726 0.19295 0.0
C1845 C 0.02065 0.30821 0.1833 0.0
C1846 C 0.00175 0.21488 0.17252 0.0
C1847 C 0.99683 0.17922 0.18214 0.0
N1848 N 0.02684 0.17083 0.20092 0.0
N1849 N 0.98976 0.31635 0.16457 0.0
C1850 C 0.01224 0.20712 0.19222 0.0
C1851 C 0.00496 0.28022 0.17326 0.0
N1852 N 0.01108 0.30152 0.20277 0.0
N1853 N 0.00753 0.18607 0.16271 0.0
H1854 H 0.98604 0.36443 0.16525 0.0
H1855 H 0.97337 0.29823 0.15727 0.0
H1856 H 0.01253 0.1381 0.16209 0.0
H1857 H 0.01608 0.21002 0.15551 0.0
H1858 H 0.0032 0.27776 0.21 0.0
H1859 H 0.00558 0.34941 0.20339 0.0
H1860 H 0.04289 0.1887 0.20826 0.0
H1861 H 0.0311 0.12283 0.2002 0.0
C1862 C 0.45767 0.25887 0.94296 0.0
C1863 C 0.4221 0.26249 0.93331 0.0
C1864 C 0.51371 0.236 0.92262 0.0
C1865 C 0.54996 0.23403 0.93225 0.0
N1866 N 0.55955 0.27078 0.9507 0.0
N1867 N 0.41109 0.22646 0.91494 0.0
C1868 C 0.52288 0.2531 0.94221 0.0
C1869 C 0.44862 0.24219 0.92343 0.0
N1870 N 0.42888 0.25743 0.95281 0.0
N1871 N 0.54179 0.23733 0.91269 0.0
H1872 H 0.36293 0.22614 0.91571 0.0
H1873 H 0.4276 0.20639 0.90781 0.0
H1874 H 0.58966 0.24192 0.91186 0.0
H1875 H 0.51751 0.24319 0.90544 0.0
H1876 H 0.45258 0.25046 0.96009 0.0
H1877 H 0.38084 0.254 0.95349 0.0
H1878 H 0.5419 0.28932 0.95788 0.0
H1879 H 0.60735 0.27593 0.94988 0.0
C1880 C 0.49591 0.21162 0.82492 0.0
C1881 C 0.50458 0.17878 0.81511 0.0
C1882 C 0.48709 0.27472 0.80492 0.0
C1883 C 0.48138 0.30788 0.81485 0.0
N1884 N 0.5103 0.30994 0.83377 0.0
N1885 N 0.48065 0.17473 0.79605 0.0
C1886 C 0.49453 0.27695 0.82473 0.0
C1887 C 0.49188 0.20908 0.80514 0.0
N1888 N 0.48631 0.18021 0.83438 0.0
N1889 N 0.49285 0.30627 0.79537 0.0
H1890 H 0.47745 0.12651 0.79636 0.0
H1891 H 0.46633 0.19394 0.7887 0.0
H1892 H 0.49764 0.35435 0.79517 0.0
H1893 H 0.50171 0.28472 0.78796 0.0
H1894 H 0.4754 0.20239 0.84166 0.0
H1895 H 0.48147 0.13208 0.83452 0.0
H1896 H 0.52418 0.28894 0.841 0.0
H1897 H 0.51823 0.3576 0.83346 0.0
C1898 C 0.45971 0.74268 0.55653 0.0
C1899 C 0.42786 0.73345 0.56648 0.0
C1900 C 0.52562 0.74386 0.57632 0.0
C1901 C 0.55748 0.7534 0.5664 0.0
N1902 N 0.55757 0.73371 0.54716 0.0
N1903 N 0.42798 0.75424 0.58565 0.0
C1904 C 0.52529 0.74427 0.5565 0.0
C1905 C 0.46013 0.74258 0.57635 0.0
N1906 N 0.42724 0.75461 0.54726 0.0
N1907 N 0.55803 0.73225 0.58561 0.0
H1908 H 0.38006 0.76046 0.58556 0.0
H1909 H 0.44942 0.76627 0.59295 0.0
H1910 H 0.60599 0.7263 0.58555 0.0
H1911 H 0.53666 0.7201 0.5929 0.0
H1912 H 0.44838 0.76608 0.53992 0.0
H1913 H 0.3795 0.76198 0.54739 0.0
H1914 H 0.53633 0.7224 0.53981 0.0
H1915 H 0.60554 0.72786 0.54721 0.0
C1916 C 0.00235 0.71935 0.30618 0.0
C1917 C 0.00836 0.68543 0.31598 0.0
C1918 C 0.99388 0.78083 0.32636 0.0
C1919 C 0.98762 0.81493 0.31661 0.0
N1920 N 0.01399 0.81933 0.29761 0.0
N1921 N 0.98066 0.68108 0.33487 0.0
C1922 C 2e-05 0.78496 0.30658 0.0
C1923 C 0.99528 0.7154 0.32594 0.0
N1924 N 0.9949 0.68875 0.29657 0.0
N1925 N 0.00273 0.81106 0.33596 0.0
H1926 H 0.97489 0.63313 0.33438 0.0
H1927 H 0.96628 0.70079 0.34218 0.0
H1928 H 0.00898 0.85897 0.33628 0.0
H1929 H 0.01269 0.788 0.3432 0.0
H1930 H 0.98594 0.7113 0.28925 0.0
H1931 H 0.98874 0.64084 0.29627 0.0
H1932 H 0.02794 0.79976 0.29027 0.0
H1933 H 0.02022 0.86722 0.29805 0.0
C1934 C 0.05441 0.21334 0.06783 0.0
C1935 C 0.05094 0.27365 0.06343 0.0
C1936 C 0.94146 0.25805 0.05877 0.0
C1937 C 0.94334 0.20013 0.06412 0.0
N1938 N -5e-05 0.12255 0.07427 0.0
N1939 N 0.99037 0.35758 0.05594 0.0
C1940 C -0.0006 0.17772 0.06881 0.0
C1941 C 0.99438 0.29704 0.05914 0.0
N1942 N 0.11075 0.18961 0.07074 0.0
N1943 N 0.88912 0.27571 0.05334 0.0
H1944 H 0.02795 0.38781 0.05595 0.0
H1945 H 0.94885 0.37951 0.05404 0.0
H1946 H 0.84845 0.24963 0.05335 0.0
H1947 H 0.88715 0.31397 0.04821 0.0
H1948 H 0.11793 0.1437 0.07297 0.0
H1949 H 0.15183 0.21483 0.07011 0.0
H1950 H 0.03679 0.10744 0.07903 0.0
H1951 H 0.96228 0.09252 0.07453 0.0
C1952 C 0.3137 0.04909 0.36913 0.0
C1953 C 0.36531 0.07855 0.36416 0.0
C1954 C 0.38973 0.12877 0.38151 0.0
C1955 C 0.33388 0.10531 0.38603 0.0
N1956 N 0.23543 0.05517 0.3831 0.0
N1957 N 0.44158 0.16071 0.36507 0.0
C1958 C 0.29365 0.06907 0.37952 0.0
C1959 C 0.40033 0.12255 0.37018 0.0
N1960 N 0.28529 0.00011 0.36419 0.0
N1961 N 0.43427 0.1542 0.38803 0.0
H1962 H 0.44818 0.16079 0.35669 0.0
H1963 H 0.46374 0.19726 0.36902 0.0
H1964 H 0.43047 0.15681 0.39646 0.0
H1965 H 0.47802 0.16641 0.38516 0.0
H1966 H 0.25151 0.97324 0.36798 0.0
H1967 H 0.30031 0.98197 0.35684 0.0
H1968 H 0.20219 0.03384 0.37822 0.0
H1969 H 0.21819 0.07125 0.39047 0.0
C1970 C 0.17516 0.17469 0.62081 0.0
C1971 C 0.18217 0.12115 0.61422 0.0
C1972 C 0.14611 0.05708 0.62942 0.0
C1973 C 0.14783 0.10949 0.63637 0.0
N1974 N 0.18296 0.2151 0.63902 0.0
N1975 N 0.18892 0.00918 0.61339 0.0
C1976 C 0.16788 0.1675 0.63218 0.0
C1977 C 0.17192 0.06159 0.61885 0.0
N1978 N 0.17209 0.23234 0.61627 0.0
N1979 N 0.11776 0.00367 0.6327 0.0
H1980 H 0.21115 0.00997 0.6059 0.0
H1981 H 0.18747 0.96528 0.61691 0.0
H1982 H 0.09535 -0.00068 0.64016 0.0
H1983 H 0.11044 0.9662 0.62751 0.0
H1984 H 0.16152 0.27182 0.62078 0.0
H1985 H 0.17235 0.23997 0.60791 0.0
H1986 H 0.2027 0.25629 0.63626 0.0
H1987 H 0.18325 0.21081 0.64745 0.0
C1988 C 0.11818 0.85568 0.8686 0.0
C1989 C 0.13748 0.91197 0.86367 0.0
C1990 C 0.1891 0.94182 0.88058 0.0
C1991 C 0.16363 0.88919 0.88589 0.0
N1992 N 0.08787 0.80642 0.88538 0.0
N1993 N 0.17657 0.01575 0.86604 0.0
C1994 C 0.12344 0.84901 0.88004 0.0
C1995 C 0.16855 0.95723 0.86999 0.0
N1996 N 0.09768 0.80723 0.86242 0.0
N1997 N 0.23487 0.9758 0.88539 0.0
H1998 H 0.15857 0.02962 0.85858 0.0
H1999 H 0.19414 0.05203 0.87071 0.0
H2000 H 0.25375 0.96451 0.8929 0.0
H2001 H 0.25882 0.01089 0.88137 0.0
H2002 H 0.08874 0.76352 0.86566 0.0
H2003 H 0.09614 0.80829 0.85396 0.0
H2004 H 0.05395 0.78013 0.88149 0.0
H2005 H 0.08667 0.80263 0.89382 0.0
C2006 C 0.26522 0.85958 0.12126 0.0
C2007 C 0.31408 0.86496 0.11366 0.0
C2008 C 0.38615 0.89412 0.12819 0.0
C2009 C 0.33834 0.8847 0.13589 0.0
N2010 N 0.23496 0.84896 0.1401 0.0
N2011 N 0.4229 0.87738 0.10982 0.0
C2012 C 0.27843 0.86506 0.13253 0.0
C2013 C 0.37515 0.87943 0.11711 0.0
N2014 N 0.20594 0.8508 0.11768 0.0
N2015 N 0.44134 0.91916 0.13143 0.0
H2016 H 0.41659 0.86698 0.10162 0.0
H2017 H 0.46932 0.88083 0.11201 0.0
H2018 H 0.45085 0.93074 0.13949 0.0
H2019 H 0.47573 0.93341 0.12606 0.0
H2020 H 0.16719 0.85422 0.12267 0.0
H2021 H 0.19502 0.84407 0.10951 0.0
H2022 H 0.19333 0.82724 0.13818 0.0
H2023 H 0.24211 0.85292 0.14844 0.0
C2024 C 0.67078 0.94544 0.62902 0.0
C2025 C 0.64216 0.90024 0.63567 0.0
C2026 C 0.63633 0.83014 0.62006 0.0
C2027 C 0.67347 0.87165 0.6139 0.0
N2028 N 0.73778 0.96346 0.61369 0.0
N2029 N 0.61205 0.7929 0.63804 0.0
C2030 C 0.69406 0.92787 0.61871 0.0
C2031 C 0.62885 0.84061 0.63137 0.0
N2032 N 0.67404 0.00566 0.63237 0.0
N2033 N 0.60545 0.78254 0.61513 0.0
H2034 H 0.6092 0.79699 0.64646 0.0
H2035 H 0.60772 0.7474 0.6353 0.0
H2036 H 0.60609 0.7751 0.60678 0.0
H2037 H 0.57333 0.75496 0.61921 0.0
H2038 H 0.68954 0.04145 0.62738 0.0
H2039 H 0.65452 0.02079 0.63964 0.0
H2040 H 0.75831 0.00182 0.61737 0.0
H2041 H 0.7587 0.9506 0.60643 0.0
C2042 C 0.89817 0.87818 0.36967 0.0
C2043 C 0.87199 0.93001 0.36425 0.0
C2044 C 0.8078 0.95084 0.38027 0.0
C2045 C 0.83969 0.90403 0.38612 0.0
N2046 N 0.92809 0.83533 0.387 0.0
N2047 N 0.81242 0.02422 0.36549 0.0
C2048 C 0.88863 0.8711 0.38101 0.0
C2049 C 0.82977 0.96885 0.36987 0.0
N2050 N 0.92949 0.83379 0.36398 0.0
N2051 N 0.75512 0.9766 0.3844 0.0
H2052 H 0.83028 0.04035 0.35819 0.0
H2053 H 0.78631 0.05697 0.3697 0.0
H2054 H 0.73603 0.96304 0.39178 0.0
H2055 H 0.72688 0.00647 0.37997 0.0
H2056 H 0.94436 0.79243 0.36748 0.0
H2057 H 0.93429 0.83474 0.35557 0.0
H2058 H 0.96779 0.81527 0.38372 0.0
H2059 H 0.92562 0.83177 0.39543 0.0
C2060 C 0.9087 0.10712 0.1169 0.0
C2061 C 0.84917 0.09506 0.11245 0.0
C2062 C 0.81968 0.04318 0.12937 0.0
C2063 C 0.87564 0.06322 0.13433 0.0
N2064 N 0.96663 0.12862 0.13324 0.0
N2065 N 0.74344 0.06334 0.11547 0.0
C2066 C 0.91845 0.09914 0.12822 0.0
C2067 C 0.80333 0.06628 0.11897 0.0
N2068 N 0.95687 0.12363 0.11031 0.0
N2069 N 0.78295 0.00039 0.13437 0.0
H2070 H 0.72909 0.0828 0.10817 0.0
H2071 H 0.70709 0.04813 0.12036 0.0
H2072 H 0.79453 0.9803 0.14177 0.0
H2073 H 0.74487 0.97984 0.13062 0.0
H2074 H 0.00232 0.12715 0.11309 0.0
H2075 H 0.95301 0.12685 0.10188 0.0
H2076 H 0.99519 0.16016 0.12923 0.0
H2077 H 0.97392 0.12733 0.14159 0.0
C2078 C 0.65654 0.06205 0.86905 0.0
C2079 C 0.65845 0.11375 0.86196 0.0
C2080 C 0.68878 0.18 0.87723 0.0
C2081 C 0.69456 0.12703 0.88398 0.0
N2082 N 0.70046 0.01516 0.88508 0.0
N2083 N 0.69617 0.21805 0.85886 0.0
C2084 C 0.6834 0.06721 0.87953 0.0
C2085 C 0.68039 0.1717 0.8659 0.0
N2086 N 0.62692 0.0088 0.86603 0.0
N2087 N 0.68799 0.23823 0.88158 0.0
H2088 H 0.69573 0.21269 0.85045 0.0
H2089 H 0.7172 0.25903 0.86142 0.0
H2090 H 0.68975 0.24688 0.8899 0.0
H2091 H 0.6782 0.27751 0.87696 0.0
H2092 H 0.61966 0.972 0.87136 0.0
H2093 H 0.60348 0.00407 0.85868 0.0
H2094 H 0.69806 0.97093 0.8817 0.0
H2095 H 0.72385 0.01661 0.89248 0.0
C2096 C 0.87727 0.65227 0.86712 0.0
C2097 C 0.85576 0.5953 0.86273 0.0
C2098 C 0.79169 0.57988 0.87888 0.0
C2099 C 0.82019 0.63175 0.88393 0.0
N2100 N 0.90233 0.70823 0.88349 0.0
N2101 N 0.8017 0.49872 0.86549 0.0
C2102 C 0.86637 0.66561 0.87824 0.0
C2103 C 0.81552 0.55729 0.86891 0.0
N2104 N 0.90561 0.69512 0.86062 0.0
N2105 N 0.74033 0.55348 0.88338 0.0
H2106 H 0.82032 0.47963 0.85844 0.0
H2107 H 0.77737 0.46699 0.87023 0.0
H2108 H 0.71959 0.57099 0.89035 0.0
H2109 H 0.7144 0.51922 0.87952 0.0
H2110 H 0.91668 0.73958 0.8633 0.0
H2111 H 0.91165 0.68917 0.85229 0.0
H2112 H 0.94056 0.72929 0.87988 0.0
H2113 H 0.89859 0.71751 0.89176 0.0
C2114 C 0.57767 0.56866 0.11613 0.0
C2115 C 0.63576 0.58686 0.11176 0.0
C2116 C 0.68612 0.55292 0.12852 0.0
C2117 C 0.62733 0.54494 0.13351 0.0
N2118 N 0.51644 0.56172 0.13244 0.0
N2119 N 0.7439 0.60914 0.11493 0.0
C2120 C 0.57271 0.55719 0.12744 0.0
C2121 C 0.68976 0.5825 0.11826 0.0
N2122 N 0.52765 0.55973 0.10951 0.0
N2123 N 0.73844 0.53084 0.13339 0.0
H2124 H 0.74738 0.63511 0.10783 0.0
H2125 H 0.78308 0.61172 0.11986 0.0
H2126 H 0.73754 0.50603 0.14064 0.0
H2127 H 0.78156 0.53089 0.12959 0.0
H2128 H 0.486 0.54124 0.11231 0.0
H2129 H 0.52985 0.56348 0.10108 0.0
H2130 H 0.47669 0.57631 0.12838 0.0
H2131 H 0.51049 0.55829 0.14081 0.0
C2132 C 0.68228 0.33004 0.37688 0.0
C2133 C 0.6915 0.38391 0.38332 0.0
C2134 C 0.65443 0.44768 0.36817 0.0
C2135 C 0.65339 0.3947 0.36136 0.0
N2136 N 0.6861 0.28838 0.35872 0.0
N2137 N 0.70133 0.49558 0.38388 0.0
C2138 C 0.67321 0.33666 0.36554 0.0
C2139 C 0.68212 0.4433 0.3786 0.0
N2140 N 0.67842 0.27273 0.38153 0.0
N2141 N 0.62666 0.50146 0.36496 0.0
H2142 H 0.72481 0.49444 0.39126 0.0
H2143 H 0.70035 0.53932 0.3803 0.0
H2144 H 0.60251 0.50559 0.35766 0.0
H2145 H 0.62152 0.53954 0.37009 0.0
H2146 H 0.66621 0.23328 0.37713 0.0
H2147 H 0.67965 0.26544 0.38989 0.0
H2148 H 0.70558 0.24703 0.36145 0.0
H2149 H 0.68491 0.29217 0.35028 0.0
C2150 C 0.88804 0.35814 0.62929 0.0
C2151 C 0.85949 0.4091 0.63461 0.0
C2152 C 0.79387 0.4251 0.61858 0.0
C2153 C 0.82817 0.37971 0.61279 0.0
N2154 N 0.91965 0.31513 0.61206 0.0
N2155 N 0.79394 0.49933 0.63327 0.0
C2156 C 0.87863 0.34956 0.61797 0.0
C2157 C 0.81479 0.44495 0.62896 0.0
N2158 N 0.92174 0.31596 0.63508 0.0
N2159 N 0.7399 0.44766 0.61439 0.0
H2160 H 0.80988 0.51666 0.64064 0.0
H2161 H 0.76614 0.53031 0.62899 0.0
H2162 H 0.72175 0.43247 0.60704 0.0
H2163 H 0.70995 0.47615 0.61876 0.0
H2164 H 0.93851 0.27505 0.63167 0.0
H2165 H 0.92673 0.31791 0.64349 0.0
H2166 H 0.9603 0.29718 0.61536 0.0
H2167 H 0.91714 0.31061 0.60364 0.0
C2168 C 0.18198 0.32521 0.13188 0.0
C2169 C 0.16124 0.38299 0.13606 0.0
C2170 C 0.18261 0.43054 0.11841 0.0
C2171 C 0.19291 0.37096 0.11379 0.0
N2172 N 0.18649 0.25966 0.11603 0.0
N2173 N 0.12924 0.48816 0.13239 0.0
C2174 C 0.18822 0.31761 0.12048 0.0
C2175 C 0.158 0.43508 0.12908 0.0
N2176 N 0.19861 0.27828 0.13873 0.0
N2177 N 0.19852 0.48297 0.11287 0.0
H2178 H 0.10752 0.4924 0.13991 0.0
H2179 H 0.12085 0.5253 0.12718 0.0
H2180 H 0.22025 0.48215 0.10532 0.0
H2181 H 0.19689 0.52697 0.11634 0.0
H2182 H 0.21892 0.23738 0.13598 0.0
H2183 H 0.19951 0.28301 0.14715 0.0
H2184 H 0.17738 0.2201 0.12061 0.0
H2185 H 0.1867 0.25157 0.10768 0.0
C2186 C 0.32318 0.44596 0.86857 0.0
C2187 C 0.36078 0.40396 0.86267 0.0
C2188 C 0.36751 0.33765 0.87879 0.0
C2189 C 0.32349 0.37569 0.8842 0.0
N2190 N 0.24828 0.45809 0.88294 0.0
N2191 N 0.40463 0.30102 0.86143 0.0
C2192 C 0.29799 0.42752 0.8787 0.0
C2193 C 0.3789 0.34715 0.86755 0.0
N2194 N 0.31361 0.50455 0.86478 0.0
N2195 N 0.40118 0.29475 0.88442 0.0
H2196 H 0.41095 0.30438 0.85306 0.0
H2197 H 0.41312 0.2568 0.86448 0.0
H2198 H 0.39757 0.28849 0.89278 0.0
H2199 H 0.43785 0.27035 0.88096 0.0
H2200 H 0.29139 0.53883 0.86928 0.0
H2201 H 0.3342 0.52085 0.8577 0.0
H2202 H 0.22444 0.49259 0.87876 0.0
H2203 H 0.22653 0.44399 0.89006 0.0
C2204 C 0.27977 0.58064 0.61973 0.0
C2205 C 0.3206 0.61872 0.61369 0.0
C2206 C 0.38791 0.62797 0.6296 0.0
C2207 C 0.35185 0.58265 0.63509 0.0
N2208 N 0.27012 0.50623 0.63425 0.0
N2209 N 0.4223 0.66523 0.61214 0.0
C2210 C 0.29956 0.55622 0.62984 0.0
C2211 C 0.37721 0.63876 0.6184 0.0
N2212 N 0.22131 0.56936 0.61601 0.0
N2213 N 0.43024 0.66308 0.63511 0.0
H2214 H 0.41829 0.6707 0.60377 0.0
H2215 H 0.46646 0.67516 0.61509 0.0
H2216 H 0.43708 0.65997 0.64347 0.0
H2217 H 0.45331 0.7004 0.63157 0.0
H2218 H 0.18772 0.54653 0.62058 0.0
H2219 H 0.20439 0.58904 0.60888 0.0
H2220 H 0.23548 0.4817 0.63022 0.0
H2221 H 0.28494 0.48508 0.64139 0.0
C2222 C 0.18879 0.57519 0.38003 0.0
C2223 C 0.16328 0.62874 0.38501 0.0
C2224 C 0.10761 0.65193 0.36814 0.0
C2225 C 0.12652 0.59406 0.36376 0.0
N2226 N 0.17408 0.49445 0.36668 0.0
N2227 N 0.08505 0.70904 0.38451 0.0
C2228 C 0.16396 0.55385 0.37004 0.0
C2229 C 0.11894 0.66476 0.37927 0.0
N2230 N 0.23837 0.54593 0.38458 0.0
N2231 N 0.08139 0.69601 0.36163 0.0
H2232 H 0.08894 0.71789 0.39279 0.0
H2233 H 0.04803 0.73193 0.38086 0.0
H2234 H 0.07494 0.6902 0.3533 0.0
H2235 H 0.07237 0.74095 0.3643 0.0
H2236 H 0.26228 0.51016 0.38074 0.0
H2237 H 0.25997 0.56221 0.39156 0.0
H2238 H 0.19632 0.46143 0.37146 0.0
H2239 H 0.15399 0.47637 0.35968 0.0
C2240 C 0.36675 0.03672 0.24128 0.0
C2241 C 0.35894 0.97372 0.23828 0.0
C2242 C 0.3612 0.94244 0.25737 0.0
C2243 C 0.36368 0.00581 0.26037 0.0
N2244 N 0.38744 0.11107 0.25568 0.0
N2245 N 0.36716 0.86594 0.2429 0.0
C2246 C 0.37326 0.05221 0.25244 0.0
C2247 C 0.3628 0.92626 0.24617 0.0
N2248 N 0.36423 0.08174 0.2335 0.0
N2249 N 0.35372 0.8983 0.2652 0.0
H2250 H 0.36836 0.85339 0.23471 0.0
H2251 H 0.37496 0.8291 0.24817 0.0
H2252 H 0.35507 0.90882 0.27346 0.0
H2253 H 0.34402 0.852 0.26358 0.0
H2254 H 0.36223 0.12891 0.23519 0.0
H2255 H 0.36157 0.07153 0.22524 0.0
H2256 H 0.39977 0.14644 0.25036 0.0
H2257 H 0.39221 0.12299 0.26386 0.0
C2258 C 0.19651 0.12016 0.50263 0.0
C2259 C 0.24303 0.1115 0.51056 0.0
C2260 C 0.32238 0.10846 0.49635 0.0
C2261 C 0.27476 0.10429 0.48848 0.0
N2262 N 0.16678 0.11009 0.48371 0.0
N2263 N 0.35048 0.10289 0.51544 0.0
C2264 C 0.21187 0.11272 0.49147 0.0
C2265 C 0.30632 0.10862 0.50756 0.0
N2266 N 0.13768 0.13448 0.50583 0.0
N2267 N 0.38269 0.11154 0.49303 0.0
H2268 H 0.34 0.10601 0.52369 0.0
H2269 H 0.39683 0.09326 0.51389 0.0
H2270 H 0.39515 0.1114 0.48484 0.0
H2271 H 0.41979 0.11927 0.49825 0.0
H2272 H 0.10227 0.14637 0.5005 0.0
H2273 H 0.12566 0.13971 0.51399 0.0
H2274 H 0.11961 0.10836 0.48539 0.0
H2275 H 0.17691 0.10717 0.47546 0.0
C2276 C 0.14318 0.93105 0.75344 0.0
C2277 C 0.15299 0.97882 0.76114 0.0
C2278 C 0.13815 0.05707 0.74697 0.0
C2279 C 0.14114 0.00957 0.73909 0.0
N2280 N 0.14179 0.90139 0.73441 0.0
N2281 N 0.15669 0.08735 0.76567 0.0
C2282 C 0.14088 0.94638 0.74222 0.0
C2283 C 0.14825 0.04199 0.75807 0.0
N2284 N 0.13682 0.87127 0.75691 0.0
N2285 N 0.12647 0.1165 0.74376 0.0
H2286 H 0.16202 0.07769 0.7739 0.0
H2287 H 0.16113 0.13416 0.76382 0.0
H2288 H 0.119 0.12814 0.73564 0.0
H2289 H 0.11874 0.15297 0.74912 0.0
H2290 H 0.12466 0.83461 0.75185 0.0
H2291 H 0.13877 0.85912 0.76511 0.0
H2292 H 0.14916 0.85465 0.736 0.0
H2293 H 0.13711 0.91145 0.72617 0.0
C2294 C 0.20925 0.87774 0.00778 0.0
C2295 C 0.27146 0.88718 0.01109 0.0
C2296 C 0.30506 0.89266 0.99215 0.0
C2297 C 0.24219 0.88931 0.9889 0.0
N2298 N 0.13734 0.86018 0.99288 0.0
N2299 N 0.37994 0.88457 0.00685 0.0
C2300 C 0.19527 0.87504 0.99651 0.0
C2301 C 0.31996 0.88778 0.00337 0.0
N2302 N 0.16342 0.87512 0.01541 0.0
N2303 N 0.34977 0.90404 0.98456 0.0
H2304 H 0.39139 0.88083 0.01506 0.0
H2305 H 0.41775 0.88022 0.00167 0.0
H2306 H 0.34017 0.90519 0.97627 0.0
H2307 H 0.39561 0.9143 0.98645 0.0
H2308 H 0.11639 0.87576 0.01359 0.0
H2309 H 0.17272 0.87451 0.02371 0.0
H2310 H 0.10179 0.84469 0.9979 0.0
H2311 H 0.1265 0.85827 0.98462 0.0
C2312 C 0.63612 0.05579 0.75176 0.0
C2313 C 0.63985 0.00832 0.75963 0.0
C2314 C 0.64124 0.92978 0.74528 0.0
C2315 C 0.65062 0.97756 0.73759 0.0
N2316 N 0.65342 0.08606 0.73304 0.0
N2317 N 0.64072 0.9002 0.76432 0.0
C2318 C 0.64565 0.04071 0.74066 0.0
C2319 C 0.63943 0.94513 0.75651 0.0
N2320 N 0.62444 0.11518 0.75501 0.0
N2321 N 0.6349 0.86997 0.74181 0.0
H2322 H 0.6364 0.91034 0.77256 0.0
H2323 H 0.64797 0.85344 0.76271 0.0
H2324 H 0.63645 0.85786 0.73361 0.0
H2325 H 0.62314 0.83326 0.74688 0.0
H2326 H 0.61628 0.15163 0.74967 0.0
H2327 H 0.61743 0.12679 0.76315 0.0
H2328 H 0.65763 0.13292 0.73488 0.0
H2329 H 0.65836 0.07634 0.7248 0.0
C2330 C 0.68851 0.87484 0.49133 0.0
C2331 C 0.75138 0.87747 0.48809 0.0
C2332 C 0.78545 0.86306 0.50683 0.0
C2333 C 0.72288 0.86764 0.51019 0.0
N2334 N 0.61498 0.85694 0.50597 0.0
N2335 N 0.8579 0.85397 0.49179 0.0
C2336 C 0.67436 0.86577 0.50249 0.0
C2337 C 0.79928 0.86407 0.49555 0.0
N2338 N 0.64289 0.88513 0.48387 0.0
N2339 N 0.83147 0.86213 0.51444 0.0
H2340 H 0.8684 0.8547 0.48351 0.0
H2341 H 0.8945 0.83965 0.49668 0.0
H2342 H 0.82227 0.8591 0.52273 0.0
H2343 H 0.87831 0.86631 0.51261 0.0
H2344 H 0.59644 0.89102 0.48585 0.0
H2345 H 0.65221 0.88988 0.4756 0.0
H2346 H 0.57743 0.85088 0.50078 0.0
H2347 H 0.60443 0.85016 0.51416 0.0
C2348 C 0.88112 0.04264 0.25713 0.0
C2349 C 0.87814 0.97969 0.26039 0.0
C2350 C 0.8843 0.94588 0.24146 0.0
C2351 C 0.8819 0.00877 0.2382 0.0
N2352 N 0.89781 0.11609 0.24246 0.0
N2353 N 0.89578 0.87237 0.25628 0.0
C2354 C 0.88752 0.05688 0.24593 0.0
C2355 C 0.88656 0.93157 0.25272 0.0
N2356 N 0.87382 0.08851 0.26467 0.0
N2357 N 0.88067 0.90015 0.23381 0.0
H2358 H 0.8977 0.86132 0.26453 0.0
H2359 H 0.90691 0.83553 0.25119 0.0
H2360 H 0.88146 0.90948 0.22551 0.0
H2361 H 0.87463 0.85349 0.23565 0.0
H2362 H 0.86804 0.13504 0.26271 0.0
H2363 H 0.87077 0.07947 0.27295 0.0
H2364 H 0.90721 0.15297 0.24765 0.0
H2365 H 0.90259 0.12703 0.23424 0.0
C2366 C 0.67208 0.10647 0.99551 0.0
C2367 C 0.72053 0.11041 0.98781 0.0
C2368 C 0.79638 0.12103 0.0025 0.0
C2369 C 0.7498 0.10392 0.01 0.0
N2370 N 0.64267 0.08489 0.01417 0.0
N2371 N 0.82818 0.12636 0.9836 0.0
C2372 C 0.68708 0.0994 0.00669 0.0
C2373 C 0.78246 0.12067 0.9912 0.0
N2374 N 0.61203 0.10873 0.99205 0.0
N2375 N 0.85395 0.13641 0.00623 0.0
H2376 H 0.81888 0.12873 0.9753 0.0
H2377 H 0.87522 0.12657 0.98542 0.0
H2378 H 0.86482 0.13657 0.01449 0.0
H2379 H 0.8891 0.15392 0.00133 0.0
H2380 H 0.5741 0.11073 0.99724 0.0
H2381 H 0.60045 0.11406 0.98386 0.0
H2382 H 0.5972 0.07363 0.01219 0.0
H2383 H 0.6522 0.08201 0.02246 0.0
C2384 C 0.8984 0.45825 0.75655 0.0
C2385 C 0.88877 0.52022 0.75993 0.0
C2386 C 0.88402 0.55485 0.74105 0.0
C2387 C 0.88565 0.49203 0.73773 0.0
N2388 N 0.91384 0.38673 0.74149 0.0
N2389 N 0.89312 0.62876 0.75591 0.0
C2390 C 0.90014 0.44467 0.74524 0.0
C2391 C 0.88929 0.56908 0.75229 0.0
N2392 N 0.90168 0.41235 0.76416 0.0
N2393 N 0.87336 0.6001 0.73354 0.0
H2394 H 0.89711 0.63929 0.76417 0.0
H2395 H 0.89772 0.66698 0.75083 0.0
H2396 H 0.87158 0.59078 0.72523 0.0
H2397 H 0.86455 0.64616 0.73548 0.0
H2398 H 0.90154 0.36531 0.76232 0.0
H2399 H 0.90309 0.42183 0.77246 0.0
H2400 H 0.92875 0.35056 0.74642 0.0
H2401 H 0.91515 0.3765 0.7332 0.0
C2402 C 0.70214 0.64816 0.99109 0.0
C2403 C 0.7645 0.64189 0.9877 0.0
C2404 C 0.79942 0.63746 0.00656 0.0
C2405 C 0.73664 0.63696 0.00989 0.0
N2406 N 0.63045 0.66172 0.00614 0.0
N2407 N 0.87278 0.65111 0.99176 0.0
C2408 C 0.68872 0.64968 0.00239 0.0
C2409 C 0.81334 0.64408 0.99534 0.0
N2410 N 0.65584 0.64845 0.98353 0.0
N2411 N 0.84511 0.62759 0.01403 0.0
H2412 H 0.88326 0.65616 0.98353 0.0
H2413 H 0.91059 0.65745 0.99688 0.0
H2414 H 0.83609 0.62469 0.02233 0.0
H2415 H 0.89131 0.62014 0.01203 0.0
H2416 H 0.60901 0.64543 0.98544 0.0
H2417 H 0.66471 0.64965 0.97522 0.0
H2418 H 0.59396 0.67576 0.0012 0.0
H2419 H 0.62021 0.66291 0.01443 0.0
C2420 C 0.60324 0.45611 0.2402 0.0
C2421 C 0.61339 0.51811 0.23687 0.0
C2422 C 0.62163 0.55184 0.25576 0.0
C2423 C 0.61736 0.48906 0.25905 0.0
N2424 N 0.58569 0.38469 0.25517 0.0
N2425 N 0.61252 0.62663 0.24108 0.0
C2426 C 0.60142 0.44228 0.25149 0.0
C2427 C 0.61545 0.56665 0.24458 0.0
N2428 N 0.59926 0.41026 0.23258 0.0
N2429 N 0.63531 0.5965 0.26326 0.0
H2430 H 0.60776 0.6379 0.23288 0.0
H2431 H 0.60919 0.66457 0.24627 0.0
H2432 H 0.638 0.58714 0.27154 0.0
H2433 H 0.64635 0.64204 0.26127 0.0
H2434 H 0.59933 0.36322 0.23442 0.0
H2435 H 0.59799 0.41954 0.22427 0.0
H2436 H 0.56905 0.34944 0.25019 0.0
H2437 H 0.58424 0.37399 0.26343 0.0
C2438 C 0.67305 0.35163 0.49477 0.0
C2439 C 0.72117 0.35711 0.48704 0.0
C2440 C 0.79827 0.35195 0.5016 0.0
C2441 C 0.75023 0.36088 0.50925 0.0
N2442 N 0.64168 0.36393 0.51359 0.0
N2443 N 0.82976 0.35694 0.48268 0.0
C2444 C 0.68736 0.35754 0.506 0.0
C2445 C 0.78401 0.35395 0.49032 0.0
N2446 N 0.61381 0.34199 0.49127 0.0
N2447 N 0.8574 0.34284 0.5052 0.0
H2448 H 0.82043 0.35601 0.47438 0.0
H2449 H 0.87648 0.36237 0.48451 0.0
H2450 H 0.86827 0.34125 0.51346 0.0
H2451 H 0.8943 0.33155 0.50014 0.0
H2452 H 0.57671 0.33313 0.49643 0.0
H2453 H 0.60302 0.3374 0.48304 0.0
H2454 H 0.59503 0.36926 0.5117 0.0
H2455 H 0.65103 0.36605 0.52189 0.0
C2456 C 0.13752 0.54323 0.24155 0.0
C2457 C 0.13633 0.47998 0.23844 0.0
C2458 C 0.124 0.44831 0.25738 0.0
C2459 C 0.13036 0.51114 0.26054 0.0
N2460 N 0.12349 0.61896 0.25596 0.0
N2461 N 0.10993 0.37458 0.24265 0.0
C2462 C 0.12999 0.55886 0.25268 0.0
C2463 C 0.12286 0.43325 0.24614 0.0
N2464 N 0.14972 0.58778 0.23397 0.0
N2465 N 0.12288 0.40306 0.26513 0.0
H2466 H 0.10888 0.36293 0.23442 0.0
H2467 H 0.09501 0.33913 0.24774 0.0
H2468 H 0.1213 0.41305 0.27341 0.0
H2469 H 0.12587 0.35595 0.26342 0.0
H2470 H 0.15854 0.63393 0.23586 0.0
H2471 H 0.1538 0.5778 0.22572 0.0
H2472 H 0.11801 0.65598 0.25064 0.0
H2473 H 0.11783 0.63092 0.26412 0.0
C2474 C 0.30079 0.3927 0.99557 0.0
C2475 C 0.25325 0.40176 0.98783 0.0
C2476 C 0.17553 0.4017 0.00231 0.0
C2477 C 0.22397 0.40508 0.01004 0.0
N2478 N 0.33262 0.40112 0.01442 0.0
N2479 N 0.14516 0.41166 0.9834 0.0
C2480 C 0.28665 0.39851 0.0068 0.0
C2481 C 0.1903 0.40401 0.99107 0.0
N2482 N 0.35937 0.37923 0.99211 0.0
N2483 N 0.11564 0.39677 0.00579 0.0
H2484 H 0.15451 0.41086 0.9751 0.0
H2485 H 0.0991 0.42116 0.98522 0.0
H2486 H 0.10391 0.39519 0.01401 0.0
H2487 H 0.07826 0.38897 0.00063 0.0
H2488 H 0.39544 0.36706 0.99729 0.0
H2489 H 0.37048 0.37488 0.98389 0.0
H2490 H 0.3795 0.40407 0.01254 0.0
H2491 H 0.32359 0.40314 0.02272 0.0
C2492 C 0.39488 0.56836 0.74541 0.0
C2493 C 0.39279 0.51924 0.73782 0.0
C2494 C 0.4045 0.44403 0.75252 0.0
C2495 C 0.39118 0.49183 0.76002 0.0
N2496 N 0.38131 0.60021 0.76418 0.0
N2497 N 0.40437 0.4112 0.73363 0.0
C2498 C 0.39045 0.55458 0.75666 0.0
C2499 C 0.40209 0.45729 0.74122 0.0
N2500 N 0.39919 0.62784 0.74171 0.0
N2501 N 0.41755 0.38601 0.7563 0.0
H2502 H 0.40528 0.42054 0.72532 0.0
H2503 H 0.40404 0.36419 0.73548 0.0
H2504 H 0.41935 0.3761 0.76459 0.0
H2505 H 0.43143 0.3494 0.75137 0.0
H2506 H 0.40476 0.66619 0.74674 0.0
H2507 H 0.40249 0.63796 0.73344 0.0
H2508 H 0.37328 0.6464 0.76223 0.0
H2509 H 0.38014 0.59109 0.77249 0.0
C2510 C 0.29418 0.63571 0.49181 0.0
C2511 C 0.23106 0.63497 0.48868 0.0
C2512 C 0.19851 0.63144 0.50765 0.0
C2513 C 0.26159 0.62677 0.51075 0.0
N2514 N 0.3689 0.64351 0.50653 0.0
N2515 N 0.12454 0.65256 0.49324 0.0
C2516 C 0.30932 0.63581 0.50305 0.0
C2517 C 0.18368 0.64031 0.49653 0.0
N2518 N 0.33925 0.63241 0.48406 0.0
N2519 N 0.153 0.62332 0.51522 0.0
H2520 H 0.11327 0.65921 0.48508 0.0
H2521 H 0.08827 0.66183 0.49857 0.0
H2522 H 0.16247 0.61815 0.52346 0.0
H2523 H 0.10627 0.61877 0.51331 0.0
H2524 H 0.38588 0.62516 0.48576 0.0
H2525 H 0.32932 0.63482 0.47579 0.0
H2526 H 0.4055 0.65503 0.50141 0.0
H2527 H 0.38061 0.64377 0.51476 0.0
loop_
_geom_bond_atom_site_label_1
_geom_bond_atom_site_label_2
_geom_bond_distance
_geom_bond_site_symmetry_2
_ccdc_geom_bond_type
Co0 O3 1.970 . S
Co0 N17 1.989 . S
Co0 O25 1.967 . S
Co0 O32 1.920 . S
Co1 O4 1.966 . S
Co1 N10 2.022 . S
Co1 N18 1.993 . S
Co1 O26 1.941 . S
C2 O3 1.258 . S
C2 O4 1.263 . S
O3 Co0 1.970 . S
O3 C2 1.258 . S
O4 Co1 1.966 . S
O4 C2 1.263 . S
C5 O6 1.235 . S
C5 O32 1.289 . S
O6 C5 1.235 . S
C7 C9 1.400 . S
C7 N10 1.351 . S
C7 C12 1.501 . S
C8 C9 1.387 . S
C8 N11 1.341 . S
C9 C7 1.400 . S
C9 C8 1.387 . S
N10 Co1 2.022 . S
N10 C7 1.351 . S
N10 N11 1.365 . S
N11 C8 1.341 . S
N11 N10 1.365 . S
N11 H31 0.862 . S
C12 C7 1.501 . S
C12 H13 0.961 . S
C12 H14 0.961 . S
C12 H15 0.960 . S
H13 C12 0.961 . S
H14 C12 0.961 . S
H15 C12 0.960 . S
C16 N17 1.342 1_565 S
C16 C20 1.401 . S
C16 C21 1.499 . S
N17 Co0 1.989 . S
N17 C16 1.342 1_545 S
N17 N18 1.388 . S
N18 Co1 1.993 . S
N18 N17 1.388 . S
N18 C19 1.346 1_545 S
C19 N18 1.346 1_565 S
C19 C20 1.396 . S
C19 C29 1.510 . S
C20 C16 1.401 . S
C20 C19 1.396 . S
C21 C16 1.499 . S
C21 H22 0.959 . S
C21 H23 0.960 . S
C21 H24 0.961 . S
H22 C21 0.959 . S
H23 C21 0.960 . S
H24 C21 0.961 . S
O25 Co0 1.967 . S
O25 C33 1.258 . S
O26 Co1 1.941 . S
O26 C33 1.266 . S
H27 C29 0.959 . S
H28 C29 0.961 . S
C29 C19 1.510 . S
C29 H27 0.959 . S
C29 H28 0.961 . S
C29 H30 0.960 . S
H30 C29 0.960 . S
H31 N11 0.862 . S
O32 Co0 1.920 . S
O32 C5 1.289 . S
C33 O25 1.258 . S
C33 O26 1.266 . S
Co34 O37 1.970 . S
Co34 N51 1.989 . S
Co34 O59 1.967 . S
Co34 O66 1.920 . S
Co35 O38 1.966 . S
Co35 N44 2.022 . S
Co35 N52 1.993 . S
Co35 O60 1.941 . S
C36 O37 1.258 . S
C36 O38 1.263 . S
O37 Co34 1.970 . S
O37 C36 1.258 . S
O38 Co35 1.966 . S
O38 C36 1.263 . S
C39 O40 1.235 . S
C39 O66 1.289 . S
O40 C39 1.235 . S
C41 C43 1.400 . S
C41 N44 1.351 . S
C41 C46 1.501 . S
C42 C43 1.387 . S
C42 N45 1.341 . S
C43 C41 1.400 . S
C43 C42 1.387 . S
N44 Co35 2.022 . S
N44 C41 1.351 . S
N44 N45 1.365 . S
N45 C42 1.341 . S
N45 N44 1.365 . S
N45 H65 0.862 . S
C46 C41 1.501 . S
C46 H47 0.961 . S
C46 H48 0.961 . S
C46 H49 0.960 . S
H47 C46 0.961 . S
H48 C46 0.961 . S
H49 C46 0.960 . S
C50 N51 1.342 . S
C50 C54 1.401 . S
C50 C55 1.499 . S
N51 Co34 1.989 . S
N51 C50 1.342 . S
N51 N52 1.388 . S
N52 Co35 1.993 . S
N52 N51 1.388 . S
N52 C53 1.346 . S
C53 N52 1.346 . S
C53 C54 1.396 . S
C53 C63 1.510 . S
C54 C50 1.401 . S
C54 C53 1.396 . S
C55 C50 1.499 . S
C55 H56 0.959 . S
C55 H57 0.960 . S
C55 H58 0.961 . S
H56 C55 0.959 . S
H57 C55 0.960 . S
H58 C55 0.961 . S
O59 Co34 1.967 . S
O59 C67 1.258 . S
O60 Co35 1.941 . S
O60 C67 1.266 . S
H61 C63 0.959 . S
H62 C63 0.961 . S
C63 C53 1.510 . S
C63 H61 0.959 . S
C63 H62 0.961 . S
C63 H64 0.960 . S
H64 C63 0.960 . S
H65 N45 0.862 . S
O66 Co34 1.920 . S
O66 C39 1.289 . S
C67 O59 1.258 . S
C67 O60 1.266 . S
Co68 O71 1.970 . S
Co68 N85 1.989 . S
Co68 O93 1.967 . S
Co68 O100 1.920 . S
Co69 O72 1.966 . S
Co69 N78 2.022 . S
Co69 N86 1.993 . S
Co69 O94 1.941 . S
C70 O71 1.258 . S
C70 O72 1.263 . S
O71 Co68 1.970 . S
O71 C70 1.258 . S
O72 Co69 1.966 . S
O72 C70 1.263 . S
C73 O74 1.235 . S
C73 O100 1.289 . S
O74 C73 1.235 . S
C75 C77 1.400 . S
C75 N78 1.351 . S
C75 C80 1.501 . S
C76 C77 1.387 . S
C76 N79 1.341 . S
C77 C75 1.400 . S
C77 C76 1.387 . S
N78 Co69 2.022 . S
N78 C75 1.351 . S
N78 N79 1.365 . S
N79 C76 1.341 . S
N79 N78 1.365 . S
N79 H99 0.862 . S
C80 C75 1.501 . S
C80 H81 0.961 . S
C80 H82 0.961 . S
C80 H83 0.960 . S
H81 C80 0.961 . S
H82 C80 0.961 . S
H83 C80 0.960 . S
C84 N85 1.342 1_545 S
C84 C88 1.401 . S
C84 C89 1.499 . S
N85 Co68 1.989 . S
N85 C84 1.342 1_565 S
N85 N86 1.388 . S
N86 Co69 1.993 . S
N86 N85 1.388 . S
N86 C87 1.346 1_565 S
C87 N86 1.346 1_545 S
C87 C88 1.396 . S
C87 C97 1.510 . S
C88 C84 1.401 . S
C88 C87 1.396 . S
C89 C84 1.499 . S
C89 H90 0.959 . S
C89 H91 0.960 . S
C89 H92 0.961 . S
H90 C89 0.959 . S
H91 C89 0.960 . S
H92 C89 0.961 . S
O93 Co68 1.967 . S
O93 C101 1.258 . S
O94 Co69 1.941 . S
O94 C101 1.266 . S
H95 C97 0.959 . S
H96 C97 0.961 . S
C97 C87 1.510 . S
C97 H95 0.959 . S
C97 H96 0.961 . S
C97 H98 0.960 . S
H98 C97 0.960 . S
H99 N79 0.862 . S
O100 Co68 1.920 . S
O100 C73 1.289 . S
C101 O93 1.258 . S
C101 O94 1.266 . S
Co102 O105 1.970 . S
Co102 N119 1.989 . S
Co102 O127 1.967 . S
Co102 O134 1.920 . S
Co103 O106 1.966 . S
Co103 N112 2.022 . S
Co103 N120 1.993 . S
Co103 O128 1.941 . S
C104 O105 1.258 . S
C104 O106 1.263 . S
O105 Co102 1.970 . S
O105 C104 1.258 . S
O106 Co103 1.966 . S
O106 C104 1.263 . S
C107 O108 1.235 . S
C107 O134 1.289 . S
O108 C107 1.235 . S
C109 C111 1.400 . S
C109 N112 1.351 . S
C109 C114 1.501 . S
C110 C111 1.387 . S
C110 N113 1.341 . S
C111 C109 1.400 . S
C111 C110 1.387 . S
N112 Co103 2.022 . S
N112 C109 1.351 . S
N112 N113 1.365 . S
N113 C110 1.341 . S
N113 N112 1.365 . S
N113 H133 0.862 . S
C114 C109 1.501 . S
C114 H115 0.961 . S
C114 H116 0.961 . S
C114 H117 0.960 . S
H115 C114 0.961 . S
H116 C114 0.961 . S
H117 C114 0.960 . S
C118 N119 1.342 . S
C118 C122 1.401 . S
C118 C123 1.499 . S
N119 Co102 1.989 . S
N119 C118 1.342 . S
N119 N120 1.388 . S
N120 Co103 1.993 . S
N120 N119 1.388 . S
N120 C121 1.346 . S
C121 N120 1.346 . S
C121 C122 1.396 . S
C121 C131 1.510 . S
C122 C118 1.401 . S
C122 C121 1.396 . S
C123 C118 1.499 . S
C123 H124 0.959 . S
C123 H125 0.960 . S
C123 H126 0.961 . S
H124 C123 0.959 . S
H125 C123 0.960 . S
H126 C123 0.961 . S
O127 Co102 1.967 . S
O127 C135 1.258 . S
O128 Co103 1.941 . S
O128 C135 1.266 . S
H129 C131 0.959 . S
H130 C131 0.961 . S
C131 C121 1.510 . S
C131 H129 0.959 . S
C131 H130 0.961 . S
C131 H132 0.960 . S
H132 C131 0.960 . S
H133 N113 0.862 . S
O134 Co102 1.920 . S
O134 C107 1.289 . S
C135 O127 1.258 . S
C135 O128 1.266 . S
Co136 O139 1.970 . S
Co136 N153 1.989 . S
Co136 O161 1.967 . S
Co136 O168 1.920 . S
Co137 O140 1.966 . S
Co137 N146 2.022 . S
Co137 N154 1.993 . S
Co137 O162 1.941 . S
C138 O139 1.258 . S
C138 O140 1.263 . S
O139 Co136 1.970 . S
O139 C138 1.258 . S
O140 Co137 1.966 . S
O140 C138 1.263 . S
C141 O142 1.235 . S
C141 O168 1.289 . S
O142 C141 1.235 . S
C143 C145 1.400 . S
C143 N146 1.351 . S
C143 C148 1.501 . S
C144 C145 1.387 . S
C144 N147 1.341 . S
C145 C143 1.400 . S
C145 C144 1.387 . S
N146 Co137 2.022 . S
N146 C143 1.351 . S
N146 N147 1.365 . S
N147 C144 1.341 . S
N147 N146 1.365 . S
N147 H167 0.862 . S
C148 C143 1.501 . S
C148 H149 0.961 . S
C148 H150 0.961 . S
C148 H151 0.960 . S
H149 C148 0.961 . S
H150 C148 0.961 . S
H151 C148 0.960 . S
C152 N153 1.342 1_545 S
C152 C156 1.401 . S
C152 C157 1.499 . S
N153 Co136 1.989 . S
N153 C152 1.342 1_565 S
N153 N154 1.388 . S
N154 Co137 1.993 . S
N154 N153 1.388 . S
N154 C155 1.346 1_565 S
C155 N154 1.346 1_545 S
C155 C156 1.396 . S
C155 C165 1.510 . S
C156 C152 1.401 . S
C156 C155 1.396 . S
C157 C152 1.499 . S
C157 H158 0.959 . S
C157 H159 0.960 . S
C157 H160 0.961 . S
H158 C157 0.959 . S
H159 C157 0.960 . S
H160 C157 0.961 . S
O161 Co136 1.967 . S
O161 C169 1.258 . S
O162 Co137 1.941 . S
O162 C169 1.266 . S
H163 C165 0.959 . S
H164 C165 0.961 . S
C165 C155 1.510 . S
C165 H163 0.959 . S
C165 H164 0.961 . S
C165 H166 0.960 . S
H166 C165 0.960 . S
H167 N147 0.862 . S
O168 Co136 1.920 . S
O168 C141 1.289 . S
C169 O161 1.258 . S
C169 O162 1.266 . S
Co170 O173 1.970 . S
Co170 N187 1.989 . S
Co170 O195 1.967 . S
Co170 O202 1.920 . S
Co171 O174 1.966 . S
Co171 N180 2.022 . S
Co171 N188 1.993 . S
Co171 O196 1.941 . S
C172 O173 1.258 . S
C172 O174 1.263 . S
O173 Co170 1.970 . S
O173 C172 1.258 . S
O174 Co171 1.966 . S
O174 C172 1.263 . S
C175 O176 1.235 . S
C175 O202 1.289 . S
O176 C175 1.235 . S
C177 C179 1.400 . S
C177 N180 1.351 . S
C177 C182 1.501 . S
C178 C179 1.387 . S
C178 N181 1.341 . S
C179 C177 1.400 . S
C179 C178 1.387 . S
N180 Co171 2.022 . S
N180 C177 1.351 . S
N180 N181 1.365 . S
N181 C178 1.341 . S
N181 N180 1.365 . S
N181 H201 0.862 . S
C182 C177 1.501 . S
C182 H183 0.961 . S
C182 H184 0.961 . S
C182 H185 0.960 . S
H183 C182 0.961 . S
H184 C182 0.961 . S
H185 C182 0.960 . S
C186 N187 1.342 . S
C186 C190 1.401 . S
C186 C191 1.499 . S
N187 Co170 1.989 . S
N187 C186 1.342 . S
N187 N188 1.388 . S
N188 Co171 1.993 . S
N188 N187 1.388 . S
N188 C189 1.346 . S
C189 N188 1.346 . S
C189 C190 1.396 . S
C189 C199 1.510 . S
C190 C186 1.401 . S
C190 C189 1.396 . S
C191 C186 1.499 . S
C191 H192 0.959 . S
C191 H193 0.960 . S
C191 H194 0.961 . S
H192 C191 0.959 . S
H193 C191 0.960 . S
H194 C191 0.961 . S
O195 Co170 1.967 . S
O195 C203 1.258 . S
O196 Co171 1.941 . S
O196 C203 1.266 . S
H197 C199 0.959 . S
H198 C199 0.961 . S
C199 C189 1.510 . S
C199 H197 0.959 . S
C199 H198 0.961 . S
C199 H200 0.960 . S
H200 C199 0.960 . S
H201 N181 0.862 . S
O202 Co170 1.920 . S
O202 C175 1.289 . S
C203 O195 1.258 . S
C203 O196 1.266 . S
Co204 O207 1.970 . S
Co204 N221 1.989 . S
Co204 O229 1.967 . S
Co204 O236 1.920 . S
Co205 O208 1.966 . S
Co205 N214 2.022 . S
Co205 N222 1.993 . S
Co205 O230 1.941 . S
C206 O207 1.258 . S
C206 O208 1.263 . S
O207 Co204 1.970 . S
O207 C206 1.258 . S
O208 Co205 1.966 . S
O208 C206 1.263 . S
C209 O210 1.235 . S
C209 O236 1.289 . S
O210 C209 1.235 . S
C211 C213 1.400 . S
C211 N214 1.351 . S
C211 C216 1.501 . S
C212 C213 1.387 . S
C212 N215 1.341 . S
C213 C211 1.400 . S
C213 C212 1.387 . S
N214 Co205 2.022 . S
N214 C211 1.351 . S
N214 N215 1.365 . S
N215 C212 1.341 . S
N215 N214 1.365 . S
N215 H235 0.862 . S
C216 C211 1.501 . S
C216 H217 0.961 . S
C216 H218 0.961 . S
C216 H219 0.960 . S
H217 C216 0.961 . S
H218 C216 0.961 . S
H219 C216 0.960 . S
C220 N221 1.342 1_565 S
C220 C224 1.401 . S
C220 C225 1.499 . S
N221 Co204 1.989 . S
N221 C220 1.342 1_545 S
N221 N222 1.388 . S
N222 Co205 1.993 . S
N222 N221 1.388 . S
N222 C223 1.346 1_545 S
C223 N222 1.346 1_565 S
C223 C224 1.396 . S
C223 C233 1.510 . S
C224 C220 1.401 . S
C224 C223 1.396 . S
C225 C220 1.499 . S
C225 H226 0.959 . S
C225 H227 0.960 . S
C225 H228 0.961 . S
H226 C225 0.959 . S
H227 C225 0.960 . S
H228 C225 0.961 . S
O229 Co204 1.967 . S
O229 C237 1.258 . S
O230 Co205 1.941 . S
O230 C237 1.266 . S
H231 C233 0.959 . S
H232 C233 0.961 . S
C233 C223 1.510 . S
C233 H231 0.959 . S
C233 H232 0.961 . S
C233 H234 0.960 . S
H234 C233 0.960 . S
H235 N215 0.862 . S
O236 Co204 1.920 . S
O236 C209 1.289 . S
C237 O229 1.258 . S
C237 O230 1.266 . S
Co238 O241 1.970 . S
Co238 N255 1.989 . S
Co238 O263 1.967 . S
Co238 O270 1.920 . S
Co239 O242 1.966 . S
Co239 N248 2.022 . S
Co239 N256 1.993 . S
Co239 O264 1.941 . S
C240 O241 1.258 . S
C240 O242 1.263 . S
O241 Co238 1.970 . S
O241 C240 1.258 . S
O242 Co239 1.966 . S
O242 C240 1.263 . S
C243 O244 1.235 . S
C243 O270 1.289 . S
O244 C243 1.235 . S
C245 C247 1.400 . S
C245 N248 1.351 . S
C245 C250 1.501 . S
C246 C247 1.387 . S
C246 N249 1.341 . S
C247 C245 1.400 . S
C247 C246 1.387 . S
N248 Co239 2.022 . S
N248 C245 1.351 . S
N248 N249 1.365 . S
N249 C246 1.341 . S
N249 N248 1.365 . S
N249 H269 0.862 . S
C250 C245 1.501 . S
C250 H251 0.961 . S
C250 H252 0.961 . S
C250 H253 0.960 . S
H251 C250 0.961 . S
H252 C250 0.961 . S
H253 C250 0.960 . S
C254 N255 1.342 . S
C254 C258 1.401 . S
C254 C259 1.499 . S
N255 Co238 1.989 . S
N255 C254 1.342 . S
N255 N256 1.388 . S
N256 Co239 1.993 . S
N256 N255 1.388 . S
N256 C257 1.346 . S
C257 N256 1.346 . S
C257 C258 1.396 . S
C257 C267 1.510 . S
C258 C254 1.401 . S
C258 C257 1.396 . S
C259 C254 1.499 . S
C259 H260 0.959 . S
C259 H261 0.960 . S
C259 H262 0.961 . S
H260 C259 0.959 . S
H261 C259 0.960 . S
H262 C259 0.961 . S
O263 Co238 1.967 . S
O263 C271 1.258 . S
O264 Co239 1.941 . S
O264 C271 1.266 . S
H265 C267 0.959 . S
H266 C267 0.961 . S
C267 C257 1.510 . S
C267 H265 0.959 . S
C267 H266 0.961 . S
C267 H268 0.960 . S
H268 C267 0.960 . S
H269 N249 0.862 . S
O270 Co238 1.920 . S
O270 C243 1.289 . S
C271 O263 1.258 . S
C271 O264 1.266 . S
Co272 O275 1.970 . S
Co272 N289 1.989 . S
Co272 O297 1.967 . S
Co272 O304 1.920 . S
Co273 O276 1.966 . S
Co273 N282 2.022 . S
Co273 N290 1.993 . S
Co273 O298 1.941 . S
C274 O275 1.258 . S
C274 O276 1.263 . S
O275 Co272 1.970 . S
O275 C274 1.258 . S
O276 Co273 1.966 . S
O276 C274 1.263 . S
C277 O278 1.235 . S
C277 O304 1.289 . S
O278 C277 1.235 . S
C279 C281 1.400 . S
C279 N282 1.351 . S
C279 C284 1.501 . S
C280 C281 1.387 . S
C280 N283 1.341 . S
C281 C279 1.400 . S
C281 C280 1.387 . S
N282 Co273 2.022 . S
N282 C279 1.351 . S
N282 N283 1.365 . S
N283 C280 1.341 . S
N283 N282 1.365 . S
N283 H303 0.862 . S
C284 C279 1.501 . S
C284 H285 0.961 . S
C284 H286 0.961 . S
C284 H287 0.960 . S
H285 C284 0.961 . S
H286 C284 0.961 . S
H287 C284 0.960 . S
C288 N289 1.342 1_545 S
C288 C292 1.401 . S
C288 C293 1.499 . S
N289 Co272 1.989 . S
N289 C288 1.342 1_565 S
N289 N290 1.388 . S
N290 Co273 1.993 . S
N290 N289 1.388 . S
N290 C291 1.346 1_565 S
C291 N290 1.346 1_545 S
C291 C292 1.396 . S
C291 C301 1.510 . S
C292 C288 1.401 . S
C292 C291 1.396 . S
C293 C288 1.499 . S
C293 H294 0.959 . S
C293 H295 0.960 . S
C293 H296 0.961 . S
H294 C293 0.959 . S
H295 C293 0.960 . S
H296 C293 0.961 . S
O297 Co272 1.967 . S
O297 C305 1.258 . S
O298 Co273 1.941 . S
O298 C305 1.266 . S
H299 C301 0.959 . S
H300 C301 0.961 . S
C301 C291 1.510 . S
C301 H299 0.959 . S
C301 H300 0.961 . S
C301 H302 0.960 . S
H302 C301 0.960 . S
H303 N283 0.862 . S
O304 Co272 1.920 . S
O304 C277 1.289 . S
C305 O297 1.258 . S
C305 O298 1.266 . S
Co306 O309 1.970 . S
Co306 N323 1.989 . S
Co306 O331 1.967 . S
Co306 O338 1.920 . S
Co307 O310 1.966 . S
Co307 N316 2.022 . S
Co307 N324 1.993 . S
Co307 O332 1.941 . S
C308 O309 1.258 . S
C308 O310 1.263 . S
O309 Co306 1.970 . S
O309 C308 1.258 . S
O310 Co307 1.966 . S
O310 C308 1.263 . S
C311 O312 1.235 . S
C311 O338 1.289 . S
O312 C311 1.235 . S
C313 C315 1.400 . S
C313 N316 1.351 . S
C313 C318 1.501 . S
C314 C315 1.387 . S
C314 N317 1.341 . S
C315 C313 1.400 . S
C315 C314 1.387 . S
N316 Co307 2.022 . S
N316 C313 1.351 . S
N316 N317 1.365 . S
N317 C314 1.341 . S
N317 N316 1.365 . S
N317 H337 0.862 . S
C318 C313 1.501 . S
C318 H319 0.961 . S
C318 H320 0.961 . S
C318 H321 0.960 . S
H319 C318 0.961 . S
H320 C318 0.961 . S
H321 C318 0.960 . S
C322 N323 1.342 . S
C322 C326 1.401 . S
C322 C327 1.499 . S
N323 Co306 1.989 . S
N323 C322 1.342 . S
N323 N324 1.388 . S
N324 Co307 1.993 . S
N324 N323 1.388 . S
N324 C325 1.346 . S
C325 N324 1.346 . S
C325 C326 1.396 . S
C325 C335 1.510 . S
C326 C322 1.401 . S
C326 C325 1.396 . S
C327 C322 1.499 . S
C327 H328 0.959 . S
C327 H329 0.960 . S
C327 H330 0.961 . S
H328 C327 0.959 . S
H329 C327 0.960 . S
H330 C327 0.961 . S
O331 Co306 1.967 . S
O331 C339 1.258 . S
O332 Co307 1.941 . S
O332 C339 1.266 . S
H333 C335 0.959 . S
H334 C335 0.961 . S
C335 C325 1.510 . S
C335 H333 0.959 . S
C335 H334 0.961 . S
C335 H336 0.960 . S
H336 C335 0.960 . S
H337 N317 0.862 . S
O338 Co306 1.920 . S
O338 C311 1.289 . S
C339 O331 1.258 . S
C339 O332 1.266 . S
Co340 O343 1.970 . S
Co340 N357 1.989 . S
Co340 O365 1.967 . S
Co340 O372 1.920 . S
Co341 O344 1.966 . S
Co341 N350 2.022 . S
Co341 N358 1.993 . S
Co341 O366 1.941 . S
C342 O343 1.258 . S
C342 O344 1.263 . S
O343 Co340 1.970 . S
O343 C342 1.258 . S
O344 Co341 1.966 . S
O344 C342 1.263 . S
C345 O346 1.235 . S
C345 O372 1.289 . S
O346 C345 1.235 . S
C347 C349 1.400 . S
C347 N350 1.351 . S
C347 C352 1.501 . S
C348 C349 1.387 . S
C348 N351 1.341 . S
C349 C347 1.400 . S
C349 C348 1.387 . S
N350 Co341 2.022 . S
N350 C347 1.351 . S
N350 N351 1.365 . S
N351 C348 1.341 . S
N351 N350 1.365 . S
N351 H371 0.862 . S
C352 C347 1.501 . S
C352 H353 0.961 . S
C352 H354 0.961 . S
C352 H355 0.960 . S
H353 C352 0.961 . S
H354 C352 0.961 . S
H355 C352 0.960 . S
C356 N357 1.342 1_565 S
C356 C360 1.401 . S
C356 C361 1.499 . S
N357 Co340 1.989 . S
N357 C356 1.342 1_545 S
N357 N358 1.388 . S
N358 Co341 1.993 . S
N358 N357 1.388 . S
N358 C359 1.346 1_545 S
C359 N358 1.346 1_565 S
C359 C360 1.396 . S
C359 C369 1.510 . S
C360 C356 1.401 . S
C360 C359 1.396 . S
C361 C356 1.499 . S
C361 H362 0.959 . S
C361 H363 0.960 . S
C361 H364 0.961 . S
H362 C361 0.959 . S
H363 C361 0.960 . S
H364 C361 0.961 . S
O365 Co340 1.967 . S
O365 C373 1.258 . S
O366 Co341 1.941 . S
O366 C373 1.266 . S
H367 C369 0.959 . S
H368 C369 0.961 . S
C369 C359 1.510 . S
C369 H367 0.959 . S
C369 H368 0.961 . S
C369 H370 0.960 . S
H370 C369 0.960 . S
H371 N351 0.862 . S
O372 Co340 1.920 . S
O372 C345 1.289 . S
C373 O365 1.258 . S
C373 O366 1.266 . S
Co374 O377 1.970 . S
Co374 N391 1.989 . S
Co374 O399 1.967 . S
Co374 O406 1.920 . S
Co375 O378 1.966 . S
Co375 N384 2.022 . S
Co375 N392 1.993 . S
Co375 O400 1.941 . S
C376 O377 1.258 . S
C376 O378 1.263 . S
O377 Co374 1.970 . S
O377 C376 1.258 . S
O378 Co375 1.966 . S
O378 C376 1.263 . S
C379 O380 1.235 . S
C379 O406 1.289 . S
O380 C379 1.235 . S
C381 C383 1.400 . S
C381 N384 1.351 . S
C381 C386 1.501 . S
C382 C383 1.387 . S
C382 N385 1.341 . S
C383 C381 1.400 . S
C383 C382 1.387 . S
N384 Co375 2.022 . S
N384 C381 1.351 . S
N384 N385 1.365 . S
N385 C382 1.341 . S
N385 N384 1.365 . S
N385 H405 0.862 . S
C386 C381 1.501 . S
C386 H387 0.961 . S
C386 H388 0.961 . S
C386 H389 0.960 . S
H387 C386 0.961 . S
H388 C386 0.961 . S
H389 C386 0.960 . S
C390 N391 1.342 . S
C390 C394 1.401 . S
C390 C395 1.499 . S
N391 Co374 1.989 . S
N391 C390 1.342 . S
N391 N392 1.388 . S
N392 Co375 1.993 . S
N392 N391 1.388 . S
N392 C393 1.346 . S
C393 N392 1.346 . S
C393 C394 1.396 . S
C393 C403 1.510 . S
C394 C390 1.401 . S
C394 C393 1.396 . S
C395 C390 1.499 . S
C395 H396 0.959 . S
C395 H397 0.960 . S
C395 H398 0.961 . S
H396 C395 0.959 . S
H397 C395 0.960 . S
H398 C395 0.961 . S
O399 Co374 1.967 . S
O399 C407 1.258 . S
O400 Co375 1.941 . S
O400 C407 1.266 . S
H401 C403 0.959 . S
H402 C403 0.961 . S
C403 C393 1.510 . S
C403 H401 0.959 . S
C403 H402 0.961 . S
C403 H404 0.960 . S
H404 C403 0.960 . S
H405 N385 0.862 . S
O406 Co374 1.920 . S
O406 C379 1.289 . S
C407 O399 1.258 . S
C407 O400 1.266 . S
Co408 O411 1.970 . S
Co408 N425 1.989 . S
Co408 O433 1.967 . S
Co408 O440 1.920 . S
Co409 O412 1.966 . S
Co409 N418 2.022 . S
Co409 N426 1.993 . S
Co409 O434 1.941 . S
C410 O411 1.258 . S
C410 O412 1.263 . S
O411 Co408 1.970 . S
O411 C410 1.258 . S
O412 Co409 1.966 . S
O412 C410 1.263 . S
C413 O414 1.235 . S
C413 O440 1.289 . S
O414 C413 1.235 . S
C415 C417 1.400 . S
C415 N418 1.351 . S
C415 C420 1.501 . S
C416 C417 1.387 . S
C416 N419 1.341 . S
C417 C415 1.400 . S
C417 C416 1.387 . S
N418 Co409 2.022 . S
N418 C415 1.351 . S
N418 N419 1.365 . S
N419 C416 1.341 . S
N419 N418 1.365 . S
N419 H439 0.862 . S
C420 C415 1.501 . S
C420 H421 0.961 . S
C420 H422 0.961 . S
C420 H423 0.960 . S
H421 C420 0.961 . S
H422 C420 0.961 . S
H423 C420 0.960 . S
C424 N425 1.342 1_565 S
C424 C428 1.401 . S
C424 C429 1.499 . S
N425 Co408 1.989 . S
N425 C424 1.342 1_545 S
N425 N426 1.388 . S
N426 Co409 1.993 . S
N426 N425 1.388 . S
N426 C427 1.346 1_545 S
C427 N426 1.346 1_565 S
C427 C428 1.396 . S
C427 C437 1.510 . S
C428 C424 1.401 . S
C428 C427 1.396 . S
C429 C424 1.499 . S
C429 H430 0.959 . S
C429 H431 0.960 . S
C429 H432 0.961 . S
H430 C429 0.959 . S
H431 C429 0.960 . S
H432 C429 0.961 . S
O433 Co408 1.967 . S
O433 C441 1.258 . S
O434 Co409 1.941 . S
O434 C441 1.266 . S
H435 C437 0.959 . S
H436 C437 0.961 . S
C437 C427 1.510 . S
C437 H435 0.959 . S
C437 H436 0.961 . S
C437 H438 0.960 . S
H438 C437 0.960 . S
H439 N419 0.862 . S
O440 Co408 1.920 . S
O440 C413 1.289 . S
C441 O433 1.258 . S
C441 O434 1.266 . S
Co442 O445 1.970 . S
Co442 N459 1.989 . S
Co442 O467 1.967 . S
Co442 O474 1.920 . S
Co443 O446 1.966 . S
Co443 N452 2.022 . S
Co443 N460 1.993 . S
Co443 O468 1.941 . S
C444 O445 1.258 . S
C444 O446 1.263 . S
O445 Co442 1.970 . S
O445 C444 1.258 . S
O446 Co443 1.966 . S
O446 C444 1.263 . S
C447 O448 1.235 . S
C447 O474 1.289 . S
O448 C447 1.235 . S
C449 C451 1.400 . S
C449 N452 1.351 . S
C449 C454 1.501 . S
C450 C451 1.387 . S
C450 N453 1.341 . S
C451 C449 1.400 . S
C451 C450 1.387 . S
N452 Co443 2.022 . S
N452 C449 1.351 . S
N452 N453 1.365 . S
N453 C450 1.341 . S
N453 N452 1.365 . S
N453 H473 0.862 . S
C454 C449 1.501 . S
C454 H455 0.961 . S
C454 H456 0.961 . S
C454 H457 0.960 . S
H455 C454 0.961 . S
H456 C454 0.961 . S
H457 C454 0.960 . S
C458 N459 1.342 . S
C458 C462 1.401 . S
C458 C463 1.499 . S
N459 Co442 1.989 . S
N459 C458 1.342 . S
N459 N460 1.388 . S
N460 Co443 1.993 . S
N460 N459 1.388 . S
N460 C461 1.346 . S
C461 N460 1.346 . S
C461 C462 1.396 . S
C461 C471 1.510 . S
C462 C458 1.401 . S
C462 C461 1.396 . S
C463 C458 1.499 . S
C463 H464 0.959 . S
C463 H465 0.960 . S
C463 H466 0.961 . S
H464 C463 0.959 . S
H465 C463 0.960 . S
H466 C463 0.961 . S
O467 Co442 1.967 . S
O467 C475 1.258 . S
O468 Co443 1.941 . S
O468 C475 1.266 . S
H469 C471 0.959 . S
H470 C471 0.961 . S
C471 C461 1.510 . S
C471 H469 0.959 . S
C471 H470 0.961 . S
C471 H472 0.960 . S
H472 C471 0.960 . S
H473 N453 0.862 . S
O474 Co442 1.920 . S
O474 C447 1.289 . S
C475 O467 1.258 . S
C475 O468 1.266 . S
Co476 O479 1.970 . S
Co476 N493 1.989 . S
Co476 O501 1.967 . S
Co476 O508 1.920 . S
Co477 O480 1.966 . S
Co477 N486 2.022 . S
Co477 N494 1.993 . S
Co477 O502 1.941 . S
C478 O479 1.258 . S
C478 O480 1.263 . S
O479 Co476 1.970 . S
O479 C478 1.258 . S
O480 Co477 1.966 . S
O480 C478 1.263 . S
C481 O482 1.235 . S
C481 O508 1.289 . S
O482 C481 1.235 . S
C483 C485 1.400 . S
C483 N486 1.351 . S
C483 C488 1.501 . S
C484 C485 1.387 . S
C484 N487 1.341 . S
C485 C483 1.400 . S
C485 C484 1.387 . S
N486 Co477 2.022 . S
N486 C483 1.351 . S
N486 N487 1.365 . S
N487 C484 1.341 . S
N487 N486 1.365 . S
N487 H507 0.862 . S
C488 C483 1.501 . S
C488 H489 0.961 . S
C488 H490 0.961 . S
C488 H491 0.960 . S
H489 C488 0.961 . S
H490 C488 0.961 . S
H491 C488 0.960 . S
C492 N493 1.342 1_545 S
C492 C496 1.401 . S
C492 C497 1.499 . S
N493 Co476 1.989 . S
N493 C492 1.342 1_565 S
N493 N494 1.388 . S
N494 Co477 1.993 . S
N494 N493 1.388 . S
N494 C495 1.346 1_565 S
C495 N494 1.346 1_545 S
C495 C496 1.396 . S
C495 C505 1.510 . S
C496 C492 1.401 . S
C496 C495 1.396 . S
C497 C492 1.499 . S
C497 H498 0.959 . S
C497 H499 0.960 . S
C497 H500 0.961 . S
H498 C497 0.959 . S
H499 C497 0.960 . S
H500 C497 0.961 . S
O501 Co476 1.967 . S
O501 C509 1.258 . S
O502 Co477 1.941 . S
O502 C509 1.266 . S
H503 C505 0.959 . S
H504 C505 0.961 . S
C505 C495 1.510 . S
C505 H503 0.959 . S
C505 H504 0.961 . S
C505 H506 0.960 . S
H506 C505 0.960 . S
H507 N487 0.862 . S
O508 Co476 1.920 . S
O508 C481 1.289 . S
C509 O501 1.258 . S
C509 O502 1.266 . S
Co510 O513 1.970 . S
Co510 N527 1.989 . S
Co510 O535 1.967 . S
Co510 O542 1.920 . S
Co511 O514 1.966 . S
Co511 N520 2.022 . S
Co511 N528 1.993 . S
Co511 O536 1.941 . S
C512 O513 1.258 . S
C512 O514 1.263 . S
O513 Co510 1.970 . S
O513 C512 1.258 . S
O514 Co511 1.966 . S
O514 C512 1.263 . S
C515 O516 1.235 . S
C515 O542 1.289 . S
O516 C515 1.235 . S
C517 C519 1.400 . S
C517 N520 1.351 . S
C517 C522 1.501 . S
C518 C519 1.387 . S
C518 N521 1.341 . S
C519 C517 1.400 . S
C519 C518 1.387 . S
N520 Co511 2.022 . S
N520 C517 1.351 . S
N520 N521 1.365 . S
N521 C518 1.341 . S
N521 N520 1.365 . S
N521 H541 0.862 . S
C522 C517 1.501 . S
C522 H523 0.961 . S
C522 H524 0.961 . S
C522 H525 0.960 . S
H523 C522 0.961 . S
H524 C522 0.961 . S
H525 C522 0.960 . S
C526 N527 1.342 . S
C526 C530 1.401 . S
C526 C531 1.499 . S
N527 Co510 1.989 . S
N527 C526 1.342 . S
N527 N528 1.388 . S
N528 Co511 1.993 . S
N528 N527 1.388 . S
N528 C529 1.346 . S
C529 N528 1.346 . S
C529 C530 1.396 . S
C529 C539 1.510 . S
C530 C526 1.401 . S
C530 C529 1.396 . S
C531 C526 1.499 . S
C531 H532 0.959 . S
C531 H533 0.960 . S
C531 H534 0.961 . S
H532 C531 0.959 . S
H533 C531 0.960 . S
H534 C531 0.961 . S
O535 Co510 1.967 . S
O535 C543 1.258 . S
O536 Co511 1.941 . S
O536 C543 1.266 . S
H537 C539 0.959 . S
H538 C539 0.961 . S
C539 C529 1.510 . S
C539 H537 0.959 . S
C539 H538 0.961 . S
C539 H540 0.960 . S
H540 C539 0.960 . S
H541 N521 0.862 . S
O542 Co510 1.920 . S
O542 C515 1.289 . S
C543 O535 1.258 . S
C543 O536 1.266 . S
Co544 O547 1.970 . S
Co544 N561 1.989 . S
Co544 O569 1.967 . S
Co544 O576 1.920 . S
Co545 O548 1.966 . S
Co545 N554 2.022 . S
Co545 N562 1.993 . S
Co545 O570 1.941 . S
C546 O547 1.258 . S
C546 O548 1.263 . S
O547 Co544 1.970 . S
O547 C546 1.258 . S
O548 Co545 1.966 . S
O548 C546 1.263 . S
C549 O550 1.235 . S
C549 O576 1.289 . S
O550 C549 1.235 . S
C551 C553 1.400 . S
C551 N554 1.351 . S
C551 C556 1.501 . S
C552 C553 1.387 . S
C552 N555 1.341 . S
C553 C551 1.400 . S
C553 C552 1.387 . S
N554 Co545 2.022 . S
N554 C551 1.351 . S
N554 N555 1.365 . S
N555 C552 1.341 . S
N555 N554 1.365 . S
N555 H575 0.862 . S
C556 C551 1.501 . S
C556 H557 0.961 . S
C556 H558 0.961 . S
C556 H559 0.960 . S
H557 C556 0.961 . S
H558 C556 0.961 . S
H559 C556 0.960 . S
C560 N561 1.342 . S
C560 C564 1.401 . S
C560 C565 1.499 . S
N561 Co544 1.989 . S
N561 C560 1.342 . S
N561 N562 1.388 . S
N562 Co545 1.993 . S
N562 N561 1.388 . S
N562 C563 1.346 . S
C563 N562 1.346 . S
C563 C564 1.396 . S
C563 C573 1.510 . S
C564 C560 1.401 . S
C564 C563 1.396 . S
C565 C560 1.499 . S
C565 H566 0.959 . S
C565 H567 0.960 . S
C565 H568 0.961 . S
H566 C565 0.959 . S
H567 C565 0.960 . S
H568 C565 0.961 . S
O569 Co544 1.967 . S
O569 C577 1.258 . S
O570 Co545 1.941 . S
O570 C577 1.266 . S
H571 C573 0.959 . S
H572 C573 0.961 . S
C573 C563 1.510 . S
C573 H571 0.959 . S
C573 H572 0.961 . S
C573 H574 0.960 . S
H574 C573 0.960 . S
H575 N555 0.862 . S
O576 Co544 1.920 . S
O576 C549 1.289 . S
C577 O569 1.258 . S
C577 O570 1.266 . S
Co578 O581 1.970 . S
Co578 N595 1.989 . S
Co578 O603 1.967 . S
Co578 O610 1.920 . S
Co579 O582 1.966 . S
Co579 N588 2.022 . S
Co579 N596 1.993 . S
Co579 O604 1.941 . S
C580 O581 1.258 . S
C580 O582 1.263 . S
O581 Co578 1.970 . S
O581 C580 1.258 . S
O582 Co579 1.966 . S
O582 C580 1.263 . S
C583 O584 1.235 . S
C583 O610 1.289 . S
O584 C583 1.235 . S
C585 C587 1.400 . S
C585 N588 1.351 . S
C585 C590 1.501 . S
C586 C587 1.387 . S
C586 N589 1.341 . S
C587 C585 1.400 . S
C587 C586 1.387 . S
N588 Co579 2.022 . S
N588 C585 1.351 . S
N588 N589 1.365 . S
N589 C586 1.341 . S
N589 N588 1.365 . S
N589 H609 0.862 . S
C590 C585 1.501 . S
C590 H591 0.961 . S
C590 H592 0.961 . S
C590 H593 0.960 . S
H591 C590 0.961 . S
H592 C590 0.961 . S
H593 C590 0.960 . S
C594 N595 1.342 . S
C594 C598 1.401 . S
C594 C599 1.499 . S
N595 Co578 1.989 . S
N595 C594 1.342 . S
N595 N596 1.388 . S
N596 Co579 1.993 . S
N596 N595 1.388 . S
N596 C597 1.346 . S
C597 N596 1.346 . S
C597 C598 1.396 . S
C597 C607 1.510 . S
C598 C594 1.401 . S
C598 C597 1.396 . S
C599 C594 1.499 . S
C599 H600 0.959 . S
C599 H601 0.960 . S
C599 H602 0.961 . S
H600 C599 0.959 . S
H601 C599 0.960 . S
H602 C599 0.961 . S
O603 Co578 1.967 . S
O603 C611 1.258 . S
O604 Co579 1.941 . S
O604 C611 1.266 . S
H605 C607 0.959 . S
H606 C607 0.961 . S
C607 C597 1.510 . S
C607 H605 0.959 . S
C607 H606 0.961 . S
C607 H608 0.960 . S
H608 C607 0.960 . S
H609 N589 0.862 . S
O610 Co578 1.920 . S
O610 C583 1.289 . S
C611 O603 1.258 . S
C611 O604 1.266 . S
Co612 O615 1.970 . S
Co612 N629 1.989 . S
Co612 O637 1.967 . S
Co612 O644 1.920 . S
Co613 O616 1.966 . S
Co613 N622 2.022 . S
Co613 N630 1.993 . S
Co613 O638 1.941 . S
C614 O615 1.258 . S
C614 O616 1.263 . S
O615 Co612 1.970 . S
O615 C614 1.258 . S
O616 Co613 1.966 . S
O616 C614 1.263 . S
C617 O618 1.235 . S
C617 O644 1.289 . S
O618 C617 1.235 . S
C619 C621 1.400 . S
C619 N622 1.351 . S
C619 C624 1.501 . S
C620 C621 1.387 . S
C620 N623 1.341 . S
C621 C619 1.400 . S
C621 C620 1.387 . S
N622 Co613 2.022 . S
N622 C619 1.351 . S
N622 N623 1.365 . S
N623 C620 1.341 . S
N623 N622 1.365 . S
N623 H643 0.862 . S
C624 C619 1.501 . S
C624 H625 0.961 . S
C624 H626 0.961 . S
C624 H627 0.960 . S
H625 C624 0.961 . S
H626 C624 0.961 . S
H627 C624 0.960 . S
C628 N629 1.342 . S
C628 C632 1.401 . S
C628 C633 1.499 . S
N629 Co612 1.989 . S
N629 C628 1.342 . S
N629 N630 1.388 . S
N630 Co613 1.993 . S
N630 N629 1.388 . S
N630 C631 1.346 . S
C631 N630 1.346 . S
C631 C632 1.396 . S
C631 C641 1.510 . S
C632 C628 1.401 . S
C632 C631 1.396 . S
C633 C628 1.499 . S
C633 H634 0.959 . S
C633 H635 0.960 . S
C633 H636 0.961 . S
H634 C633 0.959 . S
H635 C633 0.960 . S
H636 C633 0.961 . S
O637 Co612 1.967 . S
O637 C645 1.258 . S
O638 Co613 1.941 . S
O638 C645 1.266 . S
H639 C641 0.959 . S
H640 C641 0.961 . S
C641 C631 1.510 . S
C641 H639 0.959 . S
C641 H640 0.961 . S
C641 H642 0.960 . S
H642 C641 0.960 . S
H643 N623 0.862 . S
O644 Co612 1.920 . S
O644 C617 1.289 . S
C645 O637 1.258 . S
C645 O638 1.266 . S
Co646 O649 1.970 . S
Co646 N663 1.989 . S
Co646 O671 1.967 . S
Co646 O678 1.920 . S
Co647 O650 1.966 . S
Co647 N656 2.022 . S
Co647 N664 1.993 . S
Co647 O672 1.941 . S
C648 O649 1.258 . S
C648 O650 1.263 . S
O649 Co646 1.970 . S
O649 C648 1.258 . S
O650 Co647 1.966 . S
O650 C648 1.263 . S
C651 O652 1.235 . S
C651 O678 1.289 . S
O652 C651 1.235 . S
C653 C655 1.400 . S
C653 N656 1.351 . S
C653 C658 1.501 . S
C654 C655 1.387 . S
C654 N657 1.341 . S
C655 C653 1.400 . S
C655 C654 1.387 . S
N656 Co647 2.022 . S
N656 C653 1.351 . S
N656 N657 1.365 . S
N657 C654 1.341 . S
N657 N656 1.365 . S
N657 H677 0.862 . S
C658 C653 1.501 . S
C658 H659 0.961 . S
C658 H660 0.961 . S
C658 H661 0.960 . S
H659 C658 0.961 . S
H660 C658 0.961 . S
H661 C658 0.960 . S
C662 N663 1.342 . S
C662 C666 1.401 . S
C662 C667 1.499 . S
N663 Co646 1.989 . S
N663 C662 1.342 . S
N663 N664 1.388 . S
N664 Co647 1.993 . S
N664 N663 1.388 . S
N664 C665 1.346 . S
C665 N664 1.346 . S
C665 C666 1.396 . S
C665 C675 1.510 . S
C666 C662 1.401 . S
C666 C665 1.396 . S
C667 C662 1.499 . S
C667 H668 0.959 . S
C667 H669 0.960 . S
C667 H670 0.961 . S
H668 C667 0.959 . S
H669 C667 0.960 . S
H670 C667 0.961 . S
O671 Co646 1.967 . S
O671 C679 1.258 . S
O672 Co647 1.941 . S
O672 C679 1.266 . S
H673 C675 0.959 . S
H674 C675 0.961 . S
C675 C665 1.510 . S
C675 H673 0.959 . S
C675 H674 0.961 . S
C675 H676 0.960 . S
H676 C675 0.960 . S
H677 N657 0.862 . S
O678 Co646 1.920 . S
O678 C651 1.289 . S
C679 O671 1.258 . S
C679 O672 1.266 . S
Co680 O683 1.970 . S
Co680 N697 1.989 . S
Co680 O705 1.967 . S
Co680 O712 1.920 . S
Co681 O684 1.966 . S
Co681 N690 2.022 . S
Co681 N698 1.993 . S
Co681 O706 1.941 . S
C682 O683 1.258 . S
C682 O684 1.263 . S
O683 Co680 1.970 . S
O683 C682 1.258 . S
O684 Co681 1.966 . S
O684 C682 1.263 . S
C685 O686 1.235 . S
C685 O712 1.289 . S
O686 C685 1.235 . S
C687 C689 1.400 . S
C687 N690 1.351 . S
C687 C692 1.501 . S
C688 C689 1.387 . S
C688 N691 1.341 . S
C689 C687 1.400 . S
C689 C688 1.387 . S
N690 Co681 2.022 . S
N690 C687 1.351 . S
N690 N691 1.365 . S
N691 C688 1.341 . S
N691 N690 1.365 . S
N691 H711 0.862 . S
C692 C687 1.501 . S
C692 H693 0.961 . S
C692 H694 0.961 . S
C692 H695 0.960 . S
H693 C692 0.961 . S
H694 C692 0.961 . S
H695 C692 0.960 . S
C696 N697 1.342 . S
C696 C700 1.401 . S
C696 C701 1.499 . S
N697 Co680 1.989 . S
N697 C696 1.342 . S
N697 N698 1.388 . S
N698 Co681 1.993 . S
N698 N697 1.388 . S
N698 C699 1.346 . S
C699 N698 1.346 . S
C699 C700 1.396 . S
C699 C709 1.510 . S
C700 C696 1.401 . S
C700 C699 1.396 . S
C701 C696 1.499 . S
C701 H702 0.959 . S
C701 H703 0.960 . S
C701 H704 0.961 . S
H702 C701 0.959 . S
H703 C701 0.960 . S
H704 C701 0.961 . S
O705 Co680 1.967 . S
O705 C713 1.258 . S
O706 Co681 1.941 . S
O706 C713 1.266 . S
H707 C709 0.959 . S
H708 C709 0.961 . S
C709 C699 1.510 . S
C709 H707 0.959 . S
C709 H708 0.961 . S
C709 H710 0.960 . S
H710 C709 0.960 . S
H711 N691 0.862 . S
O712 Co680 1.920 . S
O712 C685 1.289 . S
C713 O705 1.258 . S
C713 O706 1.266 . S
Co714 O717 1.970 . S
Co714 N731 1.989 . S
Co714 O739 1.967 . S
Co714 O746 1.920 . S
Co715 O718 1.966 . S
Co715 N724 2.022 . S
Co715 N732 1.993 . S
Co715 O740 1.941 . S
C716 O717 1.258 . S
C716 O718 1.263 . S
O717 Co714 1.970 . S
O717 C716 1.258 . S
O718 Co715 1.966 . S
O718 C716 1.263 . S
C719 O720 1.235 . S
C719 O746 1.289 . S
O720 C719 1.235 . S
C721 C723 1.400 . S
C721 N724 1.351 . S
C721 C726 1.501 . S
C722 C723 1.387 . S
C722 N725 1.341 . S
C723 C721 1.400 . S
C723 C722 1.387 . S
N724 Co715 2.022 . S
N724 C721 1.351 . S
N724 N725 1.365 . S
N725 C722 1.341 . S
N725 N724 1.365 . S
N725 H745 0.862 . S
C726 C721 1.501 . S
C726 H727 0.961 . S
C726 H728 0.961 . S
C726 H729 0.960 . S
H727 C726 0.961 . S
H728 C726 0.961 . S
H729 C726 0.960 . S
C730 N731 1.342 . S
C730 C734 1.401 . S
C730 C735 1.499 . S
N731 Co714 1.989 . S
N731 C730 1.342 . S
N731 N732 1.388 . S
N732 Co715 1.993 . S
N732 N731 1.388 . S
N732 C733 1.346 . S
C733 N732 1.346 . S
C733 C734 1.396 . S
C733 C743 1.510 . S
C734 C730 1.401 . S
C734 C733 1.396 . S
C735 C730 1.499 . S
C735 H736 0.959 . S
C735 H737 0.960 . S
C735 H738 0.961 . S
H736 C735 0.959 . S
H737 C735 0.960 . S
H738 C735 0.961 . S
O739 Co714 1.967 . S
O739 C747 1.258 . S
O740 Co715 1.941 . S
O740 C747 1.266 . S
H741 C743 0.959 . S
H742 C743 0.961 . S
C743 C733 1.510 . S
C743 H741 0.959 . S
C743 H742 0.961 . S
C743 H744 0.960 . S
H744 C743 0.960 . S
H745 N725 0.862 . S
O746 Co714 1.920 . S
O746 C719 1.289 . S
C747 O739 1.258 . S
C747 O740 1.266 . S
Co748 O751 1.970 . S
Co748 N765 1.989 . S
Co748 O773 1.967 . S
Co748 O780 1.920 . S
Co749 O752 1.966 . S
Co749 N758 2.022 . S
Co749 N766 1.993 . S
Co749 O774 1.941 . S
C750 O751 1.258 . S
C750 O752 1.263 . S
O751 Co748 1.970 . S
O751 C750 1.258 . S
O752 Co749 1.966 . S
O752 C750 1.263 . S
C753 O754 1.235 . S
C753 O780 1.289 . S
O754 C753 1.235 . S
C755 C757 1.400 . S
C755 N758 1.351 . S
C755 C760 1.501 . S
C756 C757 1.387 . S
C756 N759 1.341 . S
C757 C755 1.400 . S
C757 C756 1.387 . S
N758 Co749 2.022 . S
N758 C755 1.351 . S
N758 N759 1.365 . S
N759 C756 1.341 . S
N759 N758 1.365 . S
N759 H779 0.862 . S
C760 C755 1.501 . S
C760 H761 0.961 . S
C760 H762 0.961 . S
C760 H763 0.960 . S
H761 C760 0.961 . S
H762 C760 0.961 . S
H763 C760 0.960 . S
C764 N765 1.342 . S
C764 C768 1.401 . S
C764 C769 1.499 . S
N765 Co748 1.989 . S
N765 C764 1.342 . S
N765 N766 1.388 . S
N766 Co749 1.993 . S
N766 N765 1.388 . S
N766 C767 1.346 . S
C767 N766 1.346 . S
C767 C768 1.396 . S
C767 C777 1.510 . S
C768 C764 1.401 . S
C768 C767 1.396 . S
C769 C764 1.499 . S
C769 H770 0.959 . S
C769 H771 0.960 . S
C769 H772 0.961 . S
H770 C769 0.959 . S
H771 C769 0.960 . S
H772 C769 0.961 . S
O773 Co748 1.967 . S
O773 C781 1.258 . S
O774 Co749 1.941 . S
O774 C781 1.266 . S
H775 C777 0.959 . S
H776 C777 0.961 . S
C777 C767 1.510 . S
C777 H775 0.959 . S
C777 H776 0.961 . S
C777 H778 0.960 . S
H778 C777 0.960 . S
H779 N759 0.862 . S
O780 Co748 1.920 . S
O780 C753 1.289 . S
C781 O773 1.258 . S
C781 O774 1.266 . S
Co782 O785 1.970 . S
Co782 N799 1.989 . S
Co782 O807 1.967 . S
Co782 O814 1.920 . S
Co783 O786 1.966 . S
Co783 N792 2.022 . S
Co783 N800 1.993 . S
Co783 O808 1.941 . S
C784 O785 1.258 . S
C784 O786 1.263 . S
O785 Co782 1.970 . S
O785 C784 1.258 . S
O786 Co783 1.966 . S
O786 C784 1.263 . S
C787 O788 1.235 . S
C787 O814 1.289 . S
O788 C787 1.235 . S
C789 C791 1.400 . S
C789 N792 1.351 . S
C789 C794 1.501 . S
C790 C791 1.387 . S
C790 N793 1.341 . S
C791 C789 1.400 . S
C791 C790 1.387 . S
N792 Co783 2.022 . S
N792 C789 1.351 . S
N792 N793 1.365 . S
N793 C790 1.341 . S
N793 N792 1.365 . S
N793 H813 0.862 . S
C794 C789 1.501 . S
C794 H795 0.961 . S
C794 H796 0.961 . S
C794 H797 0.960 . S
H795 C794 0.961 . S
H796 C794 0.961 . S
H797 C794 0.960 . S
C798 N799 1.342 . S
C798 C802 1.401 . S
C798 C803 1.499 . S
N799 Co782 1.989 . S
N799 C798 1.342 . S
N799 N800 1.388 . S
N800 Co783 1.993 . S
N800 N799 1.388 . S
N800 C801 1.346 . S
C801 N800 1.346 . S
C801 C802 1.396 . S
C801 C811 1.510 . S
C802 C798 1.401 . S
C802 C801 1.396 . S
C803 C798 1.499 . S
C803 H804 0.959 . S
C803 H805 0.960 . S
C803 H806 0.961 . S
H804 C803 0.959 . S
H805 C803 0.960 . S
H806 C803 0.961 . S
O807 Co782 1.967 . S
O807 C815 1.258 . S
O808 Co783 1.941 . S
O808 C815 1.266 . S
H809 C811 0.959 . S
H810 C811 0.961 . S
C811 C801 1.510 . S
C811 H809 0.959 . S
C811 H810 0.961 . S
C811 H812 0.960 . S
H812 C811 0.960 . S
H813 N793 0.862 . S
O814 Co782 1.920 . S
O814 C787 1.289 . S
C815 O807 1.258 . S
C815 O808 1.266 . S
Co816 O819 1.970 . S
Co816 N833 1.989 . S
Co816 O841 1.967 . S
Co816 O848 1.920 . S
Co817 O820 1.966 . S
Co817 N826 2.022 . S
Co817 N834 1.993 . S
Co817 O842 1.941 . S
C818 O819 1.258 . S
C818 O820 1.263 . S
O819 Co816 1.970 . S
O819 C818 1.258 . S
O820 Co817 1.966 . S
O820 C818 1.263 . S
C821 O822 1.235 . S
C821 O848 1.289 . S
O822 C821 1.235 . S
C823 C825 1.400 . S
C823 N826 1.351 . S
C823 C828 1.501 . S
C824 C825 1.387 . S
C824 N827 1.341 . S
C825 C823 1.400 . S
C825 C824 1.387 . S
N826 Co817 2.022 . S
N826 C823 1.351 . S
N826 N827 1.365 . S
N827 C824 1.341 . S
N827 N826 1.365 . S
N827 H847 0.862 . S
C828 C823 1.501 . S
C828 H829 0.961 . S
C828 H830 0.961 . S
C828 H831 0.960 . S
H829 C828 0.961 . S
H830 C828 0.961 . S
H831 C828 0.960 . S
C832 N833 1.342 . S
C832 C836 1.401 . S
C832 C837 1.499 . S
N833 Co816 1.989 . S
N833 C832 1.342 . S
N833 N834 1.388 . S
N834 Co817 1.993 . S
N834 N833 1.388 . S
N834 C835 1.346 . S
C835 N834 1.346 . S
C835 C836 1.396 . S
C835 C845 1.510 . S
C836 C832 1.401 . S
C836 C835 1.396 . S
C837 C832 1.499 . S
C837 H838 0.959 . S
C837 H839 0.960 . S
C837 H840 0.961 . S
H838 C837 0.959 . S
H839 C837 0.960 . S
H840 C837 0.961 . S
O841 Co816 1.967 . S
O841 C849 1.258 . S
O842 Co817 1.941 . S
O842 C849 1.266 . S
H843 C845 0.959 . S
H844 C845 0.961 . S
C845 C835 1.510 . S
C845 H843 0.959 . S
C845 H844 0.961 . S
C845 H846 0.960 . S
H846 C845 0.960 . S
H847 N827 0.862 . S
O848 Co816 1.920 . S
O848 C821 1.289 . S
C849 O841 1.258 . S
C849 O842 1.266 . S
Co850 O853 1.970 . S
Co850 N867 1.989 . S
Co850 O875 1.967 . S
Co850 O882 1.920 . S
Co851 O854 1.966 . S
Co851 N860 2.022 . S
Co851 N868 1.993 . S
Co851 O876 1.941 . S
C852 O853 1.258 . S
C852 O854 1.263 . S
O853 Co850 1.970 . S
O853 C852 1.258 . S
O854 Co851 1.966 . S
O854 C852 1.263 . S
C855 O856 1.235 . S
C855 O882 1.289 . S
O856 C855 1.235 . S
C857 C859 1.400 . S
C857 N860 1.351 . S
C857 C862 1.501 . S
C858 C859 1.387 . S
C858 N861 1.341 . S
C859 C857 1.400 . S
C859 C858 1.387 . S
N860 Co851 2.022 . S
N860 C857 1.351 . S
N860 N861 1.365 . S
N861 C858 1.341 . S
N861 N860 1.365 . S
N861 H881 0.862 . S
C862 C857 1.501 . S
C862 H863 0.961 . S
C862 H864 0.961 . S
C862 H865 0.960 . S
H863 C862 0.961 . S
H864 C862 0.961 . S
H865 C862 0.960 . S
C866 N867 1.342 . S
C866 C870 1.401 . S
C866 C871 1.499 . S
N867 Co850 1.989 . S
N867 C866 1.342 . S
N867 N868 1.388 . S
N868 Co851 1.993 . S
N868 N867 1.388 . S
N868 C869 1.346 . S
C869 N868 1.346 . S
C869 C870 1.396 . S
C869 C879 1.510 . S
C870 C866 1.401 . S
C870 C869 1.396 . S
C871 C866 1.499 . S
C871 H872 0.959 . S
C871 H873 0.960 . S
C871 H874 0.961 . S
H872 C871 0.959 . S
H873 C871 0.960 . S
H874 C871 0.961 . S
O875 Co850 1.967 . S
O875 C883 1.258 . S
O876 Co851 1.941 . S
O876 C883 1.266 . S
H877 C879 0.959 . S
H878 C879 0.961 . S
C879 C869 1.510 . S
C879 H877 0.959 . S
C879 H878 0.961 . S
C879 H880 0.960 . S
H880 C879 0.960 . S
H881 N861 0.862 . S
O882 Co850 1.920 . S
O882 C855 1.289 . S
C883 O875 1.258 . S
C883 O876 1.266 . S
Co884 O887 1.970 . S
Co884 N901 1.989 . S
Co884 O909 1.967 . S
Co884 O916 1.920 . S
Co885 O888 1.966 . S
Co885 N894 2.022 . S
Co885 N902 1.993 . S
Co885 O910 1.941 . S
C886 O887 1.258 . S
C886 O888 1.263 . S
O887 Co884 1.970 . S
O887 C886 1.258 . S
O888 Co885 1.966 . S
O888 C886 1.263 . S
C889 O890 1.235 . S
C889 O916 1.289 . S
O890 C889 1.235 . S
C891 C893 1.400 . S
C891 N894 1.351 . S
C891 C896 1.501 . S
C892 C893 1.387 . S
C892 N895 1.341 . S
C893 C891 1.400 . S
C893 C892 1.387 . S
N894 Co885 2.022 . S
N894 C891 1.351 . S
N894 N895 1.365 . S
N895 C892 1.341 . S
N895 N894 1.365 . S
N895 H915 0.862 . S
C896 C891 1.501 . S
C896 H897 0.961 . S
C896 H898 0.961 . S
C896 H899 0.960 . S
H897 C896 0.961 . S
H898 C896 0.961 . S
H899 C896 0.960 . S
C900 N901 1.342 . S
C900 C904 1.401 . S
C900 C905 1.499 . S
N901 Co884 1.989 . S
N901 C900 1.342 . S
N901 N902 1.388 . S
N902 Co885 1.993 . S
N902 N901 1.388 . S
N902 C903 1.346 . S
C903 N902 1.346 . S
C903 C904 1.396 . S
C903 C913 1.510 . S
C904 C900 1.401 . S
C904 C903 1.396 . S
C905 C900 1.499 . S
C905 H906 0.959 . S
C905 H907 0.960 . S
C905 H908 0.961 . S
H906 C905 0.959 . S
H907 C905 0.960 . S
H908 C905 0.961 . S
O909 Co884 1.967 . S
O909 C917 1.258 . S
O910 Co885 1.941 . S
O910 C917 1.266 . S
H911 C913 0.959 . S
H912 C913 0.961 . S
C913 C903 1.510 . S
C913 H911 0.959 . S
C913 H912 0.961 . S
C913 H914 0.960 . S
H914 C913 0.960 . S
H915 N895 0.862 . S
O916 Co884 1.920 . S
O916 C889 1.289 . S
C917 O909 1.258 . S
C917 O910 1.266 . S
Co918 O921 1.970 . S
Co918 N935 1.989 . S
Co918 O943 1.967 . S
Co918 O950 1.920 . S
Co919 O922 1.966 . S
Co919 N928 2.022 . S
Co919 N936 1.993 . S
Co919 O944 1.941 . S
C920 O921 1.258 . S
C920 O922 1.263 . S
O921 Co918 1.970 . S
O921 C920 1.258 . S
O922 Co919 1.966 . S
O922 C920 1.263 . S
C923 O924 1.235 . S
C923 O950 1.289 . S
O924 C923 1.235 . S
C925 C927 1.400 . S
C925 N928 1.351 . S
C925 C930 1.501 . S
C926 C927 1.387 . S
C926 N929 1.341 . S
C927 C925 1.400 . S
C927 C926 1.387 . S
N928 Co919 2.022 . S
N928 C925 1.351 . S
N928 N929 1.365 . S
N929 C926 1.341 . S
N929 N928 1.365 . S
N929 H949 0.862 . S
C930 C925 1.501 . S
C930 H931 0.961 . S
C930 H932 0.961 . S
C930 H933 0.960 . S
H931 C930 0.961 . S
H932 C930 0.961 . S
H933 C930 0.960 . S
C934 N935 1.342 . S
C934 C938 1.401 . S
C934 C939 1.499 . S
N935 Co918 1.989 . S
N935 C934 1.342 . S
N935 N936 1.388 . S
N936 Co919 1.993 . S
N936 N935 1.388 . S
N936 C937 1.346 . S
C937 N936 1.346 . S
C937 C938 1.396 . S
C937 C947 1.510 . S
C938 C934 1.401 . S
C938 C937 1.396 . S
C939 C934 1.499 . S
C939 H940 0.959 . S
C939 H941 0.960 . S
C939 H942 0.961 . S
H940 C939 0.959 . S
H941 C939 0.960 . S
H942 C939 0.961 . S
O943 Co918 1.967 . S
O943 C951 1.258 . S
O944 Co919 1.941 . S
O944 C951 1.266 . S
H945 C947 0.959 . S
H946 C947 0.961 . S
C947 C937 1.510 . S
C947 H945 0.959 . S
C947 H946 0.961 . S
C947 H948 0.960 . S
H948 C947 0.960 . S
H949 N929 0.862 . S
O950 Co918 1.920 . S
O950 C923 1.289 . S
C951 O943 1.258 . S
C951 O944 1.266 . S
Co952 O955 1.970 . S
Co952 N969 1.989 . S
Co952 O977 1.967 . S
Co952 O984 1.920 . S
Co953 O956 1.966 . S
Co953 N962 2.022 . S
Co953 N970 1.993 . S
Co953 O978 1.941 . S
C954 O955 1.258 . S
C954 O956 1.263 . S
O955 Co952 1.970 . S
O955 C954 1.258 . S
O956 Co953 1.966 . S
O956 C954 1.263 . S
C957 O958 1.235 . S
C957 O984 1.289 . S
O958 C957 1.235 . S
C959 C961 1.400 . S
C959 N962 1.351 . S
C959 C964 1.501 . S
C960 C961 1.387 . S
C960 N963 1.341 . S
C961 C959 1.400 . S
C961 C960 1.387 . S
N962 Co953 2.022 . S
N962 C959 1.351 . S
N962 N963 1.365 . S
N963 C960 1.341 . S
N963 N962 1.365 . S
N963 H983 0.862 . S
C964 C959 1.501 . S
C964 H965 0.961 . S
C964 H966 0.961 . S
C964 H967 0.960 . S
H965 C964 0.961 . S
H966 C964 0.961 . S
H967 C964 0.960 . S
C968 N969 1.342 . S
C968 C972 1.401 . S
C968 C973 1.499 . S
N969 Co952 1.989 . S
N969 C968 1.342 . S
N969 N970 1.388 . S
N970 Co953 1.993 . S
N970 N969 1.388 . S
N970 C971 1.346 . S
C971 N970 1.346 . S
C971 C972 1.396 . S
C971 C981 1.510 . S
C972 C968 1.401 . S
C972 C971 1.396 . S
C973 C968 1.499 . S
C973 H974 0.959 . S
C973 H975 0.960 . S
C973 H976 0.961 . S
H974 C973 0.959 . S
H975 C973 0.960 . S
H976 C973 0.961 . S
O977 Co952 1.967 . S
O977 C985 1.258 . S
O978 Co953 1.941 . S
O978 C985 1.266 . S
H979 C981 0.959 . S
H980 C981 0.961 . S
C981 C971 1.510 . S
C981 H979 0.959 . S
C981 H980 0.961 . S
C981 H982 0.960 . S
H982 C981 0.960 . S
H983 N963 0.862 . S
O984 Co952 1.920 . S
O984 C957 1.289 . S
C985 O977 1.258 . S
C985 O978 1.266 . S
Co986 O989 1.970 . S
Co986 N1003 1.989 . S
Co986 O1011 1.967 . S
Co986 O1018 1.920 . S
Co987 O990 1.966 . S
Co987 N996 2.022 . S
Co987 N1004 1.993 . S
Co987 O1012 1.941 . S
C988 O989 1.258 . S
C988 O990 1.263 . S
O989 Co986 1.970 . S
O989 C988 1.258 . S
O990 Co987 1.966 . S
O990 C988 1.263 . S
C991 O992 1.235 . S
C991 O1018 1.289 . S
O992 C991 1.235 . S
C993 C995 1.400 . S
C993 N996 1.351 . S
C993 C998 1.501 . S
C994 C995 1.387 . S
C994 N997 1.341 . S
C995 C993 1.400 . S
C995 C994 1.387 . S
N996 Co987 2.022 . S
N996 C993 1.351 . S
N996 N997 1.365 . S
N997 C994 1.341 . S
N997 N996 1.365 . S
N997 H1017 0.862 . S
C998 C993 1.501 . S
C998 H999 0.961 . S
C998 H1000 0.961 . S
C998 H1001 0.960 . S
H999 C998 0.961 . S
H1000 C998 0.961 . S
H1001 C998 0.960 . S
C1002 N1003 1.342 . S
C1002 C1006 1.401 . S
C1002 C1007 1.499 . S
N1003 Co986 1.989 . S
N1003 C1002 1.342 . S
N1003 N1004 1.388 . S
N1004 Co987 1.993 . S
N1004 N1003 1.388 . S
N1004 C1005 1.346 . S
C1005 N1004 1.346 . S
C1005 C1006 1.396 . S
C1005 C1015 1.510 . S
C1006 C1002 1.401 . S
C1006 C1005 1.396 . S
C1007 C1002 1.499 . S
C1007 H1008 0.959 . S
C1007 H1009 0.960 . S
C1007 H1010 0.961 . S
H1008 C1007 0.959 . S
H1009 C1007 0.960 . S
H1010 C1007 0.961 . S
O1011 Co986 1.967 . S
O1011 C1019 1.258 . S
O1012 Co987 1.941 . S
O1012 C1019 1.266 . S
H1013 C1015 0.959 . S
H1014 C1015 0.961 . S
C1015 C1005 1.510 . S
C1015 H1013 0.959 . S
C1015 H1014 0.961 . S
C1015 H1016 0.960 . S
H1016 C1015 0.960 . S
H1017 N997 0.862 . S
O1018 Co986 1.920 . S
O1018 C991 1.289 . S
C1019 O1011 1.258 . S
C1019 O1012 1.266 . S
Co1020 O1023 1.970 . S
Co1020 N1037 1.989 . S
Co1020 O1045 1.967 . S
Co1020 O1052 1.920 . S
Co1021 O1024 1.966 . S
Co1021 N1030 2.022 . S
Co1021 N1038 1.993 . S
Co1021 O1046 1.941 . S
C1022 O1023 1.258 . S
C1022 O1024 1.263 . S
O1023 Co1020 1.970 . S
O1023 C1022 1.258 . S
O1024 Co1021 1.966 . S
O1024 C1022 1.263 . S
C1025 O1026 1.235 . S
C1025 O1052 1.289 . S
O1026 C1025 1.235 . S
C1027 C1029 1.400 . S
C1027 N1030 1.351 . S
C1027 C1032 1.501 . S
C1028 C1029 1.387 . S
C1028 N1031 1.341 . S
C1029 C1027 1.400 . S
C1029 C1028 1.387 . S
N1030 Co1021 2.022 . S
N1030 C1027 1.351 . S
N1030 N1031 1.365 . S
N1031 C1028 1.341 . S
N1031 N1030 1.365 . S
N1031 H1051 0.862 . S
C1032 C1027 1.501 . S
C1032 H1033 0.961 . S
C1032 H1034 0.961 . S
C1032 H1035 0.960 . S
H1033 C1032 0.961 . S
H1034 C1032 0.961 . S
H1035 C1032 0.960 . S
C1036 N1037 1.342 . S
C1036 C1040 1.401 . S
C1036 C1041 1.499 . S
N1037 Co1020 1.989 . S
N1037 C1036 1.342 . S
N1037 N1038 1.388 . S
N1038 Co1021 1.993 . S
N1038 N1037 1.388 . S
N1038 C1039 1.346 . S
C1039 N1038 1.346 . S
C1039 C1040 1.396 . S
C1039 C1049 1.510 . S
C1040 C1036 1.401 . S
C1040 C1039 1.396 . S
C1041 C1036 1.499 . S
C1041 H1042 0.959 . S
C1041 H1043 0.960 . S
C1041 H1044 0.961 . S
H1042 C1041 0.959 . S
H1043 C1041 0.960 . S
H1044 C1041 0.961 . S
O1045 Co1020 1.967 . S
O1045 C1053 1.258 . S
O1046 Co1021 1.941 . S
O1046 C1053 1.266 . S
H1047 C1049 0.959 . S
H1048 C1049 0.961 . S
C1049 C1039 1.510 . S
C1049 H1047 0.959 . S
C1049 H1048 0.961 . S
C1049 H1050 0.960 . S
H1050 C1049 0.960 . S
H1051 N1031 0.862 . S
O1052 Co1020 1.920 . S
O1052 C1025 1.289 . S
C1053 O1045 1.258 . S
C1053 O1046 1.266 . S
Co1054 O1057 1.970 . S
Co1054 N1071 1.989 . S
Co1054 O1079 1.967 . S
Co1054 O1086 1.920 . S
Co1055 O1058 1.966 . S
Co1055 N1064 2.022 . S
Co1055 N1072 1.993 . S
Co1055 O1080 1.941 . S
C1056 O1057 1.258 . S
C1056 O1058 1.263 . S
O1057 Co1054 1.970 . S
O1057 C1056 1.258 . S
O1058 Co1055 1.966 . S
O1058 C1056 1.263 . S
C1059 O1060 1.235 . S
C1059 O1086 1.289 . S
O1060 C1059 1.235 . S
C1061 C1063 1.400 . S
C1061 N1064 1.351 . S
C1061 C1066 1.501 . S
C1062 C1063 1.387 . S
C1062 N1065 1.341 . S
C1063 C1061 1.400 . S
C1063 C1062 1.387 . S
N1064 Co1055 2.022 . S
N1064 C1061 1.351 . S
N1064 N1065 1.365 . S
N1065 C1062 1.341 . S
N1065 N1064 1.365 . S
N1065 H1085 0.862 . S
C1066 C1061 1.501 . S
C1066 H1067 0.961 . S
C1066 H1068 0.961 . S
C1066 H1069 0.960 . S
H1067 C1066 0.961 . S
H1068 C1066 0.961 . S
H1069 C1066 0.960 . S
C1070 N1071 1.342 . S
C1070 C1074 1.401 . S
C1070 C1075 1.499 . S
N1071 Co1054 1.989 . S
N1071 C1070 1.342 . S
N1071 N1072 1.388 . S
N1072 Co1055 1.993 . S
N1072 N1071 1.388 . S
N1072 C1073 1.346 . S
C1073 N1072 1.346 . S
C1073 C1074 1.396 . S
C1073 C1083 1.510 . S
C1074 C1070 1.401 . S
C1074 C1073 1.396 . S
C1075 C1070 1.499 . S
C1075 H1076 0.959 . S
C1075 H1077 0.960 . S
C1075 H1078 0.961 . S
H1076 C1075 0.959 . S
H1077 C1075 0.960 . S
H1078 C1075 0.961 . S
O1079 Co1054 1.967 . S
O1079 C1087 1.258 . S
O1080 Co1055 1.941 . S
O1080 C1087 1.266 . S
H1081 C1083 0.959 . S
H1082 C1083 0.961 . S
C1083 C1073 1.510 . S
C1083 H1081 0.959 . S
C1083 H1082 0.961 . S
C1083 H1084 0.960 . S
H1084 C1083 0.960 . S
H1085 N1065 0.862 . S
O1086 Co1054 1.920 . S
O1086 C1059 1.289 . S
C1087 O1079 1.258 . S
C1087 O1080 1.266 . S
C1088 C1089 1.363 . S
C1088 C1094 1.379 . S
C1088 N1096 1.356 . S
C1089 C1088 1.363 . S
C1089 C1095 1.363 . S
C1090 C1091 1.363 . S
C1090 C1095 1.379 . S
C1090 N1097 1.356 . S
C1091 C1090 1.363 . S
C1091 C1094 1.363 . S
N1092 C1094 1.356 . S
N1092 H1104 0.984 . S
N1092 H1105 0.985 . S
N1093 C1095 1.356 . S
N1093 H1098 0.984 . S
N1093 H1099 0.985 . S
C1094 C1088 1.379 . S
C1094 C1091 1.363 . S
C1094 N1092 1.356 . S
C1095 C1089 1.363 . S
C1095 C1090 1.379 . S
C1095 N1093 1.356 . S
N1096 C1088 1.356 . S
N1096 H1102 0.984 . S
N1096 H1103 0.984 . S
N1097 C1090 1.356 . S
N1097 H1100 0.984 . S
N1097 H1101 0.985 . S
H1098 N1093 0.984 . S
H1099 N1093 0.985 . S
H1100 N1097 0.984 . S
H1101 N1097 0.985 . S
H1102 N1096 0.984 . S
H1103 N1096 0.984 . S
H1104 N1092 0.984 . S
H1105 N1092 0.985 . S
C1106 C1107 1.363 . S
C1106 C1112 1.379 1_545 S
C1106 N1114 1.356 . S
C1107 C1106 1.363 . S
C1107 C1113 1.363 . S
C1108 C1109 1.363 1_545 S
C1108 C1113 1.379 . S
C1108 N1115 1.356 . S
C1109 C1108 1.363 1_565 S
C1109 C1112 1.363 . S
N1110 C1112 1.356 . S
N1110 H1122 0.984 . S
N1110 H1123 0.985 . S
N1111 C1113 1.356 . S
N1111 H1116 0.984 . S
N1111 H1117 0.985 . S
C1112 C1106 1.379 1_565 S
C1112 C1109 1.363 . S
C1112 N1110 1.356 . S
C1113 C1107 1.363 . S
C1113 C1108 1.379 . S
C1113 N1111 1.356 . S
N1114 C1106 1.356 . S
N1114 H1120 0.984 . S
N1114 H1121 0.984 . S
N1115 C1108 1.356 . S
N1115 H1118 0.984 1_545 S
N1115 H1119 0.985 . S
H1116 N1111 0.984 . S
H1117 N1111 0.985 . S
H1118 N1115 0.984 1_565 S
H1119 N1115 0.985 . S
H1120 N1114 0.984 . S
H1121 N1114 0.984 . S
H1122 N1110 0.984 . S
H1123 N1110 0.985 . S
C1124 C1125 1.363 . S
C1124 C1130 1.379 . S
C1124 N1132 1.356 . S
C1125 C1124 1.363 . S
C1125 C1131 1.363 . S
C1126 C1127 1.363 . S
C1126 C1131 1.379 . S
C1126 N1133 1.356 . S
C1127 C1126 1.363 . S
C1127 C1130 1.363 . S
N1128 C1130 1.356 . S
N1128 H1140 0.984 . S
N1128 H1141 0.985 . S
N1129 C1131 1.356 . S
N1129 H1134 0.984 . S
N1129 H1135 0.985 . S
C1130 C1124 1.379 . S
C1130 C1127 1.363 . S
C1130 N1128 1.356 . S
C1131 C1125 1.363 . S
C1131 C1126 1.379 . S
C1131 N1129 1.356 . S
N1132 C1124 1.356 . S
N1132 H1138 0.984 . S
N1132 H1139 0.984 . S
N1133 C1126 1.356 . S
N1133 H1136 0.984 . S
N1133 H1137 0.985 . S
H1134 N1129 0.984 . S
H1135 N1129 0.985 . S
H1136 N1133 0.984 . S
H1137 N1133 0.985 . S
H1138 N1132 0.984 . S
H1139 N1132 0.984 . S
H1140 N1128 0.984 . S
H1141 N1128 0.985 . S
C1142 C1143 1.363 1_545 S
C1142 C1148 1.379 . S
C1142 N1150 1.356 . S
C1143 C1142 1.363 1_565 S
C1143 C1149 1.363 . S
C1144 C1145 1.363 1_465 S
C1144 C1149 1.379 . S
C1144 N1151 1.356 1_455 S
C1145 C1144 1.363 1_645 S
C1145 C1148 1.363 1_655 S
N1146 C1148 1.356 1_655 S
N1146 H1158 0.984 1_655 S
N1146 H1159 0.985 . S
N1147 C1149 1.356 . S
N1147 H1152 0.984 . S
N1147 H1153 0.985 . S
C1148 C1142 1.379 . S
C1148 C1145 1.363 1_455 S
C1148 N1146 1.356 1_455 S
C1149 C1143 1.363 . S
C1149 C1144 1.379 . S
C1149 N1147 1.356 . S
N1150 C1142 1.356 . S
N1150 H1156 0.984 . S
N1150 H1157 0.984 . S
N1151 C1144 1.356 1_655 S
N1151 H1154 0.984 . S
N1151 H1155 0.985 . S
H1152 N1147 0.984 . S
H1153 N1147 0.985 . S
H1154 N1151 0.984 . S
H1155 N1151 0.985 . S
H1156 N1150 0.984 . S
H1157 N1150 0.984 . S
H1158 N1146 0.984 1_455 S
H1159 N1146 0.985 . S
C1160 C1161 1.363 . S
C1160 C1166 1.379 . S
C1160 N1168 1.356 . S
C1161 C1160 1.363 . S
C1161 C1167 1.363 . S
C1162 C1163 1.363 . S
C1162 C1167 1.379 . S
C1162 N1169 1.356 . S
C1163 C1162 1.363 . S
C1163 C1166 1.363 . S
N1164 C1166 1.356 . S
N1164 H1176 0.984 . S
N1164 H1177 0.985 . S
N1165 C1167 1.356 . S
N1165 H1170 0.984 . S
N1165 H1171 0.985 . S
C1166 C1160 1.379 . S
C1166 C1163 1.363 . S
C1166 N1164 1.356 . S
C1167 C1161 1.363 . S
C1167 C1162 1.379 . S
C1167 N1165 1.356 . S
N1168 C1160 1.356 . S
N1168 H1174 0.984 . S
N1168 H1175 0.984 . S
N1169 C1162 1.356 . S
N1169 H1172 0.984 . S
N1169 H1173 0.985 . S
H1170 N1165 0.984 . S
H1171 N1165 0.985 . S
H1172 N1169 0.984 . S
H1173 N1169 0.985 . S
H1174 N1168 0.984 . S
H1175 N1168 0.984 . S
H1176 N1164 0.984 . S
H1177 N1164 0.985 . S
C1178 C1179 1.363 . S
C1178 C1184 1.379 . S
C1178 N1186 1.356 . S
C1179 C1178 1.363 . S
C1179 C1185 1.363 1_545 S
C1180 C1181 1.363 1_455 S
C1180 C1185 1.379 . S
C1180 N1187 1.356 1_455 S
C1181 C1180 1.363 1_655 S
C1181 C1184 1.363 1_665 S
N1182 C1184 1.356 1_655 S
N1182 H1194 0.984 . S
N1182 H1195 0.985 . S
N1183 C1185 1.356 . S
N1183 H1188 0.984 1_565 S
N1183 H1189 0.985 . S
C1184 C1178 1.379 . S
C1184 C1181 1.363 1_445 S
C1184 N1182 1.356 1_455 S
C1185 C1179 1.363 1_565 S
C1185 C1180 1.379 . S
C1185 N1183 1.356 . S
N1186 C1178 1.356 . S
N1186 H1192 0.984 . S
N1186 H1193 0.984 . S
N1187 C1180 1.356 1_655 S
N1187 H1190 0.984 . S
N1187 H1191 0.985 1_655 S
H1188 N1183 0.984 1_545 S
H1189 N1183 0.985 . S
H1190 N1187 0.984 . S
H1191 N1187 0.985 1_455 S
H1192 N1186 0.984 . S
H1193 N1186 0.984 . S
H1194 N1182 0.984 . S
H1195 N1182 0.985 . S
C1196 C1197 1.363 . S
C1196 C1202 1.379 . S
C1196 N1204 1.356 . S
C1197 C1196 1.363 . S
C1197 C1203 1.363 . S
C1198 C1199 1.363 . S
C1198 C1203 1.379 . S
C1198 N1205 1.356 . S
C1199 C1198 1.363 . S
C1199 C1202 1.363 . S
N1200 C1202 1.356 . S
N1200 H1212 0.984 . S
N1200 H1213 0.985 . S
N1201 C1203 1.356 . S
N1201 H1206 0.984 . S
N1201 H1207 0.985 . S
C1202 C1196 1.379 . S
C1202 C1199 1.363 . S
C1202 N1200 1.356 . S
C1203 C1197 1.363 . S
C1203 C1198 1.379 . S
C1203 N1201 1.356 . S
N1204 C1196 1.356 . S
N1204 H1210 0.984 . S
N1204 H1211 0.984 . S
N1205 C1198 1.356 . S
N1205 H1208 0.984 . S
N1205 H1209 0.985 . S
H1206 N1201 0.984 . S
H1207 N1201 0.985 . S
H1208 N1205 0.984 . S
H1209 N1205 0.985 . S
H1210 N1204 0.984 . S
H1211 N1204 0.984 . S
H1212 N1200 0.984 . S
H1213 N1200 0.985 . S
C1214 C1215 1.363 1_565 S
C1214 C1220 1.379 . S
C1214 N1222 1.356 . S
C1215 C1214 1.363 1_545 S
C1215 C1221 1.363 . S
C1216 C1217 1.363 1_545 S
C1216 C1221 1.379 . S
C1216 N1223 1.356 . S
C1217 C1216 1.363 1_565 S
C1217 C1220 1.363 . S
N1218 C1220 1.356 . S
N1218 H1230 0.984 . S
N1218 H1231 0.985 . S
N1219 C1221 1.356 . S
N1219 H1224 0.984 . S
N1219 H1225 0.985 . S
C1220 C1214 1.379 . S
C1220 C1217 1.363 . S
C1220 N1218 1.356 . S
C1221 C1215 1.363 . S
C1221 C1216 1.379 . S
C1221 N1219 1.356 . S
N1222 C1214 1.356 . S
N1222 H1228 0.984 . S
N1222 H1229 0.984 . S
N1223 C1216 1.356 . S
N1223 H1226 0.984 . S
N1223 H1227 0.985 . S
H1224 N1219 0.984 . S
H1225 N1219 0.985 . S
H1226 N1223 0.984 . S
H1227 N1223 0.985 . S
H1228 N1222 0.984 . S
H1229 N1222 0.984 . S
H1230 N1218 0.984 . S
H1231 N1218 0.985 . S
C1232 C1233 1.363 . S
C1232 C1238 1.379 . S
C1232 N1240 1.356 . S
C1233 C1232 1.363 . S
C1233 C1239 1.363 . S
C1234 C1235 1.363 . S
C1234 C1239 1.379 . S
C1234 N1241 1.356 . S
C1235 C1234 1.363 . S
C1235 C1238 1.363 . S
N1236 C1238 1.356 . S
N1236 H1248 0.984 . S
N1236 H1249 0.985 . S
N1237 C1239 1.356 . S
N1237 H1242 0.984 . S
N1237 H1243 0.985 . S
C1238 C1232 1.379 . S
C1238 C1235 1.363 . S
C1238 N1236 1.356 . S
C1239 C1233 1.363 . S
C1239 C1234 1.379 . S
C1239 N1237 1.356 . S
N1240 C1232 1.356 . S
N1240 H1246 0.984 . S
N1240 H1247 0.984 . S
N1241 C1234 1.356 . S
N1241 H1244 0.984 . S
N1241 H1245 0.985 . S
H1242 N1237 0.984 . S
H1243 N1237 0.985 . S
H1244 N1241 0.984 . S
H1245 N1241 0.985 . S
H1246 N1240 0.984 . S
H1247 N1240 0.984 . S
H1248 N1236 0.984 . S
H1249 N1236 0.985 . S
C1250 C1251 1.363 1_545 S
C1250 C1256 1.379 . S
C1250 N1258 1.356 . S
C1251 C1250 1.363 1_565 S
C1251 C1257 1.363 . S
C1252 C1253 1.363 1_565 S
C1252 C1257 1.379 . S
C1252 N1259 1.356 . S
C1253 C1252 1.363 1_545 S
C1253 C1256 1.363 . S
N1254 C1256 1.356 . S
N1254 H1266 0.984 . S
N1254 H1267 0.985 . S
N1255 C1257 1.356 . S
N1255 H1260 0.984 . S
N1255 H1261 0.985 . S
C1256 C1250 1.379 . S
C1256 C1253 1.363 . S
C1256 N1254 1.356 . S
C1257 C1251 1.363 . S
C1257 C1252 1.379 . S
C1257 N1255 1.356 . S
N1258 C1250 1.356 . S
N1258 H1264 0.984 . S
N1258 H1265 0.984 . S
N1259 C1252 1.356 . S
N1259 H1262 0.984 . S
N1259 H1263 0.985 . S
H1260 N1255 0.984 . S
H1261 N1255 0.985 . S
H1262 N1259 0.984 . S
H1263 N1259 0.985 . S
H1264 N1258 0.984 . S
H1265 N1258 0.984 . S
H1266 N1254 0.984 . S
H1267 N1254 0.985 . S
C1268 C1269 1.363 . S
C1268 C1274 1.379 . S
C1268 N1276 1.356 . S
C1269 C1268 1.363 . S
C1269 C1275 1.363 . S
C1270 C1271 1.363 . S
C1270 C1275 1.379 . S
C1270 N1277 1.356 . S
C1271 C1270 1.363 . S
C1271 C1274 1.363 . S
N1272 C1274 1.356 . S
N1272 H1284 0.984 . S
N1272 H1285 0.985 . S
N1273 C1275 1.356 . S
N1273 H1278 0.984 . S
N1273 H1279 0.985 . S
C1274 C1268 1.379 . S
C1274 C1271 1.363 . S
C1274 N1272 1.356 . S
C1275 C1269 1.363 . S
C1275 C1270 1.379 . S
C1275 N1273 1.356 . S
N1276 C1268 1.356 . S
N1276 H1282 0.984 . S
N1276 H1283 0.984 . S
N1277 C1270 1.356 . S
N1277 H1280 0.984 . S
N1277 H1281 0.985 . S
H1278 N1273 0.984 . S
H1279 N1273 0.985 . S
H1280 N1277 0.984 . S
H1281 N1277 0.985 . S
H1282 N1276 0.984 . S
H1283 N1276 0.984 . S
H1284 N1272 0.984 . S
H1285 N1272 0.985 . S
C1286 C1287 1.363 1_655 S
C1286 C1292 1.379 . S
C1286 N1294 1.356 1_655 S
C1287 C1286 1.363 1_455 S
C1287 C1293 1.363 1_465 S
C1288 C1289 1.363 . S
C1288 C1293 1.379 . S
C1288 N1295 1.356 . S
C1289 C1288 1.363 . S
C1289 C1292 1.363 1_545 S
N1290 C1292 1.356 . S
N1290 H1302 0.984 . S
N1290 H1303 0.985 1_565 S
N1291 C1293 1.356 1_455 S
N1291 H1296 0.984 . S
N1291 H1297 0.985 . S
C1292 C1286 1.379 . S
C1292 C1289 1.363 1_565 S
C1292 N1290 1.356 . S
C1293 C1287 1.363 1_645 S
C1293 C1288 1.379 . S
C1293 N1291 1.356 1_655 S
N1294 C1286 1.356 1_455 S
N1294 H1300 0.984 1_455 S
N1294 H1301 0.984 . S
N1295 C1288 1.356 . S
N1295 H1298 0.984 . S
N1295 H1299 0.985 . S
H1296 N1291 0.984 . S
H1297 N1291 0.985 . S
H1298 N1295 0.984 . S
H1299 N1295 0.985 . S
H1300 N1294 0.984 1_655 S
H1301 N1294 0.984 . S
H1302 N1290 0.984 . S
H1303 N1290 0.985 1_545 S
C1304 C1305 1.363 . S
C1304 C1310 1.379 . S
C1304 N1312 1.356 . S
C1305 C1304 1.363 . S
C1305 C1311 1.363 . S
C1306 C1307 1.363 . S
C1306 C1311 1.379 . S
C1306 N1313 1.356 . S
C1307 C1306 1.363 . S
C1307 C1310 1.363 . S
N1308 C1310 1.356 . S
N1308 H1320 0.984 . S
N1308 H1321 0.985 . S
N1309 C1311 1.356 . S
N1309 H1314 0.984 . S
N1309 H1315 0.985 . S
C1310 C1304 1.379 . S
C1310 C1307 1.363 . S
C1310 N1308 1.356 . S
C1311 C1305 1.363 . S
C1311 C1306 1.379 . S
C1311 N1309 1.356 . S
N1312 C1304 1.356 . S
N1312 H1318 0.984 . S
N1312 H1319 0.984 . S
N1313 C1306 1.356 . S
N1313 H1316 0.984 . S
N1313 H1317 0.985 . S
H1314 N1309 0.984 . S
H1315 N1309 0.985 . S
H1316 N1313 0.984 . S
H1317 N1313 0.985 . S
H1318 N1312 0.984 . S
H1319 N1312 0.984 . S
H1320 N1308 0.984 . S
H1321 N1308 0.985 . S
C1322 C1323 1.363 1_665 S
C1322 C1328 1.379 . S
C1322 N1330 1.356 1_655 S
C1323 C1322 1.363 1_445 S
C1323 C1329 1.363 1_455 S
C1324 C1325 1.363 1_545 S
C1324 C1329 1.379 . S
C1324 N1331 1.356 . S
C1325 C1324 1.363 1_565 S
C1325 C1328 1.363 . S
N1326 C1328 1.356 . S
N1326 H1338 0.984 . S
N1326 H1339 0.985 . S
N1327 C1329 1.356 1_455 S
N1327 H1332 0.984 . S
N1327 H1333 0.985 1_455 S
C1328 C1322 1.379 . S
C1328 C1325 1.363 . S
C1328 N1326 1.356 . S
C1329 C1323 1.363 1_655 S
C1329 C1324 1.379 . S
C1329 N1327 1.356 1_655 S
N1330 C1322 1.356 1_455 S
N1330 H1336 0.984 . S
N1330 H1337 0.984 . S
N1331 C1324 1.356 . S
N1331 H1334 0.984 . S
N1331 H1335 0.985 . S
H1332 N1327 0.984 . S
H1333 N1327 0.985 1_655 S
H1334 N1331 0.984 . S
H1335 N1331 0.985 . S
H1336 N1330 0.984 . S
H1337 N1330 0.984 . S
H1338 N1326 0.984 . S
H1339 N1326 0.985 . S
C1340 C1341 1.363 . S
C1340 C1346 1.379 . S
C1340 N1348 1.356 . S
C1341 C1340 1.363 . S
C1341 C1347 1.363 . S
C1342 C1343 1.363 . S
C1342 C1347 1.379 . S
C1342 N1349 1.356 . S
C1343 C1342 1.363 . S
C1343 C1346 1.363 . S
N1344 C1346 1.356 . S
N1344 H1356 0.984 . S
N1344 H1357 0.985 . S
N1345 C1347 1.356 . S
N1345 H1350 0.984 . S
N1345 H1351 0.985 . S
C1346 C1340 1.379 . S
C1346 C1343 1.363 . S
C1346 N1344 1.356 . S
C1347 C1341 1.363 . S
C1347 C1342 1.379 . S
C1347 N1345 1.356 . S
N1348 C1340 1.356 . S
N1348 H1354 0.984 . S
N1348 H1355 0.984 . S
N1349 C1342 1.356 . S
N1349 H1352 0.984 . S
N1349 H1353 0.985 . S
H1350 N1345 0.984 . S
H1351 N1345 0.985 . S
H1352 N1349 0.984 . S
H1353 N1349 0.985 . S
H1354 N1348 0.984 . S
H1355 N1348 0.984 . S
H1356 N1344 0.984 . S
H1357 N1344 0.985 . S
C1358 C1359 1.363 . S
C1358 C1364 1.379 . S
C1358 N1366 1.356 . S
C1359 C1358 1.363 . S
C1359 C1365 1.363 1_545 S
C1360 C1361 1.363 . S
C1360 C1365 1.379 . S
C1360 N1367 1.356 . S
C1361 C1360 1.363 . S
C1361 C1364 1.363 1_565 S
N1362 C1364 1.356 . S
N1362 H1374 0.984 . S
N1362 H1375 0.985 . S
N1363 C1365 1.356 . S
N1363 H1368 0.984 . S
N1363 H1369 0.985 . S
C1364 C1358 1.379 . S
C1364 C1361 1.363 1_545 S
C1364 N1362 1.356 . S
C1365 C1359 1.363 1_565 S
C1365 C1360 1.379 . S
C1365 N1363 1.356 . S
N1366 C1358 1.356 . S
N1366 H1372 0.984 . S
N1366 H1373 0.984 . S
N1367 C1360 1.356 . S
N1367 H1370 0.984 . S
N1367 H1371 0.985 . S
H1368 N1363 0.984 . S
H1369 N1363 0.985 . S
H1370 N1367 0.984 . S
H1371 N1367 0.985 . S
H1372 N1366 0.984 . S
H1373 N1366 0.984 . S
H1374 N1362 0.984 . S
H1375 N1362 0.985 . S
C1376 C1377 1.363 . S
C1376 C1382 1.379 . S
C1376 N1384 1.356 . S
C1377 C1376 1.363 . S
C1377 C1383 1.363 . S
C1378 C1379 1.363 . S
C1378 C1383 1.379 . S
C1378 N1385 1.356 . S
C1379 C1378 1.363 . S
C1379 C1382 1.363 . S
N1380 C1382 1.356 . S
N1380 H1392 0.984 . S
N1380 H1393 0.985 . S
N1381 C1383 1.356 . S
N1381 H1386 0.984 . S
N1381 H1387 0.985 . S
C1382 C1376 1.379 . S
C1382 C1379 1.363 . S
C1382 N1380 1.356 . S
C1383 C1377 1.363 . S
C1383 C1378 1.379 . S
C1383 N1381 1.356 . S
N1384 C1376 1.356 . S
N1384 H1390 0.984 . S
N1384 H1391 0.984 . S
N1385 C1378 1.356 . S
N1385 H1388 0.984 . S
N1385 H1389 0.985 . S
H1386 N1381 0.984 . S
H1387 N1381 0.985 . S
H1388 N1385 0.984 . S
H1389 N1385 0.985 . S
H1390 N1384 0.984 . S
H1391 N1384 0.984 . S
H1392 N1380 0.984 . S
H1393 N1380 0.985 . S
C1394 C1395 1.363 1_655 S
C1394 C1400 1.379 . S
C1394 N1402 1.356 1_655 S
C1395 C1394 1.363 1_455 S
C1395 C1401 1.363 1_455 S
C1396 C1397 1.363 . S
C1396 C1401 1.379 . S
C1396 N1403 1.356 . S
C1397 C1396 1.363 . S
C1397 C1400 1.363 . S
N1398 C1400 1.356 . S
N1398 H1410 0.984 . S
N1398 H1411 0.985 . S
N1399 C1401 1.356 1_455 S
N1399 H1404 0.984 . S
N1399 H1405 0.985 . S
C1400 C1394 1.379 . S
C1400 C1397 1.363 . S
C1400 N1398 1.356 . S
C1401 C1395 1.363 1_655 S
C1401 C1396 1.379 . S
C1401 N1399 1.356 1_655 S
N1402 C1394 1.356 1_455 S
N1402 H1408 0.984 . S
N1402 H1409 0.984 . S
N1403 C1396 1.356 . S
N1403 H1406 0.984 . S
N1403 H1407 0.985 . S
H1404 N1399 0.984 . S
H1405 N1399 0.985 . S
H1406 N1403 0.984 . S
H1407 N1403 0.985 . S
H1408 N1402 0.984 . S
H1409 N1402 0.984 . S
H1410 N1398 0.984 . S
H1411 N1398 0.985 . S
C1412 C1413 1.363 . S
C1412 C1418 1.379 . S
C1412 N1420 1.356 . S
C1413 C1412 1.363 . S
C1413 C1419 1.363 . S
C1414 C1415 1.363 . S
C1414 C1419 1.379 . S
C1414 N1421 1.356 . S
C1415 C1414 1.363 . S
C1415 C1418 1.363 . S
N1416 C1418 1.356 . S
N1416 H1428 0.984 . S
N1416 H1429 0.985 . S
N1417 C1419 1.356 . S
N1417 H1422 0.984 . S
N1417 H1423 0.985 . S
C1418 C1412 1.379 . S
C1418 C1415 1.363 . S
C1418 N1416 1.356 . S
C1419 C1413 1.363 . S
C1419 C1414 1.379 . S
C1419 N1417 1.356 . S
N1420 C1412 1.356 . S
N1420 H1426 0.984 . S
N1420 H1427 0.984 . S
N1421 C1414 1.356 . S
N1421 H1424 0.984 . S
N1421 H1425 0.985 . S
H1422 N1417 0.984 . S
H1423 N1417 0.985 . S
H1424 N1421 0.984 . S
H1425 N1421 0.985 . S
H1426 N1420 0.984 . S
H1427 N1420 0.984 . S
H1428 N1416 0.984 . S
H1429 N1416 0.985 . S
C1430 C1431 1.363 . S
C1430 C1436 1.379 . S
C1430 N1438 1.356 . S
C1431 C1430 1.363 . S
C1431 C1437 1.363 . S
C1432 C1433 1.363 . S
C1432 C1437 1.379 . S
C1432 N1439 1.356 . S
C1433 C1432 1.363 . S
C1433 C1436 1.363 . S
N1434 C1436 1.356 . S
N1434 H1446 0.984 . S
N1434 H1447 0.985 . S
N1435 C1437 1.356 . S
N1435 H1440 0.984 . S
N1435 H1441 0.985 . S
C1436 C1430 1.379 . S
C1436 C1433 1.363 . S
C1436 N1434 1.356 . S
C1437 C1431 1.363 . S
C1437 C1432 1.379 . S
C1437 N1435 1.356 . S
N1438 C1430 1.356 . S
N1438 H1444 0.984 . S
N1438 H1445 0.984 . S
N1439 C1432 1.356 . S
N1439 H1442 0.984 . S
N1439 H1443 0.985 . S
H1440 N1435 0.984 . S
H1441 N1435 0.985 . S
H1442 N1439 0.984 . S
H1443 N1439 0.985 . S
H1444 N1438 0.984 . S
H1445 N1438 0.984 . S
H1446 N1434 0.984 . S
H1447 N1434 0.985 . S
C1448 C1449 1.363 . S
C1448 C1454 1.379 . S
C1448 N1456 1.356 . S
C1449 C1448 1.363 . S
C1449 C1455 1.363 . S
C1450 C1451 1.363 . S
C1450 C1455 1.379 . S
C1450 N1457 1.356 . S
C1451 C1450 1.363 . S
C1451 C1454 1.363 . S
N1452 C1454 1.356 . S
N1452 H1464 0.984 . S
N1452 H1465 0.985 . S
N1453 C1455 1.356 . S
N1453 H1458 0.984 . S
N1453 H1459 0.985 . S
C1454 C1448 1.379 . S
C1454 C1451 1.363 . S
C1454 N1452 1.356 . S
C1455 C1449 1.363 . S
C1455 C1450 1.379 . S
C1455 N1453 1.356 . S
N1456 C1448 1.356 . S
N1456 H1462 0.984 . S
N1456 H1463 0.984 . S
N1457 C1450 1.356 . S
N1457 H1460 0.984 . S
N1457 H1461 0.985 . S
H1458 N1453 0.984 . S
H1459 N1453 0.985 . S
H1460 N1457 0.984 . S
H1461 N1457 0.985 . S
H1462 N1456 0.984 . S
H1463 N1456 0.984 . S
H1464 N1452 0.984 . S
H1465 N1452 0.985 . S
C1466 C1467 1.363 . S
C1466 C1472 1.379 . S
C1466 N1474 1.356 . S
C1467 C1466 1.363 . S
C1467 C1473 1.363 . S
C1468 C1469 1.363 . S
C1468 C1473 1.379 . S
C1468 N1475 1.356 . S
C1469 C1468 1.363 . S
C1469 C1472 1.363 . S
N1470 C1472 1.356 . S
N1470 H1482 0.984 . S
N1470 H1483 0.985 . S
N1471 C1473 1.356 . S
N1471 H1476 0.984 . S
N1471 H1477 0.985 . S
C1472 C1466 1.379 . S
C1472 C1469 1.363 . S
C1472 N1470 1.356 . S
C1473 C1467 1.363 . S
C1473 C1468 1.379 . S
C1473 N1471 1.356 . S
N1474 C1466 1.356 . S
N1474 H1480 0.984 . S
N1474 H1481 0.984 . S
N1475 C1468 1.356 . S
N1475 H1478 0.984 . S
N1475 H1479 0.985 . S
H1476 N1471 0.984 . S
H1477 N1471 0.985 . S
H1478 N1475 0.984 . S
H1479 N1475 0.985 . S
H1480 N1474 0.984 . S
H1481 N1474 0.984 . S
H1482 N1470 0.984 . S
H1483 N1470 0.985 . S
C1484 C1485 1.363 . S
C1484 C1490 1.379 . S
C1484 N1492 1.356 . S
C1485 C1484 1.363 . S
C1485 C1491 1.363 . S
C1486 C1487 1.363 . S
C1486 C1491 1.379 . S
C1486 N1493 1.356 . S
C1487 C1486 1.363 . S
C1487 C1490 1.363 . S
N1488 C1490 1.356 . S
N1488 H1500 0.984 . S
N1488 H1501 0.985 . S
N1489 C1491 1.356 . S
N1489 H1494 0.984 . S
N1489 H1495 0.985 . S
C1490 C1484 1.379 . S
C1490 C1487 1.363 . S
C1490 N1488 1.356 . S
C1491 C1485 1.363 . S
C1491 C1486 1.379 . S
C1491 N1489 1.356 . S
N1492 C1484 1.356 . S
N1492 H1498 0.984 . S
N1492 H1499 0.984 . S
N1493 C1486 1.356 . S
N1493 H1496 0.984 . S
N1493 H1497 0.985 . S
H1494 N1489 0.984 . S
H1495 N1489 0.985 . S
H1496 N1493 0.984 . S
H1497 N1493 0.985 . S
H1498 N1492 0.984 . S
H1499 N1492 0.984 . S
H1500 N1488 0.984 . S
H1501 N1488 0.985 . S
C1502 C1503 1.363 1_655 S
C1502 C1508 1.379 . S
C1502 N1510 1.356 . S
C1503 C1502 1.363 1_455 S
C1503 C1509 1.363 1_455 S
C1504 C1505 1.363 . S
C1504 C1509 1.379 . S
C1504 N1511 1.356 . S
C1505 C1504 1.363 . S
C1505 C1508 1.363 . S
N1506 C1508 1.356 . S
N1506 H1518 0.984 . S
N1506 H1519 0.985 . S
N1507 C1509 1.356 1_455 S
N1507 H1512 0.984 . S
N1507 H1513 0.985 . S
C1508 C1502 1.379 . S
C1508 C1505 1.363 . S
C1508 N1506 1.356 . S
C1509 C1503 1.363 1_655 S
C1509 C1504 1.379 . S
C1509 N1507 1.356 1_655 S
N1510 C1502 1.356 . S
N1510 H1516 0.984 . S
N1510 H1517 0.984 1_655 S
N1511 C1504 1.356 . S
N1511 H1514 0.984 . S
N1511 H1515 0.985 . S
H1512 N1507 0.984 . S
H1513 N1507 0.985 . S
H1514 N1511 0.984 . S
H1515 N1511 0.985 . S
H1516 N1510 0.984 . S
H1517 N1510 0.984 1_455 S
H1518 N1506 0.984 . S
H1519 N1506 0.985 . S
C1520 C1521 1.363 . S
C1520 C1526 1.379 . S
C1520 N1528 1.356 . S
C1521 C1520 1.363 . S
C1521 C1527 1.363 . S
C1522 C1523 1.363 . S
C1522 C1527 1.379 . S
C1522 N1529 1.356 . S
C1523 C1522 1.363 . S
C1523 C1526 1.363 . S
N1524 C1526 1.356 . S
N1524 H1536 0.984 . S
N1524 H1537 0.985 . S
N1525 C1527 1.356 . S
N1525 H1530 0.984 . S
N1525 H1531 0.985 . S
C1526 C1520 1.379 . S
C1526 C1523 1.363 . S
C1526 N1524 1.356 . S
C1527 C1521 1.363 . S
C1527 C1522 1.379 . S
C1527 N1525 1.356 . S
N1528 C1520 1.356 . S
N1528 H1534 0.984 . S
N1528 H1535 0.984 . S
N1529 C1522 1.356 . S
N1529 H1532 0.984 . S
N1529 H1533 0.985 . S
H1530 N1525 0.984 . S
H1531 N1525 0.985 . S
H1532 N1529 0.984 . S
H1533 N1529 0.985 . S
H1534 N1528 0.984 . S
H1535 N1528 0.984 . S
H1536 N1524 0.984 . S
H1537 N1524 0.985 . S
C1538 C1539 1.363 1_455 S
C1538 C1544 1.379 . S
C1538 N1546 1.356 1_455 S
C1539 C1538 1.363 1_655 S
C1539 C1545 1.363 1_655 S
C1540 C1541 1.363 . S
C1540 C1545 1.379 . S
C1540 N1547 1.356 . S
C1541 C1540 1.363 . S
C1541 C1544 1.363 . S
N1542 C1544 1.356 . S
N1542 H1554 0.984 . S
N1542 H1555 0.985 . S
N1543 C1545 1.356 1_655 S
N1543 H1548 0.984 . S
N1543 H1549 0.985 . S
C1544 C1538 1.379 . S
C1544 C1541 1.363 . S
C1544 N1542 1.356 . S
C1545 C1539 1.363 1_455 S
C1545 C1540 1.379 . S
C1545 N1543 1.356 1_455 S
N1546 C1538 1.356 1_655 S
N1546 H1552 0.984 1_655 S
N1546 H1553 0.984 . S
N1547 C1540 1.356 . S
N1547 H1550 0.984 . S
N1547 H1551 0.985 . S
H1548 N1543 0.984 . S
H1549 N1543 0.985 . S
H1550 N1547 0.984 . S
H1551 N1547 0.985 . S
H1552 N1546 0.984 1_455 S
H1553 N1546 0.984 . S
H1554 N1542 0.984 . S
H1555 N1542 0.985 . S
C1556 C1557 1.363 . S
C1556 C1562 1.379 . S
C1556 N1564 1.356 . S
C1557 C1556 1.363 . S
C1557 C1563 1.363 . S
C1558 C1559 1.363 . S
C1558 C1563 1.379 . S
C1558 N1565 1.356 . S
C1559 C1558 1.363 . S
C1559 C1562 1.363 . S
N1560 C1562 1.356 . S
N1560 H1572 0.984 . S
N1560 H1573 0.985 . S
N1561 C1563 1.356 . S
N1561 H1566 0.984 . S
N1561 H1567 0.985 . S
C1562 C1556 1.379 . S
C1562 C1559 1.363 . S
C1562 N1560 1.356 . S
C1563 C1557 1.363 . S
C1563 C1558 1.379 . S
C1563 N1561 1.356 . S
N1564 C1556 1.356 . S
N1564 H1570 0.984 . S
N1564 H1571 0.984 . S
N1565 C1558 1.356 . S
N1565 H1568 0.984 . S
N1565 H1569 0.985 . S
H1566 N1561 0.984 . S
H1567 N1561 0.985 . S
H1568 N1565 0.984 . S
H1569 N1565 0.985 . S
H1570 N1564 0.984 . S
H1571 N1564 0.984 . S
H1572 N1560 0.984 . S
H1573 N1560 0.985 . S
C1574 C1575 1.363 . S
C1574 C1580 1.379 . S
C1574 N1582 1.356 . S
C1575 C1574 1.363 . S
C1575 C1581 1.363 . S
C1576 C1577 1.363 . S
C1576 C1581 1.379 . S
C1576 N1583 1.356 . S
C1577 C1576 1.363 . S
C1577 C1580 1.363 . S
N1578 C1580 1.356 . S
N1578 H1590 0.984 . S
N1578 H1591 0.985 . S
N1579 C1581 1.356 . S
N1579 H1584 0.984 . S
N1579 H1585 0.985 . S
C1580 C1574 1.379 . S
C1580 C1577 1.363 . S
C1580 N1578 1.356 . S
C1581 C1575 1.363 . S
C1581 C1576 1.379 . S
C1581 N1579 1.356 . S
N1582 C1574 1.356 . S
N1582 H1588 0.984 . S
N1582 H1589 0.984 . S
N1583 C1576 1.356 . S
N1583 H1586 0.984 . S
N1583 H1587 0.985 . S
H1584 N1579 0.984 . S
H1585 N1579 0.985 . S
H1586 N1583 0.984 . S
H1587 N1583 0.985 . S
H1588 N1582 0.984 . S
H1589 N1582 0.984 . S
H1590 N1578 0.984 . S
H1591 N1578 0.985 . S
C1592 C1593 1.363 . S
C1592 C1598 1.379 . S
C1592 N1600 1.356 . S
C1593 C1592 1.363 . S
C1593 C1599 1.363 . S
C1594 C1595 1.363 . S
C1594 C1599 1.379 . S
C1594 N1601 1.356 . S
C1595 C1594 1.363 . S
C1595 C1598 1.363 . S
N1596 C1598 1.356 . S
N1596 H1608 0.984 . S
N1596 H1609 0.985 . S
N1597 C1599 1.356 . S
N1597 H1602 0.984 . S
N1597 H1603 0.985 . S
C1598 C1592 1.379 . S
C1598 C1595 1.363 . S
C1598 N1596 1.356 . S
C1599 C1593 1.363 . S
C1599 C1594 1.379 . S
C1599 N1597 1.356 . S
N1600 C1592 1.356 . S
N1600 H1606 0.984 . S
N1600 H1607 0.984 . S
N1601 C1594 1.356 . S
N1601 H1604 0.984 . S
N1601 H1605 0.985 . S
H1602 N1597 0.984 . S
H1603 N1597 0.985 . S
H1604 N1601 0.984 . S
H1605 N1601 0.985 . S
H1606 N1600 0.984 . S
H1607 N1600 0.984 . S
H1608 N1596 0.984 . S
H1609 N1596 0.985 . S
C1610 C1611 1.363 . S
C1610 C1616 1.379 . S
C1610 N1618 1.356 . S
C1611 C1610 1.363 . S
C1611 C1617 1.363 . S
C1612 C1613 1.363 . S
C1612 C1617 1.379 . S
C1612 N1619 1.356 . S
C1613 C1612 1.363 . S
C1613 C1616 1.363 . S
N1614 C1616 1.356 . S
N1614 H1626 0.984 . S
N1614 H1627 0.985 . S
N1615 C1617 1.356 . S
N1615 H1620 0.984 . S
N1615 H1621 0.985 . S
C1616 C1610 1.379 . S
C1616 C1613 1.363 . S
C1616 N1614 1.356 . S
C1617 C1611 1.363 . S
C1617 C1612 1.379 . S
C1617 N1615 1.356 . S
N1618 C1610 1.356 . S
N1618 H1624 0.984 . S
N1618 H1625 0.984 . S
N1619 C1612 1.356 . S
N1619 H1622 0.984 . S
N1619 H1623 0.985 . S
H1620 N1615 0.984 . S
H1621 N1615 0.985 . S
H1622 N1619 0.984 . S
H1623 N1619 0.985 . S
H1624 N1618 0.984 . S
H1625 N1618 0.984 . S
H1626 N1614 0.984 . S
H1627 N1614 0.985 . S
C1628 C1629 1.363 . S
C1628 C1634 1.379 . S
C1628 N1636 1.356 . S
C1629 C1628 1.363 . S
C1629 C1635 1.363 . S
C1630 C1631 1.363 . S
C1630 C1635 1.379 . S
C1630 N1637 1.356 . S
C1631 C1630 1.363 . S
C1631 C1634 1.363 . S
N1632 C1634 1.356 . S
N1632 H1644 0.984 . S
N1632 H1645 0.985 . S
N1633 C1635 1.356 . S
N1633 H1638 0.984 . S
N1633 H1639 0.985 . S
C1634 C1628 1.379 . S
C1634 C1631 1.363 . S
C1634 N1632 1.356 . S
C1635 C1629 1.363 . S
C1635 C1630 1.379 . S
C1635 N1633 1.356 . S
N1636 C1628 1.356 . S
N1636 H1642 0.984 . S
N1636 H1643 0.984 . S
N1637 C1630 1.356 . S
N1637 H1640 0.984 . S
N1637 H1641 0.985 . S
H1638 N1633 0.984 . S
H1639 N1633 0.985 . S
H1640 N1637 0.984 . S
H1641 N1637 0.985 . S
H1642 N1636 0.984 . S
H1643 N1636 0.984 . S
H1644 N1632 0.984 . S
H1645 N1632 0.985 . S
C1646 C1647 1.363 1_455 S
C1646 C1652 1.379 . S
C1646 N1654 1.356 1_455 S
C1647 C1646 1.363 1_655 S
C1647 C1653 1.363 1_655 S
C1648 C1649 1.363 . S
C1648 C1653 1.379 . S
C1648 N1655 1.356 . S
C1649 C1648 1.363 . S
C1649 C1652 1.363 . S
N1650 C1652 1.356 . S
N1650 H1662 0.984 . S
N1650 H1663 0.985 . S
N1651 C1653 1.356 1_655 S
N1651 H1656 0.984 . S
N1651 H1657 0.985 . S
C1652 C1646 1.379 . S
C1652 C1649 1.363 . S
C1652 N1650 1.356 . S
C1653 C1647 1.363 1_455 S
C1653 C1648 1.379 . S
C1653 N1651 1.356 1_455 S
N1654 C1646 1.356 1_655 S
N1654 H1660 0.983 1_655 S
N1654 H1661 0.984 . S
N1655 C1648 1.356 . S
N1655 H1658 0.984 . S
N1655 H1659 0.985 . S
H1656 N1651 0.984 . S
H1657 N1651 0.985 . S
H1658 N1655 0.984 . S
H1659 N1655 0.985 . S
H1660 N1654 0.983 1_455 S
H1661 N1654 0.984 . S
H1662 N1650 0.984 . S
H1663 N1650 0.985 . S
C1664 C1665 1.363 . S
C1664 C1670 1.379 . S
C1664 N1672 1.356 . S
C1665 C1664 1.363 . S
C1665 C1671 1.363 . S
C1666 C1667 1.363 . S
C1666 C1671 1.379 . S
C1666 N1673 1.356 . S
C1667 C1666 1.363 . S
C1667 C1670 1.363 . S
N1668 C1670 1.356 . S
N1668 H1680 0.984 . S
N1668 H1681 0.985 . S
N1669 C1671 1.356 . S
N1669 H1674 0.984 . S
N1669 H1675 0.985 . S
C1670 C1664 1.379 . S
C1670 C1667 1.363 . S
C1670 N1668 1.356 . S
C1671 C1665 1.363 . S
C1671 C1666 1.379 . S
C1671 N1669 1.356 . S
N1672 C1664 1.356 . S
N1672 H1678 0.984 . S
N1672 H1679 0.984 . S
N1673 C1666 1.356 . S
N1673 H1676 0.984 . S
N1673 H1677 0.985 . S
H1674 N1669 0.984 . S
H1675 N1669 0.985 . S
H1676 N1673 0.984 . S
H1677 N1673 0.985 . S
H1678 N1672 0.984 . S
H1679 N1672 0.984 . S
H1680 N1668 0.984 . S
H1681 N1668 0.985 . S
C1682 C1683 1.363 . S
C1682 C1688 1.379 1_455 S
C1682 N1690 1.356 . S
C1683 C1682 1.363 . S
C1683 C1689 1.363 . S
C1684 C1685 1.363 . S
C1684 C1689 1.379 1_655 S
C1684 N1691 1.356 . S
C1685 C1684 1.363 . S
C1685 C1688 1.363 . S
N1686 C1688 1.356 . S
N1686 H1698 0.984 . S
N1686 H1699 0.985 . S
N1687 C1689 1.356 . S
N1687 H1692 0.984 . S
N1687 H1693 0.985 . S
C1688 C1682 1.379 1_655 S
C1688 C1685 1.363 . S
C1688 N1686 1.356 . S
C1689 C1683 1.363 . S
C1689 C1684 1.379 1_455 S
C1689 N1687 1.356 . S
N1690 C1682 1.356 . S
N1690 H1696 0.984 . S
N1690 H1697 0.984 . S
N1691 C1684 1.356 . S
N1691 H1694 0.984 . S
N1691 H1695 0.985 . S
H1692 N1687 0.984 . S
H1693 N1687 0.985 . S
H1694 N1691 0.984 . S
H1695 N1691 0.985 . S
H1696 N1690 0.984 . S
H1697 N1690 0.984 . S
H1698 N1686 0.984 . S
H1699 N1686 0.985 . S
C1700 C1701 1.363 1_455 S
C1700 C1706 1.379 . S
C1700 N1708 1.356 . S
C1701 C1700 1.363 1_655 S
C1701 C1707 1.363 . S
C1702 C1703 1.363 1_655 S
C1702 C1707 1.379 . S
C1702 N1709 1.356 . S
C1703 C1702 1.363 1_455 S
C1703 C1706 1.363 . S
N1704 C1706 1.356 . S
N1704 H1716 0.984 . S
N1704 H1717 0.985 . S
N1705 C1707 1.356 . S
N1705 H1710 0.984 . S
N1705 H1711 0.985 . S
C1706 C1700 1.379 . S
C1706 C1703 1.363 . S
C1706 N1704 1.356 . S
C1707 C1701 1.363 . S
C1707 C1702 1.379 . S
C1707 N1705 1.356 . S
N1708 C1700 1.356 . S
N1708 H1714 0.984 . S
N1708 H1715 0.984 . S
N1709 C1702 1.356 . S
N1709 H1712 0.984 . S
N1709 H1713 0.985 . S
H1710 N1705 0.984 . S
H1711 N1705 0.985 . S
H1712 N1709 0.984 . S
H1713 N1709 0.985 . S
H1714 N1708 0.984 . S
H1715 N1708 0.984 . S
H1716 N1704 0.984 . S
H1717 N1704 0.985 . S
C1718 C1719 1.363 . S
C1718 C1724 1.379 . S
C1718 N1726 1.356 . S
C1719 C1718 1.363 . S
C1719 C1725 1.363 . S
C1720 C1721 1.363 . S
C1720 C1725 1.379 . S
C1720 N1727 1.356 . S
C1721 C1720 1.363 . S
C1721 C1724 1.363 . S
N1722 C1724 1.356 . S
N1722 H1734 0.984 . S
N1722 H1735 0.985 . S
N1723 C1725 1.356 . S
N1723 H1728 0.984 . S
N1723 H1729 0.985 . S
C1724 C1718 1.379 . S
C1724 C1721 1.363 . S
C1724 N1722 1.356 . S
C1725 C1719 1.363 . S
C1725 C1720 1.379 . S
C1725 N1723 1.356 . S
N1726 C1718 1.356 . S
N1726 H1732 0.984 . S
N1726 H1733 0.984 . S
N1727 C1720 1.356 . S
N1727 H1730 0.984 . S
N1727 H1731 0.985 . S
H1728 N1723 0.984 . S
H1729 N1723 0.985 . S
H1730 N1727 0.984 . S
H1731 N1727 0.985 . S
H1732 N1726 0.984 . S
H1733 N1726 0.984 . S
H1734 N1722 0.984 . S
H1735 N1722 0.985 . S
C1736 C1737 1.363 . S
C1736 C1742 1.379 . S
C1736 N1744 1.356 . S
C1737 C1736 1.363 . S
C1737 C1743 1.363 . S
C1738 C1739 1.363 . S
C1738 C1743 1.379 . S
C1738 N1745 1.356 . S
C1739 C1738 1.363 . S
C1739 C1742 1.363 . S
N1740 C1742 1.356 . S
N1740 H1752 0.984 . S
N1740 H1753 0.985 . S
N1741 C1743 1.356 . S
N1741 H1746 0.984 . S
N1741 H1747 0.985 . S
C1742 C1736 1.379 . S
C1742 C1739 1.363 . S
C1742 N1740 1.356 . S
C1743 C1737 1.363 . S
C1743 C1738 1.379 . S
C1743 N1741 1.356 . S
N1744 C1736 1.356 . S
N1744 H1750 0.984 . S
N1744 H1751 0.984 . S
N1745 C1738 1.356 . S
N1745 H1748 0.984 . S
N1745 H1749 0.985 . S
H1746 N1741 0.984 . S
H1747 N1741 0.985 . S
H1748 N1745 0.984 . S
H1749 N1745 0.985 . S
H1750 N1744 0.984 . S
H1751 N1744 0.984 . S
H1752 N1740 0.984 . S
H1753 N1740 0.985 . S
C1754 C1755 1.363 . S
C1754 C1760 1.379 . S
C1754 N1762 1.356 . S
C1755 C1754 1.363 . S
C1755 C1761 1.363 . S
C1756 C1757 1.363 . S
C1756 C1761 1.379 . S
C1756 N1763 1.356 . S
C1757 C1756 1.363 . S
C1757 C1760 1.363 . S
N1758 C1760 1.356 . S
N1758 H1770 0.984 . S
N1758 H1771 0.985 . S
N1759 C1761 1.356 . S
N1759 H1764 0.984 . S
N1759 H1765 0.985 . S
C1760 C1754 1.379 . S
C1760 C1757 1.363 . S
C1760 N1758 1.356 . S
C1761 C1755 1.363 . S
C1761 C1756 1.379 . S
C1761 N1759 1.356 . S
N1762 C1754 1.356 . S
N1762 H1768 0.984 . S
N1762 H1769 0.984 . S
N1763 C1756 1.356 . S
N1763 H1766 0.984 . S
N1763 H1767 0.985 . S
H1764 N1759 0.984 . S
H1765 N1759 0.985 . S
H1766 N1763 0.984 . S
H1767 N1763 0.985 . S
H1768 N1762 0.984 . S
H1769 N1762 0.984 . S
H1770 N1758 0.984 . S
H1771 N1758 0.985 . S
C1772 C1773 1.363 . S
C1772 C1778 1.379 . S
C1772 N1780 1.356 . S
C1773 C1772 1.363 . S
C1773 C1779 1.363 1_455 S
C1774 C1775 1.363 . S
C1774 C1779 1.379 . S
C1774 N1781 1.356 . S
C1775 C1774 1.363 . S
C1775 C1778 1.363 1_655 S
N1776 C1778 1.356 . S
N1776 H1788 0.984 . S
N1776 H1789 0.985 . S
N1777 C1779 1.356 . S
N1777 H1782 0.984 . S
N1777 H1783 0.985 . S
C1778 C1772 1.379 . S
C1778 C1775 1.363 1_455 S
C1778 N1776 1.356 . S
C1779 C1773 1.363 1_655 S
C1779 C1774 1.379 . S
C1779 N1777 1.356 . S
N1780 C1772 1.356 . S
N1780 H1786 0.984 . S
N1780 H1787 0.984 . S
N1781 C1774 1.356 . S
N1781 H1784 0.984 . S
N1781 H1785 0.985 . S
H1782 N1777 0.984 . S
H1783 N1777 0.985 . S
H1784 N1781 0.984 . S
H1785 N1781 0.985 . S
H1786 N1780 0.984 . S
H1787 N1780 0.984 . S
H1788 N1776 0.984 . S
H1789 N1776 0.985 . S
C1790 C1791 1.363 . S
C1790 C1796 1.379 1_655 S
C1790 N1798 1.356 . S
C1791 C1790 1.363 . S
C1791 C1797 1.363 . S
C1792 C1793 1.363 . S
C1792 C1797 1.379 1_455 S
C1792 N1799 1.356 . S
C1793 C1792 1.363 . S
C1793 C1796 1.363 . S
N1794 C1796 1.356 . S
N1794 H1806 0.984 . S
N1794 H1807 0.985 . S
N1795 C1797 1.356 . S
N1795 H1800 0.984 . S
N1795 H1801 0.985 . S
C1796 C1790 1.379 1_455 S
C1796 C1793 1.363 . S
C1796 N1794 1.356 . S
C1797 C1791 1.363 . S
C1797 C1792 1.379 1_655 S
C1797 N1795 1.356 . S
N1798 C1790 1.356 . S
N1798 H1804 0.984 . S
N1798 H1805 0.984 . S
N1799 C1792 1.356 . S
N1799 H1802 0.984 . S
N1799 H1803 0.985 . S
H1800 N1795 0.984 . S
H1801 N1795 0.985 . S
H1802 N1799 0.984 . S
H1803 N1799 0.985 . S
H1804 N1798 0.984 . S
H1805 N1798 0.984 . S
H1806 N1794 0.984 . S
H1807 N1794 0.985 . S
C1808 C1809 1.363 . S
C1808 C1814 1.379 . S
C1808 N1816 1.356 . S
C1809 C1808 1.363 . S
C1809 C1815 1.363 . S
C1810 C1811 1.363 . S
C1810 C1815 1.379 . S
C1810 N1817 1.356 . S
C1811 C1810 1.363 . S
C1811 C1814 1.363 . S
N1812 C1814 1.356 . S
N1812 H1824 0.984 . S
N1812 H1825 0.985 . S
N1813 C1815 1.356 . S
N1813 H1818 0.984 . S
N1813 H1819 0.985 . S
C1814 C1808 1.379 . S
C1814 C1811 1.363 . S
C1814 N1812 1.356 . S
C1815 C1809 1.363 . S
C1815 C1810 1.379 . S
C1815 N1813 1.356 . S
N1816 C1808 1.356 . S
N1816 H1822 0.984 . S
N1816 H1823 0.984 . S
N1817 C1810 1.356 . S
N1817 H1820 0.984 . S
N1817 H1821 0.985 . S
H1818 N1813 0.984 . S
H1819 N1813 0.985 . S
H1820 N1817 0.984 . S
H1821 N1817 0.985 . S
H1822 N1816 0.984 . S
H1823 N1816 0.984 . S
H1824 N1812 0.984 . S
H1825 N1812 0.985 . S
C1826 C1827 1.363 . S
C1826 C1832 1.379 1_655 S
C1826 N1834 1.356 . S
C1827 C1826 1.363 . S
C1827 C1833 1.363 . S
C1828 C1829 1.363 . S
C1828 C1833 1.379 1_455 S
C1828 N1835 1.356 . S
C1829 C1828 1.363 . S
C1829 C1832 1.363 . S
N1830 C1832 1.356 . S
N1830 H1842 0.984 . S
N1830 H1843 0.985 . S
N1831 C1833 1.356 . S
N1831 H1836 0.984 . S
N1831 H1837 0.985 . S
C1832 C1826 1.379 1_455 S
C1832 C1829 1.363 . S
C1832 N1830 1.356 . S
C1833 C1827 1.363 . S
C1833 C1828 1.379 1_655 S
C1833 N1831 1.356 . S
N1834 C1826 1.356 . S
N1834 H1840 0.984 . S
N1834 H1841 0.984 . S
N1835 C1828 1.356 . S
N1835 H1838 0.984 . S
N1835 H1839 0.985 . S
H1836 N1831 0.984 . S
H1837 N1831 0.985 . S
H1838 N1835 0.984 . S
H1839 N1835 0.985 . S
H1840 N1834 0.984 . S
H1841 N1834 0.984 . S
H1842 N1830 0.984 . S
H1843 N1830 0.985 . S
C1844 C1845 1.363 . S
C1844 C1850 1.379 . S
C1844 N1852 1.356 . S
C1845 C1844 1.363 . S
C1845 C1851 1.363 1_455 S
C1846 C1847 1.363 . S
C1846 C1851 1.379 . S
C1846 N1853 1.356 . S
C1847 C1846 1.363 . S
C1847 C1850 1.363 1_655 S
N1848 C1850 1.356 . S
N1848 H1860 0.984 . S
N1848 H1861 0.985 . S
N1849 C1851 1.356 . S
N1849 H1854 0.984 . S
N1849 H1855 0.985 . S
C1850 C1844 1.379 . S
C1850 C1847 1.363 1_455 S
C1850 N1848 1.356 . S
C1851 C1845 1.363 1_655 S
C1851 C1846 1.379 . S
C1851 N1849 1.356 . S
N1852 C1844 1.356 . S
N1852 H1858 0.984 . S
N1852 H1859 0.984 . S
N1853 C1846 1.356 . S
N1853 H1856 0.984 . S
N1853 H1857 0.985 . S
H1854 N1849 0.984 . S
H1855 N1849 0.985 . S
H1856 N1853 0.984 . S
H1857 N1853 0.985 . S
H1858 N1852 0.984 . S
H1859 N1852 0.984 . S
H1860 N1848 0.984 . S
H1861 N1848 0.985 . S
C1862 C1863 1.363 . S
C1862 C1868 1.379 . S
C1862 N1870 1.356 . S
C1863 C1862 1.363 . S
C1863 C1869 1.363 . S
C1864 C1865 1.363 . S
C1864 C1869 1.379 . S
C1864 N1871 1.356 . S
C1865 C1864 1.363 . S
C1865 C1868 1.363 . S
N1866 C1868 1.356 . S
N1866 H1878 0.984 . S
N1866 H1879 0.985 . S
N1867 C1869 1.356 . S
N1867 H1872 0.984 . S
N1867 H1873 0.985 . S
C1868 C1862 1.379 . S
C1868 C1865 1.363 . S
C1868 N1866 1.356 . S
C1869 C1863 1.363 . S
C1869 C1864 1.379 . S
C1869 N1867 1.356 . S
N1870 C1862 1.356 . S
N1870 H1876 0.984 . S
N1870 H1877 0.984 . S
N1871 C1864 1.356 . S
N1871 H1874 0.984 . S
N1871 H1875 0.985 . S
H1872 N1867 0.984 . S
H1873 N1867 0.985 . S
H1874 N1871 0.984 . S
H1875 N1871 0.985 . S
H1876 N1870 0.984 . S
H1877 N1870 0.984 . S
H1878 N1866 0.984 . S
H1879 N1866 0.985 . S
C1880 C1881 1.363 . S
C1880 C1886 1.379 . S
C1880 N1888 1.356 . S
C1881 C1880 1.363 . S
C1881 C1887 1.363 . S
C1882 C1883 1.363 . S
C1882 C1887 1.379 . S
C1882 N1889 1.356 . S
C1883 C1882 1.363 . S
C1883 C1886 1.363 . S
N1884 C1886 1.356 . S
N1884 H1896 0.984 . S
N1884 H1897 0.985 . S
N1885 C1887 1.356 . S
N1885 H1890 0.984 . S
N1885 H1891 0.985 . S
C1886 C1880 1.379 . S
C1886 C1883 1.363 . S
C1886 N1884 1.356 . S
C1887 C1881 1.363 . S
C1887 C1882 1.379 . S
C1887 N1885 1.356 . S
N1888 C1880 1.356 . S
N1888 H1894 0.984 . S
N1888 H1895 0.984 . S
N1889 C1882 1.356 . S
N1889 H1892 0.984 . S
N1889 H1893 0.985 . S
H1890 N1885 0.984 . S
H1891 N1885 0.985 . S
H1892 N1889 0.984 . S
H1893 N1889 0.985 . S
H1894 N1888 0.984 . S
H1895 N1888 0.984 . S
H1896 N1884 0.984 . S
H1897 N1884 0.985 . S
C1898 C1899 1.363 . S
C1898 C1904 1.379 . S
C1898 N1906 1.356 . S
C1899 C1898 1.363 . S
C1899 C1905 1.363 . S
C1900 C1901 1.363 . S
C1900 C1905 1.379 . S
C1900 N1907 1.356 . S
C1901 C1900 1.363 . S
C1901 C1904 1.363 . S
N1902 C1904 1.356 . S
N1902 H1914 0.984 . S
N1902 H1915 0.985 . S
N1903 C1905 1.356 . S
N1903 H1908 0.984 . S
N1903 H1909 0.985 . S
C1904 C1898 1.379 . S
C1904 C1901 1.363 . S
C1904 N1902 1.356 . S
C1905 C1899 1.363 . S
C1905 C1900 1.379 . S
C1905 N1903 1.356 . S
N1906 C1898 1.356 . S
N1906 H1912 0.984 . S
N1906 H1913 0.984 . S
N1907 C1900 1.356 . S
N1907 H1910 0.984 . S
N1907 H1911 0.985 . S
H1908 N1903 0.984 . S
H1909 N1903 0.985 . S
H1910 N1907 0.984 . S
H1911 N1907 0.985 . S
H1912 N1906 0.984 . S
H1913 N1906 0.984 . S
H1914 N1902 0.984 . S
H1915 N1902 0.985 . S
C1916 C1917 1.363 . S
C1916 C1922 1.379 . S
C1916 N1924 1.356 . S
C1917 C1916 1.363 . S
C1917 C1923 1.363 1_455 S
C1918 C1919 1.363 . S
C1918 C1923 1.379 . S
C1918 N1925 1.356 . S
C1919 C1918 1.363 . S
C1919 C1922 1.363 1_655 S
N1920 C1922 1.356 . S
N1920 H1932 0.984 . S
N1920 H1933 0.985 . S
N1921 C1923 1.356 . S
N1921 H1926 0.984 . S
N1921 H1927 0.985 . S
C1922 C1916 1.379 . S
C1922 C1919 1.363 1_455 S
C1922 N1920 1.356 . S
C1923 C1917 1.363 1_655 S
C1923 C1918 1.379 . S
C1923 N1921 1.356 . S
N1924 C1916 1.356 . S
N1924 H1930 0.984 . S
N1924 H1931 0.984 . S
N1925 C1918 1.356 . S
N1925 H1928 0.984 . S
N1925 H1929 0.985 . S
H1926 N1921 0.984 . S
H1927 N1921 0.985 . S
H1928 N1925 0.984 . S
H1929 N1925 0.985 . S
H1930 N1924 0.984 . S
H1931 N1924 0.984 . S
H1932 N1920 0.984 . S
H1933 N1920 0.985 . S
C1934 C1935 1.363 . S
C1934 C1940 1.379 1_455 S
C1934 N1942 1.356 . S
C1935 C1934 1.363 . S
C1935 C1941 1.363 . S
C1936 C1937 1.363 . S
C1936 C1941 1.379 1_655 S
C1936 N1943 1.356 . S
C1937 C1936 1.363 . S
C1937 C1940 1.363 . S
N1938 C1940 1.356 . S
N1938 H1950 0.984 . S
N1938 H1951 0.985 . S
N1939 C1941 1.356 . S
N1939 H1944 0.984 . S
N1939 H1945 0.985 . S
C1940 C1934 1.379 1_655 S
C1940 C1937 1.363 . S
C1940 N1938 1.356 . S
C1941 C1935 1.363 . S
C1941 C1936 1.379 1_455 S
C1941 N1939 1.356 . S
N1942 C1934 1.356 . S
N1942 H1948 0.984 . S
N1942 H1949 0.984 . S
N1943 C1936 1.356 . S
N1943 H1946 0.984 . S
N1943 H1947 0.985 . S
H1944 N1939 0.984 . S
H1945 N1939 0.985 . S
H1946 N1943 0.984 . S
H1947 N1943 0.985 . S
H1948 N1942 0.984 . S
H1949 N1942 0.984 . S
H1950 N1938 0.984 . S
H1951 N1938 0.985 . S
C1952 C1953 1.363 . S
C1952 C1958 1.379 . S
C1952 N1960 1.356 . S
C1953 C1952 1.363 . S
C1953 C1959 1.363 . S
C1954 C1955 1.363 . S
C1954 C1959 1.379 . S
C1954 N1961 1.356 . S
C1955 C1954 1.363 . S
C1955 C1958 1.363 . S
N1956 C1958 1.356 . S
N1956 H1968 0.984 . S
N1956 H1969 0.985 . S
N1957 C1959 1.356 . S
N1957 H1962 0.984 . S
N1957 H1963 0.985 . S
C1958 C1952 1.379 . S
C1958 C1955 1.363 . S
C1958 N1956 1.356 . S
C1959 C1953 1.363 . S
C1959 C1954 1.379 . S
C1959 N1957 1.356 . S
N1960 C1952 1.356 . S
N1960 H1966 0.984 1_545 S
N1960 H1967 0.984 . S
N1961 C1954 1.356 . S
N1961 H1964 0.984 . S
N1961 H1965 0.985 . S
H1962 N1957 0.984 . S
H1963 N1957 0.985 . S
H1964 N1961 0.984 . S
H1965 N1961 0.985 . S
H1966 N1960 0.984 1_565 S
H1967 N1960 0.984 . S
H1968 N1956 0.984 . S
H1969 N1956 0.985 . S
C1970 C1971 1.363 . S
C1970 C1976 1.379 . S
C1970 N1978 1.356 . S
C1971 C1970 1.363 . S
C1971 C1977 1.363 . S
C1972 C1973 1.363 . S
C1972 C1977 1.379 . S
C1972 N1979 1.356 . S
C1973 C1972 1.363 . S
C1973 C1976 1.363 . S
N1974 C1976 1.356 . S
N1974 H1986 0.984 . S
N1974 H1987 0.985 . S
N1975 C1977 1.356 . S
N1975 H1980 0.984 . S
N1975 H1981 0.985 . S
C1976 C1970 1.379 . S
C1976 C1973 1.363 . S
C1976 N1974 1.356 . S
C1977 C1971 1.363 . S
C1977 C1972 1.379 . S
C1977 N1975 1.356 . S
N1978 C1970 1.356 . S
N1978 H1984 0.984 . S
N1978 H1985 0.984 . S
N1979 C1972 1.356 . S
N1979 H1982 0.984 . S
N1979 H1983 0.985 1_545 S
H1980 N1975 0.984 . S
H1981 N1975 0.985 . S
H1982 N1979 0.984 . S
H1983 N1979 0.985 1_565 S
H1984 N1978 0.984 . S
H1985 N1978 0.984 . S
H1986 N1974 0.984 . S
H1987 N1974 0.985 . S
C1988 C1989 1.363 . S
C1988 C1994 1.379 . S
C1988 N1996 1.356 . S
C1989 C1988 1.363 . S
C1989 C1995 1.363 . S
C1990 C1991 1.363 . S
C1990 C1995 1.379 . S
C1990 N1997 1.356 . S
C1991 C1990 1.363 . S
C1991 C1994 1.363 . S
N1992 C1994 1.356 . S
N1992 H2004 0.984 . S
N1992 H2005 0.985 . S
N1993 C1995 1.356 1_545 S
N1993 H1998 0.984 . S
N1993 H1999 0.985 . S
C1994 C1988 1.379 . S
C1994 C1991 1.363 . S
C1994 N1992 1.356 . S
C1995 C1989 1.363 . S
C1995 C1990 1.379 . S
C1995 N1993 1.356 1_565 S
N1996 C1988 1.356 . S
N1996 H2002 0.984 . S
N1996 H2003 0.984 . S
N1997 C1990 1.356 . S
N1997 H2000 0.984 . S
N1997 H2001 0.985 1_565 S
H1998 N1993 0.984 . S
H1999 N1993 0.985 . S
H2000 N1997 0.984 . S
H2001 N1997 0.985 1_545 S
H2002 N1996 0.984 . S
H2003 N1996 0.984 . S
H2004 N1992 0.984 . S
H2005 N1992 0.985 . S
C2006 C2007 1.363 . S
C2006 C2012 1.379 . S
C2006 N2014 1.356 . S
C2007 C2006 1.363 . S
C2007 C2013 1.363 . S
C2008 C2009 1.363 . S
C2008 C2013 1.379 . S
C2008 N2015 1.356 . S
C2009 C2008 1.363 . S
C2009 C2012 1.363 . S
N2010 C2012 1.356 . S
N2010 H2022 0.984 . S
N2010 H2023 0.985 . S
N2011 C2013 1.356 . S
N2011 H2016 0.984 . S
N2011 H2017 0.985 . S
C2012 C2006 1.379 . S
C2012 C2009 1.363 . S
C2012 N2010 1.356 . S
C2013 C2007 1.363 . S
C2013 C2008 1.379 . S
C2013 N2011 1.356 . S
N2014 C2006 1.356 . S
N2014 H2020 0.984 . S
N2014 H2021 0.984 . S
N2015 C2008 1.356 . S
N2015 H2018 0.984 . S
N2015 H2019 0.985 1_565 S
H2016 N2011 0.984 . S
H2017 N2011 0.985 . S
H2018 N2015 0.984 . S
H2019 N2015 0.985 1_545 S
H2020 N2014 0.984 . S
H2021 N2014 0.984 . S
H2022 N2010 0.984 . S
H2023 N2010 0.985 . S
C2024 C2025 1.363 . S
C2024 C2030 1.379 . S
C2024 N2032 1.356 . S
C2025 C2024 1.363 . S
C2025 C2031 1.363 . S
C2026 C2027 1.363 . S
C2026 C2031 1.379 . S
C2026 N2033 1.356 . S
C2027 C2026 1.363 . S
C2027 C2030 1.363 . S
N2028 C2030 1.356 . S
N2028 H2040 0.984 . S
N2028 H2041 0.985 . S
N2029 C2031 1.356 . S
N2029 H2034 0.984 . S
N2029 H2035 0.985 . S
C2030 C2024 1.379 . S
C2030 C2027 1.363 . S
C2030 N2028 1.356 . S
C2031 C2025 1.363 . S
C2031 C2026 1.379 . S
C2031 N2029 1.356 . S
N2032 C2024 1.356 . S
N2032 H2038 0.984 1_565 S
N2032 H2039 0.984 . S
N2033 C2026 1.356 . S
N2033 H2036 0.984 . S
N2033 H2037 0.985 . S
H2034 N2029 0.984 . S
H2035 N2029 0.985 . S
H2036 N2033 0.984 . S
H2037 N2033 0.985 . S
H2038 N2032 0.984 1_545 S
H2039 N2032 0.984 . S
H2040 N2028 0.984 . S
H2041 N2028 0.985 . S
C2042 C2043 1.363 . S
C2042 C2048 1.379 . S
C2042 N2050 1.356 . S
C2043 C2042 1.363 . S
C2043 C2049 1.363 . S
C2044 C2045 1.363 . S
C2044 C2049 1.379 . S
C2044 N2051 1.356 . S
C2045 C2044 1.363 . S
C2045 C2048 1.363 . S
N2046 C2048 1.356 . S
N2046 H2058 0.984 . S
N2046 H2059 0.985 . S
N2047 C2049 1.356 . S
N2047 H2052 0.984 . S
N2047 H2053 0.985 1_565 S
C2048 C2042 1.379 . S
C2048 C2045 1.363 . S
C2048 N2046 1.356 . S
C2049 C2043 1.363 . S
C2049 C2044 1.379 . S
C2049 N2047 1.356 . S
N2050 C2042 1.356 . S
N2050 H2056 0.984 . S
N2050 H2057 0.984 . S
N2051 C2044 1.356 . S
N2051 H2054 0.984 . S
N2051 H2055 0.985 . S
H2052 N2047 0.984 . S
H2053 N2047 0.985 1_545 S
H2054 N2051 0.984 . S
H2055 N2051 0.985 . S
H2056 N2050 0.984 . S
H2057 N2050 0.984 . S
H2058 N2046 0.984 . S
H2059 N2046 0.985 . S
C2060 C2061 1.363 . S
C2060 C2066 1.379 . S
C2060 N2068 1.356 . S
C2061 C2060 1.363 . S
C2061 C2067 1.363 . S
C2062 C2063 1.363 . S
C2062 C2067 1.379 . S
C2062 N2069 1.356 . S
C2063 C2062 1.363 . S
C2063 C2066 1.363 . S
N2064 C2066 1.356 . S
N2064 H2076 0.984 . S
N2064 H2077 0.985 . S
N2065 C2067 1.356 . S
N2065 H2070 0.984 . S
N2065 H2071 0.985 . S
C2066 C2060 1.379 . S
C2066 C2063 1.363 . S
C2066 N2064 1.356 . S
C2067 C2061 1.363 . S
C2067 C2062 1.379 . S
C2067 N2065 1.356 . S
N2068 C2060 1.356 . S
N2068 H2074 0.984 . S
N2068 H2075 0.984 . S
N2069 C2062 1.356 . S
N2069 H2072 0.984 . S
N2069 H2073 0.985 . S
H2070 N2065 0.984 . S
H2071 N2065 0.985 . S
H2072 N2069 0.984 . S
H2073 N2069 0.985 . S
H2074 N2068 0.984 . S
H2075 N2068 0.984 . S
H2076 N2064 0.984 . S
H2077 N2064 0.985 . S
C2078 C2079 1.363 . S
C2078 C2084 1.379 . S
C2078 N2086 1.356 1_545 S
C2079 C2078 1.363 . S
C2079 C2085 1.363 . S
C2080 C2081 1.363 . S
C2080 C2085 1.379 . S
C2080 N2087 1.356 . S
C2081 C2080 1.363 . S
C2081 C2084 1.363 . S
N2082 C2084 1.356 . S
N2082 H2094 0.984 1_545 S
N2082 H2095 0.985 . S
N2083 C2085 1.356 . S
N2083 H2088 0.984 . S
N2083 H2089 0.985 . S
C2084 C2078 1.379 . S
C2084 C2081 1.363 . S
C2084 N2082 1.356 . S
C2085 C2079 1.363 . S
C2085 C2080 1.379 . S
C2085 N2083 1.356 . S
N2086 C2078 1.356 1_565 S
N2086 H2092 0.984 . S
N2086 H2093 0.984 . S
N2087 C2080 1.356 . S
N2087 H2090 0.984 . S
N2087 H2091 0.985 . S
H2088 N2083 0.984 . S
H2089 N2083 0.985 . S
H2090 N2087 0.984 . S
H2091 N2087 0.985 . S
H2092 N2086 0.984 . S
H2093 N2086 0.984 . S
H2094 N2082 0.984 1_565 S
H2095 N2082 0.985 . S
C2096 C2097 1.363 . S
C2096 C2102 1.379 . S
C2096 N2104 1.356 . S
C2097 C2096 1.363 . S
C2097 C2103 1.363 . S
C2098 C2099 1.363 . S
C2098 C2103 1.379 . S
C2098 N2105 1.356 . S
C2099 C2098 1.363 . S
C2099 C2102 1.363 . S
N2100 C2102 1.356 . S
N2100 H2112 0.984 . S
N2100 H2113 0.985 . S
N2101 C2103 1.356 . S
N2101 H2106 0.984 . S
N2101 H2107 0.985 . S
C2102 C2096 1.379 . S
C2102 C2099 1.363 . S
C2102 N2100 1.356 . S
C2103 C2097 1.363 . S
C2103 C2098 1.379 . S
C2103 N2101 1.356 . S
N2104 C2096 1.356 . S
N2104 H2110 0.984 . S
N2104 H2111 0.984 . S
N2105 C2098 1.356 . S
N2105 H2108 0.984 . S
N2105 H2109 0.985 . S
H2106 N2101 0.984 . S
H2107 N2101 0.985 . S
H2108 N2105 0.984 . S
H2109 N2105 0.985 . S
H2110 N2104 0.984 . S
H2111 N2104 0.984 . S
H2112 N2100 0.984 . S
H2113 N2100 0.985 . S
C2114 C2115 1.363 . S
C2114 C2120 1.379 . S
C2114 N2122 1.356 . S
C2115 C2114 1.363 . S
C2115 C2121 1.363 . S
C2116 C2117 1.363 . S
C2116 C2121 1.379 . S
C2116 N2123 1.356 . S
C2117 C2116 1.363 . S
C2117 C2120 1.363 . S
N2118 C2120 1.356 . S
N2118 H2130 0.984 . S
N2118 H2131 0.985 . S
N2119 C2121 1.356 . S
N2119 H2124 0.984 . S
N2119 H2125 0.985 . S
C2120 C2114 1.379 . S
C2120 C2117 1.363 . S
C2120 N2118 1.356 . S
C2121 C2115 1.363 . S
C2121 C2116 1.379 . S
C2121 N2119 1.356 . S
N2122 C2114 1.356 . S
N2122 H2128 0.984 . S
N2122 H2129 0.984 . S
N2123 C2116 1.356 . S
N2123 H2126 0.984 . S
N2123 H2127 0.985 . S
H2124 N2119 0.984 . S
H2125 N2119 0.985 . S
H2126 N2123 0.984 . S
H2127 N2123 0.985 . S
H2128 N2122 0.984 . S
H2129 N2122 0.984 . S
H2130 N2118 0.984 . S
H2131 N2118 0.985 . S
C2132 C2133 1.363 . S
C2132 C2138 1.379 . S
C2132 N2140 1.356 . S
C2133 C2132 1.363 . S
C2133 C2139 1.363 . S
C2134 C2135 1.363 . S
C2134 C2139 1.379 . S
C2134 N2141 1.356 . S
C2135 C2134 1.363 . S
C2135 C2138 1.363 . S
N2136 C2138 1.356 . S
N2136 H2148 0.984 . S
N2136 H2149 0.985 . S
N2137 C2139 1.356 . S
N2137 H2142 0.984 . S
N2137 H2143 0.985 . S
C2138 C2132 1.379 . S
C2138 C2135 1.363 . S
C2138 N2136 1.356 . S
C2139 C2133 1.363 . S
C2139 C2134 1.379 . S
C2139 N2137 1.356 . S
N2140 C2132 1.356 . S
N2140 H2146 0.984 . S
N2140 H2147 0.984 . S
N2141 C2134 1.356 . S
N2141 H2144 0.984 . S
N2141 H2145 0.985 . S
H2142 N2137 0.984 . S
H2143 N2137 0.985 . S
H2144 N2141 0.984 . S
H2145 N2141 0.985 . S
H2146 N2140 0.984 . S
H2147 N2140 0.984 . S
H2148 N2136 0.984 . S
H2149 N2136 0.985 . S
C2150 C2151 1.363 . S
C2150 C2156 1.379 . S
C2150 N2158 1.356 . S
C2151 C2150 1.363 . S
C2151 C2157 1.363 . S
C2152 C2153 1.363 . S
C2152 C2157 1.379 . S
C2152 N2159 1.356 . S
C2153 C2152 1.363 . S
C2153 C2156 1.363 . S
N2154 C2156 1.356 . S
N2154 H2166 0.984 . S
N2154 H2167 0.985 . S
N2155 C2157 1.356 . S
N2155 H2160 0.984 . S
N2155 H2161 0.985 . S
C2156 C2150 1.379 . S
C2156 C2153 1.363 . S
C2156 N2154 1.356 . S
C2157 C2151 1.363 . S
C2157 C2152 1.379 . S
C2157 N2155 1.356 . S
N2158 C2150 1.356 . S
N2158 H2164 0.984 . S
N2158 H2165 0.984 . S
N2159 C2152 1.356 . S
N2159 H2162 0.984 . S
N2159 H2163 0.985 . S
H2160 N2155 0.984 . S
H2161 N2155 0.985 . S
H2162 N2159 0.984 . S
H2163 N2159 0.985 . S
H2164 N2158 0.984 . S
H2165 N2158 0.984 . S
H2166 N2154 0.984 . S
H2167 N2154 0.985 . S
C2168 C2169 1.363 . S
C2168 C2174 1.379 . S
C2168 N2176 1.356 . S
C2169 C2168 1.363 . S
C2169 C2175 1.363 . S
C2170 C2171 1.363 . S
C2170 C2175 1.379 . S
C2170 N2177 1.356 . S
C2171 C2170 1.363 . S
C2171 C2174 1.363 . S
N2172 C2174 1.356 . S
N2172 H2184 0.984 . S
N2172 H2185 0.985 . S
N2173 C2175 1.356 . S
N2173 H2178 0.984 . S
N2173 H2179 0.985 . S
C2174 C2168 1.379 . S
C2174 C2171 1.363 . S
C2174 N2172 1.356 . S
C2175 C2169 1.363 . S
C2175 C2170 1.379 . S
C2175 N2173 1.356 . S
N2176 C2168 1.356 . S
N2176 H2182 0.984 . S
N2176 H2183 0.984 . S
N2177 C2170 1.356 . S
N2177 H2180 0.984 . S
N2177 H2181 0.985 . S
H2178 N2173 0.984 . S
H2179 N2173 0.985 . S
H2180 N2177 0.984 . S
H2181 N2177 0.985 . S
H2182 N2176 0.984 . S
H2183 N2176 0.984 . S
H2184 N2172 0.984 . S
H2185 N2172 0.985 . S
C2186 C2187 1.363 . S
C2186 C2192 1.379 . S
C2186 N2194 1.356 . S
C2187 C2186 1.363 . S
C2187 C2193 1.363 . S
C2188 C2189 1.363 . S
C2188 C2193 1.379 . S
C2188 N2195 1.356 . S
C2189 C2188 1.363 . S
C2189 C2192 1.363 . S
N2190 C2192 1.356 . S
N2190 H2202 0.984 . S
N2190 H2203 0.985 . S
N2191 C2193 1.356 . S
N2191 H2196 0.984 . S
N2191 H2197 0.985 . S
C2192 C2186 1.379 . S
C2192 C2189 1.363 . S
C2192 N2190 1.356 . S
C2193 C2187 1.363 . S
C2193 C2188 1.379 . S
C2193 N2191 1.356 . S
N2194 C2186 1.356 . S
N2194 H2200 0.984 . S
N2194 H2201 0.984 . S
N2195 C2188 1.356 . S
N2195 H2198 0.984 . S
N2195 H2199 0.985 . S
H2196 N2191 0.984 . S
H2197 N2191 0.985 . S
H2198 N2195 0.984 . S
H2199 N2195 0.985 . S
H2200 N2194 0.984 . S
H2201 N2194 0.984 . S
H2202 N2190 0.984 . S
H2203 N2190 0.985 . S
C2204 C2205 1.363 . S
C2204 C2210 1.379 . S
C2204 N2212 1.356 . S
C2205 C2204 1.363 . S
C2205 C2211 1.363 . S
C2206 C2207 1.363 . S
C2206 C2211 1.379 . S
C2206 N2213 1.356 . S
C2207 C2206 1.363 . S
C2207 C2210 1.363 . S
N2208 C2210 1.356 . S
N2208 H2220 0.984 . S
N2208 H2221 0.985 . S
N2209 C2211 1.356 . S
N2209 H2214 0.984 . S
N2209 H2215 0.985 . S
C2210 C2204 1.379 . S
C2210 C2207 1.363 . S
C2210 N2208 1.356 . S
C2211 C2205 1.363 . S
C2211 C2206 1.379 . S
C2211 N2209 1.356 . S
N2212 C2204 1.356 . S
N2212 H2218 0.984 . S
N2212 H2219 0.984 . S
N2213 C2206 1.356 . S
N2213 H2216 0.984 . S
N2213 H2217 0.985 . S
H2214 N2209 0.984 . S
H2215 N2209 0.985 . S
H2216 N2213 0.984 . S
H2217 N2213 0.985 . S
H2218 N2212 0.984 . S
H2219 N2212 0.984 . S
H2220 N2208 0.984 . S
H2221 N2208 0.985 . S
C2222 C2223 1.363 . S
C2222 C2228 1.379 . S
C2222 N2230 1.356 . S
C2223 C2222 1.363 . S
C2223 C2229 1.363 . S
C2224 C2225 1.363 . S
C2224 C2229 1.379 . S
C2224 N2231 1.356 . S
C2225 C2224 1.363 . S
C2225 C2228 1.363 . S
N2226 C2228 1.356 . S
N2226 H2238 0.984 . S
N2226 H2239 0.985 . S
N2227 C2229 1.356 . S
N2227 H2232 0.984 . S
N2227 H2233 0.985 . S
C2228 C2222 1.379 . S
C2228 C2225 1.363 . S
C2228 N2226 1.356 . S
C2229 C2223 1.363 . S
C2229 C2224 1.379 . S
C2229 N2227 1.356 . S
N2230 C2222 1.356 . S
N2230 H2236 0.984 . S
N2230 H2237 0.984 . S
N2231 C2224 1.356 . S
N2231 H2234 0.984 . S
N2231 H2235 0.985 . S
H2232 N2227 0.984 . S
H2233 N2227 0.985 . S
H2234 N2231 0.984 . S
H2235 N2231 0.985 . S
H2236 N2230 0.984 . S
H2237 N2230 0.984 . S
H2238 N2226 0.984 . S
H2239 N2226 0.985 . S
C2240 C2241 1.367 . S
C2240 C2246 1.375 1_565 S
C2240 N2248 1.358 . S
C2241 C2240 1.367 . S
C2241 C2247 1.363 . S
C2242 C2243 1.367 . S
C2242 C2247 1.375 1_545 S
C2242 N2249 1.358 . S
C2243 C2242 1.367 . S
C2243 C2246 1.363 . S
N2244 C2246 1.356 . S
N2244 H2256 0.984 . S
N2244 H2257 0.985 . S
N2245 C2247 1.356 . S
N2245 H2250 0.984 . S
N2245 H2251 0.985 . S
C2246 C2240 1.375 1_545 S
C2246 C2243 1.363 . S
C2246 N2244 1.356 . S
C2247 C2241 1.363 . S
C2247 C2242 1.375 1_565 S
C2247 N2245 1.356 . S
N2248 C2240 1.358 . S
N2248 H2254 0.984 1_565 S
N2248 H2255 0.984 . S
N2249 C2242 1.358 . S
N2249 H2252 0.984 . S
N2249 H2253 0.985 1_545 S
H2250 N2245 0.984 . S
H2251 N2245 0.985 . S
H2252 N2249 0.984 . S
H2253 N2249 0.985 1_565 S
H2254 N2248 0.984 1_545 S
H2255 N2248 0.984 . S
H2256 N2244 0.984 . S
H2257 N2244 0.985 . S
C2258 C2259 1.363 . S
C2258 C2264 1.379 . S
C2258 N2266 1.356 . S
C2259 C2258 1.363 . S
C2259 C2265 1.363 . S
C2260 C2261 1.363 . S
C2260 C2265 1.379 . S
C2260 N2267 1.356 . S
C2261 C2260 1.363 . S
C2261 C2264 1.363 . S
N2262 C2264 1.356 . S
N2262 H2274 0.984 . S
N2262 H2275 0.985 . S
N2263 C2265 1.356 . S
N2263 H2268 0.984 . S
N2263 H2269 0.985 . S
C2264 C2258 1.379 . S
C2264 C2261 1.363 . S
C2264 N2262 1.356 . S
C2265 C2259 1.363 . S
C2265 C2260 1.379 . S
C2265 N2263 1.356 . S
N2266 C2258 1.356 . S
N2266 H2272 0.984 . S
N2266 H2273 0.984 . S
N2267 C2260 1.356 . S
N2267 H2270 0.984 . S
N2267 H2271 0.985 . S
H2268 N2263 0.984 . S
H2269 N2263 0.985 . S
H2270 N2267 0.984 . S
H2271 N2267 0.985 . S
H2272 N2266 0.984 . S
H2273 N2266 0.984 . S
H2274 N2262 0.984 . S
H2275 N2262 0.985 . S
C2276 C2277 1.363 . S
C2276 C2282 1.379 . S
C2276 N2284 1.356 . S
C2277 C2276 1.363 . S
C2277 C2283 1.363 1_565 S
C2278 C2279 1.363 . S
C2278 C2283 1.379 . S
C2278 N2285 1.356 . S
C2279 C2278 1.363 . S
C2279 C2282 1.363 1_545 S
N2280 C2282 1.356 . S
N2280 H2292 0.984 . S
N2280 H2293 0.985 . S
N2281 C2283 1.356 . S
N2281 H2286 0.984 . S
N2281 H2287 0.985 . S
C2282 C2276 1.379 . S
C2282 C2279 1.363 1_565 S
C2282 N2280 1.356 . S
C2283 C2277 1.363 1_545 S
C2283 C2278 1.379 . S
C2283 N2281 1.356 . S
N2284 C2276 1.356 . S
N2284 H2290 0.984 . S
N2284 H2291 0.984 . S
N2285 C2278 1.356 . S
N2285 H2288 0.984 . S
N2285 H2289 0.985 . S
H2286 N2281 0.984 . S
H2287 N2281 0.985 . S
H2288 N2285 0.984 . S
H2289 N2285 0.985 . S
H2290 N2284 0.984 . S
H2291 N2284 0.984 . S
H2292 N2280 0.984 . S
H2293 N2280 0.985 . S
C2294 C2295 1.363 . S
C2294 C2300 1.379 1_554 S
C2294 N2302 1.356 . S
C2295 C2294 1.363 . S
C2295 C2301 1.363 . S
C2296 C2297 1.363 . S
C2296 C2301 1.379 1_556 S
C2296 N2303 1.356 . S
C2297 C2296 1.363 . S
C2297 C2300 1.363 . S
N2298 C2300 1.356 . S
N2298 H2310 0.984 . S
N2298 H2311 0.985 . S
N2299 C2301 1.356 . S
N2299 H2304 0.984 . S
N2299 H2305 0.985 . S
C2300 C2294 1.379 1_556 S
C2300 C2297 1.363 . S
C2300 N2298 1.356 . S
C2301 C2295 1.363 . S
C2301 C2296 1.379 1_554 S
C2301 N2299 1.356 . S
N2302 C2294 1.356 . S
N2302 H2308 0.984 . S
N2302 H2309 0.984 . S
N2303 C2296 1.356 . S
N2303 H2306 0.984 . S
N2303 H2307 0.985 . S
H2304 N2299 0.984 . S
H2305 N2299 0.985 . S
H2306 N2303 0.984 . S
H2307 N2303 0.985 . S
H2308 N2302 0.984 . S
H2309 N2302 0.984 . S
H2310 N2298 0.984 . S
H2311 N2298 0.985 . S
C2312 C2313 1.363 . S
C2312 C2318 1.379 . S
C2312 N2320 1.356 . S
C2313 C2312 1.363 . S
C2313 C2319 1.363 1_545 S
C2314 C2315 1.363 . S
C2314 C2319 1.379 . S
C2314 N2321 1.356 . S
C2315 C2314 1.363 . S
C2315 C2318 1.363 1_565 S
N2316 C2318 1.356 . S
N2316 H2328 0.984 . S
N2316 H2329 0.985 . S
N2317 C2319 1.356 . S
N2317 H2322 0.984 . S
N2317 H2323 0.985 . S
C2318 C2312 1.379 . S
C2318 C2315 1.363 1_545 S
C2318 N2316 1.356 . S
C2319 C2313 1.363 1_565 S
C2319 C2314 1.379 . S
C2319 N2317 1.356 . S
N2320 C2312 1.356 . S
N2320 H2326 0.984 . S
N2320 H2327 0.984 . S
N2321 C2314 1.356 . S
N2321 H2324 0.984 . S
N2321 H2325 0.985 . S
H2322 N2317 0.984 . S
H2323 N2317 0.985 . S
H2324 N2321 0.984 . S
H2325 N2321 0.985 . S
H2326 N2320 0.984 . S
H2327 N2320 0.984 . S
H2328 N2316 0.984 . S
H2329 N2316 0.985 . S
C2330 C2331 1.363 . S
C2330 C2336 1.379 . S
C2330 N2338 1.356 . S
C2331 C2330 1.363 . S
C2331 C2337 1.363 . S
C2332 C2333 1.363 . S
C2332 C2337 1.379 . S
C2332 N2339 1.356 . S
C2333 C2332 1.363 . S
C2333 C2336 1.363 . S
N2334 C2336 1.356 . S
N2334 H2346 0.984 . S
N2334 H2347 0.985 . S
N2335 C2337 1.356 . S
N2335 H2340 0.984 . S
N2335 H2341 0.985 . S
C2336 C2330 1.379 . S
C2336 C2333 1.363 . S
C2336 N2334 1.356 . S
C2337 C2331 1.363 . S
C2337 C2332 1.379 . S
C2337 N2335 1.356 . S
N2338 C2330 1.356 . S
N2338 H2344 0.984 . S
N2338 H2345 0.984 . S
N2339 C2332 1.356 . S
N2339 H2342 0.984 . S
N2339 H2343 0.985 . S
H2340 N2335 0.984 . S
H2341 N2335 0.985 . S
H2342 N2339 0.984 . S
H2343 N2339 0.985 . S
H2344 N2338 0.984 . S
H2345 N2338 0.984 . S
H2346 N2334 0.984 . S
H2347 N2334 0.985 . S
C2348 C2349 1.363 1_545 S
C2348 C2354 1.379 . S
C2348 N2356 1.356 . S
C2349 C2348 1.363 1_565 S
C2349 C2355 1.363 . S
C2350 C2351 1.363 1_565 S
C2350 C2355 1.379 . S
C2350 N2357 1.356 . S
C2351 C2350 1.363 1_545 S
C2351 C2354 1.363 . S
N2352 C2354 1.356 . S
N2352 H2364 0.984 . S
N2352 H2365 0.985 . S
N2353 C2355 1.356 . S
N2353 H2358 0.984 . S
N2353 H2359 0.985 . S
C2354 C2348 1.379 . S
C2354 C2351 1.363 . S
C2354 N2352 1.356 . S
C2355 C2349 1.363 . S
C2355 C2350 1.379 . S
C2355 N2353 1.356 . S
N2356 C2348 1.356 . S
N2356 H2362 0.984 . S
N2356 H2363 0.984 . S
N2357 C2350 1.356 . S
N2357 H2360 0.984 . S
N2357 H2361 0.985 . S
H2358 N2353 0.984 . S
H2359 N2353 0.985 . S
H2360 N2357 0.984 . S
H2361 N2357 0.985 . S
H2362 N2356 0.984 . S
H2363 N2356 0.984 . S
H2364 N2352 0.984 . S
H2365 N2352 0.985 . S
C2366 C2367 1.363 . S
C2366 C2372 1.379 1_556 S
C2366 N2374 1.356 . S
C2367 C2366 1.363 . S
C2367 C2373 1.363 . S
C2368 C2369 1.363 . S
C2368 C2373 1.379 1_554 S
C2368 N2375 1.356 . S
C2369 C2368 1.363 . S
C2369 C2372 1.363 . S
N2370 C2372 1.356 . S
N2370 H2382 0.984 . S
N2370 H2383 0.985 . S
N2371 C2373 1.356 . S
N2371 H2376 0.984 . S
N2371 H2377 0.985 . S
C2372 C2366 1.379 1_554 S
C2372 C2369 1.363 . S
C2372 N2370 1.356 . S
C2373 C2367 1.363 . S
C2373 C2368 1.379 1_556 S
C2373 N2371 1.356 . S
N2374 C2366 1.356 . S
N2374 H2380 0.984 . S
N2374 H2381 0.984 . S
N2375 C2368 1.356 . S
N2375 H2378 0.984 . S
N2375 H2379 0.985 . S
H2376 N2371 0.984 . S
H2377 N2371 0.985 . S
H2378 N2375 0.984 . S
H2379 N2375 0.985 . S
H2380 N2374 0.984 . S
H2381 N2374 0.984 . S
H2382 N2370 0.984 . S
H2383 N2370 0.985 . S
C2384 C2385 1.363 . S
C2384 C2390 1.379 . S
C2384 N2392 1.356 . S
C2385 C2384 1.363 . S
C2385 C2391 1.363 . S
C2386 C2387 1.363 . S
C2386 C2391 1.379 . S
C2386 N2393 1.356 . S
C2387 C2386 1.363 . S
C2387 C2390 1.363 . S
N2388 C2390 1.356 . S
N2388 H2400 0.984 . S
N2388 H2401 0.985 . S
N2389 C2391 1.356 . S
N2389 H2394 0.984 . S
N2389 H2395 0.985 . S
C2390 C2384 1.379 . S
C2390 C2387 1.363 . S
C2390 N2388 1.356 . S
C2391 C2385 1.363 . S
C2391 C2386 1.379 . S
C2391 N2389 1.356 . S
N2392 C2384 1.356 . S
N2392 H2398 0.984 . S
N2392 H2399 0.984 . S
N2393 C2386 1.356 . S
N2393 H2396 0.984 . S
N2393 H2397 0.985 . S
H2394 N2389 0.984 . S
H2395 N2389 0.985 . S
H2396 N2393 0.984 . S
H2397 N2393 0.985 . S
H2398 N2392 0.984 . S
H2399 N2392 0.984 . S
H2400 N2388 0.984 . S
H2401 N2388 0.985 . S
C2402 C2403 1.363 . S
C2402 C2408 1.379 1_556 S
C2402 N2410 1.356 . S
C2403 C2402 1.363 . S
C2403 C2409 1.363 . S
C2404 C2405 1.363 . S
C2404 C2409 1.379 1_554 S
C2404 N2411 1.356 . S
C2405 C2404 1.363 . S
C2405 C2408 1.363 . S
N2406 C2408 1.356 . S
N2406 H2418 0.984 . S
N2406 H2419 0.985 . S
N2407 C2409 1.356 . S
N2407 H2412 0.984 . S
N2407 H2413 0.985 . S
C2408 C2402 1.379 1_554 S
C2408 C2405 1.363 . S
C2408 N2406 1.356 . S
C2409 C2403 1.363 . S
C2409 C2404 1.379 1_556 S
C2409 N2407 1.356 . S
N2410 C2402 1.356 . S
N2410 H2416 0.984 . S
N2410 H2417 0.984 . S
N2411 C2404 1.356 . S
N2411 H2414 0.984 . S
N2411 H2415 0.985 . S
H2412 N2407 0.984 . S
H2413 N2407 0.985 . S
H2414 N2411 0.984 . S
H2415 N2411 0.985 . S
H2416 N2410 0.984 . S
H2417 N2410 0.984 . S
H2418 N2406 0.984 . S
H2419 N2406 0.985 . S
C2420 C2421 1.363 . S
C2420 C2426 1.379 . S
C2420 N2428 1.356 . S
C2421 C2420 1.363 . S
C2421 C2427 1.363 . S
C2422 C2423 1.363 . S
C2422 C2427 1.379 . S
C2422 N2429 1.356 . S
C2423 C2422 1.363 . S
C2423 C2426 1.363 . S
N2424 C2426 1.356 . S
N2424 H2436 0.984 . S
N2424 H2437 0.985 . S
N2425 C2427 1.356 . S
N2425 H2430 0.984 . S
N2425 H2431 0.985 . S
C2426 C2420 1.379 . S
C2426 C2423 1.363 . S
C2426 N2424 1.356 . S
C2427 C2421 1.363 . S
C2427 C2422 1.379 . S
C2427 N2425 1.356 . S
N2428 C2420 1.356 . S
N2428 H2434 0.984 . S
N2428 H2435 0.984 . S
N2429 C2422 1.356 . S
N2429 H2432 0.984 . S
N2429 H2433 0.985 . S
H2430 N2425 0.984 . S
H2431 N2425 0.985 . S
H2432 N2429 0.984 . S
H2433 N2429 0.985 . S
H2434 N2428 0.984 . S
H2435 N2428 0.984 . S
H2436 N2424 0.984 . S
H2437 N2424 0.985 . S
C2438 C2439 1.363 . S
C2438 C2444 1.379 . S
C2438 N2446 1.356 . S
C2439 C2438 1.363 . S
C2439 C2445 1.363 . S
C2440 C2441 1.363 . S
C2440 C2445 1.379 . S
C2440 N2447 1.356 . S
C2441 C2440 1.363 . S
C2441 C2444 1.363 . S
N2442 C2444 1.356 . S
N2442 H2454 0.984 . S
N2442 H2455 0.985 . S
N2443 C2445 1.356 . S
N2443 H2448 0.984 . S
N2443 H2449 0.985 . S
C2444 C2438 1.379 . S
C2444 C2441 1.363 . S
C2444 N2442 1.356 . S
C2445 C2439 1.363 . S
C2445 C2440 1.379 . S
C2445 N2443 1.356 . S
N2446 C2438 1.356 . S
N2446 H2452 0.984 . S
N2446 H2453 0.984 . S
N2447 C2440 1.356 . S
N2447 H2450 0.984 . S
N2447 H2451 0.985 . S
H2448 N2443 0.984 . S
H2449 N2443 0.985 . S
H2450 N2447 0.984 . S
H2451 N2447 0.985 . S
H2452 N2446 0.984 . S
H2453 N2446 0.984 . S
H2454 N2442 0.984 . S
H2455 N2442 0.985 . S
C2456 C2457 1.363 . S
C2456 C2462 1.379 . S
C2456 N2464 1.356 . S
C2457 C2456 1.363 . S
C2457 C2463 1.363 . S
C2458 C2459 1.363 . S
C2458 C2463 1.379 . S
C2458 N2465 1.356 . S
C2459 C2458 1.363 . S
C2459 C2462 1.363 . S
N2460 C2462 1.356 . S
N2460 H2472 0.984 . S
N2460 H2473 0.985 . S
N2461 C2463 1.356 . S
N2461 H2466 0.984 . S
N2461 H2467 0.985 . S
C2462 C2456 1.379 . S
C2462 C2459 1.363 . S
C2462 N2460 1.356 . S
C2463 C2457 1.363 . S
C2463 C2458 1.379 . S
C2463 N2461 1.356 . S
N2464 C2456 1.356 . S
N2464 H2470 0.984 . S
N2464 H2471 0.984 . S
N2465 C2458 1.356 . S
N2465 H2468 0.984 . S
N2465 H2469 0.985 . S
H2466 N2461 0.984 . S
H2467 N2461 0.985 . S
H2468 N2465 0.984 . S
H2469 N2465 0.985 . S
H2470 N2464 0.984 . S
H2471 N2464 0.984 . S
H2472 N2460 0.984 . S
H2473 N2460 0.985 . S
C2474 C2475 1.363 . S
C2474 C2480 1.379 1_556 S
C2474 N2482 1.356 . S
C2475 C2474 1.363 . S
C2475 C2481 1.363 . S
C2476 C2477 1.363 . S
C2476 C2481 1.379 1_554 S
C2476 N2483 1.356 . S
C2477 C2476 1.363 . S
C2477 C2480 1.363 . S
N2478 C2480 1.356 . S
N2478 H2490 0.984 . S
N2478 H2491 0.985 . S
N2479 C2481 1.356 . S
N2479 H2484 0.984 . S
N2479 H2485 0.985 . S
C2480 C2474 1.379 1_554 S
C2480 C2477 1.363 . S
C2480 N2478 1.356 . S
C2481 C2475 1.363 . S
C2481 C2476 1.379 1_556 S
C2481 N2479 1.356 . S
N2482 C2474 1.356 . S
N2482 H2488 0.984 . S
N2482 H2489 0.984 . S
N2483 C2476 1.356 . S
N2483 H2486 0.984 . S
N2483 H2487 0.985 . S
H2484 N2479 0.984 . S
H2485 N2479 0.985 . S
H2486 N2483 0.984 . S
H2487 N2483 0.985 . S
H2488 N2482 0.984 . S
H2489 N2482 0.984 . S
H2490 N2478 0.984 . S
H2491 N2478 0.985 . S
C2492 C2493 1.363 . S
C2492 C2498 1.379 . S
C2492 N2500 1.356 . S
C2493 C2492 1.363 . S
C2493 C2499 1.363 . S
C2494 C2495 1.363 . S
C2494 C2499 1.379 . S
C2494 N2501 1.356 . S
C2495 C2494 1.363 . S
C2495 C2498 1.363 . S
N2496 C2498 1.356 . S
N2496 H2508 0.984 . S
N2496 H2509 0.985 . S
N2497 C2499 1.356 . S
N2497 H2502 0.984 . S
N2497 H2503 0.985 . S
C2498 C2492 1.379 . S
C2498 C2495 1.363 . S
C2498 N2496 1.356 . S
C2499 C2493 1.363 . S
C2499 C2494 1.379 . S
C2499 N2497 1.356 . S
N2500 C2492 1.356 . S
N2500 H2506 0.984 . S
N2500 H2507 0.984 . S
N2501 C2494 1.356 . S
N2501 H2504 0.984 . S
N2501 H2505 0.985 . S
H2502 N2497 0.984 . S
H2503 N2497 0.985 . S
H2504 N2501 0.984 . S
H2505 N2501 0.985 . S
H2506 N2500 0.984 . S
H2507 N2500 0.984 . S
H2508 N2496 0.984 . S
H2509 N2496 0.985 . S
C2510 C2511 1.363 . S
C2510 C2516 1.379 . S
C2510 N2518 1.356 . S
C2511 C2510 1.363 . S
C2511 C2517 1.363 . S
C2512 C2513 1.363 . S
C2512 C2517 1.379 . S
C2512 N2519 1.356 . S
C2513 C2512 1.363 . S
C2513 C2516 1.363 . S
N2514 C2516 1.356 . S
N2514 H2526 0.984 . S
N2514 H2527 0.985 . S
N2515 C2517 1.356 . S
N2515 H2520 0.984 . S
N2515 H2521 0.985 . S
C2516 C2510 1.379 . S
C2516 C2513 1.363 . S
C2516 N2514 1.356 . S
C2517 C2511 1.363 . S
C2517 C2512 1.379 . S
C2517 N2515 1.356 . S
N2518 C2510 1.356 . S
N2518 H2524 0.984 . S
N2518 H2525 0.984 . S
N2519 C2512 1.356 . S
N2519 H2522 0.984 . S
N2519 H2523 0.985 . S
H2520 N2515 0.984 . S
H2521 N2515 0.985 . S
H2522 N2519 0.984 . S
H2523 N2519 0.985 . S
H2524 N2518 0.984 . S
H2525 N2518 0.984 . S
H2526 N2514 0.984 . S
H2527 N2514 0.985 . S
C1089 C20 1.374 . S
C1091 C985 1.349 . S
C1107 C54 1.374 . S
C1109 C475 1.349 . S
C1125 C88 1.374 . S
C1127 C1053 1.349 . S
C1143 C122 1.374 . S
C1145 C543 1.349 . S
C1161 C849 1.349 . S
C1163 C156 1.374 . S
C1179 C190 1.374 . S
C1181 C339 1.349 . S
C1197 C224 1.374 . S
C1199 C917 1.349 . S
C1215 C407 1.349 . S
C1217 C258 1.374 . S
C1233 C713 1.349 . S
C1235 C292 1.374 . S
C1251 C326 1.374 . S
C1253 C203 1.349 . S
C1269 C360 1.374 . S
C1271 C781 1.349 . S
C1287 C271 1.349 . S
C1289 C394 1.374 . S
C1305 C577 1.349 . S
C1307 C428 1.374 . S
C1323 C67 1.349 . S
C1325 C462 1.374 . S
C1341 C496 1.374 . S
C1343 C645 1.349 . S
C1359 C530 1.374 . S
C1361 C135 1.349 . S
C1377 C564 1.374 . S
C1379 C441 1.349 . S
C1395 C1019 1.349 . S
C1397 C598 1.374 . S
C1413 C509 1.349 . S
C1415 C632 1.374 . S
C1431 C1087 1.349 . S
C1433 C666 1.374 . S
C1449 C305 1.349 . S
C1451 C700 1.374 . S
C1467 C734 1.374 . S
C1469 C883 1.349 . S
C1485 C373 1.349 . S
C1487 C768 1.374 . S
C1503 C951 1.349 . S
C1505 C802 1.374 . S
C1521 C169 1.349 . S
C1523 C836 1.374 . S
C1539 C747 1.349 . S
C1541 C870 1.374 . S
C1557 C237 1.349 . S
C1559 C904 1.374 . S
C1575 C815 1.349 . S
C1577 C938 1.374 . S
C1593 C33 1.349 . S
C1595 C972 1.374 . S
C1611 C611 1.349 . S
C1613 C1006 1.374 . S
C1629 C1040 1.374 . S
C1631 C101 1.349 . S
C1647 C679 1.349 . S
C1649 C1074 1.374 . S
C1665 C614 1.110 . S
C1667 C2 1.110 . S
C1683 C36 1.110 . S
C1685 C648 1.110 . S
C1701 C546 1.110 . S
C1703 C70 1.110 . S
C1719 C104 1.110 . S
C1721 C580 1.110 . S
C1737 C750 1.110 . S
C1739 C138 1.110 . S
C1755 C784 1.110 . S
C1757 C172 1.110 . S
C1773 C206 1.110 . S
C1775 C682 1.110 . S
C1791 C716 1.110 . S
C1793 C240 1.110 . S
C1809 C274 1.110 . S
C1811 C886 1.110 . S
C1827 C308 1.110 . S
C1829 C920 1.110 . S
C1845 C818 1.110 . S
C1847 C342 1.110 . S
C1863 C852 1.110 . S
C1865 C376 1.110 . S
C1881 C410 1.110 . S
C1883 C1022 1.110 . S
C1899 C1056 1.110 . S
C1901 C444 1.110 . S
C1917 C954 1.110 . S
C1919 C478 1.110 . S
C1935 C988 1.110 . S
C1937 C512 1.110 . S
C1953 C5 1.580 . S
C1955 C175 1.580 . S
C1971 C39 1.580 . S
C1973 C209 1.580 . S
C1989 C73 1.580 . S
C1991 C243 1.580 . S
C2007 C107 1.580 . S
C2009 C141 1.580 . S
C2025 C277 1.580 . S
C2027 C447 1.580 . S
C2043 C481 1.580 . S
C2045 C311 1.580 . S
C2061 C515 1.580 . S
C2063 C345 1.580 . S
C2079 C413 1.580 . S
C2081 C379 1.580 . S
C2097 C549 1.580 . S
C2099 C719 1.580 . S
C2115 C583 1.580 . S
C2117 C753 1.580 . S
C2133 C787 1.580 . S
C2135 C617 1.580 . S
C2151 C685 1.580 . S
C2153 C651 1.580 . S
C2169 C821 1.580 . S
C2171 C991 1.580 . S
C2187 C1025 1.580 . S
C2189 C855 1.580 . S
C2205 C1059 1.580 . S
C2207 C889 1.580 . S
C2223 C923 1.580 . S
C2225 C957 1.580 . S
C2241 C145 1.453 . S
C2243 C9 1.453 . S
C2259 C43 1.453 . S
C2261 C179 1.453 . S
C2277 C77 1.453 . S
C2279 C213 1.453 . S
C2295 C111 1.453 . S
C2297 C247 1.453 . S
C2313 C417 1.453 . S
C2315 C281 1.453 . S
C2331 C315 1.453 . S
C2333 C451 1.453 . S
C2349 C485 1.453 . S
C2351 C349 1.453 . S
C2367 C383 1.453 . S
C2369 C519 1.453 . S
C2385 C553 1.453 . S
C2387 C689 1.453 . S
C2403 C723 1.453 . S
C2405 C587 1.453 . S
C2421 C757 1.453 . S
C2423 C621 1.453 . S
C2439 C791 1.453 . S
C2441 C655 1.453 . S
C2457 C825 1.453 . S
C2459 C961 1.453 . S
C2475 C859 1.453 . S
C2477 C995 1.453 . S
C2493 C893 1.453 . S
C2495 C1029 1.453 . S
C2511 C927 1.453 . S
C2513 C1063 1.453 . S
