# Generated by pormake.
# Topology mdf, (4)-cn, num edge types: 1
# Building blocks:
#     Node 0, Type 0, BuildingBlock: QUQFOY_clean_sbu_3, # of connection points: 4
#     Node 1, Type 0, BuildingBlock: QUQFOY_clean_sbu_3, # of connection points: 4
#     Node 2, Type 0, BuildingBlock: QUQFOY_clean_sbu_3, # of connection points: 4
#     Node 3, Type 0, BuildingBlock: QUQFOY_clean_sbu_3, # of connection points: 4
#     Node 4, Type 0, BuildingBlock: QUQFOY_clean_sbu_3, # of connection points: 4
#     Node 5, Type 0, BuildingBlock: QUQFOY_clean_sbu_3, # of connection points: 4
#     Node 6, Type 0, BuildingBlock: QUQFOY_clean_sbu_3, # of connection points: 4
#     Node 7, Type 0, BuildingBlock: QUQFOY_clean_sbu_3, # of connection points: 4
#     Edge 8, Type (0, 0), BuildingBlock: AJUNOK_clean_linker_0, # of connection points: 2
#     Edge 9, Type (0, 0), BuildingBlock: AJUNOK_clean_linker_0, # of connection points: 2
#     Edge 10, Type (0, 0), BuildingBlock: AJUNOK_clean_linker_0, # of connection points: 2
#     Edge 11, Type (0, 0), BuildingBlock: AJUNOK_clean_linker_0, # of connection points: 2
#     Edge 12, Type (0, 0), BuildingBlock: AJUNOK_clean_linker_0, # of connection points: 2
#     Edge 13, Type (0, 0), BuildingBlock: AJUNOK_clean_linker_0, # of connection points: 2
#     Edge 14, Type (0, 0), BuildingBlock: AJUNOK_clean_linker_0, # of connection points: 2
#     Edge 15, Type (0, 0), BuildingBlock: AJUNOK_clean_linker_0, # of connection points: 2
#     Edge 16, Type (0, 0), BuildingBlock: AJUNOK_clean_linker_0, # of connection points: 2
#     Edge 17, Type (0, 0), BuildingBlock: AJUNOK_clean_linker_0, # of connection points: 2
#     Edge 18, Type (0, 0), BuildingBlock: AJUNOK_clean_linker_0, # of connection points: 2
#     Edge 19, Type (0, 0), BuildingBlock: AJUNOK_clean_linker_0, # of connection points: 2
#     Edge 20, Type (0, 0), BuildingBlock: AJUNOK_clean_linker_0, # of connection points: 2
#     Edge 21, Type (0, 0), BuildingBlock: AJUNOK_clean_linker_0, # of connection points: 2
#     Edge 22, Type (0, 0), BuildingBlock: AJUNOK_clean_linker_0, # of connection points: 2
#     Edge 23, Type (0, 0), BuildingBlock: AJUNOK_clean_linker_0, # of connection points: 2
# Relax obj value: 0.015
# Max RMSD: 0.038
# Mean RMSD: 0.038
data_MOF--net-mdf--node1-QUQFOY_clean_sbu_3--edge1-AJUNOK_clean_linker_0
_symmetry_space_group_name_H-M    P1
_symmetry_Int_Tables_number       1
_symmetry_cell_setting            triclinic
loop_
_symmetry_equiv_pos_as_xyz
'x, y, z'
_cell_length_a     29.500554
_cell_length_b     29.387011
_cell_length_c     8.93403
_cell_angle_alpha  90.015563
_cell_angle_beta   89.971618
_cell_angle_gamma 92.064009
loop_
_atom_site_label
_atom_site_type_symbol
_atom_site_fract_x
_atom_site_fract_y
_atom_site_fract_z
_atom_type_partial_charge
C0 C 0.30814 0.55756 0.04427 0.0
O1 O 0.29495 0.52696 0.95217 0.0
Cd2 Cd 0.24723 0.46385 0.0366 0.0
O3 O 0.2915 0.55891 0.17481 0.0
Cd4 Cd 0.23571 0.523 0.33577 0.0
C5 C 0.30812 0.43747 0.35389 0.0
O6 O 0.18099 0.4902 0.15989 0.0
O7 O 0.17885 0.46561 0.3888 0.0
O8 O 0.19922 0.59463 0.36004 0.0
C9 C 0.16177 0.46494 0.2585 0.0
O10 O 0.29516 0.42796 0.22109 0.0
C11 C 0.20328 0.59718 0.50119 0.0
O12 O 0.2932 0.47181 0.42312 0.0
O13 O 0.2241 0.56548 0.56596 0.0
C14 C 0.4444 0.69402 0.86891 0.0
O15 O 0.4733 0.71154 0.95939 0.0
Cd16 Cd 0.53272 0.76268 0.87154 0.0
O17 O 0.443 0.70727 0.73387 0.0
Cd18 Cd 0.47396 0.7603 0.55102 0.0
C19 C 0.56427 0.69306 0.57676 0.0
O20 O 0.49746 0.81835 0.72241 0.0
O21 O 0.523 0.82691 0.49743 0.0
O22 O 0.39669 0.78181 0.52956 0.0
C23 C 0.52117 0.84189 0.63049 0.0
O24 O 0.5711 0.71081 0.70538 0.0
C25 C 0.39442 0.77846 0.38822 0.0
O26 O 0.53071 0.70408 0.49585 0.0
O27 O 0.42955 0.76504 0.32044 0.0
C28 C 0.17953 0.91741 0.56409 0.0
O29 O 0.19372 0.94952 0.47938 0.0
Cd30 Cd 0.23499 0.01404 0.58029 0.0
O31 O 0.19088 0.91668 0.70108 0.0
Cd32 Cd 0.23819 0.95535 0.88643 0.0
C33 C 0.16289 0.03786 0.87541 0.0
O34 O 0.29653 0.98657 0.72293 0.0
O35 O 0.2958 0.0128 0.94874 0.0
O36 O 0.26888 0.88161 0.91676 0.0
C37 C 0.31453 0.01266 0.82097 0.0
O38 O 0.17988 0.04718 0.74743 0.0
C39 C 0.26692 0.88093 0.05843 0.0
O40 O 0.17679 0.00477 0.95321 0.0
O41 O 0.24935 0.91486 0.12189 0.0
C42 C 0.04873 0.7787 0.36454 0.0
O43 O 0.02096 0.76183 0.46002 0.0
Cd44 Cd 0.95706 0.71535 0.38052 0.0
O45 O 0.04622 0.76722 0.22777 0.0
Cd46 Cd 0.00792 0.71816 0.04641 0.0
C47 C 0.92131 0.78884 0.101 0.0
O48 O -0.01184 0.6597 0.22109 0.0
O49 O 0.95718 0.65165 0.00401 0.0
O50 O 0.08439 0.69807 -0.00181 0.0
C51 C 0.96213 0.63643 0.13572 0.0
O52 O 0.91683 0.77045 0.22964 0.0
C53 C 0.08216 0.70049 0.85678 0.0
O54 O 0.95213 0.77672 0.01045 0.0
O55 O 0.04476 0.71283 0.80118 0.0
C56 C 0.80076 0.06929 0.66874 0.0
O57 O 0.78427 0.043 0.56829 0.0
Cd58 Cd 0.7392 0.97589 0.62463 0.0
O59 O 0.78966 0.06461 0.80522 0.0
Cd60 Cd 0.73411 0.02107 0.95388 0.0
C61 C 0.80137 0.93162 0.9172 0.0
O62 O 0.67737 0.00175 0.76685 0.0
O63 O 0.67106 0.96668 0.97857 0.0
O64 O 0.70663 0.09486 0.00595 0.0
C65 C 0.65544 0.97339 0.84851 0.0
O66 O 0.78706 0.92984 0.78264 0.0
C67 C 0.70555 0.09069 0.14705 0.0
O68 O 0.78901 0.96281 0.00623 0.0
O69 O 0.72003 0.05383 0.2014 0.0
C70 C 0.93434 0.20231 0.46642 0.0
O71 O 0.9696 0.21389 0.54053 0.0
Cd72 Cd 0.03089 0.25092 0.40304 0.0
O73 O 0.93153 0.21208 0.32861 0.0
Cd74 Cd 0.96321 0.24925 0.11102 0.0
C75 C 0.04387 0.17131 0.11992 0.0
O76 O -0.00103 0.30966 0.25234 0.0
O77 O 0.01676 0.3075 0.01802 0.0
O78 O 0.88802 0.277 0.09005 0.0
C79 C 0.02115 0.32717 0.14379 0.0
O80 O 0.05767 0.19034 0.24068 0.0
C81 C 0.8832 0.26874 0.95161 0.0
O82 O 0.00905 0.18498 0.05136 0.0
O83 O 0.91592 0.24992 0.88587 0.0
C84 C 0.6794 0.42488 0.13946 0.0
O85 O 0.69853 0.45037 0.04148 0.0
Cd86 Cd 0.7528 0.50979 0.10843 0.0
O87 O 0.69262 0.42593 0.27444 0.0
Cd88 Cd 0.74833 0.45888 0.44374 0.0
C89 C 0.68682 0.55285 0.39469 0.0
O90 O 0.80724 0.47738 0.26786 0.0
O91 O 0.81541 0.507 0.48794 0.0
O92 O 0.76909 0.38168 0.4758 0.0
C93 C 0.83072 0.5025 0.35617 0.0
O94 O 0.70458 0.55521 0.26476 0.0
C95 C 0.76692 0.38128 0.61753 0.0
O96 O 0.6959 0.52079 0.48547 0.0
O97 O 0.75358 0.41728 0.6813 0.0
C98 C 0.53895 0.29398 0.95436 0.0
O99 O 0.50676 0.27998 0.03877 0.0
Cd100 Cd 0.44444 0.23635 0.93083 0.0
O101 O 0.54113 0.28045 0.81989 0.0
Cd102 Cd 0.5074 0.23055 0.63462 0.0
C103 C 0.42574 0.30732 0.62837 0.0
O104 O 0.47303 0.17319 0.79523 0.0
O105 O 0.4513 0.17348 0.56337 0.0
O106 O 0.57973 0.19581 0.62321 0.0
C107 C 0.4494 0.15474 0.69124 0.0
O108 O 0.41429 0.29119 0.75579 0.0
C109 C 0.58532 0.20124 0.48355 0.0
O110 O 0.45949 0.29221 0.55684 0.0
O111 O 0.5547 0.22184 0.4128 0.0
C112 C 0.38399 0.63537 0.81013 0.0
C113 C 0.41101 0.6585 0.91813 0.0
C114 C 0.35111 0.60241 0.85153 0.0
C115 C 0.34362 0.59171 0.00259 0.0
H116 H 0.38808 0.64274 0.69202 0.0
H117 H 0.33096 0.58576 0.76465 0.0
S118 S 0.40597 0.64124 0.32927 0.0
N119 N 0.42885 0.66733 0.18264 0.0
N120 N 0.36652 0.60576 0.26127 0.0
C121 C 0.37055 0.61424 0.11208 0.0
C122 C 0.40444 0.64746 0.06966 0.0
C123 C 0.32603 0.82558 0.3807 0.0
C124 C 0.35493 0.79567 0.30707 0.0
C125 C 0.29457 0.8505 0.30087 0.0
C126 C 0.29063 0.84608 0.14479 0.0
H127 H 0.32975 0.83226 0.49942 0.0
H128 H 0.27537 0.87545 0.36081 0.0
S129 S 0.35022 0.76377 0.90581 0.0
N130 N 0.37204 0.75715 0.07423 0.0
N131 N 0.31213 0.80316 0.92395 0.0
C132 C 0.31561 0.81244 0.07267 0.0
C133 C 0.34807 0.78748 0.15387 0.0
C134 C 0.0957 0.81697 0.56214 0.0
C135 C 0.08372 0.8129 0.41068 0.0
C136 C 0.12747 0.85025 0.60947 0.0
C137 C 0.14816 0.88111 0.50737 0.0
H138 H 0.08037 0.79439 0.64517 0.0
H139 H 0.13515 0.85215 0.72792 0.0
S140 S 0.12917 0.88409 0.0968 0.0
N141 N 0.09575 0.84175 0.15719 0.0
N142 N 0.15506 0.90477 0.24707 0.0
C143 C 0.13698 0.87701 0.35499 0.0
C144 C 0.1049 0.84277 0.30641 0.0
C145 C 0.11257 0.67843 0.60748 0.0
C146 C 0.1192 0.6836 0.76241 0.0
C147 C 0.14222 0.65317 0.52106 0.0
C148 C 0.1793 0.63189 0.58683 0.0
H149 H 0.08282 0.69156 0.55386 0.0
H150 H 0.13415 0.64781 0.40393 0.0
S151 S 0.21746 0.64367 0.98066 0.0
N152 N 0.17021 0.67203 0.97284 0.0
N153 N 0.22536 0.62387 0.81004 0.0
C154 C 0.18881 0.64043 0.73833 0.0
C155 C 0.15889 0.66653 0.82625 0.0
C156 C 0.87321 0.11371 0.70609 0.0
C157 C 0.83243 0.10656 0.62685 0.0
C158 C 0.9055 0.14686 0.65928 0.0
C159 C 0.89739 0.17406 0.53332 0.0
H160 H 0.88103 0.09223 0.80052 0.0
H161 H 0.93766 0.14965 0.71763 0.0
S162 S 0.79117 0.1748 0.31008 0.0
N163 N 0.78282 0.13293 0.43126 0.0
N164 N 0.84237 0.19649 0.34602 0.0
C165 C 0.8549 0.16964 0.46176 0.0
C166 C 0.82267 0.13541 0.50761 0.0
C167 C 0.84591 0.28756 0.71037 0.0
C168 C 0.8447 0.28693 0.86753 0.0
C169 C 0.81726 0.31528 0.62908 0.0
C170 C 0.78674 0.34366 0.70228 0.0
H171 H 0.87134 0.26924 0.64988 0.0
H172 H 0.82174 0.31703 0.50881 0.0
S173 S 0.76151 0.34415 0.10858 0.0
N174 N 0.8036 0.30905 0.09103 0.0
N175 N 0.75056 0.36218 0.93774 0.0
C176 C 0.78147 0.33916 0.8577 0.0
C177 C 0.81025 0.31043 0.94051 0.0
C178 C 0.6361 0.38119 0.94515 0.0
C179 C 0.6427 0.39207 0.09659 0.0
C180 C 0.60259 0.34927 0.90149 0.0
C181 C 0.57393 0.32728 0.00731 0.0
H182 H 0.65733 0.39696 0.85929 0.0
H183 H 0.59913 0.34206 0.78306 0.0
S184 S 0.57664 0.3443 0.41859 0.0
N185 N 0.61757 0.37865 0.35368 0.0
N186 N 0.55398 0.31893 0.27023 0.0
C187 C 0.57974 0.33813 0.15923 0.0
C188 C 0.6143 0.37039 0.2042 0.0
C189 C 0.67171 0.11411 0.3897 0.0
C190 C 0.6828 0.12459 0.24038 0.0
C191 C 0.6424 0.14112 0.47111 0.0
C192 C 0.62276 0.17926 0.40553 0.0
H193 H 0.68377 0.08353 0.44182 0.0
H194 H 0.63295 0.13032 0.58316 0.0
S195 S 0.64831 0.22676 0.0294 0.0
N196 N 0.67769 0.18006 0.03851 0.0
N197 N 0.6217 0.23013 0.19143 0.0
C198 C 0.63649 0.19232 0.26103 0.0
C199 C 0.66679 0.16515 0.17848 0.0
C200 C 0.36683 0.37855 0.33964 0.0
C201 C 0.34042 0.40731 0.42763 0.0
C202 C 0.39556 0.34739 0.40543 0.0
C203 C 0.39842 0.34328 0.56174 0.0
H204 H 0.36503 0.37972 0.21858 0.0
H205 H 0.41454 0.3254 0.33311 0.0
S206 S 0.33899 0.41283 0.84277 0.0
N207 N 0.32108 0.43147 0.67963 0.0
N208 N 0.3747 0.37251 0.80344 0.0
C209 C 0.37329 0.37274 0.6513 0.0
C210 C 0.34444 0.4049 0.58424 0.0
C211 C 0.59186 0.91705 0.88902 0.0
C212 C 0.61764 0.94452 0.78955 0.0
C213 C 0.55926 0.88536 0.83643 0.0
C214 C 0.55151 0.87963 0.68222 0.0
H215 H 0.59764 0.91914 0.00862 0.0
H216 H 0.54129 0.86404 0.91747 0.0
S217 S 0.60659 0.9466 0.3756 0.0
N218 N 0.63065 0.96673 0.52995 0.0
N219 N 0.56945 0.90668 0.43077 0.0
C220 C 0.57543 0.90843 0.58158 0.0
C221 C 0.60846 0.94105 0.63535 0.0
C222 C 0.09809 0.10869 0.15019 0.0
C223 C 0.07007 0.13398 0.05638 0.0
C224 C 0.12643 0.07588 0.09152 0.0
C225 C 0.12837 0.06784 0.93667 0.0
H226 H 0.09873 0.11478 0.2698 0.0
H227 H 0.14835 0.05815 0.16739 0.0
S228 S 0.05921 0.12216 0.64401 0.0
N229 N 0.04379 0.14643 0.80183 0.0
N230 N 0.09763 0.08529 0.69139 0.0
C231 C 0.0993 0.09159 0.84213 0.0
C232 C 0.06995 0.12449 0.90205 0.0
C233 C 0.90455 0.57357 0.09421 0.0
C234 C 0.93327 0.59822 0.19306 0.0
C235 C 0.87295 0.54084 0.14735 0.0
C236 C 0.86867 0.53191 0.30138 0.0
H237 H 0.90547 0.58051 0.97512 0.0
H238 H 0.85041 0.52393 0.06754 0.0
S239 S 0.93971 0.5828 0.60521 0.0
N240 N 0.95848 0.60813 0.45118 0.0
N241 N 0.89866 0.54687 0.5509 0.0
C242 C 0.89885 0.55441 0.40072 0.0
C243 C 0.93131 0.58749 0.34657 0.0
C244 C 0.37283 0.07095 0.90025 0.0
C245 C 0.35173 0.04562 0.78445 0.0
C246 C 0.40548 0.10525 0.8692 0.0
C247 C 0.41792 0.11576 0.72106 0.0
H248 H 0.36349 0.06487 0.01599 0.0
H249 H 0.42001 0.12453 0.96195 0.0
S250 S 0.37558 0.05705 0.37783 0.0
N251 N 0.34771 0.03142 0.51612 0.0
N252 N 0.409 0.09625 0.45759 0.0
C253 C 0.39833 0.08967 0.60427 0.0
C254 C 0.36529 0.05444 0.63601 0.0
C255 C 0.85654 0.87126 0.86252 0.0
C256 C 0.83252 0.89641 0.96871 0.0
C257 C 0.88533 0.83684 0.9063 0.0
C258 C 0.89083 0.82569 0.05803 0.0
H259 H 0.85327 0.87826 0.74406 0.0
H260 H 0.90297 0.81849 0.82012 0.0
S261 S 0.83607 0.88165 0.3811 0.0
N262 N 0.81661 0.90814 0.23281 0.0
N263 N 0.87043 0.84325 0.31555 0.0
C264 C 0.86716 0.85068 0.16579 0.0
C265 C 0.83817 0.88612 0.12109 0.0
C266 C 0.06565 0.37846 0.31407 0.0
C267 C 0.05431 0.36525 0.16727 0.0
C268 C 0.09964 0.41164 0.34144 0.0
C269 C 0.12344 0.43318 0.2232 0.0
H270 H 0.04906 0.36222 0.40931 0.0
H271 H 0.10777 0.41987 0.45674 0.0
S272 S 0.10406 0.4137 0.81751 0.0
N273 N 0.06753 0.37822 0.90128 0.0
N274 N 0.13158 0.44099 0.95323 0.0
C275 C 0.11123 0.42175 0.07547 0.0
C276 C 0.07666 0.38763 0.04741 0.0
C277 C 0.6205 0.63389 0.63252 0.0
C278 C 0.5949 0.65736 0.52609 0.0
C279 C 0.64952 0.59957 0.58958 0.0
C280 C 0.65466 0.58792 0.43833 0.0
H281 H 0.6179 0.64177 0.75059 0.0
H282 H 0.66863 0.58262 0.67537 0.0
S283 S 0.59455 0.63809 0.11565 0.0
N284 N 0.57585 0.66569 0.26293 0.0
N285 N 0.63082 0.60158 0.18156 0.0
C286 C 0.62909 0.61088 0.33054 0.0
C287 C 0.59908 0.64544 0.37457 0.0
loop_
_geom_bond_atom_site_label_1
_geom_bond_atom_site_label_2
_geom_bond_distance
_geom_bond_site_symmetry_2
_ccdc_geom_bond_type
C0 O1 1.306 . S
C0 O3 1.160 . S
O1 C0 1.306 . S
O1 Cd2 2.228 . S
Cd2 O1 2.228 . S
Cd2 O6 2.273 . S
Cd2 O10 2.277 . S
O3 C0 1.160 . S
O3 Cd4 2.203 . S
Cd4 O3 2.203 . S
Cd4 O6 2.411 . S
Cd4 O7 2.333 . S
Cd4 O8 2.352 . S
Cd4 O12 2.277 . S
Cd4 O13 2.356 . S
C5 O10 1.209 . S
C5 O12 1.226 . S
O6 Cd2 2.273 . S
O6 Cd4 2.411 . S
O6 C9 1.320 . S
O7 Cd4 2.333 . S
O7 C9 1.214 . S
O8 Cd4 2.352 . S
O8 C11 1.258 . S
C9 O6 1.320 . S
C9 O7 1.214 . S
O10 Cd2 2.277 . S
O10 C5 1.209 . S
C11 O8 1.258 . S
C11 O13 1.282 . S
O12 Cd4 2.277 . S
O12 C5 1.226 . S
O13 Cd4 2.356 . S
O13 C11 1.282 . S
C14 O15 1.306 . S
C14 O17 1.160 . S
O15 C14 1.306 . S
O15 Cd16 2.228 . S
Cd16 O15 2.228 . S
Cd16 O20 2.273 . S
Cd16 O24 2.277 . S
O17 C14 1.160 . S
O17 Cd18 2.203 . S
Cd18 O17 2.203 . S
Cd18 O20 2.411 . S
Cd18 O21 2.333 . S
Cd18 O22 2.352 . S
Cd18 O26 2.277 . S
Cd18 O27 2.356 . S
C19 O24 1.209 . S
C19 O26 1.226 . S
O20 Cd16 2.273 . S
O20 Cd18 2.411 . S
O20 C23 1.320 . S
O21 Cd18 2.333 . S
O21 C23 1.214 . S
O22 Cd18 2.352 . S
O22 C25 1.258 . S
C23 O20 1.320 . S
C23 O21 1.214 . S
O24 Cd16 2.277 . S
O24 C19 1.209 . S
C25 O22 1.258 . S
C25 O27 1.282 . S
O26 Cd18 2.277 . S
O26 C19 1.226 . S
O27 Cd18 2.356 . S
O27 C25 1.282 . S
C28 O29 1.306 . S
C28 O31 1.160 . S
O29 C28 1.306 . S
O29 Cd30 2.228 1_565 S
Cd30 O29 2.228 1_545 S
Cd30 O34 2.273 . S
Cd30 O38 2.277 . S
O31 C28 1.160 . S
O31 Cd32 2.203 . S
Cd32 O31 2.203 . S
Cd32 O34 2.411 1_565 S
Cd32 O35 2.333 1_565 S
Cd32 O36 2.352 . S
Cd32 O40 2.277 1_566 S
Cd32 O41 2.356 1_556 S
C33 O38 1.209 . S
C33 O40 1.226 1_556 S
O34 Cd30 2.273 . S
O34 Cd32 2.411 1_545 S
O34 C37 1.320 . S
O35 Cd32 2.333 1_545 S
O35 C37 1.214 . S
O36 Cd32 2.352 . S
O36 C39 1.258 1_556 S
C37 O34 1.320 . S
C37 O35 1.214 . S
O38 Cd30 2.277 . S
O38 C33 1.209 . S
C39 O36 1.258 1_554 S
C39 O41 1.282 . S
O40 Cd32 2.277 1_544 S
O40 C33 1.226 1_554 S
O41 Cd32 2.356 1_554 S
O41 C39 1.282 . S
C42 O43 1.306 . S
C42 O45 1.160 . S
O43 C42 1.306 . S
O43 Cd44 2.228 1_455 S
Cd44 O43 2.228 1_655 S
Cd44 O48 2.273 . S
Cd44 O52 2.277 . S
O45 C42 1.160 . S
O45 Cd46 2.203 . S
Cd46 O45 2.203 . S
Cd46 O48 2.411 1_455 S
Cd46 O49 2.333 1_455 S
Cd46 O50 2.352 . S
Cd46 O54 2.277 1_454 S
Cd46 O55 2.356 1_554 S
C47 O52 1.209 . S
C47 O54 1.226 1_554 S
O48 Cd44 2.273 . S
O48 Cd46 2.411 1_655 S
O48 C51 1.320 . S
O49 Cd46 2.333 1_655 S
O49 C51 1.214 . S
O50 Cd46 2.352 . S
O50 C53 1.258 1_554 S
C51 O48 1.320 . S
C51 O49 1.214 . S
O52 Cd44 2.277 . S
O52 C47 1.209 . S
C53 O50 1.258 1_556 S
C53 O55 1.282 . S
O54 Cd46 2.277 1_656 S
O54 C47 1.226 1_556 S
O55 Cd46 2.356 1_556 S
O55 C53 1.282 . S
C56 O57 1.306 . S
C56 O59 1.160 . S
O57 C56 1.306 . S
O57 Cd58 2.228 1_545 S
Cd58 O57 2.228 1_565 S
Cd58 O62 2.273 . S
Cd58 O66 2.277 . S
O59 C56 1.160 . S
O59 Cd60 2.203 . S
Cd60 O59 2.203 . S
Cd60 O62 2.411 1_545 S
Cd60 O63 2.333 1_545 S
Cd60 O64 2.352 . S
Cd60 O68 2.277 1_546 S
Cd60 O69 2.356 1_556 S
C61 O66 1.209 . S
C61 O68 1.226 1_556 S
O62 Cd58 2.273 . S
O62 Cd60 2.411 1_565 S
O62 C65 1.320 . S
O63 Cd60 2.333 1_565 S
O63 C65 1.214 . S
O64 Cd60 2.352 . S
O64 C67 1.258 1_556 S
C65 O62 1.320 . S
C65 O63 1.214 . S
O66 Cd58 2.277 . S
O66 C61 1.209 . S
C67 O64 1.258 1_554 S
C67 O69 1.282 . S
O68 Cd60 2.277 1_564 S
O68 C61 1.226 1_554 S
O69 Cd60 2.356 1_554 S
O69 C67 1.282 . S
C70 O71 1.306 . S
C70 O73 1.160 . S
O71 C70 1.306 . S
O71 Cd72 2.228 1_655 S
Cd72 O71 2.228 1_455 S
Cd72 O76 2.273 . S
Cd72 O80 2.277 . S
O73 C70 1.160 . S
O73 Cd74 2.203 . S
Cd74 O73 2.203 . S
Cd74 O76 2.411 1_655 S
Cd74 O77 2.333 1_655 S
Cd74 O78 2.352 . S
Cd74 O82 2.277 1_654 S
Cd74 O83 2.356 1_554 S
C75 O80 1.209 . S
C75 O82 1.226 1_554 S
O76 Cd72 2.273 . S
O76 Cd74 2.411 1_455 S
O76 C79 1.320 . S
O77 Cd74 2.333 1_455 S
O77 C79 1.214 . S
O78 Cd74 2.352 . S
O78 C81 1.258 1_554 S
C79 O76 1.320 . S
C79 O77 1.214 . S
O80 Cd72 2.277 . S
O80 C75 1.209 . S
C81 O78 1.258 1_556 S
C81 O83 1.282 . S
O82 Cd74 2.277 1_456 S
O82 C75 1.226 1_556 S
O83 Cd74 2.356 1_556 S
O83 C81 1.282 . S
C84 O85 1.306 . S
C84 O87 1.160 . S
O85 C84 1.306 . S
O85 Cd86 2.228 . S
Cd86 O85 2.228 . S
Cd86 O90 2.273 . S
Cd86 O94 2.277 . S
O87 C84 1.160 . S
O87 Cd88 2.203 . S
Cd88 O87 2.203 . S
Cd88 O90 2.411 . S
Cd88 O91 2.333 . S
Cd88 O92 2.352 . S
Cd88 O96 2.277 . S
Cd88 O97 2.356 . S
C89 O94 1.209 . S
C89 O96 1.226 . S
O90 Cd86 2.273 . S
O90 Cd88 2.411 . S
O90 C93 1.320 . S
O91 Cd88 2.333 . S
O91 C93 1.214 . S
O92 Cd88 2.352 . S
O92 C95 1.258 . S
C93 O90 1.320 . S
C93 O91 1.214 . S
O94 Cd86 2.277 . S
O94 C89 1.209 . S
C95 O92 1.258 . S
C95 O97 1.282 . S
O96 Cd88 2.277 . S
O96 C89 1.226 . S
O97 Cd88 2.356 . S
O97 C95 1.282 . S
C98 O99 1.306 . S
C98 O101 1.160 . S
O99 C98 1.306 . S
O99 Cd100 2.228 . S
Cd100 O99 2.228 . S
Cd100 O104 2.273 . S
Cd100 O108 2.277 . S
O101 C98 1.160 . S
O101 Cd102 2.203 . S
Cd102 O101 2.203 . S
Cd102 O104 2.411 . S
Cd102 O105 2.333 . S
Cd102 O106 2.352 . S
Cd102 O110 2.277 . S
Cd102 O111 2.356 . S
C103 O108 1.209 . S
C103 O110 1.226 . S
O104 Cd100 2.273 . S
O104 Cd102 2.411 . S
O104 C107 1.320 . S
O105 Cd102 2.333 . S
O105 C107 1.214 . S
O106 Cd102 2.352 . S
O106 C109 1.258 . S
C107 O104 1.320 . S
C107 O105 1.214 . S
O108 Cd100 2.277 . S
O108 C103 1.209 . S
C109 O106 1.258 . S
C109 O111 1.282 . S
O110 Cd102 2.277 . S
O110 C103 1.226 . S
O111 Cd102 2.356 . S
O111 C109 1.282 . S
C112 C113 1.369 . S
C112 C114 1.419 1_556 S
C112 H116 0.930 . S
C113 C112 1.369 . S
C113 C122 1.429 . S
C114 C112 1.419 1_554 S
C114 C115 1.363 . S
C114 H117 0.929 . S
C115 C114 1.363 . S
C115 C121 1.428 . S
H116 C112 0.930 . S
H117 C114 0.929 . S
S118 N119 1.613 . S
S118 N120 1.610 . S
N119 S118 1.613 . S
N119 C122 1.350 1_554 S
N120 S118 1.610 . S
N120 C121 1.351 . S
C121 C115 1.428 . S
C121 N120 1.351 . S
C121 C122 1.434 1_554 S
C122 C113 1.429 . S
C122 N119 1.350 1_556 S
C122 C121 1.434 1_556 S
C123 C124 1.369 . S
C123 C125 1.419 . S
C123 H127 0.930 . S
C124 C123 1.369 . S
C124 C133 1.429 . S
C125 C123 1.419 . S
C125 C126 1.363 . S
C125 H128 0.929 . S
C126 C125 1.363 . S
C126 C132 1.428 . S
H127 C123 0.930 . S
H128 C125 0.929 . S
S129 N130 1.613 . S
S129 N131 1.610 . S
N130 S129 1.613 . S
N130 C133 1.350 . S
N131 S129 1.610 . S
N131 C132 1.351 . S
C132 C126 1.428 . S
C132 N131 1.351 . S
C132 C133 1.434 . S
C133 C124 1.429 . S
C133 N130 1.350 . S
C133 C132 1.434 . S
C134 C135 1.369 . S
C134 C136 1.419 . S
C134 H138 0.930 . S
C135 C134 1.369 . S
C135 C144 1.429 . S
C136 C134 1.419 . S
C136 C137 1.363 . S
C136 H139 0.929 . S
C137 C136 1.363 . S
C137 C143 1.428 . S
H138 C134 0.930 . S
H139 C136 0.929 . S
S140 N141 1.613 . S
S140 N142 1.610 . S
N141 S140 1.613 . S
N141 C144 1.350 . S
N142 S140 1.610 . S
N142 C143 1.351 . S
C143 C137 1.428 . S
C143 N142 1.351 . S
C143 C144 1.434 . S
C144 C135 1.429 . S
C144 N141 1.350 . S
C144 C143 1.434 . S
C145 C146 1.369 . S
C145 C147 1.419 . S
C145 H149 0.930 . S
C146 C145 1.369 . S
C146 C155 1.429 . S
C147 C145 1.419 . S
C147 C148 1.363 . S
C147 H150 0.929 . S
C148 C147 1.363 . S
C148 C154 1.428 . S
H149 C145 0.930 . S
H150 C147 0.929 . S
S151 N152 1.613 . S
S151 N153 1.610 . S
N152 S151 1.613 . S
N152 C155 1.350 . S
N153 S151 1.610 . S
N153 C154 1.351 . S
C154 C148 1.428 . S
C154 N153 1.351 . S
C154 C155 1.434 . S
C155 C146 1.429 . S
C155 N152 1.350 . S
C155 C154 1.434 . S
C156 C157 1.369 . S
C156 C158 1.419 . S
C156 H160 0.930 . S
C157 C156 1.369 . S
C157 C166 1.429 . S
C158 C156 1.419 . S
C158 C159 1.363 . S
C158 H161 0.929 . S
C159 C158 1.363 . S
C159 C165 1.428 . S
H160 C156 0.930 . S
H161 C158 0.929 . S
S162 N163 1.613 . S
S162 N164 1.610 . S
N163 S162 1.613 . S
N163 C166 1.350 . S
N164 S162 1.610 . S
N164 C165 1.351 . S
C165 C159 1.428 . S
C165 N164 1.351 . S
C165 C166 1.434 . S
C166 C157 1.429 . S
C166 N163 1.350 . S
C166 C165 1.434 . S
C167 C168 1.369 . S
C167 C169 1.419 . S
C167 H171 0.930 . S
C168 C167 1.369 . S
C168 C177 1.429 . S
C169 C167 1.419 . S
C169 C170 1.363 . S
C169 H172 0.929 . S
C170 C169 1.363 . S
C170 C176 1.428 . S
H171 C167 0.930 . S
H172 C169 0.929 . S
S173 N174 1.613 . S
S173 N175 1.610 . S
N174 S173 1.613 . S
N174 C177 1.350 . S
N175 S173 1.610 . S
N175 C176 1.351 . S
C176 C170 1.428 . S
C176 N175 1.351 . S
C176 C177 1.434 . S
C177 C168 1.429 . S
C177 N174 1.350 . S
C177 C176 1.434 . S
C178 C179 1.369 1_556 S
C178 C180 1.419 . S
C178 H182 0.930 . S
C179 C178 1.369 1_554 S
C179 C188 1.429 . S
C180 C178 1.419 . S
C180 C181 1.363 . S
C180 H183 0.929 . S
C181 C180 1.363 . S
C181 C187 1.428 1_556 S
H182 C178 0.930 . S
H183 C180 0.929 . S
S184 N185 1.613 . S
S184 N186 1.610 . S
N185 S184 1.613 . S
N185 C188 1.350 . S
N186 S184 1.610 . S
N186 C187 1.351 . S
C187 C181 1.428 1_554 S
C187 N186 1.351 . S
C187 C188 1.434 . S
C188 C179 1.429 . S
C188 N185 1.350 . S
C188 C187 1.434 . S
C189 C190 1.369 . S
C189 C191 1.419 . S
C189 H193 0.930 . S
C190 C189 1.369 . S
C190 C199 1.429 . S
C191 C189 1.419 . S
C191 C192 1.363 . S
C191 H194 0.929 . S
C192 C191 1.363 . S
C192 C198 1.428 . S
H193 C189 0.930 . S
H194 C191 0.929 . S
S195 N196 1.613 . S
S195 N197 1.610 . S
N196 S195 1.613 . S
N196 C199 1.350 . S
N197 S195 1.610 . S
N197 C198 1.351 . S
C198 C192 1.428 . S
C198 N197 1.351 . S
C198 C199 1.434 . S
C199 C190 1.429 . S
C199 N196 1.350 . S
C199 C198 1.434 . S
C200 C201 1.369 . S
C200 C202 1.419 . S
C200 H204 0.930 . S
C201 C200 1.369 . S
C201 C210 1.429 . S
C202 C200 1.419 . S
C202 C203 1.363 . S
C202 H205 0.929 . S
C203 C202 1.363 . S
C203 C209 1.428 . S
H204 C200 0.930 . S
H205 C202 0.929 . S
S206 N207 1.613 . S
S206 N208 1.610 . S
N207 S206 1.613 . S
N207 C210 1.350 . S
N208 S206 1.610 . S
N208 C209 1.351 . S
C209 C203 1.428 . S
C209 N208 1.351 . S
C209 C210 1.434 . S
C210 C201 1.429 . S
C210 N207 1.350 . S
C210 C209 1.434 . S
C211 C212 1.369 . S
C211 C213 1.419 . S
C211 H215 0.930 . S
C212 C211 1.369 . S
C212 C221 1.429 . S
C213 C211 1.419 . S
C213 C214 1.363 . S
C213 H216 0.929 . S
C214 C213 1.363 . S
C214 C220 1.428 . S
H215 C211 0.930 . S
H216 C213 0.929 . S
S217 N218 1.613 . S
S217 N219 1.610 . S
N218 S217 1.613 . S
N218 C221 1.350 . S
N219 S217 1.610 . S
N219 C220 1.351 . S
C220 C214 1.428 . S
C220 N219 1.351 . S
C220 C221 1.434 . S
C221 C212 1.429 . S
C221 N218 1.350 . S
C221 C220 1.434 . S
C222 C223 1.369 . S
C222 C224 1.419 . S
C222 H226 0.930 . S
C223 C222 1.369 . S
C223 C232 1.429 1_554 S
C224 C222 1.419 . S
C224 C225 1.363 1_554 S
C224 H227 0.929 . S
C225 C224 1.363 1_556 S
C225 C231 1.428 . S
H226 C222 0.930 . S
H227 C224 0.929 . S
S228 N229 1.613 . S
S228 N230 1.610 . S
N229 S228 1.613 . S
N229 C232 1.350 . S
N230 S228 1.610 . S
N230 C231 1.351 . S
C231 C225 1.428 . S
C231 N230 1.351 . S
C231 C232 1.434 . S
C232 C223 1.429 1_556 S
C232 N229 1.350 . S
C232 C231 1.434 . S
C233 C234 1.369 . S
C233 C235 1.419 . S
C233 H237 0.930 . S
C234 C233 1.369 . S
C234 C243 1.429 . S
C235 C233 1.419 . S
C235 C236 1.363 . S
C235 H238 0.929 . S
C236 C235 1.363 . S
C236 C242 1.428 . S
H237 C233 0.930 . S
H238 C235 0.929 . S
S239 N240 1.613 . S
S239 N241 1.610 . S
N240 S239 1.613 . S
N240 C243 1.350 . S
N241 S239 1.610 . S
N241 C242 1.351 . S
C242 C236 1.428 . S
C242 N241 1.351 . S
C242 C243 1.434 . S
C243 C234 1.429 . S
C243 N240 1.350 . S
C243 C242 1.434 . S
C244 C245 1.369 . S
C244 C246 1.419 . S
C244 H248 0.930 . S
C245 C244 1.369 . S
C245 C254 1.429 . S
C246 C244 1.419 . S
C246 C247 1.363 . S
C246 H249 0.929 . S
C247 C246 1.363 . S
C247 C253 1.428 . S
H248 C244 0.930 . S
H249 C246 0.929 . S
S250 N251 1.613 . S
S250 N252 1.610 . S
N251 S250 1.613 . S
N251 C254 1.350 . S
N252 S250 1.610 . S
N252 C253 1.351 . S
C253 C247 1.428 . S
C253 N252 1.351 . S
C253 C254 1.434 . S
C254 C245 1.429 . S
C254 N251 1.350 . S
C254 C253 1.434 . S
C255 C256 1.369 . S
C255 C257 1.419 . S
C255 H259 0.930 . S
C256 C255 1.369 . S
C256 C265 1.429 1_556 S
C257 C255 1.419 . S
C257 C258 1.363 1_556 S
C257 H260 0.929 . S
C258 C257 1.363 1_554 S
C258 C264 1.428 . S
H259 C255 0.930 . S
H260 C257 0.929 . S
S261 N262 1.613 . S
S261 N263 1.610 . S
N262 S261 1.613 . S
N262 C265 1.350 . S
N263 S261 1.610 . S
N263 C264 1.351 . S
C264 C258 1.428 . S
C264 N263 1.351 . S
C264 C265 1.434 . S
C265 C256 1.429 1_554 S
C265 N262 1.350 . S
C265 C264 1.434 . S
C266 C267 1.369 . S
C266 C268 1.419 . S
C266 H270 0.930 . S
C267 C266 1.369 . S
C267 C276 1.429 . S
C268 C266 1.419 . S
C268 C269 1.363 . S
C268 H271 0.929 . S
C269 C268 1.363 . S
C269 C275 1.428 . S
H270 C266 0.930 . S
H271 C268 0.929 . S
S272 N273 1.613 . S
S272 N274 1.610 . S
N273 S272 1.613 . S
N273 C276 1.350 . S
N274 S272 1.610 . S
N274 C275 1.351 . S
C275 C269 1.428 . S
C275 N274 1.351 . S
C275 C276 1.434 . S
C276 C267 1.429 . S
C276 N273 1.350 . S
C276 C275 1.434 . S
C277 C278 1.369 . S
C277 C279 1.419 . S
C277 H281 0.930 . S
C278 C277 1.369 . S
C278 C287 1.429 . S
C279 C277 1.419 . S
C279 C280 1.363 . S
C279 H282 0.929 . S
C280 C279 1.363 . S
C280 C286 1.428 . S
H281 C277 0.930 . S
H282 C279 0.929 . S
S283 N284 1.613 . S
S283 N285 1.610 . S
N284 S283 1.613 . S
N284 C287 1.350 . S
N285 S283 1.610 . S
N285 C286 1.351 . S
C286 C280 1.428 . S
C286 N285 1.351 . S
C286 C287 1.434 . S
C287 C278 1.429 . S
C287 N284 1.350 . S
C287 C286 1.434 . S
C113 C14 1.454 . S
C115 C0 1.455 . S
C124 C25 1.453 . S
C126 C39 1.453 . S
C135 C42 1.452 . S
C137 C28 1.452 . S
C146 C53 1.455 . S
C148 C11 1.454 . S
C157 C56 1.454 . S
C159 C70 1.455 . S
C168 C81 1.453 . S
C170 C95 1.453 . S
C179 C84 1.455 . S
C181 C98 1.452 . S
C190 C67 1.455 . S
C192 C109 1.454 . S
C201 C5 1.467 . S
C203 C103 1.466 . S
C212 C65 1.473 . S
C214 C23 1.469 . S
C223 C75 1.467 . S
C225 C33 1.465 . S
C234 C51 1.471 . S
C236 C93 1.470 . S
C245 C37 1.472 . S
C247 C107 1.470 . S
C256 C61 1.467 . S
C258 C47 1.465 . S
C267 C79 1.471 . S
C269 C9 1.471 . S
C278 C19 1.468 . S
C280 C89 1.465 . S
