# Generated by pormake.
# Topology uki, (4)-cn, num edge types: 1
# Building blocks:
#     Node 0, Type 0, BuildingBlock: QUQFOY_clean_sbu_1, # of connection points: 4
#     Node 1, Type 0, BuildingBlock: QUQFOY_clean_sbu_1, # of connection points: 4
#     Node 2, Type 0, BuildingBlock: QUQFOY_clean_sbu_1, # of connection points: 4
#     Node 3, Type 0, BuildingBlock: QUQFOY_clean_sbu_1, # of connection points: 4
#     Node 4, Type 0, BuildingBlock: QUQFOY_clean_sbu_1, # of connection points: 4
#     Node 5, Type 0, BuildingBlock: QUQFOY_clean_sbu_1, # of connection points: 4
#     Node 6, Type 0, BuildingBlock: QUQFOY_clean_sbu_1, # of connection points: 4
#     Node 7, Type 0, BuildingBlock: QUQFOY_clean_sbu_1, # of connection points: 4
#     Node 8, Type 0, BuildingBlock: QUQFOY_clean_sbu_1, # of connection points: 4
#     Node 9, Type 0, BuildingBlock: QUQFOY_clean_sbu_1, # of connection points: 4
#     Node 10, Type 0, BuildingBlock: QUQFOY_clean_sbu_1, # of connection points: 4
#     Node 11, Type 0, BuildingBlock: QUQFOY_clean_sbu_1, # of connection points: 4
#     Node 12, Type 0, BuildingBlock: QUQFOY_clean_sbu_1, # of connection points: 4
#     Node 13, Type 0, BuildingBlock: QUQFOY_clean_sbu_1, # of connection points: 4
#     Node 14, Type 0, BuildingBlock: QUQFOY_clean_sbu_1, # of connection points: 4
#     Node 15, Type 0, BuildingBlock: QUQFOY_clean_sbu_1, # of connection points: 4
#     Edge 16, Type (0, 0), BuildingBlock: AJUNOK_clean_linker_0, # of connection points: 2
#     Edge 17, Type (0, 0), BuildingBlock: AJUNOK_clean_linker_0, # of connection points: 2
#     Edge 18, Type (0, 0), BuildingBlock: AJUNOK_clean_linker_0, # of connection points: 2
#     Edge 19, Type (0, 0), BuildingBlock: AJUNOK_clean_linker_0, # of connection points: 2
#     Edge 20, Type (0, 0), BuildingBlock: AJUNOK_clean_linker_0, # of connection points: 2
#     Edge 21, Type (0, 0), BuildingBlock: AJUNOK_clean_linker_0, # of connection points: 2
#     Edge 22, Type (0, 0), BuildingBlock: AJUNOK_clean_linker_0, # of connection points: 2
#     Edge 23, Type (0, 0), BuildingBlock: AJUNOK_clean_linker_0, # of connection points: 2
#     Edge 24, Type (0, 0), BuildingBlock: AJUNOK_clean_linker_0, # of connection points: 2
#     Edge 25, Type (0, 0), BuildingBlock: AJUNOK_clean_linker_0, # of connection points: 2
#     Edge 26, Type (0, 0), BuildingBlock: AJUNOK_clean_linker_0, # of connection points: 2
#     Edge 27, Type (0, 0), BuildingBlock: AJUNOK_clean_linker_0, # of connection points: 2
#     Edge 28, Type (0, 0), BuildingBlock: AJUNOK_clean_linker_0, # of connection points: 2
#     Edge 29, Type (0, 0), BuildingBlock: AJUNOK_clean_linker_0, # of connection points: 2
#     Edge 30, Type (0, 0), BuildingBlock: AJUNOK_clean_linker_0, # of connection points: 2
#     Edge 31, Type (0, 0), BuildingBlock: AJUNOK_clean_linker_0, # of connection points: 2
#     Edge 32, Type (0, 0), BuildingBlock: AJUNOK_clean_linker_0, # of connection points: 2
#     Edge 33, Type (0, 0), BuildingBlock: AJUNOK_clean_linker_0, # of connection points: 2
#     Edge 34, Type (0, 0), BuildingBlock: AJUNOK_clean_linker_0, # of connection points: 2
#     Edge 35, Type (0, 0), BuildingBlock: AJUNOK_clean_linker_0, # of connection points: 2
#     Edge 36, Type (0, 0), BuildingBlock: AJUNOK_clean_linker_0, # of connection points: 2
#     Edge 37, Type (0, 0), BuildingBlock: AJUNOK_clean_linker_0, # of connection points: 2
#     Edge 38, Type (0, 0), BuildingBlock: AJUNOK_clean_linker_0, # of connection points: 2
#     Edge 39, Type (0, 0), BuildingBlock: AJUNOK_clean_linker_0, # of connection points: 2
#     Edge 40, Type (0, 0), BuildingBlock: AJUNOK_clean_linker_0, # of connection points: 2
#     Edge 41, Type (0, 0), BuildingBlock: AJUNOK_clean_linker_0, # of connection points: 2
#     Edge 42, Type (0, 0), BuildingBlock: AJUNOK_clean_linker_0, # of connection points: 2
#     Edge 43, Type (0, 0), BuildingBlock: AJUNOK_clean_linker_0, # of connection points: 2
#     Edge 44, Type (0, 0), BuildingBlock: AJUNOK_clean_linker_0, # of connection points: 2
#     Edge 45, Type (0, 0), BuildingBlock: AJUNOK_clean_linker_0, # of connection points: 2
#     Edge 46, Type (0, 0), BuildingBlock: AJUNOK_clean_linker_0, # of connection points: 2
#     Edge 47, Type (0, 0), BuildingBlock: AJUNOK_clean_linker_0, # of connection points: 2
# Relax obj value: 0.034
# Max RMSD: 0.124
# Mean RMSD: 0.124
data_MOF--net-uki--node1-QUQFOY_clean_sbu_1--edge1-AJUNOK_clean_linker_0
_symmetry_space_group_name_H-M    P1
_symmetry_Int_Tables_number       1
_symmetry_cell_setting            triclinic
loop_
_symmetry_equiv_pos_as_xyz
'x, y, z'
_cell_length_a     24.374009
_cell_length_b     24.3568
_cell_length_c     53.198231
_cell_angle_alpha  90.034216
_cell_angle_beta   90.001164
_cell_angle_gamma 89.952892
loop_
_atom_site_label
_atom_site_type_symbol
_atom_site_fract_x
_atom_site_fract_y
_atom_site_fract_z
_atom_type_partial_charge
O0 O 0.13635 0.31721 0.3024 0.0
Cd1 Cd 0.10582 0.28321 0.33503 0.0
Cd2 Cd 0.07227 0.2081 0.29881 0.0
O3 O 0.12318 0.2506 0.27474 0.0
O4 O 0.14785 0.32171 0.36219 0.0
O5 O 0.15455 0.2326 0.35557 0.0
C6 C 0.17075 0.27555 0.36776 0.0
C7 C 0.05551 0.11441 0.29546 0.0
C8 C 0.14151 0.29781 0.28034 0.0
C9 C 0.98678 0.27889 0.32517 0.0
O10 O 1.00084 0.24684 0.30753 0.0
O11 O 0.0223 0.29701 0.34064 0.0
O12 O 0.04298 0.14776 0.27763 0.0
O13 O 0.08213 0.13361 0.31453 0.0
O14 O 0.31933 0.87927 0.7582 0.0
Cd15 Cd 0.28679 0.90959 0.72518 0.0
Cd16 Cd 0.20951 0.94259 0.7601 0.0
O17 O 0.25066 0.89189 0.78481 0.0
O18 O 0.3252 0.8671 0.69808 0.0
O19 O 0.23593 0.86182 0.70434 0.0
C20 C 0.27878 0.84516 0.6922 0.0
C21 C 0.11573 0.95922 0.76174 0.0
C22 C 0.29846 0.87406 0.77996 0.0
C23 C 0.28119 0.02861 0.73493 0.0
O24 O 0.24817 0.01439 0.75212 0.0
O25 O 0.30087 0.99312 0.71982 0.0
O26 O 0.14737 0.97151 0.78025 0.0
O27 O 0.13654 0.93236 0.74309 0.0
O28 O 0.88154 0.6922 0.30424 0.0
Cd29 Cd 0.91242 0.72693 0.3367 0.0
Cd30 Cd 0.94142 0.80364 0.30054 0.0
O31 O 0.88855 0.76113 0.27734 0.0
O32 O 0.87141 0.68945 0.36446 0.0
O33 O 0.86393 0.7782 0.35696 0.0
C34 C 0.84838 0.73578 0.3697 0.0
C35 C 0.95811 0.89724 0.29655 0.0
C36 C 0.87315 0.71271 0.28261 0.0
C37 C 0.03033 0.73486 0.32576 0.0
O38 O 0.01395 0.76577 0.30814 0.0
O39 O 0.99647 0.71576 0.34174 0.0
O40 O 0.96911 0.86349 0.27865 0.0
O41 O 0.93284 0.87853 0.31608 0.0
O42 O 0.69557 0.13535 0.75924 0.0
Cd43 Cd 0.72715 0.10192 0.72666 0.0
Cd44 Cd 0.80363 0.07062 0.76232 0.0
O45 O 0.76351 0.12364 0.7863 0.0
O46 O 0.68503 0.14096 0.69973 0.0
O47 O 0.77436 0.15015 0.70419 0.0
C48 C 0.7298 0.16466 0.69281 0.0
C49 C 0.89745 0.05438 0.76278 0.0
C50 C 0.71624 0.14212 0.78095 0.0
C51 C 0.73143 0.98342 0.73856 0.0
O52 O 0.76412 0.99865 0.75572 0.0
O53 O 0.71311 0.01784 0.72261 0.0
O54 O 0.86723 0.04342 0.78196 0.0
O55 O 0.87518 0.07977 0.74405 0.0
O56 O 0.13862 0.19526 1.00952 0.0
Cd57 Cd 0.1048 0.224 0.97651 0.0
Cd58 Cd 0.06845 0.30121 1.01162 0.0
O59 O 0.12023 0.26204 0.03647 0.0
O60 O 0.14544 0.18113 0.95029 0.0
O61 O 0.15162 0.27104 0.95331 0.0
C62 C 0.1676 0.22611 0.94264 0.0
C63 C 0.05089 0.39493 1.01258 0.0
C64 C 0.1421 0.21606 0.03138 0.0
C65 C 0.98526 0.22523 0.98726 0.0
O66 O 0.99786 0.26026 1.0039 0.0
O67 O 0.02154 0.20627 0.97236 0.0
O68 O 0.0387 0.36375 0.03127 0.0
O69 O 0.07772 0.37367 0.99403 0.0
O70 O 0.19183 0.88182 0.05492 0.0
Cd71 Cd 0.22667 0.91237 0.08736 0.0
Cd72 Cd 0.30277 0.94241 0.05154 0.0
O73 O 0.26023 0.89051 1.02787 0.0
O74 O 0.18903 0.87125 0.11504 0.0
O75 O 0.27779 0.86393 0.10772 0.0
C76 C 0.2353 0.84832 0.12038 0.0
C77 C 0.39676 0.95757 0.0483 0.0
C78 C 0.21204 0.87452 0.03315 0.0
C79 C 0.23266 0.03055 0.07646 0.0
O80 O 0.26466 0.01499 0.05907 0.0
O81 O 0.21414 0.99622 0.09237 0.0
O82 O 0.36385 0.96955 1.03022 0.0
O83 O 0.37688 0.93252 0.06766 0.0
O84 O 0.87484 0.81573 1.01062 0.0
Cd85 Cd 0.90715 0.78466 0.97774 0.0
Cd86 Cd 0.94208 0.70837 1.01246 0.0
O87 O 0.89065 0.74799 0.03735 0.0
O88 O 0.86476 0.82341 0.95076 0.0
O89 O 0.86065 0.73382 0.95629 0.0
C90 C 0.84349 0.77691 0.94448 0.0
C91 C 0.95859 0.61449 1.01308 0.0
C92 C 0.87056 0.79484 0.03241 0.0
C93 C 0.02632 0.78291 0.98808 0.0
O94 O 0.01323 0.74865 1.00495 0.0
O95 O 0.99033 0.80151 0.97294 0.0
O96 O 0.97097 0.64523 0.03192 0.0
O97 O 0.93207 0.63633 0.99458 0.0
O98 O 0.82033 0.12895 0.05464 0.0
Cd99 Cd 0.78729 0.09954 0.08768 0.0
Cd100 Cd 0.70984 0.06656 0.05199 0.0
O101 O 0.75207 0.11736 1.02772 0.0
O102 O 0.82939 0.14001 0.11418 0.0
O103 O 0.74021 0.14984 0.10931 0.0
C104 C 0.7847 0.16447 0.1207 0.0
C105 C 0.61606 0.05 0.04842 0.0
C106 C 0.79996 0.13454 0.03281 0.0
C107 C 0.78141 0.9806 0.07773 0.0
O108 O 0.7486 0.99488 0.06044 0.0
O109 O 0.80037 0.01594 0.09308 0.0
O110 O 0.64962 0.03727 1.0307 0.0
O111 O 0.63513 0.07647 0.06756 0.0
O112 O 0.63637 0.8157 0.80446 0.0
Cd113 Cd 0.60221 0.78472 0.83694 0.0
Cd114 Cd 0.56661 0.70922 0.80077 0.0
O115 O 0.61831 0.75055 0.77664 0.0
O116 O 0.64377 0.8234 0.86422 0.0
O117 O 0.64792 0.7338 0.85874 0.0
C118 C 0.66485 0.77688 0.87062 0.0
C119 C 0.5488 0.61569 0.79729 0.0
C120 C 0.64003 0.79623 0.78236 0.0
C121 C 0.48286 0.78358 0.82614 0.0
O122 O 0.4959 0.74935 0.80923 0.0
O123 O 0.51889 0.80226 0.84124 0.0
O124 O 0.53649 0.64936 0.77955 0.0
O125 O 0.57545 0.63448 0.81643 0.0
O126 O 0.81855 0.37527 0.26078 0.0
Cd127 Cd 0.78652 0.40741 0.22805 0.0
Cd128 Cd 0.70954 0.44043 0.26433 0.0
O129 O 0.75175 0.389 0.28828 0.0
O130 O 0.82889 0.36789 0.20131 0.0
O131 O 0.73959 0.35844 0.20575 0.0
C132 C 0.78424 0.34391 0.19444 0.0
C133 C 0.6159 0.45696 0.26781 0.0
C134 C 0.79869 0.36993 0.28273 0.0
C135 C 0.78057 0.52661 0.23869 0.0
O136 O 0.74794 0.51216 0.25599 0.0
O137 O 0.80006 0.49134 0.22341 0.0
O138 O 0.64928 0.46929 0.28566 0.0
O139 O 0.63509 0.43076 0.24861 0.0
O140 O 0.38028 0.19112 0.80213 0.0
Cd141 Cd 0.41005 0.22423 0.83513 0.0
Cd142 Cd 0.43975 0.30279 0.79997 0.0
O143 O 0.38739 0.26153 0.77607 0.0
O144 O 0.37057 0.18198 0.86187 0.0
O145 O 0.35964 0.27106 0.85678 0.0
C146 C 0.34572 0.22653 0.86834 0.0
C147 C 0.45527 0.39681 0.79699 0.0
C148 C 0.37226 0.21273 0.7807 0.0
C149 C 0.52816 0.23216 0.8244 0.0
O150 O 0.51236 0.26442 0.80716 0.0
O151 O 0.49396 0.21299 0.84021 0.0
O152 O 0.46703 0.36404 0.77882 0.0
O153 O 0.43031 0.37679 0.81634 0.0
O154 O 0.19814 0.64038 0.26033 0.0
Cd155 Cd 0.22916 0.60649 0.22772 0.0
Cd156 Cd 0.30458 0.5704 0.2641 0.0
O157 O 0.26316 0.62223 0.28818 0.0
O158 O 0.19014 0.64819 0.20058 0.0
O159 O 0.27967 0.65267 0.20595 0.0
C160 C 0.23647 0.66949 0.19415 0.0
C161 C 0.39798 0.55257 0.26767 0.0
C162 C 0.21755 0.64404 0.28244 0.0
C163 C 0.23127 0.48677 0.23797 0.0
O164 O 0.26484 0.49973 0.25516 0.0
O165 O 0.21263 0.52303 0.22297 0.0
O166 O 0.36425 0.54007 0.28535 0.0
O167 O 0.37931 0.57945 0.24857 0.0
O168 O 0.62828 0.69319 0.50745 0.0
Cd169 Cd 0.60173 0.7302 0.47479 0.0
Cd170 Cd 0.5721 0.80585 0.51076 0.0
O171 O 0.62297 0.76202 0.53448 0.0
O172 O 0.64343 0.69182 0.44744 0.0
O173 O 0.6526 0.7803 0.45517 0.0
C174 C 0.66767 0.7376 0.44247 0.0
C175 C 0.55648 0.89981 0.51462 0.0
C176 C 0.63603 0.71281 0.5293 0.0
C177 C 0.48395 0.73754 0.4849 0.0
O178 O 0.49952 0.76826 0.50276 0.0
O179 O 0.51824 0.71977 0.46878 0.0
O180 O 0.54435 0.86626 0.53242 0.0
O181 O 0.58215 0.88062 0.49528 0.0
O182 O 0.70106 0.37242 0.55188 0.0
Cd183 Cd 0.72819 0.40679 0.58503 0.0
Cd184 Cd 0.80337 0.44916 0.54899 0.0
O185 O 0.76318 0.39844 0.52396 0.0
O186 O 0.68494 0.36473 0.61064 0.0
O187 O 0.77497 0.36044 0.60866 0.0
C188 C 0.72989 0.34333 0.61875 0.0
C189 C 0.89627 0.46989 0.54554 0.0
C190 C 0.7197 0.37254 0.52957 0.0
C191 C 0.72528 0.52754 0.57549 0.0
O192 O 0.76116 0.5177 0.55887 0.0
O193 O 0.70693 0.48932 0.5895 0.0
O194 O 0.86192 0.48297 0.5282 0.0
O195 O 0.87858 0.44103 0.56422 0.0
O196 O 0.37761 0.31946 0.50617 0.0
Cd197 Cd 0.41313 0.28608 0.47444 0.0
Cd198 Cd 0.44457 0.21196 0.5117 0.0
O199 O 0.39058 0.25419 0.5345 0.0
O200 O 0.37324 0.32349 0.44632 0.0
O201 O 0.36715 0.23444 0.45318 0.0
C202 C 0.35128 0.27697 0.4406 0.0
C203 C 0.46118 0.11823 0.51498 0.0
C204 C 0.37083 0.30041 0.52819 0.0
C205 C 0.53161 0.28273 0.48661 0.0
O206 O 0.51635 0.25093 0.50411 0.0
O207 O 0.49719 0.30056 0.47054 0.0
O208 O 0.47214 0.15128 0.53317 0.0
O209 O 0.43615 0.13777 0.49553 0.0
O210 O 0.3205 0.6362 0.55197 0.0
Cd211 Cd 0.28561 0.6046 0.58422 0.0
Cd212 Cd 0.20804 0.58017 0.54875 0.0
O213 O 0.24979 0.63417 0.52593 0.0
O214 O 0.32368 0.64365 0.61243 0.0
O215 O 0.23514 0.65299 0.60492 0.0
C216 C 0.27775 0.66725 0.61784 0.0
C217 C 0.11394 0.56586 0.54588 0.0
C218 C 0.29906 0.64722 0.53078 0.0
C219 C 0.27613 0.48786 0.57139 0.0
O220 O 0.24538 0.5063 0.55414 0.0
O221 O 0.29527 0.52001 0.58811 0.0
O222 O 0.14612 0.55588 0.52728 0.0
O223 O 0.1346 0.58866 0.56565 0.0
C224 C 0.22087 0.34113 0.25934 0.0
C225 C 0.16397 0.33417 0.26095 0.0
C226 C 0.24306 0.38833 0.2483 0.0
C227 C 0.20896 0.43044 0.23893 0.0
H228 H 0.24818 0.31244 0.26862 0.0
H229 H 0.28704 0.39439 0.24938 0.0
S230 S 0.05715 0.42739 0.23583 0.0
N231 N 0.074 0.36918 0.24978 0.0
N232 N 0.11563 0.45849 0.22922 0.0
C233 C 0.15217 0.42101 0.23804 0.0
C234 C 0.12963 0.37274 0.24922 0.0
C235 C 0.3845 0.77348 0.81545 0.0
C236 C 0.42724 0.80732 0.82437 0.0
C237 C 0.33861 0.79581 0.80331 0.0
C238 C 0.33379 0.85265 0.80003 0.0
H239 H 0.38921 0.72922 0.81559 0.0
H240 H 0.3094 0.76833 0.79451 0.0
S241 S 0.42952 0.95937 0.82313 0.0
N242 N 0.45813 0.90078 0.83173 0.0
N243 N 0.37147 0.94271 0.80902 0.0
C244 C 0.373 0.88714 0.81119 0.0
C245 C 0.41979 0.86445 0.82354 0.0
C246 C 0.85923 0.59137 0.2399 0.0
C247 C 0.80219 0.58308 0.24016 0.0
C248 C 0.88231 0.63764 0.25156 0.0
C249 C 0.84893 0.67716 0.26333 0.0
H250 H 0.8864 0.55922 0.23328 0.0
H251 H 0.92654 0.64003 0.25332 0.0
S252 S 0.69733 0.67968 0.26475 0.0
N253 N 0.71277 0.62231 0.24973 0.0
N254 N 0.75653 0.70915 0.27155 0.0
C255 C 0.79197 0.67248 0.26118 0.0
C256 C 0.76845 0.62548 0.24945 0.0
C257 C 0.62467 0.24554 0.81109 0.0
C258 C 0.58513 0.21163 0.82264 0.0
C259 C 0.67166 0.22325 0.7999 0.0
C260 C 0.68114 0.16656 0.80035 0.0
H261 H 0.61663 0.28894 0.80853 0.0
H262 H 0.69808 0.24987 0.78896 0.0
S263 S 0.59549 0.06109 0.83148 0.0
N264 N 0.5624 0.11932 0.8365 0.0
N265 N 0.65145 0.07762 0.81568 0.0
C266 C 0.6454 0.13299 0.8142 0.0
C267 C 0.59724 0.15559 0.82549 0.0
C268 C 0.24519 0.12734 0.06347 0.0
C269 C 0.21134 0.08721 0.0746 0.0
C270 C 0.22275 0.17365 0.05175 0.0
C271 C 0.16589 0.18185 0.05127 0.0
H272 H 0.28889 0.12013 0.06157 0.0
H273 H 0.24956 0.20048 0.04113 0.0
S274 S 0.06008 0.09401 0.08084 0.0
N275 N 0.1186 0.06241 0.08694 0.0
N276 N 0.07656 0.15024 0.06521 0.0
C277 C 0.13211 0.14556 0.06471 0.0
C278 C 0.15489 0.09806 0.07651 0.0
C279 C 0.17105 0.79577 1.01044 0.0
C280 C 0.17575 0.85266 1.01356 0.0
C281 C 0.12484 0.77318 0.99867 0.0
C282 C 0.08179 0.80684 0.98989 0.0
H283 H 0.20071 0.76848 1.01907 0.0
H284 H 0.12032 0.72892 0.99862 0.0
S285 S 0.07877 0.9589 0.991 0.0
N286 N 0.13732 0.94253 1.00475 0.0
N287 N 0.05021 0.90015 0.98264 0.0
C288 C 0.08895 0.864 0.99063 0.0
C289 C 0.13598 0.88693 1.00267 0.0
C290 C 0.79146 0.83638 0.0545 0.0
C291 C 0.84836 0.82974 0.05245 0.0
C292 C 0.76938 0.88276 0.06637 0.0
C293 C 0.80359 0.92429 0.07614 0.0
H294 H 0.76404 0.80827 0.04495 0.0
H295 H 0.72535 0.88885 0.0656 0.0
S296 S 0.95552 0.92195 0.07796 0.0
N297 N 0.9385 0.8645 0.0634 0.0
N298 N 0.89709 0.95222 0.0855 0.0
C299 C 0.86046 0.91504 0.0765 0.0
C300 C 0.88287 0.86765 0.0645 0.0
C301 C 0.84036 0.21247 1.00937 0.0
C302 C 0.83595 0.1557 1.01296 0.0
C303 C 0.88655 0.23483 0.9975 0.0
C304 C 0.92989 0.20106 0.9891 0.0
H305 H 0.8105 0.23996 1.01773 0.0
H306 H 0.89082 0.27909 0.99709 0.0
S307 S 0.9338 0.0491 0.9915 0.0
N308 N 0.875 0.0657 1.00498 0.0
N309 N 0.96209 0.10765 0.9827 0.0
C310 C 0.92304 0.1439 0.99029 0.0
C311 C 0.87601 0.1212 1.00241 0.0
C312 C 0.72109 0.84001 0.76307 0.0
C313 C 0.66431 0.83142 0.76297 0.0
C314 C 0.74367 0.88666 0.75174 0.0
C315 C 0.71001 0.92681 0.74044 0.0
H316 H 0.74767 0.81308 0.77379 0.0
H317 H 0.78725 0.89396 0.754 0.0
S318 S 0.55915 0.91905 0.73269 0.0
N319 N 0.57536 0.86267 0.74829 0.0
N320 N 0.61765 0.95122 0.72731 0.0
C321 C 0.65373 0.91568 0.738 0.0
C322 C 0.63083 0.86779 0.74938 0.0
C323 C 0.88909 0.26669 0.31372 0.0
C324 C 0.93017 0.30047 0.32418 0.0
C325 C 0.84212 0.28927 0.30264 0.0
C326 C 0.83428 0.34621 0.30212 0.0
H327 H 0.89593 0.22291 0.31181 0.0
H328 H 0.81439 0.26247 0.2925 0.0
S329 S 0.92442 0.45187 0.33037 0.0
N330 N 0.95617 0.39322 0.33608 0.0
N331 N 0.86718 0.43556 0.31549 0.0
C332 C 0.87164 0.37995 0.31497 0.0
C333 C 0.91974 0.35702 0.32615 0.0
C334 C 0.36044 0.09219 0.73744 0.0
C335 C 0.3033 0.08482 0.73655 0.0
C336 C 0.38309 0.13794 0.74967 0.0
C337 C 0.34926 0.17788 0.76084 0.0
H338 H 0.38769 0.05963 0.73135 0.0
H339 H 0.42714 0.13955 0.75234 0.0
S340 S 0.19774 0.18282 0.75921 0.0
N341 N 0.21369 0.12532 0.74441 0.0
N342 N 0.25668 0.21134 0.76723 0.0
C343 C 0.2925 0.17422 0.7575 0.0
C344 C 0.26938 0.12768 0.74521 0.0
C345 C 0.09908 0.65909 0.32655 0.0
C346 C 0.08765 0.71545 0.32424 0.0
C347 C 0.1461 0.63639 0.3153 0.0
C348 C 0.18288 0.66953 0.30173 0.0
H349 H 0.06883 0.63161 0.33454 0.0
H350 H 0.15078 0.59214 0.31511 0.0
S351 S 0.17735 0.82047 0.29495 0.0
N352 N 0.12178 0.80486 0.31121 0.0
N353 N 0.20935 0.76172 0.28979 0.0
C354 C 0.17517 0.7264 0.30184 0.0
C355 C 0.12776 0.74955 0.31334 0.0
C356 C 0.73121 0.62801 0.56881 0.0
C357 C 0.69844 0.58167 0.57402 0.0
C358 C 0.70939 0.67412 0.55654 0.0
C359 C 0.65428 0.67493 0.54907 0.0
H360 H 0.77509 0.62639 0.57202 0.0
H361 H 0.73681 0.70683 0.55085 0.0
S362 S 0.54978 0.56777 0.5611 0.0
N363 N 0.60682 0.54259 0.57331 0.0
N364 N 0.56601 0.62898 0.55001 0.0
C365 C 0.62 0.6314 0.55631 0.0
C366 C 0.642 0.58482 0.56903 0.0
C367 C 0.67542 0.29153 0.51052 0.0
C368 C 0.68506 0.34818 0.50996 0.0
C369 C 0.62831 0.26932 0.49946 0.0
C370 C 0.58861 0.30326 0.48802 0.0
H371 H 0.70183 0.26489 0.52149 0.0
H372 H 0.62026 0.22597 0.50212 0.0
S373 S 0.59914 0.45365 0.47885 0.0
N374 N 0.65538 0.43707 0.49446 0.0
N375 N 0.56583 0.3955 0.47407 0.0
C376 C 0.60083 0.35921 0.48499 0.0
C377 C 0.64931 0.38173 0.49604 0.0
C378 C 0.35074 0.41751 0.57293 0.0
C379 C 0.29525 0.4305 0.56874 0.0
C380 C 0.37433 0.37065 0.5619 0.0
C381 C 0.34294 0.33551 0.54662 0.0
H382 H 0.3773 0.4464 0.58253 0.0
H383 H 0.41828 0.36472 0.5634 0.0
S384 S 0.19407 0.34539 0.53409 0.0
N385 N 0.20786 0.39944 0.55175 0.0
N386 N 0.2528 0.31232 0.53071 0.0
C387 C 0.28654 0.34485 0.54457 0.0
C388 C 0.26243 0.39207 0.55585 0.0
C389 C 0.38648 0.74927 0.49687 0.0
C390 C 0.42787 0.71528 0.48678 0.0
C391 C 0.3406 0.72686 0.50897 0.0
C392 C 0.33471 0.66988 0.51118 0.0
H393 H 0.39228 0.79335 0.49758 0.0
H394 H 0.31232 0.75413 0.51855 0.0
S395 S 0.42703 0.56324 0.48515 0.0
N396 N 0.45642 0.62191 0.47735 0.0
N397 N 0.37003 0.57988 0.50015 0.0
C398 C 0.37267 0.63556 0.49903 0.0
C399 C 0.41926 0.6583 0.48661 0.0
C400 C 0.28362 0.32319 0.41217 0.0
C401 C 0.30656 0.27412 0.42144 0.0
C402 C 0.2395 0.32287 0.39524 0.0
C403 C 0.21632 0.27345 0.38652 0.0
H404 H 0.29935 0.36259 0.41824 0.0
H405 H 0.22379 0.36202 0.38882 0.0
S406 S 0.26132 0.13321 0.40463 0.0
N407 N 0.3026 0.17434 0.42048 0.0
N408 N 0.22013 0.17373 0.38839 0.0
C409 C 0.23901 0.22389 0.39544 0.0
C410 C 0.28389 0.22423 0.41293 0.0
C411 C 0.32492 0.73309 0.6469 0.0
C412 C 0.27558 0.7116 0.63725 0.0
C413 C 0.3252 0.77649 0.66425 0.0
C414 C 0.27615 0.80034 0.67304 0.0
H415 H 0.36406 0.71673 0.6408 0.0
H416 H 0.36452 0.79111 0.67095 0.0
S417 S 0.13543 0.75913 0.65403 0.0
N418 N 0.17597 0.71766 0.63793 0.0
N419 N 0.17648 0.79874 0.6708 0.0
C420 C 0.22634 0.77911 0.66373 0.0
C421 C 0.22606 0.735 0.64581 0.0
C422 C 0.73579 0.69005 0.41467 0.0
C423 C 0.71325 0.73954 0.42371 0.0
C424 C 0.77983 0.68961 0.39769 0.0
C425 C 0.80327 0.73863 0.38867 0.0
H426 H 0.71965 0.65095 0.4209 0.0
H427 H 0.79516 0.65018 0.39139 0.0
S428 S 0.75962 0.87966 0.40626 0.0
N429 N 0.71809 0.83924 0.42234 0.0
N430 N 0.80037 0.83841 0.39014 0.0
C431 C 0.78114 0.78858 0.39745 0.0
C432 C 0.73639 0.78903 0.415 0.0
C433 C 0.77851 0.23339 0.66512 0.0
C434 C 0.72923 0.20923 0.67348 0.0
C435 C 0.7785 0.27691 0.64767 0.0
C436 C 0.72919 0.29854 0.63798 0.0
H437 H 0.81757 0.21864 0.67212 0.0
H438 H 0.81756 0.2937 0.64176 0.0
S439 S 0.58865 0.25025 0.65379 0.0
N440 N 0.62957 0.2106 0.67053 0.0
N441 N 0.62953 0.292 0.63817 0.0
C442 C 0.67961 0.27483 0.64625 0.0
C443 C 0.67963 0.23036 0.66383 0.0
C444 C 0.23372 0.27495 0.91371 0.0
C445 C 0.21202 0.22553 0.92324 0.0
C446 C 0.27701 0.27507 0.89615 0.0
C447 C 0.30089 0.22579 0.88753 0.0
H448 H 0.2172 0.31401 0.91986 0.0
H449 H 0.29192 0.31421 0.88933 0.0
S450 S 0.25936 0.08495 0.90657 0.0
N451 N 0.21801 0.12576 0.92251 0.0
N452 N 0.299 0.12601 0.88993 0.0
C453 C 0.27959 0.17608 0.89695 0.0
C454 C 0.23533 0.17594 0.91464 0.0
C455 C 0.18924 0.73754 0.16623 0.0
C456 C 0.23858 0.71413 0.17492 0.0
C457 C 0.18898 0.78118 0.14904 0.0
C458 C 0.23805 0.8034 0.13947 0.0
H459 H 0.15009 0.72248 0.17294 0.0
H460 H 0.14965 0.79724 0.14307 0.0
S461 S 0.37876 0.75703 0.15591 0.0
N462 N 0.33821 0.71674 0.17256 0.0
N463 N 0.33773 0.79832 0.13999 0.0
C464 C 0.28785 0.78033 0.14785 0.0
C465 C 0.28812 0.73593 0.1656 0.0
C466 C 0.77583 0.82371 0.91621 0.0
C467 C 0.79867 0.77446 0.92535 0.0
C468 C 0.73222 0.8237 0.89901 0.0
C469 C 0.7094 0.77445 0.88989 0.0
H470 H 0.79141 0.86299 0.92253 0.0
H471 H 0.7167 0.86298 0.89265 0.0
S472 S 0.75396 0.63386 0.90769 0.0
N473 N 0.79477 0.6747 0.92395 0.0
N474 N 0.71318 0.67469 0.89139 0.0
C475 C 0.73179 0.72473 0.89878 0.0
C476 C 0.7762 0.72473 0.91652 0.0
C477 C 0.73582 0.23273 0.14864 0.0
C478 C 0.78522 0.20963 0.13976 0.0
C479 C 0.73571 0.2763 0.16609 0.0
C480 C 0.785 0.29911 0.1752 0.0
H481 H 0.69678 0.21697 0.14213 0.0
H482 H 0.69659 0.29221 0.17245 0.0
S483 S 0.92577 0.25403 0.15778 0.0
N484 N 0.88494 0.21337 0.14151 0.0
N485 N 0.88475 0.2949 0.17387 0.0
C486 C 0.83469 0.27656 0.16635 0.0
C487 C 0.83479 0.23199 0.1488 0.0
C488 C 0.99403 0.98065 0.31828 0.0
C489 C 0.98005 0.95375 0.29577 0.0
C490 C 0.02086 0.03157 0.31801 0.0
C491 C 0.03382 0.0578 0.29522 0.0
H492 H 0.98533 0.96172 0.33626 0.0
H493 H 0.03029 0.05108 0.33579 0.0
S494 S 0.00575 1.00473 0.23111 0.0
N495 N 0.98143 0.95696 0.25008 0.0
N496 N 0.03075 0.0531 0.24958 0.0
C497 C 0.01982 0.03146 0.27259 0.0
C498 C 0.99321 0.97934 0.27286 0.0
C499 C 0.98159 0.02011 0.7842 0.0
C500 C 0.9542 0.03307 0.7617 0.0
C501 C 0.03318 0.99491 0.78397 0.0
C502 C 0.05898 0.98061 0.76124 0.0
H503 H 0.96301 0.02949 0.8022 0.0
H504 H 0.05301 0.98654 0.80179 0.0
S505 S 1.00443 1.0051 0.69709 0.0
N506 N 0.95662 0.02966 0.71601 0.0
N507 N 0.0535 0.98154 0.71559 0.0
C508 C 0.03196 0.99293 0.73857 0.0
C509 C 0.97969 0.01951 0.7388 0.0
C510 C 0.01683 0.47846 0.03459 0.0
C511 C 0.02996 0.45184 1.01191 0.0
C512 C 0.99247 0.53047 0.03471 0.0
C513 C 0.97917 0.55746 1.01215 0.0
H514 H 0.02555 0.45899 0.05246 0.0
H515 H 0.98397 0.54969 0.05267 0.0
S516 S 1.00415 0.50508 0.94764 0.0
N517 N 0.0276 0.45612 0.96624 0.0
N518 N 0.98095 0.55379 0.96646 0.0
C519 C 0.99153 0.53115 0.9893 0.0
C520 C 0.0173 0.47845 0.98918 0.0
C521 C 0.48027 0.9917 0.07052 0.0
C522 C 0.45382 0.97798 0.04787 0.0
C523 C 0.53184 0.01725 0.07052 0.0
C524 C 0.55916 0.02911 0.04787 0.0
H525 H 0.46046 0.98387 0.0884 0.0
H526 H 0.55089 0.02664 0.08839 0.0
S527 S 0.50778 1.00074 0.98349 0.0
N528 N 0.45876 0.97811 1.00222 0.0
N529 N 0.55605 0.025 1.00221 0.0
C530 C 0.53333 0.01518 1.02511 0.0
C531 C 0.48058 0.98989 1.02511 0.0
C532 C 0.48981 0.48008 0.81931 0.0
C533 C 0.47581 0.45384 0.79664 0.0
C534 C 0.5156 0.53155 0.81934 0.0
C535 C 0.52744 0.55895 0.79671 0.0
H536 H 0.48205 0.46017 0.83715 0.0
H537 H 0.52526 0.55044 0.83723 0.0
S538 S 0.4983 0.50812 0.7323 0.0
N539 N 0.47555 0.45908 0.75099 0.0
N540 N 0.52296 0.55616 0.75105 0.0
C541 C 0.51319 0.53334 0.77393 0.0
C542 C 0.48763 0.48071 0.7739 0.0
C543 C 0.53267 0.4917 0.24559 0.0
C544 C 0.55917 0.47827 0.26826 0.0
C545 C 0.48148 0.51804 0.24557 0.0
C546 C 0.4546 0.53098 0.26821 0.0
H547 H 0.55216 0.48302 0.22773 0.0
H548 H 0.46233 0.52717 0.22768 0.0
S549 S 0.50637 0.50395 0.33262 0.0
N550 N 0.55485 0.47997 0.31392 0.0
N551 N 0.45818 0.52831 0.31388 0.0
C552 C 0.4805 0.5174 0.29099 0.0
C553 C 0.53289 0.49133 0.29102 0.0
C554 C 0.49657 0.03517 0.49271 0.0
C555 C 0.48272 0.06148 0.51539 0.0
C556 C 0.52283 0.9839 0.49264 0.0
C557 C 0.53535 0.9567 0.51525 0.0
H558 H 0.48818 0.05482 0.47485 0.0
H559 H 0.53217 0.9649 0.47473 0.0
S560 S 0.50722 0.00789 0.5797 0.0
N561 N 0.48362 0.05662 0.56104 0.0
N562 N 0.5319 0.95987 0.56092 0.0
C563 C 0.52145 0.98245 0.53805 0.0
C564 C 0.4954 0.03491 0.53812 0.0
C565 C 0.9804 0.50254 0.56778 0.0
C566 C 0.95252 0.49243 0.54509 0.0
C567 C 0.03155 0.5289 0.56797 0.0
C568 C 0.05698 0.54524 0.54545 0.0
H569 H 0.96218 0.49094 0.58556 0.0
H570 H 0.0519 0.53515 0.58584 0.0
S571 S 1.00111 0.5281 0.48104 0.0
N572 N 0.95392 0.50119 0.49955 0.0
N573 N 0.05039 0.5497 0.49989 0.0
C574 C 0.02956 0.5353 0.52265 0.0
C575 C 0.97725 0.50914 0.52248 0.0
loop_
_geom_bond_atom_site_label_1
_geom_bond_atom_site_label_2
_geom_bond_distance
_geom_bond_site_symmetry_2
_ccdc_geom_bond_type
O0 Cd1 2.223 . S
O0 C8 1.315 . S
Cd1 O0 2.223 . S
Cd1 O4 2.297 . S
Cd1 O5 2.439 . S
Cd1 O11 2.240 . S
Cd2 O3 2.240 . S
Cd2 O10 2.223 . S
Cd2 O12 2.297 . S
Cd2 O13 2.439 . S
O3 Cd2 2.240 . S
O3 C8 1.279 . S
O4 Cd1 2.297 . S
O4 C6 1.247 . S
O5 Cd1 2.439 . S
O5 C6 1.208 . S
C6 O4 1.247 . S
C6 O5 1.208 . S
C7 O12 1.247 . S
C7 O13 1.208 . S
C8 O0 1.315 . S
C8 O3 1.279 . S
C9 O10 1.315 . S
C9 O11 1.279 . S
O10 Cd2 2.223 . S
O10 C9 1.315 . S
O11 Cd1 2.240 . S
O11 C9 1.279 . S
O12 Cd2 2.297 . S
O12 C7 1.247 . S
O13 Cd2 2.439 . S
O13 C7 1.208 . S
O14 Cd15 2.223 . S
O14 C22 1.315 . S
Cd15 O14 2.223 . S
Cd15 O18 2.297 . S
Cd15 O19 2.439 . S
Cd15 O25 2.240 . S
Cd16 O17 2.240 . S
Cd16 O24 2.223 . S
Cd16 O26 2.297 . S
Cd16 O27 2.439 . S
O17 Cd16 2.240 . S
O17 C22 1.279 . S
O18 Cd15 2.297 . S
O18 C20 1.247 . S
O19 Cd15 2.439 . S
O19 C20 1.208 . S
C20 O18 1.247 . S
C20 O19 1.208 . S
C21 O26 1.247 . S
C21 O27 1.208 . S
C22 O14 1.315 . S
C22 O17 1.279 . S
C23 O24 1.315 . S
C23 O25 1.279 . S
O24 Cd16 2.223 . S
O24 C23 1.315 . S
O25 Cd15 2.240 . S
O25 C23 1.279 . S
O26 Cd16 2.297 . S
O26 C21 1.247 . S
O27 Cd16 2.439 . S
O27 C21 1.208 . S
O28 Cd29 2.223 . S
O28 C36 1.315 . S
Cd29 O28 2.223 . S
Cd29 O32 2.297 . S
Cd29 O33 2.439 . S
Cd29 O39 2.240 . S
Cd30 O31 2.240 . S
Cd30 O38 2.223 . S
Cd30 O40 2.297 . S
Cd30 O41 2.439 . S
O31 Cd30 2.240 . S
O31 C36 1.279 . S
O32 Cd29 2.297 . S
O32 C34 1.247 . S
O33 Cd29 2.439 . S
O33 C34 1.208 . S
C34 O32 1.247 . S
C34 O33 1.208 . S
C35 O40 1.247 . S
C35 O41 1.208 . S
C36 O28 1.315 . S
C36 O31 1.279 . S
C37 O38 1.315 . S
C37 O39 1.279 . S
O38 Cd30 2.223 . S
O38 C37 1.315 . S
O39 Cd29 2.240 . S
O39 C37 1.279 . S
O40 Cd30 2.297 . S
O40 C35 1.247 . S
O41 Cd30 2.439 . S
O41 C35 1.208 . S
O42 Cd43 2.223 . S
O42 C50 1.315 . S
Cd43 O42 2.223 . S
Cd43 O46 2.297 . S
Cd43 O47 2.439 . S
Cd43 O53 2.240 . S
Cd44 O45 2.240 . S
Cd44 O52 2.223 . S
Cd44 O54 2.297 . S
Cd44 O55 2.439 . S
O45 Cd44 2.240 . S
O45 C50 1.279 . S
O46 Cd43 2.297 . S
O46 C48 1.247 . S
O47 Cd43 2.439 . S
O47 C48 1.208 . S
C48 O46 1.247 . S
C48 O47 1.208 . S
C49 O54 1.247 . S
C49 O55 1.208 . S
C50 O42 1.315 . S
C50 O45 1.279 . S
C51 O52 1.315 . S
C51 O53 1.279 . S
O52 Cd44 2.223 . S
O52 C51 1.315 . S
O53 Cd43 2.240 . S
O53 C51 1.279 . S
O54 Cd44 2.297 . S
O54 C49 1.247 . S
O55 Cd44 2.439 . S
O55 C49 1.208 . S
O56 Cd57 2.223 . S
O56 C64 1.315 . S
Cd57 O56 2.223 . S
Cd57 O60 2.297 . S
Cd57 O61 2.439 . S
Cd57 O67 2.240 . S
Cd58 O59 2.240 . S
Cd58 O66 2.223 1_556 S
Cd58 O68 2.297 1_556 S
Cd58 O69 2.439 . S
O59 Cd58 2.240 . S
O59 C64 1.279 . S
O60 Cd57 2.297 . S
O60 C62 1.247 . S
O61 Cd57 2.439 . S
O61 C62 1.208 . S
C62 O60 1.247 . S
C62 O61 1.208 . S
C63 O68 1.247 1_556 S
C63 O69 1.208 . S
C64 O56 1.315 . S
C64 O59 1.279 . S
C65 O66 1.315 1_556 S
C65 O67 1.279 . S
O66 Cd58 2.223 1_554 S
O66 C65 1.315 1_554 S
O67 Cd57 2.240 . S
O67 C65 1.279 . S
O68 Cd58 2.297 1_554 S
O68 C63 1.247 1_554 S
O69 Cd58 2.439 . S
O69 C63 1.208 . S
O70 Cd71 2.223 . S
O70 C78 1.315 . S
Cd71 O70 2.223 . S
Cd71 O74 2.297 . S
Cd71 O75 2.439 . S
Cd71 O81 2.240 . S
Cd72 O73 2.240 . S
Cd72 O80 2.223 1_554 S
Cd72 O82 2.297 1_554 S
Cd72 O83 2.439 . S
O73 Cd72 2.240 . S
O73 C78 1.279 . S
O74 Cd71 2.297 . S
O74 C76 1.247 . S
O75 Cd71 2.439 . S
O75 C76 1.208 . S
C76 O74 1.247 . S
C76 O75 1.208 . S
C77 O82 1.247 1_554 S
C77 O83 1.208 . S
C78 O70 1.315 . S
C78 O73 1.279 . S
C79 O80 1.315 1_554 S
C79 O81 1.279 . S
O80 Cd72 2.223 1_556 S
O80 C79 1.315 1_556 S
O81 Cd71 2.240 . S
O81 C79 1.279 . S
O82 Cd72 2.297 1_556 S
O82 C77 1.247 1_556 S
O83 Cd72 2.439 . S
O83 C77 1.208 . S
O84 Cd85 2.223 . S
O84 C92 1.315 . S
Cd85 O84 2.223 . S
Cd85 O88 2.297 . S
Cd85 O89 2.439 . S
Cd85 O95 2.240 . S
Cd86 O87 2.240 . S
Cd86 O94 2.223 1_556 S
Cd86 O96 2.297 1_556 S
Cd86 O97 2.439 . S
O87 Cd86 2.240 . S
O87 C92 1.279 . S
O88 Cd85 2.297 . S
O88 C90 1.247 . S
O89 Cd85 2.439 . S
O89 C90 1.208 . S
C90 O88 1.247 . S
C90 O89 1.208 . S
C91 O96 1.247 1_556 S
C91 O97 1.208 . S
C92 O84 1.315 . S
C92 O87 1.279 . S
C93 O94 1.315 1_556 S
C93 O95 1.279 . S
O94 Cd86 2.223 1_554 S
O94 C93 1.315 1_554 S
O95 Cd85 2.240 . S
O95 C93 1.279 . S
O96 Cd86 2.297 1_554 S
O96 C91 1.247 1_554 S
O97 Cd86 2.439 . S
O97 C91 1.208 . S
O98 Cd99 2.223 . S
O98 C106 1.315 . S
Cd99 O98 2.223 . S
Cd99 O102 2.297 . S
Cd99 O103 2.439 . S
Cd99 O109 2.240 . S
Cd100 O101 2.240 . S
Cd100 O108 2.223 1_554 S
Cd100 O110 2.297 1_554 S
Cd100 O111 2.439 . S
O101 Cd100 2.240 . S
O101 C106 1.279 . S
O102 Cd99 2.297 . S
O102 C104 1.247 . S
O103 Cd99 2.439 . S
O103 C104 1.208 . S
C104 O102 1.247 . S
C104 O103 1.208 . S
C105 O110 1.247 1_554 S
C105 O111 1.208 . S
C106 O98 1.315 . S
C106 O101 1.279 . S
C107 O108 1.315 1_554 S
C107 O109 1.279 . S
O108 Cd100 2.223 1_556 S
O108 C107 1.315 1_556 S
O109 Cd99 2.240 . S
O109 C107 1.279 . S
O110 Cd100 2.297 1_556 S
O110 C105 1.247 1_556 S
O111 Cd100 2.439 . S
O111 C105 1.208 . S
O112 Cd113 2.223 . S
O112 C120 1.315 . S
Cd113 O112 2.223 . S
Cd113 O116 2.297 . S
Cd113 O117 2.439 . S
Cd113 O123 2.240 . S
Cd114 O115 2.240 . S
Cd114 O122 2.223 . S
Cd114 O124 2.297 . S
Cd114 O125 2.439 . S
O115 Cd114 2.240 . S
O115 C120 1.279 . S
O116 Cd113 2.297 . S
O116 C118 1.247 . S
O117 Cd113 2.439 . S
O117 C118 1.208 . S
C118 O116 1.247 . S
C118 O117 1.208 . S
C119 O124 1.247 . S
C119 O125 1.208 . S
C120 O112 1.315 . S
C120 O115 1.279 . S
C121 O122 1.315 . S
C121 O123 1.279 . S
O122 Cd114 2.223 . S
O122 C121 1.315 . S
O123 Cd113 2.240 . S
O123 C121 1.279 . S
O124 Cd114 2.297 . S
O124 C119 1.247 . S
O125 Cd114 2.439 . S
O125 C119 1.208 . S
O126 Cd127 2.223 . S
O126 C134 1.315 . S
Cd127 O126 2.223 . S
Cd127 O130 2.297 . S
Cd127 O131 2.439 . S
Cd127 O137 2.240 . S
Cd128 O129 2.240 . S
Cd128 O136 2.223 . S
Cd128 O138 2.297 . S
Cd128 O139 2.439 . S
O129 Cd128 2.240 . S
O129 C134 1.279 . S
O130 Cd127 2.297 . S
O130 C132 1.247 . S
O131 Cd127 2.439 . S
O131 C132 1.208 . S
C132 O130 1.247 . S
C132 O131 1.208 . S
C133 O138 1.247 . S
C133 O139 1.208 . S
C134 O126 1.315 . S
C134 O129 1.279 . S
C135 O136 1.315 . S
C135 O137 1.279 . S
O136 Cd128 2.223 . S
O136 C135 1.315 . S
O137 Cd127 2.240 . S
O137 C135 1.279 . S
O138 Cd128 2.297 . S
O138 C133 1.247 . S
O139 Cd128 2.439 . S
O139 C133 1.208 . S
O140 Cd141 2.223 . S
O140 C148 1.315 . S
Cd141 O140 2.223 . S
Cd141 O144 2.297 . S
Cd141 O145 2.439 . S
Cd141 O151 2.240 . S
Cd142 O143 2.240 . S
Cd142 O150 2.223 . S
Cd142 O152 2.297 . S
Cd142 O153 2.439 . S
O143 Cd142 2.240 . S
O143 C148 1.279 . S
O144 Cd141 2.297 . S
O144 C146 1.247 . S
O145 Cd141 2.439 . S
O145 C146 1.208 . S
C146 O144 1.247 . S
C146 O145 1.208 . S
C147 O152 1.247 . S
C147 O153 1.208 . S
C148 O140 1.315 . S
C148 O143 1.279 . S
C149 O150 1.315 . S
C149 O151 1.279 . S
O150 Cd142 2.223 . S
O150 C149 1.315 . S
O151 Cd141 2.240 . S
O151 C149 1.279 . S
O152 Cd142 2.297 . S
O152 C147 1.247 . S
O153 Cd142 2.439 . S
O153 C147 1.208 . S
O154 Cd155 2.223 . S
O154 C162 1.315 . S
Cd155 O154 2.223 . S
Cd155 O158 2.297 . S
Cd155 O159 2.439 . S
Cd155 O165 2.240 . S
Cd156 O157 2.240 . S
Cd156 O164 2.223 . S
Cd156 O166 2.297 . S
Cd156 O167 2.439 . S
O157 Cd156 2.240 . S
O157 C162 1.279 . S
O158 Cd155 2.297 . S
O158 C160 1.247 . S
O159 Cd155 2.439 . S
O159 C160 1.208 . S
C160 O158 1.247 . S
C160 O159 1.208 . S
C161 O166 1.247 . S
C161 O167 1.208 . S
C162 O154 1.315 . S
C162 O157 1.279 . S
C163 O164 1.315 . S
C163 O165 1.279 . S
O164 Cd156 2.223 . S
O164 C163 1.315 . S
O165 Cd155 2.240 . S
O165 C163 1.279 . S
O166 Cd156 2.297 . S
O166 C161 1.247 . S
O167 Cd156 2.439 . S
O167 C161 1.208 . S
O168 Cd169 2.223 . S
O168 C176 1.315 . S
Cd169 O168 2.223 . S
Cd169 O172 2.297 . S
Cd169 O173 2.439 . S
Cd169 O179 2.240 . S
Cd170 O171 2.240 . S
Cd170 O178 2.223 . S
Cd170 O180 2.297 . S
Cd170 O181 2.439 . S
O171 Cd170 2.240 . S
O171 C176 1.279 . S
O172 Cd169 2.297 . S
O172 C174 1.247 . S
O173 Cd169 2.439 . S
O173 C174 1.208 . S
C174 O172 1.247 . S
C174 O173 1.208 . S
C175 O180 1.247 . S
C175 O181 1.208 . S
C176 O168 1.315 . S
C176 O171 1.279 . S
C177 O178 1.315 . S
C177 O179 1.279 . S
O178 Cd170 2.223 . S
O178 C177 1.315 . S
O179 Cd169 2.240 . S
O179 C177 1.279 . S
O180 Cd170 2.297 . S
O180 C175 1.247 . S
O181 Cd170 2.439 . S
O181 C175 1.208 . S
O182 Cd183 2.223 . S
O182 C190 1.315 . S
Cd183 O182 2.223 . S
Cd183 O186 2.297 . S
Cd183 O187 2.439 . S
Cd183 O193 2.240 . S
Cd184 O185 2.240 . S
Cd184 O192 2.223 . S
Cd184 O194 2.297 . S
Cd184 O195 2.439 . S
O185 Cd184 2.240 . S
O185 C190 1.279 . S
O186 Cd183 2.297 . S
O186 C188 1.247 . S
O187 Cd183 2.439 . S
O187 C188 1.208 . S
C188 O186 1.247 . S
C188 O187 1.208 . S
C189 O194 1.247 . S
C189 O195 1.208 . S
C190 O182 1.315 . S
C190 O185 1.279 . S
C191 O192 1.315 . S
C191 O193 1.279 . S
O192 Cd184 2.223 . S
O192 C191 1.315 . S
O193 Cd183 2.240 . S
O193 C191 1.279 . S
O194 Cd184 2.297 . S
O194 C189 1.247 . S
O195 Cd184 2.439 . S
O195 C189 1.208 . S
O196 Cd197 2.223 . S
O196 C204 1.315 . S
Cd197 O196 2.223 . S
Cd197 O200 2.297 . S
Cd197 O201 2.439 . S
Cd197 O207 2.240 . S
Cd198 O199 2.240 . S
Cd198 O206 2.223 . S
Cd198 O208 2.297 . S
Cd198 O209 2.439 . S
O199 Cd198 2.240 . S
O199 C204 1.279 . S
O200 Cd197 2.297 . S
O200 C202 1.247 . S
O201 Cd197 2.439 . S
O201 C202 1.208 . S
C202 O200 1.247 . S
C202 O201 1.208 . S
C203 O208 1.247 . S
C203 O209 1.208 . S
C204 O196 1.315 . S
C204 O199 1.279 . S
C205 O206 1.315 . S
C205 O207 1.279 . S
O206 Cd198 2.223 . S
O206 C205 1.315 . S
O207 Cd197 2.240 . S
O207 C205 1.279 . S
O208 Cd198 2.297 . S
O208 C203 1.247 . S
O209 Cd198 2.439 . S
O209 C203 1.208 . S
O210 Cd211 2.223 . S
O210 C218 1.315 . S
Cd211 O210 2.223 . S
Cd211 O214 2.297 . S
Cd211 O215 2.439 . S
Cd211 O221 2.240 . S
Cd212 O213 2.240 . S
Cd212 O220 2.223 . S
Cd212 O222 2.297 . S
Cd212 O223 2.439 . S
O213 Cd212 2.240 . S
O213 C218 1.279 . S
O214 Cd211 2.297 . S
O214 C216 1.247 . S
O215 Cd211 2.439 . S
O215 C216 1.208 . S
C216 O214 1.247 . S
C216 O215 1.208 . S
C217 O222 1.247 . S
C217 O223 1.208 . S
C218 O210 1.315 . S
C218 O213 1.279 . S
C219 O220 1.315 . S
C219 O221 1.279 . S
O220 Cd212 2.223 . S
O220 C219 1.315 . S
O221 Cd211 2.240 . S
O221 C219 1.279 . S
O222 Cd212 2.297 . S
O222 C217 1.247 . S
O223 Cd212 2.439 . S
O223 C217 1.208 . S
C224 C225 1.369 . S
C224 C226 1.419 . S
C224 H228 0.930 . S
C225 C224 1.369 . S
C225 C234 1.429 . S
C226 C224 1.419 . S
C226 C227 1.363 . S
C226 H229 0.929 . S
C227 C226 1.363 . S
C227 C233 1.428 . S
H228 C224 0.930 . S
H229 C226 0.929 . S
S230 N231 1.613 . S
S230 N232 1.610 . S
N231 S230 1.613 . S
N231 C234 1.350 . S
N232 S230 1.610 . S
N232 C233 1.351 . S
C233 C227 1.428 . S
C233 N232 1.351 . S
C233 C234 1.434 . S
C234 C225 1.429 . S
C234 N231 1.350 . S
C234 C233 1.434 . S
C235 C236 1.369 . S
C235 C237 1.419 . S
C235 H239 0.930 . S
C236 C235 1.369 . S
C236 C245 1.429 . S
C237 C235 1.419 . S
C237 C238 1.363 . S
C237 H240 0.929 . S
C238 C237 1.363 . S
C238 C244 1.428 . S
H239 C235 0.930 . S
H240 C237 0.929 . S
S241 N242 1.613 . S
S241 N243 1.610 . S
N242 S241 1.613 . S
N242 C245 1.350 . S
N243 S241 1.610 . S
N243 C244 1.351 . S
C244 C238 1.428 . S
C244 N243 1.351 . S
C244 C245 1.434 . S
C245 C236 1.429 . S
C245 N242 1.350 . S
C245 C244 1.434 . S
C246 C247 1.369 . S
C246 C248 1.419 . S
C246 H250 0.930 . S
C247 C246 1.369 . S
C247 C256 1.429 . S
C248 C246 1.419 . S
C248 C249 1.363 . S
C248 H251 0.929 . S
C249 C248 1.363 . S
C249 C255 1.428 . S
H250 C246 0.930 . S
H251 C248 0.929 . S
S252 N253 1.613 . S
S252 N254 1.610 . S
N253 S252 1.613 . S
N253 C256 1.350 . S
N254 S252 1.610 . S
N254 C255 1.351 . S
C255 C249 1.428 . S
C255 N254 1.351 . S
C255 C256 1.434 . S
C256 C247 1.429 . S
C256 N253 1.350 . S
C256 C255 1.434 . S
C257 C258 1.369 . S
C257 C259 1.419 . S
C257 H261 0.930 . S
C258 C257 1.369 . S
C258 C267 1.429 . S
C259 C257 1.419 . S
C259 C260 1.363 . S
C259 H262 0.929 . S
C260 C259 1.363 . S
C260 C266 1.428 . S
H261 C257 0.930 . S
H262 C259 0.929 . S
S263 N264 1.613 . S
S263 N265 1.610 . S
N264 S263 1.613 . S
N264 C267 1.350 . S
N265 S263 1.610 . S
N265 C266 1.351 . S
C266 C260 1.428 . S
C266 N265 1.351 . S
C266 C267 1.434 . S
C267 C258 1.429 . S
C267 N264 1.350 . S
C267 C266 1.434 . S
C268 C269 1.393 . S
C268 C270 1.405 1_554 S
C268 H272 0.922 1_554 S
C269 C268 1.393 . S
C269 C278 1.429 . S
C270 C268 1.405 1_556 S
C270 C271 1.363 . S
C270 H273 0.929 . S
C271 C270 1.363 . S
C271 C277 1.428 1_556 S
H272 C268 0.922 1_556 S
H273 C270 0.929 . S
S274 N275 1.613 . S
S274 N276 1.610 . S
N275 S274 1.613 . S
N275 C278 1.350 . S
N276 S274 1.610 . S
N276 C277 1.351 . S
C277 C271 1.428 1_554 S
C277 N276 1.351 . S
C277 C278 1.434 . S
C278 C269 1.429 . S
C278 N275 1.350 . S
C278 C277 1.434 . S
C279 C280 1.369 . S
C279 C281 1.419 1_554 S
C279 H283 0.930 . S
C280 C279 1.369 . S
C280 C289 1.429 1_554 S
C281 C279 1.419 1_556 S
C281 C282 1.363 . S
C281 H284 0.929 . S
C282 C281 1.363 . S
C282 C288 1.428 . S
H283 C279 0.930 . S
H284 C281 0.929 . S
S285 N286 1.613 . S
S285 N287 1.610 . S
N286 S285 1.613 . S
N286 C289 1.350 . S
N287 S285 1.610 . S
N287 C288 1.351 . S
C288 C282 1.428 . S
C288 N287 1.351 . S
C288 C289 1.434 . S
C289 C280 1.429 1_556 S
C289 N286 1.350 . S
C289 C288 1.434 . S
C290 C291 1.369 . S
C290 C292 1.419 . S
C290 H294 0.930 . S
C291 C290 1.369 . S
C291 C300 1.429 1_556 S
C292 C290 1.419 . S
C292 C293 1.363 1_556 S
C292 H295 0.929 . S
C293 C292 1.363 1_554 S
C293 C299 1.428 . S
H294 C290 0.930 . S
H295 C292 0.929 . S
S296 N297 1.613 . S
S296 N298 1.610 . S
N297 S296 1.613 . S
N297 C300 1.350 . S
N298 S296 1.610 . S
N298 C299 1.351 . S
C299 C293 1.428 . S
C299 N298 1.351 . S
C299 C300 1.434 . S
C300 C291 1.429 1_554 S
C300 N297 1.350 . S
C300 C299 1.434 . S
C301 C302 1.372 . S
C301 C303 1.408 1_554 S
C301 H305 0.939 . S
C302 C301 1.372 . S
C302 C311 1.429 1_554 S
C303 C301 1.408 1_556 S
C303 C304 1.363 . S
C303 H306 0.929 . S
C304 C303 1.363 . S
C304 C310 1.428 . S
H305 C301 0.939 . S
H306 C303 0.929 . S
S307 N308 1.613 . S
S307 N309 1.610 . S
N308 S307 1.613 . S
N308 C311 1.350 . S
N309 S307 1.610 . S
N309 C310 1.351 . S
C310 C304 1.428 . S
C310 N309 1.351 . S
C310 C311 1.434 . S
C311 C302 1.429 1_556 S
C311 N308 1.350 . S
C311 C310 1.434 . S
C312 C313 1.369 . S
C312 C314 1.419 . S
C312 H316 0.930 . S
C313 C312 1.369 . S
C313 C322 1.429 . S
C314 C312 1.419 . S
C314 C315 1.363 . S
C314 H317 0.929 . S
C315 C314 1.363 . S
C315 C321 1.428 . S
H316 C312 0.930 . S
H317 C314 0.929 . S
S318 N319 1.613 . S
S318 N320 1.610 . S
N319 S318 1.613 . S
N319 C322 1.350 . S
N320 S318 1.610 . S
N320 C321 1.351 . S
C321 C315 1.428 . S
C321 N320 1.351 . S
C321 C322 1.434 . S
C322 C313 1.429 . S
C322 N319 1.350 . S
C322 C321 1.434 . S
C323 C324 1.369 . S
C323 C325 1.419 . S
C323 H327 0.930 . S
C324 C323 1.369 . S
C324 C333 1.429 . S
C325 C323 1.419 . S
C325 C326 1.363 . S
C325 H328 0.929 . S
C326 C325 1.363 . S
C326 C332 1.428 . S
H327 C323 0.930 . S
H328 C325 0.929 . S
S329 N330 1.613 . S
S329 N331 1.610 . S
N330 S329 1.613 . S
N330 C333 1.350 . S
N331 S329 1.610 . S
N331 C332 1.351 . S
C332 C326 1.428 . S
C332 N331 1.351 . S
C332 C333 1.434 . S
C333 C324 1.429 . S
C333 N330 1.350 . S
C333 C332 1.434 . S
C334 C335 1.369 . S
C334 C336 1.419 . S
C334 H338 0.930 . S
C335 C334 1.369 . S
C335 C344 1.429 . S
C336 C334 1.419 . S
C336 C337 1.363 . S
C336 H339 0.929 . S
C337 C336 1.363 . S
C337 C343 1.428 . S
H338 C334 0.930 . S
H339 C336 0.929 . S
S340 N341 1.613 . S
S340 N342 1.610 . S
N341 S340 1.613 . S
N341 C344 1.350 . S
N342 S340 1.610 . S
N342 C343 1.351 . S
C343 C337 1.428 . S
C343 N342 1.351 . S
C343 C344 1.434 . S
C344 C335 1.429 . S
C344 N341 1.350 . S
C344 C343 1.434 . S
C345 C346 1.369 . S
C345 C347 1.419 . S
C345 H349 0.930 . S
C346 C345 1.369 . S
C346 C355 1.429 . S
C347 C345 1.419 . S
C347 C348 1.363 . S
C347 H350 0.929 . S
C348 C347 1.363 . S
C348 C354 1.428 . S
H349 C345 0.930 . S
H350 C347 0.929 . S
S351 N352 1.613 . S
S351 N353 1.610 . S
N352 S351 1.613 . S
N352 C355 1.350 . S
N353 S351 1.610 . S
N353 C354 1.351 . S
C354 C348 1.428 . S
C354 N353 1.351 . S
C354 C355 1.434 . S
C355 C346 1.429 . S
C355 N352 1.350 . S
C355 C354 1.434 . S
C356 C357 1.369 . S
C356 C358 1.419 . S
C356 H360 0.930 . S
C357 C356 1.369 . S
C357 C366 1.429 . S
C358 C356 1.419 . S
C358 C359 1.363 . S
C358 H361 0.929 . S
C359 C358 1.363 . S
C359 C365 1.428 . S
H360 C356 0.930 . S
H361 C358 0.929 . S
S362 N363 1.613 . S
S362 N364 1.610 . S
N363 S362 1.613 . S
N363 C366 1.350 . S
N364 S362 1.610 . S
N364 C365 1.351 . S
C365 C359 1.428 . S
C365 N364 1.351 . S
C365 C366 1.434 . S
C366 C357 1.429 . S
C366 N363 1.350 . S
C366 C365 1.434 . S
C367 C368 1.369 . S
C367 C369 1.419 . S
C367 H371 0.930 . S
C368 C367 1.369 . S
C368 C377 1.429 . S
C369 C367 1.419 . S
C369 C370 1.363 . S
C369 H372 0.929 . S
C370 C369 1.363 . S
C370 C376 1.428 . S
H371 C367 0.930 . S
H372 C369 0.929 . S
S373 N374 1.613 . S
S373 N375 1.610 . S
N374 S373 1.613 . S
N374 C377 1.350 . S
N375 S373 1.610 . S
N375 C376 1.351 . S
C376 C370 1.428 . S
C376 N375 1.351 . S
C376 C377 1.434 . S
C377 C368 1.429 . S
C377 N374 1.350 . S
C377 C376 1.434 . S
C378 C379 1.369 . S
C378 C380 1.419 . S
C378 H382 0.930 . S
C379 C378 1.369 . S
C379 C388 1.429 . S
C380 C378 1.419 . S
C380 C381 1.363 . S
C380 H383 0.929 . S
C381 C380 1.363 . S
C381 C387 1.428 . S
H382 C378 0.930 . S
H383 C380 0.929 . S
S384 N385 1.613 . S
S384 N386 1.610 . S
N385 S384 1.613 . S
N385 C388 1.350 . S
N386 S384 1.610 . S
N386 C387 1.351 . S
C387 C381 1.428 . S
C387 N386 1.351 . S
C387 C388 1.434 . S
C388 C379 1.429 . S
C388 N385 1.350 . S
C388 C387 1.434 . S
C389 C390 1.369 . S
C389 C391 1.419 . S
C389 H393 0.930 . S
C390 C389 1.369 . S
C390 C399 1.429 . S
C391 C389 1.419 . S
C391 C392 1.363 . S
C391 H394 0.929 . S
C392 C391 1.363 . S
C392 C398 1.428 . S
H393 C389 0.930 . S
H394 C391 0.929 . S
S395 N396 1.613 . S
S395 N397 1.610 . S
N396 S395 1.613 . S
N396 C399 1.350 . S
N397 S395 1.610 . S
N397 C398 1.351 . S
C398 C392 1.428 . S
C398 N397 1.351 . S
C398 C399 1.434 . S
C399 C390 1.429 . S
C399 N396 1.350 . S
C399 C398 1.434 . S
C400 C401 1.369 . S
C400 C402 1.419 . S
C400 H404 0.930 . S
C401 C400 1.369 . S
C401 C410 1.429 . S
C402 C400 1.419 . S
C402 C403 1.363 . S
C402 H405 0.929 . S
C403 C402 1.363 . S
C403 C409 1.428 . S
H404 C400 0.930 . S
H405 C402 0.929 . S
S406 N407 1.613 . S
S406 N408 1.610 . S
N407 S406 1.613 . S
N407 C410 1.350 . S
N408 S406 1.610 . S
N408 C409 1.351 . S
C409 C403 1.428 . S
C409 N408 1.351 . S
C409 C410 1.434 . S
C410 C401 1.429 . S
C410 N407 1.350 . S
C410 C409 1.434 . S
C411 C412 1.369 . S
C411 C413 1.419 . S
C411 H415 0.930 . S
C412 C411 1.369 . S
C412 C421 1.429 . S
C413 C411 1.419 . S
C413 C414 1.363 . S
C413 H416 0.929 . S
C414 C413 1.363 . S
C414 C420 1.428 . S
H415 C411 0.930 . S
H416 C413 0.929 . S
S417 N418 1.613 . S
S417 N419 1.610 . S
N418 S417 1.613 . S
N418 C421 1.350 . S
N419 S417 1.610 . S
N419 C420 1.351 . S
C420 C414 1.428 . S
C420 N419 1.351 . S
C420 C421 1.434 . S
C421 C412 1.429 . S
C421 N418 1.350 . S
C421 C420 1.434 . S
C422 C423 1.369 . S
C422 C424 1.419 . S
C422 H426 0.930 . S
C423 C422 1.369 . S
C423 C432 1.429 . S
C424 C422 1.419 . S
C424 C425 1.363 . S
C424 H427 0.929 . S
C425 C424 1.363 . S
C425 C431 1.428 . S
H426 C422 0.930 . S
H427 C424 0.929 . S
S428 N429 1.613 . S
S428 N430 1.610 . S
N429 S428 1.613 . S
N429 C432 1.350 . S
N430 S428 1.610 . S
N430 C431 1.351 . S
C431 C425 1.428 . S
C431 N430 1.351 . S
C431 C432 1.434 . S
C432 C423 1.429 . S
C432 N429 1.350 . S
C432 C431 1.434 . S
C433 C434 1.369 . S
C433 C435 1.419 . S
C433 H437 0.930 . S
C434 C433 1.369 . S
C434 C443 1.429 . S
C435 C433 1.419 . S
C435 C436 1.363 . S
C435 H438 0.929 . S
C436 C435 1.363 . S
C436 C442 1.428 . S
H437 C433 0.930 . S
H438 C435 0.929 . S
S439 N440 1.613 . S
S439 N441 1.610 . S
N440 S439 1.613 . S
N440 C443 1.350 . S
N441 S439 1.610 . S
N441 C442 1.351 . S
C442 C436 1.428 . S
C442 N441 1.351 . S
C442 C443 1.434 . S
C443 C434 1.429 . S
C443 N440 1.350 . S
C443 C442 1.434 . S
C444 C445 1.369 . S
C444 C446 1.419 . S
C444 H448 0.930 . S
C445 C444 1.369 . S
C445 C454 1.429 . S
C446 C444 1.419 . S
C446 C447 1.363 . S
C446 H449 0.929 . S
C447 C446 1.363 . S
C447 C453 1.428 . S
H448 C444 0.930 . S
H449 C446 0.929 . S
S450 N451 1.613 . S
S450 N452 1.610 . S
N451 S450 1.613 . S
N451 C454 1.350 . S
N452 S450 1.610 . S
N452 C453 1.351 . S
C453 C447 1.428 . S
C453 N452 1.351 . S
C453 C454 1.434 . S
C454 C445 1.429 . S
C454 N451 1.350 . S
C454 C453 1.434 . S
C455 C456 1.369 . S
C455 C457 1.419 . S
C455 H459 0.930 . S
C456 C455 1.369 . S
C456 C465 1.429 . S
C457 C455 1.419 . S
C457 C458 1.363 . S
C457 H460 0.929 . S
C458 C457 1.363 . S
C458 C464 1.428 . S
H459 C455 0.930 . S
H460 C457 0.929 . S
S461 N462 1.613 . S
S461 N463 1.610 . S
N462 S461 1.613 . S
N462 C465 1.350 . S
N463 S461 1.610 . S
N463 C464 1.351 . S
C464 C458 1.428 . S
C464 N463 1.351 . S
C464 C465 1.434 . S
C465 C456 1.429 . S
C465 N462 1.350 . S
C465 C464 1.434 . S
C466 C467 1.369 . S
C466 C468 1.419 . S
C466 H470 0.930 . S
C467 C466 1.369 . S
C467 C476 1.429 . S
C468 C466 1.419 . S
C468 C469 1.363 . S
C468 H471 0.929 . S
C469 C468 1.363 . S
C469 C475 1.428 . S
H470 C466 0.930 . S
H471 C468 0.929 . S
S472 N473 1.613 . S
S472 N474 1.610 . S
N473 S472 1.613 . S
N473 C476 1.350 . S
N474 S472 1.610 . S
N474 C475 1.351 . S
C475 C469 1.428 . S
C475 N474 1.351 . S
C475 C476 1.434 . S
C476 C467 1.429 . S
C476 N473 1.350 . S
C476 C475 1.434 . S
C477 C478 1.369 . S
C477 C479 1.419 . S
C477 H481 0.930 . S
C478 C477 1.369 . S
C478 C487 1.429 . S
C479 C477 1.419 . S
C479 C480 1.363 . S
C479 H482 0.929 . S
C480 C479 1.363 . S
C480 C486 1.428 . S
H481 C477 0.930 . S
H482 C479 0.929 . S
S483 N484 1.613 . S
S483 N485 1.610 . S
N484 S483 1.613 . S
N484 C487 1.350 . S
N485 S483 1.610 . S
N485 C486 1.351 . S
C486 C480 1.428 . S
C486 N485 1.351 . S
C486 C487 1.434 . S
C487 C478 1.429 . S
C487 N484 1.350 . S
C487 C486 1.434 . S
C488 C489 1.369 . S
C488 C490 1.419 1_565 S
C488 H492 0.930 . S
C489 C488 1.369 . S
C489 C498 1.429 1_655 S
C490 C488 1.419 1_545 S
C490 C491 1.363 1_655 S
C490 H493 0.929 . S
C491 C490 1.363 1_455 S
C491 C497 1.428 . S
H492 C488 0.930 . S
H493 C490 0.929 . S
S494 N495 1.613 . S
S494 N496 1.610 . S
N495 S494 1.613 . S
N495 C498 1.350 . S
N496 S494 1.610 . S
N496 C497 1.351 1_565 S
C497 C491 1.428 . S
C497 N496 1.351 1_545 S
C497 C498 1.434 1_545 S
C498 C489 1.429 1_455 S
C498 N495 1.350 . S
C498 C497 1.434 1_565 S
C499 C500 1.369 1_565 S
C499 C501 1.419 1_655 S
C499 H503 0.930 . S
C500 C499 1.369 1_545 S
C500 C509 1.429 . S
C501 C499 1.419 1_455 S
C501 C502 1.363 . S
C501 H504 0.929 . S
C502 C501 1.363 . S
C502 C508 1.428 1_565 S
H503 C499 0.930 . S
H504 C501 0.929 . S
S505 N506 1.613 1_455 S
S505 N507 1.610 . S
N506 S505 1.613 1_655 S
N506 C509 1.350 . S
N507 S505 1.610 . S
N507 C508 1.351 . S
C508 C502 1.428 1_545 S
C508 N507 1.351 . S
C508 C509 1.434 1_455 S
C509 C500 1.429 . S
C509 N506 1.350 . S
C509 C508 1.434 1_655 S
C510 C511 1.369 . S
C510 C512 1.419 . S
C510 H514 0.930 . S
C511 C510 1.369 . S
C511 C520 1.429 1_455 S
C512 C510 1.419 . S
C512 C513 1.363 1_455 S
C512 H515 0.929 . S
C513 C512 1.363 1_655 S
C513 C519 1.428 . S
H514 C510 0.930 . S
H515 C512 0.929 . S
S516 N517 1.613 . S
S516 N518 1.610 . S
N517 S516 1.613 . S
N517 C520 1.350 . S
N518 S516 1.610 . S
N518 C519 1.351 . S
C519 C513 1.428 . S
C519 N518 1.351 . S
C519 C520 1.434 . S
C520 C511 1.429 1_655 S
C520 N517 1.350 . S
C520 C519 1.434 . S
C521 C522 1.369 1_545 S
C521 C523 1.419 . S
C521 H525 0.930 . S
C522 C521 1.369 1_565 S
C522 C531 1.429 . S
C523 C521 1.419 . S
C523 C524 1.363 . S
C523 H526 0.929 . S
C524 C523 1.363 . S
C524 C530 1.428 1_545 S
H525 C521 0.930 . S
H526 C523 0.929 . S
S527 N528 1.613 . S
S527 N529 1.610 . S
N528 S527 1.613 . S
N528 C531 1.350 . S
N529 S527 1.610 . S
N529 C530 1.351 . S
C530 C524 1.428 1_565 S
C530 N529 1.351 . S
C530 C531 1.434 . S
C531 C522 1.429 . S
C531 N528 1.350 . S
C531 C530 1.434 . S
C532 C533 1.369 . S
C532 C534 1.419 . S
C532 H536 0.930 . S
C533 C532 1.369 . S
C533 C542 1.429 . S
C534 C532 1.419 . S
C534 C535 1.363 . S
C534 H537 0.929 . S
C535 C534 1.363 . S
C535 C541 1.428 . S
H536 C532 0.930 . S
H537 C534 0.929 . S
S538 N539 1.613 . S
S538 N540 1.610 . S
N539 S538 1.613 . S
N539 C542 1.350 . S
N540 S538 1.610 . S
N540 C541 1.351 . S
C541 C535 1.428 . S
C541 N540 1.351 . S
C541 C542 1.434 . S
C542 C533 1.429 . S
C542 N539 1.350 . S
C542 C541 1.434 . S
C543 C544 1.369 . S
C543 C545 1.419 . S
C543 H547 0.930 . S
C544 C543 1.369 . S
C544 C553 1.429 . S
C545 C543 1.419 . S
C545 C546 1.363 . S
C545 H548 0.929 . S
C546 C545 1.363 . S
C546 C552 1.428 . S
H547 C543 0.930 . S
H548 C545 0.929 . S
S549 N550 1.613 . S
S549 N551 1.610 . S
N550 S549 1.613 . S
N550 C553 1.350 . S
N551 S549 1.610 . S
N551 C552 1.351 . S
C552 C546 1.428 . S
C552 N551 1.351 . S
C552 C553 1.434 . S
C553 C544 1.429 . S
C553 N550 1.350 . S
C553 C552 1.434 . S
C554 C555 1.369 . S
C554 C556 1.419 1_545 S
C554 H558 0.930 . S
C555 C554 1.369 . S
C555 C564 1.429 . S
C556 C554 1.419 1_565 S
C556 C557 1.363 . S
C556 H559 0.929 . S
C557 C556 1.363 . S
C557 C563 1.428 . S
H558 C554 0.930 . S
H559 C556 0.929 . S
S560 N561 1.600 1_565 S
S560 N562 1.624 . S
N561 S560 1.600 1_545 S
N561 C564 1.350 . S
N562 S560 1.624 . S
N562 C563 1.351 . S
C563 C557 1.428 . S
C563 N562 1.351 . S
C563 C564 1.434 1_565 S
C564 C555 1.429 . S
C564 N561 1.350 . S
C564 C563 1.434 1_545 S
C565 C566 1.369 . S
C565 C567 1.419 1_655 S
C565 H569 0.930 . S
C566 C565 1.369 . S
C566 C575 1.436 . S
C567 C565 1.419 1_455 S
C567 C568 1.363 . S
C567 H570 0.929 . S
C568 C567 1.363 . S
C568 C574 1.428 . S
H569 C565 0.930 . S
H570 C567 0.929 . S
S571 N572 1.613 . S
S571 N573 1.610 . S
N572 S571 1.613 . S
N572 C575 1.349 1_455 S
N573 S571 1.610 . S
N573 C574 1.351 . S
C574 C568 1.428 . S
C574 N573 1.351 . S
C574 C575 1.427 1_455 S
C575 C566 1.436 . S
C575 N572 1.349 1_655 S
C575 C574 1.427 1_655 S
C225 C8 1.322 . S
C227 C163 1.378 . S
C236 C121 1.380 . S
C238 C22 1.324 . S
C247 C135 1.375 . S
C249 C36 1.331 . S
C258 C149 1.382 . S
C260 C50 1.331 . S
C269 C79 1.381 1_545 S
C271 C64 1.327 . S
C280 C78 1.325 . S
C282 C93 1.380 1_455 S
C291 C92 1.332 . S
C293 C107 1.381 1_565 S
C302 C106 1.324 . S
C304 C65 1.380 1_655 S
C313 C120 1.334 . S
C315 C51 1.380 1_565 S
C324 C9 1.381 1_655 S
C326 C134 1.326 . S
C335 C23 1.378 1_545 S
C337 C148 1.333 . S
C346 C37 1.374 1_455 S
C348 C162 1.326 . S
C357 C191 1.375 . S
C359 C176 1.324 . S
C368 C190 1.329 . S
C370 C205 1.381 . S
C379 C219 1.377 . S
C381 C204 1.324 . S
C390 C177 1.382 . S
C392 C218 1.329 . S
C401 C202 1.486 . S
C403 C6 1.484 . S
C412 C216 1.485 . S
C414 C20 1.483 . S
C423 C174 1.483 . S
C425 C34 1.485 . S
C434 C48 1.483 . S
C436 C188 1.482 . S
C445 C62 1.482 . S
C447 C146 1.482 . S
C456 C160 1.485 . S
C458 C76 1.484 . S
C467 C90 1.486 . S
C469 C118 1.484 . S
C478 C104 1.481 . S
C480 C132 1.482 . S
C489 C35 1.462 . S
C491 C7 1.465 . S
C500 C49 1.466 . S
C502 C21 1.465 . S
C511 C63 1.464 . S
C513 C91 1.466 . S
C522 C77 1.466 . S
C524 C105 1.463 . S
C533 C147 1.464 . S
C535 C119 1.462 . S
C544 C133 1.461 . S
C546 C161 1.464 . S
C555 C203 1.462 . S
C557 C175 1.463 . S
C566 C189 1.466 . S
C568 C217 1.463 . S
