# Generated by pormake.
# Topology uml, (4)-cn, num edge types: 1
# Building blocks:
#     Node 0, Type 0, BuildingBlock: NAWXER_clean_sbu_0, # of connection points: 4
#     Node 1, Type 0, BuildingBlock: NAWXER_clean_sbu_0, # of connection points: 4
#     Node 2, Type 0, BuildingBlock: NAWXER_clean_sbu_0, # of connection points: 4
#     Node 3, Type 0, BuildingBlock: NAWXER_clean_sbu_0, # of connection points: 4
#     Node 4, Type 0, BuildingBlock: NAWXER_clean_sbu_0, # of connection points: 4
#     Node 5, Type 0, BuildingBlock: NAWXER_clean_sbu_0, # of connection points: 4
#     Node 6, Type 0, BuildingBlock: NAWXER_clean_sbu_0, # of connection points: 4
#     Node 7, Type 0, BuildingBlock: NAWXER_clean_sbu_0, # of connection points: 4
#     Node 8, Type 0, BuildingBlock: NAWXER_clean_sbu_0, # of connection points: 4
#     Node 9, Type 0, BuildingBlock: NAWXER_clean_sbu_0, # of connection points: 4
#     Node 10, Type 0, BuildingBlock: NAWXER_clean_sbu_0, # of connection points: 4
#     Node 11, Type 0, BuildingBlock: NAWXER_clean_sbu_0, # of connection points: 4
#     Node 12, Type 0, BuildingBlock: NAWXER_clean_sbu_0, # of connection points: 4
#     Node 13, Type 0, BuildingBlock: NAWXER_clean_sbu_0, # of connection points: 4
#     Node 14, Type 0, BuildingBlock: NAWXER_clean_sbu_0, # of connection points: 4
#     Node 15, Type 0, BuildingBlock: NAWXER_clean_sbu_0, # of connection points: 4
#     Node 16, Type 0, BuildingBlock: NAWXER_clean_sbu_0, # of connection points: 4
#     Node 17, Type 0, BuildingBlock: NAWXER_clean_sbu_0, # of connection points: 4
#     Node 18, Type 0, BuildingBlock: NAWXER_clean_sbu_0, # of connection points: 4
#     Node 19, Type 0, BuildingBlock: NAWXER_clean_sbu_0, # of connection points: 4
#     Node 20, Type 0, BuildingBlock: NAWXER_clean_sbu_0, # of connection points: 4
#     Node 21, Type 0, BuildingBlock: NAWXER_clean_sbu_0, # of connection points: 4
#     Node 22, Type 0, BuildingBlock: NAWXER_clean_sbu_0, # of connection points: 4
#     Node 23, Type 0, BuildingBlock: NAWXER_clean_sbu_0, # of connection points: 4
#     Node 24, Type 0, BuildingBlock: NAWXER_clean_sbu_0, # of connection points: 4
#     Node 25, Type 0, BuildingBlock: NAWXER_clean_sbu_0, # of connection points: 4
#     Node 26, Type 0, BuildingBlock: NAWXER_clean_sbu_0, # of connection points: 4
#     Node 27, Type 0, BuildingBlock: NAWXER_clean_sbu_0, # of connection points: 4
#     Node 28, Type 0, BuildingBlock: NAWXER_clean_sbu_0, # of connection points: 4
#     Node 29, Type 0, BuildingBlock: NAWXER_clean_sbu_0, # of connection points: 4
#     Node 30, Type 0, BuildingBlock: NAWXER_clean_sbu_0, # of connection points: 4
#     Node 31, Type 0, BuildingBlock: NAWXER_clean_sbu_0, # of connection points: 4
#     Node 32, Type 0, BuildingBlock: NAWXER_clean_sbu_0, # of connection points: 4
#     Node 33, Type 0, BuildingBlock: NAWXER_clean_sbu_0, # of connection points: 4
#     Node 34, Type 0, BuildingBlock: NAWXER_clean_sbu_0, # of connection points: 4
#     Node 35, Type 0, BuildingBlock: NAWXER_clean_sbu_0, # of connection points: 4
#     Edge 36, Type (0, 0), BuildingBlock: ZUJKAS_clean_linker_0, # of connection points: 2
#     Edge 37, Type (0, 0), BuildingBlock: ZUJKAS_clean_linker_0, # of connection points: 2
#     Edge 38, Type (0, 0), BuildingBlock: ZUJKAS_clean_linker_0, # of connection points: 2
#     Edge 39, Type (0, 0), BuildingBlock: ZUJKAS_clean_linker_0, # of connection points: 2
#     Edge 40, Type (0, 0), BuildingBlock: ZUJKAS_clean_linker_0, # of connection points: 2
#     Edge 41, Type (0, 0), BuildingBlock: ZUJKAS_clean_linker_0, # of connection points: 2
#     Edge 42, Type (0, 0), BuildingBlock: ZUJKAS_clean_linker_0, # of connection points: 2
#     Edge 43, Type (0, 0), BuildingBlock: ZUJKAS_clean_linker_0, # of connection points: 2
#     Edge 44, Type (0, 0), BuildingBlock: ZUJKAS_clean_linker_0, # of connection points: 2
#     Edge 45, Type (0, 0), BuildingBlock: ZUJKAS_clean_linker_0, # of connection points: 2
#     Edge 46, Type (0, 0), BuildingBlock: ZUJKAS_clean_linker_0, # of connection points: 2
#     Edge 47, Type (0, 0), BuildingBlock: ZUJKAS_clean_linker_0, # of connection points: 2
#     Edge 48, Type (0, 0), BuildingBlock: ZUJKAS_clean_linker_0, # of connection points: 2
#     Edge 49, Type (0, 0), BuildingBlock: ZUJKAS_clean_linker_0, # of connection points: 2
#     Edge 50, Type (0, 0), BuildingBlock: ZUJKAS_clean_linker_0, # of connection points: 2
#     Edge 51, Type (0, 0), BuildingBlock: ZUJKAS_clean_linker_0, # of connection points: 2
#     Edge 52, Type (0, 0), BuildingBlock: ZUJKAS_clean_linker_0, # of connection points: 2
#     Edge 53, Type (0, 0), BuildingBlock: ZUJKAS_clean_linker_0, # of connection points: 2
#     Edge 54, Type (0, 0), BuildingBlock: ZUJKAS_clean_linker_0, # of connection points: 2
#     Edge 55, Type (0, 0), BuildingBlock: ZUJKAS_clean_linker_0, # of connection points: 2
#     Edge 56, Type (0, 0), BuildingBlock: ZUJKAS_clean_linker_0, # of connection points: 2
#     Edge 57, Type (0, 0), BuildingBlock: ZUJKAS_clean_linker_0, # of connection points: 2
#     Edge 58, Type (0, 0), BuildingBlock: ZUJKAS_clean_linker_0, # of connection points: 2
#     Edge 59, Type (0, 0), BuildingBlock: ZUJKAS_clean_linker_0, # of connection points: 2
#     Edge 60, Type (0, 0), BuildingBlock: ZUJKAS_clean_linker_0, # of connection points: 2
#     Edge 61, Type (0, 0), BuildingBlock: ZUJKAS_clean_linker_0, # of connection points: 2
#     Edge 62, Type (0, 0), BuildingBlock: ZUJKAS_clean_linker_0, # of connection points: 2
#     Edge 63, Type (0, 0), BuildingBlock: ZUJKAS_clean_linker_0, # of connection points: 2
#     Edge 64, Type (0, 0), BuildingBlock: ZUJKAS_clean_linker_0, # of connection points: 2
#     Edge 65, Type (0, 0), BuildingBlock: ZUJKAS_clean_linker_0, # of connection points: 2
#     Edge 66, Type (0, 0), BuildingBlock: ZUJKAS_clean_linker_0, # of connection points: 2
#     Edge 67, Type (0, 0), BuildingBlock: ZUJKAS_clean_linker_0, # of connection points: 2
#     Edge 68, Type (0, 0), BuildingBlock: ZUJKAS_clean_linker_0, # of connection points: 2
#     Edge 69, Type (0, 0), BuildingBlock: ZUJKAS_clean_linker_0, # of connection points: 2
#     Edge 70, Type (0, 0), BuildingBlock: ZUJKAS_clean_linker_0, # of connection points: 2
#     Edge 71, Type (0, 0), BuildingBlock: ZUJKAS_clean_linker_0, # of connection points: 2
#     Edge 72, Type (0, 0), BuildingBlock: ZUJKAS_clean_linker_0, # of connection points: 2
#     Edge 73, Type (0, 0), BuildingBlock: ZUJKAS_clean_linker_0, # of connection points: 2
#     Edge 74, Type (0, 0), BuildingBlock: ZUJKAS_clean_linker_0, # of connection points: 2
#     Edge 75, Type (0, 0), BuildingBlock: ZUJKAS_clean_linker_0, # of connection points: 2
#     Edge 76, Type (0, 0), BuildingBlock: ZUJKAS_clean_linker_0, # of connection points: 2
#     Edge 77, Type (0, 0), BuildingBlock: ZUJKAS_clean_linker_0, # of connection points: 2
#     Edge 78, Type (0, 0), BuildingBlock: ZUJKAS_clean_linker_0, # of connection points: 2
#     Edge 79, Type (0, 0), BuildingBlock: ZUJKAS_clean_linker_0, # of connection points: 2
#     Edge 80, Type (0, 0), BuildingBlock: ZUJKAS_clean_linker_0, # of connection points: 2
#     Edge 81, Type (0, 0), BuildingBlock: ZUJKAS_clean_linker_0, # of connection points: 2
#     Edge 82, Type (0, 0), BuildingBlock: ZUJKAS_clean_linker_0, # of connection points: 2
#     Edge 83, Type (0, 0), BuildingBlock: ZUJKAS_clean_linker_0, # of connection points: 2
#     Edge 84, Type (0, 0), BuildingBlock: ZUJKAS_clean_linker_0, # of connection points: 2
#     Edge 85, Type (0, 0), BuildingBlock: ZUJKAS_clean_linker_0, # of connection points: 2
#     Edge 86, Type (0, 0), BuildingBlock: ZUJKAS_clean_linker_0, # of connection points: 2
#     Edge 87, Type (0, 0), BuildingBlock: ZUJKAS_clean_linker_0, # of connection points: 2
#     Edge 88, Type (0, 0), BuildingBlock: ZUJKAS_clean_linker_0, # of connection points: 2
#     Edge 89, Type (0, 0), BuildingBlock: ZUJKAS_clean_linker_0, # of connection points: 2
#     Edge 90, Type (0, 0), BuildingBlock: ZUJKAS_clean_linker_0, # of connection points: 2
#     Edge 91, Type (0, 0), BuildingBlock: ZUJKAS_clean_linker_0, # of connection points: 2
#     Edge 92, Type (0, 0), BuildingBlock: ZUJKAS_clean_linker_0, # of connection points: 2
#     Edge 93, Type (0, 0), BuildingBlock: ZUJKAS_clean_linker_0, # of connection points: 2
#     Edge 94, Type (0, 0), BuildingBlock: ZUJKAS_clean_linker_0, # of connection points: 2
#     Edge 95, Type (0, 0), BuildingBlock: ZUJKAS_clean_linker_0, # of connection points: 2
#     Edge 96, Type (0, 0), BuildingBlock: ZUJKAS_clean_linker_0, # of connection points: 2
#     Edge 97, Type (0, 0), BuildingBlock: ZUJKAS_clean_linker_0, # of connection points: 2
#     Edge 98, Type (0, 0), BuildingBlock: ZUJKAS_clean_linker_0, # of connection points: 2
#     Edge 99, Type (0, 0), BuildingBlock: ZUJKAS_clean_linker_0, # of connection points: 2
#     Edge 100, Type (0, 0), BuildingBlock: ZUJKAS_clean_linker_0, # of connection points: 2
#     Edge 101, Type (0, 0), BuildingBlock: ZUJKAS_clean_linker_0, # of connection points: 2
#     Edge 102, Type (0, 0), BuildingBlock: ZUJKAS_clean_linker_0, # of connection points: 2
#     Edge 103, Type (0, 0), BuildingBlock: ZUJKAS_clean_linker_0, # of connection points: 2
#     Edge 104, Type (0, 0), BuildingBlock: ZUJKAS_clean_linker_0, # of connection points: 2
#     Edge 105, Type (0, 0), BuildingBlock: ZUJKAS_clean_linker_0, # of connection points: 2
#     Edge 106, Type (0, 0), BuildingBlock: ZUJKAS_clean_linker_0, # of connection points: 2
#     Edge 107, Type (0, 0), BuildingBlock: ZUJKAS_clean_linker_0, # of connection points: 2
# Relax obj value: 0.036
# Max RMSD: 0.160
# Mean RMSD: 0.157
data_MOF--net-uml--node1-NAWXER_clean_sbu_0--edge1-ZUJKAS_clean_linker_0
_symmetry_space_group_name_H-M    P1
_symmetry_Int_Tables_number       1
_symmetry_cell_setting            triclinic
loop_
_symmetry_equiv_pos_as_xyz
'x, y, z'
_cell_length_a     127.45297
_cell_length_b     127.43762
_cell_length_c     38.144805
_cell_angle_alpha  90.007177
_cell_angle_beta   89.986059
_cell_angle_gamma 119.99895
loop_
_atom_site_label
_atom_site_type_symbol
_atom_site_fract_x
_atom_site_fract_y
_atom_site_fract_z
_atom_type_partial_charge
C0 C 0.3524 0.122 0.17186 0.0
C1 C 0.37099 0.09699 0.15576 0.0
O2 O 0.34446 0.11066 0.1708 0.0
Zn3 Zn 0.34447 0.09369 0.16621 0.0
O4 O 0.36359 0.12526 0.17055 0.0
Zn5 Zn 0.36164 0.10938 0.16683 0.0
O6 O 0.35315 0.10367 0.11576 0.0
O7 O 0.33538 0.08719 0.12372 0.0
O8 O 0.37613 0.10832 0.16109 0.0
O9 O 0.35941 0.0906 0.15735 0.0
O10 O 0.33724 0.08519 0.20914 0.0
O11 O 0.35479 0.10179 0.2179 0.0
C12 C 0.3432 0.09508 0.10317 0.0
C13 C 0.34534 0.09247 0.23012 0.0
C14 C 0.90557 0.24767 0.10498 0.0
C15 C 0.90833 0.25301 0.23176 0.0
O16 O 0.89709 0.24924 0.11739 0.0
Zn17 Zn 0.8915 0.25236 0.16819 0.0
O18 O 0.91342 0.24771 0.12562 0.0
Zn19 Zn 0.90703 0.25057 0.1679 0.0
O20 O 0.88997 0.23378 0.17273 0.0
O21 O 0.87552 0.23851 0.17243 0.0
O22 O 0.91537 0.25169 0.21099 0.0
O23 O 0.8992 0.25342 0.21926 0.0
O24 O 0.89277 0.26795 0.16157 0.0
O25 O 0.91039 0.26868 0.15841 0.0
C26 C 0.87867 0.23051 0.17387 0.0
C27 C 0.90412 0.27401 0.15633 0.0
C28 C 0.75301 0.65842 0.10168 0.0
C29 C 0.74822 0.65611 0.22849 0.0
O30 O 0.75167 0.64844 0.11398 0.0
Zn31 Zn 0.74861 0.63976 0.16492 0.0
O32 O 0.75281 0.66614 0.12232 0.0
Zn33 Zn 0.75034 0.65702 0.16457 0.0
O34 O 0.76721 0.65677 0.16881 0.0
O35 O 0.76237 0.63755 0.16889 0.0
O36 O 0.74942 0.66438 0.20758 0.0
O37 O 0.74775 0.64652 0.2161 0.0
O38 O 0.73302 0.62541 0.15877 0.0
O39 O 0.73219 0.64224 0.15586 0.0
C40 C 0.77042 0.64869 0.16998 0.0
C41 C 0.72689 0.63065 0.15389 0.0
C42 C 0.12336 0.35281 0.32772 0.0
C43 C 0.09614 0.36894 0.34236 0.0
O44 O 0.11222 0.34438 0.32878 0.0
Zn45 Zn 0.09472 0.34312 0.33253 0.0
O46 O 0.12594 0.36381 0.32847 0.0
Zn47 Zn 0.1096 0.36083 0.33199 0.0
O48 O 0.1041 0.35234 0.38314 0.0
O49 O 0.0886 0.3339 0.37499 0.0
O50 O 0.10753 0.37467 0.33755 0.0
O51 O 0.09033 0.35731 0.34071 0.0
O52 O 0.08679 0.33538 0.28942 0.0
O53 O 0.10208 0.35383 0.28097 0.0
C54 C 0.096 0.3421 0.39565 0.0
C55 C 0.09339 0.34392 0.26857 0.0
C56 C 0.65934 0.75332 0.39659 0.0
C57 C 0.65796 0.74926 0.26947 0.0
O58 O 0.6493 0.75161 0.3837 0.0
Zn59 Zn 0.64101 0.74887 0.33235 0.0
O60 O 0.66746 0.75378 0.37624 0.0
Zn61 Zn 0.6585 0.75111 0.33347 0.0
O62 O 0.65782 0.7677 0.32965 0.0
O63 O 0.63851 0.76251 0.32891 0.0
O64 O 0.66622 0.75063 0.29066 0.0
O65 O 0.64818 0.74845 0.28153 0.0
O66 O 0.62688 0.73307 0.33743 0.0
O67 O 0.64397 0.73275 0.34124 0.0
C68 C 0.6496 0.77072 0.32839 0.0
C69 C 0.63235 0.72718 0.34253 0.0
C70 C 0.23038 0.87815 0.32841 0.0
C71 C 0.2739 0.90431 0.34275 0.0
O72 O 0.23341 0.88939 0.32952 0.0
Zn73 Zn 0.25006 0.90666 0.33322 0.0
O74 O 0.23857 0.87525 0.32904 0.0
Zn75 Zn 0.2522 0.89138 0.33245 0.0
O76 O 0.24935 0.89697 0.38371 0.0
O77 O 0.24738 0.91306 0.37572 0.0
O78 O 0.26794 0.89294 0.33775 0.0
O79 O 0.26839 0.91042 0.34129 0.0
O80 O 0.25059 0.91481 0.29028 0.0
O81 O 0.25268 0.89889 0.28138 0.0
C82 C 0.24768 0.90537 0.3963 0.0
C83 C 0.25192 0.90787 0.26918 0.0
C84 C 0.64972 0.87924 0.83204 0.0
C85 C 0.63185 0.90489 0.8482 0.0
O86 O 0.63859 0.87618 0.833 0.0
Zn87 Zn 0.64082 0.8922 0.83712 0.0
O88 O 0.65781 0.89051 0.83348 0.0
Zn89 Zn 0.65819 0.90763 0.83812 0.0
O90 O 0.6672 0.91393 0.88083 0.0
O91 O 0.6492 0.8977 0.88834 0.0
O92 O 0.64345 0.9111 0.84669 0.0
O93 O 0.62653 0.89354 0.84284 0.0
O94 O 0.64778 0.89998 0.78633 0.0
O95 O 0.66571 0.91601 0.7953 0.0
C96 C 0.65921 0.90612 0.90118 0.0
C97 C 0.65744 0.90907 0.7742 0.0
C98 C 0.09436 0.75291 0.90041 0.0
C99 C 0.0917 0.7483 0.77356 0.0
O100 O 0.08634 0.75263 0.88003 0.0
Zn101 Zn 0.09295 0.75025 0.83751 0.0
O102 O 0.103 0.75163 0.88782 0.0
Zn103 Zn 0.10853 0.74862 0.83671 0.0
O104 O 0.12447 0.76245 0.83273 0.0
O105 O 0.11001 0.76719 0.83338 0.0
O106 O 0.10086 0.74786 0.78571 0.0
O107 O 0.08462 0.7494 0.79468 0.0
O108 O 0.08967 0.73213 0.84572 0.0
O109 O 0.10736 0.73304 0.84253 0.0
C110 C 0.12132 0.77046 0.83202 0.0
C111 C 0.096 0.72687 0.84741 0.0
C112 C 0.25337 0.3437 0.77399 0.0
C113 C 0.24836 0.34109 0.90069 0.0
O114 O 0.25287 0.33571 0.79484 0.0
Zn115 Zn 0.25124 0.34264 0.83787 0.0
O116 O 0.25309 0.35292 0.78635 0.0
Zn117 Zn 0.25198 0.35949 0.83747 0.0
O118 O 0.26725 0.3743 0.84379 0.0
O119 O 0.26895 0.35797 0.84695 0.0
O120 O 0.24919 0.35084 0.88825 0.0
O121 O 0.24912 0.33363 0.88023 0.0
O122 O 0.23386 0.34189 0.83344 0.0
O123 O 0.23771 0.36081 0.83357 0.0
C124 C 0.27378 0.36951 0.8489 0.0
C125 C 0.23009 0.34954 0.83239 0.0
C126 C 0.90673 0.65877 0.60513 0.0
C127 C 0.90856 0.65689 0.73211 0.0
O128 O 0.91465 0.66648 0.62578 0.0
Zn129 Zn 0.90776 0.65752 0.66814 0.0
O130 O 0.89796 0.64889 0.61746 0.0
Zn131 Zn 0.89208 0.64039 0.66848 0.0
O132 O 0.87617 0.63834 0.67123 0.0
O133 O 0.8907 0.65751 0.67133 0.0
O134 O 0.89931 0.6474 0.71978 0.0
O135 O 0.91599 0.66489 0.7112 0.0
O136 O 0.91095 0.64262 0.6606 0.0
O137 O 0.89321 0.62591 0.66352 0.0
C138 C 0.87937 0.64951 0.67205 0.0
C139 C 0.90459 0.63104 0.65906 0.0
C140 C 0.34333 0.25144 0.73304 0.0
C141 C 0.34184 0.24725 0.6059 0.0
O142 O 0.33501 0.24996 0.71193 0.0
Zn143 Zn 0.34273 0.24952 0.66904 0.0
O144 O 0.35313 0.25232 0.72089 0.0
Zn145 Zn 0.36026 0.25189 0.67 0.0
O146 O 0.37433 0.26771 0.66482 0.0
O147 O 0.35719 0.26793 0.66121 0.0
O148 O 0.35192 0.24903 0.61871 0.0
O149 O 0.33373 0.24678 0.62632 0.0
O150 O 0.34356 0.233 0.67292 0.0
O151 O 0.3629 0.23834 0.67355 0.0
C152 C 0.3688 0.27356 0.65985 0.0
C153 C 0.35184 0.23007 0.67416 0.0
C154 C 0.77113 0.121 0.67353 0.0
C155 C 0.72744 0.09543 0.66066 0.0
O156 O 0.76309 0.12411 0.6732 0.0
Zn157 Zn 0.74922 0.10811 0.67006 0.0
O158 O 0.76788 0.10971 0.67236 0.0
Zn159 Zn 0.75106 0.09262 0.66897 0.0
O160 O 0.75341 0.08612 0.62611 0.0
O161 O 0.75165 0.10237 0.61873 0.0
O162 O 0.73281 0.08918 0.66183 0.0
O163 O 0.73356 0.10681 0.6654 0.0
O164 O 0.74874 0.10052 0.72087 0.0
O165 O 0.75052 0.08441 0.71183 0.0
C166 C 0.75311 0.09387 0.60579 0.0
C167 C 0.74936 0.09145 0.73298 0.0
C168 C 0.00977 0.42457 0.56157 0.0
C169 C 0.00818 0.4274 0.43457 0.0
O170 O 0.01953 0.43355 0.54947 0.0
Zn171 Zn 0.02665 0.44115 0.49859 0.0
O172 O 0.00149 0.41767 0.54042 0.0
Zn173 Zn 0.00917 0.42591 0.49763 0.0
O174 O 0.02366 0.42206 0.48951 0.0
O175 O 0.04076 0.43946 0.4932 0.0
O176 O 1.00013 0.41969 0.45498 0.0
O177 O 0.01826 0.43572 0.44734 0.0
O178 O 0.02922 0.4573 0.5024 0.0
O179 O 0.0099 0.44321 0.50195 0.0
C180 C 0.03528 0.42809 0.4881 0.0
C181 C 0.01814 0.45444 0.50327 0.0
C182 C 0.54593 0.56343 0.50209 0.0
C183 C 0.57208 0.60694 0.487 0.0
O184 O 0.55716 0.56646 0.50065 0.0
Zn185 Zn 0.57442 0.58307 0.4963 0.0
O186 O 0.54303 0.57162 0.50133 0.0
Zn187 Zn 0.55914 0.58526 0.49745 0.0
O188 O 0.56459 0.58239 0.44612 0.0
O189 O 0.58066 0.58035 0.45349 0.0
O190 O 0.56072 0.60101 0.49219 0.0
O191 O 0.57817 0.60141 0.48829 0.0
O192 O 0.58272 0.58369 0.53906 0.0
O193 O 0.56682 0.5858 0.54821 0.0
C194 C 0.57293 0.5807 0.43319 0.0
C195 C 0.57583 0.58506 0.56025 0.0
C196 C 0.42021 0.99212 0.43528 0.0
C197 C 0.41566 0.99021 0.56233 0.0
O198 O 0.4186 0.98207 0.44793 0.0
Zn199 Zn 0.41568 0.97359 0.49905 0.0
O200 O 0.42041 1.00007 0.45581 0.0
Zn201 Zn 0.41765 0.99097 0.49837 0.0
O202 O 0.43438 0.99047 0.50286 0.0
O203 O 0.42934 0.97119 0.50264 0.0
O204 O 0.41666 0.99837 0.54132 0.0
O205 O 0.41524 0.98062 0.55013 0.0
O206 O 0.39994 0.95936 0.49353 0.0
O207 O 0.39944 0.97634 0.4897 0.0
C208 C 0.43747 0.9823 0.50392 0.0
C209 C 0.39397 0.96474 0.48821 0.0
C210 C 0.78844 0.68484 0.65935 0.0
C211 C 0.76273 0.70267 0.67442 0.0
O212 O 0.77717 0.6767 0.66067 0.0
Zn213 Zn 0.75998 0.67634 0.66463 0.0
O214 O 0.79144 0.69596 0.66001 0.0
Zn215 Zn 0.77542 0.69363 0.6638 0.0
O216 O 0.7699 0.68513 0.71503 0.0
O217 O 0.75339 0.66735 0.70709 0.0
O218 O 0.77409 0.70795 0.6694 0.0
O219 O 0.7565 0.69107 0.67283 0.0
O220 O 0.75171 0.66879 0.62182 0.0
O221 O 0.76783 0.68665 0.61276 0.0
C222 C 0.7613 0.67517 0.72756 0.0
C223 C 0.75873 0.67698 0.60066 0.0
C224 C 0.32447 0.08185 0.60238 0.0
C225 C 0.32616 0.08627 0.72947 0.0
O226 O 0.31492 0.08153 0.61445 0.0
Zn227 Zn 0.30785 0.08204 0.66536 0.0
O228 O 0.33257 0.08276 0.6235 0.0
Zn229 Zn 0.32514 0.08379 0.66637 0.0
O230 O 0.31036 0.06565 0.6748 0.0
O231 O 0.29349 0.06637 0.6707 0.0
O232 O 0.33413 0.0864 0.70912 0.0
O233 O 0.3162 0.08479 0.7166 0.0
O234 O 0.30568 0.09584 0.66179 0.0
O235 O 0.32489 0.10065 0.66203 0.0
C236 C 0.29876 0.06029 0.67614 0.0
C237 C 0.31683 0.10388 0.66086 0.0
C238 C 0.94036 0.2401 0.67802 0.0
C239 C 0.89713 0.21282 0.6612 0.0
O240 O 0.93438 0.24573 0.67785 0.0
Zn241 Zn 0.916 0.24144 0.66832 0.0
O242 O 0.93504 0.22888 0.67064 0.0
Zn243 Zn 0.9189 0.22656 0.66599 0.0
O244 O 0.91924 0.23439 0.61588 0.0
O245 O 0.91657 0.2499 0.62577 0.0
O246 O 0.90555 0.21023 0.66142 0.0
O247 O 0.89983 0.22395 0.66327 0.0
O248 O 0.91273 0.24707 0.71135 0.0
O249 O 0.91562 0.23146 0.71782 0.0
C250 C 0.91824 0.24329 0.60425 0.0
C251 C 0.91344 0.23944 0.73121 0.0
C252 C 0.32276 0.24109 0.10535 0.0
C253 C 0.32456 0.23849 0.23237 0.0
O254 O 0.33098 0.24812 0.12644 0.0
Zn255 Zn 0.32344 0.23983 0.1693 0.0
O256 O 0.3131 0.23199 0.11753 0.0
Zn257 Zn 0.30612 0.22438 0.16854 0.0
O258 O 0.29181 0.22571 0.17396 0.0
O259 O 0.3087 0.24331 0.17741 0.0
O260 O 0.31454 0.23 0.21975 0.0
O261 O 0.33248 0.24627 0.21183 0.0
O262 O 0.3231 0.2227 0.16514 0.0
O263 O 0.30388 0.20836 0.16487 0.0
C264 C 0.29709 0.23708 0.17891 0.0
C265 C 0.31501 0.21142 0.16395 0.0
C266 C 0.76216 0.08609 0.23227 0.0
C267 C 0.75977 0.08168 0.10532 0.0
O268 O 0.75442 0.08625 0.21162 0.0
Zn269 Zn 0.76094 0.08368 0.16922 0.0
O270 O 0.77067 0.08457 0.21978 0.0
Zn271 Zn 0.7764 0.08179 0.16875 0.0
O272 O 0.79242 0.09561 0.16524 0.0
O273 O 0.77805 0.10045 0.16529 0.0
O274 O 0.76883 0.08109 0.11766 0.0
O275 O 0.75274 0.08294 0.12625 0.0
O276 O 0.75745 0.06546 0.17738 0.0
O277 O 0.77504 0.06613 0.17437 0.0
C278 C 0.78934 0.10367 0.16427 0.0
C279 C 0.76366 0.06007 0.17911 0.0
C280 C 0.89711 0.68548 0.16408 0.0
C281 C 0.94074 0.70411 0.17915 0.0
O282 O 0.90502 0.69666 0.16551 0.0
Zn283 Zn 0.91893 0.6947 0.1686 0.0
O284 O 0.9005 0.67752 0.16471 0.0
Zn285 Zn 0.91759 0.67761 0.16848 0.0
O286 O 0.91533 0.66844 0.21051 0.0
O287 O 0.91612 0.68597 0.21934 0.0
O288 O 0.93558 0.69253 0.17717 0.0
O289 O 0.93449 0.70921 0.17441 0.0
O290 O 0.91945 0.68795 0.11713 0.0
O291 O 0.91875 0.67049 0.12527 0.0
C292 C 0.915 0.67604 0.23137 0.0
C293 C 0.91935 0.67856 0.10457 0.0
C294 C 0.57316 0.99179 0.94258 0.0
C295 C 0.57559 0.98991 0.06945 0.0
O296 O 0.5811 0.99958 0.96306 0.0
Zn297 Zn 0.57441 0.99061 0.00551 0.0
O298 O 0.56451 0.98186 0.95508 0.0
Zn299 Zn 0.55886 0.97337 0.00621 0.0
O300 O 0.5429 0.97123 0.00985 0.0
O301 O 0.55733 0.99043 0.00922 0.0
O302 O 0.56647 0.98028 0.05726 0.0
O303 O 0.58265 0.99811 0.04838 0.0
O304 O 0.57775 0.9758 0.99751 0.0
O305 O 0.56008 0.95898 1.00059 0.0
C306 C 0.54603 0.98238 0.01044 0.0
C307 C 0.57145 0.9642 0.99582 0.0
C308 C 0.03668 0.60738 0.99579 0.0
C309 C 0.01867 0.56376 0.00999 0.0
O310 O 0.04197 0.60131 1.00075 0.0
Zn311 Zn 0.02764 0.58565 0.0061 0.0
O312 O 0.02508 0.60201 0.99731 0.0
Zn313 Zn 0.0103 0.58379 0.00534 0.0
O314 O 0.00278 0.58447 0.04836 0.0
O315 O 0.02069 0.58628 0.05708 0.0
O316 O 0.01062 0.567 0.00892 0.0
O317 O 0.02982 0.57181 0.00943 0.0
O318 O 0.01926 0.58299 0.95492 0.0
O319 O 0.0013 0.58129 0.96272 0.0
C320 C 0.01104 0.58569 0.06937 0.0
C321 C 0.00927 0.58149 0.94222 0.0
C322 C 0.43694 0.45579 0.00961 0.0
C323 C 0.39322 0.43057 0.99654 0.0
O324 O 0.42898 0.45901 0.00928 0.0
Zn325 Zn 0.41501 0.44307 0.00606 0.0
O326 O 0.43358 0.44447 0.00838 0.0
Zn327 Zn 0.41666 0.42748 0.00486 0.0
O328 O 0.41893 0.42093 0.962 0.0
O329 O 0.41742 0.43731 0.95463 0.0
O330 O 0.39848 0.42423 0.99767 0.0
O331 O 0.39942 0.44194 1.00137 0.0
O332 O 0.41447 0.43541 0.0569 0.0
O333 O 0.41602 0.41919 0.04762 0.0
C334 C 0.41876 0.42875 0.94168 0.0
C335 C 0.41498 0.42626 0.06889 0.0
C336 C 0.68599 0.78894 0.83856 0.0
C337 C 0.70362 0.76304 0.82308 0.0
O338 O 0.67786 0.77768 0.83745 0.0
Zn339 Zn 0.67737 0.76049 0.83321 0.0
O340 O 0.69711 0.79195 0.83744 0.0
Zn341 Zn 0.69477 0.77588 0.83368 0.0
O342 O 0.68623 0.77027 0.78268 0.0
O343 O 0.66826 0.75407 0.79077 0.0
O344 O 0.709 0.77442 0.8279 0.0
O345 O 0.69202 0.75688 0.82484 0.0
O346 O 0.66991 0.75227 0.87622 0.0
O347 O 0.68789 0.7683 0.88473 0.0
C348 C 0.67618 0.76183 0.77017 0.0
C349 C 0.67823 0.75926 0.89712 0.0
C350 C 0.24166 0.91859 0.89692 0.0
C351 C 0.23895 0.91429 0.76978 0.0
O352 O 0.23264 0.9193 0.8848 0.0
Zn353 Zn 0.22506 0.91881 0.83389 0.0
O354 O 0.24861 0.9173 0.87577 0.0
Zn355 Zn 0.24036 0.91668 0.8329 0.0
O356 O 0.24407 0.935 0.82479 0.0
O357 O 0.2266 0.93455 0.82862 0.0
O358 O 0.24667 0.91398 0.7902 0.0
O359 O 0.23057 0.91596 0.78258 0.0
O360 O 0.20895 0.90517 0.83755 0.0
O361 O 0.2231 0.90003 0.837 0.0
C362 C 0.23796 0.9405 0.82343 0.0
C363 C 0.21186 0.89699 0.83829 0.0
C364 C 0.08872 0.32542 0.76926 0.0
C365 C 0.08331 0.32468 0.89587 0.0
O366 O 0.08602 0.31511 0.78266 0.0
Zn367 Zn 0.08233 0.30695 0.8347 0.0
O368 O 0.08984 0.33394 0.78909 0.0
Zn369 Zn 0.08591 0.32493 0.83199 0.0
O370 O 0.10165 0.32297 0.83825 0.0
O371 O 0.09531 0.30341 0.8402 0.0
O372 O 0.08552 0.33307 0.87414 0.0
O373 O 0.0819 0.31457 0.88461 0.0
O374 O 0.06606 0.29346 0.82953 0.0
O375 O 0.06737 0.31124 0.82152 0.0
C376 C 0.10398 0.3143 0.84076 0.0
C377 C 0.06109 0.29963 0.82142 0.0
C378 C 0.42894 0.00972 0.06172 0.0
C379 C 0.42658 0.01145 0.93458 0.0
O380 O 0.43752 0.01966 0.04904 0.0
Zn381 Zn 0.4433 0.028 0.99779 0.0
O382 O 0.42111 0.00183 0.0412 0.0
Zn383 Zn 0.42768 0.0108 0.99858 0.0
O384 O 0.44472 0.01089 0.99477 0.0
O385 O 0.45923 0.03005 0.99464 0.0
O386 O 0.4193 0.00339 0.95565 0.0
O387 O 0.43583 0.02097 0.94671 0.0
O388 O 0.44216 0.04246 0.00277 0.0
O389 O 0.42446 0.02571 0.00648 0.0
C390 C 0.45604 0.01888 0.99382 0.0
C391 C 0.4308 0.03731 0.00776 0.0
C392 C 0.98195 0.43716 0.99312 0.0
C393 C 0.96371 0.39352 0.00738 0.0
O394 O 0.98997 0.43387 0.99424 0.0
Zn395 Zn 0.99017 0.41702 0.99789 0.0
O396 O 0.97079 0.42915 0.99368 0.0
Zn397 Zn 0.97287 0.41525 0.99709 0.0
O398 O 0.98123 0.41787 0.04828 0.0
O399 O 0.99914 0.41946 0.04052 0.0
O400 O 0.95849 0.39966 0.00246 0.0
O401 O 0.97532 0.39883 0.00588 0.0
O402 O 0.99766 0.41627 0.95491 0.0
O403 O 0.97979 0.41453 0.94615 0.0
C404 C 0.99119 0.41931 0.061 0.0
C405 C 0.98942 0.41505 0.93389 0.0
C406 C 0.58133 0.57209 0.05961 0.0
C407 C 0.58567 0.57453 0.93256 0.0
O408 O 0.58283 0.56358 0.04703 0.0
Zn409 Zn 0.58557 0.55787 0.99592 0.0
O410 O 0.58118 0.57986 0.03903 0.0
Zn411 Zn 0.58372 0.57335 0.99653 0.0
O412 O 0.56693 0.55626 0.99271 0.0
O413 O 0.57171 0.54185 0.99246 0.0
O414 O 0.58444 0.58156 0.95355 0.0
O415 O 0.58624 0.56545 0.94486 0.0
O416 O 0.60121 0.55919 1.00139 0.0
O417 O 0.60194 0.5768 0.00454 0.0
C418 C 0.56368 0.54496 0.99165 0.0
C419 C 0.6073 0.57056 0.00615 0.0
C420 C 0.99202 0.57234 0.56868 0.0
C421 C 0.99041 0.57505 0.44165 0.0
O422 O 1.0 0.58011 0.54823 0.0
Zn423 Zn 0.99101 0.57372 0.50561 0.0
O424 O 0.98202 0.56388 0.55593 0.0
Zn425 Zn 0.97368 0.55829 0.5046 0.0
O426 O 0.97143 0.54226 0.50088 0.0
O427 O 0.99066 0.55659 0.50144 0.0
O428 O 0.98073 0.56596 0.4537 0.0
O429 O 0.99861 0.58204 0.46285 0.0
O430 O 0.97626 0.57721 0.51369 0.0
O431 O 0.95936 0.55962 0.50986 0.0
C432 C 0.98256 0.54531 0.50012 0.0
C433 C 0.96465 0.57098 0.51503 0.0
C434 C 0.42733 0.42001 0.56817 0.0
C435 C 0.42478 0.41548 0.44117 0.0
O436 O 0.41964 0.42029 0.54753 0.0
Zn437 Zn 0.42601 0.41752 0.5051 0.0
O438 O 0.43571 0.41831 0.55567 0.0
Zn439 Zn 0.44129 0.41536 0.5046 0.0
O440 O 0.45741 0.42898 0.50091 0.0
O441 O 0.44328 0.43415 0.50096 0.0
O442 O 0.43375 0.41475 0.45353 0.0
O443 O 0.41784 0.41689 0.4621 0.0
O444 O 0.42224 0.39919 0.51338 0.0
O445 O 0.43971 0.39962 0.51022 0.0
C446 C 0.45451 0.43717 0.49985 0.0
C447 C 0.42834 0.39368 0.51505 0.0
C448 C 0.60736 0.03567 0.51626 0.0
C449 C 0.56383 0.0177 0.50008 0.0
O450 O 0.60126 0.04095 0.51148 0.0
Zn451 Zn 0.58564 0.02661 0.50527 0.0
O452 O 0.60203 0.02408 0.51424 0.0
Zn453 Zn 0.58388 0.00933 0.50556 0.0
O454 O 0.5848 0.00198 0.46256 0.0
O455 O 0.58651 0.01986 0.45412 0.0
O456 O 0.56703 0.00961 0.50125 0.0
O457 O 0.57189 0.02884 0.50128 0.0
O458 O 0.58256 0.01792 0.55614 0.0
O459 O 0.58138 1.0002 0.54779 0.0
C460 C 0.58603 0.01027 0.4417 0.0
C461 C 0.5812 0.00794 0.56843 0.0
C462 C 0.24316 0.3235 0.40174 0.0
C463 C 0.24069 0.32573 0.27496 0.0
O464 O 0.25052 0.33154 0.38077 0.0
Zn465 Zn 0.24204 0.32438 0.33783 0.0
O466 O 0.23377 0.31413 0.38953 0.0
Zn467 Zn 0.22616 0.30736 0.33848 0.0
O468 O 0.22696 0.29272 0.33255 0.0
O469 O 0.24482 0.30927 0.32919 0.0
O470 O 0.23189 0.31592 0.28752 0.0
O471 O 0.24882 0.33335 0.29535 0.0
O472 O 0.22519 0.32473 0.34187 0.0
O473 O 0.2104 0.30567 0.34216 0.0
C474 C 0.23829 0.2977 0.32746 0.0
C475 C 0.21382 0.3169 0.34297 0.0
C476 C 0.67775 0.91913 0.40189 0.0
C477 C 0.67598 0.91462 0.27487 0.0
O478 O 0.66953 0.9179 0.38077 0.0
Zn479 Zn 0.67705 0.9171 0.33792 0.0
O480 O 0.68741 0.91967 0.38975 0.0
Zn481 Zn 0.69437 0.91896 0.33884 0.0
O482 O 0.7087 0.93459 0.33332 0.0
O483 O 0.69182 0.93531 0.32961 0.0
O484 O 0.68598 0.91615 0.2876 0.0
O485 O 0.66804 0.91448 0.29532 0.0
O486 O 0.67736 0.90031 0.34211 0.0
O487 O 0.69657 0.90514 0.34261 0.0
C488 C 0.70343 0.94067 0.32813 0.0
C489 C 0.68543 0.89709 0.34338 0.0
C490 C 0.06018 0.76315 0.32736 0.0
C491 C 0.10381 0.78808 0.34238 0.0
O492 O 0.06646 0.77451 0.33211 0.0
Zn493 Zn 0.08195 0.77548 0.33796 0.0
O494 O 0.06532 0.75671 0.32912 0.0
Zn495 Zn 0.08338 0.75978 0.33733 0.0
O496 O 0.08246 0.75148 0.38031 0.0
O497 O 0.08106 0.76781 0.38902 0.0
O498 O 0.10042 0.77675 0.34115 0.0
O499 O 0.09589 0.79134 0.34178 0.0
O500 O 0.08486 0.76982 0.28693 0.0
O501 O 0.08562 0.75304 0.29487 0.0
C502 C 0.08141 0.75861 0.40131 0.0
C503 C 0.08601 0.7611 0.27443 0.0
H504 H 0.31427 0.0885 0.55051 0.0
H505 H 0.31791 0.08911 0.48751 0.0
H506 H 0.34191 0.07486 0.50456 0.0
H507 H 0.3388 0.07489 0.56789 0.0
H508 H 0.35167 0.09206 0.45987 0.0
H509 H 0.30431 0.06285 0.41739 0.0
H510 H 0.30581 0.07554 0.44174 0.0
H511 H 0.30865 0.06454 0.46292 0.0
C512 C 0.32024 0.0854 0.54079 0.0
C513 C 0.3262 0.08159 0.56411 0.0
C514 C 0.32224 0.08566 0.50468 0.0
C515 C 0.32995 0.08174 0.49101 0.0
C516 C 0.33587 0.07787 0.51435 0.0
H517 H 0.33136 0.07112 0.2647 0.0
H518 H 0.32836 0.06798 0.32805 0.0
C519 C 0.33408 0.07787 0.55054 0.0
C520 C 0.33231 0.08226 0.45261 0.0
H521 H 0.31837 0.07516 0.37268 0.0
C522 C 0.34437 0.08823 0.44085 0.0
C523 C 0.32283 0.07706 0.42759 0.0
C524 C 0.3097 0.06952 0.4381 0.0
C525 C 0.34722 0.08943 0.40496 0.0
C526 C 0.33774 0.08501 0.37995 0.0
C527 C 0.32568 0.07874 0.39171 0.0
C528 C 0.34008 0.08686 0.34154 0.0
C529 C 0.36038 0.09524 0.39445 0.0
C530 C 0.34763 0.09852 0.32782 0.0
C531 C 0.34958 0.10027 0.29169 0.0
C532 C 0.34371 0.09047 0.26841 0.0
C533 C 0.33601 0.07885 0.28203 0.0
C534 C 0.33427 0.07705 0.31823 0.0
H535 H 0.36584 0.09407 0.41516 0.0
H536 H 0.36151 0.09136 0.36963 0.0
H537 H 0.3641 0.10511 0.3908 0.0
H538 H 0.35187 0.10632 0.34497 0.0
H539 H 0.35541 0.10937 0.28193 0.0
H540 H 0.92053 0.23007 0.55144 0.0
H541 H 0.92 0.23299 0.4883 0.0
H542 H 0.9159 0.26412 0.50696 0.0
H543 H 0.9165 0.26133 0.57029 0.0
H544 H 0.90076 0.23271 0.45117 0.0
H545 H 0.94366 0.27642 0.43441 0.0
H546 H 0.94049 0.26704 0.47289 0.0
H547 H 0.9337 0.27636 0.46787 0.0
C548 C 0.91963 0.23762 0.5422 0.0
C549 C 0.91857 0.24548 0.56598 0.0
C550 C 0.91932 0.23926 0.50607 0.0
C551 C 0.91803 0.24884 0.49296 0.0
C552 C 0.9171 0.25679 0.51654 0.0
H553 H 0.89396 0.25391 0.28361 0.0
H554 H 0.89654 0.25336 0.34701 0.0
C555 C 0.91739 0.25514 0.55273 0.0
C556 C 0.91704 0.2501 0.45463 0.0
H557 H 0.93065 0.26894 0.38494 0.0
C558 C 0.9073 0.24062 0.43667 0.0
C559 C 0.92565 0.26039 0.43578 0.0
C560 C 0.93654 0.2706 0.45357 0.0
C561 C 0.90585 0.24122 0.40039 0.0
C562 C 0.9143 0.25162 0.38165 0.0
C563 C 0.92413 0.26103 0.39949 0.0
C564 C 0.91315 0.25273 0.34336 0.0
C565 C 0.89539 0.23062 0.38226 0.0
C566 C 0.92183 0.25291 0.32037 0.0
C567 C 0.9204 0.25323 0.2841 0.0
C568 C 0.9103 0.25347 0.27018 0.0
C569 C 0.90182 0.25368 0.2934 0.0
C570 C 0.90324 0.25332 0.32965 0.0
H571 H 0.89132 0.22234 0.39882 0.0
H572 H 0.88825 0.23293 0.37643 0.0
H573 H 0.89836 0.22858 0.35705 0.0
H574 H 0.92956 0.2525 0.33049 0.0
H575 H 0.92712 0.2531 0.26699 0.0
H576 H 0.74015 0.65779 0.56645 0.0
H577 H 0.73763 0.6542 0.50321 0.0
H578 H 0.7702 0.68832 0.48472 0.0
H579 H 0.77287 0.69197 0.54792 0.0
H580 H 0.73567 0.66837 0.44844 0.0
H581 H 0.77619 0.66316 0.4335 0.0
H582 H 0.76946 0.66261 0.4756 0.0
H583 H 0.77897 0.67693 0.45462 0.0
C584 C 0.74676 0.66457 0.54897 0.0
C585 C 0.75676 0.67514 0.5623 0.0
C586 C 0.74529 0.6625 0.51283 0.0
C587 C 0.75382 0.67091 0.48935 0.0
C588 C 0.76363 0.68162 0.50246 0.0
H589 H 0.74875 0.67516 0.26333 0.0
H590 H 0.74943 0.67838 0.32668 0.0
C591 C 0.7651 0.68372 0.53859 0.0
C592 C 0.75254 0.66838 0.45117 0.0
H593 H 0.76631 0.6635 0.38128 0.0
C594 C 0.74235 0.66729 0.43372 0.0
C595 C 0.76119 0.6668 0.43218 0.0
C596 C 0.77203 0.66732 0.44989 0.0
C597 C 0.74069 0.66489 0.39757 0.0
C598 C 0.74951 0.66365 0.37841 0.0
C599 C 0.7596 0.66453 0.396 0.0
C600 C 0.7485 0.66143 0.34006 0.0
C601 C 0.72943 0.66351 0.38028 0.0
C602 C 0.74788 0.6509 0.32652 0.0
C603 C 0.74752 0.64904 0.2903 0.0
C604 C 0.74788 0.65774 0.26689 0.0
C605 C 0.7484 0.66825 0.28059 0.0
C606 C 0.74873 0.67008 0.31682 0.0
H607 H 0.72222 0.66169 0.39974 0.0
H608 H 0.7317 0.67203 0.36632 0.0
H609 H 0.72579 0.65604 0.36077 0.0
H610 H 0.74775 0.64414 0.34403 0.0
H611 H 0.74716 0.64087 0.28068 0.0
H612 H 0.07587 0.30787 0.94851 0.0
H613 H 0.07647 0.31146 0.01176 0.0
H614 H 0.09073 0.34957 0.99301 0.0
H615 H 0.09007 0.34609 0.92966 0.0
H616 H 0.10407 0.34111 0.04361 0.0
H617 H 0.05504 0.32297 0.07069 0.0
H618 H 0.0592 0.31434 0.04229 0.0
H619 H 0.06168 0.32882 0.02818 0.0
C620 C 0.07903 0.31701 0.95778 0.0
C621 C 0.08292 0.3267 0.93402 0.0
C622 C 0.07933 0.31902 0.9939 0.0
C623 C 0.08358 0.33076 0.00691 0.0
C624 C 0.08736 0.34043 0.98337 0.0
H625 H 0.10336 0.36124 0.21745 0.0
H626 H 0.10074 0.35839 0.15402 0.0
C627 C 0.08695 0.33842 0.94721 0.0
C628 C 0.08468 0.333 0.04515 0.0
H629 H 0.06817 0.32895 0.11949 0.0
C630 C 0.09625 0.33853 0.06027 0.0
C631 C 0.07444 0.32949 0.06664 0.0
C632 C 0.06185 0.32362 0.05132 0.0
C633 C 0.09785 0.34045 0.0966 0.0
C634 C 0.0876 0.33709 0.11822 0.0
C635 C 0.07602 0.33158 0.10294 0.0
C636 C 0.0887 0.33898 0.15681 0.0
C637 C 0.11045 0.34569 0.11151 0.0
C638 C 0.08238 0.32912 0.1796 0.0
C639 C 0.0837 0.33076 0.21593 0.0
C640 C 0.0914 0.3423 0.23019 0.0
C641 C 0.09747 0.35222 0.20733 0.0
C642 C 0.09605 0.35058 0.17102 0.0
H643 H 0.11656 0.34444 0.09336 0.0
H644 H 0.11435 0.35557 0.11567 0.0
H645 H 0.11033 0.34146 0.13706 0.0
H646 H 0.0766 0.3201 0.16927 0.0
H647 H 0.07888 0.32293 0.23278 0.0
H648 H 0.67746 0.75056 0.23512 0.0
H649 H 0.68094 0.75155 0.17179 0.0
H650 H 0.64616 0.74858 0.15366 0.0
H651 H 0.64262 0.74766 0.21689 0.0
H652 H 0.66689 0.73493 0.11744 0.0
H653 H 0.67047 0.77996 0.10165 0.0
H654 H 0.67141 0.77406 0.14384 0.0
H655 H 0.65695 0.76874 0.12323 0.0
C656 C 0.67052 0.75007 0.21769 0.0
C657 C 0.65979 0.74912 0.23112 0.0
C658 C 0.67252 0.75062 0.18151 0.0
C659 C 0.66388 0.75031 0.15811 0.0
C660 C 0.65303 0.74903 0.17133 0.0
H661 H 0.65929 0.74064 0.9321 0.0
H662 H 0.65615 0.73814 0.99552 0.0
C663 C 0.651 0.74846 0.20749 0.0
C664 C 0.66631 0.75151 0.11989 0.0
H665 H 0.67039 0.76977 0.04962 0.0
C666 C 0.66768 0.74255 0.10257 0.0
C667 C 0.66748 0.76154 0.10071 0.0
C668 C 0.66661 0.7717 0.11826 0.0
C669 C 0.66998 0.74325 0.06636 0.0
C670 C 0.67083 0.75312 0.04705 0.0
C671 C 0.66965 0.76217 0.06449 0.0
C672 C 0.67299 0.75429 0.00869 0.0
C673 C 0.67165 0.73353 0.04914 0.0
C674 C 0.68345 0.76426 0.99507 0.0
C675 C 0.68528 0.76574 0.95885 0.0
C676 C 0.67661 0.75732 0.93552 0.0
C677 C 0.66617 0.74728 0.9493 0.0
C678 C 0.66438 0.74579 0.98555 0.0
H679 H 0.67356 0.72823 0.06864 0.0
H680 H 0.66322 0.72718 0.03495 0.0
H681 H 0.67916 0.73753 0.0298 0.0
H682 H 0.69018 0.77095 0.01251 0.0
H683 H 0.6934 0.77359 0.94916 0.0
H684 H 0.2505 0.92597 0.23468 0.0
H685 H 0.2495 0.92841 0.17136 0.0
H686 H 0.25272 0.89674 0.15338 0.0
H687 H 0.25363 0.89414 0.21665 0.0
H688 H 0.26605 0.9312 0.11718 0.0
H689 H 0.2214 0.88933 0.10098 0.0
H690 H 0.22723 0.89611 0.14327 0.0
H691 H 0.23276 0.88719 0.12235 0.0
C692 C 0.25104 0.91954 0.21729 0.0
C693 C 0.25206 0.9098 0.23079 0.0
C694 C 0.25048 0.92096 0.18111 0.0
C695 C 0.25085 0.91265 0.15773 0.0
C696 C 0.2522 0.90313 0.17101 0.0
H697 H 0.2604 0.91835 0.93138 0.0
H698 H 0.26298 0.91752 0.9947 0.0
C699 C 0.25278 0.9017 0.2072 0.0
C700 C 0.24965 0.91388 0.11947 0.0
H701 H 0.23149 0.89963 0.04907 0.0
C702 C 0.2585 0.92431 0.10225 0.0
C703 C 0.23971 0.90494 0.10019 0.0
C704 C 0.22966 0.8938 0.11759 0.0
C705 C 0.25776 0.92595 0.06609 0.0
C706 C 0.24796 0.91687 0.04668 0.0
C707 C 0.23903 0.90653 0.064 0.0
C708 C 0.24672 0.91795 0.00838 0.0
C709 C 0.26734 0.93745 0.04901 0.0
C710 C 0.23667 0.91836 0.99506 0.0
C711 C 0.23517 0.91883 0.95889 0.0
C712 C 0.24363 0.91878 0.9353 0.0
C713 C 0.25374 0.91844 0.94878 0.0
C714 C 0.25526 0.91802 0.98498 0.0
H715 H 0.27261 0.94464 0.06862 0.0
H716 H 0.27374 0.93554 0.03446 0.0
H717 H 0.26321 0.94094 0.03 0.0
H718 H 0.22996 0.91825 0.01269 0.0
H719 H 0.22726 0.91903 0.94944 0.0
H720 H 0.67667 0.92751 0.73958 0.0
H721 H 0.6799 0.93013 0.67621 0.0
H722 H 0.64537 0.89795 0.65858 0.0
H723 H 0.64209 0.89518 0.72187 0.0
H724 H 0.66463 0.89846 0.62134 0.0
H725 H 0.66349 0.94112 0.60333 0.0
H726 H 0.67372 0.94173 0.63674 0.0
H727 H 0.65769 0.93186 0.64218 0.0
C728 C 0.6697 0.92105 0.72225 0.0
C729 C 0.65911 0.91114 0.73584 0.0
C730 C 0.67154 0.9226 0.68602 0.0
C731 C 0.66281 0.91431 0.66271 0.0
C732 C 0.65219 0.90448 0.67615 0.0
H733 H 0.65866 0.91865 0.43635 0.0
H734 H 0.65524 0.91777 0.49969 0.0
C735 C 0.65033 0.90293 0.71234 0.0
C736 C 0.66501 0.91552 0.62435 0.0
H737 H 0.66978 0.93411 0.55435 0.0
C738 C 0.66573 0.90624 0.60667 0.0
C739 C 0.66634 0.92563 0.60526 0.0
C740 C 0.66517 0.93562 0.6227 0.0
C741 C 0.6679 0.90686 0.57044 0.0
C742 C 0.66954 0.91712 0.55149 0.0
C743 C 0.66864 0.92632 0.56905 0.0
C744 C 0.67197 0.9183 0.51328 0.0
C745 C 0.66824 0.89646 0.55263 0.0
C746 C 0.68264 0.91916 0.5 0.0
C747 C 0.68464 0.91968 0.46384 0.0
C748 C 0.676 0.91938 0.44025 0.0
C749 C 0.66547 0.91886 0.45374 0.0
C750 C 0.6635 0.91837 0.48993 0.0
H751 H 0.6641 0.88816 0.56911 0.0
H752 H 0.66341 0.89432 0.52709 0.0
H753 H 0.6778 0.89904 0.5475 0.0
H754 H 0.68937 0.91931 0.51764 0.0
H755 H 0.69287 0.92012 0.45438 0.0
H756 H 0.08189 0.74005 0.43606 0.0
H757 H 0.08255 0.73749 0.49941 0.0
H758 H 0.08096 0.77009 0.51688 0.0
H759 H 0.08041 0.77281 0.45356 0.0
H760 H 0.09944 0.76925 0.55419 0.0
H761 H 0.05534 0.72695 0.57236 0.0
H762 H 0.06485 0.72609 0.53905 0.0
H763 H 0.05895 0.73617 0.53338 0.0
C764 C 0.08157 0.74662 0.45335 0.0
C765 C 0.08108 0.75663 0.4397 0.0
C766 C 0.08188 0.7451 0.48957 0.0
C767 C 0.08166 0.75352 0.51285 0.0
C768 C 0.08108 0.76346 0.49935 0.0
H769 H 0.07309 0.7488 0.73917 0.0
H770 H 0.07061 0.74982 0.67588 0.0
C771 C 0.08075 0.76498 0.46315 0.0
C772 C 0.08265 0.7523 0.5512 0.0
H773 H 0.06874 0.73372 0.62117 0.0
C774 C 0.09271 0.7615 0.56886 0.0
C775 C 0.07381 0.74223 0.57031 0.0
C776 C 0.06256 0.73234 0.55294 0.0
C777 C 0.09426 0.76082 0.60506 0.0
C778 C 0.0856 0.7506 0.62401 0.0
C779 C 0.07543 0.74148 0.60648 0.0
C780 C 0.08684 0.74935 0.6622 0.0
C781 C 0.10507 0.77115 0.62285 0.0
C782 C 0.09665 0.74848 0.67542 0.0
C783 C 0.0981 0.74788 0.71157 0.0
C784 C 0.08974 0.74812 0.73519 0.0
C785 C 0.07973 0.74864 0.72176 0.0
C786 C 0.07828 0.74922 0.68559 0.0
H787 H 0.10924 0.77948 0.60647 0.0
H788 H 0.10248 0.77329 0.64853 0.0
H789 H 0.11203 0.76851 0.62764 0.0
H790 H 0.10325 0.74837 0.65775 0.0
H791 H 0.10588 0.74743 0.72099 0.0
H792 H 0.26449 0.33758 0.43626 0.0
H793 H 0.26765 0.34056 0.49959 0.0
H794 H 0.22937 0.31677 0.51666 0.0
H795 H 0.22629 0.31328 0.45361 0.0
H796 H 0.26018 0.35039 0.54436 0.0
H797 H 0.24204 0.30297 0.58637 0.0
H798 H 0.24472 0.30737 0.54089 0.0
H799 H 0.23088 0.30454 0.56206 0.0
C800 C 0.25678 0.33287 0.4536 0.0
C801 C 0.24516 0.32511 0.44002 0.0
C802 C 0.25859 0.33459 0.48979 0.0
C803 C 0.24879 0.32871 0.51312 0.0
C804 C 0.23715 0.32109 0.49946 0.0
H805 H 0.24639 0.3537 0.72239 0.0
H806 H 0.24597 0.35028 0.6593 0.0
C807 C 0.23538 0.31916 0.46334 0.0
C808 C 0.25065 0.33102 0.55149 0.0
H809 H 0.24389 0.317 0.63128 0.0
C810 C 0.25674 0.34308 0.56333 0.0
C811 C 0.24639 0.32152 0.5764 0.0
C812 C 0.24077 0.30839 0.56574 0.0
C813 C 0.25838 0.34589 0.59922 0.0
C814 C 0.25336 0.33637 0.62414 0.0
C815 C 0.24759 0.32432 0.61231 0.0
C816 C 0.25384 0.33867 0.66254 0.0
C817 C 0.26569 0.35903 0.60987 0.0
C818 C 0.25798 0.33294 0.68571 0.0
C819 C 0.25789 0.33462 0.72193 0.0
C820 C 0.25382 0.34218 0.73568 0.0
C821 C 0.24977 0.34797 0.71252 0.0
C822 C 0.24961 0.34609 0.67638 0.0
H823 H 0.27228 0.36455 0.58914 0.0
H824 H 0.25949 0.3627 0.61372 0.0
H825 H 0.27073 0.36016 0.63461 0.0
H826 H 0.26124 0.32712 0.67577 0.0
H827 H 0.26106 0.33003 0.73915 0.0
H828 H 0.89127 0.64699 0.78298 0.0
H829 H 0.8938 0.65108 0.84595 0.0
H830 H 0.93225 0.67449 0.83095 0.0
H831 H 0.92965 0.67095 0.76771 0.0
H832 H 0.90517 0.64692 0.89476 0.0
H833 H 0.92528 0.69666 0.88589 0.0
H834 H 0.91896 0.6869 0.84833 0.0
H835 H 0.93414 0.69156 0.86271 0.0
C836 C 0.90026 0.65302 0.79314 0.0
C837 C 0.91025 0.65874 0.77042 0.0
C838 C 0.9017 0.65536 0.82914 0.0
C839 C 0.91318 0.66333 0.84325 0.0
C840 C 0.92324 0.66866 0.82068 0.0
H841 H 0.92663 0.66474 0.06875 0.0
H842 H 0.92578 0.66131 0.00545 0.0
C843 C 0.92176 0.66654 0.78456 0.0
C844 C 0.91457 0.6659 0.88157 0.0
H845 H 0.92603 0.6888 0.94182 0.0
C846 C 0.90968 0.65609 0.90502 0.0
C847 C 0.92027 0.67785 0.89511 0.0
C848 C 0.92484 0.68883 0.87169 0.0
C849 C 0.91035 0.65786 0.94147 0.0
C850 C 0.91656 0.66982 0.95501 0.0
C851 C 0.92141 0.67963 0.93155 0.0
C852 C 0.91776 0.67238 0.99333 0.0
C853 C 0.904 0.64688 0.96489 0.0
C854 C 0.91417 0.68028 0.00755 0.0
C855 C 0.91502 0.68255 0.04359 0.0
C856 C 0.91931 0.67684 0.06622 0.0
C857 C 0.92313 0.66914 0.05196 0.0
C858 C 0.92254 0.66708 0.01581 0.0
H859 H 0.89664 0.63903 0.95072 0.0
H860 H 0.91061 0.6442 0.9738 0.0
H861 H 0.90004 0.64877 0.9883 0.0
H862 H 0.91051 0.68454 0.99081 0.0
H863 H 0.91197 0.68851 0.05383 0.0
H864 H 0.3079 0.22667 0.05285 0.0
H865 H 0.31145 0.2293 0.9896 0.0
H866 H 0.34514 0.26239 0.00753 0.0
H867 H 0.34166 0.25989 0.07086 0.0
H868 H 0.33025 0.26362 0.95255 0.0
H869 H 0.33745 0.22426 0.93873 0.0
H870 H 0.32364 0.22109 0.96039 0.0
H871 H 0.33797 0.23112 0.98058 0.0
C872 C 0.31604 0.23455 0.04339 0.0
C873 C 0.32453 0.24304 0.06697 0.0
C874 C 0.31807 0.236 0.00723 0.0
C875 C 0.32863 0.24595 0.99396 0.0
C876 C 0.33696 0.25462 0.0173 0.0
H877 H 0.35885 0.25333 0.78543 0.0
H878 H 0.35552 0.25274 0.84872 0.0
C879 C 0.33496 0.25316 0.05348 0.0
C880 C 0.3311 0.2472 0.95577 0.0
H881 H 0.33664 0.23377 0.8863 0.0
C882 C 0.33166 0.25712 0.93801 0.0
C883 C 0.3331 0.23878 0.93704 0.0
C884 C 0.33312 0.22826 0.9551 0.0
C885 C 0.33396 0.25871 0.9018 0.0
C886 C 0.33564 0.25011 0.88291 0.0
C887 C 0.33527 0.24031 0.90081 0.0
C888 C 0.33783 0.25109 0.84454 0.0
C889 C 0.33475 0.26968 0.88414 0.0
C890 C 0.32897 0.25034 0.82119 0.0
C891 C 0.33084 0.25067 0.78497 0.0
C892 C 0.34159 0.2517 0.77141 0.0
C893 C 0.35048 0.25255 0.79493 0.0
C894 C 0.34859 0.2522 0.83113 0.0
H895 H 0.33624 0.27684 0.90338 0.0
H896 H 0.3422 0.27354 0.86459 0.0
H897 H 0.32613 0.26696 0.87017 0.0
H898 H 0.32051 0.24925 0.83097 0.0
H899 H 0.32377 0.24993 0.76762 0.0
H900 H 0.74992 0.07288 0.76754 0.0
H901 H 0.75069 0.07033 0.83089 0.0
H902 H 0.7493 0.10302 0.84861 0.0
H903 H 0.74859 0.10571 0.78535 0.0
H904 H 0.76796 0.10193 0.88536 0.0
H905 H 0.72342 0.06016 0.90426 0.0
H906 H 0.73276 0.05923 0.8705 0.0
H907 H 0.72705 0.06948 0.86549 0.0
C908 C 0.74967 0.07948 0.78489 0.0
C909 C 0.74918 0.08949 0.77134 0.0
C910 C 0.75005 0.07796 0.8211 0.0
C911 C 0.74992 0.08641 0.84442 0.0
C912 C 0.74935 0.09637 0.83102 0.0
H913 H 0.74147 0.08262 0.07048 0.0
H914 H 0.73907 0.08348 0.00709 0.0
C915 C 0.74893 0.09787 0.79485 0.0
C916 C 0.75095 0.0852 0.88273 0.0
H917 H 0.73677 0.06695 0.95306 0.0
C918 C 0.76114 0.0943 0.9002 0.0
C919 C 0.74197 0.07529 0.90201 0.0
C920 C 0.73062 0.06552 0.88476 0.0
C921 C 0.76267 0.09367 0.93642 0.0
C922 C 0.75385 0.08361 0.95558 0.0
C923 C 0.74357 0.07459 0.93821 0.0
C924 C 0.75503 0.08246 0.99384 0.0
C925 C 0.77363 0.10389 0.95401 0.0
C926 C 0.76467 0.08134 0.00732 0.0
C927 C 0.76608 0.08085 0.04353 0.0
C928 C 0.75784 0.08142 0.06693 0.0
C929 C 0.748 0.0822 0.05323 0.0
C930 C 0.7466 0.08268 0.01702 0.0
H931 H 0.77799 0.11216 0.93739 0.0
H932 H 0.77114 0.10624 0.97955 0.0
H933 H 0.78039 0.10102 0.95909 0.0
H934 H 0.77116 0.08096 0.98982 0.0
H935 H 0.77372 0.08019 0.05315 0.0
H936 H 0.97412 0.41382 0.88168 0.0
H937 H 0.97731 0.41421 0.81835 0.0
H938 H 0.01166 0.41614 0.83574 0.0
H939 H 0.00852 0.41566 0.89912 0.0
H940 H 0.99663 0.43272 0.7806 0.0
H941 H 0.99484 0.38858 0.76353 0.0
H942 H 0.98921 0.39227 0.80233 0.0
H943 H 0.0052 0.3982 0.79671 0.0
C944 C 0.98231 0.41421 0.87208 0.0
C945 C 0.99106 0.41468 0.89551 0.0
C946 C 0.98412 0.41445 0.83587 0.0
C947 C 0.99465 0.41507 0.82236 0.0
C948 C 0.00336 0.41544 0.84561 0.0
H949 H 0.02491 0.43861 0.6141 0.0
H950 H 0.02131 0.43607 0.67732 0.0
C951 C 0.00158 0.41523 0.88185 0.0
C952 C 0.99679 0.41594 0.78398 0.0
H953 H 0.00131 0.4018 0.71432 0.0
C954 C 0.99762 0.42595 0.76608 0.0
C955 C 0.99797 0.40703 0.76508 0.0
C956 C 0.99666 0.39585 0.78276 0.0
C957 C 0.99979 0.42739 0.72984 0.0
C958 C 0.00131 0.41866 0.71111 0.0
C959 C 1.00027 0.40854 0.72886 0.0
C960 C 0.00378 0.41983 0.67292 0.0
C961 C 1.00028 0.43816 0.71178 0.0
C962 C 0.99528 0.41133 0.64957 0.0
C963 C 0.99731 0.41274 0.61339 0.0
C964 C 0.00794 0.42263 0.59993 0.0
C965 C 0.01661 0.43092 0.62353 0.0
C966 C 0.01455 0.42952 0.65968 0.0
H967 H 0.99622 0.44244 0.72812 0.0
H968 H 0.00988 0.44506 0.70663 0.0
H969 H 0.99546 0.43548 0.68625 0.0
H970 H 0.98694 0.40375 0.65931 0.0
H971 H 0.99047 0.40616 0.59599 0.0
H972 H 0.56176 0.58612 0.61275 0.0
H973 H 0.56449 0.58542 0.67599 0.0
H974 H 0.59693 0.58358 0.65799 0.0
H975 H 0.59433 0.58434 0.59466 0.0
H976 H 0.56536 0.56659 0.71263 0.0
H977 H 0.60742 0.61089 0.73147 0.0
H978 H 0.59808 0.60738 0.69279 0.0
H979 H 0.60819 0.60149 0.69761 0.0
C980 C 0.56955 0.58569 0.62219 0.0
C981 C 0.57784 0.58531 0.5986 0.0
C982 C 0.57108 0.58527 0.65835 0.0
C983 C 0.58097 0.58457 0.67167 0.0
C984 C 0.58934 0.58432 0.64827 0.0
H985 H 0.58702 0.56052 0.88028 0.0
H986 H 0.58626 0.56313 0.81697 0.0
C987 C 0.5878 0.5847 0.61207 0.0
C988 C 0.58218 0.58351 0.70998 0.0
H989 H 0.60051 0.59754 0.78028 0.0
C990 C 0.57304 0.57336 0.72746 0.0
C991 C 0.59215 0.59242 0.72924 0.0
C992 C 0.60199 0.60372 0.71198 0.0
C993 C 0.57365 0.57179 0.76367 0.0
C994 C 0.58376 0.58055 0.78282 0.0
C995 C 0.59284 0.59079 0.76544 0.0
C996 C 0.5849 0.57934 0.82108 0.0
C997 C 0.56338 0.56088 0.78127 0.0
C998 C 0.58475 0.58779 0.84431 0.0
C999 C 0.58522 0.58636 0.88052 0.0
C1000 C 0.58592 0.57647 0.89417 0.0
C1001 C 0.58642 0.56821 0.87071 0.0
C1002 C 0.58593 0.56964 0.83451 0.0
H1003 H 0.55512 0.55658 0.76465 0.0
H1004 H 0.56618 0.55406 0.78633 0.0
H1005 H 0.56108 0.56341 0.80681 0.0
H1006 H 0.58401 0.59537 0.83443 0.0
H1007 H 0.58486 0.59291 0.89781 0.0
H1008 H 0.44352 0.0214 0.88279 0.0
H1009 H 0.4405 0.01774 0.81978 0.0
H1010 H 0.40215 0.99424 0.83668 0.0
H1011 H 0.40527 0.99736 0.89999 0.0
H1012 H 0.40934 0.98421 0.79221 0.0
H1013 H 0.42828 0.03165 0.74934 0.0
H1014 H 0.43931 0.02991 0.77376 0.0
H1015 H 0.42556 0.02736 0.79489 0.0
C1016 C 0.43443 0.01554 0.87302 0.0
C1017 C 0.42461 0.00972 0.89629 0.0
C1018 C 0.43269 0.01352 0.83691 0.0
C1019 C 0.42104 0.00594 0.82319 0.0
C1020 C 0.41122 1.00017 0.84649 0.0
H1021 H 0.40881 0.00457 0.59707 0.0
H1022 H 0.40889 0.00769 0.66041 0.0
C1023 C 0.413 0.00197 0.88268 0.0
C1024 C 0.4192 0.00357 0.78479 0.0
H1025 H 0.42617 0.01743 0.70475 0.0
C1026 C 0.4129 0.9915 0.77312 0.0
C1027 C 0.42361 0.01303 0.7597 0.0
C1028 C 0.42944 0.0262 0.77011 0.0
C1029 C 0.41118 0.98862 0.73726 0.0
C1030 C 0.41635 0.99807 0.71216 0.0
C1031 C 0.42236 0.01015 0.72383 0.0
C1032 C 0.41574 0.99569 0.67376 0.0
C1033 C 0.40361 0.97547 0.72687 0.0
C1034 C 0.41958 0.98794 0.65995 0.0
C1035 C 0.41925 0.98592 0.62383 0.0
C1036 C 0.41543 0.99191 0.60063 0.0
C1037 C 0.41178 0.99982 0.61432 0.0
C1038 C 0.41185 0.00162 0.65053 0.0
H1039 H 0.39697 0.97011 0.74769 0.0
H1040 H 0.39858 0.97441 0.70214 0.0
H1041 H 0.40961 0.97158 0.72312 0.0
H1042 H 0.42304 0.98359 0.67702 0.0
H1043 H 0.42231 0.97993 0.614 0.0
H1044 H 0.58577 0.99136 0.40676 0.0
H1045 H 0.58509 0.98819 0.34338 0.0
H1046 H 0.58625 0.02219 0.32628 0.0
H1047 H 0.58684 0.02543 0.38963 0.0
H1048 H 0.56771 0.00252 0.28929 0.0
H1049 H 0.61226 0.00538 0.27005 0.0
H1050 H 0.60296 0.99502 0.30369 0.0
H1051 H 0.60861 0.01097 0.30901 0.0
C1052 C 0.586 0.99823 0.38955 0.0
C1053 C 0.58637 0.00867 0.4033 0.0
C1054 C 0.58567 0.99642 0.35331 0.0
C1055 C 0.58576 0.00502 0.33015 0.0
C1056 C 0.58624 0.01548 0.34374 0.0
H1057 H 0.59399 0.00918 0.10389 0.0
H1058 H 0.59648 0.01263 0.16718 0.0
C1059 C 0.5866 0.01732 0.37995 0.0
C1060 C 0.58473 0.00281 0.29181 0.0
H1061 H 0.5988 0.99861 0.22144 0.0
C1062 C 0.57451 0.00169 0.27441 0.0
C1063 C 0.59368 0.00184 0.27248 0.0
C1064 C 0.60506 0.00346 0.28962 0.0
C1065 C 0.57292 0.99947 0.23822 0.0
C1066 C 0.58171 0.99818 0.21903 0.0
C1067 C 0.59202 0.99948 0.23631 0.0
C1068 C 0.58046 0.99574 0.18082 0.0
C1069 C 0.56194 0.9987 0.22072 0.0
C1070 C 0.57077 0.98497 0.16757 0.0
C1071 C 0.56931 0.98296 0.1314 0.0
C1072 C 0.57755 0.99167 0.10781 0.0
C1073 C 0.58745 0.0023 0.12128 0.0
C1074 C 0.5889 0.00429 0.15745 0.0
H1075 H 0.55765 0.00269 0.23727 0.0
H1076 H 0.56438 0.00344 0.19503 0.0
H1077 H 0.55514 0.98905 0.21597 0.0
H1078 H 0.56427 0.97816 0.18522 0.0
H1079 H 0.56162 0.97465 0.12196 0.0
H1080 H 0.97537 0.56097 0.38896 0.0
H1081 H 0.97897 0.56366 0.32575 0.0
H1082 H 0.01313 0.5962 0.34412 0.0
H1083 H 0.0096 0.59365 0.40741 0.0
H1084 H 0.99878 0.59813 0.28943 0.0
H1085 H 0.00417 0.55771 0.27434 0.0
H1086 H 0.99045 0.55491 0.29577 0.0
H1087 H 0.00481 0.56449 0.31644 0.0
C1088 C 0.98363 0.56874 0.37961 0.0
C1089 C 0.99223 0.57705 0.4033 0.0
C1090 C 0.98569 0.57023 0.34347 0.0
C1091 C 0.9964 0.58003 0.33033 0.0
C1092 C 0.00484 0.58854 0.35378 0.0
H1093 H 0.02631 0.58685 0.12156 0.0
H1094 H 0.02303 0.58623 0.18489 0.0
C1095 C 0.0028 0.58705 0.38994 0.0
C1096 C 0.99888 0.58131 0.29213 0.0
H1097 H 0.00372 0.56755 0.22216 0.0
C1098 C 0.99988 0.59147 0.27467 0.0
C1099 C 1.00047 0.57268 0.27311 0.0
C1100 C 1.00004 0.56188 0.29082 0.0
C1101 C 0.00221 0.5931 0.23848 0.0
C1102 C 0.00347 0.58429 0.2193 0.0
C1103 C 0.00267 0.57425 0.2369 0.0
C1104 C 0.00566 0.58531 0.18094 0.0
C1105 C 0.00349 0.60433 0.22116 0.0
C1106 C 0.99696 0.58498 0.15771 0.0
C1107 C 0.9988 0.58532 0.12147 0.0
C1108 C 0.00935 0.58595 0.10777 0.0
C1109 C 0.01809 0.58639 0.13118 0.0
C1110 C 0.01623 0.58602 0.16739 0.0
H1111 H 0.00525 0.61152 0.2406 0.0
H1112 H 0.01096 0.608 0.20166 0.0
H1113 H 0.99495 0.60198 0.20719 0.0
H1114 H 0.98864 0.58421 0.16759 0.0
H1115 H 0.99186 0.58492 0.10421 0.0
H1116 H 0.41436 0.44051 0.12165 0.0
H1117 H 0.41528 0.43779 0.18484 0.0
H1118 H 0.41634 0.40496 0.16632 0.0
H1119 H 0.41535 0.40755 0.10305 0.0
H1120 H 0.40015 0.40328 0.22106 0.0
H1121 H 0.44626 0.44324 0.23619 0.0
H1122 H 0.43549 0.44626 0.21478 0.0
H1123 H 0.44007 0.43652 0.19409 0.0
C1124 C 0.41474 0.43268 0.13096 0.0
C1125 C 0.41486 0.42428 0.10724 0.0
C1126 C 0.41532 0.43117 0.16709 0.0
C1127 C 0.41605 0.42127 0.18019 0.0
C1128 C 0.41583 0.4127 0.1567 0.0
H1129 H 0.43875 0.414 0.38907 0.0
H1130 H 0.43615 0.41464 0.32572 0.0
C1131 C 0.41529 0.4142 0.12055 0.0
C1132 C 0.41722 0.41995 0.21837 0.0
H1133 H 0.43588 0.4335 0.28837 0.0
C1134 C 0.40796 0.40987 0.23582 0.0
C1135 C 0.4275 0.42848 0.23741 0.0
C1136 C 0.43796 0.43919 0.21971 0.0
C1137 C 0.40861 0.4082 0.27201 0.0
C1138 C 0.41874 0.41691 0.2912 0.0
C1139 C 0.42808 0.42688 0.27362 0.0
C1140 C 0.41986 0.41587 0.32958 0.0
C1141 C 0.39855 0.39706 0.28933 0.0
C1142 C 0.41157 0.41636 0.35275 0.0
C1143 C 0.41302 0.41601 0.389 0.0
C1144 C 0.42284 0.4152 0.40276 0.0
C1145 C 0.43107 0.41459 0.3794 0.0
C1146 C 0.42961 0.41498 0.34318 0.0
H1147 H 0.39305 0.3899 0.26988 0.0
H1148 H 0.40223 0.39329 0.30886 0.0
H1149 H 0.39245 0.39954 0.30326 0.0
H1150 H 0.4041 0.41727 0.34282 0.0
H1151 H 0.40655 0.41655 0.40622 0.0
H1152 H 0.33801 0.21496 0.16279 0.0
H1153 H 0.3441 0.19957 0.16355 0.0
H1154 H 0.30657 0.17142 0.16447 0.0
H1155 H 0.30037 0.18674 0.16329 0.0
H1156 H 0.33858 0.18186 0.21496 0.0
H1157 H 0.32093 0.16099 0.0847 0.0
H1158 H 0.32285 0.17553 0.09696 0.0
H1159 H 0.30999 0.1618 0.1125 0.0
C1160 C 0.33104 0.2055 0.16283 0.0
C1161 C 0.31869 0.20209 0.16285 0.0
C1162 C 0.33454 0.19672 0.16333 0.0
C1163 C 0.3258 0.18436 0.16366 0.0
C1164 C 0.31347 0.18091 0.16356 0.0
H1165 H 0.32926 0.11808 0.17331 0.0
H1166 H 0.32286 0.13326 0.17293 0.0
C1167 C 0.30995 0.18968 0.16304 0.0
C1168 C 0.32959 0.17512 0.16543 0.0
H1169 H 0.32812 0.15101 0.12183 0.0
C1170 C 0.33634 0.17514 0.19454 0.0
C1171 C 0.32662 0.16635 0.1388 0.0
C1172 C 0.31979 0.16618 0.1063 0.0
C1173 C 0.34006 0.16652 0.19801 0.0
C1174 C 0.33711 0.15777 0.17134 0.0
C1175 C 0.33034 0.15772 0.14226 0.0
C1176 C 0.34107 0.14864 0.17289 0.0
C1177 C 0.34689 0.16669 0.2305 0.0
C1178 C 0.35343 0.15226 0.17287 0.0
C1179 C 0.35713 0.14362 0.17315 0.0
C1180 C 0.34852 0.13118 0.17322 0.0
C1181 C 0.33613 0.12759 0.17336 0.0
C1182 C 0.33245 0.13624 0.17308 0.0
H1183 H 0.34565 0.17179 0.2522 0.0
H1184 H 0.34393 0.15735 0.23966 0.0
H1185 H 0.35671 0.17119 0.22438 0.0
H1186 H 0.36023 0.16179 0.17204 0.0
H1187 H 0.36674 0.1467 0.17282 0.0
H1188 H 0.7857 0.12307 0.1628 0.0
H1189 H 0.80102 0.14457 0.16392 0.0
H1190 H 0.82928 0.13535 0.1659 0.0
H1191 H 0.81404 0.1138 0.16436 0.0
H1192 H 0.8185 0.15679 0.21577 0.0
H1193 H 0.83991 0.1602 0.0863 0.0
H1194 H 0.82537 0.14751 0.09819 0.0
H1195 H 0.83907 0.14846 0.11422 0.0
C1196 C 0.79518 0.12559 0.16315 0.0
C1197 C 0.79864 0.1167 0.16336 0.0
C1198 C 0.80391 0.1379 0.16387 0.0
C1199 C 0.81628 0.14156 0.16459 0.0
C1200 C 0.81979 0.13273 0.16468 0.0
H1201 H 0.88243 0.21119 0.17599 0.0
H1202 H 0.8672 0.18966 0.17538 0.0
C1203 C 0.81105 0.12041 0.16395 0.0
C1204 C 0.82547 0.15462 0.16656 0.0
H1205 H 0.84971 0.17733 0.12364 0.0
C1206 C 0.82529 0.16131 0.19557 0.0
C1207 C 0.83434 0.16046 0.1402 0.0
C1208 C 0.83467 0.15384 0.10779 0.0
C1209 C 0.83387 0.17366 0.19921 0.0
C1210 C 0.84273 0.1795 0.17284 0.0
C1211 C 0.84291 0.17281 0.14385 0.0
C1212 C 0.85187 0.19258 0.17469 0.0
C1213 C 0.83354 0.18028 0.23161 0.0
C1214 C 0.8483 0.20136 0.17445 0.0
C1215 C 0.85699 0.2137 0.17487 0.0
C1216 C 0.86942 0.21747 0.17531 0.0
C1217 C 0.87295 0.20862 0.17575 0.0
C1218 C 0.86426 0.1963 0.17533 0.0
H1219 H 0.82832 0.17392 0.25313 0.0
H1220 H 0.84284 0.18664 0.24115 0.0
H1221 H 0.8291 0.18563 0.22519 0.0
H1222 H 0.8388 0.19868 0.17329 0.0
H1223 H 0.85396 0.22026 0.17429 0.0
H1224 H 0.8778 0.66234 0.16276 0.0
H1225 H 0.85624 0.65604 0.16294 0.0
H1226 H 0.86527 0.69347 0.16387 0.0
H1227 H 0.88682 0.69988 0.16329 0.0
H1228 H 0.84367 0.66139 0.21379 0.0
H1229 H 0.84091 0.67905 0.08315 0.0
H1230 H 0.85353 0.67721 0.09602 0.0
H1231 H 0.85254 0.69006 0.11111 0.0
C1232 C 0.87521 0.66925 0.16269 0.0
C1233 C 0.88405 0.68162 0.16287 0.0
C1234 C 0.86289 0.66562 0.16287 0.0
C1235 C 0.85916 0.67429 0.16297 0.0
C1236 C 0.86795 0.68664 0.1631 0.0
H1237 H 0.78993 0.67169 0.17124 0.0
H1238 H 0.81141 0.67771 0.17099 0.0
C1239 C 0.88027 0.69028 0.16294 0.0
C1240 C 0.8461 0.67041 0.16423 0.0
H1241 H 0.8237 0.67212 0.12008 0.0
C1242 C 0.83927 0.66367 0.19323 0.0
C1243 C 0.84041 0.67343 0.1374 0.0
C1244 C 0.84718 0.68024 0.10499 0.0
C1245 C 0.82695 0.66006 0.19645 0.0
C1246 C 0.82127 0.66311 0.16966 0.0
C1247 C 0.82809 0.66983 0.14063 0.0
C1248 C 0.80824 0.65938 0.17111 0.0
C1249 C 0.82018 0.65326 0.22888 0.0
C1250 C 0.79934 0.64706 0.17114 0.0
C1251 C 0.78705 0.64358 0.17136 0.0
C1252 C 0.78343 0.65236 0.17131 0.0
C1253 C 0.79239 0.66469 0.17138 0.0
C1254 C 0.80467 0.66816 0.17117 0.0
H1255 H 0.82645 0.65438 0.25065 0.0
H1256 H 0.8139 0.65636 0.23798 0.0
H1257 H 0.81474 0.64345 0.2227 0.0
H1258 H 0.80189 0.64014 0.17041 0.0
H1259 H 0.7804 0.63401 0.17108 0.0
H1260 H 0.12078 0.3302 0.32697 0.0
H1261 H 0.13673 0.32491 0.32949 0.0
H1262 H 0.16387 0.36282 0.32961 0.0
H1263 H 0.14796 0.36823 0.32754 0.0
H1264 H 0.15595 0.33077 0.28315 0.0
H1265 H 0.17263 0.34958 0.41612 0.0
H1266 H 0.15831 0.34705 0.39921 0.0
H1267 H 0.17222 0.36004 0.38532 0.0
C1268 C 0.13014 0.33744 0.32747 0.0
C1269 C 0.13309 0.34965 0.32725 0.0
C1270 C 0.13924 0.33439 0.32891 0.0
C1271 C 0.15147 0.34347 0.33032 0.0
C1272 C 0.15448 0.35567 0.32926 0.0
H1273 H 0.21799 0.34017 0.34305 0.0
H1274 H 0.20298 0.34676 0.3397 0.0
C1275 C 0.14537 0.35874 0.32784 0.0
C1276 C 0.16102 0.3401 0.3327 0.0
H1277 H 0.18359 0.34202 0.38539 0.0
C1278 C 0.16199 0.33322 0.3055 0.0
C1279 C 0.16888 0.34332 0.36189 0.0
C1280 C 0.16794 0.35031 0.39248 0.0
C1281 C 0.17069 0.32954 0.30658 0.0
C1282 C 0.17847 0.33265 0.33593 0.0
C1283 C 0.17759 0.33964 0.36296 0.0
C1284 C 0.1875 0.32862 0.33917 0.0
C1285 C 0.17159 0.3225 0.27604 0.0
C1286 C 0.18375 0.31623 0.34081 0.0
C1287 C 0.19229 0.31243 0.34275 0.0
C1288 C 0.20475 0.32095 0.34327 0.0
C1289 C 0.20847 0.33336 0.34261 0.0
C1290 C 0.19991 0.33716 0.34069 0.0
H1291 H 0.16725 0.32357 0.2521 0.0
H1292 H 0.1812 0.32544 0.26999 0.0
H1293 H 0.16691 0.31273 0.28284 0.0
H1294 H 0.1742 0.3095 0.3404 0.0
H1295 H 0.1891 0.3028 0.34341 0.0
H1296 H 0.63467 0.78045 0.32845 0.0
H1297 H 0.64059 0.80189 0.33087 0.0
H1298 H 0.67826 0.81179 0.32983 0.0
H1299 H 0.67247 0.79039 0.32783 0.0
H1300 H 0.67245 0.82342 0.38219 0.0
H1301 H 0.65479 0.82729 0.25264 0.0
H1302 H 0.64391 0.81527 0.27989 0.0
H1303 H 0.65688 0.81469 0.26393 0.0
C1304 C 0.64422 0.78718 0.32842 0.0
C1305 C 0.6531 0.78369 0.32786 0.0
C1306 C 0.64758 0.79944 0.32965 0.0
C1307 C 0.65987 0.80843 0.33011 0.0
C1308 C 0.66874 0.80499 0.32936 0.0
H1309 H 0.70003 0.887 0.34381 0.0
H1310 H 0.69378 0.86547 0.34188 0.0
C1311 C 0.66539 0.79275 0.32814 0.0
C1312 C 0.6635 0.82142 0.33274 0.0
H1313 H 0.66179 0.84418 0.29075 0.0
C1314 C 0.67017 0.82798 0.36215 0.0
C1315 C 0.66046 0.82732 0.30659 0.0
C1316 C 0.65371 0.82083 0.27381 0.0
C1317 C 0.67376 0.84027 0.36638 0.0
C1318 C 0.67076 0.84618 0.34019 0.0
C1319 C 0.66406 0.83961 0.31082 0.0
C1320 C 0.67456 0.85922 0.34256 0.0
C1321 C 0.68051 0.84675 0.39918 0.0
C1322 C 0.66583 0.86285 0.34307 0.0
C1323 C 0.66936 0.87515 0.34401 0.0
C1324 C 0.68172 0.88406 0.34423 0.0
C1325 C 0.69044 0.88038 0.34389 0.0
C1326 C 0.68689 0.86807 0.34295 0.0
H1327 H 0.6793 0.84029 0.42047 0.0
H1328 H 0.69033 0.85219 0.39321 0.0
H1329 H 0.67745 0.853 0.40883 0.0
H1330 H 0.65627 0.85616 0.34264 0.0
H1331 H 0.6624 0.87765 0.34415 0.0
H1332 H 0.21069 0.88132 0.32832 0.0
H1333 H 0.18931 0.8657 0.33087 0.0
H1334 H 0.19923 0.83794 0.3298 0.0
H1335 H 0.22067 0.8535 0.32767 0.0
H1336 H 0.17555 0.84662 0.28426 0.0
H1337 H 0.17743 0.82948 0.41669 0.0
H1338 H 0.18937 0.84372 0.39987 0.0
H1339 H 0.18819 0.8297 0.38582 0.0
C1340 C 0.20834 0.8719 0.32856 0.0
C1341 C 0.21741 0.86866 0.328 0.0
C1342 C 0.19611 0.86299 0.33002 0.0
C1343 C 0.1927 0.85068 0.33113 0.0
C1344 C 0.20169 0.8474 0.32971 0.0
H1345 H 0.12309 0.78421 0.34216 0.0
H1346 H 0.14463 0.79942 0.33925 0.0
C1347 C 0.21393 0.85631 0.32825 0.0
C1348 C 0.17971 0.84131 0.33355 0.0
H1349 H 0.15895 0.81858 0.3856 0.0
C1350 C 0.1719 0.8405 0.30644 0.0
C1351 C 0.17501 0.83335 0.36253 0.0
C1352 C 0.18289 0.83413 0.39307 0.0
C1353 C 0.15951 0.83183 0.3073 0.0
C1354 C 0.15479 0.82391 0.33635 0.0
C1355 C 0.16261 0.82467 0.36338 0.0
C1356 C 0.14175 0.81476 0.33916 0.0
C1357 C 0.15163 0.83106 0.27678 0.0
C1358 C 0.13301 0.81837 0.34086 0.0
C1359 C 0.12069 0.80972 0.34255 0.0
C1360 C 0.11688 0.79728 0.34275 0.0
C1361 C 0.1257 0.79371 0.34197 0.0
C1362 C 0.13802 0.80238 0.34029 0.0
H1363 H 0.15708 0.83557 0.25303 0.0
H1364 H 0.14502 0.82148 0.27028 0.0
H1365 H 0.14648 0.83566 0.28388 0.0
H1366 H 0.13572 0.8279 0.34076 0.0
H1367 H 0.11415 0.81278 0.3433 0.0
H1368 H 0.67272 0.88278 0.83058 0.0
H1369 H 0.67881 0.86738 0.83081 0.0
H1370 H 0.64127 0.83923 0.83161 0.0
H1371 H 0.63507 0.85456 0.83097 0.0
H1372 H 0.67335 0.84958 0.88173 0.0
H1373 H 0.65555 0.82894 0.75137 0.0
H1374 H 0.65746 0.84345 0.76399 0.0
H1375 H 0.64461 0.82968 0.77936 0.0
C1376 C 0.66574 0.87331 0.83048 0.0
C1377 C 0.6534 0.8699 0.83063 0.0
C1378 C 0.66925 0.86453 0.83068 0.0
C1379 C 0.6605 0.85217 0.83081 0.0
C1380 C 0.64817 0.84872 0.83084 0.0
H1381 H 0.66303 0.78552 0.84004 0.0
H1382 H 0.65704 0.80099 0.83957 0.0
C1383 C 0.64465 0.8575 0.83063 0.0
C1384 C 0.66429 0.84291 0.83226 0.0
H1385 H 0.66258 0.81876 0.78832 0.0
C1386 C 0.67106 0.84287 0.86124 0.0
C1387 C 0.66125 0.83417 0.80552 0.0
C1388 C 0.65441 0.83408 0.77313 0.0
C1389 C 0.6747 0.83418 0.86451 0.0
C1390 C 0.67164 0.82543 0.83779 0.0
C1391 C 0.66488 0.82548 0.8088 0.0
C1392 C 0.67538 0.81614 0.83933 0.0
C1393 C 0.68154 0.83427 0.89689 0.0
C1394 C 0.68769 0.81954 0.83925 0.0
C1395 C 0.69116 0.81072 0.83959 0.0
C1396 C 0.68237 0.79833 0.83979 0.0
C1397 C 0.67004 0.79497 0.83999 0.0
C1398 C 0.66659 0.8038 0.83965 0.0
H1399 H 0.68045 0.83947 0.91861 0.0
H1400 H 0.67844 0.82491 0.90612 0.0
H1401 H 0.69133 0.83861 0.8906 0.0
H1402 H 0.69462 0.82901 0.83833 0.0
H1403 H 0.70073 0.81362 0.83921 0.0
H1404 H 0.21505 0.8773 0.83877 0.0
H1405 H 0.19942 0.8559 0.83745 0.0
H1406 H 0.17167 0.86582 0.83895 0.0
H1407 H 0.18722 0.88727 0.83986 0.0
H1408 H 0.18063 0.84247 0.88525 0.0
H1409 H 0.16265 0.84341 0.75334 0.0
H1410 H 0.177 0.85547 0.76918 0.0
H1411 H 0.16308 0.8544 0.78366 0.0
C1412 C 0.20562 0.87495 0.83886 0.0
C1413 C 0.20239 0.88401 0.83921 0.0
C1414 C 0.19671 0.86271 0.83811 0.0
C1415 C 0.1844 0.85929 0.83751 0.0
C1416 C 0.18112 0.86828 0.83866 0.0
H1417 H 0.11768 0.78988 0.83173 0.0
H1418 H 0.13304 0.81139 0.83333 0.0
C1419 C 0.19003 0.88054 0.83941 0.0
C1420 C 0.17501 0.84629 0.83597 0.0
H1421 H 0.15188 0.82519 0.78574 0.0
C1422 C 0.17436 0.83867 0.86346 0.0
C1423 C 0.16685 0.84138 0.80749 0.0
C1424 C 0.16745 0.84904 0.77656 0.0
C1425 C 0.16564 0.82629 0.86352 0.0
C1426 C 0.15751 0.82137 0.83499 0.0
C1427 C 0.15813 0.829 0.80755 0.0
C1428 C 0.14827 0.80833 0.83319 0.0
C1429 C 0.16505 0.81863 0.89444 0.0
C1430 C 0.15176 0.7995 0.83186 0.0
C1431 C 0.14301 0.78719 0.83094 0.0
C1432 C 0.1306 0.7835 0.83114 0.0
C1433 C 0.12715 0.7924 0.83163 0.0
C1434 C 0.13591 0.8047 0.83255 0.0
H1435 H 0.16975 0.82426 0.91775 0.0
H1436 H 0.15551 0.81211 0.90162 0.0
H1437 H 0.16955 0.81337 0.88743 0.0
H1438 H 0.16126 0.80212 0.83159 0.0
H1439 H 0.14599 0.78059 0.83038 0.0
H1440 H 0.11259 0.29839 0.84191 0.0
H1441 H 0.13382 0.30333 0.84249 0.0
H1442 H 0.14537 0.34143 0.84377 0.0
H1443 H 0.1243 0.33662 0.84358 0.0
H1444 H 0.15179 0.31708 0.79262 0.0
H1445 H 0.16471 0.33814 0.92431 0.0
H1446 H 0.14912 0.32887 0.91085 0.0
H1447 H 0.15772 0.34445 0.89727 0.0
C1448 C 0.11965 0.30781 0.84269 0.0
C1449 C 0.11673 0.31711 0.84285 0.0
C1450 C 0.13176 0.31062 0.84294 0.0
C1451 C 0.14115 0.32274 0.84366 0.0
C1452 C 0.13827 0.33201 0.84394 0.0
H1453 H 0.219 0.3632 0.83181 0.0
H1454 H 0.19728 0.35604 0.83352 0.0
C1455 C 0.12619 0.32923 0.84365 0.0
C1456 C 0.154 0.32579 0.84261 0.0
H1457 H 0.18091 0.34145 0.88611 0.0
C1458 C 0.15815 0.32229 0.81321 0.0
C1459 C 0.16226 0.33261 0.8695 0.0
C1460 C 0.15823 0.33615 0.90243 0.0
C1461 C 0.17043 0.32579 0.80942 0.0
C1462 C 0.17873 0.33281 0.83599 0.0
C1463 C 0.17454 0.33612 0.86568 0.0
C1464 C 0.19185 0.33702 0.83336 0.0
C1465 C 0.17451 0.32228 0.77651 0.0
C1466 C 0.19599 0.32868 0.83269 0.0
C1467 C 0.20841 0.33274 0.83165 0.0
C1468 C 0.21692 0.34522 0.83145 0.0
C1469 C 0.21271 0.35353 0.83184 0.0
C1470 C 0.2003 0.34946 0.8329 0.0
H1471 H 0.16763 0.31937 0.75532 0.0
H1472 H 0.18317 0.32995 0.76674 0.0
H1473 H 0.17602 0.31461 0.78241 0.0
H1474 H 0.18962 0.31904 0.83365 0.0
H1475 H 0.21133 0.32609 0.83157 0.0
H1476 H 0.81307 0.69967 0.65798 0.0
H1477 H 0.82857 0.6937 0.65909 0.0
H1478 H 0.80071 0.65606 0.66082 0.0
H1479 H 0.78514 0.66191 0.65932 0.0
H1480 H 0.83194 0.68007 0.71093 0.0
H1481 H 0.82295 0.65738 0.58129 0.0
H1482 H 0.81721 0.66728 0.5932 0.0
H1483 H 0.80984 0.65193 0.60892 0.0
C1484 C 0.81022 0.69011 0.65827 0.0
C1485 C 0.79785 0.68126 0.65843 0.0
C1486 C 0.8191 0.68673 0.65897 0.0
C1487 C 0.81579 0.67445 0.6596 0.0
C1488 C 0.80346 0.66559 0.65965 0.0
H1489 H 0.8547 0.63499 0.67288 0.0
H1490 H 0.83944 0.64126 0.67123 0.0
C1491 C 0.79458 0.66896 0.65895 0.0
C1492 C 0.82522 0.67091 0.66161 0.0
H1493 H 0.83642 0.65501 0.61913 0.0
C1494 C 0.83298 0.67465 0.69078 0.0
C1495 C 0.82652 0.66381 0.63532 0.0
C1496 C 0.81877 0.65994 0.60274 0.0
C1497 C 0.84185 0.67129 0.69472 0.0
C1498 C 0.84312 0.66416 0.66847 0.0
C1499 C 0.83539 0.66045 0.63926 0.0
C1500 C 0.85244 0.66046 0.67073 0.0
C1501 C 0.84959 0.67514 0.72732 0.0
C1502 C 0.86481 0.66919 0.67088 0.0
C1503 C 0.87356 0.66565 0.6719 0.0
C1504 C 0.8701 0.65329 0.67255 0.0
C1505 C 0.85769 0.64458 0.67249 0.0
C1506 C 0.84895 0.64814 0.67148 0.0
H1507 H 0.84547 0.67782 0.74867 0.0
H1508 H 0.85105 0.66776 0.73703 0.0
H1509 H 0.85857 0.68308 0.72108 0.0
H1510 H 0.8677 0.67875 0.66964 0.0
H1511 H 0.88304 0.67259 0.6717 0.0
H1512 H 0.32906 0.21025 0.67463 0.0
H1513 H 0.32347 0.1889 0.67287 0.0
H1514 H 0.36125 0.19917 0.6723 0.0
H1515 H 0.36695 0.22056 0.67447 0.0
H1516 H 0.32953 0.17736 0.62076 0.0
H1517 H 0.34716 0.17382 0.75074 0.0
H1518 H 0.34492 0.18631 0.73919 0.0
H1519 H 0.35799 0.18588 0.72348 0.0
C1520 C 0.3362 0.20799 0.67447 0.0
C1521 C 0.34847 0.21713 0.67481 0.0
C1522 C 0.33298 0.19577 0.67339 0.0
C1523 C 0.34194 0.19245 0.67284 0.0
C1524 C 0.35419 0.20153 0.67336 0.0
H1525 H 0.33985 0.12335 0.66019 0.0
H1526 H 0.34594 0.14484 0.66136 0.0
C1527 C 0.35743 0.21376 0.67445 0.0
C1528 C 0.33844 0.17949 0.67037 0.0
H1529 H 0.34031 0.1569 0.71283 0.0
C1530 C 0.33184 0.17286 0.64094 0.0
C1531 C 0.34151 0.17368 0.69668 0.0
C1532 C 0.34819 0.18023 0.72948 0.0
C1533 C 0.32836 0.1606 0.63687 0.0
C1534 C 0.33139 0.15477 0.66325 0.0
C1535 C 0.33803 0.16141 0.69262 0.0
C1536 C 0.32763 0.14174 0.66114 0.0
C1537 C 0.32168 0.15405 0.60406 0.0
C1538 C 0.31531 0.13286 0.66073 0.0
C1539 C 0.31179 0.12057 0.65999 0.0
C1540 C 0.32053 0.11691 0.65988 0.0
C1541 C 0.33288 0.12584 0.66015 0.0
C1542 C 0.33638 0.13813 0.66089 0.0
H1543 H 0.3229 0.16047 0.58264 0.0
H1544 H 0.3248 0.14781 0.59465 0.0
H1545 H 0.31185 0.14859 0.6099 0.0
H1546 H 0.3084 0.13544 0.6616 0.0
H1547 H 0.30221 0.11394 0.66002 0.0
H1548 H 0.7813 0.1457 0.67393 0.0
H1549 H 0.80285 0.16094 0.67135 0.0
H1550 H 0.81202 0.13263 0.67137 0.0
H1551 H 0.79052 0.11733 0.67355 0.0
H1552 H 0.82164 0.16503 0.71793 0.0
H1553 H 0.82997 0.1529 0.585 0.0
H1554 H 0.81492 0.14774 0.60178 0.0
H1555 H 0.82324 0.14049 0.61542 0.0
C1556 C 0.78789 0.14271 0.67343 0.0
C1557 C 0.78417 0.13029 0.67375 0.0
C1558 C 0.8002 0.15143 0.67194 0.0
C1559 C 0.80901 0.1479 0.67054 0.0
C1560 C 0.80535 0.13554 0.67167 0.0
H1561 H 0.88787 0.1882 0.6604 0.0
H1562 H 0.86651 0.17233 0.66286 0.0
C1563 C 0.79306 0.12681 0.67315 0.0
C1564 C 0.82203 0.15718 0.66832 0.0
H1565 H 0.84716 0.16737 0.61661 0.0
C1566 C 0.82722 0.16557 0.69574 0.0
C1567 C 0.82928 0.15783 0.63937 0.0
C1568 C 0.82408 0.14934 0.60854 0.0
C1569 C 0.83952 0.17453 0.69521 0.0
C1570 C 0.84675 0.17523 0.66616 0.0
C1571 C 0.84159 0.16679 0.63884 0.0
C1572 C 0.85965 0.18481 0.66345 0.0
C1573 C 0.84471 0.18303 0.72604 0.0
C1574 C 0.86284 0.19704 0.66209 0.0
C1575 C 0.875 0.20611 0.66068 0.0
C1576 C 0.88424 0.20312 0.66037 0.0
C1577 C 0.881 0.19082 0.66069 0.0
C1578 C 0.8688 0.18174 0.66211 0.0
H1579 H 0.83894 0.17934 0.74976 0.0
H1580 H 0.85398 0.18485 0.73238 0.0
H1581 H 0.84528 0.19178 0.71941 0.0
H1582 H 0.8559 0.19959 0.66232 0.0
H1583 H 0.87715 0.21548 0.66022 0.0
H1584 H 0.9953 0.45132 0.50441 0.0
H1585 H 0.98957 0.46698 0.50364 0.0
H1586 H 0.02728 0.49468 0.50445 0.0
H1587 H 0.03313 0.47908 0.5048 0.0
H1588 H 0.99509 0.48573 0.55171 0.0
H1589 H 0.01367 0.50381 0.41958 0.0
H1590 H 0.0114 0.48944 0.43513 0.0
H1591 H 0.02431 0.50334 0.44951 0.0
C1592 C 0.00239 0.46074 0.50445 0.0
C1593 C 0.01468 0.46394 0.50446 0.0
C1594 C 0.99909 0.46968 0.50402 0.0
C1595 C 0.008 0.48198 0.50341 0.0
C1596 C 0.02026 0.48523 0.50419 0.0
H1597 H 0.00556 0.5488 0.49925 0.0
H1598 H 0.01159 0.53336 0.50035 0.0
C1599 C 0.02359 0.4763 0.50462 0.0
C1600 C 0.0044 0.49138 0.50223 0.0
H1601 H 0.00634 0.51458 0.4525 0.0
C1602 C 0.99751 0.49202 0.52999 0.0
C1603 C 0.00758 0.49957 0.47384 0.0
C1604 C 0.01456 0.49899 0.44264 0.0
C1605 C 0.99386 0.50075 0.53039 0.0
C1606 C 0.99702 0.50891 0.50196 0.0
C1607 C 0.00394 0.5083 0.47425 0.0
C1608 C 0.99327 0.51819 0.50056 0.0
C1609 C 0.98688 0.50132 0.56159 0.0
C1610 C 0.98095 0.51477 0.49963 0.0
C1611 C 0.97746 0.52356 0.499 0.0
C1612 C 0.98623 0.53596 0.4991 0.0
C1613 C 0.99856 0.53934 0.49925 0.0
C1614 C 0.00204 0.53054 0.49987 0.0
H1615 H 0.98785 0.49658 0.58473 0.0
H1616 H 0.98996 0.51086 0.56892 0.0
H1617 H 0.97712 0.49687 0.5548 0.0
H1618 H 0.97404 0.50528 0.49942 0.0
H1619 H 0.96788 0.52064 0.49872 0.0
H1620 H 0.47915 0.44686 0.49847 0.0
H1621 H 0.49472 0.46831 0.49887 0.0
H1622 H 0.46699 0.47828 0.49949 0.0
H1623 H 0.45135 0.45687 0.49867 0.0
H1624 H 0.48576 0.49153 0.45153 0.0
H1625 H 0.50379 0.49104 0.5837 0.0
H1626 H 0.50334 0.47992 0.55388 0.0
H1627 H 0.48943 0.47894 0.5681 0.0
C1628 C 0.47635 0.45361 0.49862 0.0
C1629 C 0.46399 0.45014 0.4987 0.0
C1630 C 0.48527 0.46586 0.49908 0.0
C1631 C 0.482 0.47487 0.49984 0.0
C1632 C 0.4697 0.47146 0.49914 0.0
H1633 H 0.5213 0.55374 0.50376 0.0
H1634 H 0.50573 0.53229 0.50341 0.0
C1635 C 0.46077 0.45921 0.49868 0.0
C1636 C 0.4914 0.48787 0.50102 0.0
H1637 H 0.51469 0.50908 0.55055 0.0
C1638 C 0.49206 0.49539 0.47323 0.0
C1639 C 0.4996 0.49286 0.52938 0.0
C1640 C 0.49898 0.48532 0.56064 0.0
C1641 C 0.50085 0.50775 0.47271 0.0
C1642 C 0.50905 0.51274 0.50107 0.0
C1643 C 0.50839 0.50522 0.52886 0.0
C1644 C 0.51845 0.52574 0.50224 0.0
C1645 C 0.50146 0.5153 0.44146 0.0
C1646 C 0.53075 0.52915 0.50278 0.0
C1647 C 0.53968 0.54139 0.5032 0.0
C1648 C 0.53645 0.55046 0.50328 0.0
C1649 C 0.5241 0.547 0.50352 0.0
C1650 C 0.51518 0.53474 0.50309 0.0
H1651 H 0.49663 0.50957 0.41842 0.0
H1652 H 0.49713 0.52071 0.44827 0.0
H1653 H 0.51101 0.52166 0.43396 0.0
H1654 H 0.53346 0.52233 0.50235 0.0
H1655 H 0.5491 0.54373 0.50309 0.0
H1656 H 0.5443 0.99471 0.49863 0.0
H1657 H 0.52283 0.98871 0.49843 0.0
H1658 H 0.53239 0.02629 0.49901 0.0
H1659 H 0.55388 0.0324 0.49879 0.0
H1660 H 0.51037 0.99426 0.54888 0.0
H1661 H 0.50809 0.01215 0.41814 0.0
H1662 H 0.52058 0.01014 0.43123 0.0
H1663 H 0.51973 0.02306 0.44628 0.0
C1664 C 0.54185 0.00171 0.4984 0.0
C1665 C 0.55082 0.01404 0.49859 0.0
C1666 C 0.52957 0.99826 0.49836 0.0
C1667 C 0.52602 0.00705 0.49827 0.0
C1668 C 0.53493 0.01936 0.49839 0.0
H1669 H 0.45712 0.00521 0.50552 0.0
H1670 H 0.47854 0.01103 0.50556 0.0
C1671 C 0.54722 0.02283 0.49843 0.0
C1672 C 0.51299 0.00334 0.49935 0.0
H1673 H 0.49082 0.00533 0.45477 0.0
C1674 C 0.50607 0.99661 0.52823 0.0
C1675 C 0.50743 0.00647 0.4724 0.0
C1676 C 0.51429 0.01326 0.44009 0.0
C1677 C 0.49376 0.99311 0.53123 0.0
C1678 C 0.48821 0.99626 0.50432 0.0
C1679 C 0.49512 0.00297 0.4754 0.0
C1680 C 0.4752 0.99264 0.50552 0.0
C1681 C 0.48689 0.98631 0.56353 0.0
C1682 C 0.46622 0.98035 0.50535 0.0
C1683 C 0.45396 0.97698 0.50539 0.0
C1684 C 0.45045 0.98584 0.50538 0.0
C1685 C 0.45949 0.99814 0.50564 0.0
C1686 C 0.47174 0.0015 0.50559 0.0
H1687 H 0.49309 0.98735 0.58541 0.0
H1688 H 0.48066 0.9895 0.57251 0.0
H1689 H 0.48138 0.97652 0.55725 0.0
H1690 H 0.46869 0.97337 0.50462 0.0
H1691 H 0.44724 0.96743 0.50498 0.0
H1692 H 0.48073 0.03336 0.99331 0.0
H1693 H 0.49593 0.027 0.99537 0.0
H1694 H 0.46756 0.98955 0.99634 0.0
H1695 H 0.4523 0.99579 0.99386 0.0
H1696 H 0.49866 0.01314 0.04778 0.0
H1697 H 0.49004 0.99042 0.91823 0.0
H1698 H 0.48449 0.00054 0.92949 0.0
H1699 H 0.47681 0.98519 0.94525 0.0
C1700 C 0.47771 0.02376 0.99361 0.0
C1701 C 0.46529 0.01508 0.99329 0.0
C1702 C 0.48641 0.02015 0.99486 0.0
C1703 C 0.48287 0.00781 0.99559 0.0
C1704 C 0.47049 0.99912 0.99511 0.0
H1705 H 0.52135 0.9678 0.01112 0.0
H1706 H 0.50606 0.97405 0.00919 0.0
C1707 C 0.46178 0.00272 0.99385 0.0
C1708 C 0.49212 0.00404 0.99829 0.0
H1709 H 0.50321 0.98787 0.9568 0.0
C1710 C 0.4997 0.00766 0.02782 0.0
C1711 C 0.49342 0.99686 0.97227 0.0
C1712 C 0.48584 0.9931 0.93935 0.0
C1713 C 0.50844 0.00414 0.03232 0.0
C1714 C 0.50975 0.99697 0.00628 0.0
C1715 C 0.50215 0.99334 0.97677 0.0
C1716 C 0.51904 0.99326 0.0089 0.0
C1717 C 0.51602 0.00791 0.06523 0.0
C1718 C 0.5314 0.00199 0.00928 0.0
C1719 C 0.54016 0.99846 0.01045 0.0
C1720 C 0.53672 0.98611 0.01102 0.0
C1721 C 0.52431 0.97738 0.01081 0.0
C1722 C 0.51556 0.98093 0.00963 0.0
H1723 H 0.51181 0.01056 0.08638 0.0
H1724 H 0.51741 0.00048 0.07504 0.0
H1725 H 0.52504 0.01584 0.05935 0.0
H1726 H 0.53429 0.01155 0.00804 0.0
H1727 H 0.54963 0.00542 0.01037 0.0
H1728 H 0.03323 0.55361 0.00976 0.0
H1729 H 0.02691 0.53206 0.00645 0.0
H1730 H 0.98944 0.52288 0.00751 0.0
H1731 H 0.99563 0.54436 0.01043 0.0
H1732 H 0.01218 0.51293 0.05236 0.0
H1733 H 0.99178 0.50554 0.91963 0.0
H1734 H 0.00171 0.52047 0.93715 0.0
H1735 H 0.98611 0.51213 0.95058 0.0
C1736 C 0.02364 0.54701 0.00938 0.0
C1737 C 0.01494 0.55072 0.01013 0.0
C1738 C 0.02005 0.53471 0.00747 0.0
C1739 C 0.00772 0.5259 0.00609 0.0
C1740 C 0.99901 0.52955 0.00778 0.0
H1741 H 0.96749 0.44741 0.99325 0.0
H1742 H 0.97389 0.46898 0.99647 0.0
C1743 C 0.00258 0.54184 0.00968 0.0
C1744 C 0.00395 0.51289 0.00307 0.0
H1745 H 0.98866 0.48805 0.95052 0.0
C1746 C 0.00709 0.50749 0.03004 0.0
C1747 C 0.9973 0.50584 0.97391 0.0
C1748 C 0.9941 0.51129 0.94348 0.0
C1749 C 0.00355 0.49514 0.02896 0.0
C1750 C 0.99688 0.48808 0.99982 0.0
C1751 C 0.99375 0.49349 0.97284 0.0
C1752 C 0.99307 0.47506 0.99686 0.0
C1753 C 0.00674 0.48969 0.0594 0.0
C1754 C 0.00174 0.47136 0.99522 0.0
C1755 C 0.99812 0.45906 0.99338 0.0
C1756 C 0.98575 0.45021 0.99293 0.0
C1757 C 0.97709 0.45398 0.99363 0.0
C1758 C 0.98072 0.46629 0.99549 0.0
H1759 H 0.00908 0.49545 0.08323 0.0
H1760 H 0.99912 0.48052 0.06578 0.0
H1761 H 0.01471 0.48882 0.05229 0.0
H1762 H 0.01132 0.478 0.99549 0.0
H1763 H 0.00504 0.45649 0.99267 0.0
H1764 H 0.45616 0.45187 0.00971 0.0
H1765 H 0.47769 0.46698 0.00694 0.0
H1766 H 0.46895 0.49558 0.00711 0.0
H1767 H 0.44734 0.48052 0.00949 0.0
H1768 H 0.48549 0.49795 0.95461 0.0
H1769 H 0.49946 0.48958 0.08468 0.0
H1770 H 0.4913 0.47627 0.05808 0.0
H1771 H 0.48381 0.48418 0.07344 0.0
C1772 C 0.4588 0.46137 0.00947 0.0
C1773 C 0.45001 0.46498 0.00992 0.0
C1774 C 0.47112 0.47 0.00806 0.0
C1775 C 0.47492 0.4824 0.00728 0.0
C1776 C 0.4662 0.48605 0.00786 0.0
H1777 H 0.54433 0.54867 0.99089 0.0
H1778 H 0.52284 0.53342 0.99332 0.0
C1779 C 0.45386 0.47743 0.0093 0.0
C1780 C 0.48797 0.49154 0.00441 0.0
H1781 H 0.51522 0.50247 0.04579 0.0
C1782 C 0.49199 0.49899 0.97461 0.0
C1783 C 0.49642 0.49282 0.03047 0.0
C1784 C 0.49255 0.48537 0.06364 0.0
C1785 C 0.50429 0.50759 0.9699 0.0
C1786 C 0.51274 0.50889 0.996 0.0
C1787 C 0.50872 0.50142 0.02577 0.0
C1788 C 0.52577 0.5181 0.99328 0.0
C1789 C 0.50815 0.51503 0.93672 0.0
C1790 C 0.53457 0.51456 0.99298 0.0
C1791 C 0.54689 0.52326 0.99176 0.0
C1792 C 0.55064 0.53568 0.99106 0.0
C1793 C 0.54177 0.53918 0.99119 0.0
C1794 C 0.52947 0.53048 0.99241 0.0
H1795 H 0.50129 0.51075 0.9156 0.0
H1796 H 0.50929 0.52409 0.94217 0.0
H1797 H 0.51694 0.51631 0.92707 0.0
H1798 H 0.5319 0.50504 0.99382 0.0
H1799 H 0.55348 0.52025 0.99181 0.0
H1800 H 0.40683 0.02893 0.02071 0.0
H1801 H 0.3976 0.04022 0.04422 0.0
H1802 H 0.43234 0.07306 0.04274 0.0
H1803 H 0.44173 0.06178 0.01953 0.0
H1804 H 0.42023 0.06873 0.10683 0.0
H1805 H 0.38984 0.06425 0.99685 0.0
H1806 H 0.38813 0.05003 0.0109 0.0
H1807 H 0.40222 0.0613 0.99188 0.0
C1808 C 0.4125 0.03859 0.02485 0.0
C1809 C 0.42503 0.04445 0.01816 0.0
C1810 C 0.40719 0.04504 0.03818 0.0
C1811 C 0.41425 0.0575 0.04487 0.0
C1812 C 0.42671 0.06345 0.03761 0.0
H1813 H 0.39543 0.10803 0.14311 0.0
H1814 H 0.40658 0.09888 0.11748 0.0
C1815 C 0.43205 0.057 0.02422 0.0
C1816 C 0.40872 0.06411 0.06142 0.0
H1817 H 0.38606 0.07077 0.05166 0.0
C1818 C 0.41285 0.06931 0.09464 0.0
C1819 C 0.39907 0.06482 0.04547 0.0
C1820 C 0.39462 0.05991 0.00916 0.0
C1821 C 0.40731 0.07483 0.11287 0.0
C1822 C 0.39751 0.07531 0.0972 0.0
C1823 C 0.39353 0.07032 0.06371 0.0
C1824 C 0.39106 0.08076 0.11521 0.0
C1825 C 0.41172 0.07975 0.14919 0.0
C1826 C 0.37865 0.07362 0.12247 0.0
C1827 C 0.37225 0.07882 0.13701 0.0
C1828 C 0.37813 0.0913 0.14441 0.0
C1829 C 0.39064 0.09838 0.13796 0.0
C1830 C 0.39704 0.09316 0.12338 0.0
H1831 H 0.41737 0.07621 0.16057 0.0
H1832 H 0.41733 0.08977 0.1479 0.0
H1833 H 0.40398 0.07743 0.16706 0.0
H1834 H 0.37386 0.06403 0.11633 0.0
H1835 H 0.36262 0.07309 0.14157 0.0
H1836 H 0.89339 0.28767 0.14332 0.0
H1837 H 0.90276 0.30788 0.11691 0.0
H1838 H 0.93733 0.30943 0.11581 0.0
H1839 H 0.92807 0.28924 0.14183 0.0
H1840 H 0.92259 0.33048 0.13883 0.0
H1841 H 0.932 0.3151 0.01261 0.0
H1842 H 0.92178 0.30469 0.04504 0.0
H1843 H 0.93788 0.31136 0.05042 0.0
C1844 C 0.90301 0.29235 0.13779 0.0
C1845 C 0.90996 0.28678 0.14444 0.0
C1846 C 0.90834 0.30389 0.12263 0.0
C1847 C 0.92067 0.31003 0.11372 0.0
C1848 C 0.92773 0.30473 0.12176 0.0
H1849 H 0.97225 0.37808 0.02106 0.0
H1850 H 0.96107 0.35766 0.04556 0.0
C1851 C 0.92243 0.29321 0.13688 0.0
C1852 C 0.92616 0.32189 0.09556 0.0
H1853 H 0.94086 0.33637 0.02043 0.0
C1854 C 0.9265 0.33177 0.11283 0.0
C1855 C 0.93122 0.32351 0.0616 0.0
C1856 C 0.93063 0.31309 0.04113 0.0
C1857 C 0.93213 0.34334 0.09751 0.0
C1858 C 0.93735 0.345 0.06376 0.0
C1859 C 0.93685 0.33507 0.04629 0.0
C1860 C 0.94382 0.35707 0.04675 0.0
C1861 C 0.9328 0.35379 0.11805 0.0
C1862 C 0.93774 0.36336 0.03829 0.0
C1863 C 0.9441 0.37506 0.0242 0.0
C1864 C 0.95666 0.38064 0.01822 0.0
C1865 C 0.9626 0.37408 0.0254 0.0
C1866 C 0.95623 0.36241 0.03945 0.0
H1867 H 0.93081 0.35156 0.14631 0.0
H1868 H 0.94192 0.36197 0.11558 0.0
H1869 H 0.92605 0.35603 0.1075 0.0
H1870 H 0.9281 0.3593 0.04305 0.0
H1871 H 0.93923 0.37983 0.01886 0.0
H1872 H 0.71155 0.63926 0.13977 0.0
H1873 H 0.6912 0.62816 0.11482 0.0
H1874 H 0.69293 0.59523 0.11609 0.0
H1875 H 0.71327 0.60622 0.14143 0.0
H1876 H 0.68545 0.61591 0.05042 0.0
H1877 H 0.65966 0.58474 0.15963 0.0
H1878 H 0.67436 0.59802 0.16584 0.0
H1879 H 0.67314 0.58457 0.14673 0.0
C1880 C 0.70755 0.62961 0.13531 0.0
C1881 C 0.71405 0.62363 0.14265 0.0
C1882 C 0.69592 0.6233 0.12093 0.0
C1883 C 0.69052 0.61086 0.11381 0.0
C1884 C 0.69684 0.60478 0.1219 0.0
H1885 H 0.62108 0.55991 0.01829 0.0
H1886 H 0.64172 0.56953 0.0417 0.0
C1887 C 0.70849 0.6111 0.13631 0.0
C1888 C 0.67859 0.60447 0.096 0.0
H1889 H 0.64931 0.5817 0.10577 0.0
C1890 C 0.67754 0.60844 0.06253 0.0
C1891 C 0.66831 0.59467 0.11175 0.0
C1892 C 0.66884 0.59028 0.14809 0.0
C1893 C 0.66649 0.60286 0.04433 0.0
C1894 C 0.65616 0.59319 0.06029 0.0
C1895 C 0.65725 0.5891 0.09355 0.0
C1896 C 0.64403 0.58753 0.04364 0.0
C1897 C 0.666 0.60729 0.00801 0.0
C1898 C 0.63851 0.59447 0.03677 0.0
C1899 C 0.62675 0.58902 0.02332 0.0
C1900 C 0.62022 0.57649 0.01668 0.0
C1901 C 0.62586 0.56959 0.02293 0.0
C1902 C 0.63764 0.57506 0.03644 0.0
H1903 H 0.67512 0.61215 0.99573 0.0
H1904 H 0.65986 0.59966 0.99071 0.0
H1905 H 0.66251 0.61369 0.0097 0.0
H1906 H 0.64318 0.60406 0.04276 0.0
H1907 H 0.62267 0.59461 0.01904 0.0
H1908 H 0.02621 0.404 0.47468 0.0
H1909 H 0.037 0.39429 0.45064 0.0
H1910 H 0.07033 0.4286 0.45139 0.0
H1911 H 0.05966 0.43839 0.47591 0.0
H1912 H 0.04914 0.39993 0.38692 0.0
H1913 H 0.08041 0.40588 0.49621 0.0
H1914 H 0.06737 0.40776 0.50186 0.0
H1915 H 0.08099 0.41963 0.48231 0.0
C1916 C 0.03588 0.40947 0.4703 0.0
C1917 C 0.04207 0.42198 0.4773 0.0
C1918 C 0.04202 0.40389 0.45644 0.0
C1919 C 0.05449 0.41069 0.44947 0.0
C1920 C 0.06076 0.42313 0.45715 0.0
H1921 H 0.10591 0.3933 0.35364 0.0
H1922 H 0.09569 0.4037 0.37729 0.0
C1923 C 0.05462 0.42872 0.47108 0.0
C1924 C 0.06073 0.40489 0.43224 0.0
H1925 H 0.08372 0.39871 0.44228 0.0
C1926 C 0.05667 0.39961 0.39907 0.0
C1927 C 0.07059 0.40455 0.44807 0.0
C1928 C 0.07505 0.40966 0.48421 0.0
C1929 C 0.06228 0.39411 0.38114 0.0
C1930 C 0.0721 0.39372 0.39704 0.0
C1931 C 0.07621 0.39906 0.4301 0.0
C1932 C 0.07805 0.38755 0.38027 0.0
C1933 C 0.05777 0.38893 0.34509 0.0
C1934 C 0.07148 0.37503 0.37386 0.0
C1935 C 0.07728 0.36906 0.36028 0.0
C1936 C 0.08977 0.37548 0.35303 0.0
C1937 C 0.09627 0.38808 0.35878 0.0
C1938 C 0.09046 0.39404 0.37242 0.0
H1939 H 0.05251 0.39278 0.33292 0.0
H1940 H 0.06542 0.39068 0.32749 0.0
H1941 H 0.05173 0.37898 0.34721 0.0
H1942 H 0.06194 0.36982 0.3803 0.0
H1943 H 0.07201 0.35935 0.35638 0.0
H1944 H 0.60795 0.71308 0.3546 0.0
H1945 H 0.5973 0.69268 0.37975 0.0
H1946 H 0.63064 0.69173 0.38054 0.0
H1947 H 0.64139 0.71213 0.35584 0.0
H1948 H 0.5948 0.67045 0.35684 0.0
H1949 H 0.61954 0.68517 0.48327 0.0
H1950 H 0.61974 0.69576 0.45147 0.0
H1951 H 0.62918 0.68912 0.44545 0.0
C1952 C 0.613 0.70849 0.35979 0.0
C1953 C 0.62555 0.7143 0.35347 0.0
C1954 C 0.6069 0.69684 0.37423 0.0
C1955 C 0.61324 0.69081 0.38273 0.0
C1956 C 0.62564 0.69634 0.37494 0.0
H1957 H 0.59611 0.62202 0.47293 0.0
H1958 H 0.60567 0.6425 0.44868 0.0
C1959 C 0.63175 0.70798 0.36056 0.0
C1960 C 0.60696 0.67883 0.40026 0.0
H1961 H 0.6071 0.66397 0.47464 0.0
C1962 C 0.59742 0.66903 0.38268 0.0
C1963 C 0.61039 0.67703 0.43403 0.0
C1964 C 0.6202 0.68734 0.45486 0.0
C1965 C 0.59144 0.65739 0.39757 0.0
C1966 C 0.59496 0.65557 0.43118 0.0
C1967 C 0.60442 0.6654 0.44889 0.0
C1968 C 0.5892 0.64345 0.44792 0.0
C1969 C 0.58164 0.64706 0.37678 0.0
C1970 C 0.57683 0.63735 0.45652 0.0
C1971 C 0.57133 0.62563 0.47048 0.0
C1972 C 0.57811 0.61983 0.47618 0.0
C1973 C 0.5906 0.62619 0.46881 0.0
C1974 C 0.59609 0.6379 0.4549 0.0
H1975 H 0.58192 0.64939 0.3486 0.0
H1976 H 0.58248 0.63883 0.37898 0.0
H1977 H 0.57265 0.64486 0.38734 0.0
H1978 H 0.57141 0.64158 0.45199 0.0
H1979 H 0.5617 0.62102 0.47596 0.0
H1980 H 0.28796 0.8939 0.35359 0.0
H1981 H 0.30853 0.90356 0.37749 0.0
H1982 H 0.30948 0.93785 0.38111 0.0
H1983 H 0.289 0.92833 0.35691 0.0
H1984 H 0.33093 0.93931 0.35512 0.0
H1985 H 0.31636 0.91393 0.48087 0.0
H1986 H 0.31185 0.90472 0.44203 0.0
H1987 H 0.30579 0.91452 0.45056 0.0
C1988 C 0.29258 0.90352 0.35913 0.0
C1989 C 0.28679 0.91032 0.35353 0.0
C1990 C 0.3043 0.909 0.37305 0.0
C1991 C 0.31042 0.92136 0.38172 0.0
C1992 C 0.30487 0.92827 0.37483 0.0
H1993 H 0.37881 0.9736 0.47461 0.0
H1994 H 0.35847 0.96276 0.44948 0.0
C1995 C 0.29316 0.92281 0.36096 0.0
C1996 C 0.32254 0.9271 0.39845 0.0
H1997 H 0.33741 0.92687 0.47274 0.0
C1998 C 0.33236 0.9366 0.38083 0.0
C1999 C 0.32436 0.92353 0.432 0.0
C2000 C 0.31403 0.91369 0.4527 0.0
C2001 C 0.34399 0.94257 0.39573 0.0
C2002 C 0.34578 0.9391 0.42946 0.0
C2003 C 0.33599 0.92951 0.44693 0.0
C2004 C 0.35773 0.94544 0.44713 0.0
C2005 C 0.35429 0.95243 0.37501 0.0
C2006 C 0.36384 0.93917 0.45565 0.0
C2007 C 0.37545 0.94533 0.47032 0.0
C2008 C 0.38114 0.95786 0.47687 0.0
C2009 C 0.37475 0.96398 0.46972 0.0
C2010 C 0.36315 0.95781 0.4551 0.0
H2011 H 0.35215 0.9518 0.34659 0.0
H2012 H 0.35602 0.96139 0.38448 0.0
H2013 H 0.36273 0.95202 0.37845 0.0
H2014 H 0.35976 0.92959 0.44998 0.0
H2015 H 0.3801 0.94034 0.47555 0.0
H2016 H 0.59547 0.97276 0.98288 0.0
H2017 H 0.60479 0.96165 0.95843 0.0
H2018 H 0.57016 0.92869 0.95948 0.0
H2019 H 0.56068 0.93976 0.98362 0.0
H2020 H 0.60573 0.94134 0.98331 0.0
H2021 H 0.58107 0.93176 0.85656 0.0
H2022 H 0.58164 0.94276 0.88746 0.0
H2023 H 0.57167 0.92687 0.89503 0.0
C2024 C 0.58983 0.96312 0.97822 0.0
C2025 C 0.5773 0.95716 0.98499 0.0
C2026 C 0.59518 0.9568 0.9642 0.0
C2027 C 0.58813 0.94441 0.95651 0.0
C2028 C 0.57572 0.93831 0.96455 0.0
H2029 H 0.60739 0.89422 0.86002 0.0
H2030 H 0.59648 0.90359 0.88601 0.0
C2031 C 0.57034 0.94463 0.97861 0.0
C2032 C 0.5938 0.938 0.93958 0.0
H2033 H 0.59389 0.92351 0.86428 0.0
C2034 C 0.60314 0.93743 0.95731 0.0
C2035 C 0.59039 0.9329 0.90564 0.0
C2036 C 0.58071 0.93366 0.88483 0.0
C2037 C 0.60914 0.93185 0.94209 0.0
C2038 C 0.60586 0.92692 0.90795 0.0
C2039 C 0.5964 0.92732 0.8904 0.0
C2040 C 0.61228 0.92146 0.88994 0.0
C2041 C 0.61887 0.93118 0.96285 0.0
C2042 C 0.62469 0.92851 0.88242 0.0
C2043 C 0.63094 0.92321 0.86754 0.0
C2044 C 0.62489 0.91075 0.8597 0.0
C2045 C 0.61234 0.90383 0.86579 0.0
C2046 C 0.60609 0.90915 0.8807 0.0
H2047 H 0.6181 0.93246 0.99136 0.0
H2048 H 0.61842 0.92233 0.95882 0.0
H2049 H 0.62789 0.93845 0.95393 0.0
H2050 H 0.62958 0.93808 0.88863 0.0
H2051 H 0.64058 0.92883 0.86303 0.0
H2052 H 0.10689 0.71332 0.85978 0.0
H2053 H 0.09746 0.69271 0.88346 0.0
H2054 H 0.06275 0.69087 0.88448 0.0
H2055 H 0.07202 0.71134 0.8605 0.0
H2056 H 0.08532 0.68508 0.94759 0.0
H2057 H 0.05499 0.65898 0.83769 0.0
H2058 H 0.06739 0.6743 0.83257 0.0
H2059 H 0.0533 0.67152 0.85149 0.0
C2060 C 0.09721 0.70845 0.86447 0.0
C2061 C 0.0902 0.71398 0.85813 0.0
C2062 C 0.09186 0.6967 0.87813 0.0
C2063 C 0.07939 0.69022 0.8854 0.0
C2064 C 0.07234 0.69561 0.87845 0.0
H2065 H 0.02799 0.62267 0.98183 0.0
H2066 H 0.03903 0.64304 0.95694 0.0
C2067 C 0.07768 0.70735 0.86485 0.0
C2068 C 0.07384 0.6781 0.90214 0.0
H2069 H 0.05128 0.64873 0.89251 0.0
C2070 C 0.07796 0.67709 0.93544 0.0
C2071 C 0.06422 0.66772 0.88624 0.0
C2072 C 0.05978 0.66812 0.84988 0.0
C2073 C 0.07246 0.66605 0.95374 0.0
C2074 C 0.0627 0.65572 0.93808 0.0
C2075 C 0.05872 0.65669 0.90456 0.0
C2076 C 0.05637 0.6438 0.95602 0.0
C2077 C 0.07687 0.6656 0.99011 0.0
C2078 C 0.0625 0.63753 0.9642 0.0
C2079 C 0.05622 0.62588 0.97858 0.0
C2080 C 0.04367 0.62025 0.9848 0.0
C2081 C 0.03765 0.62672 0.97744 0.0
C2082 C 0.04393 0.63835 0.9631 0.0
H2083 H 0.08239 0.6748 1.00154 0.0
H2084 H 0.06914 0.66008 0.00791 0.0
H2085 H 0.08261 0.66133 0.98885 0.0
H2086 H 0.07206 0.64149 0.95843 0.0
H2087 H 0.06112 0.62113 0.98371 0.0
H2088 H 0.37959 0.44145 0.98535 0.0
H2089 H 0.35887 0.43203 0.96251 0.0
H2090 H 0.35707 0.39733 0.96045 0.0
H2091 H 0.37763 0.40659 0.9836 0.0
H2092 H 0.35095 0.42004 0.89858 0.0
H2093 H 0.32535 0.38936 0.00832 0.0
H2094 H 0.34068 0.40175 0.01318 0.0
H2095 H 0.33783 0.38768 0.9939 0.0
C2096 C 0.37471 0.43178 0.98062 0.0
C2097 C 0.38027 0.42477 0.98642 0.0
C2098 C 0.36289 0.42642 0.96745 0.0
C2099 C 0.35638 0.41396 0.96013 0.0
C2100 C 0.36182 0.40692 0.96655 0.0
H2101 H 0.28989 0.36184 0.86246 0.0
H2102 H 0.31009 0.37348 0.88798 0.0
C2103 C 0.37362 0.41225 0.97968 0.0
C2104 C 0.3442 0.4084 0.94379 0.0
H2105 H 0.31501 0.38545 0.95345 0.0
C2106 C 0.34305 0.41257 0.91072 0.0
C2107 C 0.33392 0.39866 0.95969 0.0
C2108 C 0.33445 0.39417 0.99588 0.0
C2109 C 0.33197 0.40695 0.89255 0.0
C2110 C 0.32178 0.39701 0.9081 0.0
C2111 C 0.32287 0.39302 0.94149 0.0
C2112 C 0.30993 0.39036 0.88993 0.0
C2113 C 0.33136 0.4114 0.85638 0.0
C2114 C 0.3032 0.39604 0.88211 0.0
C2115 C 0.29162 0.3894 0.86738 0.0
C2116 C 0.28656 0.37695 0.86042 0.0
C2117 C 0.2935 0.3714 0.86743 0.0
C2118 C 0.30504 0.37803 0.88213 0.0
H2119 H 0.34052 0.41735 0.84518 0.0
H2120 H 0.32619 0.40367 0.83828 0.0
H2121 H 0.32662 0.41669 0.85783 0.0
H2122 H 0.30674 0.40551 0.88839 0.0
H2123 H 0.2865 0.39394 0.86251 0.0
H2124 H 0.89367 0.60661 0.64637 0.0
H2125 H 0.90319 0.59538 0.62365 0.0
H2126 H 0.938 0.62815 0.62473 0.0
H2127 H 0.92865 0.63938 0.64775 0.0
H2128 H 0.91586 0.60004 0.56034 0.0
H2129 H 0.94522 0.60377 0.67241 0.0
H2130 H 0.93283 0.60675 0.67659 0.0
H2131 H 0.9471 0.61808 0.65862 0.0
C2132 C 0.90339 0.61138 0.64235 0.0
C2133 C 0.9104 0.6239 0.64898 0.0
C2134 C 0.9088 0.60496 0.62924 0.0
C2135 C 0.92132 0.6109 0.62284 0.0
C2136 C 0.92836 0.62333 0.6301 0.0
H2137 H 0.97332 0.5949 0.52992 0.0
H2138 H 0.96216 0.60418 0.55427 0.0
C2139 C 0.92298 0.62975 0.64315 0.0
C2140 C 0.92695 0.60434 0.60659 0.0
H2141 H 0.94937 0.59741 0.61789 0.0
C2142 C 0.9231 0.59934 0.57304 0.0
C2143 C 0.93642 0.60348 0.62319 0.0
C2144 C 0.94057 0.6082 0.65983 0.0
C2145 C 0.92873 0.59383 0.55516 0.0
C2146 C 0.93834 0.59317 0.57153 0.0
C2147 C 0.94205 0.598 0.60531 0.0
C2148 C 0.94479 0.58763 0.55407 0.0
C2149 C 0.92461 0.58912 0.5185 0.0
C2150 C 0.93869 0.57527 0.54548 0.0
C2151 C 0.94505 0.56992 0.53141 0.0
C2152 C 0.95763 0.57684 0.5259 0.0
C2153 C 0.96364 0.5893 0.53373 0.0
C2154 C 0.95728 0.59462 0.54778 0.0
H2155 H 0.91922 0.59287 0.50666 0.0
H2156 H 0.93249 0.59138 0.50126 0.0
H2157 H 0.91884 0.57911 0.51938 0.0
H2158 H 0.92909 0.56966 0.55065 0.0
H2159 H 0.94015 0.5603 0.5259 0.0
H2160 H 0.43872 0.37966 0.52693 0.0
H2161 H 0.42892 0.35901 0.55035 0.0
H2162 H 0.39461 0.35802 0.55203 0.0
H2163 H 0.40426 0.37856 0.52834 0.0
H2164 H 0.41672 0.35156 0.61477 0.0
H2165 H 0.38625 0.32598 0.50439 0.0
H2166 H 0.39889 0.34118 0.49946 0.0
H2167 H 0.38494 0.33871 0.51859 0.0
C2168 C 0.42905 0.37498 0.53173 0.0
C2169 C 0.42227 0.38076 0.52566 0.0
C2170 C 0.42348 0.3632 0.54524 0.0
C2171 C 0.41103 0.35694 0.55262 0.0
C2172 C 0.40419 0.36259 0.54593 0.0
H2173 H 0.35962 0.28846 0.64615 0.0
H2174 H 0.37036 0.30898 0.6222 0.0
C2175 C 0.40975 0.37436 0.53249 0.0
C2176 C 0.40528 0.34479 0.56917 0.0
H2177 H 0.38271 0.31547 0.55854 0.0
C2178 C 0.40935 0.34364 0.60239 0.0
C2179 C 0.39565 0.3345 0.553 0.0
C2180 C 0.39123 0.33509 0.51675 0.0
C2181 C 0.40382 0.33251 0.62029 0.0
C2182 C 0.39411 0.32224 0.60424 0.0
C2183 C 0.39013 0.32338 0.57087 0.0
C2184 C 0.3879 0.31019 0.62148 0.0
C2185 C 0.40819 0.33192 0.65659 0.0
C2186 C 0.39423 0.30411 0.6294 0.0
C2187 C 0.38813 0.29237 0.64326 0.0
C2188 C 0.37555 0.28647 0.64919 0.0
C2189 C 0.36931 0.29273 0.642 0.0
C2190 C 0.37542 0.30445 0.62819 0.0
H2191 H 0.41347 0.34106 0.66859 0.0
H2192 H 0.40047 0.32612 0.67409 0.0
H2193 H 0.41417 0.32792 0.65501 0.0
H2194 H 0.40383 0.30828 0.62387 0.0
H2195 H 0.39321 0.28779 0.64827 0.0
H2196 H 0.62103 0.06007 0.52908 0.0
H2197 H 0.64144 0.071 0.55405 0.0
H2198 H 0.6431 0.03803 0.55426 0.0
H2199 H 0.62269 0.027 0.5297 0.0
H2200 H 0.6491 0.05019 0.61873 0.0
H2201 H 0.67454 0.08149 0.50941 0.0
H2202 H 0.66113 0.08168 0.52296 0.0
H2203 H 0.6598 0.06824 0.50344 0.0
C2204 C 0.62581 0.05518 0.5339 0.0
C2205 C 0.62021 0.04265 0.52736 0.0
C2206 C 0.63749 0.06145 0.54809 0.0
C2207 C 0.64382 0.05534 0.55577 0.0
C2208 C 0.63838 0.04292 0.54848 0.0
H2209 H 0.71201 0.0714 0.64776 0.0
H2210 H 0.6914 0.06198 0.62478 0.0
C2211 C 0.62672 0.03664 0.53433 0.0
C2212 C 0.65581 0.06169 0.57324 0.0
H2213 H 0.68507 0.08445 0.56289 0.0
C2214 C 0.65698 0.05767 0.60652 0.0
C2215 C 0.66604 0.0715 0.55735 0.0
C2216 C 0.6654 0.07595 0.5212 0.0
C2217 C 0.66809 0.06321 0.62438 0.0
C2218 C 0.67837 0.07289 0.60827 0.0
C2219 C 0.67717 0.07704 0.57522 0.0
C2220 C 0.69056 0.07852 0.62454 0.0
C2221 C 0.66871 0.05872 0.6605 0.0
C2222 C 0.69698 0.09098 0.63187 0.0
C2223 C 0.70881 0.09643 0.64495 0.0
C2224 C 0.71448 0.08952 0.65064 0.0
C2225 C 0.70791 0.07699 0.64391 0.0
C2226 C 0.6961 0.07156 0.63088 0.0
H2227 H 0.65963 0.05384 0.67304 0.0
H2228 H 0.67218 0.05231 0.65839 0.0
H2229 H 0.67491 0.06632 0.67779 0.0
H2230 H 0.69289 0.09652 0.62701 0.0
H2231 H 0.71362 0.1061 0.64969 0.0
H2232 H 0.69475 0.73897 0.80999 0.0
H2233 H 0.70563 0.72939 0.78592 0.0
H2234 H 0.73887 0.76378 0.78688 0.0
H2235 H 0.72802 0.77353 0.81066 0.0
H2236 H 0.73407 0.75161 0.72264 0.0
H2237 H 0.72941 0.72106 0.83245 0.0
H2238 H 0.7153 0.71966 0.81873 0.0
H2239 H 0.72679 0.73364 0.83769 0.0
C2240 C 0.70441 0.7445 0.80562 0.0
C2241 C 0.71051 0.75703 0.81233 0.0
C2242 C 0.71063 0.73898 0.79196 0.0
C2243 C 0.72309 0.74585 0.78496 0.0
C2244 C 0.72927 0.75831 0.79224 0.0
H2245 H 0.77345 0.7271 0.68646 0.0
H2246 H 0.76406 0.73807 0.71175 0.0
C2247 C 0.72305 0.76385 0.80596 0.0
C2248 C 0.72946 0.74012 0.7681 0.0
H2249 H 0.73595 0.71733 0.77769 0.0
C2250 C 0.7346 0.74419 0.73478 0.0
C2251 C 0.73009 0.73042 0.78397 0.0
C2252 C 0.72521 0.726 0.82032 0.0
C2253 C 0.74003 0.73859 0.71645 0.0
C2254 C 0.7405 0.72878 0.73213 0.0
C2255 C 0.73551 0.72481 0.76564 0.0
C2256 C 0.74605 0.7224 0.71427 0.0
C2257 C 0.7449 0.74297 0.68007 0.0
C2258 C 0.73905 0.70995 0.70729 0.0
C2259 C 0.74438 0.70365 0.69295 0.0
C2260 C 0.75686 0.70966 0.68549 0.0
C2261 C 0.7638 0.72221 0.69166 0.0
C2262 C 0.75845 0.72851 0.70604 0.0
H2263 H 0.74122 0.74848 0.66856 0.0
H2264 H 0.75491 0.74873 0.68134 0.0
H2265 H 0.7427 0.73523 0.66233 0.0
H2266 H 0.72947 0.70507 0.7135 0.0
H2267 H 0.73877 0.69399 0.68862 0.0
H2268 H 0.22753 0.95454 0.81249 0.0
H2269 H 0.23716 0.97508 0.78829 0.0
H2270 H 0.27144 0.97603 0.78453 0.0
H2271 H 0.26196 0.9556 0.80902 0.0
H2272 H 0.27294 0.99752 0.81023 0.0
H2273 H 0.24741 0.98275 0.68478 0.0
H2274 H 0.23826 0.97833 0.72375 0.0
H2275 H 0.24802 0.97222 0.71521 0.0
C2276 C 0.23715 0.95916 0.80686 0.0
C2277 C 0.24396 0.95338 0.81251 0.0
C2278 C 0.24261 0.97086 0.79277 0.0
C2279 C 0.25496 0.97697 0.78397 0.0
C2280 C 0.26188 0.97143 0.7909 0.0
H2281 H 0.30737 0.04492 0.68978 0.0
H2282 H 0.29636 0.02465 0.71523 0.0
C2283 C 0.25643 0.95975 0.80495 0.0
C2284 C 0.26069 0.98906 0.76706 0.0
H2285 H 0.26046 0.0038 0.69245 0.0
C2286 C 0.27021 0.9989 0.7845 0.0
C2287 C 0.25709 0.99082 0.73348 0.0
C2288 C 0.2472 0.98047 0.71298 0.0
C2289 C 0.27622 0.01049 0.76936 0.0
C2290 C 0.27274 0.01222 0.73557 0.0
C2291 C 0.26311 0.00242 0.71831 0.0
C2292 C 0.27915 0.02413 0.71761 0.0
C2293 C 0.28613 0.02082 0.78986 0.0
C2294 C 0.27299 0.03033 0.70899 0.0
C2295 C 0.27924 0.04191 0.69413 0.0
C2296 C 0.29176 0.04747 0.68752 0.0
C2297 C 0.29776 0.04097 0.69473 0.0
C2298 C 0.29151 0.0294 0.70953 0.0
H2299 H 0.28551 0.01875 0.81834 0.0
H2300 H 0.29506 0.02246 0.7804 0.0
H2301 H 0.28578 0.02928 0.7862 0.0
H2302 H 0.26343 0.02635 0.71474 0.0
H2303 H 0.27434 0.04665 0.68886 0.0
H2304 H 0.04139 0.27877 0.84485 0.0
H2305 H 0.02087 0.26869 0.82014 0.0
H2306 H 0.03273 0.29629 0.74012 0.0
H2307 H 0.05284 0.30683 0.76659 0.0
H2308 H 0.0124 0.29191 0.7585 0.0
H2309 H 0.00828 0.24705 0.73934 0.0
H2310 H 0.01044 0.25114 0.78475 0.0
H2311 H 0.02222 0.26001 0.75347 0.0
C2312 C 0.03952 0.28267 0.82214 0.0
C2313 C 0.04862 0.29357 0.80768 0.0
C2314 C 0.02785 0.27683 0.80769 0.0
C2315 C 0.02525 0.2815 0.77754 0.0
C2316 C 0.03442 0.29245 0.7633 0.0
H2317 H 0.95928 0.2375 0.65478 0.0
H2318 H 0.9802 0.24808 0.67668 0.0
C2319 C 0.04592 0.29849 0.77846 0.0
C2320 C 0.01296 0.27529 0.76126 0.0
H2321 H 0.99001 0.24784 0.73365 0.0
C2322 C 0.00759 0.28229 0.75274 0.0
C2323 C 0.00669 0.26277 0.7529 0.0
C2324 C 0.01228 0.25486 0.75772 0.0
C2325 C 0.99621 0.27717 0.73652 0.0
C2326 C 0.98956 0.2645 0.73055 0.0
C2327 C 0.99497 0.25751 0.73862 0.0
C2328 C 0.97697 0.2583 0.71643 0.0
C2329 C 0.99169 0.28555 0.72503 0.0
C2330 C 0.96811 0.26039 0.73151 0.0
C2331 C 0.95635 0.25472 0.71815 0.0
C2332 C 0.95301 0.24641 0.69041 0.0
C2333 C 0.96168 0.24394 0.67603 0.0
C2334 C 0.9736 0.24995 0.68865 0.0
H2335 H 0.99935 0.29476 0.71913 0.0
H2336 H 0.98588 0.2821 0.70134 0.0
H2337 H 0.98638 0.2865 0.7466 0.0
H2338 H 0.97024 0.26632 0.75392 0.0
H2339 H 0.94974 0.25655 0.73027 0.0
H2340 H 0.27262 0.22642 0.19025 0.0
H2341 H 0.26153 0.23597 0.21368 0.0
H2342 H 0.29465 0.27045 0.21647 0.0
H2343 H 0.30576 0.26107 0.19273 0.0
H2344 H 0.26576 0.24781 0.27807 0.0
H2345 H 0.27111 0.27886 0.16904 0.0
H2346 H 0.27388 0.26637 0.16378 0.0
H2347 H 0.28519 0.28032 0.18343 0.0
C2348 C 0.27751 0.23608 0.19529 0.0
C2349 C 0.29008 0.24298 0.1895 0.0
C2350 C 0.27116 0.2415 0.2088 0.0
C2351 C 0.27723 0.25394 0.21648 0.0
C2352 C 0.28973 0.26089 0.2101 0.0
H2353 H 0.26219 0.30576 0.31427 0.0
H2354 H 0.27108 0.29438 0.28904 0.0
C2355 C 0.29608 0.25548 0.19664 0.0
C2356 C 0.27071 0.25955 0.23308 0.0
H2357 H 0.26446 0.28251 0.22381 0.0
C2358 C 0.26535 0.25531 0.26608 0.0
C2359 C 0.27021 0.26935 0.21739 0.0
C2360 C 0.2753 0.27393 0.18131 0.0
C2361 C 0.25985 0.26088 0.28433 0.0
C2362 C 0.25959 0.27084 0.26892 0.0
C2363 C 0.26475 0.27492 0.23566 0.0
C2364 C 0.25421 0.27734 0.287 0.0
C2365 C 0.25474 0.25634 0.32041 0.0
C2366 C 0.24178 0.27148 0.29467 0.0
C2367 C 0.23664 0.27796 0.30925 0.0
C2368 C 0.24385 0.29044 0.31618 0.0
C2369 C 0.25636 0.29617 0.30932 0.0
C2370 C 0.26147 0.28969 0.29479 0.0
H2371 H 0.25809 0.25052 0.33168 0.0
H2372 H 0.25711 0.26402 0.33856 0.0
H2373 H 0.24472 0.25088 0.31874 0.0
H2374 H 0.23598 0.26199 0.28837 0.0
H2375 H 0.22697 0.27329 0.31399 0.0
H2376 H 0.72787 0.95436 0.31622 0.0
H2377 H 0.73887 0.9747 0.29082 0.0
H2378 H 0.70588 0.97631 0.28869 0.0
H2379 H 0.69478 0.95596 0.31368 0.0
H2380 H 0.7182 0.98201 0.22452 0.0
H2381 H 0.74925 0.008 0.33371 0.0
H2382 H 0.74948 0.99454 0.32113 0.0
H2383 H 0.73599 0.99329 0.33999 0.0
C2384 C 0.72299 0.95912 0.31091 0.0
C2385 C 0.71044 0.95352 0.317 0.0
C2386 C 0.7293 0.97076 0.29647 0.0
C2387 C 0.72321 0.97705 0.2881 0.0
C2388 C 0.71076 0.97162 0.29501 0.0
H2389 H 0.7396 0.04476 0.19192 0.0
H2390 H 0.7301 0.0243 0.216 0.0
C2391 C 0.70444 0.95999 0.30941 0.0
C2392 C 0.7296 0.98895 0.27015 0.0
H2393 H 0.75238 0.01825 0.27958 0.0
C2394 C 0.72566 0.98994 0.23657 0.0
C2395 C 0.73938 0.99926 0.28582 0.0
C2396 C 0.74374 0.9988 0.32226 0.0
C2397 C 0.73126 0.00096 0.21818 0.0
C2398 C 0.74092 0.01131 0.23406 0.0
C2399 C 0.74498 0.01029 0.26744 0.0
C2400 C 0.74661 0.02341 0.21718 0.0
C2401 C 0.72686 0.00138 0.18176 0.0
C2402 C 0.75909 0.02976 0.21001 0.0
C2403 C 0.76458 0.04151 0.19629 0.0
C2404 C 0.75771 0.04717 0.1898 0.0
C2405 C 0.74517 0.04067 0.19639 0.0
C2406 C 0.73969 0.02893 0.21005 0.0
H2407 H 0.72199 0.99223 0.16965 0.0
H2408 H 0.72048 0.00489 0.18324 0.0
H2409 H 0.73451 0.00747 0.16444 0.0
H2410 H 0.76459 0.02567 0.21547 0.0
H2411 H 0.77426 0.04627 0.19169 0.0
H2412 H 0.04679 0.77425 0.3156 0.0
H2413 H 0.02616 0.76502 0.29224 0.0
H2414 H 0.02399 0.73016 0.29026 0.0
H2415 H 0.04448 0.73922 0.31394 0.0
H2416 H 0.0183 0.75309 0.22817 0.0
H2417 H 0.99227 0.72248 0.33764 0.0
H2418 H 0.00765 0.73476 0.34271 0.0
H2419 H 0.00469 0.72067 0.32333 0.0
C2420 C 0.04185 0.76458 0.31075 0.0
C2421 C 0.04729 0.75747 0.31675 0.0
C2422 C 0.03008 0.75933 0.29729 0.0
C2423 C 0.0235 0.74688 0.28986 0.0
C2424 C 0.02881 0.73974 0.29644 0.0
H2425 H 0.95632 0.69573 0.19234 0.0
H2426 H 0.97662 0.70689 0.21753 0.0
C2427 C 0.04056 0.74496 0.30987 0.0
C2428 C 0.01135 0.74145 0.27332 0.0
H2429 H 0.98199 0.71886 0.28282 0.0
C2430 C 0.01032 0.74569 0.24025 0.0
C2431 C 0.00097 0.73179 0.28913 0.0
C2432 C 0.00139 0.72722 0.32531 0.0
C2433 C 0.99925 0.74026 0.22203 0.0
C2434 C 0.98895 0.73043 0.23754 0.0
C2435 C 0.98993 0.72635 0.27089 0.0
C2436 C 0.97706 0.72406 0.21949 0.0
C2437 C 0.99877 0.7448 0.18588 0.0
C2438 C 0.97063 0.73007 0.21179 0.0
C2439 C 0.959 0.72372 0.19725 0.0
C2440 C 0.95358 0.71122 0.19036 0.0
C2441 C 0.96021 0.70534 0.19724 0.0
C2442 C 0.97181 0.71169 0.21175 0.0
H2443 H 0.00796 0.75051 0.1746 0.0
H2444 H 0.99339 0.73711 0.16781 0.0
H2445 H 0.99431 0.75036 0.18743 0.0
H2446 H 0.97445 0.73958 0.21805 0.0
H2447 H 0.95412 0.72851 0.19249 0.0
H2448 H 0.35796 0.11072 0.05278 0.0
H2449 H 0.35476 0.10925 0.98945 0.0
H2450 H 0.32054 0.07635 0.00318 0.0
H2451 H 0.3237 0.07766 0.06675 0.0
H2452 H 0.33556 0.07501 0.95071 0.0
H2453 H 0.33072 0.11569 0.9346 0.0
H2454 H 0.34413 0.11841 0.95773 0.0
H2455 H 0.32948 0.10866 0.97665 0.0
C2456 C 0.34971 0.10319 0.04243 0.0
C2457 C 0.34105 0.09432 0.06487 0.0
C2458 C 0.34788 0.10241 0.00621 0.0
C2459 C 0.33735 0.09278 0.99173 0.0
C2460 C 0.32871 0.08388 0.01394 0.0
H2461 H 0.31106 0.08677 0.77935 0.0
H2462 H 0.31388 0.08817 0.84282 0.0
C2463 C 0.33051 0.08466 0.05023 0.0
C2464 C 0.33552 0.09187 0.95328 0.0
H2465 H 0.33261 0.10658 0.88243 0.0
C2466 C 0.33487 0.08188 0.93574 0.0
C2467 C 0.33452 0.1008 0.93396 0.0
C2468 C 0.33463 0.11145 0.95166 0.0
C2469 C 0.33342 0.08067 0.89921 0.0
C2470 C 0.33278 0.08979 0.87979 0.0
C2471 C 0.33324 0.09968 0.8974 0.0
C2472 C 0.33127 0.08906 0.84122 0.0
C2473 C 0.33241 0.06957 0.88177 0.0
C2474 C 0.34021 0.08927 0.81926 0.0
C2475 C 0.33864 0.08848 0.78287 0.0
C2476 C 0.32811 0.08751 0.76786 0.0
C2477 C 0.31927 0.08748 0.79 0.0
C2478 C 0.32086 0.08829 0.82631 0.0
H2479 H 0.33024 0.06219 0.90092 0.0
H2480 H 0.32532 0.06611 0.86113 0.0
H2481 H 0.34118 0.07199 0.86915 0.0
H2482 H 0.34842 0.09008 0.83028 0.0
H2483 H 0.34565 0.08857 0.76656 0.0
H2484 H 0.88967 0.24625 0.05474 0.0
H2485 H 0.891 0.24423 0.9915 0.0
H2486 H 0.92423 0.24353 0.00511 0.0
H2487 H 0.92304 0.24564 0.06862 0.0
H2488 H 0.92507 0.25972 0.95228 0.0
H2489 H 0.88507 0.21368 0.93735 0.0
H2490 H 0.88212 0.22419 0.96068 0.0
H2491 H 0.89222 0.21966 0.97918 0.0
C2492 C 0.89724 0.2456 0.04439 0.0
C2493 C 0.90624 0.24607 0.06677 0.0
C2494 C 0.89794 0.24438 0.00823 0.0
C2495 C 0.90762 0.24357 0.99374 0.0
C2496 C 0.91665 0.24407 0.01589 0.0
H2497 H 0.91377 0.22399 0.78022 0.0
H2498 H 0.91253 0.22515 0.84387 0.0
C2499 C 0.91594 0.24526 0.05214 0.0
C2500 C 0.90848 0.24259 0.95533 0.0
H2501 H 0.89379 0.22471 0.88489 0.0
C2502 C 0.91828 0.25205 0.93751 0.0
C2503 C 0.89964 0.23251 0.93628 0.0
C2504 C 0.88922 0.22187 0.95431 0.0
C2505 C 0.91934 0.25182 0.90094 0.0
C2506 C 0.9103 0.24192 0.88178 0.0
C2507 C 0.90064 0.23234 0.89967 0.0
C2508 C 0.91084 0.24121 0.84316 0.0
C2509 C 0.9302 0.26207 0.88313 0.0
C2510 C 0.91009 0.24976 0.8217 0.0
C2511 C 0.91078 0.24912 0.78524 0.0
C2512 C 0.91219 0.2399 0.76967 0.0
C2513 C 0.91271 0.23123 0.79132 0.0
C2514 C 0.912 0.23187 0.82771 0.0
H2515 H 0.93762 0.26745 0.90201 0.0
H2516 H 0.93373 0.25859 0.86225 0.0
H2517 H 0.92749 0.26823 0.87075 0.0
H2518 H 0.90898 0.25692 0.83316 0.0
H2519 H 0.9103 0.25591 0.76932 0.0
H2520 H 0.74721 0.67291 0.06346 0.0
H2521 H 0.74815 0.67542 0.99973 0.0
H2522 H 0.7634 0.65198 0.99045 0.0
H2523 H 0.76185 0.64893 0.0539 0.0
H2524 H 0.7656 0.68456 0.95486 0.0
H2525 H 0.73668 0.63611 0.92164 0.0
H2526 H 0.73837 0.64161 0.96599 0.0
H2527 H 0.74955 0.63859 0.94698 0.0
C2528 C 0.75075 0.66829 0.04777 0.0
C2529 C 0.75435 0.66063 0.06353 0.0
C2530 C 0.75127 0.66971 0.01136 0.0
C2531 C 0.75555 0.66364 0.99011 0.0
C2532 C 0.75963 0.6564 0.00606 0.0
H2533 H 0.77965 0.68493 0.77524 0.0
H2534 H 0.77821 0.68197 0.83873 0.0
C2535 C 0.75886 0.65475 0.04237 0.0
C2536 C 0.75595 0.66507 0.95139 0.0
H2537 H 0.74806 0.64924 0.87449 0.0
C2538 C 0.76168 0.67683 0.9373 0.0
C2539 C 0.75061 0.655 0.92838 0.0
C2540 C 0.74334 0.64213 0.94154 0.0
C2541 C 0.7624 0.6788 0.90096 0.0
C2542 C 0.75773 0.66873 0.87795 0.0
C2543 C 0.75181 0.65697 0.89204 0.0
C2544 C 0.75873 0.67015 0.83922 0.0
C2545 C 0.76789 0.69165 0.88781 0.0
C2546 C 0.74837 0.66398 0.81806 0.0
C2547 C 0.74924 0.66536 0.78163 0.0
C2548 C 0.76047 0.67306 0.76576 0.0
C2549 C 0.77085 0.67906 0.78685 0.0
C2550 C 0.77002 0.67747 0.82318 0.0
H2551 H 0.76719 0.69764 0.90774 0.0
H2552 H 0.77766 0.69528 0.8823 0.0
H2553 H 0.76341 0.69213 0.8634 0.0
H2554 H 0.73956 0.65822 0.82976 0.0
H2555 H 0.74108 0.66064 0.766 0.0
H2556 H 0.08299 0.3081 0.71907 0.0
H2557 H 0.0845 0.31082 0.6554 0.0
H2558 H 0.0989 0.3492 0.66864 0.0
H2559 H 0.09735 0.3466 0.73245 0.0
H2560 H 0.07319 0.32424 0.61481 0.0
H2561 H 0.12298 0.34308 0.60161 0.0
H2562 H 0.1144 0.33332 0.6376 0.0
H2563 H 0.11756 0.3487 0.63646 0.0
C2564 C 0.08656 0.31714 0.70851 0.0
C2565 C 0.09008 0.32715 0.73084 0.0
C2566 C 0.08737 0.31866 0.67215 0.0
C2567 C 0.09185 0.3302 0.65754 0.0
C2568 C 0.09548 0.34023 0.67961 0.0
H2569 H 0.10771 0.35884 0.44702 0.0
H2570 H 0.10626 0.35561 0.51032 0.0
C2571 C 0.09457 0.33872 0.71599 0.0
C2572 C 0.09246 0.33172 0.61909 0.0
H2573 H 0.11218 0.34196 0.55029 0.0
C2574 C 0.08169 0.32808 0.60056 0.0
C2575 C 0.10358 0.33679 0.60091 0.0
C2576 C 0.11533 0.34067 0.61994 0.0
C2577 C 0.08176 0.32958 0.56408 0.0
C2578 C 0.09289 0.33454 0.54569 0.0
C2579 C 0.10366 0.33813 0.56439 0.0
C2580 C 0.09362 0.33635 0.50716 0.0
C2581 C 0.06998 0.32618 0.54582 0.0
C2582 C 0.0871 0.32656 0.48428 0.0
C2583 C 0.08781 0.32839 0.448 0.0
C2584 C 0.09523 0.34003 0.43396 0.0
C2585 C 0.10192 0.34976 0.45695 0.0
C2586 C 0.10111 0.34794 0.49316 0.0
H2587 H 0.06309 0.32583 0.56441 0.0
H2588 H 0.07133 0.33271 0.52461 0.0
H2589 H 0.06628 0.31705 0.53397 0.0
H2590 H 0.08151 0.31748 0.49444 0.0
H2591 H 0.08263 0.32069 0.43098 0.0
H2592 H 0.69063 0.77781 0.71998 0.0
H2593 H 0.68743 0.77636 0.65664 0.0
H2594 H 0.65383 0.74278 0.67005 0.0
H2595 H 0.65696 0.74409 0.73363 0.0
H2596 H 0.66975 0.74241 0.61737 0.0
H2597 H 0.66213 0.78145 0.60236 0.0
H2598 H 0.6756 0.78468 0.62613 0.0
H2599 H 0.66099 0.77426 0.6441 0.0
C2600 C 0.68252 0.77013 0.70956 0.0
C2601 C 0.67403 0.76108 0.73189 0.0
C2602 C 0.68069 0.76935 0.67335 0.0
C2603 C 0.67033 0.75954 0.65879 0.0
C2604 C 0.66185 0.75045 0.68089 0.0
H2605 H 0.64368 0.75258 0.44665 0.0
H2606 H 0.64646 0.75389 0.51013 0.0
C2607 C 0.66365 0.75124 0.71718 0.0
C2608 C 0.66853 0.75863 0.62038 0.0
H2609 H 0.66449 0.77277 0.55002 0.0
C2610 C 0.66856 0.74901 0.60259 0.0
C2611 C 0.66688 0.76722 0.60135 0.0
C2612 C 0.66628 0.77744 0.6194 0.0
C2613 C 0.66717 0.74785 0.56605 0.0
C2614 C 0.66585 0.75662 0.5469 0.0
C2615 C 0.66563 0.76614 0.56478 0.0
C2616 C 0.66434 0.75592 0.50835 0.0
C2617 C 0.66693 0.73715 0.5483 0.0
C2618 C 0.67357 0.75679 0.4863 0.0
C2619 C 0.67202 0.75604 0.44991 0.0
C2620 C 0.66123 0.75447 0.435 0.0
C2621 C 0.65209 0.75378 0.45723 0.0
C2622 C 0.65366 0.75453 0.49354 0.0
H2623 H 0.66518 0.72983 0.56726 0.0
H2624 H 0.65987 0.73337 0.52758 0.0
H2625 H 0.67584 0.74013 0.53575 0.0
H2626 H 0.68198 0.7581 0.49724 0.0
H2627 H 0.67924 0.75666 0.43353 0.0
H2628 H 0.25611 0.91189 0.73294 0.0
H2629 H 0.25743 0.91033 0.66928 0.0
H2630 H 0.22489 0.91235 0.65623 0.0
H2631 H 0.22342 0.91382 0.71969 0.0
H2632 H 0.22533 0.89377 0.61683 0.0
H2633 H 0.26719 0.93831 0.59855 0.0
H2634 H 0.26829 0.92859 0.63066 0.0
H2635 H 0.25822 0.93439 0.6381 0.0
C2636 C 0.24923 0.91199 0.71654 0.0
C2637 C 0.23968 0.91303 0.73141 0.0
C2638 C 0.25004 0.91117 0.68018 0.0
C2639 C 0.24135 0.9114 0.65809 0.0
C2640 C 0.23172 0.91222 0.67285 0.0
H2641 H 0.24521 0.92257 0.43261 0.0
H2642 H 0.24328 0.92386 0.49613 0.0
C2643 C 0.2309 0.91307 0.70914 0.0
C2644 C 0.2422 0.91065 0.61956 0.0
H2645 H 0.25983 0.92547 0.5488 0.0
C2646 C 0.23286 0.9007 0.60191 0.0
C2647 C 0.25195 0.9198 0.60021 0.0
C2648 C 0.26195 0.93094 0.61771 0.0
C2649 C 0.23311 0.89955 0.56538 0.0
C2650 C 0.24303 0.90852 0.54614 0.0
C2651 C 0.25228 0.91857 0.56371 0.0
C2652 C 0.24401 0.90762 0.50772 0.0
C2653 C 0.22268 0.88883 0.5476 0.0
C2654 C 0.24516 0.89812 0.49332 0.0
C2655 C 0.24627 0.89736 0.45711 0.0
C2656 C 0.24629 0.90612 0.43461 0.0
C2657 C 0.24518 0.91566 0.44917 0.0
C2658 C 0.2441 0.91642 0.48544 0.0
H2659 H 0.21452 0.88446 0.56462 0.0
H2660 H 0.22027 0.89159 0.52263 0.0
H2661 H 0.22537 0.88199 0.54143 0.0
H2662 H 0.24533 0.89136 0.51014 0.0
H2663 H 0.24717 0.88992 0.44682 0.0
H2664 H 0.65643 0.9123 0.23821 0.0
H2665 H 0.65337 0.91043 0.17461 0.0
H2666 H 0.68783 0.91224 0.16134 0.0
H2667 H 0.69095 0.91401 0.2247 0.0
H2668 H 0.66842 0.92692 0.12215 0.0
H2669 H 0.664 0.88155 0.10661 0.0
H2670 H 0.66259 0.88731 0.14854 0.0
H2671 H 0.6773 0.89234 0.12993 0.0
C2672 C 0.66333 0.91223 0.22178 0.0
C2673 C 0.67391 0.91325 0.23655 0.0
C2674 C 0.66157 0.91118 0.18548 0.0
C2675 C 0.67031 0.91105 0.16339 0.0
C2676 C 0.68089 0.91211 0.17801 0.0
H2677 H 0.6787 0.92331 0.93822 0.0
H2678 H 0.68146 0.92462 0.00194 0.0
C2679 C 0.68267 0.91318 0.21424 0.0
C2680 C 0.66852 0.91009 0.12495 0.0
H2681 H 0.66576 0.89244 0.05433 0.0
C2682 C 0.6678 0.91937 0.10728 0.0
C2683 C 0.66761 0.90017 0.10577 0.0
C2684 C 0.6678 0.88971 0.12364 0.0
C2685 C 0.66637 0.91908 0.07074 0.0
C2686 C 0.66581 0.90933 0.05146 0.0
C2687 C 0.66633 0.89996 0.06921 0.0
C2688 C 0.66431 0.9085 0.01291 0.0
C2689 C 0.66529 0.9291 0.05313 0.0
C2690 C 0.6539 0.89884 0.99802 0.0
C2691 C 0.65232 0.89803 0.96172 0.0
C2692 C 0.66117 0.90684 0.93956 0.0
C2693 C 0.6717 0.9164 0.95455 0.0
C2694 C 0.67326 0.91721 0.99093 0.0
H2695 H 0.6631 0.93432 0.07218 0.0
H2696 H 0.67404 0.93546 0.04042 0.0
H2697 H 0.65819 0.9254 0.03253 0.0
H2698 H 0.64692 0.892 0.01456 0.0
H2699 H 0.64411 0.89053 0.95108 0.0
H2700 H 0.08024 0.74098 0.23525 0.0
H2701 H 0.08189 0.73985 0.17163 0.0
H2702 H 0.09739 0.77863 0.16429 0.0
H2703 H 0.09515 0.77969 0.2276 0.0
H2704 H 0.08137 0.76834 0.11575 0.0
H2705 H 0.11066 0.74777 0.11332 0.0
H2706 H 0.09687 0.73849 0.13678 0.0
H2707 H 0.10756 0.75334 0.15318 0.0
C2708 C 0.08409 0.74926 0.22004 0.0
C2709 C 0.08761 0.76043 0.23633 0.0
C2710 C 0.08511 0.74863 0.1837 0.0
C2711 C 0.09 0.75919 0.16315 0.0
C2712 C 0.09361 0.77035 0.17954 0.0
H2713 H 0.11293 0.76173 0.94732 0.0
H2714 H 0.11187 0.76391 0.01067 0.0
C2715 C 0.09235 0.77096 0.21572 0.0
C2716 C 0.09092 0.7586 0.12444 0.0
H2717 H 0.10135 0.74788 0.05914 0.0
C2718 C 0.08583 0.76395 0.10339 0.0
C2719 C 0.0969 0.75303 0.10823 0.0
C2720 C 0.10342 0.74796 0.12907 0.0
C2721 C 0.08645 0.76382 0.06668 0.0
C2722 C 0.09188 0.75771 0.05045 0.0
C2723 C 0.09706 0.75245 0.07151 0.0
C2724 C 0.09248 0.7568 0.01174 0.0
C2725 C 0.08157 0.77052 0.04585 0.0
C2726 C 0.08194 0.75208 0.99115 0.0
C2727 C 0.08258 0.75109 0.9548 0.0
C2728 C 0.09371 0.75448 0.93853 0.0
C2729 C 0.10422 0.75904 0.95918 0.0
C2730 C 0.10362 0.76027 0.99539 0.0
H2731 H 0.08151 0.77781 0.06164 0.0
H2732 H 0.087 0.77463 0.02179 0.0
H2733 H 0.07208 0.76409 0.03805 0.0
H2734 H 0.07318 0.74897 0.0032 0.0
H2735 H 0.07431 0.74738 0.93956 0.0
H2736 H 0.2608 0.34011 0.23576 0.0
H2737 H 0.26196 0.34265 0.17204 0.0
H2738 H 0.22324 0.31912 0.16466 0.0
H2739 H 0.22213 0.31609 0.22807 0.0
H2740 H 0.23385 0.31325 0.11688 0.0
H2741 H 0.25366 0.36303 0.11245 0.0
H2742 H 0.26301 0.35875 0.13653 0.0
H2743 H 0.2481 0.35451 0.15252 0.0
C2744 C 0.25254 0.33558 0.22053 0.0
C2745 C 0.24138 0.32793 0.23683 0.0
C2746 C 0.25319 0.33709 0.18413 0.0
C2747 C 0.24265 0.33126 0.16354 0.0
C2748 C 0.23149 0.32373 0.17995 0.0
H2749 H 0.23895 0.35027 0.94751 0.0
H2750 H 0.237 0.34718 0.0109 0.0
C2751 C 0.23086 0.32202 0.21619 0.0
C2752 C 0.24326 0.33259 0.1248 0.0
H2753 H 0.25351 0.35342 0.0587 0.0
C2754 C 0.23807 0.32204 0.10416 0.0
C2755 C 0.24862 0.34404 0.10815 0.0
C2756 C 0.25354 0.35571 0.12857 0.0
C2757 C 0.23815 0.32262 0.06743 0.0
C2758 C 0.244 0.33408 0.05078 0.0
C2759 C 0.24913 0.34462 0.07142 0.0
C2760 C 0.24472 0.33541 0.01204 0.0
C2761 C 0.23165 0.31093 0.047 0.0
C2762 C 0.24968 0.32981 0.99147 0.0
C2763 C 0.25055 0.33136 0.95509 0.0
C2764 C 0.2468 0.33881 0.93878 0.0
C2765 C 0.24194 0.34449 0.9594 0.0
C2766 C 0.24084 0.34275 0.99562 0.0
H2767 H 0.22455 0.30351 0.06311 0.0
H2768 H 0.22734 0.31199 0.02303 0.0
H2769 H 0.23826 0.30811 0.03908 0.0
H2770 H 0.25307 0.32441 0.00357 0.0
H2771 H 0.25448 0.32701 0.93986 0.0
H2772 H 0.8885 0.64921 0.55709 0.0
H2773 H 0.89012 0.65225 0.49366 0.0
H2774 H 0.92878 0.67572 0.50336 0.0
H2775 H 0.9271 0.67321 0.5671 0.0
H2776 H 0.92041 0.68489 0.45858 0.0
H2777 H 0.90117 0.63654 0.42476 0.0
H2778 H 0.89071 0.63888 0.4502 0.0
H2779 H 0.90493 0.64198 0.46918 0.0
C2780 C 0.89734 0.65503 0.54566 0.0
C2781 C 0.90769 0.66092 0.56695 0.0
C2782 C 0.89827 0.65667 0.50937 0.0
C2783 C 0.90962 0.66393 0.49355 0.0
C2784 C 0.91994 0.67 0.5149 0.0
H2785 H 0.92099 0.66157 0.26894 0.0
H2786 H 0.92021 0.65896 0.33264 0.0
C2787 C 0.91898 0.66857 0.55131 0.0
C2788 C 0.91069 0.66541 0.45486 0.0
H2789 H 0.90277 0.64969 0.37779 0.0
C2790 C 0.91664 0.67719 0.44093 0.0
C2791 C 0.906 0.65538 0.43175 0.0
C2792 C 0.90047 0.6425 0.44476 0.0
C2793 C 0.91782 0.67921 0.40462 0.0
C2794 C 0.91244 0.66917 0.38151 0.0
C2795 C 0.90672 0.65739 0.39544 0.0
C2796 C 0.91275 0.67065 0.34284 0.0
C2797 C 0.92507 0.69209 0.39158 0.0
C2798 C 0.90858 0.67788 0.32726 0.0
C2799 C 0.90925 0.67957 0.29098 0.0
C2800 C 0.91376 0.67376 0.26949 0.0
C2801 C 0.91746 0.66613 0.2849 0.0
C2802 C 0.91703 0.66465 0.32128 0.0
H2803 H 0.93177 0.69808 0.41146 0.0
H2804 H 0.93 0.69264 0.36702 0.0
H2805 H 0.91886 0.69565 0.38636 0.0
H2806 H 0.90483 0.68224 0.34314 0.0
H2807 H 0.90618 0.68537 0.27973 0.0
H2808 H 0.3572 0.24739 0.55578 0.0
H2809 H 0.35432 0.24598 0.49231 0.0
H2810 H 0.31925 0.24282 0.50539 0.0
H2811 H 0.32207 0.24433 0.56907 0.0
H2812 H 0.33577 0.2272 0.45272 0.0
H2813 H 0.33676 0.27097 0.43497 0.0
H2814 H 0.34197 0.26725 0.47455 0.0
H2815 H 0.32603 0.26096 0.46685 0.0
C2816 C 0.34886 0.24641 0.54524 0.0
C2817 C 0.33988 0.24603 0.56751 0.0
C2818 C 0.34724 0.24559 0.50894 0.0
C2819 C 0.33665 0.24446 0.49419 0.0
C2820 C 0.32758 0.2439 0.51628 0.0
H2821 H 0.30987 0.22273 0.28269 0.0
H2822 H 0.3131 0.22417 0.34603 0.0
C2823 C 0.32918 0.2447 0.55265 0.0
C2824 C 0.33509 0.24373 0.45565 0.0
H2825 H 0.33173 0.25825 0.38505 0.0
C2826 C 0.33489 0.23399 0.43788 0.0
C2827 C 0.33413 0.2527 0.43641 0.0
C2828 C 0.33483 0.26363 0.45403 0.0
C2829 C 0.33356 0.23287 0.40133 0.0
C2830 C 0.33226 0.24165 0.3822 0.0
C2831 C 0.33265 0.2515 0.39989 0.0
C2832 C 0.33041 0.24075 0.34378 0.0
C2833 C 0.33371 0.22239 0.38342 0.0
C2834 C 0.339 0.24971 0.32161 0.0
C2835 C 0.33719 0.24894 0.28533 0.0
C2836 C 0.32669 0.23923 0.27067 0.0
C2837 C 0.31808 0.23031 0.29307 0.0
C2838 C 0.31992 0.23107 0.32928 0.0
H2839 H 0.3377 0.2182 0.40042 0.0
H2840 H 0.32428 0.21533 0.37703 0.0
H2841 H 0.33893 0.22535 0.35855 0.0
H2842 H 0.34713 0.25729 0.33239 0.0
H2843 H 0.34397 0.25599 0.26884 0.0
H2844 H 0.75268 0.10899 0.55585 0.0
H2845 H 0.75403 0.10755 0.49237 0.0
H2846 H 0.75748 0.07579 0.50501 0.0
H2847 H 0.75601 0.07705 0.56873 0.0
H2848 H 0.77281 0.10811 0.45288 0.0
H2849 H 0.72949 0.06494 0.43437 0.0
H2850 H 0.73307 0.07372 0.47422 0.0
H2851 H 0.73959 0.0643 0.46602 0.0
C2852 C 0.75371 0.10167 0.54522 0.0
C2853 C 0.75419 0.09309 0.56738 0.0
C2854 C 0.75448 0.10088 0.50891 0.0
C2855 C 0.75569 0.09148 0.49403 0.0
C2856 C 0.75633 0.08298 0.516 0.0
H2857 H 0.77793 0.08729 0.28266 0.0
H2858 H 0.77634 0.08889 0.34601 0.0
C2859 C 0.75556 0.08376 0.55239 0.0
C2860 C 0.75647 0.09074 0.4555 0.0
H2861 H 0.74225 0.0729 0.38457 0.0
C2862 C 0.76613 0.10043 0.4379 0.0
C2863 C 0.74764 0.08077 0.43608 0.0
C2864 C 0.73679 0.07038 0.45351 0.0
C2865 C 0.7673 0.10033 0.40136 0.0
C2866 C 0.75865 0.09021 0.38206 0.0
C2867 C 0.74889 0.08061 0.39956 0.0
C2868 C 0.75964 0.08938 0.34365 0.0
C2869 C 0.77767 0.11111 0.38363 0.0
C2870 C 0.75066 0.08894 0.32143 0.0
C2871 C 0.75152 0.08801 0.28514 0.0
C2872 C 0.76133 0.08739 0.27055 0.0
C2873 C 0.77028 0.08779 0.293 0.0
C2874 C 0.76942 0.08876 0.32921 0.0
H2875 H 0.78172 0.11924 0.40081 0.0
H2876 H 0.78485 0.10892 0.3771 0.0
H2877 H 0.77465 0.11335 0.35885 0.0
H2878 H 0.74301 0.08936 0.33218 0.0
H2879 H 0.74445 0.08768 0.2686 0.0
H2880 H 0.01054 0.42119 0.09782 0.0
H2881 H 0.01339 0.42263 0.1615 0.0
H2882 H 0.97922 0.42147 0.17453 0.0
H2883 H 0.97632 0.42013 0.11108 0.0
H2884 H 0.99844 0.43976 0.21398 0.0
H2885 H 0.99459 0.39469 0.23202 0.0
H2886 H 0.00556 0.40429 0.20001 0.0
H2887 H 0.98974 0.39882 0.19248 0.0
C2888 C 0.00364 0.42125 0.11422 0.0
C2889 C 0.99318 0.42049 0.09936 0.0
C2890 C 0.00525 0.42201 0.15059 0.0
C2891 C 0.99643 0.42198 0.17266 0.0
C2892 C 0.9861 0.42144 0.15791 0.0
H2893 H 0.98843 0.4105 0.39788 0.0
H2894 H 0.98538 0.40938 0.33429 0.0
C2895 C 0.98446 0.42066 0.12163 0.0
C2896 C 0.99798 0.42266 0.21119 0.0
H2897 H 1.00017 0.40746 0.28192 0.0
C2898 C 0.99882 0.43271 0.22888 0.0
C2899 C 0.99829 0.41335 0.2305 0.0
C2900 C 0.9969 0.40211 0.21292 0.0
C2901 C 1.00014 0.43378 0.26543 0.0
C2902 C 0.00077 0.42462 0.28465 0.0
C2903 C 0.99976 0.41449 0.26702 0.0
C2904 C 0.00255 0.42543 0.32309 0.0
C2905 C 0.00066 0.44461 0.28325 0.0
C2906 C 0.01325 0.43477 0.33771 0.0
C2907 C 0.01502 0.43545 0.37394 0.0
C2908 C 0.00613 0.42675 0.39625 0.0
C2909 C 0.99543 0.41736 0.38146 0.0
C2910 C 0.99368 0.41669 0.34516 0.0
H2911 H 0.99705 0.44914 0.2662 0.0
H2912 H 0.99545 0.44192 0.30816 0.0
H2913 H 0.01023 0.45129 0.28952 0.0
H2914 H 0.0203 0.44148 0.32105 0.0
H2915 H 0.0234 0.44276 0.38441 0.0
H2916 H 0.58057 0.55651 0.11 0.0
H2917 H 0.57878 0.55795 0.17332 0.0
H2918 H 0.57726 0.59074 0.15955 0.0
H2919 H 0.57915 0.58946 0.096 0.0
H2920 H 0.5937 0.59207 0.21216 0.0
H2921 H 0.54812 0.55143 0.22781 0.0
H2922 H 0.55882 0.54876 0.20455 0.0
H2923 H 0.55394 0.55855 0.18586 0.0
C2924 C 0.5798 0.56401 0.12034 0.0
C2925 C 0.57996 0.57285 0.0979 0.0
C2926 C 0.57872 0.56478 0.15654 0.0
C2927 C 0.57773 0.57436 0.17101 0.0
C2928 C 0.57795 0.58324 0.1488 0.0
H2929 H 0.55744 0.58046 0.38337 0.0
H2930 H 0.55886 0.57909 0.31986 0.0
C2931 C 0.57901 0.58248 0.11252 0.0
C2932 C 0.57677 0.57525 0.20942 0.0
H2933 H 0.55904 0.56053 0.28007 0.0
C2934 C 0.58611 0.58521 0.22705 0.0
C2935 C 0.5668 0.56632 0.22862 0.0
C2936 C 0.55628 0.55571 0.21079 0.0
C2937 C 0.58583 0.58638 0.26358 0.0
C2938 C 0.57603 0.57727 0.28289 0.0
C2939 C 0.5666 0.56742 0.26518 0.0
C2940 C 0.57523 0.57796 0.32144 0.0
C2941 C 0.59592 0.59744 0.28115 0.0
C2942 C 0.58388 0.5776 0.34336 0.0
C2943 C 0.5831 0.57837 0.37976 0.0
C2944 C 0.57362 0.57947 0.3948 0.0
C2945 C 0.56487 0.57964 0.37269 0.0
C2946 C 0.56566 0.57886 0.33637 0.0
H2947 H 0.6012 0.60482 0.26207 0.0
H2948 H 0.59229 0.60092 0.30174 0.0
H2949 H 0.60222 0.59496 0.29386 0.0
H2950 H 0.59122 0.5767 0.33232 0.0
H2951 H 0.58996 0.57816 0.39604 0.0
H2952 H 0.42239 0.01162 0.39861 0.0
H2953 H 0.42391 0.01455 0.33496 0.0
H2954 H 0.42237 0.9802 0.32162 0.0
H2955 H 0.42095 0.97723 0.38506 0.0
H2956 H 0.44075 0.9993 0.28222 0.0
H2957 H 0.39597 0.99611 0.26429 0.0
H2958 H 0.40564 0.007 0.29635 0.0
H2959 H 0.4 0.99115 0.3038 0.0
C2960 C 0.42239 0.0047 0.38215 0.0
C2961 C 0.4215 0.99417 0.39693 0.0
C2962 C 0.42318 0.00635 0.34579 0.0
C2963 C 0.42307 0.99751 0.32363 0.0
C2964 C 0.4224 0.98711 0.33831 0.0
H2965 H 0.41168 0.99011 0.09817 0.0
H2966 H 0.41042 0.98694 0.16172 0.0
C2967 C 0.42158 0.98543 0.37459 0.0
C2968 C 0.42378 0.9991 0.28509 0.0
H2969 H 0.40878 0.00169 0.21445 0.0
C2970 C 0.43376 0.99982 0.26736 0.0
C2971 C 0.41456 0.9996 0.26581 0.0
C2972 C 0.40337 0.99832 0.2834 0.0
C2973 C 0.43487 0.0012 0.23081 0.0
C2974 C 0.42582 0.00203 0.21164 0.0
C2975 C 0.41574 0.00113 0.2293 0.0
C2976 C 0.42668 0.00391 0.17321 0.0
C2977 C 0.44562 0.00158 0.21298 0.0
C2978 C 0.43618 0.01453 0.15873 0.0
C2979 C 0.43694 0.01637 0.12251 0.0
C2980 C 0.42816 0.00762 0.10006 0.0
C2981 C 0.41861 0.997 0.11469 0.0
C2982 C 0.41785 0.99519 0.15098 0.0
H2983 H 0.45001 0.99778 0.2299 0.0
H2984 H 0.44291 0.99646 0.18792 0.0
H2985 H 0.45244 0.01113 0.20699 0.0
H2986 H 0.44296 0.02147 0.17549 0.0
H2987 H 0.44438 0.02468 0.11216 0.0
H2988 H 0.55482 0.98213 0.89494 0.0
H2989 H 0.55629 0.98499 0.83142 0.0
H2990 H 0.59498 0.00849 0.84033 0.0
H2991 H 0.59344 0.00616 0.90413 0.0
H2992 H 0.58655 0.0175 0.79531 0.0
H2993 H 0.56716 0.969 0.76298 0.0
H2994 H 0.55676 0.97148 0.78832 0.0
H2995 H 0.571 0.97461 0.80723 0.0
C2996 C 0.56363 0.98792 0.88331 0.0
C2997 C 0.57403 0.99388 0.90438 0.0
C2998 C 0.56448 0.98946 0.84697 0.0
C2999 C 0.57579 0.99667 0.83092 0.0
C3000 C 0.58616 0.00281 0.85206 0.0
H3001 H 0.58699 0.99344 0.60665 0.0
H3002 H 0.58615 0.99102 0.67041 0.0
C3003 C 0.58528 0.00149 0.88849 0.0
C3004 C 0.57678 0.99801 0.79218 0.0
H3005 H 0.56875 0.982 0.7156 0.0
C3006 C 0.58274 0.00973 0.77789 0.0
C3007 C 0.57205 0.98788 0.76938 0.0
C3008 C 0.56651 0.97505 0.78278 0.0
C3009 C 0.5839 0.01162 0.74153 0.0
C3010 C 0.57848 0.00149 0.71872 0.0
C3011 C 0.57273 0.98977 0.73301 0.0
C3012 C 0.5788 0.00284 0.67999 0.0
C3013 C 0.59119 0.02445 0.72811 0.0
C3014 C 0.5747 0.01007 0.66404 0.0
C3015 C 0.57542 0.01166 0.62772 0.0
C3016 C 0.57988 0.00574 0.60657 0.0
C3017 C 0.58349 0.99809 0.62234 0.0
C3018 C 0.58302 0.99672 0.65877 0.0
H3019 H 0.59791 0.0305 0.74787 0.0
H3020 H 0.59611 0.02489 0.70362 0.0
H3021 H 0.58501 0.02803 0.72266 0.0
H3022 H 0.57098 0.01453 0.67966 0.0
H3023 H 0.57241 0.01748 0.61618 0.0
H3024 H 0.0116 0.58955 0.60524 0.0
H3025 H 0.01465 0.59087 0.66883 0.0
H3026 H 0.98007 0.55837 0.6824 0.0
H3027 H 0.97697 0.5569 0.61901 0.0
H3028 H 0.99965 0.59254 0.72099 0.0
H3029 H 0.00375 0.55144 0.73769 0.0
H3030 H 0.0052 0.55852 0.69559 0.0
H3031 H 0.99047 0.54898 0.71429 0.0
C3032 C 0.00468 0.58264 0.62172 0.0
C3033 C 0.99407 0.57309 0.60702 0.0
C3034 C 0.00642 0.58343 0.65803 0.0
C3035 C 0.99764 0.57463 0.6802 0.0
C3036 C 0.98704 0.56513 0.66566 0.0
H3037 H 0.98976 0.57927 0.90547 0.0
H3038 H 0.98683 0.57766 0.84182 0.0
C3039 C 0.98527 0.56434 0.62942 0.0
C3040 C 0.99943 0.57556 0.71865 0.0
H3041 H 0.00221 0.56083 0.78967 0.0
C3042 C 1.00025 0.58564 0.73605 0.0
C3043 C 1.0003 0.56657 0.73808 0.0
C3044 C 1.0 0.55581 0.72051 0.0
C3045 C 0.00175 0.5869 0.77255 0.0
C3046 C 0.0023 0.57775 0.79207 0.0
C3047 C 0.00165 0.56776 0.77461 0.0
C3048 C 0.00391 0.57857 0.83059 0.0
C3049 C 0.00293 0.59809 0.78985 0.0
C3050 C 0.01434 0.57932 0.84531 0.0
C3051 C 0.01602 0.58019 0.88158 0.0
C3052 C 0.00725 0.58025 0.90387 0.0
C3053 C 0.99671 0.5793 0.88904 0.0
C3054 C 0.99505 0.57845 0.85269 0.0
H3055 H 0.00509 0.60543 0.77059 0.0
H3056 H 0.99424 0.59578 0.80276 0.0
H3057 H 0.01011 0.60155 0.81026 0.0
H3058 H 0.02126 0.57937 0.82867 0.0
H3059 H 0.02424 0.58088 0.89209 0.0
H3060 H 0.41017 0.42261 0.60436 0.0
H3061 H 0.40887 0.42453 0.66789 0.0
H3062 H 0.44125 0.42228 0.68203 0.0
H3063 H 0.4427 0.42045 0.61873 0.0
H3064 H 0.40711 0.40794 0.72052 0.0
H3065 H 0.4483 0.45309 0.73655 0.0
H3066 H 0.4412 0.44738 0.69452 0.0
H3067 H 0.45073 0.44221 0.7134 0.0
C3068 C 0.41706 0.42259 0.62096 0.0
C3069 C 0.42657 0.42142 0.60645 0.0
C3070 C 0.41628 0.42367 0.65722 0.0
C3071 C 0.42504 0.42369 0.67954 0.0
C3072 C 0.43452 0.42249 0.66518 0.0
H3073 H 0.42073 0.41138 0.90458 0.0
H3074 H 0.42214 0.41003 0.84088 0.0
C3075 C 0.43529 0.42139 0.62899 0.0
C3076 C 0.42413 0.42466 0.71794 0.0
H3077 H 0.43897 0.44224 0.78872 0.0
C3078 C 0.41404 0.41545 0.73547 0.0
C3079 C 0.43315 0.43454 0.73723 0.0
C3080 C 0.44391 0.44494 0.71951 0.0
C3081 C 0.41283 0.41575 0.77197 0.0
C3082 C 0.42202 0.42545 0.79137 0.0
C3083 C 0.43201 0.43476 0.77377 0.0
C3084 C 0.4213 0.42626 0.82991 0.0
C3085 C 0.40164 0.40579 0.78943 0.0
C3086 C 0.42065 0.43598 0.8448 0.0
C3087 C 0.4199 0.4368 0.88111 0.0
C3088 C 0.41986 0.42795 0.90327 0.0
C3089 C 0.42069 0.41831 0.88827 0.0
C3090 C 0.42143 0.41749 0.85188 0.0
H3091 H 0.39425 0.40064 0.77026 0.0
H3092 H 0.40392 0.39935 0.80218 0.0
H3093 H 0.39826 0.40953 0.80997 0.0
H3094 H 0.42061 0.44286 0.82826 0.0
H3095 H 0.4193 0.44436 0.89177 0.0
loop_
_geom_bond_atom_site_label_1
_geom_bond_atom_site_label_2
_geom_bond_distance
_geom_bond_site_symmetry_2
_ccdc_geom_bond_type
C0 O2 1.247 . S
C0 O4 1.258 . S
C1 O8 1.247 . S
C1 O9 1.258 . S
O2 C0 1.247 . S
O2 Zn3 2.028 . S
Zn3 O2 2.028 . S
Zn3 O7 2.035 . S
Zn3 O9 2.035 . S
Zn3 O10 2.028 . S
O4 C0 1.258 . S
O4 Zn5 2.035 . S
Zn5 O4 2.035 . S
Zn5 O6 2.028 . S
Zn5 O8 2.028 . S
Zn5 O11 2.035 . S
O6 Zn5 2.028 . S
O6 C12 1.247 . S
O7 Zn3 2.035 . S
O7 C12 1.258 . S
O8 C1 1.247 . S
O8 Zn5 2.028 . S
O9 C1 1.258 . S
O9 Zn3 2.035 . S
O10 Zn3 2.028 . S
O10 C13 1.247 . S
O11 Zn5 2.035 . S
O11 C13 1.258 . S
C12 O6 1.247 . S
C12 O7 1.258 . S
C13 O10 1.247 . S
C13 O11 1.258 . S
C14 O16 1.247 . S
C14 O18 1.258 . S
C15 O22 1.247 . S
C15 O23 1.258 . S
O16 C14 1.247 . S
O16 Zn17 2.028 . S
Zn17 O16 2.028 . S
Zn17 O21 2.035 . S
Zn17 O23 2.035 . S
Zn17 O24 2.028 . S
O18 C14 1.258 . S
O18 Zn19 2.035 . S
Zn19 O18 2.035 . S
Zn19 O20 2.028 . S
Zn19 O22 2.028 . S
Zn19 O25 2.035 . S
O20 Zn19 2.028 . S
O20 C26 1.247 . S
O21 Zn17 2.035 . S
O21 C26 1.258 . S
O22 C15 1.247 . S
O22 Zn19 2.028 . S
O23 C15 1.258 . S
O23 Zn17 2.035 . S
O24 Zn17 2.028 . S
O24 C27 1.247 . S
O25 Zn19 2.035 . S
O25 C27 1.258 . S
C26 O20 1.247 . S
C26 O21 1.258 . S
C27 O24 1.247 . S
C27 O25 1.258 . S
C28 O30 1.247 . S
C28 O32 1.258 . S
C29 O36 1.247 . S
C29 O37 1.258 . S
O30 C28 1.247 . S
O30 Zn31 2.028 . S
Zn31 O30 2.028 . S
Zn31 O35 2.035 . S
Zn31 O37 2.035 . S
Zn31 O38 2.028 . S
O32 C28 1.258 . S
O32 Zn33 2.035 . S
Zn33 O32 2.035 . S
Zn33 O34 2.028 . S
Zn33 O36 2.028 . S
Zn33 O39 2.035 . S
O34 Zn33 2.028 . S
O34 C40 1.247 . S
O35 Zn31 2.035 . S
O35 C40 1.258 . S
O36 C29 1.247 . S
O36 Zn33 2.028 . S
O37 C29 1.258 . S
O37 Zn31 2.035 . S
O38 Zn31 2.028 . S
O38 C41 1.247 . S
O39 Zn33 2.035 . S
O39 C41 1.258 . S
C40 O34 1.247 . S
C40 O35 1.258 . S
C41 O38 1.247 . S
C41 O39 1.258 . S
C42 O44 1.247 . S
C42 O46 1.258 . S
C43 O50 1.247 . S
C43 O51 1.258 . S
O44 C42 1.247 . S
O44 Zn45 2.028 . S
Zn45 O44 2.028 . S
Zn45 O49 2.035 . S
Zn45 O51 2.035 . S
Zn45 O52 2.028 . S
O46 C42 1.258 . S
O46 Zn47 2.035 . S
Zn47 O46 2.035 . S
Zn47 O48 2.028 . S
Zn47 O50 2.028 . S
Zn47 O53 2.035 . S
O48 Zn47 2.028 . S
O48 C54 1.247 . S
O49 Zn45 2.035 . S
O49 C54 1.258 . S
O50 C43 1.247 . S
O50 Zn47 2.028 . S
O51 C43 1.258 . S
O51 Zn45 2.035 . S
O52 Zn45 2.028 . S
O52 C55 1.247 . S
O53 Zn47 2.035 . S
O53 C55 1.258 . S
C54 O48 1.247 . S
C54 O49 1.258 . S
C55 O52 1.247 . S
C55 O53 1.258 . S
C56 O58 1.247 . S
C56 O60 1.258 . S
C57 O64 1.247 . S
C57 O65 1.258 . S
O58 C56 1.247 . S
O58 Zn59 2.028 . S
Zn59 O58 2.028 . S
Zn59 O63 2.035 . S
Zn59 O65 2.035 . S
Zn59 O66 2.028 . S
O60 C56 1.258 . S
O60 Zn61 2.035 . S
Zn61 O60 2.035 . S
Zn61 O62 2.028 . S
Zn61 O64 2.028 . S
Zn61 O67 2.035 . S
O62 Zn61 2.028 . S
O62 C68 1.247 . S
O63 Zn59 2.035 . S
O63 C68 1.258 . S
O64 C57 1.247 . S
O64 Zn61 2.028 . S
O65 C57 1.258 . S
O65 Zn59 2.035 . S
O66 Zn59 2.028 . S
O66 C69 1.247 . S
O67 Zn61 2.035 . S
O67 C69 1.258 . S
C68 O62 1.247 . S
C68 O63 1.258 . S
C69 O66 1.247 . S
C69 O67 1.258 . S
C70 O72 1.247 . S
C70 O74 1.258 . S
C71 O78 1.247 . S
C71 O79 1.258 . S
O72 C70 1.247 . S
O72 Zn73 2.028 . S
Zn73 O72 2.028 . S
Zn73 O77 2.035 . S
Zn73 O79 2.035 . S
Zn73 O80 2.028 . S
O74 C70 1.258 . S
O74 Zn75 2.035 . S
Zn75 O74 2.035 . S
Zn75 O76 2.028 . S
Zn75 O78 2.028 . S
Zn75 O81 2.035 . S
O76 Zn75 2.028 . S
O76 C82 1.247 . S
O77 Zn73 2.035 . S
O77 C82 1.258 . S
O78 C71 1.247 . S
O78 Zn75 2.028 . S
O79 C71 1.258 . S
O79 Zn73 2.035 . S
O80 Zn73 2.028 . S
O80 C83 1.247 . S
O81 Zn75 2.035 . S
O81 C83 1.258 . S
C82 O76 1.247 . S
C82 O77 1.258 . S
C83 O80 1.247 . S
C83 O81 1.258 . S
C84 O86 1.247 . S
C84 O88 1.258 . S
C85 O92 1.247 . S
C85 O93 1.258 . S
O86 C84 1.247 . S
O86 Zn87 2.028 . S
Zn87 O86 2.028 . S
Zn87 O91 2.035 . S
Zn87 O93 2.035 . S
Zn87 O94 2.028 . S
O88 C84 1.258 . S
O88 Zn89 2.035 . S
Zn89 O88 2.035 . S
Zn89 O90 2.028 . S
Zn89 O92 2.028 . S
Zn89 O95 2.035 . S
O90 Zn89 2.028 . S
O90 C96 1.247 . S
O91 Zn87 2.035 . S
O91 C96 1.258 . S
O92 C85 1.247 . S
O92 Zn89 2.028 . S
O93 C85 1.258 . S
O93 Zn87 2.035 . S
O94 Zn87 2.028 . S
O94 C97 1.247 . S
O95 Zn89 2.035 . S
O95 C97 1.258 . S
C96 O90 1.247 . S
C96 O91 1.258 . S
C97 O94 1.247 . S
C97 O95 1.258 . S
C98 O100 1.247 . S
C98 O102 1.258 . S
C99 O106 1.247 . S
C99 O107 1.258 . S
O100 C98 1.247 . S
O100 Zn101 2.028 . S
Zn101 O100 2.028 . S
Zn101 O105 2.035 . S
Zn101 O107 2.035 . S
Zn101 O108 2.028 . S
O102 C98 1.258 . S
O102 Zn103 2.035 . S
Zn103 O102 2.035 . S
Zn103 O104 2.028 . S
Zn103 O106 2.028 . S
Zn103 O109 2.035 . S
O104 Zn103 2.028 . S
O104 C110 1.247 . S
O105 Zn101 2.035 . S
O105 C110 1.258 . S
O106 C99 1.247 . S
O106 Zn103 2.028 . S
O107 C99 1.258 . S
O107 Zn101 2.035 . S
O108 Zn101 2.028 . S
O108 C111 1.247 . S
O109 Zn103 2.035 . S
O109 C111 1.258 . S
C110 O104 1.247 . S
C110 O105 1.258 . S
C111 O108 1.247 . S
C111 O109 1.258 . S
C112 O114 1.247 . S
C112 O116 1.258 . S
C113 O120 1.247 . S
C113 O121 1.258 . S
O114 C112 1.247 . S
O114 Zn115 2.028 . S
Zn115 O114 2.028 . S
Zn115 O119 2.035 . S
Zn115 O121 2.035 . S
Zn115 O122 2.028 . S
O116 C112 1.258 . S
O116 Zn117 2.035 . S
Zn117 O116 2.035 . S
Zn117 O118 2.028 . S
Zn117 O120 2.028 . S
Zn117 O123 2.035 . S
O118 Zn117 2.028 . S
O118 C124 1.247 . S
O119 Zn115 2.035 . S
O119 C124 1.258 . S
O120 C113 1.247 . S
O120 Zn117 2.028 . S
O121 C113 1.258 . S
O121 Zn115 2.035 . S
O122 Zn115 2.028 . S
O122 C125 1.247 . S
O123 Zn117 2.035 . S
O123 C125 1.258 . S
C124 O118 1.247 . S
C124 O119 1.258 . S
C125 O122 1.247 . S
C125 O123 1.258 . S
C126 O128 1.247 . S
C126 O130 1.258 . S
C127 O134 1.247 . S
C127 O135 1.258 . S
O128 C126 1.247 . S
O128 Zn129 2.028 . S
Zn129 O128 2.028 . S
Zn129 O133 2.035 . S
Zn129 O135 2.035 . S
Zn129 O136 2.028 . S
O130 C126 1.258 . S
O130 Zn131 2.035 . S
Zn131 O130 2.035 . S
Zn131 O132 2.028 . S
Zn131 O134 2.028 . S
Zn131 O137 2.035 . S
O132 Zn131 2.028 . S
O132 C138 1.247 . S
O133 Zn129 2.035 . S
O133 C138 1.258 . S
O134 C127 1.247 . S
O134 Zn131 2.028 . S
O135 C127 1.258 . S
O135 Zn129 2.035 . S
O136 Zn129 2.028 . S
O136 C139 1.247 . S
O137 Zn131 2.035 . S
O137 C139 1.258 . S
C138 O132 1.247 . S
C138 O133 1.258 . S
C139 O136 1.247 . S
C139 O137 1.258 . S
C140 O142 1.247 . S
C140 O144 1.258 . S
C141 O148 1.247 . S
C141 O149 1.258 . S
O142 C140 1.247 . S
O142 Zn143 2.028 . S
Zn143 O142 2.028 . S
Zn143 O147 2.035 . S
Zn143 O149 2.035 . S
Zn143 O150 2.028 . S
O144 C140 1.258 . S
O144 Zn145 2.035 . S
Zn145 O144 2.035 . S
Zn145 O146 2.028 . S
Zn145 O148 2.028 . S
Zn145 O151 2.035 . S
O146 Zn145 2.028 . S
O146 C152 1.247 . S
O147 Zn143 2.035 . S
O147 C152 1.258 . S
O148 C141 1.247 . S
O148 Zn145 2.028 . S
O149 C141 1.258 . S
O149 Zn143 2.035 . S
O150 Zn143 2.028 . S
O150 C153 1.247 . S
O151 Zn145 2.035 . S
O151 C153 1.258 . S
C152 O146 1.247 . S
C152 O147 1.258 . S
C153 O150 1.247 . S
C153 O151 1.258 . S
C154 O156 1.247 . S
C154 O158 1.258 . S
C155 O162 1.247 . S
C155 O163 1.258 . S
O156 C154 1.247 . S
O156 Zn157 2.028 . S
Zn157 O156 2.028 . S
Zn157 O161 2.035 . S
Zn157 O163 2.035 . S
Zn157 O164 2.028 . S
O158 C154 1.258 . S
O158 Zn159 2.035 . S
Zn159 O158 2.035 . S
Zn159 O160 2.028 . S
Zn159 O162 2.028 . S
Zn159 O165 2.035 . S
O160 Zn159 2.028 . S
O160 C166 1.247 . S
O161 Zn157 2.035 . S
O161 C166 1.258 . S
O162 C155 1.247 . S
O162 Zn159 2.028 . S
O163 C155 1.258 . S
O163 Zn157 2.035 . S
O164 Zn157 2.028 . S
O164 C167 1.247 . S
O165 Zn159 2.035 . S
O165 C167 1.258 . S
C166 O160 1.247 . S
C166 O161 1.258 . S
C167 O164 1.247 . S
C167 O165 1.258 . S
C168 O170 1.247 . S
C168 O172 1.258 1_455 S
C169 O176 1.247 1_455 S
C169 O177 1.258 . S
O170 C168 1.247 . S
O170 Zn171 2.028 . S
Zn171 O170 2.028 . S
Zn171 O175 2.035 . S
Zn171 O177 2.035 . S
Zn171 O178 2.028 . S
O172 C168 1.258 1_655 S
O172 Zn173 2.035 . S
Zn173 O172 2.035 . S
Zn173 O174 2.072 . S
Zn173 O176 2.028 . S
Zn173 O179 2.035 . S
O174 Zn173 2.072 . S
O174 C180 1.198 1_655 S
O175 Zn171 2.035 . S
O175 C180 1.258 . S
O176 C169 1.247 1_655 S
O176 Zn173 2.028 . S
O177 C169 1.258 . S
O177 Zn171 2.035 . S
O178 Zn171 2.028 . S
O178 C181 1.247 1_455 S
O179 Zn173 2.035 . S
O179 C181 1.258 . S
C180 O174 1.198 1_455 S
C180 O175 1.258 . S
C181 O178 1.247 1_655 S
C181 O179 1.258 . S
C182 O184 1.247 . S
C182 O186 1.258 . S
C183 O190 1.247 . S
C183 O191 1.258 . S
O184 C182 1.247 . S
O184 Zn185 2.028 . S
Zn185 O184 2.028 . S
Zn185 O189 2.035 . S
Zn185 O191 2.035 . S
Zn185 O192 2.028 . S
O186 C182 1.258 . S
O186 Zn187 2.035 . S
Zn187 O186 2.035 . S
Zn187 O188 2.028 . S
Zn187 O190 2.028 . S
Zn187 O193 2.035 . S
O188 Zn187 2.028 . S
O188 C194 1.247 . S
O189 Zn185 2.035 . S
O189 C194 1.258 . S
O190 C183 1.247 . S
O190 Zn187 2.028 . S
O191 C183 1.258 . S
O191 Zn185 2.035 . S
O192 Zn185 2.028 . S
O192 C195 1.247 . S
O193 Zn187 2.035 . S
O193 C195 1.258 . S
C194 O188 1.247 . S
C194 O189 1.258 . S
C195 O192 1.247 . S
C195 O193 1.258 . S
C196 O198 1.247 . S
C196 O200 1.258 1_565 S
C197 O204 1.247 1_565 S
C197 O205 1.258 . S
O198 C196 1.247 . S
O198 Zn199 2.028 . S
Zn199 O198 2.028 . S
Zn199 O203 2.035 . S
Zn199 O205 2.035 . S
Zn199 O206 2.028 . S
O200 C196 1.258 1_545 S
O200 Zn201 2.035 . S
Zn201 O200 2.035 . S
Zn201 O202 2.028 . S
Zn201 O204 2.028 . S
Zn201 O207 2.032 . S
O202 Zn201 2.028 . S
O202 C208 1.247 . S
O203 Zn199 2.035 . S
O203 C208 1.258 1_565 S
O204 C197 1.247 1_545 S
O204 Zn201 2.028 . S
O205 C197 1.258 . S
O205 Zn199 2.035 . S
O206 Zn199 2.028 . S
O206 C209 1.247 . S
O207 Zn201 2.032 . S
O207 C209 1.207 1_545 S
C208 O202 1.247 . S
C208 O203 1.258 1_545 S
C209 O206 1.247 . S
C209 O207 1.207 1_565 S
C210 O212 1.247 . S
C210 O214 1.258 . S
C211 O218 1.247 . S
C211 O219 1.258 . S
O212 C210 1.247 . S
O212 Zn213 2.028 . S
Zn213 O212 2.028 . S
Zn213 O217 2.035 . S
Zn213 O219 2.035 . S
Zn213 O220 2.028 . S
O214 C210 1.258 . S
O214 Zn215 2.035 . S
Zn215 O214 2.035 . S
Zn215 O216 2.028 . S
Zn215 O218 2.028 . S
Zn215 O221 2.035 . S
O216 Zn215 2.028 . S
O216 C222 1.247 . S
O217 Zn213 2.035 . S
O217 C222 1.258 . S
O218 C211 1.247 . S
O218 Zn215 2.028 . S
O219 C211 1.258 . S
O219 Zn213 2.035 . S
O220 Zn213 2.028 . S
O220 C223 1.247 . S
O221 Zn215 2.035 . S
O221 C223 1.258 . S
C222 O216 1.247 . S
C222 O217 1.258 . S
C223 O220 1.247 . S
C223 O221 1.258 . S
C224 O226 1.247 . S
C224 O228 1.258 . S
C225 O232 1.247 . S
C225 O233 1.258 . S
O226 C224 1.247 . S
O226 Zn227 2.028 . S
Zn227 O226 2.028 . S
Zn227 O231 2.035 . S
Zn227 O233 2.035 . S
Zn227 O234 2.028 . S
O228 C224 1.258 . S
O228 Zn229 2.035 . S
Zn229 O228 2.035 . S
Zn229 O230 2.028 . S
Zn229 O232 2.028 . S
Zn229 O235 2.035 . S
O230 Zn229 2.028 . S
O230 C236 1.247 . S
O231 Zn227 2.035 . S
O231 C236 1.258 . S
O232 C225 1.247 . S
O232 Zn229 2.028 . S
O233 C225 1.258 . S
O233 Zn227 2.035 . S
O234 Zn227 2.028 . S
O234 C237 1.247 . S
O235 Zn229 2.035 . S
O235 C237 1.258 . S
C236 O230 1.247 . S
C236 O231 1.258 . S
C237 O234 1.247 . S
C237 O235 1.258 . S
C238 O240 1.247 . S
C238 O242 1.258 . S
C239 O246 1.247 . S
C239 O247 1.258 . S
O240 C238 1.247 . S
O240 Zn241 2.028 . S
Zn241 O240 2.028 . S
Zn241 O245 2.035 . S
Zn241 O247 2.035 . S
Zn241 O248 2.028 . S
O242 C238 1.258 . S
O242 Zn243 2.035 . S
Zn243 O242 2.035 . S
Zn243 O244 2.028 . S
Zn243 O246 2.028 . S
Zn243 O249 2.035 . S
O244 Zn243 2.028 . S
O244 C250 1.247 . S
O245 Zn241 2.035 . S
O245 C250 1.258 . S
O246 C239 1.247 . S
O246 Zn243 2.028 . S
O247 C239 1.258 . S
O247 Zn241 2.035 . S
O248 Zn241 2.028 . S
O248 C251 1.247 . S
O249 Zn243 2.035 . S
O249 C251 1.258 . S
C250 O244 1.247 . S
C250 O245 1.258 . S
C251 O248 1.247 . S
C251 O249 1.258 . S
C252 O254 1.247 . S
C252 O256 1.258 . S
C253 O260 1.247 . S
C253 O261 1.258 . S
O254 C252 1.247 . S
O254 Zn255 2.028 . S
Zn255 O254 2.028 . S
Zn255 O259 2.035 . S
Zn255 O261 2.035 . S
Zn255 O262 2.028 . S
O256 C252 1.258 . S
O256 Zn257 2.035 . S
Zn257 O256 2.035 . S
Zn257 O258 2.028 . S
Zn257 O260 2.028 . S
Zn257 O263 2.035 . S
O258 Zn257 2.028 . S
O258 C264 1.247 . S
O259 Zn255 2.035 . S
O259 C264 1.258 . S
O260 C253 1.247 . S
O260 Zn257 2.028 . S
O261 C253 1.258 . S
O261 Zn255 2.035 . S
O262 Zn255 2.028 . S
O262 C265 1.247 . S
O263 Zn257 2.035 . S
O263 C265 1.258 . S
C264 O258 1.247 . S
C264 O259 1.258 . S
C265 O262 1.247 . S
C265 O263 1.258 . S
C266 O268 1.247 . S
C266 O270 1.258 . S
C267 O274 1.247 . S
C267 O275 1.258 . S
O268 C266 1.247 . S
O268 Zn269 2.028 . S
Zn269 O268 2.028 . S
Zn269 O273 2.035 . S
Zn269 O275 2.035 . S
Zn269 O276 2.028 . S
O270 C266 1.258 . S
O270 Zn271 2.035 . S
Zn271 O270 2.035 . S
Zn271 O272 2.028 . S
Zn271 O274 2.028 . S
Zn271 O277 2.035 . S
O272 Zn271 2.028 . S
O272 C278 1.247 . S
O273 Zn269 2.035 . S
O273 C278 1.258 . S
O274 C267 1.247 . S
O274 Zn271 2.028 . S
O275 C267 1.258 . S
O275 Zn269 2.035 . S
O276 Zn269 2.028 . S
O276 C279 1.247 . S
O277 Zn271 2.035 . S
O277 C279 1.258 . S
C278 O272 1.247 . S
C278 O273 1.258 . S
C279 O276 1.247 . S
C279 O277 1.258 . S
C280 O282 1.247 . S
C280 O284 1.258 . S
C281 O288 1.247 . S
C281 O289 1.258 . S
O282 C280 1.247 . S
O282 Zn283 2.028 . S
Zn283 O282 2.028 . S
Zn283 O287 2.035 . S
Zn283 O289 2.035 . S
Zn283 O290 2.028 . S
O284 C280 1.258 . S
O284 Zn285 2.035 . S
Zn285 O284 2.035 . S
Zn285 O286 2.028 . S
Zn285 O288 2.028 . S
Zn285 O291 2.035 . S
O286 Zn285 2.028 . S
O286 C292 1.247 . S
O287 Zn283 2.035 . S
O287 C292 1.258 . S
O288 C281 1.247 . S
O288 Zn285 2.028 . S
O289 C281 1.258 . S
O289 Zn283 2.035 . S
O290 Zn283 2.028 . S
O290 C293 1.247 . S
O291 Zn285 2.035 . S
O291 C293 1.258 . S
C292 O286 1.247 . S
C292 O287 1.258 . S
C293 O290 1.247 . S
C293 O291 1.258 . S
C294 O296 1.247 1_565 S
C294 O298 1.258 . S
C295 O302 1.247 . S
C295 O303 1.258 1_565 S
O296 C294 1.247 1_545 S
O296 Zn297 2.016 1_556 S
Zn297 O296 2.016 1_554 S
Zn297 O301 2.036 . S
Zn297 O303 2.047 . S
Zn297 O304 2.027 1_544 S
O298 C294 1.258 . S
O298 Zn299 2.039 . S
Zn299 O298 2.039 . S
Zn299 O300 2.028 1_556 S
Zn299 O302 2.024 1_556 S
Zn299 O305 2.036 . S
O300 Zn299 2.028 1_554 S
O300 C306 1.244 . S
O301 Zn297 2.036 . S
O301 C306 1.259 1_545 S
O302 C295 1.247 . S
O302 Zn299 2.024 1_554 S
O303 C295 1.258 1_545 S
O303 Zn297 2.047 . S
O304 Zn297 2.027 1_566 S
O304 C307 1.247 . S
O305 Zn299 2.036 . S
O305 C307 1.258 . S
C306 O300 1.244 . S
C306 O301 1.259 1_565 S
C307 O304 1.247 . S
C307 O305 1.258 . S
C308 O310 1.247 . S
C308 O312 1.258 . S
C309 O316 1.246 1_455 S
C309 O317 1.259 . S
O310 C308 1.247 . S
O310 Zn311 2.029 . S
Zn311 O310 2.029 . S
Zn311 O315 2.015 1_556 S
Zn311 O317 2.033 1_556 S
Zn311 O318 2.047 . S
O312 C308 1.258 . S
O312 Zn313 2.033 1_456 S
Zn313 O312 2.033 1_654 S
Zn313 O314 2.055 . S
Zn313 O316 2.030 . S
Zn313 O319 2.008 1_554 S
O314 Zn313 2.055 . S
O314 C320 1.247 1_655 S
O315 Zn311 2.015 1_554 S
O315 C320 1.258 . S
O316 C309 1.246 1_655 S
O316 Zn313 2.030 . S
O317 C309 1.259 . S
O317 Zn311 2.033 1_554 S
O318 Zn311 2.047 . S
O318 C321 1.247 . S
O319 Zn313 2.008 1_556 S
O319 C321 1.258 1_655 S
C320 O314 1.247 1_455 S
C320 O315 1.258 . S
C321 O318 1.247 . S
C321 O319 1.258 1_455 S
C322 O324 1.247 . S
C322 O326 1.258 . S
C323 O330 1.247 . S
C323 O331 1.258 . S
O324 C322 1.247 . S
O324 Zn325 2.028 1_554 S
Zn325 O324 2.028 1_556 S
Zn325 O329 2.039 . S
Zn325 O331 2.036 . S
Zn325 O332 2.024 1_556 S
O326 C322 1.258 . S
O326 Zn327 2.036 . S
Zn327 O326 2.036 . S
Zn327 O328 2.016 1_554 S
Zn327 O330 2.027 1_554 S
Zn327 O333 2.047 . S
O328 Zn327 2.016 1_556 S
O328 C334 1.247 . S
O329 Zn325 2.039 . S
O329 C334 1.258 . S
O330 C323 1.247 . S
O330 Zn327 2.027 1_556 S
O331 C323 1.258 . S
O331 Zn325 2.036 . S
O332 Zn325 2.024 1_554 S
O332 C335 1.247 . S
O333 Zn327 2.047 . S
O333 C335 1.258 . S
C334 O328 1.247 . S
C334 O329 1.258 . S
C335 O332 1.247 . S
C335 O333 1.258 . S
C336 O338 1.247 . S
C336 O340 1.258 . S
C337 O344 1.247 . S
C337 O345 1.258 . S
O338 C336 1.247 . S
O338 Zn339 2.028 . S
Zn339 O338 2.028 . S
Zn339 O343 2.035 . S
Zn339 O345 2.035 . S
Zn339 O346 2.028 . S
O340 C336 1.258 . S
O340 Zn341 2.035 . S
Zn341 O340 2.035 . S
Zn341 O342 2.028 . S
Zn341 O344 2.028 . S
Zn341 O347 2.035 . S
O342 Zn341 2.028 . S
O342 C348 1.247 . S
O343 Zn339 2.035 . S
O343 C348 1.258 . S
O344 C337 1.247 . S
O344 Zn341 2.028 . S
O345 C337 1.258 . S
O345 Zn339 2.035 . S
O346 Zn339 2.028 . S
O346 C349 1.247 . S
O347 Zn341 2.035 . S
O347 C349 1.258 . S
C348 O342 1.247 . S
C348 O343 1.258 . S
C349 O346 1.247 . S
C349 O347 1.258 . S
C350 O352 1.247 . S
C350 O354 1.258 . S
C351 O358 1.247 . S
C351 O359 1.258 . S
O352 C350 1.247 . S
O352 Zn353 2.028 . S
Zn353 O352 2.028 . S
Zn353 O357 2.035 . S
Zn353 O359 2.035 . S
Zn353 O360 2.028 . S
O354 C350 1.258 . S
O354 Zn355 2.035 . S
Zn355 O354 2.035 . S
Zn355 O356 2.028 . S
Zn355 O358 2.028 . S
Zn355 O361 2.035 . S
O356 Zn355 2.028 . S
O356 C362 1.247 . S
O357 Zn353 2.035 . S
O357 C362 1.258 . S
O358 C351 1.247 . S
O358 Zn355 2.028 . S
O359 C351 1.258 . S
O359 Zn353 2.035 . S
O360 Zn353 2.028 . S
O360 C363 1.247 . S
O361 Zn355 2.035 . S
O361 C363 1.258 . S
C362 O356 1.247 . S
C362 O357 1.258 . S
C363 O360 1.247 . S
C363 O361 1.258 . S
C364 O366 1.247 . S
C364 O368 1.258 . S
C365 O372 1.247 . S
C365 O373 1.258 . S
O366 C364 1.247 . S
O366 Zn367 2.028 . S
Zn367 O366 2.028 . S
Zn367 O371 2.035 . S
Zn367 O373 2.035 . S
Zn367 O374 2.028 . S
O368 C364 1.258 . S
O368 Zn369 2.035 . S
Zn369 O368 2.035 . S
Zn369 O370 2.028 . S
Zn369 O372 2.028 . S
Zn369 O375 2.035 . S
O370 Zn369 2.028 . S
O370 C376 1.247 . S
O371 Zn367 2.035 . S
O371 C376 1.258 . S
O372 C365 1.247 . S
O372 Zn369 2.028 . S
O373 C365 1.258 . S
O373 Zn367 2.035 . S
O374 Zn367 2.028 . S
O374 C377 1.247 . S
O375 Zn369 2.035 . S
O375 C377 1.258 . S
C376 O370 1.247 . S
C376 O371 1.258 . S
C377 O374 1.247 . S
C377 O375 1.258 . S
C378 O380 1.247 . S
C378 O382 1.258 1_545 S
C379 O386 1.247 1_545 S
C379 O387 1.258 . S
O380 C378 1.247 . S
O380 Zn381 2.048 . S
Zn381 O380 2.048 . S
Zn381 O385 2.033 1_554 S
Zn381 O387 2.015 1_554 S
Zn381 O388 2.029 . S
O382 C378 1.258 1_565 S
O382 Zn383 2.008 1_554 S
Zn383 O382 2.008 1_556 S
Zn383 O384 2.030 . S
Zn383 O386 2.055 . S
Zn383 O389 2.033 1_566 S
O384 Zn383 2.030 . S
O384 C390 1.249 1_565 S
O385 Zn381 2.033 1_556 S
O385 C390 1.251 . S
O386 C379 1.247 1_565 S
O386 Zn383 2.055 . S
O387 C379 1.258 . S
O387 Zn381 2.015 1_556 S
O388 Zn381 2.029 . S
O388 C391 1.247 . S
O389 Zn383 2.033 1_544 S
O389 C391 1.258 . S
C390 O384 1.249 1_545 S
C390 O385 1.251 . S
C391 O388 1.247 . S
C391 O389 1.258 . S
C392 O394 1.242 . S
C392 O396 1.262 1_455 S
C393 O400 1.247 . S
C393 O401 1.258 . S
O394 C392 1.242 . S
O394 Zn395 2.030 . S
Zn395 O394 2.030 . S
Zn395 O399 2.008 1_556 S
Zn395 O401 2.033 1_456 S
Zn395 O402 2.055 . S
O396 C392 1.262 1_655 S
O396 Zn397 2.033 1_556 S
Zn397 O396 2.033 1_554 S
Zn397 O398 2.047 . S
Zn397 O400 2.029 . S
Zn397 O403 2.015 1_554 S
O398 Zn397 2.047 . S
O398 C404 1.247 . S
O399 Zn395 2.008 1_554 S
O399 C404 1.258 1_455 S
O400 C393 1.247 . S
O400 Zn397 2.029 . S
O401 C393 1.258 . S
O401 Zn395 2.033 1_654 S
O402 Zn395 2.055 . S
O402 C405 1.247 1_455 S
O403 Zn397 2.015 1_556 S
O403 C405 1.258 . S
C404 O398 1.247 . S
C404 O399 1.258 1_655 S
C405 O402 1.247 1_655 S
C405 O403 1.258 . S
C406 O408 1.247 . S
C406 O410 1.258 . S
C407 O414 1.247 . S
C407 O415 1.258 . S
O408 C406 1.247 . S
O408 Zn409 2.048 . S
Zn409 O408 2.048 . S
Zn409 O413 2.033 1_554 S
Zn409 O415 2.015 1_554 S
Zn409 O416 2.029 . S
O410 C406 1.258 . S
O410 Zn411 2.008 1_554 S
Zn411 O410 2.008 1_556 S
Zn411 O412 2.030 . S
Zn411 O414 2.055 . S
Zn411 O417 2.033 1_556 S
O412 Zn411 2.030 . S
O412 C418 1.247 . S
O413 Zn409 2.033 1_556 S
O413 C418 1.258 . S
O414 C407 1.247 . S
O414 Zn411 2.055 . S
O415 C407 1.258 . S
O415 Zn409 2.015 1_556 S
O416 Zn409 2.029 . S
O416 C419 1.247 . S
O417 Zn411 2.033 1_554 S
O417 C419 1.258 . S
C418 O412 1.247 . S
C418 O413 1.258 . S
C419 O416 1.247 . S
C419 O417 1.258 . S
C420 O422 1.247 1_655 S
C420 O424 1.258 . S
C421 O428 1.247 . S
C421 O429 1.258 1_655 S
O422 C420 1.247 1_455 S
O422 Zn423 2.028 . S
Zn423 O422 2.028 . S
Zn423 O427 2.035 . S
Zn423 O429 2.035 . S
Zn423 O430 2.091 . S
O424 C420 1.258 . S
O424 Zn425 2.035 . S
Zn425 O424 2.035 . S
Zn425 O426 2.028 . S
Zn425 O428 2.028 . S
Zn425 O431 2.035 . S
O426 Zn425 2.028 . S
O426 C432 1.247 1_655 S
O427 Zn423 2.035 . S
O427 C432 1.258 . S
O428 C421 1.247 . S
O428 Zn425 2.028 . S
O429 C421 1.258 1_455 S
O429 Zn423 2.035 . S
O430 Zn423 2.091 . S
O430 C433 1.176 1_455 S
O431 Zn425 2.035 . S
O431 C433 1.258 . S
C432 O426 1.247 1_455 S
C432 O427 1.258 . S
C433 O430 1.176 1_655 S
C433 O431 1.258 . S
C434 O436 1.247 . S
C434 O438 1.258 . S
C435 O442 1.247 . S
C435 O443 1.258 . S
O436 C434 1.247 . S
O436 Zn437 2.028 . S
Zn437 O436 2.028 . S
Zn437 O441 2.035 . S
Zn437 O443 2.035 . S
Zn437 O444 2.028 . S
O438 C434 1.258 . S
O438 Zn439 2.035 . S
Zn439 O438 2.035 . S
Zn439 O440 2.028 . S
Zn439 O442 2.028 . S
Zn439 O445 2.035 . S
O440 Zn439 2.028 . S
O440 C446 1.247 . S
O441 Zn437 2.035 . S
O441 C446 1.258 . S
O442 C435 1.247 . S
O442 Zn439 2.028 . S
O443 C435 1.258 . S
O443 Zn437 2.035 . S
O444 Zn437 2.028 . S
O444 C447 1.247 . S
O445 Zn439 2.035 . S
O445 C447 1.258 . S
C446 O440 1.247 . S
C446 O441 1.258 . S
C447 O444 1.247 . S
C447 O445 1.258 . S
C448 O450 1.247 . S
C448 O452 1.211 1_545 S
C449 O456 1.247 . S
C449 O457 1.258 1_565 S
O450 C448 1.247 . S
O450 Zn451 2.028 . S
Zn451 O450 2.028 . S
Zn451 O455 2.035 . S
Zn451 O457 2.035 . S
Zn451 O458 2.028 . S
O452 C448 1.211 1_565 S
O452 Zn453 2.032 . S
Zn453 O452 2.032 . S
Zn453 O454 2.028 . S
Zn453 O456 2.028 . S
Zn453 O459 2.035 . S
O454 Zn453 2.028 . S
O454 C460 1.247 1_565 S
O455 Zn451 2.035 . S
O455 C460 1.258 . S
O456 C449 1.247 . S
O456 Zn453 2.028 . S
O457 C449 1.258 1_545 S
O457 Zn451 2.035 . S
O458 Zn451 2.028 . S
O458 C461 1.247 . S
O459 Zn453 2.035 . S
O459 C461 1.258 1_565 S
C460 O454 1.247 1_545 S
C460 O455 1.258 . S
C461 O458 1.247 . S
C461 O459 1.258 1_545 S
C462 O464 1.247 . S
C462 O466 1.258 . S
C463 O470 1.247 . S
C463 O471 1.258 . S
O464 C462 1.247 . S
O464 Zn465 2.028 . S
Zn465 O464 2.028 . S
Zn465 O469 2.035 . S
Zn465 O471 2.035 . S
Zn465 O472 2.028 . S
O466 C462 1.258 . S
O466 Zn467 2.035 . S
Zn467 O466 2.035 . S
Zn467 O468 2.028 . S
Zn467 O470 2.028 . S
Zn467 O473 2.035 . S
O468 Zn467 2.028 . S
O468 C474 1.247 . S
O469 Zn465 2.035 . S
O469 C474 1.258 . S
O470 C463 1.247 . S
O470 Zn467 2.028 . S
O471 C463 1.258 . S
O471 Zn465 2.035 . S
O472 Zn465 2.028 . S
O472 C475 1.247 . S
O473 Zn467 2.035 . S
O473 C475 1.258 . S
C474 O468 1.247 . S
C474 O469 1.258 . S
C475 O472 1.247 . S
C475 O473 1.258 . S
C476 O478 1.247 . S
C476 O480 1.258 . S
C477 O484 1.247 . S
C477 O485 1.258 . S
O478 C476 1.247 . S
O478 Zn479 2.028 . S
Zn479 O478 2.028 . S
Zn479 O483 2.035 . S
Zn479 O485 2.035 . S
Zn479 O486 2.028 . S
O480 C476 1.258 . S
O480 Zn481 2.035 . S
Zn481 O480 2.035 . S
Zn481 O482 2.028 . S
Zn481 O484 2.028 . S
Zn481 O487 2.035 . S
O482 Zn481 2.028 . S
O482 C488 1.247 . S
O483 Zn479 2.035 . S
O483 C488 1.258 . S
O484 C477 1.247 . S
O484 Zn481 2.028 . S
O485 C477 1.258 . S
O485 Zn479 2.035 . S
O486 Zn479 2.028 . S
O486 C489 1.247 . S
O487 Zn481 2.035 . S
O487 C489 1.258 . S
C488 O482 1.247 . S
C488 O483 1.258 . S
C489 O486 1.247 . S
C489 O487 1.258 . S
C490 O492 1.247 . S
C490 O494 1.258 . S
C491 O498 1.247 . S
C491 O499 1.258 . S
O492 C490 1.247 . S
O492 Zn493 2.028 . S
Zn493 O492 2.028 . S
Zn493 O497 2.035 . S
Zn493 O499 2.035 . S
Zn493 O500 2.028 . S
O494 C490 1.258 . S
O494 Zn495 2.035 . S
Zn495 O494 2.035 . S
Zn495 O496 2.028 . S
Zn495 O498 2.028 . S
Zn495 O501 2.035 . S
O496 Zn495 2.028 . S
O496 C502 1.247 . S
O497 Zn493 2.035 . S
O497 C502 1.258 . S
O498 C491 1.247 . S
O498 Zn495 2.028 . S
O499 C491 1.258 . S
O499 Zn493 2.035 . S
O500 Zn493 2.028 . S
O500 C503 1.247 . S
O501 Zn495 2.035 . S
O501 C503 1.258 . S
C502 O496 1.247 . S
C502 O497 1.258 . S
C503 O500 1.247 . S
C503 O501 1.258 . S
H504 C512 0.929 . S
H505 C514 0.930 . S
H506 C516 0.930 . S
H507 C519 0.929 . S
H508 C522 0.930 . S
H509 C524 0.960 . S
H510 C524 0.960 . S
H511 C524 0.960 . S
C512 H504 0.929 . S
C512 C513 1.377 . S
C512 C514 1.384 . S
C513 C512 1.377 . S
C513 C519 1.390 . S
C514 H505 0.930 . S
C514 C512 1.384 . S
C514 C515 1.372 . S
C515 C514 1.372 . S
C515 C516 1.400 . S
C515 C520 1.490 . S
C516 H506 0.930 . S
C516 C515 1.400 . S
C516 C519 1.386 . S
H517 C533 0.930 . S
H518 C534 0.931 . S
C519 H507 0.929 . S
C519 C513 1.390 . S
C519 C516 1.386 . S
C520 C515 1.490 . S
C520 C522 1.395 . S
C520 C523 1.403 . S
H521 C527 0.930 . S
C522 H508 0.930 . S
C522 C520 1.395 . S
C522 C525 1.403 . S
C523 C520 1.403 . S
C523 C524 1.524 . S
C523 C527 1.400 . S
C524 H509 0.960 . S
C524 H510 0.960 . S
C524 H511 0.960 . S
C524 C523 1.524 . S
C525 C522 1.403 . S
C525 C526 1.392 . S
C525 C529 1.495 . S
C526 C525 1.392 . S
C526 C527 1.385 . S
C526 C528 1.478 . S
C527 H521 0.930 . S
C527 C523 1.400 . S
C527 C526 1.385 . S
C528 C526 1.478 . S
C528 C530 1.381 . S
C528 C534 1.383 . S
C529 C525 1.495 . S
C529 H535 0.959 . S
C529 H536 0.961 . S
C529 H537 0.960 . S
C530 C528 1.381 . S
C530 C531 1.394 . S
C530 H538 0.930 . S
C531 C530 1.394 . S
C531 C532 1.383 . S
C531 H539 0.929 . S
C532 C531 1.383 . S
C532 C533 1.377 . S
C533 H517 0.930 . S
C533 C532 1.377 . S
C533 C534 1.379 . S
C534 H518 0.931 . S
C534 C528 1.383 . S
C534 C533 1.379 . S
H535 C529 0.959 . S
H536 C529 0.961 . S
H537 C529 0.960 . S
H538 C530 0.930 . S
H539 C531 0.929 . S
H540 C548 0.929 . S
H541 C550 0.930 . S
H542 C552 0.930 . S
H543 C555 0.929 . S
H544 C558 0.930 . S
H545 C560 0.960 . S
H546 C560 0.960 . S
H547 C560 0.960 . S
C548 H540 0.929 . S
C548 C549 1.377 . S
C548 C550 1.384 . S
C549 C548 1.377 . S
C549 C555 1.390 . S
C550 H541 0.930 . S
C550 C548 1.384 . S
C550 C551 1.372 . S
C551 C550 1.372 . S
C551 C552 1.400 . S
C551 C556 1.490 . S
C552 H542 0.930 . S
C552 C551 1.400 . S
C552 C555 1.386 . S
H553 C569 0.930 . S
H554 C570 0.931 . S
C555 H543 0.929 . S
C555 C549 1.390 . S
C555 C552 1.386 . S
C556 C551 1.490 . S
C556 C558 1.395 . S
C556 C559 1.403 . S
H557 C563 0.930 . S
C558 H544 0.930 . S
C558 C556 1.395 . S
C558 C561 1.403 . S
C559 C556 1.403 . S
C559 C560 1.524 . S
C559 C563 1.400 . S
C560 H545 0.960 . S
C560 H546 0.960 . S
C560 H547 0.960 . S
C560 C559 1.524 . S
C561 C558 1.403 . S
C561 C562 1.392 . S
C561 C565 1.495 . S
C562 C561 1.392 . S
C562 C563 1.385 . S
C562 C564 1.478 . S
C563 H557 0.930 . S
C563 C559 1.400 . S
C563 C562 1.385 . S
C564 C562 1.478 . S
C564 C566 1.381 . S
C564 C570 1.383 . S
C565 C561 1.495 . S
C565 H571 0.959 . S
C565 H572 0.961 . S
C565 H573 0.960 . S
C566 C564 1.381 . S
C566 C567 1.394 . S
C566 H574 0.930 . S
C567 C566 1.394 . S
C567 C568 1.383 . S
C567 H575 0.929 . S
C568 C567 1.383 . S
C568 C569 1.377 . S
C569 H553 0.930 . S
C569 C568 1.377 . S
C569 C570 1.379 . S
C570 H554 0.931 . S
C570 C564 1.383 . S
C570 C569 1.379 . S
H571 C565 0.959 . S
H572 C565 0.961 . S
H573 C565 0.960 . S
H574 C566 0.930 . S
H575 C567 0.929 . S
H576 C584 0.929 . S
H577 C586 0.930 . S
H578 C588 0.930 . S
H579 C591 0.929 . S
H580 C594 0.930 . S
H581 C596 0.960 . S
H582 C596 0.960 . S
H583 C596 0.960 . S
C584 H576 0.929 . S
C584 C585 1.377 . S
C584 C586 1.384 . S
C585 C584 1.377 . S
C585 C591 1.390 . S
C586 H577 0.930 . S
C586 C584 1.384 . S
C586 C587 1.372 . S
C587 C586 1.372 . S
C587 C588 1.400 . S
C587 C592 1.490 . S
C588 H578 0.930 . S
C588 C587 1.400 . S
C588 C591 1.386 . S
H589 C605 0.930 . S
H590 C606 0.931 . S
C591 H579 0.929 . S
C591 C585 1.390 . S
C591 C588 1.386 . S
C592 C587 1.490 . S
C592 C594 1.395 . S
C592 C595 1.403 . S
H593 C599 0.930 . S
C594 H580 0.930 . S
C594 C592 1.395 . S
C594 C597 1.403 . S
C595 C592 1.403 . S
C595 C596 1.524 . S
C595 C599 1.400 . S
C596 H581 0.960 . S
C596 H582 0.960 . S
C596 H583 0.960 . S
C596 C595 1.524 . S
C597 C594 1.403 . S
C597 C598 1.392 . S
C597 C601 1.495 . S
C598 C597 1.392 . S
C598 C599 1.385 . S
C598 C600 1.478 . S
C599 H593 0.930 . S
C599 C595 1.400 . S
C599 C598 1.385 . S
C600 C598 1.478 . S
C600 C602 1.381 . S
C600 C606 1.383 . S
C601 C597 1.495 . S
C601 H607 0.959 . S
C601 H608 0.961 . S
C601 H609 0.960 . S
C602 C600 1.381 . S
C602 C603 1.394 . S
C602 H610 0.930 . S
C603 C602 1.394 . S
C603 C604 1.383 . S
C603 H611 0.929 . S
C604 C603 1.383 . S
C604 C605 1.377 . S
C605 H589 0.930 . S
C605 C604 1.377 . S
C605 C606 1.379 . S
C606 H590 0.931 . S
C606 C600 1.383 . S
C606 C605 1.379 . S
H607 C601 0.959 . S
H608 C601 0.961 . S
H609 C601 0.960 . S
H610 C602 0.930 . S
H611 C603 0.929 . S
H612 C620 0.929 . S
H613 C622 0.918 1_554 S
H614 C624 0.914 1_554 S
H615 C627 0.929 . S
H616 C630 0.930 . S
H617 C632 0.960 . S
H618 C632 0.960 . S
H619 C632 0.960 . S
C620 H612 0.929 . S
C620 C621 1.377 . S
C620 C622 1.384 . S
C621 C620 1.377 . S
C621 C627 1.390 . S
C622 H613 0.918 1_556 S
C622 C620 1.384 . S
C622 C623 1.372 1_556 S
C623 C622 1.372 1_554 S
C623 C624 1.400 1_554 S
C623 C628 1.490 . S
C624 H614 0.914 1_556 S
C624 C623 1.400 1_556 S
C624 C627 1.386 . S
H625 C641 0.930 . S
H626 C642 0.931 . S
C627 H615 0.929 . S
C627 C621 1.390 . S
C627 C624 1.386 . S
C628 C623 1.490 . S
C628 C630 1.395 . S
C628 C631 1.403 . S
H629 C635 0.930 . S
C630 H616 0.930 . S
C630 C628 1.395 . S
C630 C633 1.403 . S
C631 C628 1.403 . S
C631 C632 1.524 . S
C631 C635 1.400 . S
C632 H617 0.960 . S
C632 H618 0.960 . S
C632 H619 0.960 . S
C632 C631 1.524 . S
C633 C630 1.403 . S
C633 C634 1.392 . S
C633 C637 1.495 . S
C634 C633 1.392 . S
C634 C635 1.385 . S
C634 C636 1.478 . S
C635 H629 0.930 . S
C635 C631 1.400 . S
C635 C634 1.385 . S
C636 C634 1.478 . S
C636 C638 1.381 . S
C636 C642 1.383 . S
C637 C633 1.495 . S
C637 H643 0.959 . S
C637 H644 0.961 . S
C637 H645 0.960 . S
C638 C636 1.381 . S
C638 C639 1.394 . S
C638 H646 0.930 . S
C639 C638 1.394 . S
C639 C640 1.383 . S
C639 H647 0.929 . S
C640 C639 1.383 . S
C640 C641 1.377 . S
C641 H625 0.930 . S
C641 C640 1.377 . S
C641 C642 1.379 . S
C642 H626 0.931 . S
C642 C636 1.383 . S
C642 C641 1.379 . S
H643 C637 0.959 . S
H644 C637 0.961 . S
H645 C637 0.960 . S
H646 C638 0.930 . S
H647 C639 0.929 . S
H648 C656 0.929 . S
H649 C658 0.930 . S
H650 C660 0.930 . S
H651 C663 0.929 . S
H652 C666 0.930 . S
H653 C668 0.960 . S
H654 C668 0.960 . S
H655 C668 0.960 . S
C656 H648 0.929 . S
C656 C657 1.377 . S
C656 C658 1.384 . S
C657 C656 1.377 . S
C657 C663 1.390 . S
C658 H649 0.930 . S
C658 C656 1.384 . S
C658 C659 1.372 . S
C659 C658 1.372 . S
C659 C660 1.400 . S
C659 C664 1.490 . S
C660 H650 0.930 . S
C660 C659 1.400 . S
C660 C663 1.386 . S
H661 C677 0.930 . S
H662 C678 0.931 . S
C663 H651 0.929 . S
C663 C657 1.390 . S
C663 C660 1.386 . S
C664 C659 1.490 . S
C664 C666 1.395 . S
C664 C667 1.403 . S
H665 C671 0.930 . S
C666 H652 0.930 . S
C666 C664 1.395 . S
C666 C669 1.403 . S
C667 C664 1.403 . S
C667 C668 1.524 . S
C667 C671 1.400 . S
C668 H653 0.960 . S
C668 H654 0.960 . S
C668 H655 0.960 . S
C668 C667 1.524 . S
C669 C666 1.403 . S
C669 C670 1.392 . S
C669 C673 1.495 . S
C670 C669 1.392 . S
C670 C671 1.385 . S
C670 C672 1.478 . S
C671 H665 0.930 . S
C671 C667 1.400 . S
C671 C670 1.385 . S
C672 C670 1.478 . S
C672 C674 1.381 1_554 S
C672 C678 1.383 1_554 S
C673 C669 1.495 . S
C673 H679 0.959 . S
C673 H680 0.961 . S
C673 H681 0.960 . S
C674 C672 1.381 1_556 S
C674 C675 1.394 . S
C674 H682 0.930 1_556 S
C675 C674 1.394 . S
C675 C676 1.383 . S
C675 H683 0.929 . S
C676 C675 1.383 . S
C676 C677 1.377 . S
C677 H661 0.930 . S
C677 C676 1.377 . S
C677 C678 1.379 . S
C678 H662 0.931 . S
C678 C672 1.383 1_556 S
C678 C677 1.379 . S
H679 C673 0.959 . S
H680 C673 0.961 . S
H681 C673 0.960 . S
H682 C674 0.930 1_554 S
H683 C675 0.929 . S
H684 C692 0.929 . S
H685 C694 0.930 . S
H686 C696 0.930 . S
H687 C699 0.929 . S
H688 C702 0.930 . S
H689 C704 0.960 . S
H690 C704 0.960 . S
H691 C704 0.960 . S
C692 H684 0.929 . S
C692 C693 1.377 . S
C692 C694 1.384 . S
C693 C692 1.377 . S
C693 C699 1.390 . S
C694 H685 0.930 . S
C694 C692 1.384 . S
C694 C695 1.372 . S
C695 C694 1.372 . S
C695 C696 1.400 . S
C695 C700 1.490 . S
C696 H686 0.930 . S
C696 C695 1.400 . S
C696 C699 1.386 . S
H697 C713 0.930 . S
H698 C714 0.936 . S
C699 H687 0.929 . S
C699 C693 1.390 . S
C699 C696 1.386 . S
C700 C695 1.490 . S
C700 C702 1.395 . S
C700 C703 1.403 . S
H701 C707 0.930 . S
C702 H688 0.930 . S
C702 C700 1.395 . S
C702 C705 1.403 . S
C703 C700 1.403 . S
C703 C704 1.524 . S
C703 C707 1.400 . S
C704 H689 0.960 . S
C704 H690 0.960 . S
C704 H691 0.960 . S
C704 C703 1.524 . S
C705 C702 1.403 . S
C705 C706 1.392 . S
C705 C709 1.495 . S
C706 C705 1.392 . S
C706 C707 1.385 . S
C706 C708 1.478 . S
C707 H701 0.930 . S
C707 C703 1.400 . S
C707 C706 1.385 . S
C708 C706 1.478 . S
C708 C710 1.381 1_554 S
C708 C714 1.383 1_554 S
C709 C705 1.495 . S
C709 H715 0.959 . S
C709 H716 0.961 . S
C709 H717 0.960 . S
C710 C708 1.381 1_556 S
C710 C711 1.394 . S
C710 H718 0.930 1_556 S
C711 C710 1.394 . S
C711 C712 1.383 . S
C711 H719 0.929 . S
C712 C711 1.383 . S
C712 C713 1.377 . S
C713 H697 0.930 . S
C713 C712 1.377 . S
C713 C714 1.379 . S
C714 H698 0.936 . S
C714 C708 1.383 1_556 S
C714 C713 1.379 . S
H715 C709 0.959 . S
H716 C709 0.961 . S
H717 C709 0.960 . S
H718 C710 0.930 1_554 S
H719 C711 0.929 . S
H720 C728 0.929 . S
H721 C730 0.930 . S
H722 C732 0.930 . S
H723 C735 0.929 . S
H724 C738 0.930 . S
H725 C740 0.960 . S
H726 C740 0.960 . S
H727 C740 0.960 . S
C728 H720 0.929 . S
C728 C729 1.377 . S
C728 C730 1.384 . S
C729 C728 1.377 . S
C729 C735 1.390 . S
C730 H721 0.930 . S
C730 C728 1.384 . S
C730 C731 1.372 . S
C731 C730 1.372 . S
C731 C732 1.400 . S
C731 C736 1.490 . S
C732 H722 0.930 . S
C732 C731 1.400 . S
C732 C735 1.386 . S
H733 C749 0.930 . S
H734 C750 0.931 . S
C735 H723 0.929 . S
C735 C729 1.390 . S
C735 C732 1.386 . S
C736 C731 1.490 . S
C736 C738 1.395 . S
C736 C739 1.403 . S
H737 C743 0.930 . S
C738 H724 0.930 . S
C738 C736 1.395 . S
C738 C741 1.403 . S
C739 C736 1.403 . S
C739 C740 1.524 . S
C739 C743 1.400 . S
C740 H725 0.960 . S
C740 H726 0.960 . S
C740 H727 0.960 . S
C740 C739 1.524 . S
C741 C738 1.403 . S
C741 C742 1.392 . S
C741 C745 1.495 . S
C742 C741 1.392 . S
C742 C743 1.385 . S
C742 C744 1.478 . S
C743 H737 0.930 . S
C743 C739 1.400 . S
C743 C742 1.385 . S
C744 C742 1.478 . S
C744 C746 1.381 . S
C744 C750 1.383 . S
C745 C741 1.495 . S
C745 H751 0.959 . S
C745 H752 0.961 . S
C745 H753 0.960 . S
C746 C744 1.381 . S
C746 C747 1.394 . S
C746 H754 0.930 . S
C747 C746 1.394 . S
C747 C748 1.383 . S
C747 H755 0.929 . S
C748 C747 1.383 . S
C748 C749 1.377 . S
C749 H733 0.930 . S
C749 C748 1.377 . S
C749 C750 1.379 . S
C750 H734 0.931 . S
C750 C744 1.383 . S
C750 C749 1.379 . S
H751 C745 0.959 . S
H752 C745 0.961 . S
H753 C745 0.960 . S
H754 C746 0.930 . S
H755 C747 0.929 . S
H756 C764 0.929 . S
H757 C766 0.930 . S
H758 C768 0.930 . S
H759 C771 0.929 . S
H760 C774 0.930 . S
H761 C776 0.960 . S
H762 C776 0.960 . S
H763 C776 0.960 . S
C764 H756 0.929 . S
C764 C765 1.377 . S
C764 C766 1.384 . S
C765 C764 1.377 . S
C765 C771 1.390 . S
C766 H757 0.930 . S
C766 C764 1.384 . S
C766 C767 1.372 . S
C767 C766 1.372 . S
C767 C768 1.400 . S
C767 C772 1.490 . S
C768 H758 0.930 . S
C768 C767 1.400 . S
C768 C771 1.386 . S
H769 C785 0.930 . S
H770 C786 0.931 . S
C771 H759 0.929 . S
C771 C765 1.390 . S
C771 C768 1.386 . S
C772 C767 1.490 . S
C772 C774 1.395 . S
C772 C775 1.403 . S
H773 C779 0.930 . S
C774 H760 0.930 . S
C774 C772 1.395 . S
C774 C777 1.403 . S
C775 C772 1.403 . S
C775 C776 1.524 . S
C775 C779 1.400 . S
C776 H761 0.960 . S
C776 H762 0.960 . S
C776 H763 0.960 . S
C776 C775 1.524 . S
C777 C774 1.403 . S
C777 C778 1.392 . S
C777 C781 1.495 . S
C778 C777 1.392 . S
C778 C779 1.385 . S
C778 C780 1.478 . S
C779 H773 0.930 . S
C779 C775 1.400 . S
C779 C778 1.385 . S
C780 C778 1.478 . S
C780 C782 1.381 . S
C780 C786 1.383 . S
C781 C777 1.495 . S
C781 H787 0.959 . S
C781 H788 0.961 . S
C781 H789 0.960 . S
C782 C780 1.381 . S
C782 C783 1.394 . S
C782 H790 0.930 . S
C783 C782 1.394 . S
C783 C784 1.383 . S
C783 H791 0.929 . S
C784 C783 1.383 . S
C784 C785 1.377 . S
C785 H769 0.930 . S
C785 C784 1.377 . S
C785 C786 1.379 . S
C786 H770 0.931 . S
C786 C780 1.383 . S
C786 C785 1.379 . S
H787 C781 0.959 . S
H788 C781 0.961 . S
H789 C781 0.960 . S
H790 C782 0.930 . S
H791 C783 0.929 . S
H792 C800 0.929 . S
H793 C802 0.930 . S
H794 C804 0.930 . S
H795 C807 0.929 . S
H796 C810 0.930 . S
H797 C812 0.960 . S
H798 C812 0.960 . S
H799 C812 0.960 . S
C800 H792 0.929 . S
C800 C801 1.377 . S
C800 C802 1.384 . S
C801 C800 1.377 . S
C801 C807 1.390 . S
C802 H793 0.930 . S
C802 C800 1.384 . S
C802 C803 1.372 . S
C803 C802 1.372 . S
C803 C804 1.400 . S
C803 C808 1.490 . S
C804 H794 0.930 . S
C804 C803 1.400 . S
C804 C807 1.386 . S
H805 C821 0.930 . S
H806 C822 0.931 . S
C807 H795 0.929 . S
C807 C801 1.390 . S
C807 C804 1.386 . S
C808 C803 1.490 . S
C808 C810 1.395 . S
C808 C811 1.403 . S
H809 C815 0.930 . S
C810 H796 0.930 . S
C810 C808 1.395 . S
C810 C813 1.403 . S
C811 C808 1.403 . S
C811 C812 1.524 . S
C811 C815 1.400 . S
C812 H797 0.960 . S
C812 H798 0.960 . S
C812 H799 0.960 . S
C812 C811 1.524 . S
C813 C810 1.403 . S
C813 C814 1.392 . S
C813 C817 1.495 . S
C814 C813 1.392 . S
C814 C815 1.385 . S
C814 C816 1.478 . S
C815 H809 0.930 . S
C815 C811 1.400 . S
C815 C814 1.385 . S
C816 C814 1.478 . S
C816 C818 1.381 . S
C816 C822 1.383 . S
C817 C813 1.495 . S
C817 H823 0.959 . S
C817 H824 0.961 . S
C817 H825 0.960 . S
C818 C816 1.381 . S
C818 C819 1.394 . S
C818 H826 0.930 . S
C819 C818 1.394 . S
C819 C820 1.383 . S
C819 H827 0.929 . S
C820 C819 1.383 . S
C820 C821 1.377 . S
C821 H805 0.930 . S
C821 C820 1.377 . S
C821 C822 1.379 . S
C822 H806 0.931 . S
C822 C816 1.383 . S
C822 C821 1.379 . S
H823 C817 0.959 . S
H824 C817 0.961 . S
H825 C817 0.960 . S
H826 C818 0.930 . S
H827 C819 0.929 . S
H828 C836 0.929 . S
H829 C838 0.930 . S
H830 C840 0.930 . S
H831 C843 0.929 . S
H832 C846 0.930 . S
H833 C848 0.960 . S
H834 C848 0.960 . S
H835 C848 0.960 . S
C836 H828 0.929 . S
C836 C837 1.377 . S
C836 C838 1.384 . S
C837 C836 1.377 . S
C837 C843 1.390 . S
C838 H829 0.930 . S
C838 C836 1.384 . S
C838 C839 1.372 . S
C839 C838 1.372 . S
C839 C840 1.400 . S
C839 C844 1.490 . S
C840 H830 0.930 . S
C840 C839 1.400 . S
C840 C843 1.386 . S
H841 C857 0.930 . S
H842 C858 0.931 1_556 S
C843 H831 0.929 . S
C843 C837 1.390 . S
C843 C840 1.386 . S
C844 C839 1.490 . S
C844 C846 1.395 . S
C844 C847 1.403 . S
H845 C851 0.930 . S
C846 H832 0.930 . S
C846 C844 1.395 . S
C846 C849 1.403 . S
C847 C844 1.403 . S
C847 C848 1.524 . S
C847 C851 1.400 . S
C848 H833 0.960 . S
C848 H834 0.960 . S
C848 H835 0.960 . S
C848 C847 1.524 . S
C849 C846 1.403 . S
C849 C850 1.392 . S
C849 C853 1.495 . S
C850 C849 1.392 . S
C850 C851 1.385 . S
C850 C852 1.478 . S
C851 H845 0.930 . S
C851 C847 1.400 . S
C851 C850 1.385 . S
C852 C850 1.478 . S
C852 C854 1.381 1_556 S
C852 C858 1.383 1_556 S
C853 C849 1.495 . S
C853 H859 0.959 . S
C853 H860 0.961 . S
C853 H861 0.960 . S
C854 C852 1.381 1_554 S
C854 C855 1.394 . S
C854 H862 0.930 . S
C855 C854 1.394 . S
C855 C856 1.383 . S
C855 H863 0.929 . S
C856 C855 1.383 . S
C856 C857 1.377 . S
C857 H841 0.930 . S
C857 C856 1.377 . S
C857 C858 1.379 . S
C858 H842 0.931 1_554 S
C858 C852 1.383 1_554 S
C858 C857 1.379 . S
H859 C853 0.959 . S
H860 C853 0.961 . S
H861 C853 0.960 . S
H862 C854 0.930 . S
H863 C855 0.929 . S
H864 C872 0.929 . S
H865 C874 0.930 1_556 S
H866 C876 0.942 . S
H867 C879 0.929 . S
H868 C882 0.930 . S
H869 C884 0.960 . S
H870 C884 0.960 . S
H871 C884 0.960 . S
C872 H864 0.929 . S
C872 C873 1.377 . S
C872 C874 1.384 . S
C873 C872 1.377 . S
C873 C879 1.390 . S
C874 H865 0.930 1_554 S
C874 C872 1.384 . S
C874 C875 1.372 1_554 S
C875 C874 1.372 1_556 S
C875 C876 1.400 1_556 S
C875 C880 1.490 . S
C876 H866 0.942 . S
C876 C875 1.400 1_554 S
C876 C879 1.386 . S
H877 C893 0.930 . S
H878 C894 0.931 . S
C879 H867 0.929 . S
C879 C873 1.390 . S
C879 C876 1.386 . S
C880 C875 1.490 . S
C880 C882 1.395 . S
C880 C883 1.403 . S
H881 C887 0.930 . S
C882 H868 0.930 . S
C882 C880 1.395 . S
C882 C885 1.403 . S
C883 C880 1.403 . S
C883 C884 1.524 . S
C883 C887 1.400 . S
C884 H869 0.960 . S
C884 H870 0.960 . S
C884 H871 0.960 . S
C884 C883 1.524 . S
C885 C882 1.403 . S
C885 C886 1.392 . S
C885 C889 1.495 . S
C886 C885 1.392 . S
C886 C887 1.385 . S
C886 C888 1.478 . S
C887 H881 0.930 . S
C887 C883 1.400 . S
C887 C886 1.385 . S
C888 C886 1.478 . S
C888 C890 1.381 . S
C888 C894 1.383 . S
C889 C885 1.495 . S
C889 H895 0.959 . S
C889 H896 0.961 . S
C889 H897 0.960 . S
C890 C888 1.381 . S
C890 C891 1.394 . S
C890 H898 0.930 . S
C891 C890 1.394 . S
C891 C892 1.383 . S
C891 H899 0.929 . S
C892 C891 1.383 . S
C892 C893 1.377 . S
C893 H877 0.930 . S
C893 C892 1.377 . S
C893 C894 1.379 . S
C894 H878 0.931 . S
C894 C888 1.383 . S
C894 C893 1.379 . S
H895 C889 0.959 . S
H896 C889 0.961 . S
H897 C889 0.960 . S
H898 C890 0.930 . S
H899 C891 0.929 . S
H900 C908 0.929 . S
H901 C910 0.930 . S
H902 C912 0.930 . S
H903 C915 0.929 . S
H904 C918 0.930 . S
H905 C920 0.960 . S
H906 C920 0.960 . S
H907 C920 0.960 . S
C908 H900 0.929 . S
C908 C909 1.377 . S
C908 C910 1.384 . S
C909 C908 1.377 . S
C909 C915 1.390 . S
C910 H901 0.930 . S
C910 C908 1.384 . S
C910 C911 1.372 . S
C911 C910 1.372 . S
C911 C912 1.400 . S
C911 C916 1.490 . S
C912 H902 0.930 . S
C912 C911 1.400 . S
C912 C915 1.386 . S
H913 C929 0.930 . S
H914 C930 0.931 . S
C915 H903 0.929 . S
C915 C909 1.390 . S
C915 C912 1.386 . S
C916 C911 1.490 . S
C916 C918 1.395 . S
C916 C919 1.403 . S
H917 C923 0.930 . S
C918 H904 0.930 . S
C918 C916 1.395 . S
C918 C921 1.403 . S
C919 C916 1.403 . S
C919 C920 1.524 . S
C919 C923 1.400 . S
C920 H905 0.960 . S
C920 H906 0.960 . S
C920 H907 0.960 . S
C920 C919 1.524 . S
C921 C918 1.403 . S
C921 C922 1.392 . S
C921 C925 1.495 . S
C922 C921 1.392 . S
C922 C923 1.385 . S
C922 C924 1.478 . S
C923 H917 0.930 . S
C923 C919 1.400 . S
C923 C922 1.385 . S
C924 C922 1.478 . S
C924 C926 1.381 1_556 S
C924 C930 1.383 1_556 S
C925 C921 1.495 . S
C925 H931 0.959 . S
C925 H932 0.961 . S
C925 H933 0.960 . S
C926 C924 1.381 1_554 S
C926 C927 1.394 . S
C926 H934 0.930 1_554 S
C927 C926 1.394 . S
C927 C928 1.383 . S
C927 H935 0.929 . S
C928 C927 1.383 . S
C928 C929 1.377 . S
C929 H913 0.930 . S
C929 C928 1.377 . S
C929 C930 1.379 . S
C930 H914 0.931 . S
C930 C924 1.383 1_554 S
C930 C929 1.379 . S
H931 C925 0.959 . S
H932 C925 0.961 . S
H933 C925 0.960 . S
H934 C926 0.930 1_556 S
H935 C927 0.929 . S
H936 C944 0.929 . S
H937 C946 0.930 . S
H938 C948 0.930 . S
H939 C951 0.929 . S
H940 C954 0.930 . S
H941 C956 0.960 . S
H942 C956 0.960 1_655 S
H943 C956 0.960 . S
C944 H936 0.929 . S
C944 C945 1.377 . S
C944 C946 1.384 . S
C945 C944 1.377 . S
C945 C951 1.390 1_655 S
C946 H937 0.930 . S
C946 C944 1.384 . S
C946 C947 1.372 . S
C947 C946 1.372 . S
C947 C948 1.400 1_655 S
C947 C952 1.490 . S
C948 H938 0.930 . S
C948 C947 1.400 1_455 S
C948 C951 1.386 . S
H949 C965 0.930 . S
H950 C966 0.931 . S
C951 H939 0.929 . S
C951 C945 1.390 1_455 S
C951 C948 1.386 . S
C952 C947 1.490 . S
C952 C954 1.395 . S
C952 C955 1.399 1_655 S
H953 C959 0.930 . S
C954 H940 0.930 . S
C954 C952 1.395 . S
C954 C957 1.403 . S
C955 C952 1.399 1_455 S
C955 C956 1.527 . S
C955 C959 1.400 . S
C956 H941 0.960 . S
C956 H942 0.960 1_455 S
C956 H943 0.960 . S
C956 C955 1.527 . S
C957 C954 1.403 . S
C957 C958 1.462 . S
C957 C961 1.495 . S
C958 C957 1.462 . S
C958 C959 1.327 1_655 S
C958 C960 1.471 1_655 S
C959 H953 0.930 . S
C959 C955 1.400 . S
C959 C958 1.327 1_455 S
C960 C958 1.471 1_455 S
C960 C962 1.331 1_455 S
C960 C966 1.443 . S
C961 C957 1.495 . S
C961 H967 0.959 . S
C961 H968 0.942 1_655 S
C961 H969 0.960 . S
C962 C960 1.331 1_655 S
C962 C963 1.394 . S
C962 H970 0.930 . S
C963 C962 1.394 . S
C963 C964 1.383 1_655 S
C963 H971 0.929 . S
C964 C963 1.383 1_455 S
C964 C965 1.377 . S
C965 H949 0.930 . S
C965 C964 1.377 . S
C965 C966 1.379 . S
C966 H950 0.931 . S
C966 C960 1.443 . S
C966 C965 1.379 . S
H967 C961 0.959 . S
H968 C961 0.942 1_455 S
H969 C961 0.960 . S
H970 C962 0.930 . S
H971 C963 0.929 . S
H972 C980 0.929 . S
H973 C982 0.930 . S
H974 C984 0.930 . S
H975 C987 0.929 . S
H976 C990 0.930 . S
H977 C992 0.960 . S
H978 C992 0.960 . S
H979 C992 0.960 . S
C980 H972 0.929 . S
C980 C981 1.377 . S
C980 C982 1.384 . S
C981 C980 1.377 . S
C981 C987 1.390 . S
C982 H973 0.930 . S
C982 C980 1.384 . S
C982 C983 1.372 . S
C983 C982 1.372 . S
C983 C984 1.400 . S
C983 C988 1.490 . S
C984 H974 0.930 . S
C984 C983 1.400 . S
C984 C987 1.386 . S
H985 C1001 0.930 . S
H986 C1002 0.931 . S
C987 H975 0.929 . S
C987 C981 1.390 . S
C987 C984 1.386 . S
C988 C983 1.490 . S
C988 C990 1.395 . S
C988 C991 1.403 . S
H989 C995 0.930 . S
C990 H976 0.930 . S
C990 C988 1.395 . S
C990 C993 1.403 . S
C991 C988 1.403 . S
C991 C992 1.524 . S
C991 C995 1.400 . S
C992 H977 0.960 . S
C992 H978 0.960 . S
C992 H979 0.960 . S
C992 C991 1.524 . S
C993 C990 1.403 . S
C993 C994 1.392 . S
C993 C997 1.495 . S
C994 C993 1.392 . S
C994 C995 1.385 . S
C994 C996 1.478 . S
C995 H989 0.930 . S
C995 C991 1.400 . S
C995 C994 1.385 . S
C996 C994 1.478 . S
C996 C998 1.381 . S
C996 C1002 1.383 . S
C997 C993 1.495 . S
C997 H1003 0.959 . S
C997 H1004 0.961 . S
C997 H1005 0.960 . S
C998 C996 1.381 . S
C998 C999 1.394 . S
C998 H1006 0.930 . S
C999 C998 1.394 . S
C999 C1000 1.383 . S
C999 H1007 0.929 . S
C1000 C999 1.383 . S
C1000 C1001 1.377 . S
C1001 H985 0.930 . S
C1001 C1000 1.377 . S
C1001 C1002 1.379 . S
C1002 H986 0.931 . S
C1002 C996 1.383 . S
C1002 C1001 1.379 . S
H1003 C997 0.959 . S
H1004 C997 0.961 . S
H1005 C997 0.960 . S
H1006 C998 0.930 . S
H1007 C999 0.929 . S
H1008 C1016 0.929 . S
H1009 C1018 0.930 . S
H1010 C1020 0.930 . S
H1011 C1023 0.929 . S
H1012 C1026 0.930 . S
H1013 C1028 0.960 . S
H1014 C1028 0.960 . S
H1015 C1028 0.960 . S
C1016 H1008 0.929 . S
C1016 C1017 1.377 . S
C1016 C1018 1.384 . S
C1017 C1016 1.377 . S
C1017 C1023 1.390 . S
C1018 H1009 0.930 . S
C1018 C1016 1.384 . S
C1018 C1019 1.372 . S
C1019 C1018 1.372 . S
C1019 C1020 1.400 . S
C1019 C1024 1.490 . S
C1020 H1010 0.930 . S
C1020 C1019 1.400 . S
C1020 C1023 1.386 . S
H1021 C1037 0.930 . S
H1022 C1038 0.931 . S
C1023 H1011 0.929 . S
C1023 C1017 1.390 . S
C1023 C1020 1.386 . S
C1024 C1019 1.490 . S
C1024 C1026 1.395 1_545 S
C1024 C1027 1.403 . S
H1025 C1031 0.930 . S
C1026 H1012 0.930 . S
C1026 C1024 1.395 1_565 S
C1026 C1029 1.403 . S
C1027 C1024 1.403 . S
C1027 C1028 1.524 . S
C1027 C1031 1.400 . S
C1028 H1013 0.960 . S
C1028 H1014 0.960 . S
C1028 H1015 0.960 . S
C1028 C1027 1.524 . S
C1029 C1026 1.403 . S
C1029 C1030 1.392 . S
C1029 C1033 1.495 . S
C1030 C1029 1.392 . S
C1030 C1031 1.385 1_565 S
C1030 C1032 1.478 . S
C1031 H1025 0.930 . S
C1031 C1027 1.400 . S
C1031 C1030 1.385 1_545 S
C1032 C1030 1.478 . S
C1032 C1034 1.381 . S
C1032 C1038 1.383 . S
C1033 C1029 1.495 . S
C1033 H1039 0.959 . S
C1033 H1040 0.961 . S
C1033 H1041 0.960 . S
C1034 C1032 1.381 . S
C1034 C1035 1.394 . S
C1034 H1042 0.906 . S
C1035 C1034 1.394 . S
C1035 C1036 1.383 . S
C1035 H1043 0.929 . S
C1036 C1035 1.383 . S
C1036 C1037 1.377 . S
C1037 H1021 0.930 . S
C1037 C1036 1.377 . S
C1037 C1038 1.379 . S
C1038 H1022 0.931 . S
C1038 C1032 1.383 . S
C1038 C1037 1.379 . S
H1039 C1033 0.959 . S
H1040 C1033 0.961 . S
H1041 C1033 0.960 . S
H1042 C1034 0.906 . S
H1043 C1035 0.929 . S
H1044 C1052 0.949 . S
H1045 C1054 0.930 . S
H1046 C1056 0.930 . S
H1047 C1059 0.929 . S
H1048 C1062 0.930 . S
H1049 C1064 0.960 . S
H1050 C1064 0.960 . S
H1051 C1064 0.960 . S
C1052 H1044 0.949 . S
C1052 C1053 1.356 1_565 S
C1052 C1054 1.387 . S
C1053 C1052 1.356 1_545 S
C1053 C1059 1.390 . S
C1054 H1045 0.930 . S
C1054 C1052 1.387 . S
C1054 C1055 1.372 1_565 S
C1055 C1054 1.372 1_545 S
C1055 C1056 1.400 . S
C1055 C1060 1.484 1_545 S
C1056 H1046 0.930 . S
C1056 C1055 1.400 . S
C1056 C1059 1.386 . S
H1057 C1073 0.930 . S
H1058 C1074 0.931 . S
C1059 H1047 0.929 . S
C1059 C1053 1.390 . S
C1059 C1056 1.386 . S
C1060 C1055 1.484 1_565 S
C1060 C1062 1.449 . S
C1060 C1063 1.358 1_565 S
H1061 C1067 0.930 . S
C1062 H1048 0.930 . S
C1062 C1060 1.449 . S
C1062 C1065 1.403 . S
C1063 C1060 1.358 1_545 S
C1063 C1064 1.524 . S
C1063 C1067 1.400 . S
C1064 H1049 0.960 . S
C1064 H1050 0.960 . S
C1064 H1051 0.960 . S
C1064 C1063 1.524 . S
C1065 C1062 1.403 . S
C1065 C1066 1.392 . S
C1065 C1069 1.495 . S
C1066 C1065 1.392 . S
C1066 C1067 1.385 1_565 S
C1066 C1068 1.478 . S
C1067 H1061 0.930 . S
C1067 C1063 1.400 . S
C1067 C1066 1.385 1_545 S
C1068 C1066 1.478 . S
C1068 C1070 1.381 . S
C1068 C1074 1.383 . S
C1069 C1065 1.495 . S
C1069 H1075 0.959 . S
C1069 H1076 0.961 . S
C1069 H1077 0.960 . S
C1070 C1068 1.381 . S
C1070 C1071 1.394 . S
C1070 H1078 0.930 . S
C1071 C1070 1.394 . S
C1071 C1072 1.383 . S
C1071 H1079 0.929 . S
C1072 C1071 1.383 . S
C1072 C1073 1.377 . S
C1073 H1057 0.930 . S
C1073 C1072 1.377 . S
C1073 C1074 1.379 . S
C1074 H1058 0.931 . S
C1074 C1068 1.383 . S
C1074 C1073 1.379 . S
H1075 C1069 0.959 . S
H1076 C1069 0.961 . S
H1077 C1069 0.960 . S
H1078 C1070 0.930 . S
H1079 C1071 0.929 . S
H1080 C1088 0.929 . S
H1081 C1090 0.930 . S
H1082 C1092 0.930 . S
H1083 C1095 0.929 . S
H1084 C1098 0.930 . S
H1085 C1100 0.960 . S
H1086 C1100 0.960 . S
H1087 C1100 0.960 . S
C1088 H1080 0.929 . S
C1088 C1089 1.377 . S
C1088 C1090 1.384 . S
C1089 C1088 1.377 . S
C1089 C1095 1.390 1_655 S
C1090 H1081 0.930 . S
C1090 C1088 1.384 . S
C1090 C1091 1.372 . S
C1091 C1090 1.372 . S
C1091 C1092 1.400 1_655 S
C1091 C1096 1.491 . S
C1092 H1082 0.930 . S
C1092 C1091 1.400 1_455 S
C1092 C1095 1.386 . S
H1093 C1109 0.930 . S
H1094 C1110 0.931 . S
C1095 H1083 0.929 . S
C1095 C1089 1.390 1_455 S
C1095 C1092 1.386 . S
C1096 C1091 1.491 . S
C1096 C1098 1.396 1_655 S
C1096 C1099 1.401 . S
H1097 C1103 0.930 . S
C1098 H1084 0.930 . S
C1098 C1096 1.396 1_455 S
C1098 C1101 1.403 . S
C1099 C1096 1.401 . S
C1099 C1100 1.524 . S
C1099 C1103 1.400 . S
C1100 H1085 0.960 . S
C1100 H1086 0.960 . S
C1100 H1087 0.960 . S
C1100 C1099 1.524 . S
C1101 C1098 1.403 . S
C1101 C1102 1.392 . S
C1101 C1105 1.495 . S
C1102 C1101 1.392 . S
C1102 C1103 1.385 1_455 S
C1102 C1104 1.478 . S
C1103 H1097 0.930 . S
C1103 C1099 1.400 . S
C1103 C1102 1.385 1_655 S
C1104 C1102 1.478 . S
C1104 C1106 1.381 1_455 S
C1104 C1110 1.383 . S
C1105 C1101 1.495 . S
C1105 H1111 0.959 . S
C1105 H1112 0.961 . S
C1105 H1113 0.960 . S
C1106 C1104 1.381 1_655 S
C1106 C1107 1.394 . S
C1106 H1114 0.930 . S
C1107 C1106 1.394 . S
C1107 C1108 1.383 1_655 S
C1107 H1115 0.929 . S
C1108 C1107 1.383 1_455 S
C1108 C1109 1.377 . S
C1109 H1093 0.930 . S
C1109 C1108 1.377 . S
C1109 C1110 1.379 . S
C1110 H1094 0.931 . S
C1110 C1104 1.383 . S
C1110 C1109 1.379 . S
H1111 C1105 0.959 . S
H1112 C1105 0.961 . S
H1113 C1105 0.960 . S
H1114 C1106 0.930 . S
H1115 C1107 0.929 . S
H1116 C1124 0.929 . S
H1117 C1126 0.930 . S
H1118 C1128 0.930 . S
H1119 C1131 0.929 . S
H1120 C1134 0.930 . S
H1121 C1136 0.960 . S
H1122 C1136 0.960 . S
H1123 C1136 0.960 . S
C1124 H1116 0.929 . S
C1124 C1125 1.377 . S
C1124 C1126 1.384 . S
C1125 C1124 1.377 . S
C1125 C1131 1.390 . S
C1126 H1117 0.930 . S
C1126 C1124 1.384 . S
C1126 C1127 1.372 . S
C1127 C1126 1.372 . S
C1127 C1128 1.400 . S
C1127 C1132 1.490 . S
C1128 H1118 0.930 . S
C1128 C1127 1.400 . S
C1128 C1131 1.386 . S
H1129 C1145 0.930 . S
H1130 C1146 0.931 . S
C1131 H1119 0.929 . S
C1131 C1125 1.390 . S
C1131 C1128 1.386 . S
C1132 C1127 1.490 . S
C1132 C1134 1.395 . S
C1132 C1135 1.403 . S
H1133 C1139 0.930 . S
C1134 H1120 0.930 . S
C1134 C1132 1.395 . S
C1134 C1137 1.403 . S
C1135 C1132 1.403 . S
C1135 C1136 1.524 . S
C1135 C1139 1.400 . S
C1136 H1121 0.960 . S
C1136 H1122 0.960 . S
C1136 H1123 0.960 . S
C1136 C1135 1.524 . S
C1137 C1134 1.403 . S
C1137 C1138 1.392 . S
C1137 C1141 1.495 . S
C1138 C1137 1.392 . S
C1138 C1139 1.385 . S
C1138 C1140 1.478 . S
C1139 H1133 0.930 . S
C1139 C1135 1.400 . S
C1139 C1138 1.385 . S
C1140 C1138 1.478 . S
C1140 C1142 1.381 . S
C1140 C1146 1.383 . S
C1141 C1137 1.495 . S
C1141 H1147 0.959 . S
C1141 H1148 0.961 . S
C1141 H1149 0.960 . S
C1142 C1140 1.381 . S
C1142 C1143 1.394 . S
C1142 H1150 0.930 . S
C1143 C1142 1.394 . S
C1143 C1144 1.383 . S
C1143 H1151 0.929 . S
C1144 C1143 1.383 . S
C1144 C1145 1.377 . S
C1145 H1129 0.930 . S
C1145 C1144 1.377 . S
C1145 C1146 1.379 . S
C1146 H1130 0.931 . S
C1146 C1140 1.383 . S
C1146 C1145 1.379 . S
H1147 C1141 0.959 . S
H1148 C1141 0.961 . S
H1149 C1141 0.960 . S
H1150 C1142 0.930 . S
H1151 C1143 0.929 . S
H1152 C1160 0.929 . S
H1153 C1162 0.930 . S
H1154 C1164 0.930 . S
H1155 C1167 0.929 . S
H1156 C1170 0.930 . S
H1157 C1172 0.960 . S
H1158 C1172 0.960 . S
H1159 C1172 0.960 . S
C1160 H1152 0.929 . S
C1160 C1161 1.377 . S
C1160 C1162 1.384 . S
C1161 C1160 1.377 . S
C1161 C1167 1.390 . S
C1162 H1153 0.930 . S
C1162 C1160 1.384 . S
C1162 C1163 1.372 . S
C1163 C1162 1.372 . S
C1163 C1164 1.400 . S
C1163 C1168 1.490 . S
C1164 H1154 0.930 . S
C1164 C1163 1.400 . S
C1164 C1167 1.386 . S
H1165 C1181 0.930 . S
H1166 C1182 0.931 . S
C1167 H1155 0.929 . S
C1167 C1161 1.390 . S
C1167 C1164 1.386 . S
C1168 C1163 1.490 . S
C1168 C1170 1.395 . S
C1168 C1171 1.403 . S
H1169 C1175 0.930 . S
C1170 H1156 0.930 . S
C1170 C1168 1.395 . S
C1170 C1173 1.403 . S
C1171 C1168 1.403 . S
C1171 C1172 1.524 . S
C1171 C1175 1.400 . S
C1172 H1157 0.960 . S
C1172 H1158 0.960 . S
C1172 H1159 0.960 . S
C1172 C1171 1.524 . S
C1173 C1170 1.403 . S
C1173 C1174 1.392 . S
C1173 C1177 1.495 . S
C1174 C1173 1.392 . S
C1174 C1175 1.385 . S
C1174 C1176 1.478 . S
C1175 H1169 0.930 . S
C1175 C1171 1.400 . S
C1175 C1174 1.385 . S
C1176 C1174 1.478 . S
C1176 C1178 1.381 . S
C1176 C1182 1.383 . S
C1177 C1173 1.495 . S
C1177 H1183 0.959 . S
C1177 H1184 0.961 . S
C1177 H1185 0.960 . S
C1178 C1176 1.381 . S
C1178 C1179 1.394 . S
C1178 H1186 0.930 . S
C1179 C1178 1.394 . S
C1179 C1180 1.383 . S
C1179 H1187 0.929 . S
C1180 C1179 1.383 . S
C1180 C1181 1.377 . S
C1181 H1165 0.930 . S
C1181 C1180 1.377 . S
C1181 C1182 1.379 . S
C1182 H1166 0.931 . S
C1182 C1176 1.383 . S
C1182 C1181 1.379 . S
H1183 C1177 0.959 . S
H1184 C1177 0.961 . S
H1185 C1177 0.960 . S
H1186 C1178 0.930 . S
H1187 C1179 0.929 . S
H1188 C1196 0.929 . S
H1189 C1198 0.930 . S
H1190 C1200 0.930 . S
H1191 C1203 0.929 . S
H1192 C1206 0.930 . S
H1193 C1208 0.960 . S
H1194 C1208 0.960 . S
H1195 C1208 0.960 . S
C1196 H1188 0.929 . S
C1196 C1197 1.377 . S
C1196 C1198 1.384 . S
C1197 C1196 1.377 . S
C1197 C1203 1.390 . S
C1198 H1189 0.930 . S
C1198 C1196 1.384 . S
C1198 C1199 1.372 . S
C1199 C1198 1.372 . S
C1199 C1200 1.400 . S
C1199 C1204 1.490 . S
C1200 H1190 0.930 . S
C1200 C1199 1.400 . S
C1200 C1203 1.386 . S
H1201 C1217 0.930 . S
H1202 C1218 0.931 . S
C1203 H1191 0.929 . S
C1203 C1197 1.390 . S
C1203 C1200 1.386 . S
C1204 C1199 1.490 . S
C1204 C1206 1.395 . S
C1204 C1207 1.403 . S
H1205 C1211 0.930 . S
C1206 H1192 0.930 . S
C1206 C1204 1.395 . S
C1206 C1209 1.403 . S
C1207 C1204 1.403 . S
C1207 C1208 1.524 . S
C1207 C1211 1.400 . S
C1208 H1193 0.960 . S
C1208 H1194 0.960 . S
C1208 H1195 0.960 . S
C1208 C1207 1.524 . S
C1209 C1206 1.403 . S
C1209 C1210 1.392 . S
C1209 C1213 1.495 . S
C1210 C1209 1.392 . S
C1210 C1211 1.385 . S
C1210 C1212 1.478 . S
C1211 H1205 0.930 . S
C1211 C1207 1.400 . S
C1211 C1210 1.385 . S
C1212 C1210 1.478 . S
C1212 C1214 1.381 . S
C1212 C1218 1.383 . S
C1213 C1209 1.495 . S
C1213 H1219 0.959 . S
C1213 H1220 0.961 . S
C1213 H1221 0.960 . S
C1214 C1212 1.381 . S
C1214 C1215 1.394 . S
C1214 H1222 0.930 . S
C1215 C1214 1.394 . S
C1215 C1216 1.383 . S
C1215 H1223 0.929 . S
C1216 C1215 1.383 . S
C1216 C1217 1.377 . S
C1217 H1201 0.930 . S
C1217 C1216 1.377 . S
C1217 C1218 1.379 . S
C1218 H1202 0.931 . S
C1218 C1212 1.383 . S
C1218 C1217 1.379 . S
H1219 C1213 0.959 . S
H1220 C1213 0.961 . S
H1221 C1213 0.960 . S
H1222 C1214 0.930 . S
H1223 C1215 0.929 . S
H1224 C1232 0.929 . S
H1225 C1234 0.930 . S
H1226 C1236 0.930 . S
H1227 C1239 0.929 . S
H1228 C1242 0.930 . S
H1229 C1244 0.960 . S
H1230 C1244 0.960 . S
H1231 C1244 0.960 . S
C1232 H1224 0.929 . S
C1232 C1233 1.377 . S
C1232 C1234 1.384 . S
C1233 C1232 1.377 . S
C1233 C1239 1.390 . S
C1234 H1225 0.930 . S
C1234 C1232 1.384 . S
C1234 C1235 1.372 . S
C1235 C1234 1.372 . S
C1235 C1236 1.400 . S
C1235 C1240 1.490 . S
C1236 H1226 0.930 . S
C1236 C1235 1.400 . S
C1236 C1239 1.386 . S
H1237 C1253 0.930 . S
H1238 C1254 0.931 . S
C1239 H1227 0.929 . S
C1239 C1233 1.390 . S
C1239 C1236 1.386 . S
C1240 C1235 1.490 . S
C1240 C1242 1.395 . S
C1240 C1243 1.403 . S
H1241 C1247 0.930 . S
C1242 H1228 0.930 . S
C1242 C1240 1.395 . S
C1242 C1245 1.403 . S
C1243 C1240 1.403 . S
C1243 C1244 1.524 . S
C1243 C1247 1.400 . S
C1244 H1229 0.960 . S
C1244 H1230 0.960 . S
C1244 H1231 0.960 . S
C1244 C1243 1.524 . S
C1245 C1242 1.403 . S
C1245 C1246 1.392 . S
C1245 C1249 1.495 . S
C1246 C1245 1.392 . S
C1246 C1247 1.385 . S
C1246 C1248 1.478 . S
C1247 H1241 0.930 . S
C1247 C1243 1.400 . S
C1247 C1246 1.385 . S
C1248 C1246 1.478 . S
C1248 C1250 1.381 . S
C1248 C1254 1.383 . S
C1249 C1245 1.495 . S
C1249 H1255 0.959 . S
C1249 H1256 0.961 . S
C1249 H1257 0.960 . S
C1250 C1248 1.381 . S
C1250 C1251 1.394 . S
C1250 H1258 0.930 . S
C1251 C1250 1.394 . S
C1251 C1252 1.383 . S
C1251 H1259 0.929 . S
C1252 C1251 1.383 . S
C1252 C1253 1.377 . S
C1253 H1237 0.930 . S
C1253 C1252 1.377 . S
C1253 C1254 1.379 . S
C1254 H1238 0.931 . S
C1254 C1248 1.383 . S
C1254 C1253 1.379 . S
H1255 C1249 0.959 . S
H1256 C1249 0.961 . S
H1257 C1249 0.960 . S
H1258 C1250 0.930 . S
H1259 C1251 0.929 . S
H1260 C1268 0.929 . S
H1261 C1270 0.930 . S
H1262 C1272 0.930 . S
H1263 C1275 0.929 . S
H1264 C1278 0.930 . S
H1265 C1280 0.960 . S
H1266 C1280 0.960 . S
H1267 C1280 0.960 . S
C1268 H1260 0.929 . S
C1268 C1269 1.377 . S
C1268 C1270 1.384 . S
C1269 C1268 1.377 . S
C1269 C1275 1.390 . S
C1270 H1261 0.930 . S
C1270 C1268 1.384 . S
C1270 C1271 1.372 . S
C1271 C1270 1.372 . S
C1271 C1272 1.400 . S
C1271 C1276 1.490 . S
C1272 H1262 0.930 . S
C1272 C1271 1.400 . S
C1272 C1275 1.386 . S
H1273 C1289 0.930 . S
H1274 C1290 0.931 . S
C1275 H1263 0.929 . S
C1275 C1269 1.390 . S
C1275 C1272 1.386 . S
C1276 C1271 1.490 . S
C1276 C1278 1.395 . S
C1276 C1279 1.403 . S
H1277 C1283 0.930 . S
C1278 H1264 0.930 . S
C1278 C1276 1.395 . S
C1278 C1281 1.403 . S
C1279 C1276 1.403 . S
C1279 C1280 1.524 . S
C1279 C1283 1.400 . S
C1280 H1265 0.960 . S
C1280 H1266 0.960 . S
C1280 H1267 0.960 . S
C1280 C1279 1.524 . S
C1281 C1278 1.403 . S
C1281 C1282 1.392 . S
C1281 C1285 1.495 . S
C1282 C1281 1.392 . S
C1282 C1283 1.385 . S
C1282 C1284 1.478 . S
C1283 H1277 0.930 . S
C1283 C1279 1.400 . S
C1283 C1282 1.385 . S
C1284 C1282 1.478 . S
C1284 C1286 1.381 . S
C1284 C1290 1.383 . S
C1285 C1281 1.495 . S
C1285 H1291 0.959 . S
C1285 H1292 0.961 . S
C1285 H1293 0.960 . S
C1286 C1284 1.381 . S
C1286 C1287 1.394 . S
C1286 H1294 0.930 . S
C1287 C1286 1.394 . S
C1287 C1288 1.383 . S
C1287 H1295 0.929 . S
C1288 C1287 1.383 . S
C1288 C1289 1.377 . S
C1289 H1273 0.930 . S
C1289 C1288 1.377 . S
C1289 C1290 1.379 . S
C1290 H1274 0.931 . S
C1290 C1284 1.383 . S
C1290 C1289 1.379 . S
H1291 C1285 0.959 . S
H1292 C1285 0.961 . S
H1293 C1285 0.960 . S
H1294 C1286 0.930 . S
H1295 C1287 0.929 . S
H1296 C1304 0.929 . S
H1297 C1306 0.930 . S
H1298 C1308 0.930 . S
H1299 C1311 0.929 . S
H1300 C1314 0.930 . S
H1301 C1316 0.960 . S
H1302 C1316 0.960 . S
H1303 C1316 0.960 . S
C1304 H1296 0.929 . S
C1304 C1305 1.377 . S
C1304 C1306 1.384 . S
C1305 C1304 1.377 . S
C1305 C1311 1.390 . S
C1306 H1297 0.930 . S
C1306 C1304 1.384 . S
C1306 C1307 1.372 . S
C1307 C1306 1.372 . S
C1307 C1308 1.400 . S
C1307 C1312 1.490 . S
C1308 H1298 0.930 . S
C1308 C1307 1.400 . S
C1308 C1311 1.386 . S
H1309 C1325 0.930 . S
H1310 C1326 0.931 . S
C1311 H1299 0.929 . S
C1311 C1305 1.390 . S
C1311 C1308 1.386 . S
C1312 C1307 1.490 . S
C1312 C1314 1.395 . S
C1312 C1315 1.403 . S
H1313 C1319 0.930 . S
C1314 H1300 0.930 . S
C1314 C1312 1.395 . S
C1314 C1317 1.403 . S
C1315 C1312 1.403 . S
C1315 C1316 1.524 . S
C1315 C1319 1.400 . S
C1316 H1301 0.960 . S
C1316 H1302 0.960 . S
C1316 H1303 0.960 . S
C1316 C1315 1.524 . S
C1317 C1314 1.403 . S
C1317 C1318 1.392 . S
C1317 C1321 1.495 . S
C1318 C1317 1.392 . S
C1318 C1319 1.385 . S
C1318 C1320 1.478 . S
C1319 H1313 0.930 . S
C1319 C1315 1.400 . S
C1319 C1318 1.385 . S
C1320 C1318 1.478 . S
C1320 C1322 1.381 . S
C1320 C1326 1.383 . S
C1321 C1317 1.495 . S
C1321 H1327 0.959 . S
C1321 H1328 0.961 . S
C1321 H1329 0.960 . S
C1322 C1320 1.381 . S
C1322 C1323 1.394 . S
C1322 H1330 0.930 . S
C1323 C1322 1.394 . S
C1323 C1324 1.383 . S
C1323 H1331 0.929 . S
C1324 C1323 1.383 . S
C1324 C1325 1.377 . S
C1325 H1309 0.930 . S
C1325 C1324 1.377 . S
C1325 C1326 1.379 . S
C1326 H1310 0.931 . S
C1326 C1320 1.383 . S
C1326 C1325 1.379 . S
H1327 C1321 0.959 . S
H1328 C1321 0.961 . S
H1329 C1321 0.960 . S
H1330 C1322 0.930 . S
H1331 C1323 0.929 . S
H1332 C1340 0.929 . S
H1333 C1342 0.930 . S
H1334 C1344 0.930 . S
H1335 C1347 0.929 . S
H1336 C1350 0.930 . S
H1337 C1352 0.960 . S
H1338 C1352 0.960 . S
H1339 C1352 0.960 . S
C1340 H1332 0.929 . S
C1340 C1341 1.377 . S
C1340 C1342 1.384 . S
C1341 C1340 1.377 . S
C1341 C1347 1.390 . S
C1342 H1333 0.930 . S
C1342 C1340 1.384 . S
C1342 C1343 1.372 . S
C1343 C1342 1.372 . S
C1343 C1344 1.400 . S
C1343 C1348 1.490 . S
C1344 H1334 0.930 . S
C1344 C1343 1.400 . S
C1344 C1347 1.386 . S
H1345 C1361 0.930 . S
H1346 C1362 0.931 . S
C1347 H1335 0.929 . S
C1347 C1341 1.390 . S
C1347 C1344 1.386 . S
C1348 C1343 1.490 . S
C1348 C1350 1.395 . S
C1348 C1351 1.403 . S
H1349 C1355 0.930 . S
C1350 H1336 0.930 . S
C1350 C1348 1.395 . S
C1350 C1353 1.403 . S
C1351 C1348 1.403 . S
C1351 C1352 1.524 . S
C1351 C1355 1.400 . S
C1352 H1337 0.960 . S
C1352 H1338 0.960 . S
C1352 H1339 0.960 . S
C1352 C1351 1.524 . S
C1353 C1350 1.403 . S
C1353 C1354 1.392 . S
C1353 C1357 1.495 . S
C1354 C1353 1.392 . S
C1354 C1355 1.385 . S
C1354 C1356 1.478 . S
C1355 H1349 0.930 . S
C1355 C1351 1.400 . S
C1355 C1354 1.385 . S
C1356 C1354 1.478 . S
C1356 C1358 1.381 . S
C1356 C1362 1.383 . S
C1357 C1353 1.495 . S
C1357 H1363 0.959 . S
C1357 H1364 0.961 . S
C1357 H1365 0.960 . S
C1358 C1356 1.381 . S
C1358 C1359 1.394 . S
C1358 H1366 0.930 . S
C1359 C1358 1.394 . S
C1359 C1360 1.383 . S
C1359 H1367 0.929 . S
C1360 C1359 1.383 . S
C1360 C1361 1.377 . S
C1361 H1345 0.930 . S
C1361 C1360 1.377 . S
C1361 C1362 1.379 . S
C1362 H1346 0.931 . S
C1362 C1356 1.383 . S
C1362 C1361 1.379 . S
H1363 C1357 0.959 . S
H1364 C1357 0.961 . S
H1365 C1357 0.960 . S
H1366 C1358 0.930 . S
H1367 C1359 0.929 . S
H1368 C1376 0.929 . S
H1369 C1378 0.930 . S
H1370 C1380 0.930 . S
H1371 C1383 0.929 . S
H1372 C1386 0.930 . S
H1373 C1388 0.960 . S
H1374 C1388 0.960 . S
H1375 C1388 0.960 . S
C1376 H1368 0.929 . S
C1376 C1377 1.377 . S
C1376 C1378 1.384 . S
C1377 C1376 1.377 . S
C1377 C1383 1.390 . S
C1378 H1369 0.930 . S
C1378 C1376 1.384 . S
C1378 C1379 1.372 . S
C1379 C1378 1.372 . S
C1379 C1380 1.400 . S
C1379 C1384 1.490 . S
C1380 H1370 0.930 . S
C1380 C1379 1.400 . S
C1380 C1383 1.386 . S
H1381 C1397 0.930 . S
H1382 C1398 0.931 . S
C1383 H1371 0.929 . S
C1383 C1377 1.390 . S
C1383 C1380 1.386 . S
C1384 C1379 1.490 . S
C1384 C1386 1.395 . S
C1384 C1387 1.403 . S
H1385 C1391 0.930 . S
C1386 H1372 0.930 . S
C1386 C1384 1.395 . S
C1386 C1389 1.403 . S
C1387 C1384 1.403 . S
C1387 C1388 1.524 . S
C1387 C1391 1.400 . S
C1388 H1373 0.960 . S
C1388 H1374 0.960 . S
C1388 H1375 0.960 . S
C1388 C1387 1.524 . S
C1389 C1386 1.403 . S
C1389 C1390 1.392 . S
C1389 C1393 1.495 . S
C1390 C1389 1.392 . S
C1390 C1391 1.385 . S
C1390 C1392 1.478 . S
C1391 H1385 0.930 . S
C1391 C1387 1.400 . S
C1391 C1390 1.385 . S
C1392 C1390 1.478 . S
C1392 C1394 1.381 . S
C1392 C1398 1.383 . S
C1393 C1389 1.495 . S
C1393 H1399 0.959 . S
C1393 H1400 0.961 . S
C1393 H1401 0.960 . S
C1394 C1392 1.381 . S
C1394 C1395 1.394 . S
C1394 H1402 0.930 . S
C1395 C1394 1.394 . S
C1395 C1396 1.383 . S
C1395 H1403 0.929 . S
C1396 C1395 1.383 . S
C1396 C1397 1.377 . S
C1397 H1381 0.930 . S
C1397 C1396 1.377 . S
C1397 C1398 1.379 . S
C1398 H1382 0.931 . S
C1398 C1392 1.383 . S
C1398 C1397 1.379 . S
H1399 C1393 0.959 . S
H1400 C1393 0.961 . S
H1401 C1393 0.960 . S
H1402 C1394 0.930 . S
H1403 C1395 0.929 . S
H1404 C1412 0.929 . S
H1405 C1414 0.930 . S
H1406 C1416 0.930 . S
H1407 C1419 0.929 . S
H1408 C1422 0.930 . S
H1409 C1424 0.960 . S
H1410 C1424 0.960 . S
H1411 C1424 0.960 . S
C1412 H1404 0.929 . S
C1412 C1413 1.377 . S
C1412 C1414 1.384 . S
C1413 C1412 1.377 . S
C1413 C1419 1.390 . S
C1414 H1405 0.930 . S
C1414 C1412 1.384 . S
C1414 C1415 1.372 . S
C1415 C1414 1.372 . S
C1415 C1416 1.400 . S
C1415 C1420 1.490 . S
C1416 H1406 0.930 . S
C1416 C1415 1.400 . S
C1416 C1419 1.386 . S
H1417 C1433 0.930 . S
H1418 C1434 0.931 . S
C1419 H1407 0.929 . S
C1419 C1413 1.390 . S
C1419 C1416 1.386 . S
C1420 C1415 1.490 . S
C1420 C1422 1.395 . S
C1420 C1423 1.403 . S
H1421 C1427 0.930 . S
C1422 H1408 0.930 . S
C1422 C1420 1.395 . S
C1422 C1425 1.403 . S
C1423 C1420 1.403 . S
C1423 C1424 1.524 . S
C1423 C1427 1.400 . S
C1424 H1409 0.960 . S
C1424 H1410 0.960 . S
C1424 H1411 0.960 . S
C1424 C1423 1.524 . S
C1425 C1422 1.403 . S
C1425 C1426 1.392 . S
C1425 C1429 1.495 . S
C1426 C1425 1.392 . S
C1426 C1427 1.385 . S
C1426 C1428 1.478 . S
C1427 H1421 0.930 . S
C1427 C1423 1.400 . S
C1427 C1426 1.385 . S
C1428 C1426 1.478 . S
C1428 C1430 1.381 . S
C1428 C1434 1.383 . S
C1429 C1425 1.495 . S
C1429 H1435 0.959 . S
C1429 H1436 0.961 . S
C1429 H1437 0.960 . S
C1430 C1428 1.381 . S
C1430 C1431 1.394 . S
C1430 H1438 0.930 . S
C1431 C1430 1.394 . S
C1431 C1432 1.383 . S
C1431 H1439 0.929 . S
C1432 C1431 1.383 . S
C1432 C1433 1.377 . S
C1433 H1417 0.930 . S
C1433 C1432 1.377 . S
C1433 C1434 1.379 . S
C1434 H1418 0.931 . S
C1434 C1428 1.383 . S
C1434 C1433 1.379 . S
H1435 C1429 0.959 . S
H1436 C1429 0.961 . S
H1437 C1429 0.960 . S
H1438 C1430 0.930 . S
H1439 C1431 0.929 . S
H1440 C1448 0.929 . S
H1441 C1450 0.930 . S
H1442 C1452 0.930 . S
H1443 C1455 0.929 . S
H1444 C1458 0.930 . S
H1445 C1460 0.960 . S
H1446 C1460 0.960 . S
H1447 C1460 0.960 . S
C1448 H1440 0.929 . S
C1448 C1449 1.377 . S
C1448 C1450 1.384 . S
C1449 C1448 1.377 . S
C1449 C1455 1.390 . S
C1450 H1441 0.930 . S
C1450 C1448 1.384 . S
C1450 C1451 1.372 . S
C1451 C1450 1.372 . S
C1451 C1452 1.400 . S
C1451 C1456 1.490 . S
C1452 H1442 0.930 . S
C1452 C1451 1.400 . S
C1452 C1455 1.386 . S
H1453 C1469 0.930 . S
H1454 C1470 0.931 . S
C1455 H1443 0.929 . S
C1455 C1449 1.390 . S
C1455 C1452 1.386 . S
C1456 C1451 1.490 . S
C1456 C1458 1.395 . S
C1456 C1459 1.403 . S
H1457 C1463 0.930 . S
C1458 H1444 0.930 . S
C1458 C1456 1.395 . S
C1458 C1461 1.403 . S
C1459 C1456 1.403 . S
C1459 C1460 1.524 . S
C1459 C1463 1.400 . S
C1460 H1445 0.960 . S
C1460 H1446 0.960 . S
C1460 H1447 0.960 . S
C1460 C1459 1.524 . S
C1461 C1458 1.403 . S
C1461 C1462 1.392 . S
C1461 C1465 1.495 . S
C1462 C1461 1.392 . S
C1462 C1463 1.385 . S
C1462 C1464 1.478 . S
C1463 H1457 0.930 . S
C1463 C1459 1.400 . S
C1463 C1462 1.385 . S
C1464 C1462 1.478 . S
C1464 C1466 1.381 . S
C1464 C1470 1.383 . S
C1465 C1461 1.495 . S
C1465 H1471 0.959 . S
C1465 H1472 0.961 . S
C1465 H1473 0.960 . S
C1466 C1464 1.381 . S
C1466 C1467 1.394 . S
C1466 H1474 0.930 . S
C1467 C1466 1.394 . S
C1467 C1468 1.383 . S
C1467 H1475 0.929 . S
C1468 C1467 1.383 . S
C1468 C1469 1.377 . S
C1469 H1453 0.930 . S
C1469 C1468 1.377 . S
C1469 C1470 1.379 . S
C1470 H1454 0.931 . S
C1470 C1464 1.383 . S
C1470 C1469 1.379 . S
H1471 C1465 0.959 . S
H1472 C1465 0.961 . S
H1473 C1465 0.960 . S
H1474 C1466 0.930 . S
H1475 C1467 0.929 . S
H1476 C1484 0.929 . S
H1477 C1486 0.930 . S
H1478 C1488 0.930 . S
H1479 C1491 0.929 . S
H1480 C1494 0.930 . S
H1481 C1496 0.960 . S
H1482 C1496 0.960 . S
H1483 C1496 0.960 . S
C1484 H1476 0.929 . S
C1484 C1485 1.377 . S
C1484 C1486 1.384 . S
C1485 C1484 1.377 . S
C1485 C1491 1.390 . S
C1486 H1477 0.930 . S
C1486 C1484 1.384 . S
C1486 C1487 1.372 . S
C1487 C1486 1.372 . S
C1487 C1488 1.400 . S
C1487 C1492 1.490 . S
C1488 H1478 0.930 . S
C1488 C1487 1.400 . S
C1488 C1491 1.386 . S
H1489 C1505 0.930 . S
H1490 C1506 0.931 . S
C1491 H1479 0.929 . S
C1491 C1485 1.390 . S
C1491 C1488 1.386 . S
C1492 C1487 1.490 . S
C1492 C1494 1.395 . S
C1492 C1495 1.403 . S
H1493 C1499 0.930 . S
C1494 H1480 0.930 . S
C1494 C1492 1.395 . S
C1494 C1497 1.403 . S
C1495 C1492 1.403 . S
C1495 C1496 1.524 . S
C1495 C1499 1.400 . S
C1496 H1481 0.960 . S
C1496 H1482 0.960 . S
C1496 H1483 0.960 . S
C1496 C1495 1.524 . S
C1497 C1494 1.403 . S
C1497 C1498 1.392 . S
C1497 C1501 1.495 . S
C1498 C1497 1.392 . S
C1498 C1499 1.385 . S
C1498 C1500 1.478 . S
C1499 H1493 0.930 . S
C1499 C1495 1.400 . S
C1499 C1498 1.385 . S
C1500 C1498 1.478 . S
C1500 C1502 1.381 . S
C1500 C1506 1.383 . S
C1501 C1497 1.495 . S
C1501 H1507 0.959 . S
C1501 H1508 0.961 . S
C1501 H1509 0.960 . S
C1502 C1500 1.381 . S
C1502 C1503 1.394 . S
C1502 H1510 0.930 . S
C1503 C1502 1.394 . S
C1503 C1504 1.383 . S
C1503 H1511 0.929 . S
C1504 C1503 1.383 . S
C1504 C1505 1.377 . S
C1505 H1489 0.930 . S
C1505 C1504 1.377 . S
C1505 C1506 1.379 . S
C1506 H1490 0.931 . S
C1506 C1500 1.383 . S
C1506 C1505 1.379 . S
H1507 C1501 0.959 . S
H1508 C1501 0.961 . S
H1509 C1501 0.960 . S
H1510 C1502 0.930 . S
H1511 C1503 0.929 . S
H1512 C1520 0.929 . S
H1513 C1522 0.930 . S
H1514 C1524 0.930 . S
H1515 C1527 0.929 . S
H1516 C1530 0.930 . S
H1517 C1532 0.960 . S
H1518 C1532 0.960 . S
H1519 C1532 0.960 . S
C1520 H1512 0.929 . S
C1520 C1521 1.377 . S
C1520 C1522 1.384 . S
C1521 C1520 1.377 . S
C1521 C1527 1.390 . S
C1522 H1513 0.930 . S
C1522 C1520 1.384 . S
C1522 C1523 1.372 . S
C1523 C1522 1.372 . S
C1523 C1524 1.400 . S
C1523 C1528 1.490 . S
C1524 H1514 0.930 . S
C1524 C1523 1.400 . S
C1524 C1527 1.386 . S
H1525 C1541 0.930 . S
H1526 C1542 0.931 . S
C1527 H1515 0.929 . S
C1527 C1521 1.390 . S
C1527 C1524 1.386 . S
C1528 C1523 1.490 . S
C1528 C1530 1.395 . S
C1528 C1531 1.403 . S
H1529 C1535 0.930 . S
C1530 H1516 0.930 . S
C1530 C1528 1.395 . S
C1530 C1533 1.403 . S
C1531 C1528 1.403 . S
C1531 C1532 1.524 . S
C1531 C1535 1.400 . S
C1532 H1517 0.960 . S
C1532 H1518 0.960 . S
C1532 H1519 0.960 . S
C1532 C1531 1.524 . S
C1533 C1530 1.403 . S
C1533 C1534 1.392 . S
C1533 C1537 1.495 . S
C1534 C1533 1.392 . S
C1534 C1535 1.385 . S
C1534 C1536 1.478 . S
C1535 H1529 0.930 . S
C1535 C1531 1.400 . S
C1535 C1534 1.385 . S
C1536 C1534 1.478 . S
C1536 C1538 1.381 . S
C1536 C1542 1.383 . S
C1537 C1533 1.495 . S
C1537 H1543 0.959 . S
C1537 H1544 0.961 . S
C1537 H1545 0.960 . S
C1538 C1536 1.381 . S
C1538 C1539 1.394 . S
C1538 H1546 0.930 . S
C1539 C1538 1.394 . S
C1539 C1540 1.383 . S
C1539 H1547 0.929 . S
C1540 C1539 1.383 . S
C1540 C1541 1.377 . S
C1541 H1525 0.930 . S
C1541 C1540 1.377 . S
C1541 C1542 1.379 . S
C1542 H1526 0.931 . S
C1542 C1536 1.383 . S
C1542 C1541 1.379 . S
H1543 C1537 0.959 . S
H1544 C1537 0.961 . S
H1545 C1537 0.960 . S
H1546 C1538 0.930 . S
H1547 C1539 0.929 . S
H1548 C1556 0.929 . S
H1549 C1558 0.930 . S
H1550 C1560 0.930 . S
H1551 C1563 0.929 . S
H1552 C1566 0.930 . S
H1553 C1568 0.960 . S
H1554 C1568 0.960 . S
H1555 C1568 0.960 . S
C1556 H1548 0.929 . S
C1556 C1557 1.377 . S
C1556 C1558 1.384 . S
C1557 C1556 1.377 . S
C1557 C1563 1.390 . S
C1558 H1549 0.930 . S
C1558 C1556 1.384 . S
C1558 C1559 1.372 . S
C1559 C1558 1.372 . S
C1559 C1560 1.400 . S
C1559 C1564 1.490 . S
C1560 H1550 0.930 . S
C1560 C1559 1.400 . S
C1560 C1563 1.386 . S
H1561 C1577 0.930 . S
H1562 C1578 0.931 . S
C1563 H1551 0.929 . S
C1563 C1557 1.390 . S
C1563 C1560 1.386 . S
C1564 C1559 1.490 . S
C1564 C1566 1.395 . S
C1564 C1567 1.403 . S
H1565 C1571 0.930 . S
C1566 H1552 0.930 . S
C1566 C1564 1.395 . S
C1566 C1569 1.403 . S
C1567 C1564 1.403 . S
C1567 C1568 1.524 . S
C1567 C1571 1.400 . S
C1568 H1553 0.960 . S
C1568 H1554 0.960 . S
C1568 H1555 0.960 . S
C1568 C1567 1.524 . S
C1569 C1566 1.403 . S
C1569 C1570 1.392 . S
C1569 C1573 1.495 . S
C1570 C1569 1.392 . S
C1570 C1571 1.385 . S
C1570 C1572 1.478 . S
C1571 H1565 0.930 . S
C1571 C1567 1.400 . S
C1571 C1570 1.385 . S
C1572 C1570 1.478 . S
C1572 C1574 1.381 . S
C1572 C1578 1.383 . S
C1573 C1569 1.495 . S
C1573 H1579 0.959 . S
C1573 H1580 0.961 . S
C1573 H1581 0.960 . S
C1574 C1572 1.381 . S
C1574 C1575 1.394 . S
C1574 H1582 0.930 . S
C1575 C1574 1.394 . S
C1575 C1576 1.383 . S
C1575 H1583 0.929 . S
C1576 C1575 1.383 . S
C1576 C1577 1.377 . S
C1577 H1561 0.930 . S
C1577 C1576 1.377 . S
C1577 C1578 1.379 . S
C1578 H1562 0.931 . S
C1578 C1572 1.383 . S
C1578 C1577 1.379 . S
H1579 C1573 0.959 . S
H1580 C1573 0.961 . S
H1581 C1573 0.960 . S
H1582 C1574 0.930 . S
H1583 C1575 0.929 . S
H1584 C1592 0.929 . S
H1585 C1594 0.930 . S
H1586 C1596 0.930 . S
H1587 C1599 0.929 . S
H1588 C1602 0.930 . S
H1589 C1604 0.960 . S
H1590 C1604 0.960 . S
H1591 C1604 0.960 . S
C1592 H1584 0.929 . S
C1592 C1593 1.377 . S
C1592 C1594 1.384 . S
C1593 C1592 1.377 . S
C1593 C1599 1.390 1_655 S
C1594 H1585 0.930 . S
C1594 C1592 1.384 . S
C1594 C1595 1.372 . S
C1595 C1594 1.372 . S
C1595 C1596 1.400 1_655 S
C1595 C1600 1.490 . S
C1596 H1586 0.930 . S
C1596 C1595 1.400 1_455 S
C1596 C1599 1.386 . S
H1597 C1613 0.930 . S
H1598 C1614 0.931 . S
C1599 H1587 0.929 . S
C1599 C1593 1.390 1_455 S
C1599 C1596 1.386 . S
C1600 C1595 1.490 . S
C1600 C1602 1.395 . S
C1600 C1603 1.403 1_655 S
H1601 C1607 0.930 . S
C1602 H1588 0.930 . S
C1602 C1600 1.395 . S
C1602 C1605 1.403 . S
C1603 C1600 1.403 1_455 S
C1603 C1604 1.524 . S
C1603 C1607 1.400 . S
C1604 H1589 0.960 . S
C1604 H1590 0.960 . S
C1604 H1591 0.960 . S
C1604 C1603 1.524 . S
C1605 C1602 1.403 . S
C1605 C1606 1.392 . S
C1605 C1609 1.495 . S
C1606 C1605 1.392 . S
C1606 C1607 1.385 1_655 S
C1606 C1608 1.465 . S
C1607 H1601 0.930 . S
C1607 C1603 1.400 . S
C1607 C1606 1.385 1_455 S
C1608 C1606 1.465 . S
C1608 C1610 1.406 . S
C1608 C1614 1.370 1_655 S
C1609 C1605 1.495 . S
C1609 H1615 0.959 . S
C1609 H1616 0.961 . S
C1609 H1617 0.960 . S
C1610 C1608 1.406 . S
C1610 C1611 1.394 . S
C1610 H1618 0.930 . S
C1611 C1610 1.394 . S
C1611 C1612 1.383 1_655 S
C1611 H1619 0.929 . S
C1612 C1611 1.383 1_455 S
C1612 C1613 1.377 . S
C1613 H1597 0.930 . S
C1613 C1612 1.377 . S
C1613 C1614 1.379 . S
C1614 H1598 0.931 . S
C1614 C1608 1.370 1_455 S
C1614 C1613 1.379 . S
H1615 C1609 0.959 . S
H1616 C1609 0.961 . S
H1617 C1609 0.960 . S
H1618 C1610 0.930 . S
H1619 C1611 0.929 . S
H1620 C1628 0.929 . S
H1621 C1630 0.930 . S
H1622 C1632 0.930 . S
H1623 C1635 0.929 . S
H1624 C1638 0.930 . S
H1625 C1640 0.960 . S
H1626 C1640 0.960 . S
H1627 C1640 0.960 . S
C1628 H1620 0.929 . S
C1628 C1629 1.377 . S
C1628 C1630 1.384 . S
C1629 C1628 1.377 . S
C1629 C1635 1.390 . S
C1630 H1621 0.930 . S
C1630 C1628 1.384 . S
C1630 C1631 1.372 . S
C1631 C1630 1.372 . S
C1631 C1632 1.400 . S
C1631 C1636 1.490 . S
C1632 H1622 0.930 . S
C1632 C1631 1.400 . S
C1632 C1635 1.386 . S
H1633 C1649 0.930 . S
H1634 C1650 0.931 . S
C1635 H1623 0.929 . S
C1635 C1629 1.390 . S
C1635 C1632 1.386 . S
C1636 C1631 1.490 . S
C1636 C1638 1.395 . S
C1636 C1639 1.403 . S
H1637 C1643 0.930 . S
C1638 H1624 0.930 . S
C1638 C1636 1.395 . S
C1638 C1641 1.403 . S
C1639 C1636 1.403 . S
C1639 C1640 1.524 . S
C1639 C1643 1.400 . S
C1640 H1625 0.960 . S
C1640 H1626 0.960 . S
C1640 H1627 0.960 . S
C1640 C1639 1.524 . S
C1641 C1638 1.403 . S
C1641 C1642 1.392 . S
C1641 C1645 1.495 . S
C1642 C1641 1.392 . S
C1642 C1643 1.385 . S
C1642 C1644 1.478 . S
C1643 H1637 0.930 . S
C1643 C1639 1.400 . S
C1643 C1642 1.385 . S
C1644 C1642 1.478 . S
C1644 C1646 1.381 . S
C1644 C1650 1.383 . S
C1645 C1641 1.495 . S
C1645 H1651 0.959 . S
C1645 H1652 0.961 . S
C1645 H1653 0.960 . S
C1646 C1644 1.381 . S
C1646 C1647 1.394 . S
C1646 H1654 0.930 . S
C1647 C1646 1.394 . S
C1647 C1648 1.383 . S
C1647 H1655 0.929 . S
C1648 C1647 1.383 . S
C1648 C1649 1.377 . S
C1649 H1633 0.930 . S
C1649 C1648 1.377 . S
C1649 C1650 1.379 . S
C1650 H1634 0.931 . S
C1650 C1644 1.383 . S
C1650 C1649 1.379 . S
H1651 C1645 0.959 . S
H1652 C1645 0.961 . S
H1653 C1645 0.960 . S
H1654 C1646 0.930 . S
H1655 C1647 0.929 . S
H1656 C1664 0.929 . S
H1657 C1666 0.930 . S
H1658 C1668 0.930 . S
H1659 C1671 0.929 . S
H1660 C1674 0.930 . S
H1661 C1676 0.960 . S
H1662 C1676 0.960 . S
H1663 C1676 0.960 . S
C1664 H1656 0.929 . S
C1664 C1665 1.377 . S
C1664 C1666 1.384 . S
C1665 C1664 1.377 . S
C1665 C1671 1.390 1_565 S
C1666 H1657 0.930 . S
C1666 C1664 1.384 . S
C1666 C1667 1.372 . S
C1667 C1666 1.372 . S
C1667 C1668 1.400 1_565 S
C1667 C1672 1.490 . S
C1668 H1658 0.930 . S
C1668 C1667 1.400 1_545 S
C1668 C1671 1.386 . S
H1669 C1685 0.930 . S
H1670 C1686 0.931 . S
C1671 H1659 0.929 . S
C1671 C1665 1.390 1_545 S
C1671 C1668 1.386 . S
C1672 C1667 1.490 . S
C1672 C1674 1.395 . S
C1672 C1675 1.403 1_565 S
H1673 C1679 0.930 . S
C1674 H1660 0.930 . S
C1674 C1672 1.395 . S
C1674 C1677 1.403 . S
C1675 C1672 1.403 1_545 S
C1675 C1676 1.524 . S
C1675 C1679 1.400 . S
C1676 H1661 0.960 . S
C1676 H1662 0.960 . S
C1676 H1663 0.960 . S
C1676 C1675 1.524 . S
C1677 C1674 1.403 . S
C1677 C1678 1.392 . S
C1677 C1681 1.495 . S
C1678 C1677 1.392 . S
C1678 C1679 1.385 1_565 S
C1678 C1680 1.507 . S
C1679 H1673 0.930 . S
C1679 C1675 1.400 . S
C1679 C1678 1.385 1_545 S
C1680 C1678 1.507 . S
C1680 C1682 1.393 . S
C1680 C1686 1.340 1_565 S
C1681 C1677 1.495 . S
C1681 H1687 0.959 . S
C1681 H1688 0.961 . S
C1681 H1689 0.960 . S
C1682 C1680 1.393 . S
C1682 C1683 1.394 . S
C1682 H1690 0.930 . S
C1683 C1682 1.394 . S
C1683 C1684 1.383 1_565 S
C1683 H1691 0.929 . S
C1684 C1683 1.383 1_545 S
C1684 C1685 1.377 . S
C1685 H1669 0.930 . S
C1685 C1684 1.377 . S
C1685 C1686 1.379 . S
C1686 H1670 0.931 . S
C1686 C1680 1.340 1_545 S
C1686 C1685 1.379 . S
H1687 C1681 0.959 . S
H1688 C1681 0.961 . S
H1689 C1681 0.960 . S
H1690 C1682 0.930 . S
H1691 C1683 0.929 . S
H1692 C1700 0.929 1_554 S
H1693 C1702 0.930 . S
H1694 C1704 0.930 . S
H1695 C1707 0.929 . S
H1696 C1710 0.930 . S
H1697 C1712 0.960 . S
H1698 C1712 0.960 1_545 S
H1699 C1712 0.960 . S
C1700 H1692 0.929 1_556 S
C1700 C1701 1.377 1_545 S
C1700 C1702 1.384 1_556 S
C1701 C1700 1.377 1_565 S
C1701 C1707 1.390 . S
C1702 H1693 0.930 . S
C1702 C1700 1.384 1_554 S
C1702 C1703 1.376 1_544 S
C1703 C1702 1.376 1_566 S
C1703 C1704 1.397 . S
C1703 C1708 1.509 1_565 S
C1704 H1694 0.930 . S
C1704 C1703 1.397 . S
C1704 C1707 1.386 . S
H1705 C1721 0.930 . S
H1706 C1722 0.931 . S
C1707 H1695 0.929 . S
C1707 C1701 1.390 . S
C1707 C1704 1.386 . S
C1708 C1703 1.509 1_545 S
C1708 C1710 1.396 1_556 S
C1708 C1711 1.383 1_545 S
H1709 C1715 0.930 . S
C1710 H1696 0.930 . S
C1710 C1708 1.396 1_554 S
C1710 C1713 1.403 . S
C1711 C1708 1.383 1_565 S
C1711 C1712 1.524 . S
C1711 C1715 1.400 . S
C1712 H1697 0.960 . S
C1712 H1698 0.960 1_565 S
C1712 H1699 0.960 . S
C1712 C1711 1.524 . S
C1713 C1710 1.403 . S
C1713 C1714 1.392 . S
C1713 C1717 1.495 . S
C1714 C1713 1.392 . S
C1714 C1715 1.385 1_544 S
C1714 C1716 1.478 . S
C1715 H1709 0.930 . S
C1715 C1711 1.400 . S
C1715 C1714 1.385 1_566 S
C1716 C1714 1.478 . S
C1716 C1718 1.381 . S
C1716 C1722 1.383 1_545 S
C1717 C1713 1.495 . S
C1717 H1723 0.959 . S
C1717 H1724 0.982 . S
C1717 H1725 0.960 . S
C1718 C1716 1.381 . S
C1718 C1719 1.394 . S
C1718 H1726 0.930 . S
C1719 C1718 1.394 . S
C1719 C1720 1.383 . S
C1719 H1727 0.929 . S
C1720 C1719 1.383 . S
C1720 C1721 1.377 1_545 S
C1721 H1705 0.930 . S
C1721 C1720 1.377 1_565 S
C1721 C1722 1.379 . S
C1722 H1706 0.931 . S
C1722 C1716 1.383 1_565 S
C1722 C1721 1.379 . S
H1723 C1717 0.959 . S
H1724 C1717 0.982 . S
H1725 C1717 0.960 . S
H1726 C1718 0.930 . S
H1727 C1719 0.929 . S
H1728 C1736 0.929 . S
H1729 C1738 0.930 . S
H1730 C1740 0.930 . S
H1731 C1743 0.929 . S
H1732 C1746 0.930 . S
H1733 C1748 0.960 . S
H1734 C1748 0.960 . S
H1735 C1748 0.960 1_655 S
C1736 H1728 0.929 . S
C1736 C1737 1.377 1_455 S
C1736 C1738 1.384 . S
C1737 C1736 1.377 1_655 S
C1737 C1743 1.390 1_554 S
C1738 H1729 0.930 . S
C1738 C1736 1.384 . S
C1738 C1739 1.372 1_455 S
C1739 C1738 1.372 1_655 S
C1739 C1740 1.398 1_554 S
C1739 C1744 1.482 1_655 S
C1740 H1730 0.930 . S
C1740 C1739 1.398 1_556 S
C1740 C1743 1.386 . S
H1741 C1757 0.930 . S
H1742 C1758 0.931 . S
C1743 H1731 0.929 . S
C1743 C1737 1.390 1_556 S
C1743 C1740 1.386 . S
C1744 C1739 1.482 1_455 S
C1744 C1746 1.397 1_455 S
C1744 C1747 1.409 1_554 S
H1745 C1751 0.930 . S
C1746 H1732 0.930 . S
C1746 C1744 1.397 1_655 S
C1746 C1749 1.403 . S
C1747 C1744 1.409 1_556 S
C1747 C1748 1.524 . S
C1747 C1751 1.400 . S
C1748 H1733 0.960 . S
C1748 H1734 0.960 . S
C1748 H1735 0.960 1_455 S
C1748 C1747 1.524 . S
C1749 C1746 1.403 . S
C1749 C1750 1.380 1_655 S
C1749 C1753 1.495 . S
C1750 C1749 1.380 1_455 S
C1750 C1751 1.381 1_554 S
C1750 C1752 1.474 . S
C1751 H1745 0.930 . S
C1751 C1747 1.400 . S
C1751 C1750 1.381 1_556 S
C1752 C1750 1.474 . S
C1752 C1754 1.419 . S
C1752 C1758 1.368 1_454 S
C1753 C1749 1.495 . S
C1753 H1759 0.959 . S
C1753 H1760 0.961 . S
C1753 H1761 0.960 1_655 S
C1754 C1752 1.419 . S
C1754 C1755 1.394 . S
C1754 H1762 0.930 . S
C1755 C1754 1.394 . S
C1755 C1756 1.383 1_554 S
C1755 H1763 0.929 . S
C1756 C1755 1.383 1_556 S
C1756 C1757 1.377 1_455 S
C1757 H1741 0.930 . S
C1757 C1756 1.377 1_655 S
C1757 C1758 1.379 . S
C1758 H1742 0.931 . S
C1758 C1752 1.368 1_656 S
C1758 C1757 1.379 . S
H1759 C1753 0.959 . S
H1760 C1753 0.961 . S
H1761 C1753 0.960 1_455 S
H1762 C1754 0.930 . S
H1763 C1755 0.929 . S
H1764 C1772 0.929 . S
H1765 C1774 0.930 . S
H1766 C1776 0.930 . S
H1767 C1779 0.929 . S
H1768 C1782 0.930 . S
H1769 C1784 0.960 . S
H1770 C1784 0.960 . S
H1771 C1784 0.960 . S
C1772 H1764 0.929 . S
C1772 C1773 1.377 1_556 S
C1772 C1774 1.384 . S
C1773 C1772 1.377 1_554 S
C1773 C1779 1.390 . S
C1774 H1765 0.930 . S
C1774 C1772 1.384 . S
C1774 C1775 1.372 1_556 S
C1775 C1774 1.372 1_554 S
C1775 C1776 1.400 . S
C1775 C1780 1.490 1_554 S
C1776 H1766 0.930 . S
C1776 C1775 1.400 . S
C1776 C1779 1.386 . S
H1777 C1793 0.930 . S
H1778 C1794 0.931 . S
C1779 H1767 0.929 . S
C1779 C1773 1.390 . S
C1779 C1776 1.386 . S
C1780 C1775 1.490 1_556 S
C1780 C1782 1.394 . S
C1780 C1783 1.403 1_556 S
H1781 C1787 0.930 . S
C1782 H1768 0.930 . S
C1782 C1780 1.394 . S
C1782 C1785 1.403 . S
C1783 C1780 1.403 1_554 S
C1783 C1784 1.524 . S
C1783 C1787 1.400 . S
C1784 H1769 0.960 . S
C1784 H1770 0.960 . S
C1784 H1771 0.960 . S
C1784 C1783 1.524 . S
C1785 C1782 1.403 . S
C1785 C1786 1.392 . S
C1785 C1789 1.495 . S
C1786 C1785 1.392 . S
C1786 C1787 1.385 1_556 S
C1786 C1788 1.478 . S
C1787 H1781 0.930 . S
C1787 C1783 1.400 . S
C1787 C1786 1.385 1_554 S
C1788 C1786 1.478 . S
C1788 C1790 1.381 . S
C1788 C1794 1.383 1_556 S
C1789 C1785 1.495 . S
C1789 H1795 0.959 . S
C1789 H1796 0.961 . S
C1789 H1797 0.960 . S
C1790 C1788 1.381 . S
C1790 C1791 1.394 . S
C1790 H1798 0.930 . S
C1791 C1790 1.394 . S
C1791 C1792 1.383 . S
C1791 H1799 0.929 . S
C1792 C1791 1.383 . S
C1792 C1793 1.377 1_556 S
C1793 H1777 0.930 . S
C1793 C1792 1.377 1_554 S
C1793 C1794 1.379 . S
C1794 H1778 0.931 . S
C1794 C1788 1.383 1_554 S
C1794 C1793 1.379 . S
H1795 C1789 0.959 . S
H1796 C1789 0.961 . S
H1797 C1789 0.960 . S
H1798 C1790 0.930 . S
H1799 C1791 0.929 . S
H1800 C1808 0.929 . S
H1801 C1810 0.930 . S
H1802 C1812 0.918 1_556 S
H1803 C1815 0.906 1_556 S
H1804 C1818 0.930 . S
H1805 C1820 0.960 . S
H1806 C1820 0.960 . S
H1807 C1820 0.960 . S
C1808 H1800 0.929 . S
C1808 C1809 1.377 . S
C1808 C1810 1.384 . S
C1809 C1808 1.377 . S
C1809 C1815 1.404 . S
C1810 H1801 0.930 . S
C1810 C1808 1.384 . S
C1810 C1811 1.372 . S
C1811 C1810 1.372 . S
C1811 C1812 1.400 . S
C1811 C1816 1.490 . S
C1812 H1802 0.918 1_554 S
C1812 C1811 1.400 . S
C1812 C1815 1.395 . S
H1813 C1829 0.930 . S
H1814 C1830 0.931 . S
C1815 H1803 0.906 1_554 S
C1815 C1809 1.404 . S
C1815 C1812 1.395 . S
C1816 C1811 1.490 . S
C1816 C1818 1.395 . S
C1816 C1819 1.403 . S
H1817 C1823 0.930 . S
C1818 H1804 0.930 . S
C1818 C1816 1.395 . S
C1818 C1821 1.403 . S
C1819 C1816 1.403 . S
C1819 C1820 1.524 . S
C1819 C1823 1.400 . S
C1820 H1805 0.960 . S
C1820 H1806 0.960 . S
C1820 H1807 0.960 . S
C1820 C1819 1.524 . S
C1821 C1818 1.403 . S
C1821 C1822 1.392 . S
C1821 C1825 1.495 . S
C1822 C1821 1.392 . S
C1822 C1823 1.385 . S
C1822 C1824 1.478 . S
C1823 H1817 0.930 . S
C1823 C1819 1.400 . S
C1823 C1822 1.385 . S
C1824 C1822 1.478 . S
C1824 C1826 1.381 . S
C1824 C1830 1.383 . S
C1825 C1821 1.495 . S
C1825 H1831 0.959 . S
C1825 H1832 0.961 . S
C1825 H1833 0.960 . S
C1826 C1824 1.381 . S
C1826 C1827 1.394 . S
C1826 H1834 0.930 . S
C1827 C1826 1.394 . S
C1827 C1828 1.383 . S
C1827 H1835 0.929 . S
C1828 C1827 1.383 . S
C1828 C1829 1.377 . S
C1829 H1813 0.930 . S
C1829 C1828 1.377 . S
C1829 C1830 1.379 . S
C1830 H1814 0.931 . S
C1830 C1824 1.383 . S
C1830 C1829 1.379 . S
H1831 C1825 0.959 . S
H1832 C1825 0.961 . S
H1833 C1825 0.960 . S
H1834 C1826 0.930 . S
H1835 C1827 0.929 . S
H1836 C1844 0.929 . S
H1837 C1846 0.930 . S
H1838 C1848 0.930 . S
H1839 C1851 0.929 . S
H1840 C1854 0.930 . S
H1841 C1856 0.960 . S
H1842 C1856 0.960 . S
H1843 C1856 0.960 . S
C1844 H1836 0.929 . S
C1844 C1845 1.377 . S
C1844 C1846 1.384 . S
C1845 C1844 1.377 . S
C1845 C1851 1.390 . S
C1846 H1837 0.930 . S
C1846 C1844 1.384 . S
C1846 C1847 1.372 . S
C1847 C1846 1.372 . S
C1847 C1848 1.400 . S
C1847 C1852 1.490 . S
C1848 H1838 0.930 . S
C1848 C1847 1.400 . S
C1848 C1851 1.386 . S
H1849 C1865 0.930 1_556 S
H1850 C1866 0.931 . S
C1851 H1839 0.929 . S
C1851 C1845 1.390 . S
C1851 C1848 1.386 . S
C1852 C1847 1.490 . S
C1852 C1854 1.395 . S
C1852 C1855 1.403 . S
H1853 C1859 0.930 . S
C1854 H1840 0.930 . S
C1854 C1852 1.395 . S
C1854 C1857 1.403 . S
C1855 C1852 1.403 . S
C1855 C1856 1.524 . S
C1855 C1859 1.400 . S
C1856 H1841 0.960 . S
C1856 H1842 0.960 . S
C1856 H1843 0.960 . S
C1856 C1855 1.524 . S
C1857 C1854 1.403 . S
C1857 C1858 1.392 . S
C1857 C1861 1.495 . S
C1858 C1857 1.392 . S
C1858 C1859 1.385 . S
C1858 C1860 1.478 . S
C1859 H1853 0.930 . S
C1859 C1855 1.400 . S
C1859 C1858 1.385 . S
C1860 C1858 1.478 . S
C1860 C1862 1.381 . S
C1860 C1866 1.383 . S
C1861 C1857 1.495 . S
C1861 H1867 0.959 . S
C1861 H1868 0.961 . S
C1861 H1869 0.960 . S
C1862 C1860 1.381 . S
C1862 C1863 1.394 . S
C1862 H1870 0.930 . S
C1863 C1862 1.394 . S
C1863 C1864 1.383 . S
C1863 H1871 0.929 . S
C1864 C1863 1.383 . S
C1864 C1865 1.377 . S
C1865 H1849 0.930 1_554 S
C1865 C1864 1.377 . S
C1865 C1866 1.379 . S
C1866 H1850 0.931 . S
C1866 C1860 1.383 . S
C1866 C1865 1.379 . S
H1867 C1861 0.959 . S
H1868 C1861 0.961 . S
H1869 C1861 0.960 . S
H1870 C1862 0.930 . S
H1871 C1863 0.929 . S
H1872 C1880 0.929 . S
H1873 C1882 0.930 . S
H1874 C1884 0.930 . S
H1875 C1887 0.929 . S
H1876 C1890 0.930 . S
H1877 C1892 0.960 . S
H1878 C1892 0.960 . S
H1879 C1892 0.960 . S
C1880 H1872 0.929 . S
C1880 C1881 1.377 . S
C1880 C1882 1.384 . S
C1881 C1880 1.377 . S
C1881 C1887 1.390 . S
C1882 H1873 0.930 . S
C1882 C1880 1.384 . S
C1882 C1883 1.372 . S
C1883 C1882 1.372 . S
C1883 C1884 1.400 . S
C1883 C1888 1.490 . S
C1884 H1874 0.930 . S
C1884 C1883 1.400 . S
C1884 C1887 1.386 . S
H1885 C1901 0.930 . S
H1886 C1902 0.931 . S
C1887 H1875 0.929 . S
C1887 C1881 1.390 . S
C1887 C1884 1.386 . S
C1888 C1883 1.490 . S
C1888 C1890 1.395 . S
C1888 C1891 1.403 . S
H1889 C1895 0.930 . S
C1890 H1876 0.930 . S
C1890 C1888 1.395 . S
C1890 C1893 1.403 . S
C1891 C1888 1.403 . S
C1891 C1892 1.524 . S
C1891 C1895 1.400 . S
C1892 H1877 0.960 . S
C1892 H1878 0.960 . S
C1892 H1879 0.960 . S
C1892 C1891 1.524 . S
C1893 C1890 1.403 . S
C1893 C1894 1.392 . S
C1893 C1897 1.495 1_554 S
C1894 C1893 1.392 . S
C1894 C1895 1.385 . S
C1894 C1896 1.478 . S
C1895 H1889 0.930 . S
C1895 C1891 1.400 . S
C1895 C1894 1.385 . S
C1896 C1894 1.478 . S
C1896 C1898 1.381 . S
C1896 C1902 1.383 . S
C1897 C1893 1.495 1_556 S
C1897 H1903 0.959 . S
C1897 H1904 0.961 . S
C1897 H1905 0.960 . S
C1898 C1896 1.381 . S
C1898 C1899 1.394 . S
C1898 H1906 0.930 . S
C1899 C1898 1.394 . S
C1899 C1900 1.383 . S
C1899 H1907 0.929 1_554 S
C1900 C1899 1.383 . S
C1900 C1901 1.377 . S
C1901 H1885 0.930 . S
C1901 C1900 1.377 . S
C1901 C1902 1.379 . S
C1902 H1886 0.931 . S
C1902 C1896 1.383 . S
C1902 C1901 1.379 . S
H1903 C1897 0.959 . S
H1904 C1897 0.961 . S
H1905 C1897 0.960 . S
H1906 C1898 0.930 . S
H1907 C1899 0.929 1_556 S
H1908 C1916 0.929 . S
H1909 C1918 0.930 . S
H1910 C1920 0.930 . S
H1911 C1923 0.929 . S
H1912 C1926 0.930 . S
H1913 C1928 0.960 . S
H1914 C1928 0.960 . S
H1915 C1928 0.960 . S
C1916 H1908 0.929 . S
C1916 C1917 1.377 . S
C1916 C1918 1.384 . S
C1917 C1916 1.377 . S
C1917 C1923 1.390 . S
C1918 H1909 0.930 . S
C1918 C1916 1.384 . S
C1918 C1919 1.372 . S
C1919 C1918 1.372 . S
C1919 C1920 1.400 . S
C1919 C1924 1.490 . S
C1920 H1910 0.930 . S
C1920 C1919 1.400 . S
C1920 C1923 1.386 . S
H1921 C1937 0.930 . S
H1922 C1938 0.931 . S
C1923 H1911 0.929 . S
C1923 C1917 1.390 . S
C1923 C1920 1.386 . S
C1924 C1919 1.490 . S
C1924 C1926 1.395 . S
C1924 C1927 1.403 . S
H1925 C1931 0.930 . S
C1926 H1912 0.930 . S
C1926 C1924 1.395 . S
C1926 C1929 1.403 . S
C1927 C1924 1.403 . S
C1927 C1928 1.524 . S
C1927 C1931 1.400 . S
C1928 H1913 0.960 . S
C1928 H1914 0.960 . S
C1928 H1915 0.960 . S
C1928 C1927 1.524 . S
C1929 C1926 1.403 . S
C1929 C1930 1.392 . S
C1929 C1933 1.495 . S
C1930 C1929 1.392 . S
C1930 C1931 1.385 . S
C1930 C1932 1.478 . S
C1931 H1925 0.930 . S
C1931 C1927 1.400 . S
C1931 C1930 1.385 . S
C1932 C1930 1.478 . S
C1932 C1934 1.381 . S
C1932 C1938 1.383 . S
C1933 C1929 1.495 . S
C1933 H1939 0.959 . S
C1933 H1940 0.961 . S
C1933 H1941 0.960 . S
C1934 C1932 1.381 . S
C1934 C1935 1.394 . S
C1934 H1942 0.930 . S
C1935 C1934 1.394 . S
C1935 C1936 1.383 . S
C1935 H1943 0.929 . S
C1936 C1935 1.383 . S
C1936 C1937 1.377 . S
C1937 H1921 0.930 . S
C1937 C1936 1.377 . S
C1937 C1938 1.379 . S
C1938 H1922 0.931 . S
C1938 C1932 1.383 . S
C1938 C1937 1.379 . S
H1939 C1933 0.959 . S
H1940 C1933 0.961 . S
H1941 C1933 0.960 . S
H1942 C1934 0.930 . S
H1943 C1935 0.929 . S
H1944 C1952 0.929 . S
H1945 C1954 0.930 . S
H1946 C1956 0.930 . S
H1947 C1959 0.929 . S
H1948 C1962 0.930 . S
H1949 C1964 0.960 . S
H1950 C1964 0.960 . S
H1951 C1964 0.960 . S
C1952 H1944 0.929 . S
C1952 C1953 1.377 . S
C1952 C1954 1.384 . S
C1953 C1952 1.377 . S
C1953 C1959 1.390 . S
C1954 H1945 0.930 . S
C1954 C1952 1.384 . S
C1954 C1955 1.372 . S
C1955 C1954 1.372 . S
C1955 C1956 1.400 . S
C1955 C1960 1.490 . S
C1956 H1946 0.930 . S
C1956 C1955 1.400 . S
C1956 C1959 1.386 . S
H1957 C1973 0.930 . S
H1958 C1974 0.931 . S
C1959 H1947 0.929 . S
C1959 C1953 1.390 . S
C1959 C1956 1.386 . S
C1960 C1955 1.490 . S
C1960 C1962 1.395 . S
C1960 C1963 1.403 . S
H1961 C1967 0.930 . S
C1962 H1948 0.930 . S
C1962 C1960 1.395 . S
C1962 C1965 1.403 . S
C1963 C1960 1.403 . S
C1963 C1964 1.524 . S
C1963 C1967 1.400 . S
C1964 H1949 0.960 . S
C1964 H1950 0.960 . S
C1964 H1951 0.960 . S
C1964 C1963 1.524 . S
C1965 C1962 1.403 . S
C1965 C1966 1.392 . S
C1965 C1969 1.495 . S
C1966 C1965 1.392 . S
C1966 C1967 1.385 . S
C1966 C1968 1.478 . S
C1967 H1961 0.930 . S
C1967 C1963 1.400 . S
C1967 C1966 1.385 . S
C1968 C1966 1.478 . S
C1968 C1970 1.381 . S
C1968 C1974 1.383 . S
C1969 C1965 1.495 . S
C1969 H1975 0.959 . S
C1969 H1976 0.961 . S
C1969 H1977 0.960 . S
C1970 C1968 1.381 . S
C1970 C1971 1.394 . S
C1970 H1978 0.930 . S
C1971 C1970 1.394 . S
C1971 C1972 1.383 . S
C1971 H1979 0.929 . S
C1972 C1971 1.383 . S
C1972 C1973 1.377 . S
C1973 H1957 0.930 . S
C1973 C1972 1.377 . S
C1973 C1974 1.379 . S
C1974 H1958 0.931 . S
C1974 C1968 1.383 . S
C1974 C1973 1.379 . S
H1975 C1969 0.959 . S
H1976 C1969 0.961 . S
H1977 C1969 0.960 . S
H1978 C1970 0.930 . S
H1979 C1971 0.929 . S
H1980 C1988 0.929 . S
H1981 C1990 0.930 . S
H1982 C1992 0.930 . S
H1983 C1995 0.929 . S
H1984 C1998 0.930 . S
H1985 C2000 0.960 . S
H1986 C2000 0.960 . S
H1987 C2000 0.960 . S
C1988 H1980 0.929 . S
C1988 C1989 1.377 . S
C1988 C1990 1.384 . S
C1989 C1988 1.377 . S
C1989 C1995 1.390 . S
C1990 H1981 0.930 . S
C1990 C1988 1.384 . S
C1990 C1991 1.372 . S
C1991 C1990 1.372 . S
C1991 C1992 1.400 . S
C1991 C1996 1.490 . S
C1992 H1982 0.930 . S
C1992 C1991 1.400 . S
C1992 C1995 1.386 . S
H1993 C2009 0.930 . S
H1994 C2010 0.931 . S
C1995 H1983 0.929 . S
C1995 C1989 1.390 . S
C1995 C1992 1.386 . S
C1996 C1991 1.490 . S
C1996 C1998 1.395 . S
C1996 C1999 1.403 . S
H1997 C2003 0.930 . S
C1998 H1984 0.930 . S
C1998 C1996 1.395 . S
C1998 C2001 1.403 . S
C1999 C1996 1.403 . S
C1999 C2000 1.524 . S
C1999 C2003 1.400 . S
C2000 H1985 0.960 . S
C2000 H1986 0.960 . S
C2000 H1987 0.960 . S
C2000 C1999 1.524 . S
C2001 C1998 1.403 . S
C2001 C2002 1.392 . S
C2001 C2005 1.495 . S
C2002 C2001 1.392 . S
C2002 C2003 1.385 . S
C2002 C2004 1.478 . S
C2003 H1997 0.930 . S
C2003 C1999 1.400 . S
C2003 C2002 1.385 . S
C2004 C2002 1.478 . S
C2004 C2006 1.381 . S
C2004 C2010 1.383 . S
C2005 C2001 1.495 . S
C2005 H2011 0.959 . S
C2005 H2012 0.961 . S
C2005 H2013 0.960 . S
C2006 C2004 1.381 . S
C2006 C2007 1.394 . S
C2006 H2014 0.930 . S
C2007 C2006 1.394 . S
C2007 C2008 1.383 . S
C2007 H2015 0.929 . S
C2008 C2007 1.383 . S
C2008 C2009 1.377 . S
C2009 H1993 0.930 . S
C2009 C2008 1.377 . S
C2009 C2010 1.379 . S
C2010 H1994 0.931 . S
C2010 C2004 1.383 . S
C2010 C2009 1.379 . S
H2011 C2005 0.959 . S
H2012 C2005 0.961 . S
H2013 C2005 0.960 . S
H2014 C2006 0.930 . S
H2015 C2007 0.929 . S
H2016 C2024 0.929 . S
H2017 C2026 0.930 . S
H2018 C2028 0.930 . S
H2019 C2031 0.929 1_554 S
H2020 C2034 0.930 . S
H2021 C2036 0.960 . S
H2022 C2036 0.960 . S
H2023 C2036 0.960 . S
C2024 H2016 0.929 . S
C2024 C2025 1.377 . S
C2024 C2026 1.384 . S
C2025 C2024 1.377 . S
C2025 C2031 1.390 . S
C2026 H2017 0.930 . S
C2026 C2024 1.384 . S
C2026 C2027 1.372 . S
C2027 C2026 1.372 . S
C2027 C2028 1.400 . S
C2027 C2032 1.490 . S
C2028 H2018 0.930 . S
C2028 C2027 1.400 . S
C2028 C2031 1.386 . S
H2029 C2045 0.930 . S
H2030 C2046 0.931 . S
C2031 H2019 0.929 1_556 S
C2031 C2025 1.390 . S
C2031 C2028 1.386 . S
C2032 C2027 1.490 . S
C2032 C2034 1.395 . S
C2032 C2035 1.403 . S
H2033 C2039 0.930 . S
C2034 H2020 0.930 . S
C2034 C2032 1.395 . S
C2034 C2037 1.403 . S
C2035 C2032 1.403 . S
C2035 C2036 1.524 . S
C2035 C2039 1.400 . S
C2036 H2021 0.960 . S
C2036 H2022 0.960 . S
C2036 H2023 0.960 . S
C2036 C2035 1.524 . S
C2037 C2034 1.403 . S
C2037 C2038 1.392 . S
C2037 C2041 1.495 . S
C2038 C2037 1.392 . S
C2038 C2039 1.385 . S
C2038 C2040 1.478 . S
C2039 H2033 0.930 . S
C2039 C2035 1.400 . S
C2039 C2038 1.385 . S
C2040 C2038 1.478 . S
C2040 C2042 1.381 . S
C2040 C2046 1.383 . S
C2041 C2037 1.495 . S
C2041 H2047 0.959 . S
C2041 H2048 0.961 . S
C2041 H2049 0.960 . S
C2042 C2040 1.381 . S
C2042 C2043 1.394 . S
C2042 H2050 0.930 . S
C2043 C2042 1.394 . S
C2043 C2044 1.383 . S
C2043 H2051 0.929 . S
C2044 C2043 1.383 . S
C2044 C2045 1.377 . S
C2045 H2029 0.930 . S
C2045 C2044 1.377 . S
C2045 C2046 1.379 . S
C2046 H2030 0.931 . S
C2046 C2040 1.383 . S
C2046 C2045 1.379 . S
H2047 C2041 0.959 . S
H2048 C2041 0.961 . S
H2049 C2041 0.960 . S
H2050 C2042 0.930 . S
H2051 C2043 0.929 . S
H2052 C2060 0.929 . S
H2053 C2062 0.930 . S
H2054 C2064 0.930 . S
H2055 C2067 0.929 . S
H2056 C2070 0.930 . S
H2057 C2072 0.960 . S
H2058 C2072 0.960 . S
H2059 C2072 0.960 . S
C2060 H2052 0.929 . S
C2060 C2061 1.377 . S
C2060 C2062 1.384 . S
C2061 C2060 1.377 . S
C2061 C2067 1.390 . S
C2062 H2053 0.930 . S
C2062 C2060 1.384 . S
C2062 C2063 1.372 . S
C2063 C2062 1.372 . S
C2063 C2064 1.400 . S
C2063 C2068 1.490 . S
C2064 H2054 0.930 . S
C2064 C2063 1.400 . S
C2064 C2067 1.386 . S
H2065 C2081 0.899 1_554 S
H2066 C2082 0.912 1_554 S
C2067 H2055 0.929 . S
C2067 C2061 1.390 . S
C2067 C2064 1.386 . S
C2068 C2063 1.490 . S
C2068 C2070 1.395 . S
C2068 C2071 1.403 . S
H2069 C2075 0.930 . S
C2070 H2056 0.930 . S
C2070 C2068 1.395 . S
C2070 C2073 1.403 . S
C2071 C2068 1.403 . S
C2071 C2072 1.524 . S
C2071 C2075 1.400 . S
C2072 H2057 0.960 . S
C2072 H2058 0.960 . S
C2072 H2059 0.960 . S
C2072 C2071 1.524 . S
C2073 C2070 1.403 . S
C2073 C2074 1.392 . S
C2073 C2077 1.495 . S
C2074 C2073 1.392 . S
C2074 C2075 1.385 . S
C2074 C2076 1.478 . S
C2075 H2069 0.930 . S
C2075 C2071 1.400 . S
C2075 C2074 1.385 . S
C2076 C2074 1.478 . S
C2076 C2078 1.381 . S
C2076 C2082 1.383 . S
C2077 C2073 1.495 . S
C2077 H2083 0.959 . S
C2077 H2084 0.961 . S
C2077 H2085 0.960 . S
C2078 C2076 1.381 . S
C2078 C2079 1.394 . S
C2078 H2086 0.930 . S
C2079 C2078 1.394 . S
C2079 C2080 1.383 . S
C2079 H2087 0.929 . S
C2080 C2079 1.383 . S
C2080 C2081 1.396 . S
C2081 H2065 0.899 1_556 S
C2081 C2080 1.396 . S
C2081 C2082 1.391 . S
C2082 H2066 0.912 1_556 S
C2082 C2076 1.383 . S
C2082 C2081 1.391 . S
H2083 C2077 0.959 . S
H2084 C2077 0.961 . S
H2085 C2077 0.960 . S
H2086 C2078 0.930 . S
H2087 C2079 0.929 . S
H2088 C2096 0.929 . S
H2089 C2098 0.930 . S
H2090 C2100 0.930 . S
H2091 C2103 0.929 . S
H2092 C2106 0.930 . S
H2093 C2108 0.960 . S
H2094 C2108 0.960 1_554 S
H2095 C2108 0.960 . S
C2096 H2088 0.929 . S
C2096 C2097 1.377 . S
C2096 C2098 1.384 . S
C2097 C2096 1.377 . S
C2097 C2103 1.390 . S
C2098 H2089 0.930 . S
C2098 C2096 1.384 . S
C2098 C2099 1.372 . S
C2099 C2098 1.372 . S
C2099 C2100 1.400 . S
C2099 C2104 1.490 . S
C2100 H2090 0.930 . S
C2100 C2099 1.400 . S
C2100 C2103 1.386 . S
H2101 C2117 0.930 . S
H2102 C2118 0.931 . S
C2103 H2091 0.929 . S
C2103 C2097 1.390 . S
C2103 C2100 1.386 . S
C2104 C2099 1.490 . S
C2104 C2106 1.395 . S
C2104 C2107 1.403 . S
H2105 C2111 0.930 . S
C2106 H2092 0.930 . S
C2106 C2104 1.395 . S
C2106 C2109 1.403 . S
C2107 C2104 1.403 . S
C2107 C2108 1.524 . S
C2107 C2111 1.400 . S
C2108 H2093 0.960 . S
C2108 H2094 0.960 1_556 S
C2108 H2095 0.960 . S
C2108 C2107 1.524 . S
C2109 C2106 1.403 . S
C2109 C2110 1.392 . S
C2109 C2113 1.495 . S
C2110 C2109 1.392 . S
C2110 C2111 1.385 . S
C2110 C2112 1.478 . S
C2111 H2105 0.930 . S
C2111 C2107 1.400 . S
C2111 C2110 1.385 . S
C2112 C2110 1.478 . S
C2112 C2114 1.381 . S
C2112 C2118 1.383 . S
C2113 C2109 1.495 . S
C2113 H2119 0.959 . S
C2113 H2120 0.961 . S
C2113 H2121 0.960 . S
C2114 C2112 1.381 . S
C2114 C2115 1.394 . S
C2114 H2122 0.930 . S
C2115 C2114 1.394 . S
C2115 C2116 1.383 . S
C2115 H2123 0.929 . S
C2116 C2115 1.383 . S
C2116 C2117 1.377 . S
C2117 H2101 0.930 . S
C2117 C2116 1.377 . S
C2117 C2118 1.379 . S
C2118 H2102 0.931 . S
C2118 C2112 1.383 . S
C2118 C2117 1.379 . S
H2119 C2113 0.959 . S
H2120 C2113 0.961 . S
H2121 C2113 0.960 . S
H2122 C2114 0.930 . S
H2123 C2115 0.929 . S
H2124 C2132 0.929 . S
H2125 C2134 0.930 . S
H2126 C2136 0.930 . S
H2127 C2139 0.929 . S
H2128 C2142 0.930 . S
H2129 C2144 0.960 . S
H2130 C2144 0.960 . S
H2131 C2144 0.960 . S
C2132 H2124 0.929 . S
C2132 C2133 1.377 . S
C2132 C2134 1.384 . S
C2133 C2132 1.377 . S
C2133 C2139 1.390 . S
C2134 H2125 0.930 . S
C2134 C2132 1.384 . S
C2134 C2135 1.372 . S
C2135 C2134 1.372 . S
C2135 C2136 1.400 . S
C2135 C2140 1.490 . S
C2136 H2126 0.930 . S
C2136 C2135 1.400 . S
C2136 C2139 1.386 . S
H2137 C2153 0.930 . S
H2138 C2154 0.931 . S
C2139 H2127 0.929 . S
C2139 C2133 1.390 . S
C2139 C2136 1.386 . S
C2140 C2135 1.490 . S
C2140 C2142 1.395 . S
C2140 C2143 1.403 . S
H2141 C2147 0.930 . S
C2142 H2128 0.930 . S
C2142 C2140 1.395 . S
C2142 C2145 1.403 . S
C2143 C2140 1.403 . S
C2143 C2144 1.524 . S
C2143 C2147 1.400 . S
C2144 H2129 0.960 . S
C2144 H2130 0.960 . S
C2144 H2131 0.960 . S
C2144 C2143 1.524 . S
C2145 C2142 1.403 . S
C2145 C2146 1.392 . S
C2145 C2149 1.495 . S
C2146 C2145 1.392 . S
C2146 C2147 1.385 . S
C2146 C2148 1.478 . S
C2147 H2141 0.930 . S
C2147 C2143 1.400 . S
C2147 C2146 1.385 . S
C2148 C2146 1.478 . S
C2148 C2150 1.381 . S
C2148 C2154 1.383 . S
C2149 C2145 1.495 . S
C2149 H2155 0.959 . S
C2149 H2156 0.961 . S
C2149 H2157 0.960 . S
C2150 C2148 1.381 . S
C2150 C2151 1.394 . S
C2150 H2158 0.930 . S
C2151 C2150 1.394 . S
C2151 C2152 1.383 . S
C2151 H2159 0.929 . S
C2152 C2151 1.383 . S
C2152 C2153 1.377 . S
C2153 H2137 0.930 . S
C2153 C2152 1.377 . S
C2153 C2154 1.379 . S
C2154 H2138 0.931 . S
C2154 C2148 1.383 . S
C2154 C2153 1.379 . S
H2155 C2149 0.959 . S
H2156 C2149 0.961 . S
H2157 C2149 0.960 . S
H2158 C2150 0.930 . S
H2159 C2151 0.929 . S
H2160 C2168 0.929 . S
H2161 C2170 0.930 . S
H2162 C2172 0.930 . S
H2163 C2175 0.929 . S
H2164 C2178 0.930 . S
H2165 C2180 0.960 . S
H2166 C2180 0.960 . S
H2167 C2180 0.960 . S
C2168 H2160 0.929 . S
C2168 C2169 1.377 . S
C2168 C2170 1.384 . S
C2169 C2168 1.377 . S
C2169 C2175 1.390 . S
C2170 H2161 0.930 . S
C2170 C2168 1.384 . S
C2170 C2171 1.372 . S
C2171 C2170 1.372 . S
C2171 C2172 1.400 . S
C2171 C2176 1.490 . S
C2172 H2162 0.930 . S
C2172 C2171 1.400 . S
C2172 C2175 1.386 . S
H2173 C2189 0.930 . S
H2174 C2190 0.931 . S
C2175 H2163 0.929 . S
C2175 C2169 1.390 . S
C2175 C2172 1.386 . S
C2176 C2171 1.490 . S
C2176 C2178 1.395 . S
C2176 C2179 1.403 . S
H2177 C2183 0.930 . S
C2178 H2164 0.930 . S
C2178 C2176 1.395 . S
C2178 C2181 1.403 . S
C2179 C2176 1.403 . S
C2179 C2180 1.524 . S
C2179 C2183 1.400 . S
C2180 H2165 0.960 . S
C2180 H2166 0.960 . S
C2180 H2167 0.960 . S
C2180 C2179 1.524 . S
C2181 C2178 1.403 . S
C2181 C2182 1.392 . S
C2181 C2185 1.495 . S
C2182 C2181 1.392 . S
C2182 C2183 1.385 . S
C2182 C2184 1.478 . S
C2183 H2177 0.930 . S
C2183 C2179 1.400 . S
C2183 C2182 1.385 . S
C2184 C2182 1.478 . S
C2184 C2186 1.381 . S
C2184 C2190 1.383 . S
C2185 C2181 1.495 . S
C2185 H2191 0.959 . S
C2185 H2192 0.961 . S
C2185 H2193 0.960 . S
C2186 C2184 1.381 . S
C2186 C2187 1.394 . S
C2186 H2194 0.930 . S
C2187 C2186 1.394 . S
C2187 C2188 1.383 . S
C2187 H2195 0.929 . S
C2188 C2187 1.383 . S
C2188 C2189 1.377 . S
C2189 H2173 0.930 . S
C2189 C2188 1.377 . S
C2189 C2190 1.379 . S
C2190 H2174 0.931 . S
C2190 C2184 1.383 . S
C2190 C2189 1.379 . S
H2191 C2185 0.959 . S
H2192 C2185 0.961 . S
H2193 C2185 0.960 . S
H2194 C2186 0.930 . S
H2195 C2187 0.929 . S
H2196 C2204 0.929 . S
H2197 C2206 0.930 . S
H2198 C2208 0.930 . S
H2199 C2211 0.929 . S
H2200 C2214 0.930 . S
H2201 C2216 0.960 . S
H2202 C2216 0.960 . S
H2203 C2216 0.960 . S
C2204 H2196 0.929 . S
C2204 C2205 1.377 . S
C2204 C2206 1.384 . S
C2205 C2204 1.377 . S
C2205 C2211 1.390 . S
C2206 H2197 0.930 . S
C2206 C2204 1.384 . S
C2206 C2207 1.372 . S
C2207 C2206 1.372 . S
C2207 C2208 1.400 . S
C2207 C2212 1.490 . S
C2208 H2198 0.930 . S
C2208 C2207 1.400 . S
C2208 C2211 1.386 . S
H2209 C2225 0.930 . S
H2210 C2226 0.931 . S
C2211 H2199 0.929 . S
C2211 C2205 1.390 . S
C2211 C2208 1.386 . S
C2212 C2207 1.490 . S
C2212 C2214 1.395 . S
C2212 C2215 1.403 . S
H2213 C2219 0.930 . S
C2214 H2200 0.930 . S
C2214 C2212 1.395 . S
C2214 C2217 1.403 . S
C2215 C2212 1.403 . S
C2215 C2216 1.524 . S
C2215 C2219 1.400 . S
C2216 H2201 0.960 . S
C2216 H2202 0.960 . S
C2216 H2203 0.960 . S
C2216 C2215 1.524 . S
C2217 C2214 1.403 . S
C2217 C2218 1.392 . S
C2217 C2221 1.495 . S
C2218 C2217 1.392 . S
C2218 C2219 1.385 . S
C2218 C2220 1.478 . S
C2219 H2213 0.930 . S
C2219 C2215 1.400 . S
C2219 C2218 1.385 . S
C2220 C2218 1.478 . S
C2220 C2222 1.381 . S
C2220 C2226 1.383 . S
C2221 C2217 1.495 . S
C2221 H2227 0.959 . S
C2221 H2228 0.961 . S
C2221 H2229 0.960 . S
C2222 C2220 1.381 . S
C2222 C2223 1.394 . S
C2222 H2230 0.930 . S
C2223 C2222 1.394 . S
C2223 C2224 1.383 . S
C2223 H2231 0.929 . S
C2224 C2223 1.383 . S
C2224 C2225 1.377 . S
C2225 H2209 0.930 . S
C2225 C2224 1.377 . S
C2225 C2226 1.379 . S
C2226 H2210 0.931 . S
C2226 C2220 1.383 . S
C2226 C2225 1.379 . S
H2227 C2221 0.959 . S
H2228 C2221 0.961 . S
H2229 C2221 0.960 . S
H2230 C2222 0.930 . S
H2231 C2223 0.929 . S
H2232 C2240 0.929 . S
H2233 C2242 0.930 . S
H2234 C2244 0.930 . S
H2235 C2247 0.929 . S
H2236 C2250 0.930 . S
H2237 C2252 0.960 . S
H2238 C2252 0.960 . S
H2239 C2252 0.960 . S
C2240 H2232 0.929 . S
C2240 C2241 1.377 . S
C2240 C2242 1.384 . S
C2241 C2240 1.377 . S
C2241 C2247 1.390 . S
C2242 H2233 0.930 . S
C2242 C2240 1.384 . S
C2242 C2243 1.372 . S
C2243 C2242 1.372 . S
C2243 C2244 1.400 . S
C2243 C2248 1.490 . S
C2244 H2234 0.930 . S
C2244 C2243 1.400 . S
C2244 C2247 1.386 . S
H2245 C2261 0.930 . S
H2246 C2262 0.931 . S
C2247 H2235 0.929 . S
C2247 C2241 1.390 . S
C2247 C2244 1.386 . S
C2248 C2243 1.490 . S
C2248 C2250 1.395 . S
C2248 C2251 1.403 . S
H2249 C2255 0.930 . S
C2250 H2236 0.930 . S
C2250 C2248 1.395 . S
C2250 C2253 1.403 . S
C2251 C2248 1.403 . S
C2251 C2252 1.524 . S
C2251 C2255 1.400 . S
C2252 H2237 0.960 . S
C2252 H2238 0.960 . S
C2252 H2239 0.960 . S
C2252 C2251 1.524 . S
C2253 C2250 1.403 . S
C2253 C2254 1.392 . S
C2253 C2257 1.495 . S
C2254 C2253 1.392 . S
C2254 C2255 1.385 . S
C2254 C2256 1.478 . S
C2255 H2249 0.930 . S
C2255 C2251 1.400 . S
C2255 C2254 1.385 . S
C2256 C2254 1.478 . S
C2256 C2258 1.381 . S
C2256 C2262 1.383 . S
C2257 C2253 1.495 . S
C2257 H2263 0.959 . S
C2257 H2264 0.961 . S
C2257 H2265 0.960 . S
C2258 C2256 1.381 . S
C2258 C2259 1.394 . S
C2258 H2266 0.930 . S
C2259 C2258 1.394 . S
C2259 C2260 1.383 . S
C2259 H2267 0.929 . S
C2260 C2259 1.383 . S
C2260 C2261 1.377 . S
C2261 H2245 0.930 . S
C2261 C2260 1.377 . S
C2261 C2262 1.379 . S
C2262 H2246 0.931 . S
C2262 C2256 1.383 . S
C2262 C2261 1.379 . S
H2263 C2257 0.959 . S
H2264 C2257 0.961 . S
H2265 C2257 0.960 . S
H2266 C2258 0.930 . S
H2267 C2259 0.929 . S
H2268 C2276 0.929 . S
H2269 C2278 0.930 . S
H2270 C2280 0.930 . S
H2271 C2283 0.929 . S
H2272 C2286 0.930 . S
H2273 C2288 0.960 . S
H2274 C2288 0.960 . S
H2275 C2288 0.960 . S
C2276 H2268 0.929 . S
C2276 C2277 1.377 . S
C2276 C2278 1.384 . S
C2277 C2276 1.377 . S
C2277 C2283 1.390 . S
C2278 H2269 0.930 . S
C2278 C2276 1.384 . S
C2278 C2279 1.372 . S
C2279 C2278 1.372 . S
C2279 C2280 1.400 . S
C2279 C2284 1.490 . S
C2280 H2270 0.930 . S
C2280 C2279 1.400 . S
C2280 C2283 1.386 . S
H2281 C2297 0.930 . S
H2282 C2298 0.931 . S
C2283 H2271 0.929 . S
C2283 C2277 1.390 . S
C2283 C2280 1.386 . S
C2284 C2279 1.490 . S
C2284 C2286 1.395 . S
C2284 C2287 1.403 . S
H2285 C2291 0.930 . S
C2286 H2272 0.930 . S
C2286 C2284 1.395 . S
C2286 C2289 1.403 1_565 S
C2287 C2284 1.403 . S
C2287 C2288 1.524 . S
C2287 C2291 1.400 1_565 S
C2288 H2273 0.960 . S
C2288 H2274 0.960 . S
C2288 H2275 0.960 . S
C2288 C2287 1.524 . S
C2289 C2286 1.403 1_545 S
C2289 C2290 1.392 . S
C2289 C2293 1.495 . S
C2290 C2289 1.392 . S
C2290 C2291 1.385 . S
C2290 C2292 1.478 . S
C2291 H2285 0.930 . S
C2291 C2287 1.400 1_545 S
C2291 C2290 1.385 . S
C2292 C2290 1.478 . S
C2292 C2294 1.381 . S
C2292 C2298 1.383 . S
C2293 C2289 1.495 . S
C2293 H2299 0.959 . S
C2293 H2300 0.961 . S
C2293 H2301 0.960 . S
C2294 C2292 1.381 . S
C2294 C2295 1.394 . S
C2294 H2302 0.930 . S
C2295 C2294 1.394 . S
C2295 C2296 1.383 . S
C2295 H2303 0.929 . S
C2296 C2295 1.383 . S
C2296 C2297 1.377 . S
C2297 H2281 0.930 . S
C2297 C2296 1.377 . S
C2297 C2298 1.379 . S
C2298 H2282 0.931 . S
C2298 C2292 1.383 . S
C2298 C2297 1.379 . S
H2299 C2293 0.959 . S
H2300 C2293 0.961 . S
H2301 C2293 0.960 . S
H2302 C2294 0.930 . S
H2303 C2295 0.929 . S
H2304 C2312 0.929 . S
H2305 C2314 0.930 . S
H2306 C2316 0.930 . S
H2307 C2319 0.929 . S
H2308 C2322 0.930 . S
H2309 C2324 0.960 . S
H2310 C2324 0.960 . S
H2311 C2324 0.960 . S
C2312 H2304 0.929 . S
C2312 C2313 1.377 . S
C2312 C2314 1.384 . S
C2313 C2312 1.377 . S
C2313 C2319 1.390 . S
C2314 H2305 0.930 . S
C2314 C2312 1.384 . S
C2314 C2315 1.372 . S
C2315 C2314 1.372 . S
C2315 C2316 1.400 . S
C2315 C2320 1.490 . S
C2316 H2306 0.930 . S
C2316 C2315 1.400 . S
C2316 C2319 1.386 . S
H2317 C2333 0.930 . S
H2318 C2334 0.931 . S
C2319 H2307 0.929 . S
C2319 C2313 1.390 . S
C2319 C2316 1.386 . S
C2320 C2315 1.490 . S
C2320 C2322 1.395 . S
C2320 C2323 1.403 . S
H2321 C2327 0.930 . S
C2322 H2308 0.930 . S
C2322 C2320 1.395 . S
C2322 C2325 1.403 1_455 S
C2323 C2320 1.403 . S
C2323 C2324 1.524 . S
C2323 C2327 1.400 1_455 S
C2324 H2309 0.960 . S
C2324 H2310 0.960 . S
C2324 H2311 0.960 . S
C2324 C2323 1.524 . S
C2325 C2322 1.403 1_655 S
C2325 C2326 1.392 . S
C2325 C2329 1.495 . S
C2326 C2325 1.392 . S
C2326 C2327 1.385 . S
C2326 C2328 1.478 . S
C2327 H2321 0.930 . S
C2327 C2323 1.400 1_655 S
C2327 C2326 1.385 . S
C2328 C2326 1.478 . S
C2328 C2330 1.381 . S
C2328 C2334 1.383 . S
C2329 C2325 1.495 . S
C2329 H2335 0.959 . S
C2329 H2336 0.961 . S
C2329 H2337 0.960 . S
C2330 C2328 1.381 . S
C2330 C2331 1.394 . S
C2330 H2338 0.930 . S
C2331 C2330 1.394 . S
C2331 C2332 1.383 . S
C2331 H2339 0.929 . S
C2332 C2331 1.383 . S
C2332 C2333 1.377 . S
C2333 H2317 0.930 . S
C2333 C2332 1.377 . S
C2333 C2334 1.379 . S
C2334 H2318 0.931 . S
C2334 C2328 1.383 . S
C2334 C2333 1.379 . S
H2335 C2329 0.959 . S
H2336 C2329 0.961 . S
H2337 C2329 0.960 . S
H2338 C2330 0.930 . S
H2339 C2331 0.929 . S
H2340 C2348 0.929 . S
H2341 C2350 0.930 . S
H2342 C2352 0.930 . S
H2343 C2355 0.929 . S
H2344 C2358 0.930 . S
H2345 C2360 0.960 . S
H2346 C2360 0.960 . S
H2347 C2360 0.960 . S
C2348 H2340 0.929 . S
C2348 C2349 1.377 . S
C2348 C2350 1.384 . S
C2349 C2348 1.377 . S
C2349 C2355 1.390 . S
C2350 H2341 0.930 . S
C2350 C2348 1.384 . S
C2350 C2351 1.372 . S
C2351 C2350 1.372 . S
C2351 C2352 1.400 . S
C2351 C2356 1.490 . S
C2352 H2342 0.930 . S
C2352 C2351 1.400 . S
C2352 C2355 1.386 . S
H2353 C2369 0.930 . S
H2354 C2370 0.931 . S
C2355 H2343 0.929 . S
C2355 C2349 1.390 . S
C2355 C2352 1.386 . S
C2356 C2351 1.490 . S
C2356 C2358 1.395 . S
C2356 C2359 1.403 . S
H2357 C2363 0.930 . S
C2358 H2344 0.930 . S
C2358 C2356 1.395 . S
C2358 C2361 1.403 . S
C2359 C2356 1.403 . S
C2359 C2360 1.524 . S
C2359 C2363 1.400 . S
C2360 H2345 0.960 . S
C2360 H2346 0.960 . S
C2360 H2347 0.960 . S
C2360 C2359 1.524 . S
C2361 C2358 1.403 . S
C2361 C2362 1.392 . S
C2361 C2365 1.495 . S
C2362 C2361 1.392 . S
C2362 C2363 1.385 . S
C2362 C2364 1.478 . S
C2363 H2357 0.930 . S
C2363 C2359 1.400 . S
C2363 C2362 1.385 . S
C2364 C2362 1.478 . S
C2364 C2366 1.381 . S
C2364 C2370 1.383 . S
C2365 C2361 1.495 . S
C2365 H2371 0.959 . S
C2365 H2372 0.961 . S
C2365 H2373 0.960 . S
C2366 C2364 1.381 . S
C2366 C2367 1.394 . S
C2366 H2374 0.930 . S
C2367 C2366 1.394 . S
C2367 C2368 1.383 . S
C2367 H2375 0.929 . S
C2368 C2367 1.383 . S
C2368 C2369 1.377 . S
C2369 H2353 0.930 . S
C2369 C2368 1.377 . S
C2369 C2370 1.379 . S
C2370 H2354 0.931 . S
C2370 C2364 1.383 . S
C2370 C2369 1.379 . S
H2371 C2365 0.959 . S
H2372 C2365 0.961 . S
H2373 C2365 0.960 . S
H2374 C2366 0.930 . S
H2375 C2367 0.929 . S
H2376 C2384 0.929 . S
H2377 C2386 0.930 . S
H2378 C2388 0.930 . S
H2379 C2391 0.929 . S
H2380 C2394 0.930 . S
H2381 C2396 0.960 1_545 S
H2382 C2396 0.960 . S
H2383 C2396 0.960 . S
C2384 H2376 0.929 . S
C2384 C2385 1.377 . S
C2384 C2386 1.384 . S
C2385 C2384 1.377 . S
C2385 C2391 1.390 . S
C2386 H2377 0.930 . S
C2386 C2384 1.384 . S
C2386 C2387 1.372 . S
C2387 C2386 1.372 . S
C2387 C2388 1.400 . S
C2387 C2392 1.490 . S
C2388 H2378 0.930 . S
C2388 C2387 1.400 . S
C2388 C2391 1.386 . S
H2389 C2405 0.930 . S
H2390 C2406 0.931 . S
C2391 H2379 0.929 . S
C2391 C2385 1.390 . S
C2391 C2388 1.386 . S
C2392 C2387 1.490 . S
C2392 C2394 1.395 . S
C2392 C2395 1.403 . S
H2393 C2399 0.930 . S
C2394 H2380 0.930 . S
C2394 C2392 1.395 . S
C2394 C2397 1.403 1_565 S
C2395 C2392 1.403 . S
C2395 C2396 1.524 . S
C2395 C2399 1.400 1_565 S
C2396 H2381 0.960 1_565 S
C2396 H2382 0.960 . S
C2396 H2383 0.960 . S
C2396 C2395 1.524 . S
C2397 C2394 1.403 1_545 S
C2397 C2398 1.392 . S
C2397 C2401 1.495 . S
C2398 C2397 1.392 . S
C2398 C2399 1.385 . S
C2398 C2400 1.478 . S
C2399 H2393 0.930 . S
C2399 C2395 1.400 1_545 S
C2399 C2398 1.385 . S
C2400 C2398 1.478 . S
C2400 C2402 1.381 . S
C2400 C2406 1.383 . S
C2401 C2397 1.495 . S
C2401 H2407 0.959 1_545 S
C2401 H2408 0.961 . S
C2401 H2409 0.960 . S
C2402 C2400 1.381 . S
C2402 C2403 1.394 . S
C2402 H2410 0.930 . S
C2403 C2402 1.394 . S
C2403 C2404 1.383 . S
C2403 H2411 0.929 . S
C2404 C2403 1.383 . S
C2404 C2405 1.377 . S
C2405 H2389 0.930 . S
C2405 C2404 1.377 . S
C2405 C2406 1.379 . S
C2406 H2390 0.931 . S
C2406 C2400 1.383 . S
C2406 C2405 1.379 . S
H2407 C2401 0.959 1_565 S
H2408 C2401 0.961 . S
H2409 C2401 0.960 . S
H2410 C2402 0.930 . S
H2411 C2403 0.929 . S
H2412 C2420 0.929 . S
H2413 C2422 0.930 . S
H2414 C2424 0.930 . S
H2415 C2427 0.929 . S
H2416 C2430 0.930 . S
H2417 C2432 0.960 1_655 S
H2418 C2432 0.960 . S
H2419 C2432 0.960 . S
C2420 H2412 0.929 . S
C2420 C2421 1.377 . S
C2420 C2422 1.384 . S
C2421 C2420 1.377 . S
C2421 C2427 1.390 . S
C2422 H2413 0.930 . S
C2422 C2420 1.384 . S
C2422 C2423 1.372 . S
C2423 C2422 1.372 . S
C2423 C2424 1.400 . S
C2423 C2428 1.490 . S
C2424 H2414 0.930 . S
C2424 C2423 1.400 . S
C2424 C2427 1.386 . S
H2425 C2441 0.930 . S
H2426 C2442 0.931 . S
C2427 H2415 0.929 . S
C2427 C2421 1.390 . S
C2427 C2424 1.386 . S
C2428 C2423 1.490 . S
C2428 C2430 1.395 . S
C2428 C2431 1.403 . S
H2429 C2435 0.930 . S
C2430 H2416 0.930 . S
C2430 C2428 1.395 . S
C2430 C2433 1.403 1_455 S
C2431 C2428 1.403 . S
C2431 C2432 1.524 . S
C2431 C2435 1.400 1_455 S
C2432 H2417 0.960 1_455 S
C2432 H2418 0.960 . S
C2432 H2419 0.960 . S
C2432 C2431 1.524 . S
C2433 C2430 1.403 1_655 S
C2433 C2434 1.392 . S
C2433 C2437 1.495 . S
C2434 C2433 1.392 . S
C2434 C2435 1.385 . S
C2434 C2436 1.478 . S
C2435 H2429 0.930 . S
C2435 C2431 1.400 1_655 S
C2435 C2434 1.385 . S
C2436 C2434 1.478 . S
C2436 C2438 1.381 . S
C2436 C2442 1.383 . S
C2437 C2433 1.495 . S
C2437 H2443 0.959 1_655 S
C2437 H2444 0.961 . S
C2437 H2445 0.960 . S
C2438 C2436 1.381 . S
C2438 C2439 1.394 . S
C2438 H2446 0.930 . S
C2439 C2438 1.394 . S
C2439 C2440 1.383 . S
C2439 H2447 0.929 . S
C2440 C2439 1.383 . S
C2440 C2441 1.377 . S
C2441 H2425 0.930 . S
C2441 C2440 1.377 . S
C2441 C2442 1.379 . S
C2442 H2426 0.931 . S
C2442 C2436 1.383 . S
C2442 C2441 1.379 . S
H2443 C2437 0.959 1_455 S
H2444 C2437 0.961 . S
H2445 C2437 0.960 . S
H2446 C2438 0.930 . S
H2447 C2439 0.929 . S
H2448 C2456 0.929 . S
H2449 C2458 0.930 1_556 S
H2450 C2460 0.930 1_556 S
H2451 C2463 0.929 . S
H2452 C2466 0.930 . S
H2453 C2468 0.960 . S
H2454 C2468 0.960 . S
H2455 C2468 0.960 . S
C2456 H2448 0.929 . S
C2456 C2457 1.377 . S
C2456 C2458 1.384 . S
C2457 C2456 1.377 . S
C2457 C2463 1.390 . S
C2458 H2449 0.930 1_554 S
C2458 C2456 1.384 . S
C2458 C2459 1.372 1_554 S
C2459 C2458 1.372 1_556 S
C2459 C2460 1.400 1_556 S
C2459 C2464 1.490 . S
C2460 H2450 0.930 1_554 S
C2460 C2459 1.400 1_554 S
C2460 C2463 1.386 . S
H2461 C2477 0.930 . S
H2462 C2478 0.931 . S
C2463 H2451 0.929 . S
C2463 C2457 1.390 . S
C2463 C2460 1.386 . S
C2464 C2459 1.490 . S
C2464 C2466 1.395 . S
C2464 C2467 1.403 . S
H2465 C2471 0.930 . S
C2466 H2452 0.930 . S
C2466 C2464 1.395 . S
C2466 C2469 1.403 . S
C2467 C2464 1.403 . S
C2467 C2468 1.524 . S
C2467 C2471 1.400 . S
C2468 H2453 0.960 . S
C2468 H2454 0.960 . S
C2468 H2455 0.960 . S
C2468 C2467 1.524 . S
C2469 C2466 1.403 . S
C2469 C2470 1.392 . S
C2469 C2473 1.495 . S
C2470 C2469 1.392 . S
C2470 C2471 1.385 . S
C2470 C2472 1.478 . S
C2471 H2465 0.930 . S
C2471 C2467 1.400 . S
C2471 C2470 1.385 . S
C2472 C2470 1.478 . S
C2472 C2474 1.381 . S
C2472 C2478 1.383 . S
C2473 C2469 1.495 . S
C2473 H2479 0.959 . S
C2473 H2480 0.961 . S
C2473 H2481 0.960 . S
C2474 C2472 1.381 . S
C2474 C2475 1.394 . S
C2474 H2482 0.930 . S
C2475 C2474 1.394 . S
C2475 C2476 1.383 . S
C2475 H2483 0.929 . S
C2476 C2475 1.383 . S
C2476 C2477 1.377 . S
C2477 H2461 0.930 . S
C2477 C2476 1.377 . S
C2477 C2478 1.379 . S
C2478 H2462 0.931 . S
C2478 C2472 1.383 . S
C2478 C2477 1.379 . S
H2479 C2473 0.959 . S
H2480 C2473 0.961 . S
H2481 C2473 0.960 . S
H2482 C2474 0.930 . S
H2483 C2475 0.929 . S
H2484 C2492 0.929 . S
H2485 C2494 0.930 1_556 S
H2486 C2496 0.930 1_556 S
H2487 C2499 0.929 . S
H2488 C2502 0.930 . S
H2489 C2504 0.960 . S
H2490 C2504 0.960 . S
H2491 C2504 0.960 . S
C2492 H2484 0.929 . S
C2492 C2493 1.377 . S
C2492 C2494 1.384 . S
C2493 C2492 1.377 . S
C2493 C2499 1.390 . S
C2494 H2485 0.930 1_554 S
C2494 C2492 1.384 . S
C2494 C2495 1.372 1_554 S
C2495 C2494 1.372 1_556 S
C2495 C2496 1.400 1_556 S
C2495 C2500 1.490 . S
C2496 H2486 0.930 1_554 S
C2496 C2495 1.400 1_554 S
C2496 C2499 1.386 . S
H2497 C2513 0.930 . S
H2498 C2514 0.931 . S
C2499 H2487 0.929 . S
C2499 C2493 1.390 . S
C2499 C2496 1.386 . S
C2500 C2495 1.490 . S
C2500 C2502 1.395 . S
C2500 C2503 1.403 . S
H2501 C2507 0.930 . S
C2502 H2488 0.930 . S
C2502 C2500 1.395 . S
C2502 C2505 1.403 . S
C2503 C2500 1.403 . S
C2503 C2504 1.524 . S
C2503 C2507 1.400 . S
C2504 H2489 0.960 . S
C2504 H2490 0.960 . S
C2504 H2491 0.960 . S
C2504 C2503 1.524 . S
C2505 C2502 1.403 . S
C2505 C2506 1.392 . S
C2505 C2509 1.495 . S
C2506 C2505 1.392 . S
C2506 C2507 1.385 . S
C2506 C2508 1.478 . S
C2507 H2501 0.930 . S
C2507 C2503 1.400 . S
C2507 C2506 1.385 . S
C2508 C2506 1.478 . S
C2508 C2510 1.381 . S
C2508 C2514 1.383 . S
C2509 C2505 1.495 . S
C2509 H2515 0.959 . S
C2509 H2516 0.961 . S
C2509 H2517 0.960 . S
C2510 C2508 1.381 . S
C2510 C2511 1.394 . S
C2510 H2518 0.930 . S
C2511 C2510 1.394 . S
C2511 C2512 1.383 . S
C2511 H2519 0.929 . S
C2512 C2511 1.383 . S
C2512 C2513 1.377 . S
C2513 H2497 0.930 . S
C2513 C2512 1.377 . S
C2513 C2514 1.379 . S
C2514 H2498 0.931 . S
C2514 C2508 1.383 . S
C2514 C2513 1.379 . S
H2515 C2509 0.959 . S
H2516 C2509 0.961 . S
H2517 C2509 0.960 . S
H2518 C2510 0.930 . S
H2519 C2511 0.929 . S
H2520 C2528 0.929 . S
H2521 C2530 0.930 1_556 S
H2522 C2532 0.930 1_556 S
H2523 C2535 0.929 . S
H2524 C2538 0.930 . S
H2525 C2540 0.960 . S
H2526 C2540 0.960 . S
H2527 C2540 0.960 . S
C2528 H2520 0.929 . S
C2528 C2529 1.377 . S
C2528 C2530 1.384 . S
C2529 C2528 1.377 . S
C2529 C2535 1.390 . S
C2530 H2521 0.930 1_554 S
C2530 C2528 1.384 . S
C2530 C2531 1.372 1_554 S
C2531 C2530 1.372 1_556 S
C2531 C2532 1.400 1_556 S
C2531 C2536 1.490 . S
C2532 H2522 0.930 1_554 S
C2532 C2531 1.400 1_554 S
C2532 C2535 1.386 . S
H2533 C2549 0.930 . S
H2534 C2550 0.931 . S
C2535 H2523 0.929 . S
C2535 C2529 1.390 . S
C2535 C2532 1.386 . S
C2536 C2531 1.490 . S
C2536 C2538 1.395 . S
C2536 C2539 1.403 . S
H2537 C2543 0.930 . S
C2538 H2524 0.930 . S
C2538 C2536 1.395 . S
C2538 C2541 1.403 . S
C2539 C2536 1.403 . S
C2539 C2540 1.524 . S
C2539 C2543 1.400 . S
C2540 H2525 0.960 . S
C2540 H2526 0.960 . S
C2540 H2527 0.960 . S
C2540 C2539 1.524 . S
C2541 C2538 1.403 . S
C2541 C2542 1.392 . S
C2541 C2545 1.495 . S
C2542 C2541 1.392 . S
C2542 C2543 1.385 . S
C2542 C2544 1.478 . S
C2543 H2537 0.930 . S
C2543 C2539 1.400 . S
C2543 C2542 1.385 . S
C2544 C2542 1.478 . S
C2544 C2546 1.381 . S
C2544 C2550 1.383 . S
C2545 C2541 1.495 . S
C2545 H2551 0.959 . S
C2545 H2552 0.961 . S
C2545 H2553 0.960 . S
C2546 C2544 1.381 . S
C2546 C2547 1.394 . S
C2546 H2554 0.930 . S
C2547 C2546 1.394 . S
C2547 C2548 1.383 . S
C2547 H2555 0.929 . S
C2548 C2547 1.383 . S
C2548 C2549 1.377 . S
C2549 H2533 0.930 . S
C2549 C2548 1.377 . S
C2549 C2550 1.379 . S
C2550 H2534 0.931 . S
C2550 C2544 1.383 . S
C2550 C2549 1.379 . S
H2551 C2545 0.959 . S
H2552 C2545 0.961 . S
H2553 C2545 0.960 . S
H2554 C2546 0.930 . S
H2555 C2547 0.929 . S
H2556 C2564 0.929 . S
H2557 C2566 0.930 . S
H2558 C2568 0.930 . S
H2559 C2571 0.929 . S
H2560 C2574 0.930 . S
H2561 C2576 0.960 . S
H2562 C2576 0.960 . S
H2563 C2576 0.960 . S
C2564 H2556 0.929 . S
C2564 C2565 1.377 . S
C2564 C2566 1.384 . S
C2565 C2564 1.377 . S
C2565 C2571 1.390 . S
C2566 H2557 0.930 . S
C2566 C2564 1.384 . S
C2566 C2567 1.372 . S
C2567 C2566 1.372 . S
C2567 C2568 1.400 . S
C2567 C2572 1.490 . S
C2568 H2558 0.930 . S
C2568 C2567 1.400 . S
C2568 C2571 1.386 . S
H2569 C2585 0.930 . S
H2570 C2586 0.931 . S
C2571 H2559 0.929 . S
C2571 C2565 1.390 . S
C2571 C2568 1.386 . S
C2572 C2567 1.490 . S
C2572 C2574 1.395 . S
C2572 C2575 1.403 . S
H2573 C2579 0.930 . S
C2574 H2560 0.930 . S
C2574 C2572 1.395 . S
C2574 C2577 1.403 . S
C2575 C2572 1.403 . S
C2575 C2576 1.524 . S
C2575 C2579 1.400 . S
C2576 H2561 0.960 . S
C2576 H2562 0.960 . S
C2576 H2563 0.960 . S
C2576 C2575 1.524 . S
C2577 C2574 1.403 . S
C2577 C2578 1.392 . S
C2577 C2581 1.495 . S
C2578 C2577 1.392 . S
C2578 C2579 1.385 . S
C2578 C2580 1.478 . S
C2579 H2573 0.930 . S
C2579 C2575 1.400 . S
C2579 C2578 1.385 . S
C2580 C2578 1.478 . S
C2580 C2582 1.381 . S
C2580 C2586 1.383 . S
C2581 C2577 1.495 . S
C2581 H2587 0.959 . S
C2581 H2588 0.961 . S
C2581 H2589 0.960 . S
C2582 C2580 1.381 . S
C2582 C2583 1.394 . S
C2582 H2590 0.930 . S
C2583 C2582 1.394 . S
C2583 C2584 1.383 . S
C2583 H2591 0.929 . S
C2584 C2583 1.383 . S
C2584 C2585 1.377 . S
C2585 H2569 0.930 . S
C2585 C2584 1.377 . S
C2585 C2586 1.379 . S
C2586 H2570 0.931 . S
C2586 C2580 1.383 . S
C2586 C2585 1.379 . S
H2587 C2581 0.959 . S
H2588 C2581 0.961 . S
H2589 C2581 0.960 . S
H2590 C2582 0.930 . S
H2591 C2583 0.929 . S
H2592 C2600 0.929 . S
H2593 C2602 0.930 . S
H2594 C2604 0.930 . S
H2595 C2607 0.929 . S
H2596 C2610 0.930 . S
H2597 C2612 0.960 . S
H2598 C2612 0.960 . S
H2599 C2612 0.960 . S
C2600 H2592 0.929 . S
C2600 C2601 1.377 . S
C2600 C2602 1.384 . S
C2601 C2600 1.377 . S
C2601 C2607 1.390 . S
C2602 H2593 0.930 . S
C2602 C2600 1.384 . S
C2602 C2603 1.372 . S
C2603 C2602 1.372 . S
C2603 C2604 1.400 . S
C2603 C2608 1.490 . S
C2604 H2594 0.930 . S
C2604 C2603 1.400 . S
C2604 C2607 1.386 . S
H2605 C2621 0.930 . S
H2606 C2622 0.931 . S
C2607 H2595 0.929 . S
C2607 C2601 1.390 . S
C2607 C2604 1.386 . S
C2608 C2603 1.490 . S
C2608 C2610 1.395 . S
C2608 C2611 1.403 . S
H2609 C2615 0.930 . S
C2610 H2596 0.930 . S
C2610 C2608 1.395 . S
C2610 C2613 1.403 . S
C2611 C2608 1.403 . S
C2611 C2612 1.524 . S
C2611 C2615 1.400 . S
C2612 H2597 0.960 . S
C2612 H2598 0.960 . S
C2612 H2599 0.960 . S
C2612 C2611 1.524 . S
C2613 C2610 1.403 . S
C2613 C2614 1.392 . S
C2613 C2617 1.495 . S
C2614 C2613 1.392 . S
C2614 C2615 1.385 . S
C2614 C2616 1.478 . S
C2615 H2609 0.930 . S
C2615 C2611 1.400 . S
C2615 C2614 1.385 . S
C2616 C2614 1.478 . S
C2616 C2618 1.381 . S
C2616 C2622 1.383 . S
C2617 C2613 1.495 . S
C2617 H2623 0.959 . S
C2617 H2624 0.961 . S
C2617 H2625 0.960 . S
C2618 C2616 1.381 . S
C2618 C2619 1.394 . S
C2618 H2626 0.930 . S
C2619 C2618 1.394 . S
C2619 C2620 1.383 . S
C2619 H2627 0.929 . S
C2620 C2619 1.383 . S
C2620 C2621 1.377 . S
C2621 H2605 0.930 . S
C2621 C2620 1.377 . S
C2621 C2622 1.379 . S
C2622 H2606 0.931 . S
C2622 C2616 1.383 . S
C2622 C2621 1.379 . S
H2623 C2617 0.959 . S
H2624 C2617 0.961 . S
H2625 C2617 0.960 . S
H2626 C2618 0.930 . S
H2627 C2619 0.929 . S
H2628 C2636 0.929 . S
H2629 C2638 0.930 . S
H2630 C2640 0.930 . S
H2631 C2643 0.929 . S
H2632 C2646 0.930 . S
H2633 C2648 0.960 . S
H2634 C2648 0.960 . S
H2635 C2648 0.960 . S
C2636 H2628 0.929 . S
C2636 C2637 1.377 . S
C2636 C2638 1.384 . S
C2637 C2636 1.377 . S
C2637 C2643 1.390 . S
C2638 H2629 0.930 . S
C2638 C2636 1.384 . S
C2638 C2639 1.372 . S
C2639 C2638 1.372 . S
C2639 C2640 1.400 . S
C2639 C2644 1.490 . S
C2640 H2630 0.930 . S
C2640 C2639 1.400 . S
C2640 C2643 1.386 . S
H2641 C2657 0.930 . S
H2642 C2658 0.931 . S
C2643 H2631 0.929 . S
C2643 C2637 1.390 . S
C2643 C2640 1.386 . S
C2644 C2639 1.490 . S
C2644 C2646 1.395 . S
C2644 C2647 1.403 . S
H2645 C2651 0.930 . S
C2646 H2632 0.930 . S
C2646 C2644 1.395 . S
C2646 C2649 1.403 . S
C2647 C2644 1.403 . S
C2647 C2648 1.524 . S
C2647 C2651 1.400 . S
C2648 H2633 0.960 . S
C2648 H2634 0.960 . S
C2648 H2635 0.960 . S
C2648 C2647 1.524 . S
C2649 C2646 1.403 . S
C2649 C2650 1.392 . S
C2649 C2653 1.495 . S
C2650 C2649 1.392 . S
C2650 C2651 1.385 . S
C2650 C2652 1.478 . S
C2651 H2645 0.930 . S
C2651 C2647 1.400 . S
C2651 C2650 1.385 . S
C2652 C2650 1.478 . S
C2652 C2654 1.381 . S
C2652 C2658 1.383 . S
C2653 C2649 1.495 . S
C2653 H2659 0.959 . S
C2653 H2660 0.961 . S
C2653 H2661 0.960 . S
C2654 C2652 1.381 . S
C2654 C2655 1.394 . S
C2654 H2662 0.930 . S
C2655 C2654 1.394 . S
C2655 C2656 1.383 . S
C2655 H2663 0.929 . S
C2656 C2655 1.383 . S
C2656 C2657 1.377 . S
C2657 H2641 0.930 . S
C2657 C2656 1.377 . S
C2657 C2658 1.379 . S
C2658 H2642 0.931 . S
C2658 C2652 1.383 . S
C2658 C2657 1.379 . S
H2659 C2653 0.959 . S
H2660 C2653 0.961 . S
H2661 C2653 0.960 . S
H2662 C2654 0.930 . S
H2663 C2655 0.929 . S
H2664 C2672 0.929 . S
H2665 C2674 0.930 . S
H2666 C2676 0.930 . S
H2667 C2679 0.929 . S
H2668 C2682 0.930 . S
H2669 C2684 0.960 . S
H2670 C2684 0.960 . S
H2671 C2684 0.960 . S
C2672 H2664 0.929 . S
C2672 C2673 1.377 . S
C2672 C2674 1.384 . S
C2673 C2672 1.377 . S
C2673 C2679 1.390 . S
C2674 H2665 0.930 . S
C2674 C2672 1.384 . S
C2674 C2675 1.372 . S
C2675 C2674 1.372 . S
C2675 C2676 1.400 . S
C2675 C2680 1.490 . S
C2676 H2666 0.930 . S
C2676 C2675 1.400 . S
C2676 C2679 1.386 . S
H2677 C2693 0.930 . S
H2678 C2694 0.931 1_554 S
C2679 H2667 0.929 . S
C2679 C2673 1.390 . S
C2679 C2676 1.386 . S
C2680 C2675 1.490 . S
C2680 C2682 1.395 . S
C2680 C2683 1.403 . S
H2681 C2687 0.930 . S
C2682 H2668 0.930 . S
C2682 C2680 1.395 . S
C2682 C2685 1.403 . S
C2683 C2680 1.403 . S
C2683 C2684 1.524 . S
C2683 C2687 1.400 . S
C2684 H2669 0.960 . S
C2684 H2670 0.960 . S
C2684 H2671 0.960 . S
C2684 C2683 1.524 . S
C2685 C2682 1.403 . S
C2685 C2686 1.392 . S
C2685 C2689 1.495 . S
C2686 C2685 1.392 . S
C2686 C2687 1.385 . S
C2686 C2688 1.478 . S
C2687 H2681 0.930 . S
C2687 C2683 1.400 . S
C2687 C2686 1.385 . S
C2688 C2686 1.478 . S
C2688 C2690 1.381 1_554 S
C2688 C2694 1.383 1_554 S
C2689 C2685 1.495 . S
C2689 H2695 0.959 . S
C2689 H2696 0.961 . S
C2689 H2697 0.960 . S
C2690 C2688 1.381 1_556 S
C2690 C2691 1.394 . S
C2690 H2698 0.930 1_556 S
C2691 C2690 1.394 . S
C2691 C2692 1.383 . S
C2691 H2699 0.929 . S
C2692 C2691 1.383 . S
C2692 C2693 1.377 . S
C2693 H2677 0.930 . S
C2693 C2692 1.377 . S
C2693 C2694 1.379 . S
C2694 H2678 0.931 1_556 S
C2694 C2688 1.383 1_556 S
C2694 C2693 1.379 . S
H2695 C2689 0.959 . S
H2696 C2689 0.961 . S
H2697 C2689 0.960 . S
H2698 C2690 0.930 1_554 S
H2699 C2691 0.929 . S
H2700 C2708 0.929 . S
H2701 C2710 0.930 . S
H2702 C2712 0.930 . S
H2703 C2715 0.929 . S
H2704 C2718 0.930 . S
H2705 C2720 0.960 . S
H2706 C2720 0.960 . S
H2707 C2720 0.960 . S
C2708 H2700 0.929 . S
C2708 C2709 1.377 . S
C2708 C2710 1.384 . S
C2709 C2708 1.377 . S
C2709 C2715 1.390 . S
C2710 H2701 0.930 . S
C2710 C2708 1.384 . S
C2710 C2711 1.372 . S
C2711 C2710 1.372 . S
C2711 C2712 1.400 . S
C2711 C2716 1.490 . S
C2712 H2702 0.930 . S
C2712 C2711 1.400 . S
C2712 C2715 1.386 . S
H2713 C2729 0.930 . S
H2714 C2730 0.931 1_554 S
C2715 H2703 0.929 . S
C2715 C2709 1.390 . S
C2715 C2712 1.386 . S
C2716 C2711 1.490 . S
C2716 C2718 1.395 . S
C2716 C2719 1.403 . S
H2717 C2723 0.930 . S
C2718 H2704 0.930 . S
C2718 C2716 1.395 . S
C2718 C2721 1.403 . S
C2719 C2716 1.403 . S
C2719 C2720 1.524 . S
C2719 C2723 1.400 . S
C2720 H2705 0.960 . S
C2720 H2706 0.960 . S
C2720 H2707 0.960 . S
C2720 C2719 1.524 . S
C2721 C2718 1.403 . S
C2721 C2722 1.392 . S
C2721 C2725 1.495 . S
C2722 C2721 1.392 . S
C2722 C2723 1.385 . S
C2722 C2724 1.478 . S
C2723 H2717 0.930 . S
C2723 C2719 1.400 . S
C2723 C2722 1.385 . S
C2724 C2722 1.478 . S
C2724 C2726 1.381 1_554 S
C2724 C2730 1.383 1_554 S
C2725 C2721 1.495 . S
C2725 H2731 0.959 . S
C2725 H2732 0.961 . S
C2725 H2733 0.960 . S
C2726 C2724 1.381 1_556 S
C2726 C2727 1.394 . S
C2726 H2734 0.930 1_556 S
C2727 C2726 1.394 . S
C2727 C2728 1.383 . S
C2727 H2735 0.929 . S
C2728 C2727 1.383 . S
C2728 C2729 1.377 . S
C2729 H2713 0.930 . S
C2729 C2728 1.377 . S
C2729 C2730 1.379 . S
C2730 H2714 0.931 1_556 S
C2730 C2724 1.383 1_556 S
C2730 C2729 1.379 . S
H2731 C2725 0.959 . S
H2732 C2725 0.961 . S
H2733 C2725 0.960 . S
H2734 C2726 0.930 1_554 S
H2735 C2727 0.929 . S
H2736 C2744 0.929 . S
H2737 C2746 0.930 . S
H2738 C2748 0.930 . S
H2739 C2751 0.929 . S
H2740 C2754 0.930 . S
H2741 C2756 0.960 . S
H2742 C2756 0.960 . S
H2743 C2756 0.960 . S
C2744 H2736 0.929 . S
C2744 C2745 1.377 . S
C2744 C2746 1.384 . S
C2745 C2744 1.377 . S
C2745 C2751 1.390 . S
C2746 H2737 0.930 . S
C2746 C2744 1.384 . S
C2746 C2747 1.372 . S
C2747 C2746 1.372 . S
C2747 C2748 1.400 . S
C2747 C2752 1.490 . S
C2748 H2738 0.930 . S
C2748 C2747 1.400 . S
C2748 C2751 1.386 . S
H2749 C2765 0.930 . S
H2750 C2766 0.931 1_554 S
C2751 H2739 0.929 . S
C2751 C2745 1.390 . S
C2751 C2748 1.386 . S
C2752 C2747 1.490 . S
C2752 C2754 1.395 . S
C2752 C2755 1.403 . S
H2753 C2759 0.930 . S
C2754 H2740 0.930 . S
C2754 C2752 1.395 . S
C2754 C2757 1.403 . S
C2755 C2752 1.403 . S
C2755 C2756 1.524 . S
C2755 C2759 1.400 . S
C2756 H2741 0.960 . S
C2756 H2742 0.960 . S
C2756 H2743 0.960 . S
C2756 C2755 1.524 . S
C2757 C2754 1.403 . S
C2757 C2758 1.392 . S
C2757 C2761 1.495 . S
C2758 C2757 1.392 . S
C2758 C2759 1.385 . S
C2758 C2760 1.478 . S
C2759 H2753 0.930 . S
C2759 C2755 1.400 . S
C2759 C2758 1.385 . S
C2760 C2758 1.478 . S
C2760 C2762 1.381 1_554 S
C2760 C2766 1.383 1_554 S
C2761 C2757 1.495 . S
C2761 H2767 0.959 . S
C2761 H2768 0.961 . S
C2761 H2769 0.960 . S
C2762 C2760 1.381 1_556 S
C2762 C2763 1.394 . S
C2762 H2770 0.930 1_556 S
C2763 C2762 1.394 . S
C2763 C2764 1.383 . S
C2763 H2771 0.929 . S
C2764 C2763 1.383 . S
C2764 C2765 1.377 . S
C2765 H2749 0.930 . S
C2765 C2764 1.377 . S
C2765 C2766 1.379 . S
C2766 H2750 0.931 1_556 S
C2766 C2760 1.383 1_556 S
C2766 C2765 1.379 . S
H2767 C2761 0.959 . S
H2768 C2761 0.961 . S
H2769 C2761 0.960 . S
H2770 C2762 0.930 1_554 S
H2771 C2763 0.929 . S
H2772 C2780 0.929 . S
H2773 C2782 0.930 . S
H2774 C2784 0.930 . S
H2775 C2787 0.929 . S
H2776 C2790 0.930 . S
H2777 C2792 0.960 . S
H2778 C2792 0.960 . S
H2779 C2792 0.960 . S
C2780 H2772 0.929 . S
C2780 C2781 1.377 . S
C2780 C2782 1.384 . S
C2781 C2780 1.377 . S
C2781 C2787 1.390 . S
C2782 H2773 0.930 . S
C2782 C2780 1.384 . S
C2782 C2783 1.372 . S
C2783 C2782 1.372 . S
C2783 C2784 1.400 . S
C2783 C2788 1.490 . S
C2784 H2774 0.930 . S
C2784 C2783 1.400 . S
C2784 C2787 1.386 . S
H2785 C2801 0.930 . S
H2786 C2802 0.931 . S
C2787 H2775 0.929 . S
C2787 C2781 1.390 . S
C2787 C2784 1.386 . S
C2788 C2783 1.490 . S
C2788 C2790 1.395 . S
C2788 C2791 1.403 . S
H2789 C2795 0.930 . S
C2790 H2776 0.930 . S
C2790 C2788 1.395 . S
C2790 C2793 1.403 . S
C2791 C2788 1.403 . S
C2791 C2792 1.524 . S
C2791 C2795 1.400 . S
C2792 H2777 0.960 . S
C2792 H2778 0.960 . S
C2792 H2779 0.960 . S
C2792 C2791 1.524 . S
C2793 C2790 1.403 . S
C2793 C2794 1.392 . S
C2793 C2797 1.495 . S
C2794 C2793 1.392 . S
C2794 C2795 1.385 . S
C2794 C2796 1.478 . S
C2795 H2789 0.930 . S
C2795 C2791 1.400 . S
C2795 C2794 1.385 . S
C2796 C2794 1.478 . S
C2796 C2798 1.381 . S
C2796 C2802 1.383 . S
C2797 C2793 1.495 . S
C2797 H2803 0.959 . S
C2797 H2804 0.961 . S
C2797 H2805 0.960 . S
C2798 C2796 1.381 . S
C2798 C2799 1.394 . S
C2798 H2806 0.930 . S
C2799 C2798 1.394 . S
C2799 C2800 1.383 . S
C2799 H2807 0.929 . S
C2800 C2799 1.383 . S
C2800 C2801 1.377 . S
C2801 H2785 0.930 . S
C2801 C2800 1.377 . S
C2801 C2802 1.379 . S
C2802 H2786 0.931 . S
C2802 C2796 1.383 . S
C2802 C2801 1.379 . S
H2803 C2797 0.959 . S
H2804 C2797 0.961 . S
H2805 C2797 0.960 . S
H2806 C2798 0.930 . S
H2807 C2799 0.929 . S
H2808 C2816 0.929 . S
H2809 C2818 0.930 . S
H2810 C2820 0.930 . S
H2811 C2823 0.929 . S
H2812 C2826 0.930 . S
H2813 C2828 0.960 . S
H2814 C2828 0.960 . S
H2815 C2828 0.960 . S
C2816 H2808 0.929 . S
C2816 C2817 1.377 . S
C2816 C2818 1.384 . S
C2817 C2816 1.377 . S
C2817 C2823 1.390 . S
C2818 H2809 0.930 . S
C2818 C2816 1.384 . S
C2818 C2819 1.372 . S
C2819 C2818 1.372 . S
C2819 C2820 1.400 . S
C2819 C2824 1.490 . S
C2820 H2810 0.930 . S
C2820 C2819 1.400 . S
C2820 C2823 1.386 . S
H2821 C2837 0.930 . S
H2822 C2838 0.931 . S
C2823 H2811 0.929 . S
C2823 C2817 1.390 . S
C2823 C2820 1.386 . S
C2824 C2819 1.490 . S
C2824 C2826 1.395 . S
C2824 C2827 1.403 . S
H2825 C2831 0.930 . S
C2826 H2812 0.930 . S
C2826 C2824 1.395 . S
C2826 C2829 1.403 . S
C2827 C2824 1.403 . S
C2827 C2828 1.524 . S
C2827 C2831 1.400 . S
C2828 H2813 0.960 . S
C2828 H2814 0.960 . S
C2828 H2815 0.960 . S
C2828 C2827 1.524 . S
C2829 C2826 1.403 . S
C2829 C2830 1.392 . S
C2829 C2833 1.495 . S
C2830 C2829 1.392 . S
C2830 C2831 1.385 . S
C2830 C2832 1.478 . S
C2831 H2825 0.930 . S
C2831 C2827 1.400 . S
C2831 C2830 1.385 . S
C2832 C2830 1.478 . S
C2832 C2834 1.381 . S
C2832 C2838 1.383 . S
C2833 C2829 1.495 . S
C2833 H2839 0.959 . S
C2833 H2840 0.961 . S
C2833 H2841 0.960 . S
C2834 C2832 1.381 . S
C2834 C2835 1.394 . S
C2834 H2842 0.930 . S
C2835 C2834 1.394 . S
C2835 C2836 1.383 . S
C2835 H2843 0.929 . S
C2836 C2835 1.383 . S
C2836 C2837 1.377 . S
C2837 H2821 0.930 . S
C2837 C2836 1.377 . S
C2837 C2838 1.379 . S
C2838 H2822 0.931 . S
C2838 C2832 1.383 . S
C2838 C2837 1.379 . S
H2839 C2833 0.959 . S
H2840 C2833 0.961 . S
H2841 C2833 0.960 . S
H2842 C2834 0.930 . S
H2843 C2835 0.929 . S
H2844 C2852 0.929 . S
H2845 C2854 0.930 . S
H2846 C2856 0.930 . S
H2847 C2859 0.929 . S
H2848 C2862 0.930 . S
H2849 C2864 0.960 . S
H2850 C2864 0.960 . S
H2851 C2864 0.960 . S
C2852 H2844 0.929 . S
C2852 C2853 1.377 . S
C2852 C2854 1.384 . S
C2853 C2852 1.377 . S
C2853 C2859 1.390 . S
C2854 H2845 0.930 . S
C2854 C2852 1.384 . S
C2854 C2855 1.372 . S
C2855 C2854 1.372 . S
C2855 C2856 1.400 . S
C2855 C2860 1.490 . S
C2856 H2846 0.930 . S
C2856 C2855 1.400 . S
C2856 C2859 1.386 . S
H2857 C2873 0.930 . S
H2858 C2874 0.931 . S
C2859 H2847 0.929 . S
C2859 C2853 1.390 . S
C2859 C2856 1.386 . S
C2860 C2855 1.490 . S
C2860 C2862 1.395 . S
C2860 C2863 1.403 . S
H2861 C2867 0.930 . S
C2862 H2848 0.930 . S
C2862 C2860 1.395 . S
C2862 C2865 1.403 . S
C2863 C2860 1.403 . S
C2863 C2864 1.524 . S
C2863 C2867 1.400 . S
C2864 H2849 0.960 . S
C2864 H2850 0.960 . S
C2864 H2851 0.960 . S
C2864 C2863 1.524 . S
C2865 C2862 1.403 . S
C2865 C2866 1.392 . S
C2865 C2869 1.495 . S
C2866 C2865 1.392 . S
C2866 C2867 1.385 . S
C2866 C2868 1.478 . S
C2867 H2861 0.930 . S
C2867 C2863 1.400 . S
C2867 C2866 1.385 . S
C2868 C2866 1.478 . S
C2868 C2870 1.381 . S
C2868 C2874 1.383 . S
C2869 C2865 1.495 . S
C2869 H2875 0.959 . S
C2869 H2876 0.961 . S
C2869 H2877 0.960 . S
C2870 C2868 1.381 . S
C2870 C2871 1.394 . S
C2870 H2878 0.930 . S
C2871 C2870 1.394 . S
C2871 C2872 1.383 . S
C2871 H2879 0.929 . S
C2872 C2871 1.383 . S
C2872 C2873 1.377 . S
C2873 H2857 0.930 . S
C2873 C2872 1.377 . S
C2873 C2874 1.379 . S
C2874 H2858 0.931 . S
C2874 C2868 1.383 . S
C2874 C2873 1.379 . S
H2875 C2869 0.959 . S
H2876 C2869 0.961 . S
H2877 C2869 0.960 . S
H2878 C2870 0.930 . S
H2879 C2871 0.929 . S
H2880 C2888 0.929 . S
H2881 C2890 0.930 . S
H2882 C2892 0.930 . S
H2883 C2895 0.929 . S
H2884 C2898 0.930 . S
H2885 C2900 0.960 . S
H2886 C2900 0.960 . S
H2887 C2900 0.960 . S
C2888 H2880 0.929 . S
C2888 C2889 1.377 1_455 S
C2888 C2890 1.384 . S
C2889 C2888 1.377 1_655 S
C2889 C2895 1.390 . S
C2890 H2881 0.930 . S
C2890 C2888 1.384 . S
C2890 C2891 1.372 1_455 S
C2891 C2890 1.372 1_655 S
C2891 C2892 1.400 . S
C2891 C2896 1.490 . S
C2892 H2882 0.930 . S
C2892 C2891 1.400 . S
C2892 C2895 1.386 . S
H2893 C2909 0.930 . S
H2894 C2910 0.931 . S
C2895 H2883 0.929 . S
C2895 C2889 1.390 . S
C2895 C2892 1.386 . S
C2896 C2891 1.490 . S
C2896 C2898 1.395 1_655 S
C2896 C2899 1.403 . S
H2897 C2903 0.930 . S
C2898 H2884 0.930 . S
C2898 C2896 1.395 1_455 S
C2898 C2901 1.403 . S
C2899 C2896 1.403 . S
C2899 C2900 1.524 . S
C2899 C2903 1.400 . S
C2900 H2885 0.960 . S
C2900 H2886 0.960 . S
C2900 H2887 0.960 . S
C2900 C2899 1.524 . S
C2901 C2898 1.403 . S
C2901 C2902 1.392 . S
C2901 C2905 1.495 . S
C2902 C2901 1.392 . S
C2902 C2903 1.385 1_455 S
C2902 C2904 1.478 . S
C2903 H2897 0.930 . S
C2903 C2899 1.400 . S
C2903 C2902 1.385 1_655 S
C2904 C2902 1.478 . S
C2904 C2906 1.381 . S
C2904 C2910 1.383 1_455 S
C2905 C2901 1.495 . S
C2905 H2911 0.959 . S
C2905 H2912 0.961 . S
C2905 H2913 0.960 . S
C2906 C2904 1.381 . S
C2906 C2907 1.394 . S
C2906 H2914 0.930 . S
C2907 C2906 1.394 . S
C2907 C2908 1.383 . S
C2907 H2915 0.929 . S
C2908 C2907 1.383 . S
C2908 C2909 1.377 1_455 S
C2909 H2893 0.930 . S
C2909 C2908 1.377 1_655 S
C2909 C2910 1.379 . S
C2910 H2894 0.931 . S
C2910 C2904 1.383 1_655 S
C2910 C2909 1.379 . S
H2911 C2905 0.959 . S
H2912 C2905 0.961 . S
H2913 C2905 0.960 . S
H2914 C2906 0.930 . S
H2915 C2907 0.929 . S
H2916 C2924 0.929 . S
H2917 C2926 0.930 . S
H2918 C2928 0.930 . S
H2919 C2931 0.929 . S
H2920 C2934 0.930 . S
H2921 C2936 0.960 . S
H2922 C2936 0.960 . S
H2923 C2936 0.960 . S
C2924 H2916 0.929 . S
C2924 C2925 1.377 . S
C2924 C2926 1.384 . S
C2925 C2924 1.377 . S
C2925 C2931 1.390 . S
C2926 H2917 0.930 . S
C2926 C2924 1.384 . S
C2926 C2927 1.372 . S
C2927 C2926 1.372 . S
C2927 C2928 1.400 . S
C2927 C2932 1.490 . S
C2928 H2918 0.930 . S
C2928 C2927 1.400 . S
C2928 C2931 1.386 . S
H2929 C2945 0.930 . S
H2930 C2946 0.931 . S
C2931 H2919 0.929 . S
C2931 C2925 1.390 . S
C2931 C2928 1.386 . S
C2932 C2927 1.490 . S
C2932 C2934 1.395 . S
C2932 C2935 1.403 . S
H2933 C2939 0.930 . S
C2934 H2920 0.930 . S
C2934 C2932 1.395 . S
C2934 C2937 1.403 . S
C2935 C2932 1.403 . S
C2935 C2936 1.524 . S
C2935 C2939 1.400 . S
C2936 H2921 0.960 . S
C2936 H2922 0.960 . S
C2936 H2923 0.960 . S
C2936 C2935 1.524 . S
C2937 C2934 1.403 . S
C2937 C2938 1.392 . S
C2937 C2941 1.495 . S
C2938 C2937 1.392 . S
C2938 C2939 1.385 . S
C2938 C2940 1.478 . S
C2939 H2933 0.930 . S
C2939 C2935 1.400 . S
C2939 C2938 1.385 . S
C2940 C2938 1.478 . S
C2940 C2942 1.381 . S
C2940 C2946 1.383 . S
C2941 C2937 1.495 . S
C2941 H2947 0.959 . S
C2941 H2948 0.961 . S
C2941 H2949 0.960 . S
C2942 C2940 1.381 . S
C2942 C2943 1.394 . S
C2942 H2950 0.930 . S
C2943 C2942 1.394 . S
C2943 C2944 1.383 . S
C2943 H2951 0.929 . S
C2944 C2943 1.383 . S
C2944 C2945 1.377 . S
C2945 H2929 0.930 . S
C2945 C2944 1.377 . S
C2945 C2946 1.379 . S
C2946 H2930 0.931 . S
C2946 C2940 1.383 . S
C2946 C2945 1.379 . S
H2947 C2941 0.959 . S
H2948 C2941 0.961 . S
H2949 C2941 0.960 . S
H2950 C2942 0.930 . S
H2951 C2943 0.929 . S
H2952 C2960 0.929 . S
H2953 C2962 0.930 . S
H2954 C2964 0.930 . S
H2955 C2967 0.929 . S
H2956 C2970 0.930 . S
H2957 C2972 0.960 . S
H2958 C2972 0.960 . S
H2959 C2972 0.960 . S
C2960 H2952 0.929 . S
C2960 C2961 1.377 1_545 S
C2960 C2962 1.384 . S
C2961 C2960 1.377 1_565 S
C2961 C2967 1.390 . S
C2962 H2953 0.930 . S
C2962 C2960 1.384 . S
C2962 C2963 1.309 1_545 S
C2963 C2962 1.309 1_565 S
C2963 C2964 1.474 . S
C2963 C2968 1.482 1_565 S
C2964 H2954 0.930 . S
C2964 C2963 1.474 . S
C2964 C2967 1.386 . S
H2965 C2981 0.892 1_565 S
H2966 C2982 0.927 1_565 S
C2967 H2955 0.929 . S
C2967 C2961 1.390 . S
C2967 C2964 1.386 . S
C2968 C2963 1.482 1_545 S
C2968 C2970 1.469 . S
C2968 C2971 1.346 1_545 S
H2969 C2975 0.930 . S
C2970 H2956 0.930 . S
C2970 C2968 1.469 . S
C2970 C2973 1.403 . S
C2971 C2968 1.346 1_565 S
C2971 C2972 1.524 . S
C2971 C2975 1.400 . S
C2972 H2957 0.960 . S
C2972 H2958 0.960 . S
C2972 H2959 0.960 . S
C2972 C2971 1.524 . S
C2973 C2970 1.403 . S
C2973 C2974 1.392 . S
C2973 C2977 1.495 . S
C2974 C2973 1.392 . S
C2974 C2975 1.385 1_545 S
C2974 C2976 1.478 . S
C2975 H2969 0.930 . S
C2975 C2971 1.400 . S
C2975 C2974 1.385 1_565 S
C2976 C2974 1.478 . S
C2976 C2978 1.381 . S
C2976 C2982 1.386 . S
C2977 C2973 1.495 . S
C2977 H2983 0.959 . S
C2977 H2984 0.961 . S
C2977 H2985 0.960 . S
C2978 C2976 1.381 . S
C2978 C2979 1.394 . S
C2978 H2986 0.930 . S
C2979 C2978 1.394 . S
C2979 C2980 1.383 . S
C2979 H2987 0.929 . S
C2980 C2979 1.383 . S
C2980 C2981 1.416 . S
C2981 H2965 0.892 1_545 S
C2981 C2980 1.416 . S
C2981 C2982 1.379 . S
C2982 H2966 0.927 1_545 S
C2982 C2976 1.386 . S
C2982 C2981 1.379 . S
H2983 C2977 0.959 . S
H2984 C2977 0.961 . S
H2985 C2977 0.960 . S
H2986 C2978 0.930 . S
H2987 C2979 0.929 . S
H2988 C2996 0.929 . S
H2989 C2998 0.930 . S
H2990 C3000 0.911 . S
H2991 C3003 0.929 . S
H2992 C3006 0.930 . S
H2993 C3008 0.960 . S
H2994 C3008 0.960 . S
H2995 C3008 0.960 . S
C2996 H2988 0.929 . S
C2996 C2997 1.377 . S
C2996 C2998 1.384 . S
C2997 C2996 1.377 . S
C2997 C3003 1.390 . S
C2998 H2989 0.930 . S
C2998 C2996 1.384 . S
C2998 C2999 1.372 . S
C2999 C2998 1.372 . S
C2999 C3000 1.400 . S
C2999 C3004 1.490 . S
C3000 H2990 0.911 . S
C3000 C2999 1.400 . S
C3000 C3003 1.386 . S
H3001 C3017 0.930 . S
H3002 C3018 0.931 . S
C3003 H2991 0.929 . S
C3003 C2997 1.390 . S
C3003 C3000 1.386 . S
C3004 C2999 1.490 . S
C3004 C3006 1.395 1_565 S
C3004 C3007 1.403 . S
H3005 C3011 0.930 . S
C3006 H2992 0.930 . S
C3006 C3004 1.395 1_545 S
C3006 C3009 1.403 . S
C3007 C3004 1.403 . S
C3007 C3008 1.524 . S
C3007 C3011 1.400 . S
C3008 H2993 0.960 . S
C3008 H2994 0.960 . S
C3008 H2995 0.960 . S
C3008 C3007 1.524 . S
C3009 C3006 1.403 . S
C3009 C3010 1.392 . S
C3009 C3013 1.495 . S
C3010 C3009 1.392 . S
C3010 C3011 1.385 1_545 S
C3010 C3012 1.478 . S
C3011 H3005 0.930 . S
C3011 C3007 1.400 . S
C3011 C3010 1.385 1_565 S
C3012 C3010 1.478 . S
C3012 C3014 1.380 . S
C3012 C3018 1.383 . S
C3013 C3009 1.495 . S
C3013 H3019 0.959 . S
C3013 H3020 0.961 . S
C3013 H3021 0.960 . S
C3014 C3012 1.380 . S
C3014 C3015 1.395 . S
C3014 H3022 0.931 1_545 S
C3015 C3014 1.395 . S
C3015 C3016 1.373 . S
C3015 H3023 0.945 1_545 S
C3016 C3015 1.373 . S
C3016 C3017 1.377 . S
C3017 H3001 0.930 . S
C3017 C3016 1.377 . S
C3017 C3018 1.379 . S
C3018 H3002 0.931 . S
C3018 C3012 1.383 . S
C3018 C3017 1.379 . S
H3019 C3013 0.959 . S
H3020 C3013 0.961 . S
H3021 C3013 0.960 . S
H3022 C3014 0.931 1_565 S
H3023 C3015 0.945 1_565 S
H3024 C3032 0.929 . S
H3025 C3034 0.930 . S
H3026 C3036 0.930 . S
H3027 C3039 0.929 . S
H3028 C3042 0.930 . S
H3029 C3044 0.960 . S
H3030 C3044 0.960 . S
H3031 C3044 0.960 . S
C3032 H3024 0.929 . S
C3032 C3033 1.377 1_455 S
C3032 C3034 1.384 . S
C3033 C3032 1.377 1_655 S
C3033 C3039 1.390 . S
C3034 H3025 0.930 . S
C3034 C3032 1.384 . S
C3034 C3035 1.345 1_455 S
C3035 C3034 1.345 1_655 S
C3035 C3036 1.430 . S
C3035 C3040 1.487 1_655 S
C3036 H3026 0.930 . S
C3036 C3035 1.430 . S
C3036 C3039 1.386 . S
H3037 C3053 0.930 . S
H3038 C3054 0.931 . S
C3039 H3027 0.929 . S
C3039 C3033 1.390 . S
C3039 C3036 1.386 . S
C3040 C3035 1.487 1_455 S
C3040 C3042 1.395 . S
C3040 C3043 1.403 1_455 S
H3041 C3047 0.930 . S
C3042 H3028 0.930 . S
C3042 C3040 1.395 . S
C3042 C3045 1.403 . S
C3043 C3040 1.403 1_655 S
C3043 C3044 1.524 . S
C3043 C3047 1.400 . S
C3044 H3029 0.960 . S
C3044 H3030 0.960 . S
C3044 H3031 0.960 . S
C3044 C3043 1.524 . S
C3045 C3042 1.403 . S
C3045 C3046 1.392 . S
C3045 C3049 1.495 . S
C3046 C3045 1.392 . S
C3046 C3047 1.385 1_455 S
C3046 C3048 1.478 . S
C3047 H3041 0.930 . S
C3047 C3043 1.400 . S
C3047 C3046 1.385 1_655 S
C3048 C3046 1.478 . S
C3048 C3050 1.381 . S
C3048 C3054 1.383 1_455 S
C3049 C3045 1.495 . S
C3049 H3055 0.959 . S
C3049 H3056 0.961 . S
C3049 H3057 0.960 . S
C3050 C3048 1.381 . S
C3050 C3051 1.394 . S
C3050 H3058 0.930 . S
C3051 C3050 1.394 . S
C3051 C3052 1.383 . S
C3051 H3059 0.929 . S
C3052 C3051 1.383 . S
C3052 C3053 1.377 1_455 S
C3053 H3037 0.930 . S
C3053 C3052 1.377 1_655 S
C3053 C3054 1.379 . S
C3054 H3038 0.931 . S
C3054 C3048 1.383 1_655 S
C3054 C3053 1.379 . S
H3055 C3049 0.959 . S
H3056 C3049 0.961 . S
H3057 C3049 0.960 . S
H3058 C3050 0.930 . S
H3059 C3051 0.929 . S
H3060 C3068 0.929 . S
H3061 C3070 0.930 . S
H3062 C3072 0.930 . S
H3063 C3075 0.929 . S
H3064 C3078 0.930 . S
H3065 C3080 0.960 . S
H3066 C3080 0.960 . S
H3067 C3080 0.960 . S
C3068 H3060 0.929 . S
C3068 C3069 1.377 . S
C3068 C3070 1.384 . S
C3069 C3068 1.377 . S
C3069 C3075 1.390 . S
C3070 H3061 0.930 . S
C3070 C3068 1.384 . S
C3070 C3071 1.372 . S
C3071 C3070 1.372 . S
C3071 C3072 1.400 . S
C3071 C3076 1.490 . S
C3072 H3062 0.930 . S
C3072 C3071 1.400 . S
C3072 C3075 1.386 . S
H3073 C3089 0.930 . S
H3074 C3090 0.931 . S
C3075 H3063 0.929 . S
C3075 C3069 1.390 . S
C3075 C3072 1.386 . S
C3076 C3071 1.490 . S
C3076 C3078 1.395 . S
C3076 C3079 1.403 . S
H3077 C3083 0.930 . S
C3078 H3064 0.930 . S
C3078 C3076 1.395 . S
C3078 C3081 1.403 . S
C3079 C3076 1.403 . S
C3079 C3080 1.524 . S
C3079 C3083 1.400 . S
C3080 H3065 0.960 . S
C3080 H3066 0.960 . S
C3080 H3067 0.960 . S
C3080 C3079 1.524 . S
C3081 C3078 1.403 . S
C3081 C3082 1.392 . S
C3081 C3085 1.495 . S
C3082 C3081 1.392 . S
C3082 C3083 1.385 . S
C3082 C3084 1.478 . S
C3083 H3077 0.930 . S
C3083 C3079 1.400 . S
C3083 C3082 1.385 . S
C3084 C3082 1.478 . S
C3084 C3086 1.381 . S
C3084 C3090 1.383 . S
C3085 C3081 1.495 . S
C3085 H3091 0.959 . S
C3085 H3092 0.961 . S
C3085 H3093 0.960 . S
C3086 C3084 1.381 . S
C3086 C3087 1.394 . S
C3086 H3094 0.930 . S
C3087 C3086 1.394 . S
C3087 C3088 1.383 . S
C3087 H3095 0.929 . S
C3088 C3087 1.383 . S
C3088 C3089 1.377 . S
C3089 H3073 0.930 . S
C3089 C3088 1.377 . S
C3089 C3090 1.379 . S
C3090 H3074 0.931 . S
C3090 C3084 1.383 . S
C3090 C3089 1.379 . S
H3091 C3085 0.959 . S
H3092 C3085 0.961 . S
H3093 C3085 0.960 . S
H3094 C3086 0.930 . S
H3095 C3087 0.929 . S
C513 C224 1.935 . S
C532 C13 1.934 . S
C549 C250 1.934 . S
C568 C15 1.931 . S
C585 C223 1.933 . S
C604 C29 1.928 . S
C621 C365 1.892 . S
C640 C55 1.892 . S
C657 C57 1.892 . S
C676 C349 1.887 . S
C693 C83 1.892 . S
C712 C350 1.890 . S
C729 C97 1.934 . S
C748 C476 1.931 . S
C765 C502 1.932 . S
C784 C99 1.933 . S
C801 C462 1.933 . S
C820 C112 1.932 . S
C837 C127 1.892 . S
C856 C293 1.886 . S
C873 C252 1.892 . S
C892 C140 1.884 . S
C909 C167 1.891 . S
C928 C267 1.892 . S
C945 C405 1.791 . S
C964 C168 1.786 . S
C981 C195 1.792 . S
C1000 C407 1.788 . S
C1017 C379 1.792 . S
C1036 C197 1.788 . S
C1053 C460 1.791 . S
C1072 C295 1.787 . S
C1089 C421 1.792 . S
C1108 C320 1.781 . S
C1125 C335 1.792 . S
C1144 C435 1.783 . S
C1161 C265 1.803 . S
C1180 C0 1.787 . S
C1197 C278 1.802 . S
C1216 C26 1.793 . S
C1233 C280 1.799 . S
C1252 C40 1.781 . S
C1269 C42 1.801 . S
C1288 C475 1.781 . S
C1305 C68 1.798 . S
C1324 C489 1.789 . S
C1341 C70 1.803 . S
C1360 C491 1.785 . S
C1377 C84 1.800 . S
C1396 C336 1.786 . S
C1413 C363 1.796 . S
C1432 C110 1.781 . S
C1449 C376 1.802 . S
C1468 C125 1.812 . S
C1485 C210 1.800 . S
C1504 C138 1.806 . S
C1521 C153 1.803 . S
C1540 C237 1.782 . S
C1557 C154 1.798 . S
C1576 C239 1.806 . S
C1593 C181 1.793 . S
C1612 C432 1.775 . S
C1629 C446 1.794 . S
C1648 C182 1.778 . S
C1665 C449 1.799 . S
C1684 C208 1.785 . S
C1701 C390 1.814 1_565 S
C1720 C306 1.820 1_545 S
C1737 C309 1.807 1_655 S
C1756 C392 1.793 . S
C1773 C322 1.810 . S
C1792 C418 1.823 . S
C1809 C391 1.834 . S
C1828 C1 1.823 . S
C1845 C27 1.828 . S
C1864 C393 1.828 . S
C1881 C41 1.833 . S
C1900 C419 1.830 . S
C1917 C180 1.800 . S
C1936 C43 1.797 . S
C1953 C69 1.798 . S
C1972 C183 1.784 . S
C1989 C71 1.796 . S
C2008 C209 1.800 . S
C2025 C307 1.832 . S
C2044 C85 1.837 . S
C2061 C111 1.833 . S
C2080 C308 1.820 . S
C2097 C323 1.834 . S
C2116 C124 1.824 . S
C2133 C139 1.799 . S
C2152 C433 1.785 . S
C2169 C447 1.799 . S
C2188 C152 1.783 . S
C2205 C448 1.794 . S
C2224 C155 1.803 . S
C2241 C337 1.815 . S
C2260 C211 1.807 . S
C2277 C362 1.813 . S
C2296 C236 1.815 . S
C2313 C377 1.812 . S
C2332 C238 1.818 . S
C2349 C264 1.813 . S
C2368 C474 1.804 . S
C2385 C488 1.810 . S
C2404 C279 1.818 . S
C2421 C490 1.812 . S
C2440 C281 1.807 . S
C2457 C12 0.778 . S
C2476 C225 0.786 . S
C2493 C14 0.778 . S
C2512 C251 0.786 . S
C2529 C28 0.779 . S
C2548 C222 0.788 . S
C2565 C364 0.818 . S
C2584 C54 0.813 . S
C2601 C348 0.818 . S
C2620 C56 0.813 . S
C2637 C351 0.818 . S
C2656 C82 0.808 . S
C2673 C477 0.775 . S
C2692 C96 0.779 . S
C2709 C503 0.777 . S
C2728 C98 0.768 . S
C2745 C463 0.777 . S
C2764 C113 0.770 . S
C2781 C126 0.820 . S
C2800 C292 0.826 . S
C2817 C141 0.822 . S
C2836 C253 0.809 . S
C2853 C166 0.820 . S
C2872 C266 0.810 . S
C2889 C404 0.929 . S
C2908 C169 0.933 . S
C2925 C406 0.930 . S
C2944 C194 0.940 . S
C2961 C196 0.930 . S
C2980 C378 0.936 . S
C2997 C294 0.929 . S
C3016 C461 0.935 . S
C3033 C420 0.927 . S
C3052 C321 0.942 . S
C3069 C434 0.927 . S
C3088 C334 0.935 . S
