# Generated by pormake.
# Topology umr, (4)-cn, num edge types: 1
# Building blocks:
#     Node 0, Type 0, BuildingBlock: KUFVIS_clean_sbu_0, # of connection points: 4
#     Node 1, Type 0, BuildingBlock: KUFVIS_clean_sbu_0, # of connection points: 4
#     Node 2, Type 0, BuildingBlock: KUFVIS_clean_sbu_0, # of connection points: 4
#     Node 3, Type 0, BuildingBlock: KUFVIS_clean_sbu_0, # of connection points: 4
#     Node 4, Type 0, BuildingBlock: KUFVIS_clean_sbu_0, # of connection points: 4
#     Node 5, Type 0, BuildingBlock: KUFVIS_clean_sbu_0, # of connection points: 4
#     Node 6, Type 0, BuildingBlock: KUFVIS_clean_sbu_0, # of connection points: 4
#     Node 7, Type 0, BuildingBlock: KUFVIS_clean_sbu_0, # of connection points: 4
#     Node 8, Type 0, BuildingBlock: KUFVIS_clean_sbu_0, # of connection points: 4
#     Node 9, Type 0, BuildingBlock: KUFVIS_clean_sbu_0, # of connection points: 4
#     Node 10, Type 0, BuildingBlock: KUFVIS_clean_sbu_0, # of connection points: 4
#     Node 11, Type 0, BuildingBlock: KUFVIS_clean_sbu_0, # of connection points: 4
#     Node 12, Type 0, BuildingBlock: KUFVIS_clean_sbu_0, # of connection points: 4
#     Node 13, Type 0, BuildingBlock: KUFVIS_clean_sbu_0, # of connection points: 4
#     Node 14, Type 0, BuildingBlock: KUFVIS_clean_sbu_0, # of connection points: 4
#     Node 15, Type 0, BuildingBlock: KUFVIS_clean_sbu_0, # of connection points: 4
#     Node 16, Type 0, BuildingBlock: KUFVIS_clean_sbu_0, # of connection points: 4
#     Node 17, Type 0, BuildingBlock: KUFVIS_clean_sbu_0, # of connection points: 4
#     Node 18, Type 0, BuildingBlock: KUFVIS_clean_sbu_0, # of connection points: 4
#     Node 19, Type 0, BuildingBlock: KUFVIS_clean_sbu_0, # of connection points: 4
#     Node 20, Type 0, BuildingBlock: KUFVIS_clean_sbu_0, # of connection points: 4
#     Node 21, Type 0, BuildingBlock: KUFVIS_clean_sbu_0, # of connection points: 4
#     Node 22, Type 0, BuildingBlock: KUFVIS_clean_sbu_0, # of connection points: 4
#     Node 23, Type 0, BuildingBlock: KUFVIS_clean_sbu_0, # of connection points: 4
#     Node 24, Type 0, BuildingBlock: KUFVIS_clean_sbu_0, # of connection points: 4
#     Node 25, Type 0, BuildingBlock: KUFVIS_clean_sbu_0, # of connection points: 4
#     Node 26, Type 0, BuildingBlock: KUFVIS_clean_sbu_0, # of connection points: 4
#     Node 27, Type 0, BuildingBlock: KUFVIS_clean_sbu_0, # of connection points: 4
#     Node 28, Type 0, BuildingBlock: KUFVIS_clean_sbu_0, # of connection points: 4
#     Node 29, Type 0, BuildingBlock: KUFVIS_clean_sbu_0, # of connection points: 4
#     Node 30, Type 0, BuildingBlock: KUFVIS_clean_sbu_0, # of connection points: 4
#     Node 31, Type 0, BuildingBlock: KUFVIS_clean_sbu_0, # of connection points: 4
#     Edge 32, Type (0, 0), BuildingBlock: XIVTED_clean_linker_0, # of connection points: 2
#     Edge 33, Type (0, 0), BuildingBlock: XIVTED_clean_linker_0, # of connection points: 2
#     Edge 34, Type (0, 0), BuildingBlock: XIVTED_clean_linker_0, # of connection points: 2
#     Edge 35, Type (0, 0), BuildingBlock: XIVTED_clean_linker_0, # of connection points: 2
#     Edge 36, Type (0, 0), BuildingBlock: XIVTED_clean_linker_0, # of connection points: 2
#     Edge 37, Type (0, 0), BuildingBlock: XIVTED_clean_linker_0, # of connection points: 2
#     Edge 38, Type (0, 0), BuildingBlock: XIVTED_clean_linker_0, # of connection points: 2
#     Edge 39, Type (0, 0), BuildingBlock: XIVTED_clean_linker_0, # of connection points: 2
#     Edge 40, Type (0, 0), BuildingBlock: XIVTED_clean_linker_0, # of connection points: 2
#     Edge 41, Type (0, 0), BuildingBlock: XIVTED_clean_linker_0, # of connection points: 2
#     Edge 42, Type (0, 0), BuildingBlock: XIVTED_clean_linker_0, # of connection points: 2
#     Edge 43, Type (0, 0), BuildingBlock: XIVTED_clean_linker_0, # of connection points: 2
#     Edge 44, Type (0, 0), BuildingBlock: XIVTED_clean_linker_0, # of connection points: 2
#     Edge 45, Type (0, 0), BuildingBlock: XIVTED_clean_linker_0, # of connection points: 2
#     Edge 46, Type (0, 0), BuildingBlock: XIVTED_clean_linker_0, # of connection points: 2
#     Edge 47, Type (0, 0), BuildingBlock: XIVTED_clean_linker_0, # of connection points: 2
#     Edge 48, Type (0, 0), BuildingBlock: XIVTED_clean_linker_0, # of connection points: 2
#     Edge 49, Type (0, 0), BuildingBlock: XIVTED_clean_linker_0, # of connection points: 2
#     Edge 50, Type (0, 0), BuildingBlock: XIVTED_clean_linker_0, # of connection points: 2
#     Edge 51, Type (0, 0), BuildingBlock: XIVTED_clean_linker_0, # of connection points: 2
#     Edge 52, Type (0, 0), BuildingBlock: XIVTED_clean_linker_0, # of connection points: 2
#     Edge 53, Type (0, 0), BuildingBlock: XIVTED_clean_linker_0, # of connection points: 2
#     Edge 54, Type (0, 0), BuildingBlock: XIVTED_clean_linker_0, # of connection points: 2
#     Edge 55, Type (0, 0), BuildingBlock: XIVTED_clean_linker_0, # of connection points: 2
#     Edge 56, Type (0, 0), BuildingBlock: XIVTED_clean_linker_0, # of connection points: 2
#     Edge 57, Type (0, 0), BuildingBlock: XIVTED_clean_linker_0, # of connection points: 2
#     Edge 58, Type (0, 0), BuildingBlock: XIVTED_clean_linker_0, # of connection points: 2
#     Edge 59, Type (0, 0), BuildingBlock: XIVTED_clean_linker_0, # of connection points: 2
#     Edge 60, Type (0, 0), BuildingBlock: XIVTED_clean_linker_0, # of connection points: 2
#     Edge 61, Type (0, 0), BuildingBlock: XIVTED_clean_linker_0, # of connection points: 2
#     Edge 62, Type (0, 0), BuildingBlock: XIVTED_clean_linker_0, # of connection points: 2
#     Edge 63, Type (0, 0), BuildingBlock: XIVTED_clean_linker_0, # of connection points: 2
#     Edge 64, Type (0, 0), BuildingBlock: XIVTED_clean_linker_0, # of connection points: 2
#     Edge 65, Type (0, 0), BuildingBlock: XIVTED_clean_linker_0, # of connection points: 2
#     Edge 66, Type (0, 0), BuildingBlock: XIVTED_clean_linker_0, # of connection points: 2
#     Edge 67, Type (0, 0), BuildingBlock: XIVTED_clean_linker_0, # of connection points: 2
#     Edge 68, Type (0, 0), BuildingBlock: XIVTED_clean_linker_0, # of connection points: 2
#     Edge 69, Type (0, 0), BuildingBlock: XIVTED_clean_linker_0, # of connection points: 2
#     Edge 70, Type (0, 0), BuildingBlock: XIVTED_clean_linker_0, # of connection points: 2
#     Edge 71, Type (0, 0), BuildingBlock: XIVTED_clean_linker_0, # of connection points: 2
#     Edge 72, Type (0, 0), BuildingBlock: XIVTED_clean_linker_0, # of connection points: 2
#     Edge 73, Type (0, 0), BuildingBlock: XIVTED_clean_linker_0, # of connection points: 2
#     Edge 74, Type (0, 0), BuildingBlock: XIVTED_clean_linker_0, # of connection points: 2
#     Edge 75, Type (0, 0), BuildingBlock: XIVTED_clean_linker_0, # of connection points: 2
#     Edge 76, Type (0, 0), BuildingBlock: XIVTED_clean_linker_0, # of connection points: 2
#     Edge 77, Type (0, 0), BuildingBlock: XIVTED_clean_linker_0, # of connection points: 2
#     Edge 78, Type (0, 0), BuildingBlock: XIVTED_clean_linker_0, # of connection points: 2
#     Edge 79, Type (0, 0), BuildingBlock: XIVTED_clean_linker_0, # of connection points: 2
#     Edge 80, Type (0, 0), BuildingBlock: XIVTED_clean_linker_0, # of connection points: 2
#     Edge 81, Type (0, 0), BuildingBlock: XIVTED_clean_linker_0, # of connection points: 2
#     Edge 82, Type (0, 0), BuildingBlock: XIVTED_clean_linker_0, # of connection points: 2
#     Edge 83, Type (0, 0), BuildingBlock: XIVTED_clean_linker_0, # of connection points: 2
#     Edge 84, Type (0, 0), BuildingBlock: XIVTED_clean_linker_0, # of connection points: 2
#     Edge 85, Type (0, 0), BuildingBlock: XIVTED_clean_linker_0, # of connection points: 2
#     Edge 86, Type (0, 0), BuildingBlock: XIVTED_clean_linker_0, # of connection points: 2
#     Edge 87, Type (0, 0), BuildingBlock: XIVTED_clean_linker_0, # of connection points: 2
#     Edge 88, Type (0, 0), BuildingBlock: XIVTED_clean_linker_0, # of connection points: 2
#     Edge 89, Type (0, 0), BuildingBlock: XIVTED_clean_linker_0, # of connection points: 2
#     Edge 90, Type (0, 0), BuildingBlock: XIVTED_clean_linker_0, # of connection points: 2
#     Edge 91, Type (0, 0), BuildingBlock: XIVTED_clean_linker_0, # of connection points: 2
#     Edge 92, Type (0, 0), BuildingBlock: XIVTED_clean_linker_0, # of connection points: 2
#     Edge 93, Type (0, 0), BuildingBlock: XIVTED_clean_linker_0, # of connection points: 2
#     Edge 94, Type (0, 0), BuildingBlock: XIVTED_clean_linker_0, # of connection points: 2
#     Edge 95, Type (0, 0), BuildingBlock: XIVTED_clean_linker_0, # of connection points: 2
# Relax obj value: 0.103
# Max RMSD: 0.115
# Mean RMSD: 0.115
data_MOF--net-umr--node1-KUFVIS_clean_sbu_0--edge1-XIVTED_clean_linker_0
_symmetry_space_group_name_H-M    P1
_symmetry_Int_Tables_number       1
_symmetry_cell_setting            triclinic
loop_
_symmetry_equiv_pos_as_xyz
'x, y, z'
_cell_length_a     85.27545
_cell_length_b     85.27642
_cell_length_c     25.628531
_cell_angle_alpha  90.004614
_cell_angle_beta   89.995974
_cell_angle_gamma 89.996243
loop_
_atom_site_label
_atom_site_type_symbol
_atom_site_fract_x
_atom_site_fract_y
_atom_site_fract_z
_atom_type_partial_charge
Mn0 Mn 0.16678 0.29549 0.01753 0.0
Mn1 Mn 0.13387 0.27419 0.00159 0.0
C2 C 0.15767 0.28936 0.93466 0.0
C3 C 0.1942 0.29595 0.02321 0.0
C4 C 0.13387 0.30813 0.03944 0.0
O5 O 0.16407 0.28474 0.08829 0.0
O6 O 0.14328 0.26916 0.07029 0.0
C7 C 0.14734 0.24222 0.99671 0.0
N8 N 0.13889 0.25395 0.97413 0.0
C9 C 0.13461 0.23848 0.89687 0.0
C10 C 0.14321 0.22621 0.91941 0.0
C11 C 0.14961 0.2281 0.96953 0.0
C12 C 0.13263 0.25224 0.92599 0.0
H13 H 0.15237 0.24365 0.0351 0.0
C14 C 0.15434 0.27386 0.10042 0.0
O15 O 0.18584 0.30766 0.04014 0.0
O16 O 0.18662 0.28396 0.00551 0.0
N17 N 0.12419 0.27804 0.9354 0.0
C18 C 0.11714 0.29137 0.91783 0.0
C19 C 0.11056 0.29161 0.8676 0.0
C20 C 0.11131 0.27817 0.83599 0.0
C21 C 0.11863 0.26459 0.85492 0.0
C22 C 0.12485 0.265 0.90547 0.0
H23 H 0.11659 0.30175 0.94187 0.0
O24 O 0.16667 0.30147 0.94138 0.0
O25 O 0.15385 0.28198 0.97678 0.0
O26 O 0.1486 0.31067 0.03474 0.0
O27 O 0.12753 0.2949 0.02895 0.0
C28 C 0.12029 0.25079 0.82519 0.0
C29 C 0.12828 0.23775 0.84615 0.0
H30 H 0.14511 0.21536 0.89838 0.0
H31 H 0.15634 0.21872 0.98707 0.0
H32 H 0.10499 0.30216 0.85319 0.0
H33 H 0.10636 0.27846 0.79709 0.0
H34 H 0.11567 0.25016 0.78587 0.0
H35 H 0.12969 0.22729 0.82261 0.0
Mn36 Mn 0.95854 0.91723 0.27071 0.0
Mn37 Mn 0.97924 0.8843 0.24836 0.0
C38 C 0.96261 0.90831 0.1862 0.0
C39 C 0.95846 0.94465 0.27733 0.0
C40 C 0.94634 0.88442 0.29544 0.0
O41 O 0.9708 0.91412 0.3387 0.0
O42 O 0.98617 0.89365 0.31522 0.0
C43 C 0.01096 0.89768 0.23347 0.0
N44 N 0.99865 0.88919 0.21478 0.0
C45 C 0.012 0.88455 0.13348 0.0
C46 C 0.02485 0.89317 0.15197 0.0
C47 C 0.02431 0.89979 0.20215 0.0
C48 C 0.99904 0.88278 0.16654 0.0
H49 H 0.01056 0.90286 0.2719 0.0
C50 C 0.98205 0.90446 0.34726 0.0
O51 O 0.94711 0.93634 0.29693 0.0
O52 O 0.96998 0.93702 0.25663 0.0
N53 N 0.97353 0.87459 0.18372 0.0
C54 C 0.95976 0.86754 0.17043 0.0
C55 C 0.95817 0.86074 0.1208 0.0
C56 C 0.97075 0.86125 0.08541 0.0
C57 C 0.98481 0.86855 0.1 0.0
C58 C 0.98575 0.87502 0.15014 0.0
H59 H 0.95005 0.86714 0.19743 0.0
O60 O 0.95085 0.91748 0.19623 0.0
O61 O 0.97092 0.90432 0.22615 0.0
O62 O 0.94362 0.89912 0.29074 0.0
O63 O 0.95933 0.8781 0.282 0.0
C64 C 0.99781 0.86996 0.06637 0.0
C65 C 0.01138 0.87797 0.08307 0.0
H66 H 0.03511 0.89492 0.12779 0.0
H67 H 0.03414 0.90654 0.21658 0.0
H68 H 0.94726 0.85517 0.10977 0.0
H69 H 0.96942 0.85611 0.047 0.0
H70 H 0.99739 0.86515 0.02727 0.0
H71 H 0.02119 0.87921 0.05654 0.0
Mn72 Mn 0.33736 0.70854 0.51857 0.0
Mn73 Mn 0.37029 0.72912 0.49482 0.0
C74 C 0.34585 0.71272 0.43372 0.0
C75 C 0.31001 0.70861 0.52727 0.0
C76 C 0.37029 0.69601 0.54015 0.0
O77 O 0.34089 0.72056 0.58667 0.0
O78 O 0.36147 0.73572 0.56291 0.0
C79 C 0.35689 0.76096 0.4832 0.0
N80 N 0.36522 0.74876 0.46299 0.0
C81 C 0.36922 0.76256 0.38216 0.0
C82 C 0.36076 0.7753 0.40221 0.0
C83 C 0.35455 0.77449 0.45293 0.0
C84 C 0.37126 0.74942 0.41426 0.0
H85 H 0.35202 0.76035 0.52203 0.0
C86 C 0.35075 0.73162 0.5953 0.0
O87 O 0.31838 0.69713 0.54577 0.0
O88 O 0.31757 0.72013 0.5062 0.0
N89 N 0.37953 0.7238 0.42906 0.0
C90 C 0.38648 0.71012 0.41429 0.0
C91 C 0.39292 0.70882 0.36403 0.0
C92 C 0.39216 0.7216 0.32954 0.0
C93 C 0.38497 0.73558 0.34564 0.0
C94 C 0.37888 0.73622 0.39634 0.0
H95 H 0.38707 0.70024 0.4406 0.0
O96 O 0.33666 0.701 0.44405 0.0
O97 O 0.35008 0.72099 0.47352 0.0
O98 O 0.35552 0.6935 0.53702 0.0
O99 O 0.37665 0.70897 0.52652 0.0
C100 C 0.38329 0.74876 0.31295 0.0
C101 C 0.3754 0.76223 0.33117 0.0
H102 H 0.35882 0.78571 0.37885 0.0
H103 H 0.34793 0.78424 0.46857 0.0
H104 H 0.3984 0.69798 0.35182 0.0
H105 H 0.397 0.72051 0.29063 0.0
H106 H 0.38779 0.74857 0.27343 0.0
H107 H 0.37394 0.77219 0.30537 0.0
Mn108 Mn 0.5456 0.08766 0.76372 0.0
Mn109 Mn 0.52485 0.12061 0.74181 0.0
C110 C 0.54138 0.09657 0.6793 0.0
C111 C 0.54566 0.06027 0.771 0.0
C112 C 0.55791 0.12051 0.78763 0.0
O113 O 0.53352 0.09079 0.83196 0.0
O114 O 0.51817 0.11132 0.80911 0.0
C115 C 0.4931 0.10714 0.72853 0.0
N116 N 0.50531 0.11564 0.70918 0.0
C117 C 0.49168 0.12004 0.62827 0.0
C118 C 0.47893 0.11141 0.64745 0.0
C119 C 0.47966 0.10492 0.69777 0.0
C120 C 0.50473 0.12195 0.66082 0.0
H121 H 0.49365 0.10204 0.76705 0.0
C122 C 0.52233 0.10048 0.84094 0.0
O123 O 0.55709 0.0686 0.79 0.0
O124 O 0.53413 0.06787 0.75019 0.0
N125 N 0.53028 0.13026 0.67681 0.0
C126 C 0.54397 0.13734 0.66283 0.0
C127 C 0.54535 0.14407 0.61302 0.0
C128 C 0.53265 0.14345 0.57816 0.0
C129 C 0.51867 0.13612 0.59345 0.0
C130 C 0.51793 0.12974 0.64374 0.0
H131 H 0.55378 0.13782 0.68941 0.0
O132 O 0.55314 0.08738 0.68912 0.0
O133 O 0.53311 0.10056 0.71938 0.0
O134 O 0.56055 0.10579 0.78327 0.0
O135 O 0.54491 0.12687 0.77445 0.0
C136 C 0.50557 0.13457 0.56032 0.0
C137 C 0.49209 0.12651 0.57769 0.0
H138 H 0.46859 0.10956 0.62369 0.0
H139 H 0.4699 0.09816 0.71273 0.0
H140 H 0.55619 0.14966 0.60145 0.0
H141 H 0.53381 0.14852 0.5396 0.0
H142 H 0.50583 0.13929 0.5211 0.0
H143 H 0.4822 0.12516 0.55154 0.0
Mn144 Mn 0.16599 0.70916 0.47923 0.0
Mn145 Mn 0.13304 0.73002 0.49979 0.0
C146 C 0.15679 0.71344 0.56327 0.0
C147 C 0.19341 0.70881 0.47329 0.0
C148 C 0.13319 0.69699 0.45383 0.0
O149 O 0.1632 0.72131 0.41089 0.0
O150 O 0.1426 0.73668 0.43292 0.0
C151 C 0.14654 0.76173 0.51371 0.0
N152 N 0.13795 0.74953 0.5327 0.0
C153 C 0.13334 0.76313 0.61356 0.0
C154 C 0.14207 0.77587 0.59475 0.0
C155 C 0.14871 0.77515 0.54463 0.0
C156 C 0.13149 0.75011 0.58084 0.0
H157 H 0.15175 0.76119 0.47536 0.0
C158 C 0.15357 0.73252 0.40156 0.0
O159 O 0.18502 0.69751 0.45372 0.0
O160 O 0.18585 0.72044 0.49372 0.0
N161 N 0.12314 0.7246 0.56439 0.0
C162 C 0.11598 0.71092 0.57805 0.0
C163 C 0.10911 0.70953 0.62763 0.0
C164 C 0.10966 0.72221 0.66261 0.0
C165 C 0.11709 0.73617 0.64766 0.0
C166 C 0.12361 0.73692 0.59757 0.0
H167 H 0.11556 0.70113 0.55138 0.0
O168 O 0.16592 0.70161 0.55383 0.0
O169 O 0.15299 0.72172 0.52301 0.0
O170 O 0.14788 0.69432 0.45887 0.0
O171 O 0.12681 0.71 0.46677 0.0
C172 C 0.11859 0.74924 0.68094 0.0
C173 C 0.12673 0.7627 0.66393 0.0
H174 H 0.14388 0.78619 0.61864 0.0
H175 H 0.15553 0.7849 0.52996 0.0
H176 H 0.10345 0.6987 0.63895 0.0
H177 H 0.10448 0.72103 0.701 0.0
H178 H 0.11375 0.74897 0.72001 0.0
H179 H 0.12803 0.77257 0.69019 0.0
Mn180 Mn 0.54491 0.91607 0.72885 0.0
Mn181 Mn 0.52336 0.88361 0.75015 0.0
C182 C 0.54014 0.90735 0.81316 0.0
C183 C 0.54562 0.94345 0.72136 0.0
C184 C 0.55662 0.88292 0.70602 0.0
O185 O 0.53306 0.91315 0.66009 0.0
O186 O 0.51719 0.89297 0.68241 0.0
C187 C 0.49185 0.89779 0.76166 0.0
N188 N 0.50377 0.88903 0.7817 0.0
C189 C 0.48961 0.88489 0.86176 0.0
C190 C 0.47714 0.89378 0.84183 0.0
C191 C 0.47828 0.90028 0.7916 0.0
C192 C 0.5028 0.88274 0.83001 0.0
H193 H 0.49272 0.90289 0.7232 0.0
C194 C 0.52171 0.90369 0.65069 0.0
O195 O 0.55693 0.93484 0.70292 0.0
O196 O 0.53384 0.93613 0.7417 0.0
N197 N 0.52826 0.87392 0.81554 0.0
C198 C 0.54173 0.86656 0.83033 0.0
C199 C 0.54271 0.85984 0.88025 0.0
C200 C 0.52985 0.86074 0.91438 0.0
C201 C 0.5161 0.86834 0.89825 0.0
C202 C 0.51576 0.8747 0.8479 0.0
H203 H 0.55166 0.86587 0.80431 0.0
O204 O 0.55214 0.91626 0.8038 0.0
O205 O 0.53195 0.90351 0.77276 0.0
O206 O 0.55954 0.89759 0.71015 0.0
O207 O 0.54342 0.87687 0.71868 0.0
C208 C 0.50285 0.87014 0.93057 0.0
C209 C 0.48962 0.87842 0.91236 0.0
H210 H 0.46671 0.89583 0.86496 0.0
H211 H 0.46875 0.90724 0.77608 0.0
H212 H 0.55338 0.85404 0.89248 0.0
H213 H 0.53071 0.85567 0.95303 0.0
H214 H 0.50281 0.86542 0.96981 0.0
H215 H 0.47961 0.87996 0.93789 0.0
Mn216 Mn 0.33806 0.29572 0.97348 0.0
Mn217 Mn 0.37065 0.27443 0.99554 0.0
C218 C 0.34663 0.291 0.05797 0.0
C219 C 0.31068 0.29625 0.96565 0.0
C220 C 0.37117 0.30774 0.95178 0.0
O221 O 0.34122 0.28391 0.90472 0.0
O222 O 0.36155 0.26828 0.92739 0.0
C223 C 0.35671 0.24279 0.00606 0.0
N224 N 0.36531 0.25476 0.02658 0.0
C225 C 0.36936 0.2405 0.10651 0.0
C226 C 0.36063 0.22799 0.08609 0.0
C227 C 0.35426 0.22916 0.03569 0.0
C228 C 0.37148 0.25376 0.07506 0.0
H229 H 0.35171 0.24368 0.96747 0.0
C230 C 0.35085 0.2727 0.89544 0.0
O231 O 0.31923 0.30761 0.94731 0.0
O232 O 0.31806 0.28449 0.9859 0.0
N233 N 0.38012 0.27932 0.0613 0.0
C234 C 0.38733 0.29282 0.07655 0.0
C235 C 0.3939 0.29378 0.12669 0.0
C236 C 0.39302 0.28086 0.16057 0.0
C237 C 0.38558 0.26707 0.14396 0.0
C238 C 0.37936 0.26676 0.09341 0.0
H239 H 0.38801 0.3028 0.05072 0.0
O240 O 0.33766 0.30294 0.04843 0.0
O241 O 0.35062 0.28283 0.01766 0.0
O242 O 0.35645 0.3105 0.95528 0.0
O243 O 0.37731 0.2946 0.96463 0.0
C244 C 0.38381 0.25376 0.17599 0.0
C245 C 0.37569 0.24049 0.1573 0.0
H246 H 0.3586 0.2175 0.10897 0.0
H247 H 0.34742 0.21959 0.01979 0.0
H248 H 0.39958 0.30448 0.13927 0.0
H249 H 0.39798 0.2817 0.19938 0.0
H250 H 0.38843 0.2537 0.21537 0.0
H251 H 0.37417 0.23043 0.1826 0.0
Mn252 Mn 0.95934 0.0883 0.22341 0.0
Mn253 Mn 0.97997 0.12131 0.2453 0.0
C254 C 0.96429 0.0968 0.3079 0.0
C255 C 0.9593 0.06092 0.21562 0.0
C256 C 0.94661 0.12115 0.202 0.0
O257 O 0.97098 0.09175 0.15442 0.0
O258 O 0.98622 0.11241 0.17699 0.0
C259 C 0.012 0.10823 0.25499 0.0
N260 N 0.9998 0.11639 0.27601 0.0
C261 C 0.01393 0.12035 0.35624 0.0
C262 C 0.02667 0.11206 0.33534 0.0
C263 C 0.02569 0.10597 0.28452 0.0
C264 C 1.00063 0.12233 0.32483 0.0
H265 H 0.01126 0.10343 0.21607 0.0
C266 C 0.982 0.10161 0.14506 0.0
O267 O 0.94773 0.06926 0.19764 0.0
O268 O 0.971 0.06851 0.23533 0.0
N269 N 0.9749 0.13048 0.31139 0.0
C270 C 0.96121 0.13723 0.32704 0.0
C271 C 0.96005 0.14347 0.3776 0.0
C272 C 0.97297 0.1427 0.41152 0.0
C273 C 0.98694 0.1357 0.39455 0.0
C274 C 0.98745 0.12981 0.34357 0.0
H275 H 0.95122 0.1378 0.30121 0.0
O276 O 0.95242 0.0877 0.29869 0.0
O277 O 0.97211 0.10107 0.26718 0.0
O278 O 0.94414 0.10639 0.20577 0.0
O279 O 0.95963 0.12756 0.21466 0.0
C280 C 1.00027 0.13403 0.42659 0.0
C281 C 0.01375 0.12636 0.40746 0.0
H282 H 0.03719 0.11017 0.35816 0.0
H283 H 0.03543 0.09948 0.26823 0.0
H284 H 0.9492 0.1488 0.39049 0.0
H285 H 0.97198 0.1474 0.45066 0.0
H286 H 1.00019 0.1384 0.46628 0.0
H287 H 0.02382 0.12493 0.43275 0.0
Mn288 Mn 0.83805 0.70993 0.97831 0.0
Mn289 Mn 0.87098 0.73082 -0.00092 0.0
C290 C 0.84706 0.71443 0.06245 0.0
C291 C 0.81065 0.70971 0.97154 0.0
C292 C 0.87092 0.69761 0.95442 0.0
O293 O 0.84103 0.72185 0.90966 0.0
O294 O 0.86159 0.73725 0.93167 0.0
C295 C 0.85745 0.76258 0.01132 0.0
N296 N 0.86599 0.75045 0.03104 0.0
C297 C 0.87042 0.76436 0.11142 0.0
C298 C 0.86174 0.77703 0.09185 0.0
C299 C 0.85521 0.77612 0.04161 0.0
C300 C 0.87234 0.75121 0.07932 0.0
H301 H 0.85232 0.76189 0.97287 0.0
C302 C 0.85069 0.73301 0.90019 0.0
O303 O 0.81901 0.69828 0.95273 0.0
O304 O 0.81822 0.72135 0.99183 0.0
N305 N 0.88071 0.72564 0.06417 0.0
C306 C 0.88785 0.71201 0.07858 0.0
C307 C 0.89461 0.71082 0.12838 0.0
C308 C 0.89398 0.72363 0.16279 0.0
C309 C 0.88659 0.73753 0.14707 0.0
C310 C 0.88018 0.73809 0.0968 0.0
H311 H 0.88833 0.70212 0.05234 0.0
O312 O 0.83792 0.7026 0.05315 0.0
O313 O 0.85097 0.72259 0.02206 0.0
O314 O 0.85621 0.69498 0.95892 0.0
O315 O 0.87727 0.71066 0.96713 0.0
C316 C 0.88502 0.75073 0.17975 0.0
C317 C 0.87692 0.76413 0.16197 0.0
H318 H 0.85988 0.78744 0.11525 0.0
H319 H 0.84842 0.78581 0.02635 0.0
H320 H 0.90025 0.70003 0.14029 0.0
H321 H 0.89908 0.7226 0.20135 0.0
H322 H 0.88978 0.75061 0.21894 0.0
H323 H 0.87556 0.7741 0.18776 0.0
Mn324 Mn 0.04593 0.08663 0.72495 0.0
Mn325 Mn 0.02469 0.11949 0.74254 0.0
C326 C 0.04092 0.09603 0.80823 0.0
C327 C 0.04631 0.0592 0.71987 0.0
C328 C 0.05811 0.11945 0.69978 0.0
O329 O 0.03436 0.08915 0.65554 0.0
O330 O 0.01873 0.10977 0.67515 0.0
C331 C 0.99294 0.10584 0.75339 0.0
N332 N 0.0049 0.11453 0.77348 0.0
C333 C 0.99047 0.1193 0.85263 0.0
C334 C 0.97797 0.11046 0.83268 0.0
C335 C 0.97922 0.10369 0.78287 0.0
C336 C 0.00381 0.12111 0.82134 0.0
H337 H 0.99388 0.10054 0.71524 0.0
C338 C 0.02324 0.09873 0.6446 0.0
O339 O 0.0578 0.06751 0.70116 0.0
O340 O 0.03455 0.06683 0.73906 0.0
N341 N 0.02942 0.12956 0.80743 0.0
C342 C 0.04292 0.13684 0.82235 0.0
C343 C 0.04379 0.14382 0.87188 0.0
C344 C 0.03079 0.14327 0.90551 0.0
C345 C 0.01702 0.13574 0.88926 0.0
C346 C 0.01679 0.1291 0.83929 0.0
H347 H 0.05296 0.13726 0.79672 0.0
O348 O 0.05287 0.08694 0.80016 0.0
O349 O 0.03294 0.09967 0.76714 0.0
O350 O 0.06086 0.10479 0.70526 0.0
O351 O 0.04496 0.12574 0.71155 0.0
C352 C 0.00363 0.13427 0.92112 0.0
C353 C 0.99037 0.12604 0.90283 0.0
H354 H 0.96742 0.10867 0.85546 0.0
H355 H 0.96966 0.09678 0.76732 0.0
H356 H 0.05448 0.14957 0.88421 0.0
H357 H 0.03157 0.14854 0.94387 0.0
H358 H 0.0035 0.1392 0.96007 0.0
H359 H 0.98025 0.12476 0.92801 0.0
Mn360 Mn 0.66637 0.29542 0.47842 0.0
Mn361 Mn 0.63365 0.27424 0.49932 0.0
C362 C 0.65739 0.29092 0.5626 0.0
C363 C 0.69378 0.29575 0.47176 0.0
C364 C 0.6334 0.30744 0.45462 0.0
O365 O 0.66345 0.28351 0.40974 0.0
O366 O 0.64307 0.26787 0.43187 0.0
C367 C 0.6475 0.24262 0.51171 0.0
N368 N 0.63881 0.25465 0.53134 0.0
C369 C 0.63446 0.24071 0.6117 0.0
C370 C 0.64329 0.22813 0.59221 0.0
C371 C 0.64985 0.22911 0.54203 0.0
C372 C 0.63243 0.25384 0.57957 0.0
H373 H 0.65266 0.24336 0.47332 0.0
C374 C 0.65388 0.27225 0.40027 0.0
O375 O 0.68538 0.30715 0.4529 0.0
O376 O 0.68624 0.28409 0.49197 0.0
N377 N 0.62385 0.27934 0.56437 0.0
C378 C 0.61657 0.29289 0.57872 0.0
C379 C 0.60976 0.29403 0.62847 0.0
C380 C 0.61049 0.28123 0.66289 0.0
C381 C 0.61801 0.26739 0.64723 0.0
C382 C 0.62447 0.26689 0.597 0.0
H383 H 0.61601 0.30278 0.55248 0.0
O384 O 0.66647 0.30279 0.5532 0.0
O385 O 0.65356 0.28268 0.52229 0.0
O386 O 0.64809 0.31022 0.45904 0.0
O387 O 0.62719 0.29432 0.46736 0.0
C388 C 0.61968 0.25421 0.67991 0.0
C389 C 0.62792 0.24089 0.6622 0.0
H390 H 0.64523 0.21774 0.61564 0.0
H391 H 0.65675 0.21949 0.52685 0.0
H392 H 0.60402 0.30477 0.64034 0.0
H393 H 0.60535 0.28221 0.70142 0.0
H394 H 0.6149 0.25429 0.71907 0.0
H395 H 0.62936 0.23093 0.68801 0.0
Mn396 Mn 0.45879 0.91597 0.22868 0.0
Mn397 Mn 0.47962 0.88311 0.25127 0.0
C398 C 0.46312 0.90729 0.31325 0.0
C399 C 0.45852 0.94334 0.22085 0.0
C400 C 0.44646 0.883 0.20639 0.0
O401 O 0.47081 0.91274 0.16039 0.0
O402 O 0.48606 0.89215 0.18334 0.0
C403 C 0.51138 0.89669 0.26275 0.0
N404 N 0.49926 0.88824 0.28293 0.0
C405 C 0.51319 0.88418 0.36349 0.0
C406 C 0.52585 0.89277 0.34346 0.0
C407 C 0.52493 0.89906 0.29289 0.0
C408 C 0.50003 0.88212 0.33152 0.0
H409 H 0.51069 0.90164 0.22404 0.0
C410 C 0.48192 0.90296 0.15137 0.0
O411 O 0.44716 0.93488 0.20207 0.0
O412 O 0.47015 0.93586 0.24163 0.0
N413 N 0.47445 0.87369 0.31687 0.0
C414 C 0.46083 0.86661 0.33166 0.0
C415 C 0.45964 0.86008 0.3818 0.0
C416 C 0.47246 0.86086 0.41615 0.0
C417 C 0.48636 0.86818 0.40002 0.0
C418 C 0.48691 0.87436 0.34944 0.0
H419 H 0.45093 0.86601 0.30548 0.0
O420 O 0.4513 0.91639 0.3033 0.0
O421 O 0.47139 0.90323 0.27323 0.0
O422 O 0.44389 0.89775 0.20982 0.0
O423 O 0.45946 0.87667 0.21971 0.0
C424 C 0.49957 0.86989 0.43258 0.0
C425 C 0.51296 0.87791 0.41436 0.0
H426 H 0.53627 0.89473 0.36673 0.0
H427 H 0.53462 0.90578 0.27727 0.0
H428 H 0.44885 0.8545 0.39402 0.0
H429 H 0.47144 0.85594 0.45496 0.0
H430 H 0.49945 0.86532 0.47201 0.0
H431 H 0.52294 0.87938 0.44006 0.0
Mn432 Mn 0.83768 0.29663 0.52065 0.0
Mn433 Mn 0.87062 0.27589 0.49875 0.0
C434 C 0.84617 0.29164 0.43613 0.0
C435 C 0.81029 0.29682 0.52858 0.0
C436 C 0.87057 0.30924 0.54209 0.0
O437 O 0.8411 0.28499 0.58968 0.0
O438 O 0.86169 0.26968 0.56701 0.0
C439 C 0.85742 0.24392 0.48898 0.0
N440 N 0.86565 0.25607 0.46803 0.0
C441 C 0.86971 0.24188 0.38799 0.0
C442 C 0.86135 0.22918 0.40882 0.0
C443 C 0.85516 0.23022 0.4595 0.0
C444 C 0.87167 0.25519 0.41932 0.0
H445 H 0.85255 0.2447 0.5278 0.0
C446 C 0.85092 0.27394 0.59899 0.0
O447 O 0.81871 0.30833 0.54656 0.0
O448 O 0.81782 0.28508 0.50875 0.0
N449 N 0.87985 0.28092 0.43271 0.0
C450 C 0.88667 0.29458 0.4171 0.0
C451 C 0.89301 0.29568 0.36666 0.0
C452 C 0.89228 0.28274 0.33284 0.0
C453 C 0.88521 0.26879 0.34979 0.0
C454 C 0.87921 0.26834 0.40063 0.0
H455 H 0.88722 0.30458 0.44287 0.0
O456 O 0.8371 0.30354 0.44531 0.0
O457 O 0.85041 0.28382 0.47688 0.0
O458 O 0.85583 0.31177 0.53829 0.0
O459 O 0.87694 0.2962 0.52943 0.0
C460 C 0.88358 0.25544 0.31784 0.0
C461 C 0.87583 0.242 0.33691 0.0
H462 H 0.85947 0.21865 0.38605 0.0
H463 H 0.84861 0.22051 0.47573 0.0
H464 H 0.89839 0.3065 0.3538 0.0
H465 H 0.89706 0.28368 0.29381 0.0
H466 H 0.88804 0.25547 0.27826 0.0
H467 H 0.87443 0.2319 0.31169 0.0
Mn468 Mn 0.45964 0.08743 0.2639 0.0
Mn469 Mn 0.48073 0.12017 0.24242 0.0
C470 C 0.46435 0.09612 0.17955 0.0
C471 C 0.45934 0.06007 0.27173 0.0
C472 C 0.44741 0.12042 0.28616 0.0
O473 O 0.47138 0.09061 0.33273 0.0
O474 O 0.48698 0.111 0.31038 0.0
C475 C 0.51246 0.10646 0.23148 0.0
N476 N 0.50043 0.115 0.21116 0.0
C477 C 0.51458 0.11918 0.13109 0.0
C478 C 0.52716 0.11051 0.15131 0.0
C479 C 0.52608 0.10411 0.20169 0.0
C480 C 0.50134 0.12121 0.16272 0.0
H481 H 0.51165 0.10143 0.27004 0.0
C482 C 0.48258 0.10024 0.34216 0.0
O483 O 0.44788 0.06851 0.2899 0.0
O484 O 0.47104 0.06754 0.25147 0.0
N485 N 0.47575 0.1297 0.17683 0.0
C486 C 0.46218 0.13682 0.16176 0.0
C487 C 0.46112 0.14341 0.11167 0.0
C488 C 0.47402 0.14263 0.07763 0.0
C489 C 0.48787 0.13526 0.09404 0.0
C490 C 0.48828 0.12902 0.14456 0.0
H491 H 0.45222 0.13742 0.1877 0.0
O492 O 0.45247 0.08705 0.18893 0.0
O493 O 0.47246 0.10013 0.21996 0.0
O494 O 0.44472 0.10571 0.28216 0.0
O495 O 0.46053 0.12666 0.2736 0.0
C496 C 0.50115 0.13357 0.06183 0.0
C497 C 0.51449 0.12552 0.08032 0.0
H498 H 0.53763 0.10856 0.12829 0.0
H499 H 0.5357 0.09732 0.21743 0.0
H500 H 0.45038 0.14903 0.09923 0.0
H501 H 0.4731 0.14759 0.03885 0.0
H502 H 0.50114 0.1382 0.02246 0.0
H503 H 0.52453 0.12407 0.05488 0.0
Mn504 Mn 0.66656 0.70864 0.01662 0.0
Mn505 Mn 0.63354 0.7292 0.99392 0.0
C506 C 0.65774 0.71271 0.93201 0.0
C507 C 0.69395 0.70858 0.02416 0.0
C508 C 0.63372 0.6962 0.04018 0.0
O509 O 0.66328 0.7208 0.0847 0.0
O510 O 0.64268 0.73598 0.06131 0.0
C511 C 0.64688 0.76099 0.9805 0.0
N512 N 0.63846 0.74873 0.96117 0.0
C513 C 0.63404 0.7623 0.88014 0.0
C514 C 0.6426 0.7751 0.8993 0.0
C515 C 0.64906 0.77443 0.94967 0.0
C516 C 0.63218 0.74925 0.91276 0.0
H517 H 0.65196 0.76049 0.01907 0.0
C518 C 0.65348 0.73191 0.09341 0.0
O519 O 0.68558 0.69721 0.04332 0.0
O520 O 0.68637 0.72011 0.00318 0.0
N521 N 0.624 0.72367 0.92883 0.0
C522 C 0.61699 0.70994 0.9149 0.0
C523 C 0.6103 0.7085 0.86506 0.0
C524 C 0.61086 0.72119 0.83013 0.0
C525 C 0.61812 0.73521 0.84538 0.0
C526 C 0.62447 0.736 0.8957 0.0
H527 H 0.61655 0.70015 0.94154 0.0
O528 O 0.66696 0.701 0.94212 0.0
O529 O 0.65367 0.72102 0.9719 0.0
O530 O 0.64846 0.69365 0.03609 0.0
O531 O 0.62731 0.70915 0.02669 0.0
C532 C 0.61961 0.7483 0.8122 0.0
C533 C 0.62759 0.76183 0.82953 0.0
H534 H 0.64441 0.78544 0.87549 0.0
H535 H 0.65576 0.78423 0.96462 0.0
H536 H 0.60477 0.69762 0.85351 0.0
H537 H 0.60582 0.71998 0.79155 0.0
H538 H 0.61491 0.748 0.77296 0.0
H539 H 0.62891 0.77171 0.80334 0.0
Mn540 Mn 0.04416 0.91544 0.77121 0.0
Mn541 Mn 0.02315 0.88269 0.74916 0.0
C542 C 0.03971 0.90671 0.68675 0.0
C543 C 0.04452 0.94282 0.77854 0.0
C544 C 0.05627 0.88248 0.79451 0.0
O545 O 0.0321 0.91236 0.83952 0.0
O546 O 0.01661 0.89193 0.8167 0.0
C547 C 0.99143 0.89629 0.73666 0.0
N548 N 0.0036 0.88782 0.71689 0.0
C549 C 0.98987 0.8837 0.63598 0.0
C550 C 0.97717 0.89232 0.65559 0.0
C551 C 0.97797 0.89865 0.70613 0.0
C552 C 0.00295 0.88165 0.66834 0.0
H553 H 0.99203 0.90127 0.77535 0.0
C554 C 0.02085 0.90274 0.84852 0.0
O555 O 0.05588 0.93436 0.7974 0.0
O556 O 0.03286 0.93535 0.75801 0.0
N557 N 0.02846 0.87314 0.68386 0.0
C558 C 0.04211 0.86605 0.66951 0.0
C559 C 0.04344 0.85952 0.61939 0.0
C560 C 0.03073 0.86035 0.58461 0.0
C561 C 0.01679 0.86768 0.60028 0.0
C562 C 0.0161 0.87386 0.65087 0.0
H563 H 0.05193 0.86544 0.69601 0.0
O564 O 0.0516 0.91573 0.69652 0.0
O565 O 0.03149 0.90272 0.72694 0.0
O566 O 0.05899 0.89718 0.79034 0.0
O567 O 0.04321 0.87623 0.78143 0.0
C568 C 0.00369 0.86941 0.5673 0.0
C569 C 0.99024 0.87742 0.58513 0.0
H570 H 0.96681 0.89428 0.632 0.0
H571 H 0.96824 0.90539 0.72142 0.0
H572 H 0.05425 0.85392 0.60752 0.0
H573 H 0.03186 0.85543 0.54582 0.0
H574 H 0.00391 0.86484 0.52787 0.0
H575 H 0.98033 0.8789 0.55912 0.0
Mn576 Mn 0.66529 0.79455 0.51659 0.0
Mn577 Mn 0.63242 0.77355 0.49663 0.0
C578 C 0.65628 0.78984 0.43262 0.0
C579 C 0.69268 0.79484 0.52318 0.0
C580 C 0.63247 0.80682 0.54082 0.0
O581 O 0.66237 0.78277 0.58548 0.0
O582 O 0.64191 0.76715 0.56397 0.0
C583 C 0.64592 0.74178 0.48435 0.0
N584 N 0.63737 0.7539 0.46466 0.0
C585 C 0.63293 0.74 0.38429 0.0
C586 C 0.6416 0.72732 0.40385 0.0
C587 C 0.64814 0.72823 0.45407 0.0
C588 C 0.63102 0.75315 0.4164 0.0
H589 H 0.65107 0.74247 0.52277 0.0
C590 C 0.65282 0.77153 0.59525 0.0
O591 O 0.68431 0.80629 0.54181 0.0
O592 O 0.68513 0.78314 0.50321 0.0
N593 N 0.62264 0.77872 0.43159 0.0
C594 C 0.61555 0.79236 0.41715 0.0
C595 C 0.60884 0.79359 0.36727 0.0
C596 C 0.6095 0.7808 0.3328 0.0
C597 C 0.61684 0.76687 0.34855 0.0
C598 C 0.6232 0.76628 0.39891 0.0
H599 H 0.61506 0.80225 0.44339 0.0
O600 O 0.66538 0.80172 0.44161 0.0
O601 O 0.6524 0.78177 0.47326 0.0
O602 O 0.64715 0.8095 0.53574 0.0
O603 O 0.62614 0.79372 0.52863 0.0
C604 C 0.61842 0.75368 0.31584 0.0
C605 C 0.62646 0.74026 0.33369 0.0
H606 H 0.64345 0.71691 0.38043 0.0
H607 H 0.65493 0.71854 0.46931 0.0
H608 H 0.60324 0.8044 0.35532 0.0
H609 H 0.60445 0.78185 0.29417 0.0
H610 H 0.61372 0.75383 0.27659 0.0
H611 H 0.62783 0.73029 0.30787 0.0
Mn612 Mn 0.45979 0.41678 0.76583 0.0
Mn613 Mn 0.48038 0.38376 0.74355 0.0
C614 C 0.46419 0.40807 0.68129 0.0
C615 C 0.45978 0.44414 0.77372 0.0
C616 C 0.44723 0.38396 0.78863 0.0
O617 O 0.47173 0.41343 0.83425 0.0
O618 O 0.487 0.39286 0.8112 0.0
C619 C 0.51226 0.397 0.7313 0.0
N620 N 0.50002 0.38866 0.71145 0.0
C621 C 0.5138 0.3843 0.63077 0.0
C622 C 0.52658 0.39277 0.65048 0.0
C623 C 0.5258 0.39917 0.70093 0.0
C624 C 0.50065 0.38245 0.66295 0.0
H625 H 0.51167 0.40202 0.76994 0.0
C626 C 0.48285 0.40367 0.84319 0.0
O627 O 0.4483 0.43579 0.79228 0.0
O628 O 0.47136 0.43657 0.75309 0.0
N629 N 0.475 0.37432 0.67816 0.0
C630 C 0.46128 0.3674 0.66367 0.0
C631 C 0.45994 0.36083 0.61361 0.0
C632 C 0.4727 0.36143 0.57903 0.0
C633 C 0.48672 0.3686 0.59485 0.0
C634 C 0.48741 0.37483 0.64535 0.0
H635 H 0.45142 0.36693 0.69003 0.0
O636 O 0.45243 0.41727 0.69104 0.0
O637 O 0.47232 0.40393 0.72149 0.0
O638 O 0.4447 0.39869 0.78452 0.0
O639 O 0.46022 0.37755 0.77563 0.0
C640 C 0.4999 0.3701 0.56207 0.0
C641 C 0.51343 0.37796 0.58001 0.0
H642 H 0.53699 0.39457 0.62702 0.0
H643 H 0.53558 0.4058 0.71629 0.0
H644 H 0.44906 0.35536 0.60164 0.0
H645 H 0.47157 0.35648 0.54029 0.0
H646 H 0.49968 0.36548 0.52271 0.0
H647 H 0.52339 0.37927 0.55414 0.0
Mn648 Mn 0.83721 0.2097 0.0196 0.0
Mn649 Mn 0.86973 0.23145 0.00157 0.0
C650 C 0.84623 0.21515 0.93621 0.0
C651 C 0.80981 0.20882 0.02575 0.0
C652 C 0.87036 0.1978 0.04208 0.0
O653 O 0.83977 0.22104 0.08937 0.0
O654 O 0.86028 0.23682 0.06995 0.0
C655 C 0.85555 0.26306 0.99404 0.0
N656 N 0.86432 0.25138 0.97251 0.0
C657 C 0.86845 0.26644 0.89429 0.0
C658 C 0.85954 0.27866 0.91574 0.0
C659 C 0.85305 0.27695 0.9658 0.0
C660 C 0.87063 0.25291 0.92439 0.0
H661 H 0.85047 0.26177 0.03239 0.0
C662 C 0.84934 0.23214 0.10058 0.0
O663 O 0.81839 0.19741 0.04365 0.0
O664 O 0.81716 0.22078 0.00676 0.0
N665 N 0.87953 0.22733 0.93575 0.0
C666 C 0.88694 0.21407 0.91935 0.0
C667 C 0.89368 0.21366 0.86937 0.0
C668 C 0.89275 0.22688 0.83683 0.0
C669 C 0.8851 0.24042 0.8546 0.0
C670 C 0.87872 0.24018 0.90495 0.0
H671 H 0.88766 0.20385 0.94413 0.0
O672 O 0.83737 0.20302 0.94417 0.0
O673 O 0.84989 0.22307 0.97741 0.0
O674 O 0.85567 0.19498 0.03789 0.0
O675 O 0.87646 0.21105 0.0305 0.0
C676 C 0.88326 0.254 0.82392 0.0
C677 C 0.87493 0.267 0.84373 0.0
H678 H 0.85748 0.28934 0.89393 0.0
H679 H 0.84609 0.2863 0.98251 0.0
H680 H 0.89953 0.20315 0.85587 0.0
H681 H 0.89783 0.22646 0.79811 0.0
H682 H 0.88798 0.25449 0.78472 0.0
H683 H 0.87338 0.27728 0.81945 0.0
Mn684 Mn 0.04507 0.5884 0.26524 0.0
Mn685 Mn 0.02417 0.62113 0.24142 0.0
C686 C 0.04066 0.59675 0.18034 0.0
C687 C 0.04531 0.56105 0.2741 0.0
C688 C 0.05735 0.62146 0.28621 0.0
O689 O 0.03308 0.59186 0.33346 0.0
O690 O 0.01776 0.61231 0.30969 0.0
C691 C 0.99242 0.60747 0.23051 0.0
N692 N 0.00453 0.61587 0.21001 0.0
C693 C 0.99052 0.61979 0.12953 0.0
C694 C 0.97787 0.61125 0.14991 0.0
C695 C 0.97884 0.60505 0.20059 0.0
C696 C 0.00372 0.62189 0.16127 0.0
H697 H 0.99315 0.60261 0.26934 0.0
C698 C 0.02195 0.60164 0.3421 0.0
O699 O 0.05672 0.56955 0.29241 0.0
O700 O 0.03369 0.56847 0.25318 0.0
N701 N 0.02932 0.63034 0.17545 0.0
C702 C 0.04293 0.63737 0.16034 0.0
C703 C 0.04408 0.64377 0.11001 0.0
C704 C 0.03124 0.64291 0.0758 0.0
C705 C 0.01734 0.63565 0.09226 0.0
C706 C 0.01684 0.62958 0.14301 0.0
H707 H 0.05284 0.63804 0.18643 0.0
O708 O 0.0525 0.58771 0.19055 0.0
O709 O 0.03244 0.60095 0.22027 0.0
O710 O 0.05997 0.60671 0.28335 0.0
O711 O 0.04432 0.62769 0.27266 0.0
C712 C 0.00409 0.6339 0.05993 0.0
C713 C 0.99069 0.62596 0.07852 0.0
H714 H 0.96742 0.60926 0.12681 0.0
H715 H 0.96917 0.59837 0.21647 0.0
H716 H 0.05486 0.64932 0.09753 0.0
H717 H 0.03222 0.64774 0.03684 0.0
H718 H 0.00417 0.6384 0.02039 0.0
H719 H 0.98068 0.62446 0.05299 0.0
Mn720 Mn 0.66584 0.20915 0.97817 0.0
Mn721 Mn 0.63308 0.23026 -0.0009 0.0
C722 C 0.65695 0.21373 0.06237 0.0
C723 C 0.69323 0.20889 0.9711 0.0
C724 C 0.6329 0.197 0.95485 0.0
O725 O 0.66285 0.22098 0.90943 0.0
O726 O 0.64243 0.23659 0.93146 0.0
C727 C 0.64683 0.26194 0.0109 0.0
N728 N 0.63822 0.2499 0.03081 0.0
C729 C 0.63399 0.26389 0.11116 0.0
C730 C 0.64273 0.27648 0.09138 0.0
C731 C 0.64919 0.27549 0.04106 0.0
C732 C 0.63193 0.25073 0.07917 0.0
H733 H 0.65192 0.26119 0.9724 0.0
C734 C 0.65325 0.2322 0.89988 0.0
O735 O 0.68485 0.19743 0.95251 0.0
O736 O 0.68569 0.22054 0.99136 0.0
N737 N 0.62338 0.2252 0.06435 0.0
C738 C 0.61618 0.21163 0.07897 0.0
C739 C 0.60948 0.21051 0.12889 0.0
C740 C 0.61025 0.22333 0.16321 0.0
C741 C 0.6177 0.23718 0.14727 0.0
C742 C 0.62404 0.23767 0.09688 0.0
H743 H 0.6156 0.20172 0.05282 0.0
O744 O 0.66604 0.20186 0.05301 0.0
O745 O 0.65305 0.22191 0.022 0.0
O746 O 0.64761 0.19427 0.95915 0.0
O747 O 0.62666 0.21011 0.96746 0.0
C748 C 0.61941 0.25039 0.17983 0.0
C749 C 0.62757 0.26372 0.16182 0.0
H750 H 0.64469 0.28689 0.11468 0.0
H751 H 0.65603 0.28512 0.02564 0.0
H752 H 0.6038 0.19976 0.14098 0.0
H753 H 0.60521 0.22236 0.20187 0.0
H754 H 0.61472 0.25032 0.21911 0.0
H755 H 0.62903 0.2737 0.18754 0.0
Mn756 Mn 0.04567 0.41695 0.22778 0.0
Mn757 Mn 0.02425 0.38433 0.24736 0.0
C758 C 0.04097 0.4078 0.31166 0.0
C759 C 0.0462 0.44437 0.22186 0.0
C760 C 0.05744 0.38401 0.20249 0.0
O761 O 0.03377 0.41431 0.15897 0.0
O762 O 0.01786 0.39407 0.18046 0.0
C763 C 0.9927 0.39826 0.26075 0.0
N764 N 0.00473 0.38947 0.27989 0.0
C765 C 0.99087 0.3849 0.36027 0.0
C766 C 0.9783 0.39382 0.34128 0.0
C767 C 0.97923 0.40055 0.29134 0.0
C768 C 0.00396 0.38294 0.3279 0.0
H769 H 0.99341 0.40354 0.22254 0.0
C770 C 0.02237 0.40494 0.14926 0.0
O771 O 0.05755 0.43593 0.20283 0.0
O772 O 0.03449 0.43687 0.24187 0.0
N773 N 0.0294 0.37429 0.31197 0.0
C774 C 0.04295 0.36694 0.32588 0.0
C775 C 0.04415 0.36001 0.37543 0.0
C776 C 0.03141 0.3607 0.41011 0.0
C777 C 0.01756 0.3683 0.3949 0.0
C778 C 0.01701 0.37488 0.34486 0.0
H779 H 0.05279 0.36641 0.29945 0.0
O780 O 0.05294 0.41679 0.30272 0.0
O781 O 0.03281 0.40411 0.27104 0.0
O782 O 0.06038 0.39864 0.20793 0.0
O783 O 0.04426 0.37787 0.21478 0.0
C784 C 0.00443 0.36992 0.42785 0.0
C785 C 0.9911 0.37822 0.41056 0.0
H786 H 0.96794 0.39573 0.36492 0.0
H787 H 0.96961 0.40753 0.27655 0.0
H788 H 0.05489 0.3542 0.38695 0.0
H789 H 0.03243 0.35546 0.44847 0.0
H790 H 0.00456 0.36504 0.46686 0.0
H791 H 0.98118 0.37961 0.43657 0.0
Mn792 Mn 0.83662 0.79609 0.47791 0.0
Mn793 Mn 0.86957 0.77534 0.4998 0.0
C794 C 0.84515 0.79126 0.56235 0.0
C795 C 0.80927 0.79625 0.4695 0.0
C796 C 0.86955 0.80881 0.45752 0.0
O797 O 0.84007 0.78456 0.40882 0.0
O798 O 0.86072 0.7693 0.43116 0.0
C799 C 0.85619 0.7434 0.50849 0.0
N800 N 0.86453 0.75543 0.52978 0.0
C801 C 0.86867 0.74091 0.60912 0.0
C802 C 0.86022 0.72833 0.58791 0.0
C803 C 0.85393 0.7296 0.53741 0.0
C804 C 0.87061 0.75434 0.57836 0.0
H805 H 0.85126 0.74436 0.46983 0.0
C806 C 0.84995 0.77358 0.39925 0.0
O807 O 0.8177 0.80779 0.45174 0.0
O808 O 0.81677 0.78453 0.48953 0.0
N809 N 0.87882 0.78011 0.56601 0.0
C810 C 0.88574 0.79367 0.58207 0.0
C811 C 0.89218 0.79454 0.63241 0.0
C812 C 0.89147 0.78146 0.66566 0.0
C813 C 0.88432 0.76762 0.64823 0.0
C814 C 0.87821 0.7674 0.59751 0.0
H815 H 0.88629 0.80377 0.55674 0.0
O816 O 0.83599 0.80307 0.55305 0.0
O817 O 0.84934 0.78327 0.52187 0.0
O818 O 0.85477 0.81124 0.46059 0.0
O819 O 0.87593 0.79576 0.47004 0.0
C820 C 0.88272 0.75414 0.67958 0.0
C821 C 0.87489 0.7408 0.66007 0.0
H822 H 0.85834 0.71771 0.61023 0.0
H823 H 0.84732 0.71998 0.52089 0.0
H824 H 0.89764 0.80529 0.64564 0.0
H825 H 0.89632 0.78223 0.70463 0.0
H826 H 0.88725 0.75399 0.71907 0.0
H827 H 0.8735 0.73061 0.68485 0.0
Mn828 Mn 0.45937 0.58822 0.72929 0.0
Mn829 Mn 0.48028 0.62105 0.75123 0.0
C830 C 0.46376 0.59703 0.81372 0.0
C831 C 0.4591 0.56084 0.72193 0.0
C832 C 0.44717 0.62114 0.70585 0.0
O833 O 0.47142 0.59132 0.66096 0.0
O834 O 0.48685 0.61179 0.68379 0.0
C835 C 0.51201 0.60748 0.76396 0.0
N836 N 0.49985 0.61599 0.78356 0.0
C837 C 0.51362 0.62036 0.86423 0.0
C838 C 0.52633 0.61171 0.84478 0.0
C839 C 0.5255 0.60523 0.79446 0.0
C840 C 0.50051 0.62228 0.83194 0.0
H841 H 0.51139 0.6024 0.72542 0.0
C842 C 0.48264 0.60097 0.65196 0.0
O843 O 0.44773 0.56927 0.70302 0.0
O844 O 0.47072 0.56834 0.74259 0.0
N845 N 0.47496 0.63066 0.81641 0.0
C846 C 0.46131 0.63777 0.83065 0.0
C847 C 0.46002 0.64446 0.88055 0.0
C848 C 0.47276 0.64378 0.91522 0.0
C849 C 0.4867 0.63643 0.89965 0.0
C850 C 0.48735 0.63008 0.8493 0.0
H851 H 0.45147 0.6383 0.80421 0.0
O852 O 0.45192 0.58794 0.80401 0.0
O853 O 0.47198 0.60102 0.77354 0.0
O854 O 0.44449 0.60643 0.71006 0.0
O855 O 0.46022 0.62743 0.71892 0.0
C856 C 0.49985 0.63485 0.93253 0.0
C857 C 0.5133 0.62681 0.91485 0.0
H858 H 0.53671 0.60985 0.86833 0.0
H859 H 0.53523 0.59846 0.77929 0.0
H860 H 0.4492 0.65007 0.89233 0.0
H861 H 0.47166 0.64883 0.95384 0.0
H862 H 0.49965 0.63956 0.97178 0.0
H863 H 0.52323 0.62544 0.94079 0.0
Mn864 Mn 0.33929 0.20956 0.47367 0.0
Mn865 Mn 0.37207 0.23062 0.49501 0.0
C866 C 0.34825 0.21395 0.55794 0.0
C867 C 0.31189 0.2092 0.46704 0.0
C868 C 0.37224 0.19751 0.44961 0.0
O869 O 0.3422 0.22164 0.4053 0.0
O870 O 0.36266 0.23714 0.42773 0.0
C871 C 0.35835 0.26228 0.50798 0.0
N872 N 0.36696 0.25016 0.52744 0.0
C873 C 0.37125 0.2639 0.60822 0.0
C874 C 0.3625 0.27656 0.58893 0.0
C875 C 0.35601 0.27573 0.53862 0.0
C876 C 0.37327 0.25084 0.57578 0.0
H877 H 0.35325 0.26165 0.46948 0.0
C878 C 0.3518 0.23289 0.39611 0.0
O879 O 0.32031 0.19785 0.44789 0.0
O880 O 0.3194 0.22084 0.48748 0.0
N881 N 0.38181 0.22535 0.56001 0.0
C882 C 0.38902 0.21174 0.5741 0.0
C883 C 0.39576 0.21046 0.62392 0.0
C884 C 0.39503 0.22318 0.65867 0.0
C885 C 0.38756 0.23708 0.64327 0.0
C886 C 0.38118 0.23772 0.59297 0.0
H887 H 0.38958 0.20191 0.54761 0.0
O888 O 0.33919 0.20208 0.54833 0.0
O889 O 0.35211 0.22222 0.51774 0.0
O890 O 0.35754 0.19477 0.45401 0.0
O891 O 0.37849 0.21058 0.4626 0.0
C892 C 0.38589 0.25019 0.67629 0.0
C893 C 0.37772 0.26358 0.65881 0.0
H894 H 0.36056 0.2869 0.6126 0.0
H895 H 0.34917 0.28542 0.52357 0.0
H896 H 0.40145 0.19968 0.63558 0.0
H897 H 0.4001 0.22209 0.69724 0.0
H898 H 0.39061 0.25 0.71552 0.0
H899 H 0.37628 0.27348 0.68487 0.0
Mn900 Mn 0.54506 0.58803 0.22892 0.0
Mn901 Mn 0.52428 0.62088 0.25208 0.0
C902 C 0.54066 0.59655 0.31365 0.0
C903 C 0.54516 0.56068 0.22054 0.0
C904 C 0.55747 0.621 0.20727 0.0
O905 O 0.5331 0.59143 0.16062 0.0
O906 O 0.51781 0.61195 0.18402 0.0
C907 C 0.49247 0.60739 0.26339 0.0
N908 N 0.50463 0.61576 0.2837 0.0
C909 C 0.49069 0.61984 0.36424 0.0
C910 C 0.47799 0.61133 0.34407 0.0
C911 C 0.47891 0.60506 0.29346 0.0
C912 C 0.50388 0.62184 0.33236 0.0
H913 H 0.49316 0.60248 0.22463 0.0
C914 C 0.52198 0.60121 0.15182 0.0
O915 O 0.55662 0.56909 0.2021 0.0
O916 O 0.53357 0.56818 0.24132 0.0
N917 N 0.5295 0.63018 0.31785 0.0
C918 C 0.54315 0.63717 0.33276 0.0
C919 C 0.54436 0.64363 0.383 0.0
C920 C 0.53154 0.64285 0.41734 0.0
C921 C 0.5176 0.63563 0.40108 0.0
C922 C 0.51704 0.62951 0.35041 0.0
H923 H 0.55305 0.63777 0.30658 0.0
O924 O 0.55246 0.58743 0.30363 0.0
O925 O 0.53247 0.60071 0.27362 0.0
O926 O 0.56005 0.60624 0.21052 0.0
O927 O 0.54445 0.6273 0.22061 0.0
C928 C 0.50437 0.63397 0.43356 0.0
C929 C 0.49093 0.62606 0.41517 0.0
H930 H 0.46755 0.6094 0.36728 0.0
H931 H 0.46919 0.59841 0.27773 0.0
H932 H 0.55517 0.64915 0.39532 0.0
H933 H 0.53257 0.64772 0.45623 0.0
H934 H 0.5045 0.6385 0.47305 0.0
H935 H 0.48094 0.62462 0.44081 0.0
Mn936 Mn 0.16668 0.79526 0.97859 0.0
Mn937 Mn 0.13403 0.7741 0.0009 0.0
C938 C 0.1582 0.79052 0.06314 0.0
C939 C 0.19404 0.7957 0.97029 0.0
C940 C 0.1336 0.80742 0.95727 0.0
O941 O 0.1634 0.78349 0.90982 0.0
O942 O 0.14302 0.76793 0.9326 0.0
C943 C 0.14784 0.74239 0.0111 0.0
N944 N 0.13932 0.75439 0.0318 0.0
C945 C 0.13538 0.74015 0.11181 0.0
C946 C 0.14402 0.72761 0.09121 0.0
C947 C 0.1503 0.72875 0.04066 0.0
C948 C 0.13324 0.75342 0.08041 0.0
H949 H 0.15277 0.74326 0.9724 0.0
C950 C 0.15372 0.77232 0.90056 0.0
O951 O 0.1855 0.8071 0.95217 0.0
O952 O 0.18666 0.78395 0.99063 0.0
N953 N 0.12466 0.779 0.06684 0.0
C954 C 0.11755 0.79254 0.08226 0.0
C955 C 0.11109 0.79353 0.13256 0.0
C956 C 0.11199 0.78061 0.16641 0.0
C957 C 0.11933 0.76679 0.14964 0.0
C958 C 0.12545 0.76644 0.09893 0.0
H959 H 0.11687 0.80252 0.05646 0.0
O960 O 0.1672 0.80244 0.05353 0.0
O961 O 0.15412 0.78239 0.02284 0.0
O962 O 0.14833 0.81011 0.96072 0.0
O963 O 0.1274 0.79431 0.97012 0.0
C964 C 0.12113 0.75347 0.18164 0.0
C965 C 0.12916 0.74017 0.16276 0.0
H966 H 0.14605 0.71711 0.11405 0.0
H967 H 0.15706 0.71916 0.02461 0.0
H968 H 0.10548 0.80426 0.14528 0.0
H969 H 0.10712 0.78147 0.20535 0.0
H970 H 0.1166 0.75343 0.22113 0.0
H971 H 0.13069 0.7301 0.18804 0.0
Mn972 Mn 0.95963 0.41775 0.72702 0.0
Mn973 Mn 0.98034 0.38489 0.75084 0.0
C974 C 0.96388 0.40931 0.81191 0.0
C975 C 0.95954 0.4451 0.71839 0.0
C976 C 0.94719 0.38476 0.70582 0.0
O977 O 0.97166 0.41425 0.65885 0.0
O978 O 0.98683 0.39369 0.68261 0.0
C979 C 0.01215 0.3984 0.76198 0.0
N980 N 1.0 0.39004 0.78238 0.0
C981 C 0.01391 0.38612 0.86305 0.0
C982 C 0.0266 0.39462 0.84278 0.0
C983 C 0.0257 0.40079 0.79205 0.0
C984 C 1.00074 0.38404 0.83114 0.0
H985 H 0.01147 0.40325 0.72312 0.0
C986 C 0.98272 0.4044 0.6502 0.0
O987 O 0.94811 0.43668 0.69988 0.0
O988 O 0.97112 0.43761 0.73934 0.0
N989 N 0.97512 0.37567 0.81672 0.0
C990 C 0.96148 0.36868 0.8317 0.0
C991 C 0.96027 0.36227 0.882 0.0
C992 C 0.97309 0.36308 0.91632 0.0
C993 C 0.98702 0.37031 0.90001 0.0
C994 C 0.98759 0.37638 0.84927 0.0
H995 H 0.95158 0.36805 0.80552 0.0
O996 O 0.95212 0.41843 0.8016 0.0
O997 O 0.97216 0.4051 0.77209 0.0
O998 O 0.94465 0.39953 0.70869 0.0
O999 O 0.96017 0.37845 0.71946 0.0
C1000 C 1.00024 0.37204 0.93251 0.0
C1001 C 0.01366 0.37997 0.91407 0.0
H1002 H 0.03703 0.39659 0.866 0.0
H1003 H 0.03542 0.40743 0.77624 0.0
H1004 H 0.94946 0.35675 0.89437 0.0
H1005 H 0.97206 0.35825 0.95526 0.0
H1006 H 1.00011 0.36756 0.97205 0.0
H1007 H 0.02364 0.38146 0.93973 0.0
Mn1008 Mn 0.33807 0.79442 0.01785 0.0
Mn1009 Mn 0.37072 0.77304 -0.0019 0.0
C1010 C 0.34719 0.78972 0.93396 0.0
C1011 C 0.31066 0.79486 0.02399 0.0
C1012 C 0.37101 0.80628 0.04259 0.0
O1013 O 0.34078 0.78257 0.08671 0.0
O1014 O 0.36105 0.7667 0.06518 0.0
C1015 C 0.35681 0.74147 0.98521 0.0
N1016 N 0.36557 0.75349 0.96586 0.0
C1017 C 0.3701 0.73954 0.8856 0.0
C1018 C 0.3612 0.72698 0.90482 0.0
C1019 C 0.35451 0.72796 0.9548 0.0
C1020 C 0.37206 0.75267 0.9178 0.0
H1021 H 0.35155 0.74222 0.02346 0.0
C1022 C 0.35018 0.7712 0.09642 0.0
O1023 O 0.31906 0.80626 0.04282 0.0
O1024 O 0.31819 0.78315 0.00402 0.0
N1025 N 0.3807 0.77813 0.93334 0.0
C1026 C 0.38803 0.79167 0.91922 0.0
C1027 C 0.39493 0.79282 0.86961 0.0
C1028 C 0.39423 0.78004 0.83509 0.0
C1029 C 0.38665 0.76621 0.85052 0.0
C1030 C 0.3801 0.7657 0.90061 0.0
H1031 H 0.38857 0.80154 0.94553 0.0
O1032 O 0.33816 0.80166 0.94291 0.0
O1033 O 0.35091 0.78156 0.97455 0.0
O1034 O 0.35636 0.80917 0.03741 0.0
O1035 O 0.37717 0.79309 0.03036 0.0
C1036 C 0.38502 0.75304 0.81775 0.0
C1037 C 0.37675 0.73972 0.83526 0.0
H1038 H 0.3593 0.71659 0.88132 0.0
H1039 H 0.34755 0.71835 0.96977 0.0
H1040 H 0.40073 0.80355 0.85792 0.0
H1041 H 0.39944 0.78102 0.79668 0.0
H1042 H 0.38988 0.75313 0.77869 0.0
H1043 H 0.37535 0.72977 0.80938 0.0
Mn1044 Mn 0.9593 0.58916 0.76474 0.0
Mn1045 Mn 0.98042 0.62188 0.74321 0.0
C1046 C 0.96375 0.59805 0.68042 0.0
C1047 C 0.9589 0.56176 0.77153 0.0
C1048 C 0.94729 0.62216 0.78851 0.0
O1049 O 0.97138 0.59208 0.83309 0.0
O1050 O 0.98689 0.61252 0.81059 0.0
C1051 C 0.01206 0.6081 0.73054 0.0
N1052 N 0.99997 0.61671 0.71094 0.0
C1053 C 0.01381 0.621 0.63034 0.0
C1054 C 0.02644 0.61225 0.64979 0.0
C1055 C 0.02555 0.60576 0.70007 0.0
C1056 C 1.0007 0.62302 0.6626 0.0
H1057 H 0.01139 0.603 0.76904 0.0
C1058 C 0.98264 0.60167 0.84224 0.0
O1059 O 0.94757 0.57021 0.79063 0.0
O1060 O 0.97055 0.56925 0.75104 0.0
N1061 N 0.97521 0.63158 0.67808 0.0
C1062 C 0.96162 0.6388 0.66382 0.0
C1063 C 0.96038 0.64551 0.61395 0.0
C1064 C 0.97313 0.64475 0.57931 0.0
C1065 C 0.98702 0.63728 0.59489 0.0
C1066 C 0.9876 0.63092 0.64523 0.0
H1067 H 0.95177 0.63939 0.69023 0.0
O1068 O 0.95184 0.58903 0.69002 0.0
O1069 O 0.97198 0.60193 0.72066 0.0
O1070 O 0.94453 0.60746 0.78432 0.0
O1071 O 0.96038 0.62837 0.77543 0.0
C1072 C 1.00016 0.63561 0.56205 0.0
C1073 C 0.01354 0.62747 0.57974 0.0
H1074 H 0.03681 0.61031 0.62626 0.0
H1075 H 0.03521 0.59891 0.71524 0.0
H1076 H 0.94962 0.65121 0.60215 0.0
H1077 H 0.97208 0.64981 0.54071 0.0
H1078 H 1.00001 0.64033 0.52281 0.0
H1079 H 0.02347 0.62603 0.55382 0.0
Mn1080 Mn 0.16804 0.20768 0.51776 0.0
Mn1081 Mn 0.13506 0.22876 0.49991 0.0
C1082 C 0.15926 0.21365 0.4344 0.0
C1083 C 0.19544 0.20732 0.52473 0.0
C1084 C 0.13511 0.19483 0.53782 0.0
O1085 O 0.16494 0.21846 0.58833 0.0
O1086 O 0.14407 0.23381 0.56918 0.0
C1087 C 0.14839 0.26079 0.49592 0.0
N1088 N 0.14009 0.24904 0.47287 0.0
C1089 C 0.13596 0.26458 0.39569 0.0
C1090 C 0.1444 0.27687 0.41872 0.0
C1091 C 0.15066 0.27495 0.46902 0.0
C1092 C 0.13399 0.25077 0.42451 0.0
H1093 H 0.15329 0.25934 0.53447 0.0
C1094 C 0.15501 0.22921 0.59995 0.0
O1095 O 0.18704 0.19561 0.54144 0.0
O1096 O 0.18789 0.21929 0.50663 0.0
N1097 N 0.12571 0.22489 0.43321 0.0
C1098 C 0.1188 0.21154 0.41521 0.0
C1099 C 0.11237 0.21133 0.36476 0.0
C1100 C 0.11312 0.22481 0.3334 0.0
C1101 C 0.12028 0.23842 0.35279 0.0
C1102 C 0.12636 0.23798 0.40352 0.0
H1103 H 0.11824 0.20113 0.43908 0.0
O1104 O 0.16831 0.20163 0.44168 0.0
O1105 O 0.15522 0.22108 0.4762 0.0
O1106 O 0.14988 0.19241 0.53417 0.0
O1107 O 0.12872 0.208 0.52678 0.0
C1108 C 0.12192 0.25228 0.32336 0.0
C1109 C 0.12976 0.26535 0.34478 0.0
H1110 H 0.14629 0.28777 0.39793 0.0
H1111 H 0.15727 0.28436 0.48694 0.0
H1112 H 0.10691 0.20076 0.35 0.0
H1113 H 0.10828 0.22455 0.29433 0.0
H1114 H 0.1174 0.25294 0.28391 0.0
H1115 H 0.13116 0.27585 0.32147 0.0
Mn1116 Mn 0.54555 0.41664 0.26569 0.0
Mn1117 Mn 0.52479 0.38371 0.24369 0.0
C1118 C 0.54112 0.40786 0.18124 0.0
C1119 C 0.54577 0.44402 0.27309 0.0
C1120 C 0.55795 0.38374 0.28866 0.0
O1121 O 0.53356 0.41346 0.33411 0.0
O1122 O 0.51829 0.39286 0.31138 0.0
C1123 C 0.49298 0.39714 0.23175 0.0
N1124 N 0.50515 0.38872 0.21179 0.0
C1125 C 0.49127 0.38442 0.13128 0.0
C1126 C 0.47855 0.39298 0.1511 0.0
C1127 C 0.47943 0.39939 0.20152 0.0
C1128 C 0.50443 0.3825 0.16332 0.0
H1129 H 0.49363 0.40217 0.27037 0.0
C1130 C 0.52244 0.4037 0.34321 0.0
O1131 O 0.55716 0.4356 0.29194 0.0
O1132 O 0.53414 0.4365 0.25256 0.0
N1133 N 0.53004 0.37421 0.17827 0.0
C1134 C 0.54371 0.36719 0.16365 0.0
C1135 C 0.54496 0.3606 0.11361 0.0
C1136 C 0.53216 0.36127 0.07917 0.0
C1137 C 0.51821 0.36853 0.09511 0.0
C1138 C 0.5176 0.37479 0.1456 0.0
H1139 H 0.55359 0.36667 0.18991 0.0
O1140 O 0.55294 0.41698 0.19093 0.0
O1141 O 0.53295 0.40382 0.22146 0.0
O1142 O 0.56051 0.39848 0.28471 0.0
O1143 O 0.54494 0.37738 0.27554 0.0
C1144 C 0.505 0.37011 0.06248 0.0
C1145 C 0.49154 0.37806 0.08053 0.0
H1146 H 0.46813 0.39484 0.12776 0.0
H1147 H 0.4697 0.40608 0.21697 0.0
H1148 H 0.55578 0.35506 0.10153 0.0
H1149 H 0.53322 0.3563 0.04043 0.0
H1150 H 0.50516 0.36548 0.02313 0.0
H1151 H 0.48157 0.37943 0.05478 0.0
H1152 H 0.29118 0.32202 0.95814 0.0
H1153 H 0.21384 0.27118 0.01185 0.0
H1154 H 0.29073 0.27192 0.98136 0.0
H1155 H 0.21397 0.32163 0.02402 0.0
H1156 H 0.2419 0.27165 0.99508 0.0
H1157 H 0.2627 0.32256 0.97441 0.0
C1158 C 0.28507 0.31113 0.96586 0.0
C1159 C 0.29333 0.2969 0.96834 0.0
C1160 C 0.23588 0.28265 0.00173 0.0
C1161 C 0.26094 0.29745 0.98747 0.0
C1162 C 0.21982 0.28238 0.01149 0.0
C1163 C 0.21154 0.29638 0.01953 0.0
C1164 C 0.24384 0.29705 -0.00068 0.0
C1165 C 0.21994 0.31055 0.01847 0.0
C1166 C 0.26887 0.31147 0.97565 0.0
C1167 C 0.28487 0.28317 0.97913 0.0
N1168 N 0.23565 0.31055 0.00812 0.0
N1169 N 0.26921 0.2838 0.98826 0.0
H1170 H 0.93295 0.96446 0.28522 0.0
H1171 H 0.98408 0.04127 0.2271 0.0
H1172 H 0.98291 0.96426 0.25886 0.0
H1173 H 0.93366 0.04117 0.21394 0.0
H1174 H 0.98354 0.01321 0.24444 0.0
H1175 H 0.93261 0.99284 0.26724 0.0
C1176 C 0.94386 0.97041 0.27645 0.0
C1177 C 0.95799 0.96199 0.27362 0.0
C1178 C 0.97256 0.01924 0.23739 0.0
C1179 C 0.95766 0.99428 0.25254 0.0
C1180 C 0.97287 0.03529 0.22728 0.0
C1181 C 0.9589 0.04358 0.21883 0.0
C1182 C 0.95814 0.01132 0.23986 0.0
C1183 C 0.94472 0.03519 0.21975 0.0
C1184 C 0.94363 0.98655 0.26566 0.0
C1185 C 0.97174 0.97025 0.26144 0.0
N1186 N 0.94468 0.01952 0.23057 0.0
N1187 N 0.97123 0.98587 0.25141 0.0
H1188 H 0.213 0.6832 0.46387 0.0
H1189 H 0.29054 0.73356 0.51707 0.0
H1190 H 0.21324 0.73304 0.49283 0.0
H1191 H 0.29006 0.68316 0.53098 0.0
H1192 H 0.26234 0.73327 0.50231 0.0
H1193 H 0.24145 0.6826 0.48034 0.0
C1194 C 0.21905 0.69403 0.47297 0.0
C1195 C 0.21074 0.7082 0.47687 0.0
C1196 C 0.26832 0.72225 0.50898 0.0
C1197 C 0.24312 0.70758 0.49615 0.0
C1198 C 0.28444 0.72241 0.51758 0.0
C1199 C 0.29266 0.70837 0.52546 0.0
C1200 C 0.26025 0.70791 0.50743 0.0
C1201 C 0.28413 0.69427 0.52555 0.0
C1202 C 0.23524 0.69365 0.48288 0.0
C1203 C 0.21914 0.72184 0.48942 0.0
N1204 N 0.26838 0.69437 0.51614 0.0
N1205 N 0.2348 0.72119 0.4985 0.0
H1206 H 0.52084 0.04081 0.75751 0.0
H1207 H 0.57145 0.96285 0.71351 0.0
H1208 H 0.57107 0.04027 0.77706 0.0
H1209 H 0.52134 0.96352 0.73637 0.0
H1210 H 0.57202 0.99141 0.72816 0.0
H1211 H 0.52123 0.01261 0.74314 0.0
C1212 C 0.53197 0.03471 0.75928 0.0
C1213 C 0.54594 0.04291 0.76871 0.0
C1214 C 0.56092 0.98526 0.72973 0.0
C1215 C 0.54652 0.01047 0.75124 0.0
C1216 C 0.56057 0.96902 0.72086 0.0
C1217 C 0.54632 0.9608 0.72365 0.0
C1218 C 0.5469 0.99329 0.74082 0.0
C1219 C 0.53259 0.96934 0.73392 0.0
C1220 C 0.53219 0.01857 0.75092 0.0
C1221 C 0.56002 0.03437 0.77039 0.0
N1222 N 0.53324 0.98505 0.74205 0.0
N1223 N 0.55998 0.01859 0.76129 0.0
H1224 H 0.71375 0.68313 0.03333 0.0
H1225 H 0.79099 0.73442 0.98472 0.0
H1226 H 0.71361 0.7331 0.00708 0.0
H1227 H 0.79087 0.68412 0.96686 0.0
H1228 H 0.76281 0.7338 -0.00015 0.0
H1229 H 0.74227 0.68288 0.01798 0.0
C1230 C 0.71974 0.69406 0.0251 0.0
C1231 C 0.7113 0.70816 0.02157 0.0
C1232 C 0.76887 0.72288 0.99228 0.0
C1233 C 0.74376 0.70794 0.00359 0.0
C1234 C 0.78499 0.72323 0.98348 0.0
C1235 C 0.7933 0.7093 0.97429 0.0
C1236 C 0.7609 0.70847 0.99268 0.0
C1237 C 0.78488 0.69514 0.97332 0.0
C1238 C 0.73596 0.69388 0.01583 0.0
C1239 C 0.71962 0.72195 0.01015 0.0
N1240 N 0.76913 0.69506 0.98286 0.0
N1241 N 0.73532 0.72148 0.00166 0.0
H1242 H 0.01997 0.96263 0.76538 0.0
H1243 H 0.07187 0.03936 0.7142 0.0
H1244 H 0.07028 0.96238 0.78278 0.0
H1245 H 0.02171 0.03963 0.73625 0.0
H1246 H 0.07199 0.01093 0.73148 0.0
H1247 H 0.02081 0.99073 0.74907 0.0
C1248 C 0.03121 0.96855 0.76631 0.0
C1249 C 0.04507 0.96015 0.77565 0.0
C1250 C 0.06098 0.01725 0.7323 0.0
C1251 C 0.04617 0.99246 0.75589 0.0
C1252 C 0.06088 0.03342 0.72194 0.0
C1253 C 0.04675 0.04186 0.72372 0.0
C1254 C 0.04683 0.00953 0.74393 0.0
C1255 C 0.03289 0.03362 0.73454 0.0
C1256 C 0.03169 0.98462 0.75682 0.0
C1257 C 0.05931 0.96845 0.77622 0.0
N1258 N 0.03328 0.01798 0.74416 0.0
N1259 N 0.05952 0.98416 0.76599 0.0
H1260 H 0.71345 0.27108 0.48486 0.0
H1261 H 0.7906 0.32244 0.53522 0.0
H1262 H 0.71353 0.3214 0.46787 0.0
H1263 H 0.79053 0.2723 0.51307 0.0
H1264 H 0.76214 0.32274 0.51869 0.0
H1265 H 0.74155 0.27172 0.50109 0.0
C1266 C 0.71944 0.28229 0.48402 0.0
C1267 C 0.71113 0.29621 0.4748 0.0
C1268 C 0.76839 0.31169 0.51772 0.0
C1269 C 0.74346 0.29707 0.49445 0.0
C1270 C 0.78458 0.31149 0.52768 0.0
C1271 C 0.79294 0.29731 0.52562 0.0
C1272 C 0.76055 0.29759 0.5062 0.0
C1273 C 0.78459 0.2835 0.51502 0.0
C1274 C 0.73551 0.28265 0.49346 0.0
C1275 C 0.71952 0.31038 0.47434 0.0
N1276 N 0.76892 0.284 0.50577 0.0
N1277 N 0.73524 0.31048 0.48449 0.0
H1278 H 0.43295 0.96301 0.21179 0.0
H1279 H 0.48407 0.04038 0.26036 0.0
H1280 H 0.48295 0.96313 0.23738 0.0
H1281 H 0.43371 0.04032 0.27592 0.0
H1282 H 0.48351 0.01219 0.24573 0.0
H1283 H 0.43259 0.99154 0.2269 0.0
C1284 C 0.44386 0.96905 0.21983 0.0
C1285 C 0.45801 0.96069 0.22325 0.0
C1286 C 0.47255 0.01826 0.2527 0.0
C1287 C 0.45766 0.99315 0.24099 0.0
C1288 C 0.47287 0.03438 0.26122 0.0
C1289 C 0.45892 0.04272 0.26957 0.0
C1290 C 0.45814 0.0103 0.25176 0.0
C1291 C 0.44475 0.03431 0.2701 0.0
C1292 C 0.44362 0.98528 0.22896 0.0
C1293 C 0.47177 0.96907 0.2344 0.0
N1294 N 0.4447 0.01855 0.26084 0.0
N1295 N 0.47124 0.98477 0.2428 0.0
H1296 H 0.71237 0.77021 0.5091 0.0
H1297 H 0.78955 0.82182 0.46263 0.0
H1298 H 0.7124 0.82046 0.52819 0.0
H1299 H 0.78955 0.77163 0.48369 0.0
H1300 H 0.76103 0.82201 0.47808 0.0
H1301 H 0.7405 0.77092 0.4934 0.0
C1302 C 0.71834 0.78141 0.51049 0.0
C1303 C 0.71002 0.79529 0.52017 0.0
C1304 C 0.76731 0.81097 0.47905 0.0
C1305 C 0.74237 0.79624 0.50117 0.0
C1306 C 0.78353 0.81084 0.46971 0.0
C1307 C 0.79192 0.79668 0.47181 0.0
C1308 C 0.75949 0.79683 0.48996 0.0
C1309 C 0.78358 0.78282 0.48177 0.0
C1310 C 0.73444 0.78182 0.50136 0.0
C1311 C 0.7184 0.80947 0.52133 0.0
N1312 N 0.76789 0.78325 0.49042 0.0
N1313 N 0.73413 0.80961 0.51151 0.0
H1314 H 0.48456 0.46372 0.76102 0.0
H1315 H 0.43353 0.54117 0.71326 0.0
H1316 H 0.43427 0.464 0.77886 0.0
H1317 H 0.48354 0.54106 0.73851 0.0
H1318 H 0.43317 0.51265 0.72859 0.0
H1319 H 0.48405 0.49191 0.7462 0.0
C1320 C 0.47339 0.46976 0.76234 0.0
C1321 C 0.45944 0.46149 0.7714 0.0
C1322 C 0.4442 0.51891 0.73053 0.0
C1323 C 0.45872 0.4939 0.75336 0.0
C1324 C 0.44443 0.53513 0.72127 0.0
C1325 C 0.45859 0.54349 0.72453 0.0
C1326 C 0.45825 0.51104 0.7425 0.0
C1327 C 0.47235 0.53511 0.73566 0.0
C1328 C 0.4731 0.48588 0.75372 0.0
C1329 C 0.44531 0.46996 0.77249 0.0
N1330 N 0.47183 0.51941 0.74416 0.0
N1331 N 0.44528 0.48571 0.7631 0.0
H1332 H 0.71277 0.23367 0.98349 0.0
H1333 H 0.79045 0.1829 0.03157 0.0
H1334 H 0.71312 0.18334 0.96678 0.0
H1335 H 0.78976 0.23309 0.01074 0.0
H1336 H 0.76196 0.18231 0.01543 0.0
H1337 H 0.7409 0.23322 -0.00109 0.0
C1338 C 0.71882 0.2225 0.98255 0.0
C1339 C 0.71058 0.20852 0.97367 0.0
C1340 C 0.76809 0.19343 0.01463 0.0
C1341 C 0.74296 0.20787 0.99234 0.0
C1342 C 0.78429 0.19379 0.02433 0.0
C1343 C 0.79248 0.20807 0.02256 0.0
C1344 C 0.76008 0.20748 0.00364 0.0
C1345 C 0.78396 0.22181 0.01242 0.0
C1346 C 0.73492 0.22224 0.99153 0.0
C1347 C 0.71906 0.1944 0.97302 0.0
N1348 N 0.7683 0.22116 0.00341 0.0
N1349 N 0.7348 0.1944 0.9827 0.0
H1350 H 0.07183 0.46405 0.21376 0.0
H1351 H 0.02061 0.54131 0.2633 0.0
H1352 H 0.02182 0.46413 0.23918 0.0
H1353 H 0.07098 0.54136 0.27854 0.0
H1354 H 0.02123 0.51312 0.24879 0.0
H1355 H 0.07219 0.49255 0.22963 0.0
C1356 C 0.06092 0.47008 0.22196 0.0
C1357 C 0.04677 0.46171 0.22506 0.0
C1358 C 0.03218 0.51921 0.25568 0.0
C1359 C 0.04712 0.49414 0.24366 0.0
C1360 C 0.03182 0.53533 0.26414 0.0
C1361 C 0.04576 0.5437 0.27233 0.0
C1362 C 0.0466 0.51127 0.25462 0.0
C1363 C 0.05995 0.53532 0.27284 0.0
C1364 C 0.06116 0.48629 0.23152 0.0
C1365 C 0.03301 0.47007 0.23644 0.0
N1366 N 0.06004 0.51955 0.26361 0.0
N1367 N 0.03354 0.48575 0.24523 0.0
H1368 H 0.29213 0.23369 0.48222 0.0
H1369 H 0.21516 0.18165 0.52818 0.0
H1370 H 0.29225 0.1835 0.46139 0.0
H1371 H 0.21515 0.232 0.51184 0.0
H1372 H 0.24362 0.18157 0.51144 0.0
H1373 H 0.26404 0.23283 0.49861 0.0
C1374 C 0.28619 0.22247 0.48057 0.0
C1375 C 0.29455 0.20865 0.47023 0.0
C1376 C 0.23735 0.19261 0.51178 0.0
C1377 C 0.26224 0.20752 0.49003 0.0
C1378 C 0.22117 0.19268 0.52185 0.0
C1379 C 0.21278 0.20686 0.52148 0.0
C1380 C 0.24515 0.20683 0.50184 0.0
C1381 C 0.22111 0.22079 0.51243 0.0
C1382 C 0.27012 0.22197 0.49011 0.0
C1383 C 0.28622 0.19445 0.46875 0.0
N1384 N 0.23676 0.22041 0.50302 0.0
N1385 N 0.27051 0.19421 0.47899 0.0
H1386 H 0.57135 0.46369 0.28182 0.0
H1387 H 0.52037 0.54106 0.23196 0.0
H1388 H 0.52136 0.4638 0.25595 0.0
H1389 H 0.57073 0.54086 0.21614 0.0
H1390 H 0.52087 0.51288 0.24682 0.0
H1391 H 0.57174 0.49218 0.26607 0.0
C1392 C 0.56045 0.46972 0.27358 0.0
C1393 C 0.54629 0.46137 0.27028 0.0
C1394 C 0.53183 0.51891 0.23973 0.0
C1395 C 0.54668 0.49379 0.2518 0.0
C1396 C 0.53155 0.53503 0.23107 0.0
C1397 C 0.54552 0.54332 0.2226 0.0
C1398 C 0.54623 0.51092 0.24072 0.0
C1399 C 0.55967 0.53488 0.22204 0.0
C1400 C 0.56071 0.48593 0.26408 0.0
C1401 C 0.53255 0.46974 0.25885 0.0
N1402 N 0.55969 0.51912 0.23147 0.0
N1403 N 0.53309 0.48542 0.2501 0.0
H1404 H 0.29102 0.77021 0.01029 0.0
H1405 H 0.21359 0.82144 0.96339 0.0
H1406 H 0.29088 0.82049 0.02851 0.0
H1407 H 0.21395 0.77125 0.98441 0.0
H1408 H 0.24211 0.82182 0.97883 0.0
H1409 H 0.26291 0.77082 0.99452 0.0
C1410 C 0.28502 0.7814 0.01147 0.0
C1411 C 0.29332 0.79531 0.02093 0.0
C1412 C 0.23591 0.81075 0.97978 0.0
C1413 C 0.26096 0.79616 0.00187 0.0
C1414 C 0.21968 0.8105 0.97045 0.0
C1415 C 0.21139 0.79628 0.97255 0.0
C1416 C 0.24383 0.79665 0.99069 0.0
C1417 C 0.21983 0.78248 0.9825 0.0
C1418 C 0.26894 0.78175 0.0023 0.0
C1419 C 0.2849 0.80948 0.02184 0.0
N1420 N 0.23552 0.78302 0.99114 0.0
N1421 N 0.26916 0.80956 0.01199 0.0
H1422 H 0.98431 0.46475 0.72978 0.0
H1423 H 0.93327 0.5421 0.77985 0.0
H1424 H 0.93396 0.4649 0.71397 0.0
H1425 H 0.98328 0.54196 0.75439 0.0
H1426 H 0.93287 0.51361 0.76387 0.0
H1427 H 0.98378 0.49293 0.74472 0.0
C1428 C 0.97312 0.47077 0.7289 0.0
C1429 C 0.95916 0.46246 0.72041 0.0
C1430 C 0.94391 0.51985 0.76202 0.0
C1431 C 0.95841 0.49486 0.73863 0.0
C1432 C 0.94417 0.53606 0.77165 0.0
C1433 C 0.95834 0.54441 0.76854 0.0
C1434 C 0.95794 0.51199 0.7498 0.0
C1435 C 0.97208 0.53603 0.75714 0.0
C1436 C 0.97282 0.48688 0.73761 0.0
C1437 C 0.945 0.47089 0.71988 0.0
N1438 N 0.97153 0.52035 0.74828 0.0
N1439 N 0.94496 0.48664 0.72936 0.0
H1440 H 0.16984 0.26071 0.92033 0.0
H1441 H 0.17643 0.2243 0.67872 0.0
H1442 H 0.14759 0.29857 0.83726 0.0
H1443 H 0.13692 0.25337 0.63631 0.0
H1444 H 0.17889 0.23905 0.75985 0.0
H1445 H 0.17044 0.24532 0.84054 0.0
C1446 C 0.16517 0.26579 0.88483 0.0
C1447 C 0.15835 0.28074 0.88521 0.0
C1448 C 0.16949 0.24202 0.73329 0.0
C1449 C 0.15955 0.26346 0.79297 0.0
C1450 C 0.16815 0.23363 0.6867 0.0
C1451 C 0.15637 0.23745 0.65068 0.0
C1452 C 0.15893 0.25428 0.74406 0.0
C1453 C 0.14613 0.24986 0.66294 0.0
C1454 C 0.16573 0.25709 0.83903 0.0
C1455 C 0.15275 0.28698 0.83835 0.0
N1456 N 0.14768 0.25784 0.70846 0.0
N1457 N 0.15326 0.27819 0.79401 0.0
H1458 H 0.9937 0.88753 0.87465 0.0
H1459 H 0.99043 0.92116 0.16338 0.0
H1460 H 0.02686 0.92148 0.93379 0.0
H1461 H 0.95138 0.89723 0.0924 0.0
H1462 H 0.00409 0.92106 0.07982 0.0
H1463 H 0.97851 0.89013 0.95459 0.0
C1464 C 0.99784 0.89554 0.9044 0.0
C1465 C 0.01169 0.90427 0.89739 0.0
C1466 C 0.9925 0.91592 0.08216 0.0
C1467 C 0.99414 0.90735 0.98907 0.0
C1468 C 0.98474 0.9159 0.12983 0.0
C1469 C 0.96999 0.90883 0.1346 0.0
C1470 C 0.98547 0.90872 0.03893 0.0
C1471 C 0.96288 0.90255 0.09011 0.0
C1472 C 0.98905 0.89709 0.94992 0.0
C1473 C 0.01631 0.91451 0.93737 0.0
N1474 N 0.97083 0.90241 0.04401 0.0
N1475 N 0.00759 0.9157 0.98162 0.0
H1476 H 0.35616 0.70073 0.34019 0.0
H1477 H 0.33266 0.77873 0.1831 0.0
H1478 H 0.33377 0.74086 0.41011 0.0
H1479 H 0.36358 0.74308 0.12168 0.0
H1480 H 0.33027 0.76352 0.26367 0.0
H1481 H 0.35607 0.71449 0.2556 0.0
C1482 C 0.35118 0.71239 0.33745 0.0
C1483 C 0.3454 0.71995 0.38187 0.0
C1484 C 0.33754 0.75903 0.23241 0.0
C1485 C 0.34492 0.73552 0.2863 0.0
C1486 C 0.3389 0.76771 0.18643 0.0
C1487 C 0.34839 0.76226 0.1456 0.0
C1488 C 0.34559 0.74471 0.23737 0.0
C1489 C 0.35621 0.74785 0.15219 0.0
C1490 C 0.35112 0.72023 0.28949 0.0
C1491 C 0.33873 0.73488 0.37667 0.0
N1492 N 0.35463 0.7396 0.19714 0.0
N1493 N 0.33875 0.74223 0.32982 0.0
H1494 H 0.55303 0.10742 0.58591 0.0
H1495 H 0.47531 0.08277 0.42921 0.0
H1496 H 0.51335 0.08425 0.65581 0.0
H1497 H 0.51034 0.11436 0.36763 0.0
H1498 H 0.49053 0.08077 0.50984 0.0
H1499 H 0.53911 0.10742 0.5016 0.0
C1500 C 0.54144 0.10229 0.58323 0.0
C1501 C 0.53406 0.09624 0.62757 0.0
C1502 C 0.49488 0.08812 0.47855 0.0
C1503 C 0.5183 0.09587 0.5323 0.0
C1504 C 0.48619 0.08926 0.43253 0.0
C1505 C 0.49148 0.0988 0.39158 0.0
C1506 C 0.50904 0.09644 0.48348 0.0
C1507 C 0.5057 0.10694 0.3982 0.0
C1508 C 0.53349 0.10229 0.53543 0.0
C1509 C 0.5192 0.0894 0.62244 0.0
N1510 N 0.51398 0.10556 0.44319 0.0
N1511 N 0.51176 0.08947 0.57575 0.0
H1512 H 0.17101 0.77956 0.81307 0.0
H1513 H 0.14572 0.70198 0.65666 0.0
H1514 H 0.13938 0.74466 0.87524 0.0
H1515 H 0.16921 0.74144 0.58659 0.0
H1516 H 0.14575 0.71597 0.74085 0.0
H1517 H 0.17272 0.76438 0.73226 0.0
C1518 C 0.16445 0.76872 0.80984 0.0
C1519 C 0.15499 0.76345 0.85102 0.0
C1520 C 0.15093 0.72153 0.70701 0.0
C1521 C 0.15702 0.74594 0.7589 0.0
C1522 C 0.15092 0.71354 0.65927 0.0
C1523 C 0.15707 0.72083 0.61491 0.0
C1524 C 0.15748 0.73667 0.71006 0.0
C1525 C 0.16399 0.73566 0.61996 0.0
C1526 C 0.16543 0.76006 0.76371 0.0
C1527 C 0.14676 0.74928 0.8445 0.0
N1528 N 0.16394 0.74314 0.6666 0.0
N1529 N 0.14798 0.74102 0.79941 0.0
H1530 H 0.50885 0.88738 0.12525 0.0
H1531 H 0.51231 0.92033 0.83549 0.0
H1532 H 0.47595 0.92149 0.06553 0.0
H1533 H 0.55111 0.89618 0.90708 0.0
H1534 H 0.49857 0.92041 0.91898 0.0
H1535 H 0.52392 0.88955 0.04493 0.0
C1536 C 0.50475 0.89534 0.09529 0.0
C1537 C 0.49101 0.90425 0.10227 0.0
C1538 C 0.51012 0.91517 0.91676 0.0
C1539 C 0.50842 0.90682 0.01011 0.0
C1540 C 0.51791 0.91505 0.86913 0.0
C1541 C 0.53262 0.90786 0.86457 0.0
C1542 C 0.51707 0.90799 0.96016 0.0
C1543 C 0.53964 0.90157 0.90919 0.0
C1544 C 0.51347 0.89663 0.04954 0.0
C1545 C 0.48642 0.9144 0.06199 0.0
N1546 N 0.53167 0.90155 0.95524 0.0
N1547 N 0.49507 0.91535 0.01752 0.0
H1548 H 0.33397 0.26301 0.0803 0.0
H1549 H 0.36676 0.26019 0.37024 0.0
H1550 H 0.35747 0.3022 0.15199 0.0
H1551 H 0.33329 0.22666 0.31041 0.0
H1552 H 0.36428 0.27525 0.29005 0.0
H1553 H 0.33394 0.24934 0.16392 0.0
C1554 C 0.33912 0.26871 0.11399 0.0
C1555 C 0.34612 0.28351 0.10943 0.0
C1556 C 0.3574 0.26466 0.29459 0.0
C1557 C 0.34605 0.26804 0.20514 0.0
C1558 C 0.35887 0.25594 0.34029 0.0
C1559 C 0.35025 0.24203 0.34718 0.0
C1560 C 0.34732 0.25943 0.25513 0.0
C1561 C 0.34017 0.23727 0.30692 0.0
C1562 C 0.33902 0.26096 0.16169 0.0
C1563 C 0.35223 0.29065 0.1541 0.0
N1564 N 0.33905 0.24592 0.26249 0.0
N1565 N 0.35228 0.28272 0.20021 0.0
H1566 H 0.02809 0.07714 0.56637 0.0
H1567 H 0.99274 0.08442 0.32392 0.0
H1568 H 0.99843 0.11616 0.60934 0.0
H1569 H 0.9542 0.10606 0.40535 0.0
H1570 H 0.00747 0.08325 0.4049 0.0
H1571 H 0.01333 0.07449 0.48538 0.0
C1572 C 0.0186 0.08526 0.5586 0.0
C1573 C 0.01467 0.097 0.59461 0.0
C1574 C 0.99568 0.08792 0.40581 0.0
C1575 C 0.99786 0.09426 0.50127 0.0
C1576 C 0.98736 0.08881 0.35934 0.0
C1577 C 0.97242 0.09564 0.35817 0.0
C1578 C 0.98895 0.09379 0.45177 0.0
C1579 C 0.96579 0.10089 0.4049 0.0
C1580 C 0.01022 0.08382 0.51205 0.0
C1581 C 1.00205 0.10701 0.58264 0.0
N1582 N 0.97424 0.10008 0.44994 0.0
N1583 N 0.99411 0.10541 0.53706 0.0
H1584 H 0.858 0.70306 0.15609 0.0
H1585 H 0.8325 0.78066 0.31193 0.0
H1586 H 0.83473 0.74253 0.08521 0.0
H1587 H 0.86465 0.74615 0.37355 0.0
H1588 H 0.83083 0.76544 0.23115 0.0
H1589 H 0.85795 0.71717 0.24006 0.0
C1590 C 0.85285 0.71465 0.15848 0.0
C1591 C 0.84676 0.72191 0.11396 0.0
C1592 C 0.83823 0.76122 0.26248 0.0
C1593 C 0.84633 0.73787 0.20886 0.0
C1594 C 0.83918 0.76991 0.30858 0.0
C1595 C 0.84877 0.76475 0.3496 0.0
C1596 C 0.84679 0.74719 0.25759 0.0
C1597 C 0.85718 0.75068 0.34294 0.0
C1598 C 0.85282 0.7227 0.20608 0.0
C1599 C 0.8399 0.73677 0.11872 0.0
N1600 N 0.85597 0.7424 0.29791 0.0
N1601 N 0.83993 0.74431 0.16525 0.0
H1602 H 0.0087 0.11746 0.1182 0.0
H1603 H 0.01282 0.08352 0.82982 0.0
H1604 H 0.97608 0.0829 0.05953 0.0
H1605 H 0.05159 0.10756 0.90202 0.0
H1606 H 0.99875 0.08393 0.91271 0.0
H1607 H 0.0238 0.11516 0.03805 0.0
C1608 C 0.00465 0.10938 0.08849 0.0
C1609 C 0.991 0.10037 0.09576 0.0
C1610 C 0.01036 0.08904 0.91074 0.0
C1611 C 0.00846 0.09766 0.00377 0.0
C1612 C 0.01834 0.0889 0.86345 0.0
C1613 C 0.03315 0.09589 0.85923 0.0
C1614 C 0.01723 0.09631 0.95412 0.0
C1615 C 0.04005 0.10231 0.90386 0.0
C1616 C 0.0134 0.10802 0.04283 0.0
C1617 C 0.98649 0.09008 0.05576 0.0
N1618 N 0.03191 0.10258 0.94955 0.0
N1619 N 0.99517 0.08906 0.01137 0.0
H1620 H 0.64625 0.30251 0.65565 0.0
H1621 H 0.67084 0.22492 0.81313 0.0
H1622 H 0.66977 0.26292 0.58643 0.0
H1623 H 0.6392 0.25998 0.8742 0.0
H1624 H 0.67293 0.2401 0.73245 0.0
H1625 H 0.64614 0.28862 0.74001 0.0
C1626 C 0.65143 0.29094 0.65849 0.0
C1627 C 0.65761 0.28358 0.61431 0.0
C1628 C 0.66556 0.24446 0.76363 0.0
C1629 C 0.65786 0.26786 0.70966 0.0
C1630 C 0.66437 0.2358 0.80969 0.0
C1631 C 0.65478 0.24111 0.85051 0.0
C1632 C 0.65723 0.25862 0.75853 0.0
C1633 C 0.64666 0.25533 0.84373 0.0
C1634 C 0.65136 0.28302 0.70632 0.0
C1635 C 0.66451 0.26875 0.61965 0.0
N1636 N 0.64808 0.26358 0.79871 0.0
N1637 N 0.66438 0.26133 0.66638 0.0
H1638 H 0.45134 0.89676 0.4068 0.0
H1639 H 0.52923 0.92094 0.56338 0.0
H1640 H 0.49122 0.91949 0.33662 0.0
H1641 H 0.49369 0.89004 0.62561 0.0
H1642 H 0.51406 0.923 0.48263 0.0
H1643 H 0.46518 0.89689 0.49123 0.0
C1644 C 0.46296 0.90182 0.40945 0.0
C1645 C 0.47042 0.9077 0.365 0.0
C1646 C 0.50959 0.9158 0.5141 0.0
C1647 C 0.4861 0.90822 0.4604 0.0
C1648 C 0.51825 0.91463 0.56019 0.0
C1649 C 0.51281 0.90525 0.60132 0.0
C1650 C 0.49531 0.90767 0.50932 0.0
C1651 C 0.49846 0.89733 0.59488 0.0
C1652 C 0.47086 0.9019 0.45732 0.0
C1653 C 0.48532 0.91446 0.37008 0.0
N1654 N 0.49022 0.89873 0.54983 0.0
N1655 N 0.49272 0.91446 0.41685 0.0
H1656 H 0.82749 0.22736 0.17803 0.0
H1657 H 0.83356 0.2633 0.42005 0.0
H1658 H 0.86687 0.25675 0.13685 0.0
H1659 H 0.85579 0.30154 0.33883 0.0
H1660 H 0.83271 0.24838 0.33939 0.0
H1661 H 0.82446 0.24228 0.25855 0.0
C1662 C 0.83562 0.2368 0.18614 0.0
C1663 C 0.84756 0.24063 0.15071 0.0
C1664 C 0.83743 0.26015 0.33842 0.0
C1665 C 0.84436 0.25766 0.2435 0.0
C1666 C 0.83813 0.26859 0.38472 0.0
C1667 C 0.84504 0.28348 0.38589 0.0
C1668 C 0.8436 0.26672 0.29265 0.0
C1669 C 0.85054 0.28998 0.33928 0.0
C1670 C 0.83395 0.24529 0.2324 0.0
C1671 C 0.85757 0.25322 0.16308 0.0
N1672 N 0.84993 0.28142 0.29443 0.0
N1673 N 0.85574 0.26127 0.20836 0.0
H1674 H 0.49242 0.08362 0.15753 0.0
H1675 H 0.4951 0.11561 0.86651 0.0
H1676 H 0.45316 0.10688 0.08542 0.0
H1677 H 0.52857 0.08221 0.92716 0.0
H1678 H 0.48011 0.11346 0.94702 0.0
H1679 H 0.5061 0.0835 0.07392 0.0
C1680 C 0.48671 0.08871 0.12376 0.0
C1681 C 0.47189 0.09565 0.12818 0.0
C1682 C 0.49067 0.10653 0.94257 0.0
C1683 C 0.48735 0.09546 0.03246 0.0
C1684 C 0.49934 0.10781 0.8967 0.0
C1685 C 0.51322 0.09911 0.88996 0.0
C1686 C 0.49592 0.09656 0.98234 0.0
C1687 C 0.51798 0.08915 0.93052 0.0
C1688 C 0.49447 0.08855 0.07606 0.0
C1689 C 0.46473 0.10169 0.0834 0.0
N1690 N 0.50938 0.08821 0.9751 0.0
N1691 N 0.47266 0.10167 0.03728 0.0
H1692 H 0.64693 0.70089 0.83879 0.0
H1693 H 0.67067 0.77876 0.68143 0.0
H1694 H 0.66997 0.74075 0.90804 0.0
H1695 H 0.63894 0.74367 0.62107 0.0
H1696 H 0.67313 0.76346 0.76174 0.0
H1697 H 0.64674 0.71475 0.75436 0.0
C1698 C 0.65201 0.7125 0.83593 0.0
C1699 C 0.65806 0.71995 0.88014 0.0
C1700 C 0.66565 0.75911 0.73078 0.0
C1701 C 0.65821 0.73565 0.78475 0.0
C1702 C 0.66425 0.76785 0.68494 0.0
C1703 C 0.65453 0.76258 0.64445 0.0
C1704 C 0.65741 0.74491 0.73598 0.0
C1705 C 0.64649 0.74831 0.65131 0.0
C1706 C 0.6519 0.72041 0.78806 0.0
C1707 C 0.66482 0.73484 0.87478 0.0
N1708 N 0.64812 0.73998 0.69612 0.0
N1709 N 0.66464 0.74225 0.82804 0.0
H1710 H 0.00951 0.88956 0.37143 0.0
H1711 H 0.01168 0.91939 0.66517 0.0
H1712 H 0.97568 0.92214 0.43479 0.0
H1713 H 0.0509 0.8963 0.59214 0.0
H1714 H 0.99812 0.92007 0.58144 0.0
H1715 H 0.02438 0.89114 0.45227 0.0
C1716 C 0.00517 0.89708 0.40228 0.0
C1717 C 0.99121 0.9057 0.39622 0.0
C1718 C 0.00971 0.91492 0.58341 0.0
C1719 C 0.00838 0.90757 0.48905 0.0
C1720 C 0.01741 0.91445 0.63118 0.0
C1721 C 0.0322 0.90741 0.63536 0.0
C1722 C 0.01685 0.90826 0.53943 0.0
C1723 C 0.03936 0.90157 0.59031 0.0
C1724 C 0.01377 0.89802 0.44837 0.0
C1725 C 0.98633 0.91529 0.43761 0.0
N1726 N 0.0315 0.90191 0.54408 0.0
N1727 N 0.99487 0.91589 0.4824 0.0
H1728 H 0.66873 0.7617 0.41119 0.0
H1729 H 0.63821 0.75913 0.11819 0.0
H1730 H 0.64554 0.80085 0.3382 0.0
H1731 H 0.67129 0.72565 0.18072 0.0
H1732 H 0.63977 0.77398 0.19909 0.0
H1733 H 0.6691 0.74798 0.32768 0.0
C1734 C 0.66369 0.76737 0.37727 0.0
C1735 C 0.65672 0.78219 0.3814 0.0
C1736 C 0.64676 0.76345 0.195 0.0
C1737 C 0.65723 0.76668 0.28573 0.0
C1738 C 0.64583 0.75486 0.14888 0.0
C1739 C 0.65461 0.74101 0.14254 0.0
C1740 C 0.65646 0.75816 0.23543 0.0
C1741 C 0.66431 0.73622 0.18375 0.0
C1742 C 0.66399 0.75959 0.32962 0.0
C1743 C 0.65076 0.78929 0.33641 0.0
N1744 N 0.66491 0.74474 0.22856 0.0
N1745 N 0.65094 0.78135 0.29031 0.0
H1746 H 0.49229 0.42052 0.65957 0.0
H1747 H 0.4953 0.38842 0.36888 0.0
H1748 H 0.45299 0.39749 0.58688 0.0
H1749 H 0.52855 0.42207 0.42933 0.0
H1750 H 0.48023 0.39063 0.44918 0.0
H1751 H 0.50604 0.42065 0.57611 0.0
C1752 C 0.48658 0.4155 0.6257 0.0
C1753 C 0.47172 0.40861 0.62992 0.0
C1754 C 0.49076 0.3976 0.44474 0.0
C1755 C 0.48728 0.4088 0.53437 0.0
C1756 C 0.49948 0.39629 0.399 0.0
C1757 C 0.51332 0.40505 0.39224 0.0
C1758 C 0.49591 0.40766 0.48438 0.0
C1759 C 0.518 0.41509 0.43271 0.0
C1760 C 0.49438 0.41566 0.57809 0.0
C1761 C 0.46458 0.40264 0.58502 0.0
N1762 N 0.50935 0.41605 0.47717 0.0
N1763 N 0.47256 0.40265 0.53898 0.0
H1764 H 0.8666 0.24711 0.62535 0.0
H1765 H 0.83369 0.2433 0.91512 0.0
H1766 H 0.8325 0.28003 0.68514 0.0
H1767 H 0.85746 0.2045 0.84207 0.0
H1768 H 0.83383 0.25735 0.83215 0.0
H1769 H 0.8645 0.23209 0.70565 0.0
C1770 C 0.85866 0.25124 0.65534 0.0
C1771 C 0.84972 0.26496 0.64833 0.0
C1772 C 0.83894 0.24574 0.83398 0.0
C1773 C 0.84724 0.24758 0.74057 0.0
C1774 C 0.83895 0.23777 0.8813 0.0
C1775 C 0.84596 0.22296 0.88528 0.0
C1776 C 0.84605 0.23885 0.79033 0.0
C1777 C 0.85221 0.21604 0.84042 0.0
C1778 C 0.85741 0.24254 0.70111 0.0
C1779 C 0.83961 0.26957 0.68871 0.0
N1780 N 0.85232 0.22417 0.79471 0.0
N1781 N 0.8387 0.26093 0.73322 0.0
H1782 H 0.01267 0.58412 0.15811 0.0
H1783 H 0.01 0.61654 0.86788 0.0
H1784 H 0.05204 0.60722 0.08606 0.0
H1785 H 0.97639 0.58319 0.92799 0.0
H1786 H 0.02511 0.614 0.94796 0.0
H1787 H 0.99907 0.58394 0.0744 0.0
C1788 C 0.01843 0.58914 0.12431 0.0
C1789 C 0.03326 0.59608 0.12879 0.0
C1790 C 0.01449 0.60716 0.94348 0.0
C1791 C 0.01786 0.59585 0.03298 0.0
C1792 C 0.00575 0.60866 0.89787 0.0
C1793 C 0.99179 0.6001 0.8911 0.0
C1794 C 0.00925 0.59711 0.98299 0.0
C1795 C 0.98703 0.59003 0.93139 0.0
C1796 C 0.01072 0.58895 0.07656 0.0
C1797 C 0.04047 0.60203 0.084 0.0
N1798 N 0.9957 0.58889 0.97575 0.0
N1799 N 0.03257 0.60201 0.03783 0.0
H1800 H 0.67109 0.2797 0.31279 0.0
H1801 H 0.64612 0.20213 0.15578 0.0
H1802 H 0.64003 0.24434 0.37518 0.0
H1803 H 0.66918 0.24184 0.08568 0.0
H1804 H 0.64629 0.21598 0.24018 0.0
H1805 H 0.67285 0.26463 0.23174 0.0
C1806 C 0.66469 0.26878 0.30958 0.0
C1807 C 0.65535 0.26336 0.35085 0.0
C1808 C 0.65134 0.22163 0.20628 0.0
C1809 C 0.65741 0.24598 0.25846 0.0
C1810 C 0.65124 0.21372 0.15842 0.0
C1811 C 0.65723 0.22112 0.114 0.0
C1812 C 0.6578 0.23681 0.20942 0.0
C1813 C 0.66407 0.23598 0.1191 0.0
C1814 C 0.66568 0.26017 0.2633 0.0
C1815 C 0.64729 0.24908 0.34436 0.0
N1816 N 0.6641 0.24338 0.16588 0.0
N1817 N 0.64852 0.2409 0.29912 0.0
H1818 H 0.00952 0.38852 0.62446 0.0
H1819 H 0.01312 0.42077 0.33366 0.0
H1820 H 0.9768 0.42262 0.56361 0.0
H1821 H 0.05174 0.39642 0.40561 0.0
H1822 H 0.99931 0.42091 0.41698 0.0
H1823 H 0.0245 0.39024 0.54383 0.0
C1824 C 0.00543 0.39638 0.59419 0.0
C1825 C 0.99178 0.40542 0.60095 0.0
C1826 C 0.01083 0.41561 0.41487 0.0
C1827 C 0.00909 0.40747 0.50842 0.0
C1828 C 0.01866 0.41544 0.36733 0.0
C1829 C 0.03335 0.40822 0.36293 0.0
C1830 C 0.01772 0.40843 0.45838 0.0
C1831 C 0.04029 0.40186 0.40761 0.0
C1832 C 0.0141 0.39741 0.54824 0.0
C1833 C 0.98721 0.41543 0.56026 0.0
N1834 N 0.03228 0.40191 0.4536 0.0
N1835 N 0.99581 0.41613 0.51564 0.0
H1836 H 0.86561 0.76031 0.87415 0.0
H1837 H 0.83311 0.76294 0.58396 0.0
H1838 H 0.83224 0.72666 0.81445 0.0
H1839 H 0.8556 0.80254 0.6567 0.0
H1840 H 0.83324 0.74916 0.66741 0.0
H1841 H 0.86309 0.77533 0.7939 0.0
C1842 C 0.85774 0.75603 0.84421 0.0
C1843 C 0.84915 0.74209 0.85116 0.0
C1844 C 0.83806 0.76089 0.66543 0.0
C1845 C 0.84617 0.75945 0.75906 0.0
C1846 C 0.83808 0.76871 0.61784 0.0
C1847 C 0.84475 0.78366 0.61364 0.0
C1848 C 0.84484 0.76807 0.70912 0.0
C1849 C 0.85062 0.79088 0.65853 0.0
C1850 C 0.85624 0.76473 0.79849 0.0
C1851 C 0.83909 0.73729 0.81091 0.0
N1852 N 0.85077 0.78289 0.70453 0.0
N1853 N 0.83795 0.74592 0.76644 0.0
H1854 H 0.49501 0.61679 0.12599 0.0
H1855 H 0.49168 0.58426 0.83578 0.0
H1856 H 0.52798 0.58282 0.06572 0.0
H1857 H 0.45267 0.60795 0.90787 0.0
H1858 H 0.50542 0.58416 0.91922 0.0
H1859 H 0.47993 0.61467 0.04568 0.0
C1860 C 0.49913 0.60887 0.09591 0.0
C1861 C 0.51289 0.59999 0.10272 0.0
C1862 C 0.49382 0.58929 0.91713 0.0
C1863 C 0.49546 0.59748 0.01061 0.0
C1864 C 0.48603 0.58943 0.86953 0.0
C1865 C 0.47125 0.59648 0.86514 0.0
C1866 C 0.48681 0.59634 0.96067 0.0
C1867 C 0.46418 0.60265 0.90988 0.0
C1868 C 0.4904 0.60761 0.05017 0.0
C1869 C 0.51749 0.5899 0.0623 0.0
N1870 N 0.47216 0.60266 0.95592 0.0
N1871 N 0.50883 0.58898 0.01786 0.0
H1872 H 0.35912 0.20246 0.65148 0.0
H1873 H 0.33365 0.28001 0.80777 0.0
H1874 H 0.33574 0.24194 0.58111 0.0
H1875 H 0.36502 0.24494 0.87037 0.0
H1876 H 0.33199 0.26485 0.72687 0.0
H1877 H 0.35888 0.21639 0.73575 0.0
C1878 C 0.3539 0.21401 0.65405 0.0
C1879 C 0.34785 0.22133 0.60959 0.0
C1880 C 0.33921 0.26049 0.75845 0.0
C1881 C 0.34721 0.2371 0.70483 0.0
C1882 C 0.34015 0.26914 0.80463 0.0
C1883 C 0.34953 0.26382 0.84593 0.0
C1884 C 0.34758 0.24634 0.75374 0.0
C1885 C 0.35771 0.2496 0.83953 0.0
C1886 C 0.35377 0.22196 0.70183 0.0
C1887 C 0.3409 0.23614 0.61457 0.0
N1888 N 0.35653 0.24137 0.79439 0.0
N1889 N 0.34084 0.24359 0.66126 0.0
H1890 H 0.50993 0.61599 0.62649 0.0
H1891 H 0.51262 0.584 0.33564 0.0
H1892 H 0.47641 0.58264 0.56585 0.0
H1893 H 0.55198 0.60702 0.408 0.0
H1894 H 0.49898 0.5838 0.41928 0.0
H1895 H 0.525 0.61369 0.54621 0.0
C1896 C 0.50569 0.60816 0.59634 0.0
C1897 C 0.49178 0.59953 0.60302 0.0
C1898 C 0.51063 0.5888 0.4172 0.0
C1899 C 0.50917 0.5968 0.51091 0.0
C1900 C 0.51837 0.58901 0.36949 0.0
C1901 C 0.53321 0.59592 0.36513 0.0
C1902 C 0.51777 0.59565 0.46087 0.0
C1903 C 0.5404 0.60185 0.40998 0.0
C1904 C 0.51441 0.6068 0.55061 0.0
C1905 C 0.48702 0.58953 0.56253 0.0
N1906 N 0.53248 0.60181 0.45612 0.0
N1907 N 0.49566 0.58852 0.51807 0.0
H1908 H 0.13875 0.75991 0.37608 0.0
H1909 H 0.17073 0.76245 0.08514 0.0
H1910 H 0.17197 0.72623 0.31559 0.0
H1911 H 0.14764 0.80178 0.15742 0.0
H1912 H 0.17094 0.74881 0.16883 0.0
H1913 H 0.1411 0.77493 0.29577 0.0
C1914 C 0.14656 0.75563 0.34596 0.0
C1915 C 0.15514 0.74168 0.35269 0.0
C1916 C 0.16591 0.76045 0.1667 0.0
C1917 C 0.15791 0.75902 0.26047 0.0
C1918 C 0.1657 0.76818 0.11896 0.0
C1919 C 0.15877 0.78302 0.11456 0.0
C1920 C 0.15906 0.76759 0.21036 0.0
C1921 C 0.15282 0.79021 0.15941 0.0
C1922 C 0.14795 0.76432 0.30019 0.0
C1923 C 0.16512 0.73688 0.31222 0.0
N1924 N 0.15287 0.7823 0.20556 0.0
N1925 N 0.16616 0.74549 0.2677 0.0
H1926 H 0.9519 0.399 0.90544 0.0
H1927 H 0.02992 0.42245 0.06255 0.0
H1928 H 0.99202 0.42141 0.83557 0.0
H1929 H 0.99419 0.39165 0.1241 0.0
H1930 H 0.01471 0.42485 0.98198 0.0
H1931 H 0.96565 0.3991 0.99004 0.0
C1932 C 0.96355 0.40399 0.90819 0.0
C1933 C 0.97111 0.40977 0.86378 0.0
C1934 C 0.0102 0.4176 0.01327 0.0
C1935 C 0.98668 0.41026 0.95938 0.0
C1936 C 0.01889 0.41624 0.05926 0.0
C1937 C 0.01341 0.40677 0.10012 0.0
C1938 C 0.99587 0.40958 0.00832 0.0
C1939 C 0.99898 0.39899 0.09356 0.0
C1940 C 0.9714 0.40405 0.95617 0.0
C1941 C 0.98604 0.41645 0.869 0.0
N1942 N 0.99073 0.40058 0.0486 0.0
N1943 N 0.99339 0.41643 0.91586 0.0
H1944 H 0.33431 0.76184 0.91186 0.0
H1945 H 0.3666 0.75844 0.62109 0.0
H1946 H 0.35853 0.80058 0.84009 0.0
H1947 H 0.33252 0.72566 0.68179 0.0
H1948 H 0.36484 0.7734 0.70178 0.0
H1949 H 0.33421 0.74807 0.82846 0.0
C1950 C 0.33962 0.76742 0.87821 0.0
C1951 C 0.3468 0.78213 0.88267 0.0
C1952 C 0.35768 0.76299 0.69731 0.0
C1953 C 0.34664 0.76655 0.78716 0.0
C1954 C 0.35873 0.75434 0.65134 0.0
C1955 C 0.34971 0.74067 0.64453 0.0
C1956 C 0.34762 0.75795 0.73709 0.0
C1957 C 0.33969 0.73608 0.68518 0.0
C1958 C 0.33948 0.75961 0.83063 0.0
C1959 C 0.35313 0.78911 0.83804 0.0
N1960 N 0.33898 0.74467 0.72982 0.0
N1961 N 0.35311 0.78113 0.792 0.0
H1962 H 0.9916 0.58511 0.65842 0.0
H1963 H 0.99501 0.61729 0.36772 0.0
H1964 H 0.95276 0.60904 0.58623 0.0
H1965 H 0.02795 0.58339 0.42857 0.0
H1966 H 0.97996 0.61536 0.44813 0.0
H1967 H 0.00535 0.58489 0.575 0.0
C1968 C 0.98599 0.59032 0.62466 0.0
C1969 C 0.97126 0.59747 0.62902 0.0
C1970 C 0.99042 0.60828 0.44375 0.0
C1971 C 0.98683 0.59718 0.53349 0.0
C1972 C 0.99913 0.60943 0.39794 0.0
C1973 C 0.01287 0.60051 0.39126 0.0
C1974 C 0.99547 0.59822 0.48351 0.0
C1975 C 0.01747 0.5905 0.43188 0.0
C1976 C 0.99379 0.59011 0.57707 0.0
C1977 C 0.96424 0.60367 0.58426 0.0
N1978 N 0.00883 0.58968 0.47638 0.0
N1979 N 0.97222 0.6036 0.53822 0.0
H1980 H 0.17619 0.27897 0.1777 0.0
H1981 H 0.17126 0.24234 0.41938 0.0
H1982 H 0.13688 0.24935 0.13756 0.0
H1983 H 0.1493 0.20413 0.33721 0.0
H1984 H 0.17151 0.25765 0.3394 0.0
H1985 H 0.17946 0.26409 0.25823 0.0
C1986 C 0.16813 0.26949 0.18606 0.0
C1987 C 0.15615 0.26556 0.15087 0.0
C1988 C 0.16696 0.24582 0.33811 0.0
C1989 C 0.15966 0.24856 0.24356 0.0
C1990 C 0.1666 0.23716 0.38401 0.0
C1991 C 0.15994 0.22215 0.38471 0.0
C1992 C 0.16071 0.23935 0.29231 0.0
C1993 C 0.15434 0.21578 0.33804 0.0
C1994 C 0.16993 0.26102 0.23231 0.0
C1995 C 0.14621 0.25295 0.16357 0.0
N1996 N 0.15462 0.22455 0.29363 0.0
N1997 N 0.14821 0.2449 0.20874 0.0
H1998 H 0.51309 0.42045 0.15945 0.0
H1999 H 0.50995 0.38829 0.86879 0.0
H2000 H 0.55227 0.39717 0.08688 0.0
H2001 H 0.47679 0.42202 0.92938 0.0
H2002 H 0.52503 0.39043 0.94909 0.0
H2003 H 0.49934 0.4206 0.076 0.0
C2004 C 0.51877 0.41537 0.1256 0.0
C2005 C 0.5336 0.40842 0.12986 0.0
C2006 C 0.51452 0.39744 0.94468 0.0
C2007 C 0.51803 0.40862 0.03432 0.0
C2008 C 0.50579 0.39616 0.89894 0.0
C2009 C 0.49197 0.40496 0.89222 0.0
C2010 C 0.50939 0.4075 0.98435 0.0
C2011 C 0.48732 0.415 0.93273 0.0
C2012 C 0.51097 0.41554 0.078 0.0
C2013 C 0.54071 0.40238 0.08499 0.0
N2014 N 0.49598 0.41593 0.97718 0.0
N2015 N 0.53273 0.4024 0.03896 0.0
H2016 H 0.14147 0.33789 0.07608 0.0
H2017 H 0.05423 0.35298 0.17895 0.0
H2018 H 0.10205 0.30703 0.0504 0.0
H2019 H 0.08814 0.39056 0.17258 0.0
H2020 H 0.07304 0.33563 0.13821 0.0
H2021 H 0.12347 0.35713 0.11566 0.0
C2022 C 0.12909 0.33517 0.07835 0.0
C2023 C 0.12337 0.32069 0.06004 0.0
C2024 C 0.07645 0.34767 0.14553 0.0
C2025 C 0.1028 0.34257 0.10574 0.0
C2026 C 0.06567 0.35765 0.16916 0.0
C2027 C 0.06949 0.37339 0.17929 0.0
C2028 C 0.09137 0.35325 0.13182 0.0
C2029 C 0.08462 0.37856 0.16547 0.0
C2030 C 0.11884 0.34616 0.10102 0.0
C2031 C 0.10716 0.31789 0.06415 0.0
N2032 N 0.09504 0.36851 0.14249 0.0
N2033 N 0.09757 0.32862 0.0867 0.0
H2034 H 0.86189 0.8381 0.41723 0.0
H2035 H 0.9499 0.85381 0.3236 0.0
H2036 H 0.90148 0.80811 0.45039 0.0
H2037 H 0.91533 0.89083 0.32202 0.0
H2038 H 0.93101 0.83656 0.36422 0.0
H2039 H 0.88001 0.85734 0.37834 0.0
C2040 C 0.87433 0.83557 0.41671 0.0
C2041 C 0.88008 0.82133 0.4369 0.0
C2042 C 0.92747 0.84845 0.35518 0.0
C2043 C 0.90079 0.84322 0.3921 0.0
C2044 C 0.93829 0.85838 0.33159 0.0
C2045 C 0.9343 0.87392 0.31917 0.0
C2046 C 0.91232 0.85389 0.36651 0.0
C2047 C 0.91898 0.87898 0.33093 0.0
C2048 C 0.88465 0.84656 0.39446 0.0
C2049 C 0.89636 0.81877 0.43507 0.0
N2050 N 0.9085 0.86897 0.35383 0.0
N2051 N 0.90602 0.8295 0.41291 0.0
H2052 H 0.36294 0.66619 0.57678 0.0
H2053 H 0.44968 0.65249 0.6862 0.0
H2054 H 0.40194 0.69784 0.55482 0.0
H2055 H 0.41685 0.6141 0.67326 0.0
H2056 H 0.43069 0.66971 0.64569 0.0
H2057 H 0.38101 0.64727 0.61768 0.0
C2058 C 0.37524 0.66916 0.58024 0.0
C2059 C 0.38084 0.68374 0.56238 0.0
C2060 C 0.42757 0.65752 0.65155 0.0
C2061 C 0.40146 0.66223 0.60958 0.0
C2062 C 0.43844 0.64761 0.67502 0.0
C2063 C 0.43499 0.63169 0.68315 0.0
C2064 C 0.41292 0.65166 0.63599 0.0
C2065 C 0.42009 0.62626 0.66769 0.0
C2066 C 0.38553 0.65835 0.6036 0.0
C2067 C 0.39694 0.68687 0.568 0.0
N2068 N 0.40958 0.63623 0.64485 0.0
N2069 N 0.40656 0.6763 0.59122 0.0
H2070 H 0.60126 0.19897 0.9402 0.0
H2071 H 0.58819 0.11334 0.82025 0.0
H2072 H 0.6401 0.1671 0.9185 0.0
H2073 H 0.55541 0.1518 0.80847 0.0
H2074 H 0.6071 0.13124 0.86205 0.0
H2075 H 0.58394 0.18004 0.89987 0.0
C2076 C 0.60622 0.18796 0.92709 0.0
C2077 C 0.6223 0.18477 0.93265 0.0
C2078 C 0.59576 0.13569 0.85003 0.0
C2079 C 0.6022 0.16277 0.88571 0.0
C2080 C 0.58496 0.12549 0.82618 0.0
C2081 C 0.57009 0.13098 0.81078 0.0
C2082 C 0.59159 0.15141 0.85902 0.0
C2083 C 0.56663 0.14689 0.81955 0.0
C2084 C 0.59625 0.17711 0.90376 0.0
C2085 C 0.62782 0.17013 0.91495 0.0
N2086 N 0.57721 0.15642 0.84316 0.0
N2087 N 0.61779 0.15966 0.8922 0.0
H2088 H 0.05589 0.65331 0.29545 0.0
H2089 H 0.14024 0.66635 0.42511 0.0
H2090 H 0.08675 0.61426 0.32672 0.0
H2091 H 0.10229 0.69988 0.42778 0.0
H2092 H 0.12256 0.64734 0.38282 0.0
H2093 H 0.0747 0.67083 0.33552 0.0
C2094 C 0.06665 0.64835 0.31061 0.0
C2095 C 0.06958 0.63215 0.30787 0.0
C2096 C 0.11818 0.65887 0.39293 0.0
C2097 C 0.09144 0.65247 0.35449 0.0
C2098 C 0.12825 0.66973 0.41704 0.0
C2099 C 0.12283 0.68482 0.43013 0.0
C2100 C 0.10265 0.66321 0.38131 0.0
C2101 C 0.10712 0.68847 0.41864 0.0
C2102 C 0.07743 0.65844 0.33376 0.0
C2103 C 0.08392 0.62663 0.32805 0.0
N2104 N 0.09771 0.67783 0.39483 0.0
N2105 N 0.09432 0.63676 0.35062 0.0
H2106 H 0.63971 0.83724 0.57151 0.0
H2107 H 0.55424 0.85128 0.69184 0.0
H2108 H 0.60122 0.80442 0.56279 0.0
H2109 H 0.5866 0.88967 0.66955 0.0
H2110 H 0.57297 0.83366 0.65188 0.0
H2111 H 0.62194 0.85637 0.61271 0.0
C2112 C 0.62758 0.83404 0.57799 0.0
C2113 C 0.62204 0.8191 0.56362 0.0
C2114 C 0.57605 0.84593 0.65557 0.0
C2115 C 0.60175 0.84087 0.61118 0.0
C2116 C 0.56532 0.85608 0.67868 0.0
C2117 C 0.56871 0.87213 0.68399 0.0
C2118 C 0.59048 0.85167 0.63748 0.0
C2119 C 0.58342 0.87743 0.66622 0.0
C2120 C 0.61746 0.84498 0.60151 0.0
C2121 C 0.60616 0.81569 0.57308 0.0
N2122 N 0.59377 0.86723 0.6437 0.0
N2123 N 0.59669 0.82641 0.59633 0.0
H2124 H 0.41682 0.39122 0.81954 0.0
H2125 H 0.40289 0.30572 0.93937 0.0
H2126 H 0.44957 0.35268 0.80999 0.0
H2127 H 0.36424 0.33763 0.91477 0.0
H2128 H 0.42048 0.32459 0.90007 0.0
H2129 H 0.39765 0.3734 0.86038 0.0
C2130 C 0.41999 0.37907 0.82577 0.0
C2131 C 0.43492 0.37353 0.81125 0.0
C2132 C 0.40816 0.32754 0.90311 0.0
C2133 C 0.41313 0.35319 0.85842 0.0
C2134 C 0.39803 0.31673 0.92584 0.0
C2135 C 0.38192 0.31994 0.93026 0.0
C2136 C 0.40234 0.34188 0.88453 0.0
C2137 C 0.37654 0.33457 0.91209 0.0
C2138 C 0.40904 0.36892 0.84907 0.0
C2139 C 0.4383 0.35763 0.82038 0.0
N2140 N 0.38672 0.34501 0.88994 0.0
N2141 N 0.42759 0.34814 0.84345 0.0
H2142 H 0.90209 0.19975 0.05425 0.0
H2143 H 0.9162 0.11389 0.17088 0.0
H2144 H 0.86346 0.16776 0.07786 0.0
H2145 H 0.94878 0.15253 0.18227 0.0
H2146 H 0.89698 0.1318 0.13072 0.0
H2147 H 0.9197 0.18076 0.0928 0.0
C2148 C 0.89724 0.1887 0.06741 0.0
C2149 C 0.88112 0.1855 0.06295 0.0
C2150 C 0.90834 0.13627 0.1423 0.0
C2151 C 0.90156 0.16342 0.10784 0.0
C2152 C 0.91932 0.12608 0.16523 0.0
C2153 C 0.93423 0.13162 0.18003 0.0
C2154 C 0.91237 0.15205 0.13361 0.0
C2155 C 0.93754 0.14757 0.17163 0.0
C2156 C 0.90738 0.17782 0.08972 0.0
C2157 C 0.87575 0.1708 0.08059 0.0
N2158 N 0.92679 0.1571 0.1489 0.0
N2159 N 0.88595 0.16029 0.10235 0.0
H2160 H 0.86365 0.66741 0.92124 0.0
H2161 H 0.94969 0.65367 0.80534 0.0
H2162 H 0.90235 0.69982 0.93532 0.0
H2163 H 0.91718 0.6152 0.82352 0.0
H2164 H 0.93083 0.67107 0.84564 0.0
H2165 H 0.88157 0.64838 0.88015 0.0
C2166 C 0.87585 0.67054 0.91598 0.0
C2167 C 0.8814 0.68535 0.93177 0.0
C2168 C 0.92775 0.65883 0.84099 0.0
C2169 C 0.90186 0.6637 0.88435 0.0
C2170 C 0.93855 0.64881 0.81766 0.0
C2171 C 0.93516 0.6328 0.81105 0.0
C2172 C 0.91323 0.65301 0.85798 0.0
C2173 C 0.92038 0.62741 0.82787 0.0
C2174 C 0.88606 0.65966 0.89252 0.0
C2175 C 0.89738 0.68866 0.92385 0.0
N2176 N 0.90994 0.63749 0.85059 0.0
N2177 N 0.90692 0.67802 0.90062 0.0
H2178 H 0.14276 0.16536 0.57686 0.0
H2179 H 0.05519 0.15046 0.67579 0.0
H2180 H 0.1032 0.19554 0.54524 0.0
H2181 H 0.08887 0.11264 0.67101 0.0
H2182 H 0.07419 0.1676 0.63515 0.0
H2183 H 0.12465 0.14616 0.61619 0.0
C2184 C 0.13032 0.16793 0.57775 0.0
C2185 C 0.12458 0.18223 0.55794 0.0
C2186 C 0.0775 0.15555 0.6428 0.0
C2187 C 0.10391 0.16042 0.60336 0.0
C2188 C 0.06662 0.14569 0.66639 0.0
C2189 C 0.07031 0.12995 0.6769 0.0
C2190 C 0.09241 0.14985 0.62953 0.0
C2191 C 0.08545 0.12466 0.66358 0.0
C2192 C 0.12002 0.15697 0.60027 0.0
C2193 C 0.10832 0.18484 0.56026 0.0
N2194 N 0.09598 0.1346 0.64063 0.0
N2195 N 0.09868 0.17416 0.58276 0.0
H2196 H 0.58806 0.39109 0.32244 0.0
H2197 H 0.60189 0.30504 0.43773 0.0
H2198 H 0.55585 0.35227 0.30699 0.0
H2199 H 0.64035 0.33757 0.41983 0.0
H2200 H 0.5845 0.32388 0.39738 0.0
H2201 H 0.60709 0.3732 0.36358 0.0
C2202 C 0.58498 0.37886 0.3274 0.0
C2203 C 0.57022 0.37327 0.31123 0.0
C2204 C 0.59673 0.32697 0.4021 0.0
C2205 C 0.59187 0.35284 0.35871 0.0
C2206 C 0.60675 0.31618 0.42546 0.0
C2207 C 0.62275 0.31958 0.43215 0.0
C2208 C 0.60256 0.3415 0.38516 0.0
C2209 C 0.62814 0.33437 0.41541 0.0
C2210 C 0.59586 0.36867 0.35089 0.0
C2211 C 0.56697 0.35727 0.31877 0.0
N2212 N 0.61806 0.3448 0.39266 0.0
N2213 N 0.57761 0.34774 0.34205 0.0
H2214 H 0.40222 0.80335 0.06392 0.0
H2215 H 0.41661 0.89037 0.1702 0.0
H2216 H 0.36432 0.83684 0.07355 0.0
H2217 H 0.44824 0.85133 0.1918 0.0
H2218 H 0.39757 0.87231 0.12995 0.0
H2219 H 0.4196 0.82225 0.10403 0.0
C2220 C 0.39748 0.81471 0.07431 0.0
C2221 C 0.38164 0.81838 0.06531 0.0
C2222 C 0.40867 0.86777 0.14379 0.0
C2223 C 0.40182 0.84037 0.11201 0.0
C2224 C 0.41956 0.87806 0.16678 0.0
C2225 C 0.43416 0.87245 0.18436 0.0
C2226 C 0.41249 0.85183 0.13794 0.0
C2227 C 0.43725 0.85634 0.17881 0.0
C2228 C 0.40749 0.82554 0.09755 0.0
C2229 C 0.3764 0.83343 0.07979 0.0
N2230 N 0.4266 0.84671 0.156 0.0
N2231 N 0.38647 0.8439 0.10241 0.0
H2232 H 0.94884 0.353 0.69385 0.0
H2233 H 0.86339 0.33965 0.57341 0.0
H2234 H 0.91747 0.39201 0.66789 0.0
H2235 H 0.90192 0.30694 0.5621 0.0
H2236 H 0.88131 0.35874 0.61425 0.0
H2237 H 0.92987 0.33561 0.65413 0.0
C2238 C 0.93793 0.35798 0.67993 0.0
C2239 C 0.9349 0.37414 0.68409 0.0
C2240 C 0.88576 0.34738 0.60252 0.0
C2241 C 0.91285 0.35394 0.63787 0.0
C2242 C 0.87556 0.33648 0.5792 0.0
C2243 C 0.88106 0.32157 0.56427 0.0
C2244 C 0.9015 0.34326 0.61148 0.0
C2245 C 0.897 0.31818 0.57285 0.0
C2246 C 0.92707 0.34796 0.65695 0.0
C2247 C 0.92039 0.37968 0.66541 0.0
N2248 N 0.90653 0.32884 0.59599 0.0
N2249 N 0.90988 0.3696 0.64305 0.0
H2250 H 0.40357 0.20012 0.42981 0.0
H2251 H 0.41736 0.11327 0.32098 0.0
H2252 H 0.36531 0.16714 0.41723 0.0
H2253 H 0.44947 0.15203 0.3018 0.0
H2254 H 0.39837 0.13142 0.36114 0.0
H2255 H 0.42088 0.18112 0.38976 0.0
C2256 C 0.39874 0.18885 0.41879 0.0
C2257 C 0.38282 0.18535 0.42693 0.0
C2258 C 0.40957 0.13587 0.34785 0.0
C2259 C 0.40291 0.16326 0.3803 0.0
C2260 C 0.42042 0.12554 0.3249 0.0
C2261 C 0.43515 0.13104 0.30804 0.0
C2262 C 0.41355 0.15176 0.35437 0.0
C2263 C 0.43838 0.1471 0.31423 0.0
C2264 C 0.40871 0.17796 0.39558 0.0
C2265 C 0.37746 0.17041 0.41166 0.0
N2266 N 0.42777 0.15677 0.33698 0.0
N2267 N 0.38748 0.1599 0.38909 0.0
H2268 H 0.6409 0.66579 0.07133 0.0
H2269 H 0.55589 0.65278 0.19583 0.0
H2270 H 0.60256 0.6988 0.06284 0.0
H2271 H 0.58707 0.6137 0.16851 0.0
H2272 H 0.5748 0.67015 0.1557 0.0
H2273 H 0.6231 0.64682 0.11329 0.0
C2274 C 0.6288 0.66906 0.07803 0.0
C2275 C 0.62331 0.68401 0.06346 0.0
C2276 C 0.57758 0.65779 0.15832 0.0
C2277 C 0.603 0.66244 0.11191 0.0
C2278 C 0.56674 0.64778 0.18153 0.0
C2279 C 0.56974 0.63161 0.18541 0.0
C2280 C 0.59172 0.65178 0.1387 0.0
C2281 C 0.58419 0.62604 0.16627 0.0
C2282 C 0.61866 0.65822 0.10196 0.0
C2283 C 0.60746 0.68751 0.07321 0.0
N2284 N 0.59465 0.63611 0.14365 0.0
N2285 N 0.59799 0.6769 0.0969 0.0
H2286 H 0.0536 0.85119 0.81514 0.0
H2287 H 0.14068 0.8374 0.92174 0.0
H2288 H 0.08672 0.88937 0.82602 0.0
H2289 H 0.10193 0.80541 0.94286 0.0
H2290 H 0.12246 0.85635 0.88182 0.0
H2291 H 0.07263 0.83391 0.85516 0.0
C2292 C 0.06491 0.85601 0.82576 0.0
C2293 C 0.06844 0.87189 0.81714 0.0
C2294 C 0.11802 0.84518 0.89549 0.0
C2295 C 0.09056 0.85184 0.86373 0.0
C2296 C 0.1284 0.83436 0.9183 0.0
C2297 C 0.12293 0.81967 0.93563 0.0
C2298 C 0.10211 0.84123 0.88956 0.0
C2299 C 0.10684 0.81646 0.93005 0.0
C2300 C 0.07581 0.84606 0.84895 0.0
C2301 C 0.08342 0.87725 0.83195 0.0
N2302 N 0.09712 0.82705 0.90739 0.0
N2303 N 0.09395 0.86724 0.85449 0.0
loop_
_geom_bond_atom_site_label_1
_geom_bond_atom_site_label_2
_geom_bond_distance
_geom_bond_site_symmetry_2
_ccdc_geom_bond_type
Mn0 O5 2.095 . S
Mn0 O15 2.162 . S
Mn0 O16 2.297 . S
Mn0 O24 2.385 1_554 S
Mn0 O25 2.209 . S
Mn0 O26 2.094 . S
Mn1 O6 2.121 . S
Mn1 N8 2.257 . S
Mn1 N17 2.282 1_554 S
Mn1 O25 2.215 . S
Mn1 O27 2.117 . S
C2 O24 1.234 . S
C2 O25 1.283 1_556 S
C3 O15 1.281 . S
C3 O16 1.236 . S
C4 O26 1.240 . S
C4 O27 1.264 . S
O5 Mn0 2.095 . S
O5 C14 1.250 . S
O6 Mn1 2.121 . S
O6 C14 1.258 . S
C7 N8 1.326 . S
C7 C11 1.460 . S
C7 H13 0.929 . S
N8 Mn1 2.257 . S
N8 C7 1.326 . S
N8 C12 1.362 . S
C9 C10 1.258 1_556 S
C9 C12 1.431 1_556 S
C9 C29 1.449 . S
C10 C9 1.258 1_554 S
C10 C11 1.477 . S
C10 H30 0.931 . S
C11 C7 1.460 . S
C11 C10 1.477 . S
C11 H31 0.930 . S
C12 N8 1.362 . S
C12 C9 1.431 1_554 S
C12 C22 1.476 1_554 S
H13 C7 0.929 . S
C14 O5 1.250 . S
C14 O6 1.258 . S
O15 Mn0 2.162 . S
O15 C3 1.281 . S
O16 Mn0 2.297 . S
O16 C3 1.236 . S
N17 Mn1 2.282 1_556 S
N17 C18 1.328 . S
N17 C22 1.318 . S
C18 N17 1.328 . S
C18 C19 1.457 . S
C18 H23 0.929 . S
C19 C18 1.457 . S
C19 C20 1.291 . S
C19 H32 0.931 . S
C20 C19 1.291 . S
C20 C21 1.373 . S
C20 H33 0.929 . S
C21 C20 1.373 . S
C21 C22 1.396 . S
C21 C28 1.403 . S
C22 C12 1.476 1_556 S
C22 N17 1.318 . S
C22 C21 1.396 . S
H23 C18 0.929 . S
O24 Mn0 2.385 1_556 S
O24 C2 1.234 . S
O25 Mn0 2.209 . S
O25 Mn1 2.215 . S
O25 C2 1.283 1_554 S
O26 Mn0 2.094 . S
O26 C4 1.240 . S
O27 Mn1 2.117 . S
O27 C4 1.264 . S
C28 C21 1.403 . S
C28 C29 1.399 . S
C28 H34 0.929 . S
C29 C9 1.449 . S
C29 C28 1.399 . S
C29 H35 0.930 . S
H30 C10 0.931 . S
H31 C11 0.930 . S
H32 C19 0.931 . S
H33 C20 0.929 . S
H34 C28 0.929 . S
H35 C29 0.930 . S
Mn36 O41 2.095 . S
Mn36 O51 2.162 . S
Mn36 O52 2.297 . S
Mn36 O60 2.385 . S
Mn36 O61 2.209 . S
Mn36 O62 2.094 . S
Mn37 O42 2.121 . S
Mn37 N44 2.257 1_655 S
Mn37 N53 2.282 . S
Mn37 O61 2.215 . S
Mn37 O63 2.117 . S
C38 O60 1.234 . S
C38 O61 1.283 . S
C39 O51 1.281 . S
C39 O52 1.236 . S
C40 O62 1.240 . S
C40 O63 1.264 . S
O41 Mn36 2.095 . S
O41 C50 1.250 . S
O42 Mn37 2.121 . S
O42 C50 1.258 . S
C43 N44 1.326 . S
C43 C47 1.460 . S
C43 H49 0.929 . S
N44 Mn37 2.257 1_455 S
N44 C43 1.326 . S
N44 C48 1.362 . S
C45 C46 1.258 . S
C45 C48 1.431 . S
C45 C65 1.449 . S
C46 C45 1.258 . S
C46 C47 1.477 . S
C46 H66 0.931 . S
C47 C43 1.460 . S
C47 C46 1.477 . S
C47 H67 0.930 . S
C48 N44 1.362 . S
C48 C45 1.431 . S
C48 C58 1.476 1_455 S
H49 C43 0.929 . S
C50 O41 1.250 . S
C50 O42 1.258 . S
O51 Mn36 2.162 . S
O51 C39 1.281 . S
O52 Mn36 2.297 . S
O52 C39 1.236 . S
N53 Mn37 2.282 . S
N53 C54 1.328 . S
N53 C58 1.318 . S
C54 N53 1.328 . S
C54 C55 1.457 . S
C54 H59 0.929 . S
C55 C54 1.457 . S
C55 C56 1.291 . S
C55 H68 0.931 . S
C56 C55 1.291 . S
C56 C57 1.373 . S
C56 H69 0.929 . S
C57 C56 1.373 . S
C57 C58 1.396 . S
C57 C64 1.403 1_655 S
C58 C48 1.476 1_655 S
C58 N53 1.318 . S
C58 C57 1.396 . S
H59 C54 0.929 . S
O60 Mn36 2.385 . S
O60 C38 1.234 . S
O61 Mn36 2.209 . S
O61 Mn37 2.215 . S
O61 C38 1.283 . S
O62 Mn36 2.094 . S
O62 C40 1.240 . S
O63 Mn37 2.117 . S
O63 C40 1.264 . S
C64 C57 1.403 1_455 S
C64 C65 1.399 . S
C64 H70 0.929 . S
C65 C45 1.449 . S
C65 C64 1.399 . S
C65 H71 0.930 . S
H66 C46 0.931 . S
H67 C47 0.930 . S
H68 C55 0.931 . S
H69 C56 0.929 . S
H70 C64 0.929 . S
H71 C65 0.930 . S
Mn72 O77 2.095 . S
Mn72 O87 2.162 . S
Mn72 O88 2.297 . S
Mn72 O96 2.385 . S
Mn72 O97 2.209 . S
Mn72 O98 2.094 . S
Mn73 O78 2.121 . S
Mn73 N80 2.257 . S
Mn73 N89 2.282 . S
Mn73 O97 2.215 . S
Mn73 O99 2.117 . S
C74 O96 1.234 . S
C74 O97 1.283 . S
C75 O87 1.281 . S
C75 O88 1.236 . S
C76 O98 1.240 . S
C76 O99 1.264 . S
O77 Mn72 2.095 . S
O77 C86 1.250 . S
O78 Mn73 2.121 . S
O78 C86 1.258 . S
C79 N80 1.326 . S
C79 C83 1.460 . S
C79 H85 0.929 . S
N80 Mn73 2.257 . S
N80 C79 1.326 . S
N80 C84 1.362 . S
C81 C82 1.258 . S
C81 C84 1.431 . S
C81 C101 1.449 . S
C82 C81 1.258 . S
C82 C83 1.477 . S
C82 H102 0.931 . S
C83 C79 1.460 . S
C83 C82 1.477 . S
C83 H103 0.930 . S
C84 N80 1.362 . S
C84 C81 1.431 . S
C84 C94 1.476 . S
H85 C79 0.929 . S
C86 O77 1.250 . S
C86 O78 1.258 . S
O87 Mn72 2.162 . S
O87 C75 1.281 . S
O88 Mn72 2.297 . S
O88 C75 1.236 . S
N89 Mn73 2.282 . S
N89 C90 1.328 . S
N89 C94 1.318 . S
C90 N89 1.328 . S
C90 C91 1.457 . S
C90 H95 0.929 . S
C91 C90 1.457 . S
C91 C92 1.291 . S
C91 H104 0.931 . S
C92 C91 1.291 . S
C92 C93 1.373 . S
C92 H105 0.929 . S
C93 C92 1.373 . S
C93 C94 1.396 . S
C93 C100 1.403 . S
C94 C84 1.476 . S
C94 N89 1.318 . S
C94 C93 1.396 . S
H95 C90 0.929 . S
O96 Mn72 2.385 . S
O96 C74 1.234 . S
O97 Mn72 2.209 . S
O97 Mn73 2.215 . S
O97 C74 1.283 . S
O98 Mn72 2.094 . S
O98 C76 1.240 . S
O99 Mn73 2.117 . S
O99 C76 1.264 . S
C100 C93 1.403 . S
C100 C101 1.399 . S
C100 H106 0.929 . S
C101 C81 1.449 . S
C101 C100 1.399 . S
C101 H107 0.930 . S
H102 C82 0.931 . S
H103 C83 0.930 . S
H104 C91 0.931 . S
H105 C92 0.929 . S
H106 C100 0.929 . S
H107 C101 0.930 . S
Mn108 O113 2.095 . S
Mn108 O123 2.162 . S
Mn108 O124 2.297 . S
Mn108 O132 2.385 . S
Mn108 O133 2.209 . S
Mn108 O134 2.094 . S
Mn109 O114 2.121 . S
Mn109 N116 2.257 . S
Mn109 N125 2.282 . S
Mn109 O133 2.215 . S
Mn109 O135 2.117 . S
C110 O132 1.234 . S
C110 O133 1.283 . S
C111 O123 1.281 . S
C111 O124 1.236 . S
C112 O134 1.240 . S
C112 O135 1.264 . S
O113 Mn108 2.095 . S
O113 C122 1.250 . S
O114 Mn109 2.121 . S
O114 C122 1.258 . S
C115 N116 1.326 . S
C115 C119 1.460 . S
C115 H121 0.929 . S
N116 Mn109 2.257 . S
N116 C115 1.326 . S
N116 C120 1.362 . S
C117 C118 1.258 . S
C117 C120 1.431 . S
C117 C137 1.449 . S
C118 C117 1.258 . S
C118 C119 1.477 . S
C118 H138 0.931 . S
C119 C115 1.460 . S
C119 C118 1.477 . S
C119 H139 0.930 . S
C120 N116 1.362 . S
C120 C117 1.431 . S
C120 C130 1.476 . S
H121 C115 0.929 . S
C122 O113 1.250 . S
C122 O114 1.258 . S
O123 Mn108 2.162 . S
O123 C111 1.281 . S
O124 Mn108 2.297 . S
O124 C111 1.236 . S
N125 Mn109 2.282 . S
N125 C126 1.328 . S
N125 C130 1.318 . S
C126 N125 1.328 . S
C126 C127 1.457 . S
C126 H131 0.929 . S
C127 C126 1.457 . S
C127 C128 1.291 . S
C127 H140 0.931 . S
C128 C127 1.291 . S
C128 C129 1.373 . S
C128 H141 0.929 . S
C129 C128 1.373 . S
C129 C130 1.396 . S
C129 C136 1.403 . S
C130 C120 1.476 . S
C130 N125 1.318 . S
C130 C129 1.396 . S
H131 C126 0.929 . S
O132 Mn108 2.385 . S
O132 C110 1.234 . S
O133 Mn108 2.209 . S
O133 Mn109 2.215 . S
O133 C110 1.283 . S
O134 Mn108 2.094 . S
O134 C112 1.240 . S
O135 Mn109 2.117 . S
O135 C112 1.264 . S
C136 C129 1.403 . S
C136 C137 1.399 . S
C136 H142 0.929 . S
C137 C117 1.449 . S
C137 C136 1.399 . S
C137 H143 0.930 . S
H138 C118 0.931 . S
H139 C119 0.930 . S
H140 C127 0.931 . S
H141 C128 0.929 . S
H142 C136 0.929 . S
H143 C137 0.930 . S
Mn144 O149 2.095 . S
Mn144 O159 2.162 . S
Mn144 O160 2.297 . S
Mn144 O168 2.385 . S
Mn144 O169 2.209 . S
Mn144 O170 2.094 . S
Mn145 O150 2.121 . S
Mn145 N152 2.257 . S
Mn145 N161 2.282 . S
Mn145 O169 2.215 . S
Mn145 O171 2.117 . S
C146 O168 1.234 . S
C146 O169 1.283 . S
C147 O159 1.281 . S
C147 O160 1.236 . S
C148 O170 1.240 . S
C148 O171 1.264 . S
O149 Mn144 2.095 . S
O149 C158 1.250 . S
O150 Mn145 2.121 . S
O150 C158 1.258 . S
C151 N152 1.326 . S
C151 C155 1.460 . S
C151 H157 0.929 . S
N152 Mn145 2.257 . S
N152 C151 1.326 . S
N152 C156 1.362 . S
C153 C154 1.258 . S
C153 C156 1.431 . S
C153 C173 1.449 . S
C154 C153 1.258 . S
C154 C155 1.477 . S
C154 H174 0.931 . S
C155 C151 1.460 . S
C155 C154 1.477 . S
C155 H175 0.930 . S
C156 N152 1.362 . S
C156 C153 1.431 . S
C156 C166 1.476 . S
H157 C151 0.929 . S
C158 O149 1.250 . S
C158 O150 1.258 . S
O159 Mn144 2.162 . S
O159 C147 1.281 . S
O160 Mn144 2.297 . S
O160 C147 1.236 . S
N161 Mn145 2.282 . S
N161 C162 1.328 . S
N161 C166 1.318 . S
C162 N161 1.328 . S
C162 C163 1.457 . S
C162 H167 0.929 . S
C163 C162 1.457 . S
C163 C164 1.291 . S
C163 H176 0.931 . S
C164 C163 1.291 . S
C164 C165 1.373 . S
C164 H177 0.929 . S
C165 C164 1.373 . S
C165 C166 1.396 . S
C165 C172 1.403 . S
C166 C156 1.476 . S
C166 N161 1.318 . S
C166 C165 1.396 . S
H167 C162 0.929 . S
O168 Mn144 2.385 . S
O168 C146 1.234 . S
O169 Mn144 2.209 . S
O169 Mn145 2.215 . S
O169 C146 1.283 . S
O170 Mn144 2.094 . S
O170 C148 1.240 . S
O171 Mn145 2.117 . S
O171 C148 1.264 . S
C172 C165 1.403 . S
C172 C173 1.399 . S
C172 H178 0.929 . S
C173 C153 1.449 . S
C173 C172 1.399 . S
C173 H179 0.930 . S
H174 C154 0.931 . S
H175 C155 0.930 . S
H176 C163 0.931 . S
H177 C164 0.929 . S
H178 C172 0.929 . S
H179 C173 0.930 . S
Mn180 O185 2.095 . S
Mn180 O195 2.162 . S
Mn180 O196 2.297 . S
Mn180 O204 2.385 . S
Mn180 O205 2.209 . S
Mn180 O206 2.094 . S
Mn181 O186 2.121 . S
Mn181 N188 2.257 . S
Mn181 N197 2.282 . S
Mn181 O205 2.215 . S
Mn181 O207 2.117 . S
C182 O204 1.234 . S
C182 O205 1.283 . S
C183 O195 1.281 . S
C183 O196 1.236 . S
C184 O206 1.240 . S
C184 O207 1.264 . S
O185 Mn180 2.095 . S
O185 C194 1.250 . S
O186 Mn181 2.121 . S
O186 C194 1.258 . S
C187 N188 1.326 . S
C187 C191 1.460 . S
C187 H193 0.929 . S
N188 Mn181 2.257 . S
N188 C187 1.326 . S
N188 C192 1.362 . S
C189 C190 1.258 . S
C189 C192 1.431 . S
C189 C209 1.449 . S
C190 C189 1.258 . S
C190 C191 1.477 . S
C190 H210 0.931 . S
C191 C187 1.460 . S
C191 C190 1.477 . S
C191 H211 0.930 . S
C192 N188 1.362 . S
C192 C189 1.431 . S
C192 C202 1.476 . S
H193 C187 0.929 . S
C194 O185 1.250 . S
C194 O186 1.258 . S
O195 Mn180 2.162 . S
O195 C183 1.281 . S
O196 Mn180 2.297 . S
O196 C183 1.236 . S
N197 Mn181 2.282 . S
N197 C198 1.328 . S
N197 C202 1.318 . S
C198 N197 1.328 . S
C198 C199 1.457 . S
C198 H203 0.929 . S
C199 C198 1.457 . S
C199 C200 1.291 . S
C199 H212 0.931 . S
C200 C199 1.291 . S
C200 C201 1.373 . S
C200 H213 0.929 . S
C201 C200 1.373 . S
C201 C202 1.396 . S
C201 C208 1.403 . S
C202 C192 1.476 . S
C202 N197 1.318 . S
C202 C201 1.396 . S
H203 C198 0.929 . S
O204 Mn180 2.385 . S
O204 C182 1.234 . S
O205 Mn180 2.209 . S
O205 Mn181 2.215 . S
O205 C182 1.283 . S
O206 Mn180 2.094 . S
O206 C184 1.240 . S
O207 Mn181 2.117 . S
O207 C184 1.264 . S
C208 C201 1.403 . S
C208 C209 1.399 . S
C208 H214 0.929 . S
C209 C189 1.449 . S
C209 C208 1.399 . S
C209 H215 0.930 . S
H210 C190 0.931 . S
H211 C191 0.930 . S
H212 C199 0.931 . S
H213 C200 0.929 . S
H214 C208 0.929 . S
H215 C209 0.930 . S
Mn216 O221 2.095 . S
Mn216 O231 2.162 . S
Mn216 O232 2.297 . S
Mn216 O240 2.385 1_556 S
Mn216 O241 2.209 . S
Mn216 O242 2.094 . S
Mn217 O222 2.121 . S
Mn217 N224 2.257 . S
Mn217 N233 2.282 1_556 S
Mn217 O241 2.215 . S
Mn217 O243 2.117 . S
C218 O240 1.234 . S
C218 O241 1.283 1_554 S
C219 O231 1.281 . S
C219 O232 1.236 . S
C220 O242 1.240 . S
C220 O243 1.264 . S
O221 Mn216 2.095 . S
O221 C230 1.250 . S
O222 Mn217 2.121 . S
O222 C230 1.258 . S
C223 N224 1.326 . S
C223 C227 1.460 . S
C223 H229 0.929 . S
N224 Mn217 2.257 . S
N224 C223 1.326 . S
N224 C228 1.362 . S
C225 C226 1.258 1_554 S
C225 C228 1.431 1_554 S
C225 C245 1.449 . S
C226 C225 1.258 1_556 S
C226 C227 1.477 . S
C226 H246 0.931 . S
C227 C223 1.460 . S
C227 C226 1.477 . S
C227 H247 0.930 . S
C228 N224 1.362 . S
C228 C225 1.431 1_556 S
C228 C238 1.476 1_556 S
H229 C223 0.929 . S
C230 O221 1.250 . S
C230 O222 1.258 . S
O231 Mn216 2.162 . S
O231 C219 1.281 . S
O232 Mn216 2.297 . S
O232 C219 1.236 . S
N233 Mn217 2.282 1_554 S
N233 C234 1.328 . S
N233 C238 1.318 . S
C234 N233 1.328 . S
C234 C235 1.457 . S
C234 H239 0.929 . S
C235 C234 1.457 . S
C235 C236 1.291 . S
C235 H248 0.931 . S
C236 C235 1.291 . S
C236 C237 1.373 . S
C236 H249 0.929 . S
C237 C236 1.373 . S
C237 C238 1.396 . S
C237 C244 1.403 . S
C238 C228 1.476 1_554 S
C238 N233 1.318 . S
C238 C237 1.396 . S
H239 C234 0.929 . S
O240 Mn216 2.385 1_554 S
O240 C218 1.234 . S
O241 Mn216 2.209 . S
O241 Mn217 2.215 . S
O241 C218 1.283 1_556 S
O242 Mn216 2.094 . S
O242 C220 1.240 . S
O243 Mn217 2.117 . S
O243 C220 1.264 . S
C244 C237 1.403 . S
C244 C245 1.399 . S
C244 H250 0.929 . S
C245 C225 1.449 . S
C245 C244 1.399 . S
C245 H251 0.930 . S
H246 C226 0.931 . S
H247 C227 0.930 . S
H248 C235 0.931 . S
H249 C236 0.929 . S
H250 C244 0.929 . S
H251 C245 0.930 . S
Mn252 O257 2.095 . S
Mn252 O267 2.162 . S
Mn252 O268 2.297 . S
Mn252 O276 2.385 . S
Mn252 O277 2.209 . S
Mn252 O278 2.094 . S
Mn253 O258 2.121 . S
Mn253 N260 2.257 1_655 S
Mn253 N269 2.282 . S
Mn253 O277 2.215 . S
Mn253 O279 2.117 . S
C254 O276 1.234 . S
C254 O277 1.283 . S
C255 O267 1.281 . S
C255 O268 1.236 . S
C256 O278 1.240 . S
C256 O279 1.264 . S
O257 Mn252 2.095 . S
O257 C266 1.250 . S
O258 Mn253 2.121 . S
O258 C266 1.258 . S
C259 N260 1.326 . S
C259 C263 1.460 . S
C259 H265 0.929 . S
N260 Mn253 2.257 1_455 S
N260 C259 1.326 . S
N260 C264 1.362 . S
C261 C262 1.258 . S
C261 C264 1.431 . S
C261 C281 1.449 . S
C262 C261 1.258 . S
C262 C263 1.477 . S
C262 H282 0.931 . S
C263 C259 1.460 . S
C263 C262 1.477 . S
C263 H283 0.930 . S
C264 N260 1.362 . S
C264 C261 1.431 . S
C264 C274 1.476 1_455 S
H265 C259 0.929 . S
C266 O257 1.250 . S
C266 O258 1.258 . S
O267 Mn252 2.162 . S
O267 C255 1.281 . S
O268 Mn252 2.297 . S
O268 C255 1.236 . S
N269 Mn253 2.282 . S
N269 C270 1.328 . S
N269 C274 1.318 . S
C270 N269 1.328 . S
C270 C271 1.457 . S
C270 H275 0.929 . S
C271 C270 1.457 . S
C271 C272 1.291 . S
C271 H284 0.931 . S
C272 C271 1.291 . S
C272 C273 1.373 . S
C272 H285 0.929 . S
C273 C272 1.373 . S
C273 C274 1.396 . S
C273 C280 1.403 1_655 S
C274 C264 1.476 1_655 S
C274 N269 1.318 . S
C274 C273 1.396 . S
H275 C270 0.929 . S
O276 Mn252 2.385 . S
O276 C254 1.234 . S
O277 Mn252 2.209 . S
O277 Mn253 2.215 . S
O277 C254 1.283 . S
O278 Mn252 2.094 . S
O278 C256 1.240 . S
O279 Mn253 2.117 . S
O279 C256 1.264 . S
C280 C273 1.403 1_455 S
C280 C281 1.399 . S
C280 H286 0.929 . S
C281 C261 1.449 . S
C281 C280 1.399 . S
C281 H287 0.930 . S
H282 C262 0.931 . S
H283 C263 0.930 . S
H284 C271 0.931 . S
H285 C272 0.929 . S
H286 C280 0.929 . S
H287 C281 0.930 . S
Mn288 O293 2.095 . S
Mn288 O303 2.162 . S
Mn288 O304 2.297 . S
Mn288 O312 2.385 1_556 S
Mn288 O313 2.209 . S
Mn288 O314 2.094 . S
Mn289 O294 2.121 . S
Mn289 N296 2.257 . S
Mn289 N305 2.282 1_556 S
Mn289 O313 2.215 . S
Mn289 O315 2.117 . S
C290 O312 1.234 . S
C290 O313 1.283 1_554 S
C291 O303 1.281 . S
C291 O304 1.236 . S
C292 O314 1.240 . S
C292 O315 1.264 . S
O293 Mn288 2.095 . S
O293 C302 1.250 . S
O294 Mn289 2.121 . S
O294 C302 1.258 . S
C295 N296 1.326 . S
C295 C299 1.460 . S
C295 H301 0.929 . S
N296 Mn289 2.257 . S
N296 C295 1.326 . S
N296 C300 1.362 . S
C297 C298 1.258 1_554 S
C297 C300 1.431 1_554 S
C297 C317 1.449 . S
C298 C297 1.258 1_556 S
C298 C299 1.477 . S
C298 H318 0.931 . S
C299 C295 1.460 . S
C299 C298 1.477 . S
C299 H319 0.930 . S
C300 N296 1.362 . S
C300 C297 1.431 1_556 S
C300 C310 1.476 1_556 S
H301 C295 0.929 . S
C302 O293 1.250 . S
C302 O294 1.258 . S
O303 Mn288 2.162 . S
O303 C291 1.281 . S
O304 Mn288 2.297 . S
O304 C291 1.236 . S
N305 Mn289 2.282 1_554 S
N305 C306 1.328 . S
N305 C310 1.318 . S
C306 N305 1.328 . S
C306 C307 1.457 . S
C306 H311 0.929 . S
C307 C306 1.457 . S
C307 C308 1.291 . S
C307 H320 0.931 . S
C308 C307 1.291 . S
C308 C309 1.373 . S
C308 H321 0.929 . S
C309 C308 1.373 . S
C309 C310 1.396 . S
C309 C316 1.403 . S
C310 C300 1.476 1_554 S
C310 N305 1.318 . S
C310 C309 1.396 . S
H311 C306 0.929 . S
O312 Mn288 2.385 1_554 S
O312 C290 1.234 . S
O313 Mn288 2.209 . S
O313 Mn289 2.215 . S
O313 C290 1.283 1_556 S
O314 Mn288 2.094 . S
O314 C292 1.240 . S
O315 Mn289 2.117 . S
O315 C292 1.264 . S
C316 C309 1.403 . S
C316 C317 1.399 . S
C316 H322 0.929 . S
C317 C297 1.449 . S
C317 C316 1.399 . S
C317 H323 0.930 . S
H318 C298 0.931 . S
H319 C299 0.930 . S
H320 C307 0.931 . S
H321 C308 0.929 . S
H322 C316 0.929 . S
H323 C317 0.930 . S
Mn324 O329 2.095 . S
Mn324 O339 2.162 . S
Mn324 O340 2.297 . S
Mn324 O348 2.385 . S
Mn324 O349 2.209 . S
Mn324 O350 2.094 . S
Mn325 O330 2.121 . S
Mn325 N332 2.257 1_455 S
Mn325 N341 2.282 . S
Mn325 O349 2.215 . S
Mn325 O351 2.117 . S
C326 O348 1.234 . S
C326 O349 1.283 . S
C327 O339 1.281 . S
C327 O340 1.236 . S
C328 O350 1.240 . S
C328 O351 1.264 . S
O329 Mn324 2.095 . S
O329 C338 1.250 . S
O330 Mn325 2.121 . S
O330 C338 1.258 . S
C331 N332 1.326 . S
C331 C335 1.460 . S
C331 H337 0.929 . S
N332 Mn325 2.257 1_655 S
N332 C331 1.326 . S
N332 C336 1.362 . S
C333 C334 1.258 . S
C333 C336 1.431 . S
C333 C353 1.449 . S
C334 C333 1.258 . S
C334 C335 1.477 . S
C334 H354 0.931 . S
C335 C331 1.460 . S
C335 C334 1.477 . S
C335 H355 0.930 . S
C336 N332 1.362 . S
C336 C333 1.431 . S
C336 C346 1.476 1_655 S
H337 C331 0.929 . S
C338 O329 1.250 . S
C338 O330 1.258 . S
O339 Mn324 2.162 . S
O339 C327 1.281 . S
O340 Mn324 2.297 . S
O340 C327 1.236 . S
N341 Mn325 2.282 . S
N341 C342 1.328 . S
N341 C346 1.318 . S
C342 N341 1.328 . S
C342 C343 1.457 . S
C342 H347 0.929 . S
C343 C342 1.457 . S
C343 C344 1.291 . S
C343 H356 0.931 . S
C344 C343 1.291 . S
C344 C345 1.373 . S
C344 H357 0.929 . S
C345 C344 1.373 . S
C345 C346 1.396 . S
C345 C352 1.403 1_455 S
C346 C336 1.476 1_455 S
C346 N341 1.318 . S
C346 C345 1.396 . S
H347 C342 0.929 . S
O348 Mn324 2.385 . S
O348 C326 1.234 . S
O349 Mn324 2.209 . S
O349 Mn325 2.215 . S
O349 C326 1.283 . S
O350 Mn324 2.094 . S
O350 C328 1.240 . S
O351 Mn325 2.117 . S
O351 C328 1.264 . S
C352 C345 1.403 1_655 S
C352 C353 1.399 . S
C352 H358 0.929 . S
C353 C333 1.449 . S
C353 C352 1.399 . S
C353 H359 0.930 . S
H354 C334 0.931 . S
H355 C335 0.930 . S
H356 C343 0.931 . S
H357 C344 0.929 . S
H358 C352 0.929 . S
H359 C353 0.930 . S
Mn360 O365 2.095 . S
Mn360 O375 2.162 . S
Mn360 O376 2.297 . S
Mn360 O384 2.385 . S
Mn360 O385 2.209 . S
Mn360 O386 2.094 . S
Mn361 O366 2.121 . S
Mn361 N368 2.257 . S
Mn361 N377 2.282 . S
Mn361 O385 2.215 . S
Mn361 O387 2.117 . S
C362 O384 1.234 . S
C362 O385 1.283 . S
C363 O375 1.281 . S
C363 O376 1.236 . S
C364 O386 1.240 . S
C364 O387 1.264 . S
O365 Mn360 2.095 . S
O365 C374 1.250 . S
O366 Mn361 2.121 . S
O366 C374 1.258 . S
C367 N368 1.326 . S
C367 C371 1.460 . S
C367 H373 0.929 . S
N368 Mn361 2.257 . S
N368 C367 1.326 . S
N368 C372 1.362 . S
C369 C370 1.258 . S
C369 C372 1.431 . S
C369 C389 1.449 . S
C370 C369 1.258 . S
C370 C371 1.477 . S
C370 H390 0.931 . S
C371 C367 1.460 . S
C371 C370 1.477 . S
C371 H391 0.930 . S
C372 N368 1.362 . S
C372 C369 1.431 . S
C372 C382 1.476 . S
H373 C367 0.929 . S
C374 O365 1.250 . S
C374 O366 1.258 . S
O375 Mn360 2.162 . S
O375 C363 1.281 . S
O376 Mn360 2.297 . S
O376 C363 1.236 . S
N377 Mn361 2.282 . S
N377 C378 1.328 . S
N377 C382 1.318 . S
C378 N377 1.328 . S
C378 C379 1.457 . S
C378 H383 0.929 . S
C379 C378 1.457 . S
C379 C380 1.291 . S
C379 H392 0.931 . S
C380 C379 1.291 . S
C380 C381 1.373 . S
C380 H393 0.929 . S
C381 C380 1.373 . S
C381 C382 1.396 . S
C381 C388 1.403 . S
C382 C372 1.476 . S
C382 N377 1.318 . S
C382 C381 1.396 . S
H383 C378 0.929 . S
O384 Mn360 2.385 . S
O384 C362 1.234 . S
O385 Mn360 2.209 . S
O385 Mn361 2.215 . S
O385 C362 1.283 . S
O386 Mn360 2.094 . S
O386 C364 1.240 . S
O387 Mn361 2.117 . S
O387 C364 1.264 . S
C388 C381 1.403 . S
C388 C389 1.399 . S
C388 H394 0.929 . S
C389 C369 1.449 . S
C389 C388 1.399 . S
C389 H395 0.930 . S
H390 C370 0.931 . S
H391 C371 0.930 . S
H392 C379 0.931 . S
H393 C380 0.929 . S
H394 C388 0.929 . S
H395 C389 0.930 . S
Mn396 O401 2.095 . S
Mn396 O411 2.162 . S
Mn396 O412 2.297 . S
Mn396 O420 2.385 . S
Mn396 O421 2.209 . S
Mn396 O422 2.094 . S
Mn397 O402 2.121 . S
Mn397 N404 2.257 . S
Mn397 N413 2.282 . S
Mn397 O421 2.215 . S
Mn397 O423 2.117 . S
C398 O420 1.234 . S
C398 O421 1.283 . S
C399 O411 1.281 . S
C399 O412 1.236 . S
C400 O422 1.240 . S
C400 O423 1.264 . S
O401 Mn396 2.095 . S
O401 C410 1.250 . S
O402 Mn397 2.121 . S
O402 C410 1.258 . S
C403 N404 1.326 . S
C403 C407 1.460 . S
C403 H409 0.929 . S
N404 Mn397 2.257 . S
N404 C403 1.326 . S
N404 C408 1.362 . S
C405 C406 1.258 . S
C405 C408 1.431 . S
C405 C425 1.449 . S
C406 C405 1.258 . S
C406 C407 1.477 . S
C406 H426 0.931 . S
C407 C403 1.460 . S
C407 C406 1.477 . S
C407 H427 0.930 . S
C408 N404 1.362 . S
C408 C405 1.431 . S
C408 C418 1.476 . S
H409 C403 0.929 . S
C410 O401 1.250 . S
C410 O402 1.258 . S
O411 Mn396 2.162 . S
O411 C399 1.281 . S
O412 Mn396 2.297 . S
O412 C399 1.236 . S
N413 Mn397 2.282 . S
N413 C414 1.328 . S
N413 C418 1.318 . S
C414 N413 1.328 . S
C414 C415 1.457 . S
C414 H419 0.929 . S
C415 C414 1.457 . S
C415 C416 1.291 . S
C415 H428 0.931 . S
C416 C415 1.291 . S
C416 C417 1.373 . S
C416 H429 0.929 . S
C417 C416 1.373 . S
C417 C418 1.396 . S
C417 C424 1.403 . S
C418 C408 1.476 . S
C418 N413 1.318 . S
C418 C417 1.396 . S
H419 C414 0.929 . S
O420 Mn396 2.385 . S
O420 C398 1.234 . S
O421 Mn396 2.209 . S
O421 Mn397 2.215 . S
O421 C398 1.283 . S
O422 Mn396 2.094 . S
O422 C400 1.240 . S
O423 Mn397 2.117 . S
O423 C400 1.264 . S
C424 C417 1.403 . S
C424 C425 1.399 . S
C424 H430 0.929 . S
C425 C405 1.449 . S
C425 C424 1.399 . S
C425 H431 0.930 . S
H426 C406 0.931 . S
H427 C407 0.930 . S
H428 C415 0.931 . S
H429 C416 0.929 . S
H430 C424 0.929 . S
H431 C425 0.930 . S
Mn432 O437 2.095 . S
Mn432 O447 2.162 . S
Mn432 O448 2.297 . S
Mn432 O456 2.385 . S
Mn432 O457 2.209 . S
Mn432 O458 2.094 . S
Mn433 O438 2.121 . S
Mn433 N440 2.257 . S
Mn433 N449 2.282 . S
Mn433 O457 2.215 . S
Mn433 O459 2.117 . S
C434 O456 1.234 . S
C434 O457 1.283 . S
C435 O447 1.281 . S
C435 O448 1.236 . S
C436 O458 1.240 . S
C436 O459 1.264 . S
O437 Mn432 2.095 . S
O437 C446 1.250 . S
O438 Mn433 2.121 . S
O438 C446 1.258 . S
C439 N440 1.326 . S
C439 C443 1.460 . S
C439 H445 0.929 . S
N440 Mn433 2.257 . S
N440 C439 1.326 . S
N440 C444 1.362 . S
C441 C442 1.258 . S
C441 C444 1.431 . S
C441 C461 1.449 . S
C442 C441 1.258 . S
C442 C443 1.477 . S
C442 H462 0.931 . S
C443 C439 1.460 . S
C443 C442 1.477 . S
C443 H463 0.930 . S
C444 N440 1.362 . S
C444 C441 1.431 . S
C444 C454 1.476 . S
H445 C439 0.929 . S
C446 O437 1.250 . S
C446 O438 1.258 . S
O447 Mn432 2.162 . S
O447 C435 1.281 . S
O448 Mn432 2.297 . S
O448 C435 1.236 . S
N449 Mn433 2.282 . S
N449 C450 1.328 . S
N449 C454 1.318 . S
C450 N449 1.328 . S
C450 C451 1.457 . S
C450 H455 0.929 . S
C451 C450 1.457 . S
C451 C452 1.291 . S
C451 H464 0.931 . S
C452 C451 1.291 . S
C452 C453 1.373 . S
C452 H465 0.929 . S
C453 C452 1.373 . S
C453 C454 1.396 . S
C453 C460 1.403 . S
C454 C444 1.476 . S
C454 N449 1.318 . S
C454 C453 1.396 . S
H455 C450 0.929 . S
O456 Mn432 2.385 . S
O456 C434 1.234 . S
O457 Mn432 2.209 . S
O457 Mn433 2.215 . S
O457 C434 1.283 . S
O458 Mn432 2.094 . S
O458 C436 1.240 . S
O459 Mn433 2.117 . S
O459 C436 1.264 . S
C460 C453 1.403 . S
C460 C461 1.399 . S
C460 H466 0.929 . S
C461 C441 1.449 . S
C461 C460 1.399 . S
C461 H467 0.930 . S
H462 C442 0.931 . S
H463 C443 0.930 . S
H464 C451 0.931 . S
H465 C452 0.929 . S
H466 C460 0.929 . S
H467 C461 0.930 . S
Mn468 O473 2.095 . S
Mn468 O483 2.162 . S
Mn468 O484 2.297 . S
Mn468 O492 2.385 . S
Mn468 O493 2.209 . S
Mn468 O494 2.094 . S
Mn469 O474 2.121 . S
Mn469 N476 2.257 . S
Mn469 N485 2.282 . S
Mn469 O493 2.215 . S
Mn469 O495 2.117 . S
C470 O492 1.234 . S
C470 O493 1.283 . S
C471 O483 1.281 . S
C471 O484 1.236 . S
C472 O494 1.240 . S
C472 O495 1.264 . S
O473 Mn468 2.095 . S
O473 C482 1.250 . S
O474 Mn469 2.121 . S
O474 C482 1.258 . S
C475 N476 1.326 . S
C475 C479 1.460 . S
C475 H481 0.929 . S
N476 Mn469 2.257 . S
N476 C475 1.326 . S
N476 C480 1.362 . S
C477 C478 1.258 . S
C477 C480 1.431 . S
C477 C497 1.449 . S
C478 C477 1.258 . S
C478 C479 1.477 . S
C478 H498 0.931 . S
C479 C475 1.460 . S
C479 C478 1.477 . S
C479 H499 0.930 . S
C480 N476 1.362 . S
C480 C477 1.431 . S
C480 C490 1.476 . S
H481 C475 0.929 . S
C482 O473 1.250 . S
C482 O474 1.258 . S
O483 Mn468 2.162 . S
O483 C471 1.281 . S
O484 Mn468 2.297 . S
O484 C471 1.236 . S
N485 Mn469 2.282 . S
N485 C486 1.328 . S
N485 C490 1.318 . S
C486 N485 1.328 . S
C486 C487 1.457 . S
C486 H491 0.929 . S
C487 C486 1.457 . S
C487 C488 1.291 . S
C487 H500 0.931 . S
C488 C487 1.291 . S
C488 C489 1.373 . S
C488 H501 0.929 . S
C489 C488 1.373 . S
C489 C490 1.396 . S
C489 C496 1.403 . S
C490 C480 1.476 . S
C490 N485 1.318 . S
C490 C489 1.396 . S
H491 C486 0.929 . S
O492 Mn468 2.385 . S
O492 C470 1.234 . S
O493 Mn468 2.209 . S
O493 Mn469 2.215 . S
O493 C470 1.283 . S
O494 Mn468 2.094 . S
O494 C472 1.240 . S
O495 Mn469 2.117 . S
O495 C472 1.264 . S
C496 C489 1.403 . S
C496 C497 1.399 . S
C496 H502 0.929 . S
C497 C477 1.449 . S
C497 C496 1.399 . S
C497 H503 0.930 . S
H498 C478 0.931 . S
H499 C479 0.930 . S
H500 C487 0.931 . S
H501 C488 0.929 . S
H502 C496 0.929 . S
H503 C497 0.930 . S
Mn504 O509 2.095 . S
Mn504 O519 2.162 . S
Mn504 O520 2.297 . S
Mn504 O528 2.385 1_554 S
Mn504 O529 2.209 . S
Mn504 O530 2.094 . S
Mn505 O510 2.121 . S
Mn505 N512 2.257 . S
Mn505 N521 2.282 1_554 S
Mn505 O529 2.215 . S
Mn505 O531 2.117 . S
C506 O528 1.234 . S
C506 O529 1.283 1_556 S
C507 O519 1.281 . S
C507 O520 1.236 . S
C508 O530 1.240 . S
C508 O531 1.264 . S
O509 Mn504 2.095 . S
O509 C518 1.250 . S
O510 Mn505 2.121 . S
O510 C518 1.258 . S
C511 N512 1.326 . S
C511 C515 1.460 . S
C511 H517 0.929 . S
N512 Mn505 2.257 . S
N512 C511 1.326 . S
N512 C516 1.362 . S
C513 C514 1.258 1_556 S
C513 C516 1.431 1_556 S
C513 C533 1.449 . S
C514 C513 1.258 1_554 S
C514 C515 1.477 . S
C514 H534 0.931 . S
C515 C511 1.460 . S
C515 C514 1.477 . S
C515 H535 0.930 . S
C516 N512 1.362 . S
C516 C513 1.431 1_554 S
C516 C526 1.476 1_554 S
H517 C511 0.929 . S
C518 O509 1.250 . S
C518 O510 1.258 . S
O519 Mn504 2.162 . S
O519 C507 1.281 . S
O520 Mn504 2.297 . S
O520 C507 1.236 . S
N521 Mn505 2.282 1_556 S
N521 C522 1.328 . S
N521 C526 1.318 . S
C522 N521 1.328 . S
C522 C523 1.457 . S
C522 H527 0.929 . S
C523 C522 1.457 . S
C523 C524 1.291 . S
C523 H536 0.931 . S
C524 C523 1.291 . S
C524 C525 1.373 . S
C524 H537 0.929 . S
C525 C524 1.373 . S
C525 C526 1.396 . S
C525 C532 1.403 . S
C526 C516 1.476 1_556 S
C526 N521 1.318 . S
C526 C525 1.396 . S
H527 C522 0.929 . S
O528 Mn504 2.385 1_556 S
O528 C506 1.234 . S
O529 Mn504 2.209 . S
O529 Mn505 2.215 . S
O529 C506 1.283 1_554 S
O530 Mn504 2.094 . S
O530 C508 1.240 . S
O531 Mn505 2.117 . S
O531 C508 1.264 . S
C532 C525 1.403 . S
C532 C533 1.399 . S
C532 H538 0.929 . S
C533 C513 1.449 . S
C533 C532 1.399 . S
C533 H539 0.930 . S
H534 C514 0.931 . S
H535 C515 0.930 . S
H536 C523 0.931 . S
H537 C524 0.929 . S
H538 C532 0.929 . S
H539 C533 0.930 . S
Mn540 O545 2.095 . S
Mn540 O555 2.162 . S
Mn540 O556 2.297 . S
Mn540 O564 2.385 . S
Mn540 O565 2.209 . S
Mn540 O566 2.094 . S
Mn541 O546 2.121 . S
Mn541 N548 2.257 1_455 S
Mn541 N557 2.282 . S
Mn541 O565 2.215 . S
Mn541 O567 2.117 . S
C542 O564 1.234 . S
C542 O565 1.283 . S
C543 O555 1.281 . S
C543 O556 1.236 . S
C544 O566 1.240 . S
C544 O567 1.264 . S
O545 Mn540 2.095 . S
O545 C554 1.250 . S
O546 Mn541 2.121 . S
O546 C554 1.258 . S
C547 N548 1.326 . S
C547 C551 1.460 . S
C547 H553 0.929 . S
N548 Mn541 2.257 1_655 S
N548 C547 1.326 . S
N548 C552 1.362 . S
C549 C550 1.258 . S
C549 C552 1.431 . S
C549 C569 1.449 . S
C550 C549 1.258 . S
C550 C551 1.477 . S
C550 H570 0.931 . S
C551 C547 1.460 . S
C551 C550 1.477 . S
C551 H571 0.930 . S
C552 N548 1.362 . S
C552 C549 1.431 . S
C552 C562 1.476 1_655 S
H553 C547 0.929 . S
C554 O545 1.250 . S
C554 O546 1.258 . S
O555 Mn540 2.162 . S
O555 C543 1.281 . S
O556 Mn540 2.297 . S
O556 C543 1.236 . S
N557 Mn541 2.282 . S
N557 C558 1.328 . S
N557 C562 1.318 . S
C558 N557 1.328 . S
C558 C559 1.457 . S
C558 H563 0.929 . S
C559 C558 1.457 . S
C559 C560 1.291 . S
C559 H572 0.931 . S
C560 C559 1.291 . S
C560 C561 1.373 . S
C560 H573 0.929 . S
C561 C560 1.373 . S
C561 C562 1.396 . S
C561 C568 1.403 1_455 S
C562 C552 1.476 1_455 S
C562 N557 1.318 . S
C562 C561 1.396 . S
H563 C558 0.929 . S
O564 Mn540 2.385 . S
O564 C542 1.234 . S
O565 Mn540 2.209 . S
O565 Mn541 2.215 . S
O565 C542 1.283 . S
O566 Mn540 2.094 . S
O566 C544 1.240 . S
O567 Mn541 2.117 . S
O567 C544 1.264 . S
C568 C561 1.403 1_655 S
C568 C569 1.399 . S
C568 H574 0.929 . S
C569 C549 1.449 . S
C569 C568 1.399 . S
C569 H575 0.930 . S
H570 C550 0.931 . S
H571 C551 0.930 . S
H572 C559 0.931 . S
H573 C560 0.929 . S
H574 C568 0.929 . S
H575 C569 0.930 . S
Mn576 O581 2.095 . S
Mn576 O591 2.162 . S
Mn576 O592 2.297 . S
Mn576 O600 2.385 . S
Mn576 O601 2.209 . S
Mn576 O602 2.094 . S
Mn577 O582 2.121 . S
Mn577 N584 2.257 . S
Mn577 N593 2.282 . S
Mn577 O601 2.215 . S
Mn577 O603 2.117 . S
C578 O600 1.234 . S
C578 O601 1.283 . S
C579 O591 1.281 . S
C579 O592 1.236 . S
C580 O602 1.240 . S
C580 O603 1.264 . S
O581 Mn576 2.095 . S
O581 C590 1.250 . S
O582 Mn577 2.121 . S
O582 C590 1.258 . S
C583 N584 1.326 . S
C583 C587 1.460 . S
C583 H589 0.929 . S
N584 Mn577 2.257 . S
N584 C583 1.326 . S
N584 C588 1.362 . S
C585 C586 1.258 . S
C585 C588 1.431 . S
C585 C605 1.449 . S
C586 C585 1.258 . S
C586 C587 1.477 . S
C586 H606 0.931 . S
C587 C583 1.460 . S
C587 C586 1.477 . S
C587 H607 0.930 . S
C588 N584 1.362 . S
C588 C585 1.431 . S
C588 C598 1.476 . S
H589 C583 0.929 . S
C590 O581 1.250 . S
C590 O582 1.258 . S
O591 Mn576 2.162 . S
O591 C579 1.281 . S
O592 Mn576 2.297 . S
O592 C579 1.236 . S
N593 Mn577 2.282 . S
N593 C594 1.328 . S
N593 C598 1.318 . S
C594 N593 1.328 . S
C594 C595 1.457 . S
C594 H599 0.929 . S
C595 C594 1.457 . S
C595 C596 1.291 . S
C595 H608 0.931 . S
C596 C595 1.291 . S
C596 C597 1.373 . S
C596 H609 0.929 . S
C597 C596 1.373 . S
C597 C598 1.396 . S
C597 C604 1.403 . S
C598 C588 1.476 . S
C598 N593 1.318 . S
C598 C597 1.396 . S
H599 C594 0.929 . S
O600 Mn576 2.385 . S
O600 C578 1.234 . S
O601 Mn576 2.209 . S
O601 Mn577 2.215 . S
O601 C578 1.283 . S
O602 Mn576 2.094 . S
O602 C580 1.240 . S
O603 Mn577 2.117 . S
O603 C580 1.264 . S
C604 C597 1.403 . S
C604 C605 1.399 . S
C604 H610 0.929 . S
C605 C585 1.449 . S
C605 C604 1.399 . S
C605 H611 0.930 . S
H606 C586 0.931 . S
H607 C587 0.930 . S
H608 C595 0.931 . S
H609 C596 0.929 . S
H610 C604 0.929 . S
H611 C605 0.930 . S
Mn612 O617 2.095 . S
Mn612 O627 2.162 . S
Mn612 O628 2.297 . S
Mn612 O636 2.385 . S
Mn612 O637 2.209 . S
Mn612 O638 2.094 . S
Mn613 O618 2.121 . S
Mn613 N620 2.257 . S
Mn613 N629 2.282 . S
Mn613 O637 2.215 . S
Mn613 O639 2.117 . S
C614 O636 1.234 . S
C614 O637 1.283 . S
C615 O627 1.281 . S
C615 O628 1.236 . S
C616 O638 1.240 . S
C616 O639 1.264 . S
O617 Mn612 2.095 . S
O617 C626 1.250 . S
O618 Mn613 2.121 . S
O618 C626 1.258 . S
C619 N620 1.326 . S
C619 C623 1.460 . S
C619 H625 0.929 . S
N620 Mn613 2.257 . S
N620 C619 1.326 . S
N620 C624 1.362 . S
C621 C622 1.258 . S
C621 C624 1.431 . S
C621 C641 1.449 . S
C622 C621 1.258 . S
C622 C623 1.477 . S
C622 H642 0.931 . S
C623 C619 1.460 . S
C623 C622 1.477 . S
C623 H643 0.930 . S
C624 N620 1.362 . S
C624 C621 1.431 . S
C624 C634 1.476 . S
H625 C619 0.929 . S
C626 O617 1.250 . S
C626 O618 1.258 . S
O627 Mn612 2.162 . S
O627 C615 1.281 . S
O628 Mn612 2.297 . S
O628 C615 1.236 . S
N629 Mn613 2.282 . S
N629 C630 1.328 . S
N629 C634 1.318 . S
C630 N629 1.328 . S
C630 C631 1.457 . S
C630 H635 0.929 . S
C631 C630 1.457 . S
C631 C632 1.291 . S
C631 H644 0.931 . S
C632 C631 1.291 . S
C632 C633 1.373 . S
C632 H645 0.929 . S
C633 C632 1.373 . S
C633 C634 1.396 . S
C633 C640 1.403 . S
C634 C624 1.476 . S
C634 N629 1.318 . S
C634 C633 1.396 . S
H635 C630 0.929 . S
O636 Mn612 2.385 . S
O636 C614 1.234 . S
O637 Mn612 2.209 . S
O637 Mn613 2.215 . S
O637 C614 1.283 . S
O638 Mn612 2.094 . S
O638 C616 1.240 . S
O639 Mn613 2.117 . S
O639 C616 1.264 . S
C640 C633 1.403 . S
C640 C641 1.399 . S
C640 H646 0.929 . S
C641 C621 1.449 . S
C641 C640 1.399 . S
C641 H647 0.930 . S
H642 C622 0.931 . S
H643 C623 0.930 . S
H644 C631 0.931 . S
H645 C632 0.929 . S
H646 C640 0.929 . S
H647 C641 0.930 . S
Mn648 O653 2.095 . S
Mn648 O663 2.162 . S
Mn648 O664 2.297 . S
Mn648 O672 2.385 1_554 S
Mn648 O673 2.209 . S
Mn648 O674 2.094 . S
Mn649 O654 2.121 . S
Mn649 N656 2.257 . S
Mn649 N665 2.282 1_554 S
Mn649 O673 2.215 . S
Mn649 O675 2.117 . S
C650 O672 1.234 . S
C650 O673 1.283 1_556 S
C651 O663 1.281 . S
C651 O664 1.236 . S
C652 O674 1.240 . S
C652 O675 1.264 . S
O653 Mn648 2.095 . S
O653 C662 1.250 . S
O654 Mn649 2.121 . S
O654 C662 1.258 . S
C655 N656 1.326 . S
C655 C659 1.460 . S
C655 H661 0.929 . S
N656 Mn649 2.257 . S
N656 C655 1.326 . S
N656 C660 1.362 . S
C657 C658 1.258 1_556 S
C657 C660 1.431 1_556 S
C657 C677 1.449 . S
C658 C657 1.258 1_554 S
C658 C659 1.477 . S
C658 H678 0.931 . S
C659 C655 1.460 . S
C659 C658 1.477 . S
C659 H679 0.930 . S
C660 N656 1.362 . S
C660 C657 1.431 1_554 S
C660 C670 1.476 1_554 S
H661 C655 0.929 . S
C662 O653 1.250 . S
C662 O654 1.258 . S
O663 Mn648 2.162 . S
O663 C651 1.281 . S
O664 Mn648 2.297 . S
O664 C651 1.236 . S
N665 Mn649 2.282 1_556 S
N665 C666 1.328 . S
N665 C670 1.318 . S
C666 N665 1.328 . S
C666 C667 1.457 . S
C666 H671 0.929 . S
C667 C666 1.457 . S
C667 C668 1.291 . S
C667 H680 0.931 . S
C668 C667 1.291 . S
C668 C669 1.373 . S
C668 H681 0.929 . S
C669 C668 1.373 . S
C669 C670 1.396 . S
C669 C676 1.403 . S
C670 C660 1.476 1_556 S
C670 N665 1.318 . S
C670 C669 1.396 . S
H671 C666 0.929 . S
O672 Mn648 2.385 1_556 S
O672 C650 1.234 . S
O673 Mn648 2.209 . S
O673 Mn649 2.215 . S
O673 C650 1.283 1_554 S
O674 Mn648 2.094 . S
O674 C652 1.240 . S
O675 Mn649 2.117 . S
O675 C652 1.264 . S
C676 C669 1.403 . S
C676 C677 1.399 . S
C676 H682 0.929 . S
C677 C657 1.449 . S
C677 C676 1.399 . S
C677 H683 0.930 . S
H678 C658 0.931 . S
H679 C659 0.930 . S
H680 C667 0.931 . S
H681 C668 0.929 . S
H682 C676 0.929 . S
H683 C677 0.930 . S
Mn684 O689 2.095 . S
Mn684 O699 2.162 . S
Mn684 O700 2.297 . S
Mn684 O708 2.385 . S
Mn684 O709 2.209 . S
Mn684 O710 2.094 . S
Mn685 O690 2.121 . S
Mn685 N692 2.257 1_455 S
Mn685 N701 2.282 . S
Mn685 O709 2.215 . S
Mn685 O711 2.117 . S
C686 O708 1.234 . S
C686 O709 1.283 . S
C687 O699 1.281 . S
C687 O700 1.236 . S
C688 O710 1.240 . S
C688 O711 1.264 . S
O689 Mn684 2.095 . S
O689 C698 1.250 . S
O690 Mn685 2.121 . S
O690 C698 1.258 . S
C691 N692 1.326 . S
C691 C695 1.460 . S
C691 H697 0.929 . S
N692 Mn685 2.257 1_655 S
N692 C691 1.326 . S
N692 C696 1.362 . S
C693 C694 1.258 . S
C693 C696 1.431 . S
C693 C713 1.449 . S
C694 C693 1.258 . S
C694 C695 1.477 . S
C694 H714 0.931 . S
C695 C691 1.460 . S
C695 C694 1.477 . S
C695 H715 0.930 . S
C696 N692 1.362 . S
C696 C693 1.431 . S
C696 C706 1.476 1_655 S
H697 C691 0.929 . S
C698 O689 1.250 . S
C698 O690 1.258 . S
O699 Mn684 2.162 . S
O699 C687 1.281 . S
O700 Mn684 2.297 . S
O700 C687 1.236 . S
N701 Mn685 2.282 . S
N701 C702 1.328 . S
N701 C706 1.318 . S
C702 N701 1.328 . S
C702 C703 1.457 . S
C702 H707 0.929 . S
C703 C702 1.457 . S
C703 C704 1.291 . S
C703 H716 0.931 . S
C704 C703 1.291 . S
C704 C705 1.373 . S
C704 H717 0.929 . S
C705 C704 1.373 . S
C705 C706 1.396 . S
C705 C712 1.403 1_455 S
C706 C696 1.476 1_455 S
C706 N701 1.318 . S
C706 C705 1.396 . S
H707 C702 0.929 . S
O708 Mn684 2.385 . S
O708 C686 1.234 . S
O709 Mn684 2.209 . S
O709 Mn685 2.215 . S
O709 C686 1.283 . S
O710 Mn684 2.094 . S
O710 C688 1.240 . S
O711 Mn685 2.117 . S
O711 C688 1.264 . S
C712 C705 1.403 1_655 S
C712 C713 1.399 . S
C712 H718 0.929 . S
C713 C693 1.449 . S
C713 C712 1.399 . S
C713 H719 0.930 . S
H714 C694 0.931 . S
H715 C695 0.930 . S
H716 C703 0.931 . S
H717 C704 0.929 . S
H718 C712 0.929 . S
H719 C713 0.930 . S
Mn720 O725 2.095 . S
Mn720 O735 2.162 . S
Mn720 O736 2.297 . S
Mn720 O744 2.385 1_556 S
Mn720 O745 2.209 . S
Mn720 O746 2.094 . S
Mn721 O726 2.121 . S
Mn721 N728 2.257 . S
Mn721 N737 2.282 1_556 S
Mn721 O745 2.215 . S
Mn721 O747 2.117 . S
C722 O744 1.234 . S
C722 O745 1.283 1_554 S
C723 O735 1.281 . S
C723 O736 1.236 . S
C724 O746 1.240 . S
C724 O747 1.264 . S
O725 Mn720 2.095 . S
O725 C734 1.250 . S
O726 Mn721 2.121 . S
O726 C734 1.258 . S
C727 N728 1.326 . S
C727 C731 1.460 . S
C727 H733 0.929 . S
N728 Mn721 2.257 . S
N728 C727 1.326 . S
N728 C732 1.362 . S
C729 C730 1.258 1_554 S
C729 C732 1.431 1_554 S
C729 C749 1.449 . S
C730 C729 1.258 1_556 S
C730 C731 1.477 . S
C730 H750 0.931 . S
C731 C727 1.460 . S
C731 C730 1.477 . S
C731 H751 0.930 . S
C732 N728 1.362 . S
C732 C729 1.431 1_556 S
C732 C742 1.476 1_556 S
H733 C727 0.929 . S
C734 O725 1.250 . S
C734 O726 1.258 . S
O735 Mn720 2.162 . S
O735 C723 1.281 . S
O736 Mn720 2.297 . S
O736 C723 1.236 . S
N737 Mn721 2.282 1_554 S
N737 C738 1.328 . S
N737 C742 1.318 . S
C738 N737 1.328 . S
C738 C739 1.457 . S
C738 H743 0.929 . S
C739 C738 1.457 . S
C739 C740 1.291 . S
C739 H752 0.931 . S
C740 C739 1.291 . S
C740 C741 1.373 . S
C740 H753 0.929 . S
C741 C740 1.373 . S
C741 C742 1.396 . S
C741 C748 1.403 . S
C742 C732 1.476 1_554 S
C742 N737 1.318 . S
C742 C741 1.396 . S
H743 C738 0.929 . S
O744 Mn720 2.385 1_554 S
O744 C722 1.234 . S
O745 Mn720 2.209 . S
O745 Mn721 2.215 . S
O745 C722 1.283 1_556 S
O746 Mn720 2.094 . S
O746 C724 1.240 . S
O747 Mn721 2.117 . S
O747 C724 1.264 . S
C748 C741 1.403 . S
C748 C749 1.399 . S
C748 H754 0.929 . S
C749 C729 1.449 . S
C749 C748 1.399 . S
C749 H755 0.930 . S
H750 C730 0.931 . S
H751 C731 0.930 . S
H752 C739 0.931 . S
H753 C740 0.929 . S
H754 C748 0.929 . S
H755 C749 0.930 . S
Mn756 O761 2.095 . S
Mn756 O771 2.162 . S
Mn756 O772 2.297 . S
Mn756 O780 2.385 . S
Mn756 O781 2.209 . S
Mn756 O782 2.094 . S
Mn757 O762 2.121 . S
Mn757 N764 2.257 1_455 S
Mn757 N773 2.282 . S
Mn757 O781 2.215 . S
Mn757 O783 2.117 . S
C758 O780 1.234 . S
C758 O781 1.283 . S
C759 O771 1.281 . S
C759 O772 1.236 . S
C760 O782 1.240 . S
C760 O783 1.264 . S
O761 Mn756 2.095 . S
O761 C770 1.250 . S
O762 Mn757 2.121 . S
O762 C770 1.258 . S
C763 N764 1.326 . S
C763 C767 1.460 . S
C763 H769 0.929 . S
N764 Mn757 2.257 1_655 S
N764 C763 1.326 . S
N764 C768 1.362 . S
C765 C766 1.258 . S
C765 C768 1.431 . S
C765 C785 1.449 . S
C766 C765 1.258 . S
C766 C767 1.477 . S
C766 H786 0.931 . S
C767 C763 1.460 . S
C767 C766 1.477 . S
C767 H787 0.930 . S
C768 N764 1.362 . S
C768 C765 1.431 . S
C768 C778 1.476 1_655 S
H769 C763 0.929 . S
C770 O761 1.250 . S
C770 O762 1.258 . S
O771 Mn756 2.162 . S
O771 C759 1.281 . S
O772 Mn756 2.297 . S
O772 C759 1.236 . S
N773 Mn757 2.282 . S
N773 C774 1.328 . S
N773 C778 1.318 . S
C774 N773 1.328 . S
C774 C775 1.457 . S
C774 H779 0.929 . S
C775 C774 1.457 . S
C775 C776 1.291 . S
C775 H788 0.931 . S
C776 C775 1.291 . S
C776 C777 1.373 . S
C776 H789 0.929 . S
C777 C776 1.373 . S
C777 C778 1.396 . S
C777 C784 1.403 1_455 S
C778 C768 1.476 1_455 S
C778 N773 1.318 . S
C778 C777 1.396 . S
H779 C774 0.929 . S
O780 Mn756 2.385 . S
O780 C758 1.234 . S
O781 Mn756 2.209 . S
O781 Mn757 2.215 . S
O781 C758 1.283 . S
O782 Mn756 2.094 . S
O782 C760 1.240 . S
O783 Mn757 2.117 . S
O783 C760 1.264 . S
C784 C777 1.403 1_655 S
C784 C785 1.399 . S
C784 H790 0.929 . S
C785 C765 1.449 . S
C785 C784 1.399 . S
C785 H791 0.930 . S
H786 C766 0.931 . S
H787 C767 0.930 . S
H788 C775 0.931 . S
H789 C776 0.929 . S
H790 C784 0.929 . S
H791 C785 0.930 . S
Mn792 O797 2.095 . S
Mn792 O807 2.162 . S
Mn792 O808 2.297 . S
Mn792 O816 2.385 . S
Mn792 O817 2.209 . S
Mn792 O818 2.094 . S
Mn793 O798 2.121 . S
Mn793 N800 2.257 . S
Mn793 N809 2.282 . S
Mn793 O817 2.215 . S
Mn793 O819 2.117 . S
C794 O816 1.234 . S
C794 O817 1.283 . S
C795 O807 1.281 . S
C795 O808 1.236 . S
C796 O818 1.240 . S
C796 O819 1.264 . S
O797 Mn792 2.095 . S
O797 C806 1.250 . S
O798 Mn793 2.121 . S
O798 C806 1.258 . S
C799 N800 1.326 . S
C799 C803 1.460 . S
C799 H805 0.929 . S
N800 Mn793 2.257 . S
N800 C799 1.326 . S
N800 C804 1.362 . S
C801 C802 1.258 . S
C801 C804 1.431 . S
C801 C821 1.449 . S
C802 C801 1.258 . S
C802 C803 1.477 . S
C802 H822 0.931 . S
C803 C799 1.460 . S
C803 C802 1.477 . S
C803 H823 0.930 . S
C804 N800 1.362 . S
C804 C801 1.431 . S
C804 C814 1.476 . S
H805 C799 0.929 . S
C806 O797 1.250 . S
C806 O798 1.258 . S
O807 Mn792 2.162 . S
O807 C795 1.281 . S
O808 Mn792 2.297 . S
O808 C795 1.236 . S
N809 Mn793 2.282 . S
N809 C810 1.328 . S
N809 C814 1.318 . S
C810 N809 1.328 . S
C810 C811 1.457 . S
C810 H815 0.929 . S
C811 C810 1.457 . S
C811 C812 1.291 . S
C811 H824 0.931 . S
C812 C811 1.291 . S
C812 C813 1.373 . S
C812 H825 0.929 . S
C813 C812 1.373 . S
C813 C814 1.396 . S
C813 C820 1.403 . S
C814 C804 1.476 . S
C814 N809 1.318 . S
C814 C813 1.396 . S
H815 C810 0.929 . S
O816 Mn792 2.385 . S
O816 C794 1.234 . S
O817 Mn792 2.209 . S
O817 Mn793 2.215 . S
O817 C794 1.283 . S
O818 Mn792 2.094 . S
O818 C796 1.240 . S
O819 Mn793 2.117 . S
O819 C796 1.264 . S
C820 C813 1.403 . S
C820 C821 1.399 . S
C820 H826 0.929 . S
C821 C801 1.449 . S
C821 C820 1.399 . S
C821 H827 0.930 . S
H822 C802 0.931 . S
H823 C803 0.930 . S
H824 C811 0.931 . S
H825 C812 0.929 . S
H826 C820 0.929 . S
H827 C821 0.930 . S
Mn828 O833 2.095 . S
Mn828 O843 2.162 . S
Mn828 O844 2.297 . S
Mn828 O852 2.385 . S
Mn828 O853 2.209 . S
Mn828 O854 2.094 . S
Mn829 O834 2.121 . S
Mn829 N836 2.257 . S
Mn829 N845 2.282 . S
Mn829 O853 2.215 . S
Mn829 O855 2.117 . S
C830 O852 1.234 . S
C830 O853 1.283 . S
C831 O843 1.281 . S
C831 O844 1.236 . S
C832 O854 1.240 . S
C832 O855 1.264 . S
O833 Mn828 2.095 . S
O833 C842 1.250 . S
O834 Mn829 2.121 . S
O834 C842 1.258 . S
C835 N836 1.326 . S
C835 C839 1.460 . S
C835 H841 0.929 . S
N836 Mn829 2.257 . S
N836 C835 1.326 . S
N836 C840 1.362 . S
C837 C838 1.258 . S
C837 C840 1.431 . S
C837 C857 1.449 . S
C838 C837 1.258 . S
C838 C839 1.477 . S
C838 H858 0.931 . S
C839 C835 1.460 . S
C839 C838 1.477 . S
C839 H859 0.930 . S
C840 N836 1.362 . S
C840 C837 1.431 . S
C840 C850 1.476 . S
H841 C835 0.929 . S
C842 O833 1.250 . S
C842 O834 1.258 . S
O843 Mn828 2.162 . S
O843 C831 1.281 . S
O844 Mn828 2.297 . S
O844 C831 1.236 . S
N845 Mn829 2.282 . S
N845 C846 1.328 . S
N845 C850 1.318 . S
C846 N845 1.328 . S
C846 C847 1.457 . S
C846 H851 0.929 . S
C847 C846 1.457 . S
C847 C848 1.291 . S
C847 H860 0.931 . S
C848 C847 1.291 . S
C848 C849 1.373 . S
C848 H861 0.929 . S
C849 C848 1.373 . S
C849 C850 1.396 . S
C849 C856 1.403 . S
C850 C840 1.476 . S
C850 N845 1.318 . S
C850 C849 1.396 . S
H851 C846 0.929 . S
O852 Mn828 2.385 . S
O852 C830 1.234 . S
O853 Mn828 2.209 . S
O853 Mn829 2.215 . S
O853 C830 1.283 . S
O854 Mn828 2.094 . S
O854 C832 1.240 . S
O855 Mn829 2.117 . S
O855 C832 1.264 . S
C856 C849 1.403 . S
C856 C857 1.399 . S
C856 H862 0.929 . S
C857 C837 1.449 . S
C857 C856 1.399 . S
C857 H863 0.930 . S
H858 C838 0.931 . S
H859 C839 0.930 . S
H860 C847 0.931 . S
H861 C848 0.929 . S
H862 C856 0.929 . S
H863 C857 0.930 . S
Mn864 O869 2.095 . S
Mn864 O879 2.162 . S
Mn864 O880 2.297 . S
Mn864 O888 2.385 . S
Mn864 O889 2.209 . S
Mn864 O890 2.094 . S
Mn865 O870 2.121 . S
Mn865 N872 2.257 . S
Mn865 N881 2.282 . S
Mn865 O889 2.215 . S
Mn865 O891 2.117 . S
C866 O888 1.234 . S
C866 O889 1.283 . S
C867 O879 1.281 . S
C867 O880 1.236 . S
C868 O890 1.240 . S
C868 O891 1.264 . S
O869 Mn864 2.095 . S
O869 C878 1.250 . S
O870 Mn865 2.121 . S
O870 C878 1.258 . S
C871 N872 1.326 . S
C871 C875 1.460 . S
C871 H877 0.929 . S
N872 Mn865 2.257 . S
N872 C871 1.326 . S
N872 C876 1.362 . S
C873 C874 1.258 . S
C873 C876 1.431 . S
C873 C893 1.449 . S
C874 C873 1.258 . S
C874 C875 1.477 . S
C874 H894 0.931 . S
C875 C871 1.460 . S
C875 C874 1.477 . S
C875 H895 0.930 . S
C876 N872 1.362 . S
C876 C873 1.431 . S
C876 C886 1.476 . S
H877 C871 0.929 . S
C878 O869 1.250 . S
C878 O870 1.258 . S
O879 Mn864 2.162 . S
O879 C867 1.281 . S
O880 Mn864 2.297 . S
O880 C867 1.236 . S
N881 Mn865 2.282 . S
N881 C882 1.328 . S
N881 C886 1.318 . S
C882 N881 1.328 . S
C882 C883 1.457 . S
C882 H887 0.929 . S
C883 C882 1.457 . S
C883 C884 1.291 . S
C883 H896 0.931 . S
C884 C883 1.291 . S
C884 C885 1.373 . S
C884 H897 0.929 . S
C885 C884 1.373 . S
C885 C886 1.396 . S
C885 C892 1.403 . S
C886 C876 1.476 . S
C886 N881 1.318 . S
C886 C885 1.396 . S
H887 C882 0.929 . S
O888 Mn864 2.385 . S
O888 C866 1.234 . S
O889 Mn864 2.209 . S
O889 Mn865 2.215 . S
O889 C866 1.283 . S
O890 Mn864 2.094 . S
O890 C868 1.240 . S
O891 Mn865 2.117 . S
O891 C868 1.264 . S
C892 C885 1.403 . S
C892 C893 1.399 . S
C892 H898 0.929 . S
C893 C873 1.449 . S
C893 C892 1.399 . S
C893 H899 0.930 . S
H894 C874 0.931 . S
H895 C875 0.930 . S
H896 C883 0.931 . S
H897 C884 0.929 . S
H898 C892 0.929 . S
H899 C893 0.930 . S
Mn900 O905 2.095 . S
Mn900 O915 2.162 . S
Mn900 O916 2.297 . S
Mn900 O924 2.385 . S
Mn900 O925 2.209 . S
Mn900 O926 2.094 . S
Mn901 O906 2.121 . S
Mn901 N908 2.257 . S
Mn901 N917 2.282 . S
Mn901 O925 2.215 . S
Mn901 O927 2.117 . S
C902 O924 1.234 . S
C902 O925 1.283 . S
C903 O915 1.281 . S
C903 O916 1.236 . S
C904 O926 1.240 . S
C904 O927 1.264 . S
O905 Mn900 2.095 . S
O905 C914 1.250 . S
O906 Mn901 2.121 . S
O906 C914 1.258 . S
C907 N908 1.326 . S
C907 C911 1.460 . S
C907 H913 0.929 . S
N908 Mn901 2.257 . S
N908 C907 1.326 . S
N908 C912 1.362 . S
C909 C910 1.258 . S
C909 C912 1.431 . S
C909 C929 1.449 . S
C910 C909 1.258 . S
C910 C911 1.477 . S
C910 H930 0.931 . S
C911 C907 1.460 . S
C911 C910 1.477 . S
C911 H931 0.930 . S
C912 N908 1.362 . S
C912 C909 1.431 . S
C912 C922 1.476 . S
H913 C907 0.929 . S
C914 O905 1.250 . S
C914 O906 1.258 . S
O915 Mn900 2.162 . S
O915 C903 1.281 . S
O916 Mn900 2.297 . S
O916 C903 1.236 . S
N917 Mn901 2.282 . S
N917 C918 1.328 . S
N917 C922 1.318 . S
C918 N917 1.328 . S
C918 C919 1.457 . S
C918 H923 0.929 . S
C919 C918 1.457 . S
C919 C920 1.291 . S
C919 H932 0.931 . S
C920 C919 1.291 . S
C920 C921 1.373 . S
C920 H933 0.929 . S
C921 C920 1.373 . S
C921 C922 1.396 . S
C921 C928 1.403 . S
C922 C912 1.476 . S
C922 N917 1.318 . S
C922 C921 1.396 . S
H923 C918 0.929 . S
O924 Mn900 2.385 . S
O924 C902 1.234 . S
O925 Mn900 2.209 . S
O925 Mn901 2.215 . S
O925 C902 1.283 . S
O926 Mn900 2.094 . S
O926 C904 1.240 . S
O927 Mn901 2.117 . S
O927 C904 1.264 . S
C928 C921 1.403 . S
C928 C929 1.399 . S
C928 H934 0.929 . S
C929 C909 1.449 . S
C929 C928 1.399 . S
C929 H935 0.930 . S
H930 C910 0.931 . S
H931 C911 0.930 . S
H932 C919 0.931 . S
H933 C920 0.929 . S
H934 C928 0.929 . S
H935 C929 0.930 . S
Mn936 O941 2.095 . S
Mn936 O951 2.162 . S
Mn936 O952 2.297 . S
Mn936 O960 2.385 1_556 S
Mn936 O961 2.209 . S
Mn936 O962 2.094 . S
Mn937 O942 2.121 . S
Mn937 N944 2.257 . S
Mn937 N953 2.282 1_556 S
Mn937 O961 2.215 . S
Mn937 O963 2.117 . S
C938 O960 1.234 . S
C938 O961 1.283 1_554 S
C939 O951 1.281 . S
C939 O952 1.236 . S
C940 O962 1.240 . S
C940 O963 1.264 . S
O941 Mn936 2.095 . S
O941 C950 1.250 . S
O942 Mn937 2.121 . S
O942 C950 1.258 . S
C943 N944 1.326 . S
C943 C947 1.460 . S
C943 H949 0.929 . S
N944 Mn937 2.257 . S
N944 C943 1.326 . S
N944 C948 1.362 . S
C945 C946 1.258 1_554 S
C945 C948 1.431 1_554 S
C945 C965 1.449 . S
C946 C945 1.258 1_556 S
C946 C947 1.477 . S
C946 H966 0.931 . S
C947 C943 1.460 . S
C947 C946 1.477 . S
C947 H967 0.930 . S
C948 N944 1.362 . S
C948 C945 1.431 1_556 S
C948 C958 1.476 1_556 S
H949 C943 0.929 . S
C950 O941 1.250 . S
C950 O942 1.258 . S
O951 Mn936 2.162 . S
O951 C939 1.281 . S
O952 Mn936 2.297 . S
O952 C939 1.236 . S
N953 Mn937 2.282 1_554 S
N953 C954 1.328 . S
N953 C958 1.318 . S
C954 N953 1.328 . S
C954 C955 1.457 . S
C954 H959 0.929 . S
C955 C954 1.457 . S
C955 C956 1.291 . S
C955 H968 0.931 . S
C956 C955 1.291 . S
C956 C957 1.373 . S
C956 H969 0.929 . S
C957 C956 1.373 . S
C957 C958 1.396 . S
C957 C964 1.403 . S
C958 C948 1.476 1_554 S
C958 N953 1.318 . S
C958 C957 1.396 . S
H959 C954 0.929 . S
O960 Mn936 2.385 1_554 S
O960 C938 1.234 . S
O961 Mn936 2.209 . S
O961 Mn937 2.215 . S
O961 C938 1.283 1_556 S
O962 Mn936 2.094 . S
O962 C940 1.240 . S
O963 Mn937 2.117 . S
O963 C940 1.264 . S
C964 C957 1.403 . S
C964 C965 1.399 . S
C964 H970 0.929 . S
C965 C945 1.449 . S
C965 C964 1.399 . S
C965 H971 0.930 . S
H966 C946 0.931 . S
H967 C947 0.930 . S
H968 C955 0.931 . S
H969 C956 0.929 . S
H970 C964 0.929 . S
H971 C965 0.930 . S
Mn972 O977 2.095 . S
Mn972 O987 2.162 . S
Mn972 O988 2.297 . S
Mn972 O996 2.385 . S
Mn972 O997 2.209 . S
Mn972 O998 2.094 . S
Mn973 O978 2.121 . S
Mn973 N980 2.257 1_655 S
Mn973 N989 2.282 . S
Mn973 O997 2.215 . S
Mn973 O999 2.117 . S
C974 O996 1.234 . S
C974 O997 1.283 . S
C975 O987 1.281 . S
C975 O988 1.236 . S
C976 O998 1.240 . S
C976 O999 1.264 . S
O977 Mn972 2.095 . S
O977 C986 1.250 . S
O978 Mn973 2.121 . S
O978 C986 1.258 . S
C979 N980 1.326 . S
C979 C983 1.460 . S
C979 H985 0.929 . S
N980 Mn973 2.257 1_455 S
N980 C979 1.326 . S
N980 C984 1.362 . S
C981 C982 1.258 . S
C981 C984 1.431 . S
C981 C1001 1.449 . S
C982 C981 1.258 . S
C982 C983 1.477 . S
C982 H1002 0.931 . S
C983 C979 1.460 . S
C983 C982 1.477 . S
C983 H1003 0.930 . S
C984 N980 1.362 . S
C984 C981 1.431 . S
C984 C994 1.476 1_455 S
H985 C979 0.929 . S
C986 O977 1.250 . S
C986 O978 1.258 . S
O987 Mn972 2.162 . S
O987 C975 1.281 . S
O988 Mn972 2.297 . S
O988 C975 1.236 . S
N989 Mn973 2.282 . S
N989 C990 1.328 . S
N989 C994 1.318 . S
C990 N989 1.328 . S
C990 C991 1.457 . S
C990 H995 0.929 . S
C991 C990 1.457 . S
C991 C992 1.291 . S
C991 H1004 0.931 . S
C992 C991 1.291 . S
C992 C993 1.373 . S
C992 H1005 0.929 . S
C993 C992 1.373 . S
C993 C994 1.396 . S
C993 C1000 1.403 1_655 S
C994 C984 1.476 1_655 S
C994 N989 1.318 . S
C994 C993 1.396 . S
H995 C990 0.929 . S
O996 Mn972 2.385 . S
O996 C974 1.234 . S
O997 Mn972 2.209 . S
O997 Mn973 2.215 . S
O997 C974 1.283 . S
O998 Mn972 2.094 . S
O998 C976 1.240 . S
O999 Mn973 2.117 . S
O999 C976 1.264 . S
C1000 C993 1.403 1_455 S
C1000 C1001 1.399 . S
C1000 H1006 0.929 . S
C1001 C981 1.449 . S
C1001 C1000 1.399 . S
C1001 H1007 0.930 . S
H1002 C982 0.931 . S
H1003 C983 0.930 . S
H1004 C991 0.931 . S
H1005 C992 0.929 . S
H1006 C1000 0.929 . S
H1007 C1001 0.930 . S
Mn1008 O1013 2.095 . S
Mn1008 O1023 2.162 . S
Mn1008 O1024 2.297 . S
Mn1008 O1032 2.385 1_554 S
Mn1008 O1033 2.209 . S
Mn1008 O1034 2.094 . S
Mn1009 O1014 2.121 . S
Mn1009 N1016 2.257 . S
Mn1009 N1025 2.282 1_554 S
Mn1009 O1033 2.215 . S
Mn1009 O1035 2.117 . S
C1010 O1032 1.234 . S
C1010 O1033 1.283 1_556 S
C1011 O1023 1.281 . S
C1011 O1024 1.236 . S
C1012 O1034 1.240 . S
C1012 O1035 1.264 . S
O1013 Mn1008 2.095 . S
O1013 C1022 1.250 . S
O1014 Mn1009 2.121 . S
O1014 C1022 1.258 . S
C1015 N1016 1.326 . S
C1015 C1019 1.460 . S
C1015 H1021 0.929 . S
N1016 Mn1009 2.257 . S
N1016 C1015 1.326 . S
N1016 C1020 1.362 . S
C1017 C1018 1.258 1_556 S
C1017 C1020 1.431 1_556 S
C1017 C1037 1.449 . S
C1018 C1017 1.258 1_554 S
C1018 C1019 1.477 . S
C1018 H1038 0.931 . S
C1019 C1015 1.460 . S
C1019 C1018 1.477 . S
C1019 H1039 0.930 . S
C1020 N1016 1.362 . S
C1020 C1017 1.431 1_554 S
C1020 C1030 1.476 1_554 S
H1021 C1015 0.929 . S
C1022 O1013 1.250 . S
C1022 O1014 1.258 . S
O1023 Mn1008 2.162 . S
O1023 C1011 1.281 . S
O1024 Mn1008 2.297 . S
O1024 C1011 1.236 . S
N1025 Mn1009 2.282 1_556 S
N1025 C1026 1.328 . S
N1025 C1030 1.318 . S
C1026 N1025 1.328 . S
C1026 C1027 1.457 . S
C1026 H1031 0.929 . S
C1027 C1026 1.457 . S
C1027 C1028 1.291 . S
C1027 H1040 0.931 . S
C1028 C1027 1.291 . S
C1028 C1029 1.373 . S
C1028 H1041 0.929 . S
C1029 C1028 1.373 . S
C1029 C1030 1.396 . S
C1029 C1036 1.403 . S
C1030 C1020 1.476 1_556 S
C1030 N1025 1.318 . S
C1030 C1029 1.396 . S
H1031 C1026 0.929 . S
O1032 Mn1008 2.385 1_556 S
O1032 C1010 1.234 . S
O1033 Mn1008 2.209 . S
O1033 Mn1009 2.215 . S
O1033 C1010 1.283 1_554 S
O1034 Mn1008 2.094 . S
O1034 C1012 1.240 . S
O1035 Mn1009 2.117 . S
O1035 C1012 1.264 . S
C1036 C1029 1.403 . S
C1036 C1037 1.399 . S
C1036 H1042 0.929 . S
C1037 C1017 1.449 . S
C1037 C1036 1.399 . S
C1037 H1043 0.930 . S
H1038 C1018 0.931 . S
H1039 C1019 0.930 . S
H1040 C1027 0.931 . S
H1041 C1028 0.929 . S
H1042 C1036 0.929 . S
H1043 C1037 0.930 . S
Mn1044 O1049 2.095 . S
Mn1044 O1059 2.162 . S
Mn1044 O1060 2.297 . S
Mn1044 O1068 2.385 . S
Mn1044 O1069 2.209 . S
Mn1044 O1070 2.094 . S
Mn1045 O1050 2.121 . S
Mn1045 N1052 2.257 1_655 S
Mn1045 N1061 2.282 . S
Mn1045 O1069 2.215 . S
Mn1045 O1071 2.117 . S
C1046 O1068 1.234 . S
C1046 O1069 1.283 . S
C1047 O1059 1.281 . S
C1047 O1060 1.236 . S
C1048 O1070 1.240 . S
C1048 O1071 1.264 . S
O1049 Mn1044 2.095 . S
O1049 C1058 1.250 . S
O1050 Mn1045 2.121 . S
O1050 C1058 1.258 . S
C1051 N1052 1.326 . S
C1051 C1055 1.460 . S
C1051 H1057 0.929 . S
N1052 Mn1045 2.257 1_455 S
N1052 C1051 1.326 . S
N1052 C1056 1.362 . S
C1053 C1054 1.258 . S
C1053 C1056 1.431 . S
C1053 C1073 1.449 . S
C1054 C1053 1.258 . S
C1054 C1055 1.477 . S
C1054 H1074 0.931 . S
C1055 C1051 1.460 . S
C1055 C1054 1.477 . S
C1055 H1075 0.930 . S
C1056 N1052 1.362 . S
C1056 C1053 1.431 . S
C1056 C1066 1.476 1_455 S
H1057 C1051 0.929 . S
C1058 O1049 1.250 . S
C1058 O1050 1.258 . S
O1059 Mn1044 2.162 . S
O1059 C1047 1.281 . S
O1060 Mn1044 2.297 . S
O1060 C1047 1.236 . S
N1061 Mn1045 2.282 . S
N1061 C1062 1.328 . S
N1061 C1066 1.318 . S
C1062 N1061 1.328 . S
C1062 C1063 1.457 . S
C1062 H1067 0.929 . S
C1063 C1062 1.457 . S
C1063 C1064 1.291 . S
C1063 H1076 0.931 . S
C1064 C1063 1.291 . S
C1064 C1065 1.373 . S
C1064 H1077 0.929 . S
C1065 C1064 1.373 . S
C1065 C1066 1.396 . S
C1065 C1072 1.403 1_655 S
C1066 C1056 1.476 1_655 S
C1066 N1061 1.318 . S
C1066 C1065 1.396 . S
H1067 C1062 0.929 . S
O1068 Mn1044 2.385 . S
O1068 C1046 1.234 . S
O1069 Mn1044 2.209 . S
O1069 Mn1045 2.215 . S
O1069 C1046 1.283 . S
O1070 Mn1044 2.094 . S
O1070 C1048 1.240 . S
O1071 Mn1045 2.117 . S
O1071 C1048 1.264 . S
C1072 C1065 1.403 1_455 S
C1072 C1073 1.399 . S
C1072 H1078 0.929 . S
C1073 C1053 1.449 . S
C1073 C1072 1.399 . S
C1073 H1079 0.930 . S
H1074 C1054 0.931 . S
H1075 C1055 0.930 . S
H1076 C1063 0.931 . S
H1077 C1064 0.929 . S
H1078 C1072 0.929 . S
H1079 C1073 0.930 . S
Mn1080 O1085 2.095 . S
Mn1080 O1095 2.162 . S
Mn1080 O1096 2.297 . S
Mn1080 O1104 2.385 . S
Mn1080 O1105 2.209 . S
Mn1080 O1106 2.094 . S
Mn1081 O1086 2.121 . S
Mn1081 N1088 2.257 . S
Mn1081 N1097 2.282 . S
Mn1081 O1105 2.215 . S
Mn1081 O1107 2.117 . S
C1082 O1104 1.234 . S
C1082 O1105 1.283 . S
C1083 O1095 1.281 . S
C1083 O1096 1.236 . S
C1084 O1106 1.240 . S
C1084 O1107 1.264 . S
O1085 Mn1080 2.095 . S
O1085 C1094 1.250 . S
O1086 Mn1081 2.121 . S
O1086 C1094 1.258 . S
C1087 N1088 1.326 . S
C1087 C1091 1.460 . S
C1087 H1093 0.929 . S
N1088 Mn1081 2.257 . S
N1088 C1087 1.326 . S
N1088 C1092 1.362 . S
C1089 C1090 1.258 . S
C1089 C1092 1.431 . S
C1089 C1109 1.449 . S
C1090 C1089 1.258 . S
C1090 C1091 1.477 . S
C1090 H1110 0.931 . S
C1091 C1087 1.460 . S
C1091 C1090 1.477 . S
C1091 H1111 0.930 . S
C1092 N1088 1.362 . S
C1092 C1089 1.431 . S
C1092 C1102 1.476 . S
H1093 C1087 0.929 . S
C1094 O1085 1.250 . S
C1094 O1086 1.258 . S
O1095 Mn1080 2.162 . S
O1095 C1083 1.281 . S
O1096 Mn1080 2.297 . S
O1096 C1083 1.236 . S
N1097 Mn1081 2.282 . S
N1097 C1098 1.328 . S
N1097 C1102 1.318 . S
C1098 N1097 1.328 . S
C1098 C1099 1.457 . S
C1098 H1103 0.929 . S
C1099 C1098 1.457 . S
C1099 C1100 1.291 . S
C1099 H1112 0.931 . S
C1100 C1099 1.291 . S
C1100 C1101 1.373 . S
C1100 H1113 0.929 . S
C1101 C1100 1.373 . S
C1101 C1102 1.396 . S
C1101 C1108 1.403 . S
C1102 C1092 1.476 . S
C1102 N1097 1.318 . S
C1102 C1101 1.396 . S
H1103 C1098 0.929 . S
O1104 Mn1080 2.385 . S
O1104 C1082 1.234 . S
O1105 Mn1080 2.209 . S
O1105 Mn1081 2.215 . S
O1105 C1082 1.283 . S
O1106 Mn1080 2.094 . S
O1106 C1084 1.240 . S
O1107 Mn1081 2.117 . S
O1107 C1084 1.264 . S
C1108 C1101 1.403 . S
C1108 C1109 1.399 . S
C1108 H1114 0.929 . S
C1109 C1089 1.449 . S
C1109 C1108 1.399 . S
C1109 H1115 0.930 . S
H1110 C1090 0.931 . S
H1111 C1091 0.930 . S
H1112 C1099 0.931 . S
H1113 C1100 0.929 . S
H1114 C1108 0.929 . S
H1115 C1109 0.930 . S
Mn1116 O1121 2.095 . S
Mn1116 O1131 2.162 . S
Mn1116 O1132 2.297 . S
Mn1116 O1140 2.385 . S
Mn1116 O1141 2.209 . S
Mn1116 O1142 2.094 . S
Mn1117 O1122 2.121 . S
Mn1117 N1124 2.257 . S
Mn1117 N1133 2.282 . S
Mn1117 O1141 2.215 . S
Mn1117 O1143 2.117 . S
C1118 O1140 1.234 . S
C1118 O1141 1.283 . S
C1119 O1131 1.281 . S
C1119 O1132 1.236 . S
C1120 O1142 1.240 . S
C1120 O1143 1.264 . S
O1121 Mn1116 2.095 . S
O1121 C1130 1.250 . S
O1122 Mn1117 2.121 . S
O1122 C1130 1.258 . S
C1123 N1124 1.326 . S
C1123 C1127 1.460 . S
C1123 H1129 0.929 . S
N1124 Mn1117 2.257 . S
N1124 C1123 1.326 . S
N1124 C1128 1.362 . S
C1125 C1126 1.258 . S
C1125 C1128 1.431 . S
C1125 C1145 1.449 . S
C1126 C1125 1.258 . S
C1126 C1127 1.477 . S
C1126 H1146 0.931 . S
C1127 C1123 1.460 . S
C1127 C1126 1.477 . S
C1127 H1147 0.930 . S
C1128 N1124 1.362 . S
C1128 C1125 1.431 . S
C1128 C1138 1.476 . S
H1129 C1123 0.929 . S
C1130 O1121 1.250 . S
C1130 O1122 1.258 . S
O1131 Mn1116 2.162 . S
O1131 C1119 1.281 . S
O1132 Mn1116 2.297 . S
O1132 C1119 1.236 . S
N1133 Mn1117 2.282 . S
N1133 C1134 1.328 . S
N1133 C1138 1.318 . S
C1134 N1133 1.328 . S
C1134 C1135 1.457 . S
C1134 H1139 0.929 . S
C1135 C1134 1.457 . S
C1135 C1136 1.291 . S
C1135 H1148 0.931 . S
C1136 C1135 1.291 . S
C1136 C1137 1.373 . S
C1136 H1149 0.929 . S
C1137 C1136 1.373 . S
C1137 C1138 1.396 . S
C1137 C1144 1.403 . S
C1138 C1128 1.476 . S
C1138 N1133 1.318 . S
C1138 C1137 1.396 . S
H1139 C1134 0.929 . S
O1140 Mn1116 2.385 . S
O1140 C1118 1.234 . S
O1141 Mn1116 2.209 . S
O1141 Mn1117 2.215 . S
O1141 C1118 1.283 . S
O1142 Mn1116 2.094 . S
O1142 C1120 1.240 . S
O1143 Mn1117 2.117 . S
O1143 C1120 1.264 . S
C1144 C1137 1.403 . S
C1144 C1145 1.399 . S
C1144 H1150 0.929 . S
C1145 C1125 1.449 . S
C1145 C1144 1.399 . S
C1145 H1151 0.930 . S
H1146 C1126 0.931 . S
H1147 C1127 0.930 . S
H1148 C1135 0.931 . S
H1149 C1136 0.929 . S
H1150 C1144 0.929 . S
H1151 C1145 0.930 . S
H1152 C1158 0.930 . S
H1153 C1162 0.930 . S
H1154 C1167 0.929 1_554 S
H1155 C1165 0.929 1_556 S
H1156 C1160 0.929 . S
H1157 C1166 0.929 . S
C1158 H1152 0.930 . S
C1158 C1159 1.367 . S
C1158 C1166 1.378 . S
C1159 C1158 1.367 . S
C1159 C1167 1.433 . S
C1160 H1156 0.929 . S
C1160 C1162 1.378 . S
C1160 C1164 1.350 . S
C1161 C1164 1.463 1_556 S
C1161 C1166 1.350 . S
C1161 N1169 1.427 1_556 S
C1162 H1153 0.930 . S
C1162 C1160 1.378 . S
C1162 C1163 1.367 . S
C1163 C1162 1.367 . S
C1163 C1165 1.433 . S
C1164 C1160 1.350 . S
C1164 C1161 1.463 1_554 S
C1164 N1168 1.427 1_554 S
C1165 H1155 0.929 1_554 S
C1165 C1163 1.433 . S
C1165 N1168 1.384 1_554 S
C1166 H1157 0.929 . S
C1166 C1158 1.378 . S
C1166 C1161 1.350 . S
C1167 H1154 0.929 1_556 S
C1167 C1159 1.433 . S
C1167 N1169 1.384 1_556 S
N1168 C1164 1.427 1_556 S
N1168 C1165 1.384 1_556 S
N1169 C1161 1.427 1_554 S
N1169 C1167 1.384 1_554 S
H1170 C1176 0.930 . S
H1171 C1180 0.930 . S
H1172 C1185 0.929 . S
H1173 C1183 0.929 . S
H1174 C1178 0.929 . S
H1175 C1184 0.929 . S
C1176 H1170 0.930 . S
C1176 C1177 1.367 . S
C1176 C1184 1.378 . S
C1177 C1176 1.367 . S
C1177 C1185 1.433 . S
C1178 H1174 0.929 . S
C1178 C1180 1.378 . S
C1178 C1182 1.350 . S
C1179 C1182 1.463 1_565 S
C1179 C1184 1.350 . S
C1179 N1187 1.427 . S
C1180 H1171 0.930 . S
C1180 C1178 1.378 . S
C1180 C1181 1.367 . S
C1181 C1180 1.367 . S
C1181 C1183 1.433 . S
C1182 C1178 1.350 . S
C1182 C1179 1.463 1_545 S
C1182 N1186 1.427 . S
C1183 H1173 0.929 . S
C1183 C1181 1.433 . S
C1183 N1186 1.384 . S
C1184 H1175 0.929 . S
C1184 C1176 1.378 . S
C1184 C1179 1.350 . S
C1185 H1172 0.929 . S
C1185 C1177 1.433 . S
C1185 N1187 1.384 . S
N1186 C1182 1.427 . S
N1186 C1183 1.384 . S
N1187 C1179 1.427 . S
N1187 C1185 1.384 . S
H1188 C1194 0.930 . S
H1189 C1198 0.930 . S
H1190 C1203 0.929 . S
H1191 C1201 0.929 . S
H1192 C1196 0.929 . S
H1193 C1202 0.929 . S
C1194 H1188 0.930 . S
C1194 C1195 1.367 . S
C1194 C1202 1.378 . S
C1195 C1194 1.367 . S
C1195 C1203 1.433 . S
C1196 H1192 0.929 . S
C1196 C1198 1.378 . S
C1196 C1200 1.350 . S
C1197 C1200 1.463 . S
C1197 C1202 1.350 . S
C1197 N1205 1.427 . S
C1198 H1189 0.930 . S
C1198 C1196 1.378 . S
C1198 C1199 1.367 . S
C1199 C1198 1.367 . S
C1199 C1201 1.433 . S
C1200 C1196 1.350 . S
C1200 C1197 1.463 . S
C1200 N1204 1.427 . S
C1201 H1191 0.929 . S
C1201 C1199 1.433 . S
C1201 N1204 1.384 . S
C1202 H1193 0.929 . S
C1202 C1194 1.378 . S
C1202 C1197 1.350 . S
C1203 H1190 0.929 . S
C1203 C1195 1.433 . S
C1203 N1205 1.384 . S
N1204 C1200 1.427 . S
N1204 C1201 1.384 . S
N1205 C1197 1.427 . S
N1205 C1203 1.384 . S
H1206 C1212 0.930 . S
H1207 C1216 0.930 . S
H1208 C1221 0.929 . S
H1209 C1219 0.929 . S
H1210 C1214 0.929 . S
H1211 C1220 0.929 . S
C1212 H1206 0.930 . S
C1212 C1213 1.367 . S
C1212 C1220 1.378 . S
C1213 C1212 1.367 . S
C1213 C1221 1.433 . S
C1214 H1210 0.929 . S
C1214 C1216 1.378 . S
C1214 C1218 1.350 . S
C1215 C1218 1.463 1_545 S
C1215 C1220 1.350 . S
C1215 N1223 1.427 . S
C1216 H1207 0.930 . S
C1216 C1214 1.378 . S
C1216 C1217 1.367 . S
C1217 C1216 1.367 . S
C1217 C1219 1.433 . S
C1218 C1214 1.350 . S
C1218 C1215 1.463 1_565 S
C1218 N1222 1.427 . S
C1219 H1209 0.929 . S
C1219 C1217 1.433 . S
C1219 N1222 1.384 . S
C1220 H1211 0.929 . S
C1220 C1212 1.378 . S
C1220 C1215 1.350 . S
C1221 H1208 0.929 . S
C1221 C1213 1.433 . S
C1221 N1223 1.384 . S
N1222 C1218 1.427 . S
N1222 C1219 1.384 . S
N1223 C1215 1.427 . S
N1223 C1221 1.384 . S
H1224 C1230 0.930 . S
H1225 C1234 0.930 . S
H1226 C1239 0.929 . S
H1227 C1237 0.929 . S
H1228 C1232 0.929 . S
H1229 C1238 0.929 . S
C1230 H1224 0.930 . S
C1230 C1231 1.367 1_556 S
C1230 C1238 1.378 . S
C1231 C1230 1.367 1_554 S
C1231 C1239 1.433 . S
C1232 H1228 0.929 . S
C1232 C1234 1.378 . S
C1232 C1236 1.350 1_554 S
C1233 C1236 1.463 1_554 S
C1233 C1238 1.350 1_554 S
C1233 N1241 1.427 . S
C1234 H1225 0.930 . S
C1234 C1232 1.378 . S
C1234 C1235 1.367 1_554 S
C1235 C1234 1.367 1_556 S
C1235 C1237 1.433 . S
C1236 C1232 1.350 1_556 S
C1236 C1233 1.463 1_556 S
C1236 N1240 1.427 . S
C1237 H1227 0.929 . S
C1237 C1235 1.433 . S
C1237 N1240 1.384 . S
C1238 H1229 0.929 . S
C1238 C1230 1.378 . S
C1238 C1233 1.350 1_556 S
C1239 H1226 0.929 . S
C1239 C1231 1.433 . S
C1239 N1241 1.384 . S
N1240 C1236 1.427 . S
N1240 C1237 1.384 . S
N1241 C1233 1.427 . S
N1241 C1239 1.384 . S
H1242 C1248 0.930 . S
H1243 C1252 0.930 . S
H1244 C1257 0.929 . S
H1245 C1255 0.929 . S
H1246 C1250 0.929 . S
H1247 C1256 0.929 . S
C1248 H1242 0.930 . S
C1248 C1249 1.367 . S
C1248 C1256 1.378 . S
C1249 C1248 1.367 . S
C1249 C1257 1.433 . S
C1250 H1246 0.929 . S
C1250 C1252 1.378 . S
C1250 C1254 1.350 . S
C1251 C1254 1.463 1_565 S
C1251 C1256 1.350 . S
C1251 N1259 1.427 . S
C1252 H1243 0.930 . S
C1252 C1250 1.378 . S
C1252 C1253 1.367 . S
C1253 C1252 1.367 . S
C1253 C1255 1.433 . S
C1254 C1250 1.350 . S
C1254 C1251 1.463 1_545 S
C1254 N1258 1.427 . S
C1255 H1245 0.929 . S
C1255 C1253 1.433 . S
C1255 N1258 1.384 . S
C1256 H1247 0.929 . S
C1256 C1248 1.378 . S
C1256 C1251 1.350 . S
C1257 H1244 0.929 . S
C1257 C1249 1.433 . S
C1257 N1259 1.384 . S
N1258 C1254 1.427 . S
N1258 C1255 1.384 . S
N1259 C1251 1.427 . S
N1259 C1257 1.384 . S
H1260 C1266 0.930 . S
H1261 C1270 0.930 . S
H1262 C1275 0.929 . S
H1263 C1273 0.929 . S
H1264 C1268 0.929 . S
H1265 C1274 0.929 . S
C1266 H1260 0.930 . S
C1266 C1267 1.367 . S
C1266 C1274 1.378 . S
C1267 C1266 1.367 . S
C1267 C1275 1.433 . S
C1268 H1264 0.929 . S
C1268 C1270 1.378 . S
C1268 C1272 1.350 . S
C1269 C1272 1.463 . S
C1269 C1274 1.350 . S
C1269 N1277 1.427 . S
C1270 H1261 0.930 . S
C1270 C1268 1.378 . S
C1270 C1271 1.367 . S
C1271 C1270 1.367 . S
C1271 C1273 1.433 . S
C1272 C1268 1.350 . S
C1272 C1269 1.463 . S
C1272 N1276 1.427 . S
C1273 H1263 0.929 . S
C1273 C1271 1.433 . S
C1273 N1276 1.384 . S
C1274 H1265 0.929 . S
C1274 C1266 1.378 . S
C1274 C1269 1.350 . S
C1275 H1262 0.929 . S
C1275 C1267 1.433 . S
C1275 N1277 1.384 . S
N1276 C1272 1.427 . S
N1276 C1273 1.384 . S
N1277 C1269 1.427 . S
N1277 C1275 1.384 . S
H1278 C1284 0.930 . S
H1279 C1288 0.930 . S
H1280 C1293 0.929 . S
H1281 C1291 0.929 . S
H1282 C1286 0.929 . S
H1283 C1292 0.929 . S
C1284 H1278 0.930 . S
C1284 C1285 1.367 . S
C1284 C1292 1.378 . S
C1285 C1284 1.367 . S
C1285 C1293 1.433 . S
C1286 H1282 0.929 . S
C1286 C1288 1.378 . S
C1286 C1290 1.350 . S
C1287 C1290 1.463 1_565 S
C1287 C1292 1.350 . S
C1287 N1295 1.427 . S
C1288 H1279 0.930 . S
C1288 C1286 1.378 . S
C1288 C1289 1.367 . S
C1289 C1288 1.367 . S
C1289 C1291 1.433 . S
C1290 C1286 1.350 . S
C1290 C1287 1.463 1_545 S
C1290 N1294 1.427 . S
C1291 H1281 0.929 . S
C1291 C1289 1.433 . S
C1291 N1294 1.384 . S
C1292 H1283 0.929 . S
C1292 C1284 1.378 . S
C1292 C1287 1.350 . S
C1293 H1280 0.929 . S
C1293 C1285 1.433 . S
C1293 N1295 1.384 . S
N1294 C1290 1.427 . S
N1294 C1291 1.384 . S
N1295 C1287 1.427 . S
N1295 C1293 1.384 . S
H1296 C1302 0.930 . S
H1297 C1306 0.930 . S
H1298 C1311 0.929 . S
H1299 C1309 0.929 . S
H1300 C1304 0.929 . S
H1301 C1310 0.929 . S
C1302 H1296 0.930 . S
C1302 C1303 1.367 . S
C1302 C1310 1.378 . S
C1303 C1302 1.367 . S
C1303 C1311 1.433 . S
C1304 H1300 0.929 . S
C1304 C1306 1.378 . S
C1304 C1308 1.350 . S
C1305 C1308 1.463 . S
C1305 C1310 1.350 . S
C1305 N1313 1.427 . S
C1306 H1297 0.930 . S
C1306 C1304 1.378 . S
C1306 C1307 1.367 . S
C1307 C1306 1.367 . S
C1307 C1309 1.433 . S
C1308 C1304 1.350 . S
C1308 C1305 1.463 . S
C1308 N1312 1.427 . S
C1309 H1299 0.929 . S
C1309 C1307 1.433 . S
C1309 N1312 1.384 . S
C1310 H1301 0.929 . S
C1310 C1302 1.378 . S
C1310 C1305 1.350 . S
C1311 H1298 0.929 . S
C1311 C1303 1.433 . S
C1311 N1313 1.384 . S
N1312 C1308 1.427 . S
N1312 C1309 1.384 . S
N1313 C1305 1.427 . S
N1313 C1311 1.384 . S
H1314 C1320 0.930 . S
H1315 C1324 0.930 . S
H1316 C1329 0.929 . S
H1317 C1327 0.929 . S
H1318 C1322 0.929 . S
H1319 C1328 0.929 . S
C1320 H1314 0.930 . S
C1320 C1321 1.367 . S
C1320 C1328 1.378 . S
C1321 C1320 1.367 . S
C1321 C1329 1.433 . S
C1322 H1318 0.929 . S
C1322 C1324 1.378 . S
C1322 C1326 1.350 . S
C1323 C1326 1.463 . S
C1323 C1328 1.350 . S
C1323 N1331 1.427 . S
C1324 H1315 0.930 . S
C1324 C1322 1.378 . S
C1324 C1325 1.367 . S
C1325 C1324 1.367 . S
C1325 C1327 1.433 . S
C1326 C1322 1.350 . S
C1326 C1323 1.463 . S
C1326 N1330 1.427 . S
C1327 H1317 0.929 . S
C1327 C1325 1.433 . S
C1327 N1330 1.384 . S
C1328 H1319 0.929 . S
C1328 C1320 1.378 . S
C1328 C1323 1.350 . S
C1329 H1316 0.929 . S
C1329 C1321 1.433 . S
C1329 N1331 1.384 . S
N1330 C1326 1.427 . S
N1330 C1327 1.384 . S
N1331 C1323 1.427 . S
N1331 C1329 1.384 . S
H1332 C1338 0.930 . S
H1333 C1342 0.930 . S
H1334 C1347 0.929 . S
H1335 C1345 0.929 . S
H1336 C1340 0.921 1_556 S
H1337 C1346 0.923 1_554 S
C1338 H1332 0.930 . S
C1338 C1339 1.367 . S
C1338 C1346 1.381 . S
C1339 C1338 1.367 . S
C1339 C1347 1.433 . S
C1340 H1336 0.921 1_554 S
C1340 C1342 1.383 . S
C1340 C1344 1.352 . S
C1341 C1344 1.463 1_556 S
C1341 C1346 1.352 . S
C1341 N1349 1.427 . S
C1342 H1333 0.930 . S
C1342 C1340 1.383 . S
C1342 C1343 1.367 . S
C1343 C1342 1.367 . S
C1343 C1345 1.433 . S
C1344 C1340 1.352 . S
C1344 C1341 1.463 1_554 S
C1344 N1348 1.427 . S
C1345 H1335 0.929 . S
C1345 C1343 1.433 . S
C1345 N1348 1.384 . S
C1346 H1337 0.923 1_556 S
C1346 C1338 1.381 . S
C1346 C1341 1.352 . S
C1347 H1334 0.929 . S
C1347 C1339 1.433 . S
C1347 N1349 1.384 . S
N1348 C1344 1.427 . S
N1348 C1345 1.384 . S
N1349 C1341 1.427 . S
N1349 C1347 1.384 . S
H1350 C1356 0.930 . S
H1351 C1360 0.930 . S
H1352 C1365 0.929 . S
H1353 C1363 0.929 . S
H1354 C1358 0.929 . S
H1355 C1364 0.929 . S
C1356 H1350 0.930 . S
C1356 C1357 1.367 . S
C1356 C1364 1.378 . S
C1357 C1356 1.367 . S
C1357 C1365 1.433 . S
C1358 H1354 0.929 . S
C1358 C1360 1.378 . S
C1358 C1362 1.350 . S
C1359 C1362 1.463 . S
C1359 C1364 1.350 . S
C1359 N1367 1.427 . S
C1360 H1351 0.930 . S
C1360 C1358 1.378 . S
C1360 C1361 1.367 . S
C1361 C1360 1.367 . S
C1361 C1363 1.433 . S
C1362 C1358 1.350 . S
C1362 C1359 1.463 . S
C1362 N1366 1.427 . S
C1363 H1353 0.929 . S
C1363 C1361 1.433 . S
C1363 N1366 1.384 . S
C1364 H1355 0.929 . S
C1364 C1356 1.378 . S
C1364 C1359 1.350 . S
C1365 H1352 0.929 . S
C1365 C1357 1.433 . S
C1365 N1367 1.384 . S
N1366 C1362 1.427 . S
N1366 C1363 1.384 . S
N1367 C1359 1.427 . S
N1367 C1365 1.384 . S
H1368 C1374 0.930 . S
H1369 C1378 0.930 . S
H1370 C1383 0.929 . S
H1371 C1381 0.929 . S
H1372 C1376 0.929 . S
H1373 C1382 0.929 . S
C1374 H1368 0.930 . S
C1374 C1375 1.367 . S
C1374 C1382 1.378 . S
C1375 C1374 1.367 . S
C1375 C1383 1.433 . S
C1376 H1372 0.929 . S
C1376 C1378 1.378 . S
C1376 C1380 1.350 . S
C1377 C1380 1.463 . S
C1377 C1382 1.350 . S
C1377 N1385 1.427 . S
C1378 H1369 0.930 . S
C1378 C1376 1.378 . S
C1378 C1379 1.367 . S
C1379 C1378 1.367 . S
C1379 C1381 1.433 . S
C1380 C1376 1.350 . S
C1380 C1377 1.463 . S
C1380 N1384 1.427 . S
C1381 H1371 0.929 . S
C1381 C1379 1.433 . S
C1381 N1384 1.384 . S
C1382 H1373 0.929 . S
C1382 C1374 1.378 . S
C1382 C1377 1.350 . S
C1383 H1370 0.929 . S
C1383 C1375 1.433 . S
C1383 N1385 1.384 . S
N1384 C1380 1.427 . S
N1384 C1381 1.384 . S
N1385 C1377 1.427 . S
N1385 C1383 1.384 . S
H1386 C1392 0.930 . S
H1387 C1396 0.930 . S
H1388 C1401 0.929 . S
H1389 C1399 0.929 . S
H1390 C1394 0.929 . S
H1391 C1400 0.929 . S
C1392 H1386 0.930 . S
C1392 C1393 1.367 . S
C1392 C1400 1.378 . S
C1393 C1392 1.367 . S
C1393 C1401 1.433 . S
C1394 H1390 0.929 . S
C1394 C1396 1.378 . S
C1394 C1398 1.350 . S
C1395 C1398 1.463 . S
C1395 C1400 1.350 . S
C1395 N1403 1.427 . S
C1396 H1387 0.930 . S
C1396 C1394 1.378 . S
C1396 C1397 1.367 . S
C1397 C1396 1.367 . S
C1397 C1399 1.433 . S
C1398 C1394 1.350 . S
C1398 C1395 1.463 . S
C1398 N1402 1.427 . S
C1399 H1389 0.929 . S
C1399 C1397 1.433 . S
C1399 N1402 1.384 . S
C1400 H1391 0.929 . S
C1400 C1392 1.378 . S
C1400 C1395 1.350 . S
C1401 H1388 0.929 . S
C1401 C1393 1.433 . S
C1401 N1403 1.384 . S
N1402 C1398 1.427 . S
N1402 C1399 1.384 . S
N1403 C1395 1.427 . S
N1403 C1401 1.384 . S
H1404 C1410 0.930 . S
H1405 C1414 0.930 . S
H1406 C1419 0.929 . S
H1407 C1417 0.929 . S
H1408 C1412 0.929 . S
H1409 C1418 0.929 . S
C1410 H1404 0.930 . S
C1410 C1411 1.367 . S
C1410 C1418 1.378 . S
C1411 C1410 1.367 . S
C1411 C1419 1.433 . S
C1412 H1408 0.929 . S
C1412 C1414 1.378 . S
C1412 C1416 1.350 . S
C1413 C1416 1.463 1_554 S
C1413 C1418 1.350 . S
C1413 N1421 1.427 . S
C1414 H1405 0.930 . S
C1414 C1412 1.378 . S
C1414 C1415 1.367 . S
C1415 C1414 1.367 . S
C1415 C1417 1.433 . S
C1416 C1412 1.350 . S
C1416 C1413 1.463 1_556 S
C1416 N1420 1.427 . S
C1417 H1407 0.929 . S
C1417 C1415 1.433 . S
C1417 N1420 1.384 . S
C1418 H1409 0.929 . S
C1418 C1410 1.378 . S
C1418 C1413 1.350 . S
C1419 H1406 0.929 . S
C1419 C1411 1.433 . S
C1419 N1421 1.384 . S
N1420 C1416 1.427 . S
N1420 C1417 1.384 . S
N1421 C1413 1.427 . S
N1421 C1419 1.384 . S
H1422 C1428 0.930 . S
H1423 C1432 0.930 . S
H1424 C1437 0.929 . S
H1425 C1435 0.929 . S
H1426 C1430 0.929 . S
H1427 C1436 0.929 . S
C1428 H1422 0.930 . S
C1428 C1429 1.367 . S
C1428 C1436 1.378 . S
C1429 C1428 1.367 . S
C1429 C1437 1.433 . S
C1430 H1426 0.929 . S
C1430 C1432 1.378 . S
C1430 C1434 1.350 . S
C1431 C1434 1.463 . S
C1431 C1436 1.350 . S
C1431 N1439 1.427 . S
C1432 H1423 0.930 . S
C1432 C1430 1.378 . S
C1432 C1433 1.367 . S
C1433 C1432 1.367 . S
C1433 C1435 1.433 . S
C1434 C1430 1.350 . S
C1434 C1431 1.463 . S
C1434 N1438 1.427 . S
C1435 H1425 0.929 . S
C1435 C1433 1.433 . S
C1435 N1438 1.384 . S
C1436 H1427 0.929 . S
C1436 C1428 1.378 . S
C1436 C1431 1.350 . S
C1437 H1424 0.929 . S
C1437 C1429 1.433 . S
C1437 N1439 1.384 . S
N1438 C1434 1.427 . S
N1438 C1435 1.384 . S
N1439 C1431 1.427 . S
N1439 C1437 1.384 . S
H1440 C1446 0.930 . S
H1441 C1450 0.930 . S
H1442 C1455 0.929 . S
H1443 C1453 0.929 . S
H1444 C1448 0.929 . S
H1445 C1454 0.929 . S
C1446 H1440 0.930 . S
C1446 C1447 1.367 . S
C1446 C1454 1.378 . S
C1447 C1446 1.367 . S
C1447 C1455 1.433 . S
C1448 H1444 0.929 . S
C1448 C1450 1.378 . S
C1448 C1452 1.350 . S
C1449 C1452 1.463 . S
C1449 C1454 1.350 . S
C1449 N1457 1.427 . S
C1450 H1441 0.930 . S
C1450 C1448 1.378 . S
C1450 C1451 1.367 . S
C1451 C1450 1.367 . S
C1451 C1453 1.433 . S
C1452 C1448 1.350 . S
C1452 C1449 1.463 . S
C1452 N1456 1.427 . S
C1453 H1443 0.929 . S
C1453 C1451 1.433 . S
C1453 N1456 1.384 . S
C1454 H1445 0.929 . S
C1454 C1446 1.378 . S
C1454 C1449 1.350 . S
C1455 H1442 0.929 . S
C1455 C1447 1.433 . S
C1455 N1457 1.384 . S
N1456 C1452 1.427 . S
N1456 C1453 1.384 . S
N1457 C1449 1.427 . S
N1457 C1455 1.384 . S
H1458 C1464 0.916 1_655 S
H1459 C1468 0.930 1_455 S
H1460 C1473 0.929 . S
H1461 C1471 0.929 . S
H1462 C1466 0.929 . S
H1463 C1472 0.930 . S
C1464 H1458 0.916 1_455 S
C1464 C1465 1.394 . S
C1464 C1472 1.348 1_456 S
C1465 C1464 1.394 . S
C1465 C1473 1.433 . S
C1466 H1462 0.929 . S
C1466 C1468 1.378 1_455 S
C1466 C1470 1.350 1_455 S
C1467 C1470 1.463 1_455 S
C1467 C1472 1.366 1_455 S
C1467 N1475 1.427 . S
C1468 H1459 0.930 1_655 S
C1468 C1466 1.378 1_655 S
C1468 C1469 1.367 . S
C1469 C1468 1.367 . S
C1469 C1471 1.433 . S
C1470 C1466 1.350 1_655 S
C1470 C1467 1.463 1_655 S
C1470 N1474 1.427 . S
C1471 H1461 0.929 . S
C1471 C1469 1.433 . S
C1471 N1474 1.384 . S
C1472 H1463 0.930 . S
C1472 C1464 1.348 1_654 S
C1472 C1467 1.366 1_655 S
C1473 H1460 0.929 . S
C1473 C1465 1.433 . S
C1473 N1475 1.384 1_556 S
N1474 C1470 1.427 . S
N1474 C1471 1.384 . S
N1475 C1467 1.427 . S
N1475 C1473 1.384 1_554 S
H1476 C1482 0.930 . S
H1477 C1486 0.930 . S
H1478 C1491 0.929 . S
H1479 C1489 0.929 . S
H1480 C1484 0.929 . S
H1481 C1490 0.929 . S
C1482 H1476 0.930 . S
C1482 C1483 1.367 . S
C1482 C1490 1.378 . S
C1483 C1482 1.367 . S
C1483 C1491 1.433 . S
C1484 H1480 0.929 . S
C1484 C1486 1.378 . S
C1484 C1488 1.350 . S
C1485 C1488 1.463 . S
C1485 C1490 1.350 . S
C1485 N1493 1.427 . S
C1486 H1477 0.930 . S
C1486 C1484 1.378 . S
C1486 C1487 1.367 . S
C1487 C1486 1.367 . S
C1487 C1489 1.433 . S
C1488 C1484 1.350 . S
C1488 C1485 1.463 . S
C1488 N1492 1.427 . S
C1489 H1479 0.929 . S
C1489 C1487 1.433 . S
C1489 N1492 1.384 . S
C1490 H1481 0.929 . S
C1490 C1482 1.378 . S
C1490 C1485 1.350 . S
C1491 H1478 0.929 . S
C1491 C1483 1.433 . S
C1491 N1493 1.384 . S
N1492 C1488 1.427 . S
N1492 C1489 1.384 . S
N1493 C1485 1.427 . S
N1493 C1491 1.384 . S
H1494 C1500 0.930 . S
H1495 C1504 0.930 . S
H1496 C1509 0.929 . S
H1497 C1507 0.929 . S
H1498 C1502 0.929 . S
H1499 C1508 0.929 . S
C1500 H1494 0.930 . S
C1500 C1501 1.367 . S
C1500 C1508 1.378 . S
C1501 C1500 1.367 . S
C1501 C1509 1.433 . S
C1502 H1498 0.929 . S
C1502 C1504 1.378 . S
C1502 C1506 1.350 . S
C1503 C1506 1.463 . S
C1503 C1508 1.350 . S
C1503 N1511 1.427 . S
C1504 H1495 0.930 . S
C1504 C1502 1.378 . S
C1504 C1505 1.367 . S
C1505 C1504 1.367 . S
C1505 C1507 1.433 . S
C1506 C1502 1.350 . S
C1506 C1503 1.463 . S
C1506 N1510 1.427 . S
C1507 H1497 0.929 . S
C1507 C1505 1.433 . S
C1507 N1510 1.384 . S
C1508 H1499 0.929 . S
C1508 C1500 1.378 . S
C1508 C1503 1.350 . S
C1509 H1496 0.929 . S
C1509 C1501 1.433 . S
C1509 N1511 1.384 . S
N1510 C1506 1.427 . S
N1510 C1507 1.384 . S
N1511 C1503 1.427 . S
N1511 C1509 1.384 . S
H1512 C1518 0.930 . S
H1513 C1522 0.930 . S
H1514 C1527 0.929 . S
H1515 C1525 0.929 . S
H1516 C1520 0.929 . S
H1517 C1526 0.929 . S
C1518 H1512 0.930 . S
C1518 C1519 1.367 . S
C1518 C1526 1.378 . S
C1519 C1518 1.367 . S
C1519 C1527 1.433 . S
C1520 H1516 0.929 . S
C1520 C1522 1.378 . S
C1520 C1524 1.350 . S
C1521 C1524 1.463 . S
C1521 C1526 1.350 . S
C1521 N1529 1.427 . S
C1522 H1513 0.930 . S
C1522 C1520 1.378 . S
C1522 C1523 1.367 . S
C1523 C1522 1.367 . S
C1523 C1525 1.433 . S
C1524 C1520 1.350 . S
C1524 C1521 1.463 . S
C1524 N1528 1.427 . S
C1525 H1515 0.929 . S
C1525 C1523 1.433 . S
C1525 N1528 1.384 . S
C1526 H1517 0.929 . S
C1526 C1518 1.378 . S
C1526 C1521 1.350 . S
C1527 H1514 0.929 . S
C1527 C1519 1.433 . S
C1527 N1529 1.384 . S
N1528 C1524 1.427 . S
N1528 C1525 1.384 . S
N1529 C1521 1.427 . S
N1529 C1527 1.384 . S
H1530 C1536 0.930 . S
H1531 C1540 0.930 . S
H1532 C1545 0.929 . S
H1533 C1543 0.929 . S
H1534 C1538 0.929 . S
H1535 C1544 0.929 . S
C1536 H1530 0.930 . S
C1536 C1537 1.367 . S
C1536 C1544 1.378 1_554 S
C1537 C1536 1.367 . S
C1537 C1545 1.433 . S
C1538 H1534 0.929 . S
C1538 C1540 1.378 . S
C1538 C1542 1.350 . S
C1539 C1542 1.463 . S
C1539 C1544 1.350 . S
C1539 N1547 1.427 . S
C1540 H1531 0.930 . S
C1540 C1538 1.378 . S
C1540 C1541 1.367 . S
C1541 C1540 1.367 . S
C1541 C1543 1.433 . S
C1542 C1538 1.350 . S
C1542 C1539 1.463 . S
C1542 N1546 1.427 . S
C1543 H1533 0.929 . S
C1543 C1541 1.433 . S
C1543 N1546 1.384 . S
C1544 H1535 0.929 . S
C1544 C1536 1.378 1_556 S
C1544 C1539 1.350 . S
C1545 H1532 0.929 . S
C1545 C1537 1.433 . S
C1545 N1547 1.384 1_554 S
N1546 C1542 1.427 . S
N1546 C1543 1.384 . S
N1547 C1539 1.427 . S
N1547 C1545 1.384 1_556 S
H1548 C1554 0.930 . S
H1549 C1558 0.930 . S
H1550 C1563 0.929 . S
H1551 C1561 0.929 . S
H1552 C1556 0.929 . S
H1553 C1562 0.929 . S
C1554 H1548 0.930 . S
C1554 C1555 1.367 . S
C1554 C1562 1.378 . S
C1555 C1554 1.367 . S
C1555 C1563 1.433 . S
C1556 H1552 0.929 . S
C1556 C1558 1.378 . S
C1556 C1560 1.350 . S
C1557 C1560 1.463 . S
C1557 C1562 1.350 . S
C1557 N1565 1.427 . S
C1558 H1549 0.930 . S
C1558 C1556 1.378 . S
C1558 C1559 1.367 . S
C1559 C1558 1.367 . S
C1559 C1561 1.433 . S
C1560 C1556 1.350 . S
C1560 C1557 1.463 . S
C1560 N1564 1.427 . S
C1561 H1551 0.929 . S
C1561 C1559 1.433 . S
C1561 N1564 1.384 . S
C1562 H1553 0.929 . S
C1562 C1554 1.378 . S
C1562 C1557 1.350 . S
C1563 H1550 0.929 . S
C1563 C1555 1.433 . S
C1563 N1565 1.384 . S
N1564 C1560 1.427 . S
N1564 C1561 1.384 . S
N1565 C1557 1.427 . S
N1565 C1563 1.384 . S
H1566 C1572 0.930 . S
H1567 C1576 0.930 . S
H1568 C1581 0.929 . S
H1569 C1579 0.929 . S
H1570 C1574 0.929 1_455 S
H1571 C1580 0.938 . S
C1572 H1566 0.930 . S
C1572 C1573 1.367 . S
C1572 C1580 1.371 1_455 S
C1573 C1572 1.367 . S
C1573 C1581 1.433 . S
C1574 H1570 0.929 1_655 S
C1574 C1576 1.378 . S
C1574 C1578 1.350 . S
C1575 C1578 1.463 1_455 S
C1575 C1580 1.347 1_455 S
C1575 N1583 1.427 . S
C1576 H1567 0.930 . S
C1576 C1574 1.378 . S
C1576 C1577 1.367 . S
C1577 C1576 1.367 . S
C1577 C1579 1.433 . S
C1578 C1574 1.350 . S
C1578 C1575 1.463 1_655 S
C1578 N1582 1.427 . S
C1579 H1569 0.929 . S
C1579 C1577 1.433 . S
C1579 N1582 1.384 . S
C1580 H1571 0.938 . S
C1580 C1572 1.371 1_655 S
C1580 C1575 1.347 1_655 S
C1581 H1568 0.929 . S
C1581 C1573 1.433 . S
C1581 N1583 1.384 . S
N1582 C1578 1.427 . S
N1582 C1579 1.384 . S
N1583 C1575 1.427 . S
N1583 C1581 1.384 . S
H1584 C1590 0.930 . S
H1585 C1594 0.930 . S
H1586 C1599 0.929 . S
H1587 C1597 0.929 . S
H1588 C1592 0.929 . S
H1589 C1598 0.929 . S
C1590 H1584 0.930 . S
C1590 C1591 1.367 . S
C1590 C1598 1.378 . S
C1591 C1590 1.367 . S
C1591 C1599 1.433 . S
C1592 H1588 0.929 . S
C1592 C1594 1.378 . S
C1592 C1596 1.350 . S
C1593 C1596 1.463 . S
C1593 C1598 1.350 . S
C1593 N1601 1.427 . S
C1594 H1585 0.930 . S
C1594 C1592 1.378 . S
C1594 C1595 1.367 . S
C1595 C1594 1.367 . S
C1595 C1597 1.433 . S
C1596 C1592 1.350 . S
C1596 C1593 1.463 . S
C1596 N1600 1.427 . S
C1597 H1587 0.929 . S
C1597 C1595 1.433 . S
C1597 N1600 1.384 . S
C1598 H1589 0.929 . S
C1598 C1590 1.378 . S
C1598 C1593 1.350 . S
C1599 H1586 0.929 . S
C1599 C1591 1.433 . S
C1599 N1601 1.384 . S
N1600 C1596 1.427 . S
N1600 C1597 1.384 . S
N1601 C1593 1.427 . S
N1601 C1599 1.384 . S
H1602 C1608 0.920 1_455 S
H1603 C1612 0.930 . S
H1604 C1617 0.929 . S
H1605 C1615 0.929 . S
H1606 C1610 0.929 . S
H1607 C1616 0.929 . S
C1608 H1602 0.920 1_655 S
C1608 C1609 1.367 . S
C1608 C1616 1.378 1_654 S
C1609 C1608 1.367 . S
C1609 C1617 1.433 . S
C1610 H1606 0.929 . S
C1610 C1612 1.378 1_655 S
C1610 C1614 1.350 1_655 S
C1611 C1614 1.463 1_655 S
C1611 C1616 1.350 1_655 S
C1611 N1619 1.427 . S
C1612 H1603 0.930 . S
C1612 C1610 1.378 1_455 S
C1612 C1613 1.367 . S
C1613 C1612 1.367 . S
C1613 C1615 1.433 . S
C1614 C1610 1.350 1_455 S
C1614 C1611 1.463 1_455 S
C1614 N1618 1.427 . S
C1615 H1605 0.929 . S
C1615 C1613 1.433 . S
C1615 N1618 1.384 . S
C1616 H1607 0.929 . S
C1616 C1608 1.378 1_456 S
C1616 C1611 1.350 1_455 S
C1617 H1604 0.929 . S
C1617 C1609 1.433 . S
C1617 N1619 1.384 1_554 S
N1618 C1614 1.427 . S
N1618 C1615 1.384 . S
N1619 C1611 1.427 . S
N1619 C1617 1.384 1_556 S
H1620 C1626 0.930 . S
H1621 C1630 0.930 . S
H1622 C1635 0.929 . S
H1623 C1633 0.929 . S
H1624 C1628 0.929 . S
H1625 C1634 0.929 . S
C1626 H1620 0.930 . S
C1626 C1627 1.367 . S
C1626 C1634 1.378 . S
C1627 C1626 1.367 . S
C1627 C1635 1.433 . S
C1628 H1624 0.929 . S
C1628 C1630 1.378 . S
C1628 C1632 1.350 . S
C1629 C1632 1.463 . S
C1629 C1634 1.350 . S
C1629 N1637 1.427 . S
C1630 H1621 0.930 . S
C1630 C1628 1.378 . S
C1630 C1631 1.367 . S
C1631 C1630 1.367 . S
C1631 C1633 1.433 . S
C1632 C1628 1.350 . S
C1632 C1629 1.463 . S
C1632 N1636 1.427 . S
C1633 H1623 0.929 . S
C1633 C1631 1.433 . S
C1633 N1636 1.384 . S
C1634 H1625 0.929 . S
C1634 C1626 1.378 . S
C1634 C1629 1.350 . S
C1635 H1622 0.929 . S
C1635 C1627 1.433 . S
C1635 N1637 1.384 . S
N1636 C1632 1.427 . S
N1636 C1633 1.384 . S
N1637 C1629 1.427 . S
N1637 C1635 1.384 . S
H1638 C1644 0.930 . S
H1639 C1648 0.930 . S
H1640 C1653 0.929 . S
H1641 C1651 0.929 . S
H1642 C1646 0.929 . S
H1643 C1652 0.929 . S
C1644 H1638 0.930 . S
C1644 C1645 1.367 . S
C1644 C1652 1.378 . S
C1645 C1644 1.367 . S
C1645 C1653 1.433 . S
C1646 H1642 0.929 . S
C1646 C1648 1.378 . S
C1646 C1650 1.350 . S
C1647 C1650 1.463 . S
C1647 C1652 1.350 . S
C1647 N1655 1.427 . S
C1648 H1639 0.930 . S
C1648 C1646 1.378 . S
C1648 C1649 1.367 . S
C1649 C1648 1.367 . S
C1649 C1651 1.433 . S
C1650 C1646 1.350 . S
C1650 C1647 1.463 . S
C1650 N1654 1.427 . S
C1651 H1641 0.929 . S
C1651 C1649 1.433 . S
C1651 N1654 1.384 . S
C1652 H1643 0.929 . S
C1652 C1644 1.378 . S
C1652 C1647 1.350 . S
C1653 H1640 0.929 . S
C1653 C1645 1.433 . S
C1653 N1655 1.384 . S
N1654 C1650 1.427 . S
N1654 C1651 1.384 . S
N1655 C1647 1.427 . S
N1655 C1653 1.384 . S
H1656 C1662 0.930 . S
H1657 C1666 0.930 . S
H1658 C1671 0.929 . S
H1659 C1669 0.929 . S
H1660 C1664 0.929 . S
H1661 C1670 0.929 . S
C1662 H1656 0.930 . S
C1662 C1663 1.367 . S
C1662 C1670 1.378 . S
C1663 C1662 1.367 . S
C1663 C1671 1.433 . S
C1664 H1660 0.929 . S
C1664 C1666 1.378 . S
C1664 C1668 1.350 . S
C1665 C1668 1.463 . S
C1665 C1670 1.350 . S
C1665 N1673 1.427 . S
C1666 H1657 0.930 . S
C1666 C1664 1.378 . S
C1666 C1667 1.367 . S
C1667 C1666 1.367 . S
C1667 C1669 1.433 . S
C1668 C1664 1.350 . S
C1668 C1665 1.463 . S
C1668 N1672 1.427 . S
C1669 H1659 0.929 . S
C1669 C1667 1.433 . S
C1669 N1672 1.384 . S
C1670 H1661 0.929 . S
C1670 C1662 1.378 . S
C1670 C1665 1.350 . S
C1671 H1658 0.929 . S
C1671 C1663 1.433 . S
C1671 N1673 1.384 . S
N1672 C1668 1.427 . S
N1672 C1669 1.384 . S
N1673 C1665 1.427 . S
N1673 C1671 1.384 . S
H1674 C1680 0.930 . S
H1675 C1684 0.930 . S
H1676 C1689 0.929 . S
H1677 C1687 0.929 . S
H1678 C1682 0.929 . S
H1679 C1688 0.929 . S
C1680 H1674 0.930 . S
C1680 C1681 1.367 . S
C1680 C1688 1.378 . S
C1681 C1680 1.367 . S
C1681 C1689 1.433 . S
C1682 H1678 0.929 . S
C1682 C1684 1.378 1_554 S
C1682 C1686 1.350 . S
C1683 C1686 1.463 . S
C1683 C1688 1.350 . S
C1683 N1691 1.427 . S
C1684 H1675 0.930 . S
C1684 C1682 1.378 1_556 S
C1684 C1685 1.367 . S
C1685 C1684 1.367 . S
C1685 C1687 1.433 . S
C1686 C1682 1.350 . S
C1686 C1683 1.463 . S
C1686 N1690 1.427 . S
C1687 H1677 0.929 . S
C1687 C1685 1.433 . S
C1687 N1690 1.384 1_556 S
C1688 H1679 0.929 . S
C1688 C1680 1.378 . S
C1688 C1683 1.350 . S
C1689 H1676 0.929 . S
C1689 C1681 1.433 . S
C1689 N1691 1.384 . S
N1690 C1686 1.427 . S
N1690 C1687 1.384 1_554 S
N1691 C1683 1.427 . S
N1691 C1689 1.384 . S
H1692 C1698 0.930 . S
H1693 C1702 0.930 . S
H1694 C1707 0.929 . S
H1695 C1705 0.929 . S
H1696 C1700 0.929 . S
H1697 C1706 0.929 . S
C1698 H1692 0.930 . S
C1698 C1699 1.367 . S
C1698 C1706 1.378 . S
C1699 C1698 1.367 . S
C1699 C1707 1.433 . S
C1700 H1696 0.929 . S
C1700 C1702 1.378 . S
C1700 C1704 1.350 . S
C1701 C1704 1.463 . S
C1701 C1706 1.350 . S
C1701 N1709 1.427 . S
C1702 H1693 0.930 . S
C1702 C1700 1.378 . S
C1702 C1703 1.367 . S
C1703 C1702 1.367 . S
C1703 C1705 1.433 . S
C1704 C1700 1.350 . S
C1704 C1701 1.463 . S
C1704 N1708 1.427 . S
C1705 H1695 0.929 . S
C1705 C1703 1.433 . S
C1705 N1708 1.384 . S
C1706 H1697 0.929 . S
C1706 C1698 1.378 . S
C1706 C1701 1.350 . S
C1707 H1694 0.929 . S
C1707 C1699 1.433 . S
C1707 N1709 1.384 . S
N1708 C1704 1.427 . S
N1708 C1705 1.384 . S
N1709 C1701 1.427 . S
N1709 C1707 1.384 . S
H1710 C1716 0.930 . S
H1711 C1720 0.930 . S
H1712 C1725 0.929 . S
H1713 C1723 0.929 . S
H1714 C1718 0.929 1_655 S
H1715 C1724 0.929 . S
C1716 H1710 0.930 . S
C1716 C1717 1.367 . S
C1716 C1724 1.378 1_655 S
C1717 C1716 1.367 . S
C1717 C1725 1.433 . S
C1718 H1714 0.929 1_455 S
C1718 C1720 1.378 . S
C1718 C1722 1.350 . S
C1719 C1722 1.463 1_655 S
C1719 C1724 1.350 1_655 S
C1719 N1727 1.427 . S
C1720 H1711 0.930 . S
C1720 C1718 1.378 . S
C1720 C1721 1.367 . S
C1721 C1720 1.367 . S
C1721 C1723 1.433 . S
C1722 C1718 1.350 . S
C1722 C1719 1.463 1_455 S
C1722 N1726 1.427 . S
C1723 H1713 0.929 . S
C1723 C1721 1.433 . S
C1723 N1726 1.384 . S
C1724 H1715 0.929 . S
C1724 C1716 1.378 1_455 S
C1724 C1719 1.350 1_455 S
C1725 H1712 0.929 . S
C1725 C1717 1.433 . S
C1725 N1727 1.384 . S
N1726 C1722 1.427 . S
N1726 C1723 1.384 . S
N1727 C1719 1.427 . S
N1727 C1725 1.384 . S
H1728 C1734 0.930 . S
H1729 C1738 0.930 . S
H1730 C1743 0.929 . S
H1731 C1741 0.929 . S
H1732 C1736 0.929 . S
H1733 C1742 0.929 . S
C1734 H1728 0.930 . S
C1734 C1735 1.367 . S
C1734 C1742 1.378 . S
C1735 C1734 1.367 . S
C1735 C1743 1.433 . S
C1736 H1732 0.929 . S
C1736 C1738 1.378 . S
C1736 C1740 1.350 . S
C1737 C1740 1.463 . S
C1737 C1742 1.350 . S
C1737 N1745 1.427 . S
C1738 H1729 0.930 . S
C1738 C1736 1.378 . S
C1738 C1739 1.367 . S
C1739 C1738 1.367 . S
C1739 C1741 1.433 . S
C1740 C1736 1.350 . S
C1740 C1737 1.463 . S
C1740 N1744 1.427 . S
C1741 H1731 0.929 . S
C1741 C1739 1.433 . S
C1741 N1744 1.384 . S
C1742 H1733 0.929 . S
C1742 C1734 1.378 . S
C1742 C1737 1.350 . S
C1743 H1730 0.929 . S
C1743 C1735 1.433 . S
C1743 N1745 1.384 . S
N1744 C1740 1.427 . S
N1744 C1741 1.384 . S
N1745 C1737 1.427 . S
N1745 C1743 1.384 . S
H1746 C1752 0.930 . S
H1747 C1756 0.930 . S
H1748 C1761 0.929 . S
H1749 C1759 0.929 . S
H1750 C1754 0.929 . S
H1751 C1760 0.929 . S
C1752 H1746 0.930 . S
C1752 C1753 1.367 . S
C1752 C1760 1.378 . S
C1753 C1752 1.367 . S
C1753 C1761 1.433 . S
C1754 H1750 0.929 . S
C1754 C1756 1.378 . S
C1754 C1758 1.350 . S
C1755 C1758 1.463 . S
C1755 C1760 1.350 . S
C1755 N1763 1.427 . S
C1756 H1747 0.930 . S
C1756 C1754 1.378 . S
C1756 C1757 1.367 . S
C1757 C1756 1.367 . S
C1757 C1759 1.433 . S
C1758 C1754 1.350 . S
C1758 C1755 1.463 . S
C1758 N1762 1.427 . S
C1759 H1749 0.929 . S
C1759 C1757 1.433 . S
C1759 N1762 1.384 . S
C1760 H1751 0.929 . S
C1760 C1752 1.378 . S
C1760 C1755 1.350 . S
C1761 H1748 0.929 . S
C1761 C1753 1.433 . S
C1761 N1763 1.384 . S
N1762 C1758 1.427 . S
N1762 C1759 1.384 . S
N1763 C1755 1.427 . S
N1763 C1761 1.384 . S
H1764 C1770 0.930 . S
H1765 C1774 0.930 . S
H1766 C1779 0.929 . S
H1767 C1777 0.929 . S
H1768 C1772 0.929 . S
H1769 C1778 0.929 . S
C1770 H1764 0.930 . S
C1770 C1771 1.367 . S
C1770 C1778 1.378 . S
C1771 C1770 1.367 . S
C1771 C1779 1.433 . S
C1772 H1768 0.929 . S
C1772 C1774 1.378 . S
C1772 C1776 1.350 . S
C1773 C1776 1.463 . S
C1773 C1778 1.350 . S
C1773 N1781 1.427 . S
C1774 H1765 0.930 . S
C1774 C1772 1.378 . S
C1774 C1775 1.367 . S
C1775 C1774 1.367 . S
C1775 C1777 1.433 . S
C1776 C1772 1.350 . S
C1776 C1773 1.463 . S
C1776 N1780 1.427 . S
C1777 H1767 0.929 . S
C1777 C1775 1.433 . S
C1777 N1780 1.384 . S
C1778 H1769 0.929 . S
C1778 C1770 1.378 . S
C1778 C1773 1.350 . S
C1779 H1766 0.929 . S
C1779 C1771 1.433 . S
C1779 N1781 1.384 . S
N1780 C1776 1.427 . S
N1780 C1777 1.384 . S
N1781 C1773 1.427 . S
N1781 C1779 1.384 . S
H1782 C1788 0.930 . S
H1783 C1792 0.930 . S
H1784 C1797 0.929 . S
H1785 C1795 0.929 . S
H1786 C1790 0.929 1_455 S
H1787 C1796 0.907 1_655 S
C1788 H1782 0.930 . S
C1788 C1789 1.367 . S
C1788 C1796 1.378 . S
C1789 C1788 1.367 . S
C1789 C1797 1.433 . S
C1790 H1786 0.929 1_655 S
C1790 C1792 1.378 1_554 S
C1790 C1794 1.350 . S
C1791 C1794 1.463 1_455 S
C1791 C1796 1.350 . S
C1791 N1799 1.427 . S
C1792 H1783 0.930 . S
C1792 C1790 1.378 1_556 S
C1792 C1793 1.367 . S
C1793 C1792 1.367 . S
C1793 C1795 1.433 . S
C1794 C1790 1.350 . S
C1794 C1791 1.463 1_655 S
C1794 N1798 1.427 . S
C1795 H1785 0.929 . S
C1795 C1793 1.433 . S
C1795 N1798 1.384 1_556 S
C1796 H1787 0.907 1_455 S
C1796 C1788 1.378 . S
C1796 C1791 1.350 . S
C1797 H1784 0.929 . S
C1797 C1789 1.433 . S
C1797 N1799 1.384 . S
N1798 C1794 1.427 . S
N1798 C1795 1.384 1_554 S
N1799 C1791 1.427 . S
N1799 C1797 1.384 . S
H1800 C1806 0.930 . S
H1801 C1810 0.930 . S
H1802 C1815 0.929 . S
H1803 C1813 0.929 . S
H1804 C1808 0.929 . S
H1805 C1814 0.929 . S
C1806 H1800 0.930 . S
C1806 C1807 1.367 . S
C1806 C1814 1.378 . S
C1807 C1806 1.367 . S
C1807 C1815 1.433 . S
C1808 H1804 0.929 . S
C1808 C1810 1.378 . S
C1808 C1812 1.350 . S
C1809 C1812 1.463 . S
C1809 C1814 1.350 . S
C1809 N1817 1.427 . S
C1810 H1801 0.930 . S
C1810 C1808 1.378 . S
C1810 C1811 1.367 . S
C1811 C1810 1.367 . S
C1811 C1813 1.433 . S
C1812 C1808 1.350 . S
C1812 C1809 1.463 . S
C1812 N1816 1.427 . S
C1813 H1803 0.929 . S
C1813 C1811 1.433 . S
C1813 N1816 1.384 . S
C1814 H1805 0.929 . S
C1814 C1806 1.378 . S
C1814 C1809 1.350 . S
C1815 H1802 0.929 . S
C1815 C1807 1.433 . S
C1815 N1817 1.384 . S
N1816 C1812 1.427 . S
N1816 C1813 1.384 . S
N1817 C1809 1.427 . S
N1817 C1815 1.384 . S
H1818 C1824 0.930 . S
H1819 C1828 0.930 . S
H1820 C1833 0.929 . S
H1821 C1831 0.929 . S
H1822 C1826 0.929 . S
H1823 C1832 0.929 . S
C1824 H1818 0.930 . S
C1824 C1825 1.367 . S
C1824 C1832 1.378 . S
C1825 C1824 1.367 . S
C1825 C1833 1.433 . S
C1826 H1822 0.929 . S
C1826 C1828 1.378 . S
C1826 C1830 1.350 . S
C1827 C1830 1.463 1_655 S
C1827 C1832 1.350 . S
C1827 N1835 1.427 . S
C1828 H1819 0.930 . S
C1828 C1826 1.378 . S
C1828 C1829 1.367 . S
C1829 C1828 1.367 . S
C1829 C1831 1.433 . S
C1830 C1826 1.350 . S
C1830 C1827 1.463 1_455 S
C1830 N1834 1.427 . S
C1831 H1821 0.929 . S
C1831 C1829 1.433 . S
C1831 N1834 1.384 . S
C1832 H1823 0.929 . S
C1832 C1824 1.378 . S
C1832 C1827 1.350 . S
C1833 H1820 0.929 . S
C1833 C1825 1.433 . S
C1833 N1835 1.384 . S
N1834 C1830 1.427 . S
N1834 C1831 1.384 . S
N1835 C1827 1.427 . S
N1835 C1833 1.384 . S
H1836 C1842 0.930 . S
H1837 C1846 0.930 . S
H1838 C1851 0.929 . S
H1839 C1849 0.929 . S
H1840 C1844 0.929 . S
H1841 C1850 0.929 . S
C1842 H1836 0.930 . S
C1842 C1843 1.367 . S
C1842 C1850 1.378 . S
C1843 C1842 1.367 . S
C1843 C1851 1.433 . S
C1844 H1840 0.929 . S
C1844 C1846 1.378 . S
C1844 C1848 1.350 . S
C1845 C1848 1.463 . S
C1845 C1850 1.350 . S
C1845 N1853 1.427 . S
C1846 H1837 0.930 . S
C1846 C1844 1.378 . S
C1846 C1847 1.367 . S
C1847 C1846 1.367 . S
C1847 C1849 1.433 . S
C1848 C1844 1.350 . S
C1848 C1845 1.463 . S
C1848 N1852 1.427 . S
C1849 H1839 0.929 . S
C1849 C1847 1.433 . S
C1849 N1852 1.384 . S
C1850 H1841 0.929 . S
C1850 C1842 1.378 . S
C1850 C1845 1.350 . S
C1851 H1838 0.929 . S
C1851 C1843 1.433 . S
C1851 N1853 1.384 . S
N1852 C1848 1.427 . S
N1852 C1849 1.384 . S
N1853 C1845 1.427 . S
N1853 C1851 1.384 . S
H1854 C1860 0.930 . S
H1855 C1864 0.930 . S
H1856 C1869 0.929 . S
H1857 C1867 0.929 . S
H1858 C1862 0.929 . S
H1859 C1868 0.929 . S
C1860 H1854 0.930 . S
C1860 C1861 1.367 . S
C1860 C1868 1.378 1_554 S
C1861 C1860 1.367 . S
C1861 C1869 1.433 . S
C1862 H1858 0.929 . S
C1862 C1864 1.378 . S
C1862 C1866 1.350 . S
C1863 C1866 1.463 . S
C1863 C1868 1.350 . S
C1863 N1871 1.427 . S
C1864 H1855 0.930 . S
C1864 C1862 1.378 . S
C1864 C1865 1.367 . S
C1865 C1864 1.367 . S
C1865 C1867 1.433 . S
C1866 C1862 1.350 . S
C1866 C1863 1.463 . S
C1866 N1870 1.427 . S
C1867 H1857 0.929 . S
C1867 C1865 1.433 . S
C1867 N1870 1.384 . S
C1868 H1859 0.929 . S
C1868 C1860 1.378 1_556 S
C1868 C1863 1.350 . S
C1869 H1856 0.929 . S
C1869 C1861 1.433 . S
C1869 N1871 1.384 1_554 S
N1870 C1866 1.427 . S
N1870 C1867 1.384 . S
N1871 C1863 1.427 . S
N1871 C1869 1.384 1_556 S
H1872 C1878 0.930 . S
H1873 C1882 0.930 . S
H1874 C1887 0.929 . S
H1875 C1885 0.929 . S
H1876 C1880 0.929 . S
H1877 C1886 0.929 . S
C1878 H1872 0.930 . S
C1878 C1879 1.367 . S
C1878 C1886 1.378 . S
C1879 C1878 1.367 . S
C1879 C1887 1.433 . S
C1880 H1876 0.929 . S
C1880 C1882 1.378 . S
C1880 C1884 1.350 . S
C1881 C1884 1.463 . S
C1881 C1886 1.350 . S
C1881 N1889 1.427 . S
C1882 H1873 0.930 . S
C1882 C1880 1.378 . S
C1882 C1883 1.367 . S
C1883 C1882 1.367 . S
C1883 C1885 1.433 . S
C1884 C1880 1.350 . S
C1884 C1881 1.463 . S
C1884 N1888 1.427 . S
C1885 H1875 0.929 . S
C1885 C1883 1.433 . S
C1885 N1888 1.384 . S
C1886 H1877 0.929 . S
C1886 C1878 1.378 . S
C1886 C1881 1.350 . S
C1887 H1874 0.929 . S
C1887 C1879 1.433 . S
C1887 N1889 1.384 . S
N1888 C1884 1.427 . S
N1888 C1885 1.384 . S
N1889 C1881 1.427 . S
N1889 C1887 1.384 . S
H1890 C1896 0.930 . S
H1891 C1900 0.930 . S
H1892 C1905 0.929 . S
H1893 C1903 0.929 . S
H1894 C1898 0.929 . S
H1895 C1904 0.929 . S
C1896 H1890 0.930 . S
C1896 C1897 1.367 . S
C1896 C1904 1.378 . S
C1897 C1896 1.367 . S
C1897 C1905 1.433 . S
C1898 H1894 0.929 . S
C1898 C1900 1.378 . S
C1898 C1902 1.350 . S
C1899 C1902 1.463 . S
C1899 C1904 1.350 . S
C1899 N1907 1.427 . S
C1900 H1891 0.930 . S
C1900 C1898 1.378 . S
C1900 C1901 1.367 . S
C1901 C1900 1.367 . S
C1901 C1903 1.433 . S
C1902 C1898 1.350 . S
C1902 C1899 1.463 . S
C1902 N1906 1.427 . S
C1903 H1893 0.929 . S
C1903 C1901 1.433 . S
C1903 N1906 1.384 . S
C1904 H1895 0.929 . S
C1904 C1896 1.378 . S
C1904 C1899 1.350 . S
C1905 H1892 0.929 . S
C1905 C1897 1.433 . S
C1905 N1907 1.384 . S
N1906 C1902 1.427 . S
N1906 C1903 1.384 . S
N1907 C1899 1.427 . S
N1907 C1905 1.384 . S
H1908 C1914 0.930 . S
H1909 C1918 0.930 . S
H1910 C1923 0.929 . S
H1911 C1921 0.929 . S
H1912 C1916 0.929 . S
H1913 C1922 0.929 . S
C1914 H1908 0.930 . S
C1914 C1915 1.367 . S
C1914 C1922 1.378 . S
C1915 C1914 1.367 . S
C1915 C1923 1.433 . S
C1916 H1912 0.929 . S
C1916 C1918 1.378 . S
C1916 C1920 1.350 . S
C1917 C1920 1.463 . S
C1917 C1922 1.350 . S
C1917 N1925 1.427 . S
C1918 H1909 0.930 . S
C1918 C1916 1.378 . S
C1918 C1919 1.367 . S
C1919 C1918 1.367 . S
C1919 C1921 1.433 . S
C1920 C1916 1.350 . S
C1920 C1917 1.463 . S
C1920 N1924 1.427 . S
C1921 H1911 0.929 . S
C1921 C1919 1.433 . S
C1921 N1924 1.384 . S
C1922 H1913 0.929 . S
C1922 C1914 1.378 . S
C1922 C1917 1.350 . S
C1923 H1910 0.929 . S
C1923 C1915 1.433 . S
C1923 N1925 1.384 . S
N1924 C1920 1.427 . S
N1924 C1921 1.384 . S
N1925 C1917 1.427 . S
N1925 C1923 1.384 . S
H1926 C1932 0.930 . S
H1927 C1936 0.930 . S
H1928 C1941 0.929 . S
H1929 C1939 0.908 1_655 S
H1930 C1934 0.929 . S
H1931 C1940 0.929 . S
C1932 H1926 0.930 . S
C1932 C1933 1.367 . S
C1932 C1940 1.378 . S
C1933 C1932 1.367 . S
C1933 C1941 1.433 . S
C1934 H1930 0.929 . S
C1934 C1936 1.378 1_556 S
C1934 C1938 1.350 . S
C1935 C1938 1.463 1_655 S
C1935 C1940 1.350 . S
C1935 N1943 1.427 1_655 S
C1936 H1927 0.930 . S
C1936 C1934 1.378 1_554 S
C1936 C1937 1.367 . S
C1937 C1936 1.367 . S
C1937 C1939 1.433 . S
C1938 C1934 1.350 . S
C1938 C1935 1.463 1_455 S
C1938 N1942 1.427 1_455 S
C1939 H1929 0.908 1_455 S
C1939 C1937 1.433 . S
C1939 N1942 1.384 1_454 S
C1940 H1931 0.929 . S
C1940 C1932 1.378 . S
C1940 C1935 1.350 . S
C1941 H1928 0.929 . S
C1941 C1933 1.433 . S
C1941 N1943 1.384 1_655 S
N1942 C1938 1.427 1_655 S
N1942 C1939 1.384 1_656 S
N1943 C1935 1.427 1_455 S
N1943 C1941 1.384 1_455 S
H1944 C1950 0.930 . S
H1945 C1954 0.930 . S
H1946 C1959 0.929 . S
H1947 C1957 0.929 . S
H1948 C1952 0.929 . S
H1949 C1958 0.929 . S
C1950 H1944 0.930 . S
C1950 C1951 1.367 . S
C1950 C1958 1.378 . S
C1951 C1950 1.367 . S
C1951 C1959 1.433 . S
C1952 H1948 0.929 . S
C1952 C1954 1.378 . S
C1952 C1956 1.350 . S
C1953 C1956 1.463 . S
C1953 C1958 1.350 . S
C1953 N1961 1.427 . S
C1954 H1945 0.930 . S
C1954 C1952 1.378 . S
C1954 C1955 1.367 . S
C1955 C1954 1.367 . S
C1955 C1957 1.433 . S
C1956 C1952 1.350 . S
C1956 C1953 1.463 . S
C1956 N1960 1.427 . S
C1957 H1947 0.929 . S
C1957 C1955 1.433 . S
C1957 N1960 1.384 . S
C1958 H1949 0.929 . S
C1958 C1950 1.378 . S
C1958 C1953 1.350 . S
C1959 H1946 0.929 . S
C1959 C1951 1.433 . S
C1959 N1961 1.384 . S
N1960 C1956 1.427 . S
N1960 C1957 1.384 . S
N1961 C1953 1.427 . S
N1961 C1959 1.384 . S
H1962 C1968 0.930 1_455 S
H1963 C1972 0.913 1_655 S
H1964 C1977 0.929 . S
H1965 C1975 0.929 . S
H1966 C1970 0.929 . S
H1967 C1976 0.929 . S
C1968 H1962 0.930 1_655 S
C1968 C1969 1.367 . S
C1968 C1976 1.378 1_655 S
C1969 C1968 1.367 . S
C1969 C1977 1.433 . S
C1970 H1966 0.929 . S
C1970 C1972 1.363 1_655 S
C1970 C1974 1.350 1_655 S
C1971 C1974 1.463 1_655 S
C1971 C1976 1.350 1_655 S
C1971 N1979 1.427 . S
C1972 H1963 0.913 1_455 S
C1972 C1970 1.363 1_455 S
C1972 C1973 1.400 . S
C1973 C1972 1.400 . S
C1973 C1975 1.433 . S
C1974 C1970 1.350 1_455 S
C1974 C1971 1.463 1_455 S
C1974 N1978 1.427 . S
C1975 H1965 0.929 . S
C1975 C1973 1.433 . S
C1975 N1978 1.384 . S
C1976 H1967 0.929 . S
C1976 C1968 1.378 1_455 S
C1976 C1971 1.350 1_455 S
C1977 H1964 0.929 . S
C1977 C1969 1.433 . S
C1977 N1979 1.384 . S
N1978 C1974 1.427 . S
N1978 C1975 1.384 . S
N1979 C1971 1.427 . S
N1979 C1977 1.384 . S
H1980 C1986 0.930 . S
H1981 C1990 0.930 . S
H1982 C1995 0.929 . S
H1983 C1993 0.929 . S
H1984 C1988 0.929 . S
H1985 C1994 0.929 . S
C1986 H1980 0.930 . S
C1986 C1987 1.367 . S
C1986 C1994 1.378 . S
C1987 C1986 1.367 . S
C1987 C1995 1.433 . S
C1988 H1984 0.929 . S
C1988 C1990 1.378 . S
C1988 C1992 1.350 . S
C1989 C1992 1.463 . S
C1989 C1994 1.350 . S
C1989 N1997 1.427 . S
C1990 H1981 0.930 . S
C1990 C1988 1.378 . S
C1990 C1991 1.367 . S
C1991 C1990 1.367 . S
C1991 C1993 1.433 . S
C1992 C1988 1.350 . S
C1992 C1989 1.463 . S
C1992 N1996 1.427 . S
C1993 H1983 0.929 . S
C1993 C1991 1.433 . S
C1993 N1996 1.384 . S
C1994 H1985 0.929 . S
C1994 C1986 1.378 . S
C1994 C1989 1.350 . S
C1995 H1982 0.929 . S
C1995 C1987 1.433 . S
C1995 N1997 1.384 . S
N1996 C1992 1.427 . S
N1996 C1993 1.384 . S
N1997 C1989 1.427 . S
N1997 C1995 1.384 . S
H1998 C2004 0.930 . S
H1999 C2008 0.930 . S
H2000 C2013 0.929 . S
H2001 C2011 0.929 . S
H2002 C2006 0.929 . S
H2003 C2012 0.929 . S
C2004 H1998 0.930 . S
C2004 C2005 1.367 . S
C2004 C2012 1.378 . S
C2005 C2004 1.367 . S
C2005 C2013 1.433 . S
C2006 H2002 0.929 . S
C2006 C2008 1.378 1_554 S
C2006 C2010 1.350 . S
C2007 C2010 1.463 . S
C2007 C2012 1.350 . S
C2007 N2015 1.427 . S
C2008 H1999 0.930 . S
C2008 C2006 1.378 1_556 S
C2008 C2009 1.367 . S
C2009 C2008 1.367 . S
C2009 C2011 1.433 . S
C2010 C2006 1.350 . S
C2010 C2007 1.463 . S
C2010 N2014 1.427 . S
C2011 H2001 0.929 . S
C2011 C2009 1.433 . S
C2011 N2014 1.384 1_556 S
C2012 H2003 0.929 . S
C2012 C2004 1.378 . S
C2012 C2007 1.350 . S
C2013 H2000 0.929 . S
C2013 C2005 1.433 . S
C2013 N2015 1.384 . S
N2014 C2010 1.427 . S
N2014 C2011 1.384 1_554 S
N2015 C2007 1.427 . S
N2015 C2013 1.384 . S
H2016 C2022 0.930 . S
H2017 C2026 0.930 . S
H2018 C2031 0.929 . S
H2019 C2029 0.929 . S
H2020 C2024 0.929 . S
H2021 C2030 0.929 . S
C2022 H2016 0.930 . S
C2022 C2023 1.367 . S
C2022 C2030 1.378 . S
C2023 C2022 1.367 . S
C2023 C2031 1.433 . S
C2024 H2020 0.929 . S
C2024 C2026 1.378 . S
C2024 C2028 1.350 . S
C2025 C2028 1.463 . S
C2025 C2030 1.350 . S
C2025 N2033 1.427 . S
C2026 H2017 0.930 . S
C2026 C2024 1.378 . S
C2026 C2027 1.367 . S
C2027 C2026 1.367 . S
C2027 C2029 1.433 . S
C2028 C2024 1.350 . S
C2028 C2025 1.463 . S
C2028 N2032 1.427 . S
C2029 H2019 0.929 . S
C2029 C2027 1.433 . S
C2029 N2032 1.384 . S
C2030 H2021 0.929 . S
C2030 C2022 1.378 . S
C2030 C2025 1.350 . S
C2031 H2018 0.929 . S
C2031 C2023 1.433 . S
C2031 N2033 1.384 . S
N2032 C2028 1.427 . S
N2032 C2029 1.384 . S
N2033 C2025 1.427 . S
N2033 C2031 1.384 . S
H2034 C2040 0.930 . S
H2035 C2044 0.930 . S
H2036 C2049 0.929 . S
H2037 C2047 0.929 . S
H2038 C2042 0.929 . S
H2039 C2048 0.929 . S
C2040 H2034 0.930 . S
C2040 C2041 1.367 . S
C2040 C2048 1.378 . S
C2041 C2040 1.367 . S
C2041 C2049 1.433 . S
C2042 H2038 0.929 . S
C2042 C2044 1.378 . S
C2042 C2046 1.350 . S
C2043 C2046 1.463 . S
C2043 C2048 1.350 . S
C2043 N2051 1.427 . S
C2044 H2035 0.930 . S
C2044 C2042 1.378 . S
C2044 C2045 1.367 . S
C2045 C2044 1.367 . S
C2045 C2047 1.433 . S
C2046 C2042 1.350 . S
C2046 C2043 1.463 . S
C2046 N2050 1.427 . S
C2047 H2037 0.929 . S
C2047 C2045 1.433 . S
C2047 N2050 1.384 . S
C2048 H2039 0.929 . S
C2048 C2040 1.378 . S
C2048 C2043 1.350 . S
C2049 H2036 0.929 . S
C2049 C2041 1.433 . S
C2049 N2051 1.384 . S
N2050 C2046 1.427 . S
N2050 C2047 1.384 . S
N2051 C2043 1.427 . S
N2051 C2049 1.384 . S
H2052 C2058 0.930 . S
H2053 C2062 0.930 . S
H2054 C2067 0.929 . S
H2055 C2065 0.929 . S
H2056 C2060 0.929 . S
H2057 C2066 0.929 . S
C2058 H2052 0.930 . S
C2058 C2059 1.367 . S
C2058 C2066 1.378 . S
C2059 C2058 1.367 . S
C2059 C2067 1.433 . S
C2060 H2056 0.929 . S
C2060 C2062 1.378 . S
C2060 C2064 1.350 . S
C2061 C2064 1.463 . S
C2061 C2066 1.350 . S
C2061 N2069 1.427 . S
C2062 H2053 0.930 . S
C2062 C2060 1.378 . S
C2062 C2063 1.367 . S
C2063 C2062 1.367 . S
C2063 C2065 1.433 . S
C2064 C2060 1.350 . S
C2064 C2061 1.463 . S
C2064 N2068 1.427 . S
C2065 H2055 0.929 . S
C2065 C2063 1.433 . S
C2065 N2068 1.384 . S
C2066 H2057 0.929 . S
C2066 C2058 1.378 . S
C2066 C2061 1.350 . S
C2067 H2054 0.929 . S
C2067 C2059 1.433 . S
C2067 N2069 1.384 . S
N2068 C2064 1.427 . S
N2068 C2065 1.384 . S
N2069 C2061 1.427 . S
N2069 C2067 1.384 . S
H2070 C2076 0.930 . S
H2071 C2080 0.930 . S
H2072 C2085 0.929 . S
H2073 C2083 0.929 . S
H2074 C2078 0.929 . S
H2075 C2084 0.929 . S
C2076 H2070 0.930 . S
C2076 C2077 1.367 . S
C2076 C2084 1.378 . S
C2077 C2076 1.367 . S
C2077 C2085 1.433 . S
C2078 H2074 0.929 . S
C2078 C2080 1.378 . S
C2078 C2082 1.350 . S
C2079 C2082 1.463 . S
C2079 C2084 1.350 . S
C2079 N2087 1.427 . S
C2080 H2071 0.930 . S
C2080 C2078 1.378 . S
C2080 C2081 1.367 . S
C2081 C2080 1.367 . S
C2081 C2083 1.433 . S
C2082 C2078 1.350 . S
C2082 C2079 1.463 . S
C2082 N2086 1.427 . S
C2083 H2073 0.929 . S
C2083 C2081 1.433 . S
C2083 N2086 1.384 . S
C2084 H2075 0.929 . S
C2084 C2076 1.378 . S
C2084 C2079 1.350 . S
C2085 H2072 0.929 . S
C2085 C2077 1.433 . S
C2085 N2087 1.384 . S
N2086 C2082 1.427 . S
N2086 C2083 1.384 . S
N2087 C2079 1.427 . S
N2087 C2085 1.384 . S
H2088 C2094 0.930 . S
H2089 C2098 0.930 . S
H2090 C2103 0.929 . S
H2091 C2101 0.929 . S
H2092 C2096 0.929 . S
H2093 C2102 0.929 . S
C2094 H2088 0.930 . S
C2094 C2095 1.367 . S
C2094 C2102 1.378 . S
C2095 C2094 1.367 . S
C2095 C2103 1.433 . S
C2096 H2092 0.929 . S
C2096 C2098 1.378 . S
C2096 C2100 1.350 . S
C2097 C2100 1.463 . S
C2097 C2102 1.350 . S
C2097 N2105 1.427 . S
C2098 H2089 0.930 . S
C2098 C2096 1.378 . S
C2098 C2099 1.367 . S
C2099 C2098 1.367 . S
C2099 C2101 1.433 . S
C2100 C2096 1.350 . S
C2100 C2097 1.463 . S
C2100 N2104 1.427 . S
C2101 H2091 0.929 . S
C2101 C2099 1.433 . S
C2101 N2104 1.384 . S
C2102 H2093 0.929 . S
C2102 C2094 1.378 . S
C2102 C2097 1.350 . S
C2103 H2090 0.929 . S
C2103 C2095 1.433 . S
C2103 N2105 1.384 . S
N2104 C2100 1.427 . S
N2104 C2101 1.384 . S
N2105 C2097 1.427 . S
N2105 C2103 1.384 . S
H2106 C2112 0.930 . S
H2107 C2116 0.930 . S
H2108 C2121 0.929 . S
H2109 C2119 0.929 . S
H2110 C2114 0.929 . S
H2111 C2120 0.929 . S
C2112 H2106 0.930 . S
C2112 C2113 1.367 . S
C2112 C2120 1.378 . S
C2113 C2112 1.367 . S
C2113 C2121 1.433 . S
C2114 H2110 0.929 . S
C2114 C2116 1.378 . S
C2114 C2118 1.350 . S
C2115 C2118 1.463 . S
C2115 C2120 1.350 . S
C2115 N2123 1.427 . S
C2116 H2107 0.930 . S
C2116 C2114 1.378 . S
C2116 C2117 1.367 . S
C2117 C2116 1.367 . S
C2117 C2119 1.433 . S
C2118 C2114 1.350 . S
C2118 C2115 1.463 . S
C2118 N2122 1.427 . S
C2119 H2109 0.929 . S
C2119 C2117 1.433 . S
C2119 N2122 1.384 . S
C2120 H2111 0.929 . S
C2120 C2112 1.378 . S
C2120 C2115 1.350 . S
C2121 H2108 0.929 . S
C2121 C2113 1.433 . S
C2121 N2123 1.384 . S
N2122 C2118 1.427 . S
N2122 C2119 1.384 . S
N2123 C2115 1.427 . S
N2123 C2121 1.384 . S
H2124 C2130 0.930 . S
H2125 C2134 0.930 . S
H2126 C2139 0.929 . S
H2127 C2137 0.929 . S
H2128 C2132 0.929 . S
H2129 C2138 0.929 . S
C2130 H2124 0.930 . S
C2130 C2131 1.367 . S
C2130 C2138 1.378 . S
C2131 C2130 1.367 . S
C2131 C2139 1.433 . S
C2132 H2128 0.929 . S
C2132 C2134 1.378 . S
C2132 C2136 1.350 . S
C2133 C2136 1.463 . S
C2133 C2138 1.350 . S
C2133 N2141 1.427 . S
C2134 H2125 0.930 . S
C2134 C2132 1.378 . S
C2134 C2135 1.367 . S
C2135 C2134 1.367 . S
C2135 C2137 1.433 . S
C2136 C2132 1.350 . S
C2136 C2133 1.463 . S
C2136 N2140 1.427 . S
C2137 H2127 0.929 . S
C2137 C2135 1.433 . S
C2137 N2140 1.384 . S
C2138 H2129 0.929 . S
C2138 C2130 1.378 . S
C2138 C2133 1.350 . S
C2139 H2126 0.929 . S
C2139 C2131 1.433 . S
C2139 N2141 1.384 . S
N2140 C2136 1.427 . S
N2140 C2137 1.384 . S
N2141 C2133 1.427 . S
N2141 C2139 1.384 . S
H2142 C2148 0.930 . S
H2143 C2152 0.930 . S
H2144 C2157 0.929 . S
H2145 C2155 0.929 . S
H2146 C2150 0.929 . S
H2147 C2156 0.929 . S
C2148 H2142 0.930 . S
C2148 C2149 1.367 . S
C2148 C2156 1.378 . S
C2149 C2148 1.367 . S
C2149 C2157 1.433 . S
C2150 H2146 0.929 . S
C2150 C2152 1.378 . S
C2150 C2154 1.350 . S
C2151 C2154 1.463 . S
C2151 C2156 1.350 . S
C2151 N2159 1.427 . S
C2152 H2143 0.930 . S
C2152 C2150 1.378 . S
C2152 C2153 1.367 . S
C2153 C2152 1.367 . S
C2153 C2155 1.433 . S
C2154 C2150 1.350 . S
C2154 C2151 1.463 . S
C2154 N2158 1.427 . S
C2155 H2145 0.929 . S
C2155 C2153 1.433 . S
C2155 N2158 1.384 . S
C2156 H2147 0.929 . S
C2156 C2148 1.378 . S
C2156 C2151 1.350 . S
C2157 H2144 0.929 . S
C2157 C2149 1.433 . S
C2157 N2159 1.384 . S
N2158 C2154 1.427 . S
N2158 C2155 1.384 . S
N2159 C2151 1.427 . S
N2159 C2157 1.384 . S
H2160 C2166 0.930 . S
H2161 C2170 0.930 . S
H2162 C2175 0.929 . S
H2163 C2173 0.929 . S
H2164 C2168 0.929 . S
H2165 C2174 0.929 . S
C2166 H2160 0.930 . S
C2166 C2167 1.367 . S
C2166 C2174 1.378 . S
C2167 C2166 1.367 . S
C2167 C2175 1.433 . S
C2168 H2164 0.929 . S
C2168 C2170 1.378 . S
C2168 C2172 1.350 . S
C2169 C2172 1.463 . S
C2169 C2174 1.350 . S
C2169 N2177 1.427 . S
C2170 H2161 0.930 . S
C2170 C2168 1.378 . S
C2170 C2171 1.367 . S
C2171 C2170 1.367 . S
C2171 C2173 1.433 . S
C2172 C2168 1.350 . S
C2172 C2169 1.463 . S
C2172 N2176 1.427 . S
C2173 H2163 0.929 . S
C2173 C2171 1.433 . S
C2173 N2176 1.384 . S
C2174 H2165 0.929 . S
C2174 C2166 1.378 . S
C2174 C2169 1.350 . S
C2175 H2162 0.929 . S
C2175 C2167 1.433 . S
C2175 N2177 1.384 . S
N2176 C2172 1.427 . S
N2176 C2173 1.384 . S
N2177 C2169 1.427 . S
N2177 C2175 1.384 . S
H2178 C2184 0.930 . S
H2179 C2188 0.930 . S
H2180 C2193 0.929 . S
H2181 C2191 0.929 . S
H2182 C2186 0.929 . S
H2183 C2192 0.929 . S
C2184 H2178 0.930 . S
C2184 C2185 1.367 . S
C2184 C2192 1.378 . S
C2185 C2184 1.367 . S
C2185 C2193 1.433 . S
C2186 H2182 0.929 . S
C2186 C2188 1.378 . S
C2186 C2190 1.350 . S
C2187 C2190 1.463 . S
C2187 C2192 1.350 . S
C2187 N2195 1.427 . S
C2188 H2179 0.930 . S
C2188 C2186 1.378 . S
C2188 C2189 1.367 . S
C2189 C2188 1.367 . S
C2189 C2191 1.433 . S
C2190 C2186 1.350 . S
C2190 C2187 1.463 . S
C2190 N2194 1.427 . S
C2191 H2181 0.929 . S
C2191 C2189 1.433 . S
C2191 N2194 1.384 . S
C2192 H2183 0.929 . S
C2192 C2184 1.378 . S
C2192 C2187 1.350 . S
C2193 H2180 0.929 . S
C2193 C2185 1.433 . S
C2193 N2195 1.384 . S
N2194 C2190 1.427 . S
N2194 C2191 1.384 . S
N2195 C2187 1.427 . S
N2195 C2193 1.384 . S
H2196 C2202 0.930 . S
H2197 C2206 0.930 . S
H2198 C2211 0.929 . S
H2199 C2209 0.929 . S
H2200 C2204 0.929 . S
H2201 C2210 0.929 . S
C2202 H2196 0.930 . S
C2202 C2203 1.367 . S
C2202 C2210 1.378 . S
C2203 C2202 1.367 . S
C2203 C2211 1.433 . S
C2204 H2200 0.929 . S
C2204 C2206 1.378 . S
C2204 C2208 1.350 . S
C2205 C2208 1.463 . S
C2205 C2210 1.350 . S
C2205 N2213 1.427 . S
C2206 H2197 0.930 . S
C2206 C2204 1.378 . S
C2206 C2207 1.367 . S
C2207 C2206 1.367 . S
C2207 C2209 1.433 . S
C2208 C2204 1.350 . S
C2208 C2205 1.463 . S
C2208 N2212 1.427 . S
C2209 H2199 0.929 . S
C2209 C2207 1.433 . S
C2209 N2212 1.384 . S
C2210 H2201 0.929 . S
C2210 C2202 1.378 . S
C2210 C2205 1.350 . S
C2211 H2198 0.929 . S
C2211 C2203 1.433 . S
C2211 N2213 1.384 . S
N2212 C2208 1.427 . S
N2212 C2209 1.384 . S
N2213 C2205 1.427 . S
N2213 C2211 1.384 . S
H2214 C2220 0.930 . S
H2215 C2224 0.930 . S
H2216 C2229 0.929 . S
H2217 C2227 0.929 . S
H2218 C2222 0.929 . S
H2219 C2228 0.929 . S
C2220 H2214 0.930 . S
C2220 C2221 1.367 . S
C2220 C2228 1.378 . S
C2221 C2220 1.367 . S
C2221 C2229 1.433 . S
C2222 H2218 0.929 . S
C2222 C2224 1.378 . S
C2222 C2226 1.350 . S
C2223 C2226 1.463 . S
C2223 C2228 1.350 . S
C2223 N2231 1.427 . S
C2224 H2215 0.930 . S
C2224 C2222 1.378 . S
C2224 C2225 1.367 . S
C2225 C2224 1.367 . S
C2225 C2227 1.433 . S
C2226 C2222 1.350 . S
C2226 C2223 1.463 . S
C2226 N2230 1.427 . S
C2227 H2217 0.929 . S
C2227 C2225 1.433 . S
C2227 N2230 1.384 . S
C2228 H2219 0.929 . S
C2228 C2220 1.378 . S
C2228 C2223 1.350 . S
C2229 H2216 0.929 . S
C2229 C2221 1.433 . S
C2229 N2231 1.384 . S
N2230 C2226 1.427 . S
N2230 C2227 1.384 . S
N2231 C2223 1.427 . S
N2231 C2229 1.384 . S
H2232 C2238 0.930 . S
H2233 C2242 0.930 . S
H2234 C2247 0.929 . S
H2235 C2245 0.929 . S
H2236 C2240 0.929 . S
H2237 C2246 0.929 . S
C2238 H2232 0.930 . S
C2238 C2239 1.367 . S
C2238 C2246 1.378 . S
C2239 C2238 1.367 . S
C2239 C2247 1.433 . S
C2240 H2236 0.929 . S
C2240 C2242 1.378 . S
C2240 C2244 1.350 . S
C2241 C2244 1.463 . S
C2241 C2246 1.350 . S
C2241 N2249 1.427 . S
C2242 H2233 0.930 . S
C2242 C2240 1.378 . S
C2242 C2243 1.367 . S
C2243 C2242 1.367 . S
C2243 C2245 1.433 . S
C2244 C2240 1.350 . S
C2244 C2241 1.463 . S
C2244 N2248 1.427 . S
C2245 H2235 0.929 . S
C2245 C2243 1.433 . S
C2245 N2248 1.384 . S
C2246 H2237 0.929 . S
C2246 C2238 1.378 . S
C2246 C2241 1.350 . S
C2247 H2234 0.929 . S
C2247 C2239 1.433 . S
C2247 N2249 1.384 . S
N2248 C2244 1.427 . S
N2248 C2245 1.384 . S
N2249 C2241 1.427 . S
N2249 C2247 1.384 . S
H2250 C2256 0.930 . S
H2251 C2260 0.930 . S
H2252 C2265 0.929 . S
H2253 C2263 0.929 . S
H2254 C2258 0.929 . S
H2255 C2264 0.929 . S
C2256 H2250 0.930 . S
C2256 C2257 1.367 . S
C2256 C2264 1.378 . S
C2257 C2256 1.367 . S
C2257 C2265 1.433 . S
C2258 H2254 0.929 . S
C2258 C2260 1.378 . S
C2258 C2262 1.350 . S
C2259 C2262 1.463 . S
C2259 C2264 1.350 . S
C2259 N2267 1.427 . S
C2260 H2251 0.930 . S
C2260 C2258 1.378 . S
C2260 C2261 1.367 . S
C2261 C2260 1.367 . S
C2261 C2263 1.433 . S
C2262 C2258 1.350 . S
C2262 C2259 1.463 . S
C2262 N2266 1.427 . S
C2263 H2253 0.929 . S
C2263 C2261 1.433 . S
C2263 N2266 1.384 . S
C2264 H2255 0.929 . S
C2264 C2256 1.378 . S
C2264 C2259 1.350 . S
C2265 H2252 0.929 . S
C2265 C2257 1.433 . S
C2265 N2267 1.384 . S
N2266 C2262 1.427 . S
N2266 C2263 1.384 . S
N2267 C2259 1.427 . S
N2267 C2265 1.384 . S
H2268 C2274 0.930 . S
H2269 C2278 0.930 . S
H2270 C2283 0.929 . S
H2271 C2281 0.929 . S
H2272 C2276 0.929 . S
H2273 C2282 0.929 . S
C2274 H2268 0.930 . S
C2274 C2275 1.367 . S
C2274 C2282 1.378 . S
C2275 C2274 1.367 . S
C2275 C2283 1.433 . S
C2276 H2272 0.929 . S
C2276 C2278 1.378 . S
C2276 C2280 1.350 . S
C2277 C2280 1.463 . S
C2277 C2282 1.350 . S
C2277 N2285 1.427 . S
C2278 H2269 0.930 . S
C2278 C2276 1.378 . S
C2278 C2279 1.367 . S
C2279 C2278 1.367 . S
C2279 C2281 1.433 . S
C2280 C2276 1.350 . S
C2280 C2277 1.463 . S
C2280 N2284 1.427 . S
C2281 H2271 0.929 . S
C2281 C2279 1.433 . S
C2281 N2284 1.384 . S
C2282 H2273 0.929 . S
C2282 C2274 1.378 . S
C2282 C2277 1.350 . S
C2283 H2270 0.929 . S
C2283 C2275 1.433 . S
C2283 N2285 1.384 . S
N2284 C2280 1.427 . S
N2284 C2281 1.384 . S
N2285 C2277 1.427 . S
N2285 C2283 1.384 . S
H2286 C2292 0.930 . S
H2287 C2296 0.930 . S
H2288 C2301 0.929 . S
H2289 C2299 0.929 . S
H2290 C2294 0.929 . S
H2291 C2300 0.929 . S
C2292 H2286 0.930 . S
C2292 C2293 1.367 . S
C2292 C2300 1.378 . S
C2293 C2292 1.367 . S
C2293 C2301 1.433 . S
C2294 H2290 0.929 . S
C2294 C2296 1.378 . S
C2294 C2298 1.350 . S
C2295 C2298 1.463 . S
C2295 C2300 1.350 . S
C2295 N2303 1.427 . S
C2296 H2287 0.930 . S
C2296 C2294 1.378 . S
C2296 C2297 1.367 . S
C2297 C2296 1.367 . S
C2297 C2299 1.433 . S
C2298 C2294 1.350 . S
C2298 C2295 1.463 . S
C2298 N2302 1.427 . S
C2299 H2289 0.929 . S
C2299 C2297 1.433 . S
C2299 N2302 1.384 . S
C2300 H2291 0.929 . S
C2300 C2292 1.378 . S
C2300 C2295 1.350 . S
C2301 H2288 0.929 . S
C2301 C2293 1.433 . S
C2301 N2303 1.384 . S
N2302 C2298 1.427 . S
N2302 C2299 1.384 . S
N2303 C2295 1.427 . S
N2303 C2301 1.384 . S
C1159 C219 1.467 . S
C1163 C3 1.466 . S
C1177 C39 1.466 . S
C1181 C255 1.464 . S
C1195 C147 1.466 . S
C1199 C75 1.464 . S
C1213 C111 1.466 . S
C1217 C183 1.468 . S
C1231 C507 1.465 . S
C1235 C291 1.464 . S
C1249 C543 1.464 . S
C1253 C327 1.465 . S
C1267 C363 1.465 . S
C1271 C435 1.467 . S
C1285 C399 1.468 . S
C1289 C471 1.467 . S
C1303 C579 1.464 . S
C1307 C795 1.465 . S
C1321 C615 1.466 . S
C1325 C831 1.468 . S
C1339 C723 1.465 . S
C1343 C651 1.466 . S
C1357 C759 1.465 . S
C1361 C687 1.464 . S
C1375 C867 1.464 . S
C1379 C1083 1.466 . S
C1393 C1119 1.467 . S
C1397 C903 1.467 . S
C1411 C1011 1.465 . S
C1415 C939 1.467 . S
C1429 C975 1.464 . S
C1433 C1047 1.466 . S
C1447 C2 1.239 . S
C1451 C1094 1.226 . S
C1465 C554 1.220 . S
C1469 C38 1.237 . S
C1483 C74 1.227 . S
C1487 C1022 1.217 . S
C1501 C110 1.236 . S
C1505 C482 1.227 . S
C1519 C950 1.225 . S
C1523 C146 1.234 . S
C1537 C410 1.211 . S
C1541 C182 1.227 . S
C1555 C218 1.233 . S
C1559 C878 1.215 . S
C1573 C338 1.227 . S
C1577 C254 1.239 . S
C1591 C290 1.238 . S
C1595 C806 1.228 . S
C1609 C266 1.214 . S
C1613 C326 1.232 . S
C1627 C362 1.227 . S
C1631 C734 1.217 . S
C1645 C398 1.230 . S
C1649 C194 1.222 . S
C1663 C662 1.227 . S
C1667 C434 1.239 . S
C1681 C470 1.238 . S
C1685 C122 1.222 . S
C1699 C506 1.233 . S
C1703 C590 1.225 . S
C1717 C50 1.212 . S
C1721 C542 1.230 . S
C1735 C578 1.226 . S
C1739 C518 1.211 . S
C1753 C614 1.228 . S
C1757 C1130 1.211 . S
C1771 C446 1.224 . S
C1775 C650 1.239 . S
C1789 C686 1.228 . S
C1793 C1058 1.211 . S
C1807 C374 1.225 . S
C1811 C722 1.233 . S
C1825 C986 1.211 . S
C1829 C758 1.226 . S
C1843 C302 1.212 . S
C1847 C794 1.230 . S
C1861 C914 1.211 . S
C1865 C830 1.227 . S
C1879 C866 1.232 . S
C1883 C230 1.224 . S
C1897 C842 1.214 . S
C1901 C902 1.232 . S
C1915 C158 1.227 . S
C1919 C938 1.239 . S
C1933 C974 1.226 . S
C1937 C770 1.214 . S
C1951 C1010 1.232 . S
C1955 C86 1.214 . S
C1969 C1046 1.237 . S
C1973 C698 1.220 . S
C1987 C14 1.222 . S
C1991 C1082 1.238 . S
C2005 C1118 1.226 . S
C2009 C626 1.211 . S
C2023 C4 1.342 . S
C2027 C760 1.340 . S
C2041 C796 1.342 . S
C2045 C40 1.340 . S
C2059 C76 1.343 . S
C2063 C832 1.339 . S
C2077 C724 1.343 . S
C2081 C112 1.346 . S
C2095 C688 1.340 . S
C2099 C148 1.345 . S
C2113 C580 1.346 . S
C2117 C184 1.344 . S
C2131 C616 1.346 . S
C2135 C220 1.342 . S
C2149 C652 1.342 . S
C2153 C256 1.346 . S
C2167 C292 1.344 . S
C2171 C1048 1.339 . S
C2185 C1084 1.341 . S
C2189 C328 1.341 . S
C2203 C1120 1.343 . S
C2207 C364 1.340 . S
C2221 C1012 1.340 . S
C2225 C400 1.344 . S
C2239 C976 1.345 . S
C2243 C436 1.345 . S
C2257 C868 1.340 . S
C2261 C472 1.343 . S
C2275 C508 1.346 . S
C2279 C904 1.342 . S
C2293 C544 1.341 . S
C2297 C940 1.341 . S
