# Generated by pormake.
# Topology wga, (5)-cn, num edge types: 1
# Building blocks:
#     Node 0, Type 0, BuildingBlock: XOMCOT_clean_sbu_1, # of connection points: 5
#     Node 1, Type 0, BuildingBlock: XOMCOT_clean_sbu_1, # of connection points: 5
#     Node 2, Type 0, BuildingBlock: XOMCOT_clean_sbu_1, # of connection points: 5
#     Node 3, Type 0, BuildingBlock: XOMCOT_clean_sbu_1, # of connection points: 5
#     Node 4, Type 0, BuildingBlock: XOMCOT_clean_sbu_1, # of connection points: 5
#     Node 5, Type 0, BuildingBlock: XOMCOT_clean_sbu_1, # of connection points: 5
#     Node 6, Type 0, BuildingBlock: XOMCOT_clean_sbu_1, # of connection points: 5
#     Node 7, Type 0, BuildingBlock: XOMCOT_clean_sbu_1, # of connection points: 5
#     Node 8, Type 0, BuildingBlock: XOMCOT_clean_sbu_1, # of connection points: 5
#     Node 9, Type 0, BuildingBlock: XOMCOT_clean_sbu_1, # of connection points: 5
#     Node 10, Type 0, BuildingBlock: XOMCOT_clean_sbu_1, # of connection points: 5
#     Node 11, Type 0, BuildingBlock: XOMCOT_clean_sbu_1, # of connection points: 5
#     Node 12, Type 0, BuildingBlock: XOMCOT_clean_sbu_1, # of connection points: 5
#     Node 13, Type 0, BuildingBlock: XOMCOT_clean_sbu_1, # of connection points: 5
#     Node 14, Type 0, BuildingBlock: XOMCOT_clean_sbu_1, # of connection points: 5
#     Node 15, Type 0, BuildingBlock: XOMCOT_clean_sbu_1, # of connection points: 5
#     Node 16, Type 0, BuildingBlock: XOMCOT_clean_sbu_1, # of connection points: 5
#     Node 17, Type 0, BuildingBlock: XOMCOT_clean_sbu_1, # of connection points: 5
#     Node 18, Type 0, BuildingBlock: XOMCOT_clean_sbu_1, # of connection points: 5
#     Node 19, Type 0, BuildingBlock: XOMCOT_clean_sbu_1, # of connection points: 5
#     Node 20, Type 0, BuildingBlock: XOMCOT_clean_sbu_1, # of connection points: 5
#     Node 21, Type 0, BuildingBlock: XOMCOT_clean_sbu_1, # of connection points: 5
#     Node 22, Type 0, BuildingBlock: XOMCOT_clean_sbu_1, # of connection points: 5
#     Node 23, Type 0, BuildingBlock: XOMCOT_clean_sbu_1, # of connection points: 5
#     Node 24, Type 0, BuildingBlock: XOMCOT_clean_sbu_1, # of connection points: 5
#     Node 25, Type 0, BuildingBlock: XOMCOT_clean_sbu_1, # of connection points: 5
#     Node 26, Type 0, BuildingBlock: XOMCOT_clean_sbu_1, # of connection points: 5
#     Node 27, Type 0, BuildingBlock: XOMCOT_clean_sbu_1, # of connection points: 5
#     Node 28, Type 0, BuildingBlock: XOMCOT_clean_sbu_1, # of connection points: 5
#     Node 29, Type 0, BuildingBlock: XOMCOT_clean_sbu_1, # of connection points: 5
#     Node 30, Type 0, BuildingBlock: XOMCOT_clean_sbu_1, # of connection points: 5
#     Node 31, Type 0, BuildingBlock: XOMCOT_clean_sbu_1, # of connection points: 5
#     Edge 32, Type (0, 0), BuildingBlock: CIFDUS_clean_linker_0, # of connection points: 2
#     Edge 33, Type (0, 0), BuildingBlock: CIFDUS_clean_linker_0, # of connection points: 2
#     Edge 34, Type (0, 0), BuildingBlock: CIFDUS_clean_linker_0, # of connection points: 2
#     Edge 35, Type (0, 0), BuildingBlock: CIFDUS_clean_linker_0, # of connection points: 2
#     Edge 36, Type (0, 0), BuildingBlock: CIFDUS_clean_linker_0, # of connection points: 2
#     Edge 37, Type (0, 0), BuildingBlock: CIFDUS_clean_linker_0, # of connection points: 2
#     Edge 38, Type (0, 0), BuildingBlock: CIFDUS_clean_linker_0, # of connection points: 2
#     Edge 39, Type (0, 0), BuildingBlock: CIFDUS_clean_linker_0, # of connection points: 2
#     Edge 40, Type (0, 0), BuildingBlock: CIFDUS_clean_linker_0, # of connection points: 2
#     Edge 41, Type (0, 0), BuildingBlock: CIFDUS_clean_linker_0, # of connection points: 2
#     Edge 42, Type (0, 0), BuildingBlock: CIFDUS_clean_linker_0, # of connection points: 2
#     Edge 43, Type (0, 0), BuildingBlock: CIFDUS_clean_linker_0, # of connection points: 2
#     Edge 44, Type (0, 0), BuildingBlock: CIFDUS_clean_linker_0, # of connection points: 2
#     Edge 45, Type (0, 0), BuildingBlock: CIFDUS_clean_linker_0, # of connection points: 2
#     Edge 46, Type (0, 0), BuildingBlock: CIFDUS_clean_linker_0, # of connection points: 2
#     Edge 47, Type (0, 0), BuildingBlock: CIFDUS_clean_linker_0, # of connection points: 2
#     Edge 48, Type (0, 0), BuildingBlock: CIFDUS_clean_linker_0, # of connection points: 2
#     Edge 49, Type (0, 0), BuildingBlock: CIFDUS_clean_linker_0, # of connection points: 2
#     Edge 50, Type (0, 0), BuildingBlock: CIFDUS_clean_linker_0, # of connection points: 2
#     Edge 51, Type (0, 0), BuildingBlock: CIFDUS_clean_linker_0, # of connection points: 2
#     Edge 52, Type (0, 0), BuildingBlock: CIFDUS_clean_linker_0, # of connection points: 2
#     Edge 53, Type (0, 0), BuildingBlock: CIFDUS_clean_linker_0, # of connection points: 2
#     Edge 54, Type (0, 0), BuildingBlock: CIFDUS_clean_linker_0, # of connection points: 2
#     Edge 55, Type (0, 0), BuildingBlock: CIFDUS_clean_linker_0, # of connection points: 2
#     Edge 56, Type (0, 0), BuildingBlock: CIFDUS_clean_linker_0, # of connection points: 2
#     Edge 57, Type (0, 0), BuildingBlock: CIFDUS_clean_linker_0, # of connection points: 2
#     Edge 58, Type (0, 0), BuildingBlock: CIFDUS_clean_linker_0, # of connection points: 2
#     Edge 59, Type (0, 0), BuildingBlock: CIFDUS_clean_linker_0, # of connection points: 2
#     Edge 60, Type (0, 0), BuildingBlock: CIFDUS_clean_linker_0, # of connection points: 2
#     Edge 61, Type (0, 0), BuildingBlock: CIFDUS_clean_linker_0, # of connection points: 2
#     Edge 62, Type (0, 0), BuildingBlock: CIFDUS_clean_linker_0, # of connection points: 2
#     Edge 63, Type (0, 0), BuildingBlock: CIFDUS_clean_linker_0, # of connection points: 2
#     Edge 64, Type (0, 0), BuildingBlock: CIFDUS_clean_linker_0, # of connection points: 2
#     Edge 65, Type (0, 0), BuildingBlock: CIFDUS_clean_linker_0, # of connection points: 2
#     Edge 66, Type (0, 0), BuildingBlock: CIFDUS_clean_linker_0, # of connection points: 2
#     Edge 67, Type (0, 0), BuildingBlock: CIFDUS_clean_linker_0, # of connection points: 2
#     Edge 68, Type (0, 0), BuildingBlock: CIFDUS_clean_linker_0, # of connection points: 2
#     Edge 69, Type (0, 0), BuildingBlock: CIFDUS_clean_linker_0, # of connection points: 2
#     Edge 70, Type (0, 0), BuildingBlock: CIFDUS_clean_linker_0, # of connection points: 2
#     Edge 71, Type (0, 0), BuildingBlock: CIFDUS_clean_linker_0, # of connection points: 2
#     Edge 72, Type (0, 0), BuildingBlock: CIFDUS_clean_linker_0, # of connection points: 2
#     Edge 73, Type (0, 0), BuildingBlock: CIFDUS_clean_linker_0, # of connection points: 2
#     Edge 74, Type (0, 0), BuildingBlock: CIFDUS_clean_linker_0, # of connection points: 2
#     Edge 75, Type (0, 0), BuildingBlock: CIFDUS_clean_linker_0, # of connection points: 2
#     Edge 76, Type (0, 0), BuildingBlock: CIFDUS_clean_linker_0, # of connection points: 2
#     Edge 77, Type (0, 0), BuildingBlock: CIFDUS_clean_linker_0, # of connection points: 2
#     Edge 78, Type (0, 0), BuildingBlock: CIFDUS_clean_linker_0, # of connection points: 2
#     Edge 79, Type (0, 0), BuildingBlock: CIFDUS_clean_linker_0, # of connection points: 2
#     Edge 80, Type (0, 0), BuildingBlock: CIFDUS_clean_linker_0, # of connection points: 2
#     Edge 81, Type (0, 0), BuildingBlock: CIFDUS_clean_linker_0, # of connection points: 2
#     Edge 82, Type (0, 0), BuildingBlock: CIFDUS_clean_linker_0, # of connection points: 2
#     Edge 83, Type (0, 0), BuildingBlock: CIFDUS_clean_linker_0, # of connection points: 2
#     Edge 84, Type (0, 0), BuildingBlock: CIFDUS_clean_linker_0, # of connection points: 2
#     Edge 85, Type (0, 0), BuildingBlock: CIFDUS_clean_linker_0, # of connection points: 2
#     Edge 86, Type (0, 0), BuildingBlock: CIFDUS_clean_linker_0, # of connection points: 2
#     Edge 87, Type (0, 0), BuildingBlock: CIFDUS_clean_linker_0, # of connection points: 2
#     Edge 88, Type (0, 0), BuildingBlock: CIFDUS_clean_linker_0, # of connection points: 2
#     Edge 89, Type (0, 0), BuildingBlock: CIFDUS_clean_linker_0, # of connection points: 2
#     Edge 90, Type (0, 0), BuildingBlock: CIFDUS_clean_linker_0, # of connection points: 2
#     Edge 91, Type (0, 0), BuildingBlock: CIFDUS_clean_linker_0, # of connection points: 2
#     Edge 92, Type (0, 0), BuildingBlock: CIFDUS_clean_linker_0, # of connection points: 2
#     Edge 93, Type (0, 0), BuildingBlock: CIFDUS_clean_linker_0, # of connection points: 2
#     Edge 94, Type (0, 0), BuildingBlock: CIFDUS_clean_linker_0, # of connection points: 2
#     Edge 95, Type (0, 0), BuildingBlock: CIFDUS_clean_linker_0, # of connection points: 2
#     Edge 96, Type (0, 0), BuildingBlock: CIFDUS_clean_linker_0, # of connection points: 2
#     Edge 97, Type (0, 0), BuildingBlock: CIFDUS_clean_linker_0, # of connection points: 2
#     Edge 98, Type (0, 0), BuildingBlock: CIFDUS_clean_linker_0, # of connection points: 2
#     Edge 99, Type (0, 0), BuildingBlock: CIFDUS_clean_linker_0, # of connection points: 2
#     Edge 100, Type (0, 0), BuildingBlock: CIFDUS_clean_linker_0, # of connection points: 2
#     Edge 101, Type (0, 0), BuildingBlock: CIFDUS_clean_linker_0, # of connection points: 2
#     Edge 102, Type (0, 0), BuildingBlock: CIFDUS_clean_linker_0, # of connection points: 2
#     Edge 103, Type (0, 0), BuildingBlock: CIFDUS_clean_linker_0, # of connection points: 2
#     Edge 104, Type (0, 0), BuildingBlock: CIFDUS_clean_linker_0, # of connection points: 2
#     Edge 105, Type (0, 0), BuildingBlock: CIFDUS_clean_linker_0, # of connection points: 2
#     Edge 106, Type (0, 0), BuildingBlock: CIFDUS_clean_linker_0, # of connection points: 2
#     Edge 107, Type (0, 0), BuildingBlock: CIFDUS_clean_linker_0, # of connection points: 2
#     Edge 108, Type (0, 0), BuildingBlock: CIFDUS_clean_linker_0, # of connection points: 2
#     Edge 109, Type (0, 0), BuildingBlock: CIFDUS_clean_linker_0, # of connection points: 2
#     Edge 110, Type (0, 0), BuildingBlock: CIFDUS_clean_linker_0, # of connection points: 2
#     Edge 111, Type (0, 0), BuildingBlock: CIFDUS_clean_linker_0, # of connection points: 2
# Relax obj value: 0.098
# Max RMSD: 0.108
# Mean RMSD: 0.108
data_MOF--net-wga--node1-XOMCOT_clean_sbu_1--edge1-CIFDUS_clean_linker_0
_symmetry_space_group_name_H-M    P1
_symmetry_Int_Tables_number       1
_symmetry_cell_setting            triclinic
loop_
_symmetry_equiv_pos_as_xyz
'x, y, z'
_cell_length_a     96.727103
_cell_length_b     96.73517
_cell_length_c     15.895787
_cell_angle_alpha  89.97639
_cell_angle_beta   90.021297
_cell_angle_gamma 90.009128
loop_
_atom_site_label
_atom_site_type_symbol
_atom_site_fract_x
_atom_site_fract_y
_atom_site_fract_z
_atom_type_partial_charge
C0 C 0.07921 0.58068 0.95065 0.0
C1 C 0.07962 0.58121 0.86414 0.0
N2 N 0.08733 0.57055 0.83616 0.0
N3 N 0.08665 0.56976 0.97755 0.0
C4 C 0.09155 0.56387 0.90642 0.0
H5 H 0.07331 0.58743 0.99123 0.0
Co6 Co 0.08734 0.56364 0.08915 0.0
C7 C 0.10466 0.53852 0.07785 0.0
O8 O 0.11197 0.54228 0.14363 0.0
N9 N 0.08765 0.55757 0.20185 0.0
C10 C 0.08436 0.54489 0.3169 0.0
C11 C 0.08402 0.54494 0.23042 0.0
C12 C 0.08992 0.56507 0.27237 0.0
N13 N 0.08804 0.5576 0.34345 0.0
O14 O 0.10555 0.57152 0.10155 0.0
H15 H 0.08089 0.53639 0.1909 0.0
H16 H 0.09261 0.5759 0.27185 0.0
O17 O 0.09475 0.54606 0.05172 0.0
C18 C 0.10369 0.58413 0.12192 0.0
O19 O 0.09091 0.5887 0.12633 0.0
N20 N 0.06922 0.55732 0.07921 0.0
C21 C 0.04086 0.55241 0.07069 0.0
C22 C 0.05021 0.54375 0.02815 0.0
C23 C 0.06445 0.54647 0.03259 0.0
C24 C 0.06031 0.56569 0.12145 0.0
C25 C 0.04614 0.56339 0.11846 0.0
H26 H 0.07153 0.54005 0.99743 0.0
H27 H 0.06431 0.57433 0.15712 0.0
H28 H 0.09781 0.55463 0.90589 0.0
H29 H 0.07403 0.58846 0.825 0.0
H30 H 0.0815 0.53631 0.35696 0.0
H31 H 0.04653 0.53523 0.99006 0.0
H32 H 0.03935 0.57021 0.15329 0.0
C33 C 0.66862 0.82717 0.26411 0.0
C34 C 0.66749 0.82786 0.17803 0.0
N35 N 0.67547 0.8383 0.15001 0.0
N36 N 0.67749 0.83696 0.29162 0.0
C37 C 0.68107 0.84388 0.22045 0.0
H38 H 0.66297 0.82003 0.30316 0.0
Co39 Co 0.68285 0.84121 0.40462 0.0
C40 C 0.70933 0.83977 0.3112 0.0
O41 O 0.70462 0.82865 0.27312 0.0
N42 N 0.68764 0.84568 0.51527 0.0
C43 C 0.69697 0.85526 0.629 0.0
C44 C 0.69706 0.85495 0.54229 0.0
C45 C 0.68189 0.84059 0.58637 0.0
N46 N 0.68743 0.84618 0.65685 0.0
O47 O 0.67681 0.85989 0.387 0.0
H48 H 0.70353 0.86116 0.50168 0.0
H49 H 0.67364 0.83305 0.58619 0.0
O50 O 0.70177 0.84586 0.3661 0.0
C51 C 0.66371 0.86008 0.39493 0.0
O52 O 0.65732 0.84843 0.41204 0.0
N53 N 0.68755 0.82256 0.42723 0.0
C54 C 0.69063 0.79449 0.46299 0.0
C55 C 0.70226 0.803 0.45411 0.0
C56 C 0.70048 0.81717 0.43962 0.0
C57 C 0.67623 0.8146 0.44345 0.0
C58 C 0.6775 0.80051 0.46036 0.0
H59 H 0.70951 0.82369 0.43939 0.0
H60 H 0.66608 0.81928 0.44347 0.0
H61 H 0.68799 0.85266 0.22039 0.0
H62 H 0.66108 0.82125 0.13944 0.0
H63 H 0.7036 0.86154 0.66834 0.0
H64 H 0.71259 0.79877 0.45989 0.0
H65 H 0.66829 0.79434 0.46986 0.0
C66 C 0.41949 0.41101 0.46938 0.0
C67 C 0.41784 0.4095 0.38406 0.0
N68 N 0.40682 0.41698 0.35963 0.0
N69 N 0.40978 0.41969 0.49981 0.0
C70 C 0.40178 0.42255 0.43167 0.0
H71 H 0.42754 0.40616 0.5058 0.0
Co72 Co 0.40823 0.42603 0.61349 0.0
C73 C 0.40496 0.45188 0.51103 0.0
O74 O 0.4143 0.44739 0.45759 0.0
N75 N 0.40667 0.43166 0.72662 0.0
C76 C 0.40632 0.44406 0.84449 0.0
C77 C 0.40735 0.44458 0.75818 0.0
C78 C 0.40543 0.42345 0.79535 0.0
N79 N 0.4051 0.43074 0.86814 0.0
O80 O 0.38956 0.41923 0.61644 0.0
H81 H 0.40903 0.45379 0.72146 0.0
H82 H 0.40492 0.4123 0.79213 0.0
O83 O 0.40186 0.44458 0.57572 0.0
C84 C 0.39052 0.40647 0.63549 0.0
O85 O 0.40295 0.40109 0.64285 0.0
N86 N 0.42704 0.43136 0.61555 0.0
C87 C 0.45582 0.43398 0.61488 0.0
C88 C 0.44734 0.4456 0.60307 0.0
C89 C 0.43292 0.44412 0.60561 0.0
C90 C 0.43514 0.42038 0.63652 0.0
C91 C 0.4495 0.42137 0.63526 0.0
H92 H 0.42671 0.4533 0.59991 0.0
H93 H 0.43035 0.41058 0.65162 0.0
H94 H 0.3928 0.4292 0.43421 0.0
H95 H 0.42476 0.40392 0.34271 0.0
H96 H 0.40701 0.45282 0.88664 0.0
H97 H 0.45174 0.45567 0.59022 0.0
H98 H 0.45559 0.41227 0.64933 0.0
C99 C 0.82867 0.17164 0.74682 0.0
C100 C 0.82932 0.17089 0.66048 0.0
N101 N 0.82078 0.16078 0.63436 0.0
N102 N 0.81951 0.16225 0.77614 0.0
C103 C 0.81538 0.15542 0.70584 0.0
H104 H 0.8346 0.17875 0.78448 0.0
Co105 Co 0.81363 0.15864 0.88874 0.0
C106 C 0.78737 0.16041 0.79192 0.0
O107 O 0.79218 0.17138 0.75285 0.0
N108 N 0.80819 0.15474 0.99951 0.0
C109 C 0.79882 0.14497 0.11247 0.0
C110 C 0.79862 0.14558 0.02587 0.0
C111 C 0.81405 0.15956 0.071 0.0
N112 N 0.8086 0.15374 0.14112 0.0
O113 O 0.81888 0.13968 0.87238 0.0
H114 H 0.79227 0.13933 0.9848 0.0
H115 H 0.82241 0.16698 0.07103 0.0
O116 O 0.79471 0.15451 0.84864 0.0
C117 C 0.82925 0.13543 0.91456 0.0
O118 O 0.83502 0.14375 0.96961 0.0
N119 N 0.80954 0.17748 0.9081 0.0
C120 C 0.80715 0.20605 0.92878 0.0
C121 C 0.79532 0.19763 0.92665 0.0
C122 C 0.79676 0.18328 0.91861 0.0
C123 C 0.82104 0.1853 0.92119 0.0
C124 C 0.82014 0.19961 0.92972 0.0
H125 H 0.78759 0.17695 0.9203 0.0
H126 H 0.83107 0.18037 0.92371 0.0
H127 H 0.80822 0.14683 0.70701 0.0
H128 H 0.83526 0.17766 0.62009 0.0
H129 H 0.79262 0.13813 0.15087 0.0
H130 H 0.78506 0.20207 0.9292 0.0
H131 H 0.82955 0.20558 0.93658 0.0
C132 C 0.07637 0.41725 0.07379 0.0
C133 C 0.07685 0.41666 0.16029 0.0
N134 N 0.08517 0.42686 0.18812 0.0
N135 N 0.08435 0.42777 0.04676 0.0
C136 C 0.0897 0.43332 0.11777 0.0
H137 H 0.07008 0.41084 0.03328 0.0
Co138 Co 0.08527 0.43391 0.93513 0.0
C139 C 0.10242 0.45917 0.94843 0.0
O140 O 0.10998 0.45537 0.88379 0.0
N141 N 0.08584 0.43997 0.82239 0.0
C142 C 0.08277 0.45261 0.70694 0.0
C143 C 0.08234 0.45262 0.79342 0.0
C144 C 0.08811 0.43241 0.75207 0.0
N145 N 0.08636 0.43986 0.68077 0.0
O146 O 0.10355 0.42613 0.92458 0.0
H147 H 0.0792 0.46119 0.83263 0.0
H148 H 0.09067 0.42155 0.75292 0.0
O149 O 0.09248 0.45156 0.97351 0.0
C150 C 0.10172 0.41349 0.90482 0.0
O151 O 0.08894 0.40894 0.89954 0.0
N152 N 0.06708 0.44009 0.9433 0.0
C153 C 0.03863 0.44448 0.95179 0.0
C154 C 0.0478 0.45305 0.99648 0.0
C155 C 0.06209 0.4506 0.99197 0.0
C156 C 0.05835 0.43187 0.89868 0.0
C157 C 0.04414 0.43392 0.90156 0.0
H158 H 0.06904 0.45687 0.02911 0.0
H159 H 0.0625 0.42346 0.86159 0.0
H160 H 0.09653 0.44212 0.11814 0.0
H161 H 0.0709 0.40972 0.1996 0.0
H162 H 0.07999 0.46119 0.66658 0.0
H163 H 0.04395 0.46124 0.03653 0.0
H164 H 0.03749 0.42719 0.86507 0.0
C165 C 0.83508 0.83957 0.25509 0.0
C166 C 0.83599 0.83874 0.34145 0.0
N167 N 0.82325 0.83631 0.37255 0.0
N168 N 0.82183 0.83775 0.23142 0.0
C169 C 0.8149 0.83571 0.30429 0.0
H170 H 0.84357 0.84128 0.21215 0.0
Co171 Co 0.81564 0.83776 0.1199 0.0
C172 C 0.78923 0.849 0.1926 0.0
O173 O 0.79475 0.86066 0.21853 0.0
N174 N 0.8096 0.8377 1.00678 0.0
C175 C 0.79673 0.838 0.89053 0.0
C176 C 0.79652 0.83832 0.97693 0.0
C177 C 0.81754 0.83693 0.93674 0.0
N178 N 0.80997 0.83716 0.86518 0.0
O179 O 0.81827 0.85741 0.1153 0.0
H180 H 0.78728 0.83907 1.01466 0.0
H181 H 0.82867 0.836 0.93796 0.0
O182 O 0.79669 0.83994 0.15615 0.0
C183 C 0.82967 0.86086 0.08119 0.0
O184 O 0.83793 0.85115 0.05308 0.0
N185 N 0.81413 0.81849 0.1236 0.0
C186 C 0.8162 0.7897 0.13253 0.0
C187 C 0.80541 0.79674 0.17343 0.0
C188 C 0.80455 0.81115 0.16822 0.0
C189 C 0.82459 0.81186 0.08299 0.0
C190 C 0.82574 0.79749 0.08577 0.0
H191 H 0.79646 0.81631 0.20269 0.0
H192 H 0.83229 0.81783 0.04957 0.0
H193 H 0.80391 0.83385 0.30741 0.0
H194 H 0.84538 0.83964 0.37804 0.0
H195 H 0.78782 0.83866 0.84954 0.0
H196 H 0.79795 0.79124 0.21164 0.0
H197 H 0.83413 0.79258 0.05211 0.0
C198 C 0.41478 0.5773 0.48145 0.0
C199 C 0.41349 0.57798 0.56756 0.0
N200 N 0.40743 0.56624 0.59481 0.0
N201 N 0.40963 0.56517 0.45413 0.0
C202 C 0.40502 0.55875 0.5243 0.0
H203 H 0.41968 0.58491 0.44145 0.0
Co204 Co 0.41037 0.55916 0.34246 0.0
C205 C 0.41229 0.52861 0.38824 0.0
O206 O 0.42563 0.5278 0.37482 0.0
N207 N 0.41078 0.55339 0.22829 0.0
C208 C 0.41479 0.54173 0.11001 0.0
C209 C 0.41596 0.54156 0.19591 0.0
C210 C 0.40661 0.56063 0.15971 0.0
N211 N 0.40889 0.55374 0.08684 0.0
O212 O 0.39101 0.56304 0.33266 0.0
H213 H 0.42092 0.53349 0.23089 0.0
H214 H 0.40221 0.57088 0.16295 0.0
O215 O 0.40575 0.53995 0.3766 0.0
C216 C 0.3888 0.57576 0.31707 0.0
O217 O 0.39942 0.58406 0.30708 0.0
N218 N 0.42987 0.55678 0.35253 0.0
C219 C 0.45883 0.55671 0.36437 0.0
C220 C 0.45063 0.55153 0.43003 0.0
C221 C 0.43622 0.55202 0.42388 0.0
C222 C 0.43769 0.56255 0.29024 0.0
C223 C 0.45211 0.56247 0.29435 0.0
H224 H 0.43017 0.5482 0.47605 0.0
H225 H 0.43278 0.5676 0.23749 0.0
H226 H 0.40035 0.54861 0.52385 0.0
H227 H 0.41741 0.58619 0.60711 0.0
H228 H 0.41861 0.53384 0.06776 0.0
H229 H 0.45523 0.54705 0.48577 0.0
H230 H 0.45789 0.56724 0.24379 0.0
C231 C 0.6657 0.16515 0.71848 0.0
C232 C 0.66538 0.16525 0.80483 0.0
N233 N 0.6785 0.16496 0.83358 0.0
N234 N 0.67893 0.16467 0.69225 0.0
C235 C 0.68647 0.16472 0.76379 0.0
H236 H 0.6568 0.16595 0.67776 0.0
Co237 Co 0.68456 0.16597 0.58049 0.0
C238 C 0.70946 0.15023 0.64216 0.0
O239 O 0.70243 0.13993 0.67494 0.0
N240 N 0.6902 0.16761 0.46804 0.0
C241 C 0.70225 0.17389 0.35532 0.0
C242 C 0.70195 0.17374 0.44161 0.0
C243 C 0.68355 0.16411 0.39636 0.0
N244 N 0.69064 0.16781 0.32657 0.0
O245 O 0.67886 0.14707 0.56193 0.0
H246 H 0.70965 0.17826 0.48245 0.0
H247 H 0.67364 0.15907 0.39504 0.0
O248 O 0.70318 0.16029 0.60733 0.0
C249 C 0.6663 0.14685 0.5376 0.0
O250 O 0.65986 0.15871 0.52752 0.0
N251 N 0.6889 0.18458 0.59806 0.0
C252 C 0.69171 0.21308 0.61852 0.0
C253 C 0.70175 0.20399 0.6504 0.0
C254 C 0.70012 0.18971 0.64003 0.0
C255 C 0.67909 0.19322 0.5666 0.0
C256 C 0.68029 0.2075 0.57588 0.0
H257 H 0.70781 0.18289 0.66644 0.0
H258 H 0.67024 0.18894 0.53415 0.0
H259 H 0.69761 0.16499 0.76463 0.0
H260 H 0.65615 0.16605 0.84289 0.0
H261 H 0.71026 0.17857 0.31732 0.0
H262 H 0.71063 0.20786 0.68456 0.0
H263 H 0.67238 0.21412 0.54938 0.0
C264 C 0.91218 0.41544 0.04306 0.0
C265 C 0.91167 0.41496 0.12957 0.0
N266 N 0.9075 0.42742 0.1581 0.0
N267 N 0.90837 0.42811 0.01694 0.0
C268 C 0.90548 0.43514 0.08821 0.0
H269 H 0.91555 0.40722 1.00177 0.0
Co270 Co 0.90874 0.43393 0.90561 0.0
C271 C 0.89529 0.46099 0.90875 0.0
O272 O 0.88751 0.45715 0.84518 0.0
N273 N 0.90943 0.4396 0.79245 0.0
C274 C 0.91523 0.45133 0.67746 0.0
C275 C 0.91563 0.45118 0.76376 0.0
C276 C 0.90549 0.43279 0.72208 0.0
N277 N 0.90886 0.43973 0.65098 0.0
O278 O 0.88948 0.42947 0.89719 0.0
H279 H 0.92051 0.45888 0.80317 0.0
H280 H 0.90048 0.42283 0.7227 0.0
O281 O 0.90421 0.45269 0.93943 0.0
C282 C 0.88673 0.41708 0.87592 0.0
O283 O 0.89692 0.40878 0.85539 0.0
N284 N 0.92769 0.43726 0.91561 0.0
C285 C 0.95637 0.43777 0.93361 0.0
C286 C 0.94808 0.44757 0.97486 0.0
C287 C 0.93368 0.44707 0.96558 0.0
C288 C 0.93559 0.42786 0.87391 0.0
C289 C 0.94993 0.42797 0.88158 0.0
H290 H 0.92739 0.45426 1.0007 0.0
H291 H 0.93064 0.42002 0.83579 0.0
H292 H 0.90216 0.44579 0.08897 0.0
H293 H 0.91471 0.40627 0.16824 0.0
H294 H 0.91983 0.45913 0.63749 0.0
H295 H 0.95263 0.45518 1.01641 0.0
H296 H 0.95593 0.42032 0.84781 0.0
C297 C 0.33127 0.16401 0.79329 0.0
C298 C 0.33154 0.16426 0.87978 0.0
N299 N 0.31975 0.15849 0.90865 0.0
N300 N 0.31939 0.15815 0.76769 0.0
C301 C 0.31258 0.15489 0.83902 0.0
H302 H 0.33936 0.16755 0.75152 0.0
Co303 Co 0.31512 0.15453 0.65693 0.0
C304 C 0.28493 0.1504 0.64935 0.0
O305 O 0.28496 0.15751 0.57885 0.0
N306 N 0.31123 0.15046 0.54294 0.0
C307 C 0.3058 0.13799 0.42993 0.0
C308 C 0.30601 0.13826 0.51623 0.0
C309 C 0.31422 0.15734 0.4711 0.0
N310 N 0.311 0.15002 0.40141 0.0
O311 O 0.3222 0.13609 0.67223 0.0
H312 H 0.3029 0.12989 0.55719 0.0
H313 H 0.31895 0.1674 0.46913 0.0
O314 O 0.29635 0.14835 0.68836 0.0
C315 C 0.33316 0.13278 0.63248 0.0
O316 O 0.33846 0.14153 0.57812 0.0
N317 N 0.30943 0.17316 0.64556 0.0
C318 C 0.30546 0.20185 0.64153 0.0
C319 C 0.29616 0.19322 0.68431 0.0
C320 C 0.29852 0.17897 0.68741 0.0
C321 C 0.31898 0.18149 0.6081 0.0
C322 C 0.31703 0.19577 0.60329 0.0
H323 H 0.29193 0.17283 0.72733 0.0
H324 H 0.32843 0.17705 0.58387 0.0
H325 H 0.30261 0.14985 0.83982 0.0
H326 H 0.34001 0.16797 0.91802 0.0
H327 H 0.30258 0.12933 0.39155 0.0
H328 H 0.28748 0.1975 0.71856 0.0
H329 H 0.32468 0.20199 0.57099 0.0
C330 C 0.57884 0.58728 0.59725 0.0
C331 C 0.5793 0.58788 0.68391 0.0
N332 N 0.58698 0.5772 0.71218 0.0
N333 N 0.58614 0.57625 0.57079 0.0
C334 C 0.59113 0.57047 0.64204 0.0
H335 H 0.57311 0.59411 0.5562 0.0
Co336 Co 0.58739 0.57003 0.45967 0.0
C337 C 0.60205 0.54349 0.47891 0.0
O338 O 0.61056 0.54678 0.41774 0.0
N339 N 0.58843 0.56394 0.34689 0.0
C340 C 0.58484 0.55155 0.23098 0.0
C341 C 0.5843 0.55151 0.31738 0.0
C342 C 0.59119 0.57141 0.27678 0.0
N343 N 0.58912 0.56411 0.20516 0.0
O344 O 0.60642 0.57538 0.4585 0.0
H345 H 0.58046 0.54315 0.35602 0.0
H346 H 0.59416 0.58216 0.27794 0.0
O347 O 0.59235 0.55171 0.50006 0.0
C348 C 0.60876 0.58774 0.43525 0.0
O349 O 0.59836 0.59556 0.41166 0.0
N350 N 0.56856 0.56565 0.46118 0.0
C351 C 0.54003 0.56168 0.4575 0.0
C352 C 0.54828 0.55448 0.51545 0.0
C353 C 0.5626 0.55658 0.51615 0.0
C354 C 0.56065 0.57299 0.40603 0.0
C355 C 0.54639 0.57101 0.40226 0.0
H356 H 0.56883 0.55113 0.56184 0.0
H357 H 0.56547 0.58048 0.36487 0.0
H358 H 0.59755 0.56135 0.64262 0.0
H359 H 0.57385 0.59524 0.72298 0.0
H360 H 0.58153 0.5432 0.19038 0.0
H361 H 0.5437 0.54726 0.55952 0.0
H362 H 0.54034 0.57698 0.35784 0.0
C363 C 0.15888 0.83027 0.34657 0.0
C364 C 0.15833 0.83081 0.43315 0.0
N365 N 0.1699 0.83706 0.4614 0.0
N366 N 0.17074 0.83612 0.32008 0.0
C367 C 0.17713 0.84033 0.39129 0.0
H368 H 0.15139 0.82541 0.3056 0.0
Co369 Co 0.17694 0.83625 0.20879 0.0
C370 C 0.20462 0.84878 0.22279 0.0
O371 O 0.20185 0.85713 0.15983 0.0
N372 N 0.18297 0.83607 0.09595 0.0
C373 C 0.19486 0.83093 0.98036 0.0
C374 C 0.19483 0.83048 0.06679 0.0
C375 C 0.17588 0.83963 0.02572 0.0
N376 N 0.18291 0.83665 0.95431 0.0
O377 O 0.17293 0.85564 0.20207 0.0
H378 H 0.20273 0.82585 0.10581 0.0
H379 H 0.16561 0.84397 0.02668 0.0
O380 O 0.19563 0.84002 0.24738 0.0
C381 C 0.16044 0.85767 0.18005 0.0
O382 O 0.15251 0.8469 0.16555 0.0
N383 N 0.17975 0.81719 0.21461 0.0
C384 C 0.18016 0.78836 0.21707 0.0
C385 C 0.18975 0.796 0.26453 0.0
C386 C 0.18931 0.81049 0.26297 0.0
C387 C 0.17042 0.80995 0.16817 0.0
C388 C 0.17048 0.79556 0.168 0.0
H389 H 0.19644 0.81625 0.30183 0.0
H390 H 0.16278 0.81545 0.13137 0.0
H391 H 0.187 0.8455 0.39192 0.0
H392 H 0.15035 0.82631 0.47218 0.0
H393 H 0.20281 0.8267 0.93994 0.0
H394 H 0.19726 0.79085 0.30419 0.0
H395 H 0.163 0.79012 0.12963 0.0
C396 C 0.91431 0.57998 0.99455 0.0
C397 C 0.9138 0.58043 0.90807 0.0
N398 N 0.90984 0.56791 0.87956 0.0
N399 N 0.91068 0.56726 0.02074 0.0
C400 C 0.90794 0.56017 0.94949 0.0
H401 H 0.91758 0.58826 0.03576 0.0
Co402 Co 0.91125 0.56147 0.13211 0.0
C403 C 0.89724 0.53472 0.13107 0.0
O404 O 0.8898 0.53878 0.19561 0.0
N405 N 0.91216 0.55583 0.24521 0.0
C406 C 0.91799 0.54406 0.36002 0.0
C407 C 0.91834 0.54422 0.27369 0.0
C408 C 0.90827 0.56262 0.31568 0.0
N409 N 0.91165 0.55566 0.38667 0.0
O410 O 0.89213 0.56633 0.14264 0.0
H411 H 0.92313 0.53649 0.23411 0.0
H412 H 0.90323 0.57257 0.31519 0.0
O413 O 0.90625 0.54279 0.09901 0.0
C414 C 0.88993 0.57883 0.16356 0.0
O415 O 0.90052 0.58681 0.18147 0.0
N416 N 0.93009 0.55784 0.12022 0.0
C417 C 0.95865 0.55743 0.09717 0.0
C418 C 0.95023 0.54741 0.05893 0.0
C419 C 0.93588 0.54786 0.07068 0.0
C420 C 0.93813 0.5674 0.15949 0.0
C421 C 0.95242 0.56734 0.14923 0.0
H422 H 0.92945 0.54052 0.03761 0.0
H423 H 0.93332 0.57535 0.19729 0.0
H424 H 0.90486 0.54944 0.94876 0.0
H425 H 0.91674 0.58916 0.86941 0.0
H426 H 0.92256 0.53622 0.39987 0.0
H427 H 0.95463 0.53967 0.01759 0.0
H428 H 0.95854 0.57517 0.18072 0.0
C429 C 0.16325 0.17242 0.72084 0.0
C430 C 0.16092 0.1726 0.63543 0.0
N431 N 0.17088 0.16523 0.59631 0.0
N432 N 0.17468 0.16499 0.7378 0.0
C433 C 0.17913 0.16071 0.66043 0.0
H434 H 0.15713 0.17767 0.76792 0.0
Co435 Co 0.18164 0.16331 0.85049 0.0
C436 C 0.2076 0.14755 0.82051 0.0
O437 O 0.20506 0.13871 0.88134 0.0
N438 N 0.18857 0.16198 0.96459 0.0
C439 C 0.20326 0.1649 0.07135 0.0
C440 C 0.20158 0.16563 0.98573 0.0
C441 C 0.18243 0.15933 0.04052 0.0
N442 N 0.19126 0.16091 0.107 0.0
O443 O 0.17501 0.14466 0.85438 0.0
H444 H 0.20934 0.16915 0.9417 0.0
H445 H 0.17166 0.15652 0.04704 0.0
O446 O 0.19913 0.15732 0.80512 0.0
C447 C 0.16224 0.14452 0.87344 0.0
O448 O 0.15626 0.15627 0.89324 0.0
N449 N 0.18714 0.18184 0.84688 0.0
C450 C 0.19173 0.21032 0.8449 0.0
C451 C 0.19944 0.2015 0.79278 0.0
C452 C 0.19689 0.18724 0.79411 0.0
C453 C 0.17965 0.19022 0.89828 0.0
C454 C 0.18181 0.20447 0.89864 0.0
H455 H 0.20251 0.18067 0.75118 0.0
H456 H 0.17179 0.18579 0.93849 0.0
H457 H 0.18823 0.15441 0.65126 0.0
H458 H 0.15265 0.17817 0.60466 0.0
H459 H 0.21258 0.16767 0.10503 0.0
H460 H 0.20703 0.20562 0.74946 0.0
H461 H 0.17571 0.21086 0.94046 0.0
C462 C 0.58725 0.41908 0.50239 0.0
C463 C 0.58682 0.41867 0.4158 0.0
N464 N 0.58465 0.4316 0.38708 0.0
N465 N 0.58551 0.43223 0.52851 0.0
C466 C 0.58381 0.43957 0.45673 0.0
H467 H 0.58859 0.41028 0.54337 0.0
Co468 Co 0.58516 0.43859 0.63991 0.0
C469 C 0.60041 0.46483 0.625 0.0
O470 O 0.60809 0.46167 0.69041 0.0
N471 N 0.5845 0.44497 0.75234 0.0
C472 C 0.58069 0.45801 0.86544 0.0
C473 C 0.58054 0.45762 0.77896 0.0
C474 C 0.58669 0.43779 0.82431 0.0
N475 N 0.58456 0.4455 0.89422 0.0
O476 O 0.60416 0.43308 0.6531 0.0
H477 H 0.57759 0.46607 0.73821 0.0
H478 H 0.58936 0.42698 0.82591 0.0
O479 O 0.59093 0.45663 0.60035 0.0
C480 C 0.60563 0.42087 0.68166 0.0
O481 O 0.59451 0.41363 0.69959 0.0
N482 N 0.56649 0.44283 0.62803 0.0
C483 C 0.53778 0.44503 0.62088 0.0
C484 C 0.54621 0.45631 0.59905 0.0
C485 C 0.56063 0.45498 0.60252 0.0
C486 C 0.55848 0.43183 0.64956 0.0
C487 C 0.54412 0.43269 0.64636 0.0
H488 H 0.56697 0.46371 0.58518 0.0
H489 H 0.56335 0.42233 0.6698 0.0
H490 H 0.58201 0.4506 0.45545 0.0
H491 H 0.58774 0.40951 0.37717 0.0
H492 H 0.57816 0.46689 0.90379 0.0
H493 H 0.5417 0.466 0.57864 0.0
H494 H 0.53803 0.4238 0.66496 0.0
C495 C 0.32942 0.8285 0.23127 0.0
C496 C 0.32992 0.82871 0.1446 0.0
N497 N 0.3175 0.83285 0.11533 0.0
N498 N 0.31677 0.83249 0.25672 0.0
C499 C 0.30979 0.83515 0.18486 0.0
H500 H 0.33762 0.82525 0.27312 0.0
Co501 Co 0.31066 0.83264 0.36781 0.0
C502 C 0.28395 0.84701 0.35749 0.0
O503 O 0.28733 0.85472 0.42233 0.0
N504 N 0.30469 0.83246 0.48042 0.0
C505 C 0.2926 0.82726 0.59507 0.0
C506 C 0.29269 0.82705 0.50871 0.0
C507 C 0.31177 0.83574 0.55106 0.0
N508 N 0.30464 0.83272 0.62203 0.0
O509 O 0.31566 0.85178 0.37512 0.0
H510 H 0.2847 0.82272 0.46905 0.0
H511 H 0.3221 0.83993 0.55066 0.0
O512 O 0.2922 0.83773 0.3307 0.0
C513 C 0.32796 0.85432 0.39896 0.0
O514 O 0.33607 0.84399 0.42004 0.0
N515 N 0.30677 0.81378 0.36005 0.0
C516 C 0.30441 0.78504 0.35512 0.0
C517 C 0.29494 0.79346 0.3118 0.0
C518 C 0.29636 0.80786 0.31445 0.0
C519 C 0.31605 0.8058 0.40229 0.0
C520 C 0.31503 0.79143 0.401 0.0
H521 H 0.28924 0.81418 0.27896 0.0
H522 H 0.32433 0.81068 0.43709 0.0
H523 H 0.29917 0.83852 0.18337 0.0
H524 H 0.33861 0.82553 0.10644 0.0
H525 H 0.28451 0.82309 0.63464 0.0
H526 H 0.28671 0.78894 0.27468 0.0
H527 H 0.32249 0.78537 0.43608 0.0
C528 C 0.5849 0.08088 0.44663 0.0
C529 C 0.58471 0.08102 0.36028 0.0
N530 N 0.59165 0.06984 0.33208 0.0
N531 N 0.59191 0.06967 0.47308 0.0
C532 C 0.59592 0.06316 0.40218 0.0
H533 H 0.58049 0.08862 0.48765 0.0
Co534 Co 0.59577 0.06566 0.58433 0.0
C535 C 0.59769 0.03519 0.59501 0.0
O536 O 0.59121 0.03574 0.66763 0.0
N537 N 0.60005 0.062 0.69776 0.0
C538 C 0.61256 0.05638 0.81025 0.0
C539 C 0.61221 0.05665 0.72396 0.0
C540 C 0.59323 0.06495 0.76978 0.0
N541 N 0.60058 0.06164 0.83926 0.0
O542 O 0.61467 0.07104 0.56627 0.0
H543 H 0.62046 0.05332 0.68274 0.0
H544 H 0.58311 0.06952 0.77194 0.0
O545 O 0.60009 0.04639 0.55461 0.0
C546 C 0.61574 0.08411 0.57292 0.0
O547 O 0.60461 0.09136 0.58982 0.0
N548 N 0.57679 0.0619 0.60028 0.0
C549 C 0.54785 0.06245 0.60464 0.0
C550 C 0.5549 0.05124 0.5686 0.0
C551 C 0.56939 0.05131 0.56521 0.0
C552 C 0.57003 0.07298 0.63357 0.0
C553 C 0.55565 0.07335 0.63805 0.0
H554 H 0.57444 0.04329 0.52972 0.0
H555 H 0.5759 0.08188 0.65428 0.0
H556 H 0.60198 0.05378 0.40225 0.0
H557 H 0.58017 0.08904 0.32177 0.0
H558 H 0.6212 0.05299 0.84822 0.0
H559 H 0.54928 0.04287 0.53899 0.0
H560 H 0.55069 0.0823 0.66564 0.0
C561 C 0.16616 0.33111 0.73197 0.0
C562 C 0.16556 0.3317 0.64549 0.0
N563 N 0.1758 0.34 0.61787 0.0
N564 N 0.17675 0.33898 0.75919 0.0
C565 C 0.18235 0.34435 0.68839 0.0
H566 H 0.15959 0.32498 0.77244 0.0
Co567 Co 0.18255 0.34049 0.87125 0.0
C568 C 0.2079 0.35672 0.83772 0.0
O569 O 0.20238 0.36772 0.87262 0.0
N570 N 0.18835 0.34188 0.9835 0.0
C571 C 0.201 0.34004 0.09962 0.0
C572 C 0.20114 0.33926 1.01337 0.0
C573 C 0.18058 0.3441 0.05293 0.0
N574 N 0.18804 0.34305 0.12486 0.0
O575 O 0.17642 0.3594 0.87321 0.0
H576 H 0.20992 0.33633 0.97528 0.0
H577 H 0.16958 0.34606 0.05064 0.0
O578 O 0.20103 0.34548 0.8336 0.0
C579 C 0.16334 0.35961 0.88249 0.0
O580 O 0.1568 0.34778 0.89055 0.0
N581 N 0.18707 0.32173 0.87106 0.0
C582 C 0.18759 0.29292 0.86325 0.0
C583 C 0.19666 0.30085 0.81371 0.0
C584 C 0.19616 0.31534 0.81808 0.0
C585 C 0.17858 0.31418 0.92154 0.0
C586 C 0.17877 0.2998 0.9193 0.0
H587 H 0.20251 0.32136 0.77581 0.0
H588 H 0.17115 0.31938 0.9613 0.0
H589 H 0.19118 0.35119 0.68849 0.0
H590 H 0.15847 0.32596 0.6061 0.0
H591 H 0.20966 0.33783 0.14058 0.0
H592 H 0.20352 0.29595 0.76893 0.0
H593 H 0.17172 0.29412 0.95941 0.0
C594 C 0.91491 0.91196 0.99793 0.0
C595 C 0.91435 0.91144 0.91129 0.0
N596 N 0.9078 0.92286 0.88315 0.0
N597 N 0.90879 0.92367 0.02465 0.0
C598 C 0.90438 0.92996 0.95347 0.0
H599 H 0.91998 0.90459 0.03875 0.0
Co600 Co 0.90853 0.93007 0.13587 0.0
C601 C 0.89775 0.9587 0.10753 0.0
O602 O 0.88793 0.95768 0.16426 0.0
N603 N 0.90843 0.93636 0.24816 0.0
C604 C 0.91295 0.94848 0.36388 0.0
C605 C 0.91343 0.94847 0.27737 0.0
C606 C 0.90518 0.92912 0.31839 0.0
N607 N 0.9078 0.93626 0.38992 0.0
O608 O 0.88899 0.92702 0.13968 0.0
H609 H 0.91779 0.95654 0.23855 0.0
H610 H 0.90136 0.91864 0.31725 0.0
O611 O 0.90597 0.94864 0.09482 0.0
C612 C 0.88618 0.91471 0.16218 0.0
O613 O 0.89637 0.90619 0.1791 0.0
N614 N 0.92776 0.93214 0.13261 0.0
C615 C 0.9566 0.93233 0.13127 0.0
C616 C 0.94908 0.94113 0.07804 0.0
C617 C 0.93463 0.9408 0.07916 0.0
C618 C 0.93487 0.92348 0.18444 0.0
C619 C 0.94929 0.92346 0.18524 0.0
H620 H 0.92904 0.94726 0.03548 0.0
H621 H 0.92928 0.91644 0.22495 0.0
H622 H 0.89896 0.93973 0.95306 0.0
H623 H 0.91905 0.90359 0.87217 0.0
H624 H 0.91681 0.9566 0.40436 0.0
H625 H 0.9543 0.94791 0.03411 0.0
H626 H 0.95466 0.91655 0.22773 0.0
C627 C 0.33608 0.65951 0.22823 0.0
C628 C 0.33633 0.65994 0.14167 0.0
N629 N 0.32342 0.65758 0.113 0.0
N630 N 0.32309 0.65688 0.25398 0.0
C631 C 0.31561 0.6558 0.1826 0.0
H632 H 0.34482 0.66079 0.26992 0.0
Co633 Co 0.31788 0.65473 0.36508 0.0
C634 C 0.28741 0.65275 0.36452 0.0
O635 O 0.28725 0.66083 0.43103 0.0
N636 N 0.31295 0.65214 0.47925 0.0
C637 C 0.30582 0.64094 0.59367 0.0
C638 C 0.30625 0.64079 0.5075 0.0
C639 C 0.31669 0.65892 0.55026 0.0
N640 N 0.31244 0.65234 0.62077 0.0
O641 O 0.32368 0.63573 0.36012 0.0
H642 H 0.30238 0.63258 0.46778 0.0
H643 H 0.32283 0.66821 0.55107 0.0
O644 O 0.29899 0.64955 0.3307 0.0
C645 C 0.33496 0.63382 0.39996 0.0
O646 O 0.34071 0.6444 0.43832 0.0
N647 N 0.31369 0.67377 0.36846 0.0
C648 C 0.31329 0.7027 0.36098 0.0
C649 C 0.30298 0.69485 0.32115 0.0
C650 C 0.30354 0.68039 0.32399 0.0
C651 C 0.32402 0.68125 0.40469 0.0
C652 C 0.32386 0.69566 0.40359 0.0
H653 H 0.29624 0.67466 0.28644 0.0
H654 H 0.3328 0.67596 0.43187 0.0
H655 H 0.30462 0.6538 0.18156 0.0
H656 H 0.34542 0.66146 0.10311 0.0
H657 H 0.30162 0.63285 0.63316 0.0
H658 H 0.29495 0.69982 0.28446 0.0
H659 H 0.33216 0.70121 0.43435 0.0
C660 C 0.57371 0.91407 0.54592 0.0
C661 C 0.57421 0.91348 0.63245 0.0
N662 N 0.58248 0.92373 0.66029 0.0
N663 N 0.5816 0.92464 0.51887 0.0
C664 C 0.58695 0.93021 0.58987 0.0
H665 H 0.56747 0.9076 0.50541 0.0
Co666 Co 0.58251 0.93083 0.40726 0.0
C667 C 0.59829 0.95728 0.42861 0.0
O668 O 0.607 0.95462 0.36733 0.0
N669 N 0.58315 0.93696 0.29482 0.0
C670 C 0.5802 0.94961 0.17926 0.0
C671 C 0.57976 0.94963 0.26575 0.0
C672 C 0.58538 0.92937 0.22457 0.0
N673 N 0.5837 0.93682 0.15316 0.0
O674 O 0.60112 0.92389 0.39856 0.0
H675 H 0.57661 0.95822 0.3048 0.0
H676 H 0.58785 0.91849 0.2256 0.0
O677 O 0.58877 0.94867 0.44662 0.0
C678 C 0.60003 0.91117 0.37878 0.0
O679 O 0.58753 0.90595 0.37145 0.0
N680 N 0.56405 0.93636 0.41411 0.0
C681 C 0.53551 0.94052 0.42205 0.0
C682 C 0.54461 0.94893 0.46838 0.0
C683 C 0.55888 0.94662 0.46401 0.0
C684 C 0.55542 0.92814 0.36865 0.0
C685 C 0.54115 0.93004 0.37152 0.0
H686 H 0.56568 0.95287 0.50222 0.0
H687 H 0.55968 0.91982 0.33129 0.0
H688 H 0.59377 0.93905 0.59013 0.0
H689 H 0.56832 0.90649 0.67175 0.0
H690 H 0.57748 0.95818 0.1388 0.0
H691 H 0.54075 0.95715 0.50817 0.0
H692 H 0.53459 0.92304 0.33636 0.0
C693 C 0.3283 0.32366 0.77443 0.0
C694 C 0.3289 0.32431 0.8609 0.0
N695 N 0.31828 0.33211 0.88846 0.0
N696 N 0.31735 0.331 0.74717 0.0
C697 C 0.31152 0.33612 0.81792 0.0
H698 H 0.33519 0.31788 0.73399 0.0
Co699 Co 0.31155 0.33239 0.63506 0.0
C700 C 0.28521 0.34705 0.66857 0.0
O701 O 0.29002 0.3584 0.6339 0.0
N702 N 0.30576 0.33363 0.52276 0.0
C703 C 0.29326 0.33122 0.40649 0.0
C704 C 0.29313 0.33039 0.49269 0.0
C705 C 0.31345 0.33626 0.45345 0.0
N706 N 0.30606 0.33488 0.38143 0.0
O707 O 0.31656 0.3516 0.63477 0.0
H708 H 0.2845 0.32697 0.53057 0.0
H709 H 0.32434 0.33874 0.45588 0.0
O710 O 0.29279 0.33627 0.67256 0.0
C711 C 0.32961 0.35259 0.62603 0.0
O712 O 0.33686 0.34121 0.61696 0.0
N713 N 0.30813 0.31342 0.63373 0.0
C714 C 0.3086 0.28461 0.63653 0.0
C715 C 0.29886 0.29195 0.68448 0.0
C716 C 0.29889 0.30645 0.68296 0.0
C717 C 0.31738 0.30643 0.58525 0.0
C718 C 0.31776 0.29205 0.58539 0.0
H719 H 0.29197 0.31201 0.72411 0.0
H720 H 0.32488 0.31212 0.5485 0.0
H721 H 0.30239 0.34256 0.81773 0.0
H722 H 0.33628 0.31895 0.90032 0.0
H723 H 0.28474 0.32857 0.36542 0.0
H724 H 0.29176 0.28656 0.72571 0.0
H725 H 0.32539 0.28679 0.54712 0.0
C726 C 0.91627 0.08323 0.05079 0.0
C727 C 0.91667 0.08352 0.1374 0.0
N728 N 0.91477 0.07053 0.16619 0.0
N729 N 0.91412 0.07015 0.02508 0.0
C730 C 0.91332 0.06265 0.09658 0.0
H731 H 0.91712 0.09203 1.00908 0.0
Co732 Co 0.91172 0.06487 0.91408 0.0
C733 C 0.9096 0.03427 0.91791 0.0
O734 O 0.91736 0.03351 0.85017 0.0
N735 N 0.90891 0.05983 0.80033 0.0
C736 C 0.89788 0.05244 0.6859 0.0
C737 C 0.89777 0.05279 0.77218 0.0
C738 C 0.91552 0.06385 0.72927 0.0
N739 N 0.90904 0.05946 0.65872 0.0
O740 O 0.89262 0.07018 0.9226 0.0
H741 H 0.8897 0.04864 0.81199 0.0
H742 H 0.9246 0.07028 0.72854 0.0
O743 O 0.90683 0.04608 0.94975 0.0
C744 C 0.88814 0.08024 0.87848 0.0
O745 O 0.89638 0.08608 0.82325 0.0
N746 N 0.9308 0.06094 0.9084 0.0
C747 C 0.95974 0.06089 0.91372 0.0
C748 C 0.95213 0.05024 0.95171 0.0
C749 C 0.93765 0.05063 0.95016 0.0
C750 C 0.93807 0.07154 0.87342 0.0
C751 C 0.95249 0.07159 0.87375 0.0
H752 H 0.93212 0.04308 0.98688 0.0
H753 H 0.93261 0.08035 0.84801 0.0
H754 H 0.91165 0.05161 0.09776 0.0
H755 H 0.91778 0.09267 0.17592 0.0
H756 H 0.88992 0.04801 0.64642 0.0
H757 H 0.95729 0.04209 0.98634 0.0
H758 H 0.9579 0.08015 0.84467 0.0
C759 C 0.16561 0.66686 0.31405 0.0
C760 C 0.16499 0.66617 0.4005 0.0
N761 N 0.17551 0.65822 0.42804 0.0
N762 N 0.17646 0.65939 0.28668 0.0
C763 C 0.18219 0.65412 0.35747 0.0
H764 H 0.15892 0.67291 0.27379 0.0
Co765 Co 0.1826 0.65877 0.17471 0.0
C766 C 0.21009 0.64485 0.19634 0.0
O767 O 0.20817 0.63594 0.13515 0.0
N768 N 0.18861 0.65839 0.06247 0.0
C769 C 0.20088 0.66191 0.94625 0.0
C770 C 0.20097 0.66258 0.03264 0.0
C771 C 0.1811 0.65544 0.99291 0.0
N772 N 0.18835 0.65745 0.92099 0.0
O773 O 0.17705 0.63971 0.16719 0.0
H774 H 0.20937 0.66641 0.07105 0.0
H775 H 0.17041 0.65219 0.99504 0.0
O776 O 0.20079 0.65373 0.21372 0.0
C777 C 0.16398 0.6391 0.15797 0.0
O778 O 0.15702 0.65074 0.15304 0.0
N779 N 0.18699 0.67758 0.18107 0.0
C780 C 0.1896 0.70626 0.19187 0.0
C781 C 0.1983 0.69755 0.2387 0.0
C782 C 0.19674 0.6832 0.23306 0.0
C783 C 0.17858 0.68586 0.13442 0.0
C784 C 0.17973 0.70022 0.13861 0.0
H785 H 0.20307 0.6767 0.27258 0.0
H786 H 0.17071 0.68125 0.09495 0.0
H787 H 0.19127 0.64762 0.35744 0.0
H788 H 0.15777 0.67172 0.44003 0.0
H789 H 0.2092 0.66514 0.9052 0.0
H790 H 0.20589 0.7018 0.28159 0.0
H791 H 0.17287 0.70654 0.1009 0.0
C792 C 0.41374 0.9131 0.55341 0.0
C793 C 0.41389 0.91275 0.63997 0.0
N794 N 0.409 0.92491 0.66903 0.0
N795 N 0.40882 0.92542 0.52796 0.0
C796 C 0.40604 0.93239 0.59949 0.0
H797 H 0.41667 0.9048 0.51151 0.0
Co798 Co 0.40546 0.93014 0.41728 0.0
C799 C 0.40284 0.96061 0.41406 0.0
O800 O 0.40977 0.96067 0.34293 0.0
N801 N 0.40163 0.93454 0.30346 0.0
C802 C 0.38953 0.94082 0.19046 0.0
C803 C 0.38985 0.94065 0.27682 0.0
C804 C 0.4082 0.93095 0.23153 0.0
N805 N 0.40109 0.93466 0.16184 0.0
O806 O 0.38665 0.92408 0.43166 0.0
H807 H 0.38174 0.94436 0.31785 0.0
H808 H 0.4178 0.92537 0.22947 0.0
O809 O 0.40036 0.94909 0.45084 0.0
C810 C 0.38294 0.91339 0.3906 0.0
O811 O 0.39162 0.90775 0.33715 0.0
N812 N 0.42435 0.93476 0.406 0.0
C813 C 0.45303 0.93757 0.39243 0.0
C814 C 0.44525 0.94714 0.43871 0.0
C815 C 0.43094 0.94539 0.44622 0.0
C816 C 0.43195 0.92476 0.36728 0.0
C817 C 0.44621 0.92615 0.35753 0.0
H818 H 0.42536 0.95235 0.48686 0.0
H819 H 0.4269 0.91549 0.34488 0.0
H820 H 0.40179 0.9427 0.60057 0.0
H821 H 0.41691 0.90399 0.6781 0.0
H822 H 0.38111 0.94462 0.15213 0.0
H823 H 0.45018 0.95584 0.46938 0.0
H824 H 0.45191 0.91812 0.32509 0.0
C825 C 0.83847 0.66636 0.31766 0.0
C826 C 0.84077 0.66638 0.40321 0.0
N827 N 0.82987 0.66051 0.44266 0.0
N828 N 0.82613 0.66058 0.30105 0.0
C829 C 0.82112 0.65705 0.37862 0.0
H830 H 0.84529 0.67059 0.27024 0.0
Co831 Co 0.81888 0.6595 0.18891 0.0
C832 C 0.79103 0.64754 0.22584 0.0
O833 O 0.79202 0.63782 0.16846 0.0
N834 N 0.81163 0.65872 0.07466 0.0
C835 C 0.7971 0.66307 0.96866 0.0
C836 C 0.79894 0.66347 0.0543 0.0
C837 C 0.81743 0.65579 0.998 0.0
N838 N 0.80869 0.65822 0.93205 0.0
O839 O 0.82273 0.64013 0.18844 0.0
H840 H 0.79158 0.66763 0.09872 0.0
H841 H 0.82794 0.65225 0.99022 0.0
O842 O 0.80083 0.65617 0.23605 0.0
C843 C 0.83424 0.63679 0.15553 0.0
O844 O 0.84192 0.64646 0.12123 0.0
N845 N 0.81591 0.67862 0.18952 0.0
C846 C 0.813 0.70723 0.17807 0.0
C847 C 0.80502 0.69959 0.23526 0.0
C848 C 0.80674 0.68527 0.24073 0.0
C849 C 0.82399 0.68589 0.13507 0.0
C850 C 0.82268 0.70022 0.12815 0.0
H851 H 0.80073 0.67962 0.28649 0.0
H852 H 0.8314 0.68049 0.09617 0.0
H853 H 0.81128 0.65201 0.38798 0.0
H854 H 0.84973 0.67079 0.43376 0.0
H855 H 0.78801 0.66671 0.93574 0.0
H856 H 0.79765 0.70465 0.27622 0.0
H857 H 0.82903 0.70573 0.08313 0.0
C858 C 0.08725 0.08316 0.04659 0.0
C859 C 0.08618 0.08377 0.1329 0.0
N860 N 0.08595 0.07076 0.16338 0.0
N861 N 0.08781 0.06984 0.02214 0.0
C862 C 0.08679 0.06255 0.09464 0.0
H863 H 0.08752 0.09191 1.0044 0.0
Co864 Co 0.08931 0.06369 0.91048 0.0
C865 C 0.10664 0.04189 0.98857 0.0
O866 O 0.11575 0.05111 1.01343 0.0
N867 N 0.09062 0.05766 0.79798 0.0
C868 C 0.09278 0.04481 0.68255 0.0
C869 C 0.09306 0.04476 0.76905 0.0
C870 C 0.08878 0.06532 0.72751 0.0
N871 N 0.0901 0.05777 0.65633 0.0
O872 O 0.10789 0.07082 0.90506 0.0
H873 H 0.09487 0.03575 0.80767 0.0
H874 H 0.08618 0.07618 0.72825 0.0
O875 O 0.09586 0.04576 0.94872 0.0
C876 C 0.10842 0.08301 0.87476 0.0
O877 O 0.09683 0.08885 0.85046 0.0
N878 N 0.07092 0.058 0.91347 0.0
C879 C 0.04231 0.05419 0.91481 0.0
C880 C 0.05117 0.04421 0.94998 0.0
C881 C 0.06552 0.04633 0.94897 0.0
C882 C 0.06252 0.06766 0.87817 0.0
C883 C 0.04823 0.06594 0.87764 0.0
H884 H 0.07214 0.03875 0.97829 0.0
H885 H 0.067 0.07689 0.85102 0.0
H886 H 0.08676 0.05139 0.09706 0.0
H887 H 0.08547 0.09313 0.16991 0.0
H888 H 0.09461 0.03599 0.64215 0.0
H889 H 0.04704 0.03504 0.98001 0.0
H890 H 0.04188 0.07381 0.84836 0.0
C891 C 0.6645 0.33242 0.82942 0.0
C892 C 0.6643 0.33225 0.91581 0.0
N893 N 0.67573 0.33877 0.94422 0.0
N894 N 0.67598 0.33898 0.80325 0.0
C895 C 0.68262 0.34275 0.87427 0.0
H896 H 0.65659 0.32836 0.78815 0.0
Co897 Co 0.67996 0.34286 0.69221 0.0
C898 C 0.71032 0.34485 0.68121 0.0
O899 O 0.70975 0.33799 0.60991 0.0
N900 N 0.68356 0.34721 0.57864 0.0
C901 C 0.68915 0.35977 0.46628 0.0
C902 C 0.68895 0.35937 0.55261 0.0
C903 C 0.68053 0.34045 0.5065 0.0
N904 N 0.68382 0.34783 0.43713 0.0
O905 O 0.67438 0.3616 0.71095 0.0
H906 H 0.69231 0.36758 0.59398 0.0
H907 H 0.6759 0.33036 0.5041 0.0
O908 O 0.69917 0.34744 0.72147 0.0
C909 C 0.6615 0.3627 0.69629 0.0
O910 O 0.6547 0.35175 0.67027 0.0
N911 N 0.68394 0.32396 0.67628 0.0
C912 C 0.68402 0.29505 0.66851 0.0
C913 C 0.69494 0.30222 0.70697 0.0
C914 C 0.69454 0.31667 0.71211 0.0
C915 C 0.67302 0.31708 0.6419 0.0
C916 C 0.67299 0.30272 0.63541 0.0
H917 H 0.70236 0.3218 0.74907 0.0
H918 H 0.66404 0.32282 0.62128 0.0
H919 H 0.6922 0.34849 0.87445 0.0
H920 H 0.65608 0.32806 0.95423 0.0
H921 H 0.69255 0.36841 0.42838 0.0
H922 H 0.70337 0.29668 0.73666 0.0
H923 H 0.66423 0.29768 0.6061 0.0
C924 C 0.41498 0.08351 0.49054 0.0
C925 C 0.41565 0.08419 0.40398 0.0
N926 N 0.41928 0.07165 0.37431 0.0
N927 N 0.41804 0.07058 0.51589 0.0
C928 C 0.42083 0.06368 0.44374 0.0
H929 H 0.41225 0.09191 0.53214 0.0
Co930 Co 0.41752 0.06388 0.6269 0.0
C931 C 0.40272 0.03722 0.5996 0.0
O932 O 0.39384 0.03971 0.66026 0.0
N933 N 0.41726 0.05731 0.73911 0.0
C934 C 0.42038 0.04425 0.85313 0.0
C935 C 0.42037 0.04446 0.7665 0.0
C936 C 0.41574 0.06476 0.81072 0.0
N937 N 0.41747 0.05707 0.88117 0.0
O938 O 0.39826 0.06886 0.63278 0.0
H939 H 0.42292 0.03582 0.72627 0.0
H940 H 0.41411 0.07578 0.81161 0.0
O941 O 0.41233 0.04587 0.58353 0.0
C942 C 0.39471 0.08047 0.66388 0.0
O943 O 0.40425 0.08868 0.69471 0.0
N944 N 0.43641 0.05976 0.62111 0.0
C945 C 0.46515 0.05686 0.62029 0.0
C946 C 0.45659 0.0463 0.5892 0.0
C947 C 0.44222 0.04794 0.59009 0.0
C948 C 0.44451 0.0701 0.65176 0.0
C949 C 0.4589 0.06887 0.65212 0.0
H950 H 0.43591 0.0397 0.56529 0.0
H951 H 0.43972 0.07936 0.67631 0.0
H952 H 0.42376 0.05293 0.44217 0.0
H953 H 0.41364 0.09327 0.36612 0.0
H954 H 0.42248 0.03534 0.89222 0.0
H955 H 0.46095 0.03693 0.5631 0.0
H956 H 0.46504 0.07721 0.67796 0.0
C957 C 0.66842 0.67254 0.28115 0.0
C958 C 0.66818 0.67295 0.19459 0.0
N959 N 0.68063 0.66884 0.16575 0.0
N960 N 0.68095 0.66821 0.30682 0.0
C961 C 0.68818 0.66609 0.23536 0.0
H962 H 0.6599 0.67488 0.32288 0.0
Co963 Co 0.68562 0.66492 0.41778 0.0
C964 C 0.71587 0.65979 0.41875 0.0
O965 O 0.71691 0.66701 0.48853 0.0
N966 N 0.68997 0.66125 0.5316 0.0
C967 C 0.69577 0.64925 0.64576 0.0
C968 C 0.69548 0.64926 0.55948 0.0
C969 C 0.6868 0.66826 0.60274 0.0
N970 N 0.69027 0.66121 0.67315 0.0
O971 O 0.67844 0.64649 0.40598 0.0
H972 H 0.69867 0.64081 0.5194 0.0
H973 H 0.68167 0.67814 0.60354 0.0
O974 O 0.70404 0.65834 0.38377 0.0
C975 C 0.66783 0.64306 0.44866 0.0
O976 O 0.6627 0.6518 0.50357 0.0
N977 N 0.69143 0.6835 0.42653 0.0
C978 C 0.69511 0.71226 0.42824 0.0
C979 C 0.7049 0.70354 0.39029 0.0
C980 C 0.70267 0.68926 0.38788 0.0
C981 C 0.68156 0.69184 0.46058 0.0
C982 C 0.68326 0.70617 0.46325 0.0
H983 H 0.70971 0.68307 0.35135 0.0
H984 H 0.67202 0.68734 0.48326 0.0
H985 H 0.69874 0.66249 0.23427 0.0
H986 H 0.65932 0.67557 0.15616 0.0
H987 H 0.69916 0.64076 0.68505 0.0
H988 H 0.71409 0.70768 0.36077 0.0
H989 H 0.67504 0.71241 0.4895 0.0
C990 C 0.07683 0.91864 0.98538 0.0
C991 C 0.07739 0.91804 0.89883 0.0
N992 N 0.08547 0.92845 0.871 0.0
N993 N 0.0845 0.92939 1.01232 0.0
C994 C 0.08974 0.93507 0.94139 0.0
H995 H 0.0709 0.91193 0.02609 0.0
Co996 Co 0.08624 0.93521 0.12407 0.0
C997 C 0.10167 0.96132 0.09779 0.0
O998 O 0.11182 0.95699 0.14599 0.0
N999 N 0.08783 0.94102 0.23652 0.0
C1000 C 0.08549 0.95356 0.35273 0.0
C1001 C 0.08472 0.95369 0.2665 0.0
C1002 C 0.09028 0.93331 0.30606 0.0
N1003 N 0.08895 0.94072 0.37799 0.0
O1004 O 0.10514 0.92923 0.12339 0.0
H1005 H 0.08136 0.96234 0.22849 0.0
H1006 H 0.09253 0.92237 0.30396 0.0
O1007 O 0.09119 0.95358 0.08541 0.0
C1008 C 0.10546 0.91625 0.13663 0.0
O1009 O 0.09376 0.90977 0.15124 0.0
N1010 N 0.06751 0.9398 0.12535 0.0
C1011 C 0.03878 0.94233 0.12613 0.0
C1012 C 0.04691 0.95072 0.07357 0.0
C1013 C 0.06131 0.94922 0.07367 0.0
C1014 C 0.0598 0.93168 0.17725 0.0
C1015 C 0.04545 0.93286 0.17926 0.0
H1016 H 0.06737 0.95524 0.03 0.0
H1017 H 0.06484 0.92401 0.2161 0.0
H1018 H 0.09646 0.944 0.9413 0.0
H1019 H 0.07179 0.91082 0.85953 0.0
H1020 H 0.08288 0.96211 0.39367 0.0
H1021 H 0.04217 0.95798 0.03049 0.0
H1022 H 0.03964 0.92627 0.22148 0.0
C1023 C 0.83572 0.33769 0.74633 0.0
C1024 C 0.83657 0.33696 0.65983 0.0
N1025 N 0.82386 0.33426 0.62902 0.0
N1026 N 0.82254 0.33556 0.77041 0.0
C1027 C 0.81561 0.33338 0.6976 0.0
H1028 H 0.84418 0.33976 0.78896 0.0
Co1029 Co 0.8159 0.33628 0.88142 0.0
C1030 C 0.7884 0.3489 0.84482 0.0
O1031 O 0.79098 0.35972 0.89227 0.0
N1032 N 0.80948 0.33681 0.99397 0.0
C1033 C 0.79656 0.33503 0.10957 0.0
C1034 C 0.79647 0.3351 0.02308 0.0
C1035 C 0.81731 0.33742 0.06466 0.0
N1036 N 0.80971 0.33648 0.13598 0.0
O1037 O 0.81939 0.35585 0.88163 0.0
H1038 H 0.78741 0.33348 0.98462 0.0
H1039 H 0.82846 0.33787 0.0641 0.0
O1040 O 0.79738 0.3393 0.83793 0.0
C1041 C 0.83082 0.35991 0.91275 0.0
O1042 O 0.83908 0.3508 0.94757 0.0
N1043 N 0.81349 0.31713 0.88089 0.0
C1044 C 0.81341 0.28829 0.88209 0.0
C1045 C 0.80098 0.29571 0.87558 0.0
C1046 C 0.80123 0.31018 0.87495 0.0
C1047 C 0.82561 0.31012 0.88894 0.0
C1048 C 0.82582 0.2957 0.88929 0.0
H1049 H 0.79156 0.31567 0.86992 0.0
H1050 H 0.83519 0.31581 0.89481 0.0
H1051 H 0.80466 0.33143 0.69469 0.0
H1052 H 0.84586 0.33824 0.6228 0.0
H1053 H 0.78761 0.3339 0.14973 0.0
H1054 H 0.79118 0.29038 0.86963 0.0
H1055 H 0.83563 0.29041 0.89586 0.0
H1056 H 0.08586 0.58663 0.6971 0.0
H1057 H 0.09278 0.54463 0.77886 0.0
H1058 H 0.09438 0.5371 0.63316 0.0
H1059 H 0.09276 0.54215 0.48218 0.0
H1060 H 0.08477 0.58392 0.40007 0.0
H1061 H 0.08469 0.59176 0.54577 0.0
C1062 C 0.08767 0.57582 0.68325 0.0
C1063 C 0.08914 0.56626 0.74962 0.0
C1064 C 0.08836 0.57147 0.59888 0.0
C1065 C 0.09176 0.55231 0.72983 0.0
C1066 C 0.09257 0.54794 0.64616 0.0
C1067 C 0.09093 0.55296 0.49596 0.0
C1068 C 0.0887 0.56237 0.42964 0.0
C1069 C 0.09071 0.55739 0.58019 0.0
C1070 C 0.08664 0.57641 0.44919 0.0
C1071 C 0.0865 0.58091 0.53281 0.0
H1072 H 0.69051 0.8627 0.79347 0.0
H1073 H 0.67695 0.82212 0.71666 0.0
H1074 H 0.67178 0.81624 0.86246 0.0
H1075 H 0.67177 0.82227 1.01193 0.0
H1076 H 0.68511 0.86288 0.09005 0.0
H1077 H 0.69003 0.86892 0.94399 0.0
C1078 C 0.68651 0.85254 0.80853 0.0
C1079 C 0.68414 0.84288 0.74349 0.0
C1080 C 0.68361 0.84917 0.89302 0.0
C1081 C 0.67872 0.82984 0.76467 0.0
C1082 C 0.67585 0.82643 0.84837 0.0
C1083 C 0.67556 0.83253 0.99749 0.0
C1084 C 0.67802 0.84207 0.06299 0.0
C1085 C 0.67828 0.83599 0.91308 0.0
C1086 C 0.68323 0.85521 0.04187 0.0
C1087 C 0.68599 0.85872 0.95798 0.0
H1088 H 0.39569 0.44405 1.00663 0.0
H1089 H 0.41352 0.40552 0.92353 0.0
H1090 H 0.41431 0.3973 0.06856 0.0
H1091 H 0.41146 0.40162 0.22011 0.0
H1092 H 0.39454 0.44054 0.30364 0.0
H1093 H 0.39171 0.4479 0.15789 0.0
C1094 C 0.39978 0.43387 0.02007 0.0
C1095 C 0.40466 0.42551 0.95361 0.0
C1096 C 0.40035 0.42923 0.10409 0.0
C1097 C 0.40962 0.41219 0.97268 0.0
C1098 C 0.41015 0.4075 0.05596 0.0
C1099 C 0.4071 0.4117 0.2066 0.0
C1100 C 0.40332 0.42051 0.27353 0.0
C1101 C 0.40576 0.41601 0.12231 0.0
C1102 C 0.39744 0.43343 0.25415 0.0
C1103 C 0.39594 0.43773 0.17048 0.0
H1104 H 0.79381 0.14821 0.28231 0.0
H1105 H 0.83332 0.16359 0.19708 0.0
H1106 H 0.84068 0.16674 0.34227 0.0
H1107 H 0.83603 0.16515 0.494 0.0
H1108 H 0.79655 0.14982 0.57935 0.0
H1109 H 0.78933 0.14619 0.43403 0.0
C1110 C 0.80409 0.15213 0.29509 0.0
C1111 C 0.81292 0.15569 0.22776 0.0
C1112 C 0.80836 0.1538 0.37925 0.0
C1113 C 0.82614 0.16095 0.24667 0.0
C1114 C 0.83043 0.16267 0.3301 0.0
C1115 C 0.82583 0.16104 0.48102 0.0
C1116 C 0.8169 0.15774 0.54825 0.0
C1117 C 0.82163 0.15915 0.39692 0.0
C1118 C 0.80378 0.15225 0.52957 0.0
C1119 C 0.79956 0.15029 0.44615 0.0
H1120 H 0.09159 0.45512 0.54199 0.0
H1121 H 0.0824 0.41362 0.62447 0.0
H1122 H 0.08207 0.40575 0.47876 0.0
H1123 H 0.08327 0.41083 0.3272 0.0
H1124 H 0.09152 0.45256 0.24521 0.0
H1125 H 0.0934 0.46008 0.3909 0.0
C1126 C 0.08945 0.44436 0.52825 0.0
C1127 C 0.08694 0.43504 0.59466 0.0
C1128 C 0.08911 0.43991 0.44404 0.0
C1129 C 0.08449 0.42105 0.57523 0.0
C1130 C 0.0842 0.41654 0.49162 0.0
C1131 C 0.08545 0.42157 0.34106 0.0
C1132 C 0.08721 0.43107 0.27463 0.0
C1133 C 0.08633 0.42591 0.42544 0.0
C1134 C 0.09028 0.44493 0.29434 0.0
C1135 C 0.09125 0.44929 0.37798 0.0
H1136 H 0.7969 0.82675 0.72964 0.0
H1137 H 0.8341 0.84774 0.80715 0.0
H1138 H 0.84175 0.84907 0.66069 0.0
H1139 H 0.8373 0.84521 0.51011 0.0
H1140 H 0.8002 0.82373 0.43388 0.0
H1141 H 0.79297 0.82196 0.57993 0.0
C1142 C 0.80666 0.83165 0.71448 0.0
C1143 C 0.81487 0.8372 0.77936 0.0
C1144 C 0.81096 0.83243 0.63014 0.0
C1145 C 0.82763 0.84328 0.75867 0.0
C1146 C 0.83196 0.84412 0.67479 0.0
C1147 C 0.82772 0.83999 0.52512 0.0
C1148 C 0.81929 0.83476 0.45998 0.0
C1149 C 0.82365 0.83884 0.60988 0.0
C1150 C 0.80682 0.82815 0.48166 0.0
C1151 C 0.80269 0.82702 0.5656 0.0
H1152 H 0.40607 0.58261 0.73312 0.0
H1153 H 0.405 0.53992 0.65346 0.0
H1154 H 0.40409 0.53246 0.79926 0.0
H1155 H 0.40518 0.53782 0.94945 0.0
H1156 H 0.40777 0.5803 0.03064 0.0
H1157 H 0.40638 0.58802 0.8845 0.0
C1158 C 0.40568 0.57167 0.74737 0.0
C1159 C 0.40571 0.5619 0.68141 0.0
C1160 C 0.40546 0.56737 0.83198 0.0
C1161 C 0.40487 0.54776 0.70191 0.0
C1162 C 0.40445 0.54344 0.78572 0.0
C1163 C 0.40551 0.54878 0.93543 0.0
C1164 C 0.40676 0.55843 1.00139 0.0
C1165 C 0.405 0.55313 0.85119 0.0
C1166 C 0.40676 0.5726 0.98164 0.0
C1167 C 0.40606 0.57703 0.89784 0.0
H1168 H 0.66306 0.16009 0.97252 0.0
H1169 H 0.70434 0.17108 0.89225 0.0
H1170 H 0.7118 0.17215 0.0377 0.0
H1171 H 0.70663 0.1705 0.18751 0.0
H1172 H 0.66487 0.16146 0.26769 0.0
H1173 H 0.65773 0.1591 0.12229 0.0
C1174 C 0.67366 0.16288 0.98619 0.0
C1175 C 0.68302 0.16551 0.92024 0.0
C1176 C 0.67788 0.16381 0.07041 0.0
C1177 C 0.69681 0.16882 0.94055 0.0
C1178 C 0.70113 0.16953 0.02422 0.0
C1179 C 0.69592 0.16816 0.17388 0.0
C1180 C 0.68639 0.1662 0.23985 0.0
C1181 C 0.69173 0.16714 0.08963 0.0
C1182 C 0.6726 0.16289 0.21946 0.0
C1183 C 0.66843 0.16162 0.13579 0.0
H1184 H 0.90466 0.4113 0.29646 0.0
H1185 H 0.90858 0.45382 0.21671 0.0
H1186 H 0.90835 0.46136 0.36243 0.0
H1187 H 0.90812 0.45594 0.51274 0.0
H1188 H 0.9057 0.4134 0.59356 0.0
H1189 H 0.90418 0.4059 0.44749 0.0
C1190 C 0.90555 0.42221 0.31067 0.0
C1191 C 0.90668 0.43191 0.24478 0.0
C1192 C 0.90568 0.42652 0.39517 0.0
C1193 C 0.90752 0.44605 0.26519 0.0
C1194 C 0.9075 0.45041 0.34893 0.0
C1195 C 0.90736 0.44502 0.49872 0.0
C1196 C 0.90714 0.43529 0.56472 0.0
C1197 C 0.90676 0.44073 0.4144 0.0
C1198 C 0.90579 0.42119 0.54469 0.0
C1199 C 0.90502 0.41685 0.46087 0.0
H1200 H 0.33018 0.17106 0.04678 0.0
H1201 H 0.30076 0.14006 0.96747 0.0
H1202 H 0.29491 0.13536 0.11324 0.0
H1203 H 0.2986 0.13943 0.2634 0.0
H1204 H 0.3293 0.16913 0.3428 0.0
H1205 H 0.33408 0.17492 0.19693 0.0
C1206 C 0.32258 0.16318 0.06095 0.0
C1207 C 0.316 0.15595 0.99529 0.0
C1208 C 0.31944 0.16027 0.14531 0.0
C1209 C 0.30594 0.14597 1.01581 0.0
C1210 C 0.30262 0.14318 0.09956 0.0
C1211 C 0.30643 0.14709 0.24915 0.0
C1212 C 0.31356 0.15377 0.31481 0.0
C1213 C 0.30939 0.15017 0.1648 0.0
C1214 C 0.32347 0.1639 0.29437 0.0
C1215 C 0.32631 0.16716 0.21059 0.0
H1216 H 0.58604 0.59334 0.85155 0.0
H1217 H 0.59214 0.55126 0.76934 0.0
H1218 H 0.59423 0.5437 0.91471 0.0
H1219 H 0.59329 0.54873 0.06574 0.0
H1220 H 0.58622 0.59056 0.14936 0.0
H1221 H 0.58565 0.59847 1.00358 0.0
C1222 C 0.58779 0.58252 0.86531 0.0
C1223 C 0.58893 0.57293 0.79877 0.0
C1224 C 0.58881 0.57815 0.94972 0.0
C1225 C 0.59142 0.55896 0.81841 0.0
C1226 C 0.59251 0.55458 0.90193 0.0
C1227 C 0.59157 0.55958 0.05229 0.0
C1228 C 0.58972 0.56898 0.11905 0.0
C1229 C 0.59107 0.56404 0.96811 0.0
C1230 C 0.58781 0.58306 0.09986 0.0
C1231 C 0.58737 0.58759 1.0162 0.0
H1232 H 0.19879 0.83903 0.8154 0.0
H1233 H 0.15634 0.83724 0.89803 0.0
H1234 H 0.14851 0.83801 0.75218 0.0
H1235 H 0.15373 0.83806 0.60043 0.0
H1236 H 0.19629 0.83885 0.5189 0.0
H1237 H 0.20398 0.83966 0.66449 0.0
C1238 C 0.18782 0.83875 0.80171 0.0
C1239 C 0.17822 0.83798 0.86818 0.0
C1240 C 0.18337 0.83901 0.71748 0.0
C1241 C 0.16402 0.83794 0.84874 0.0
C1242 C 0.15951 0.83828 0.76505 0.0
C1243 C 0.16468 0.83837 0.61437 0.0
C1244 C 0.17436 0.83838 0.54801 0.0
C1245 C 0.1691 0.83864 0.69882 0.0
C1246 C 0.18853 0.83903 0.56787 0.0
C1247 C 0.19298 0.83937 0.6515 0.0
H1248 H 0.90695 0.58399 0.74113 0.0
H1249 H 0.9112 0.5415 0.82094 0.0
H1250 H 0.91117 0.53398 0.67518 0.0
H1251 H 0.91101 0.53941 0.52486 0.0
H1252 H 0.90829 0.58195 0.44425 0.0
H1253 H 0.90659 0.58941 0.59024 0.0
C1254 C 0.90796 0.57309 0.72696 0.0
C1255 C 0.90913 0.5634 0.79287 0.0
C1256 C 0.90822 0.56879 0.64248 0.0
C1257 C 0.91012 0.54927 0.77245 0.0
C1258 C 0.91021 0.54492 0.68869 0.0
C1259 C 0.91015 0.55033 0.5389 0.0
C1260 C 0.90989 0.56006 0.47295 0.0
C1261 C 0.90944 0.5546 0.62322 0.0
C1262 C 0.90841 0.57416 0.49304 0.0
C1263 C 0.90753 0.57847 0.57683 0.0
H1264 H 0.19402 0.15834 0.50542 0.0
H1265 H 0.15064 0.16769 0.47775 0.0
H1266 H 0.15281 0.16676 0.3256 0.0
H1267 H 0.16722 0.16439 0.1967 0.0
H1268 H 0.21033 0.15405 0.22487 0.0
H1269 H 0.20796 0.15415 0.3772 0.0
C1270 C 0.18498 0.16003 0.4665 0.0
C1271 C 0.17223 0.16336 0.50508 0.0
C1272 C 0.18623 0.15936 0.37732 0.0
C1273 C 0.16072 0.16547 0.4517 0.0
C1274 C 0.16191 0.16485 0.36368 0.0
C1275 C 0.17605 0.16197 0.23596 0.0
C1276 C 0.18901 0.15946 0.19772 0.0
C1277 C 0.17464 0.16199 0.32524 0.0
C1278 C 0.20028 0.15637 0.25114 0.0
C1279 C 0.19894 0.15635 0.33906 0.0
H1280 H 0.5727 0.45728 0.03121 0.0
H1281 H 0.59958 0.42392 0.95501 0.0
H1282 H 0.60176 0.41653 0.10092 0.0
H1283 H 0.59636 0.41968 0.25092 0.0
H1284 H 0.56995 0.45334 0.32726 0.0
H1285 H 0.5676 0.46066 0.18096 0.0
C1286 C 0.57916 0.44848 0.04615 0.0
C1287 C 0.58591 0.44119 0.98119 0.0
C1288 C 0.58054 0.44437 0.13067 0.0
C1289 C 0.59406 0.42965 1.00276 0.0
C1290 C 0.5954 0.42545 0.08658 0.0
C1291 C 0.59 0.42855 0.23556 0.0
C1292 C 0.58333 0.43592 0.30036 0.0
C1293 C 0.58869 0.43272 0.15107 0.0
C1294 C 0.57533 0.44755 0.27911 0.0
C1295 C 0.57391 0.4517 0.19524 0.0
H1296 H 0.33362 0.835 0.97627 0.0
H1297 H 0.29105 0.83223 0.0569 0.0
H1298 H 0.28341 0.83286 0.91159 0.0
H1299 H 0.28865 0.83343 0.76137 0.0
H1300 H 0.33117 0.83465 0.67908 0.0
H1301 H 0.33887 0.8355 0.82488 0.0
C1302 C 0.32267 0.83444 0.96235 0.0
C1303 C 0.313 0.83358 0.02852 0.0
C1304 C 0.31828 0.83455 0.87792 0.0
C1305 C 0.29882 0.83311 1.00836 0.0
C1306 C 0.29439 0.83336 0.92478 0.0
C1307 C 0.29961 0.83376 0.77487 0.0
C1308 C 0.30925 0.83388 0.70842 0.0
C1309 C 0.30402 0.83396 0.85907 0.0
C1310 C 0.32343 0.83467 0.72812 0.0
C1311 C 0.32788 0.83505 0.81186 0.0
H1312 H 0.61188 0.04979 0.97749 0.0
H1313 H 0.58063 0.07899 0.89849 0.0
H1314 H 0.57459 0.08333 0.0441 0.0
H1315 H 0.57855 0.0795 0.19363 0.0
H1316 H 0.61114 0.05187 0.27345 0.0
H1317 H 0.61617 0.04631 0.12767 0.0
C1318 C 0.60384 0.05721 0.99164 0.0
C1319 C 0.59678 0.064 0.926 0.0
C1320 C 0.6006 0.05998 0.07602 0.0
C1321 C 0.58617 0.07338 0.94664 0.0
C1322 C 0.58275 0.07599 0.03037 0.0
C1323 C 0.58687 0.07237 0.17976 0.0
C1324 C 0.59444 0.06622 0.24552 0.0
C1325 C 0.58998 0.06944 0.09551 0.0
C1326 C 0.60497 0.05673 0.22509 0.0
C1327 C 0.60795 0.05358 0.14132 0.0
H1328 H 0.20308 0.34899 0.26338 0.0
H1329 H 0.16195 0.33811 0.18158 0.0
H1330 H 0.15428 0.33706 0.32775 0.0
H1331 H 0.15958 0.33794 0.47924 0.0
H1332 H 0.20112 0.3476 0.55973 0.0
H1333 H 0.20822 0.35042 0.41399 0.0
C1334 C 0.19244 0.34632 0.27725 0.0
C1335 C 0.18318 0.34351 0.21095 0.0
C1336 C 0.18815 0.34548 0.36159 0.0
C1337 C 0.16933 0.34042 0.23072 0.0
C1338 C 0.16495 0.33971 0.31458 0.0
C1339 C 0.1702 0.34061 0.46514 0.0
C1340 C 0.17976 0.34248 0.53126 0.0
C1341 C 0.17433 0.34201 0.3806 0.0
C1342 C 0.19343 0.34623 0.51104 0.0
C1343 C 0.19756 0.34775 0.42731 0.0
H1344 H 0.90483 0.95194 0.5295 0.0
H1345 H 0.90838 0.90967 0.44581 0.0
H1346 H 0.90794 0.90171 0.59142 0.0
H1347 H 0.90759 0.90679 0.74333 0.0
H1348 H 0.90493 0.94921 0.82607 0.0
H1349 H 0.90393 0.95697 0.68072 0.0
C1350 C 0.90557 0.94099 0.54289 0.0
C1351 C 0.90672 0.93147 0.47608 0.0
C1352 C 0.90547 0.93646 0.62708 0.0
C1353 C 0.90736 0.91728 0.49525 0.0
C1354 C 0.90721 0.9127 0.57885 0.0
C1355 C 0.90683 0.91773 0.72977 0.0
C1356 C 0.90638 0.92734 0.79651 0.0
C1357 C 0.90643 0.92221 0.64538 0.0
C1358 C 0.90515 0.94149 0.77694 0.0
C1359 C 0.90467 0.94599 0.69339 0.0
H1360 H 0.29814 0.64461 0.75836 0.0
H1361 H 0.33395 0.6678 0.67867 0.0
H1362 H 0.34008 0.67216 0.825 0.0
H1363 H 0.33593 0.66839 0.97574 0.0
H1364 H 0.3009 0.64386 0.05407 0.0
H1365 H 0.29387 0.64105 0.90832 0.0
C1366 C 0.30734 0.65055 0.77276 0.0
C1367 C 0.31559 0.65576 0.7071 0.0
C1368 C 0.31099 0.65277 0.85708 0.0
C1369 C 0.32729 0.66374 0.72741 0.0
C1370 C 0.33089 0.66615 0.81132 0.0
C1371 C 0.32681 0.66236 0.96112 0.0
C1372 C 0.31902 0.65634 0.02646 0.0
C1373 C 0.32292 0.66054 0.87667 0.0
C1374 C 0.30705 0.64878 1.00582 0.0
C1375 C 0.30305 0.64707 0.92214 0.0
H1376 H 0.58906 0.95201 1.01421 0.0
H1377 H 0.57952 0.91061 0.09697 0.0
H1378 H 0.57913 0.90271 0.95128 0.0
H1379 H 0.58041 0.90774 0.79966 0.0
H1380 H 0.58906 0.94939 0.71746 0.0
H1381 H 0.59094 0.95691 0.86305 0.0
C1382 C 0.58683 0.94127 1.00054 0.0
C1383 C 0.58424 0.93198 0.06705 0.0
C1384 C 0.58646 0.9368 0.91633 0.0
C1385 C 0.58168 0.91801 0.04768 0.0
C1386 C 0.58135 0.91348 0.96407 0.0
C1387 C 0.58267 0.91847 0.81341 0.0
C1388 C 0.58453 0.92794 0.74687 0.0
C1389 C 0.58356 0.92282 0.8978 0.0
C1390 C 0.58771 0.94177 0.76656 0.0
C1391 C 0.58869 0.94614 0.8502 0.0
H1392 H 0.29076 0.34013 0.24299 0.0
H1393 H 0.33236 0.33119 0.32467 0.0
H1394 H 0.34003 0.33041 0.17841 0.0
H1395 H 0.33465 0.33092 0.02691 0.0
H1396 H 0.29268 0.33861 0.94675 0.0
H1397 H 0.28551 0.34123 0.09248 0.0
C1398 C 0.3015 0.33794 0.22908 0.0
C1399 C 0.3109 0.33558 0.29535 0.0
C1400 C 0.3058 0.33725 0.14473 0.0
C1401 C 0.32487 0.33313 0.27553 0.0
C1402 C 0.32926 0.33258 0.19163 0.0
C1403 C 0.32392 0.33311 0.04108 0.0
C1404 C 0.31425 0.33449 0.97505 0.0
C1405 C 0.31977 0.33439 0.12565 0.0
C1406 C 0.30044 0.33763 0.99536 0.0
C1407 C 0.29628 0.33904 0.07909 0.0
H1408 H 0.90175 0.04503 0.52054 0.0
H1409 H 0.92383 0.08147 0.60132 0.0
H1410 H 0.9282 0.08773 0.45523 0.0
H1411 H 0.92487 0.08343 0.3042 0.0
H1412 H 0.90156 0.04766 0.22456 0.0
H1413 H 0.8986 0.04064 0.37021 0.0
C1414 C 0.90745 0.05439 0.50642 0.0
C1415 C 0.91236 0.06277 0.57239 0.0
C1416 C 0.90971 0.05809 0.42214 0.0
C1417 C 0.92001 0.0747 0.5524 0.0
C1418 C 0.92244 0.07837 0.4686 0.0
C1419 C 0.91907 0.07414 0.31851 0.0
C1420 C 0.91346 0.06615 0.25278 0.0
C1421 C 0.91718 0.07023 0.40293 0.0
C1422 C 0.90619 0.05398 0.27309 0.0
C1423 C 0.90439 0.04997 0.35673 0.0
H1424 H 0.1593 0.65924 0.56687 0.0
H1425 H 0.20137 0.65267 0.48576 0.0
H1426 H 0.20886 0.65098 0.63159 0.0
H1427 H 0.20379 0.65262 0.78258 0.0
H1428 H 0.16193 0.66003 0.86458 0.0
H1429 H 0.15408 0.66005 0.71855 0.0
C1430 C 0.17011 0.65746 0.58094 0.0
C1431 C 0.17972 0.65616 0.51464 0.0
C1432 C 0.17442 0.65667 0.66548 0.0
C1433 C 0.19366 0.65358 0.53468 0.0
C1434 C 0.198 0.65272 0.61844 0.0
C1435 C 0.19295 0.65428 0.76867 0.0
C1436 C 0.18351 0.65643 0.83498 0.0
C1437 C 0.18852 0.65445 0.68434 0.0
C1438 C 0.16944 0.65825 0.81536 0.0
C1439 C 0.16495 0.65836 0.73159 0.0
H1440 H 0.39139 0.94759 0.02316 0.0
H1441 H 0.41864 0.91479 0.10388 0.0
H1442 H 0.42401 0.9094 0.95825 0.0
H1443 H 0.42053 0.9135 0.80779 0.0
H1444 H 0.39196 0.94519 0.72728 0.0
H1445 H 0.38763 0.95144 0.87277 0.0
C1446 C 0.39841 0.93918 1.00926 0.0
C1447 C 0.40455 0.93166 0.07528 0.0
C1448 C 0.40126 0.9359 0.92501 0.0
C1449 C 0.41386 0.92096 0.05522 0.0
C1450 C 0.41688 0.91776 0.97155 0.0
C1451 C 0.41326 0.92169 0.82166 0.0
C1452 C 0.40663 0.9288 0.75567 0.0
C1453 C 0.41056 0.9251 0.90593 0.0
C1454 C 0.39742 0.93959 0.77582 0.0
C1455 C 0.39483 0.94314 0.85945 0.0
H1456 H 0.83303 0.65919 0.84264 0.0
H1457 H 0.78901 0.65401 0.81293 0.0
H1458 H 0.79151 0.65404 0.66075 0.0
H1459 H 0.80597 0.65656 0.53301 0.0
H1460 H 0.85014 0.6607 0.56219 0.0
H1461 H 0.84772 0.66001 0.71425 0.0
C1462 C 0.82399 0.6579 0.80313 0.0
C1463 C 0.8108 0.65685 0.84105 0.0
C1464 C 0.82548 0.65785 0.71386 0.0
C1465 C 0.79929 0.6552 0.78713 0.0
C1466 C 0.8007 0.65513 0.69922 0.0
C1467 C 0.81511 0.65717 0.57221 0.0
C1468 C 0.82822 0.65894 0.53399 0.0
C1469 C 0.81371 0.65664 0.66137 0.0
C1470 C 0.83984 0.65969 0.58783 0.0
C1471 C 0.8385 0.6592 0.67584 0.0
H1472 H 0.08208 0.04297 0.52084 0.0
H1473 H 0.09631 0.08331 0.5972 0.0
H1474 H 0.09596 0.09106 0.45084 0.0
H1475 H 0.09255 0.08607 0.30076 0.0
H1476 H 0.07791 0.04576 0.22501 0.0
H1477 H 0.07782 0.03826 0.37115 0.0
C1478 C 0.08517 0.05344 0.5055 0.0
C1479 C 0.08927 0.06251 0.57019 0.0
C1480 C 0.08499 0.05781 0.42107 0.0
C1481 C 0.09298 0.07614 0.54905 0.0
C1482 C 0.09287 0.08055 0.46518 0.0
C1483 C 0.08916 0.0757 0.31583 0.0
C1484 C 0.08534 0.06652 0.25081 0.0
C1485 C 0.08898 0.07144 0.40056 0.0
C1486 C 0.08116 0.05304 0.27268 0.0
C1487 C 0.08101 0.04874 0.35667 0.0
H1488 H 0.66578 0.32591 0.08259 0.0
H1489 H 0.69394 0.35802 1.00285 0.0
H1490 H 0.69947 0.36309 0.14872 0.0
H1491 H 0.69583 0.35895 0.29898 0.0
H1492 H 0.66617 0.32815 0.37787 0.0
H1493 H 0.66179 0.3221 0.23224 0.0
C1494 C 0.67302 0.33412 0.09657 0.0
C1495 C 0.67934 0.34156 0.03081 0.0
C1496 C 0.67594 0.33725 0.18085 0.0
C1497 C 0.68896 0.35196 0.05126 0.0
C1498 C 0.69209 0.35496 0.13506 0.0
C1499 C 0.68831 0.351 0.28476 0.0
C1500 C 0.6814 0.34407 0.35037 0.0
C1501 C 0.68554 0.34776 0.20036 0.0
C1502 C 0.67187 0.33359 0.32971 0.0
C1503 C 0.66924 0.33016 0.24598 0.0
H1504 H 0.40736 0.08359 0.23781 0.0
H1505 H 0.43419 0.0501 0.31243 0.0
H1506 H 0.43595 0.0426 0.16642 0.0
H1507 H 0.42999 0.04554 0.01699 0.0
H1508 H 0.40316 0.079 0.94235 0.0
H1509 H 0.40161 0.08668 0.08826 0.0
C1510 C 0.41374 0.07475 0.22238 0.0
C1511 C 0.42061 0.06746 0.28701 0.0
C1512 C 0.41477 0.07049 0.13778 0.0
C1513 C 0.42862 0.05586 0.26493 0.0
C1514 C 0.4297 0.05158 0.18104 0.0
C1515 C 0.42371 0.05445 0.03243 0.0
C1516 C 0.41671 0.06165 0.96795 0.0
C1517 C 0.42278 0.05878 0.11692 0.0
C1518 C 0.40881 0.07333 0.98987 0.0
C1519 C 0.40785 0.07769 0.07365 0.0
H1520 H 0.66931 0.68068 0.02771 0.0
H1521 H 0.70117 0.65223 0.10718 0.0
H1522 H 0.7075 0.64813 0.96146 0.0
H1523 H 0.70351 0.65184 0.81122 0.0
H1524 H 0.67071 0.67908 0.73083 0.0
H1525 H 0.66534 0.68444 0.8769 0.0
C1526 C 0.67757 0.67351 1.01341 0.0
C1527 C 0.68468 0.66679 0.07913 0.0
C1528 C 0.68104 0.67096 0.92899 0.0
C1529 C 0.69557 0.65773 0.05872 0.0
C1530 C 0.69917 0.65528 0.97502 0.0
C1531 C 0.69512 0.65888 0.82538 0.0
C1532 C 0.68752 0.66496 0.75952 0.0
C1533 C 0.69189 0.66172 0.90968 0.0
C1534 C 0.67688 0.67432 0.77963 0.0
C1535 C 0.67371 0.67733 0.86344 0.0
H1536 H 0.09428 0.95589 0.51675 0.0
H1537 H 0.0846 0.9145 0.43454 0.0
H1538 H 0.08345 0.90682 0.58074 0.0
H1539 H 0.08391 0.91216 0.73242 0.0
H1540 H 0.09241 0.95394 0.81293 0.0
H1541 H 0.09529 0.96108 0.66732 0.0
C1542 C 0.09185 0.94519 0.53054 0.0
C1543 C 0.08941 0.93585 0.46412 0.0
C1544 C 0.09096 0.94089 0.61485 0.0
C1545 C 0.08663 0.92194 0.4838 0.0
C1546 C 0.08586 0.91755 0.56767 0.0
C1547 C 0.08635 0.92284 0.7183 0.0
C1548 C 0.08789 0.93245 0.78442 0.0
C1549 C 0.08779 0.92698 0.63377 0.0
C1550 C 0.09131 0.94621 0.76425 0.0
C1551 C 0.09287 0.95036 0.68059 0.0
H1552 H 0.83697 0.34485 0.49232 0.0
H1553 H 0.80145 0.32076 0.56688 0.0
H1554 H 0.79403 0.31926 0.42078 0.0
H1555 H 0.79745 0.32481 0.27162 0.0
H1556 H 0.83292 0.34881 0.19594 0.0
H1557 H 0.84069 0.34996 0.3421 0.0
C1558 C 0.82769 0.33913 0.47681 0.0
C1559 C 0.81978 0.333 0.54151 0.0
C1560 C 0.82348 0.33822 0.39205 0.0
C1561 C 0.80767 0.32579 0.51936 0.0
C1562 C 0.80344 0.32485 0.43543 0.0
C1563 C 0.80683 0.33038 0.28689 0.0
C1564 C 0.81453 0.33676 0.2223 0.0
C1565 C 0.8112 0.33109 0.37129 0.0
C1566 C 0.82683 0.34369 0.24378 0.0
C1567 C 0.83125 0.34442 0.32763 0.0
H1568 H 0.13995 0.63441 0.23378 0.0
H1569 H 0.17048 0.61458 0.07831 0.0
H1570 H 0.15491 0.59467 0.05828 0.0
H1571 H 0.13125 0.58426 0.07349 0.0
H1572 H 0.10141 0.60522 0.23023 0.0
H1573 H 0.11806 0.62319 0.2618 0.0
C1574 C 0.14328 0.62563 0.19644 0.0
C1575 C 0.15621 0.62596 0.15688 0.0
C1576 C 0.1343 0.61445 0.18489 0.0
C1577 C 0.16053 0.61449 0.10957 0.0
C1578 C 0.15159 0.60318 0.09767 0.0
C1579 C 0.12854 0.59265 0.11555 0.0
C1580 C 0.115 0.59352 0.14807 0.0
C1581 C 0.13824 0.60321 0.13323 0.0
C1582 C 0.11164 0.60443 0.20284 0.0
C1583 C 0.12116 0.61473 0.22126 0.0
H1584 H 0.62728 0.91385 0.43063 0.0
H1585 H 0.59968 0.88795 0.28629 0.0
H1586 H 0.61763 0.8707 0.27046 0.0
H1587 H 0.64004 0.8616 0.31032 0.0
H1588 H 0.66837 0.88646 0.45424 0.0
H1589 H 0.65148 0.90553 0.45637 0.0
C1590 C 0.62533 0.90453 0.39465 0.0
C1591 C 0.61204 0.90209 0.36121 0.0
C1592 C 0.6358 0.89442 0.38604 0.0
C1593 C 0.60969 0.89 0.31428 0.0
C1594 C 0.61997 0.88009 0.30485 0.0
C1595 C 0.64261 0.87131 0.34087 0.0
C1596 C 0.65531 0.87265 0.38254 0.0
C1597 C 0.63288 0.882 0.34253 0.0
C1598 C 0.65863 0.88526 0.42131 0.0
C1599 C 0.64893 0.89609 0.42314 0.0
H1600 H 0.35132 0.35732 0.72398 0.0
H1601 H 0.32486 0.3771 0.54265 0.0
H1602 H 0.34085 0.39691 0.53529 0.0
H1603 H 0.36415 0.40696 0.56805 0.0
H1604 H 0.39006 0.38605 0.74905 0.0
H1605 H 0.37248 0.36849 0.76991 0.0
C1606 C 0.34893 0.36612 0.68416 0.0
C1607 C 0.33708 0.3658 0.63358 0.0
C1608 C 0.35817 0.37722 0.67971 0.0
C1609 C 0.33395 0.37723 0.58251 0.0
C1610 C 0.34315 0.38847 0.57784 0.0
C1611 C 0.36575 0.39871 0.61319 0.0
C1612 C 0.37848 0.39766 0.65583 0.0
C1613 C 0.35556 0.38837 0.62424 0.0
C1614 C 0.38046 0.38694 0.71427 0.0
C1615 C 0.3704 0.37688 0.72644 0.0
H1616 H 0.87037 0.09197 0.7679 0.0
H1617 H 0.87621 0.08357 0.03189 0.0
H1618 H 0.85694 0.09892 0.0667 0.0
H1619 H 0.84085 0.11732 0.02257 0.0
H1620 H 0.83421 0.12499 0.75858 0.0
H1621 H 0.85118 0.10713 0.72272 0.0
C1622 C 0.86717 0.09328 0.83284 0.0
C1623 C 0.87475 0.08683 0.8974 0.0
C1624 C 0.85603 0.10203 0.85221 0.0
C1625 C 0.87049 0.08843 0.98124 0.0
C1626 C 0.85955 0.09727 1.00116 0.0
C1627 C 0.84287 0.11478 0.95724 0.0
C1628 C 0.83644 0.12247 0.8932 0.0
C1629 C 0.85258 0.1045 0.93733 0.0
C1630 C 0.83901 0.11911 0.80877 0.0
C1631 C 0.8488 0.10901 0.78835 0.0
H1632 H 0.13873 0.36274 0.81037 0.0
H1633 H 0.16945 0.38513 0.95114 0.0
H1634 H 0.15342 0.40479 0.96582 0.0
H1635 H 0.12944 0.41443 0.94998 0.0
H1636 H 0.0995 0.39094 0.80761 0.0
H1637 H 0.11642 0.37303 0.7818 0.0
C1638 C 0.14199 0.37201 0.84344 0.0
C1639 C 0.15513 0.37248 0.88044 0.0
C1640 C 0.13276 0.38305 0.85192 0.0
C1641 C 0.15935 0.38458 0.922 0.0
C1642 C 0.15014 0.39575 0.93086 0.0
C1643 C 0.12675 0.40548 0.91238 0.0
C1644 C 0.11311 0.40393 0.88229 0.0
C1645 C 0.13664 0.39496 0.89785 0.0
C1646 C 0.10979 0.3923 0.83317 0.0
C1647 C 0.11948 0.38202 0.818 0.0
H1648 H 0.8693 0.91037 0.0299 0.0
H1649 H 0.87216 0.90597 0.29875 0.0
H1650 H 0.85188 0.89082 0.29919 0.0
H1651 H 0.83659 0.87523 0.21977 0.0
H1652 H 0.836 0.87726 0.94935 0.0
H1653 H 0.85176 0.89705 0.95196 0.0
C1654 C 0.86507 0.90652 0.08864 0.0
C1655 C 0.87198 0.90935 0.1643 0.0
C1656 C 0.85389 0.89721 0.08763 0.0
C1657 C 0.86681 0.904 0.24005 0.0
C1658 C 0.85531 0.89526 0.24015 0.0
C1659 C 0.83947 0.88045 0.16191 0.0
C1660 C 0.83504 0.87505 0.08456 0.0
C1661 C 0.84918 0.89128 0.16392 0.0
C1662 C 0.83916 0.88147 1.00952 0.0
C1663 C 0.84828 0.89268 1.01105 0.0
H1664 H 0.33821 0.61504 0.27314 0.0
H1665 H 0.34797 0.62276 0.53355 0.0
H1666 H 0.36386 0.60319 0.5348 0.0
H1667 H 0.37779 0.58651 0.45604 0.0
H1668 H 0.36995 0.57995 0.19273 0.0
H1669 H 0.35041 0.59615 0.19795 0.0
C1670 C 0.34353 0.61213 0.33055 0.0
C1671 C 0.342 0.62031 0.40308 0.0
C1672 C 0.3531 0.60113 0.32989 0.0
C1673 C 0.34908 0.61663 0.47691 0.0
C1674 C 0.35819 0.60547 0.47763 0.0
C1675 C 0.37143 0.58828 0.40078 0.0
C1676 C 0.37502 0.58195 0.32459 0.0
C1677 C 0.36068 0.598 0.40372 0.0
C1678 C 0.36709 0.58455 0.2524 0.0
C1679 C 0.35605 0.59392 0.25528 0.0
H1680 H 0.61991 0.10403 0.4603 0.0
H1681 H 0.64032 0.0813 0.65703 0.0
H1682 H 0.65946 0.09808 0.65652 0.0
H1683 H 0.66832 0.12135 0.61406 0.0
H1684 H 0.64691 0.1437 0.41844 0.0
H1685 H 0.63044 0.1249 0.40317 0.0
C1686 C 0.62877 0.10256 0.50125 0.0
C1687 C 0.6288 0.09155 0.55849 0.0
C1688 C 0.63949 0.1123 0.50134 0.0
C1689 C 0.64022 0.08968 0.61177 0.0
C1690 C 0.65107 0.09935 0.61201 0.0
C1691 C 0.66027 0.12187 0.56668 0.0
C1692 C 0.65869 0.13398 0.51835 0.0
C1693 C 0.65055 0.11102 0.55916 0.0
C1694 C 0.6482 0.13458 0.45729 0.0
C1695 C 0.63875 0.12384 0.44848 0.0
H1696 H 0.84097 0.37886 0.02096 0.0
H1697 H 0.8344 0.37082 0.75755 0.0
H1698 H 0.85029 0.38957 0.72045 0.0
H1699 H 0.86908 0.40538 0.76466 0.0
H1700 H 0.87471 0.41427 0.02788 0.0
H1701 H 0.85599 0.39828 0.06396 0.0
C1702 C 0.84265 0.38161 0.95557 0.0
C1703 C 0.83659 0.37356 0.89196 0.0
C1704 C 0.85174 0.39243 0.93494 0.0
C1705 C 0.83885 0.37704 0.80736 0.0
C1706 C 0.84806 0.38764 0.78623 0.0
C1707 C 0.86582 0.40416 0.82952 0.0
C1708 C 0.87315 0.41093 0.89369 0.0
C1709 C 0.85499 0.39501 0.84957 0.0
C1710 C 0.86902 0.40925 0.97766 0.0
C1711 C 0.85843 0.40001 0.99827 0.0
H1712 H 0.37822 0.09316 0.77744 0.0
H1713 H 0.38046 0.08096 0.51717 0.0
H1714 H 0.36022 0.09522 0.48475 0.0
H1715 H 0.34413 0.11377 0.52755 0.0
H1716 H 0.34085 0.12484 0.78923 0.0
H1717 H 0.35908 0.10823 0.82486 0.0
C1718 C 0.37399 0.09335 0.71422 0.0
C1719 C 0.38077 0.08613 0.64958 0.0
C1720 C 0.36227 0.10143 0.69641 0.0
C1721 C 0.37529 0.08637 0.56787 0.0
C1722 C 0.36381 0.09461 0.54925 0.0
C1723 C 0.34716 0.11221 0.59259 0.0
C1724 C 0.34129 0.12049 0.65576 0.0
C1725 C 0.35752 0.10256 0.61249 0.0
C1726 C 0.3452 0.11845 0.73986 0.0
C1727 C 0.3557 0.10907 0.76004 0.0
H1728 H 0.62429 0.60049 0.31747 0.0
H1729 H 0.62314 0.58991 0.58057 0.0
H1730 H 0.64268 0.60541 0.60799 0.0
H1731 H 0.65777 0.62441 0.55926 0.0
H1732 H 0.66 0.63387 0.29477 0.0
H1733 H 0.64252 0.6162 0.26482 0.0
C1734 C 0.62863 0.60131 0.38022 0.0
C1735 C 0.62238 0.59418 0.4471 0.0
C1736 C 0.63993 0.61011 0.3951 0.0
C1737 C 0.62795 0.59525 0.52828 0.0
C1738 C 0.63901 0.6042 0.54398 0.0
C1739 C 0.65466 0.6223 0.49494 0.0
C1740 C 0.66 0.63041 0.42925 0.0
C1741 C 0.64476 0.61203 0.47832 0.0
C1742 C 0.65603 0.62765 0.34606 0.0
C1743 C 0.64597 0.61764 0.3291 0.0
H1744 H 0.14331 0.86617 0.05854 0.0
H1745 H 0.16397 0.88018 0.28279 0.0
H1746 H 0.14989 0.90134 0.28269 0.0
H1747 H 0.12909 0.91392 0.22984 0.0
H1748 H 0.10862 0.89911 1.00657 0.0
H1749 H 0.12536 0.88036 0.99382 0.0
C1750 C 0.14492 0.87402 0.10633 0.0
C1751 C 0.15448 0.87163 0.17109 0.0
C1752 C 0.13677 0.88599 0.10596 0.0
C1753 C 0.15665 0.88187 0.23225 0.0
C1754 C 0.14853 0.8939 0.23246 0.0
C1755 C 0.12867 0.90685 0.17697 0.0
C1756 C 0.11776 0.90784 0.11883 0.0
C1757 C 0.1382 0.89584 0.17122 0.0
C1758 C 0.11704 0.89852 0.05144 0.0
C1759 C 0.12653 0.88775 0.04455 0.0
H1760 H 0.8722 0.58892 0.27996 0.0
H1761 H 0.87839 0.58431 1.01322 0.0
H1762 H 0.86 0.60108 0.98524 0.0
H1763 H 0.84498 0.61978 0.0382 0.0
H1764 H 0.83786 0.62367 0.30453 0.0
H1765 H 0.85356 0.60429 0.33181 0.0
C1766 C 0.86911 0.59124 0.21588 0.0
C1767 C 0.87649 0.58543 0.14858 0.0
C1768 C 0.8585 0.60087 0.20048 0.0
C1769 C 0.87265 0.58857 0.06568 0.0
C1770 C 0.86225 0.59825 0.04979 0.0
C1771 C 0.84655 0.61604 0.10186 0.0
C1772 C 0.84039 0.62307 0.16937 0.0
C1773 C 0.8555 0.60486 0.11678 0.0
C1774 C 0.84244 0.61827 0.25173 0.0
C1775 C 0.85151 0.60729 0.26731 0.0
H1776 H 0.16234 0.11842 0.94172 0.0
H1777 H 0.14191 0.14447 0.76008 0.0
H1778 H 0.12427 0.12686 0.73739 0.0
H1779 H 0.11329 0.10541 0.77968 0.0
H1780 H 0.13244 0.07923 0.96571 0.0
H1781 H 0.15204 0.09534 0.97551 0.0
C1782 C 0.15417 0.12002 0.89604 0.0
C1783 C 0.15334 0.13267 0.85253 0.0
C1784 C 0.14378 0.10991 0.88484 0.0
C1785 C 0.14267 0.13479 0.79421 0.0
C1786 C 0.13258 0.12476 0.7814 0.0
C1787 C 0.12181 0.10312 0.82186 0.0
C1788 C 0.12133 0.09125 0.87267 0.0
C1789 C 0.1328 0.11249 0.82809 0.0
C1790 C 0.13256 0.08833 0.92597 0.0
C1791 C 0.14372 0.09758 0.93191 0.0
H1792 H 0.61309 0.40157 0.79391 0.0
H1793 H 0.62852 0.42476 0.5824 0.0
H1794 H 0.64898 0.40975 0.57595 0.0
H1795 H 0.66044 0.38771 0.61755 0.0
H1796 H 0.64406 0.36448 0.82624 0.0
H1797 H 0.62614 0.38189 0.84797 0.0
C1798 C 0.62108 0.4035 0.74743 0.0
C1799 C 0.61927 0.41409 0.68801 0.0
C1800 C 0.63261 0.39476 0.74357 0.0
C1801 C 0.62973 0.41664 0.6288 0.0
C1802 C 0.64136 0.408 0.62477 0.0
C1803 C 0.65321 0.38679 0.66939 0.0
C1804 C 0.65353 0.37497 0.7208 0.0
C1805 C 0.64266 0.39671 0.67997 0.0
C1806 C 0.644 0.37361 0.78668 0.0
C1807 C 0.63371 0.3835 0.79864 0.0
H1808 H 0.36342 0.90458 0.28179 0.0
H1809 H 0.3744 0.90485 0.5444 0.0
H1810 H 0.35686 0.88719 0.57331 0.0
H1811 H 0.34104 0.86918 0.51873 0.0
H1812 H 0.32904 0.86991 0.25782 0.0
H1813 H 0.34415 0.88984 0.23297 0.0
C1814 C 0.36163 0.90106 0.34567 0.0
C1815 C 0.37014 0.90589 0.41095 0.0
C1816 C 0.35146 0.89101 0.36168 0.0
C1817 C 0.36783 0.90132 0.49352 0.0
C1818 C 0.35791 0.89113 0.50981 0.0
C1819 C 0.34146 0.87402 0.45718 0.0
C1820 C 0.33406 0.86817 0.39 0.0
C1821 C 0.35005 0.88554 0.44379 0.0
C1822 C 0.3346 0.87439 0.31038 0.0
C1823 C 0.34332 0.88568 0.2961 0.0
H1824 H 0.10743 0.48331 0.86753 0.0
H1825 H 0.10104 0.46597 0.11416 0.0
H1826 H 0.10261 0.48895 0.1771 0.0
H1827 H 0.10448 0.51423 0.16114 0.0
H1828 H 0.10803 0.53182 0.91317 0.0
H1829 H 0.10896 0.50865 0.85134 0.0
C1830 C 0.10658 0.4846 0.93512 0.0
C1831 C 0.10428 0.47298 0.98636 0.0
C1832 C 0.10693 0.49793 0.97043 0.0
C1833 C 0.10285 0.47475 0.07358 0.0
C1834 C 0.10374 0.4879 0.10957 0.0
C1835 C 0.10568 0.51292 0.09374 0.0
C1836 C 0.10638 0.52462 0.04164 0.0
C1837 C 0.10561 0.49958 0.05855 0.0
C1838 C 0.10754 0.52291 0.95427 0.0
C1839 C 0.10805 0.50968 0.919 0.0
H1840 H 0.72829 0.8265 0.21648 0.0
H1841 H 0.72308 0.86264 0.37225 0.0
H1842 H 0.74733 0.86897 0.34834 0.0
H1843 H 0.77021 0.86386 0.28424 0.0
H1844 H 0.77473 0.82706 0.13257 0.0
H1845 H 0.75058 0.82143 0.15415 0.0
C1846 C 0.73237 0.83581 0.24517 0.0
C1847 C 0.72383 0.84409 0.296 0.0
C1848 C 0.74627 0.83927 0.23202 0.0
C1849 C 0.72941 0.85607 0.33279 0.0
C1850 C 0.74329 0.85969 0.31917 0.0
C1851 C 0.76589 0.85464 0.25578 0.0
C1852 C 0.77436 0.84595 0.20664 0.0
C1853 C 0.75185 0.85131 0.26908 0.0
C1854 C 0.76856 0.83399 0.17065 0.0
C1855 C 0.75469 0.83072 0.18288 0.0
H1856 H 0.40426 0.51619 0.53325 0.0
H1857 H 0.40498 0.51139 0.26396 0.0
H1858 H 0.40029 0.48668 0.27826 0.0
H1859 H 0.40065 0.46608 0.36789 0.0
H1860 H 0.39976 0.47054 0.63746 0.0
H1861 H 0.39954 0.4957 0.62309 0.0
C1862 C 0.40278 0.50979 0.47796 0.0
C1863 C 0.40486 0.51549 0.39769 0.0
C1864 C 0.40035 0.4955 0.48689 0.0
C1865 C 0.40324 0.50716 0.3262 0.0
C1866 C 0.40071 0.49302 0.33443 0.0
C1867 C 0.40002 0.47257 0.42343 0.0
C1868 C 0.40061 0.46649 0.50362 0.0
C1869 C 0.39995 0.487 0.41451 0.0
C1870 C 0.39953 0.47496 0.57507 0.0
C1871 C 0.39947 0.48938 0.56682 0.0
H1872 H 0.77208 0.16711 0.65605 0.0
H1873 H 0.77091 0.14263 0.88275 0.0
H1874 H 0.74685 0.13624 0.85314 0.0
H1875 H 0.72558 0.13907 0.76703 0.0
H1876 H 0.72736 0.16403 0.54226 0.0
H1877 H 0.75173 0.16871 0.56677 0.0
C1878 C 0.76661 0.16034 0.69906 0.0
C1879 C 0.77323 0.1555 0.77203 0.0
C1880 C 0.75284 0.15682 0.68197 0.0
C1881 C 0.76603 0.14654 0.82622 0.0
C1882 C 0.75226 0.14291 0.8094 0.0
C1883 C 0.73138 0.14534 0.72287 0.0
C1884 C 0.72461 0.15131 0.65329 0.0
C1885 C 0.74547 0.14817 0.73802 0.0
C1886 C 0.73225 0.15949 0.59687 0.0
C1887 C 0.74621 0.16216 0.61075 0.0
H1888 H 0.89617 0.47036 0.06922 0.0
H1889 H 0.89389 0.48393 0.81136 0.0
H1890 H 0.89474 0.50811 0.85686 0.0
H1891 H 0.89643 0.52538 0.97055 0.0
H1892 H 0.89628 0.51182 0.22879 0.0
H1893 H 0.89605 0.48764 0.18317 0.0
C1894 C 0.89582 0.47864 0.02327 0.0
C1895 C 0.89503 0.47546 0.93726 0.0
C1896 C 0.89587 0.49248 0.05007 0.0
C1897 C 0.89441 0.48621 0.87802 0.0
C1898 C 0.89495 0.5 0.90395 0.0
C1899 C 0.89631 0.51709 1.01653 0.0
C1900 C 0.89644 0.52027 0.10267 0.0
C1901 C 0.89573 0.50326 0.98981 0.0
C1902 C 0.89611 0.50953 0.16207 0.0
C1903 C 0.89603 0.49574 0.13605 0.0
H1904 H 0.23233 0.13657 0.87127 0.0
H1905 H 0.21268 0.15822 0.66595 0.0
H1906 H 0.23464 0.15982 0.59247 0.0
H1907 H 0.25951 0.1566 0.59007 0.0
H1908 H 0.28006 0.13643 0.79758 0.0
H1909 H 0.25769 0.13266 0.86634 0.0
C1910 C 0.23286 0.14146 0.80993 0.0
C1911 C 0.22085 0.14723 0.77408 0.0
C1912 C 0.2457 0.14271 0.7687 0.0
C1913 C 0.22172 0.15369 0.69505 0.0
C1914 C 0.2343 0.15464 0.65294 0.0
C1915 C 0.25916 0.15126 0.65005 0.0
C1916 C 0.27148 0.14687 0.68869 0.0
C1917 C 0.24637 0.14942 0.68979 0.0
C1918 C 0.27074 0.13997 0.76645 0.0
C1919 C 0.25795 0.13783 0.80587 0.0
H1920 H 0.60353 0.48956 0.70184 0.0
H1921 H 0.59976 0.47054 0.45787 0.0
H1922 H 0.60096 0.49326 0.39013 0.0
H1923 H 0.60228 0.51869 0.40098 0.0
H1924 H 0.60337 0.53772 0.64579 0.0
H1925 H 0.60403 0.51497 0.71289 0.0
C1926 C 0.60312 0.49044 0.63384 0.0
C1927 C 0.60173 0.47847 0.5846 0.0
C1928 C 0.60327 0.50355 0.59573 0.0
C1929 C 0.60087 0.47966 0.49674 0.0
C1930 C 0.60156 0.49263 0.45811 0.0
C1931 C 0.60278 0.51778 0.46895 0.0
C1932 C 0.6029 0.52978 0.51863 0.0
C1933 C 0.60265 0.50466 0.507 0.0
C1934 C 0.60325 0.52859 0.60656 0.0
C1935 C 0.60366 0.51559 0.64485 0.0
H1936 H 0.25946 0.84561 0.43793 0.0
H1937 H 0.27763 0.85098 0.19277 0.0
H1938 H 0.2546 0.85282 0.12953 0.0
H1939 H 0.2292 0.85251 0.14417 0.0
H1940 H 0.21117 0.84448 0.38722 0.0
H1941 H 0.23411 0.84411 0.45142 0.0
C1942 C 0.2583 0.84726 0.37077 0.0
C1943 C 0.27011 0.84828 0.31989 0.0
C1944 C 0.24505 0.84784 0.33471 0.0
C1945 C 0.26862 0.85014 0.23283 0.0
C1946 C 0.25547 0.85123 0.19682 0.0
C1947 C 0.23033 0.85079 0.21126 0.0
C1948 C 0.21852 0.84874 0.26121 0.0
C1949 C 0.2436 0.85005 0.24712 0.0
C1950 C 0.2201 0.84618 0.34765 0.0
C1951 C 0.23322 0.84596 0.38437 0.0
H1952 H 0.61 0.98168 0.37727 0.0
H1953 H 0.5868 0.96317 0.58014 0.0
H1954 H 0.58548 0.98534 0.65132 0.0
H1955 H 0.58968 0.01014 0.6532 0.0
H1956 H 0.61164 0.02947 0.44827 0.0
H1957 H 0.61468 0.0069 0.38096 0.0
C1958 C 0.60481 0.9825 0.4375 0.0
C1959 C 0.59856 0.97072 0.47334 0.0
C1960 C 0.60375 0.99547 0.47753 0.0
C1961 C 0.59172 0.972 0.551 0.0
C1962 C 0.59092 0.98472 0.59184 0.0
C1963 C 0.59523 0.00946 0.59409 0.0
C1964 C 0.60039 0.02152 0.55589 0.0
C1965 C 0.59672 0.99654 0.55519 0.0
C1966 C 0.60752 0.02037 0.47907 0.0
C1967 C 0.60926 0.00746 0.4405 0.0
H1968 H 0.22484 0.33506 0.80193 0.0
H1969 H 0.22324 0.37964 0.80098 0.0
H1970 H 0.24692 0.3806 0.74776 0.0
H1971 H 0.26815 0.36878 0.70187 0.0
H1972 H 0.26987 0.3242 0.707 0.0
H1973 H 0.24613 0.32326 0.75831 0.0
C1974 C 0.22963 0.34499 0.78968 0.0
C1975 C 0.22224 0.35725 0.80506 0.0
C1976 C 0.24332 0.34547 0.7601 0.0
C1977 C 0.2287 0.37003 0.78986 0.0
C1978 C 0.24224 0.3706 0.75931 0.0
C1979 C 0.26332 0.35885 0.71409 0.0
C1980 C 0.27082 0.34658 0.70061 0.0
C1981 C 0.24966 0.35838 0.74428 0.0
C1982 C 0.26442 0.33382 0.71737 0.0
C1983 C 0.2508 0.33326 0.74645 0.0
H1984 H 0.88872 0.98479 0.14634 0.0
H1985 H 0.91196 0.96178 0.96159 0.0
H1986 H 0.91705 0.98293 0.88547 0.0
H1987 H 0.91584 0.00798 0.8736 0.0
H1988 H 0.89349 0.03161 0.05931 0.0
H1989 H 0.88714 0.01026 0.13248 0.0
C1990 C 0.89479 0.98442 0.08904 0.0
C1991 C 0.89995 0.97168 0.05994 0.0
C1992 C 0.89793 0.99676 0.04588 0.0
C1993 C 0.9079 0.9714 0.98586 0.0
C1994 C 0.91084 0.98352 0.94208 0.0
C1995 C 0.90952 0.00851 0.92985 0.0
C1996 C 0.90519 0.0214 0.96089 0.0
C1997 C 0.90606 0.99626 0.97198 0.0
C1998 C 0.89701 0.02183 0.03401 0.0
C1999 C 0.89337 0.00962 0.07595 0.0
H2000 H 0.26173 0.65844 0.42155 0.0
H2001 H 0.28315 0.6379 0.21894 0.0
H2002 H 0.26099 0.63267 0.1513 0.0
H2003 H 0.23545 0.63516 0.14631 0.0
H2004 H 0.21478 0.65671 0.34814 0.0
H2005 H 0.2367 0.66019 0.41951 0.0
C2006 C 0.26162 0.65275 0.36278 0.0
C2007 C 0.27412 0.64865 0.32524 0.0
C2008 C 0.24892 0.64995 0.32394 0.0
C2009 C 0.27369 0.64123 0.24921 0.0
C2010 C 0.26101 0.63824 0.21043 0.0
C2011 C 0.23575 0.64045 0.2064 0.0
C2012 C 0.22345 0.64566 0.24169 0.0
C2013 C 0.24854 0.64271 0.24673 0.0
C2014 C 0.22404 0.65262 0.31927 0.0
C2015 C 0.2366 0.65464 0.36025 0.0
H2016 H 0.39203 0.01232 0.64966 0.0
H2017 H 0.41217 0.03264 0.44146 0.0
H2018 H 0.41313 0.011 0.36449 0.0
H2019 H 0.40944 0.98618 0.35842 0.0
H2020 H 0.38996 0.96508 0.56623 0.0
H2021 H 0.38741 0.9871 0.64064 0.0
C2022 C 0.3965 0.012 0.58714 0.0
C2023 C 0.40218 0.02409 0.55184 0.0
C2024 C 0.39717 -0.00064 0.54317 0.0
C2025 C 0.40797 0.0235 0.47088 0.0
C2026 C 0.40846 0.0111 0.42649 0.0
C2027 C 0.40453 0.98634 0.41974 0.0
C2028 C 0.4 0.97394 0.4568 0.0
C2029 C 0.40329 -0.00105 0.46248 0.0
C2030 C 0.39362 0.97444 0.53628 0.0
C2031 C 0.39217 0.98705 0.57895 0.0
H2032 H 0.74228 0.66496 0.46493 0.0
H2033 H 0.71813 0.644 0.27559 0.0
H2034 H 0.73935 0.63744 0.20164 0.0
H2035 H 0.76486 0.63871 0.18744 0.0
H2036 H 0.78832 0.66096 0.37472 0.0
H2037 H 0.76732 0.66582 0.45287 0.0
C2038 C 0.7416 0.65886 0.40782 0.0
C2039 C 0.72861 0.65501 0.37589 0.0
C2040 C 0.75378 0.65535 0.36507 0.0
C2041 C 0.728 0.64715 0.30155 0.0
C2042 C 0.74013 0.64339 0.25919 0.0
C2043 C 0.76536 0.64448 0.24585 0.0
C2044 C 0.77818 0.64942 0.27517 0.0
C2045 C 0.7531 0.64758 0.28988 0.0
C2046 C 0.77864 0.65702 0.35051 0.0
C2047 C 0.7666 0.65985 0.39535 0.0
H2048 H 0.11928 0.98248 0.13649 0.0
H2049 H 0.08396 0.97234 0.98226 0.0
H2050 H 0.08257 0.9962 0.93397 0.0
H2051 H 0.09077 0.02013 0.93913 0.0
H2052 H 0.12617 0.03046 0.09211 0.0
H2053 H 0.12816 0.00637 0.13663 0.0
C2054 C 0.11134 0.98546 0.09182 0.0
C2055 C 0.10164 0.97562 0.06396 0.0
C2056 C 0.11057 -0.00073 0.06416 0.0
C2057 C 0.09144 0.9797 1.00586 0.0
C2058 C 0.09065 0.99336 0.97794 0.0
C2059 C 0.09896 0.01713 0.98202 0.0
C2060 C 0.10826 0.02715 1.01249 0.0
C2061 C 0.10005 0.00327 1.00745 0.0
C2062 C 0.11885 0.023 0.06763 0.0
C2063 C 0.11999 0.00921 0.09327 0.0
H2064 H 0.73467 0.33278 0.64287 0.0
H2065 H 0.71657 0.36344 0.80602 0.0
H2066 H 0.73929 0.36795 0.8689 0.0
H2067 H 0.76434 0.36278 0.87855 0.0
H2068 H 0.78145 0.33062 0.72162 0.0
H2069 H 0.75914 0.32721 0.655 0.0
C2070 C 0.73568 0.34054 0.69178 0.0
C2071 C 0.72397 0.34786 0.71917 0.0
C2072 C 0.74864 0.34282 0.72871 0.0
C2073 C 0.72544 0.35769 0.78367 0.0
C2074 C 0.73843 0.36026 0.81957 0.0
C2075 C 0.7632 0.35509 0.82938 0.0
C2076 C 0.77469 0.34714 0.80432 0.0
C2077 C 0.75012 0.35285 0.79272 0.0
C2078 C 0.77293 0.33705 0.74155 0.0
C2079 C 0.76011 0.33503 0.70348 0.0
H2080 H 0.02149 0.57208 0.04478 0.0
H2081 H 0.0261 0.52823 0.08403 0.0
H2082 H 0.00088 0.52563 0.09009 0.0
H2083 H 0.97755 0.53629 0.09571 0.0
H2084 H 0.97359 0.58033 0.05917 0.0
H2085 H 0.99852 0.5824 0.04176 0.0
C2086 C 0.01699 0.56194 0.0547 0.0
C2087 C 0.02565 0.5504 0.06515 0.0
C2088 C 0.00259 0.56059 0.05951 0.0
C2089 C 0.01965 0.53728 0.07574 0.0
C2090 C 0.00524 0.53581 0.07978 0.0
C2091 C 0.98216 0.54629 0.08297 0.0
C2092 C 0.97374 0.55817 0.08015 0.0
C2093 C 0.9966 0.54745 0.0734 0.0
C2094 C 0.97986 0.57108 0.06354 0.0
C2095 C 0.99411 0.57227 0.05312 0.0
H2096 H 0.68728 0.73097 0.5482 0.0
H2097 H 0.7064 0.72833 0.30312 0.0
H2098 H 0.70801 0.75341 0.29683 0.0
H2099 H 0.70254 0.77631 0.35621 0.0
H2100 H 0.68143 0.77898 0.59418 0.0
H2101 H 0.68188 0.75374 0.60757 0.0
C2102 C 0.69172 0.73583 0.49304 0.0
C2103 C 0.69671 0.72762 0.4264 0.0
C2104 C 0.69221 0.75034 0.4884 0.0
C2105 C 0.70269 0.73424 0.3563 0.0
C2106 C 0.7035 0.74865 0.35214 0.0
C2107 C 0.69823 0.77131 0.41139 0.0
C2108 C 0.69204 0.77938 0.47441 0.0
C2109 C 0.69815 0.75681 0.4173 0.0
C2110 C 0.68626 0.77289 0.5451 0.0
C2111 C 0.68649 0.75849 0.5526 0.0
H2112 H 0.47349 0.4547 0.66445 0.0
H2113 H 0.47259 0.415 0.54029 0.0
H2114 H 0.49766 0.41524 0.52838 0.0
H2115 H 0.51992 0.42622 0.55684 0.0
H2116 H 0.52126 0.46596 0.67928 0.0
H2117 H 0.49595 0.4664 0.68577 0.0
C2118 C 0.47876 0.44618 0.63392 0.0
C2119 C 0.47111 0.43475 0.60461 0.0
C2120 C 0.49327 0.44641 0.62654 0.0
C2121 C 0.47818 0.42378 0.56546 0.0
C2122 C 0.49254 0.42394 0.55795 0.0
C2123 C 0.51467 0.43498 0.58501 0.0
C2124 C 0.52245 0.44597 0.61825 0.0
C2125 C 0.50019 0.4351 0.58918 0.0
C2126 C 0.5155 0.45739 0.65292 0.0
C2127 C 0.50103 0.4576 0.65715 0.0
H2128 H 0.79622 0.27043 0.96484 0.0
H2129 H 0.83099 0.27163 0.79491 0.0
H2130 H 0.83201 0.24644 0.7944 0.0
H2131 H 0.82317 0.22412 0.84213 0.0
H2132 H 0.78866 0.22256 1.01381 0.0
H2133 H 0.7872 0.24781 1.0122 0.0
C2134 C 0.80393 0.26516 0.92717 0.0
C2135 C 0.81356 0.27292 0.88035 0.0
C2136 C 0.80449 0.25062 0.92729 0.0
C2137 C 0.82358 0.26593 0.83248 0.0
C2138 C 0.82414 0.25152 0.83183 0.0
C2139 C 0.81542 0.22928 0.88004 0.0
C2140 C 0.80611 0.22142 0.92847 0.0
C2141 C 0.81472 0.24377 0.8794 0.0
C2142 C 0.79591 0.22832 0.97547 0.0
C2143 C 0.79511 0.24278 0.97491 0.0
H2144 H 0.97489 0.45926 0.93688 0.0
H2145 H 0.972 0.41492 0.96223 0.0
H2146 H 0.99703 0.41329 0.97524 0.0
H2147 H 0.01976 0.42416 0.97286 0.0
H2148 H 0.02327 0.46836 0.94549 0.0
H2149 H 0.99799 0.4704 0.94235 0.0
C2150 C 0.97975 0.44927 0.94617 0.0
C2151 C 0.97158 0.4372 0.94719 0.0
C2152 C 0.99425 0.44838 0.95345 0.0
C2153 C 0.97805 0.42433 0.95925 0.0
C2154 C 0.99236 0.42339 0.96721 0.0
C2155 C 0.015 0.43425 0.96603 0.0
C2156 C 0.02338 0.44607 0.9582 0.0
C2157 C 0.00056 0.4353 0.963 0.0
C2158 C 0.01705 0.4591 0.95169 0.0
C2159 C 0.0026 0.46026 0.94933 0.0
H2160 H 0.79589 0.76998 0.1389 0.0
H2161 H 0.84026 0.77495 0.14677 0.0
H2162 H 0.84313 0.75004 0.15948 0.0
H2163 H 0.83314 0.72678 0.17042 0.0
H2164 H 0.78884 0.72177 0.16876 0.0
H2165 H 0.78587 0.74676 0.15399 0.0
C2166 C 0.80619 0.76566 0.14427 0.0
C2167 C 0.81782 0.77442 0.14103 0.0
C2168 C 0.8078 0.75129 0.1533 0.0
C2169 C 0.83109 0.76852 0.14707 0.0
C2170 C 0.83277 0.75424 0.15513 0.0
C2171 C 0.82284 0.73116 0.16633 0.0
C2172 C 0.81123 0.72244 0.17043 0.0
C2173 C 0.82121 0.74553 0.1582 0.0
C2174 C 0.79794 0.72828 0.16643 0.0
C2175 C 0.79624 0.74256 0.15757 0.0
H2176 H 0.47528 0.55989 0.5038 0.0
H2177 H 0.47728 0.55281 0.23566 0.0
H2178 H 0.50241 0.55364 0.24114 0.0
H2179 H 0.52391 0.55684 0.32116 0.0
H2180 H 0.52209 0.56259 0.58982 0.0
H2181 H 0.49681 0.56135 0.58534 0.0
C2182 C 0.48116 0.55827 0.44662 0.0
C2183 C 0.47425 0.55645 0.36924 0.0
C2184 C 0.49568 0.55846 0.45032 0.0
C2185 C 0.4822 0.55459 0.29588 0.0
C2186 C 0.49662 0.55494 0.29895 0.0
C2187 C 0.51795 0.55778 0.37868 0.0
C2188 C 0.52481 0.55988 0.45561 0.0
C2189 C 0.50346 0.557 0.37562 0.0
C2190 C 0.51702 0.56089 0.52992 0.0
C2191 C 0.50258 0.56027 0.52728 0.0
H2192 H 0.67146 0.231 0.66348 0.0
H2193 H 0.71477 0.22927 0.59997 0.0
H2194 H 0.71642 0.25444 0.61281 0.0
H2195 H 0.7052 0.27708 0.63581 0.0
H2196 H 0.66185 0.27841 0.69981 0.0
H2197 H 0.66054 0.25331 0.69149 0.0
C2198 C 0.68125 0.23613 0.65197 0.0
C2199 C 0.69294 0.22828 0.63009 0.0
C2200 C 0.6821 0.25057 0.65888 0.0
C2201 C 0.70563 0.23507 0.61731 0.0
C2202 C 0.70656 0.24947 0.62419 0.0
C2203 C 0.69551 0.27186 0.6487 0.0
C2204 C 0.6836 0.27967 0.66718 0.0
C2205 C 0.69482 0.25734 0.64421 0.0
C2206 C 0.67111 0.27272 0.68347 0.0
C2207 C 0.67036 0.25834 0.67931 0.0
H2208 H 0.28816 0.26511 0.62868 0.0
H2209 H 0.3322 0.26993 0.65982 0.0
H2210 H 0.33507 0.2449 0.66503 0.0
H2211 H 0.32522 0.22168 0.65936 0.0
H2212 H 0.2813 0.21645 0.62395 0.0
H2213 H 0.2782 0.24154 0.62342 0.0
C2214 C 0.29834 0.26064 0.63718 0.0
C2215 C 0.30996 0.26935 0.64316 0.0
C2216 C 0.29995 0.24617 0.63943 0.0
C2217 C 0.32312 0.26344 0.65379 0.0
C2218 C 0.32477 0.24913 0.65707 0.0
C2219 C 0.31497 0.22599 0.6504 0.0
C2220 C 0.30353 0.21714 0.64105 0.0
C2221 C 0.31329 0.2404 0.64918 0.0
C2222 C 0.29029 0.22299 0.63185 0.0
C2223 C 0.28852 0.23735 0.63115 0.0
H2224 H 0.16827 0.7242 0.20898 0.0
H2225 H 0.21276 0.72259 0.19541 0.0
H2226 H 0.2139 0.74783 0.20587 0.0
H2227 H 0.20208 0.77046 0.21275 0.0
H2228 H 0.15753 0.77167 0.22731 0.0
H2229 H 0.1566 0.74653 0.22152 0.0
C2230 C 0.17822 0.72938 0.20773 0.0
C2231 C 0.1904 0.72154 0.20054 0.0
C2232 C 0.17878 0.74384 0.21359 0.0
C2233 C 0.20323 0.72838 0.20109 0.0
C2234 C 0.20388 0.74281 0.20675 0.0
C2235 C 0.19219 0.76521 0.21564 0.0
C2236 C 0.17989 0.77298 0.21941 0.0
C2237 C 0.19171 0.75067 0.21241 0.0
C2238 C 0.16715 0.76599 0.22266 0.0
C2239 C 0.16659 0.75159 0.21976 0.0
H2240 H 0.20843 0.27375 0.8503 0.0
H2241 H 0.164 0.27785 0.85198 0.0
H2242 H 0.16145 0.25286 0.84449 0.0
H2243 H 0.17164 0.22981 0.8417 0.0
H2244 H 0.21596 0.22511 0.83998 0.0
H2245 H 0.21876 0.2503 0.84139 0.0
C2246 C 0.19822 0.26915 0.84826 0.0
C2247 C 0.18643 0.27767 0.85318 0.0
C2248 C 0.19679 0.25466 0.8439 0.0
C2249 C 0.17325 0.27154 0.85034 0.0
C2250 C 0.17176 0.25724 0.84558 0.0
C2251 C 0.18193 0.23428 0.84216 0.0
C2252 C 0.19357 0.22559 0.84177 0.0
C2253 C 0.18344 0.2487 0.8435 0.0
C2254 C 0.20682 0.23157 0.84013 0.0
C2255 C 0.20842 0.24598 0.84133 0.0
H2256 H 0.29158 0.72085 0.36984 0.0
H2257 H 0.3358 0.71913 0.33407 0.0
H2258 H 0.33684 0.74424 0.32765 0.0
H2259 H 0.32539 0.76674 0.33438 0.0
H2260 H 0.28122 0.76888 0.36884 0.0
H2261 H 0.27992 0.74359 0.37116 0.0
C2262 C 0.30142 0.72597 0.35988 0.0
C2263 C 0.31362 0.71806 0.35379 0.0
C2264 C 0.30196 0.7405 0.35558 0.0
C2265 C 0.32629 0.72491 0.34114 0.0
C2266 C 0.32689 0.7393 0.33677 0.0
C2267 C 0.31548 0.76168 0.34286 0.0
C2268 C 0.30344 0.7697 0.35217 0.0
C2269 C 0.31483 0.7472 0.34472 0.0
C2270 C 0.29064 0.76296 0.36112 0.0
C2271 C 0.2899 0.7485 0.36295 0.0
H2272 H 0.52898 0.04206 0.63758 0.0
H2273 H 0.53217 0.08492 0.56446 0.0
H2274 H 0.50706 0.08691 0.56266 0.0
H2275 H 0.48418 0.0766 0.58163 0.0
H2276 H 0.48068 0.03385 0.65613 0.0
H2277 H 0.50585 0.03163 0.65561 0.0
C2278 C 0.52417 0.0518 0.62075 0.0
C2279 C 0.53248 0.06335 0.60208 0.0
C2280 C 0.50965 0.05289 0.61964 0.0
C2281 C 0.52606 0.07593 0.58078 0.0
C2282 C 0.51168 0.07706 0.57918 0.0
C2283 C 0.4889 0.06682 0.59859 0.0
C2284 C 0.4805 0.05544 0.61916 0.0
C2285 C 0.50337 0.06565 0.59895 0.0
C2286 C 0.48685 0.04276 0.63918 0.0
C2287 C 0.50127 0.0415 0.63939 0.0
H2288 H 0.02082 0.92077 0.12876 0.0
H2289 H 0.0222 0.9653 0.11662 0.0
H2290 H 0.99692 0.96617 0.11505 0.0
H2291 H 0.97439 0.95423 0.12158 0.0
H2292 H 0.97335 0.90966 0.13466 0.0
H2293 H 0.99853 0.9089 0.1335 0.0
C2294 C 0.01561 0.93069 0.12668 0.0
C2295 C 0.02342 0.94295 0.12355 0.0
C2296 C 0.00112 0.93111 0.12656 0.0
C2297 C 0.01646 0.9557 0.11862 0.0
C2298 C 0.002 0.9562 0.11817 0.0
C2299 C 0.97968 0.94435 0.12349 0.0
C2300 C 0.97197 0.93203 0.12885 0.0
C2301 C 0.99422 0.94397 0.12253 0.0
C2302 C 0.979 0.91932 0.13204 0.0
C2303 C 0.99342 0.91886 0.13083 0.0
H2304 H 0.51635 0.93802 0.29708 0.0
H2305 H 0.52018 0.94653 0.56265 0.0
H2306 H 0.49505 0.94736 0.57575 0.0
H2307 H 0.47192 0.94401 0.51381 0.0
H2308 H 0.46826 0.93437 0.2498 0.0
H2309 H 0.49337 0.93534 0.23458 0.0
C2310 C 0.51171 0.94 0.35801 0.0
C2311 C 0.52022 0.94213 0.42878 0.0
C2312 C 0.49725 0.94012 0.36559 0.0
C2313 C 0.51396 0.945 0.50678 0.0
C2314 C 0.49956 0.94536 0.51455 0.0
C2315 C 0.47662 0.9423 0.45277 0.0
C2316 C 0.46824 0.93907 0.38309 0.0
C2317 C 0.4911 0.94272 0.44464 0.0
C2318 C 0.4745 0.93672 0.30458 0.0
C2319 C 0.48884 0.93732 0.29577 0.0
H2320 H 0.02338 0.07417 0.94795 0.0
H2321 H 0.02674 0.03078 0.88895 0.0
H2322 H 0.0015 0.02882 0.88653 0.0
H2323 H 0.9784 0.03981 0.89444 0.0
H2324 H 0.97555 0.08335 0.95111 0.0
H2325 H 0.00064 0.08492 0.95916 0.0
C2326 C 0.01862 0.06429 0.93385 0.0
C2327 C 0.02698 0.05268 0.91776 0.0
C2328 C 0.00416 0.06329 0.93132 0.0
C2329 C 0.02058 0.03988 0.90197 0.0
C2330 C 0.00614 0.03877 0.90002 0.0
C2331 C 0.98329 0.0496 0.90913 0.0
C2332 C 0.97508 0.06148 0.92099 0.0
C2333 C 0.99781 0.05045 0.91374 0.0
C2334 C 0.98159 0.07411 0.93981 0.0
C2335 C 0.99595 0.07501 0.94504 0.0
loop_
_geom_bond_atom_site_label_1
_geom_bond_atom_site_label_2
_geom_bond_distance
_geom_bond_site_symmetry_2
_ccdc_geom_bond_type
C0 C1 1.351 . S
C0 N3 1.368 . S
C0 H5 0.931 . S
C1 C0 1.351 . S
C1 N2 1.373 . S
C1 H29 0.930 . S
N2 C1 1.373 . S
N2 C4 1.340 . S
N3 C0 1.368 . S
N3 C4 1.321 . S
N3 Co6 2.135 1_556 S
C4 N2 1.340 . S
C4 N3 1.321 . S
C4 H28 0.930 . S
H5 C0 0.931 . S
Co6 N3 2.135 1_554 S
Co6 N9 2.121 . S
Co6 O14 2.055 . S
Co6 O17 2.039 . S
Co6 N20 2.140 . S
C7 O8 1.227 . S
C7 O17 1.265 . S
O8 C7 1.227 . S
N9 Co6 2.121 . S
N9 C11 1.375 . S
N9 C12 1.313 . S
C10 C11 1.338 . S
C10 N13 1.377 . S
C10 H30 0.930 . S
C11 N9 1.375 . S
C11 C10 1.338 . S
C11 H15 0.931 . S
C12 N9 1.313 . S
C12 N13 1.344 . S
C12 H16 0.930 . S
N13 C10 1.377 . S
N13 C12 1.344 . S
O14 Co6 2.055 . S
O14 C18 1.253 . S
H15 C11 0.931 . S
H16 C12 0.930 . S
O17 Co6 2.039 . S
O17 C7 1.265 . S
C18 O14 1.253 . S
C18 O19 1.227 . S
O19 C18 1.227 . S
N20 Co6 2.140 . S
N20 C23 1.346 1_554 S
N20 C24 1.345 . S
C21 C22 1.387 1_554 S
C21 C25 1.391 . S
C22 C21 1.387 1_556 S
C22 C23 1.369 . S
C22 H31 0.929 . S
C23 N20 1.346 1_556 S
C23 C22 1.369 . S
C23 H26 0.928 . S
C24 N20 1.345 . S
C24 C25 1.371 . S
C24 H27 0.931 . S
C25 C21 1.391 . S
C25 C24 1.371 . S
C25 H32 0.930 . S
H26 C23 0.928 . S
H27 C24 0.931 . S
H28 C4 0.930 . S
H29 C1 0.930 . S
H30 C10 0.930 . S
H31 C22 0.929 . S
H32 C25 0.930 . S
C33 C34 1.351 . S
C33 N36 1.368 . S
C33 H38 0.931 . S
C34 C33 1.351 . S
C34 N35 1.373 . S
C34 H62 0.930 . S
N35 C34 1.373 . S
N35 C37 1.340 . S
N36 C33 1.368 . S
N36 C37 1.321 . S
N36 Co39 2.135 . S
C37 N35 1.340 . S
C37 N36 1.321 . S
C37 H61 0.930 . S
H38 C33 0.931 . S
Co39 N36 2.135 . S
Co39 N42 2.121 . S
Co39 O47 2.055 . S
Co39 O50 2.039 . S
Co39 N53 2.140 . S
C40 O41 1.227 . S
C40 O50 1.265 . S
O41 C40 1.227 . S
N42 Co39 2.121 . S
N42 C44 1.375 . S
N42 C45 1.313 . S
C43 C44 1.338 . S
C43 N46 1.377 . S
C43 H63 0.930 . S
C44 N42 1.375 . S
C44 C43 1.338 . S
C44 H48 0.931 . S
C45 N42 1.313 . S
C45 N46 1.344 . S
C45 H49 0.930 . S
N46 C43 1.377 . S
N46 C45 1.344 . S
O47 Co39 2.055 . S
O47 C51 1.253 . S
H48 C44 0.931 . S
H49 C45 0.930 . S
O50 Co39 2.039 . S
O50 C40 1.265 . S
C51 O47 1.253 . S
C51 O52 1.227 . S
O52 C51 1.227 . S
N53 Co39 2.140 . S
N53 C56 1.346 . S
N53 C57 1.345 . S
C54 C55 1.387 . S
C54 C58 1.391 . S
C55 C54 1.387 . S
C55 C56 1.369 . S
C55 H64 0.929 . S
C56 N53 1.346 . S
C56 C55 1.369 . S
C56 H59 0.928 . S
C57 N53 1.345 . S
C57 C58 1.371 . S
C57 H60 0.931 . S
C58 C54 1.391 . S
C58 C57 1.371 . S
C58 H65 0.930 . S
H59 C56 0.928 . S
H60 C57 0.931 . S
H61 C37 0.930 . S
H62 C34 0.930 . S
H63 C43 0.930 . S
H64 C55 0.929 . S
H65 C58 0.930 . S
C66 C67 1.351 . S
C66 N69 1.368 . S
C66 H71 0.931 . S
C67 C66 1.351 . S
C67 N68 1.373 . S
C67 H95 0.930 . S
N68 C67 1.373 . S
N68 C70 1.340 . S
N69 C66 1.368 . S
N69 C70 1.321 . S
N69 Co72 2.135 . S
C70 N68 1.340 . S
C70 N69 1.321 . S
C70 H94 0.930 . S
H71 C66 0.931 . S
Co72 N69 2.135 . S
Co72 N75 2.121 . S
Co72 O80 2.055 . S
Co72 O83 2.039 . S
Co72 N86 2.140 . S
C73 O74 1.227 . S
C73 O83 1.265 . S
O74 C73 1.227 . S
N75 Co72 2.121 . S
N75 C77 1.375 . S
N75 C78 1.313 . S
C76 C77 1.338 . S
C76 N79 1.377 . S
C76 H96 0.930 . S
C77 N75 1.375 . S
C77 C76 1.338 . S
C77 H81 0.931 . S
C78 N75 1.313 . S
C78 N79 1.344 . S
C78 H82 0.930 . S
N79 C76 1.377 . S
N79 C78 1.344 . S
O80 Co72 2.055 . S
O80 C84 1.253 . S
H81 C77 0.931 . S
H82 C78 0.930 . S
O83 Co72 2.039 . S
O83 C73 1.265 . S
C84 O80 1.253 . S
C84 O85 1.227 . S
O85 C84 1.227 . S
N86 Co72 2.140 . S
N86 C89 1.346 . S
N86 C90 1.345 . S
C87 C88 1.387 . S
C87 C91 1.391 . S
C88 C87 1.387 . S
C88 C89 1.369 . S
C88 H97 0.929 . S
C89 N86 1.346 . S
C89 C88 1.369 . S
C89 H92 0.928 . S
C90 N86 1.345 . S
C90 C91 1.371 . S
C90 H93 0.931 . S
C91 C87 1.391 . S
C91 C90 1.371 . S
C91 H98 0.930 . S
H92 C89 0.928 . S
H93 C90 0.931 . S
H94 C70 0.930 . S
H95 C67 0.930 . S
H96 C76 0.930 . S
H97 C88 0.929 . S
H98 C91 0.930 . S
C99 C100 1.351 . S
C99 N102 1.368 . S
C99 H104 0.931 . S
C100 C99 1.351 . S
C100 N101 1.373 . S
C100 H128 0.930 . S
N101 C100 1.373 . S
N101 C103 1.340 . S
N102 C99 1.368 . S
N102 C103 1.321 . S
N102 Co105 2.135 . S
C103 N101 1.340 . S
C103 N102 1.321 . S
C103 H127 0.930 . S
H104 C99 0.931 . S
Co105 N102 2.135 . S
Co105 N108 2.121 . S
Co105 O113 2.055 . S
Co105 O116 2.039 . S
Co105 N119 2.140 . S
C106 O107 1.227 . S
C106 O116 1.265 . S
O107 C106 1.227 . S
N108 Co105 2.121 . S
N108 C110 1.375 . S
N108 C111 1.313 . S
C109 C110 1.338 1_554 S
C109 N112 1.377 . S
C109 H129 0.930 . S
C110 N108 1.375 . S
C110 C109 1.338 1_556 S
C110 H114 0.931 . S
C111 N108 1.313 . S
C111 N112 1.344 1_556 S
C111 H115 0.930 . S
N112 C109 1.377 . S
N112 C111 1.344 1_554 S
O113 Co105 2.055 . S
O113 C117 1.253 . S
H114 C110 0.931 . S
H115 C111 0.930 . S
O116 Co105 2.039 . S
O116 C106 1.265 . S
C117 O113 1.253 . S
C117 O118 1.227 . S
O118 C117 1.227 . S
N119 Co105 2.140 . S
N119 C122 1.346 . S
N119 C123 1.345 . S
C120 C121 1.387 . S
C120 C124 1.391 . S
C121 C120 1.387 . S
C121 C122 1.369 . S
C121 H130 0.929 . S
C122 N119 1.346 . S
C122 C121 1.369 . S
C122 H125 0.928 . S
C123 N119 1.345 . S
C123 C124 1.371 . S
C123 H126 0.931 . S
C124 C120 1.391 . S
C124 C123 1.371 . S
C124 H131 0.930 . S
H125 C122 0.928 . S
H126 C123 0.931 . S
H127 C103 0.930 . S
H128 C100 0.930 . S
H129 C109 0.930 . S
H130 C121 0.929 . S
H131 C124 0.930 . S
C132 C133 1.351 . S
C132 N135 1.368 . S
C132 H137 0.931 . S
C133 C132 1.351 . S
C133 N134 1.373 . S
C133 H161 0.930 . S
N134 C133 1.373 . S
N134 C136 1.340 . S
N135 C132 1.368 . S
N135 C136 1.321 . S
N135 Co138 2.135 1_554 S
C136 N134 1.340 . S
C136 N135 1.321 . S
C136 H160 0.930 . S
H137 C132 0.931 . S
Co138 N135 2.135 1_556 S
Co138 N141 2.121 . S
Co138 O146 2.055 . S
Co138 O149 2.039 . S
Co138 N152 2.140 . S
C139 O140 1.227 . S
C139 O149 1.265 . S
O140 C139 1.227 . S
N141 Co138 2.121 . S
N141 C143 1.375 . S
N141 C144 1.313 . S
C142 C143 1.338 . S
C142 N145 1.377 . S
C142 H162 0.930 . S
C143 N141 1.375 . S
C143 C142 1.338 . S
C143 H147 0.931 . S
C144 N141 1.313 . S
C144 N145 1.344 . S
C144 H148 0.930 . S
N145 C142 1.377 . S
N145 C144 1.344 . S
O146 Co138 2.055 . S
O146 C150 1.253 . S
H147 C143 0.931 . S
H148 C144 0.930 . S
O149 Co138 2.039 . S
O149 C139 1.265 . S
C150 O146 1.253 . S
C150 O151 1.227 . S
O151 C150 1.227 . S
N152 Co138 2.140 . S
N152 C155 1.346 1_556 S
N152 C156 1.345 . S
C153 C154 1.387 1_556 S
C153 C157 1.391 . S
C154 C153 1.387 1_554 S
C154 C155 1.369 . S
C154 H163 0.929 . S
C155 N152 1.346 1_554 S
C155 C154 1.369 . S
C155 H158 0.928 . S
C156 N152 1.345 . S
C156 C157 1.371 . S
C156 H159 0.931 . S
C157 C153 1.391 . S
C157 C156 1.371 . S
C157 H164 0.930 . S
H158 C155 0.928 . S
H159 C156 0.931 . S
H160 C136 0.930 . S
H161 C133 0.930 . S
H162 C142 0.930 . S
H163 C154 0.929 . S
H164 C157 0.930 . S
C165 C166 1.351 . S
C165 N168 1.368 . S
C165 H170 0.931 . S
C166 C165 1.351 . S
C166 N167 1.373 . S
C166 H194 0.930 . S
N167 C166 1.373 . S
N167 C169 1.340 . S
N168 C165 1.368 . S
N168 C169 1.321 . S
N168 Co171 2.135 . S
C169 N167 1.340 . S
C169 N168 1.321 . S
C169 H193 0.930 . S
H170 C165 0.931 . S
Co171 N168 2.135 . S
Co171 N174 2.121 . S
Co171 O179 2.055 . S
Co171 O182 2.039 . S
Co171 N185 2.140 . S
C172 O173 1.227 . S
C172 O182 1.265 . S
O173 C172 1.227 . S
N174 Co171 2.121 . S
N174 C176 1.375 . S
N174 C177 1.313 . S
C175 C176 1.338 1_556 S
C175 N178 1.377 . S
C175 H195 0.930 . S
C176 N174 1.375 . S
C176 C175 1.338 1_554 S
C176 H180 0.931 . S
C177 N174 1.313 . S
C177 N178 1.344 1_554 S
C177 H181 0.930 . S
N178 C175 1.377 . S
N178 C177 1.344 1_556 S
O179 Co171 2.055 . S
O179 C183 1.253 . S
H180 C176 0.931 . S
H181 C177 0.930 . S
O182 Co171 2.039 . S
O182 C172 1.265 . S
C183 O179 1.253 . S
C183 O184 1.227 . S
O184 C183 1.227 . S
N185 Co171 2.140 . S
N185 C188 1.346 . S
N185 C189 1.345 . S
C186 C187 1.387 . S
C186 C190 1.391 . S
C187 C186 1.387 . S
C187 C188 1.369 . S
C187 H196 0.929 . S
C188 N185 1.346 . S
C188 C187 1.369 . S
C188 H191 0.928 . S
C189 N185 1.345 . S
C189 C190 1.371 . S
C189 H192 0.931 . S
C190 C186 1.391 . S
C190 C189 1.371 . S
C190 H197 0.930 . S
H191 C188 0.928 . S
H192 C189 0.931 . S
H193 C169 0.930 . S
H194 C166 0.930 . S
H195 C175 0.930 . S
H196 C187 0.929 . S
H197 C190 0.930 . S
C198 C199 1.351 . S
C198 N201 1.368 . S
C198 H203 0.931 . S
C199 C198 1.351 . S
C199 N200 1.373 . S
C199 H227 0.930 . S
N200 C199 1.373 . S
N200 C202 1.340 . S
N201 C198 1.368 . S
N201 C202 1.321 . S
N201 Co204 2.135 . S
C202 N200 1.340 . S
C202 N201 1.321 . S
C202 H226 0.930 . S
H203 C198 0.931 . S
Co204 N201 2.135 . S
Co204 N207 2.121 . S
Co204 O212 2.055 . S
Co204 O215 2.039 . S
Co204 N218 2.140 . S
C205 O206 1.227 . S
C205 O215 1.265 . S
O206 C205 1.227 . S
N207 Co204 2.121 . S
N207 C209 1.375 . S
N207 C210 1.313 . S
C208 C209 1.338 . S
C208 N211 1.377 . S
C208 H228 0.930 . S
C209 N207 1.375 . S
C209 C208 1.338 . S
C209 H213 0.931 . S
C210 N207 1.313 . S
C210 N211 1.344 . S
C210 H214 0.930 . S
N211 C208 1.377 . S
N211 C210 1.344 . S
O212 Co204 2.055 . S
O212 C216 1.253 . S
H213 C209 0.931 . S
H214 C210 0.930 . S
O215 Co204 2.039 . S
O215 C205 1.265 . S
C216 O212 1.253 . S
C216 O217 1.227 . S
O217 C216 1.227 . S
N218 Co204 2.140 . S
N218 C221 1.346 . S
N218 C222 1.345 . S
C219 C220 1.387 . S
C219 C223 1.391 . S
C220 C219 1.387 . S
C220 C221 1.369 . S
C220 H229 0.929 . S
C221 N218 1.346 . S
C221 C220 1.369 . S
C221 H224 0.928 . S
C222 N218 1.345 . S
C222 C223 1.371 . S
C222 H225 0.931 . S
C223 C219 1.391 . S
C223 C222 1.371 . S
C223 H230 0.930 . S
H224 C221 0.928 . S
H225 C222 0.931 . S
H226 C202 0.930 . S
H227 C199 0.930 . S
H228 C208 0.930 . S
H229 C220 0.929 . S
H230 C223 0.930 . S
C231 C232 1.351 . S
C231 N234 1.368 . S
C231 H236 0.931 . S
C232 C231 1.351 . S
C232 N233 1.373 . S
C232 H260 0.930 . S
N233 C232 1.373 . S
N233 C235 1.340 . S
N234 C231 1.368 . S
N234 C235 1.321 . S
N234 Co237 2.135 . S
C235 N233 1.340 . S
C235 N234 1.321 . S
C235 H259 0.930 . S
H236 C231 0.931 . S
Co237 N234 2.135 . S
Co237 N240 2.121 . S
Co237 O245 2.055 . S
Co237 O248 2.039 . S
Co237 N251 2.140 . S
C238 O239 1.227 . S
C238 O248 1.265 . S
O239 C238 1.227 . S
N240 Co237 2.121 . S
N240 C242 1.375 . S
N240 C243 1.313 . S
C241 C242 1.338 . S
C241 N244 1.377 . S
C241 H261 0.930 . S
C242 N240 1.375 . S
C242 C241 1.338 . S
C242 H246 0.931 . S
C243 N240 1.313 . S
C243 N244 1.344 . S
C243 H247 0.930 . S
N244 C241 1.377 . S
N244 C243 1.344 . S
O245 Co237 2.055 . S
O245 C249 1.253 . S
H246 C242 0.931 . S
H247 C243 0.930 . S
O248 Co237 2.039 . S
O248 C238 1.265 . S
C249 O245 1.253 . S
C249 O250 1.227 . S
O250 C249 1.227 . S
N251 Co237 2.140 . S
N251 C254 1.346 . S
N251 C255 1.345 . S
C252 C253 1.387 . S
C252 C256 1.391 . S
C253 C252 1.387 . S
C253 C254 1.369 . S
C253 H262 0.929 . S
C254 N251 1.346 . S
C254 C253 1.369 . S
C254 H257 0.928 . S
C255 N251 1.345 . S
C255 C256 1.371 . S
C255 H258 0.931 . S
C256 C252 1.391 . S
C256 C255 1.371 . S
C256 H263 0.930 . S
H257 C254 0.928 . S
H258 C255 0.931 . S
H259 C235 0.930 . S
H260 C232 0.930 . S
H261 C241 0.930 . S
H262 C253 0.929 . S
H263 C256 0.930 . S
C264 C265 1.351 . S
C264 N267 1.368 . S
C264 H269 0.931 . S
C265 C264 1.351 . S
C265 N266 1.373 . S
C265 H293 0.930 . S
N266 C265 1.373 . S
N266 C268 1.340 . S
N267 C264 1.368 . S
N267 C268 1.321 . S
N267 Co270 2.135 1_554 S
C268 N266 1.340 . S
C268 N267 1.321 . S
C268 H292 0.930 . S
H269 C264 0.931 . S
Co270 N267 2.135 1_556 S
Co270 N273 2.121 . S
Co270 O278 2.055 . S
Co270 O281 2.039 . S
Co270 N284 2.140 . S
C271 O272 1.227 . S
C271 O281 1.265 . S
O272 C271 1.227 . S
N273 Co270 2.121 . S
N273 C275 1.375 . S
N273 C276 1.313 . S
C274 C275 1.338 . S
C274 N277 1.377 . S
C274 H294 0.930 . S
C275 N273 1.375 . S
C275 C274 1.338 . S
C275 H279 0.931 . S
C276 N273 1.313 . S
C276 N277 1.344 . S
C276 H280 0.930 . S
N277 C274 1.377 . S
N277 C276 1.344 . S
O278 Co270 2.055 . S
O278 C282 1.253 . S
H279 C275 0.931 . S
H280 C276 0.930 . S
O281 Co270 2.039 . S
O281 C271 1.265 . S
C282 O278 1.253 . S
C282 O283 1.227 . S
O283 C282 1.227 . S
N284 Co270 2.140 . S
N284 C287 1.346 1_556 S
N284 C288 1.345 . S
C285 C286 1.387 1_556 S
C285 C289 1.391 . S
C286 C285 1.387 1_554 S
C286 C287 1.369 . S
C286 H295 0.929 . S
C287 N284 1.346 1_554 S
C287 C286 1.369 . S
C287 H290 0.928 . S
C288 N284 1.345 . S
C288 C289 1.371 . S
C288 H291 0.931 . S
C289 C285 1.391 . S
C289 C288 1.371 . S
C289 H296 0.930 . S
H290 C287 0.928 . S
H291 C288 0.931 . S
H292 C268 0.930 . S
H293 C265 0.930 . S
H294 C274 0.930 . S
H295 C286 0.929 . S
H296 C289 0.930 . S
C297 C298 1.351 . S
C297 N300 1.368 . S
C297 H302 0.931 . S
C298 C297 1.351 . S
C298 N299 1.373 . S
C298 H326 0.930 . S
N299 C298 1.373 . S
N299 C301 1.340 . S
N300 C297 1.368 . S
N300 C301 1.321 . S
N300 Co303 2.135 . S
C301 N299 1.340 . S
C301 N300 1.321 . S
C301 H325 0.930 . S
H302 C297 0.931 . S
Co303 N300 2.135 . S
Co303 N306 2.121 . S
Co303 O311 2.055 . S
Co303 O314 2.039 . S
Co303 N317 2.140 . S
C304 O305 1.227 . S
C304 O314 1.265 . S
O305 C304 1.227 . S
N306 Co303 2.121 . S
N306 C308 1.375 . S
N306 C309 1.313 . S
C307 C308 1.338 . S
C307 N310 1.377 . S
C307 H327 0.930 . S
C308 N306 1.375 . S
C308 C307 1.338 . S
C308 H312 0.931 . S
C309 N306 1.313 . S
C309 N310 1.344 . S
C309 H313 0.930 . S
N310 C307 1.377 . S
N310 C309 1.344 . S
O311 Co303 2.055 . S
O311 C315 1.253 . S
H312 C308 0.931 . S
H313 C309 0.930 . S
O314 Co303 2.039 . S
O314 C304 1.265 . S
C315 O311 1.253 . S
C315 O316 1.227 . S
O316 C315 1.227 . S
N317 Co303 2.140 . S
N317 C320 1.346 . S
N317 C321 1.345 . S
C318 C319 1.387 . S
C318 C322 1.391 . S
C319 C318 1.387 . S
C319 C320 1.369 . S
C319 H328 0.929 . S
C320 N317 1.346 . S
C320 C319 1.369 . S
C320 H323 0.928 . S
C321 N317 1.345 . S
C321 C322 1.371 . S
C321 H324 0.931 . S
C322 C318 1.391 . S
C322 C321 1.371 . S
C322 H329 0.930 . S
H323 C320 0.928 . S
H324 C321 0.931 . S
H325 C301 0.930 . S
H326 C298 0.930 . S
H327 C307 0.930 . S
H328 C319 0.929 . S
H329 C322 0.930 . S
C330 C331 1.351 . S
C330 N333 1.368 . S
C330 H335 0.931 . S
C331 C330 1.351 . S
C331 N332 1.373 . S
C331 H359 0.930 . S
N332 C331 1.373 . S
N332 C334 1.340 . S
N333 C330 1.368 . S
N333 C334 1.321 . S
N333 Co336 2.135 . S
C334 N332 1.340 . S
C334 N333 1.321 . S
C334 H358 0.930 . S
H335 C330 0.931 . S
Co336 N333 2.135 . S
Co336 N339 2.121 . S
Co336 O344 2.055 . S
Co336 O347 2.039 . S
Co336 N350 2.140 . S
C337 O338 1.227 . S
C337 O347 1.265 . S
O338 C337 1.227 . S
N339 Co336 2.121 . S
N339 C341 1.375 . S
N339 C342 1.313 . S
C340 C341 1.338 . S
C340 N343 1.377 . S
C340 H360 0.930 . S
C341 N339 1.375 . S
C341 C340 1.338 . S
C341 H345 0.931 . S
C342 N339 1.313 . S
C342 N343 1.344 . S
C342 H346 0.930 . S
N343 C340 1.377 . S
N343 C342 1.344 . S
O344 Co336 2.055 . S
O344 C348 1.253 . S
H345 C341 0.931 . S
H346 C342 0.930 . S
O347 Co336 2.039 . S
O347 C337 1.265 . S
C348 O344 1.253 . S
C348 O349 1.227 . S
O349 C348 1.227 . S
N350 Co336 2.140 . S
N350 C353 1.346 . S
N350 C354 1.345 . S
C351 C352 1.387 . S
C351 C355 1.391 . S
C352 C351 1.387 . S
C352 C353 1.369 . S
C352 H361 0.929 . S
C353 N350 1.346 . S
C353 C352 1.369 . S
C353 H356 0.928 . S
C354 N350 1.345 . S
C354 C355 1.371 . S
C354 H357 0.931 . S
C355 C351 1.391 . S
C355 C354 1.371 . S
C355 H362 0.930 . S
H356 C353 0.928 . S
H357 C354 0.931 . S
H358 C334 0.930 . S
H359 C331 0.930 . S
H360 C340 0.930 . S
H361 C352 0.929 . S
H362 C355 0.930 . S
C363 C364 1.351 . S
C363 N366 1.368 . S
C363 H368 0.931 . S
C364 C363 1.351 . S
C364 N365 1.373 . S
C364 H392 0.930 . S
N365 C364 1.373 . S
N365 C367 1.340 . S
N366 C363 1.368 . S
N366 C367 1.321 . S
N366 Co369 2.135 . S
C367 N365 1.340 . S
C367 N366 1.321 . S
C367 H391 0.930 . S
H368 C363 0.931 . S
Co369 N366 2.135 . S
Co369 N372 2.121 . S
Co369 O377 2.055 . S
Co369 O380 2.039 . S
Co369 N383 2.140 . S
C370 O371 1.227 . S
C370 O380 1.265 . S
O371 C370 1.227 . S
N372 Co369 2.121 . S
N372 C374 1.375 . S
N372 C375 1.313 . S
C373 C374 1.338 1_556 S
C373 N376 1.377 . S
C373 H393 0.930 . S
C374 N372 1.375 . S
C374 C373 1.338 1_554 S
C374 H378 0.931 . S
C375 N372 1.313 . S
C375 N376 1.344 1_554 S
C375 H379 0.930 . S
N376 C373 1.377 . S
N376 C375 1.344 1_556 S
O377 Co369 2.055 . S
O377 C381 1.253 . S
H378 C374 0.931 . S
H379 C375 0.930 . S
O380 Co369 2.039 . S
O380 C370 1.265 . S
C381 O377 1.253 . S
C381 O382 1.227 . S
O382 C381 1.227 . S
N383 Co369 2.140 . S
N383 C386 1.346 . S
N383 C387 1.345 . S
C384 C385 1.387 . S
C384 C388 1.391 . S
C385 C384 1.387 . S
C385 C386 1.369 . S
C385 H394 0.929 . S
C386 N383 1.346 . S
C386 C385 1.369 . S
C386 H389 0.928 . S
C387 N383 1.345 . S
C387 C388 1.371 . S
C387 H390 0.931 . S
C388 C384 1.391 . S
C388 C387 1.371 . S
C388 H395 0.930 . S
H389 C386 0.928 . S
H390 C387 0.931 . S
H391 C367 0.930 . S
H392 C364 0.930 . S
H393 C373 0.930 . S
H394 C385 0.929 . S
H395 C388 0.930 . S
C396 C397 1.351 . S
C396 N399 1.368 . S
C396 H401 0.931 . S
C397 C396 1.351 . S
C397 N398 1.373 . S
C397 H425 0.930 . S
N398 C397 1.373 . S
N398 C400 1.340 . S
N399 C396 1.368 . S
N399 C400 1.321 . S
N399 Co402 2.135 1_556 S
C400 N398 1.340 . S
C400 N399 1.321 . S
C400 H424 0.930 . S
H401 C396 0.931 . S
Co402 N399 2.135 1_554 S
Co402 N405 2.121 . S
Co402 O410 2.055 . S
Co402 O413 2.039 . S
Co402 N416 2.140 . S
C403 O404 1.227 . S
C403 O413 1.265 . S
O404 C403 1.227 . S
N405 Co402 2.121 . S
N405 C407 1.375 . S
N405 C408 1.313 . S
C406 C407 1.338 . S
C406 N409 1.377 . S
C406 H426 0.930 . S
C407 N405 1.375 . S
C407 C406 1.338 . S
C407 H411 0.931 . S
C408 N405 1.313 . S
C408 N409 1.344 . S
C408 H412 0.930 . S
N409 C406 1.377 . S
N409 C408 1.344 . S
O410 Co402 2.055 . S
O410 C414 1.253 . S
H411 C407 0.931 . S
H412 C408 0.930 . S
O413 Co402 2.039 . S
O413 C403 1.265 . S
C414 O410 1.253 . S
C414 O415 1.227 . S
O415 C414 1.227 . S
N416 Co402 2.140 . S
N416 C419 1.346 1_554 S
N416 C420 1.345 . S
C417 C418 1.387 1_554 S
C417 C421 1.391 . S
C418 C417 1.387 1_556 S
C418 C419 1.369 . S
C418 H427 0.929 . S
C419 N416 1.346 1_556 S
C419 C418 1.369 . S
C419 H422 0.928 . S
C420 N416 1.345 . S
C420 C421 1.371 . S
C420 H423 0.931 . S
C421 C417 1.391 . S
C421 C420 1.371 . S
C421 H428 0.930 . S
H422 C419 0.928 . S
H423 C420 0.931 . S
H424 C400 0.930 . S
H425 C397 0.930 . S
H426 C406 0.930 . S
H427 C418 0.929 . S
H428 C421 0.930 . S
C429 C430 1.351 . S
C429 N432 1.368 . S
C429 H434 0.931 . S
C430 C429 1.351 . S
C430 N431 1.373 . S
C430 H458 0.930 . S
N431 C430 1.373 . S
N431 C433 1.340 . S
N432 C429 1.368 . S
N432 C433 1.321 . S
N432 Co435 2.135 . S
C433 N431 1.340 . S
C433 N432 1.321 . S
C433 H457 0.930 . S
H434 C429 0.931 . S
Co435 N432 2.135 . S
Co435 N438 2.121 . S
Co435 O443 2.055 . S
Co435 O446 2.039 . S
Co435 N449 2.140 . S
C436 O437 1.227 . S
C436 O446 1.265 . S
O437 C436 1.227 . S
N438 Co435 2.121 . S
N438 C440 1.375 . S
N438 C441 1.313 . S
C439 C440 1.338 1_554 S
C439 N442 1.377 . S
C439 H459 0.930 . S
C440 N438 1.375 . S
C440 C439 1.338 1_556 S
C440 H444 0.931 . S
C441 N438 1.313 . S
C441 N442 1.344 1_556 S
C441 H445 0.930 . S
N442 C439 1.377 . S
N442 C441 1.344 1_554 S
O443 Co435 2.055 . S
O443 C447 1.253 . S
H444 C440 0.931 . S
H445 C441 0.930 . S
O446 Co435 2.039 . S
O446 C436 1.265 . S
C447 O443 1.253 . S
C447 O448 1.227 . S
O448 C447 1.227 . S
N449 Co435 2.140 . S
N449 C452 1.346 . S
N449 C453 1.345 . S
C450 C451 1.387 . S
C450 C454 1.391 . S
C451 C450 1.387 . S
C451 C452 1.369 . S
C451 H460 0.929 . S
C452 N449 1.346 . S
C452 C451 1.369 . S
C452 H455 0.928 . S
C453 N449 1.345 . S
C453 C454 1.371 . S
C453 H456 0.931 . S
C454 C450 1.391 . S
C454 C453 1.371 . S
C454 H461 0.930 . S
H455 C452 0.928 . S
H456 C453 0.931 . S
H457 C433 0.930 . S
H458 C430 0.930 . S
H459 C439 0.930 . S
H460 C451 0.929 . S
H461 C454 0.930 . S
C462 C463 1.351 . S
C462 N465 1.368 . S
C462 H467 0.931 . S
C463 C462 1.351 . S
C463 N464 1.373 . S
C463 H491 0.930 . S
N464 C463 1.373 . S
N464 C466 1.340 . S
N465 C462 1.368 . S
N465 C466 1.321 . S
N465 Co468 2.135 . S
C466 N464 1.340 . S
C466 N465 1.321 . S
C466 H490 0.930 . S
H467 C462 0.931 . S
Co468 N465 2.135 . S
Co468 N471 2.121 . S
Co468 O476 2.055 . S
Co468 O479 2.039 . S
Co468 N482 2.140 . S
C469 O470 1.227 . S
C469 O479 1.265 . S
O470 C469 1.227 . S
N471 Co468 2.121 . S
N471 C473 1.375 . S
N471 C474 1.313 . S
C472 C473 1.338 . S
C472 N475 1.377 . S
C472 H492 0.930 . S
C473 N471 1.375 . S
C473 C472 1.338 . S
C473 H477 0.931 . S
C474 N471 1.313 . S
C474 N475 1.344 . S
C474 H478 0.930 . S
N475 C472 1.377 . S
N475 C474 1.344 . S
O476 Co468 2.055 . S
O476 C480 1.253 . S
H477 C473 0.931 . S
H478 C474 0.930 . S
O479 Co468 2.039 . S
O479 C469 1.265 . S
C480 O476 1.253 . S
C480 O481 1.227 . S
O481 C480 1.227 . S
N482 Co468 2.140 . S
N482 C485 1.346 . S
N482 C486 1.345 . S
C483 C484 1.387 . S
C483 C487 1.391 . S
C484 C483 1.387 . S
C484 C485 1.369 . S
C484 H493 0.929 . S
C485 N482 1.346 . S
C485 C484 1.369 . S
C485 H488 0.928 . S
C486 N482 1.345 . S
C486 C487 1.371 . S
C486 H489 0.931 . S
C487 C483 1.391 . S
C487 C486 1.371 . S
C487 H494 0.930 . S
H488 C485 0.928 . S
H489 C486 0.931 . S
H490 C466 0.930 . S
H491 C463 0.930 . S
H492 C472 0.930 . S
H493 C484 0.929 . S
H494 C487 0.930 . S
C495 C496 1.351 . S
C495 N498 1.368 . S
C495 H500 0.931 . S
C496 C495 1.351 . S
C496 N497 1.373 . S
C496 H524 0.930 . S
N497 C496 1.373 . S
N497 C499 1.340 . S
N498 C495 1.368 . S
N498 C499 1.321 . S
N498 Co501 2.135 . S
C499 N497 1.340 . S
C499 N498 1.321 . S
C499 H523 0.930 . S
H500 C495 0.931 . S
Co501 N498 2.135 . S
Co501 N504 2.121 . S
Co501 O509 2.055 . S
Co501 O512 2.039 . S
Co501 N515 2.140 . S
C502 O503 1.227 . S
C502 O512 1.265 . S
O503 C502 1.227 . S
N504 Co501 2.121 . S
N504 C506 1.375 . S
N504 C507 1.313 . S
C505 C506 1.338 . S
C505 N508 1.377 . S
C505 H525 0.930 . S
C506 N504 1.375 . S
C506 C505 1.338 . S
C506 H510 0.931 . S
C507 N504 1.313 . S
C507 N508 1.344 . S
C507 H511 0.930 . S
N508 C505 1.377 . S
N508 C507 1.344 . S
O509 Co501 2.055 . S
O509 C513 1.253 . S
H510 C506 0.931 . S
H511 C507 0.930 . S
O512 Co501 2.039 . S
O512 C502 1.265 . S
C513 O509 1.253 . S
C513 O514 1.227 . S
O514 C513 1.227 . S
N515 Co501 2.140 . S
N515 C518 1.346 . S
N515 C519 1.345 . S
C516 C517 1.387 . S
C516 C520 1.391 . S
C517 C516 1.387 . S
C517 C518 1.369 . S
C517 H526 0.929 . S
C518 N515 1.346 . S
C518 C517 1.369 . S
C518 H521 0.928 . S
C519 N515 1.345 . S
C519 C520 1.371 . S
C519 H522 0.931 . S
C520 C516 1.391 . S
C520 C519 1.371 . S
C520 H527 0.930 . S
H521 C518 0.928 . S
H522 C519 0.931 . S
H523 C499 0.930 . S
H524 C496 0.930 . S
H525 C505 0.930 . S
H526 C517 0.929 . S
H527 C520 0.930 . S
C528 C529 1.351 . S
C528 N531 1.368 . S
C528 H533 0.931 . S
C529 C528 1.351 . S
C529 N530 1.373 . S
C529 H557 0.930 . S
N530 C529 1.373 . S
N530 C532 1.340 . S
N531 C528 1.368 . S
N531 C532 1.321 . S
N531 Co534 2.135 . S
C532 N530 1.340 . S
C532 N531 1.321 . S
C532 H556 0.930 . S
H533 C528 0.931 . S
Co534 N531 2.135 . S
Co534 N537 2.121 . S
Co534 O542 2.055 . S
Co534 O545 2.039 . S
Co534 N548 2.140 . S
C535 O536 1.227 . S
C535 O545 1.265 . S
O536 C535 1.227 . S
N537 Co534 2.121 . S
N537 C539 1.375 . S
N537 C540 1.313 . S
C538 C539 1.338 . S
C538 N541 1.377 . S
C538 H558 0.930 . S
C539 N537 1.375 . S
C539 C538 1.338 . S
C539 H543 0.931 . S
C540 N537 1.313 . S
C540 N541 1.344 . S
C540 H544 0.930 . S
N541 C538 1.377 . S
N541 C540 1.344 . S
O542 Co534 2.055 . S
O542 C546 1.253 . S
H543 C539 0.931 . S
H544 C540 0.930 . S
O545 Co534 2.039 . S
O545 C535 1.265 . S
C546 O542 1.253 . S
C546 O547 1.227 . S
O547 C546 1.227 . S
N548 Co534 2.140 . S
N548 C551 1.346 . S
N548 C552 1.345 . S
C549 C550 1.387 . S
C549 C553 1.391 . S
C550 C549 1.387 . S
C550 C551 1.369 . S
C550 H559 0.929 . S
C551 N548 1.346 . S
C551 C550 1.369 . S
C551 H554 0.928 . S
C552 N548 1.345 . S
C552 C553 1.371 . S
C552 H555 0.931 . S
C553 C549 1.391 . S
C553 C552 1.371 . S
C553 H560 0.930 . S
H554 C551 0.928 . S
H555 C552 0.931 . S
H556 C532 0.930 . S
H557 C529 0.930 . S
H558 C538 0.930 . S
H559 C550 0.929 . S
H560 C553 0.930 . S
C561 C562 1.351 . S
C561 N564 1.368 . S
C561 H566 0.931 . S
C562 C561 1.351 . S
C562 N563 1.373 . S
C562 H590 0.930 . S
N563 C562 1.373 . S
N563 C565 1.340 . S
N564 C561 1.368 . S
N564 C565 1.321 . S
N564 Co567 2.135 . S
C565 N563 1.340 . S
C565 N564 1.321 . S
C565 H589 0.930 . S
H566 C561 0.931 . S
Co567 N564 2.135 . S
Co567 N570 2.121 . S
Co567 O575 2.055 . S
Co567 O578 2.039 . S
Co567 N581 2.140 . S
C568 O569 1.227 . S
C568 O578 1.265 . S
O569 C568 1.227 . S
N570 Co567 2.121 . S
N570 C572 1.375 . S
N570 C573 1.313 . S
C571 C572 1.338 1_554 S
C571 N574 1.377 . S
C571 H591 0.930 . S
C572 N570 1.375 . S
C572 C571 1.338 1_556 S
C572 H576 0.931 . S
C573 N570 1.313 . S
C573 N574 1.344 1_556 S
C573 H577 0.930 . S
N574 C571 1.377 . S
N574 C573 1.344 1_554 S
O575 Co567 2.055 . S
O575 C579 1.253 . S
H576 C572 0.931 . S
H577 C573 0.930 . S
O578 Co567 2.039 . S
O578 C568 1.265 . S
C579 O575 1.253 . S
C579 O580 1.227 . S
O580 C579 1.227 . S
N581 Co567 2.140 . S
N581 C584 1.346 . S
N581 C585 1.345 . S
C582 C583 1.387 . S
C582 C586 1.391 . S
C583 C582 1.387 . S
C583 C584 1.369 . S
C583 H592 0.929 . S
C584 N581 1.346 . S
C584 C583 1.369 . S
C584 H587 0.928 . S
C585 N581 1.345 . S
C585 C586 1.371 . S
C585 H588 0.931 . S
C586 C582 1.391 . S
C586 C585 1.371 . S
C586 H593 0.930 . S
H587 C584 0.928 . S
H588 C585 0.931 . S
H589 C565 0.930 . S
H590 C562 0.930 . S
H591 C571 0.930 . S
H592 C583 0.929 . S
H593 C586 0.930 . S
C594 C595 1.351 . S
C594 N597 1.368 . S
C594 H599 0.931 . S
C595 C594 1.351 . S
C595 N596 1.373 . S
C595 H623 0.930 . S
N596 C595 1.373 . S
N596 C598 1.340 . S
N597 C594 1.368 . S
N597 C598 1.321 . S
N597 Co600 2.135 1_556 S
C598 N596 1.340 . S
C598 N597 1.321 . S
C598 H622 0.930 . S
H599 C594 0.931 . S
Co600 N597 2.135 1_554 S
Co600 N603 2.121 . S
Co600 O608 2.055 . S
Co600 O611 2.039 . S
Co600 N614 2.140 . S
C601 O602 1.227 . S
C601 O611 1.265 . S
O602 C601 1.227 . S
N603 Co600 2.121 . S
N603 C605 1.375 . S
N603 C606 1.313 . S
C604 C605 1.338 . S
C604 N607 1.377 . S
C604 H624 0.930 . S
C605 N603 1.375 . S
C605 C604 1.338 . S
C605 H609 0.931 . S
C606 N603 1.313 . S
C606 N607 1.344 . S
C606 H610 0.930 . S
N607 C604 1.377 . S
N607 C606 1.344 . S
O608 Co600 2.055 . S
O608 C612 1.253 . S
H609 C605 0.931 . S
H610 C606 0.930 . S
O611 Co600 2.039 . S
O611 C601 1.265 . S
C612 O608 1.253 . S
C612 O613 1.227 . S
O613 C612 1.227 . S
N614 Co600 2.140 . S
N614 C617 1.346 1_554 S
N614 C618 1.345 . S
C615 C616 1.387 1_554 S
C615 C619 1.391 . S
C616 C615 1.387 1_556 S
C616 C617 1.369 . S
C616 H625 0.929 . S
C617 N614 1.346 1_556 S
C617 C616 1.369 . S
C617 H620 0.928 . S
C618 N614 1.345 . S
C618 C619 1.371 . S
C618 H621 0.931 . S
C619 C615 1.391 . S
C619 C618 1.371 . S
C619 H626 0.930 . S
H620 C617 0.928 . S
H621 C618 0.931 . S
H622 C598 0.930 . S
H623 C595 0.930 . S
H624 C604 0.930 . S
H625 C616 0.929 . S
H626 C619 0.930 . S
C627 C628 1.351 . S
C627 N630 1.368 . S
C627 H632 0.931 . S
C628 C627 1.351 . S
C628 N629 1.373 . S
C628 H656 0.930 . S
N629 C628 1.373 . S
N629 C631 1.340 . S
N630 C627 1.368 . S
N630 C631 1.321 . S
N630 Co633 2.135 . S
C631 N629 1.340 . S
C631 N630 1.321 . S
C631 H655 0.930 . S
H632 C627 0.931 . S
Co633 N630 2.135 . S
Co633 N636 2.121 . S
Co633 O641 2.055 . S
Co633 O644 2.039 . S
Co633 N647 2.140 . S
C634 O635 1.227 . S
C634 O644 1.265 . S
O635 C634 1.227 . S
N636 Co633 2.121 . S
N636 C638 1.375 . S
N636 C639 1.313 . S
C637 C638 1.338 . S
C637 N640 1.377 . S
C637 H657 0.930 . S
C638 N636 1.375 . S
C638 C637 1.338 . S
C638 H642 0.931 . S
C639 N636 1.313 . S
C639 N640 1.344 . S
C639 H643 0.930 . S
N640 C637 1.377 . S
N640 C639 1.344 . S
O641 Co633 2.055 . S
O641 C645 1.253 . S
H642 C638 0.931 . S
H643 C639 0.930 . S
O644 Co633 2.039 . S
O644 C634 1.265 . S
C645 O641 1.253 . S
C645 O646 1.227 . S
O646 C645 1.227 . S
N647 Co633 2.140 . S
N647 C650 1.346 . S
N647 C651 1.345 . S
C648 C649 1.387 . S
C648 C652 1.391 . S
C649 C648 1.387 . S
C649 C650 1.369 . S
C649 H658 0.929 . S
C650 N647 1.346 . S
C650 C649 1.369 . S
C650 H653 0.928 . S
C651 N647 1.345 . S
C651 C652 1.371 . S
C651 H654 0.931 . S
C652 C648 1.391 . S
C652 C651 1.371 . S
C652 H659 0.930 . S
H653 C650 0.928 . S
H654 C651 0.931 . S
H655 C631 0.930 . S
H656 C628 0.930 . S
H657 C637 0.930 . S
H658 C649 0.929 . S
H659 C652 0.930 . S
C660 C661 1.351 . S
C660 N663 1.368 . S
C660 H665 0.931 . S
C661 C660 1.351 . S
C661 N662 1.373 . S
C661 H689 0.930 . S
N662 C661 1.373 . S
N662 C664 1.340 . S
N663 C660 1.368 . S
N663 C664 1.321 . S
N663 Co666 2.135 . S
C664 N662 1.340 . S
C664 N663 1.321 . S
C664 H688 0.930 . S
H665 C660 0.931 . S
Co666 N663 2.135 . S
Co666 N669 2.121 . S
Co666 O674 2.055 . S
Co666 O677 2.039 . S
Co666 N680 2.140 . S
C667 O668 1.227 . S
C667 O677 1.265 . S
O668 C667 1.227 . S
N669 Co666 2.121 . S
N669 C671 1.375 . S
N669 C672 1.313 . S
C670 C671 1.338 . S
C670 N673 1.377 . S
C670 H690 0.930 . S
C671 N669 1.375 . S
C671 C670 1.338 . S
C671 H675 0.931 . S
C672 N669 1.313 . S
C672 N673 1.344 . S
C672 H676 0.930 . S
N673 C670 1.377 . S
N673 C672 1.344 . S
O674 Co666 2.055 . S
O674 C678 1.253 . S
H675 C671 0.931 . S
H676 C672 0.930 . S
O677 Co666 2.039 . S
O677 C667 1.265 . S
C678 O674 1.253 . S
C678 O679 1.227 . S
O679 C678 1.227 . S
N680 Co666 2.140 . S
N680 C683 1.346 . S
N680 C684 1.345 . S
C681 C682 1.387 . S
C681 C685 1.391 . S
C682 C681 1.387 . S
C682 C683 1.369 . S
C682 H691 0.929 . S
C683 N680 1.346 . S
C683 C682 1.369 . S
C683 H686 0.928 . S
C684 N680 1.345 . S
C684 C685 1.371 . S
C684 H687 0.931 . S
C685 C681 1.391 . S
C685 C684 1.371 . S
C685 H692 0.930 . S
H686 C683 0.928 . S
H687 C684 0.931 . S
H688 C664 0.930 . S
H689 C661 0.930 . S
H690 C670 0.930 . S
H691 C682 0.929 . S
H692 C685 0.930 . S
C693 C694 1.351 . S
C693 N696 1.368 . S
C693 H698 0.931 . S
C694 C693 1.351 . S
C694 N695 1.373 . S
C694 H722 0.930 . S
N695 C694 1.373 . S
N695 C697 1.340 . S
N696 C693 1.368 . S
N696 C697 1.321 . S
N696 Co699 2.135 . S
C697 N695 1.340 . S
C697 N696 1.321 . S
C697 H721 0.930 . S
H698 C693 0.931 . S
Co699 N696 2.135 . S
Co699 N702 2.121 . S
Co699 O707 2.055 . S
Co699 O710 2.039 . S
Co699 N713 2.140 . S
C700 O701 1.227 . S
C700 O710 1.265 . S
O701 C700 1.227 . S
N702 Co699 2.121 . S
N702 C704 1.375 . S
N702 C705 1.313 . S
C703 C704 1.338 . S
C703 N706 1.377 . S
C703 H723 0.930 . S
C704 N702 1.375 . S
C704 C703 1.338 . S
C704 H708 0.931 . S
C705 N702 1.313 . S
C705 N706 1.344 . S
C705 H709 0.930 . S
N706 C703 1.377 . S
N706 C705 1.344 . S
O707 Co699 2.055 . S
O707 C711 1.253 . S
H708 C704 0.931 . S
H709 C705 0.930 . S
O710 Co699 2.039 . S
O710 C700 1.265 . S
C711 O707 1.253 . S
C711 O712 1.227 . S
O712 C711 1.227 . S
N713 Co699 2.140 . S
N713 C716 1.346 . S
N713 C717 1.345 . S
C714 C715 1.387 . S
C714 C718 1.391 . S
C715 C714 1.387 . S
C715 C716 1.369 . S
C715 H724 0.929 . S
C716 N713 1.346 . S
C716 C715 1.369 . S
C716 H719 0.928 . S
C717 N713 1.345 . S
C717 C718 1.371 . S
C717 H720 0.931 . S
C718 C714 1.391 . S
C718 C717 1.371 . S
C718 H725 0.930 . S
H719 C716 0.928 . S
H720 C717 0.931 . S
H721 C697 0.930 . S
H722 C694 0.930 . S
H723 C703 0.930 . S
H724 C715 0.929 . S
H725 C718 0.930 . S
C726 C727 1.351 . S
C726 N729 1.368 . S
C726 H731 0.931 . S
C727 C726 1.351 . S
C727 N728 1.373 . S
C727 H755 0.930 . S
N728 C727 1.373 . S
N728 C730 1.340 . S
N729 C726 1.368 . S
N729 C730 1.321 . S
N729 Co732 2.135 1_554 S
C730 N728 1.340 . S
C730 N729 1.321 . S
C730 H754 0.930 . S
H731 C726 0.931 . S
Co732 N729 2.135 1_556 S
Co732 N735 2.121 . S
Co732 O740 2.055 . S
Co732 O743 2.039 . S
Co732 N746 2.140 . S
C733 O734 1.227 . S
C733 O743 1.265 . S
O734 C733 1.227 . S
N735 Co732 2.121 . S
N735 C737 1.375 . S
N735 C738 1.313 . S
C736 C737 1.338 . S
C736 N739 1.377 . S
C736 H756 0.930 . S
C737 N735 1.375 . S
C737 C736 1.338 . S
C737 H741 0.931 . S
C738 N735 1.313 . S
C738 N739 1.344 . S
C738 H742 0.930 . S
N739 C736 1.377 . S
N739 C738 1.344 . S
O740 Co732 2.055 . S
O740 C744 1.253 . S
H741 C737 0.931 . S
H742 C738 0.930 . S
O743 Co732 2.039 . S
O743 C733 1.265 . S
C744 O740 1.253 . S
C744 O745 1.227 . S
O745 C744 1.227 . S
N746 Co732 2.140 . S
N746 C749 1.346 1_556 S
N746 C750 1.345 . S
C747 C748 1.387 1_556 S
C747 C751 1.391 . S
C748 C747 1.387 1_554 S
C748 C749 1.369 . S
C748 H757 0.929 . S
C749 N746 1.346 1_554 S
C749 C748 1.369 . S
C749 H752 0.928 . S
C750 N746 1.345 . S
C750 C751 1.371 . S
C750 H753 0.931 . S
C751 C747 1.391 . S
C751 C750 1.371 . S
C751 H758 0.930 . S
H752 C749 0.928 . S
H753 C750 0.931 . S
H754 C730 0.930 . S
H755 C727 0.930 . S
H756 C736 0.930 . S
H757 C748 0.929 . S
H758 C751 0.930 . S
C759 C760 1.351 . S
C759 N762 1.368 . S
C759 H764 0.931 . S
C760 C759 1.351 . S
C760 N761 1.373 . S
C760 H788 0.930 . S
N761 C760 1.373 . S
N761 C763 1.340 . S
N762 C759 1.368 . S
N762 C763 1.321 . S
N762 Co765 2.135 . S
C763 N761 1.340 . S
C763 N762 1.321 . S
C763 H787 0.930 . S
H764 C759 0.931 . S
Co765 N762 2.135 . S
Co765 N768 2.121 . S
Co765 O773 2.055 . S
Co765 O776 2.039 . S
Co765 N779 2.140 . S
C766 O767 1.227 . S
C766 O776 1.265 . S
O767 C766 1.227 . S
N768 Co765 2.121 . S
N768 C770 1.375 . S
N768 C771 1.313 . S
C769 C770 1.338 1_556 S
C769 N772 1.377 . S
C769 H789 0.930 . S
C770 N768 1.375 . S
C770 C769 1.338 1_554 S
C770 H774 0.931 . S
C771 N768 1.313 . S
C771 N772 1.344 1_554 S
C771 H775 0.930 . S
N772 C769 1.377 . S
N772 C771 1.344 1_556 S
O773 Co765 2.055 . S
O773 C777 1.253 . S
H774 C770 0.931 . S
H775 C771 0.930 . S
O776 Co765 2.039 . S
O776 C766 1.265 . S
C777 O773 1.253 . S
C777 O778 1.227 . S
O778 C777 1.227 . S
N779 Co765 2.140 . S
N779 C782 1.346 . S
N779 C783 1.345 . S
C780 C781 1.387 . S
C780 C784 1.391 . S
C781 C780 1.387 . S
C781 C782 1.369 . S
C781 H790 0.929 . S
C782 N779 1.346 . S
C782 C781 1.369 . S
C782 H785 0.928 . S
C783 N779 1.345 . S
C783 C784 1.371 . S
C783 H786 0.931 . S
C784 C780 1.391 . S
C784 C783 1.371 . S
C784 H791 0.930 . S
H785 C782 0.928 . S
H786 C783 0.931 . S
H787 C763 0.930 . S
H788 C760 0.930 . S
H789 C769 0.930 . S
H790 C781 0.929 . S
H791 C784 0.930 . S
C792 C793 1.351 . S
C792 N795 1.368 . S
C792 H797 0.931 . S
C793 C792 1.351 . S
C793 N794 1.373 . S
C793 H821 0.930 . S
N794 C793 1.373 . S
N794 C796 1.340 . S
N795 C792 1.368 . S
N795 C796 1.321 . S
N795 Co798 2.135 . S
C796 N794 1.340 . S
C796 N795 1.321 . S
C796 H820 0.930 . S
H797 C792 0.931 . S
Co798 N795 2.135 . S
Co798 N801 2.121 . S
Co798 O806 2.055 . S
Co798 O809 2.039 . S
Co798 N812 2.140 . S
C799 O800 1.227 . S
C799 O809 1.265 . S
O800 C799 1.227 . S
N801 Co798 2.121 . S
N801 C803 1.375 . S
N801 C804 1.313 . S
C802 C803 1.338 . S
C802 N805 1.377 . S
C802 H822 0.930 . S
C803 N801 1.375 . S
C803 C802 1.338 . S
C803 H807 0.931 . S
C804 N801 1.313 . S
C804 N805 1.344 . S
C804 H808 0.930 . S
N805 C802 1.377 . S
N805 C804 1.344 . S
O806 Co798 2.055 . S
O806 C810 1.253 . S
H807 C803 0.931 . S
H808 C804 0.930 . S
O809 Co798 2.039 . S
O809 C799 1.265 . S
C810 O806 1.253 . S
C810 O811 1.227 . S
O811 C810 1.227 . S
N812 Co798 2.140 . S
N812 C815 1.346 . S
N812 C816 1.345 . S
C813 C814 1.387 . S
C813 C817 1.391 . S
C814 C813 1.387 . S
C814 C815 1.369 . S
C814 H823 0.929 . S
C815 N812 1.346 . S
C815 C814 1.369 . S
C815 H818 0.928 . S
C816 N812 1.345 . S
C816 C817 1.371 . S
C816 H819 0.931 . S
C817 C813 1.391 . S
C817 C816 1.371 . S
C817 H824 0.930 . S
H818 C815 0.928 . S
H819 C816 0.931 . S
H820 C796 0.930 . S
H821 C793 0.930 . S
H822 C802 0.930 . S
H823 C814 0.929 . S
H824 C817 0.930 . S
C825 C826 1.351 . S
C825 N828 1.368 . S
C825 H830 0.931 . S
C826 C825 1.351 . S
C826 N827 1.373 . S
C826 H854 0.930 . S
N827 C826 1.373 . S
N827 C829 1.340 . S
N828 C825 1.368 . S
N828 C829 1.321 . S
N828 Co831 2.135 . S
C829 N827 1.340 . S
C829 N828 1.321 . S
C829 H853 0.930 . S
H830 C825 0.931 . S
Co831 N828 2.135 . S
Co831 N834 2.121 . S
Co831 O839 2.055 . S
Co831 O842 2.039 . S
Co831 N845 2.140 . S
C832 O833 1.227 . S
C832 O842 1.265 . S
O833 C832 1.227 . S
N834 Co831 2.121 . S
N834 C836 1.375 . S
N834 C837 1.313 . S
C835 C836 1.338 1_556 S
C835 N838 1.377 . S
C835 H855 0.930 . S
C836 N834 1.375 . S
C836 C835 1.338 1_554 S
C836 H840 0.931 . S
C837 N834 1.313 . S
C837 N838 1.344 1_554 S
C837 H841 0.930 . S
N838 C835 1.377 . S
N838 C837 1.344 1_556 S
O839 Co831 2.055 . S
O839 C843 1.253 . S
H840 C836 0.931 . S
H841 C837 0.930 . S
O842 Co831 2.039 . S
O842 C832 1.265 . S
C843 O839 1.253 . S
C843 O844 1.227 . S
O844 C843 1.227 . S
N845 Co831 2.140 . S
N845 C848 1.346 . S
N845 C849 1.345 . S
C846 C847 1.387 . S
C846 C850 1.391 . S
C847 C846 1.387 . S
C847 C848 1.369 . S
C847 H856 0.929 . S
C848 N845 1.346 . S
C848 C847 1.369 . S
C848 H851 0.928 . S
C849 N845 1.345 . S
C849 C850 1.371 . S
C849 H852 0.931 . S
C850 C846 1.391 . S
C850 C849 1.371 . S
C850 H857 0.930 . S
H851 C848 0.928 . S
H852 C849 0.931 . S
H853 C829 0.930 . S
H854 C826 0.930 . S
H855 C835 0.930 . S
H856 C847 0.929 . S
H857 C850 0.930 . S
C858 C859 1.351 . S
C858 N861 1.368 . S
C858 H863 0.931 . S
C859 C858 1.351 . S
C859 N860 1.373 . S
C859 H887 0.930 . S
N860 C859 1.373 . S
N860 C862 1.340 . S
N861 C858 1.368 . S
N861 C862 1.321 . S
N861 Co864 2.135 1_554 S
C862 N860 1.340 . S
C862 N861 1.321 . S
C862 H886 0.930 . S
H863 C858 0.931 . S
Co864 N861 2.135 1_556 S
Co864 N867 2.121 . S
Co864 O872 2.055 . S
Co864 O875 2.039 . S
Co864 N878 2.140 . S
C865 O866 1.227 . S
C865 O875 1.265 . S
O866 C865 1.227 . S
N867 Co864 2.121 . S
N867 C869 1.375 . S
N867 C870 1.313 . S
C868 C869 1.338 . S
C868 N871 1.377 . S
C868 H888 0.930 . S
C869 N867 1.375 . S
C869 C868 1.338 . S
C869 H873 0.931 . S
C870 N867 1.313 . S
C870 N871 1.344 . S
C870 H874 0.930 . S
N871 C868 1.377 . S
N871 C870 1.344 . S
O872 Co864 2.055 . S
O872 C876 1.253 . S
H873 C869 0.931 . S
H874 C870 0.930 . S
O875 Co864 2.039 . S
O875 C865 1.265 . S
C876 O872 1.253 . S
C876 O877 1.227 . S
O877 C876 1.227 . S
N878 Co864 2.140 . S
N878 C881 1.346 1_556 S
N878 C882 1.345 . S
C879 C880 1.387 1_556 S
C879 C883 1.391 . S
C880 C879 1.387 1_554 S
C880 C881 1.369 . S
C880 H889 0.929 . S
C881 N878 1.346 1_554 S
C881 C880 1.369 . S
C881 H884 0.928 . S
C882 N878 1.345 . S
C882 C883 1.371 . S
C882 H885 0.931 . S
C883 C879 1.391 . S
C883 C882 1.371 . S
C883 H890 0.930 . S
H884 C881 0.928 . S
H885 C882 0.931 . S
H886 C862 0.930 . S
H887 C859 0.930 . S
H888 C868 0.930 . S
H889 C880 0.929 . S
H890 C883 0.930 . S
C891 C892 1.351 . S
C891 N894 1.368 . S
C891 H896 0.931 . S
C892 C891 1.351 . S
C892 N893 1.373 . S
C892 H920 0.930 . S
N893 C892 1.373 . S
N893 C895 1.340 . S
N894 C891 1.368 . S
N894 C895 1.321 . S
N894 Co897 2.135 . S
C895 N893 1.340 . S
C895 N894 1.321 . S
C895 H919 0.930 . S
H896 C891 0.931 . S
Co897 N894 2.135 . S
Co897 N900 2.121 . S
Co897 O905 2.055 . S
Co897 O908 2.039 . S
Co897 N911 2.140 . S
C898 O899 1.227 . S
C898 O908 1.265 . S
O899 C898 1.227 . S
N900 Co897 2.121 . S
N900 C902 1.375 . S
N900 C903 1.313 . S
C901 C902 1.338 . S
C901 N904 1.377 . S
C901 H921 0.930 . S
C902 N900 1.375 . S
C902 C901 1.338 . S
C902 H906 0.931 . S
C903 N900 1.313 . S
C903 N904 1.344 . S
C903 H907 0.930 . S
N904 C901 1.377 . S
N904 C903 1.344 . S
O905 Co897 2.055 . S
O905 C909 1.253 . S
H906 C902 0.931 . S
H907 C903 0.930 . S
O908 Co897 2.039 . S
O908 C898 1.265 . S
C909 O905 1.253 . S
C909 O910 1.227 . S
O910 C909 1.227 . S
N911 Co897 2.140 . S
N911 C914 1.346 . S
N911 C915 1.345 . S
C912 C913 1.387 . S
C912 C916 1.391 . S
C913 C912 1.387 . S
C913 C914 1.369 . S
C913 H922 0.929 . S
C914 N911 1.346 . S
C914 C913 1.369 . S
C914 H917 0.928 . S
C915 N911 1.345 . S
C915 C916 1.371 . S
C915 H918 0.931 . S
C916 C912 1.391 . S
C916 C915 1.371 . S
C916 H923 0.930 . S
H917 C914 0.928 . S
H918 C915 0.931 . S
H919 C895 0.930 . S
H920 C892 0.930 . S
H921 C901 0.930 . S
H922 C913 0.929 . S
H923 C916 0.930 . S
C924 C925 1.351 . S
C924 N927 1.368 . S
C924 H929 0.931 . S
C925 C924 1.351 . S
C925 N926 1.373 . S
C925 H953 0.930 . S
N926 C925 1.373 . S
N926 C928 1.340 . S
N927 C924 1.368 . S
N927 C928 1.321 . S
N927 Co930 2.135 . S
C928 N926 1.340 . S
C928 N927 1.321 . S
C928 H952 0.930 . S
H929 C924 0.931 . S
Co930 N927 2.135 . S
Co930 N933 2.121 . S
Co930 O938 2.055 . S
Co930 O941 2.039 . S
Co930 N944 2.140 . S
C931 O932 1.227 . S
C931 O941 1.265 . S
O932 C931 1.227 . S
N933 Co930 2.121 . S
N933 C935 1.375 . S
N933 C936 1.313 . S
C934 C935 1.338 . S
C934 N937 1.377 . S
C934 H954 0.930 . S
C935 N933 1.375 . S
C935 C934 1.338 . S
C935 H939 0.931 . S
C936 N933 1.313 . S
C936 N937 1.344 . S
C936 H940 0.930 . S
N937 C934 1.377 . S
N937 C936 1.344 . S
O938 Co930 2.055 . S
O938 C942 1.253 . S
H939 C935 0.931 . S
H940 C936 0.930 . S
O941 Co930 2.039 . S
O941 C931 1.265 . S
C942 O938 1.253 . S
C942 O943 1.227 . S
O943 C942 1.227 . S
N944 Co930 2.140 . S
N944 C947 1.346 . S
N944 C948 1.345 . S
C945 C946 1.387 . S
C945 C949 1.391 . S
C946 C945 1.387 . S
C946 C947 1.369 . S
C946 H955 0.929 . S
C947 N944 1.346 . S
C947 C946 1.369 . S
C947 H950 0.928 . S
C948 N944 1.345 . S
C948 C949 1.371 . S
C948 H951 0.931 . S
C949 C945 1.391 . S
C949 C948 1.371 . S
C949 H956 0.930 . S
H950 C947 0.928 . S
H951 C948 0.931 . S
H952 C928 0.930 . S
H953 C925 0.930 . S
H954 C934 0.930 . S
H955 C946 0.929 . S
H956 C949 0.930 . S
C957 C958 1.351 . S
C957 N960 1.368 . S
C957 H962 0.931 . S
C958 C957 1.351 . S
C958 N959 1.373 . S
C958 H986 0.930 . S
N959 C958 1.373 . S
N959 C961 1.340 . S
N960 C957 1.368 . S
N960 C961 1.321 . S
N960 Co963 2.135 . S
C961 N959 1.340 . S
C961 N960 1.321 . S
C961 H985 0.930 . S
H962 C957 0.931 . S
Co963 N960 2.135 . S
Co963 N966 2.121 . S
Co963 O971 2.055 . S
Co963 O974 2.039 . S
Co963 N977 2.140 . S
C964 O965 1.227 . S
C964 O974 1.265 . S
O965 C964 1.227 . S
N966 Co963 2.121 . S
N966 C968 1.375 . S
N966 C969 1.313 . S
C967 C968 1.338 . S
C967 N970 1.377 . S
C967 H987 0.930 . S
C968 N966 1.375 . S
C968 C967 1.338 . S
C968 H972 0.931 . S
C969 N966 1.313 . S
C969 N970 1.344 . S
C969 H973 0.930 . S
N970 C967 1.377 . S
N970 C969 1.344 . S
O971 Co963 2.055 . S
O971 C975 1.253 . S
H972 C968 0.931 . S
H973 C969 0.930 . S
O974 Co963 2.039 . S
O974 C964 1.265 . S
C975 O971 1.253 . S
C975 O976 1.227 . S
O976 C975 1.227 . S
N977 Co963 2.140 . S
N977 C980 1.346 . S
N977 C981 1.345 . S
C978 C979 1.387 . S
C978 C982 1.391 . S
C979 C978 1.387 . S
C979 C980 1.369 . S
C979 H988 0.929 . S
C980 N977 1.346 . S
C980 C979 1.369 . S
C980 H983 0.928 . S
C981 N977 1.345 . S
C981 C982 1.371 . S
C981 H984 0.931 . S
C982 C978 1.391 . S
C982 C981 1.371 . S
C982 H989 0.930 . S
H983 C980 0.928 . S
H984 C981 0.931 . S
H985 C961 0.930 . S
H986 C958 0.930 . S
H987 C967 0.930 . S
H988 C979 0.929 . S
H989 C982 0.930 . S
C990 C991 1.351 . S
C990 N993 1.368 . S
C990 H995 0.931 . S
C991 C990 1.351 . S
C991 N992 1.373 . S
C991 H1019 0.930 . S
N992 C991 1.373 . S
N992 C994 1.340 . S
N993 C990 1.368 . S
N993 C994 1.321 . S
N993 Co996 2.135 1_556 S
C994 N992 1.340 . S
C994 N993 1.321 . S
C994 H1018 0.930 . S
H995 C990 0.931 . S
Co996 N993 2.135 1_554 S
Co996 N999 2.121 . S
Co996 O1004 2.055 . S
Co996 O1007 2.039 . S
Co996 N1010 2.140 . S
C997 O998 1.227 . S
C997 O1007 1.265 . S
O998 C997 1.227 . S
N999 Co996 2.121 . S
N999 C1001 1.375 . S
N999 C1002 1.313 . S
C1000 C1001 1.338 . S
C1000 N1003 1.377 . S
C1000 H1020 0.930 . S
C1001 N999 1.375 . S
C1001 C1000 1.338 . S
C1001 H1005 0.931 . S
C1002 N999 1.313 . S
C1002 N1003 1.344 . S
C1002 H1006 0.930 . S
N1003 C1000 1.377 . S
N1003 C1002 1.344 . S
O1004 Co996 2.055 . S
O1004 C1008 1.253 . S
H1005 C1001 0.931 . S
H1006 C1002 0.930 . S
O1007 Co996 2.039 . S
O1007 C997 1.265 . S
C1008 O1004 1.253 . S
C1008 O1009 1.227 . S
O1009 C1008 1.227 . S
N1010 Co996 2.140 . S
N1010 C1013 1.346 1_554 S
N1010 C1014 1.345 . S
C1011 C1012 1.387 1_554 S
C1011 C1015 1.391 . S
C1012 C1011 1.387 1_556 S
C1012 C1013 1.369 . S
C1012 H1021 0.929 . S
C1013 N1010 1.346 1_556 S
C1013 C1012 1.369 . S
C1013 H1016 0.928 . S
C1014 N1010 1.345 . S
C1014 C1015 1.371 . S
C1014 H1017 0.931 . S
C1015 C1011 1.391 . S
C1015 C1014 1.371 . S
C1015 H1022 0.930 . S
H1016 C1013 0.928 . S
H1017 C1014 0.931 . S
H1018 C994 0.930 . S
H1019 C991 0.930 . S
H1020 C1000 0.930 . S
H1021 C1012 0.929 . S
H1022 C1015 0.930 . S
C1023 C1024 1.351 . S
C1023 N1026 1.368 . S
C1023 H1028 0.931 . S
C1024 C1023 1.351 . S
C1024 N1025 1.373 . S
C1024 H1052 0.930 . S
N1025 C1024 1.373 . S
N1025 C1027 1.340 . S
N1026 C1023 1.368 . S
N1026 C1027 1.321 . S
N1026 Co1029 2.135 . S
C1027 N1025 1.340 . S
C1027 N1026 1.321 . S
C1027 H1051 0.930 . S
H1028 C1023 0.931 . S
Co1029 N1026 2.135 . S
Co1029 N1032 2.121 . S
Co1029 O1037 2.055 . S
Co1029 O1040 2.039 . S
Co1029 N1043 2.140 . S
C1030 O1031 1.227 . S
C1030 O1040 1.265 . S
O1031 C1030 1.227 . S
N1032 Co1029 2.121 . S
N1032 C1034 1.375 . S
N1032 C1035 1.313 . S
C1033 C1034 1.338 1_554 S
C1033 N1036 1.377 . S
C1033 H1053 0.930 . S
C1034 N1032 1.375 . S
C1034 C1033 1.338 1_556 S
C1034 H1038 0.931 . S
C1035 N1032 1.313 . S
C1035 N1036 1.344 1_556 S
C1035 H1039 0.930 . S
N1036 C1033 1.377 . S
N1036 C1035 1.344 1_554 S
O1037 Co1029 2.055 . S
O1037 C1041 1.253 . S
H1038 C1034 0.931 . S
H1039 C1035 0.930 . S
O1040 Co1029 2.039 . S
O1040 C1030 1.265 . S
C1041 O1037 1.253 . S
C1041 O1042 1.227 . S
O1042 C1041 1.227 . S
N1043 Co1029 2.140 . S
N1043 C1046 1.346 . S
N1043 C1047 1.345 . S
C1044 C1045 1.387 . S
C1044 C1048 1.391 . S
C1045 C1044 1.387 . S
C1045 C1046 1.369 . S
C1045 H1054 0.929 . S
C1046 N1043 1.346 . S
C1046 C1045 1.369 . S
C1046 H1049 0.928 . S
C1047 N1043 1.345 . S
C1047 C1048 1.371 . S
C1047 H1050 0.931 . S
C1048 C1044 1.391 . S
C1048 C1047 1.371 . S
C1048 H1055 0.930 . S
H1049 C1046 0.928 . S
H1050 C1047 0.931 . S
H1051 C1027 0.930 . S
H1052 C1024 0.930 . S
H1053 C1033 0.930 . S
H1054 C1045 0.929 . S
H1055 C1048 0.930 . S
H1056 C1062 0.930 . S
H1057 C1065 0.930 . S
H1058 C1066 0.930 . S
H1059 C1067 0.930 . S
H1060 C1070 0.930 . S
H1061 C1071 0.930 . S
C1062 H1056 0.930 . S
C1062 C1063 1.355 . S
C1062 C1064 1.415 . S
C1063 C1062 1.355 . S
C1063 C1065 1.419 . S
C1064 C1062 1.415 . S
C1064 C1069 1.425 . S
C1064 C1071 1.409 . S
C1065 H1057 0.930 . S
C1065 C1063 1.419 . S
C1065 C1066 1.362 . S
C1066 H1058 0.930 . S
C1066 C1065 1.362 . S
C1066 C1069 1.409 . S
C1067 H1059 0.930 . S
C1067 C1068 1.355 . S
C1067 C1069 1.415 . S
C1068 C1067 1.355 . S
C1068 C1070 1.419 . S
C1069 C1064 1.425 . S
C1069 C1066 1.409 . S
C1069 C1067 1.415 . S
C1070 H1060 0.930 . S
C1070 C1068 1.419 . S
C1070 C1071 1.362 . S
C1071 H1061 0.930 . S
C1071 C1064 1.409 . S
C1071 C1070 1.362 . S
H1072 C1078 0.930 . S
H1073 C1081 0.930 . S
H1074 C1082 0.930 . S
H1075 C1083 0.930 . S
H1076 C1086 0.930 . S
H1077 C1087 0.930 . S
C1078 H1072 0.930 . S
C1078 C1079 1.355 . S
C1078 C1080 1.415 . S
C1079 C1078 1.355 . S
C1079 C1081 1.419 . S
C1080 C1078 1.415 . S
C1080 C1085 1.425 . S
C1080 C1087 1.409 . S
C1081 H1073 0.930 . S
C1081 C1079 1.419 . S
C1081 C1082 1.362 . S
C1082 H1074 0.930 . S
C1082 C1081 1.362 . S
C1082 C1085 1.409 . S
C1083 H1075 0.930 . S
C1083 C1084 1.355 . S
C1083 C1085 1.415 . S
C1084 C1083 1.355 . S
C1084 C1086 1.419 . S
C1085 C1080 1.425 . S
C1085 C1082 1.409 . S
C1085 C1083 1.415 . S
C1086 H1076 0.930 . S
C1086 C1084 1.419 . S
C1086 C1087 1.362 . S
C1087 H1077 0.930 . S
C1087 C1080 1.409 . S
C1087 C1086 1.362 . S
H1088 C1094 0.930 . S
H1089 C1097 0.930 . S
H1090 C1098 0.930 . S
H1091 C1099 0.930 . S
H1092 C1102 0.930 . S
H1093 C1103 0.930 . S
C1094 H1088 0.930 . S
C1094 C1095 1.355 . S
C1094 C1096 1.415 1_556 S
C1095 C1094 1.355 . S
C1095 C1097 1.419 . S
C1096 C1094 1.415 1_554 S
C1096 C1101 1.425 . S
C1096 C1103 1.409 . S
C1097 H1089 0.930 . S
C1097 C1095 1.419 . S
C1097 C1098 1.362 1_556 S
C1098 H1090 0.930 . S
C1098 C1097 1.362 1_554 S
C1098 C1101 1.409 . S
C1099 H1091 0.930 . S
C1099 C1100 1.355 . S
C1099 C1101 1.415 . S
C1100 C1099 1.355 . S
C1100 C1102 1.419 . S
C1101 C1096 1.425 . S
C1101 C1098 1.409 . S
C1101 C1099 1.415 . S
C1102 H1092 0.930 . S
C1102 C1100 1.419 . S
C1102 C1103 1.362 . S
C1103 H1093 0.930 . S
C1103 C1096 1.409 . S
C1103 C1102 1.362 . S
H1104 C1110 0.930 . S
H1105 C1113 0.930 . S
H1106 C1114 0.930 . S
H1107 C1115 0.930 . S
H1108 C1118 0.930 . S
H1109 C1119 0.930 . S
C1110 H1104 0.930 . S
C1110 C1111 1.355 . S
C1110 C1112 1.415 . S
C1111 C1110 1.355 . S
C1111 C1113 1.419 . S
C1112 C1110 1.415 . S
C1112 C1117 1.425 . S
C1112 C1119 1.409 . S
C1113 H1105 0.930 . S
C1113 C1111 1.419 . S
C1113 C1114 1.362 . S
C1114 H1106 0.930 . S
C1114 C1113 1.362 . S
C1114 C1117 1.409 . S
C1115 H1107 0.930 . S
C1115 C1116 1.355 . S
C1115 C1117 1.415 . S
C1116 C1115 1.355 . S
C1116 C1118 1.419 . S
C1117 C1112 1.425 . S
C1117 C1114 1.409 . S
C1117 C1115 1.415 . S
C1118 H1108 0.930 . S
C1118 C1116 1.419 . S
C1118 C1119 1.362 . S
C1119 H1109 0.930 . S
C1119 C1112 1.409 . S
C1119 C1118 1.362 . S
H1120 C1126 0.930 . S
H1121 C1129 0.930 . S
H1122 C1130 0.930 . S
H1123 C1131 0.930 . S
H1124 C1134 0.930 . S
H1125 C1135 0.930 . S
C1126 H1120 0.930 . S
C1126 C1127 1.355 . S
C1126 C1128 1.415 . S
C1127 C1126 1.355 . S
C1127 C1129 1.419 . S
C1128 C1126 1.415 . S
C1128 C1133 1.425 . S
C1128 C1135 1.409 . S
C1129 H1121 0.930 . S
C1129 C1127 1.419 . S
C1129 C1130 1.362 . S
C1130 H1122 0.930 . S
C1130 C1129 1.362 . S
C1130 C1133 1.409 . S
C1131 H1123 0.930 . S
C1131 C1132 1.355 . S
C1131 C1133 1.415 . S
C1132 C1131 1.355 . S
C1132 C1134 1.419 . S
C1133 C1128 1.425 . S
C1133 C1130 1.409 . S
C1133 C1131 1.415 . S
C1134 H1124 0.930 . S
C1134 C1132 1.419 . S
C1134 C1135 1.362 . S
C1135 H1125 0.930 . S
C1135 C1128 1.409 . S
C1135 C1134 1.362 . S
H1136 C1142 0.930 . S
H1137 C1145 0.930 . S
H1138 C1146 0.930 . S
H1139 C1147 0.930 . S
H1140 C1150 0.930 . S
H1141 C1151 0.930 . S
C1142 H1136 0.930 . S
C1142 C1143 1.355 . S
C1142 C1144 1.415 . S
C1143 C1142 1.355 . S
C1143 C1145 1.419 . S
C1144 C1142 1.415 . S
C1144 C1149 1.425 . S
C1144 C1151 1.409 . S
C1145 H1137 0.930 . S
C1145 C1143 1.419 . S
C1145 C1146 1.362 . S
C1146 H1138 0.930 . S
C1146 C1145 1.362 . S
C1146 C1149 1.409 . S
C1147 H1139 0.930 . S
C1147 C1148 1.355 . S
C1147 C1149 1.415 . S
C1148 C1147 1.355 . S
C1148 C1150 1.419 . S
C1149 C1144 1.425 . S
C1149 C1146 1.409 . S
C1149 C1147 1.415 . S
C1150 H1140 0.930 . S
C1150 C1148 1.419 . S
C1150 C1151 1.362 . S
C1151 H1141 0.930 . S
C1151 C1144 1.409 . S
C1151 C1150 1.362 . S
H1152 C1158 0.930 . S
H1153 C1161 0.930 . S
H1154 C1162 0.930 . S
H1155 C1163 0.930 . S
H1156 C1166 0.930 . S
H1157 C1167 0.930 . S
C1158 H1152 0.930 . S
C1158 C1159 1.355 . S
C1158 C1160 1.415 . S
C1159 C1158 1.355 . S
C1159 C1161 1.419 . S
C1160 C1158 1.415 . S
C1160 C1165 1.425 . S
C1160 C1167 1.409 . S
C1161 H1153 0.930 . S
C1161 C1159 1.419 . S
C1161 C1162 1.362 . S
C1162 H1154 0.930 . S
C1162 C1161 1.362 . S
C1162 C1165 1.409 . S
C1163 H1155 0.930 . S
C1163 C1164 1.355 . S
C1163 C1165 1.415 1_554 S
C1164 C1163 1.355 . S
C1164 C1166 1.419 . S
C1165 C1160 1.425 . S
C1165 C1162 1.409 . S
C1165 C1163 1.415 1_556 S
C1166 H1156 0.930 . S
C1166 C1164 1.419 . S
C1166 C1167 1.362 1_554 S
C1167 H1157 0.930 . S
C1167 C1160 1.409 . S
C1167 C1166 1.362 1_556 S
H1168 C1174 0.930 . S
H1169 C1177 0.930 . S
H1170 C1178 0.930 . S
H1171 C1179 0.930 . S
H1172 C1182 0.930 . S
H1173 C1183 0.930 . S
C1174 H1168 0.930 . S
C1174 C1175 1.355 . S
C1174 C1176 1.415 . S
C1175 C1174 1.355 . S
C1175 C1177 1.419 . S
C1176 C1174 1.415 . S
C1176 C1181 1.425 . S
C1176 C1183 1.409 . S
C1177 H1169 0.930 . S
C1177 C1175 1.419 . S
C1177 C1178 1.362 . S
C1178 H1170 0.930 . S
C1178 C1177 1.362 . S
C1178 C1181 1.409 . S
C1179 H1171 0.930 . S
C1179 C1180 1.355 . S
C1179 C1181 1.415 . S
C1180 C1179 1.355 . S
C1180 C1182 1.419 . S
C1181 C1176 1.425 . S
C1181 C1178 1.409 . S
C1181 C1179 1.415 . S
C1182 H1172 0.930 . S
C1182 C1180 1.419 . S
C1182 C1183 1.362 . S
C1183 H1173 0.930 . S
C1183 C1176 1.409 . S
C1183 C1182 1.362 . S
H1184 C1190 0.930 . S
H1185 C1193 0.930 . S
H1186 C1194 0.930 . S
H1187 C1195 0.930 . S
H1188 C1198 0.930 . S
H1189 C1199 0.930 . S
C1190 H1184 0.930 . S
C1190 C1191 1.355 . S
C1190 C1192 1.415 . S
C1191 C1190 1.355 . S
C1191 C1193 1.419 . S
C1192 C1190 1.415 . S
C1192 C1197 1.425 . S
C1192 C1199 1.409 . S
C1193 H1185 0.930 . S
C1193 C1191 1.419 . S
C1193 C1194 1.362 . S
C1194 H1186 0.930 . S
C1194 C1193 1.362 . S
C1194 C1197 1.409 . S
C1195 H1187 0.930 . S
C1195 C1196 1.355 . S
C1195 C1197 1.415 . S
C1196 C1195 1.355 . S
C1196 C1198 1.419 . S
C1197 C1192 1.425 . S
C1197 C1194 1.409 . S
C1197 C1195 1.415 . S
C1198 H1188 0.930 . S
C1198 C1196 1.419 . S
C1198 C1199 1.362 . S
C1199 H1189 0.930 . S
C1199 C1192 1.409 . S
C1199 C1198 1.362 . S
H1200 C1206 0.930 . S
H1201 C1209 0.930 . S
H1202 C1210 0.930 . S
H1203 C1211 0.930 . S
H1204 C1214 0.930 . S
H1205 C1215 0.930 . S
C1206 H1200 0.930 . S
C1206 C1207 1.355 . S
C1206 C1208 1.415 . S
C1207 C1206 1.355 . S
C1207 C1209 1.419 . S
C1208 C1206 1.415 . S
C1208 C1213 1.425 . S
C1208 C1215 1.409 . S
C1209 H1201 0.930 . S
C1209 C1207 1.419 . S
C1209 C1210 1.362 . S
C1210 H1202 0.930 . S
C1210 C1209 1.362 . S
C1210 C1213 1.409 . S
C1211 H1203 0.930 . S
C1211 C1212 1.355 . S
C1211 C1213 1.415 . S
C1212 C1211 1.355 . S
C1212 C1214 1.419 . S
C1213 C1208 1.425 . S
C1213 C1210 1.409 . S
C1213 C1211 1.415 . S
C1214 H1204 0.930 . S
C1214 C1212 1.419 . S
C1214 C1215 1.362 . S
C1215 H1205 0.930 . S
C1215 C1208 1.409 . S
C1215 C1214 1.362 . S
H1216 C1222 0.930 . S
H1217 C1225 0.930 . S
H1218 C1226 0.930 . S
H1219 C1227 0.930 . S
H1220 C1230 0.930 . S
H1221 C1231 0.930 . S
C1222 H1216 0.930 . S
C1222 C1223 1.355 . S
C1222 C1224 1.415 . S
C1223 C1222 1.355 . S
C1223 C1225 1.419 . S
C1224 C1222 1.415 . S
C1224 C1229 1.425 . S
C1224 C1231 1.409 . S
C1225 H1217 0.930 . S
C1225 C1223 1.419 . S
C1225 C1226 1.362 . S
C1226 H1218 0.930 . S
C1226 C1225 1.362 . S
C1226 C1229 1.409 . S
C1227 H1219 0.930 . S
C1227 C1228 1.355 . S
C1227 C1229 1.415 1_554 S
C1228 C1227 1.355 . S
C1228 C1230 1.419 . S
C1229 C1224 1.425 . S
C1229 C1226 1.409 . S
C1229 C1227 1.415 1_556 S
C1230 H1220 0.930 . S
C1230 C1228 1.419 . S
C1230 C1231 1.362 1_554 S
C1231 H1221 0.930 . S
C1231 C1224 1.409 . S
C1231 C1230 1.362 1_556 S
H1232 C1238 0.930 . S
H1233 C1241 0.930 . S
H1234 C1242 0.930 . S
H1235 C1243 0.930 . S
H1236 C1246 0.930 . S
H1237 C1247 0.930 . S
C1238 H1232 0.930 . S
C1238 C1239 1.355 . S
C1238 C1240 1.415 . S
C1239 C1238 1.355 . S
C1239 C1241 1.419 . S
C1240 C1238 1.415 . S
C1240 C1245 1.425 . S
C1240 C1247 1.409 . S
C1241 H1233 0.930 . S
C1241 C1239 1.419 . S
C1241 C1242 1.362 . S
C1242 H1234 0.930 . S
C1242 C1241 1.362 . S
C1242 C1245 1.409 . S
C1243 H1235 0.930 . S
C1243 C1244 1.355 . S
C1243 C1245 1.415 . S
C1244 C1243 1.355 . S
C1244 C1246 1.419 . S
C1245 C1240 1.425 . S
C1245 C1242 1.409 . S
C1245 C1243 1.415 . S
C1246 H1236 0.930 . S
C1246 C1244 1.419 . S
C1246 C1247 1.362 . S
C1247 H1237 0.930 . S
C1247 C1240 1.409 . S
C1247 C1246 1.362 . S
H1248 C1254 0.930 . S
H1249 C1257 0.930 . S
H1250 C1258 0.930 . S
H1251 C1259 0.930 . S
H1252 C1262 0.930 . S
H1253 C1263 0.930 . S
C1254 H1248 0.930 . S
C1254 C1255 1.355 . S
C1254 C1256 1.415 . S
C1255 C1254 1.355 . S
C1255 C1257 1.419 . S
C1256 C1254 1.415 . S
C1256 C1261 1.425 . S
C1256 C1263 1.409 . S
C1257 H1249 0.930 . S
C1257 C1255 1.419 . S
C1257 C1258 1.362 . S
C1258 H1250 0.930 . S
C1258 C1257 1.362 . S
C1258 C1261 1.409 . S
C1259 H1251 0.930 . S
C1259 C1260 1.355 . S
C1259 C1261 1.415 . S
C1260 C1259 1.355 . S
C1260 C1262 1.419 . S
C1261 C1256 1.425 . S
C1261 C1258 1.409 . S
C1261 C1259 1.415 . S
C1262 H1252 0.930 . S
C1262 C1260 1.419 . S
C1262 C1263 1.362 . S
C1263 H1253 0.930 . S
C1263 C1256 1.409 . S
C1263 C1262 1.362 . S
H1264 C1270 0.930 . S
H1265 C1273 0.930 . S
H1266 C1274 0.930 . S
H1267 C1275 0.930 . S
H1268 C1278 0.930 . S
H1269 C1279 0.930 . S
C1270 H1264 0.930 . S
C1270 C1271 1.355 . S
C1270 C1272 1.415 . S
C1271 C1270 1.355 . S
C1271 C1273 1.419 . S
C1272 C1270 1.415 . S
C1272 C1277 1.425 . S
C1272 C1279 1.409 . S
C1273 H1265 0.930 . S
C1273 C1271 1.419 . S
C1273 C1274 1.362 . S
C1274 H1266 0.930 . S
C1274 C1273 1.362 . S
C1274 C1277 1.409 . S
C1275 H1267 0.930 . S
C1275 C1276 1.355 . S
C1275 C1277 1.415 . S
C1276 C1275 1.355 . S
C1276 C1278 1.419 . S
C1277 C1272 1.425 . S
C1277 C1274 1.409 . S
C1277 C1275 1.415 . S
C1278 H1268 0.930 . S
C1278 C1276 1.419 . S
C1278 C1279 1.362 . S
C1279 H1269 0.930 . S
C1279 C1272 1.409 . S
C1279 C1278 1.362 . S
H1280 C1286 0.930 . S
H1281 C1289 0.930 . S
H1282 C1290 0.930 . S
H1283 C1291 0.930 . S
H1284 C1294 0.930 . S
H1285 C1295 0.930 . S
C1286 H1280 0.930 . S
C1286 C1287 1.355 . S
C1286 C1288 1.415 1_556 S
C1287 C1286 1.355 . S
C1287 C1289 1.419 . S
C1288 C1286 1.415 1_554 S
C1288 C1293 1.425 . S
C1288 C1295 1.409 . S
C1289 H1281 0.930 . S
C1289 C1287 1.419 . S
C1289 C1290 1.362 1_556 S
C1290 H1282 0.930 . S
C1290 C1289 1.362 1_554 S
C1290 C1293 1.409 . S
C1291 H1283 0.930 . S
C1291 C1292 1.355 . S
C1291 C1293 1.415 . S
C1292 C1291 1.355 . S
C1292 C1294 1.419 . S
C1293 C1288 1.425 . S
C1293 C1290 1.409 . S
C1293 C1291 1.415 . S
C1294 H1284 0.930 . S
C1294 C1292 1.419 . S
C1294 C1295 1.362 . S
C1295 H1285 0.930 . S
C1295 C1288 1.409 . S
C1295 C1294 1.362 . S
H1296 C1302 0.930 . S
H1297 C1305 0.930 . S
H1298 C1306 0.930 . S
H1299 C1307 0.930 . S
H1300 C1310 0.930 . S
H1301 C1311 0.930 . S
C1302 H1296 0.930 . S
C1302 C1303 1.355 . S
C1302 C1304 1.415 . S
C1303 C1302 1.355 . S
C1303 C1305 1.419 . S
C1304 C1302 1.415 . S
C1304 C1309 1.425 . S
C1304 C1311 1.409 . S
C1305 H1297 0.930 . S
C1305 C1303 1.419 . S
C1305 C1306 1.362 . S
C1306 H1298 0.930 . S
C1306 C1305 1.362 . S
C1306 C1309 1.409 . S
C1307 H1299 0.930 . S
C1307 C1308 1.355 . S
C1307 C1309 1.415 . S
C1308 C1307 1.355 . S
C1308 C1310 1.419 . S
C1309 C1304 1.425 . S
C1309 C1306 1.409 . S
C1309 C1307 1.415 . S
C1310 H1300 0.930 . S
C1310 C1308 1.419 . S
C1310 C1311 1.362 . S
C1311 H1301 0.930 . S
C1311 C1304 1.409 . S
C1311 C1310 1.362 . S
H1312 C1318 0.930 . S
H1313 C1321 0.930 . S
H1314 C1322 0.930 . S
H1315 C1323 0.930 . S
H1316 C1326 0.930 . S
H1317 C1327 0.930 . S
C1318 H1312 0.930 . S
C1318 C1319 1.355 . S
C1318 C1320 1.415 1_556 S
C1319 C1318 1.355 . S
C1319 C1321 1.419 . S
C1320 C1318 1.415 1_554 S
C1320 C1325 1.425 . S
C1320 C1327 1.409 . S
C1321 H1313 0.930 . S
C1321 C1319 1.419 . S
C1321 C1322 1.362 1_556 S
C1322 H1314 0.930 . S
C1322 C1321 1.362 1_554 S
C1322 C1325 1.409 . S
C1323 H1315 0.930 . S
C1323 C1324 1.355 . S
C1323 C1325 1.415 . S
C1324 C1323 1.355 . S
C1324 C1326 1.419 . S
C1325 C1320 1.425 . S
C1325 C1322 1.409 . S
C1325 C1323 1.415 . S
C1326 H1316 0.930 . S
C1326 C1324 1.419 . S
C1326 C1327 1.362 . S
C1327 H1317 0.930 . S
C1327 C1320 1.409 . S
C1327 C1326 1.362 . S
H1328 C1334 0.930 . S
H1329 C1337 0.930 . S
H1330 C1338 0.930 . S
H1331 C1339 0.930 . S
H1332 C1342 0.930 . S
H1333 C1343 0.930 . S
C1334 H1328 0.930 . S
C1334 C1335 1.355 . S
C1334 C1336 1.415 . S
C1335 C1334 1.355 . S
C1335 C1337 1.419 . S
C1336 C1334 1.415 . S
C1336 C1341 1.425 . S
C1336 C1343 1.409 . S
C1337 H1329 0.930 . S
C1337 C1335 1.419 . S
C1337 C1338 1.362 . S
C1338 H1330 0.930 . S
C1338 C1337 1.362 . S
C1338 C1341 1.409 . S
C1339 H1331 0.930 . S
C1339 C1340 1.355 . S
C1339 C1341 1.415 . S
C1340 C1339 1.355 . S
C1340 C1342 1.419 . S
C1341 C1336 1.425 . S
C1341 C1338 1.409 . S
C1341 C1339 1.415 . S
C1342 H1332 0.930 . S
C1342 C1340 1.419 . S
C1342 C1343 1.362 . S
C1343 H1333 0.930 . S
C1343 C1336 1.409 . S
C1343 C1342 1.362 . S
H1344 C1350 0.930 . S
H1345 C1353 0.930 . S
H1346 C1354 0.930 . S
H1347 C1355 0.930 . S
H1348 C1358 0.930 . S
H1349 C1359 0.930 . S
C1350 H1344 0.930 . S
C1350 C1351 1.355 . S
C1350 C1352 1.415 . S
C1351 C1350 1.355 . S
C1351 C1353 1.419 . S
C1352 C1350 1.415 . S
C1352 C1357 1.425 . S
C1352 C1359 1.409 . S
C1353 H1345 0.930 . S
C1353 C1351 1.419 . S
C1353 C1354 1.362 . S
C1354 H1346 0.930 . S
C1354 C1353 1.362 . S
C1354 C1357 1.409 . S
C1355 H1347 0.930 . S
C1355 C1356 1.355 . S
C1355 C1357 1.415 . S
C1356 C1355 1.355 . S
C1356 C1358 1.419 . S
C1357 C1352 1.425 . S
C1357 C1354 1.409 . S
C1357 C1355 1.415 . S
C1358 H1348 0.930 . S
C1358 C1356 1.419 . S
C1358 C1359 1.362 . S
C1359 H1349 0.930 . S
C1359 C1352 1.409 . S
C1359 C1358 1.362 . S
H1360 C1366 0.930 . S
H1361 C1369 0.930 . S
H1362 C1370 0.930 . S
H1363 C1371 0.930 . S
H1364 C1374 0.930 . S
H1365 C1375 0.930 . S
C1366 H1360 0.930 . S
C1366 C1367 1.355 . S
C1366 C1368 1.415 . S
C1367 C1366 1.355 . S
C1367 C1369 1.419 . S
C1368 C1366 1.415 . S
C1368 C1373 1.425 . S
C1368 C1375 1.409 . S
C1369 H1361 0.930 . S
C1369 C1367 1.419 . S
C1369 C1370 1.362 . S
C1370 H1362 0.930 . S
C1370 C1369 1.362 . S
C1370 C1373 1.409 . S
C1371 H1363 0.930 . S
C1371 C1372 1.355 . S
C1371 C1373 1.415 . S
C1372 C1371 1.355 . S
C1372 C1374 1.419 . S
C1373 C1368 1.425 . S
C1373 C1370 1.409 . S
C1373 C1371 1.415 . S
C1374 H1364 0.930 . S
C1374 C1372 1.419 . S
C1374 C1375 1.362 . S
C1375 H1365 0.930 . S
C1375 C1368 1.409 . S
C1375 C1374 1.362 . S
H1376 C1382 0.930 . S
H1377 C1385 0.930 . S
H1378 C1386 0.930 . S
H1379 C1387 0.930 . S
H1380 C1390 0.930 . S
H1381 C1391 0.930 . S
C1382 H1376 0.930 . S
C1382 C1383 1.355 . S
C1382 C1384 1.415 1_554 S
C1383 C1382 1.355 . S
C1383 C1385 1.419 . S
C1384 C1382 1.415 1_556 S
C1384 C1389 1.425 . S
C1384 C1391 1.409 . S
C1385 H1377 0.930 . S
C1385 C1383 1.419 . S
C1385 C1386 1.362 1_554 S
C1386 H1378 0.930 . S
C1386 C1385 1.362 1_556 S
C1386 C1389 1.409 . S
C1387 H1379 0.930 . S
C1387 C1388 1.355 . S
C1387 C1389 1.415 . S
C1388 C1387 1.355 . S
C1388 C1390 1.419 . S
C1389 C1384 1.425 . S
C1389 C1386 1.409 . S
C1389 C1387 1.415 . S
C1390 H1380 0.930 . S
C1390 C1388 1.419 . S
C1390 C1391 1.362 . S
C1391 H1381 0.930 . S
C1391 C1384 1.409 . S
C1391 C1390 1.362 . S
H1392 C1398 0.930 . S
H1393 C1401 0.930 . S
H1394 C1402 0.930 . S
H1395 C1403 0.930 . S
H1396 C1406 0.930 . S
H1397 C1407 0.930 . S
C1398 H1392 0.930 . S
C1398 C1399 1.355 . S
C1398 C1400 1.415 . S
C1399 C1398 1.355 . S
C1399 C1401 1.419 . S
C1400 C1398 1.415 . S
C1400 C1405 1.425 . S
C1400 C1407 1.409 . S
C1401 H1393 0.930 . S
C1401 C1399 1.419 . S
C1401 C1402 1.362 . S
C1402 H1394 0.930 . S
C1402 C1401 1.362 . S
C1402 C1405 1.409 . S
C1403 H1395 0.930 . S
C1403 C1404 1.355 . S
C1403 C1405 1.415 . S
C1404 C1403 1.355 . S
C1404 C1406 1.419 . S
C1405 C1400 1.425 . S
C1405 C1402 1.409 . S
C1405 C1403 1.415 . S
C1406 H1396 0.930 . S
C1406 C1404 1.419 . S
C1406 C1407 1.362 . S
C1407 H1397 0.930 . S
C1407 C1400 1.409 . S
C1407 C1406 1.362 . S
H1408 C1414 0.930 . S
H1409 C1417 0.930 . S
H1410 C1418 0.930 . S
H1411 C1419 0.930 . S
H1412 C1422 0.930 . S
H1413 C1423 0.930 . S
C1414 H1408 0.930 . S
C1414 C1415 1.355 . S
C1414 C1416 1.415 . S
C1415 C1414 1.355 . S
C1415 C1417 1.419 . S
C1416 C1414 1.415 . S
C1416 C1421 1.425 . S
C1416 C1423 1.409 . S
C1417 H1409 0.930 . S
C1417 C1415 1.419 . S
C1417 C1418 1.362 . S
C1418 H1410 0.930 . S
C1418 C1417 1.362 . S
C1418 C1421 1.409 . S
C1419 H1411 0.930 . S
C1419 C1420 1.355 . S
C1419 C1421 1.415 . S
C1420 C1419 1.355 . S
C1420 C1422 1.419 . S
C1421 C1416 1.425 . S
C1421 C1418 1.409 . S
C1421 C1419 1.415 . S
C1422 H1412 0.930 . S
C1422 C1420 1.419 . S
C1422 C1423 1.362 . S
C1423 H1413 0.930 . S
C1423 C1416 1.409 . S
C1423 C1422 1.362 . S
H1424 C1430 0.930 . S
H1425 C1433 0.930 . S
H1426 C1434 0.930 . S
H1427 C1435 0.930 . S
H1428 C1438 0.930 . S
H1429 C1439 0.930 . S
C1430 H1424 0.930 . S
C1430 C1431 1.355 . S
C1430 C1432 1.415 . S
C1431 C1430 1.355 . S
C1431 C1433 1.419 . S
C1432 C1430 1.415 . S
C1432 C1437 1.425 . S
C1432 C1439 1.409 . S
C1433 H1425 0.930 . S
C1433 C1431 1.419 . S
C1433 C1434 1.362 . S
C1434 H1426 0.930 . S
C1434 C1433 1.362 . S
C1434 C1437 1.409 . S
C1435 H1427 0.930 . S
C1435 C1436 1.355 . S
C1435 C1437 1.415 . S
C1436 C1435 1.355 . S
C1436 C1438 1.419 . S
C1437 C1432 1.425 . S
C1437 C1434 1.409 . S
C1437 C1435 1.415 . S
C1438 H1428 0.930 . S
C1438 C1436 1.419 . S
C1438 C1439 1.362 . S
C1439 H1429 0.930 . S
C1439 C1432 1.409 . S
C1439 C1438 1.362 . S
H1440 C1446 0.930 . S
H1441 C1449 0.930 . S
H1442 C1450 0.930 . S
H1443 C1451 0.930 . S
H1444 C1454 0.930 . S
H1445 C1455 0.930 . S
C1446 H1440 0.930 . S
C1446 C1447 1.355 . S
C1446 C1448 1.415 1_554 S
C1447 C1446 1.355 . S
C1447 C1449 1.419 . S
C1448 C1446 1.415 1_556 S
C1448 C1453 1.425 . S
C1448 C1455 1.409 . S
C1449 H1441 0.930 . S
C1449 C1447 1.419 . S
C1449 C1450 1.362 1_554 S
C1450 H1442 0.930 . S
C1450 C1449 1.362 1_556 S
C1450 C1453 1.409 . S
C1451 H1443 0.930 . S
C1451 C1452 1.355 . S
C1451 C1453 1.415 . S
C1452 C1451 1.355 . S
C1452 C1454 1.419 . S
C1453 C1448 1.425 . S
C1453 C1450 1.409 . S
C1453 C1451 1.415 . S
C1454 H1444 0.930 . S
C1454 C1452 1.419 . S
C1454 C1455 1.362 . S
C1455 H1445 0.930 . S
C1455 C1448 1.409 . S
C1455 C1454 1.362 . S
H1456 C1462 0.930 . S
H1457 C1465 0.930 . S
H1458 C1466 0.930 . S
H1459 C1467 0.930 . S
H1460 C1470 0.930 . S
H1461 C1471 0.930 . S
C1462 H1456 0.930 . S
C1462 C1463 1.355 . S
C1462 C1464 1.415 . S
C1463 C1462 1.355 . S
C1463 C1465 1.419 . S
C1464 C1462 1.415 . S
C1464 C1469 1.425 . S
C1464 C1471 1.409 . S
C1465 H1457 0.930 . S
C1465 C1463 1.419 . S
C1465 C1466 1.362 . S
C1466 H1458 0.930 . S
C1466 C1465 1.362 . S
C1466 C1469 1.409 . S
C1467 H1459 0.930 . S
C1467 C1468 1.355 . S
C1467 C1469 1.415 . S
C1468 C1467 1.355 . S
C1468 C1470 1.419 . S
C1469 C1464 1.425 . S
C1469 C1466 1.409 . S
C1469 C1467 1.415 . S
C1470 H1460 0.930 . S
C1470 C1468 1.419 . S
C1470 C1471 1.362 . S
C1471 H1461 0.930 . S
C1471 C1464 1.409 . S
C1471 C1470 1.362 . S
H1472 C1478 0.930 . S
H1473 C1481 0.930 . S
H1474 C1482 0.930 . S
H1475 C1483 0.930 . S
H1476 C1486 0.930 . S
H1477 C1487 0.930 . S
C1478 H1472 0.930 . S
C1478 C1479 1.355 . S
C1478 C1480 1.415 . S
C1479 C1478 1.355 . S
C1479 C1481 1.419 . S
C1480 C1478 1.415 . S
C1480 C1485 1.425 . S
C1480 C1487 1.409 . S
C1481 H1473 0.930 . S
C1481 C1479 1.419 . S
C1481 C1482 1.362 . S
C1482 H1474 0.930 . S
C1482 C1481 1.362 . S
C1482 C1485 1.409 . S
C1483 H1475 0.930 . S
C1483 C1484 1.355 . S
C1483 C1485 1.415 . S
C1484 C1483 1.355 . S
C1484 C1486 1.419 . S
C1485 C1480 1.425 . S
C1485 C1482 1.409 . S
C1485 C1483 1.415 . S
C1486 H1476 0.930 . S
C1486 C1484 1.419 . S
C1486 C1487 1.362 . S
C1487 H1477 0.930 . S
C1487 C1480 1.409 . S
C1487 C1486 1.362 . S
H1488 C1494 0.930 . S
H1489 C1497 0.930 . S
H1490 C1498 0.930 . S
H1491 C1499 0.930 . S
H1492 C1502 0.930 . S
H1493 C1503 0.930 . S
C1494 H1488 0.930 . S
C1494 C1495 1.355 . S
C1494 C1496 1.415 . S
C1495 C1494 1.355 . S
C1495 C1497 1.419 . S
C1496 C1494 1.415 . S
C1496 C1501 1.425 . S
C1496 C1503 1.409 . S
C1497 H1489 0.930 . S
C1497 C1495 1.419 . S
C1497 C1498 1.362 . S
C1498 H1490 0.930 . S
C1498 C1497 1.362 . S
C1498 C1501 1.409 . S
C1499 H1491 0.930 . S
C1499 C1500 1.355 . S
C1499 C1501 1.415 . S
C1500 C1499 1.355 . S
C1500 C1502 1.419 . S
C1501 C1496 1.425 . S
C1501 C1498 1.409 . S
C1501 C1499 1.415 . S
C1502 H1492 0.930 . S
C1502 C1500 1.419 . S
C1502 C1503 1.362 . S
C1503 H1493 0.930 . S
C1503 C1496 1.409 . S
C1503 C1502 1.362 . S
H1504 C1510 0.930 . S
H1505 C1513 0.930 . S
H1506 C1514 0.930 . S
H1507 C1515 0.930 . S
H1508 C1518 0.930 . S
H1509 C1519 0.930 . S
C1510 H1504 0.930 . S
C1510 C1511 1.355 . S
C1510 C1512 1.415 . S
C1511 C1510 1.355 . S
C1511 C1513 1.419 . S
C1512 C1510 1.415 . S
C1512 C1517 1.425 . S
C1512 C1519 1.409 . S
C1513 H1505 0.930 . S
C1513 C1511 1.419 . S
C1513 C1514 1.362 . S
C1514 H1506 0.930 . S
C1514 C1513 1.362 . S
C1514 C1517 1.409 . S
C1515 H1507 0.930 . S
C1515 C1516 1.355 . S
C1515 C1517 1.415 1_556 S
C1516 C1515 1.355 . S
C1516 C1518 1.419 . S
C1517 C1512 1.425 . S
C1517 C1514 1.409 . S
C1517 C1515 1.415 1_554 S
C1518 H1508 0.930 . S
C1518 C1516 1.419 . S
C1518 C1519 1.362 1_556 S
C1519 H1509 0.930 . S
C1519 C1512 1.409 . S
C1519 C1518 1.362 1_554 S
H1520 C1526 0.930 . S
H1521 C1529 0.930 . S
H1522 C1530 0.930 . S
H1523 C1531 0.930 . S
H1524 C1534 0.930 . S
H1525 C1535 0.930 . S
C1526 H1520 0.930 . S
C1526 C1527 1.355 . S
C1526 C1528 1.415 . S
C1527 C1526 1.355 . S
C1527 C1529 1.419 . S
C1528 C1526 1.415 . S
C1528 C1533 1.425 . S
C1528 C1535 1.409 . S
C1529 H1521 0.930 . S
C1529 C1527 1.419 . S
C1529 C1530 1.362 . S
C1530 H1522 0.930 . S
C1530 C1529 1.362 . S
C1530 C1533 1.409 . S
C1531 H1523 0.930 . S
C1531 C1532 1.355 . S
C1531 C1533 1.415 . S
C1532 C1531 1.355 . S
C1532 C1534 1.419 . S
C1533 C1528 1.425 . S
C1533 C1530 1.409 . S
C1533 C1531 1.415 . S
C1534 H1524 0.930 . S
C1534 C1532 1.419 . S
C1534 C1535 1.362 . S
C1535 H1525 0.930 . S
C1535 C1528 1.409 . S
C1535 C1534 1.362 . S
H1536 C1542 0.930 . S
H1537 C1545 0.930 . S
H1538 C1546 0.930 . S
H1539 C1547 0.930 . S
H1540 C1550 0.930 . S
H1541 C1551 0.930 . S
C1542 H1536 0.930 . S
C1542 C1543 1.355 . S
C1542 C1544 1.415 . S
C1543 C1542 1.355 . S
C1543 C1545 1.419 . S
C1544 C1542 1.415 . S
C1544 C1549 1.425 . S
C1544 C1551 1.409 . S
C1545 H1537 0.930 . S
C1545 C1543 1.419 . S
C1545 C1546 1.362 . S
C1546 H1538 0.930 . S
C1546 C1545 1.362 . S
C1546 C1549 1.409 . S
C1547 H1539 0.930 . S
C1547 C1548 1.355 . S
C1547 C1549 1.415 . S
C1548 C1547 1.355 . S
C1548 C1550 1.419 . S
C1549 C1544 1.425 . S
C1549 C1546 1.409 . S
C1549 C1547 1.415 . S
C1550 H1540 0.930 . S
C1550 C1548 1.419 . S
C1550 C1551 1.362 . S
C1551 H1541 0.930 . S
C1551 C1544 1.409 . S
C1551 C1550 1.362 . S
H1552 C1558 0.930 . S
H1553 C1561 0.930 . S
H1554 C1562 0.930 . S
H1555 C1563 0.930 . S
H1556 C1566 0.930 . S
H1557 C1567 0.930 . S
C1558 H1552 0.930 . S
C1558 C1559 1.355 . S
C1558 C1560 1.415 . S
C1559 C1558 1.355 . S
C1559 C1561 1.419 . S
C1560 C1558 1.415 . S
C1560 C1565 1.425 . S
C1560 C1567 1.409 . S
C1561 H1553 0.930 . S
C1561 C1559 1.419 . S
C1561 C1562 1.362 . S
C1562 H1554 0.930 . S
C1562 C1561 1.362 . S
C1562 C1565 1.409 . S
C1563 H1555 0.930 . S
C1563 C1564 1.355 . S
C1563 C1565 1.415 . S
C1564 C1563 1.355 . S
C1564 C1566 1.419 . S
C1565 C1560 1.425 . S
C1565 C1562 1.409 . S
C1565 C1563 1.415 . S
C1566 H1556 0.930 . S
C1566 C1564 1.419 . S
C1566 C1567 1.362 . S
C1567 H1557 0.930 . S
C1567 C1560 1.409 . S
C1567 C1566 1.362 . S
H1568 C1574 0.930 . S
H1569 C1577 0.930 . S
H1570 C1578 0.930 1_556 S
H1571 C1579 0.930 . S
H1572 C1582 0.930 . S
H1573 C1583 0.930 . S
C1574 H1568 0.930 . S
C1574 C1575 1.355 . S
C1574 C1576 1.415 . S
C1575 C1574 1.355 . S
C1575 C1577 1.419 . S
C1576 C1574 1.415 . S
C1576 C1581 1.425 . S
C1576 C1583 1.409 . S
C1577 H1569 0.930 . S
C1577 C1575 1.419 . S
C1577 C1578 1.362 . S
C1578 H1570 0.930 1_554 S
C1578 C1577 1.362 . S
C1578 C1581 1.409 . S
C1579 H1571 0.930 . S
C1579 C1580 1.355 . S
C1579 C1581 1.415 . S
C1580 C1579 1.355 . S
C1580 C1582 1.419 . S
C1581 C1576 1.425 . S
C1581 C1578 1.409 . S
C1581 C1579 1.415 . S
C1582 H1572 0.930 . S
C1582 C1580 1.419 . S
C1582 C1583 1.362 . S
C1583 H1573 0.930 . S
C1583 C1576 1.409 . S
C1583 C1582 1.362 . S
H1584 C1590 0.930 . S
H1585 C1593 0.930 . S
H1586 C1594 0.930 . S
H1587 C1595 0.930 . S
H1588 C1598 0.930 . S
H1589 C1599 0.930 . S
C1590 H1584 0.930 . S
C1590 C1591 1.355 . S
C1590 C1592 1.415 . S
C1591 C1590 1.355 . S
C1591 C1593 1.419 . S
C1592 C1590 1.415 . S
C1592 C1597 1.425 . S
C1592 C1599 1.409 . S
C1593 H1585 0.930 . S
C1593 C1591 1.419 . S
C1593 C1594 1.362 . S
C1594 H1586 0.930 . S
C1594 C1593 1.362 . S
C1594 C1597 1.409 . S
C1595 H1587 0.930 . S
C1595 C1596 1.355 . S
C1595 C1597 1.415 . S
C1596 C1595 1.355 . S
C1596 C1598 1.419 . S
C1597 C1592 1.425 . S
C1597 C1594 1.409 . S
C1597 C1595 1.415 . S
C1598 H1588 0.930 . S
C1598 C1596 1.419 . S
C1598 C1599 1.362 . S
C1599 H1589 0.930 . S
C1599 C1592 1.409 . S
C1599 C1598 1.362 . S
H1600 C1606 0.930 . S
H1601 C1609 0.930 . S
H1602 C1610 0.930 . S
H1603 C1611 0.930 . S
H1604 C1614 0.930 . S
H1605 C1615 0.930 . S
C1606 H1600 0.930 . S
C1606 C1607 1.355 . S
C1606 C1608 1.415 . S
C1607 C1606 1.355 . S
C1607 C1609 1.419 . S
C1608 C1606 1.415 . S
C1608 C1613 1.425 . S
C1608 C1615 1.409 . S
C1609 H1601 0.930 . S
C1609 C1607 1.419 . S
C1609 C1610 1.362 . S
C1610 H1602 0.930 . S
C1610 C1609 1.362 . S
C1610 C1613 1.409 . S
C1611 H1603 0.930 . S
C1611 C1612 1.355 . S
C1611 C1613 1.415 . S
C1612 C1611 1.355 . S
C1612 C1614 1.419 . S
C1613 C1608 1.425 . S
C1613 C1610 1.409 . S
C1613 C1611 1.415 . S
C1614 H1604 0.930 . S
C1614 C1612 1.419 . S
C1614 C1615 1.362 . S
C1615 H1605 0.930 . S
C1615 C1608 1.409 . S
C1615 C1614 1.362 . S
H1616 C1622 0.930 . S
H1617 C1625 0.930 . S
H1618 C1626 0.930 . S
H1619 C1627 0.930 . S
H1620 C1630 0.930 . S
H1621 C1631 0.930 . S
C1622 H1616 0.930 . S
C1622 C1623 1.355 . S
C1622 C1624 1.415 . S
C1623 C1622 1.355 . S
C1623 C1625 1.419 . S
C1624 C1622 1.415 . S
C1624 C1629 1.425 . S
C1624 C1631 1.409 . S
C1625 H1617 0.930 . S
C1625 C1623 1.419 . S
C1625 C1626 1.362 . S
C1626 H1618 0.930 . S
C1626 C1625 1.362 . S
C1626 C1629 1.409 . S
C1627 H1619 0.930 . S
C1627 C1628 1.355 . S
C1627 C1629 1.415 . S
C1628 C1627 1.355 . S
C1628 C1630 1.419 . S
C1629 C1624 1.425 . S
C1629 C1626 1.409 . S
C1629 C1627 1.415 . S
C1630 H1620 0.930 . S
C1630 C1628 1.419 . S
C1630 C1631 1.362 . S
C1631 H1621 0.930 . S
C1631 C1624 1.409 . S
C1631 C1630 1.362 . S
H1632 C1638 0.930 . S
H1633 C1641 0.930 . S
H1634 C1642 0.930 . S
H1635 C1643 0.930 . S
H1636 C1646 0.930 . S
H1637 C1647 0.930 . S
C1638 H1632 0.930 . S
C1638 C1639 1.355 . S
C1638 C1640 1.415 . S
C1639 C1638 1.355 . S
C1639 C1641 1.419 . S
C1640 C1638 1.415 . S
C1640 C1645 1.425 . S
C1640 C1647 1.409 . S
C1641 H1633 0.930 . S
C1641 C1639 1.419 . S
C1641 C1642 1.362 . S
C1642 H1634 0.930 . S
C1642 C1641 1.362 . S
C1642 C1645 1.409 . S
C1643 H1635 0.930 . S
C1643 C1644 1.355 . S
C1643 C1645 1.415 . S
C1644 C1643 1.355 . S
C1644 C1646 1.419 . S
C1645 C1640 1.425 . S
C1645 C1642 1.409 . S
C1645 C1643 1.415 . S
C1646 H1636 0.930 . S
C1646 C1644 1.419 . S
C1646 C1647 1.362 . S
C1647 H1637 0.930 . S
C1647 C1640 1.409 . S
C1647 C1646 1.362 . S
H1648 C1654 0.930 . S
H1649 C1657 0.930 . S
H1650 C1658 0.930 . S
H1651 C1659 0.930 . S
H1652 C1662 0.930 . S
H1653 C1663 0.930 . S
C1654 H1648 0.930 . S
C1654 C1655 1.355 . S
C1654 C1656 1.415 . S
C1655 C1654 1.355 . S
C1655 C1657 1.419 . S
C1656 C1654 1.415 . S
C1656 C1661 1.425 . S
C1656 C1663 1.409 . S
C1657 H1649 0.930 . S
C1657 C1655 1.419 . S
C1657 C1658 1.362 . S
C1658 H1650 0.930 . S
C1658 C1657 1.362 . S
C1658 C1661 1.409 . S
C1659 H1651 0.930 . S
C1659 C1660 1.355 . S
C1659 C1661 1.415 . S
C1660 C1659 1.355 . S
C1660 C1662 1.419 . S
C1661 C1656 1.425 . S
C1661 C1658 1.409 . S
C1661 C1659 1.415 . S
C1662 H1652 0.930 . S
C1662 C1660 1.419 . S
C1662 C1663 1.362 . S
C1663 H1653 0.930 . S
C1663 C1656 1.409 . S
C1663 C1662 1.362 . S
H1664 C1670 0.930 . S
H1665 C1673 0.930 . S
H1666 C1674 0.930 . S
H1667 C1675 0.930 . S
H1668 C1678 0.930 . S
H1669 C1679 0.930 . S
C1670 H1664 0.930 . S
C1670 C1671 1.355 . S
C1670 C1672 1.415 . S
C1671 C1670 1.355 . S
C1671 C1673 1.419 . S
C1672 C1670 1.415 . S
C1672 C1677 1.425 . S
C1672 C1679 1.409 . S
C1673 H1665 0.930 . S
C1673 C1671 1.419 . S
C1673 C1674 1.362 . S
C1674 H1666 0.930 . S
C1674 C1673 1.362 . S
C1674 C1677 1.409 . S
C1675 H1667 0.930 . S
C1675 C1676 1.355 . S
C1675 C1677 1.415 . S
C1676 C1675 1.355 . S
C1676 C1678 1.419 . S
C1677 C1672 1.425 . S
C1677 C1674 1.409 . S
C1677 C1675 1.415 . S
C1678 H1668 0.930 . S
C1678 C1676 1.419 . S
C1678 C1679 1.362 . S
C1679 H1669 0.930 . S
C1679 C1672 1.409 . S
C1679 C1678 1.362 . S
H1680 C1686 0.930 . S
H1681 C1689 0.930 . S
H1682 C1690 0.930 . S
H1683 C1691 0.930 . S
H1684 C1694 0.930 . S
H1685 C1695 0.930 . S
C1686 H1680 0.930 . S
C1686 C1687 1.355 . S
C1686 C1688 1.415 . S
C1687 C1686 1.355 . S
C1687 C1689 1.419 . S
C1688 C1686 1.415 . S
C1688 C1693 1.425 . S
C1688 C1695 1.409 . S
C1689 H1681 0.930 . S
C1689 C1687 1.419 . S
C1689 C1690 1.362 . S
C1690 H1682 0.930 . S
C1690 C1689 1.362 . S
C1690 C1693 1.409 . S
C1691 H1683 0.930 . S
C1691 C1692 1.355 . S
C1691 C1693 1.415 . S
C1692 C1691 1.355 . S
C1692 C1694 1.419 . S
C1693 C1688 1.425 . S
C1693 C1690 1.409 . S
C1693 C1691 1.415 . S
C1694 H1684 0.930 . S
C1694 C1692 1.419 . S
C1694 C1695 1.362 . S
C1695 H1685 0.930 . S
C1695 C1688 1.409 . S
C1695 C1694 1.362 . S
H1696 C1702 0.930 . S
H1697 C1705 0.930 . S
H1698 C1706 0.930 . S
H1699 C1707 0.930 . S
H1700 C1710 0.930 1_554 S
H1701 C1711 0.930 1_554 S
C1702 H1696 0.930 . S
C1702 C1703 1.355 . S
C1702 C1704 1.415 . S
C1703 C1702 1.355 . S
C1703 C1705 1.419 . S
C1704 C1702 1.415 . S
C1704 C1709 1.425 . S
C1704 C1711 1.409 . S
C1705 H1697 0.930 . S
C1705 C1703 1.419 . S
C1705 C1706 1.362 . S
C1706 H1698 0.930 . S
C1706 C1705 1.362 . S
C1706 C1709 1.409 . S
C1707 H1699 0.930 . S
C1707 C1708 1.355 . S
C1707 C1709 1.415 . S
C1708 C1707 1.355 . S
C1708 C1710 1.419 . S
C1709 C1704 1.425 . S
C1709 C1706 1.409 . S
C1709 C1707 1.415 . S
C1710 H1700 0.930 1_556 S
C1710 C1708 1.419 . S
C1710 C1711 1.362 . S
C1711 H1701 0.930 1_556 S
C1711 C1704 1.409 . S
C1711 C1710 1.362 . S
H1712 C1718 0.930 . S
H1713 C1721 0.930 . S
H1714 C1722 0.930 . S
H1715 C1723 0.930 . S
H1716 C1726 0.930 . S
H1717 C1727 0.930 . S
C1718 H1712 0.930 . S
C1718 C1719 1.355 . S
C1718 C1720 1.415 . S
C1719 C1718 1.355 . S
C1719 C1721 1.419 . S
C1720 C1718 1.415 . S
C1720 C1725 1.425 . S
C1720 C1727 1.409 . S
C1721 H1713 0.930 . S
C1721 C1719 1.419 . S
C1721 C1722 1.362 . S
C1722 H1714 0.930 . S
C1722 C1721 1.362 . S
C1722 C1725 1.409 . S
C1723 H1715 0.930 . S
C1723 C1724 1.355 . S
C1723 C1725 1.415 . S
C1724 C1723 1.355 . S
C1724 C1726 1.419 . S
C1725 C1720 1.425 . S
C1725 C1722 1.409 . S
C1725 C1723 1.415 . S
C1726 H1716 0.930 . S
C1726 C1724 1.419 . S
C1726 C1727 1.362 . S
C1727 H1717 0.930 . S
C1727 C1720 1.409 . S
C1727 C1726 1.362 . S
H1728 C1734 0.930 . S
H1729 C1737 0.930 . S
H1730 C1738 0.930 . S
H1731 C1739 0.930 . S
H1732 C1742 0.930 . S
H1733 C1743 0.930 . S
C1734 H1728 0.930 . S
C1734 C1735 1.355 . S
C1734 C1736 1.415 . S
C1735 C1734 1.355 . S
C1735 C1737 1.419 . S
C1736 C1734 1.415 . S
C1736 C1741 1.425 . S
C1736 C1743 1.409 . S
C1737 H1729 0.930 . S
C1737 C1735 1.419 . S
C1737 C1738 1.362 . S
C1738 H1730 0.930 . S
C1738 C1737 1.362 . S
C1738 C1741 1.409 . S
C1739 H1731 0.930 . S
C1739 C1740 1.355 . S
C1739 C1741 1.415 . S
C1740 C1739 1.355 . S
C1740 C1742 1.419 . S
C1741 C1736 1.425 . S
C1741 C1738 1.409 . S
C1741 C1739 1.415 . S
C1742 H1732 0.930 . S
C1742 C1740 1.419 . S
C1742 C1743 1.362 . S
C1743 H1733 0.930 . S
C1743 C1736 1.409 . S
C1743 C1742 1.362 . S
H1744 C1750 0.930 . S
H1745 C1753 0.930 . S
H1746 C1754 0.930 . S
H1747 C1755 0.930 . S
H1748 C1758 0.930 . S
H1749 C1759 0.930 . S
C1750 H1744 0.930 . S
C1750 C1751 1.355 . S
C1750 C1752 1.415 . S
C1751 C1750 1.355 . S
C1751 C1753 1.419 . S
C1752 C1750 1.415 . S
C1752 C1757 1.425 . S
C1752 C1759 1.409 . S
C1753 H1745 0.930 . S
C1753 C1751 1.419 . S
C1753 C1754 1.362 . S
C1754 H1746 0.930 . S
C1754 C1753 1.362 . S
C1754 C1757 1.409 . S
C1755 H1747 0.930 . S
C1755 C1756 1.355 . S
C1755 C1757 1.415 . S
C1756 C1755 1.355 . S
C1756 C1758 1.419 . S
C1757 C1752 1.425 . S
C1757 C1754 1.409 . S
C1757 C1755 1.415 . S
C1758 H1748 0.930 . S
C1758 C1756 1.419 . S
C1758 C1759 1.362 . S
C1759 H1749 0.930 . S
C1759 C1752 1.409 . S
C1759 C1758 1.362 . S
H1760 C1766 0.930 . S
H1761 C1769 0.930 1_556 S
H1762 C1770 0.930 1_556 S
H1763 C1771 0.930 . S
H1764 C1774 0.930 . S
H1765 C1775 0.930 . S
C1766 H1760 0.930 . S
C1766 C1767 1.355 . S
C1766 C1768 1.415 . S
C1767 C1766 1.355 . S
C1767 C1769 1.419 . S
C1768 C1766 1.415 . S
C1768 C1773 1.425 . S
C1768 C1775 1.409 . S
C1769 H1761 0.930 1_554 S
C1769 C1767 1.419 . S
C1769 C1770 1.362 . S
C1770 H1762 0.930 1_554 S
C1770 C1769 1.362 . S
C1770 C1773 1.409 . S
C1771 H1763 0.930 . S
C1771 C1772 1.355 . S
C1771 C1773 1.415 . S
C1772 C1771 1.355 . S
C1772 C1774 1.419 . S
C1773 C1768 1.425 . S
C1773 C1770 1.409 . S
C1773 C1771 1.415 . S
C1774 H1764 0.930 . S
C1774 C1772 1.419 . S
C1774 C1775 1.362 . S
C1775 H1765 0.930 . S
C1775 C1768 1.409 . S
C1775 C1774 1.362 . S
H1776 C1782 0.930 . S
H1777 C1785 0.930 . S
H1778 C1786 0.930 . S
H1779 C1787 0.930 . S
H1780 C1790 0.930 1_554 S
H1781 C1791 0.930 1_554 S
C1782 H1776 0.930 . S
C1782 C1783 1.355 . S
C1782 C1784 1.415 . S
C1783 C1782 1.355 . S
C1783 C1785 1.419 . S
C1784 C1782 1.415 . S
C1784 C1789 1.425 . S
C1784 C1791 1.409 . S
C1785 H1777 0.930 . S
C1785 C1783 1.419 . S
C1785 C1786 1.362 . S
C1786 H1778 0.930 . S
C1786 C1785 1.362 . S
C1786 C1789 1.409 . S
C1787 H1779 0.930 . S
C1787 C1788 1.355 . S
C1787 C1789 1.415 . S
C1788 C1787 1.355 . S
C1788 C1790 1.419 . S
C1789 C1784 1.425 . S
C1789 C1786 1.409 . S
C1789 C1787 1.415 . S
C1790 H1780 0.930 1_556 S
C1790 C1788 1.419 . S
C1790 C1791 1.362 . S
C1791 H1781 0.930 1_556 S
C1791 C1784 1.409 . S
C1791 C1790 1.362 . S
H1792 C1798 0.930 . S
H1793 C1801 0.930 . S
H1794 C1802 0.930 . S
H1795 C1803 0.930 . S
H1796 C1806 0.930 . S
H1797 C1807 0.930 . S
C1798 H1792 0.930 . S
C1798 C1799 1.355 . S
C1798 C1800 1.415 . S
C1799 C1798 1.355 . S
C1799 C1801 1.419 . S
C1800 C1798 1.415 . S
C1800 C1805 1.425 . S
C1800 C1807 1.409 . S
C1801 H1793 0.930 . S
C1801 C1799 1.419 . S
C1801 C1802 1.362 . S
C1802 H1794 0.930 . S
C1802 C1801 1.362 . S
C1802 C1805 1.409 . S
C1803 H1795 0.930 . S
C1803 C1804 1.355 . S
C1803 C1805 1.415 . S
C1804 C1803 1.355 . S
C1804 C1806 1.419 . S
C1805 C1800 1.425 . S
C1805 C1802 1.409 . S
C1805 C1803 1.415 . S
C1806 H1796 0.930 . S
C1806 C1804 1.419 . S
C1806 C1807 1.362 . S
C1807 H1797 0.930 . S
C1807 C1800 1.409 . S
C1807 C1806 1.362 . S
H1808 C1814 0.930 . S
H1809 C1817 0.930 . S
H1810 C1818 0.930 . S
H1811 C1819 0.930 . S
H1812 C1822 0.930 . S
H1813 C1823 0.930 . S
C1814 H1808 0.930 . S
C1814 C1815 1.355 . S
C1814 C1816 1.415 . S
C1815 C1814 1.355 . S
C1815 C1817 1.419 . S
C1816 C1814 1.415 . S
C1816 C1821 1.425 . S
C1816 C1823 1.409 . S
C1817 H1809 0.930 . S
C1817 C1815 1.419 . S
C1817 C1818 1.362 . S
C1818 H1810 0.930 . S
C1818 C1817 1.362 . S
C1818 C1821 1.409 . S
C1819 H1811 0.930 . S
C1819 C1820 1.355 . S
C1819 C1821 1.415 . S
C1820 C1819 1.355 . S
C1820 C1822 1.419 . S
C1821 C1816 1.425 . S
C1821 C1818 1.409 . S
C1821 C1819 1.415 . S
C1822 H1812 0.930 . S
C1822 C1820 1.419 . S
C1822 C1823 1.362 . S
C1823 H1813 0.930 . S
C1823 C1816 1.409 . S
C1823 C1822 1.362 . S
H1824 C1830 0.930 . S
H1825 C1833 0.930 . S
H1826 C1834 0.930 . S
H1827 C1835 0.930 . S
H1828 C1838 0.930 . S
H1829 C1839 0.930 . S
C1830 H1824 0.930 . S
C1830 C1831 1.355 . S
C1830 C1832 1.415 . S
C1831 C1830 1.355 . S
C1831 C1833 1.419 1_556 S
C1832 C1830 1.415 . S
C1832 C1837 1.425 1_556 S
C1832 C1839 1.409 . S
C1833 H1825 0.930 . S
C1833 C1831 1.419 1_554 S
C1833 C1834 1.362 . S
C1834 H1826 0.930 . S
C1834 C1833 1.362 . S
C1834 C1837 1.409 . S
C1835 H1827 0.930 . S
C1835 C1836 1.355 . S
C1835 C1837 1.415 . S
C1836 C1835 1.355 . S
C1836 C1838 1.419 1_554 S
C1837 C1832 1.425 1_554 S
C1837 C1834 1.409 . S
C1837 C1835 1.415 . S
C1838 H1828 0.930 . S
C1838 C1836 1.419 1_556 S
C1838 C1839 1.362 . S
C1839 H1829 0.930 . S
C1839 C1832 1.409 . S
C1839 C1838 1.362 . S
H1840 C1846 0.930 . S
H1841 C1849 0.930 . S
H1842 C1850 0.930 . S
H1843 C1851 0.930 . S
H1844 C1854 0.930 . S
H1845 C1855 0.930 . S
C1846 H1840 0.930 . S
C1846 C1847 1.355 . S
C1846 C1848 1.415 . S
C1847 C1846 1.355 . S
C1847 C1849 1.419 . S
C1848 C1846 1.415 . S
C1848 C1853 1.425 . S
C1848 C1855 1.409 . S
C1849 H1841 0.930 . S
C1849 C1847 1.419 . S
C1849 C1850 1.362 . S
C1850 H1842 0.930 . S
C1850 C1849 1.362 . S
C1850 C1853 1.409 . S
C1851 H1843 0.930 . S
C1851 C1852 1.355 . S
C1851 C1853 1.415 . S
C1852 C1851 1.355 . S
C1852 C1854 1.419 . S
C1853 C1848 1.425 . S
C1853 C1850 1.409 . S
C1853 C1851 1.415 . S
C1854 H1844 0.930 . S
C1854 C1852 1.419 . S
C1854 C1855 1.362 . S
C1855 H1845 0.930 . S
C1855 C1848 1.409 . S
C1855 C1854 1.362 . S
H1856 C1862 0.930 . S
H1857 C1865 0.930 . S
H1858 C1866 0.930 . S
H1859 C1867 0.930 . S
H1860 C1870 0.930 . S
H1861 C1871 0.930 . S
C1862 H1856 0.930 . S
C1862 C1863 1.355 . S
C1862 C1864 1.415 . S
C1863 C1862 1.355 . S
C1863 C1865 1.419 . S
C1864 C1862 1.415 . S
C1864 C1869 1.425 . S
C1864 C1871 1.409 . S
C1865 H1857 0.930 . S
C1865 C1863 1.419 . S
C1865 C1866 1.362 . S
C1866 H1858 0.930 . S
C1866 C1865 1.362 . S
C1866 C1869 1.409 . S
C1867 H1859 0.930 . S
C1867 C1868 1.355 . S
C1867 C1869 1.415 . S
C1868 C1867 1.355 . S
C1868 C1870 1.419 . S
C1869 C1864 1.425 . S
C1869 C1866 1.409 . S
C1869 C1867 1.415 . S
C1870 H1860 0.930 . S
C1870 C1868 1.419 . S
C1870 C1871 1.362 . S
C1871 H1861 0.930 . S
C1871 C1864 1.409 . S
C1871 C1870 1.362 . S
H1872 C1878 0.930 . S
H1873 C1881 0.930 . S
H1874 C1882 0.930 . S
H1875 C1883 0.930 . S
H1876 C1886 0.930 . S
H1877 C1887 0.930 . S
C1878 H1872 0.930 . S
C1878 C1879 1.355 . S
C1878 C1880 1.415 . S
C1879 C1878 1.355 . S
C1879 C1881 1.419 . S
C1880 C1878 1.415 . S
C1880 C1885 1.425 . S
C1880 C1887 1.409 . S
C1881 H1873 0.930 . S
C1881 C1879 1.419 . S
C1881 C1882 1.362 . S
C1882 H1874 0.930 . S
C1882 C1881 1.362 . S
C1882 C1885 1.409 . S
C1883 H1875 0.930 . S
C1883 C1884 1.355 . S
C1883 C1885 1.415 . S
C1884 C1883 1.355 . S
C1884 C1886 1.419 . S
C1885 C1880 1.425 . S
C1885 C1882 1.409 . S
C1885 C1883 1.415 . S
C1886 H1876 0.930 . S
C1886 C1884 1.419 . S
C1886 C1887 1.362 . S
C1887 H1877 0.930 . S
C1887 C1880 1.409 . S
C1887 C1886 1.362 . S
H1888 C1894 0.930 . S
H1889 C1897 0.930 . S
H1890 C1898 0.930 . S
H1891 C1899 0.930 . S
H1892 C1902 0.930 . S
H1893 C1903 0.930 . S
C1894 H1888 0.930 . S
C1894 C1895 1.355 1_554 S
C1894 C1896 1.415 . S
C1895 C1894 1.355 1_556 S
C1895 C1897 1.419 . S
C1896 C1894 1.415 . S
C1896 C1901 1.425 1_554 S
C1896 C1903 1.409 . S
C1897 H1889 0.930 . S
C1897 C1895 1.419 . S
C1897 C1898 1.362 . S
C1898 H1890 0.930 . S
C1898 C1897 1.362 . S
C1898 C1901 1.409 . S
C1899 H1891 0.930 . S
C1899 C1900 1.355 1_556 S
C1899 C1901 1.415 . S
C1900 C1899 1.355 1_554 S
C1900 C1902 1.419 . S
C1901 C1896 1.425 1_556 S
C1901 C1898 1.409 . S
C1901 C1899 1.415 . S
C1902 H1892 0.930 . S
C1902 C1900 1.419 . S
C1902 C1903 1.362 . S
C1903 H1893 0.930 . S
C1903 C1896 1.409 . S
C1903 C1902 1.362 . S
H1904 C1910 0.930 . S
H1905 C1913 0.930 . S
H1906 C1914 0.930 . S
H1907 C1915 0.930 . S
H1908 C1918 0.930 . S
H1909 C1919 0.930 . S
C1910 H1904 0.930 . S
C1910 C1911 1.355 . S
C1910 C1912 1.415 . S
C1911 C1910 1.355 . S
C1911 C1913 1.419 . S
C1912 C1910 1.415 . S
C1912 C1917 1.425 . S
C1912 C1919 1.409 . S
C1913 H1905 0.930 . S
C1913 C1911 1.419 . S
C1913 C1914 1.362 . S
C1914 H1906 0.930 . S
C1914 C1913 1.362 . S
C1914 C1917 1.409 . S
C1915 H1907 0.930 . S
C1915 C1916 1.355 . S
C1915 C1917 1.415 . S
C1916 C1915 1.355 . S
C1916 C1918 1.419 . S
C1917 C1912 1.425 . S
C1917 C1914 1.409 . S
C1917 C1915 1.415 . S
C1918 H1908 0.930 . S
C1918 C1916 1.419 . S
C1918 C1919 1.362 . S
C1919 H1909 0.930 . S
C1919 C1912 1.409 . S
C1919 C1918 1.362 . S
H1920 C1926 0.930 . S
H1921 C1929 0.930 . S
H1922 C1930 0.930 . S
H1923 C1931 0.930 . S
H1924 C1934 0.930 . S
H1925 C1935 0.930 . S
C1926 H1920 0.930 . S
C1926 C1927 1.355 . S
C1926 C1928 1.415 . S
C1927 C1926 1.355 . S
C1927 C1929 1.419 . S
C1928 C1926 1.415 . S
C1928 C1933 1.425 . S
C1928 C1935 1.409 . S
C1929 H1921 0.930 . S
C1929 C1927 1.419 . S
C1929 C1930 1.362 . S
C1930 H1922 0.930 . S
C1930 C1929 1.362 . S
C1930 C1933 1.409 . S
C1931 H1923 0.930 . S
C1931 C1932 1.355 . S
C1931 C1933 1.415 . S
C1932 C1931 1.355 . S
C1932 C1934 1.419 . S
C1933 C1928 1.425 . S
C1933 C1930 1.409 . S
C1933 C1931 1.415 . S
C1934 H1924 0.930 . S
C1934 C1932 1.419 . S
C1934 C1935 1.362 . S
C1935 H1925 0.930 . S
C1935 C1928 1.409 . S
C1935 C1934 1.362 . S
H1936 C1942 0.930 . S
H1937 C1945 0.930 . S
H1938 C1946 0.930 . S
H1939 C1947 0.930 . S
H1940 C1950 0.930 . S
H1941 C1951 0.930 . S
C1942 H1936 0.930 . S
C1942 C1943 1.355 . S
C1942 C1944 1.415 . S
C1943 C1942 1.355 . S
C1943 C1945 1.419 . S
C1944 C1942 1.415 . S
C1944 C1949 1.425 . S
C1944 C1951 1.409 . S
C1945 H1937 0.930 . S
C1945 C1943 1.419 . S
C1945 C1946 1.362 . S
C1946 H1938 0.930 . S
C1946 C1945 1.362 . S
C1946 C1949 1.409 . S
C1947 H1939 0.930 . S
C1947 C1948 1.355 . S
C1947 C1949 1.415 . S
C1948 C1947 1.355 . S
C1948 C1950 1.419 . S
C1949 C1944 1.425 . S
C1949 C1946 1.409 . S
C1949 C1947 1.415 . S
C1950 H1940 0.930 . S
C1950 C1948 1.419 . S
C1950 C1951 1.362 . S
C1951 H1941 0.930 . S
C1951 C1944 1.409 . S
C1951 C1950 1.362 . S
H1952 C1958 0.930 . S
H1953 C1961 0.930 . S
H1954 C1962 0.930 . S
H1955 C1963 0.930 . S
H1956 C1966 0.930 . S
H1957 C1967 0.930 . S
C1958 H1952 0.930 . S
C1958 C1959 1.355 . S
C1958 C1960 1.415 . S
C1959 C1958 1.355 . S
C1959 C1961 1.419 . S
C1960 C1958 1.415 . S
C1960 C1965 1.425 1_565 S
C1960 C1967 1.409 1_565 S
C1961 H1953 0.930 . S
C1961 C1959 1.419 . S
C1961 C1962 1.362 . S
C1962 H1954 0.930 . S
C1962 C1961 1.362 . S
C1962 C1965 1.409 1_565 S
C1963 H1955 0.930 . S
C1963 C1964 1.355 . S
C1963 C1965 1.415 . S
C1964 C1963 1.355 . S
C1964 C1966 1.419 . S
C1965 C1960 1.425 1_545 S
C1965 C1962 1.409 1_545 S
C1965 C1963 1.415 . S
C1966 H1956 0.930 . S
C1966 C1964 1.419 . S
C1966 C1967 1.362 . S
C1967 H1957 0.930 . S
C1967 C1960 1.409 1_545 S
C1967 C1966 1.362 . S
H1968 C1974 0.930 . S
H1969 C1977 0.930 . S
H1970 C1978 0.930 . S
H1971 C1979 0.930 . S
H1972 C1982 0.930 . S
H1973 C1983 0.930 . S
C1974 H1968 0.930 . S
C1974 C1975 1.355 . S
C1974 C1976 1.415 . S
C1975 C1974 1.355 . S
C1975 C1977 1.419 . S
C1976 C1974 1.415 . S
C1976 C1981 1.425 . S
C1976 C1983 1.409 . S
C1977 H1969 0.930 . S
C1977 C1975 1.419 . S
C1977 C1978 1.362 . S
C1978 H1970 0.930 . S
C1978 C1977 1.362 . S
C1978 C1981 1.409 . S
C1979 H1971 0.930 . S
C1979 C1980 1.355 . S
C1979 C1981 1.415 . S
C1980 C1979 1.355 . S
C1980 C1982 1.419 . S
C1981 C1976 1.425 . S
C1981 C1978 1.409 . S
C1981 C1979 1.415 . S
C1982 H1972 0.930 . S
C1982 C1980 1.419 . S
C1982 C1983 1.362 . S
C1983 H1973 0.930 . S
C1983 C1976 1.409 . S
C1983 C1982 1.362 . S
H1984 C1990 0.930 . S
H1985 C1993 0.930 . S
H1986 C1994 0.930 . S
H1987 C1995 0.930 . S
H1988 C1998 0.930 . S
H1989 C1999 0.930 . S
C1990 H1984 0.930 . S
C1990 C1991 1.355 . S
C1990 C1992 1.415 . S
C1991 C1990 1.355 . S
C1991 C1993 1.419 1_554 S
C1992 C1990 1.415 . S
C1992 C1997 1.425 1_564 S
C1992 C1999 1.409 1_565 S
C1993 H1985 0.930 . S
C1993 C1991 1.419 1_556 S
C1993 C1994 1.362 . S
C1994 H1986 0.930 . S
C1994 C1993 1.362 . S
C1994 C1997 1.409 1_565 S
C1995 H1987 0.930 . S
C1995 C1996 1.355 . S
C1995 C1997 1.415 . S
C1996 C1995 1.355 . S
C1996 C1998 1.419 1_556 S
C1997 C1992 1.425 1_546 S
C1997 C1994 1.409 1_545 S
C1997 C1995 1.415 . S
C1998 H1988 0.930 . S
C1998 C1996 1.419 1_554 S
C1998 C1999 1.362 . S
C1999 H1989 0.930 . S
C1999 C1992 1.409 1_545 S
C1999 C1998 1.362 . S
H2000 C2006 0.930 . S
H2001 C2009 0.930 . S
H2002 C2010 0.930 . S
H2003 C2011 0.930 . S
H2004 C2014 0.930 . S
H2005 C2015 0.930 . S
C2006 H2000 0.930 . S
C2006 C2007 1.355 . S
C2006 C2008 1.415 . S
C2007 C2006 1.355 . S
C2007 C2009 1.419 . S
C2008 C2006 1.415 . S
C2008 C2013 1.425 . S
C2008 C2015 1.409 . S
C2009 H2001 0.930 . S
C2009 C2007 1.419 . S
C2009 C2010 1.362 . S
C2010 H2002 0.930 . S
C2010 C2009 1.362 . S
C2010 C2013 1.409 . S
C2011 H2003 0.930 . S
C2011 C2012 1.355 . S
C2011 C2013 1.415 . S
C2012 C2011 1.355 . S
C2012 C2014 1.419 . S
C2013 C2008 1.425 . S
C2013 C2010 1.409 . S
C2013 C2011 1.415 . S
C2014 H2004 0.930 . S
C2014 C2012 1.419 . S
C2014 C2015 1.362 . S
C2015 H2005 0.930 . S
C2015 C2008 1.409 . S
C2015 C2014 1.362 . S
H2016 C2022 0.930 . S
H2017 C2025 0.930 . S
H2018 C2026 0.930 . S
H2019 C2027 0.930 . S
H2020 C2030 0.930 . S
H2021 C2031 0.930 . S
C2022 H2016 0.930 . S
C2022 C2023 1.355 . S
C2022 C2024 1.415 . S
C2023 C2022 1.355 . S
C2023 C2025 1.419 . S
C2024 C2022 1.415 . S
C2024 C2029 1.425 1_545 S
C2024 C2031 1.409 1_545 S
C2025 H2017 0.930 . S
C2025 C2023 1.419 . S
C2025 C2026 1.362 . S
C2026 H2018 0.930 . S
C2026 C2025 1.362 . S
C2026 C2029 1.409 1_545 S
C2027 H2019 0.930 . S
C2027 C2028 1.355 . S
C2027 C2029 1.415 . S
C2028 C2027 1.355 . S
C2028 C2030 1.419 . S
C2029 C2024 1.425 1_565 S
C2029 C2026 1.409 1_565 S
C2029 C2027 1.415 . S
C2030 H2020 0.930 . S
C2030 C2028 1.419 . S
C2030 C2031 1.362 . S
C2031 H2021 0.930 . S
C2031 C2024 1.409 1_565 S
C2031 C2030 1.362 . S
H2032 C2038 0.930 . S
H2033 C2041 0.930 . S
H2034 C2042 0.930 . S
H2035 C2043 0.930 . S
H2036 C2046 0.930 . S
H2037 C2047 0.930 . S
C2038 H2032 0.930 . S
C2038 C2039 1.355 . S
C2038 C2040 1.415 . S
C2039 C2038 1.355 . S
C2039 C2041 1.419 . S
C2040 C2038 1.415 . S
C2040 C2045 1.425 . S
C2040 C2047 1.409 . S
C2041 H2033 0.930 . S
C2041 C2039 1.419 . S
C2041 C2042 1.362 . S
C2042 H2034 0.930 . S
C2042 C2041 1.362 . S
C2042 C2045 1.409 . S
C2043 H2035 0.930 . S
C2043 C2044 1.355 . S
C2043 C2045 1.415 . S
C2044 C2043 1.355 . S
C2044 C2046 1.419 . S
C2045 C2040 1.425 . S
C2045 C2042 1.409 . S
C2045 C2043 1.415 . S
C2046 H2036 0.930 . S
C2046 C2044 1.419 . S
C2046 C2047 1.362 . S
C2047 H2037 0.930 . S
C2047 C2040 1.409 . S
C2047 C2046 1.362 . S
H2048 C2054 0.930 . S
H2049 C2057 0.930 . S
H2050 C2058 0.930 . S
H2051 C2059 0.930 . S
H2052 C2062 0.930 . S
H2053 C2063 0.930 . S
C2054 H2048 0.930 . S
C2054 C2055 1.355 1_556 S
C2054 C2056 1.415 . S
C2055 C2054 1.355 1_554 S
C2055 C2057 1.419 . S
C2056 C2054 1.415 . S
C2056 C2061 1.425 1_566 S
C2056 C2063 1.409 1_565 S
C2057 H2049 0.930 . S
C2057 C2055 1.419 . S
C2057 C2058 1.362 . S
C2058 H2050 0.930 . S
C2058 C2057 1.362 . S
C2058 C2061 1.409 1_565 S
C2059 H2051 0.930 . S
C2059 C2060 1.355 1_554 S
C2059 C2061 1.415 . S
C2060 C2059 1.355 1_556 S
C2060 C2062 1.419 . S
C2061 C2056 1.425 1_544 S
C2061 C2058 1.409 1_545 S
C2061 C2059 1.415 . S
C2062 H2052 0.930 . S
C2062 C2060 1.419 . S
C2062 C2063 1.362 . S
C2063 H2053 0.930 . S
C2063 C2056 1.409 1_545 S
C2063 C2062 1.362 . S
H2064 C2070 0.930 . S
H2065 C2073 0.930 . S
H2066 C2074 0.930 . S
H2067 C2075 0.930 . S
H2068 C2078 0.930 . S
H2069 C2079 0.930 . S
C2070 H2064 0.930 . S
C2070 C2071 1.355 . S
C2070 C2072 1.415 . S
C2071 C2070 1.355 . S
C2071 C2073 1.419 . S
C2072 C2070 1.415 . S
C2072 C2077 1.425 . S
C2072 C2079 1.409 . S
C2073 H2065 0.930 . S
C2073 C2071 1.419 . S
C2073 C2074 1.362 . S
C2074 H2066 0.930 . S
C2074 C2073 1.362 . S
C2074 C2077 1.409 . S
C2075 H2067 0.930 . S
C2075 C2076 1.355 . S
C2075 C2077 1.415 . S
C2076 C2075 1.355 . S
C2076 C2078 1.419 . S
C2077 C2072 1.425 . S
C2077 C2074 1.409 . S
C2077 C2075 1.415 . S
C2078 H2068 0.930 . S
C2078 C2076 1.419 . S
C2078 C2079 1.362 . S
C2079 H2069 0.930 . S
C2079 C2072 1.409 . S
C2079 C2078 1.362 . S
H2080 C2086 0.930 . S
H2081 C2089 0.930 . S
H2082 C2090 0.930 . S
H2083 C2091 0.930 . S
H2084 C2094 0.930 . S
H2085 C2095 0.930 . S
C2086 H2080 0.930 . S
C2086 C2087 1.355 . S
C2086 C2088 1.415 . S
C2087 C2086 1.355 . S
C2087 C2089 1.419 . S
C2088 C2086 1.415 . S
C2088 C2093 1.425 1_455 S
C2088 C2095 1.409 1_455 S
C2089 H2081 0.930 . S
C2089 C2087 1.419 . S
C2089 C2090 1.362 . S
C2090 H2082 0.930 . S
C2090 C2089 1.362 . S
C2090 C2093 1.409 1_455 S
C2091 H2083 0.930 . S
C2091 C2092 1.355 . S
C2091 C2093 1.415 . S
C2092 C2091 1.355 . S
C2092 C2094 1.419 . S
C2093 C2088 1.425 1_655 S
C2093 C2090 1.409 1_655 S
C2093 C2091 1.415 . S
C2094 H2084 0.930 . S
C2094 C2092 1.419 . S
C2094 C2095 1.362 . S
C2095 H2085 0.930 . S
C2095 C2088 1.409 1_655 S
C2095 C2094 1.362 . S
H2096 C2102 0.930 . S
H2097 C2105 0.930 . S
H2098 C2106 0.930 . S
H2099 C2107 0.930 . S
H2100 C2110 0.930 . S
H2101 C2111 0.930 . S
C2102 H2096 0.930 . S
C2102 C2103 1.355 . S
C2102 C2104 1.415 . S
C2103 C2102 1.355 . S
C2103 C2105 1.419 . S
C2104 C2102 1.415 . S
C2104 C2109 1.425 . S
C2104 C2111 1.409 . S
C2105 H2097 0.930 . S
C2105 C2103 1.419 . S
C2105 C2106 1.362 . S
C2106 H2098 0.930 . S
C2106 C2105 1.362 . S
C2106 C2109 1.409 . S
C2107 H2099 0.930 . S
C2107 C2108 1.355 . S
C2107 C2109 1.415 . S
C2108 C2107 1.355 . S
C2108 C2110 1.419 . S
C2109 C2104 1.425 . S
C2109 C2106 1.409 . S
C2109 C2107 1.415 . S
C2110 H2100 0.930 . S
C2110 C2108 1.419 . S
C2110 C2111 1.362 . S
C2111 H2101 0.930 . S
C2111 C2104 1.409 . S
C2111 C2110 1.362 . S
H2112 C2118 0.930 . S
H2113 C2121 0.930 . S
H2114 C2122 0.930 . S
H2115 C2123 0.930 . S
H2116 C2126 0.930 . S
H2117 C2127 0.930 . S
C2118 H2112 0.930 . S
C2118 C2119 1.355 . S
C2118 C2120 1.415 . S
C2119 C2118 1.355 . S
C2119 C2121 1.419 . S
C2120 C2118 1.415 . S
C2120 C2125 1.425 . S
C2120 C2127 1.409 . S
C2121 H2113 0.930 . S
C2121 C2119 1.419 . S
C2121 C2122 1.362 . S
C2122 H2114 0.930 . S
C2122 C2121 1.362 . S
C2122 C2125 1.409 . S
C2123 H2115 0.930 . S
C2123 C2124 1.355 . S
C2123 C2125 1.415 . S
C2124 C2123 1.355 . S
C2124 C2126 1.419 . S
C2125 C2120 1.425 . S
C2125 C2122 1.409 . S
C2125 C2123 1.415 . S
C2126 H2116 0.930 . S
C2126 C2124 1.419 . S
C2126 C2127 1.362 . S
C2127 H2117 0.930 . S
C2127 C2120 1.409 . S
C2127 C2126 1.362 . S
H2128 C2134 0.930 . S
H2129 C2137 0.930 . S
H2130 C2138 0.930 . S
H2131 C2139 0.930 . S
H2132 C2142 0.930 . S
H2133 C2143 0.930 . S
C2134 H2128 0.930 . S
C2134 C2135 1.355 . S
C2134 C2136 1.415 . S
C2135 C2134 1.355 . S
C2135 C2137 1.419 . S
C2136 C2134 1.415 . S
C2136 C2141 1.425 . S
C2136 C2143 1.409 . S
C2137 H2129 0.930 . S
C2137 C2135 1.419 . S
C2137 C2138 1.362 . S
C2138 H2130 0.930 . S
C2138 C2137 1.362 . S
C2138 C2141 1.409 . S
C2139 H2131 0.930 . S
C2139 C2140 1.355 . S
C2139 C2141 1.415 . S
C2140 C2139 1.355 . S
C2140 C2142 1.419 . S
C2141 C2136 1.425 . S
C2141 C2138 1.409 . S
C2141 C2139 1.415 . S
C2142 H2132 0.930 . S
C2142 C2140 1.419 . S
C2142 C2143 1.362 . S
C2143 H2133 0.930 . S
C2143 C2136 1.409 . S
C2143 C2142 1.362 . S
H2144 C2150 0.930 . S
H2145 C2153 0.930 . S
H2146 C2154 0.930 . S
H2147 C2155 0.930 . S
H2148 C2158 0.930 . S
H2149 C2159 0.930 . S
C2150 H2144 0.930 . S
C2150 C2151 1.355 . S
C2150 C2152 1.415 . S
C2151 C2150 1.355 . S
C2151 C2153 1.419 . S
C2152 C2150 1.415 . S
C2152 C2157 1.425 1_655 S
C2152 C2159 1.409 1_655 S
C2153 H2145 0.930 . S
C2153 C2151 1.419 . S
C2153 C2154 1.362 . S
C2154 H2146 0.930 . S
C2154 C2153 1.362 . S
C2154 C2157 1.409 1_655 S
C2155 H2147 0.930 . S
C2155 C2156 1.355 . S
C2155 C2157 1.415 . S
C2156 C2155 1.355 . S
C2156 C2158 1.419 . S
C2157 C2152 1.425 1_455 S
C2157 C2154 1.409 1_455 S
C2157 C2155 1.415 . S
C2158 H2148 0.930 . S
C2158 C2156 1.419 . S
C2158 C2159 1.362 . S
C2159 H2149 0.930 . S
C2159 C2152 1.409 1_455 S
C2159 C2158 1.362 . S
H2160 C2166 0.930 . S
H2161 C2169 0.930 . S
H2162 C2170 0.930 . S
H2163 C2171 0.930 . S
H2164 C2174 0.930 . S
H2165 C2175 0.930 . S
C2166 H2160 0.930 . S
C2166 C2167 1.355 . S
C2166 C2168 1.415 . S
C2167 C2166 1.355 . S
C2167 C2169 1.419 . S
C2168 C2166 1.415 . S
C2168 C2173 1.425 . S
C2168 C2175 1.409 . S
C2169 H2161 0.930 . S
C2169 C2167 1.419 . S
C2169 C2170 1.362 . S
C2170 H2162 0.930 . S
C2170 C2169 1.362 . S
C2170 C2173 1.409 . S
C2171 H2163 0.930 . S
C2171 C2172 1.355 . S
C2171 C2173 1.415 . S
C2172 C2171 1.355 . S
C2172 C2174 1.419 . S
C2173 C2168 1.425 . S
C2173 C2170 1.409 . S
C2173 C2171 1.415 . S
C2174 H2164 0.930 . S
C2174 C2172 1.419 . S
C2174 C2175 1.362 . S
C2175 H2165 0.930 . S
C2175 C2168 1.409 . S
C2175 C2174 1.362 . S
H2176 C2182 0.930 . S
H2177 C2185 0.930 . S
H2178 C2186 0.930 . S
H2179 C2187 0.930 . S
H2180 C2190 0.930 . S
H2181 C2191 0.930 . S
C2182 H2176 0.930 . S
C2182 C2183 1.355 . S
C2182 C2184 1.415 . S
C2183 C2182 1.355 . S
C2183 C2185 1.419 . S
C2184 C2182 1.415 . S
C2184 C2189 1.425 . S
C2184 C2191 1.409 . S
C2185 H2177 0.930 . S
C2185 C2183 1.419 . S
C2185 C2186 1.362 . S
C2186 H2178 0.930 . S
C2186 C2185 1.362 . S
C2186 C2189 1.409 . S
C2187 H2179 0.930 . S
C2187 C2188 1.355 . S
C2187 C2189 1.415 . S
C2188 C2187 1.355 . S
C2188 C2190 1.419 . S
C2189 C2184 1.425 . S
C2189 C2186 1.409 . S
C2189 C2187 1.415 . S
C2190 H2180 0.930 . S
C2190 C2188 1.419 . S
C2190 C2191 1.362 . S
C2191 H2181 0.930 . S
C2191 C2184 1.409 . S
C2191 C2190 1.362 . S
H2192 C2198 0.930 . S
H2193 C2201 0.930 . S
H2194 C2202 0.930 . S
H2195 C2203 0.930 . S
H2196 C2206 0.930 . S
H2197 C2207 0.930 . S
C2198 H2192 0.930 . S
C2198 C2199 1.355 . S
C2198 C2200 1.415 . S
C2199 C2198 1.355 . S
C2199 C2201 1.419 . S
C2200 C2198 1.415 . S
C2200 C2205 1.425 . S
C2200 C2207 1.409 . S
C2201 H2193 0.930 . S
C2201 C2199 1.419 . S
C2201 C2202 1.362 . S
C2202 H2194 0.930 . S
C2202 C2201 1.362 . S
C2202 C2205 1.409 . S
C2203 H2195 0.930 . S
C2203 C2204 1.355 . S
C2203 C2205 1.415 . S
C2204 C2203 1.355 . S
C2204 C2206 1.419 . S
C2205 C2200 1.425 . S
C2205 C2202 1.409 . S
C2205 C2203 1.415 . S
C2206 H2196 0.930 . S
C2206 C2204 1.419 . S
C2206 C2207 1.362 . S
C2207 H2197 0.930 . S
C2207 C2200 1.409 . S
C2207 C2206 1.362 . S
H2208 C2214 0.930 . S
H2209 C2217 0.930 . S
H2210 C2218 0.930 . S
H2211 C2219 0.930 . S
H2212 C2222 0.930 . S
H2213 C2223 0.930 . S
C2214 H2208 0.930 . S
C2214 C2215 1.355 . S
C2214 C2216 1.415 . S
C2215 C2214 1.355 . S
C2215 C2217 1.419 . S
C2216 C2214 1.415 . S
C2216 C2221 1.425 . S
C2216 C2223 1.409 . S
C2217 H2209 0.930 . S
C2217 C2215 1.419 . S
C2217 C2218 1.362 . S
C2218 H2210 0.930 . S
C2218 C2217 1.362 . S
C2218 C2221 1.409 . S
C2219 H2211 0.930 . S
C2219 C2220 1.355 . S
C2219 C2221 1.415 . S
C2220 C2219 1.355 . S
C2220 C2222 1.419 . S
C2221 C2216 1.425 . S
C2221 C2218 1.409 . S
C2221 C2219 1.415 . S
C2222 H2212 0.930 . S
C2222 C2220 1.419 . S
C2222 C2223 1.362 . S
C2223 H2213 0.930 . S
C2223 C2216 1.409 . S
C2223 C2222 1.362 . S
H2224 C2230 0.930 . S
H2225 C2233 0.930 . S
H2226 C2234 0.930 . S
H2227 C2235 0.930 . S
H2228 C2238 0.930 . S
H2229 C2239 0.930 . S
C2230 H2224 0.930 . S
C2230 C2231 1.355 . S
C2230 C2232 1.415 . S
C2231 C2230 1.355 . S
C2231 C2233 1.419 . S
C2232 C2230 1.415 . S
C2232 C2237 1.425 . S
C2232 C2239 1.409 . S
C2233 H2225 0.930 . S
C2233 C2231 1.419 . S
C2233 C2234 1.362 . S
C2234 H2226 0.930 . S
C2234 C2233 1.362 . S
C2234 C2237 1.409 . S
C2235 H2227 0.930 . S
C2235 C2236 1.355 . S
C2235 C2237 1.415 . S
C2236 C2235 1.355 . S
C2236 C2238 1.419 . S
C2237 C2232 1.425 . S
C2237 C2234 1.409 . S
C2237 C2235 1.415 . S
C2238 H2228 0.930 . S
C2238 C2236 1.419 . S
C2238 C2239 1.362 . S
C2239 H2229 0.930 . S
C2239 C2232 1.409 . S
C2239 C2238 1.362 . S
H2240 C2246 0.930 . S
H2241 C2249 0.930 . S
H2242 C2250 0.930 . S
H2243 C2251 0.930 . S
H2244 C2254 0.930 . S
H2245 C2255 0.930 . S
C2246 H2240 0.930 . S
C2246 C2247 1.355 . S
C2246 C2248 1.415 . S
C2247 C2246 1.355 . S
C2247 C2249 1.419 . S
C2248 C2246 1.415 . S
C2248 C2253 1.425 . S
C2248 C2255 1.409 . S
C2249 H2241 0.930 . S
C2249 C2247 1.419 . S
C2249 C2250 1.362 . S
C2250 H2242 0.930 . S
C2250 C2249 1.362 . S
C2250 C2253 1.409 . S
C2251 H2243 0.930 . S
C2251 C2252 1.355 . S
C2251 C2253 1.415 . S
C2252 C2251 1.355 . S
C2252 C2254 1.419 . S
C2253 C2248 1.425 . S
C2253 C2250 1.409 . S
C2253 C2251 1.415 . S
C2254 H2244 0.930 . S
C2254 C2252 1.419 . S
C2254 C2255 1.362 . S
C2255 H2245 0.930 . S
C2255 C2248 1.409 . S
C2255 C2254 1.362 . S
H2256 C2262 0.930 . S
H2257 C2265 0.930 . S
H2258 C2266 0.930 . S
H2259 C2267 0.930 . S
H2260 C2270 0.930 . S
H2261 C2271 0.930 . S
C2262 H2256 0.930 . S
C2262 C2263 1.355 . S
C2262 C2264 1.415 . S
C2263 C2262 1.355 . S
C2263 C2265 1.419 . S
C2264 C2262 1.415 . S
C2264 C2269 1.425 . S
C2264 C2271 1.409 . S
C2265 H2257 0.930 . S
C2265 C2263 1.419 . S
C2265 C2266 1.362 . S
C2266 H2258 0.930 . S
C2266 C2265 1.362 . S
C2266 C2269 1.409 . S
C2267 H2259 0.930 . S
C2267 C2268 1.355 . S
C2267 C2269 1.415 . S
C2268 C2267 1.355 . S
C2268 C2270 1.419 . S
C2269 C2264 1.425 . S
C2269 C2266 1.409 . S
C2269 C2267 1.415 . S
C2270 H2260 0.930 . S
C2270 C2268 1.419 . S
C2270 C2271 1.362 . S
C2271 H2261 0.930 . S
C2271 C2264 1.409 . S
C2271 C2270 1.362 . S
H2272 C2278 0.930 . S
H2273 C2281 0.930 . S
H2274 C2282 0.930 . S
H2275 C2283 0.930 . S
H2276 C2286 0.930 . S
H2277 C2287 0.930 . S
C2278 H2272 0.930 . S
C2278 C2279 1.355 . S
C2278 C2280 1.415 . S
C2279 C2278 1.355 . S
C2279 C2281 1.419 . S
C2280 C2278 1.415 . S
C2280 C2285 1.425 . S
C2280 C2287 1.409 . S
C2281 H2273 0.930 . S
C2281 C2279 1.419 . S
C2281 C2282 1.362 . S
C2282 H2274 0.930 . S
C2282 C2281 1.362 . S
C2282 C2285 1.409 . S
C2283 H2275 0.930 . S
C2283 C2284 1.355 . S
C2283 C2285 1.415 . S
C2284 C2283 1.355 . S
C2284 C2286 1.419 . S
C2285 C2280 1.425 . S
C2285 C2282 1.409 . S
C2285 C2283 1.415 . S
C2286 H2276 0.930 . S
C2286 C2284 1.419 . S
C2286 C2287 1.362 . S
C2287 H2277 0.930 . S
C2287 C2280 1.409 . S
C2287 C2286 1.362 . S
H2288 C2294 0.930 . S
H2289 C2297 0.930 . S
H2290 C2298 0.930 . S
H2291 C2299 0.930 1_556 S
H2292 C2302 0.930 . S
H2293 C2303 0.930 . S
C2294 H2288 0.930 . S
C2294 C2295 1.355 . S
C2294 C2296 1.415 . S
C2295 C2294 1.355 . S
C2295 C2297 1.419 1_554 S
C2296 C2294 1.415 . S
C2296 C2301 1.425 1_455 S
C2296 C2303 1.409 1_455 S
C2297 H2289 0.930 . S
C2297 C2295 1.419 1_556 S
C2297 C2298 1.362 . S
C2298 H2290 0.930 . S
C2298 C2297 1.362 . S
C2298 C2301 1.409 1_456 S
C2299 H2291 0.930 1_554 S
C2299 C2300 1.355 . S
C2299 C2301 1.415 . S
C2300 C2299 1.355 . S
C2300 C2302 1.419 . S
C2301 C2296 1.425 1_655 S
C2301 C2298 1.409 1_654 S
C2301 C2299 1.415 . S
C2302 H2292 0.930 . S
C2302 C2300 1.419 . S
C2302 C2303 1.362 . S
C2303 H2293 0.930 . S
C2303 C2296 1.409 1_655 S
C2303 C2302 1.362 . S
H2304 C2310 0.930 . S
H2305 C2313 0.930 . S
H2306 C2314 0.930 . S
H2307 C2315 0.930 . S
H2308 C2318 0.930 . S
H2309 C2319 0.930 . S
C2310 H2304 0.930 . S
C2310 C2311 1.355 . S
C2310 C2312 1.415 . S
C2311 C2310 1.355 . S
C2311 C2313 1.419 . S
C2312 C2310 1.415 . S
C2312 C2317 1.425 . S
C2312 C2319 1.409 . S
C2313 H2305 0.930 . S
C2313 C2311 1.419 . S
C2313 C2314 1.362 . S
C2314 H2306 0.930 . S
C2314 C2313 1.362 . S
C2314 C2317 1.409 . S
C2315 H2307 0.930 . S
C2315 C2316 1.355 . S
C2315 C2317 1.415 . S
C2316 C2315 1.355 . S
C2316 C2318 1.419 . S
C2317 C2312 1.425 . S
C2317 C2314 1.409 . S
C2317 C2315 1.415 . S
C2318 H2308 0.930 . S
C2318 C2316 1.419 . S
C2318 C2319 1.362 . S
C2319 H2309 0.930 . S
C2319 C2312 1.409 . S
C2319 C2318 1.362 . S
H2320 C2326 0.930 . S
H2321 C2329 0.930 . S
H2322 C2330 0.930 . S
H2323 C2331 0.930 . S
H2324 C2334 0.930 . S
H2325 C2335 0.930 1_554 S
C2326 H2320 0.930 . S
C2326 C2327 1.355 . S
C2326 C2328 1.415 . S
C2327 C2326 1.355 . S
C2327 C2329 1.419 . S
C2328 C2326 1.415 . S
C2328 C2333 1.425 1_455 S
C2328 C2335 1.409 1_455 S
C2329 H2321 0.930 . S
C2329 C2327 1.419 . S
C2329 C2330 1.362 . S
C2330 H2322 0.930 . S
C2330 C2329 1.362 . S
C2330 C2333 1.409 1_455 S
C2331 H2323 0.930 . S
C2331 C2332 1.355 . S
C2331 C2333 1.415 . S
C2332 C2331 1.355 . S
C2332 C2334 1.419 . S
C2333 C2328 1.425 1_655 S
C2333 C2330 1.409 1_655 S
C2333 C2331 1.415 . S
C2334 H2324 0.930 . S
C2334 C2332 1.419 . S
C2334 C2335 1.362 . S
C2335 H2325 0.930 1_556 S
C2335 C2328 1.409 1_655 S
C2335 C2334 1.362 . S
C1063 N2 1.480 . S
C1068 N13 1.482 . S
C1079 N46 1.434 . S
C1084 N35 1.431 1_556 S
C1095 N79 1.458 . S
C1100 N68 1.456 . S
C1111 N112 1.440 . S
C1116 N101 1.436 . S
C1127 N145 1.489 . S
C1132 N134 1.487 . S
C1143 N178 1.456 . S
C1148 N167 1.453 . S
C1159 N200 1.488 . S
C1164 N211 1.489 . S
C1175 N233 1.481 1_554 S
C1180 N244 1.483 . S
C1191 N266 1.467 . S
C1196 N277 1.469 . S
C1207 N299 1.427 1_554 S
C1212 N310 1.431 . S
C1223 N332 1.465 . S
C1228 N343 1.467 . S
C1239 N376 1.464 . S
C1244 N365 1.461 . S
C1255 N398 1.456 . S
C1260 N409 1.459 . S
C1271 N431 1.439 . S
C1276 N442 1.442 . S
C1287 N475 1.484 . S
C1292 N464 1.483 . S
C1303 N497 1.486 1_556 S
C1308 N508 1.487 . S
C1319 N541 1.430 . S
C1324 N530 1.427 . S
C1335 N574 1.487 . S
C1340 N563 1.486 . S
C1351 N607 1.486 . S
C1356 N596 1.484 . S
C1367 N640 1.432 . S
C1372 N629 1.428 1_556 S
C1383 N673 1.478 . S
C1388 N662 1.476 . S
C1399 N706 1.459 . S
C1404 N695 1.457 1_554 S
C1415 N739 1.433 . S
C1420 N728 1.430 . S
C1431 N761 1.488 . S
C1436 N772 1.489 . S
C1447 N805 1.482 . S
C1452 N794 1.480 . S
C1463 N838 1.431 . S
C1468 N827 1.428 . S
C1479 N871 1.486 . S
C1484 N860 1.485 . S
C1495 N893 1.487 1_554 S
C1500 N904 1.489 . S
C1511 N926 1.466 . S
C1516 N937 1.468 . S
C1527 N959 1.458 1_556 S
C1532 N970 1.461 . S
C1543 N1003 1.447 . S
C1548 N992 1.444 . S
C1559 N1025 1.487 . S
C1564 N1036 1.489 . S
C1575 C777 1.110 . S
C1580 C18 1.111 . S
C1591 C678 1.108 . S
C1596 C51 1.109 . S
C1607 C711 1.115 . S
C1612 C84 1.117 . S
C1623 C744 1.122 . S
C1628 C117 1.123 . S
C1639 C579 1.113 . S
C1644 C150 1.115 . S
C1655 C612 1.116 . S
C1660 C183 1.118 . S
C1671 C645 1.110 . S
C1676 C216 1.109 . S
C1687 C546 1.110 . S
C1692 C249 1.112 . S
C1703 C1041 1.124 . S
C1708 C282 1.125 . S
C1719 C942 1.126 . S
C1724 C315 1.126 . S
C1735 C348 1.123 . S
C1740 C975 1.121 . S
C1751 C381 1.123 . S
C1756 C1008 1.121 . S
C1767 C414 1.126 . S
C1772 C843 1.126 . S
C1783 C447 1.126 . S
C1788 C876 1.126 . S
C1799 C480 1.113 . S
C1804 C909 1.115 . S
C1815 C810 1.125 . S
C1820 C513 1.126 . S
C1831 C139 1.439 . S
C1836 C7 1.411 . S
C1847 C40 1.455 . S
C1852 C172 1.411 . S
C1863 C205 1.442 . S
C1868 C73 1.439 . S
C1879 C106 1.455 . S
C1884 C238 1.412 . S
C1895 C271 1.447 . S
C1900 C403 1.432 . S
C1911 C436 1.433 . S
C1916 C304 1.447 . S
C1927 C469 1.455 . S
C1932 C337 1.413 . S
C1943 C502 1.424 . S
C1948 C370 1.423 . S
C1959 C667 1.408 . S
C1964 C535 1.449 . S
C1975 C568 1.426 . S
C1980 C700 1.421 . S
C1991 C601 1.454 . S
C1996 C733 1.410 . S
C2007 C634 1.436 . S
C2012 C766 1.414 . S
C2023 C931 1.428 . S
C2028 C799 1.419 . S
C2039 C964 1.452 . S
C2044 C832 1.425 . S
C2055 C997 1.422 . S
C2060 C865 1.453 . S
C2071 C898 1.416 . S
C2076 C1030 1.433 . S
C2087 C21 1.458 . S
C2092 C417 1.487 . S
C2103 C978 1.487 . S
C2108 C54 1.457 . S
C2119 C87 1.485 . S
C2124 C483 1.461 . S
C2135 C1044 1.486 . S
C2140 C120 1.458 . S
C2151 C285 1.487 . S
C2156 C153 1.458 . S
C2167 C186 1.487 . S
C2172 C846 1.458 . S
C2183 C219 1.480 . S
C2188 C351 1.466 . S
C2199 C252 1.458 . S
C2204 C912 1.487 . S
C2215 C714 1.487 . S
C2220 C318 1.458 . S
C2231 C780 1.460 . S
C2236 C384 1.485 . S
C2247 C582 1.486 . S
C2252 C450 1.458 . S
C2263 C648 1.486 . S
C2268 C516 1.459 . S
C2279 C549 1.487 . S
C2284 C945 1.458 . S
C2295 C1011 1.468 . S
C2300 C615 1.477 . S
C2311 C681 1.477 . S
C2316 C813 1.468 . S
C2327 C879 1.458 . S
C2332 C747 1.487 . S
