# Generated by pormake.
# Topology rac, (4)-cn, num edge types: 1
# Building blocks:
#     Node 0, Type 0, BuildingBlock: KUFVIS_clean_sbu_0, # of connection points: 4
#     Node 1, Type 0, BuildingBlock: KUFVIS_clean_sbu_0, # of connection points: 4
#     Node 2, Type 0, BuildingBlock: KUFVIS_clean_sbu_0, # of connection points: 4
#     Node 3, Type 0, BuildingBlock: KUFVIS_clean_sbu_0, # of connection points: 4
#     Node 4, Type 0, BuildingBlock: KUFVIS_clean_sbu_0, # of connection points: 4
#     Node 5, Type 0, BuildingBlock: KUFVIS_clean_sbu_0, # of connection points: 4
#     Node 6, Type 0, BuildingBlock: KUFVIS_clean_sbu_0, # of connection points: 4
#     Node 7, Type 0, BuildingBlock: KUFVIS_clean_sbu_0, # of connection points: 4
#     Edge 8, Type (0, 0), BuildingBlock: MIFKUJ_clean_linker_0, # of connection points: 2
#     Edge 9, Type (0, 0), BuildingBlock: MIFKUJ_clean_linker_0, # of connection points: 2
#     Edge 10, Type (0, 0), BuildingBlock: MIFKUJ_clean_linker_0, # of connection points: 2
#     Edge 11, Type (0, 0), BuildingBlock: MIFKUJ_clean_linker_0, # of connection points: 2
#     Edge 12, Type (0, 0), BuildingBlock: MIFKUJ_clean_linker_0, # of connection points: 2
#     Edge 13, Type (0, 0), BuildingBlock: MIFKUJ_clean_linker_0, # of connection points: 2
#     Edge 14, Type (0, 0), BuildingBlock: MIFKUJ_clean_linker_0, # of connection points: 2
#     Edge 15, Type (0, 0), BuildingBlock: MIFKUJ_clean_linker_0, # of connection points: 2
#     Edge 16, Type (0, 0), BuildingBlock: MIFKUJ_clean_linker_0, # of connection points: 2
#     Edge 17, Type (0, 0), BuildingBlock: MIFKUJ_clean_linker_0, # of connection points: 2
#     Edge 18, Type (0, 0), BuildingBlock: MIFKUJ_clean_linker_0, # of connection points: 2
#     Edge 19, Type (0, 0), BuildingBlock: MIFKUJ_clean_linker_0, # of connection points: 2
#     Edge 20, Type (0, 0), BuildingBlock: MIFKUJ_clean_linker_0, # of connection points: 2
#     Edge 21, Type (0, 0), BuildingBlock: MIFKUJ_clean_linker_0, # of connection points: 2
#     Edge 22, Type (0, 0), BuildingBlock: MIFKUJ_clean_linker_0, # of connection points: 2
#     Edge 23, Type (0, 0), BuildingBlock: MIFKUJ_clean_linker_0, # of connection points: 2
# Relax obj value: 0.213
# Max RMSD: 0.070
# Mean RMSD: 0.070
data_MOF--net-rac--node1-KUFVIS_clean_sbu_0--edge1-MIFKUJ_clean_linker_0
_symmetry_space_group_name_H-M    P1
_symmetry_Int_Tables_number       1
_symmetry_cell_setting            triclinic
loop_
_symmetry_equiv_pos_as_xyz
'x, y, z'
_cell_length_a     52.91235
_cell_length_b     27.663296
_cell_length_c     48.063499
_cell_angle_alpha  90.003337
_cell_angle_beta   89.99107
_cell_angle_gamma 90.062158
loop_
_atom_site_label
_atom_site_type_symbol
_atom_site_fract_x
_atom_site_fract_y
_atom_site_fract_z
_atom_type_partial_charge
Mn0 Mn 0.37119 0.27471 0.05219 0.0
Mn1 Mn 0.32325 0.27378 0.09822 0.0
C2 C 0.33386 0.31512 0.04196 0.0
C3 C 0.40766 0.31801 0.03811 0.0
C4 C 0.33517 0.18892 0.05995 0.0
O5 O 0.3883 0.25086 0.0877 0.0
O6 O 0.3555 0.25858 0.11727 0.0
C7 C 0.33836 0.35714 0.13296 0.0
N8 N 0.32121 0.33547 0.1159 0.0
C9 C 0.29112 0.39915 0.12353 0.0
C10 C 0.30832 0.42167 0.14157 0.0
C11 C 0.33216 0.4009 0.14602 0.0
C12 C 0.29851 0.35589 0.1108 0.0
H13 H 0.3565 0.34083 0.1369 0.0
C14 C 0.37866 0.24926 0.11198 0.0
O15 O 0.40439 0.27319 0.03056 0.0
O16 O 0.3906 0.33571 0.05421 0.0
N17 N 0.29075 0.28858 0.08297 0.0
C18 C 0.27518 0.25938 0.06781 0.0
C19 C 0.25048 0.27475 0.06178 0.0
C20 C 0.2419 0.31953 0.07173 0.0
C21 C 0.25789 0.34809 0.08819 0.0
C22 C 0.28234 0.331 0.09346 0.0
H23 H 0.28146 0.22447 0.06054 0.0
O24 O 0.34961 0.30351 0.02247 0.0
O25 O 0.34074 0.30301 0.0669 0.0
O26 O 0.35359 0.20797 0.04629 0.0
O27 O 0.32388 0.21005 0.08011 0.0
C28 C 0.25018 0.39194 0.10042 0.0
C29 C 0.26671 0.41722 0.11826 0.0
H30 H 0.30335 0.45455 0.15245 0.0
H31 H 0.34555 0.41813 0.15987 0.0
H32 H 0.23795 0.25191 0.04983 0.0
H33 H 0.22278 0.33107 0.06718 0.0
H34 H 0.23138 0.40601 0.09674 0.0
H35 H 0.26035 0.45029 0.12807 0.0
Mn36 Mn 0.12257 0.73092 0.03897 0.0
Mn37 Mn 0.17322 0.7463 0.08095 0.0
C38 C 0.16054 0.69461 0.02825 0.0
C39 C 0.08667 0.68325 0.02875 0.0
C40 C 0.15699 0.82093 0.03853 0.0
O41 O 0.10653 0.75712 0.07451 0.0
O42 O 0.14179 0.76538 0.10037 0.0
C43 C 0.16027 0.67059 0.12214 0.0
N44 N 0.177 0.69032 0.10383 0.0
C45 C 0.20904 0.63283 0.1166 0.0
C46 C 0.19226 0.61221 0.13583 0.0
C47 C 0.16771 0.63101 0.13848 0.0
C48 C 0.20049 0.67201 0.10077 0.0
H49 H 0.14148 0.68526 0.12446 0.0
C50 C 0.1179 0.76858 0.09694 0.0
O51 O 0.08868 0.72721 0.01927 0.0
O52 O 0.10484 0.66848 0.04446 0.0
N53 N 0.20524 0.72884 0.06546 0.0
C54 C 0.21842 0.75055 0.04456 0.0
C55 C 0.24298 0.73469 0.03838 0.0
C56 C 0.25399 0.69767 0.05425 0.0
C57 C 0.24008 0.67594 0.07572 0.0
C58 C 0.21554 0.69272 0.08061 0.0
H59 H 0.21032 0.77988 0.03284 0.0
O60 O 0.14356 0.70092 0.00919 0.0
O61 O 0.15465 0.70891 0.05318 0.0
O62 O 0.13746 0.79879 0.02888 0.0
O63 O 0.17109 0.80441 0.05783 0.0
C64 C 0.24948 0.63792 0.09227 0.0
C65 C 0.23388 0.61597 0.11244 0.0
H66 H 0.19796 0.58179 0.14854 0.0
H67 H 0.15462 0.61524 0.15322 0.0
H68 H 0.25357 0.75158 0.02174 0.0
H69 H 0.27307 0.68597 0.04963 0.0
H70 H 0.26857 0.6248 0.08935 0.0
H71 H 0.24115 0.58605 0.12457 0.0
Mn72 Mn 0.36937 0.22276 0.4536 0.0
Mn73 Mn 0.31404 0.2202 0.41884 0.0
C74 C 0.33421 0.18922 0.4752 0.0
C75 C 0.40708 0.17953 0.46223 0.0
C76 C 0.33431 0.31034 0.44732 0.0
O77 O 0.38019 0.23658 0.4137 0.0
O78 O 0.34258 0.22835 0.3926 0.0
C79 C 0.32164 0.12856 0.38816 0.0
N80 N 0.30791 0.15562 0.40639 0.0
C81 C 0.27635 0.09334 0.41036 0.0
C82 C 0.29009 0.06491 0.39155 0.0
C83 C 0.31286 0.08256 0.38046 0.0
C84 C 0.28613 0.13878 0.41741 0.0
H85 H 0.33906 0.14209 0.3794 0.0
C86 C 0.36645 0.23543 0.39197 0.0
O87 O 0.40577 0.22576 0.4672 0.0
O88 O 0.38709 0.15986 0.45201 0.0
N89 N 0.28416 0.21245 0.44077 0.0
C90 C 0.27152 0.24684 0.4556 0.0
C91 C 0.24781 0.23581 0.46716 0.0
C92 C 0.23706 0.18997 0.4628 0.0
C93 C 0.24983 0.15599 0.44635 0.0
C94 C 0.27337 0.16911 0.43529 0.0
H95 H 0.27942 0.28244 0.45859 0.0
O96 O 0.35355 0.20373 0.4894 0.0
O97 O 0.3361 0.19508 0.44835 0.0
O98 O 0.35447 0.29203 0.45792 0.0
O99 O 0.31891 0.28701 0.43184 0.0
C100 C 0.23991 0.10997 0.44006 0.0
C101 C 0.25319 0.07862 0.42213 0.0
H102 H 0.28335 0.02951 0.38543 0.0
H103 H 0.32357 0.06076 0.36597 0.0
H104 H 0.23782 0.26262 0.4793 0.0
H105 H 0.21879 0.18157 0.47177 0.0
H106 H 0.22191 0.09859 0.4486 0.0
H107 H 0.24523 0.04356 0.41722 0.0
Mn108 Mn 0.1331 0.78855 0.44338 0.0
Mn109 Mn 0.18855 0.78453 0.40869 0.0
C110 C 0.16914 0.81981 0.46337 0.0
C111 C 0.096 0.8336 0.4516 0.0
C112 C 0.16702 0.69844 0.43977 0.0
O113 O 0.1221 0.77238 0.40375 0.0
O114 O 0.16006 0.77454 0.38253 0.0
C115 C 0.18158 0.87428 0.376 0.0
N116 N 0.19543 0.84759 0.39427 0.0
C117 C 0.22736 0.90942 0.39703 0.0
C118 C 0.21351 0.93748 0.37813 0.0
C119 C 0.19047 0.9199 0.36766 0.0
C120 C 0.21743 0.86447 0.40478 0.0
H121 H 0.16388 0.86085 0.36789 0.0
C122 C 0.13602 0.76952 0.38214 0.0
O123 O 0.09694 0.78765 0.45745 0.0
O124 O 0.11601 0.85208 0.44059 0.0
N125 N 0.21803 0.7939 0.43113 0.0
C126 C 0.22893 0.76264 0.44946 0.0
C127 C 0.25217 0.77467 0.46174 0.0
C128 C 0.26416 0.81831 0.45473 0.0
C129 C 0.25271 0.84973 0.43563 0.0
C130 C 0.22957 0.83574 0.42402 0.0
H131 H 0.22003 0.72868 0.45458 0.0
O132 O 0.1497 0.80957 0.47864 0.0
O133 O 0.16658 0.8129 0.4368 0.0
O134 O 0.147 0.71878 0.44946 0.0
O135 O 0.18294 0.71941 0.42382 0.0
C136 C 0.26341 0.89423 0.42753 0.0
C137 C 0.25061 0.9243 0.4085 0.0
H138 H 0.22035 0.97261 0.37157 0.0
H139 H 0.17962 0.9414 0.35314 0.0
H140 H 0.26093 0.75018 0.4764 0.0
H141 H 0.28219 0.82723 0.46408 0.0
H142 H 0.28143 0.90577 0.43586 0.0
H143 H 0.25889 0.95864 0.40272 0.0
Mn144 Mn 0.63094 0.72802 0.96113 0.0
Mn145 Mn 0.68683 0.75288 0.93022 0.0
C146 C 0.66829 0.7014 0.98131 0.0
C147 C 0.59671 0.67364 0.96533 0.0
C148 C 0.65661 0.82689 0.96308 0.0
O149 O 0.62073 0.74752 0.92172 0.0
O150 O 0.65931 0.75689 0.90226 0.0
C151 C 0.69012 0.66973 0.89113 0.0
N152 N 0.70079 0.69605 0.91211 0.0
C153 C 0.74049 0.64087 0.90565 0.0
C154 C 0.72773 0.61736 0.88449 0.0
C155 C 0.703 0.63149 0.87768 0.0
C156 C 0.72425 0.68632 0.92109 0.0
H157 H 0.67118 0.67787 0.88424 0.0
C158 C 0.63512 0.75607 0.90092 0.0
O159 O 0.59456 0.7186 0.97295 0.0
O160 O 0.61814 0.66135 0.95461 0.0
N161 N 0.71492 0.75194 0.9561 0.0
C162 C 0.71859 0.78217 0.97821 0.0
C163 C 0.7407 0.78148 0.99459 0.0
C164 C 0.76072 0.74961 0.98972 0.0
C165 C 0.75923 0.71728 0.96789 0.0
C166 C 0.73264 0.71997 0.94865 0.0
H167 H 0.70434 0.80776 0.98385 0.0
O168 O 0.64781 0.7056 0.99589 0.0
O169 O 0.66616 0.71292 0.95514 0.0
O170 O 0.63882 0.7993 0.97176 0.0
O171 O 0.67421 0.81287 0.94691 0.0
C172 C 0.78256 0.67642 0.9608 0.0
C173 C 0.76988 0.62318 0.91763 0.0
H174 H 0.73652 0.58743 0.87371 0.0
H175 H 0.6933 0.61198 0.86134 0.0
H176 H 0.74219 0.80659 0.0118 0.0
H177 H 0.77721 0.75018 0.00304 0.0
H178 H 0.79926 0.67666 0.97425 0.0
H179 H 0.77936 0.5932 0.90708 0.0
Mn180 Mn 0.86769 0.27045 0.94464 0.0
Mn181 Mn 0.81386 0.25136 0.90816 0.0
C182 C 0.83086 0.30823 0.95792 0.0
C183 C 0.90436 0.31797 0.95066 0.0
C184 C 0.83317 0.18168 0.9519 0.0
O185 O 0.88087 0.24096 0.9087 0.0
O186 O 0.84381 0.22943 0.88669 0.0
C187 C 0.82376 0.32106 0.86263 0.0
N188 N 0.80846 0.30432 0.8833 0.0
C189 C 0.77663 0.36348 0.87246 0.0
C190 C 0.79196 0.38108 0.85092 0.0
C191 C 0.81566 0.35984 0.84603 0.0
C192 C 0.78562 0.32447 0.88816 0.0
H193 H 0.84202 0.30499 0.85882 0.0
C194 C 0.86796 0.22717 0.88776 0.0
O195 O 0.9028 0.27475 0.96125 0.0
O196 O 0.88532 0.33201 0.93596 0.0
N197 N 0.78311 0.27149 0.92568 0.0
C198 C 0.77129 0.25234 0.94832 0.0
C199 C 0.74771 0.27056 0.95658 0.0
C200 C 0.73636 0.30794 0.94129 0.0
C201 C 0.74877 0.32691 0.91795 0.0
C202 C 0.77213 0.3069 0.91053 0.0
H203 H 0.77971 0.22324 0.95987 0.0
O204 O 0.84938 0.30289 0.97527 0.0
O205 O 0.83451 0.29199 0.93277 0.0
O206 O 0.85362 0.20411 0.95834 0.0
O207 O 0.81753 0.19631 0.93354 0.0
C208 C 0.73909 0.36544 0.90204 0.0
C209 C 0.75304 0.3838 0.87936 0.0
H210 H 0.78586 0.41121 0.8382 0.0
H211 H 0.82766 0.37339 0.82955 0.0
H212 H 0.73825 0.25561 0.97459 0.0
H213 H 0.71814 0.32183 0.94767 0.0
H214 H 0.7211 0.38172 0.90734 0.0
H215 H 0.74559 0.41396 0.86757 0.0
Mn216 Mn 0.63538 0.79221 0.55431 0.0
Mn217 Mn 0.69085 0.79627 0.58815 0.0
C218 C 0.67085 0.82169 0.53184 0.0
C219 C 0.59784 0.83602 0.546 0.0
C220 C 0.66842 0.70381 0.56417 0.0
O221 O 0.62567 0.78038 0.59498 0.0
O222 O 0.66283 0.79797 0.61553 0.0
C223 C 0.68777 0.89488 0.61181 0.0
N224 N 0.70013 0.86158 0.59601 0.0
C225 C 0.7347 0.91635 0.58798 0.0
C226 C 0.72256 0.95096 0.60457 0.0
C227 C 0.69888 0.94033 0.61632 0.0
C228 C 0.72263 0.87182 0.58409 0.0
H229 H 0.66961 0.88674 0.62093 0.0
C230 C 0.63915 0.78852 0.61652 0.0
O231 O 0.5987 0.78952 0.54176 0.0
O232 O 0.61822 0.85572 0.55529 0.0
N233 N 0.71968 0.79542 0.56407 0.0
C234 C 0.72847 0.75876 0.54779 0.0
C235 C 0.7516 0.76422 0.53381 0.0
C236 C 0.76568 0.80689 0.53712 0.0
C237 C 0.75637 0.84388 0.5542 0.0
C238 C 0.73306 0.83666 0.56732 0.0
H239 H 0.71802 0.7255 0.54553 0.0
O240 O 0.65109 0.80932 0.51761 0.0
O241 O 0.66872 0.81804 0.5586 0.0
O242 O 0.6496 0.72235 0.55106 0.0
O243 O 0.68311 0.72805 0.58008 0.0
C244 C 0.76934 0.88761 0.55877 0.0
C245 C 0.75833 0.9241 0.57521 0.0
H246 H 0.7312 0.98578 0.60848 0.0
H247 H 0.6893 0.96698 0.62898 0.0
H248 H 0.75867 0.73542 0.52071 0.0
H249 H 0.78358 0.8109 0.52643 0.0
H250 H 0.78774 0.89367 0.54958 0.0
H251 H 0.76825 0.95789 0.57782 0.0
Mn252 Mn 0.86764 0.21907 0.54374 0.0
Mn253 Mn 0.81121 0.21324 0.57606 0.0
C254 C 0.83343 0.18641 0.51986 0.0
C255 C 0.90589 0.1773 0.53586 0.0
C256 C 0.83236 0.30584 0.55127 0.0
O257 O 0.87689 0.23013 0.5844 0.0
O258 O 0.83872 0.21906 0.60383 0.0
C259 C 0.81738 0.11951 0.60472 0.0
N260 N 0.80452 0.14787 0.58641 0.0
C261 C 0.7727 0.08683 0.57991 0.0
C262 C 0.78535 0.05734 0.59912 0.0
C263 C 0.80788 0.07361 0.61141 0.0
C264 C 0.78304 0.13231 0.57414 0.0
H265 H 0.83455 0.13211 0.61448 0.0
C266 C 0.86249 0.22674 0.60556 0.0
O267 O 0.90446 0.2238 0.53187 0.0
O268 O 0.88565 0.1564 0.54461 0.0
N269 N 0.78224 0.20762 0.55252 0.0
C270 C 0.7704 0.2432 0.53783 0.0
C271 C 0.74713 0.23341 0.52492 0.0
C272 C 0.73598 0.18754 0.52777 0.0
C273 C 0.74794 0.15224 0.54404 0.0
C274 C 0.77108 0.16413 0.55646 0.0
H275 H 0.77862 0.27879 0.53597 0.0
O276 O 0.85317 0.20231 0.50683 0.0
O277 O 0.83436 0.19054 0.54689 0.0
O278 O 0.85274 0.28858 0.54062 0.0
O279 O 0.81659 0.28098 0.56542 0.0
C280 C 0.7376 0.10601 0.54878 0.0
C281 C 0.75001 0.07329 0.56665 0.0
H282 H 0.77785 0.02243 0.60493 0.0
H283 H 0.81776 0.05097 0.62619 0.0
H284 H 0.73777 0.26118 0.51288 0.0
H285 H 0.71806 0.1801 0.51776 0.0
H286 H 0.71995 0.09548 0.53909 0.0
H287 H 0.74176 0.03805 0.57025 0.0
H288 H 0.3296 0.15077 0.00705 0.0
H289 H 0.30054 0.08515 0.99368 0.0
H290 H 0.28382 0.05952 0.08032 0.0
H291 H 0.3133 0.12264 0.09354 0.0
H292 H 0.28284 0.97851 0.05599 0.0
H293 H 0.24898 0.13831 0.03288 0.0
H294 H 0.24936 0.21519 0.00675 0.0
H295 H 0.24446 0.13744 0.92972 0.0
H296 H 0.24478 0.06006 0.95523 0.0
H297 H 0.14968 0.91363 0.05556 0.0
H298 H 0.18083 0.97854 0.04925 0.0
H299 H 0.2212 0.89029 0.99034 0.0
H300 H 0.18925 0.82671 0.99532 0.0
H301 H 0.21141 0.02506 0.99475 0.0
H302 H 0.27973 0.88283 0.03564 0.0
H303 H 0.28068 0.80845 0.064 0.0
H304 H 0.21485 0.85554 0.1086 0.0
H305 H 0.21423 0.93107 0.08142 0.0
C306 C 0.32043 0.1298 0.02318 0.0
C307 C 0.32371 0.1421 0.05136 0.0
C308 C 0.30345 0.0928 0.01553 0.0
C309 C 0.28929 0.068 0.03593 0.0
C310 C 0.29421 0.07799 0.06405 0.0
C311 C 0.31118 0.11429 0.07163 0.0
C312 C 0.26824 0.03381 0.0288 0.0
C313 C 0.2674 0.98881 0.04239 0.0
C314 C 0.24783 0.04671 0.01107 0.0
C315 C 0.24717 0.09338 0.99594 0.0
C316 C 0.24812 0.1376 0.01037 0.0
C317 C 0.24822 0.18125 0.99569 0.0
C318 C 0.24691 0.18118 0.96666 0.0
C319 C 0.2455 0.13745 0.95221 0.0
C320 C 0.2456 0.09369 0.96675 0.0
C321 C 0.16417 0.90955 0.0398 0.0
C322 C 0.16675 0.8655 0.02552 0.0
C323 C 0.18219 0.94638 0.03648 0.0
C324 C 0.20353 0.93896 0.0196 0.0
C325 C 0.20489 0.89683 0.00343 0.0
C326 C 0.18645 0.86071 0.00608 0.0
C327 C 0.22606 0.97089 0.02245 0.0
C328 C 0.22711 0.01492 0.00802 0.0
C329 C 0.24658 0.9576 0.0397 0.0
C330 C 0.24654 0.91201 0.05595 0.0
C331 C 0.26545 0.87725 0.05148 0.0
C332 C 0.26606 0.83509 0.06752 0.0
C333 C 0.24777 0.82718 0.088 0.0
C334 C 0.22893 0.86158 0.09263 0.0
C335 C 0.22845 0.90409 0.0769 0.0
H336 H 0.24819 0.79436 0.10027 0.0
H337 H 0.24697 0.21503 0.95537 0.0
H338 H 0.17017 0.61488 0.41034 0.0
H339 H 0.19831 0.54696 0.42118 0.0
H340 H 0.21477 0.61047 0.50103 0.0
H341 H 0.18591 0.67753 0.49057 0.0
H342 H 0.25813 0.59381 0.46417 0.0
H343 H 0.18736 0.51052 0.50403 0.0
H344 H 0.14408 0.47744 0.50495 0.0
H345 H 0.16132 0.38665 0.43503 0.0
H346 H 0.20461 0.41974 0.43341 0.0
H347 H 0.31475 0.33665 0.49702 0.0
H348 H 0.28573 0.40455 0.50482 0.0
H349 H 0.30221 0.4587 0.42271 0.0
H350 H 0.3306 0.39004 0.41463 0.0
H351 H 0.2424 0.41723 0.46911 0.0
H352 H 0.29503 0.58572 0.42777 0.0
H353 H 0.3383 0.61889 0.42636 0.0
H354 H 0.35735 0.53937 0.50014 0.0
H355 H 0.31411 0.5063 0.50223 0.0
C356 C 0.17868 0.61284 0.43081 0.0
C357 C 0.17525 0.65065 0.44996 0.0
C358 C 0.19504 0.57439 0.43685 0.0
C359 C 0.20877 0.57374 0.46187 0.0
C360 C 0.20431 0.61012 0.48166 0.0
C361 C 0.18748 0.64797 0.47587 0.0
C362 C 0.22964 0.53824 0.46584 0.0
C363 C 0.25469 0.5552 0.46546 0.0
C364 C 0.22519 0.48791 0.46756 0.0
C365 C 0.19917 0.46795 0.46846 0.0
C366 C 0.18186 0.48384 0.48868 0.0
C367 C 0.15734 0.46501 0.48937 0.0
C368 C 0.14994 0.43005 0.47002 0.0
C369 C 0.16707 0.41377 0.44999 0.0
C370 C 0.19161 0.43251 0.4492 0.0
C371 C 0.31311 0.36438 0.4812 0.0
C372 C 0.32549 0.3589 0.45552 0.0
C373 C 0.2962 0.4027 0.48548 0.0
C374 C 0.29173 0.43672 0.46434 0.0
C375 C 0.30549 0.43319 0.43942 0.0
C376 C 0.32197 0.39431 0.43493 0.0
C377 C 0.27091 0.47274 0.46699 0.0
C378 C 0.24586 0.45586 0.46824 0.0
C379 C 0.27536 0.52315 0.4659 0.0
C380 C 0.30137 0.54318 0.46499 0.0
C381 C 0.30842 0.57545 0.44375 0.0
C382 C 0.33295 0.59422 0.44283 0.0
C383 C 0.35059 0.58112 0.4631 0.0
C384 C 0.34371 0.54933 0.48438 0.0
C385 C 0.3192 0.53049 0.48542 0.0
H386 H 0.36957 0.59568 0.46234 0.0
H387 H 0.13095 0.4155 0.47059 0.0
H388 H 0.65364 0.91337 0.93671 0.0
H389 H 0.68341 0.97885 0.94604 0.0
H390 H 0.70421 0.91054 0.02339 0.0
H391 H 0.67249 0.84793 0.01529 0.0
H392 H 0.71793 0.99702 0.0279 0.0
H393 H 0.73433 0.88004 0.95917 0.0
H394 H 0.72624 0.82912 0.91792 0.0
H395 H 0.72301 0.95578 0.86644 0.0
H396 H 0.73089 0.00743 0.90743 0.0
H397 H 0.84087 0.08531 0.94269 0.0
H398 H 0.81173 0.0213 0.95715 0.0
H399 H 0.77112 0.125 0.00742 0.0
H400 H 0.8024 0.18597 0.9962 0.0
H401 H 0.77004 0.01089 0.94254 0.0
H402 H 0.72502 0.08316 0.04633 0.0
H403 H 0.7392 0.11558 0.0915 0.0
H404 H 0.81165 0.04851 0.08043 0.0
H405 H 0.79781 0.01515 0.03537 0.0
C406 C 0.66319 0.91433 0.95665 0.0
C407 C 0.66094 0.87525 0.97512 0.0
C408 C 0.6808 0.9511 0.96167 0.0
C409 C 0.69728 0.94819 0.98461 0.0
C410 C 0.69222 0.91336 0.0052 0.0
C411 C 0.67374 0.87775 0.00072 0.0
C412 C 0.72149 0.97646 0.98491 0.0
C413 C 0.72936 1.00023 0.00926 0.0
C414 C 0.73745 0.97831 0.96122 0.0
C415 C 0.73293 0.94756 0.93639 0.0
C416 C 0.73175 0.89697 0.93906 0.0
C417 C 0.72722 0.868 0.91575 0.0
C418 C 0.724 0.88922 0.88962 0.0
C419 C 0.72545 0.93942 0.88671 0.0
C420 C 0.73 0.96856 0.90996 0.0
C421 C 0.82676 0.09321 0.95837 0.0
C422 C 0.82405 0.14041 0.96856 0.0
C423 C 0.80958 0.05693 0.96616 0.0
C424 C 0.78858 0.06768 0.98323 0.0
C425 C 0.78715 0.1143 0.99491 0.0
C426 C 0.8051 0.14965 0.98829 0.0
C427 C 0.76663 0.0331 0.98549 0.0
C428 C 0.75903 0.00784 0.96147 0.0
C429 C 0.75202 0.02727 0.01013 0.0
C430 C 0.76041 0.04695 0.03734 0.0
C431 C 0.74393 0.0751 0.05359 0.0
C432 C 0.75193 0.09371 0.07917 0.0
C433 C 0.77633 0.08421 0.0888 0.0
C434 C 0.79278 0.05598 0.0729 0.0
C435 C 0.78488 0.03727 0.04732 0.0
H436 H 0.78249 0.09867 0.1086 0.0
H437 H 0.72045 0.86674 0.8716 0.0
H438 H 0.67362 0.65786 0.51385 0.0
H439 H 0.70222 0.5895 0.50475 0.0
H440 H 0.71357 0.57173 0.59296 0.0
H441 H 0.68509 0.63918 0.60205 0.0
H442 H 0.7583 0.58904 0.56318 0.0
H443 H 0.6841 0.48664 0.55796 0.0
H444 H 0.64285 0.46111 0.53913 0.0
H445 H 0.6757 0.44474 0.45799 0.0
H446 H 0.71711 0.47084 0.47627 0.0
H447 H 0.8241 0.37412 0.5901 0.0
H448 H 0.79709 0.44491 0.58503 0.0
H449 H 0.79252 0.41965 0.49659 0.0
H450 H 0.81959 0.34793 0.50187 0.0
H451 H 0.74639 0.42982 0.51767 0.0
H452 H 0.82133 0.52287 0.5229 0.0
H453 H 0.86289 0.5492 0.54047 0.0
H454 H 0.82958 0.58607 0.61911 0.0
H455 H 0.78786 0.55932 0.60217 0.0
C456 C 0.68121 0.63774 0.53127 0.0
C457 C 0.67695 0.65367 0.55868 0.0
C458 C 0.69785 0.5991 0.52606 0.0
C459 C 0.71038 0.57594 0.54818 0.0
C460 C 0.70436 0.58927 0.57555 0.0
C461 C 0.68781 0.6275 0.58073 0.0
C462 C 0.73162 0.54152 0.54329 0.0
C463 C 0.75567 0.55406 0.55339 0.0
C464 C 0.7285 0.49685 0.52939 0.0
C465 C 0.70362 0.48132 0.5184 0.0
C466 C 0.68247 0.47811 0.53604 0.0
C467 C 0.65908 0.4634 0.52548 0.0
C468 C 0.65663 0.45148 0.49736 0.0
C469 C 0.67761 0.4541 0.47975 0.0
C470 C 0.70105 0.46882 0.4902 0.0
C471 C 0.81834 0.38504 0.56939 0.0
C472 C 0.82452 0.35633 0.54628 0.0
C473 C 0.80269 0.4254 0.56649 0.0
C474 C 0.79273 0.43806 0.54038 0.0
C475 C 0.79999 0.41086 0.51695 0.0
C476 C 0.81585 0.37041 0.51986 0.0
C477 C 0.77299 0.47662 0.53846 0.0
C478 C 0.74922 0.46507 0.52705 0.0
C479 C 0.77639 0.52256 0.55094 0.0
C480 C 0.80146 0.53878 0.56128 0.0
C481 C 0.82289 0.53626 0.54401 0.0
C482 C 0.84647 0.55132 0.55385 0.0
C483 C 0.84888 0.56923 0.5809 0.0
C484 C 0.82769 0.57219 0.59815 0.0
C485 C 0.80405 0.55715 0.58842 0.0
H486 H 0.86716 0.58087 0.58848 0.0
H487 H 0.63851 0.44008 0.48923 0.0
H488 H 0.3994 0.31597 0.14561 0.0
H489 H 0.41228 0.30303 0.1936 0.0
H490 H 0.40659 0.14861 0.18162 0.0
H491 H 0.39203 0.16223 0.13378 0.0
H492 H 0.3799 0.16934 0.22213 0.0
H493 H 0.46422 0.20927 0.20298 0.0
H494 H 0.50038 0.2531 0.1827 0.0
H495 H 0.47996 0.38053 0.22843 0.0
H496 H 0.44345 0.33778 0.24868 0.0
H497 H 0.41489 0.21139 0.37635 0.0
H498 H 0.43105 0.20529 0.32843 0.0
H499 H 0.36078 0.26293 0.29746 0.0
H500 H 0.34452 0.26835 0.34471 0.0
H501 H 0.43692 0.26808 0.28127 0.0
H502 H 0.33911 0.19014 0.24888 0.0
H503 H 0.30473 0.14321 0.27065 0.0
H504 H 0.35751 0.08065 0.32812 0.0
H505 H 0.39225 0.12651 0.30641 0.0
C506 C 0.40181 0.27926 0.15298 0.0
C507 C 0.39483 0.24006 0.13618 0.0
C508 C 0.4094 0.27175 0.18044 0.0
C509 C 0.41057 0.22473 0.19148 0.0
C510 C 0.40583 0.18524 0.17371 0.0
C511 C 0.39776 0.1929 0.14631 0.0
C512 C 0.41188 0.21793 0.22223 0.0
C513 C 0.39281 0.19022 0.2349 0.0
C514 C 0.42895 0.2442 0.23929 0.0
C515 C 0.45101 0.27022 0.22734 0.0
C516 C 0.46734 0.24672 0.20862 0.0
C517 C 0.48792 0.27138 0.19713 0.0
C518 C 0.49246 0.31957 0.20427 0.0
C519 C 0.47645 0.34317 0.22295 0.0
C520 C 0.45583 0.31869 0.2345 0.0
C521 C 0.40316 0.22371 0.35931 0.0
C522 C 0.3783 0.23966 0.36421 0.0
C523 C 0.41241 0.2202 0.332 0.0
C524 C 0.3969 0.23278 0.30944 0.0
C525 C 0.37288 0.25222 0.31457 0.0
C526 C 0.3636 0.25526 0.3416 0.0
C527 C 0.40425 0.22185 0.28034 0.0
C528 C 0.42474 0.24615 0.26822 0.0
C529 C 0.38898 0.19138 0.26372 0.0
C530 C 0.36829 0.16194 0.27604 0.0
C531 C 0.34343 0.16599 0.26596 0.0
C532 C 0.32386 0.13966 0.27836 0.0
C533 C 0.32891 0.10905 0.3008 0.0
C534 C 0.35359 0.10445 0.31079 0.0
C535 C 0.37323 0.1306 0.29844 0.0
H536 H 0.31372 0.08886 0.31043 0.0
H537 H 0.50839 0.33861 0.19533 0.0
H538 H 0.09284 0.81091 0.36162 0.0
H539 H 0.07937 0.81209 0.31269 0.0
H540 H 0.13956 0.71317 0.292 0.0
H541 H 0.15353 0.71357 0.34034 0.0
H542 H 0.14261 0.78744 0.26053 0.0
H543 H 0.07505 0.68232 0.28888 0.0
H544 H 0.03803 0.65738 0.31657 0.0
H545 H 0.99688 0.78128 0.28764 0.0
H546 H 0.0338 0.80731 0.26005 0.0
H547 H 0.08711 0.70787 0.12497 0.0
H548 H 0.07901 0.71255 0.17505 0.0
H549 H 0.10903 0.8576 0.17635 0.0
H550 H 0.11841 0.85177 0.12661 0.0
H551 H 0.05822 0.76357 0.21766 0.0
H552 H 0.15219 0.86601 0.22536 0.0
H553 H 0.19037 0.88238 0.19734 0.0
H554 H 0.18092 0.74725 0.15479 0.0
H555 H 0.14265 0.72995 0.18254 0.0
C556 C 0.1027 0.78851 0.34666 0.0
C557 C 0.1243 0.76241 0.3546 0.0
C558 C 0.09502 0.78918 0.31873 0.0
C559 C 0.10856 0.76296 0.29855 0.0
C560 C 0.12898 0.73415 0.30706 0.0
C561 C 0.1369 0.73422 0.3347 0.0
C562 C 0.10359 0.76926 0.2683 0.0
C563 C 0.12408 0.78223 0.2513 0.0
C564 C 0.07948 0.76261 0.25606 0.0
C565 C 0.05729 0.74704 0.27264 0.0
C566 C 0.05819 0.70448 0.28861 0.0
C567 C 0.03721 0.69009 0.30425 0.0
C568 C 0.01514 0.7178 0.30393 0.0
C569 C 0.014 0.75989 0.28791 0.0
C570 C 0.03494 0.77445 0.27225 0.0
C571 C 0.09075 0.74159 0.13574 0.0
C572 C 0.10333 0.77951 0.12212 0.0
C573 C 0.08623 0.74419 0.16439 0.0
C574 C 0.09405 0.78493 0.17957 0.0
C575 C 0.1033 0.82545 0.16512 0.0
C576 C 0.10841 0.82237 0.13667 0.0
C577 C 0.09727 0.7814 0.21021 0.0
C578 C 0.07659 0.76914 0.22715 0.0
C579 C 0.12139 0.7874 0.22252 0.0
C580 C 0.14446 0.797 0.20583 0.0
C581 C 0.15829 0.83978 0.21003 0.0
C582 C 0.17988 0.84922 0.19415 0.0
C583 C 0.18794 0.81595 0.17417 0.0
C584 C 0.17448 0.77305 0.17011 0.0
C585 C 0.15284 0.76344 0.18588 0.0
H586 H 0.20467 0.8233 0.16191 0.0
H587 H 0.99892 0.7066 0.31604 0.0
H588 H 0.59428 0.71033 0.87774 0.0
H589 H 0.58034 0.71551 0.82895 0.0
H590 H 0.63668 0.825 0.8134 0.0
H591 H 0.65099 0.81912 0.86159 0.0
H592 H 0.58854 0.84231 0.78665 0.0
H593 H 0.65319 0.7178 0.79915 0.0
H594 H 0.66983 0.64357 0.82072 0.0
H595 H 0.60468 0.56459 0.79276 0.0
H596 H 0.58756 0.63872 0.77117 0.0
H597 H 0.65282 0.84134 0.66152 0.0
H598 H 0.63665 0.83562 0.70876 0.0
H599 H 0.58323 0.7268 0.68275 0.0
H600 H 0.59915 0.73316 0.63467 0.0
H601 H 0.61436 0.7011 0.72966 0.0
H602 H 0.55839 0.82563 0.70348 0.0
H603 H 0.54482 0.90153 0.68121 0.0
H604 H 0.59462 0.98224 0.73433 0.0
H605 H 0.60882 0.90678 0.75664 0.0
C606 C 0.60324 0.73621 0.86399 0.0
C607 C 0.62376 0.76418 0.87329 0.0
C608 C 0.59532 0.73907 0.8362 0.0
C609 C 0.60751 0.77065 0.81764 0.0
C610 C 0.62694 0.80064 0.82743 0.0
C611 C 0.63518 0.79706 0.8549 0.0
C612 C 0.60235 0.76922 0.78736 0.0
C613 C 0.59388 0.81136 0.77411 0.0
C614 C 0.60872 0.72834 0.77115 0.0
C615 C 0.61896 0.6838 0.78392 0.0
C616 C 0.64233 0.68467 0.79782 0.0
C617 C 0.65186 0.64263 0.81001 0.0
C618 C 0.63826 0.5994 0.80826 0.0
C619 C 0.61515 0.59813 0.79418 0.0
C620 C 0.60553 0.64014 0.78195 0.0
C621 C 0.63737 0.81667 0.66565 0.0
C622 C 0.62729 0.78761 0.64439 0.0
C623 C 0.62805 0.81363 0.69268 0.0
C624 C 0.60862 0.78107 0.69922 0.0
C625 C 0.59811 0.75242 0.67802 0.0
C626 C 0.60716 0.75617 0.65064 0.0
C627 C 0.60135 0.77486 0.72879 0.0
C628 C 0.60778 0.73139 0.74203 0.0
C629 C 0.5932 0.81467 0.74495 0.0
C630 C 0.58472 0.8604 0.73171 0.0
C631 C 0.56658 0.85952 0.71031 0.0
C632 C 0.55876 0.90249 0.69769 0.0
C633 C 0.56886 0.94668 0.70634 0.0
C634 C 0.58679 0.94798 0.72766 0.0
C635 C 0.5947 0.9051 0.74035 0.0
H636 H 0.56277 0.97991 0.69654 0.0
H637 H 0.64568 0.56687 0.81772 0.0
H638 H 0.83847 0.25566 0.65255 0.0
H639 H 0.85458 0.25553 0.70001 0.0
H640 H 0.92695 0.20527 0.67064 0.0
H641 H 0.9109 0.20574 0.62256 0.0
H642 H 0.90666 0.15082 0.71568 0.0
H643 H 0.92605 0.31404 0.69478 0.0
H644 H 0.91864 0.39569 0.67594 0.0
H645 H 0.8572 0.41594 0.73312 0.0
H646 H 0.86396 0.33414 0.75203 0.0
H647 H 0.91309 0.26189 0.86851 0.0
H648 H 0.92836 0.25771 0.82038 0.0
H649 H 0.86696 0.16155 0.79962 0.0
H650 H 0.85161 0.16585 0.84738 0.0
H651 H 0.89938 0.29246 0.77849 0.0
H652 H 0.88203 0.09182 0.74529 0.0
H653 H 0.88952 0.01023 0.76415 0.0
H654 H 0.94944 0.06526 0.81541 0.0
H655 H 0.9426 0.14707 0.79657 0.0
C656 C 0.85792 0.24504 0.65606 0.0
C657 C 0.87341 0.23064 0.63381 0.0
C658 C 0.86713 0.24521 0.68321 0.0
C659 C 0.892 0.23069 0.68881 0.0
C660 C 0.90774 0.21683 0.66668 0.0
C661 C 0.89859 0.21734 0.63928 0.0
C662 C 0.9005 0.22759 0.71814 0.0
C663 C 0.90551 0.18182 0.72944 0.0
C664 C 0.89957 0.26831 0.7359 0.0
C665 C 0.89551 0.31782 0.72479 0.0
C666 C 0.91086 0.33578 0.70324 0.0
C667 C 0.90679 0.38212 0.69256 0.0
C668 C 0.88746 0.41098 0.70332 0.0
C669 C 0.87219 0.39357 0.72482 0.0
C670 C 0.87617 0.34724 0.73557 0.0
C671 C 0.90345 0.2384 0.85392 0.0
C672 C 0.88109 0.21434 0.86164 0.0
C673 C 0.9121 0.23629 0.8264 0.0
C674 C 0.89883 0.2093 0.8064 0.0
C675 C 0.87772 0.18212 0.81472 0.0
C676 C 0.86889 0.18474 0.84203 0.0
C677 C 0.90412 0.21523 0.77626 0.0
C678 C 0.90147 0.26159 0.76477 0.0
C679 C 0.90731 0.17506 0.75837 0.0
C680 C 0.91173 0.12572 0.76954 0.0
C681 C 0.89694 0.08651 0.76042 0.0
C682 C 0.90104 0.0402 0.77116 0.0
C683 C 0.91992 0.03258 0.79099 0.0
C684 C 0.93477 0.07124 0.8001 0.0
C685 C 0.93077 0.11761 0.78943 0.0
H686 H 0.92304 0.99671 0.79929 0.0
H687 H 0.88433 0.44683 0.69501 0.0
H688 H 0.45178 0.29474 0.00939 0.0
H689 H 0.48498 0.35146 0.99379 0.0
H690 H 0.44294 0.47038 0.02864 0.0
H691 H 0.41035 0.415 0.04416 0.0
H692 H 0.45966 0.49196 0.97684 0.0
H693 H 0.49321 0.42612 0.06216 0.0
H694 H 0.50765 0.36107 0.0934 0.0
H695 H 0.56402 0.31946 0.03378 0.0
H696 H 0.54967 0.38391 0.00199 0.0
H697 H 0.54903 0.68516 0.98782 0.0
H698 H 0.51757 0.62176 0.99711 0.0
H699 H 0.56791 0.51482 0.96271 0.0
H700 H 0.59924 0.57748 0.95353 0.0
H701 H 0.5481 0.48278 0.01053 0.0
H702 H 0.51643 0.55261 0.9265 0.0
H703 H 0.50206 0.61807 0.89552 0.0
H704 H 0.44209 0.65213 0.95241 0.0
H705 H 0.45633 0.58728 0.98395 0.0
C706 C 0.44972 0.33295 0.01369 0.0
C707 C 0.42843 0.3501 0.02816 0.0
C708 C 0.46869 0.36535 0.00482 0.0
C709 C 0.46648 0.41536 0.01004 0.0
C710 C 0.44511 0.43219 0.02421 0.0
C711 C 0.42649 0.40015 0.03325 0.0
C712 C 0.4862 0.45092 0.00123 0.0
C713 C 0.47897 0.49004 0.98433 0.0
C714 C 0.51154 0.44818 0.01052 0.0
C715 C 0.52015 0.40939 0.02955 0.0
C716 C 0.50852 0.40279 0.05559 0.0
C717 C 0.51672 0.3661 0.07343 0.0
C718 C 0.53668 0.33603 0.06554 0.0
C719 C 0.54852 0.34269 0.03983 0.0
C720 C 0.54037 0.3793 0.0219 0.0
C721 C 0.55329 0.64821 0.98206 0.0
C722 C 0.57666 0.63658 0.96985 0.0
C723 C 0.53528 0.61194 0.98734 0.0
C724 C 0.54027 0.56332 0.98051 0.0
C725 C 0.56356 0.55186 0.96825 0.0
C726 C 0.58145 0.58796 0.96289 0.0
C727 C 0.52147 0.52421 0.98642 0.0
C728 C 0.52886 0.48449 0.00278 0.0
C729 C 0.49625 0.52639 0.97663 0.0
C730 C 0.48761 0.56539 0.95772 0.0
C731 C 0.50031 0.57432 0.93252 0.0
C732 C 0.49216 0.61127 0.91484 0.0
C733 C 0.47121 0.63933 0.92203 0.0
C734 C 0.45833 0.63041 0.94689 0.0
C735 C 0.46642 0.59354 0.96467 0.0
H736 H 0.46493 0.6679 0.9083 0.0
H737 H 0.54302 0.30767 0.07938 0.0
H738 H 0.07766 0.59478 0.05105 0.0
H739 H 0.04705 0.53426 0.03649 0.0
H740 H 0.01812 0.63211 0.9744 0.0
H741 H 0.04898 0.6938 0.98915 0.0
H742 H 0.97996 0.58235 0.00114 0.0
H743 H 0.05774 0.54141 0.95593 0.0
H744 H 0.10331 0.52353 0.95279 0.0
H745 H 0.09375 0.40203 0.00738 0.0
H746 H 0.04819 0.4196 0.0112 0.0
H747 H 0.91259 0.40529 0.92636 0.0
H748 H 0.94354 0.46671 0.9389 0.0
H749 H 0.97463 0.3716 0.00115 0.0
H750 H 0.94352 0.30917 0.98842 0.0
H751 H 0.01176 0.42066 0.97328 0.0
H752 H 0.93471 0.46206 0.01962 0.0
H753 H 0.88907 0.47889 0.02315 0.0
H754 H 0.89722 0.59884 0.96716 0.0
H755 H 0.94289 0.58228 0.96297 0.0
C756 C 0.06473 0.60385 0.03438 0.0
C757 C 0.06595 0.64924 0.02114 0.0
C758 C 0.04727 0.5689 0.02598 0.0
C759 C 0.03058 0.57804 0.00394 0.0
C760 C 0.03094 0.62402 0.99133 0.0
C761 C 0.04854 0.65931 0.9998 0.0
C762 C 0.01313 0.53907 0.99413 0.0
C763 C 0.98695 0.54729 0.99459 0.0
C764 C 0.02213 0.4927 0.9863 0.0
C765 C 0.04956 0.4821 0.98404 0.0
C766 C 0.06538 0.51112 0.96746 0.0
C767 C 0.09121 0.501 0.96552 0.0
C768 C 0.10142 0.46173 0.97992 0.0
C769 C 0.08582 0.43247 0.99626 0.0
C770 C 0.05999 0.44247 0.9983 0.0
C771 C 0.92612 0.39703 0.94258 0.0
C772 C 0.92543 0.35224 0.95651 0.0
C773 C 0.94377 0.43246 0.94984 0.0
C774 C 0.96114 0.42437 0.97139 0.0
C775 C 0.96131 0.37889 0.98457 0.0
C776 C 0.94356 0.34316 0.97725 0.0
C777 C 0.97862 0.46391 0.98035 0.0
C778 C 0.00478 0.45577 0.97974 0.0
C779 C 0.96961 0.5103 0.98812 0.0
C780 C 0.94219 0.52062 0.99076 0.0
C781 C 0.92674 0.4918 0.00789 0.0
C782 C 0.90087 0.50133 0.01004 0.0
C783 C 0.89024 0.53983 0.99533 0.0
C784 C 0.90548 0.56898 0.97851 0.0
C785 C 0.93136 0.55957 0.97626 0.0
H786 H 0.8702 0.54714 0.99701 0.0
H787 H 0.12139 0.45385 0.97838 0.0
H788 H 0.55671 0.81731 0.51192 0.0
H789 H 0.52378 0.87522 0.49773 0.0
H790 H 0.55694 0.98357 0.55099 0.0
H791 H 0.58927 0.92639 0.56532 0.0
H792 H 0.50721 0.98859 0.55438 0.0
H793 H 0.56858 0.98144 0.48043 0.0
H794 H 0.59434 0.94145 0.44439 0.0
H795 H 0.52692 0.89303 0.40314 0.0
H796 H 0.50076 0.9323 0.43914 0.0
H797 H 0.44803 0.19854 0.49658 0.0
H798 H 0.48108 0.14095 0.51085 0.0
H799 H 0.4483 0.03228 0.45752 0.0
H800 H 0.4159 0.08913 0.44307 0.0
H801 H 0.49796 0.02759 0.45419 0.0
H802 H 0.43661 0.03528 0.52826 0.0
H803 H 0.41103 0.07581 0.56425 0.0
H804 H 0.47866 0.12359 0.60534 0.0
H805 H 0.50464 0.08384 0.56936 0.0
C806 C 0.55665 0.85321 0.52091 0.0
C807 C 0.5757 0.86723 0.53963 0.0
C808 C 0.53797 0.88646 0.51262 0.0
C809 C 0.53804 0.93419 0.52297 0.0
C810 C 0.5564 0.94722 0.54261 0.0
C811 C 0.57499 0.91433 0.55073 0.0
C812 C 0.51976 0.97149 0.51289 0.0
C813 C 0.50538 0.99736 0.53247 0.0
C814 C 0.51705 0.98287 0.48431 0.0
C815 C 0.53273 0.95934 0.46263 0.0
C816 C 0.55926 0.96195 0.46379 0.0
C817 C 0.57393 0.93948 0.44335 0.0
C818 C 0.56227 0.91458 0.42154 0.0
C819 C 0.53592 0.91225 0.42008 0.0
C820 C 0.52116 0.93464 0.44047 0.0
C821 C 0.4482 0.16264 0.48761 0.0
C822 C 0.42924 0.14846 0.4688 0.0
C823 C 0.46695 0.12956 0.49593 0.0
C824 C 0.46703 0.08183 0.48557 0.0
C825 C 0.44874 0.06864 0.4659 0.0
C826 C 0.4301 0.10135 0.45771 0.0
C827 C 0.48538 0.04467 0.49568 0.0
C828 C 0.49978 0.01883 0.4761 0.0
C829 C 0.48813 0.03335 0.52427 0.0
C830 C 0.47255 0.05704 0.54597 0.0
C831 C 0.44601 0.05473 0.54486 0.0
C832 C 0.43145 0.07751 0.56527 0.0
C833 C 0.44321 0.10238 0.58702 0.0
C834 C 0.46957 0.10439 0.58845 0.0
C835 C 0.48423 0.08172 0.56807 0.0
H836 H 0.4319 0.11999 0.60281 0.0
H837 H 0.57366 0.89721 0.40573 0.0
H838 H 0.94599 0.1966 0.50053 0.0
H839 H 0.97945 0.13972 0.4864 0.0
H840 H 0.94954 0.03302 0.54299 0.0
H841 H 0.91655 0.08914 0.5571 0.0
H842 H 1.00027 0.03192 0.5441 0.0
H843 H 0.93485 0.0299 0.47429 0.0
H844 H 0.90668 0.06614 0.43916 0.0
H845 H 0.97109 0.11398 0.39224 0.0
H846 H 0.99966 0.07858 0.42733 0.0
H847 H 0.0567 0.81798 0.48851 0.0
H848 H 0.02452 0.877 0.50314 0.0
H849 H 0.05479 0.98084 0.44505 0.0
H850 H 0.08652 0.92251 0.43036 0.0
H851 H 0.00445 0.98451 0.44467 0.0
H852 H 0.06995 0.98627 0.51395 0.0
H853 H 0.09836 0.95094 0.54916 0.0
H854 H 0.03426 0.90424 0.59698 0.0
H855 H 0.00546 0.93887 0.56187 0.0
C856 C 0.94692 0.16137 0.51029 0.0
C857 C 0.92856 0.14737 0.52983 0.0
C858 C 0.9659 0.12871 0.50207 0.0
C859 C 0.96686 0.08169 0.51337 0.0
C860 C 0.94927 0.06886 0.53389 0.0
C861 C 0.93033 0.1011 0.54189 0.0
C862 C 0.98519 0.04468 0.50313 0.0
C863 C 1.00102 0.02132 0.52238 0.0
C864 C 0.9865 0.03103 0.47476 0.0
C865 C 0.96937 0.05208 0.45358 0.0
C866 C 0.943 0.04847 0.45659 0.0
C867 C 0.92696 0.06881 0.43667 0.0
C868 C 0.93709 0.09247 0.41352 0.0
C869 C 0.96328 0.09572 0.41021 0.0
C870 C 0.9794 0.07551 0.43009 0.0
C871 C 0.05617 0.85311 0.47858 0.0
C872 C 0.07424 0.86554 0.45836 0.0
C873 C 0.03792 0.887 0.4871 0.0
C874 C 0.03741 0.93379 0.47548 0.0
C875 C 0.05475 0.94522 0.45442 0.0
C876 C 0.07297 0.9117 0.44608 0.0
C877 C 0.01951 0.97167 0.48565 0.0
C878 C 0.00375 0.99516 0.46638 0.0
C879 C 0.0183 0.98549 0.514 0.0
C880 C 0.03556 0.96468 0.53514 0.0
C881 C 0.06192 0.96813 0.53187 0.0
C882 C 0.07809 0.9483 0.55183 0.0
C883 C 0.06812 0.92522 0.57525 0.0
C884 C 0.04195 0.92206 0.5788 0.0
C885 C 0.0257 0.94181 0.55889 0.0
H886 H 0.08067 0.90989 0.59068 0.0
H887 H 0.92464 0.10819 0.39812 0.0
H888 H 0.19296 0.69527 0.98413 0.0
H889 H 0.22739 0.63707 0.9751 0.0
H890 H 0.208 0.56101 0.05053 0.0
H891 H 0.17354 0.61772 0.05905 0.0
H892 H 0.2615 0.59769 0.04172 0.0
H893 H 0.18983 0.51231 0.9981 0.0
H894 H 0.15745 0.50566 0.96142 0.0
H895 H 0.21517 0.51074 0.8987 0.0
H896 H 0.24789 0.51861 0.93505 0.0
H897 H 0.28487 0.31929 0.02394 0.0
H898 H 0.26022 0.39233 0.01505 0.0
H899 H 0.32718 0.47827 0.02982 0.0
H900 H 0.34961 0.40634 0.04464 0.0
H901 H 0.2581 0.45391 0.98073 0.0
H902 H 0.32414 0.57256 0.03517 0.0
H903 H 0.34927 0.58976 0.07738 0.0
H904 H 0.29188 0.52388 0.12784 0.0
H905 H 0.26727 0.50384 0.0857 0.0
C906 C 0.19626 0.666 0.99866 0.0
C907 C 0.18157 0.66174 0.02289 0.0
C908 C 0.21566 0.63289 0.99341 0.0
C909 C 0.22008 0.59515 0.01222 0.0
C910 C 0.20481 0.59018 0.03589 0.0
C911 C 0.18547 0.62284 0.04096 0.0
C912 C 0.24152 0.56197 0.00903 0.0
C913 C 0.26097 0.56633 0.02835 0.0
C914 C 0.24092 0.52195 0.99095 0.0
C915 C 0.22125 0.51681 0.96925 0.0
C916 C 0.1956 0.51262 0.97648 0.0
C917 C 0.17718 0.50847 0.95576 0.0
C918 C 0.18423 0.50788 0.92775 0.0
C919 C 0.20973 0.51133 0.9204 0.0
C920 C 0.22821 0.51569 0.94105 0.0
C921 C 0.29353 0.35423 0.02719 0.0
C922 C 0.31826 0.35783 0.03718 0.0
C923 C 0.27981 0.39608 0.02122 0.0
C924 C 0.29134 0.44201 0.02289 0.0
C925 C 0.31691 0.44461 0.03057 0.0
C926 C 0.32995 0.4032 0.03855 0.0
C927 C 0.27656 0.48644 0.01637 0.0
C928 C 0.2589 0.48511 0.99436 0.0
C929 C 0.2781 0.52896 0.03282 0.0
C930 C 0.29461 0.53442 0.05736 0.0
C931 C 0.3174 0.56025 0.05525 0.0
C932 C 0.33156 0.57038 0.07911 0.0
C933 C 0.32254 0.55658 0.10526 0.0
C934 C 0.29938 0.53259 0.10754 0.0
C935 C 0.28553 0.52115 0.08367 0.0
H936 H 0.33326 0.56525 0.12378 0.0
H937 H 0.16995 0.50462 0.91174 0.0
H938 H 0.35363 0.10283 0.48847 0.0
H939 H 0.33183 0.03322 0.50813 0.0
H940 H 0.2617 0.11348 0.50618 0.0
H941 H 0.28549 0.18593 0.49458 0.0
H942 H 0.25253 0.05478 0.53769 0.0
H943 H 0.29593 0.02269 0.44814 0.0
H944 H 0.33286 0.01066 0.41731 0.0
H945 H 0.36153 0.9019 0.47249 0.0
H946 H 0.32498 0.91371 0.50369 0.0
H947 H 0.18151 0.90956 0.44735 0.0
H948 H 0.21319 0.96289 0.46823 0.0
H949 H 0.2329 0.85134 0.52706 0.0
H950 H 0.20039 0.79804 0.50655 0.0
H951 H 0.27311 0.90464 0.48658 0.0
H952 H 0.21443 0.92456 0.5606 0.0
H953 H 0.17183 0.93534 0.58043 0.0
H954 H 0.1647 0.07153 0.53833 0.0
H955 H 0.20708 0.06122 0.51786 0.0
C956 C 0.33352 0.10531 0.49253 0.0
C957 C 0.32031 0.14817 0.48696 0.0
C958 C 0.32094 0.06518 0.50332 0.0
C959 C 0.2945 0.06577 0.50623 0.0
C960 C 0.2819 0.11039 0.50318 0.0
C961 C 0.29511 0.15171 0.49507 0.0
C962 C 0.27966 0.02031 0.51041 0.0
C963 C 0.25707 0.02251 0.52593 0.0
C964 C 0.28586 0.9761 0.49683 0.0
C965 C 0.30805 0.96981 0.47841 0.0
C966 C 0.31024 0.99654 0.45368 0.0
C967 C 0.33104 0.98973 0.43618 0.0
C968 C 0.34955 0.95575 0.443 0.0
C969 C 0.34726 0.92839 0.4673 0.0
C970 C 0.32654 0.93518 0.48492 0.0
C971 C 0.19269 0.89649 0.46467 0.0
C972 C 0.18926 0.84965 0.47501 0.0
C973 C 0.21045 0.92699 0.47676 0.0
C974 C 0.22497 0.91099 0.49933 0.0
C975 C 0.22155 0.86419 0.50984 0.0
C976 C 0.20328 0.83391 0.49806 0.0
C977 C 0.24504 0.94285 0.50979 0.0
C978 C 0.2689 0.9374 0.49796 0.0
C979 C 0.23923 0.98504 0.52485 0.0
C980 C 0.21396 0.99202 0.53766 0.0
C981 C 0.20373 0.95668 0.55545 0.0
C982 C 0.17962 0.96273 0.56681 0.0
C983 C 0.16555 0.00408 0.56063 0.0
C984 C 0.17562 0.03955 0.54313 0.0
C985 C 0.19972 0.03366 0.53169 0.0
H986 H 0.14687 0.00864 0.56941 0.0
H987 H 0.36562 0.95051 0.4294 0.0
H988 H 0.70894 0.70668 0.01732 0.0
H989 H 0.73998 0.64143 0.02606 0.0
H990 H 0.69435 0.54385 0.97696 0.0
H991 H 0.66498 0.6092 0.96664 0.0
H992 H 0.71755 0.50779 0.02915 0.0
H993 H 0.72783 0.63398 0.95908 0.0
H994 H 0.76182 0.73263 0.90958 0.0
H995 H 0.83291 0.63174 0.92687 0.0
H996 H 0.81201 0.57005 0.96088 0.0
H997 H 0.81097 0.37693 0.92477 0.0
H998 H 0.78048 0.43854 0.93706 0.0
H999 H 0.78371 0.3908 0.02275 0.0
H1000 H 0.80943 0.32202 0.00852 0.0
H1001 H 0.78799 0.5072 0.96181 0.0
H1002 H 0.74201 0.44206 0.06406 0.0
H1003 H 0.72451 0.36721 0.08443 0.0
H1004 H 0.70853 0.31274 0.00265 0.0
H1005 H 0.72587 0.38744 0.98186 0.0
C1006 C 0.706 0.67138 0.00821 0.0
C1007 C 0.68586 0.66332 0.98971 0.0
C1008 C 0.7233 0.63407 0.01372 0.0
C1009 C 0.71973 0.58841 0.00144 0.0
C1010 C 0.69764 0.5791 0.98614 0.0
C1011 C 0.6811 0.61651 0.97992 0.0
C1012 C 0.73953 0.55119 0.00085 0.0
C1013 C 0.73364 0.5083 0.01511 0.0
C1014 C 0.7601 0.55202 0.98155 0.0
C1015 C 0.76845 0.59502 0.96442 0.0
C1016 C 0.74743 0.63831 0.95409 0.0
C1017 C 0.7691 0.70112 0.92077 0.0
C1018 C 0.8 0.68661 0.91577 0.0
C1019 C 0.81309 0.63769 0.93118 0.0
C1020 C 0.79913 0.59699 0.95297 0.0
C1021 C 0.80325 0.37702 0.94558 0.0
C1022 C 0.81084 0.34258 0.96508 0.0
C1023 C 0.78662 0.4136 0.95306 0.0
C1024 C 0.77946 0.41991 0.98103 0.0
C1025 C 0.78782 0.38615 0.00087 0.0
C1026 C 0.80286 0.34713 0.99281 0.0
C1027 C 0.76571 0.46458 0.98941 0.0
C1028 C 0.77288 0.50833 0.97684 0.0
C1029 C 0.7459 0.46478 0.0091 0.0
C1030 C 0.73557 0.41984 0.02143 0.0
C1031 C 0.73478 0.41404 0.05046 0.0
C1032 C 0.72492 0.37167 0.06207 0.0
C1033 C 0.71558 0.3351 0.04483 0.0
C1034 C 0.71599 0.3409 0.01595 0.0
C1035 C 0.72588 0.38314 0.00425 0.0
H1036 H 0.70793 0.30236 0.05385 0.0
H1037 H 0.81149 0.70904 0.90236 0.0
H1038 H 0.68223 0.91383 0.54347 0.0
H1039 H 0.71356 0.96514 0.52049 0.0
H1040 H 0.73473 0.84653 0.46707 0.0
H1041 H 0.70254 0.7951 0.48976 0.0
H1042 H 0.77465 0.90118 0.50222 0.0
H1043 H 0.71458 0.9218 0.43121 0.0
H1044 H 0.67195 0.93308 0.41159 0.0
H1045 H 0.66627 0.07127 0.45176 0.0
H1046 H 0.70868 0.06055 0.47202 0.0
H1047 H 0.85377 0.10133 0.50513 0.0
H1048 H 0.83283 0.03235 0.48365 0.0
H1049 H 0.7622 0.11105 0.48518 0.0
H1050 H 0.78532 0.18328 0.49863 0.0
H1051 H 0.75353 0.05313 0.45322 0.0
H1052 H 0.79588 0.0186 0.54261 0.0
H1053 H 0.83224 0.00645 0.57415 0.0
H1054 H 0.86289 0.90063 0.51828 0.0
H1055 H 0.82684 0.91256 0.48639 0.0
C1056 C 0.6936 0.8988 0.52683 0.0
C1057 C 0.69064 0.85057 0.51867 0.0
C1058 C 0.71117 0.92814 0.51351 0.0
C1059 C 0.72602 0.90965 0.49183 0.0
C1060 C 0.72309 0.86138 0.48351 0.0
C1061 C 0.705 0.83216 0.49653 0.0
C1062 C 0.74614 0.94059 0.48041 0.0
C1063 C 0.77025 0.93457 0.49152 0.0
C1064 C 0.74025 0.98315 0.4657 0.0
C1065 C 0.71489 0.99033 0.45311 0.0
C1066 C 0.70421 0.95452 0.43597 0.0
C1067 C 0.68007 0.96082 0.42472 0.0
C1068 C 0.66641 0.00287 0.43041 0.0
C1069 C 0.67689 0.03876 0.44732 0.0
C1070 C 0.70102 0.03263 0.45863 0.0
C1071 C 0.83375 0.10364 0.50055 0.0
C1072 C 0.82015 0.14587 0.5066 0.0
C1073 C 0.82163 0.06382 0.48871 0.0
C1074 C 0.79524 0.06391 0.48522 0.0
C1075 C 0.78235 0.10817 0.48863 0.0
C1076 C 0.79514 0.14932 0.4978 0.0
C1077 C 0.78069 0.01824 0.48024 0.0
C1078 C 0.75811 0.02062 0.46473 0.0
C1079 C 0.78706 0.97354 0.49321 0.0
C1080 C 0.80899 0.9672 0.51197 0.0
C1081 C 0.8105 0.99308 0.53706 0.0
C1082 C 0.831 0.98618 0.55497 0.0
C1083 C 0.8499 0.95299 0.54816 0.0
C1084 C 0.8483 0.92651 0.52346 0.0
C1085 C 0.82788 0.93337 0.50545 0.0
H1086 H 0.86573 0.94767 0.56207 0.0
H1087 H 0.64771 0.00764 0.42173 0.0
loop_
_geom_bond_atom_site_label_1
_geom_bond_atom_site_label_2
_geom_bond_distance
_geom_bond_site_symmetry_2
_ccdc_geom_bond_type
Mn0 O5 2.095 . S
Mn0 O15 2.162 . S
Mn0 O16 2.297 . S
Mn0 O24 2.385 . S
Mn0 O25 2.209 . S
Mn0 O26 2.094 . S
Mn1 O6 2.121 . S
Mn1 N8 2.257 . S
Mn1 N17 2.282 . S
Mn1 O25 2.215 . S
Mn1 O27 2.117 . S
C2 O24 1.234 . S
C2 O25 1.283 . S
C3 O15 1.281 . S
C3 O16 1.236 . S
C4 O26 1.240 . S
C4 O27 1.264 . S
O5 Mn0 2.095 . S
O5 C14 1.250 . S
O6 Mn1 2.121 . S
O6 C14 1.258 . S
C7 N8 1.326 . S
C7 C11 1.460 . S
C7 H13 0.929 . S
N8 Mn1 2.257 . S
N8 C7 1.326 . S
N8 C12 1.362 . S
C9 C10 1.258 . S
C9 C12 1.431 . S
C9 C29 1.449 . S
C10 C9 1.258 . S
C10 C11 1.477 . S
C10 H30 0.931 . S
C11 C7 1.460 . S
C11 C10 1.477 . S
C11 H31 0.930 . S
C12 N8 1.362 . S
C12 C9 1.431 . S
C12 C22 1.476 . S
H13 C7 0.929 . S
C14 O5 1.250 . S
C14 O6 1.258 . S
O15 Mn0 2.162 . S
O15 C3 1.281 . S
O16 Mn0 2.297 . S
O16 C3 1.236 . S
N17 Mn1 2.282 . S
N17 C18 1.328 . S
N17 C22 1.318 . S
C18 N17 1.328 . S
C18 C19 1.457 . S
C18 H23 0.929 . S
C19 C18 1.457 . S
C19 C20 1.291 . S
C19 H32 0.927 . S
C20 C19 1.291 . S
C20 C21 1.373 . S
C20 H33 0.929 . S
C21 C20 1.373 . S
C21 C22 1.396 . S
C21 C28 1.403 . S
C22 C12 1.476 . S
C22 N17 1.318 . S
C22 C21 1.396 . S
H23 C18 0.929 . S
O24 Mn0 2.385 . S
O24 C2 1.234 . S
O25 Mn0 2.209 . S
O25 Mn1 2.215 . S
O25 C2 1.283 . S
O26 Mn0 2.094 . S
O26 C4 1.240 . S
O27 Mn1 2.117 . S
O27 C4 1.264 . S
C28 C21 1.403 . S
C28 C29 1.399 . S
C28 H34 0.929 . S
C29 C9 1.449 . S
C29 C28 1.399 . S
C29 H35 0.930 . S
H30 C10 0.931 . S
H31 C11 0.930 . S
H32 C19 0.927 . S
H33 C20 0.929 . S
H34 C28 0.929 . S
H35 C29 0.930 . S
Mn36 O41 2.095 . S
Mn36 O51 2.162 . S
Mn36 O52 2.297 . S
Mn36 O60 2.385 . S
Mn36 O61 2.209 . S
Mn36 O62 2.094 . S
Mn37 O42 2.121 . S
Mn37 N44 2.257 . S
Mn37 N53 2.282 . S
Mn37 O61 2.215 . S
Mn37 O63 2.117 . S
C38 O60 1.234 . S
C38 O61 1.283 . S
C39 O51 1.281 . S
C39 O52 1.236 . S
C40 O62 1.240 . S
C40 O63 1.264 . S
O41 Mn36 2.095 . S
O41 C50 1.250 . S
O42 Mn37 2.121 . S
O42 C50 1.258 . S
C43 N44 1.326 . S
C43 C47 1.460 . S
C43 H49 0.929 . S
N44 Mn37 2.257 . S
N44 C43 1.326 . S
N44 C48 1.362 . S
C45 C46 1.258 . S
C45 C48 1.431 . S
C45 C65 1.449 . S
C46 C45 1.258 . S
C46 C47 1.477 . S
C46 H66 0.931 . S
C47 C43 1.460 . S
C47 C46 1.477 . S
C47 H67 0.930 . S
C48 N44 1.362 . S
C48 C45 1.431 . S
C48 C58 1.476 . S
H49 C43 0.929 . S
C50 O41 1.250 . S
C50 O42 1.258 . S
O51 Mn36 2.162 . S
O51 C39 1.281 . S
O52 Mn36 2.297 . S
O52 C39 1.236 . S
N53 Mn37 2.282 . S
N53 C54 1.328 . S
N53 C58 1.318 . S
C54 N53 1.328 . S
C54 C55 1.457 . S
C54 H59 0.929 . S
C55 C54 1.457 . S
C55 C56 1.291 . S
C55 H68 0.927 . S
C56 C55 1.291 . S
C56 C57 1.373 . S
C56 H69 0.929 . S
C57 C56 1.373 . S
C57 C58 1.396 . S
C57 C64 1.403 . S
C58 C48 1.476 . S
C58 N53 1.318 . S
C58 C57 1.396 . S
H59 C54 0.929 . S
O60 Mn36 2.385 . S
O60 C38 1.234 . S
O61 Mn36 2.209 . S
O61 Mn37 2.215 . S
O61 C38 1.283 . S
O62 Mn36 2.094 . S
O62 C40 1.240 . S
O63 Mn37 2.117 . S
O63 C40 1.264 . S
C64 C57 1.403 . S
C64 C65 1.399 . S
C64 H70 0.929 . S
C65 C45 1.449 . S
C65 C64 1.399 . S
C65 H71 0.930 . S
H66 C46 0.931 . S
H67 C47 0.930 . S
H68 C55 0.927 . S
H69 C56 0.929 . S
H70 C64 0.929 . S
H71 C65 0.930 . S
Mn72 O77 2.095 . S
Mn72 O87 2.162 . S
Mn72 O88 2.297 . S
Mn72 O96 2.385 . S
Mn72 O97 2.209 . S
Mn72 O98 2.094 . S
Mn73 O78 2.121 . S
Mn73 N80 2.257 . S
Mn73 N89 2.282 . S
Mn73 O97 2.215 . S
Mn73 O99 2.117 . S
C74 O96 1.234 . S
C74 O97 1.283 . S
C75 O87 1.281 . S
C75 O88 1.236 . S
C76 O98 1.240 . S
C76 O99 1.264 . S
O77 Mn72 2.095 . S
O77 C86 1.250 . S
O78 Mn73 2.121 . S
O78 C86 1.258 . S
C79 N80 1.326 . S
C79 C83 1.460 . S
C79 H85 0.929 . S
N80 Mn73 2.257 . S
N80 C79 1.326 . S
N80 C84 1.362 . S
C81 C82 1.258 . S
C81 C84 1.431 . S
C81 C101 1.449 . S
C82 C81 1.258 . S
C82 C83 1.477 . S
C82 H102 0.931 . S
C83 C79 1.460 . S
C83 C82 1.477 . S
C83 H103 0.930 . S
C84 N80 1.362 . S
C84 C81 1.431 . S
C84 C94 1.476 . S
H85 C79 0.929 . S
C86 O77 1.250 . S
C86 O78 1.258 . S
O87 Mn72 2.162 . S
O87 C75 1.281 . S
O88 Mn72 2.297 . S
O88 C75 1.236 . S
N89 Mn73 2.282 . S
N89 C90 1.328 . S
N89 C94 1.318 . S
C90 N89 1.328 . S
C90 C91 1.457 . S
C90 H95 0.929 . S
C91 C90 1.457 . S
C91 C92 1.291 . S
C91 H104 0.931 . S
C92 C91 1.291 . S
C92 C93 1.373 . S
C92 H105 0.929 . S
C93 C92 1.373 . S
C93 C94 1.396 . S
C93 C100 1.403 . S
C94 C84 1.476 . S
C94 N89 1.318 . S
C94 C93 1.396 . S
H95 C90 0.929 . S
O96 Mn72 2.385 . S
O96 C74 1.234 . S
O97 Mn72 2.209 . S
O97 Mn73 2.215 . S
O97 C74 1.283 . S
O98 Mn72 2.094 . S
O98 C76 1.240 . S
O99 Mn73 2.117 . S
O99 C76 1.264 . S
C100 C93 1.403 . S
C100 C101 1.399 . S
C100 H106 0.929 . S
C101 C81 1.449 . S
C101 C100 1.399 . S
C101 H107 0.930 . S
H102 C82 0.931 . S
H103 C83 0.930 . S
H104 C91 0.931 . S
H105 C92 0.929 . S
H106 C100 0.929 . S
H107 C101 0.930 . S
Mn108 O113 2.095 . S
Mn108 O123 2.162 . S
Mn108 O124 2.297 . S
Mn108 O132 2.385 . S
Mn108 O133 2.209 . S
Mn108 O134 2.094 . S
Mn109 O114 2.121 . S
Mn109 N116 2.257 . S
Mn109 N125 2.282 . S
Mn109 O133 2.215 . S
Mn109 O135 2.117 . S
C110 O132 1.234 . S
C110 O133 1.283 . S
C111 O123 1.281 . S
C111 O124 1.236 . S
C112 O134 1.240 . S
C112 O135 1.264 . S
O113 Mn108 2.095 . S
O113 C122 1.250 . S
O114 Mn109 2.121 . S
O114 C122 1.258 . S
C115 N116 1.326 . S
C115 C119 1.460 . S
C115 H121 0.929 . S
N116 Mn109 2.257 . S
N116 C115 1.326 . S
N116 C120 1.362 . S
C117 C118 1.258 . S
C117 C120 1.431 . S
C117 C137 1.449 . S
C118 C117 1.258 . S
C118 C119 1.477 . S
C118 H138 0.931 . S
C119 C115 1.460 . S
C119 C118 1.477 . S
C119 H139 0.930 . S
C120 N116 1.362 . S
C120 C117 1.431 . S
C120 C130 1.476 . S
H121 C115 0.929 . S
C122 O113 1.250 . S
C122 O114 1.258 . S
O123 Mn108 2.162 . S
O123 C111 1.281 . S
O124 Mn108 2.297 . S
O124 C111 1.236 . S
N125 Mn109 2.282 . S
N125 C126 1.328 . S
N125 C130 1.318 . S
C126 N125 1.328 . S
C126 C127 1.457 . S
C126 H131 0.929 . S
C127 C126 1.457 . S
C127 C128 1.291 . S
C127 H140 0.931 . S
C128 C127 1.291 . S
C128 C129 1.373 . S
C128 H141 0.929 . S
C129 C128 1.373 . S
C129 C130 1.396 . S
C129 C136 1.403 . S
C130 C120 1.476 . S
C130 N125 1.318 . S
C130 C129 1.396 . S
H131 C126 0.929 . S
O132 Mn108 2.385 . S
O132 C110 1.234 . S
O133 Mn108 2.209 . S
O133 Mn109 2.215 . S
O133 C110 1.283 . S
O134 Mn108 2.094 . S
O134 C112 1.240 . S
O135 Mn109 2.117 . S
O135 C112 1.264 . S
C136 C129 1.403 . S
C136 C137 1.399 . S
C136 H142 0.929 . S
C137 C117 1.449 . S
C137 C136 1.399 . S
C137 H143 0.930 . S
H138 C118 0.931 . S
H139 C119 0.930 . S
H140 C127 0.931 . S
H141 C128 0.929 . S
H142 C136 0.929 . S
H143 C137 0.930 . S
Mn144 O149 2.095 . S
Mn144 O159 2.162 . S
Mn144 O160 2.297 . S
Mn144 O168 2.385 . S
Mn144 O169 2.209 . S
Mn144 O170 2.094 . S
Mn145 O150 2.121 . S
Mn145 N152 2.257 . S
Mn145 N161 2.282 . S
Mn145 O169 2.215 . S
Mn145 O171 2.117 . S
C146 O168 1.234 . S
C146 O169 1.283 . S
C147 O159 1.281 . S
C147 O160 1.236 . S
C148 O170 1.240 . S
C148 O171 1.264 . S
O149 Mn144 2.095 . S
O149 C158 1.250 . S
O150 Mn145 2.121 . S
O150 C158 1.258 . S
C151 N152 1.326 . S
C151 C155 1.460 . S
C151 H157 0.929 . S
N152 Mn145 2.257 . S
N152 C151 1.326 . S
N152 C156 1.362 . S
C153 C154 1.258 . S
C153 C156 1.431 . S
C153 C173 1.449 . S
C154 C153 1.258 . S
C154 C155 1.477 . S
C154 H174 0.931 . S
C155 C151 1.460 . S
C155 C154 1.477 . S
C155 H175 0.930 . S
C156 N152 1.362 . S
C156 C153 1.431 . S
C156 C166 1.476 . S
H157 C151 0.929 . S
C158 O149 1.250 . S
C158 O150 1.258 . S
O159 Mn144 2.162 . S
O159 C147 1.281 . S
O160 Mn144 2.297 . S
O160 C147 1.236 . S
N161 Mn145 2.282 . S
N161 C162 1.328 . S
N161 C166 1.318 . S
C162 N161 1.328 . S
C162 C163 1.457 . S
C162 H167 0.929 . S
C163 C162 1.457 . S
C163 C164 1.291 . S
C163 H176 0.927 . S
C164 C163 1.291 . S
C164 C165 1.373 . S
C164 H177 0.929 . S
C165 C164 1.373 . S
C165 C166 1.396 . S
C165 C172 1.403 . S
C166 C156 1.476 . S
C166 N161 1.318 . S
C166 C165 1.396 . S
H167 C162 0.929 . S
O168 Mn144 2.385 . S
O168 C146 1.234 . S
O169 Mn144 2.209 . S
O169 Mn145 2.215 . S
O169 C146 1.283 . S
O170 Mn144 2.094 . S
O170 C148 1.240 . S
O171 Mn145 2.117 . S
O171 C148 1.264 . S
C172 C165 1.403 . S
C172 C173 1.399 . S
C172 H178 0.929 . S
C173 C153 1.449 . S
C173 C172 1.399 . S
C173 H179 0.930 . S
H174 C154 0.931 . S
H175 C155 0.930 . S
H176 C163 0.927 . S
H177 C164 0.929 . S
H178 C172 0.929 . S
H179 C173 0.930 . S
Mn180 O185 2.095 . S
Mn180 O195 2.162 . S
Mn180 O196 2.297 . S
Mn180 O204 2.385 . S
Mn180 O205 2.209 . S
Mn180 O206 2.094 . S
Mn181 O186 2.121 . S
Mn181 N188 2.257 . S
Mn181 N197 2.282 . S
Mn181 O205 2.215 . S
Mn181 O207 2.117 . S
C182 O204 1.234 . S
C182 O205 1.283 . S
C183 O195 1.281 . S
C183 O196 1.236 . S
C184 O206 1.240 . S
C184 O207 1.264 . S
O185 Mn180 2.095 . S
O185 C194 1.250 . S
O186 Mn181 2.121 . S
O186 C194 1.258 . S
C187 N188 1.326 . S
C187 C191 1.460 . S
C187 H193 0.929 . S
N188 Mn181 2.257 . S
N188 C187 1.326 . S
N188 C192 1.362 . S
C189 C190 1.258 . S
C189 C192 1.431 . S
C189 C209 1.449 . S
C190 C189 1.258 . S
C190 C191 1.477 . S
C190 H210 0.931 . S
C191 C187 1.460 . S
C191 C190 1.477 . S
C191 H211 0.930 . S
C192 N188 1.362 . S
C192 C189 1.431 . S
C192 C202 1.476 . S
H193 C187 0.929 . S
C194 O185 1.250 . S
C194 O186 1.258 . S
O195 Mn180 2.162 . S
O195 C183 1.281 . S
O196 Mn180 2.297 . S
O196 C183 1.236 . S
N197 Mn181 2.282 . S
N197 C198 1.328 . S
N197 C202 1.318 . S
C198 N197 1.328 . S
C198 C199 1.457 . S
C198 H203 0.929 . S
C199 C198 1.457 . S
C199 C200 1.291 . S
C199 H212 0.927 . S
C200 C199 1.291 . S
C200 C201 1.373 . S
C200 H213 0.929 . S
C201 C200 1.373 . S
C201 C202 1.396 . S
C201 C208 1.403 . S
C202 C192 1.476 . S
C202 N197 1.318 . S
C202 C201 1.396 . S
H203 C198 0.929 . S
O204 Mn180 2.385 . S
O204 C182 1.234 . S
O205 Mn180 2.209 . S
O205 Mn181 2.215 . S
O205 C182 1.283 . S
O206 Mn180 2.094 . S
O206 C184 1.240 . S
O207 Mn181 2.117 . S
O207 C184 1.264 . S
C208 C201 1.403 . S
C208 C209 1.399 . S
C208 H214 0.929 . S
C209 C189 1.449 . S
C209 C208 1.399 . S
C209 H215 0.930 . S
H210 C190 0.931 . S
H211 C191 0.930 . S
H212 C199 0.927 . S
H213 C200 0.929 . S
H214 C208 0.929 . S
H215 C209 0.930 . S
Mn216 O221 2.095 . S
Mn216 O231 2.162 . S
Mn216 O232 2.297 . S
Mn216 O240 2.385 . S
Mn216 O241 2.209 . S
Mn216 O242 2.094 . S
Mn217 O222 2.121 . S
Mn217 N224 2.257 . S
Mn217 N233 2.282 . S
Mn217 O241 2.215 . S
Mn217 O243 2.117 . S
C218 O240 1.234 . S
C218 O241 1.283 . S
C219 O231 1.281 . S
C219 O232 1.236 . S
C220 O242 1.240 . S
C220 O243 1.264 . S
O221 Mn216 2.095 . S
O221 C230 1.250 . S
O222 Mn217 2.121 . S
O222 C230 1.258 . S
C223 N224 1.326 . S
C223 C227 1.460 . S
C223 H229 0.929 . S
N224 Mn217 2.257 . S
N224 C223 1.326 . S
N224 C228 1.362 . S
C225 C226 1.258 . S
C225 C228 1.431 . S
C225 C245 1.449 . S
C226 C225 1.258 . S
C226 C227 1.477 . S
C226 H246 0.931 . S
C227 C223 1.460 . S
C227 C226 1.477 . S
C227 H247 0.930 . S
C228 N224 1.362 . S
C228 C225 1.431 . S
C228 C238 1.476 . S
H229 C223 0.929 . S
C230 O221 1.250 . S
C230 O222 1.258 . S
O231 Mn216 2.162 . S
O231 C219 1.281 . S
O232 Mn216 2.297 . S
O232 C219 1.236 . S
N233 Mn217 2.282 . S
N233 C234 1.328 . S
N233 C238 1.318 . S
C234 N233 1.328 . S
C234 C235 1.457 . S
C234 H239 0.929 . S
C235 C234 1.457 . S
C235 C236 1.291 . S
C235 H248 0.931 . S
C236 C235 1.291 . S
C236 C237 1.373 . S
C236 H249 0.929 . S
C237 C236 1.373 . S
C237 C238 1.396 . S
C237 C244 1.403 . S
C238 C228 1.476 . S
C238 N233 1.318 . S
C238 C237 1.396 . S
H239 C234 0.929 . S
O240 Mn216 2.385 . S
O240 C218 1.234 . S
O241 Mn216 2.209 . S
O241 Mn217 2.215 . S
O241 C218 1.283 . S
O242 Mn216 2.094 . S
O242 C220 1.240 . S
O243 Mn217 2.117 . S
O243 C220 1.264 . S
C244 C237 1.403 . S
C244 C245 1.399 . S
C244 H250 0.929 . S
C245 C225 1.449 . S
C245 C244 1.399 . S
C245 H251 0.930 . S
H246 C226 0.931 . S
H247 C227 0.930 . S
H248 C235 0.931 . S
H249 C236 0.929 . S
H250 C244 0.929 . S
H251 C245 0.930 . S
Mn252 O257 2.095 . S
Mn252 O267 2.162 . S
Mn252 O268 2.297 . S
Mn252 O276 2.385 . S
Mn252 O277 2.209 . S
Mn252 O278 2.094 . S
Mn253 O258 2.121 . S
Mn253 N260 2.257 . S
Mn253 N269 2.282 . S
Mn253 O277 2.215 . S
Mn253 O279 2.117 . S
C254 O276 1.234 . S
C254 O277 1.283 . S
C255 O267 1.281 . S
C255 O268 1.236 . S
C256 O278 1.240 . S
C256 O279 1.264 . S
O257 Mn252 2.095 . S
O257 C266 1.250 . S
O258 Mn253 2.121 . S
O258 C266 1.258 . S
C259 N260 1.326 . S
C259 C263 1.460 . S
C259 H265 0.929 . S
N260 Mn253 2.257 . S
N260 C259 1.326 . S
N260 C264 1.362 . S
C261 C262 1.258 . S
C261 C264 1.431 . S
C261 C281 1.449 . S
C262 C261 1.258 . S
C262 C263 1.477 . S
C262 H282 0.931 . S
C263 C259 1.460 . S
C263 C262 1.477 . S
C263 H283 0.930 . S
C264 N260 1.362 . S
C264 C261 1.431 . S
C264 C274 1.476 . S
H265 C259 0.929 . S
C266 O257 1.250 . S
C266 O258 1.258 . S
O267 Mn252 2.162 . S
O267 C255 1.281 . S
O268 Mn252 2.297 . S
O268 C255 1.236 . S
N269 Mn253 2.282 . S
N269 C270 1.328 . S
N269 C274 1.318 . S
C270 N269 1.328 . S
C270 C271 1.457 . S
C270 H275 0.929 . S
C271 C270 1.457 . S
C271 C272 1.291 . S
C271 H284 0.931 . S
C272 C271 1.291 . S
C272 C273 1.373 . S
C272 H285 0.929 . S
C273 C272 1.373 . S
C273 C274 1.396 . S
C273 C280 1.403 . S
C274 C264 1.476 . S
C274 N269 1.318 . S
C274 C273 1.396 . S
H275 C270 0.929 . S
O276 Mn252 2.385 . S
O276 C254 1.234 . S
O277 Mn252 2.209 . S
O277 Mn253 2.215 . S
O277 C254 1.283 . S
O278 Mn252 2.094 . S
O278 C256 1.240 . S
O279 Mn253 2.117 . S
O279 C256 1.264 . S
C280 C273 1.403 . S
C280 C281 1.399 . S
C280 H286 0.929 . S
C281 C261 1.449 . S
C281 C280 1.399 . S
C281 H287 0.930 . S
H282 C262 0.931 . S
H283 C263 0.930 . S
H284 C271 0.931 . S
H285 C272 0.929 . S
H286 C280 0.929 . S
H287 C281 0.930 . S
H288 C306 0.951 . S
H289 C308 0.951 . S
H290 C310 0.950 . S
H291 C311 0.950 . S
H292 C313 0.950 . S
H293 C316 0.950 . S
H294 C317 0.950 . S
H295 C319 0.950 . S
H296 C320 0.950 . S
H297 C321 0.951 . S
H298 C323 0.951 . S
H299 C325 0.950 . S
H300 C326 0.950 . S
H301 C328 0.950 1_556 S
H302 C331 0.950 . S
H303 C332 0.950 . S
H304 C334 0.950 . S
H305 C335 0.950 . S
C306 H288 0.951 . S
C306 C307 1.366 . S
C306 C308 1.388 . S
C307 C306 1.366 . S
C307 C311 1.385 . S
C308 H289 0.951 . S
C308 C306 1.388 . S
C308 C309 1.366 . S
C309 C308 1.366 . S
C309 C310 1.414 . S
C309 C312 1.499 . S
C310 H290 0.950 . S
C310 C309 1.414 . S
C310 C311 1.374 . S
C311 H291 0.950 . S
C311 C307 1.385 . S
C311 C310 1.374 . S
C312 C309 1.499 . S
C312 C313 1.373 . S
C312 C314 1.389 . S
C313 H292 0.950 . S
C313 C312 1.373 . S
C313 C329 1.377 1_545 S
C314 C312 1.389 . S
C314 C315 1.524 1_554 S
C314 C328 1.377 1_545 S
C315 C314 1.524 1_556 S
C315 C316 1.397 . S
C315 C320 1.363 1_545 S
C316 H293 0.950 . S
C316 C315 1.397 . S
C316 C317 1.334 . S
C317 H294 0.950 . S
C317 C316 1.334 . S
C317 C318 1.287 . S
C318 C317 1.287 . S
C318 C319 1.524 1_545 S
C318 H337 0.913 . S
C319 H295 0.950 . S
C319 C318 1.524 1_565 S
C319 C320 1.415 . S
C320 H296 0.950 . S
C320 C315 1.363 1_565 S
C320 C319 1.415 . S
C321 H297 0.951 . S
C321 C322 1.366 . S
C321 C323 1.388 . S
C322 C321 1.366 . S
C322 C326 1.385 . S
C323 H298 0.951 . S
C323 C321 1.388 . S
C323 C324 1.366 . S
C324 C323 1.366 . S
C324 C325 1.414 . S
C324 C327 1.499 . S
C325 H299 0.950 . S
C325 C324 1.414 . S
C325 C326 1.374 . S
C326 H300 0.950 . S
C326 C322 1.385 . S
C326 C325 1.374 . S
C327 C324 1.499 . S
C327 C328 1.373 . S
C327 C329 1.389 . S
C328 H301 0.950 1_554 S
C328 C314 1.377 1_565 S
C328 C327 1.373 . S
C329 C313 1.377 1_565 S
C329 C327 1.389 . S
C329 C330 1.524 . S
C330 C329 1.524 . S
C330 C331 1.397 . S
C330 C335 1.363 1_565 S
C331 H302 0.950 . S
C331 C330 1.397 . S
C331 C332 1.334 . S
C332 H303 0.950 . S
C332 C331 1.334 . S
C332 C333 1.287 . S
C333 C332 1.287 . S
C333 C334 1.524 1_565 S
C333 H336 0.999 . S
C334 H304 0.950 . S
C334 C333 1.524 1_545 S
C334 C335 1.415 . S
C335 H305 0.950 . S
C335 C330 1.363 1_545 S
C335 C334 1.415 . S
H336 C333 0.999 . S
H337 C318 0.913 . S
H338 C356 0.951 . S
H339 C358 0.951 . S
H340 C360 0.950 . S
H341 C361 0.950 . S
H342 C363 0.950 . S
H343 C366 0.950 . S
H344 C367 0.950 . S
H345 C369 0.950 . S
H346 C370 0.950 . S
H347 C371 0.951 . S
H348 C373 0.951 . S
H349 C375 0.950 . S
H350 C376 0.950 . S
H351 C378 0.950 . S
H352 C381 0.950 . S
H353 C382 0.950 . S
H354 C384 0.950 . S
H355 C385 0.950 . S
C356 H338 0.951 . S
C356 C357 1.366 . S
C356 C358 1.388 . S
C357 C356 1.366 . S
C357 C361 1.385 . S
C358 H339 0.951 . S
C358 C356 1.388 . S
C358 C359 1.366 . S
C359 C358 1.366 . S
C359 C360 1.414 . S
C359 C362 1.499 . S
C360 H340 0.950 . S
C360 C359 1.414 . S
C360 C361 1.374 . S
C361 H341 0.950 . S
C361 C357 1.385 . S
C361 C360 1.374 . S
C362 C359 1.499 . S
C362 C363 1.373 . S
C362 C364 1.389 . S
C363 H342 0.950 . S
C363 C362 1.373 . S
C363 C379 1.377 . S
C364 C362 1.389 . S
C364 C365 1.524 . S
C364 C378 1.377 . S
C365 C364 1.524 . S
C365 C366 1.397 . S
C365 C370 1.363 . S
C366 H343 0.950 . S
C366 C365 1.397 . S
C366 C367 1.334 . S
C367 H344 0.950 . S
C367 C366 1.334 . S
C367 C368 1.287 . S
C368 C367 1.287 . S
C368 C369 1.524 . S
C368 H387 0.913 . S
C369 H345 0.950 . S
C369 C368 1.524 . S
C369 C370 1.415 . S
C370 H346 0.950 . S
C370 C365 1.363 . S
C370 C369 1.415 . S
C371 H347 0.951 . S
C371 C372 1.366 . S
C371 C373 1.388 . S
C372 C371 1.366 . S
C372 C376 1.385 . S
C373 H348 0.951 . S
C373 C371 1.388 . S
C373 C374 1.366 . S
C374 C373 1.366 . S
C374 C375 1.414 . S
C374 C377 1.499 . S
C375 H349 0.950 . S
C375 C374 1.414 . S
C375 C376 1.374 . S
C376 H350 0.950 . S
C376 C372 1.385 . S
C376 C375 1.374 . S
C377 C374 1.499 . S
C377 C378 1.373 . S
C377 C379 1.389 . S
C378 H351 0.950 . S
C378 C364 1.377 . S
C378 C377 1.373 . S
C379 C363 1.377 . S
C379 C377 1.389 . S
C379 C380 1.524 . S
C380 C379 1.524 . S
C380 C381 1.397 . S
C380 C385 1.363 . S
C381 H352 0.950 . S
C381 C380 1.397 . S
C381 C382 1.334 . S
C382 H353 0.950 . S
C382 C381 1.334 . S
C382 C383 1.287 . S
C383 C382 1.287 . S
C383 C384 1.524 . S
C383 H386 0.999 . S
C384 H354 0.950 . S
C384 C383 1.524 . S
C384 C385 1.415 . S
C385 H355 0.950 . S
C385 C380 1.363 . S
C385 C384 1.415 . S
H386 C383 0.999 . S
H387 C368 0.913 . S
H388 C406 0.951 . S
H389 C408 0.951 . S
H390 C410 0.950 . S
H391 C411 0.950 . S
H392 C413 0.950 1_554 S
H393 C416 0.950 . S
H394 C417 0.950 . S
H395 C419 0.950 . S
H396 C420 0.950 . S
H397 C421 0.951 . S
H398 C423 0.951 . S
H399 C425 0.950 . S
H400 C426 0.950 . S
H401 C428 0.950 . S
H402 C431 0.950 . S
H403 C432 0.950 . S
H404 C434 0.950 . S
H405 C435 0.950 . S
C406 H388 0.951 . S
C406 C407 1.366 . S
C406 C408 1.388 . S
C407 C406 1.366 . S
C407 C411 1.385 . S
C408 H389 0.951 . S
C408 C406 1.388 . S
C408 C409 1.366 . S
C409 C408 1.366 . S
C409 C410 1.414 . S
C409 C412 1.499 . S
C410 H390 0.950 . S
C410 C409 1.414 . S
C410 C411 1.374 . S
C411 H391 0.950 . S
C411 C407 1.385 . S
C411 C410 1.374 . S
C412 C409 1.499 . S
C412 C413 1.373 . S
C412 C414 1.389 . S
C413 H392 0.950 1_556 S
C413 C412 1.373 . S
C413 C429 1.377 1_565 S
C414 C412 1.389 . S
C414 C415 1.524 . S
C414 C428 1.377 1_565 S
C415 C414 1.524 . S
C415 C416 1.397 . S
C415 C420 1.363 1_565 S
C416 H393 0.950 . S
C416 C415 1.397 . S
C416 C417 1.334 . S
C417 H394 0.950 . S
C417 C416 1.334 . S
C417 C418 1.287 . S
C418 C417 1.287 . S
C418 C419 1.524 1_565 S
C418 H437 0.913 . S
C419 H395 0.950 . S
C419 C418 1.524 1_545 S
C419 C420 1.415 . S
C420 H396 0.950 . S
C420 C415 1.363 1_545 S
C420 C419 1.415 . S
C421 H397 0.951 . S
C421 C422 1.366 . S
C421 C423 1.388 . S
C422 C421 1.366 . S
C422 C426 1.385 . S
C423 H398 0.951 . S
C423 C421 1.388 . S
C423 C424 1.366 . S
C424 C423 1.366 . S
C424 C425 1.414 . S
C424 C427 1.499 . S
C425 H399 0.950 . S
C425 C424 1.414 . S
C425 C426 1.374 . S
C426 H400 0.950 . S
C426 C422 1.385 . S
C426 C425 1.374 . S
C427 C424 1.499 . S
C427 C428 1.373 . S
C427 C429 1.389 . S
C428 H401 0.950 . S
C428 C414 1.377 1_545 S
C428 C427 1.373 . S
C429 C413 1.377 1_545 S
C429 C427 1.389 . S
C429 C430 1.524 1_556 S
C430 C429 1.524 1_554 S
C430 C431 1.397 . S
C430 C435 1.363 1_545 S
C431 H402 0.950 . S
C431 C430 1.397 . S
C431 C432 1.334 . S
C432 H403 0.950 . S
C432 C431 1.334 . S
C432 C433 1.287 . S
C433 C432 1.287 . S
C433 C434 1.524 1_545 S
C433 H436 0.999 . S
C434 H404 0.950 . S
C434 C433 1.524 1_565 S
C434 C435 1.415 . S
C435 H405 0.950 . S
C435 C430 1.363 1_565 S
C435 C434 1.415 . S
H436 C433 0.999 . S
H437 C418 0.913 . S
H438 C456 0.951 . S
H439 C458 0.951 . S
H440 C460 0.950 . S
H441 C461 0.950 . S
H442 C463 0.950 . S
H443 C466 0.950 . S
H444 C467 0.950 . S
H445 C469 0.950 . S
H446 C470 0.950 . S
H447 C471 0.951 . S
H448 C473 0.951 . S
H449 C475 0.950 . S
H450 C476 0.950 . S
H451 C478 0.950 . S
H452 C481 0.950 . S
H453 C482 0.950 . S
H454 C484 0.950 . S
H455 C485 0.950 . S
C456 H438 0.951 . S
C456 C457 1.366 . S
C456 C458 1.388 . S
C457 C456 1.366 . S
C457 C461 1.385 . S
C458 H439 0.951 . S
C458 C456 1.388 . S
C458 C459 1.366 . S
C459 C458 1.366 . S
C459 C460 1.414 . S
C459 C462 1.499 . S
C460 H440 0.950 . S
C460 C459 1.414 . S
C460 C461 1.374 . S
C461 H441 0.950 . S
C461 C457 1.385 . S
C461 C460 1.374 . S
C462 C459 1.499 . S
C462 C463 1.373 . S
C462 C464 1.389 . S
C463 H442 0.950 . S
C463 C462 1.373 . S
C463 C479 1.377 . S
C464 C462 1.389 . S
C464 C465 1.524 . S
C464 C478 1.377 . S
C465 C464 1.524 . S
C465 C466 1.397 . S
C465 C470 1.363 . S
C466 H443 0.950 . S
C466 C465 1.397 . S
C466 C467 1.334 . S
C467 H444 0.950 . S
C467 C466 1.334 . S
C467 C468 1.287 . S
C468 C467 1.287 . S
C468 C469 1.524 . S
C468 H487 0.913 . S
C469 H445 0.950 . S
C469 C468 1.524 . S
C469 C470 1.415 . S
C470 H446 0.950 . S
C470 C465 1.363 . S
C470 C469 1.415 . S
C471 H447 0.951 . S
C471 C472 1.366 . S
C471 C473 1.388 . S
C472 C471 1.366 . S
C472 C476 1.385 . S
C473 H448 0.951 . S
C473 C471 1.388 . S
C473 C474 1.366 . S
C474 C473 1.366 . S
C474 C475 1.414 . S
C474 C477 1.499 . S
C475 H449 0.950 . S
C475 C474 1.414 . S
C475 C476 1.374 . S
C476 H450 0.950 . S
C476 C472 1.385 . S
C476 C475 1.374 . S
C477 C474 1.499 . S
C477 C478 1.373 . S
C477 C479 1.389 . S
C478 H451 0.950 . S
C478 C464 1.377 . S
C478 C477 1.373 . S
C479 C463 1.377 . S
C479 C477 1.389 . S
C479 C480 1.524 . S
C480 C479 1.524 . S
C480 C481 1.397 . S
C480 C485 1.363 . S
C481 H452 0.950 . S
C481 C480 1.397 . S
C481 C482 1.334 . S
C482 H453 0.950 . S
C482 C481 1.334 . S
C482 C483 1.287 . S
C483 C482 1.287 . S
C483 C484 1.524 . S
C483 H486 0.999 . S
C484 H454 0.950 . S
C484 C483 1.524 . S
C484 C485 1.415 . S
C485 H455 0.950 . S
C485 C480 1.363 . S
C485 C484 1.415 . S
H486 C483 0.999 . S
H487 C468 0.913 . S
H488 C506 0.951 . S
H489 C508 0.951 . S
H490 C510 0.950 . S
H491 C511 0.950 . S
H492 C513 0.950 . S
H493 C516 0.950 . S
H494 C517 0.950 . S
H495 C519 0.950 . S
H496 C520 0.950 . S
H497 C521 0.951 . S
H498 C523 0.951 . S
H499 C525 0.950 . S
H500 C526 0.950 . S
H501 C528 0.950 . S
H502 C531 0.950 . S
H503 C532 0.950 . S
H504 C534 0.950 . S
H505 C535 0.950 . S
C506 H488 0.951 . S
C506 C507 1.366 . S
C506 C508 1.388 . S
C507 C506 1.366 . S
C507 C511 1.385 . S
C508 H489 0.951 . S
C508 C506 1.388 . S
C508 C509 1.366 . S
C509 C508 1.366 . S
C509 C510 1.414 . S
C509 C512 1.499 . S
C510 H490 0.950 . S
C510 C509 1.414 . S
C510 C511 1.374 . S
C511 H491 0.950 . S
C511 C507 1.385 . S
C511 C510 1.374 . S
C512 C509 1.499 . S
C512 C513 1.373 . S
C512 C514 1.389 . S
C513 H492 0.950 . S
C513 C512 1.373 . S
C513 C529 1.377 . S
C514 C512 1.389 . S
C514 C515 1.524 . S
C514 C528 1.377 . S
C515 C514 1.524 . S
C515 C516 1.397 . S
C515 C520 1.363 . S
C516 H493 0.950 . S
C516 C515 1.397 . S
C516 C517 1.334 . S
C517 H494 0.950 . S
C517 C516 1.334 . S
C517 C518 1.287 . S
C518 C517 1.287 . S
C518 C519 1.524 . S
C518 H537 0.913 . S
C519 H495 0.950 . S
C519 C518 1.524 . S
C519 C520 1.415 . S
C520 H496 0.950 . S
C520 C515 1.363 . S
C520 C519 1.415 . S
C521 H497 0.951 . S
C521 C522 1.366 . S
C521 C523 1.388 . S
C522 C521 1.366 . S
C522 C526 1.385 . S
C523 H498 0.951 . S
C523 C521 1.388 . S
C523 C524 1.366 . S
C524 C523 1.366 . S
C524 C525 1.414 . S
C524 C527 1.499 . S
C525 H499 0.950 . S
C525 C524 1.414 . S
C525 C526 1.374 . S
C526 H500 0.950 . S
C526 C522 1.385 . S
C526 C525 1.374 . S
C527 C524 1.499 . S
C527 C528 1.373 . S
C527 C529 1.389 . S
C528 H501 0.950 . S
C528 C514 1.377 . S
C528 C527 1.373 . S
C529 C513 1.377 . S
C529 C527 1.389 . S
C529 C530 1.524 . S
C530 C529 1.524 . S
C530 C531 1.397 . S
C530 C535 1.363 . S
C531 H502 0.950 . S
C531 C530 1.397 . S
C531 C532 1.334 . S
C532 H503 0.950 . S
C532 C531 1.334 . S
C532 C533 1.287 . S
C533 C532 1.287 . S
C533 C534 1.524 . S
C533 H536 0.999 . S
C534 H504 0.950 . S
C534 C533 1.524 . S
C534 C535 1.415 . S
C535 H505 0.950 . S
C535 C530 1.363 . S
C535 C534 1.415 . S
H536 C533 0.999 . S
H537 C518 0.913 . S
H538 C556 0.951 . S
H539 C558 0.951 . S
H540 C560 0.950 . S
H541 C561 0.950 . S
H542 C563 0.950 . S
H543 C566 0.950 . S
H544 C567 0.950 . S
H545 C569 0.950 . S
H546 C570 0.950 . S
H547 C571 0.951 . S
H548 C573 0.951 . S
H549 C575 0.950 . S
H550 C576 0.950 . S
H551 C578 0.950 . S
H552 C581 0.950 . S
H553 C582 0.950 . S
H554 C584 0.950 . S
H555 C585 0.950 . S
C556 H538 0.951 . S
C556 C557 1.366 . S
C556 C558 1.388 . S
C557 C556 1.366 . S
C557 C561 1.385 . S
C558 H539 0.951 . S
C558 C556 1.388 . S
C558 C559 1.366 . S
C559 C558 1.366 . S
C559 C560 1.414 . S
C559 C562 1.499 . S
C560 H540 0.950 . S
C560 C559 1.414 . S
C560 C561 1.374 . S
C561 H541 0.950 . S
C561 C557 1.385 . S
C561 C560 1.374 . S
C562 C559 1.499 . S
C562 C563 1.373 . S
C562 C564 1.389 . S
C563 H542 0.950 . S
C563 C562 1.373 . S
C563 C579 1.377 . S
C564 C562 1.389 . S
C564 C565 1.524 . S
C564 C578 1.377 . S
C565 C564 1.524 . S
C565 C566 1.397 . S
C565 C570 1.363 . S
C566 H543 0.950 . S
C566 C565 1.397 . S
C566 C567 1.334 . S
C567 H544 0.950 . S
C567 C566 1.334 . S
C567 C568 1.287 . S
C568 C567 1.287 . S
C568 C569 1.524 . S
C568 H587 0.913 . S
C569 H545 0.950 . S
C569 C568 1.524 . S
C569 C570 1.415 . S
C570 H546 0.950 . S
C570 C565 1.363 . S
C570 C569 1.415 . S
C571 H547 0.951 . S
C571 C572 1.366 . S
C571 C573 1.388 . S
C572 C571 1.366 . S
C572 C576 1.385 . S
C573 H548 0.951 . S
C573 C571 1.388 . S
C573 C574 1.366 . S
C574 C573 1.366 . S
C574 C575 1.414 . S
C574 C577 1.499 . S
C575 H549 0.950 . S
C575 C574 1.414 . S
C575 C576 1.374 . S
C576 H550 0.950 . S
C576 C572 1.385 . S
C576 C575 1.374 . S
C577 C574 1.499 . S
C577 C578 1.373 . S
C577 C579 1.389 . S
C578 H551 0.950 . S
C578 C564 1.377 . S
C578 C577 1.373 . S
C579 C563 1.377 . S
C579 C577 1.389 . S
C579 C580 1.524 . S
C580 C579 1.524 . S
C580 C581 1.397 . S
C580 C585 1.363 . S
C581 H552 0.950 . S
C581 C580 1.397 . S
C581 C582 1.334 . S
C582 H553 0.950 . S
C582 C581 1.334 . S
C582 C583 1.287 . S
C583 C582 1.287 . S
C583 C584 1.524 . S
C583 H586 0.999 . S
C584 H554 0.950 . S
C584 C583 1.524 . S
C584 C585 1.415 . S
C585 H555 0.950 . S
C585 C580 1.363 . S
C585 C584 1.415 . S
H586 C583 0.999 . S
H587 C568 0.913 . S
H588 C606 0.951 . S
H589 C608 0.951 . S
H590 C610 0.950 . S
H591 C611 0.950 . S
H592 C613 0.950 . S
H593 C616 0.950 . S
H594 C617 0.950 . S
H595 C619 0.950 . S
H596 C620 0.950 . S
H597 C621 0.951 . S
H598 C623 0.951 . S
H599 C625 0.950 . S
H600 C626 0.950 . S
H601 C628 0.950 . S
H602 C631 0.950 . S
H603 C632 0.950 . S
H604 C634 0.950 . S
H605 C635 0.950 . S
C606 H588 0.951 . S
C606 C607 1.366 . S
C606 C608 1.388 . S
C607 C606 1.366 . S
C607 C611 1.385 . S
C608 H589 0.951 . S
C608 C606 1.388 . S
C608 C609 1.366 . S
C609 C608 1.366 . S
C609 C610 1.414 . S
C609 C612 1.499 . S
C610 H590 0.950 . S
C610 C609 1.414 . S
C610 C611 1.374 . S
C611 H591 0.950 . S
C611 C607 1.385 . S
C611 C610 1.374 . S
C612 C609 1.499 . S
C612 C613 1.373 . S
C612 C614 1.389 . S
C613 H592 0.950 . S
C613 C612 1.373 . S
C613 C629 1.377 . S
C614 C612 1.389 . S
C614 C615 1.524 . S
C614 C628 1.377 . S
C615 C614 1.524 . S
C615 C616 1.397 . S
C615 C620 1.363 . S
C616 H593 0.950 . S
C616 C615 1.397 . S
C616 C617 1.334 . S
C617 H594 0.950 . S
C617 C616 1.334 . S
C617 C618 1.287 . S
C618 C617 1.287 . S
C618 C619 1.524 . S
C618 H637 0.913 . S
C619 H595 0.950 . S
C619 C618 1.524 . S
C619 C620 1.415 . S
C620 H596 0.950 . S
C620 C615 1.363 . S
C620 C619 1.415 . S
C621 H597 0.951 . S
C621 C622 1.366 . S
C621 C623 1.388 . S
C622 C621 1.366 . S
C622 C626 1.385 . S
C623 H598 0.951 . S
C623 C621 1.388 . S
C623 C624 1.366 . S
C624 C623 1.366 . S
C624 C625 1.414 . S
C624 C627 1.499 . S
C625 H599 0.950 . S
C625 C624 1.414 . S
C625 C626 1.374 . S
C626 H600 0.950 . S
C626 C622 1.385 . S
C626 C625 1.374 . S
C627 C624 1.499 . S
C627 C628 1.373 . S
C627 C629 1.389 . S
C628 H601 0.950 . S
C628 C614 1.377 . S
C628 C627 1.373 . S
C629 C613 1.377 . S
C629 C627 1.389 . S
C629 C630 1.524 . S
C630 C629 1.524 . S
C630 C631 1.397 . S
C630 C635 1.363 . S
C631 H602 0.950 . S
C631 C630 1.397 . S
C631 C632 1.334 . S
C632 H603 0.950 . S
C632 C631 1.334 . S
C632 C633 1.287 . S
C633 C632 1.287 . S
C633 C634 1.524 . S
C633 H636 0.999 . S
C634 H604 0.950 . S
C634 C633 1.524 . S
C634 C635 1.415 . S
C635 H605 0.950 . S
C635 C630 1.363 . S
C635 C634 1.415 . S
H636 C633 0.999 . S
H637 C618 0.913 . S
H638 C656 0.951 . S
H639 C658 0.951 . S
H640 C660 0.950 . S
H641 C661 0.950 . S
H642 C663 0.950 . S
H643 C666 0.950 . S
H644 C667 0.950 . S
H645 C669 0.950 . S
H646 C670 0.950 . S
H647 C671 0.951 . S
H648 C673 0.951 . S
H649 C675 0.950 . S
H650 C676 0.950 . S
H651 C678 0.950 . S
H652 C681 0.950 . S
H653 C682 0.950 . S
H654 C684 0.950 . S
H655 C685 0.950 . S
C656 H638 0.951 . S
C656 C657 1.366 . S
C656 C658 1.388 . S
C657 C656 1.366 . S
C657 C661 1.385 . S
C658 H639 0.951 . S
C658 C656 1.388 . S
C658 C659 1.366 . S
C659 C658 1.366 . S
C659 C660 1.414 . S
C659 C662 1.499 . S
C660 H640 0.950 . S
C660 C659 1.414 . S
C660 C661 1.374 . S
C661 H641 0.950 . S
C661 C657 1.385 . S
C661 C660 1.374 . S
C662 C659 1.499 . S
C662 C663 1.373 . S
C662 C664 1.389 . S
C663 H642 0.950 . S
C663 C662 1.373 . S
C663 C679 1.377 . S
C664 C662 1.389 . S
C664 C665 1.524 . S
C664 C678 1.377 . S
C665 C664 1.524 . S
C665 C666 1.397 . S
C665 C670 1.363 . S
C666 H643 0.950 . S
C666 C665 1.397 . S
C666 C667 1.334 . S
C667 H644 0.950 . S
C667 C666 1.334 . S
C667 C668 1.287 . S
C668 C667 1.287 . S
C668 C669 1.524 . S
C668 H687 0.913 . S
C669 H645 0.950 . S
C669 C668 1.524 . S
C669 C670 1.415 . S
C670 H646 0.950 . S
C670 C665 1.363 . S
C670 C669 1.415 . S
C671 H647 0.951 . S
C671 C672 1.366 . S
C671 C673 1.388 . S
C672 C671 1.366 . S
C672 C676 1.385 . S
C673 H648 0.951 . S
C673 C671 1.388 . S
C673 C674 1.366 . S
C674 C673 1.366 . S
C674 C675 1.414 . S
C674 C677 1.499 . S
C675 H649 0.950 . S
C675 C674 1.414 . S
C675 C676 1.374 . S
C676 H650 0.950 . S
C676 C672 1.385 . S
C676 C675 1.374 . S
C677 C674 1.499 . S
C677 C678 1.373 . S
C677 C679 1.389 . S
C678 H651 0.950 . S
C678 C664 1.377 . S
C678 C677 1.373 . S
C679 C663 1.377 . S
C679 C677 1.389 . S
C679 C680 1.524 . S
C680 C679 1.524 . S
C680 C681 1.397 . S
C680 C685 1.363 . S
C681 H652 0.950 . S
C681 C680 1.397 . S
C681 C682 1.334 . S
C682 H653 0.950 . S
C682 C681 1.334 . S
C682 C683 1.287 . S
C683 C682 1.287 . S
C683 C684 1.524 . S
C683 H686 0.999 . S
C684 H654 0.950 . S
C684 C683 1.524 . S
C684 C685 1.415 . S
C685 H655 0.950 . S
C685 C680 1.363 . S
C685 C684 1.415 . S
H686 C683 0.999 . S
H687 C668 0.913 . S
H688 C706 0.951 . S
H689 C708 0.951 . S
H690 C710 0.950 . S
H691 C711 0.950 . S
H692 C713 0.950 . S
H693 C716 0.950 . S
H694 C717 0.950 . S
H695 C719 0.950 . S
H696 C720 0.950 . S
H697 C721 0.951 . S
H698 C723 0.951 . S
H699 C725 0.950 . S
H700 C726 0.950 . S
H701 C728 0.950 . S
H702 C731 0.950 . S
H703 C732 0.950 . S
H704 C734 0.950 . S
H705 C735 0.950 . S
C706 H688 0.951 . S
C706 C707 1.366 . S
C706 C708 1.388 . S
C707 C706 1.366 . S
C707 C711 1.385 . S
C708 H689 0.951 . S
C708 C706 1.388 . S
C708 C709 1.366 . S
C709 C708 1.366 . S
C709 C710 1.414 . S
C709 C712 1.499 . S
C710 H690 0.950 . S
C710 C709 1.414 . S
C710 C711 1.374 . S
C711 H691 0.950 . S
C711 C707 1.385 . S
C711 C710 1.374 . S
C712 C709 1.499 . S
C712 C713 1.373 1_554 S
C712 C714 1.389 . S
C713 H692 0.950 . S
C713 C712 1.373 1_556 S
C713 C729 1.377 . S
C714 C712 1.389 . S
C714 C715 1.524 . S
C714 C728 1.377 . S
C715 C714 1.524 . S
C715 C716 1.397 . S
C715 C720 1.363 . S
C716 H693 0.950 . S
C716 C715 1.397 . S
C716 C717 1.334 . S
C717 H694 0.950 . S
C717 C716 1.334 . S
C717 C718 1.287 . S
C718 C717 1.287 . S
C718 C719 1.524 . S
C718 H737 0.913 . S
C719 H695 0.950 . S
C719 C718 1.524 . S
C719 C720 1.415 . S
C720 H696 0.950 . S
C720 C715 1.363 . S
C720 C719 1.415 . S
C721 H697 0.951 . S
C721 C722 1.366 . S
C721 C723 1.388 . S
C722 C721 1.366 . S
C722 C726 1.385 . S
C723 H698 0.951 . S
C723 C721 1.388 . S
C723 C724 1.366 . S
C724 C723 1.366 . S
C724 C725 1.414 . S
C724 C727 1.499 . S
C725 H699 0.950 . S
C725 C724 1.414 . S
C725 C726 1.374 . S
C726 H700 0.950 . S
C726 C722 1.385 . S
C726 C725 1.374 . S
C727 C724 1.499 . S
C727 C728 1.373 1_556 S
C727 C729 1.389 . S
C728 H701 0.950 . S
C728 C714 1.377 . S
C728 C727 1.373 1_554 S
C729 C713 1.377 . S
C729 C727 1.389 . S
C729 C730 1.524 . S
C730 C729 1.524 . S
C730 C731 1.397 . S
C730 C735 1.363 . S
C731 H702 0.950 . S
C731 C730 1.397 . S
C731 C732 1.334 . S
C732 H703 0.950 . S
C732 C731 1.334 . S
C732 C733 1.287 . S
C733 C732 1.287 . S
C733 C734 1.524 . S
C733 H736 0.999 . S
C734 H704 0.950 . S
C734 C733 1.524 . S
C734 C735 1.415 . S
C735 H705 0.950 . S
C735 C730 1.363 . S
C735 C734 1.415 . S
H736 C733 0.999 . S
H737 C718 0.913 . S
H738 C756 0.951 . S
H739 C758 0.951 . S
H740 C760 0.950 1_556 S
H741 C761 0.950 . S
H742 C763 0.950 . S
H743 C766 0.950 . S
H744 C767 0.950 . S
H745 C769 0.950 . S
H746 C770 0.950 . S
H747 C771 0.951 . S
H748 C773 0.951 . S
H749 C775 0.950 1_554 S
H750 C776 0.950 . S
H751 C778 0.950 . S
H752 C781 0.950 . S
H753 C782 0.950 . S
H754 C784 0.950 . S
H755 C785 0.950 . S
C756 H738 0.951 . S
C756 C757 1.366 . S
C756 C758 1.388 . S
C757 C756 1.366 . S
C757 C761 1.385 . S
C758 H739 0.951 . S
C758 C756 1.388 . S
C758 C759 1.366 . S
C759 C758 1.366 . S
C759 C760 1.414 . S
C759 C762 1.499 . S
C760 H740 0.950 1_554 S
C760 C759 1.414 . S
C760 C761 1.374 . S
C761 H741 0.950 . S
C761 C757 1.385 . S
C761 C760 1.374 . S
C762 C759 1.499 . S
C762 C763 1.373 1_455 S
C762 C764 1.389 1_554 S
C763 H742 0.950 . S
C763 C762 1.373 1_655 S
C763 C779 1.377 . S
C764 C762 1.389 1_556 S
C764 C765 1.524 . S
C764 C778 1.377 . S
C765 C764 1.524 . S
C765 C766 1.397 . S
C765 C770 1.363 . S
C766 H743 0.950 . S
C766 C765 1.397 . S
C766 C767 1.334 . S
C767 H744 0.950 . S
C767 C766 1.334 . S
C767 C768 1.287 . S
C768 C767 1.287 . S
C768 C769 1.524 . S
C768 H787 0.913 . S
C769 H745 0.950 . S
C769 C768 1.524 . S
C769 C770 1.415 . S
C770 H746 0.950 . S
C770 C765 1.363 . S
C770 C769 1.415 . S
C771 H747 0.951 . S
C771 C772 1.366 . S
C771 C773 1.388 . S
C772 C771 1.366 . S
C772 C776 1.385 . S
C773 H748 0.951 . S
C773 C771 1.388 . S
C773 C774 1.366 . S
C774 C773 1.366 . S
C774 C775 1.414 . S
C774 C777 1.499 . S
C775 H749 0.950 1_556 S
C775 C774 1.414 . S
C775 C776 1.374 . S
C776 H750 0.950 . S
C776 C772 1.385 . S
C776 C775 1.374 . S
C777 C774 1.499 . S
C777 C778 1.373 1_655 S
C777 C779 1.389 1_556 S
C778 H751 0.950 . S
C778 C764 1.377 . S
C778 C777 1.373 1_455 S
C779 C763 1.377 . S
C779 C777 1.389 1_554 S
C779 C780 1.524 . S
C780 C779 1.524 . S
C780 C781 1.397 . S
C780 C785 1.363 . S
C781 H752 0.950 . S
C781 C780 1.397 . S
C781 C782 1.334 . S
C782 H753 0.950 . S
C782 C781 1.334 . S
C782 C783 1.287 . S
C783 C782 1.287 . S
C783 C784 1.524 . S
C783 H786 0.999 . S
C784 H754 0.950 . S
C784 C783 1.524 . S
C784 C785 1.415 . S
C785 H755 0.950 . S
C785 C780 1.363 . S
C785 C784 1.415 . S
H786 C783 0.999 . S
H787 C768 0.913 . S
H788 C806 0.951 . S
H789 C808 0.951 . S
H790 C810 0.950 . S
H791 C811 0.950 . S
H792 C813 0.950 . S
H793 C816 0.950 . S
H794 C817 0.950 . S
H795 C819 0.950 . S
H796 C820 0.950 . S
H797 C821 0.951 . S
H798 C823 0.951 . S
H799 C825 0.950 . S
H800 C826 0.950 . S
H801 C828 0.950 . S
H802 C831 0.950 . S
H803 C832 0.950 . S
H804 C834 0.950 . S
H805 C835 0.950 . S
C806 H788 0.951 . S
C806 C807 1.366 . S
C806 C808 1.388 . S
C807 C806 1.366 . S
C807 C811 1.385 . S
C808 H789 0.951 . S
C808 C806 1.388 . S
C808 C809 1.366 . S
C809 C808 1.366 . S
C809 C810 1.414 . S
C809 C812 1.499 . S
C810 H790 0.950 . S
C810 C809 1.414 . S
C810 C811 1.374 . S
C811 H791 0.950 . S
C811 C807 1.385 . S
C811 C810 1.374 . S
C812 C809 1.499 . S
C812 C813 1.373 . S
C812 C814 1.389 . S
C813 H792 0.950 . S
C813 C812 1.373 . S
C813 C829 1.377 1_565 S
C814 C812 1.389 . S
C814 C815 1.524 . S
C814 C828 1.377 1_565 S
C815 C814 1.524 . S
C815 C816 1.397 . S
C815 C820 1.363 . S
C816 H793 0.950 . S
C816 C815 1.397 . S
C816 C817 1.334 . S
C817 H794 0.950 . S
C817 C816 1.334 . S
C817 C818 1.287 . S
C818 C817 1.287 . S
C818 C819 1.524 . S
C818 H837 0.913 . S
C819 H795 0.950 . S
C819 C818 1.524 . S
C819 C820 1.415 . S
C820 H796 0.950 . S
C820 C815 1.363 . S
C820 C819 1.415 . S
C821 H797 0.951 . S
C821 C822 1.366 . S
C821 C823 1.388 . S
C822 C821 1.366 . S
C822 C826 1.385 . S
C823 H798 0.951 . S
C823 C821 1.388 . S
C823 C824 1.366 . S
C824 C823 1.366 . S
C824 C825 1.414 . S
C824 C827 1.499 . S
C825 H799 0.950 . S
C825 C824 1.414 . S
C825 C826 1.374 . S
C826 H800 0.950 . S
C826 C822 1.385 . S
C826 C825 1.374 . S
C827 C824 1.499 . S
C827 C828 1.373 . S
C827 C829 1.389 . S
C828 H801 0.950 . S
C828 C814 1.377 1_545 S
C828 C827 1.373 . S
C829 C813 1.377 1_545 S
C829 C827 1.389 . S
C829 C830 1.524 . S
C830 C829 1.524 . S
C830 C831 1.397 . S
C830 C835 1.363 . S
C831 H802 0.950 . S
C831 C830 1.397 . S
C831 C832 1.334 . S
C832 H803 0.950 . S
C832 C831 1.334 . S
C832 C833 1.287 . S
C833 C832 1.287 . S
C833 C834 1.524 . S
C833 H836 0.999 . S
C834 H804 0.950 . S
C834 C833 1.524 . S
C834 C835 1.415 . S
C835 H805 0.950 . S
C835 C830 1.363 . S
C835 C834 1.415 . S
H836 C833 0.999 . S
H837 C818 0.913 . S
H838 C856 0.951 . S
H839 C858 0.951 . S
H840 C860 0.950 . S
H841 C861 0.950 . S
H842 C863 0.950 . S
H843 C866 0.950 . S
H844 C867 0.950 . S
H845 C869 0.950 . S
H846 C870 0.950 1_455 S
H847 C871 0.951 . S
H848 C873 0.951 . S
H849 C875 0.950 . S
H850 C876 0.950 . S
H851 C878 0.950 . S
H852 C881 0.950 . S
H853 C882 0.950 . S
H854 C884 0.950 . S
H855 C885 0.950 1_655 S
C856 H838 0.951 . S
C856 C857 1.366 . S
C856 C858 1.388 . S
C857 C856 1.366 . S
C857 C861 1.385 . S
C858 H839 0.951 . S
C858 C856 1.388 . S
C858 C859 1.366 . S
C859 C858 1.366 . S
C859 C860 1.414 . S
C859 C862 1.499 . S
C860 H840 0.950 . S
C860 C859 1.414 . S
C860 C861 1.374 . S
C861 H841 0.950 . S
C861 C857 1.385 . S
C861 C860 1.374 . S
C862 C859 1.499 . S
C862 C863 1.373 . S
C862 C864 1.389 . S
C863 H842 0.950 . S
C863 C862 1.373 . S
C863 C879 1.377 1_645 S
C864 C862 1.389 . S
C864 C865 1.524 . S
C864 C878 1.377 1_645 S
C865 C864 1.524 . S
C865 C866 1.397 . S
C865 C870 1.363 . S
C866 H843 0.950 . S
C866 C865 1.397 . S
C866 C867 1.334 . S
C867 H844 0.950 . S
C867 C866 1.334 . S
C867 C868 1.287 . S
C868 C867 1.287 . S
C868 C869 1.524 . S
C868 H887 0.913 . S
C869 H845 0.950 . S
C869 C868 1.524 . S
C869 C870 1.415 . S
C870 H846 0.950 1_655 S
C870 C865 1.363 . S
C870 C869 1.415 . S
C871 H847 0.951 . S
C871 C872 1.366 . S
C871 C873 1.388 . S
C872 C871 1.366 . S
C872 C876 1.385 . S
C873 H848 0.951 . S
C873 C871 1.388 . S
C873 C874 1.366 . S
C874 C873 1.366 . S
C874 C875 1.414 . S
C874 C877 1.499 . S
C875 H849 0.950 . S
C875 C874 1.414 . S
C875 C876 1.374 . S
C876 H850 0.950 . S
C876 C872 1.385 . S
C876 C875 1.374 . S
C877 C874 1.499 . S
C877 C878 1.373 . S
C877 C879 1.389 . S
C878 H851 0.950 . S
C878 C864 1.377 1_465 S
C878 C877 1.373 . S
C879 C863 1.377 1_465 S
C879 C877 1.389 . S
C879 C880 1.524 . S
C880 C879 1.524 . S
C880 C881 1.397 . S
C880 C885 1.363 . S
C881 H852 0.950 . S
C881 C880 1.397 . S
C881 C882 1.334 . S
C882 H853 0.950 . S
C882 C881 1.334 . S
C882 C883 1.287 . S
C883 C882 1.287 . S
C883 C884 1.524 . S
C883 H886 0.999 . S
C884 H854 0.950 . S
C884 C883 1.524 . S
C884 C885 1.415 . S
C885 H855 0.950 1_455 S
C885 C880 1.363 . S
C885 C884 1.415 . S
H886 C883 0.999 . S
H887 C868 0.913 . S
H888 C906 0.951 . S
H889 C908 0.951 . S
H890 C910 0.950 . S
H891 C911 0.950 . S
H892 C913 0.950 . S
H893 C916 0.950 . S
H894 C917 0.950 . S
H895 C919 0.950 . S
H896 C920 0.950 . S
H897 C921 0.951 . S
H898 C923 0.951 . S
H899 C925 0.950 . S
H900 C926 0.950 . S
H901 C928 0.950 1_556 S
H902 C931 0.950 . S
H903 C932 0.950 . S
H904 C934 0.950 . S
H905 C935 0.950 . S
C906 H888 0.951 . S
C906 C907 1.366 . S
C906 C908 1.388 . S
C907 C906 1.366 . S
C907 C911 1.385 . S
C908 H889 0.951 . S
C908 C906 1.388 . S
C908 C909 1.366 . S
C909 C908 1.366 . S
C909 C910 1.414 . S
C909 C912 1.499 . S
C910 H890 0.950 . S
C910 C909 1.414 . S
C910 C911 1.374 . S
C911 H891 0.950 . S
C911 C907 1.385 . S
C911 C910 1.374 . S
C912 C909 1.499 . S
C912 C913 1.373 . S
C912 C914 1.389 . S
C913 H892 0.950 . S
C913 C912 1.373 . S
C913 C929 1.377 . S
C914 C912 1.389 . S
C914 C915 1.524 1_554 S
C914 C928 1.377 . S
C915 C914 1.524 1_556 S
C915 C916 1.397 . S
C915 C920 1.363 . S
C916 H893 0.950 . S
C916 C915 1.397 . S
C916 C917 1.334 . S
C917 H894 0.950 . S
C917 C916 1.334 . S
C917 C918 1.287 . S
C918 C917 1.287 . S
C918 C919 1.524 . S
C918 H937 0.913 . S
C919 H895 0.950 . S
C919 C918 1.524 . S
C919 C920 1.415 . S
C920 H896 0.950 . S
C920 C915 1.363 . S
C920 C919 1.415 . S
C921 H897 0.951 . S
C921 C922 1.366 . S
C921 C923 1.388 . S
C922 C921 1.366 . S
C922 C926 1.385 . S
C923 H898 0.951 . S
C923 C921 1.388 . S
C923 C924 1.366 . S
C924 C923 1.366 . S
C924 C925 1.414 . S
C924 C927 1.499 . S
C925 H899 0.950 . S
C925 C924 1.414 . S
C925 C926 1.374 . S
C926 H900 0.950 . S
C926 C922 1.385 . S
C926 C925 1.374 . S
C927 C924 1.499 . S
C927 C928 1.373 . S
C927 C929 1.389 . S
C928 H901 0.950 1_554 S
C928 C914 1.377 . S
C928 C927 1.373 . S
C929 C913 1.377 . S
C929 C927 1.389 . S
C929 C930 1.524 . S
C930 C929 1.524 . S
C930 C931 1.397 . S
C930 C935 1.363 . S
C931 H902 0.950 . S
C931 C930 1.397 . S
C931 C932 1.334 . S
C932 H903 0.950 . S
C932 C931 1.334 . S
C932 C933 1.287 . S
C933 C932 1.287 . S
C933 C934 1.524 . S
C933 H936 0.999 . S
C934 H904 0.950 . S
C934 C933 1.524 . S
C934 C935 1.415 . S
C935 H905 0.950 . S
C935 C930 1.363 . S
C935 C934 1.415 . S
H936 C933 0.999 . S
H937 C918 0.913 . S
H938 C956 0.951 . S
H939 C958 0.951 . S
H940 C960 0.950 . S
H941 C961 0.950 . S
H942 C963 0.950 . S
H943 C966 0.950 . S
H944 C967 0.950 . S
H945 C969 0.950 . S
H946 C970 0.950 . S
H947 C971 0.951 . S
H948 C973 0.951 . S
H949 C975 0.950 . S
H950 C976 0.950 . S
H951 C978 0.950 . S
H952 C981 0.950 . S
H953 C982 0.950 . S
H954 C984 0.950 . S
H955 C985 0.950 . S
C956 H938 0.951 . S
C956 C957 1.366 . S
C956 C958 1.388 . S
C957 C956 1.366 . S
C957 C961 1.385 . S
C958 H939 0.951 . S
C958 C956 1.388 . S
C958 C959 1.366 . S
C959 C958 1.366 . S
C959 C960 1.414 . S
C959 C962 1.499 . S
C960 H940 0.950 . S
C960 C959 1.414 . S
C960 C961 1.374 . S
C961 H941 0.950 . S
C961 C957 1.385 . S
C961 C960 1.374 . S
C962 C959 1.499 . S
C962 C963 1.373 . S
C962 C964 1.389 . S
C963 H942 0.950 . S
C963 C962 1.373 . S
C963 C979 1.377 1_545 S
C964 C962 1.389 . S
C964 C965 1.524 . S
C964 C978 1.377 1_545 S
C965 C964 1.524 . S
C965 C966 1.397 . S
C965 C970 1.363 1_545 S
C966 H943 0.950 . S
C966 C965 1.397 . S
C966 C967 1.334 . S
C967 H944 0.950 . S
C967 C966 1.334 . S
C967 C968 1.287 . S
C968 C967 1.287 . S
C968 C969 1.524 1_545 S
C968 H987 0.913 . S
C969 H945 0.950 . S
C969 C968 1.524 1_565 S
C969 C970 1.415 . S
C970 H946 0.950 . S
C970 C965 1.363 1_565 S
C970 C969 1.415 . S
C971 H947 0.951 . S
C971 C972 1.366 . S
C971 C973 1.388 . S
C972 C971 1.366 . S
C972 C976 1.385 . S
C973 H948 0.951 . S
C973 C971 1.388 . S
C973 C974 1.366 . S
C974 C973 1.366 . S
C974 C975 1.414 . S
C974 C977 1.499 . S
C975 H949 0.950 . S
C975 C974 1.414 . S
C975 C976 1.374 . S
C976 H950 0.950 . S
C976 C972 1.385 . S
C976 C975 1.374 . S
C977 C974 1.499 . S
C977 C978 1.373 . S
C977 C979 1.389 . S
C978 H951 0.950 . S
C978 C964 1.377 1_565 S
C978 C977 1.373 . S
C979 C963 1.377 1_565 S
C979 C977 1.389 . S
C979 C980 1.524 . S
C980 C979 1.524 . S
C980 C981 1.397 . S
C980 C985 1.363 1_565 S
C981 H952 0.950 . S
C981 C980 1.397 . S
C981 C982 1.334 . S
C982 H953 0.950 . S
C982 C981 1.334 . S
C982 C983 1.287 . S
C983 C982 1.287 . S
C983 C984 1.524 1_565 S
C983 H986 0.999 . S
C984 H954 0.950 . S
C984 C983 1.524 1_545 S
C984 C985 1.415 . S
C985 H955 0.950 . S
C985 C980 1.363 1_545 S
C985 C984 1.415 . S
H986 C983 0.999 . S
H987 C968 0.913 . S
H988 C1006 0.951 . S
H989 C1008 0.951 . S
H990 C1010 0.950 . S
H991 C1011 0.950 . S
H992 C1013 0.950 . S
H993 C1016 0.950 . S
H994 C1017 0.950 . S
H995 C1019 0.950 . S
H996 C1020 0.950 . S
H997 C1021 0.951 . S
H998 C1023 0.951 . S
H999 C1025 0.950 . S
H1000 C1026 0.950 . S
H1001 C1028 0.950 . S
H1002 C1031 0.950 . S
H1003 C1032 0.950 . S
H1004 C1034 0.950 . S
H1005 C1035 0.950 . S
C1006 H988 0.951 . S
C1006 C1007 1.366 . S
C1006 C1008 1.388 . S
C1007 C1006 1.366 . S
C1007 C1011 1.385 . S
C1008 H989 0.951 . S
C1008 C1006 1.388 . S
C1008 C1009 1.366 . S
C1009 C1008 1.366 . S
C1009 C1010 1.414 . S
C1009 C1012 1.499 . S
C1010 H990 0.950 . S
C1010 C1009 1.414 . S
C1010 C1011 1.374 . S
C1011 H991 0.950 . S
C1011 C1007 1.385 . S
C1011 C1010 1.374 . S
C1012 C1009 1.499 . S
C1012 C1013 1.373 . S
C1012 C1014 1.389 . S
C1013 H992 0.950 . S
C1013 C1012 1.373 . S
C1013 C1029 1.377 . S
C1014 C1012 1.389 . S
C1014 C1015 1.524 . S
C1014 C1028 1.377 . S
C1015 C1014 1.524 . S
C1015 C1016 1.397 . S
C1015 C1020 1.363 . S
C1016 H993 0.950 . S
C1016 C1015 1.397 . S
C1016 C1017 1.334 . S
C1017 H994 0.950 . S
C1017 C1016 1.334 . S
C1017 C1018 1.287 . S
C1018 C1017 1.287 . S
C1018 C1019 1.524 . S
C1018 H1037 0.913 . S
C1019 H995 0.950 . S
C1019 C1018 1.524 . S
C1019 C1020 1.415 . S
C1020 H996 0.950 . S
C1020 C1015 1.363 . S
C1020 C1019 1.415 . S
C1021 H997 0.951 . S
C1021 C1022 1.366 . S
C1021 C1023 1.388 . S
C1022 C1021 1.366 . S
C1022 C1026 1.385 . S
C1023 H998 0.951 . S
C1023 C1021 1.388 . S
C1023 C1024 1.366 . S
C1024 C1023 1.366 . S
C1024 C1025 1.414 . S
C1024 C1027 1.499 . S
C1025 H999 0.950 . S
C1025 C1024 1.414 . S
C1025 C1026 1.374 . S
C1026 H1000 0.950 . S
C1026 C1022 1.385 . S
C1026 C1025 1.374 . S
C1027 C1024 1.499 . S
C1027 C1028 1.373 . S
C1027 C1029 1.389 . S
C1028 H1001 0.950 . S
C1028 C1014 1.377 . S
C1028 C1027 1.373 . S
C1029 C1013 1.377 . S
C1029 C1027 1.389 . S
C1029 C1030 1.518 1_556 S
C1030 C1029 1.518 1_554 S
C1030 C1031 1.406 . S
C1030 C1035 1.361 1_554 S
C1031 H1002 0.950 . S
C1031 C1030 1.406 . S
C1031 C1032 1.334 . S
C1032 H1003 0.950 . S
C1032 C1031 1.334 . S
C1032 C1033 1.287 . S
C1033 C1032 1.287 . S
C1033 C1034 1.524 . S
C1033 H1036 0.999 . S
C1034 H1004 0.950 . S
C1034 C1033 1.524 . S
C1034 C1035 1.415 1_554 S
C1035 H1005 0.950 . S
C1035 C1030 1.361 1_556 S
C1035 C1034 1.415 1_556 S
H1036 C1033 0.999 . S
H1037 C1018 0.913 . S
H1038 C1056 0.951 . S
H1039 C1058 0.951 . S
H1040 C1060 0.950 . S
H1041 C1061 0.950 . S
H1042 C1063 0.950 . S
H1043 C1066 0.950 . S
H1044 C1067 0.950 . S
H1045 C1069 0.950 . S
H1046 C1070 0.950 . S
H1047 C1071 0.951 . S
H1048 C1073 0.951 . S
H1049 C1075 0.950 . S
H1050 C1076 0.950 . S
H1051 C1078 0.950 . S
H1052 C1081 0.950 . S
H1053 C1082 0.950 . S
H1054 C1084 0.950 . S
H1055 C1085 0.950 . S
C1056 H1038 0.951 . S
C1056 C1057 1.366 . S
C1056 C1058 1.388 . S
C1057 C1056 1.366 . S
C1057 C1061 1.385 . S
C1058 H1039 0.951 . S
C1058 C1056 1.388 . S
C1058 C1059 1.366 . S
C1059 C1058 1.366 . S
C1059 C1060 1.414 . S
C1059 C1062 1.499 . S
C1060 H1040 0.950 . S
C1060 C1059 1.414 . S
C1060 C1061 1.374 . S
C1061 H1041 0.950 . S
C1061 C1057 1.385 . S
C1061 C1060 1.374 . S
C1062 C1059 1.499 . S
C1062 C1063 1.373 . S
C1062 C1064 1.389 1_565 S
C1063 H1042 0.950 . S
C1063 C1062 1.373 . S
C1063 C1079 1.377 . S
C1064 C1062 1.389 1_545 S
C1064 C1065 1.524 . S
C1064 C1078 1.377 . S
C1065 C1064 1.524 . S
C1065 C1066 1.397 1_545 S
C1065 C1070 1.363 . S
C1066 H1043 0.950 . S
C1066 C1065 1.397 1_565 S
C1066 C1067 1.334 . S
C1067 H1044 0.950 . S
C1067 C1066 1.334 . S
C1067 C1068 1.287 1_565 S
C1068 C1067 1.287 1_545 S
C1068 C1069 1.524 . S
C1068 H1087 0.913 . S
C1069 H1045 0.950 . S
C1069 C1068 1.524 . S
C1069 C1070 1.415 . S
C1070 H1046 0.950 . S
C1070 C1065 1.363 . S
C1070 C1069 1.415 . S
C1071 H1047 0.951 . S
C1071 C1072 1.366 . S
C1071 C1073 1.388 . S
C1072 C1071 1.366 . S
C1072 C1076 1.385 . S
C1073 H1048 0.951 . S
C1073 C1071 1.388 . S
C1073 C1074 1.366 . S
C1074 C1073 1.366 . S
C1074 C1075 1.414 . S
C1074 C1077 1.499 . S
C1075 H1049 0.950 . S
C1075 C1074 1.414 . S
C1075 C1076 1.374 . S
C1076 H1050 0.950 . S
C1076 C1072 1.385 . S
C1076 C1075 1.374 . S
C1077 C1074 1.499 . S
C1077 C1078 1.373 . S
C1077 C1079 1.389 1_545 S
C1078 H1051 0.950 . S
C1078 C1064 1.377 . S
C1078 C1077 1.373 . S
C1079 C1063 1.377 . S
C1079 C1077 1.389 1_565 S
C1079 C1080 1.524 . S
C1080 C1079 1.524 . S
C1080 C1081 1.397 1_565 S
C1080 C1085 1.363 . S
C1081 H1052 0.950 . S
C1081 C1080 1.397 1_545 S
C1081 C1082 1.334 . S
C1082 H1053 0.950 . S
C1082 C1081 1.334 . S
C1082 C1083 1.287 1_545 S
C1083 C1082 1.287 1_565 S
C1083 C1084 1.524 . S
C1083 H1086 0.999 . S
C1084 H1054 0.950 . S
C1084 C1083 1.524 . S
C1084 C1085 1.415 . S
C1085 H1055 0.950 . S
C1085 C1080 1.363 . S
C1085 C1084 1.415 . S
H1086 C1083 0.999 . S
H1087 C1068 0.913 . S
C307 C4 1.416 . S
C322 C40 1.417 . S
C357 C112 1.416 . S
C372 C76 1.417 . S
C407 C148 1.417 . S
C422 C184 1.416 . S
C457 C220 1.417 . S
C472 C256 1.417 . S
C507 C14 1.506 . S
C522 C86 1.507 . S
C557 C122 1.505 . S
C572 C50 1.507 . S
C607 C158 1.507 . S
C622 C230 1.506 . S
C657 C266 1.506 . S
C672 C194 1.506 . S
C707 C3 1.347 . S
C722 C147 1.347 . S
C757 C39 1.347 . S
C772 C183 1.347 . S
C807 C219 1.346 . S
C822 C75 1.346 . S
C857 C255 1.346 . S
C872 C111 1.346 . S
C907 C38 0.812 . S
C922 C2 0.812 . S
C957 C74 0.812 . S
C972 C110 0.811 . S
C1007 C146 0.812 . S
C1022 C182 0.812 . S
C1057 C218 0.812 . S
C1072 C254 0.812 . S
