# Generated by pormake.
# Topology smm, (6)-cn, num edge types: 1
# Building blocks:
#     Node 0, Type 0, BuildingBlock: INOVEN_clean_sbu_0, # of connection points: 6
#     Node 1, Type 0, BuildingBlock: INOVEN_clean_sbu_0, # of connection points: 6
#     Node 2, Type 0, BuildingBlock: INOVEN_clean_sbu_0, # of connection points: 6
#     Node 3, Type 0, BuildingBlock: INOVEN_clean_sbu_0, # of connection points: 6
#     Node 4, Type 0, BuildingBlock: INOVEN_clean_sbu_0, # of connection points: 6
#     Node 5, Type 0, BuildingBlock: INOVEN_clean_sbu_0, # of connection points: 6
#     Node 6, Type 0, BuildingBlock: INOVEN_clean_sbu_0, # of connection points: 6
#     Node 7, Type 0, BuildingBlock: INOVEN_clean_sbu_0, # of connection points: 6
#     Node 8, Type 0, BuildingBlock: INOVEN_clean_sbu_0, # of connection points: 6
#     Edge 9, Type (0, 0), None
#     Edge 10, Type (0, 0), None
#     Edge 11, Type (0, 0), None
#     Edge 12, Type (0, 0), None
#     Edge 13, Type (0, 0), None
#     Edge 14, Type (0, 0), None
#     Edge 15, Type (0, 0), None
#     Edge 16, Type (0, 0), None
#     Edge 17, Type (0, 0), None
#     Edge 18, Type (0, 0), None
#     Edge 19, Type (0, 0), None
#     Edge 20, Type (0, 0), None
#     Edge 21, Type (0, 0), None
#     Edge 22, Type (0, 0), None
#     Edge 23, Type (0, 0), None
#     Edge 24, Type (0, 0), None
#     Edge 25, Type (0, 0), None
#     Edge 26, Type (0, 0), None
#     Edge 27, Type (0, 0), None
#     Edge 28, Type (0, 0), None
#     Edge 29, Type (0, 0), None
#     Edge 30, Type (0, 0), None
#     Edge 31, Type (0, 0), None
#     Edge 32, Type (0, 0), None
#     Edge 33, Type (0, 0), None
#     Edge 34, Type (0, 0), None
#     Edge 35, Type (0, 0), None
# Relax obj value: 0.027
# Max RMSD: 0.102
# Mean RMSD: 0.102
data_MOF--net-smm--node1-INOVEN_clean_sbu_0--edge1-none
_symmetry_space_group_name_H-M    P1
_symmetry_Int_Tables_number       1
_symmetry_cell_setting            triclinic
loop_
_symmetry_equiv_pos_as_xyz
'x, y, z'
_cell_length_a     42.501455
_cell_length_b     42.501689
_cell_length_c     5.9739524
_cell_angle_alpha  89.995115
_cell_angle_beta   90.009974
_cell_angle_gamma 119.99935
loop_
_atom_site_label
_atom_site_type_symbol
_atom_site_fract_x
_atom_site_fract_y
_atom_site_fract_z
_atom_type_partial_charge
Gd0 Gd 0.07776 0.23803 0.04793 0.0
Gd1 Gd 1.01072 0.15972 0.03874 0.0
C2 C 0.99627 0.22749 0.06338 0.0
C3 C 0.12845 0.30167 0.92392 0.0
C4 C 0.14055 0.34024 0.8825 0.0
C5 C 0.17731 0.36556 0.91525 0.0
C6 C 0.11743 0.35199 0.79505 0.0
C7 C 0.1683 0.41424 0.77375 0.0
C8 C 0.1312 0.3888 0.7418 0.0
C9 C 0.19107 0.40203 0.86125 0.0
C10 C 0.05201 0.20731 0.44845 0.0
C11 C 0.09247 0.17074 0.06954 0.0
C12 C 0.96002 0.09425 0.13001 0.0
C13 C 0.94822 0.0554 0.10348 0.0
C14 C 0.91177 0.0314 0.05024 0.0
C15 C 0.97162 0.04152 0.14158 0.0
C16 C 0.9216 0.9798 0.07894 0.0
C17 C 0.95841 1.00398 0.12921 0.0
C18 C 0.89859 0.99408 0.03795 0.0
C19 C 1.03782 0.1901 0.63869 0.0
O20 O 1.03101 0.24957 0.01324 0.0
O21 O 0.98358 0.1926 0.10725 0.0
O22 O 0.12464 0.29034 0.1317 0.0
O23 O 0.10441 0.27766 0.78634 0.0
O24 O 0.08625 0.23041 0.41492 0.0
O25 O 1.03342 0.20424 0.27883 0.0
O26 O 0.05707 0.14852 0.09632 0.0
O27 O 0.10626 0.20572 0.02473 0.0
O28 O 0.95974 0.11185 0.95066 0.0
O29 O 0.98747 0.11369 0.26389 0.0
O30 O 1.00355 0.16754 0.67045 0.0
O31 O 0.05578 0.19296 0.81086 0.0
H32 H 0.19566 0.35699 0.98023 0.0
H33 H 0.08894 0.33276 0.76657 0.0
H34 H 0.11287 0.39729 0.67598 0.0
H35 H 0.21969 0.42067 0.88985 0.0
H36 H 0.89323 0.04152 0.0212 0.0
H37 H 0.99991 0.05954 0.18325 0.0
H38 H 0.97692 0.99395 0.1611 0.0
H39 H 0.87016 0.97645 0.99792 0.0
Gd40 Gd 0.83955 0.85792 0.04774 0.0
Gd41 Gd 0.91787 0.8692 0.03869 0.0
C42 C 0.85009 0.78698 0.06341 0.0
C43 C 0.77592 0.84499 0.92367 0.0
C44 C 0.73734 0.81851 0.88227 0.0
C45 C 0.71203 0.82995 0.91498 0.0
C46 C 0.7256 0.78364 0.7949 0.0
C47 C 0.66334 0.77225 0.7736 0.0
C48 C 0.68878 0.7606 0.74169 0.0
C49 C 0.67555 0.80723 0.86101 0.0
C50 C 0.87028 0.86291 0.44832 0.0
C51 C 0.90685 0.93993 0.0694 0.0
C52 C 0.98334 0.88396 0.13002 0.0
C53 C 1.02218 0.91101 0.10347 0.0
C54 C 0.04619 0.89856 0.05033 0.0
C55 C 1.03607 0.9483 0.14147 0.0
C56 C 0.09778 0.95999 0.07893 0.0
C57 C 0.0736 0.97262 0.1291 0.0
C58 C 0.0835 0.92269 0.03804 0.0
C59 C 0.88749 0.86593 0.63859 0.0
O60 O 0.82801 0.79964 0.01307 0.0
O61 O 0.88498 0.80918 0.10738 0.0
O62 O 0.78725 0.85251 0.13145 0.0
O63 O 0.79992 0.84495 0.78612 0.0
O64 O 0.84718 0.87404 0.41472 0.0
O65 O 0.87335 0.84738 0.27874 0.0
O66 O 0.92906 0.92674 0.09625 0.0
O67 O 0.87187 0.91874 0.02448 0.0
O68 O 0.96573 0.86608 0.95069 0.0
O69 O 0.9639 0.89198 0.26385 0.0
O70 O 0.91004 0.85421 0.67042 0.0
O71 O 0.88463 0.88103 0.81072 0.0
H72 H 0.72059 0.85687 0.9799 0.0
H73 H 0.74483 0.77438 0.76646 0.0
H74 H 0.6803 0.73377 0.67592 0.0
H75 H 0.65691 0.81721 0.88958 0.0
H76 H 1.03606 0.8699 0.02137 0.0
H77 H 1.01805 0.95857 0.18307 0.0
H78 H 0.08364 1.00117 0.16091 0.0
H79 H 0.10114 0.9119 0.99809 0.0
Gd80 Gd 0.21966 0.99982 0.04784 0.0
Gd81 Gd 0.20839 0.06686 0.03864 0.0
C82 C 0.29061 0.08131 0.06336 0.0
C83 C 0.2326 0.94912 0.92385 0.0
C84 C 0.25908 0.93703 0.88239 0.0
C85 C 0.24762 0.90026 0.91501 0.0
C86 C 0.29394 0.96015 0.79504 0.0
C87 C 0.30532 0.90928 0.7736 0.0
C88 C 0.31698 0.94638 0.74177 0.0
C89 C 0.27034 0.8865 0.86098 0.0
C90 C 0.21468 1.02556 0.44836 0.0
C91 C 0.13765 0.98511 0.0694 0.0
C92 C 0.19363 0.11756 0.12992 0.0
C93 C 0.16657 0.12936 0.10346 0.0
C94 C 0.17902 0.16581 0.05032 0.0
C95 C 0.12929 0.10596 0.14154 0.0
C96 C 0.11759 0.15598 0.07906 0.0
C97 C 0.10497 0.11918 0.12924 0.0
C98 C 0.15489 0.179 0.03811 0.0
C99 C 0.21166 0.03975 0.63859 0.0
O100 O 0.27795 0.04657 0.01318 0.0
O101 O 0.26841 0.094 0.10723 0.0
O102 O 0.2251 0.95295 0.13164 0.0
O103 O 0.23261 0.97315 0.78625 0.0
O104 O 0.20355 0.99133 0.4148 0.0
O105 O 0.2302 0.04416 0.27877 0.0
O106 O 0.15085 1.02051 0.09616 0.0
O107 O 0.15884 0.97131 0.02459 0.0
O108 O 0.21148 0.11783 0.95054 0.0
O109 O 0.18562 0.09011 0.26382 0.0
O110 O 0.22337 0.07402 0.67038 0.0
O111 O 0.19656 1.0218 0.81073 0.0
H112 H 0.22071 0.88191 0.97991 0.0
H113 H 0.3032 0.98864 0.76666 0.0
H114 H 0.3438 0.96472 0.67603 0.0
H115 H 0.26036 0.85788 0.88949 0.0
H116 H 0.20768 0.18435 0.02131 0.0
H117 H 0.11902 0.07767 0.18313 0.0
H118 H 0.07642 0.10066 0.16109 0.0
H119 H 0.16567 0.20743 0.99815 0.0
Gd120 Gd 0.74442 0.57136 0.38114 0.0
Gd121 Gd 0.67738 0.49305 0.37196 0.0
C122 C 0.66293 0.56082 0.39663 0.0
C123 C 0.79511 0.635 0.25715 0.0
C124 C 0.80719 0.67357 0.21583 0.0
C125 C 0.84393 0.69891 0.2495 0.0
C126 C 0.78412 0.68531 0.12753 0.0
C127 C 0.83496 0.74758 0.10716 0.0
C128 C 0.79789 0.72212 0.07433 0.0
C129 C 0.85769 0.73539 0.19553 0.0
C130 C 0.71868 0.54064 0.78167 0.0
C131 C 0.75914 0.50407 0.40275 0.0
C132 C 0.62668 0.42758 0.46325 0.0
C133 C 0.61488 0.38873 0.43676 0.0
C134 C 0.57844 0.36473 0.38354 0.0
C135 C 0.63829 0.37485 0.47488 0.0
C136 C 0.58827 0.31313 0.41231 0.0
C137 C 0.62507 0.33731 0.46256 0.0
C138 C 0.56525 0.32741 0.3713 0.0
C139 C 0.70449 0.52343 0.97191 0.0
O140 O 0.69767 0.5829 0.34646 0.0
O141 O 0.65024 0.52593 0.4405 0.0
O142 O 0.79131 0.62366 0.46491 0.0
O143 O 0.77106 0.611 0.11958 0.0
O144 O 0.75291 0.56374 0.74814 0.0
O145 O 0.70008 0.53757 0.61205 0.0
O146 O 0.72373 0.48185 0.42955 0.0
O147 O 0.77293 0.53905 0.35791 0.0
O148 O 0.62641 0.44518 0.28388 0.0
O149 O 0.65414 0.44702 0.59714 0.0
O150 O 0.67022 0.50087 0.00368 0.0
O151 O 0.72244 0.52629 0.14408 0.0
H152 H 0.86225 0.69036 0.31515 0.0
H153 H 0.75565 0.66607 0.09834 0.0
H154 H 0.77959 0.7306 0.00781 0.0
H155 H 0.88629 0.75404 0.22486 0.0
H156 H 0.5599 0.37485 0.35449 0.0
H157 H 0.66658 0.39287 0.51654 0.0
H158 H 0.64359 0.32728 0.49446 0.0
H159 H 0.53683 0.30977 0.33128 0.0
Gd160 Gd 0.50622 0.19125 0.38116 0.0
Gd161 Gd 0.58453 0.20253 0.37211 0.0
C162 C 0.51675 0.1203 0.39677 0.0
C163 C 0.44259 0.17832 0.25707 0.0
C164 C 0.40401 0.15184 0.21564 0.0
C165 C 0.3787 0.16331 0.24807 0.0
C166 C 0.39226 0.11696 0.12852 0.0
C167 C 0.33001 0.10559 0.10697 0.0
C168 C 0.35545 0.09392 0.0753 0.0
C169 C 0.34223 0.14059 0.1941 0.0
C170 C 0.53694 0.19624 0.78174 0.0
C171 C 0.57351 0.27326 0.4028 0.0
C172 C 0.65 0.21729 0.46344 0.0
C173 C 0.68885 0.24434 0.43689 0.0
C174 C 0.71285 0.23189 0.38375 0.0
C175 C 0.70273 0.28163 0.47488 0.0
C176 C 0.76444 0.29332 0.41231 0.0
C177 C 0.74027 0.30594 0.46249 0.0
C178 C 0.75016 0.25602 0.37144 0.0
C179 C 0.55415 0.19925 0.972 0.0
O180 O 0.49468 0.13296 0.34651 0.0
O181 O 0.55164 0.14251 0.44071 0.0
O182 O 0.45392 0.18584 0.46486 0.0
O183 O 0.46659 0.17829 0.11953 0.0
O184 O 0.51384 0.20737 0.74814 0.0
O185 O 0.54001 0.18071 0.61216 0.0
O186 O 0.59573 0.26007 0.42964 0.0
O187 O 0.53853 0.25207 0.35791 0.0
O188 O 0.63239 0.19941 0.28412 0.0
O189 O 0.63056 0.22531 0.59728 0.0
O190 O 0.57671 0.18754 0.00383 0.0
O191 O 0.55129 0.21435 0.14414 0.0
H192 H 0.38727 0.19024 0.31279 0.0
H193 H 0.41149 0.10769 0.10029 0.0
H194 H 0.34696 0.06708 0.00975 0.0
H195 H 0.32359 0.15057 0.22246 0.0
H196 H 0.70273 0.20323 0.3548 0.0
H197 H 0.68471 0.2919 0.51647 0.0
H198 H 0.7503 0.3345 0.49429 0.0
H199 H 0.7678 0.24523 0.33149 0.0
Gd200 Gd 0.88633 0.33315 0.38117 0.0
Gd201 Gd 0.87505 0.40019 0.37198 0.0
C202 C 0.95727 0.41463 0.39671 0.0
C203 C 0.89925 0.28245 0.25717 0.0
C204 C 0.92573 0.27035 0.21569 0.0
C205 C 0.91425 0.23357 0.24791 0.0
C206 C 0.96062 0.29349 0.12874 0.0
C207 C 0.97199 0.24262 0.10697 0.0
C208 C 0.98366 0.27972 0.0755 0.0
C209 C 0.93698 0.21982 0.19391 0.0
C210 C 0.88134 0.35889 0.78169 0.0
C211 C 0.80432 0.31843 0.40275 0.0
C212 C 0.86029 0.45089 0.46323 0.0
C213 C 0.83324 0.46269 0.43674 0.0
C214 C 0.84568 0.49914 0.38357 0.0
C215 C 0.79595 0.43929 0.47481 0.0
C216 C 0.78425 0.48931 0.41228 0.0
C217 C 0.77163 0.45251 0.46248 0.0
C218 C 0.82155 0.51233 0.37133 0.0
C219 C 0.87832 0.37308 0.97193 0.0
O220 O 0.94461 0.3799 0.3465 0.0
O221 O 0.93507 0.42732 0.44059 0.0
O222 O 0.89177 0.28628 0.46497 0.0
O223 O 0.89927 0.30648 0.11958 0.0
O224 O 0.87021 0.32466 0.74813 0.0
O225 O 0.89687 0.37748 0.6121 0.0
O226 O 0.81751 0.35384 0.42951 0.0
O227 O 0.82551 0.30464 0.35794 0.0
O228 O 0.87815 0.45116 0.28387 0.0
O229 O 0.85228 0.42344 0.59713 0.0
O230 O 0.89004 0.40735 0.00371 0.0
O231 O 0.86322 0.35512 0.14407 0.0
H232 H 0.88732 0.2152 0.31249 0.0
H233 H 0.9699 0.32199 0.10068 0.0
H234 H 1.01051 0.29808 0.0101 0.0
H235 H 0.92698 0.19119 0.22211 0.0
H236 H 0.87434 0.51768 0.35456 0.0
H237 H 0.78568 0.411 0.51642 0.0
H238 H 0.74308 0.43399 0.49434 0.0
H239 H 0.83233 0.54075 0.33135 0.0
Gd240 Gd 0.41108 0.9047 0.71448 0.0
Gd241 Gd 0.34404 0.82638 0.70529 0.0
C242 C 0.3296 0.89415 0.72992 0.0
C243 C 0.46178 0.96833 0.59046 0.0
C244 C 0.47387 1.0069 0.54907 0.0
C245 C 0.51064 0.03222 0.58182 0.0
C246 C 0.45076 1.01865 0.46164 0.0
C247 C 0.50162 0.0809 0.44041 0.0
C248 C 0.46453 0.05547 0.40843 0.0
C249 C 0.5244 0.06869 0.52786 0.0
C250 C 0.38534 0.87397 0.115 0.0
C251 C 0.4258 0.8374 0.73609 0.0
C252 C 0.29334 0.76091 0.79658 0.0
C253 C 0.28155 0.72206 0.77008 0.0
C254 C 0.2451 0.69806 0.71688 0.0
C255 C 0.30495 0.70818 0.8082 0.0
C256 C 0.25493 0.64647 0.74562 0.0
C257 C 0.29174 0.67065 0.79587 0.0
C258 C 0.23192 0.66074 0.70463 0.0
C259 C 0.37115 0.85676 0.30524 0.0
O260 O 0.36433 0.91624 0.67979 0.0
O261 O 0.31691 0.85926 0.77382 0.0
O262 O 0.45797 0.957 0.79823 0.0
O263 O 0.43774 0.94433 0.45289 0.0
O264 O 0.41957 0.89708 0.08147 0.0
O265 O 0.36675 0.8709 0.94538 0.0
O266 O 0.39039 0.81519 0.76288 0.0
O267 O 0.43959 0.87238 0.69126 0.0
O268 O 0.29307 0.77851 0.61721 0.0
O269 O 0.3208 0.78036 0.93047 0.0
O270 O 0.33688 0.8342 0.337 0.0
O271 O 0.38911 0.85962 0.47741 0.0
H272 H 0.52899 1.02365 0.64679 0.0
H273 H 0.42227 0.99942 0.43316 0.0
H274 H 0.4462 0.06395 0.34263 0.0
H275 H 0.55302 0.08733 0.55647 0.0
H276 H 0.22656 0.70818 0.68783 0.0
H277 H 0.33324 0.72621 0.84984 0.0
H278 H 0.31025 0.66061 0.82776 0.0
H279 H 0.20349 0.6431 0.66462 0.0
Gd280 Gd 0.17288 0.52458 0.71448 0.0
Gd281 Gd 0.2512 0.53586 0.70542 0.0
C282 C 0.18343 0.45364 0.73006 0.0
C283 C 0.10925 0.51165 0.59038 0.0
C284 C 0.07068 0.48517 0.54898 0.0
C285 C 0.04536 0.49662 0.58162 0.0
C286 C 0.05893 0.4503 0.46168 0.0
C287 C 0.99668 0.43891 0.44033 0.0
C288 C 1.02211 0.42725 0.40848 0.0
C289 C 1.00889 0.4739 0.52766 0.0
C290 C 0.20361 0.52957 0.11505 0.0
C291 C 0.24018 0.60659 0.73611 0.0
C292 C 0.31667 0.55062 0.79675 0.0
C293 C 0.35552 0.57767 0.7702 0.0
C294 C 0.37952 0.56523 0.71703 0.0
C295 C 0.3694 0.61496 0.8082 0.0
C296 C 0.43111 0.62666 0.7456 0.0
C297 C 0.40694 0.63928 0.7958 0.0
C298 C 0.41683 0.58936 0.70472 0.0
C299 C 0.22082 0.53259 0.30532 0.0
O300 O 0.16134 0.4663 0.67984 0.0
O301 O 0.21832 0.47584 0.77402 0.0
O302 O 0.12058 0.51917 0.79817 0.0
O303 O 0.13325 0.51161 0.45285 0.0
O304 O 0.18051 0.54069 0.08145 0.0
O305 O 0.20668 0.51404 0.94547 0.0
O306 O 0.26239 0.5934 0.76295 0.0
O307 O 0.2052 0.5854 0.69122 0.0
O308 O 0.29906 0.53274 0.61743 0.0
O309 O 0.29723 0.55864 0.93058 0.0
O310 O 0.24338 0.52087 0.33714 0.0
O311 O 0.21796 0.54768 0.47745 0.0
H312 H 0.05393 0.52354 0.64648 0.0
H313 H 0.07815 0.44103 0.4333 0.0
H314 H 1.01362 0.40042 0.34278 0.0
H315 H 0.99025 0.48388 0.55617 0.0
H316 H 0.3694 0.53656 0.68808 0.0
H317 H 0.35138 0.62523 0.8498 0.0
H318 H 0.41697 0.66783 0.8276 0.0
H319 H 0.43447 0.57857 0.66475 0.0
Gd320 Gd 0.553 0.66649 0.71445 0.0
Gd321 Gd 0.54172 0.73353 0.70526 0.0
C322 C 0.62394 0.74797 0.72995 0.0
C323 C 0.56593 0.61579 0.59047 0.0
C324 C 0.59241 0.60369 0.54901 0.0
C325 C 0.58095 0.56692 0.58165 0.0
C326 C 0.62727 0.62681 0.46165 0.0
C327 C 0.63866 0.57595 0.44027 0.0
C328 C 0.65031 0.61304 0.40841 0.0
C329 C 0.60367 0.55317 0.52765 0.0
C330 C 0.54801 0.69223 0.11498 0.0
C331 C 0.47099 0.65177 0.73604 0.0
C332 C 0.52696 0.78423 0.79653 0.0
C333 C 0.4999 0.79603 0.77005 0.0
C334 C 0.51235 0.83248 0.7169 0.0
C335 C 0.46262 0.77262 0.80813 0.0
C336 C 0.45092 0.82264 0.74562 0.0
C337 C 0.4383 0.78584 0.79581 0.0
C338 C 0.48821 0.84566 0.70466 0.0
C339 C 0.54499 0.70642 0.30521 0.0
O340 O 0.61128 0.71324 0.67979 0.0
O341 O 0.60174 0.76066 0.77386 0.0
O342 O 0.55843 0.61961 0.79826 0.0
O343 O 0.56595 0.63981 0.45287 0.0
O344 O 0.53689 0.658 0.08142 0.0
O345 O 0.56354 0.71082 0.94539 0.0
O346 O 0.48418 0.68718 0.7628 0.0
O347 O 0.49218 0.63798 0.69123 0.0
O348 O 0.54482 0.7845 0.61716 0.0
O349 O 0.51895 0.75678 0.93043 0.0
O350 O 0.55671 0.74069 0.337 0.0
O351 O 0.52989 0.68846 0.47735 0.0
H352 H 0.55404 0.54857 0.64655 0.0
H353 H 0.63653 0.65531 0.43326 0.0
H354 H 0.67714 0.63138 0.34267 0.0
H355 H 0.59369 0.52455 0.55617 0.0
H356 H 0.54101 0.85102 0.68788 0.0
H357 H 0.45235 0.74433 0.84973 0.0
H358 H 0.40975 0.76733 0.82766 0.0
H359 H 0.499 0.87409 0.66469 0.0
loop_
_geom_bond_atom_site_label_1
_geom_bond_atom_site_label_2
_geom_bond_distance
_geom_bond_site_symmetry_2
_ccdc_geom_bond_type
Gd0 C3 2.818 1_554 S
Gd0 O20 2.398 . S
Gd0 O22 2.448 . S
Gd0 O23 2.506 1_554 S
Gd0 O24 2.435 . S
Gd0 O25 2.717 1_455 S
Gd0 O27 2.395 . S
Gd0 O31 2.327 1_554 S
Gd1 C12 2.818 1_556 S
Gd1 O21 2.395 . S
Gd1 O25 2.327 1_556 S
Gd1 O26 2.377 1_655 S
Gd1 O28 2.448 . S
Gd1 O29 2.506 1_556 S
Gd1 O30 2.435 . S
Gd1 O31 2.717 1_655 S
C2 O20 1.223 1_655 S
C2 O21 1.240 1_554 S
C3 Gd0 2.818 1_556 S
C3 C4 1.510 . S
C3 O22 1.249 1_556 S
C3 O23 1.252 . S
C4 C3 1.510 . S
C4 C5 1.404 1_556 S
C4 C6 1.352 . S
C5 C4 1.404 1_554 S
C5 C9 1.389 . S
C5 H32 0.930 . S
C6 C4 1.352 . S
C6 C8 1.374 . S
C6 H33 0.931 . S
C7 C8 1.359 . S
C7 C9 1.364 1_556 S
C8 C6 1.374 . S
C8 C7 1.359 . S
C8 H34 0.931 . S
C9 C5 1.389 . S
C9 C7 1.364 1_554 S
C9 H35 0.931 . S
C10 O24 1.256 . S
C10 O25 1.257 1_455 S
C11 O26 1.240 . S
C11 O27 1.240 1_556 S
C12 Gd1 2.818 1_554 S
C12 C13 1.510 . S
C12 O28 1.249 1_554 S
C12 O29 1.252 . S
C13 C12 1.510 . S
C13 C14 1.404 1_544 S
C13 C15 1.352 . S
C14 C13 1.404 1_566 S
C14 C18 1.389 . S
C14 H36 0.930 1_565 S
C15 C13 1.352 . S
C15 C17 1.374 1_545 S
C15 H37 0.931 . S
C16 C17 1.359 . S
C16 C18 1.364 1_554 S
C17 C15 1.374 1_565 S
C17 C16 1.359 . S
C17 H38 0.931 . S
C18 C14 1.389 . S
C18 C16 1.364 1_556 S
C18 H39 0.931 . S
C19 O30 1.256 . S
C19 O31 1.257 1_655 S
O20 Gd0 2.398 . S
O20 C2 1.223 1_455 S
O21 Gd1 2.395 . S
O21 C2 1.240 1_556 S
O22 Gd0 2.448 . S
O22 C3 1.249 1_554 S
O23 Gd0 2.506 1_556 S
O23 C3 1.252 . S
O24 Gd0 2.435 . S
O24 C10 1.256 . S
O25 Gd0 2.717 1_655 S
O25 Gd1 2.327 1_554 S
O25 C10 1.257 1_655 S
O26 Gd1 2.377 1_455 S
O26 C11 1.240 . S
O27 Gd0 2.395 . S
O27 C11 1.240 1_554 S
O28 Gd1 2.448 . S
O28 C12 1.249 1_556 S
O29 Gd1 2.506 1_554 S
O29 C12 1.252 . S
O30 Gd1 2.435 . S
O30 C19 1.256 . S
O31 Gd0 2.327 1_556 S
O31 Gd1 2.717 1_455 S
O31 C19 1.257 1_455 S
H32 C5 0.930 . S
H33 C6 0.931 . S
H34 C8 0.931 . S
H35 C9 0.931 . S
H36 C14 0.930 1_545 S
H37 C15 0.931 . S
H38 C17 0.931 . S
H39 C18 0.931 . S
Gd40 C43 2.818 1_554 S
Gd40 O60 2.377 . S
Gd40 O62 2.448 . S
Gd40 O63 2.506 1_554 S
Gd40 O64 2.435 . S
Gd40 O65 2.717 . S
Gd40 O67 2.395 . S
Gd40 O71 2.327 1_554 S
Gd41 C52 2.818 1_556 S
Gd41 O61 2.395 . S
Gd41 O65 2.327 1_556 S
Gd41 O66 2.377 . S
Gd41 O68 2.448 . S
Gd41 O69 2.506 1_556 S
Gd41 O70 2.435 . S
Gd41 O71 2.717 . S
C42 O60 1.240 . S
C42 O61 1.240 1_554 S
C43 Gd40 2.818 1_556 S
C43 C44 1.510 . S
C43 O62 1.249 1_556 S
C43 O63 1.252 . S
C44 C43 1.510 . S
C44 C45 1.404 1_556 S
C44 C46 1.352 . S
C45 C44 1.404 1_554 S
C45 C49 1.389 . S
C45 H72 0.930 . S
C46 C44 1.352 . S
C46 C48 1.374 . S
C46 H73 0.931 . S
C47 C48 1.359 . S
C47 C49 1.364 1_556 S
C48 C46 1.374 . S
C48 C47 1.359 . S
C48 H74 0.931 . S
C49 C45 1.389 . S
C49 C47 1.364 1_554 S
C49 H75 0.931 . S
C50 O64 1.256 . S
C50 O65 1.257 . S
C51 O66 1.240 . S
C51 O67 1.240 1_556 S
C52 Gd41 2.818 1_554 S
C52 C53 1.510 . S
C52 O68 1.249 1_554 S
C52 O69 1.252 . S
C53 C52 1.510 . S
C53 C54 1.404 1_654 S
C53 C55 1.353 . S
C54 C53 1.404 1_456 S
C54 C58 1.389 . S
C54 H76 0.930 . S
C55 C53 1.353 . S
C55 C57 1.364 1_655 S
C55 H77 0.940 . S
C56 C57 1.359 . S
C56 C58 1.364 1_554 S
C57 C55 1.364 1_455 S
C57 C56 1.359 . S
C57 H78 0.931 . S
C58 C54 1.389 . S
C58 C56 1.364 1_556 S
C58 H79 0.931 . S
C59 O70 1.256 . S
C59 O71 1.257 . S
O60 Gd40 2.377 . S
O60 C42 1.240 . S
O61 Gd41 2.395 . S
O61 C42 1.240 1_556 S
O62 Gd40 2.448 . S
O62 C43 1.249 1_554 S
O63 Gd40 2.506 1_556 S
O63 C43 1.252 . S
O64 Gd40 2.435 . S
O64 C50 1.256 . S
O65 Gd40 2.717 . S
O65 Gd41 2.327 1_554 S
O65 C50 1.257 . S
O66 Gd41 2.377 . S
O66 C51 1.240 . S
O67 Gd40 2.395 . S
O67 C51 1.240 1_554 S
O68 Gd41 2.448 . S
O68 C52 1.249 1_556 S
O69 Gd41 2.506 1_554 S
O69 C52 1.252 . S
O70 Gd41 2.435 . S
O70 C59 1.256 . S
O71 Gd40 2.327 1_556 S
O71 Gd41 2.717 . S
O71 C59 1.257 . S
H72 C45 0.930 . S
H73 C46 0.931 . S
H74 C48 0.931 . S
H75 C49 0.931 . S
H76 C54 0.930 . S
H77 C55 0.940 . S
H78 C57 0.931 . S
H79 C58 0.931 . S
Gd80 C83 2.818 1_554 S
Gd80 O100 2.377 1_565 S
Gd80 O102 2.448 . S
Gd80 O103 2.506 1_554 S
Gd80 O104 2.435 . S
Gd80 O105 2.717 1_565 S
Gd80 O107 2.395 . S
Gd80 O111 2.354 1_554 S
Gd81 C92 2.818 1_556 S
Gd81 O101 2.395 . S
Gd81 O105 2.327 1_556 S
Gd81 O106 2.392 . S
Gd81 O108 2.448 . S
Gd81 O109 2.506 1_556 S
Gd81 O110 2.435 . S
Gd81 O111 2.684 1_545 S
C82 O100 1.240 . S
C82 O101 1.240 1_554 S
C83 Gd80 2.818 1_556 S
C83 C84 1.510 . S
C83 O102 1.249 1_556 S
C83 O103 1.252 . S
C84 C83 1.510 . S
C84 C85 1.404 1_556 S
C84 C86 1.352 . S
C85 C84 1.404 1_554 S
C85 C89 1.389 . S
C85 H112 0.930 . S
C86 C84 1.352 . S
C86 C88 1.374 . S
C86 H113 0.931 . S
C87 C88 1.359 . S
C87 C89 1.364 1_556 S
C88 C86 1.374 . S
C88 C87 1.359 . S
C88 H114 0.931 . S
C89 C85 1.389 . S
C89 C87 1.364 1_554 S
C89 H115 0.931 . S
C90 O104 1.256 . S
C90 O105 1.257 1_565 S
C91 O106 1.211 1_565 S
C91 O107 1.240 1_556 S
C92 Gd81 2.818 1_554 S
C92 C93 1.510 . S
C92 O108 1.249 1_554 S
C92 O109 1.252 . S
C93 C92 1.510 . S
C93 C94 1.404 1_554 S
C93 C95 1.352 . S
C94 C93 1.404 1_556 S
C94 C98 1.389 . S
C94 H116 0.930 . S
C95 C93 1.352 . S
C95 C97 1.374 . S
C95 H117 0.931 . S
C96 C97 1.359 . S
C96 C98 1.364 1_554 S
C97 C95 1.374 . S
C97 C96 1.359 . S
C97 H118 0.931 . S
C98 C94 1.389 . S
C98 C96 1.364 1_556 S
C98 H119 0.931 . S
C99 O110 1.256 . S
C99 O111 1.238 1_545 S
O100 Gd80 2.377 1_545 S
O100 C82 1.240 . S
O101 Gd81 2.395 . S
O101 C82 1.240 1_556 S
O102 Gd80 2.448 . S
O102 C83 1.249 1_554 S
O103 Gd80 2.506 1_556 S
O103 C83 1.252 . S
O104 Gd80 2.435 . S
O104 C90 1.256 . S
O105 Gd80 2.717 1_545 S
O105 Gd81 2.327 1_554 S
O105 C90 1.257 1_545 S
O106 Gd81 2.392 . S
O106 C91 1.211 1_545 S
O107 Gd80 2.395 . S
O107 C91 1.240 1_554 S
O108 Gd81 2.448 . S
O108 C92 1.249 1_556 S
O109 Gd81 2.506 1_554 S
O109 C92 1.252 . S
O110 Gd81 2.435 . S
O110 C99 1.256 . S
O111 Gd80 2.354 1_556 S
O111 Gd81 2.684 1_565 S
O111 C99 1.238 1_565 S
H112 C85 0.930 . S
H113 C86 0.931 . S
H114 C88 0.931 . S
H115 C89 0.931 . S
H116 C94 0.930 . S
H117 C95 0.931 . S
H118 C97 0.931 . S
H119 C98 0.931 . S
Gd120 C123 2.818 . S
Gd120 O140 2.377 . S
Gd120 O142 2.448 . S
Gd120 O143 2.506 . S
Gd120 O144 2.435 . S
Gd120 O145 2.717 . S
Gd120 O147 2.395 . S
Gd120 O151 2.327 . S
Gd121 C132 2.818 . S
Gd121 O141 2.395 . S
Gd121 O145 2.327 . S
Gd121 O146 2.377 . S
Gd121 O148 2.448 . S
Gd121 O149 2.506 . S
Gd121 O150 2.435 1_554 S
Gd121 O151 2.717 . S
C122 O140 1.240 . S
C122 O141 1.240 . S
C123 Gd120 2.818 . S
C123 C124 1.510 . S
C123 O142 1.249 . S
C123 O143 1.252 . S
C124 C123 1.510 . S
C124 C125 1.404 . S
C124 C126 1.352 . S
C125 C124 1.404 . S
C125 C129 1.389 . S
C125 H152 0.930 . S
C126 C124 1.352 . S
C126 C128 1.374 . S
C126 H153 0.931 1_554 S
C127 C128 1.359 . S
C127 C129 1.364 . S
C128 C126 1.374 . S
C128 C127 1.359 . S
C128 H154 0.931 1_554 S
C129 C125 1.389 . S
C129 C127 1.364 . S
C129 H155 0.931 . S
C130 O144 1.256 . S
C130 O145 1.257 . S
C131 O146 1.240 . S
C131 O147 1.240 . S
C132 Gd121 2.818 . S
C132 C133 1.510 . S
C132 O148 1.249 . S
C132 O149 1.252 . S
C133 C132 1.510 . S
C133 C134 1.404 . S
C133 C135 1.352 . S
C134 C133 1.404 . S
C134 C138 1.389 . S
C134 H156 0.930 . S
C135 C133 1.352 . S
C135 C137 1.374 . S
C135 H157 0.931 . S
C136 C137 1.359 . S
C136 C138 1.364 . S
C137 C135 1.374 . S
C137 C136 1.359 . S
C137 H158 0.931 . S
C138 C134 1.389 . S
C138 C136 1.364 . S
C138 H159 0.931 . S
C139 O150 1.256 . S
C139 O151 1.257 1_556 S
O140 Gd120 2.377 . S
O140 C122 1.240 . S
O141 Gd121 2.395 . S
O141 C122 1.240 . S
O142 Gd120 2.448 . S
O142 C123 1.249 . S
O143 Gd120 2.506 . S
O143 C123 1.252 . S
O144 Gd120 2.435 . S
O144 C130 1.256 . S
O145 Gd120 2.717 . S
O145 Gd121 2.327 . S
O145 C130 1.257 . S
O146 Gd121 2.377 . S
O146 C131 1.240 . S
O147 Gd120 2.395 . S
O147 C131 1.240 . S
O148 Gd121 2.448 . S
O148 C132 1.249 . S
O149 Gd121 2.506 . S
O149 C132 1.252 . S
O150 Gd121 2.435 1_556 S
O150 C139 1.256 . S
O151 Gd120 2.327 . S
O151 Gd121 2.717 . S
O151 C139 1.257 1_554 S
H152 C125 0.930 . S
H153 C126 0.931 1_556 S
H154 C128 0.931 1_556 S
H155 C129 0.931 . S
H156 C134 0.930 . S
H157 C135 0.931 . S
H158 C137 0.931 . S
H159 C138 0.931 . S
Gd160 C163 2.818 . S
Gd160 O180 2.377 . S
Gd160 O182 2.448 . S
Gd160 O183 2.506 . S
Gd160 O184 2.435 . S
Gd160 O185 2.717 . S
Gd160 O187 2.395 . S
Gd160 O191 2.327 . S
Gd161 C172 2.818 . S
Gd161 O181 2.395 . S
Gd161 O185 2.327 . S
Gd161 O186 2.377 . S
Gd161 O188 2.448 . S
Gd161 O189 2.506 . S
Gd161 O190 2.435 1_554 S
Gd161 O191 2.717 . S
C162 O180 1.240 . S
C162 O181 1.240 . S
C163 Gd160 2.818 . S
C163 C164 1.510 . S
C163 O182 1.249 . S
C163 O183 1.252 . S
C164 C163 1.510 . S
C164 C165 1.404 . S
C164 C166 1.352 . S
C165 C164 1.404 . S
C165 C169 1.389 . S
C165 H192 0.930 . S
C166 C164 1.352 . S
C166 C168 1.374 . S
C166 H193 0.931 1_554 S
C167 C168 1.359 . S
C167 C169 1.364 . S
C168 C166 1.374 . S
C168 C167 1.359 . S
C168 H194 0.931 1_554 S
C169 C165 1.389 . S
C169 C167 1.364 . S
C169 H195 0.931 . S
C170 O184 1.256 . S
C170 O185 1.257 . S
C171 O186 1.240 . S
C171 O187 1.240 . S
C172 Gd161 2.818 . S
C172 C173 1.510 . S
C172 O188 1.249 . S
C172 O189 1.252 . S
C173 C172 1.510 . S
C173 C174 1.404 . S
C173 C175 1.352 . S
C174 C173 1.404 . S
C174 C178 1.389 . S
C174 H196 0.930 . S
C175 C173 1.352 . S
C175 C177 1.374 . S
C175 H197 0.931 . S
C176 C177 1.359 . S
C176 C178 1.364 . S
C177 C175 1.374 . S
C177 C176 1.359 . S
C177 H198 0.931 . S
C178 C174 1.389 . S
C178 C176 1.364 . S
C178 H199 0.931 . S
C179 O190 1.256 . S
C179 O191 1.257 1_556 S
O180 Gd160 2.377 . S
O180 C162 1.240 . S
O181 Gd161 2.395 . S
O181 C162 1.240 . S
O182 Gd160 2.448 . S
O182 C163 1.249 . S
O183 Gd160 2.506 . S
O183 C163 1.252 . S
O184 Gd160 2.435 . S
O184 C170 1.256 . S
O185 Gd160 2.717 . S
O185 Gd161 2.327 . S
O185 C170 1.257 . S
O186 Gd161 2.377 . S
O186 C171 1.240 . S
O187 Gd160 2.395 . S
O187 C171 1.240 . S
O188 Gd161 2.448 . S
O188 C172 1.249 . S
O189 Gd161 2.506 . S
O189 C172 1.252 . S
O190 Gd161 2.435 1_556 S
O190 C179 1.256 . S
O191 Gd160 2.327 . S
O191 Gd161 2.717 . S
O191 C179 1.257 1_554 S
H192 C165 0.930 . S
H193 C166 0.931 1_556 S
H194 C168 0.931 1_556 S
H195 C169 0.931 . S
H196 C174 0.930 . S
H197 C175 0.931 . S
H198 C177 0.931 . S
H199 C178 0.931 . S
Gd200 C203 2.818 . S
Gd200 O220 2.377 . S
Gd200 O222 2.448 . S
Gd200 O223 2.506 . S
Gd200 O224 2.435 . S
Gd200 O225 2.717 . S
Gd200 O227 2.395 . S
Gd200 O231 2.327 . S
Gd201 C212 2.818 . S
Gd201 O221 2.395 . S
Gd201 O225 2.327 . S
Gd201 O226 2.377 . S
Gd201 O228 2.448 . S
Gd201 O229 2.506 . S
Gd201 O230 2.435 1_554 S
Gd201 O231 2.717 . S
C202 O220 1.240 . S
C202 O221 1.240 . S
C203 Gd200 2.818 . S
C203 C204 1.510 . S
C203 O222 1.249 . S
C203 O223 1.252 . S
C204 C203 1.510 . S
C204 C205 1.404 . S
C204 C206 1.352 . S
C205 C204 1.404 . S
C205 C209 1.389 . S
C205 H232 0.930 . S
C206 C204 1.352 . S
C206 C208 1.374 . S
C206 H233 0.931 1_554 S
C207 C208 1.359 . S
C207 C209 1.364 . S
C208 C206 1.374 . S
C208 C207 1.359 . S
C208 H234 0.931 1_554 S
C209 C205 1.389 . S
C209 C207 1.364 . S
C209 H235 0.931 . S
C210 O224 1.256 . S
C210 O225 1.257 . S
C211 O226 1.240 . S
C211 O227 1.240 . S
C212 Gd201 2.818 . S
C212 C213 1.510 . S
C212 O228 1.249 . S
C212 O229 1.252 . S
C213 C212 1.510 . S
C213 C214 1.404 . S
C213 C215 1.352 . S
C214 C213 1.404 . S
C214 C218 1.389 . S
C214 H236 0.930 . S
C215 C213 1.352 . S
C215 C217 1.374 . S
C215 H237 0.931 . S
C216 C217 1.359 . S
C216 C218 1.364 . S
C217 C215 1.374 . S
C217 C216 1.359 . S
C217 H238 0.931 . S
C218 C214 1.389 . S
C218 C216 1.364 . S
C218 H239 0.931 . S
C219 O230 1.256 . S
C219 O231 1.257 1_556 S
O220 Gd200 2.377 . S
O220 C202 1.240 . S
O221 Gd201 2.395 . S
O221 C202 1.240 . S
O222 Gd200 2.448 . S
O222 C203 1.249 . S
O223 Gd200 2.506 . S
O223 C203 1.252 . S
O224 Gd200 2.435 . S
O224 C210 1.256 . S
O225 Gd200 2.717 . S
O225 Gd201 2.327 . S
O225 C210 1.257 . S
O226 Gd201 2.377 . S
O226 C211 1.240 . S
O227 Gd200 2.395 . S
O227 C211 1.240 . S
O228 Gd201 2.448 . S
O228 C212 1.249 . S
O229 Gd201 2.506 . S
O229 C212 1.252 . S
O230 Gd201 2.435 1_556 S
O230 C219 1.256 . S
O231 Gd200 2.327 . S
O231 Gd201 2.717 . S
O231 C219 1.257 1_554 S
H232 C205 0.930 . S
H233 C206 0.931 1_556 S
H234 C208 0.931 1_556 S
H235 C209 0.931 . S
H236 C214 0.930 . S
H237 C215 0.931 . S
H238 C217 0.931 . S
H239 C218 0.931 . S
Gd240 C243 2.818 . S
Gd240 O260 2.377 . S
Gd240 O262 2.448 . S
Gd240 O263 2.506 . S
Gd240 O264 2.435 1_556 S
Gd240 O265 2.717 . S
Gd240 O267 2.395 . S
Gd240 O271 2.327 . S
Gd241 C252 2.818 . S
Gd241 O261 2.395 . S
Gd241 O265 2.327 . S
Gd241 O266 2.377 . S
Gd241 O268 2.448 . S
Gd241 O269 2.506 . S
Gd241 O270 2.435 . S
Gd241 O271 2.717 . S
C242 O260 1.240 . S
C242 O261 1.240 . S
C243 Gd240 2.818 . S
C243 C244 1.510 . S
C243 O262 1.249 . S
C243 O263 1.252 . S
C244 C243 1.510 . S
C244 C245 1.404 1_565 S
C244 C246 1.352 1_565 S
C245 C244 1.404 1_545 S
C245 C249 1.389 . S
C245 H272 0.930 . S
C246 C244 1.352 1_545 S
C246 C248 1.374 . S
C246 H273 0.931 1_545 S
C247 C248 1.359 . S
C247 C249 1.364 . S
C248 C246 1.374 . S
C248 C247 1.359 . S
C248 H274 0.931 . S
C249 C245 1.389 . S
C249 C247 1.364 . S
C249 H275 0.931 . S
C250 O264 1.256 . S
C250 O265 1.257 1_554 S
C251 O266 1.240 . S
C251 O267 1.240 . S
C252 Gd241 2.818 . S
C252 C253 1.510 . S
C252 O268 1.249 . S
C252 O269 1.252 . S
C253 C252 1.510 . S
C253 C254 1.404 . S
C253 C255 1.352 . S
C254 C253 1.404 . S
C254 C258 1.389 . S
C254 H276 0.930 . S
C255 C253 1.352 . S
C255 C257 1.374 . S
C255 H277 0.931 1_556 S
C256 C257 1.359 . S
C256 C258 1.364 . S
C257 C255 1.374 . S
C257 C256 1.359 . S
C257 H278 0.931 1_556 S
C258 C254 1.389 . S
C258 C256 1.364 . S
C258 H279 0.931 . S
C259 O270 1.256 . S
C259 O271 1.257 . S
O260 Gd240 2.377 . S
O260 C242 1.240 . S
O261 Gd241 2.395 . S
O261 C242 1.240 . S
O262 Gd240 2.448 . S
O262 C243 1.249 . S
O263 Gd240 2.506 . S
O263 C243 1.252 . S
O264 Gd240 2.435 1_554 S
O264 C250 1.256 . S
O265 Gd240 2.717 . S
O265 Gd241 2.327 . S
O265 C250 1.257 1_556 S
O266 Gd241 2.377 . S
O266 C251 1.240 . S
O267 Gd240 2.395 . S
O267 C251 1.240 . S
O268 Gd241 2.448 . S
O268 C252 1.249 . S
O269 Gd241 2.506 . S
O269 C252 1.252 . S
O270 Gd241 2.435 . S
O270 C259 1.256 . S
O271 Gd240 2.327 . S
O271 Gd241 2.717 . S
O271 C259 1.257 . S
H272 C245 0.930 . S
H273 C246 0.931 1_565 S
H274 C248 0.931 . S
H275 C249 0.931 . S
H276 C254 0.930 . S
H277 C255 0.931 1_554 S
H278 C257 0.931 1_554 S
H279 C258 0.931 . S
Gd280 C283 2.818 . S
Gd280 O300 2.377 . S
Gd280 O302 2.448 . S
Gd280 O303 2.506 . S
Gd280 O304 2.435 1_556 S
Gd280 O305 2.717 . S
Gd280 O307 2.395 . S
Gd280 O311 2.327 . S
Gd281 C292 2.818 . S
Gd281 O301 2.395 . S
Gd281 O305 2.327 . S
Gd281 O306 2.377 . S
Gd281 O308 2.448 . S
Gd281 O309 2.506 . S
Gd281 O310 2.435 . S
Gd281 O311 2.717 . S
C282 O300 1.240 . S
C282 O301 1.240 . S
C283 Gd280 2.818 . S
C283 C284 1.510 . S
C283 O302 1.249 . S
C283 O303 1.252 . S
C284 C283 1.510 . S
C284 C285 1.404 1_455 S
C284 C286 1.352 . S
C285 C284 1.404 1_655 S
C285 C289 1.389 . S
C285 H312 0.930 1_655 S
C286 C284 1.352 . S
C286 C288 1.374 1_455 S
C286 H313 0.931 . S
C287 C288 1.359 . S
C287 C289 1.364 . S
C288 C286 1.374 1_655 S
C288 C287 1.359 . S
C288 H314 0.931 . S
C289 C285 1.389 . S
C289 C287 1.364 . S
C289 H315 0.931 . S
C290 O304 1.256 . S
C290 O305 1.257 1_554 S
C291 O306 1.240 . S
C291 O307 1.240 . S
C292 Gd281 2.818 . S
C292 C293 1.510 . S
C292 O308 1.249 . S
C292 O309 1.252 . S
C293 C292 1.510 . S
C293 C294 1.404 . S
C293 C295 1.352 . S
C294 C293 1.404 . S
C294 C298 1.389 . S
C294 H316 0.930 . S
C295 C293 1.352 . S
C295 C297 1.374 . S
C295 H317 0.931 1_556 S
C296 C297 1.359 . S
C296 C298 1.364 . S
C297 C295 1.374 . S
C297 C296 1.359 . S
C297 H318 0.931 1_556 S
C298 C294 1.389 . S
C298 C296 1.364 . S
C298 H319 0.931 . S
C299 O310 1.256 . S
C299 O311 1.257 . S
O300 Gd280 2.377 . S
O300 C282 1.240 . S
O301 Gd281 2.395 . S
O301 C282 1.240 . S
O302 Gd280 2.448 . S
O302 C283 1.249 . S
O303 Gd280 2.506 . S
O303 C283 1.252 . S
O304 Gd280 2.435 1_554 S
O304 C290 1.256 . S
O305 Gd280 2.717 . S
O305 Gd281 2.327 . S
O305 C290 1.257 1_556 S
O306 Gd281 2.377 . S
O306 C291 1.240 . S
O307 Gd280 2.395 . S
O307 C291 1.240 . S
O308 Gd281 2.448 . S
O308 C292 1.249 . S
O309 Gd281 2.506 . S
O309 C292 1.252 . S
O310 Gd281 2.435 . S
O310 C299 1.256 . S
O311 Gd280 2.327 . S
O311 Gd281 2.717 . S
O311 C299 1.257 . S
H312 C285 0.930 1_455 S
H313 C286 0.931 . S
H314 C288 0.931 . S
H315 C289 0.931 . S
H316 C294 0.930 . S
H317 C295 0.931 1_554 S
H318 C297 0.931 1_554 S
H319 C298 0.931 . S
Gd320 C323 2.818 . S
Gd320 O340 2.377 . S
Gd320 O342 2.448 . S
Gd320 O343 2.506 . S
Gd320 O344 2.435 1_556 S
Gd320 O345 2.717 . S
Gd320 O347 2.395 . S
Gd320 O351 2.327 . S
Gd321 C332 2.818 . S
Gd321 O341 2.395 . S
Gd321 O345 2.327 . S
Gd321 O346 2.377 . S
Gd321 O348 2.448 . S
Gd321 O349 2.506 . S
Gd321 O350 2.435 . S
Gd321 O351 2.717 . S
C322 O340 1.240 . S
C322 O341 1.240 . S
C323 Gd320 2.818 . S
C323 C324 1.510 . S
C323 O342 1.249 . S
C323 O343 1.252 . S
C324 C323 1.510 . S
C324 C325 1.404 . S
C324 C326 1.352 . S
C325 C324 1.404 . S
C325 C329 1.389 . S
C325 H352 0.930 . S
C326 C324 1.352 . S
C326 C328 1.374 . S
C326 H353 0.931 . S
C327 C328 1.359 . S
C327 C329 1.364 . S
C328 C326 1.374 . S
C328 C327 1.359 . S
C328 H354 0.931 . S
C329 C325 1.389 . S
C329 C327 1.364 . S
C329 H355 0.931 . S
C330 O344 1.256 . S
C330 O345 1.257 1_554 S
C331 O346 1.240 . S
C331 O347 1.240 . S
C332 Gd321 2.818 . S
C332 C333 1.510 . S
C332 O348 1.249 . S
C332 O349 1.252 . S
C333 C332 1.510 . S
C333 C334 1.404 . S
C333 C335 1.352 . S
C334 C333 1.404 . S
C334 C338 1.389 . S
C334 H356 0.930 . S
C335 C333 1.352 . S
C335 C337 1.374 . S
C335 H357 0.931 1_556 S
C336 C337 1.359 . S
C336 C338 1.364 . S
C337 C335 1.374 . S
C337 C336 1.359 . S
C337 H358 0.931 1_556 S
C338 C334 1.389 . S
C338 C336 1.364 . S
C338 H359 0.931 . S
C339 O350 1.256 . S
C339 O351 1.257 . S
O340 Gd320 2.377 . S
O340 C322 1.240 . S
O341 Gd321 2.395 . S
O341 C322 1.240 . S
O342 Gd320 2.448 . S
O342 C323 1.249 . S
O343 Gd320 2.506 . S
O343 C323 1.252 . S
O344 Gd320 2.435 1_554 S
O344 C330 1.256 . S
O345 Gd320 2.717 . S
O345 Gd321 2.327 . S
O345 C330 1.257 1_556 S
O346 Gd321 2.377 . S
O346 C331 1.240 . S
O347 Gd320 2.395 . S
O347 C331 1.240 . S
O348 Gd321 2.448 . S
O348 C332 1.249 . S
O349 Gd321 2.506 . S
O349 C332 1.252 . S
O350 Gd321 2.435 . S
O350 C339 1.256 . S
O351 Gd320 2.327 . S
O351 Gd321 2.717 . S
O351 C339 1.257 . S
H352 C325 0.930 . S
H353 C326 0.931 . S
H354 C328 0.931 . S
H355 C329 0.931 . S
H356 C334 0.930 . S
H357 C335 0.931 1_554 S
H358 C337 0.931 1_554 S
H359 C338 0.931 . S
C7 C282 2.039 . S
C47 C322 2.038 . S
C87 C242 2.039 . S
C167 C82 2.036 . S
C207 C2 2.036 . S
C42 C127 2.036 . S
C287 C202 2.038 . S
C327 C122 2.039 . S
C162 C247 2.038 . S
C96 C11 1.916 1_554 S
C51 C16 1.918 1_556 S
C56 C91 1.916 1_554 S
C131 C216 1.918 . S
C136 C171 1.916 . S
C176 C211 1.915 . S
C336 C251 1.917 . S
C291 C256 1.916 . S
C331 C296 1.917 . S
C19 C10 1.153 1_655 S
C59 C50 1.152 . S
C99 C90 1.153 1_545 S
C130 C139 1.152 . S
C170 C179 1.153 . S
C210 C219 1.152 . S
C259 C250 1.153 . S
C290 C299 1.153 . S
C339 C330 1.153 . S
