# Generated by pormake.
# Topology ukn, (4)-cn, num edge types: 1
# Building blocks:
#     Node 0, Type 0, BuildingBlock: GALJAG_clean_sbu_0, # of connection points: 4
#     Node 1, Type 0, BuildingBlock: GALJAG_clean_sbu_0, # of connection points: 4
#     Node 2, Type 0, BuildingBlock: GALJAG_clean_sbu_0, # of connection points: 4
#     Node 3, Type 0, BuildingBlock: GALJAG_clean_sbu_0, # of connection points: 4
#     Node 4, Type 0, BuildingBlock: GALJAG_clean_sbu_0, # of connection points: 4
#     Node 5, Type 0, BuildingBlock: GALJAG_clean_sbu_0, # of connection points: 4
#     Node 6, Type 0, BuildingBlock: GALJAG_clean_sbu_0, # of connection points: 4
#     Node 7, Type 0, BuildingBlock: GALJAG_clean_sbu_0, # of connection points: 4
#     Node 8, Type 0, BuildingBlock: GALJAG_clean_sbu_0, # of connection points: 4
#     Node 9, Type 0, BuildingBlock: GALJAG_clean_sbu_0, # of connection points: 4
#     Node 10, Type 0, BuildingBlock: GALJAG_clean_sbu_0, # of connection points: 4
#     Node 11, Type 0, BuildingBlock: GALJAG_clean_sbu_0, # of connection points: 4
#     Node 12, Type 0, BuildingBlock: GALJAG_clean_sbu_0, # of connection points: 4
#     Node 13, Type 0, BuildingBlock: GALJAG_clean_sbu_0, # of connection points: 4
#     Node 14, Type 0, BuildingBlock: GALJAG_clean_sbu_0, # of connection points: 4
#     Node 15, Type 0, BuildingBlock: GALJAG_clean_sbu_0, # of connection points: 4
#     Node 16, Type 0, BuildingBlock: GALJAG_clean_sbu_0, # of connection points: 4
#     Node 17, Type 0, BuildingBlock: GALJAG_clean_sbu_0, # of connection points: 4
#     Node 18, Type 0, BuildingBlock: GALJAG_clean_sbu_0, # of connection points: 4
#     Node 19, Type 0, BuildingBlock: GALJAG_clean_sbu_0, # of connection points: 4
#     Node 20, Type 0, BuildingBlock: GALJAG_clean_sbu_0, # of connection points: 4
#     Node 21, Type 0, BuildingBlock: GALJAG_clean_sbu_0, # of connection points: 4
#     Node 22, Type 0, BuildingBlock: GALJAG_clean_sbu_0, # of connection points: 4
#     Node 23, Type 0, BuildingBlock: GALJAG_clean_sbu_0, # of connection points: 4
#     Node 24, Type 0, BuildingBlock: GALJAG_clean_sbu_0, # of connection points: 4
#     Node 25, Type 0, BuildingBlock: GALJAG_clean_sbu_0, # of connection points: 4
#     Node 26, Type 0, BuildingBlock: GALJAG_clean_sbu_0, # of connection points: 4
#     Node 27, Type 0, BuildingBlock: GALJAG_clean_sbu_0, # of connection points: 4
#     Node 28, Type 0, BuildingBlock: GALJAG_clean_sbu_0, # of connection points: 4
#     Node 29, Type 0, BuildingBlock: GALJAG_clean_sbu_0, # of connection points: 4
#     Node 30, Type 0, BuildingBlock: GALJAG_clean_sbu_0, # of connection points: 4
#     Node 31, Type 0, BuildingBlock: GALJAG_clean_sbu_0, # of connection points: 4
#     Node 32, Type 0, BuildingBlock: GALJAG_clean_sbu_0, # of connection points: 4
#     Node 33, Type 0, BuildingBlock: GALJAG_clean_sbu_0, # of connection points: 4
#     Node 34, Type 0, BuildingBlock: GALJAG_clean_sbu_0, # of connection points: 4
#     Node 35, Type 0, BuildingBlock: GALJAG_clean_sbu_0, # of connection points: 4
#     Edge 36, Type (0, 0), BuildingBlock: TEMPAE_clean_linker_10, # of connection points: 2
#     Edge 37, Type (0, 0), BuildingBlock: TEMPAE_clean_linker_10, # of connection points: 2
#     Edge 38, Type (0, 0), BuildingBlock: TEMPAE_clean_linker_10, # of connection points: 2
#     Edge 39, Type (0, 0), BuildingBlock: TEMPAE_clean_linker_10, # of connection points: 2
#     Edge 40, Type (0, 0), BuildingBlock: TEMPAE_clean_linker_10, # of connection points: 2
#     Edge 41, Type (0, 0), BuildingBlock: TEMPAE_clean_linker_10, # of connection points: 2
#     Edge 42, Type (0, 0), BuildingBlock: TEMPAE_clean_linker_10, # of connection points: 2
#     Edge 43, Type (0, 0), BuildingBlock: TEMPAE_clean_linker_10, # of connection points: 2
#     Edge 44, Type (0, 0), BuildingBlock: TEMPAE_clean_linker_10, # of connection points: 2
#     Edge 45, Type (0, 0), BuildingBlock: TEMPAE_clean_linker_10, # of connection points: 2
#     Edge 46, Type (0, 0), BuildingBlock: TEMPAE_clean_linker_10, # of connection points: 2
#     Edge 47, Type (0, 0), BuildingBlock: TEMPAE_clean_linker_10, # of connection points: 2
#     Edge 48, Type (0, 0), BuildingBlock: TEMPAE_clean_linker_10, # of connection points: 2
#     Edge 49, Type (0, 0), BuildingBlock: TEMPAE_clean_linker_10, # of connection points: 2
#     Edge 50, Type (0, 0), BuildingBlock: TEMPAE_clean_linker_10, # of connection points: 2
#     Edge 51, Type (0, 0), BuildingBlock: TEMPAE_clean_linker_10, # of connection points: 2
#     Edge 52, Type (0, 0), BuildingBlock: TEMPAE_clean_linker_10, # of connection points: 2
#     Edge 53, Type (0, 0), BuildingBlock: TEMPAE_clean_linker_10, # of connection points: 2
#     Edge 54, Type (0, 0), BuildingBlock: TEMPAE_clean_linker_10, # of connection points: 2
#     Edge 55, Type (0, 0), BuildingBlock: TEMPAE_clean_linker_10, # of connection points: 2
#     Edge 56, Type (0, 0), BuildingBlock: TEMPAE_clean_linker_10, # of connection points: 2
#     Edge 57, Type (0, 0), BuildingBlock: TEMPAE_clean_linker_10, # of connection points: 2
#     Edge 58, Type (0, 0), BuildingBlock: TEMPAE_clean_linker_10, # of connection points: 2
#     Edge 59, Type (0, 0), BuildingBlock: TEMPAE_clean_linker_10, # of connection points: 2
#     Edge 60, Type (0, 0), BuildingBlock: TEMPAE_clean_linker_10, # of connection points: 2
#     Edge 61, Type (0, 0), BuildingBlock: TEMPAE_clean_linker_10, # of connection points: 2
#     Edge 62, Type (0, 0), BuildingBlock: TEMPAE_clean_linker_10, # of connection points: 2
#     Edge 63, Type (0, 0), BuildingBlock: TEMPAE_clean_linker_10, # of connection points: 2
#     Edge 64, Type (0, 0), BuildingBlock: TEMPAE_clean_linker_10, # of connection points: 2
#     Edge 65, Type (0, 0), BuildingBlock: TEMPAE_clean_linker_10, # of connection points: 2
#     Edge 66, Type (0, 0), BuildingBlock: TEMPAE_clean_linker_10, # of connection points: 2
#     Edge 67, Type (0, 0), BuildingBlock: TEMPAE_clean_linker_10, # of connection points: 2
#     Edge 68, Type (0, 0), BuildingBlock: TEMPAE_clean_linker_10, # of connection points: 2
#     Edge 69, Type (0, 0), BuildingBlock: TEMPAE_clean_linker_10, # of connection points: 2
#     Edge 70, Type (0, 0), BuildingBlock: TEMPAE_clean_linker_10, # of connection points: 2
#     Edge 71, Type (0, 0), BuildingBlock: TEMPAE_clean_linker_10, # of connection points: 2
#     Edge 72, Type (0, 0), BuildingBlock: TEMPAE_clean_linker_10, # of connection points: 2
#     Edge 73, Type (0, 0), BuildingBlock: TEMPAE_clean_linker_10, # of connection points: 2
#     Edge 74, Type (0, 0), BuildingBlock: TEMPAE_clean_linker_10, # of connection points: 2
#     Edge 75, Type (0, 0), BuildingBlock: TEMPAE_clean_linker_10, # of connection points: 2
#     Edge 76, Type (0, 0), BuildingBlock: TEMPAE_clean_linker_10, # of connection points: 2
#     Edge 77, Type (0, 0), BuildingBlock: TEMPAE_clean_linker_10, # of connection points: 2
#     Edge 78, Type (0, 0), BuildingBlock: TEMPAE_clean_linker_10, # of connection points: 2
#     Edge 79, Type (0, 0), BuildingBlock: TEMPAE_clean_linker_10, # of connection points: 2
#     Edge 80, Type (0, 0), BuildingBlock: TEMPAE_clean_linker_10, # of connection points: 2
#     Edge 81, Type (0, 0), BuildingBlock: TEMPAE_clean_linker_10, # of connection points: 2
#     Edge 82, Type (0, 0), BuildingBlock: TEMPAE_clean_linker_10, # of connection points: 2
#     Edge 83, Type (0, 0), BuildingBlock: TEMPAE_clean_linker_10, # of connection points: 2
#     Edge 84, Type (0, 0), BuildingBlock: TEMPAE_clean_linker_10, # of connection points: 2
#     Edge 85, Type (0, 0), BuildingBlock: TEMPAE_clean_linker_10, # of connection points: 2
#     Edge 86, Type (0, 0), BuildingBlock: TEMPAE_clean_linker_10, # of connection points: 2
#     Edge 87, Type (0, 0), BuildingBlock: TEMPAE_clean_linker_10, # of connection points: 2
#     Edge 88, Type (0, 0), BuildingBlock: TEMPAE_clean_linker_10, # of connection points: 2
#     Edge 89, Type (0, 0), BuildingBlock: TEMPAE_clean_linker_10, # of connection points: 2
#     Edge 90, Type (0, 0), BuildingBlock: TEMPAE_clean_linker_10, # of connection points: 2
#     Edge 91, Type (0, 0), BuildingBlock: TEMPAE_clean_linker_10, # of connection points: 2
#     Edge 92, Type (0, 0), BuildingBlock: TEMPAE_clean_linker_10, # of connection points: 2
#     Edge 93, Type (0, 0), BuildingBlock: TEMPAE_clean_linker_10, # of connection points: 2
#     Edge 94, Type (0, 0), BuildingBlock: TEMPAE_clean_linker_10, # of connection points: 2
#     Edge 95, Type (0, 0), BuildingBlock: TEMPAE_clean_linker_10, # of connection points: 2
#     Edge 96, Type (0, 0), BuildingBlock: TEMPAE_clean_linker_10, # of connection points: 2
#     Edge 97, Type (0, 0), BuildingBlock: TEMPAE_clean_linker_10, # of connection points: 2
#     Edge 98, Type (0, 0), BuildingBlock: TEMPAE_clean_linker_10, # of connection points: 2
#     Edge 99, Type (0, 0), BuildingBlock: TEMPAE_clean_linker_10, # of connection points: 2
#     Edge 100, Type (0, 0), BuildingBlock: TEMPAE_clean_linker_10, # of connection points: 2
#     Edge 101, Type (0, 0), BuildingBlock: TEMPAE_clean_linker_10, # of connection points: 2
#     Edge 102, Type (0, 0), BuildingBlock: TEMPAE_clean_linker_10, # of connection points: 2
#     Edge 103, Type (0, 0), BuildingBlock: TEMPAE_clean_linker_10, # of connection points: 2
#     Edge 104, Type (0, 0), BuildingBlock: TEMPAE_clean_linker_10, # of connection points: 2
#     Edge 105, Type (0, 0), BuildingBlock: TEMPAE_clean_linker_10, # of connection points: 2
#     Edge 106, Type (0, 0), BuildingBlock: TEMPAE_clean_linker_10, # of connection points: 2
#     Edge 107, Type (0, 0), BuildingBlock: TEMPAE_clean_linker_10, # of connection points: 2
# Relax obj value: 0.060
# Max RMSD: 0.091
# Mean RMSD: 0.091
data_MOF--net-ukn--node1-GALJAG_clean_sbu_0--edge1-TEMPAE_clean_linker_10
_symmetry_space_group_name_H-M    P1
_symmetry_Int_Tables_number       1
_symmetry_cell_setting            triclinic
loop_
_symmetry_equiv_pos_as_xyz
'x, y, z'
_cell_length_a     104.82313
_cell_length_b     104.85703
_cell_length_c     28.089643
_cell_angle_alpha  89.989478
_cell_angle_beta   89.99089
_cell_angle_gamma 119.99217
loop_
_atom_site_label
_atom_site_type_symbol
_atom_site_fract_x
_atom_site_fract_y
_atom_site_fract_z
_atom_type_partial_charge
In0 In 0.07475 0.29679 0.05325 0.0
O1 O 0.08332 0.28297 0.08996 0.0
O2 O 0.09697 0.29894 0.03889 0.0
C3 C 0.04687 0.27484 0.04372 0.0
C4 C 0.07826 0.31267 0.13314 0.0
C5 C 0.07756 0.30849 0.96521 0.0
O6 O 0.0577 0.27278 0.03951 0.0
O7 O 0.05012 0.28785 0.05394 0.0
O8 O 0.0781 0.31557 0.00235 0.0
O9 O 0.07568 0.29585 0.97296 0.0
C10 C 0.09543 0.2891 0.06787 0.0
O11 O 0.08785 0.3171 0.10062 0.0
O12 O 0.0668 0.30058 0.12457 0.0
In13 In 0.6986 0.78289 0.095 0.0
O14 O 0.71686 0.80691 0.08703 0.0
O15 O 0.69857 0.80216 0.13133 0.0
C16 C 0.71546 0.77187 0.06468 0.0
C17 C 0.68588 0.76956 0.17807 0.0
C18 C 0.68272 0.77945 0.01537 0.0
O19 O 0.72024 0.78238 0.09413 0.0
O20 O 0.70225 0.76679 0.05225 0.0
O21 O 0.67867 0.76945 0.04647 0.0
O22 O 0.69431 0.79125 0.02564 0.0
C23 C 0.71055 0.81185 0.11337 0.0
O24 O 0.67918 0.77255 0.14661 0.0
O25 O 0.69884 0.77285 0.16698 0.0
In26 In 0.22288 0.91628 0.05533 0.0
O27 O 0.23815 0.91207 0.10386 0.0
O28 O 0.22165 0.91535 0.13581 0.0
C29 C 0.22998 0.91266 0.96622 0.0
C30 C 0.1946 0.89463 0.05686 0.0
C31 C 0.23411 0.94547 0.04862 0.0
O32 O 0.23371 0.90797 0.00218 0.0
O33 O 0.22263 0.91889 0.97552 0.0
O34 O 0.2204 0.93668 0.05149 0.0
O35 O 0.24202 0.93954 0.05112 0.0
C36 C 0.23206 0.91279 0.14186 0.0
O37 O 0.19845 0.90761 0.06965 0.0
O38 O 0.20495 0.89268 0.043 0.0
In39 In 0.30051 0.07968 0.92528 0.0
O40 O 0.3207 0.09015 0.87668 0.0
O41 O 0.30258 0.06961 0.85555 0.0
C42 C 0.3148 0.09142 0.00802 0.0
C43 C 0.28805 0.096 0.90224 0.0
C44 C 0.28346 0.05139 0.95109 0.0
O45 O 0.31994 0.08661 0.97652 0.0
O46 O 0.30289 0.09087 0.99672 0.0
O47 O 0.27951 0.05716 0.91908 0.0
O48 O 0.296 0.05972 0.96863 0.0
C49 C 0.31523 0.08013 0.84556 0.0
O50 O 0.28152 0.08462 0.92785 0.0
O51 O 0.30059 0.09887 0.88787 0.0
In52 In 0.91703 0.21271 0.89717 0.0
O53 O 0.9106 0.22562 0.84699 0.0
O54 O 0.92502 0.21839 0.82066 0.0
C55 C 0.90853 0.21823 0.98218 0.0
C56 C 0.89579 0.18517 0.87633 0.0
C57 C 0.94522 0.22111 0.91674 0.0
O58 O 0.91358 0.22773 0.94936 0.0
O59 O 0.90754 0.20613 0.97153 0.0
O60 O 0.93532 0.20772 0.91554 0.0
O61 O 0.94094 0.23012 0.90709 0.0
C62 C 0.91797 0.22502 0.81228 0.0
O63 O 0.90804 0.18787 0.89343 0.0
O64 O 0.89449 0.19632 0.86882 0.0
In65 In 0.77387 0.69925 0.91318 0.0
O66 O 0.79739 0.71635 0.88991 0.0
O67 O 0.79352 0.6962 0.92088 0.0
C68 C 0.76365 0.71727 0.93698 0.0
C69 C 0.76271 0.68554 0.8291 0.0
C70 C 0.7673 0.68581 0.9984 0.0
O71 O 0.77676 0.72222 0.92307 0.0
O72 O 0.75574 0.70344 0.93675 0.0
O73 O 0.75916 0.68003 0.96236 0.0
O74 O 0.77866 0.69813 0.99096 0.0
C75 C 0.80272 0.7085 0.90358 0.0
O76 O 0.76553 0.67948 0.86302 0.0
O77 O 0.76518 0.69836 0.83791 0.0
In78 In 0.91867 0.70515 0.91122 0.0
O79 O 0.9172 0.68681 0.86265 0.0
O80 O 0.92168 0.70711 0.83112 0.0
C81 C 0.90895 0.68761 0.98955 0.0
C82 C 0.89879 0.71333 0.89059 0.0
C83 C 0.94579 0.72639 0.93852 0.0
O84 O 0.91944 0.68876 0.96433 0.0
O85 O 0.90298 0.69458 0.9737 0.0
O86 O 0.93417 0.72506 0.95642 0.0
O87 O 0.94372 0.71741 0.90556 0.0
C88 C 0.91946 0.69424 0.82491 0.0
O89 O 0.91138 0.72236 0.9069 0.0
O90 O 0.89636 0.70035 0.885 0.0
In91 In 0.30194 0.21945 0.94784 0.0
O92 O 0.28432 0.19615 0.92456 0.0
O93 O 0.30456 0.19945 0.95287 0.0
C94 C 0.28339 0.22881 0.97407 0.0
C95 C 0.31572 0.23123 0.86406 0.0
C96 C 0.31608 0.22621 0.03204 0.0
O97 O 0.27878 0.21645 0.95421 0.0
O98 O 0.29716 0.23644 0.97872 0.0
O99 O 0.32126 0.23452 0.99606 0.0
O100 O 0.30404 0.21448 0.02497 0.0
C101 C 0.29209 0.19052 0.936 0.0
O102 O 0.32112 0.22677 0.89557 0.0
O103 O 0.30361 0.23018 0.87527 0.0
In104 In 0.7665 0.08073 0.92632 0.0
O105 O 0.75279 0.0869 0.87742 0.0
O106 O 0.76419 0.07706 0.84622 0.0
C107 C 0.76188 0.08939 0.01164 0.0
C108 C 0.79523 0.10017 0.91443 0.0
C109 C 0.75471 0.05212 0.94919 0.0
O110 O 0.75364 0.08742 0.97618 0.0
O111 O 0.7726 0.08739 0.00355 0.0
O112 O 0.7677 0.0596 0.93373 0.0
O113 O 0.74762 0.05886 0.95123 0.0
C114 C 0.75608 0.08258 0.83987 0.0
O115 O 0.79015 0.08645 0.91147 0.0
O116 O 0.78585 0.10403 0.92361 0.0
In117 In 0.69004 0.91782 0.06899 0.0
O118 O 0.67002 0.91192 0.11721 0.0
O119 O 0.69048 0.91772 0.14974 0.0
C120 C 0.67903 0.91171 0.97992 0.0
C121 C 0.70059 0.89919 0.07293 0.0
C122 C 0.70485 0.94716 0.05894 0.0
O123 O 0.6708 0.90678 0.01624 0.0
O124 O 0.69261 0.91936 0.98885 0.0
O125 O 0.71133 0.94003 0.0683 0.0
O126 O 0.69099 0.93956 0.05678 0.0
C127 C 0.67709 0.91375 0.15544 0.0
O128 O 0.70874 0.91285 0.07977 0.0
O129 O 0.6873 0.89508 0.06387 0.0
In130 In 0.07363 0.77493 0.08765 0.0
O131 O 0.08478 0.79993 0.08518 0.0
O132 O 0.09826 0.79026 0.09584 0.0
C133 C 0.04531 0.76823 0.08073 0.0
C134 C 0.07493 0.76487 0.17494 0.0
C135 C 0.07812 0.76692 1.00034 0.0
O136 O 0.05582 0.78134 0.082 0.0
O137 O 0.04907 0.75859 0.08481 0.0
O138 O 0.07847 0.76038 0.0377 0.0
O139 O 0.07557 0.77728 0.00741 0.0
C140 C 0.09758 0.80188 0.09111 0.0
O141 O 0.07404 0.75782 0.1374 0.0
O142 O 0.07491 0.77678 0.16837 0.0
In143 In 0.21739 0.29621 0.10241 0.0
O144 O 0.23075 0.31568 0.15259 0.0
O145 O 0.22102 0.29398 0.18093 0.0
C146 C 0.22188 0.30756 0.01375 0.0
C147 C 0.18918 0.28913 0.11442 0.0
C148 C 0.22956 0.2795 0.08548 0.0
O149 O 0.22876 0.31543 0.04934 0.0
O150 O 0.21264 0.29435 0.02349 0.0
O151 O 0.21652 0.27401 0.10089 0.0
O152 O 0.23649 0.29333 0.08089 0.0
C153 C 0.22846 0.30764 0.18885 0.0
O154 O 0.1927 0.27951 0.10501 0.0
O155 O 0.19985 0.30211 0.11795 0.0
In156 In 0.74018 0.62964 0.41449 0.0
O157 O 0.75001 0.64978 0.4635 0.0
O158 O 0.73296 0.62958 0.49116 0.0
C159 C 0.74578 0.64222 0.32802 0.0
C160 C 0.76164 0.62285 0.42203 0.0
C161 C 0.71196 0.61071 0.39326 0.0
O162 O 0.74381 0.6483 0.36405 0.0
O163 O 0.74501 0.63001 0.33607 0.0
O164 O 0.72064 0.60625 0.406 0.0
O165 O 0.7174 0.62449 0.39344 0.0
C166 C 0.74203 0.64297 0.49872 0.0
O167 O 0.74868 0.61399 0.43592 0.0
O168 O 0.7636 0.63488 0.40579 0.0
In169 In 0.36735 0.11289 0.42893 0.0
O170 O 0.38561 0.13656 0.44328 0.0
O171 O 0.36351 0.13053 0.46037 0.0
C172 C 0.38636 0.10416 0.40139 0.0
C173 C 0.35484 0.0996 0.51201 0.0
C174 C 0.35294 0.10914 0.34517 0.0
O175 O 0.38957 0.11746 0.40014 0.0
O176 O 0.37376 0.09536 0.41789 0.0
O177 O 0.34925 0.09876 0.37451 0.0
O178 O 0.36338 0.12131 0.35897 0.0
C179 C 0.37687 0.14049 0.45955 0.0
O180 O 0.34751 0.10069 0.47809 0.0
O181 O 0.36837 0.10479 0.50338 0.0
In182 In 0.88834 0.25122 0.40111 0.0
O183 O 0.8645 0.24633 0.39621 0.0
O184 O 0.86918 0.23296 0.44148 0.0
C185 C 0.9003 0.27988 0.37898 0.0
C186 C 0.90174 0.24921 0.48045 0.0
C187 C 0.89068 0.23971 0.31763 0.0
O188 O 0.88911 0.2734 0.4055 0.0
O189 O 0.90559 0.27204 0.36533 0.0
O190 O 0.90062 0.24433 0.349 0.0
O191 O 0.87941 0.24035 0.32931 0.0
C192 C 0.8596 0.23561 0.42474 0.0
O193 O 0.89695 0.23951 0.44826 0.0
O194 O 0.90025 0.26022 0.47183 0.0
In195 In 0.96866 0.41347 0.24597 0.0
O196 O 0.98757 0.4238 0.19255 0.0
O197 O 0.96806 0.40436 0.17158 0.0
C198 C 0.98528 0.42438 0.32522 0.0
C199 C 0.95648 0.43065 0.23588 0.0
C200 C 0.95183 0.3851 0.27121 0.0
O201 O 0.98873 0.41852 0.29208 0.0
O202 O 0.97393 0.42527 0.31724 0.0
O203 O 0.94677 0.39162 0.24632 0.0
O204 O 0.96527 0.39276 0.28169 0.0
C205 C 0.98081 0.41444 0.16025 0.0
O206 O 0.95055 0.41906 0.26072 0.0
O207 O 0.96818 0.43321 0.2151 0.0
In208 In 0.58145 0.54676 0.24077 0.0
O209 O 0.57489 0.52252 0.23117 0.0
O210 O 0.55948 0.52923 0.21234 0.0
C211 C 0.60893 0.55615 0.27171 0.0
C212 C 0.58363 0.56171 0.15988 0.0
C213 C 0.57044 0.5494 0.32467 0.0
O214 O 0.60254 0.5453 0.24373 0.0
O215 O 0.60168 0.56238 0.28227 0.0
O216 O 0.57506 0.55934 0.29314 0.0
O217 O 0.57094 0.53804 0.31306 0.0
C218 C 0.5622 0.51884 0.21556 0.0
O219 O 0.57422 0.55937 0.19175 0.0
O220 O 0.59228 0.557 0.16958 0.0
In221 In 0.43939 0.03012 0.24375 0.0
O222 O 0.4641 0.04245 0.22917 0.0
O223 O 0.45414 0.02029 0.25397 0.0
C224 C 0.43402 0.05257 0.25301 0.0
C225 C 0.42977 0.01823 0.15681 0.0
C226 C 0.42996 0.01794 0.33049 0.0
O227 O 0.44645 0.05397 0.26163 0.0
O228 O 0.42452 0.04007 0.23777 0.0
O229 O 0.42308 0.01149 0.29293 0.0
O230 O 0.44132 0.03028 0.3238 0.0
C231 C 0.46577 0.03176 0.24126 0.0
O232 O 0.42267 0.01205 0.19431 0.0
O233 O 0.44144 0.03034 0.16341 0.0
In234 In 0.58704 0.03131 0.25211 0.0
O235 O 0.57385 0.04284 0.2666 0.0
O236 O 0.56315 0.02229 0.2304 0.0
C237 C 0.61114 0.0578 0.26657 0.0
C238 C 0.58903 0.02166 0.16479 0.0
C239 C 0.58574 0.01576 0.3312 0.0
O240 O 0.59883 0.05419 0.28519 0.0
O241 O 0.61107 0.04827 0.23893 0.0
O242 O 0.57443 0.01343 0.30842 0.0
O243 O 0.59765 0.02521 0.31249 0.0
C244 C 0.56225 0.03297 0.24711 0.0
O245 O 0.58928 0.01515 0.20239 0.0
O246 O 0.58817 0.03309 0.17158 0.0
In247 In 0.97036 0.55424 0.30756 0.0
O248 O 0.99023 0.57073 0.26253 0.0
O249 O 0.97151 0.55386 0.227 0.0
C250 C 0.98049 0.55823 0.39764 0.0
C251 C 0.96188 0.52561 0.29879 0.0
C252 C 0.95358 0.56677 0.31653 0.0
O253 O 0.98909 0.5635 0.3623 0.0
O254 O 0.967 0.5508 0.38716 0.0
O255 O 0.94814 0.55338 0.30537 0.0
O256 O 0.96738 0.57379 0.32134 0.0
C257 C 0.98427 0.56482 0.22339 0.0
O258 O 0.95298 0.53033 0.29335 0.0
O259 O 0.97491 0.53532 0.30913 0.0
In260 In 0.4402 0.41054 0.25998 0.0
O261 O 0.43697 0.42507 0.20593 0.0
O262 O 0.42684 0.40225 0.19109 0.0
C263 C 0.42822 0.41733 0.33466 0.0
C264 C 0.4696 0.42624 0.24755 0.0
C265 C 0.43652 0.38413 0.28543 0.0
O266 O 0.4218 0.40488 0.31486 0.0
O267 O 0.44005 0.42652 0.31478 0.0
O268 O 0.42851 0.38552 0.25477 0.0
O269 O 0.4466 0.39608 0.3023 0.0
C270 C 0.42942 0.41475 0.17727 0.0
O271 O 0.46318 0.42688 0.2846 0.0
O272 O 0.46118 0.41734 0.21637 0.0
In273 In 0.37176 0.2564 0.44937 0.0
O274 O 0.3872 0.24796 0.47317 0.0
O275 O 0.36635 0.23285 0.44326 0.0
C276 C 0.39102 0.28491 0.43271 0.0
C277 C 0.35829 0.25402 0.5335 0.0
C278 C 0.35957 0.2511 0.36197 0.0
O279 O 0.39483 0.27522 0.43214 0.0
O280 O 0.3777 0.28022 0.44317 0.0
O281 O 0.35327 0.25289 0.39771 0.0
O282 O 0.37179 0.25201 0.37071 0.0
C283 C 0.37834 0.2349 0.46035 0.0
O284 O 0.35124 0.24726 0.49666 0.0
O285 O 0.37198 0.26209 0.52758 0.0
In286 In 0.73606 0.12037 0.4278 0.0
O287 O 0.74767 0.1451 0.44234 0.0
O288 O 0.76059 0.13543 0.42214 0.0
C289 C 0.70784 0.11368 0.41661 0.0
C290 C 0.73768 0.11016 0.51443 0.0
C291 C 0.74085 0.11235 0.34131 0.0
O292 O 0.71847 0.12658 0.41081 0.0
O293 O 0.71149 0.10446 0.42984 0.0
O294 O 0.74018 0.10526 0.37857 0.0
O295 O 0.73899 0.12319 0.348 0.0
C296 C 0.76031 0.14696 0.43313 0.0
O297 O 0.73618 0.10294 0.47679 0.0
O298 O 0.7382 0.12233 0.50825 0.0
In299 In 0.8867 0.63637 0.41336 0.0
O300 O 0.90262 0.65579 0.46072 0.0
O301 O 0.88817 0.63523 0.49355 0.0
C302 C 0.88962 0.64815 0.32575 0.0
C303 C 0.85828 0.6279 0.42795 0.0
C304 C 0.89907 0.61973 0.39696 0.0
O305 O 0.89671 0.65592 0.36124 0.0
O306 O 0.88092 0.63478 0.33512 0.0
O307 O 0.88651 0.61447 0.41586 0.0
O308 O 0.90546 0.63332 0.38812 0.0
C309 C 0.89803 0.64849 0.49894 0.0
O310 O 0.86234 0.6189 0.41537 0.0
O311 O 0.86852 0.64108 0.43244 0.0
In312 In 0.40681 0.96054 0.74424 0.0
O313 O 0.40806 0.97856 0.79366 0.0
O314 O 0.40661 0.95941 0.82496 0.0
C315 C 0.40974 0.9731 0.65809 0.0
C316 C 0.43216 0.96012 0.74995 0.0
C317 C 0.37955 0.93737 0.73095 0.0
O318 O 0.4072 0.97831 0.6952 0.0
O319 O 0.41086 0.96182 0.66488 0.0
O320 O 0.39099 0.93641 0.72568 0.0
O321 O 0.38188 0.94978 0.74481 0.0
C322 C 0.40768 0.97181 0.83141 0.0
O323 O 0.41985 0.94892 0.75938 0.0
O324 O 0.43163 0.97146 0.73819 0.0
In325 In 0.0371 0.4465 0.74774 0.0
O326 O 0.05277 0.46931 0.77909 0.0
O327 O 0.03278 0.46549 0.74701 0.0
C328 C 0.05659 0.43764 0.72952 0.0
C329 C 0.02231 0.43368 0.8287 0.0
C330 C 0.02587 0.4414 0.65886 0.0
O331 O 0.06027 0.4511 0.73062 0.0
O332 O 0.04324 0.42878 0.73905 0.0
O333 O 0.01913 0.4327 0.69293 0.0
O334 O 0.03799 0.45248 0.67006 0.0
C335 C 0.04456 0.47444 0.76776 0.0
O336 O 0.01603 0.43529 0.79267 0.0
O337 O 0.03584 0.43818 0.82334 0.0
In338 In 0.55305 0.58304 0.74484 0.0
O339 O 0.56337 0.57323 0.7935 0.0
O340 O 0.564 0.59289 0.81603 0.0
C341 C 0.55462 0.57075 0.66205 0.0
C342 C 0.52449 0.56651 0.7694 0.0
C343 C 0.5649 0.61145 0.71956 0.0
O344 O 0.56481 0.57548 0.69269 0.0
O345 O 0.54361 0.57181 0.67399 0.0
O346 O 0.55361 0.60513 0.74574 0.0
O347 O 0.57025 0.60353 0.70722 0.0
C348 C 0.56698 0.5829 0.82549 0.0
O349 O 0.52904 0.57772 0.74311 0.0
O350 O 0.53435 0.56391 0.78375 0.0
In351 In 0.63235 0.74602 0.59371 0.0
O352 O 0.65267 0.75649 0.54553 0.0
O353 O 0.63366 0.73723 0.52071 0.0
C354 C 0.64497 0.75743 0.67878 0.0
C355 C 0.61988 0.76227 0.57103 0.0
C356 C 0.61674 0.71737 0.61679 0.0
O357 O 0.63258 0.75554 0.66656 0.0
O358 O 0.65134 0.75395 0.6474 0.0
O359 O 0.61126 0.72362 0.59261 0.0
O360 O 0.63008 0.72549 0.62806 0.0
C361 C 0.64667 0.74729 0.51221 0.0
O362 O 0.63309 0.76617 0.56167 0.0
O363 O 0.61272 0.74992 0.59142 0.0
In364 In 0.25545 0.87997 0.55896 0.0
O365 O 0.25586 0.89723 0.50683 0.0
O366 O 0.25095 0.87647 0.47943 0.0
C367 C 0.25074 0.89403 0.63152 0.0
C368 C 0.23412 0.85157 0.56683 0.0
C369 C 0.28211 0.88309 0.57799 0.0
O370 O 0.24062 0.88557 0.60338 0.0
O371 O 0.26335 0.89612 0.62114 0.0
O372 O 0.27039 0.87307 0.59634 0.0
O373 O 0.28029 0.89109 0.54844 0.0
C374 C 0.25267 0.889 0.47082 0.0
O375 O 0.24431 0.85577 0.53643 0.0
O376 O 0.23494 0.86159 0.59362 0.0
In377 In 0.11087 0.36614 0.55118 0.0
O378 O 0.09896 0.34657 0.50055 0.0
O379 O 0.10562 0.36794 0.47355 0.0
C380 C 0.10137 0.3503 0.63287 0.0
C381 C 0.13911 0.37408 0.53377 0.0
C382 C 0.10539 0.38762 0.57708 0.0
O383 O 0.09253 0.34998 0.60174 0.0
O384 O 0.11474 0.35798 0.62168 0.0
O385 O 0.11694 0.38758 0.58932 0.0
O386 O 0.09685 0.37709 0.55044 0.0
C387 C 0.09966 0.35433 0.46515 0.0
O388 O 0.135 0.38348 0.53805 0.0
O389 O 0.12896 0.36086 0.53759 0.0
In390 In 0.2487 0.3645 0.60127 0.0
O391 O 0.24235 0.37839 0.55436 0.0
O392 O 0.2328 0.37209 0.62306 0.0
C393 C 0.27532 0.3874 0.62445 0.0
C394 C 0.24474 0.34803 0.52234 0.0
C395 C 0.24089 0.34593 0.67671 0.0
O396 O 0.26398 0.38354 0.64936 0.0
O397 O 0.27315 0.37999 0.58694 0.0
O398 O 0.23212 0.34901 0.65605 0.0
O399 O 0.25339 0.3514 0.65733 0.0
C400 C 0.23354 0.37858 0.58457 0.0
O401 O 0.25714 0.35565 0.54181 0.0
O402 O 0.23426 0.34816 0.54391 0.0
In403 In 0.61953 0.87981 0.57125 0.0
O404 O 0.60389 0.85548 0.55383 0.0
O405 O 0.62187 0.86103 0.6006 0.0
C406 C 0.59697 0.88475 0.58665 0.0
C407 C 0.63178 0.88866 0.48346 0.0
C408 C 0.63743 0.89236 0.64726 0.0
O409 O 0.59724 0.87375 0.60359 0.0
O410 O 0.60779 0.8929 0.56036 0.0
O411 O 0.63992 0.88521 0.61604 0.0
O412 O 0.62642 0.89381 0.63876 0.0
C413 C 0.61084 0.85102 0.57916 0.0
O414 O 0.63615 0.89718 0.51893 0.0
O415 O 0.62141 0.8759 0.49239 0.0
In416 In 0.10773 0.73849 0.58538 0.0
O417 O 0.13227 0.74712 0.57695 0.0
O418 O 0.12455 0.76244 0.57162 0.0
C419 C 0.10133 0.71071 0.6052 0.0
C420 C 0.09702 0.73941 0.4987 0.0
C421 C 0.10022 0.74552 0.66978 0.0
O422 O 0.11415 0.72161 0.6087 0.0
O423 O 0.09186 0.71374 0.58989 0.0
O424 O 0.09095 0.73914 0.63696 0.0
O425 O 0.11313 0.74862 0.65939 0.0
C426 C 0.13541 0.76032 0.57079 0.0
O427 O 0.09242 0.74227 0.53653 0.0
O428 O 0.10669 0.73575 0.50479 0.0
In429 In 0.03846 0.58844 0.80797 0.0
O430 O 0.0558 0.58134 0.8049 0.0
O431 O 0.03457 0.56627 0.83272 0.0
C432 C 0.05944 0.61503 0.77618 0.0
C433 C 0.02918 0.58978 0.89652 0.0
C434 C 0.01934 0.57871 0.73362 0.0
O435 O 0.0579 0.60312 0.76015 0.0
O436 O 0.05082 0.61354 0.80979 0.0
O437 O 0.02273 0.5905 0.7554 0.0
O438 O 0.02485 0.57151 0.75116 0.0
C439 C 0.04732 0.56875 0.82225 0.0
O440 O 0.02098 0.58692 0.86044 0.0
O441 O 0.04205 0.59237 0.88759 0.0
In442 In 0.40631 0.44597 0.75839 0.0
O443 O 0.41373 0.43327 0.80719 0.0
O444 O 0.40206 0.44294 0.83805 0.0
C445 C 0.4088 0.43746 0.66974 0.0
C446 C 0.42885 0.47389 0.76331 0.0
C447 C 0.37763 0.43708 0.74894 0.0
O448 O 0.41102 0.43182 0.70645 0.0
O449 O 0.40554 0.44729 0.67812 0.0
O450 O 0.38746 0.45053 0.74756 0.0
O451 O 0.3823 0.42825 0.75664 0.0
C452 C 0.4085 0.43565 0.84453 0.0
O453 O 0.41593 0.47048 0.77537 0.0
O454 O 0.43029 0.46327 0.74921 0.0
In455 In 0.55685 0.96661 0.75121 0.0
O456 O 0.57454 0.98359 0.80113 0.0
O457 O 0.55628 0.96474 0.8317 0.0
C458 C 0.57047 0.98236 0.67167 0.0
C459 C 0.52966 0.96334 0.75401 0.0
C460 C 0.55644 0.94092 0.73971 0.0
O461 O 0.56196 0.9849 0.69639 0.0
O462 O 0.57278 0.97261 0.68863 0.0
O463 O 0.54618 0.94289 0.72494 0.0
O464 O 0.56648 0.95166 0.76229 0.0
C465 C 0.56806 0.97672 0.83864 0.0
O466 O 0.5325 0.95475 0.73077 0.0
O467 O 0.54051 0.97353 0.77559 0.0
C468 C 0.1191 0.29093 0.04439 0.0
C469 C 0.10727 0.28567 0.07628 0.0
C470 C 0.13123 0.28914 0.05359 0.0
C471 C 0.1316 0.28205 0.09603 0.0
C472 C 0.1194 0.27614 0.12743 0.0
C473 C 0.10729 0.27797 0.11704 0.0
C474 C 0.14396 0.29548 0.0189 0.0
C475 C 0.11945 0.26856 0.17304 0.0
C476 C 0.16234 0.27298 0.09733 0.0
C477 C 0.17381 0.28591 0.11717 0.0
C478 C 0.14813 0.27105 0.09291 0.0
C479 C 0.14542 0.28226 0.10913 0.0
C480 C 0.15672 0.2948 0.13244 0.0
C481 C 0.1708 0.2965 0.13592 0.0
C482 C 0.13636 0.25754 0.06789 0.0
C483 C 0.15422 0.30692 0.1508 0.0
H484 H 0.11904 0.29675 0.01257 0.0
H485 H 0.09813 0.27388 0.14172 0.0
H486 H 0.15375 0.30481 0.03578 0.0
H487 H 0.14698 0.28706 0.00928 0.0
H488 H 0.14139 0.29952 0.98573 0.0
H489 H 0.10845 0.26295 0.1904 0.0
H490 H 0.12295 0.26035 0.16621 0.0
H491 H 0.1275 0.27681 0.19822 0.0
H492 H 0.16465 0.26475 0.08291 0.0
H493 H 0.17962 0.30643 0.15184 0.0
H494 H 0.13455 0.26063 0.03178 0.0
H495 H 0.12575 0.25286 0.08736 0.0
H496 H 0.13947 0.24889 0.06418 0.0
H497 H 0.15291 0.31289 0.12028 0.0
H498 H 0.16354 0.31499 0.17306 0.0
H499 H 0.14396 0.30225 0.17217 0.0
C500 C 0.72379 0.83722 0.07972 0.0
C501 C 0.71513 0.82759 0.11599 0.0
C502 C 0.72477 0.851 0.07428 0.0
C503 C 0.71704 0.85516 0.10619 0.0
C504 C 0.70975 0.84617 0.14603 0.0
C505 C 0.70879 0.83242 0.15026 0.0
C506 C 0.73276 0.86032 0.03157 0.0
C507 C 0.70164 0.85036 0.18148 0.0
C508 C 0.71898 0.89232 0.10144 0.0
C509 C 0.70586 0.88859 0.0773 0.0
C510 C 0.72316 0.8817 0.10983 0.0
C511 C 0.71405 0.86714 0.09323 0.0
C512 C 0.70118 0.86357 0.06679 0.0
C513 C 0.69721 0.87431 0.05944 0.0
C514 C 0.73691 0.88588 0.1383 0.0
C515 C 0.69125 0.84821 0.04779 0.0
H516 H 0.72876 0.83354 0.05326 0.0
H517 H 0.70227 0.82505 0.17874 0.0
H518 H 0.72459 0.85883 0.00379 0.0
H519 H 0.73891 0.87217 0.04103 0.0
H520 H 0.74056 0.85718 0.01613 0.0
H521 H 0.69871 0.84353 0.21426 0.0
H522 H 0.70836 0.86212 0.19156 0.0
H523 H 0.69131 0.84878 0.16505 0.0
H524 H 0.72568 0.90337 0.11533 0.0
H525 H 0.68714 0.87145 0.04034 0.0
H526 H 0.74352 0.88153 0.12132 0.0
H527 H 0.73377 0.88091 0.17431 0.0
H528 H 0.7439 0.898 0.14231 0.0
H529 H 0.69773 0.84452 0.02652 0.0
H530 H 0.68226 0.84755 0.0251 0.0
H531 H 0.68622 0.8404 0.07789 0.0
C532 C 0.12375 0.8189 0.11265 0.0
C533 C 0.11086 0.81656 0.09003 0.0
C534 C 0.13679 0.8325 0.10909 0.0
C535 C 0.13701 0.84383 0.08102 0.0
C536 C 0.12392 0.84161 0.05889 0.0
C537 C 0.11091 0.82802 0.06423 0.0
C538 C 0.15044 0.83459 0.13424 0.0
C539 C 0.12382 0.8533 0.02776 0.0
C540 C 0.16983 0.88237 0.09516 0.0
C541 C 0.17934 0.88238 0.06014 0.0
C542 C 0.15584 0.86996 0.10197 0.0
C543 C 0.1512 0.85753 0.07211 0.0
C544 C 0.16054 0.85784 0.03516 0.0
C545 C 0.1746 0.87018 0.03011 0.0
C546 C 0.14632 0.86989 0.14243 0.0
C547 C 0.15585 0.84496 1.00178 0.0
H548 H 0.12365 0.81005 0.13293 0.0
H549 H 0.10093 0.82615 0.04649 0.0
H550 H 0.15871 0.83558 0.10761 0.0
H551 H 0.15549 0.84492 0.1553 0.0
H552 H 0.14806 0.82527 0.15842 0.0
H553 H 0.11255 0.8502 0.01558 0.0
H554 H 0.12855 0.86391 0.04714 0.0
H555 H 0.13084 0.85513 0.996 0.0
H556 H 0.17358 0.89178 0.11862 0.0
H557 H 0.18196 0.87027 0.00281 0.0
H558 H 0.14493 0.86146 0.16901 0.0
H559 H 0.13518 0.86686 0.12929 0.0
H560 H 0.15115 0.88074 0.16056 0.0
H561 H 0.1548 0.83535 0.02177 0.0
H562 H 0.16383 0.8475 0.97228 0.0
H563 H 0.14489 0.84166 0.98628 0.0
C564 C 0.28977 0.11798 0.86272 0.0
C565 C 0.28274 0.10652 0.89574 0.0
C566 C 0.28776 0.13021 0.86413 0.0
C567 C 0.27864 0.13101 0.89978 0.0
C568 C 0.27022 0.1187 0.92959 0.0
C569 C 0.27236 0.10652 0.92714 0.0
C570 C 0.29671 0.14295 0.83097 0.0
C571 C 0.26021 0.11904 0.96753 0.0
C572 C 0.29544 0.16916 0.9521 0.0
C573 C 0.28739 0.17481 0.92971 0.0
C574 C 0.29219 0.1547 0.94411 0.0
C575 C 0.28063 0.14563 0.91259 0.0
C576 C 0.27203 0.15105 0.89127 0.0
C577 C 0.27551 0.16565 0.90019 0.0
C578 C 0.30157 0.14934 0.96809 0.0
C579 C 0.25963 0.1417 0.85753 0.0
H580 H 0.29761 0.11786 0.83779 0.0
H581 H 0.26679 0.09759 0.95244 0.0
H582 H 0.28999 0.14762 0.8172 0.0
H583 H 0.30614 0.15181 0.8508 0.0
H584 H 0.30112 0.13965 0.80033 0.0
H585 H 0.2522 0.10779 0.98035 0.0
H586 H 0.26695 0.12557 0.99829 0.0
H587 H 0.25407 0.12438 0.95413 0.0
H588 H 0.30452 0.17617 0.9754 0.0
H589 H 0.26926 0.17001 0.88288 0.0
H590 H 0.30783 0.14705 0.94084 0.0
H591 H 0.29449 0.13891 0.98746 0.0
H592 H 0.30954 0.1575 0.99371 0.0
H593 H 0.26429 0.14099 0.82284 0.0
H594 H 0.25235 0.14641 0.85123 0.0
H595 H 0.25289 0.13033 0.87138 0.0
C596 C 0.81987 0.10751 0.87955 0.0
C597 C 0.81092 0.11098 0.90735 0.0
C598 C 0.83461 0.11812 0.87037 0.0
C599 C 0.84052 0.13234 0.89053 0.0
C600 C 0.83162 0.13568 0.92001 0.0
C601 C 0.81686 0.12501 0.92752 0.0
C602 C 0.84369 0.1143 0.83791 0.0
C603 C 0.8376 0.15061 0.94305 0.0
C604 C 0.88119 0.15938 0.90525 0.0
C605 C 0.88307 0.17021 0.8723 0.0
C606 C 0.86756 0.14636 0.90963 0.0
C607 C 0.85578 0.14409 0.87948 0.0
C608 C 0.85815 0.15437 0.84303 0.0
C609 C 0.87174 0.16744 0.84035 0.0
C610 C 0.86541 0.13578 0.94937 0.0
C611 C 0.84599 0.15214 0.80927 0.0
H612 H 0.81522 0.09666 0.86374 0.0
H613 H 0.80995 0.12763 0.94937 0.0
H614 H 0.84658 0.12112 0.80519 0.0
H615 H 0.85418 0.11684 0.85544 0.0
H616 H 0.83775 0.10251 0.82745 0.0
H617 H 0.82953 0.15105 0.9677 0.0
H618 H 0.84778 0.15349 0.96324 0.0
H619 H 0.84054 0.15915 0.91522 0.0
H620 H 0.88996 0.16159 0.93016 0.0
H621 H 0.87327 0.17581 0.81462 0.0
H622 H 0.85923 0.12423 0.93672 0.0
H623 H 0.85882 0.13696 0.97815 0.0
H624 H 0.87607 0.1379 0.9647 0.0
H625 H 0.84007 0.14066 0.79583 0.0
H626 H 0.85027 0.15978 0.77842 0.0
H627 H 0.83788 0.15411 0.82842 0.0
C628 C 0.82397 0.70616 0.92977 0.0
C629 C 0.81845 0.71305 0.90031 0.0
C630 C 0.83847 0.70913 0.92524 0.0
C631 C 0.84764 0.71909 0.88976 0.0
C632 C 0.84234 0.72657 0.86111 0.0
C633 C 0.82775 0.72352 0.86697 0.0
C634 C 0.84374 0.70107 0.9571 0.0
C635 C 0.85179 0.73719 0.8228 0.0
C636 C 0.88717 0.72863 0.90739 0.0
C637 C 0.88719 0.71708 0.88237 0.0
C638 C 0.8747 0.73032 0.90696 0.0
C639 C 0.86216 0.72034 0.88041 0.0
C640 C 0.86275 0.70961 0.85141 0.0
C641 C 0.87523 0.70802 0.85311 0.0
C642 C 0.87449 0.7419 0.9383 0.0
C643 C 0.84972 0.69892 0.82187 0.0
H644 H 0.81683 0.69821 0.95607 0.0
H645 H 0.82346 0.72885 0.84421 0.0
H646 H 0.84568 0.69334 0.93551 0.0
H647 H 0.85433 0.70897 0.97417 0.0
H648 H 0.83565 0.69468 0.98546 0.0
H649 H 0.84694 0.74374 0.80878 0.0
H650 H 0.86301 0.74483 0.83645 0.0
H651 H 0.85297 0.73095 0.79286 0.0
H652 H 0.89647 0.73568 0.92987 0.0
H653 H 0.87535 0.69924 0.83311 0.0
H654 H 0.86804 0.73659 0.97096 0.0
H655 H 0.86908 0.74731 0.91997 0.0
H656 H 0.88577 0.75045 0.94912 0.0
H657 H 0.84103 0.69072 0.84565 0.0
H658 H 0.85275 0.69291 0.79579 0.0
H659 H 0.84494 0.70474 0.80233 0.0
C660 C 0.83145 0.61087 0.4137 0.0
C661 C 0.84273 0.62362 0.435 0.0
C662 C 0.81681 0.60789 0.41487 0.0
C663 C 0.81348 0.6178 0.43847 0.0
C664 C 0.82469 0.63003 0.46325 0.0
C665 C 0.83922 0.63287 0.4608 0.0
C666 C 0.80518 0.59478 0.38784 0.0
C667 C 0.82155 0.64073 0.48956 0.0
C668 C 0.78521 0.62657 0.39029 0.0
C669 C 0.77379 0.61966 0.42345 0.0
C670 C 0.79777 0.6252 0.39318 0.0
C671 C 0.79908 0.61697 0.43084 0.0
C672 C 0.78728 0.60938 0.46326 0.0
C673 C 0.77462 0.61072 0.4589 0.0
C674 C 0.80998 0.63324 0.35726 0.0
C675 C 0.78836 0.6006 0.50403 0.0
H676 H 0.83416 0.60366 0.39392 0.0
H677 H 0.84791 0.64261 0.47798 0.0
H678 H 0.79486 0.58894 0.40886 0.0
H679 H 0.80254 0.59863 0.35441 0.0
H680 H 0.80891 0.58687 0.37847 0.0
H681 H 0.83093 0.64838 0.51239 0.0
H682 H 0.81935 0.64735 0.46351 0.0
H683 H 0.8116 0.63473 0.51217 0.0
H684 H 0.78444 0.63331 0.36243 0.0
H685 H 0.76575 0.60539 0.48453 0.0
H686 H 0.8135 0.62572 0.34215 0.0
H687 H 0.81968 0.6424 0.37509 0.0
H688 H 0.80659 0.6379 0.32756 0.0
H689 H 0.79272 0.59348 0.49163 0.0
H690 H 0.77753 0.59362 0.52151 0.0
H691 H 0.79616 0.60826 0.531 0.0
C692 C 0.37254 0.15872 0.50188 0.0
C693 C 0.38144 0.15581 0.47187 0.0
C694 C 0.37486 0.17302 0.50653 0.0
C695 C 0.38613 0.18456 0.47955 0.0
C696 C 0.39594 0.18189 0.45242 0.0
C697 C 0.39355 0.16749 0.44922 0.0
C698 C 0.36436 0.17547 0.53678 0.0
C699 C 0.40803 0.19388 0.42298 0.0
C700 C 0.37413 0.21068 0.43322 0.0
C701 C 0.38158 0.22279 0.46355 0.0
C702 C 0.37612 0.19851 0.43679 0.0
C703 C 0.3856 0.19831 0.47231 0.0
C704 C 0.39351 0.21069 0.50228 0.0
C705 C 0.3915 0.22292 0.49724 0.0
C706 C 0.36767 0.18565 0.40345 0.0
C707 C 0.40355 0.21076 0.54088 0.0
H708 H 0.3633 0.14969 0.51999 0.0
H709 H 0.40046 0.16523 0.42607 0.0
H710 H 0.3704 0.18579 0.55762 0.0
H711 H 0.35643 0.17657 0.51338 0.0
H712 H 0.35802 0.16617 0.56172 0.0
H713 H 0.41632 0.19085 0.41154 0.0
H714 H 0.40315 0.19581 0.39065 0.0
H715 H 0.4137 0.20438 0.44305 0.0
H716 H 0.3666 0.21067 0.40671 0.0
H717 H 0.39724 0.23231 0.52072 0.0
H718 H 0.35952 0.17592 0.42395 0.0
H719 H 0.37527 0.18262 0.38586 0.0
H720 H 0.3617 0.18808 0.37546 0.0
H721 H 0.39683 0.20297 0.56943 0.0
H722 H 0.41032 0.22186 0.55689 0.0
H723 H 0.41098 0.20699 0.52671 0.0
C724 C 0.83928 0.21578 0.47171 0.0
C725 C 0.84378 0.22572 0.43361 0.0
C726 C 0.82464 0.20441 0.47573 0.0
C727 C 0.81436 0.20283 0.44026 0.0
C728 C 0.8186 0.21351 0.40374 0.0
C729 C 0.83329 0.22494 0.40105 0.0
C730 C 0.82049 0.19341 0.51573 0.0
C731 C 0.80798 0.21215 0.36512 0.0
C732 C 0.78654 0.16325 0.4117 0.0
C733 C 0.77383 0.16148 0.43413 0.0
C734 C 0.79965 0.17679 0.41246 0.0
C735 C 0.80014 0.18881 0.43698 0.0
C736 C 0.7873 0.18716 0.45942 0.0
C737 C 0.77421 0.17349 0.4574 0.0
C738 C 0.81305 0.17814 0.38751 0.0
C739 C 0.78751 0.19971 0.4864 0.0
H740 H 0.84736 0.2165 0.49729 0.0
H741 H 0.83676 0.23264 0.37158 0.0
H742 H 0.80976 0.19083 0.53153 0.0
H743 H 0.81929 0.18299 0.50152 0.0
H744 H 0.82895 0.19748 0.5443 0.0
H745 H 0.8122 0.22246 0.34408 0.0
H746 H 0.80619 0.20311 0.34056 0.0
H747 H 0.79712 0.20932 0.38044 0.0
H748 H 0.78624 0.15401 0.39328 0.0
H749 H 0.76437 0.17211 0.47483 0.0
H750 H 0.82186 0.18057 0.4139 0.0
H751 H 0.81746 0.18741 0.3618 0.0
H752 H 0.8106 0.16794 0.36804 0.0
H753 H 0.79509 0.20271 0.51723 0.0
H754 H 0.77641 0.19687 0.49969 0.0
H755 H 0.79173 0.2096 0.46335 0.0
C756 C 0.9447 0.50042 0.26702 0.0
C757 C 0.9577 0.51009 0.29124 0.0
C758 C 0.94145 0.48605 0.25581 0.0
C759 C 0.95138 0.48129 0.26964 0.0
C760 C 0.96419 0.49084 0.29592 0.0
C761 C 0.96723 0.50515 0.30612 0.0
C762 C 0.92775 0.4762 0.22752 0.0
C763 C 0.97498 0.48613 0.31192 0.0
C764 C 0.94334 0.44197 0.27599 0.0
C765 C 0.95178 0.44174 0.23765 0.0
C766 C 0.94201 0.45442 0.28488 0.0
C767 C 0.94916 0.46677 0.25431 0.0
C768 C 0.95636 0.46593 0.21281 0.0
C769 C 0.95768 0.45344 0.20516 0.0
C770 C 0.93419 0.45488 0.32941 0.0
C771 C 0.96387 0.47874 0.17878 0.0
H772 H 0.93733 0.50425 0.25538 0.0
H773 H 0.97722 0.51257 0.3252 0.0
H774 H 0.93092 0.47466 0.19119 0.0
H775 H 0.92158 0.46515 0.24418 0.0
H776 H 0.92033 0.48087 0.22438 0.0
H777 H 0.98387 0.49453 0.33471 0.0
H778 H 0.96917 0.47565 0.33215 0.0
H779 H 0.98012 0.48413 0.28038 0.0
H780 H 0.93873 0.43291 0.30114 0.0
H781 H 0.96407 0.4532 0.17515 0.0
H782 H 0.92739 0.46006 0.32227 0.0
H783 H 0.94249 0.46166 0.35671 0.0
H784 H 0.92702 0.4437 0.34439 0.0
H785 H 0.95667 0.48342 0.17082 0.0
H786 H 0.96689 0.47551 0.14477 0.0
H787 H 0.97408 0.48758 0.19545 0.0
C788 C 0.55313 0.49174 0.21788 0.0
C789 C 0.55069 0.50342 0.20714 0.0
C790 C 0.54138 0.47714 0.21817 0.0
C791 C 0.52696 0.47432 0.20819 0.0
C792 C 0.52472 0.48597 0.19349 0.0
C793 C 0.53664 0.50036 0.19288 0.0
C794 C 0.54426 0.46494 0.23248 0.0
C795 C 0.50952 0.48346 0.18245 0.0
C796 C 0.49193 0.43759 0.19513 0.0
C797 C 0.48544 0.43647 0.23972 0.0
C798 C 0.5062 0.44921 0.18529 0.0
C799 C 0.51392 0.45996 0.22072 0.0
C800 C 0.50786 0.45812 0.26695 0.0
C801 C 0.49373 0.44635 0.27592 0.0
C802 C 0.5125 0.45056 0.13605 0.0
C803 C 0.51572 0.46931 0.30588 0.0
H804 H 0.56403 0.49405 0.22834 0.0
H805 H 0.53475 0.50933 0.18385 0.0
H806 H 0.5413 0.46216 0.27048 0.0
H807 H 0.53741 0.45485 0.21126 0.0
H808 H 0.55604 0.46825 0.228 0.0
H809 H 0.50986 0.49342 0.16741 0.0
H810 H 0.50379 0.47428 0.15679 0.0
H811 H 0.50285 0.48034 0.21557 0.0
H812 H 0.48562 0.42986 0.16718 0.0
H813 H 0.48884 0.4454 0.31069 0.0
H814 H 0.5245 0.45463 0.13763 0.0
H815 H 0.51089 0.45862 0.1151 0.0
H816 H 0.50699 0.43986 0.11687 0.0
H817 H 0.52723 0.47166 0.30957 0.0
H818 H 0.51013 0.46555 0.34089 0.0
H819 H 0.51615 0.4798 0.29648 0.0
C820 C 0.53761 0.02496 0.21172 0.0
C821 C 0.54861 0.03372 0.2445 0.0
C822 C 0.52441 0.02527 0.20946 0.0
C823 C 0.52206 0.03431 0.24152 0.0
C824 C 0.53318 0.04326 0.27451 0.0
C825 C 0.54642 0.04297 0.27524 0.0
C826 C 0.51292 0.0158 0.17318 0.0
C827 C 0.53093 0.05281 0.30985 0.0
C828 C 0.49196 0.04336 0.2147 0.0
C829 C 0.48022 0.03259 0.24139 0.0
C830 C 0.50567 0.04403 0.21416 0.0
C831 C 0.5077 0.0339 0.24185 0.0
C832 C 0.49593 0.02317 0.26949 0.0
C833 C 0.48227 0.02254 0.26849 0.0
C834 C 0.5179 0.05542 0.18352 0.0
C835 C 0.49776 0.01236 0.30019 0.0
H836 H 0.53935 0.01789 0.18765 0.0
H837 H 0.55491 0.04971 0.30073 0.0
H838 H 0.50285 0.00734 0.19157 0.0
H839 H 0.50973 0.02262 0.15157 0.0
H840 H 0.51685 0.01013 0.14887 0.0
H841 H 0.54079 0.05934 0.33249 0.0
H842 H 0.52829 0.06049 0.29094 0.0
H843 H 0.52143 0.04581 0.33326 0.0
H844 H 0.49035 0.0511 0.19357 0.0
H845 H 0.47322 0.01428 0.28947 0.0
H846 H 0.52146 0.04989 0.15736 0.0
H847 H 0.52761 0.06261 0.20585 0.0
H848 H 0.5145 0.06243 0.1639 0.0
H849 H 0.50048 0.00537 0.2776 0.0
H850 H 0.48767 0.00509 0.32097 0.0
H851 H 0.50705 0.01837 0.32533 0.0
C852 C 0.45859 0.97098 0.72815 0.0
C853 C 0.44614 0.95995 0.75153 0.0
C854 C 0.47194 0.97097 0.72863 0.0
C855 C 0.47293 0.95981 0.75393 0.0
C856 C 0.46041 0.9487 0.77793 0.0
C857 C 0.44708 0.94882 0.77602 0.0
C858 C 0.48499 0.98286 0.70194 0.0
C859 C 0.46114 0.9368 0.806 0.0
C860 C 0.50427 0.95317 0.72136 0.0
C861 C 0.5149 0.9618 0.75529 0.0
C862 C 0.49045 0.95226 0.72082 0.0
C863 C 0.48715 0.95995 0.75562 0.0
C864 C 0.49771 0.96833 0.79082 0.0
C865 C 0.51153 0.96927 0.78994 0.0
C866 C 0.47955 0.94341 0.68226 0.0
C867 C 0.49449 0.97648 0.82898 0.0
H868 H 0.45784 0.97955 0.70889 0.0
H869 H 0.43747 0.94031 0.79428 0.0
H870 H 0.49413 0.98941 0.72707 0.0
H871 H 0.48908 0.97782 0.67575 0.0
H872 H 0.48225 0.99045 0.68275 0.0
H873 H 0.45044 0.92903 0.82294 0.0
H874 H 0.46445 0.93047 0.78239 0.0
H875 H 0.46965 0.94185 0.83421 0.0
H876 H 0.50689 0.94742 0.69445 0.0
H877 H 0.5197 0.97587 0.81645 0.0
H878 H 0.47719 0.95077 0.6602 0.0
H879 H 0.46898 0.93503 0.6983 0.0
H880 H 0.48367 0.93776 0.65864 0.0
H881 H 0.49288 0.98519 0.8125 0.0
H882 H 0.50352 0.98171 0.85553 0.0
H883 H 0.48414 0.96884 0.84784 0.0
C884 C 0.06233 0.55764 0.79573 0.0
C885 C 0.05121 0.55708 0.82486 0.0
C886 C 0.06397 0.54523 0.79032 0.0
C887 C 0.05437 0.53211 0.81513 0.0
C888 C 0.04411 0.53201 0.8481 0.0
C889 C 0.04257 0.54448 0.85226 0.0
C890 C 0.07502 0.54575 0.75478 0.0
C891 C 0.03384 0.51834 0.87588 0.0
C892 C 0.04039 0.49542 0.7542 0.0
C893 C 0.04814 0.48966 0.77793 0.0
C894 C 0.04281 0.50948 0.76482 0.0
C895 C 0.05311 0.51793 0.80058 0.0
C896 C 0.06129 0.51236 0.82386 0.0
C897 C 0.05876 0.49825 0.81199 0.0
C898 C 0.03398 0.51508 0.73867 0.0
C899 C 0.07226 0.52103 0.8624 0.0
H900 H 0.06906 0.5674 0.77461 0.0
H901 H 0.03409 0.54412 0.87534 0.0
H902 H 0.08082 0.54015 0.76897 0.0
H903 H 0.06917 0.53986 0.72192 0.0
H904 H 0.08332 0.55724 0.74505 0.0
H905 H 0.02827 0.52074 0.90529 0.0
H906 H 0.02526 0.51021 0.85166 0.0
H907 H 0.03991 0.51314 0.89105 0.0
H908 H 0.03228 0.48885 0.72747 0.0
H909 H 0.06475 0.49378 0.83038 0.0
H910 H 0.04143 0.52606 0.72297 0.0
H911 H 0.02658 0.51639 0.764 0.0
H912 H 0.02714 0.50753 0.70974 0.0
H913 H 0.0799 0.53243 0.85018 0.0
H914 H 0.0788 0.51586 0.87345 0.0
H915 H 0.06634 0.52182 0.894 0.0
C916 C 0.44065 0.49996 0.79201 0.0
C917 C 0.44145 0.48902 0.76564 0.0
C918 C 0.45301 0.51414 0.79629 0.0
C919 C 0.4663 0.51738 0.77316 0.0
C920 C 0.46694 0.50648 0.74524 0.0
C921 C 0.45454 0.49242 0.74212 0.0
C922 C 0.45198 0.52546 0.82669 0.0
C923 C 0.48086 0.50954 0.71949 0.0
C924 C 0.49813 0.5553 0.74561 0.0
C925 C 0.50875 0.55597 0.77737 0.0
C926 C 0.48371 0.54326 0.74619 0.0
C927 C 0.47991 0.53182 0.77972 0.0
C928 C 0.49022 0.53324 0.81482 0.0
C929 C 0.50458 0.54526 0.81296 0.0
C930 C 0.47303 0.54214 0.70816 0.0
C931 C 0.48651 0.52142 0.85175 0.0
H932 H 0.43052 0.49733 0.81028 0.0
H933 H 0.45514 0.48402 0.72135 0.0
H934 H 0.45916 0.52796 0.85841 0.0
H935 H 0.456 0.5359 0.80668 0.0
H936 H 0.44055 0.52161 0.83893 0.0
H937 H 0.47925 0.50012 0.69707 0.0
H938 H 0.48476 0.51939 0.69641 0.0
H939 H 0.48969 0.51193 0.74571 0.0
H940 H 0.50134 0.5636 0.71809 0.0
H941 H 0.51276 0.54587 0.83795 0.0
H942 H 0.46189 0.53808 0.72329 0.0
H943 H 0.47213 0.53411 0.68074 0.0
H944 H 0.47668 0.5529 0.69043 0.0
H945 H 0.47551 0.51776 0.86748 0.0
H946 H 0.4948 0.52526 0.88083 0.0
H947 H 0.48613 0.5117 0.83461 0.0
C948 C 0.59803 0.8254 0.54639 0.0
C949 C 0.60741 0.83557 0.58033 0.0
C950 C 0.59676 0.81145 0.54257 0.0
C951 C 0.60506 0.80771 0.57344 0.0
C952 C 0.61367 0.81757 0.60999 0.0
C953 C 0.61475 0.83139 0.61291 0.0
C954 C 0.58735 0.80116 0.50353 0.0
C955 C 0.62259 0.81396 0.64399 0.0
C956 C 0.6015 0.7702 0.58852 0.0
C957 C 0.61401 0.77229 0.56375 0.0
C958 C 0.59764 0.78124 0.5891 0.0
C959 C 0.6065 0.79456 0.56421 0.0
C960 C 0.61837 0.79613 0.53583 0.0
C961 C 0.622 0.78498 0.53607 0.0
C962 C 0.58481 0.77912 0.61931 0.0
C963 C 0.628 0.81008 0.50826 0.0
H964 H 0.59228 0.8286 0.52126 0.0
H965 H 0.62187 0.83917 0.63959 0.0
H966 H 0.59454 0.80135 0.47424 0.0
H967 H 0.581 0.78967 0.51676 0.0
H968 H 0.57955 0.8044 0.48871 0.0
H969 H 0.62754 0.82218 0.67312 0.0
H970 H 0.61562 0.80293 0.66001 0.0
H971 H 0.63162 0.81368 0.62426 0.0
H972 H 0.59525 0.76035 0.60978 0.0
H973 H 0.63157 0.78653 0.51635 0.0
H974 H 0.5783 0.78331 0.60077 0.0
H975 H 0.58903 0.78545 0.65285 0.0
H976 H 0.57742 0.76735 0.62859 0.0
H977 H 0.62116 0.81339 0.4873 0.0
H978 H 0.63561 0.80885 0.48363 0.0
H979 H 0.63468 0.81915 0.5335 0.0
C980 C 0.16254 0.7706 0.57859 0.0
C981 C 0.15069 0.77251 0.56559 0.0
C982 C 0.17703 0.78249 0.57778 0.0
C983 C 0.17968 0.7965 0.56292 0.0
C984 C 0.16779 0.79832 0.54784 0.0
C985 C 0.15341 0.78631 0.54975 0.0
C986 C 0.18942 0.78021 0.59466 0.0
C987 C 0.1702 0.81305 0.53107 0.0
C988 C 0.21205 0.83188 0.60793 0.0
C989 C 0.22138 0.83652 0.56822 0.0
C990 C 0.19878 0.81844 0.60757 0.0
C991 C 0.19467 0.80956 0.56617 0.0
C992 C 0.20437 0.81388 0.52674 0.0
C993 C 0.21771 0.8273 0.52839 0.0
C994 C 0.18885 0.81409 0.65067 0.0
C995 C 0.20028 0.80476 0.48184 0.0
H996 H 0.16044 0.75993 0.59098 0.0
H997 H 0.14426 0.78778 0.53933 0.0
H998 H 0.1984 0.78444 0.56791 0.0
H999 H 0.19414 0.78651 0.62799 0.0
H1000 H 0.18568 0.76842 0.60162 0.0
H1001 H 0.15995 0.81233 0.51703 0.0
H1002 H 0.17427 0.821 0.56104 0.0
H1003 H 0.17872 0.81755 0.50276 0.0
H1004 H 0.21493 0.83896 0.6389 0.0
H1005 H 0.2249 0.83091 0.49757 0.0
H1006 H 0.18532 0.80259 0.66125 0.0
H1007 H 0.17878 0.81456 0.64187 0.0
H1008 H 0.19432 0.82143 0.68158 0.0
H1009 H 0.19654 0.79309 0.49035 0.0
H1010 H 0.20962 0.80886 0.45636 0.0
H1011 H 0.19097 0.80506 0.46412 0.0
C1012 C 0.21366 0.38345 0.60939 0.0
C1013 C 0.2232 0.38388 0.57374 0.0
C1014 C 0.20151 0.38501 0.59817 0.0
C1015 C 0.19891 0.38712 0.55013 0.0
C1016 C 0.20936 0.38909 0.51474 0.0
C1017 C 0.22142 0.38739 0.52696 0.0
C1018 C 0.1907 0.38295 0.63712 0.0
C1019 C 0.20716 0.39173 0.46336 0.0
C1020 C 0.15821 0.3669 0.52395 0.0
C1021 C 0.1547 0.37807 0.52949 0.0
C1022 C 0.17277 0.36995 0.52745 0.0
C1023 C 0.18413 0.38455 0.53655 0.0
C1024 C 0.18081 0.39607 0.53862 0.0
C1025 C 0.16606 0.39267 0.53521 0.0
C1026 C 0.17583 0.35733 0.52472 0.0
C1027 C 0.19265 0.4118 0.54741 0.0
H1028 H 0.21513 0.38096 0.64575 0.0
H1029 H 0.22888 0.38787 0.49935 0.0
H1030 H 0.18761 0.39163 0.63517 0.0
H1031 H 0.18048 0.37217 0.63243 0.0
H1032 H 0.1952 0.38321 0.67314 0.0
H1033 H 0.21756 0.39618 0.44269 0.0
H1034 H 0.19891 0.38117 0.44689 0.0
H1035 H 0.2029 0.39948 0.46052 0.0
H1036 H 0.14947 0.35561 0.51894 0.0
H1037 H 0.16339 0.40136 0.53918 0.0
H1038 H 0.17946 0.35562 0.56011 0.0
H1039 H 0.18486 0.3599 0.49912 0.0
H1040 H 0.16598 0.34686 0.51368 0.0
H1041 H 0.19574 0.41323 0.58561 0.0
H1042 H 0.18887 0.41968 0.5382 0.0
H1043 H 0.20271 0.41461 0.52652 0.0
C1044 C 0.01985 0.2645 0.0503 0.0
C1045 C 0.03171 0.2635 0.03186 0.0
C1046 C 0.00552 0.25533 0.03345 0.0
C1047 C 0.00314 0.24525 0.99629 0.0
C1048 C 0.01498 0.24363 0.9794 0.0
C1049 C 0.02915 0.2527 0.99789 0.0
C1050 C 0.9931 0.25708 0.05334 0.0
C1051 C 0.01293 0.23319 0.93929 0.0
C1052 C 0.9633 0.21804 0.9658 0.0
C1053 C 0.9604 0.22611 0.93208 0.0
C1054 C 0.97736 0.22389 0.98617 0.0
C1055 C 0.98874 0.23791 0.97137 0.0
C1056 C 0.98604 0.24562 0.93504 0.0
C1057 C 0.97182 0.23972 0.91634 0.0
C1058 C 0.97977 0.21549 0.02545 0.0
C1059 C -0.00201 0.26044 0.91738 0.0
H1060 H 0.02184 0.27279 0.0769 0.0
H1061 H 0.03838 0.25199 0.98344 0.0
H1062 H 0.98965 0.26252 0.02652 0.0
H1063 H 0.98339 0.24616 0.0613 0.0
H1064 H 0.99637 0.26383 0.08633 0.0
H1065 H 0.02266 0.23174 0.93485 0.0
H1066 H 0.00305 0.22226 0.94539 0.0
H1067 H 0.01117 0.2376 0.90552 0.0
H1068 H 0.9544 0.20756 0.9782 0.0
H1069 H 0.96955 0.24588 0.88999 0.0
H1070 H 0.98115 0.22128 0.05978 0.0
H1071 H 0.98998 0.21505 0.01913 0.0
H1072 H 0.97038 0.20407 0.02892 0.0
H1073 H 0.00099 0.26878 0.94591 0.0
H1074 H 0.99449 0.2642 0.88555 0.0
H1075 H 0.00804 0.25996 0.90826 0.0
C1076 C 0.74584 0.72058 0.98588 0.0
C1077 C 0.75808 0.72671 0.95553 0.0
C1078 C 0.74033 0.7292 0.00479 0.0
C1079 C 0.74702 0.74425 0.99212 0.0
C1080 C 0.75947 0.75055 0.96171 0.0
C1081 C 0.76499 0.7417 0.94414 0.0
C1082 C 0.72718 0.72212 0.03776 0.0
C1083 C 0.76668 0.76649 0.94674 0.0
C1084 C 0.72055 0.75867 1.00107 0.0
C1085 C 0.72449 0.76602 0.04489 0.0
C1086 C 0.72839 0.75228 0.98219 0.0
C1087 C 0.74024 0.75297 0.00837 0.0
C1088 C 0.74456 0.76075 0.05207 0.0
C1089 C 0.7367 0.76736 0.06963 0.0
C1090 C 0.72362 0.74432 0.93506 0.0
C1091 C 0.75697 0.76146 0.08133 0.0
H1092 H 0.74062 0.70902 0.9953 0.0
H1093 H 0.77448 0.74643 0.92072 0.0
H1094 H 0.7296 0.72856 0.0712 0.0
H1095 H 0.71762 0.72208 0.02073 0.0
H1096 H 0.724 0.7106 0.04691 0.0
H1097 H 0.77668 0.76988 0.92477 0.0
H1098 H 0.75875 0.76832 0.92583 0.0
H1099 H 0.76976 0.77372 0.9785 0.0
H1100 H 0.71123 0.75782 0.98158 0.0
H1101 H 0.73973 0.77307 0.10351 0.0
H1102 H 0.71881 0.73232 0.94084 0.0
H1103 H 0.73325 0.74797 0.9111 0.0
H1104 H 0.71528 0.74618 0.91687 0.0
H1105 H 0.75376 0.75029 0.09469 0.0
H1106 H 0.75978 0.76899 0.11229 0.0
H1107 H 0.76696 0.76518 0.05909 0.0
C1108 C 0.25452 0.96903 0.0177 0.0
C1109 C 0.24044 0.96124 0.03793 0.0
C1110 C 0.26044 0.98373 0.00374 0.0
C1111 C 0.25223 0.99091 0.01131 0.0
C1112 C 0.23811 0.9832 0.03262 0.0
C1113 C 0.23228 0.96834 0.04517 0.0
C1114 C 0.27544 0.99151 0.98038 0.0
C1115 C 0.22924 0.99065 0.0423 0.0
C1116 C 0.27622 0.03232 0.01364 0.0
C1117 C 0.27429 0.03612 0.96748 0.0
C1118 C 0.26838 0.01771 0.02936 0.0
C1119 C 0.25871 0.00661 0.99762 0.0
C1120 C 0.25638 0.01044 0.95134 0.0
C1121 C 0.26409 0.02525 0.93699 0.0
C1122 C 0.27089 0.01411 0.07934 0.0
C1123 C 0.24637 -0.00116 0.91621 0.0
H1124 H 0.26078 0.96351 0.01155 0.0
H1125 H 0.22139 0.9623 0.06082 0.0
H1126 H 0.2747 0.99587 0.94511 0.0
H1127 H 0.2832 0.00104 0.00239 0.0
H1128 H 0.28011 0.98415 0.97537 0.0
H1129 H 0.21857 0.98318 0.05996 0.0
H1130 H 0.23562 0.00043 0.06535 0.0
H1131 H 0.227 0.99464 0.00848 0.0
H1132 H 0.28399 0.0408 0.03743 0.0
H1133 H 0.26263 0.02823 0.90126 0.0
H1134 H 0.27691 0.00792 0.07801 0.0
H1135 H 0.26021 0.00698 0.09733 0.0
H1136 H 0.27739 0.02416 0.1012 0.0
H1137 H 0.25106 0.99174 0.90686 0.0
H1138 H 0.24493 0.00372 0.88297 0.0
H1139 H 0.23539 0.99164 0.93229 0.0
C1140 C 0.97308 0.73797 0.9353 0.0
C1141 C 0.9605 0.73618 0.95878 0.0
C1142 C 0.98688 0.74516 0.95753 0.0
C1143 C 0.98808 0.75052 0.00454 0.0
C1144 C 0.97557 0.74951 0.02735 0.0
C1145 C 0.9619 0.7424 0.00403 0.0
C1146 C 3e-05 0.74623 0.9317 0.0
C1147 C 0.9764 0.75506 0.07748 0.0
C1148 C 0.01869 0.74974 0.07318 0.0
C1149 C 0.03009 0.76436 0.06893 0.0
C1150 C 0.00465 0.7453 0.05483 0.0
C1151 C 0.00205 0.7557 0.03115 0.0
C1152 C 0.01328 0.77066 0.02918 0.0
C1153 C 0.02719 0.77484 0.04839 0.0
C1154 C 0.99287 0.72928 0.05839 0.0
C1155 C 0.01092 0.78205 0.00414 0.0
H1156 H 0.97204 0.73326 0.90018 0.0
H1157 H 0.95218 0.74102 0.02233 0.0
H1158 H 0.00947 0.75765 0.93338 0.0
H1159 H 0.00349 0.73897 0.94928 0.0
H1160 H -0.00242 0.74292 0.89375 0.0
H1161 H 0.96627 0.75529 0.08762 0.0
H1162 H 0.97789 0.74776 0.10272 0.0
H1163 H 0.98603 0.76629 0.0816 0.0
H1164 H 0.02087 0.74164 0.08937 0.0
H1165 H 0.03601 0.78616 0.04498 0.0
H1166 H 0.99054 0.72421 0.02246 0.0
H1167 H 0.98248 0.72825 0.07216 0.0
H1168 H 0.99619 0.72294 0.082 0.0
H1169 H 0.01026 0.78008 0.96518 0.0
H1170 H 0.02 0.79343 0.01119 0.0
H1171 H 0.00036 0.78117 0.01537 0.0
C1172 C 0.27808 0.24315 0.03258 0.0
C1173 C 0.27361 0.2339 0.99273 0.0
C1174 C 0.2695 0.24891 0.04997 0.0
C1175 C 0.25636 0.24569 0.02596 0.0
C1176 C 0.25156 0.23599 0.98644 0.0
C1177 C 0.26019 0.23001 0.97063 0.0
C1178 C 0.27482 0.25892 0.09291 0.0
C1179 C 0.23778 0.23258 0.95935 0.0
C1180 C 0.23078 0.25628 0.08803 0.0
C1181 C 0.236 0.27051 0.07016 0.0
C1182 C 0.23713 0.24787 0.07343 0.0
C1183 C 0.24863 0.25375 0.03936 0.0
C1184 C 0.25356 0.26794 0.02014 0.0
C1185 C 0.24731 0.27621 0.03627 0.0
C1186 C 0.23185 0.23292 0.09544 0.0
C1187 C 0.26561 0.2745 0.98306 0.0
H1188 H 0.28838 0.24596 0.05009 0.0
H1189 H 0.25678 0.22283 0.9398 0.0
H1190 H 0.27833 0.27037 0.08185 0.0
H1191 H 0.26578 0.25554 0.11914 0.0
H1192 H 0.28427 0.25889 0.11073 0.0
H1193 H 0.23485 0.22382 0.93228 0.0
H1194 H 0.22836 0.22907 0.9841 0.0
H1195 H 0.23945 0.24268 0.94102 0.0
H1196 H 0.222 0.25188 0.11418 0.0
H1197 H 0.25119 0.28714 0.02186 0.0
H1198 H 0.24095 0.23304 0.11601 0.0
H1199 H 0.22864 0.22445 0.06728 0.0
H1200 H 0.22232 0.22963 0.11963 0.0
H1201 H 0.27614 0.27643 0.99876 0.0
H1202 H 0.26728 0.28512 0.9689 0.0
H1203 H 0.26295 0.26672 0.95294 0.0
C1204 C 0.75237 0.02727 0.94602 0.0
C1205 C 0.74853 0.037 0.96691 0.0
C1206 C 0.74599 0.01267 0.96203 0.0
C1207 C 0.73602 0.00798 1.00083 0.0
C1208 C 0.73265 0.01802 0.02327 0.0
C1209 C 0.73875 0.03235 0.00542 0.0
C1210 C 0.74947 0.00213 0.93634 0.0
C1211 C 0.72242 0.01356 0.06563 0.0
C1212 C 0.70652 0.96799 0.01253 0.0
C1213 C 0.71281 0.9628 0.04575 0.0
C1214 C 0.71417 0.98258 0.9967 0.0
C1215 C 0.72823 0.99234 0.01586 0.0
C1216 C 0.73455 0.98722 0.0501 0.0
C1217 C 0.72684 0.97237 0.06405 0.0
C1218 C 0.70724 0.98753 0.95918 0.0
C1219 C 0.74931 0.99745 0.07237 0.0
H1220 H 0.75996 0.03095 0.91621 0.0
H1221 H 0.736 0.04001 0.02199 0.0
H1222 H 0.7536 0.99694 0.96179 0.0
H1223 H 0.73927 0.99315 0.92009 0.0
H1224 H 0.75782 0.00764 0.90785 0.0
H1225 H 0.72214 0.02308 0.08184 0.0
H1226 H 0.71108 0.00532 0.05455 0.0
H1227 H 0.72588 0.00833 0.0932 0.0
H1228 H 0.69575 0.96049 0.99783 0.0
H1229 H 0.73167 0.9683 0.08974 0.0
H1230 H 0.71486 0.99246 0.92857 0.0
H1231 H 0.70518 0.99615 0.97395 0.0
H1232 H 0.69663 0.97832 0.9459 0.0
H1233 H 0.75794 0.00227 0.04447 0.0
H1234 H 0.75258 0.99177 0.09896 0.0
H1235 H 0.74896 0.00672 0.09017 0.0
C1236 C 0.6342 0.55943 0.26673 0.0
C1237 C 0.62365 0.56121 0.29173 0.0
C1238 C 0.6487 0.56573 0.28382 0.0
C1239 C 0.65248 0.57363 0.32732 0.0
C1240 C 0.64155 0.57455 0.35412 0.0
C1241 C 0.6273 0.56849 0.33565 0.0
C1242 C 0.66014 0.56474 0.25392 0.0
C1243 C 0.64506 0.58261 0.40112 0.0
C1244 C 0.6892 0.58591 0.38827 0.0
C1245 C 0.69693 0.60084 0.37584 0.0
C1246 C 0.67473 0.57672 0.37202 0.0
C1247 C 0.66812 0.58261 0.34189 0.0
C1248 C 0.67613 0.59757 0.32801 0.0
C1249 C 0.69036 0.60654 0.34563 0.0
C1250 C 0.66638 0.56088 0.38823 0.0
C1251 C 0.66957 0.60423 0.29527 0.0
H1252 H 0.63131 0.55376 0.23277 0.0
H1253 H 0.61904 0.56965 0.35535 0.0
H1254 H 0.66779 0.57574 0.23864 0.0
H1255 H 0.66679 0.56148 0.27606 0.0
H1256 H 0.65511 0.55676 0.22421 0.0
H1257 H 0.63497 0.58062 0.42035 0.0
H1258 H 0.65139 0.57919 0.42432 0.0
H1259 H 0.65202 0.59463 0.39483 0.0
H1260 H 0.69432 0.58152 0.41158 0.0
H1261 H 0.69643 0.61804 0.33538 0.0
H1262 H 0.66182 0.55342 0.35715 0.0
H1263 H 0.65692 0.55911 0.41069 0.0
H1264 H 0.6734 0.55775 0.4091 0.0
H1265 H 0.66527 0.5975 0.26248 0.0
H1266 H 0.6777 0.61571 0.28488 0.0
H1267 H 0.66016 0.60429 0.31315 0.0
C1268 C 0.41718 0.06285 0.24943 0.0
C1269 C 0.43009 0.06371 0.26698 0.0
C1270 C 0.41176 0.0715 0.26903 0.0
C1271 C 0.41926 0.08093 0.30778 0.0
C1272 C 0.43279 0.08251 0.32366 0.0
C1273 C 0.43813 0.07396 0.30266 0.0
C1274 C 0.39749 0.0698 0.2503 0.0
C1275 C 0.44102 0.09233 0.36521 0.0
C1276 C 0.40661 0.10749 0.34701 0.0
C1277 C 0.39599 0.09903 0.38129 0.0
C1278 C 0.41458 0.10191 0.32333 0.0
C1279 C 0.41202 0.08769 0.33505 0.0
C1280 C 0.40181 0.07943 0.37133 0.0
C1281 C 0.39379 0.08515 0.39364 0.0
C1282 C 0.4252 0.11091 0.28433 0.0
C1283 C 0.399 0.06435 0.38556 0.0
H1284 H 0.41102 0.055 0.22159 0.0
H1285 H 0.44809 0.07459 0.31644 0.0
H1286 H 0.3886 0.06379 0.27679 0.0
H1287 H 0.3985 0.08074 0.24475 0.0
H1288 H 0.39412 0.06361 0.2162 0.0
H1289 H 0.45223 0.09382 0.3691 0.0
H1290 H 0.44199 0.1033 0.36125 0.0
H1291 H 0.43479 0.08736 0.39851 0.0
H1292 H 0.40824 0.1182 0.3372 0.0
H1293 H 0.38563 0.07865 0.42034 0.0
H1294 H 0.4209 0.1054 0.24954 0.0
H1295 H 0.43603 0.11167 0.2899 0.0
H1296 H 0.42686 0.12223 0.28232 0.0
H1297 H 0.39386 0.05657 0.35547 0.0
H1298 H 0.39161 0.05991 0.41697 0.0
H1299 H 0.40955 0.06477 0.39396 0.0
C1300 C 0.9168 0.30062 0.32611 0.0
C1301 C 0.90653 0.29528 0.36336 0.0
C1302 C 0.92297 0.31518 0.31042 0.0
C1303 C 0.91891 0.32469 0.333 0.0
C1304 C 0.9084 0.31932 0.37024 0.0
C1305 C 0.90223 0.3046 0.38482 0.0
C1306 C 0.93405 0.32046 0.27029 0.0
C1307 C 0.90397 0.32924 0.39546 0.0
C1308 C 0.94815 0.36484 0.32528 0.0
C1309 C 0.94283 0.36984 0.28821 0.0
C1310 C 0.94013 0.35031 0.34155 0.0
C1311 C 0.92655 0.34048 0.31964 0.0
C1312 C 0.92095 0.34553 0.28282 0.0
C1313 C 0.92913 0.36025 0.26772 0.0
C1314 C 0.94638 0.34539 0.38132 0.0
C1315 C 0.90658 0.33528 0.25833 0.0
H1316 H 0.92003 0.29339 0.30907 0.0
H1317 H 0.89426 0.30046 0.41355 0.0
H1318 H 0.93075 0.32558 0.24187 0.0
H1319 H 0.94498 0.32901 0.28366 0.0
H1320 H 0.93522 0.3114 0.25439 0.0
H1321 H 0.89505 0.32316 0.42185 0.0
H1322 H 0.91365 0.33813 0.41422 0.0
H1323 H 0.90022 0.33458 0.3693 0.0
H1324 H 0.95867 0.3723 0.34161 0.0
H1325 H 0.92501 0.36413 0.23911 0.0
H1326 H 0.94915 0.33714 0.36762 0.0
H1327 H 0.93809 0.34 0.40995 0.0
H1328 H 0.95648 0.35469 0.39702 0.0
H1329 H 0.90764 0.32664 0.2389 0.0
H1330 H 0.90327 0.34114 0.23261 0.0
H1331 H 0.89767 0.32962 0.28497 0.0
C1332 C 0.68138 0.09468 0.41193 0.0
C1333 C 0.69262 0.10905 0.40209 0.0
C1334 C 0.66756 0.08887 0.39031 0.0
C1335 C 0.66494 0.09768 0.35801 0.0
C1336 C 0.67584 0.11259 0.3509 0.0
C1337 C 0.68962 0.11813 0.37311 0.0
C1338 C 0.65616 0.07296 0.39938 0.0
C1339 C 0.67336 0.12237 0.3173 0.0
C1340 C 0.63841 0.07349 0.26336 0.0
C1341 C 0.62494 0.07075 0.28258 0.0
C1342 C 0.65173 0.08332 0.2855 0.0
C1343 C 0.65153 0.09057 0.3278 0.0
C1344 C 0.63808 0.08896 0.34463 0.0
C1345 C 0.62489 0.07902 0.32176 0.0
C1346 C 0.66588 0.08489 0.26602 0.0
C1347 C 0.63745 0.09669 0.3891 0.0
H1348 H 0.68362 0.08768 0.43472 0.0
H1349 H 0.69828 0.12927 0.36551 0.0
H1350 H 0.6454 0.07195 0.40859 0.0
H1351 H 0.65454 0.06642 0.36657 0.0
H1352 H 0.65943 0.06805 0.42864 0.0
H1353 H 0.68155 0.1342 0.32288 0.0
H1354 H 0.67437 0.11947 0.28006 0.0
H1355 H 0.66213 0.12075 0.32165 0.0
H1356 H 0.6385 0.06724 0.23275 0.0
H1357 H 0.6145 0.07704 0.33654 0.0
H1358 H 0.66985 0.07922 0.29012 0.0
H1359 H 0.67457 0.09665 0.26435 0.0
H1360 H 0.6644 0.08003 0.2299 0.0
H1361 H 0.63843 0.09092 0.42079 0.0
H1362 H 0.62691 0.09676 0.39177 0.0
H1363 H 0.64672 0.10821 0.39016 0.0
C1364 C 0.91549 0.61508 0.34547 0.0
C1365 C 0.90563 0.6107 0.38373 0.0
C1366 C 0.92211 0.60687 0.33233 0.0
C1367 C 0.91912 0.59425 0.3591 0.0
C1368 C 0.909 0.58965 0.39745 0.0
C1369 C 0.90217 0.59785 0.4089 0.0
C1370 C 0.93257 0.61191 0.29048 0.0
C1371 C 0.90584 0.57645 0.42749 0.0
C1372 C 0.9305 0.56797 0.30729 0.0
C1373 C 0.94456 0.57355 0.32706 0.0
C1374 C 0.92198 0.57455 0.3175 0.0
C1375 C 0.92755 0.58666 0.34924 0.0
C1376 C 0.9416 0.59205 0.37018 0.0
C1377 C 0.95002 0.58555 0.35827 0.0
C1378 C 0.90722 0.5688 0.29358 0.0
C1379 C 0.94778 0.60473 0.40499 0.0
H1380 H 0.91797 0.62492 0.32556 0.0
H1381 H 0.89452 0.5945 0.4385 0.0
H1382 H 0.94394 0.61574 0.30315 0.0
H1383 H 0.9296 0.60262 0.26562 0.0
H1384 H 0.93254 0.62105 0.27058 0.0
H1385 H 0.89712 0.57389 0.45442 0.0
H1386 H 0.90238 0.56664 0.40466 0.0
H1387 H 0.91604 0.57857 0.44624 0.0
H1388 H 0.92632 0.55868 0.28313 0.0
H1389 H 0.96082 0.58973 0.37407 0.0
H1390 H 0.9073 0.57763 0.2715 0.0
H1391 H 0.89844 0.5656 0.32068 0.0
H1392 H 0.90436 0.55914 0.27047 0.0
H1393 H 0.94954 0.61488 0.38684 0.0
H1394 H 0.95843 0.6069 0.42055 0.0
H1395 H 0.93983 0.60241 0.43437 0.0
C1396 C 0.42248 0.35673 0.28247 0.0
C1397 C 0.43328 0.36968 0.30412 0.0
C1398 C 0.41768 0.34299 0.30382 0.0
C1399 C 0.42375 0.34226 0.34809 0.0
C1400 C 0.43529 0.35522 0.36866 0.0
C1401 C 0.43998 0.3688 0.34625 0.0
C1402 C 0.40549 0.32937 0.28042 0.0
C1403 C 0.442 0.35487 0.41585 0.0
C1404 C 0.39657 0.31077 0.42491 0.0
C1405 C 0.40079 0.30021 0.41718 0.0
C1406 C 0.40445 0.32479 0.40448 0.0
C1407 C 0.41676 0.32824 0.3752 0.0
C1408 C 0.42152 0.31787 0.36918 0.0
C1409 C 0.41349 0.30395 0.39053 0.0
C1410 C 0.39915 0.33564 0.41235 0.0
C1411 C 0.43457 0.32118 0.33812 0.0
H1412 H 0.41737 0.35736 0.24966 0.0
H1413 H 0.44838 0.37881 0.36305 0.0
H1414 H 0.4084 0.32055 0.27896 0.0
H1415 H 0.39527 0.32513 0.30181 0.0
H1416 H 0.40316 0.33158 0.2437 0.0
H1417 H 0.45215 0.36548 0.42373 0.0
H1418 H 0.43391 0.3526 0.44472 0.0
H1419 H 0.44471 0.34591 0.41647 0.0
H1420 H 0.3868 0.30793 0.4458 0.0
H1421 H 0.41675 0.29576 0.38439 0.0
H1422 H 0.39499 0.33754 0.37833 0.0
H1423 H 0.40839 0.3464 0.42428 0.0
H1424 H 0.39019 0.33169 0.43921 0.0
H1425 H 0.43173 0.32159 0.30031 0.0
H1426 H 0.43792 0.31271 0.34174 0.0
H1427 H 0.44412 0.3321 0.34705 0.0
C1428 C 0.30943 0.89868 0.5759 0.0
C1429 C 0.29682 0.88686 0.59593 0.0
C1430 C 0.32312 0.90455 0.5986 0.0
C1431 C 0.32418 0.89845 0.64239 0.0
C1432 C 0.31175 0.88574 0.66068 0.0
C1433 C 0.29818 0.88006 0.63714 0.0
C1434 C 0.33618 0.91801 0.57759 0.0
C1435 C 0.31249 0.87883 0.70699 0.0
C1436 C 0.36321 0.91383 0.68812 0.0
C1437 C 0.36482 0.92571 0.71564 0.0
C1438 C 0.34973 0.90424 0.66598 0.0
C1439 C 0.33768 0.90664 0.67173 0.0
C1440 C 0.339 0.91799 0.70221 0.0
C1441 C 0.35257 0.92741 0.72373 0.0
C1442 C 0.3487 0.89218 0.6341 0.0
C1443 C 0.32634 0.92081 0.70975 0.0
H1444 H 0.30845 0.90388 0.54383 0.0
H1445 H 0.28846 0.87086 0.65267 0.0
H1446 H 0.33891 0.92774 0.60016 0.0
H1447 H 0.34599 0.91662 0.57689 0.0
H1448 H 0.33397 0.92034 0.54085 0.0
H1449 H 0.30276 0.86768 0.71194 0.0
H1450 H 0.32263 0.87802 0.70875 0.0
H1451 H 0.31286 0.88587 0.73707 0.0
H1452 H 0.37266 0.91247 0.68182 0.0
H1453 H 0.35374 0.93651 0.74528 0.0
H1454 H 0.34865 0.89527 0.59635 0.0
H1455 H 0.33829 0.88172 0.64057 0.0
H1456 H 0.35812 0.89027 0.6394 0.0
H1457 H 0.32394 0.92469 0.67599 0.0
H1458 H 0.32877 0.92922 0.73769 0.0
H1459 H 0.31624 0.91048 0.72004 0.0
C1460 C 0.07904 0.44169 0.68592 0.0
C1461 C 0.0666 0.43249 0.71332 0.0
C1462 C 0.08733 0.43617 0.66405 0.0
C1463 C 0.08315 0.4212 0.67049 0.0
C1464 C 0.07114 0.41213 0.70055 0.0
C1465 C 0.06292 0.41786 0.72128 0.0
C1466 C 0.09998 0.44612 0.63191 0.0
C1467 C 0.06653 0.39617 0.70906 0.0
C1468 C 0.08967 0.39921 0.5768 0.0
C1469 C 0.10129 0.39809 0.59688 0.0
C1470 C 0.08425 0.40748 0.59908 0.0
C1471 C 0.09044 0.41456 0.6429 0.0
C1472 C 0.10264 0.41404 0.66217 0.0
C1473 C 0.10802 0.40588 0.63865 0.0
C1474 C 0.07139 0.40802 0.57696 0.0
C1475 C 0.10942 0.42131 0.70906 0.0
H1476 H 0.08185 0.453 0.67957 0.0
H1477 H 0.05336 0.41077 0.74275 0.0
H1478 H 0.10991 0.44536 0.64054 0.0
H1479 H 0.09701 0.44252 0.59442 0.0
H1480 H 0.1028 0.45781 0.63472 0.0
H1481 H 0.05788 0.39105 0.73689 0.0
H1482 H 0.06218 0.38986 0.67554 0.0
H1483 H 0.07615 0.39515 0.71999 0.0
H1484 H 0.08454 0.39326 0.54432 0.0
H1485 H 0.11698 0.40498 0.65435 0.0
H1486 H 0.07367 0.41955 0.57523 0.0
H1487 H 0.06144 0.40172 0.59937 0.0
H1488 H 0.0689 0.40329 0.54049 0.0
H1489 H 0.11165 0.43282 0.70964 0.0
H1490 H 0.11985 0.42134 0.71636 0.0
H1491 H 0.10155 0.41532 0.73832 0.0
C1492 C 0.58168 0.63207 0.66664 0.0
C1493 C 0.57139 0.62686 0.70382 0.0
C1494 C 0.58822 0.64672 0.65142 0.0
C1495 C 0.58454 0.65644 0.67448 0.0
C1496 C 0.57402 0.65121 0.71172 0.0
C1497 C 0.56746 0.63641 0.72575 0.0
C1498 C 0.59926 0.65185 0.61117 0.0
C1499 C 0.56999 0.66134 0.7375 0.0
C1500 C 0.61379 0.69669 0.66777 0.0
C1501 C 0.60822 0.70187 0.63197 0.0
C1502 C 0.60595 0.68202 0.6829 0.0
C1503 C 0.59233 0.67224 0.66111 0.0
C1504 C 0.58658 0.67742 0.62515 0.0
C1505 C 0.59457 0.69225 0.61123 0.0
C1506 C 0.61235 0.67694 0.7218 0.0
C1507 C 0.57219 0.66722 0.6007 0.0
H1508 H 0.58464 0.62467 0.64931 0.0
H1509 H 0.5595 0.63238 0.75452 0.0
H1510 H 0.59606 0.65711 0.58291 0.0
H1511 H 0.61026 0.66026 0.62444 0.0
H1512 H 0.60021 0.64268 0.59512 0.0
H1513 H 0.5612 0.65543 0.76441 0.0
H1514 H 0.57986 0.67017 0.7557 0.0
H1515 H 0.56621 0.66677 0.71173 0.0
H1516 H 0.62429 0.70416 0.68421 0.0
H1517 H 0.59025 0.69625 0.58354 0.0
H1518 H 0.61481 0.66854 0.70752 0.0
H1519 H 0.60422 0.67168 0.75098 0.0
H1520 H 0.62264 0.68614 0.73692 0.0
H1521 H 0.57308 0.65839 0.58186 0.0
H1522 H 0.56901 0.67309 0.57453 0.0
H1523 H 0.56325 0.6618 0.62739 0.0
C1524 C 0.35165 0.41689 0.74128 0.0
C1525 C 0.36208 0.43188 0.73724 0.0
C1526 C 0.33727 0.41135 0.72441 0.0
C1527 C 0.33327 0.42105 0.70279 0.0
C1528 C 0.34355 0.43631 0.7006 0.0
C1529 C 0.35788 0.44157 0.718 0.0
C1530 C 0.32656 0.39501 0.72784 0.0
C1531 C 0.33964 0.44696 0.67789 0.0
C1532 C 0.30254 0.40144 0.61353 0.0
C1533 C 0.29018 0.3983 0.64114 0.0
C1534 C 0.31678 0.40972 0.63226 0.0
C1535 C 0.31864 0.4149 0.67973 0.0
C1536 C 0.30626 0.41262 0.70659 0.0
C1537 C 0.29214 0.40434 0.6869 0.0
C1538 C 0.32975 0.41206 0.60233 0.0
C1539 C 0.30782 0.41805 0.75721 0.0
H1540 H 0.35485 0.40938 0.75638 0.0
H1541 H 0.36593 0.45318 0.71477 0.0
H1542 H 0.31618 0.39298 0.74501 0.0
H1543 H 0.32374 0.39018 0.69158 0.0
H1544 H 0.33111 0.38914 0.74846 0.0
H1545 H 0.34829 0.45861 0.68377 0.0
H1546 H 0.33821 0.4449 0.63899 0.0
H1547 H 0.32904 0.44528 0.69217 0.0
H1548 H 0.30107 0.39687 0.57801 0.0
H1549 H 0.2826 0.40199 0.70831 0.0
H1550 H 0.33441 0.40543 0.61702 0.0
H1551 H 0.33858 0.42378 0.60337 0.0
H1552 H 0.32662 0.4088 0.56462 0.0
H1553 H 0.31073 0.41135 0.78061 0.0
H1554 H 0.29749 0.41725 0.77073 0.0
H1555 H 0.31684 0.42965 0.76003 0.0
C1556 C 0.5879 0.9026 0.58787 0.0
C1557 C 0.58636 0.88918 0.60301 0.0
C1558 C 0.58018 0.9086 0.61042 0.0
C1559 C 0.57063 0.90093 0.64881 0.0
C1560 C 0.56807 0.88678 0.66149 0.0
C1561 C 0.57602 0.88107 0.63847 0.0
C1562 C 0.58314 0.92369 0.59553 0.0
C1563 C 0.55776 0.87815 0.7016 0.0
C1564 C 0.57034 0.92745 0.73897 0.0
C1565 C 0.55803 0.92833 0.72437 0.0
C1566 C 0.57398 0.91773 0.71675 0.0
C1567 C 0.56504 0.90867 0.67917 0.0
C1568 C 0.55189 0.90858 0.66717 0.0
C1569 C 0.54854 0.91846 0.68994 0.0
C1570 C 0.58804 0.91806 0.73097 0.0
C1571 C 0.54196 0.89888 0.62791 0.0
H1572 H 0.5958 0.90886 0.56022 0.0
H1573 H 0.57471 0.87062 0.65008 0.0
H1574 H 0.57264 0.92365 0.59007 0.0
H1575 H 0.58928 0.93174 0.62419 0.0
H1576 H 0.58972 0.92754 0.56224 0.0
H1577 H 0.55485 0.8664 0.70103 0.0
H1578 H 0.56314 0.88297 0.73615 0.0
H1579 H 0.54749 0.87872 0.6998 0.0
H1580 H 0.57764 0.93496 0.76588 0.0
H1581 H 0.53895 0.91904 0.6787 0.0
H1582 H 0.59622 0.92299 0.70177 0.0
H1583 H 0.58598 0.90673 0.73689 0.0
H1584 H 0.59294 0.9246 0.76384 0.0
H1585 H 0.54705 0.90359 0.59292 0.0
H1586 H 0.53095 0.89799 0.62917 0.0
H1587 H 0.54051 0.88767 0.63008 0.0
C1588 C 0.07013 0.64222 0.77192 0.0
C1589 C 0.06902 0.62935 0.75305 0.0
C1590 C 0.07716 0.65548 0.74643 0.0
C1591 C 0.08313 0.65581 0.70091 0.0
C1592 C 0.08279 0.64305 0.68289 0.0
C1593 C 0.07576 0.62994 0.7093 0.0
C1594 C 0.07746 0.66893 0.7671 0.0
C1595 C 0.08906 0.64299 0.63455 0.0
C1596 C 0.08288 0.68429 0.61879 0.0
C1597 C 0.09735 0.69597 0.62337 0.0
C1598 C 0.07831 0.67086 0.64203 0.0
C1599 C 0.08846 0.66914 0.67072 0.0
C1600 C 0.10329 0.68062 0.67338 0.0
C1601 C 0.10758 0.69392 0.64952 0.0
C1602 C 0.06242 0.65879 0.63785 0.0
C1603 C 0.11442 0.67916 0.7035 0.0
H1604 H 0.065 0.64182 0.80583 0.0
H1605 H 0.07493 0.62 0.69457 0.0
H1606 H 0.08879 0.67853 0.76577 0.0
H1607 H 0.07033 0.67173 0.74555 0.0
H1608 H 0.07355 0.6672 0.80456 0.0
H1609 H 0.08956 0.63279 0.6283 0.0
H1610 H 0.08207 0.64385 0.6065 0.0
H1611 H 0.10029 0.65263 0.63059 0.0
H1612 H 0.07496 0.68581 0.59839 0.0
H1613 H 0.1188 0.70293 0.65312 0.0
H1614 H 0.05687 0.65711 0.67281 0.0
H1615 H 0.06177 0.64825 0.62785 0.0
H1616 H 0.05627 0.66141 0.61103 0.0
H1617 H 0.11169 0.67908 0.7417 0.0
H1618 H 0.12582 0.68835 0.69741 0.0
H1619 H 0.11406 0.6686 0.69596 0.0
C1620 C 0.10729 0.34373 0.71191 0.0
C1621 C 0.09672 0.34329 0.6803 0.0
C1622 C 0.10343 0.3381 0.75825 0.0
C1623 C 0.08864 0.33191 0.77355 0.0
C1624 C 0.07788 0.33134 0.74172 0.0
C1625 C 0.08204 0.33701 0.69536 0.0
C1626 C 0.11523 0.33881 0.79088 0.0
C1627 C 0.062 0.32482 0.75678 0.0
C1628 C 0.07798 0.30538 0.8774 0.0
C1629 C 0.07937 0.31441 0.91625 0.0
C1630 C 0.08047 0.31082 0.83069 0.0
C1631 C 0.08448 0.32567 0.82246 0.0
C1632 C 0.08548 0.33474 0.86138 0.0
C1633 C 0.0829 0.32899 0.90791 0.0
C1634 C 0.07929 0.30077 0.79029 0.0
C1635 C 0.0897 0.35063 0.85398 0.0
H1636 H 0.11866 0.34859 0.70055 0.0
H1637 H 0.07386 0.33675 0.67119 0.0
H1638 H 0.11597 0.34513 0.82346 0.0
H1639 H 0.11233 0.32755 0.80231 0.0
H1640 H 0.12624 0.34407 0.77361 0.0
H1641 H 0.05499 0.32529 0.72794 0.0
H1642 H 0.05749 0.31316 0.76754 0.0
H1643 H 0.06126 0.33082 0.78823 0.0
H1644 H 0.07516 0.29406 0.88351 0.0
H1645 H 0.08395 0.33599 0.93778 0.0
H1646 H 0.09026 0.3049 0.77365 0.0
H1647 H 0.0718 0.30073 0.76232 0.0
H1648 H 0.07515 0.28927 0.80233 0.0
H1649 H 0.10116 0.35691 0.84037 0.0
H1650 H 0.08897 0.3559 0.88737 0.0
H1651 H 0.08245 0.35144 0.82683 0.0
C1652 C 0.66479 0.76295 0.95388 0.0
C1653 C 0.67569 0.77706 0.96804 0.0
C1654 C 0.65948 0.76021 0.9069 0.0
C1655 C 0.66519 0.77189 0.87343 0.0
C1656 C 0.67578 0.78628 0.88808 0.0
C1657 C 0.68092 0.78868 0.93518 0.0
C1658 C 0.64815 0.74473 0.89264 0.0
C1659 C 0.68204 0.79904 0.85361 0.0
C1660 C 0.66336 0.76177 0.74263 0.0
C1661 C 0.65086 0.76221 0.7274 0.0
C1662 C 0.66825 0.76506 0.78998 0.0
C1663 C 0.66047 0.76895 0.82273 0.0
C1664 C 0.64807 0.76979 0.80719 0.0
C1665 C 0.6434 0.76637 0.75975 0.0
C1666 C 0.68153 0.76405 0.80524 0.0
C1667 C 0.63958 0.77402 0.84089 0.0
H1668 H 0.66075 0.75392 0.97907 0.0
H1669 H 0.68934 0.79962 0.94593 0.0
H1670 H 0.63848 0.74462 0.87618 0.0
H1671 H 0.65291 0.7406 0.86555 0.0
H1672 H 0.64433 0.73703 0.92337 0.0
H1673 H 0.6895 0.80969 0.87133 0.0
H1674 H 0.68829 0.79717 0.82526 0.0
H1675 H 0.67301 0.79988 0.836 0.0
H1676 H 0.66914 0.75851 0.71782 0.0
H1677 H 0.63373 0.76675 0.74816 0.0
H1678 H 0.67832 0.75556 0.83339 0.0
H1679 H 0.68999 0.77469 0.82069 0.0
H1680 H 0.68654 0.7612 0.77521 0.0
H1681 H 0.63477 0.76579 0.86996 0.0
H1682 H 0.63054 0.77473 0.82274 0.0
H1683 H 0.64709 0.78481 0.85764 0.0
C1684 C 0.23806 0.90073 0.90525 0.0
C1685 C 0.23377 0.91104 0.91673 0.0
C1686 C 0.24099 0.89874 0.85783 0.0
C1687 C 0.23989 0.90748 0.82132 0.0
C1688 C 0.23593 0.91817 0.83301 0.0
C1689 C 0.23278 0.91972 0.8805 0.0
C1690 C 0.24499 0.88708 0.84667 0.0
C1691 C 0.23492 0.9279 0.79532 0.0
C1692 C 0.25941 0.90941 0.7052 0.0
C1693 C 0.24774 0.89907 0.67716 0.0
C1694 C 0.25695 0.91265 0.75166 0.0
C1695 C 0.24252 0.90517 0.77077 0.0
C1696 C 0.23063 0.89508 0.74202 0.0
C1697 C 0.23337 0.89225 0.69539 0.0
C1698 C 0.26986 0.92372 0.7808 0.0
C1699 C 0.2151 0.88678 0.76122 0.0
H1700 H 0.23878 0.89398 0.93316 0.0
H1701 H 0.22958 0.9278 0.88931 0.0
H1702 H 0.23678 0.87887 0.82174 0.0
H1703 H 0.25587 0.89214 0.82875 0.0
H1704 H 0.24542 0.88125 0.87911 0.0
H1705 H 0.2324 0.93616 0.81063 0.0
H1706 H 0.24546 0.93379 0.7754 0.0
H1707 H 0.2262 0.92107 0.76927 0.0
H1708 H 0.27054 0.9147 0.69123 0.0
H1709 H 0.22433 0.88416 0.67402 0.0
H1710 H 0.27174 0.91809 0.81116 0.0
H1711 H 0.26748 0.93209 0.79589 0.0
H1712 H 0.28016 0.92944 0.75951 0.0
H1713 H 0.2146 0.87974 0.79149 0.0
H1714 H 0.20702 0.87968 0.73381 0.0
H1715 H 0.21176 0.89459 0.77497 0.0
C1716 C 0.31409 0.0997 0.09086 0.0
C1717 C 0.32117 0.09574 0.05636 0.0
C1718 C 0.319 0.10232 0.13824 0.0
C1719 C 0.33132 0.101 0.15146 0.0
C1720 C 0.33876 0.09741 0.1165 0.0
C1721 C 0.33358 0.0948 0.06935 0.0
C1722 C 0.31078 0.10616 0.17439 0.0
C1723 C 0.35201 0.09601 0.12914 0.0
C1724 C 0.35187 0.11915 0.26554 0.0
C1725 C 0.34654 0.10713 0.29689 0.0
C1726 C 0.3469 0.11734 0.21831 0.0
C1727 C 0.3363 0.10317 0.20198 0.0
C1728 C 0.33061 0.09105 0.23375 0.0
C1729 C 0.33582 0.09317 0.28086 0.0
C1730 C 0.35321 0.13054 0.18563 0.0
C1731 C 0.31923 0.07579 0.21771 0.0
H1732 H 0.30446 0.10041 0.0811 0.0
H1733 H 0.33907 0.09171 0.04289 0.0
H1734 H 0.30606 0.09751 0.20226 0.0
H1735 H 0.31845 0.11667 0.19235 0.0
H1736 H 0.30171 0.10722 0.15805 0.0
H1737 H 0.35685 0.09363 0.09755 0.0
H1738 H 0.3606 0.10632 0.14598 0.0
H1739 H 0.34882 0.08702 0.15547 0.0
H1740 H 0.36018 0.12998 0.27767 0.0
H1741 H 0.33168 0.08385 0.30487 0.0
H1742 H 0.34422 0.13192 0.17028 0.0
H1743 H 0.35902 0.12881 0.15549 0.0
H1744 H 0.36107 0.14088 0.20421 0.0
H1745 H 0.30945 0.07591 0.20319 0.0
H1746 H 0.3156 0.06762 0.2471 0.0
H1747 H 0.32381 0.07211 0.18865 0.0
C1748 C 0.8813 0.23093 0.23553 0.0
C1749 C 0.89258 0.23532 0.26931 0.0
C1750 C 0.88334 0.22797 0.18831 0.0
C1751 C 0.897 0.22943 0.17456 0.0
C1752 C 0.90834 0.2336 0.20872 0.0
C1753 C 0.90599 0.23648 0.25575 0.0
C1754 C 0.87095 0.22347 0.15298 0.0
C1755 C 0.92304 0.23522 0.19541 0.0
C1756 C 0.89875 0.20964 0.06389 0.0
C1757 C 0.90481 0.22108 0.03032 0.0
C1758 C 0.89599 0.21218 0.11076 0.0
C1759 C 0.8994 0.22652 0.12448 0.0
C1760 C 0.90527 0.23807 0.09055 0.0
C1761 C 0.9079 0.23521 0.04376 0.0
C1762 C 0.88964 0.19955 0.14578 0.0
C1763 C 0.90902 0.25351 0.10393 0.0
H1764 H 0.87091 0.23004 0.24579 0.0
H1765 H 0.91476 0.23993 0.28168 0.0
H1766 H 0.87456 0.23162 0.12361 0.0
H1767 H 0.86803 0.21268 0.13687 0.0
H1768 H 0.86093 0.22259 0.16957 0.0
H1769 H 0.93065 0.23838 0.22628 0.0
H1770 H 0.92144 0.22471 0.18057 0.0
H1771 H 0.92834 0.24372 0.16729 0.0
H1772 H 0.89632 0.19868 0.0537 0.0
H1773 H 0.91261 0.24408 0.01796 0.0
H1774 H 0.87932 0.1982 0.16141 0.0
H1775 H 0.89749 0.20196 0.17551 0.0
H1776 H 0.88723 0.18897 0.12907 0.0
H1777 H 0.89915 0.25344 0.11854 0.0
H1778 H 0.91319 0.26118 0.07314 0.0
H1779 H 0.91754 0.25779 0.13225 0.0
C1780 C 0.74645 0.66048 0.26927 0.0
C1781 C 0.74862 0.64865 0.2798 0.0
C1782 C 0.7489 0.66639 0.22309 0.0
C1783 C 0.75383 0.66043 0.18702 0.0
C1784 C 0.75607 0.64851 0.1976 0.0
C1785 C 0.75335 0.6427 0.24379 0.0
C1786 C 0.74625 0.67902 0.21291 0.0
C1787 C 0.76153 0.642 0.16027 0.0
C1788 C 0.74969 0.66731 0.05659 0.0
C1789 C 0.76378 0.67904 0.04614 0.0
C1790 C 0.7462 0.66126 0.10258 0.0
C1791 C 0.75714 0.66696 0.13854 0.0
C1792 C 0.77141 0.6787 0.12795 0.0
C1793 C 0.77452 0.68466 0.08196 0.0
C1794 C 0.73082 0.64883 0.11278 0.0
C1795 C 0.78343 0.68492 0.16513 0.0
H1796 H 0.74271 0.66503 0.29699 0.0
H1797 H 0.75508 0.63356 0.25184 0.0
H1798 H 0.75668 0.68883 0.20157 0.0
H1799 H 0.73831 0.67609 0.18316 0.0
H1800 H 0.74191 0.68203 0.24442 0.0
H1801 H 0.76259 0.63266 0.17424 0.0
H1802 H 0.75387 0.63805 0.1295 0.0
H1803 H 0.77243 0.65058 0.14679 0.0
H1804 H 0.74134 0.66301 0.02902 0.0
H1805 H 0.78545 0.69371 0.07396 0.0
H1806 H 0.72591 0.65193 0.1424 0.0
H1807 H 0.73122 0.63891 0.12434 0.0
H1808 H 0.72349 0.6459 0.08123 0.0
H1809 H 0.77996 0.6891 0.19591 0.0
H1810 H 0.79396 0.69404 0.15103 0.0
H1811 H 0.78542 0.67612 0.17864 0.0
C1812 C 0.91317 0.67426 0.05634 0.0
C1813 C 0.90503 0.68026 0.03666 0.0
C1814 C 0.91052 0.66875 0.10314 0.0
C1815 C 0.8995 0.66929 0.13088 0.0
C1816 C 0.89102 0.67501 0.11072 0.0
C1817 C 0.89387 0.6804 0.06389 0.0
C1818 C 0.91972 0.66263 0.12327 0.0
C1819 C 0.87915 0.67574 0.13899 0.0
C1820 C 0.88405 0.64426 0.2388 0.0
C1821 C 0.89184 0.65386 0.27635 0.0
C1822 C 0.88646 0.64912 0.19138 0.0
C1823 C 0.89689 0.66398 0.18112 0.0
C1824 C 0.90469 0.67377 0.21889 0.0
C1825 C 0.90209 0.66859 0.26609 0.0
C1826 C 0.8779 0.63833 0.15222 0.0
C1827 C 0.91585 0.68972 0.20938 0.0
H1828 H 0.92184 0.67418 0.03556 0.0
H1829 H 0.88756 0.68505 0.04897 0.0
H1830 H 0.92611 0.66932 0.15429 0.0
H1831 H 0.91248 0.65122 0.13618 0.0
H1832 H 0.92751 0.66255 0.09664 0.0
H1833 H 0.87329 0.68017 0.11774 0.0
H1834 H 0.87096 0.66461 0.15205 0.0
H1835 H 0.88406 0.68285 0.1707 0.0
H1836 H 0.87613 0.63284 0.24641 0.0
H1837 H 0.90817 0.67604 0.29491 0.0
H1838 H 0.88561 0.63753 0.12696 0.0
H1839 H 0.87149 0.64227 0.13174 0.0
H1840 H 0.87018 0.62715 0.16616 0.0
H1841 H 0.9247 0.69045 0.18587 0.0
H1842 H 0.92094 0.69593 0.24263 0.0
H1843 H 0.91052 0.69512 0.19047 0.0
C1844 C 0.33408 0.2446 0.08962 0.0
C1845 C 0.32298 0.23016 0.07961 0.0
C1846 C 0.34006 0.24859 0.13559 0.0
C1847 C 0.33495 0.23782 0.17206 0.0
C1848 C 0.32387 0.22318 0.16191 0.0
C1849 C 0.31795 0.21956 0.11588 0.0
C1850 C 0.35178 0.26433 0.14523 0.0
C1851 C 0.3183 0.21133 0.19962 0.0
C1852 C 0.35976 0.24372 0.27787 0.0
C1853 C 0.35325 0.24797 0.31349 0.0
C1854 C 0.35396 0.24049 0.23166 0.0
C1855 C 0.34144 0.2417 0.22059 0.0
C1856 C 0.33492 0.24617 0.25621 0.0
C1857 C 0.34086 0.24917 0.30243 0.0
C1858 C 0.36111 0.23557 0.19487 0.0
C1859 C 0.32165 0.24772 0.24551 0.0
H1860 H 0.3379 0.25285 0.06175 0.0
H1861 H 0.30938 0.20838 0.10825 0.0
H1862 H 0.34814 0.26895 0.17429 0.0
H1863 H 0.36205 0.26474 0.15732 0.0
H1864 H 0.35432 0.27144 0.11327 0.0
H1865 H 0.30967 0.20047 0.18585 0.0
H1866 H 0.32755 0.21015 0.21364 0.0
H1867 H 0.31366 0.21446 0.22998 0.0
H1868 H 0.36932 0.24273 0.28624 0.0
H1869 H 0.33585 0.25251 0.32982 0.0
H1870 H 0.36461 0.24305 0.16367 0.0
H1871 H 0.35305 0.22438 0.18195 0.0
H1872 H 0.37088 0.23534 0.20914 0.0
H1873 H 0.32408 0.2554 0.21525 0.0
H1874 H 0.31823 0.25184 0.27662 0.0
H1875 H 0.31226 0.23691 0.23469 0.0
C1876 C 0.76986 0.09836 0.09457 0.0
C1877 C 0.75884 0.093 0.05962 0.0
C1878 C 0.76703 0.10137 0.14083 0.0
C1879 C 0.75276 0.09866 0.15264 0.0
C1880 C 0.74156 0.09313 0.11755 0.0
C1881 C 0.74478 0.09051 0.07127 0.0
C1882 C 0.77935 0.10755 0.17695 0.0
C1883 C 0.72615 0.08991 0.12898 0.0
C1884 C 0.74239 0.09487 0.28389 0.0
C1885 C 0.74391 0.10867 0.29345 0.0
C1886 C 0.74508 0.09137 0.23802 0.0
C1887 C 0.74968 0.10205 0.20131 0.0
C1888 C 0.7514 0.11606 0.21107 0.0
C1889 C 0.74836 0.11914 0.25687 0.0
C1890 C 0.7429 0.07623 0.22871 0.0
C1891 C 0.75654 0.12784 0.17319 0.0
H1892 H 0.78075 0.10031 0.08562 0.0
H1893 H 0.7362 0.08622 0.04444 0.0
H1894 H 0.7812 0.11832 0.1902 0.0
H1895 H 0.77628 0.10007 0.20807 0.0
H1896 H 0.78985 0.10913 0.16196 0.0
H1897 H 0.71857 0.08516 0.09814 0.0
H1898 H 0.72163 0.08207 0.15922 0.0
H1899 H 0.72637 0.10016 0.14012 0.0
H1900 H 0.7389 0.08674 0.31207 0.0
H1901 H 0.74965 0.12988 0.26419 0.0
H1902 H 0.7534 0.07712 0.21665 0.0
H1903 H 0.73475 0.0708 0.19972 0.0
H1904 H 0.73901 0.06909 0.26081 0.0
H1905 H 0.76737 0.13016 0.15895 0.0
H1906 H 0.75763 0.13828 0.18688 0.0
H1907 H 0.74867 0.12395 0.143 0.0
C1908 C 0.65366 0.89054 0.70877 0.0
C1909 C 0.64538 0.89688 0.69316 0.0
C1910 C 0.65955 0.89312 0.75501 0.0
C1911 C 0.65731 0.90248 0.78603 0.0
C1912 C 0.64948 0.9094 0.7697 0.0
C1913 C 0.64349 0.9064 0.72361 0.0
C1914 C 0.66769 0.88541 0.77124 0.0
C1915 C 0.64713 0.91969 0.8013 0.0
C1916 C 0.65901 0.89803 0.92005 0.0
C1917 C 0.67337 0.90919 0.93054 0.0
C1918 C 0.65369 0.89561 0.87304 0.0
C1919 C 0.66287 0.90477 0.83591 0.0
C1920 C 0.67733 0.91615 0.8465 0.0
C1921 C 0.68244 0.91813 0.89359 0.0
C1922 C 0.63828 0.88321 0.86304 0.0
C1923 C 0.68735 0.92633 0.80817 0.0
H1924 H 0.65503 0.88306 0.68552 0.0
H1925 H 0.6371 0.91133 0.71167 0.0
H1926 H 0.67885 0.89357 0.78409 0.0
H1927 H 0.66175 0.87801 0.80156 0.0
H1928 H 0.6688 0.87877 0.74243 0.0
H1929 H 0.64161 0.92489 0.78226 0.0
H1930 H 0.64028 0.91356 0.83239 0.0
H1931 H 0.65785 0.9285 0.81525 0.0
H1932 H 0.65198 0.89107 0.94849 0.0
H1933 H 0.69353 0.92686 0.90159 0.0
H1934 H 0.63863 0.87557 0.83642 0.0
H1935 H 0.63157 0.88767 0.84758 0.0
H1936 H 0.63269 0.87686 0.89562 0.0
H1937 H 0.68919 0.91989 0.78042 0.0
H1938 H 0.69822 0.93479 0.82243 0.0
H1939 H 0.68209 0.93199 0.79051 0.0
C1940 C 0.08162 0.74258 0.73136 0.0
C1941 C 0.09636 0.74853 0.71751 0.0
C1942 C 0.07798 0.74485 0.77757 0.0
C1943 C 0.08936 0.75338 0.8104 0.0
C1944 C 0.10426 0.7595 0.79637 0.0
C1945 C 0.10757 0.75695 0.75021 0.0
C1946 C 0.06197 0.73809 0.79134 0.0
C1947 C 0.11673 0.76882 0.83008 0.0
C1948 C 0.08171 0.77204 0.91327 0.0
C1949 C 0.08062 0.76306 0.95189 0.0
C1950 C 0.08433 0.76888 0.86702 0.0
C1951 C 0.08579 0.75635 0.85899 0.0
C1952 C 0.08447 0.74708 0.89769 0.0
C1953 C 0.08196 0.75059 0.94381 0.0
C1954 C 0.08582 0.77913 0.82686 0.0
C1955 C 0.08585 0.73357 0.89041 0.0
H1956 H 0.07292 0.73598 0.70631 0.0
H1957 H 0.11899 0.76158 0.73971 0.0
H1958 H 0.05962 0.73089 0.82292 0.0
H1959 H 0.05951 0.74686 0.80141 0.0
H1960 H 0.05444 0.73147 0.76205 0.0
H1961 H 0.12771 0.77272 0.81369 0.0
H1962 H 0.11597 0.77855 0.84153 0.0
H1963 H 0.11587 0.76241 0.86255 0.0
H1964 H 0.08069 0.7817 0.91926 0.0
H1965 H 0.08107 0.74359 0.97351 0.0
H1966 H 0.07779 0.77291 0.79829 0.0
H1967 H 0.09699 0.78402 0.811 0.0
H1968 H 0.08402 0.7882 0.83887 0.0
H1969 H 0.0779 0.72634 0.86299 0.0
H1970 H 0.08385 0.72713 0.92373 0.0
H1971 H 0.09705 0.73684 0.87718 0.0
C1972 C 0.23304 0.32801 0.95369 0.0
C1973 C 0.22477 0.31294 0.96401 0.0
C1974 C 0.23573 0.33301 0.90629 0.0
C1975 C 0.23022 0.32268 0.86847 0.0
C1976 C 0.22208 0.30745 0.87881 0.0
C1977 C 0.21936 0.30278 0.92639 0.0
C1978 C 0.2443 0.34936 0.89664 0.0
C1979 C 0.2162 0.29607 0.83961 0.0
C1980 C 0.22462 0.33552 0.74781 0.0
C1981 C 0.2375 0.33845 0.72355 0.0
C1982 C 0.22209 0.33031 0.79485 0.0
C1983 C 0.23261 0.32779 0.81806 0.0
C1984 C 0.2454 0.33021 0.79318 0.0
C1985 C 0.24774 0.33561 0.74627 0.0
C1986 C 0.20835 0.32792 0.82017 0.0
C1987 C 0.25674 0.3274 0.81644 0.0
H1988 H 0.23725 0.33589 0.98265 0.0
H1989 H 0.21307 0.29109 0.93412 0.0
H1990 H 0.25419 0.35211 0.87493 0.0
H1991 H 0.23744 0.35267 0.87579 0.0
H1992 H 0.24788 0.35595 0.92994 0.0
H1993 H 0.21054 0.28463 0.85367 0.0
H1994 H 0.20831 0.29754 0.81726 0.0
H1995 H 0.22535 0.29753 0.81608 0.0
H1996 H 0.21671 0.33778 0.73059 0.0
H1997 H 0.25773 0.33789 0.72774 0.0
H1998 H 0.21143 0.33519 0.85186 0.0
H1999 H 0.20191 0.3164 0.83301 0.0
H2000 H 0.20117 0.33023 0.7969 0.0
H2001 H 0.26169 0.33485 0.84738 0.0
H2002 H 0.2657 0.32914 0.79152 0.0
H2003 H 0.25144 0.31595 0.8301 0.0
C2004 C 0.00725 0.42617 0.59678 0.0
C2005 C 0.02026 0.439 0.60946 0.0
C2006 C 0.002 0.42392 0.54972 0.0
C2007 C 0.00993 0.4348 0.51473 0.0
C2008 C 0.02309 0.44775 0.52739 0.0
C2009 C 0.0281 0.44967 0.57454 0.0
C2010 C 0.98794 0.40994 0.53745 0.0
C2011 C 0.0318 0.45964 0.49122 0.0
C2012 C 0.00283 0.42376 0.38426 0.0
C2013 C 0.99275 0.42829 0.37196 0.0
C2014 C 0.00862 0.4259 0.43056 0.0
C2015 C 0.00428 0.43283 0.46513 0.0
C2016 C 0.99445 0.43782 0.45241 0.0
C2017 C 0.98877 0.43545 0.40603 0.0
C2018 C 0.01907 0.42042 0.44284 0.0
C2019 C 0.9897 0.44541 0.48808 0.0
H2020 H 0.00118 0.41787 0.6236 0.0
H2021 H 0.03817 0.45963 0.5841 0.0
H2022 H 0.9796 0.41265 0.52434 0.0
H2023 H 0.99001 0.40404 0.50835 0.0
H2024 H 0.98328 0.40241 0.56845 0.0
H2025 H 0.04193 0.46896 0.5067 0.0
H2026 H 0.03501 0.455 0.46105 0.0
H2027 H 0.02489 0.46396 0.47646 0.0
H2028 H 0.00586 0.41813 0.35812 0.0
H2029 H 0.98097 0.43898 0.39669 0.0
H2030 H 0.01417 0.41191 0.47107 0.0
H2031 H 0.02951 0.42957 0.45716 0.0
H2032 H 0.02165 0.41562 0.41159 0.0
H2033 H 0.98378 0.43783 0.51801 0.0
H2034 H 0.98237 0.44907 0.47206 0.0
H2035 H -0.00051 0.45515 0.50327 0.0
C2036 C 0.56831 0.56514 0.38747 0.0
C2037 C 0.56624 0.55143 0.37317 0.0
C2038 C 0.56582 0.56761 0.43481 0.0
C2039 C 0.56106 0.55607 0.46853 0.0
C2040 C 0.55851 0.54207 0.45392 0.0
C2041 C 0.56117 0.53993 0.40643 0.0
C2042 C 0.56865 0.5827 0.44904 0.0
C2043 C 0.55332 0.52945 0.48871 0.0
C2044 C 0.56934 0.56724 0.59857 0.0
C2045 C 0.55593 0.56566 0.61413 0.0
C2046 C 0.57109 0.56389 0.55144 0.0
C2047 C 0.5591 0.55877 0.5193 0.0
C2048 C 0.54539 0.55669 0.53532 0.0
C2049 C 0.54398 0.5602 0.58251 0.0
C2050 C 0.58588 0.56624 0.53565 0.0
C2051 C 0.53232 0.55114 0.50227 0.0
H2052 H 0.57228 0.57408 0.36195 0.0
H2053 H 0.55954 0.52929 0.39556 0.0
H2054 H 0.55864 0.58184 0.4656 0.0
H2055 H 0.57756 0.58751 0.47604 0.0
H2056 H 0.57189 0.59036 0.41827 0.0
H2057 H 0.55117 0.51907 0.47118 0.0
H2058 H 0.56175 0.53225 0.51678 0.0
H2059 H 0.54308 0.52754 0.50663 0.0
H2060 H 0.57862 0.5715 0.62282 0.0
H2061 H 0.53357 0.55893 0.59438 0.0
H2062 H 0.59048 0.5748 0.50746 0.0
H2063 H 0.58463 0.55596 0.52007 0.0
H2064 H 0.59391 0.56974 0.56542 0.0
H2065 H 0.5348 0.5592 0.47314 0.0
H2066 H 0.52221 0.54935 0.52096 0.0
H2067 H 0.53006 0.54063 0.48556 0.0
C2068 C 0.40721 0.99007 0.60082 0.0
C2069 C 0.41148 0.97961 0.61018 0.0
C2070 C 0.40889 0.99618 0.55509 0.0
C2071 C 0.41523 0.99191 0.51831 0.0
C2072 C 0.41948 0.98129 0.52765 0.0
C2073 C 0.41744 0.97519 0.57332 0.0
C2074 C 0.40404 0.00732 0.54623 0.0
C2075 C 0.42653 0.97662 0.48972 0.0
C2076 C 0.41197 -0.00112 0.38706 0.0
C2077 C 0.42561 0.01154 0.37872 0.0
C2078 C 0.40815 0.99265 0.43286 0.0
C2079 C 0.41833 -0.00087 0.47078 0.0
C2080 C 0.432 0.01204 0.46256 0.0
C2081 C 0.43542 0.01814 0.41677 0.0
C2082 C 0.39338 0.979 0.4405 0.0
C2083 C 0.44326 0.01917 0.50178 0.0
H2084 H 0.40249 0.99342 0.62916 0.0
H2085 H 0.42079 0.96713 0.58039 0.0
H2086 H 0.41373 0.01815 0.53737 0.0
H2087 H 0.39646 0.00391 0.51527 0.0
H2088 H 0.3984 0.00872 0.5776 0.0
H2089 H 0.42889 0.96799 0.50249 0.0
H2090 H 0.41923 0.97235 0.45814 0.0
H2091 H 0.43702 0.98628 0.47786 0.0
H2092 H 0.40432 0.99381 0.35781 0.0
H2093 H 0.44599 0.02793 0.41055 0.0
H2094 H 0.38757 0.98064 0.47084 0.0
H2095 H 0.39496 0.96959 0.44968 0.0
H2096 H 0.38625 0.97603 0.40842 0.0
H2097 H 0.43833 0.02175 0.53261 0.0
H2098 H 0.45315 0.02948 0.48991 0.0
H2099 H 0.44682 0.01141 0.51443 0.0
C2100 C 0.57332 -8e-05 0.60669 0.0
C2101 C 0.57551 0.98858 0.62352 0.0
C2102 C 0.57622 0.0045 0.55897 0.0
C2103 C 0.58118 0.99739 0.52722 0.0
C2104 C 0.58387 0.98627 0.54445 0.0
C2105 C 0.58112 0.98208 0.59249 0.0
C2106 C 0.57349 0.01661 0.54216 0.0
C2107 C 0.589 0.97831 0.51168 0.0
C2108 C 0.57169 -0.00164 0.39722 0.0
C2109 C 0.58505 0.00969 0.37926 0.0
C2110 C 0.57044 0.99387 0.44493 0.0
C2111 C 0.58279 0.00108 0.47556 0.0
C2112 C 0.59642 0.01221 0.4572 0.0
C2113 C 0.59742 0.01629 0.40914 0.0
C2114 C 0.55578 0.98175 0.46292 0.0
C2115 C 0.60979 0.02026 0.48879 0.0
H2116 H 0.56901 0.00498 0.63055 0.0
H2117 H 0.58274 0.97323 0.60522 0.0
H2118 H 0.58334 0.02525 0.52332 0.0
H2119 H 0.56422 0.01207 0.51646 0.0
H2120 H 0.57079 0.0218 0.572 0.0
H2121 H 0.59147 0.97058 0.53121 0.0
H2122 H 0.58034 0.97198 0.48483 0.0
H2123 H 0.59902 0.98632 0.49204 0.0
H2124 H 0.56211 0.99322 0.37423 0.0
H2125 H 0.60776 0.02514 0.39554 0.0
H2126 H 0.55128 0.98627 0.48954 0.0
H2127 H 0.5572 0.97313 0.48103 0.0
H2128 H 0.5476 0.97653 0.43383 0.0
H2129 H 0.60764 0.02655 0.51629 0.0
H2130 H 0.61978 0.02805 0.46846 0.0
H2131 H 0.61205 0.01232 0.5077 0.0
C2132 C 0.00065 0.56914 0.45852 0.0
C2133 C 0.98561 0.56083 0.44768 0.0
C2134 C 0.0055 0.57187 0.50603 0.0
C2135 C 0.99505 0.56616 0.54349 0.0
C2136 C 0.97986 0.55777 0.5327 0.0
C2137 C 0.97533 0.55519 0.48495 0.0
C2138 C 0.0218 0.58083 0.51614 0.0
C2139 C 0.96838 0.55152 0.57158 0.0
C2140 C 0.00894 0.56184 0.6639 0.0
C2141 C 0.01139 0.57465 0.68762 0.0
C2142 C 0.00332 0.55879 0.61738 0.0
C2143 C 5e-05 0.56877 0.59399 0.0
C2144 C 0.00197 0.58144 0.6184 0.0
C2145 C 0.00763 0.58423 0.66498 0.0
C2146 C 0.00136 0.54513 0.59268 0.0
C2147 C -0.00148 0.59229 0.59475 0.0
H2148 H 0.00864 0.57355 0.42988 0.0
H2149 H 0.96368 0.54879 0.47683 0.0
H2150 H 0.02419 0.59065 0.53768 0.0
H2151 H 0.02534 0.57421 0.53733 0.0
H2152 H 0.02849 0.58456 0.48305 0.0
H2153 H 0.957 0.54536 0.5572 0.0
H2154 H 0.97027 0.54399 0.59444 0.0
H2155 H 0.96931 0.56052 0.59469 0.0
H2156 H 0.01184 0.5544 0.68116 0.0
H2157 H 0.00955 0.59417 0.68305 0.0
H2158 H 0.00882 0.54831 0.56144 0.0
H2159 H 0.98992 0.53847 0.57923 0.0
H2160 H 0.00375 0.53814 0.61656 0.0
H2161 H 0.00594 0.59743 0.56382 0.0
H2162 H -0.00017 0.60115 0.61943 0.0
H2163 H 0.98707 0.58654 0.58098 0.0
C2164 C 0.41065 0.40957 0.40349 0.0
C2165 C 0.42354 0.42031 0.38113 0.0
C2166 C 0.40714 0.41164 0.45014 0.0
C2167 C 0.41685 0.42468 0.47512 0.0
C2168 C 0.42969 0.4357 0.45222 0.0
C2169 C 0.43283 0.43342 0.40547 0.0
C2170 C 0.39323 0.39975 0.47306 0.0
C2171 C 0.44037 0.44975 0.47762 0.0
C2172 C 0.40439 0.43759 0.58257 0.0
C2173 C 0.41006 0.43321 0.62044 0.0
C2174 C 0.40604 0.43441 0.53522 0.0
C2175 C 0.41376 0.42685 0.52537 0.0
C2176 C 0.41926 0.42212 0.56353 0.0
C2177 C 0.41724 0.42527 0.61071 0.0
C2178 C 0.39982 0.43944 0.49569 0.0
C2179 C 0.42768 0.41416 0.55444 0.0
H2180 H 0.40345 0.39939 0.38492 0.0
H2181 H 0.44285 0.44174 0.38853 0.0
H2182 H 0.39606 0.39511 0.50414 0.0
H2183 H 0.3865 0.40445 0.48648 0.0
H2184 H 0.38644 0.39064 0.44801 0.0
H2185 H 0.44977 0.45729 0.45462 0.0
H2186 H 0.43462 0.45562 0.48983 0.0
H2187 H 0.44478 0.4471 0.50971 0.0
H2188 H 0.3987 0.44363 0.58991 0.0
H2189 H 0.42164 0.42187 0.63987 0.0
H2190 H 0.39281 0.43008 0.47185 0.0
H2191 H 0.40893 0.4479 0.47378 0.0
H2192 H 0.39316 0.4442 0.50946 0.0
H2193 H 0.42104 0.40428 0.53213 0.0
H2194 H 0.4307 0.41068 0.58795 0.0
H2195 H 0.43792 0.42145 0.53444 0.0
C2196 C 0.06881 0.31655 0.21028 0.0
C2197 C 0.0807 0.32024 0.17951 0.0
C2198 C 0.07108 0.32253 0.25631 0.0
C2199 C 0.08561 0.33217 0.27228 0.0
C2200 C 0.09763 0.3362 0.24093 0.0
C2201 C 0.09501 0.33029 0.19472 0.0
C2202 C 0.05795 0.31823 0.28824 0.0
C2203 C 0.1133 0.34628 0.25683 0.0
C2204 C 0.09297 0.35644 0.38124 0.0
C2205 C 0.09494 0.34818 0.41678 0.0
C2206 C 0.08951 0.35118 0.33431 0.0
C2207 C 0.08832 0.3375 0.32246 0.0
C2208 C 0.09012 0.32905 0.3584 0.0
C2209 C 0.09325 0.33442 0.40525 0.0
C2210 C 0.08732 0.36035 0.29727 0.0
C2211 C 0.08917 0.31452 0.34711 0.0
H2212 H 0.05772 0.30881 0.19856 0.0
H2213 H 0.10423 0.33309 0.17116 0.0
H2214 H 0.05828 0.31167 0.31871 0.0
H2215 H 0.05832 0.32821 0.30311 0.0
H2216 H 0.04734 0.31162 0.26916 0.0
H2217 H 0.12137 0.34869 0.22771 0.0
H2218 H 0.1146 0.35682 0.27009 0.0
H2219 H 0.11599 0.34112 0.28677 0.0
H2220 H 0.09421 0.36706 0.39009 0.0
H2221 H 0.09487 0.32806 0.43256 0.0
H2222 H 0.07657 0.35367 0.27916 0.0
H2223 H 0.09601 0.36396 0.26966 0.0
H2224 H 0.08769 0.37026 0.31287 0.0
H2225 H 0.07831 0.30683 0.33117 0.0
H2226 H 0.09074 0.30924 0.37916 0.0
H2227 H 0.09771 0.31622 0.32046 0.0
C2228 C 0.66558 0.76263 0.45152 0.0
C2229 C 0.65364 0.74902 0.46507 0.0
C2230 C 0.67107 0.76504 0.4048 0.0
C2231 C 0.66464 0.75346 0.3711 0.0
C2232 C 0.65308 0.73946 0.38532 0.0
C2233 C 0.6476 0.73745 0.43203 0.0
C2234 C 0.68329 0.78019 0.39094 0.0
C2235 C 0.64615 0.72674 0.35077 0.0
C2236 C 0.66729 0.76474 0.24135 0.0
C2237 C 0.67962 0.76402 0.22587 0.0
C2238 C 0.66216 0.76109 0.28832 0.0
C2239 C 0.66937 0.75633 0.32035 0.0
C2240 C 0.68146 0.75499 0.30432 0.0
C2241 C 0.68653 0.75899 0.25736 0.0
C2242 C 0.64935 0.76284 0.30414 0.0
C2243 C 0.68923 0.74966 0.33708 0.0
H2244 H 0.67023 0.77163 0.47687 0.0
H2245 H 0.63841 0.72687 0.44244 0.0
H2246 H 0.69256 0.77948 0.37464 0.0
H2247 H 0.67919 0.78497 0.36384 0.0
H2248 H 0.68755 0.78781 0.42183 0.0
H2249 H 0.63834 0.71623 0.36859 0.0
H2250 H 0.64009 0.72906 0.32288 0.0
H2251 H 0.65479 0.72537 0.33261 0.0
H2252 H 0.66195 0.76869 0.21723 0.0
H2253 H 0.69604 0.75837 0.24547 0.0
H2254 H 0.65296 0.77119 0.33291 0.0
H2255 H 0.64046 0.75233 0.31894 0.0
H2256 H 0.64473 0.76632 0.27457 0.0
H2257 H 0.69478 0.75776 0.36608 0.0
H2258 H 0.69762 0.74805 0.31808 0.0
H2259 H 0.68114 0.7391 0.35397 0.0
C2260 C 0.24947 0.91034 0.19753 0.0
C2261 C 0.23629 0.91042 0.18991 0.0
C2262 C 0.25328 0.90785 0.24325 0.0
C2263 C 0.24353 0.9051 0.28189 0.0
C2264 C 0.23027 0.90527 0.27431 0.0
C2265 C 0.22689 0.90805 0.22856 0.0
C2266 C 0.26762 0.90799 0.25014 0.0
C2267 C 0.21944 0.90213 0.31428 0.0
C2268 C 0.24401 0.8826 0.38702 0.0
C2269 C 0.25082 0.89338 0.42237 0.0
C2270 C 0.24178 0.88632 0.34104 0.0
C2271 C 0.2467 0.90123 0.32978 0.0
C2272 C 0.2539 0.91222 0.36502 0.0
C2273 C 0.25575 0.90815 0.41112 0.0
C2274 C 0.2338 0.87422 0.30485 0.0
C2275 C 0.2595 0.92826 0.35414 0.0
H2276 H 0.25681 0.91226 0.1678 0.0
H2277 H 0.21665 0.90805 0.22288 0.0
H2278 H 0.27408 0.91572 0.27917 0.0
H2279 H 0.26539 0.89689 0.26095 0.0
H2280 H 0.27443 0.91127 0.21726 0.0
H2281 H 0.20976 0.90298 0.30266 0.0
H2282 H 0.21547 0.89087 0.32835 0.0
H2283 H 0.22491 0.90994 0.34406 0.0
H2284 H 0.24015 0.87116 0.39557 0.0
H2285 H 0.26111 0.91652 0.43827 0.0
H2286 H 0.24071 0.87643 0.27261 0.0
H2287 H 0.22351 0.87392 0.29359 0.0
H2288 H 0.23093 0.86321 0.31901 0.0
H2289 H 0.26678 0.93167 0.3224 0.0
H2290 H 0.2657 0.93554 0.38443 0.0
H2291 H 0.25011 0.92994 0.34558 0.0
C2292 C 0.3353 0.09357 0.57292 0.0
C2293 C 0.34846 0.09414 0.55972 0.0
C2294 C 0.33003 0.09022 0.61984 0.0
C2295 C 0.33796 0.08703 0.65414 0.0
C2296 C 0.35087 0.08686 0.64036 0.0
C2297 C 0.35607 0.09059 0.59342 0.0
C2298 C 0.31634 0.09074 0.6332 0.0
C2299 C 0.35943 0.08317 0.67554 0.0
C2300 C 0.33337 0.09522 0.78273 0.0
C2301 C 0.32225 0.08145 0.79874 0.0
C2302 C 0.33882 0.09711 0.73605 0.0
C2303 C 0.33322 0.08485 0.70494 0.0
C2304 C 0.32252 0.07076 0.7217 0.0
C2305 C 0.31703 0.06926 0.76828 0.0
C2306 C 0.35006 0.11236 0.7194 0.0
C2307 C 0.31655 0.05737 0.69002 0.0
H2308 H 0.32943 0.09639 0.54706 0.0
H2309 H 0.36622 0.09095 0.58326 0.0
H2310 H 0.30814 0.0802 0.64987 0.0
H2311 H 0.31917 0.09957 0.65985 0.0
H2312 H 0.31116 0.09287 0.602 0.0
H2313 H 0.36832 0.08202 0.65811 0.0
H2314 H 0.36448 0.09196 0.70282 0.0
H2315 H 0.35195 0.07275 0.69439 0.0
H2316 H 0.33738 0.1047 0.80605 0.0
H2317 H 0.30847 0.05857 0.78059 0.0
H2318 H 0.34533 0.11584 0.69021 0.0
H2319 H 0.3599 0.11235 0.70489 0.0
H2320 H 0.35365 0.12064 0.74844 0.0
H2321 H 0.30997 0.05836 0.66083 0.0
H2322 H 0.30944 0.04701 0.70983 0.0
H2323 H 0.32573 0.05658 0.67333 0.0
C2324 C 0.92861 0.23352 0.7311 0.0
C2325 C 0.91757 0.23069 0.76453 0.0
C2326 C 0.92777 0.23789 0.68448 0.0
C2327 C 0.91538 0.23904 0.67074 0.0
C2328 C 0.90436 0.23647 0.70471 0.0
C2329 C 0.90569 0.23251 0.75139 0.0
C2330 C 0.93994 0.24093 0.64966 0.0
C2331 C 0.89084 0.2373 0.69126 0.0
C2332 C 0.91445 0.25881 0.55851 0.0
C2333 C 0.90691 0.247 0.52699 0.0
C2334 C 0.91794 0.25649 0.60484 0.0
C2335 C 0.91341 0.24198 0.62023 0.0
C2336 C 0.90615 0.23008 0.58803 0.0
C2337 C 0.90315 0.23276 0.54161 0.0
C2338 C 0.92605 0.2695 0.63772 0.0
C2339 C 0.90091 0.21441 0.60328 0.0
H2340 H 0.93787 0.23222 0.74133 0.0
H2341 H 0.8971 0.23025 0.77713 0.0
H2342 H 0.9357 0.23239 0.62143 0.0
H2343 H 0.94382 0.25171 0.63197 0.0
H2344 H 0.94947 0.24099 0.66715 0.0
H2345 H 0.88347 0.23536 0.72217 0.0
H2346 H 0.89408 0.24824 0.67587 0.0
H2347 H 0.88453 0.22894 0.66355 0.0
H2348 H 0.91743 0.26984 0.5472 0.0
H2349 H 0.89722 0.22359 0.51745 0.0
H2350 H 0.93551 0.26927 0.65454 0.0
H2351 H 0.9186 0.26891 0.66675 0.0
H2352 H 0.93018 0.28016 0.61882 0.0
H2353 H 0.91022 0.21343 0.61775 0.0
H2354 H 0.89585 0.20646 0.5735 0.0
H2355 H 0.89264 0.21126 0.63216 0.0
C2356 C 0.7601 0.66701 0.76848 0.0
C2357 C 0.75791 0.67866 0.78175 0.0
C2358 C 0.75684 0.66122 0.72219 0.0
C2359 C 0.75095 0.66701 0.68875 0.0
C2360 C 0.74821 0.67841 0.70253 0.0
C2361 C 0.75189 0.68423 0.74876 0.0
C2362 C 0.76015 0.64923 0.70863 0.0
C2363 C 0.74162 0.68462 0.66824 0.0
C2364 C 0.75698 0.66258 0.55787 0.0
C2365 C 0.74381 0.6498 0.54601 0.0
C2366 C 0.75937 0.6684 0.6041 0.0
C2367 C 0.74818 0.66147 0.63891 0.0
C2368 C 0.73463 0.6489 0.62654 0.0
C2369 C 0.73267 0.64311 0.58034 0.0
C2370 C 0.77407 0.68167 0.61613 0.0
C2371 C 0.72232 0.64142 0.66233 0.0
H2372 H 0.76483 0.66275 0.79383 0.0
H2373 H 0.75013 0.69319 0.75903 0.0
H2374 H 0.75003 0.63944 0.69533 0.0
H2375 H 0.76834 0.65314 0.67932 0.0
H2376 H 0.76455 0.64581 0.739 0.0
H2377 H 0.73921 0.69272 0.68551 0.0
H2378 H 0.74933 0.69014 0.63823 0.0
H2379 H 0.73127 0.67561 0.65292 0.0
H2380 H 0.76564 0.66772 0.53146 0.0
H2381 H 0.72244 0.63327 0.57115 0.0
H2382 H 0.77959 0.67873 0.64423 0.0
H2383 H 0.77247 0.69063 0.63051 0.0
H2384 H 0.7815 0.68594 0.58475 0.0
H2385 H 0.72576 0.63664 0.69142 0.0
H2386 H 0.71208 0.63248 0.64604 0.0
H2387 H 0.71983 0.64956 0.6787 0.0
C2388 C 0.89292 0.6491 0.58504 0.0
C2389 C 0.90275 0.65506 0.54675 0.0
C2390 C 0.89662 0.65557 0.63032 0.0
C2391 C 0.9107 0.66803 0.63797 0.0
C2392 C 0.9209 0.67377 0.59981 0.0
C2393 C 0.9167 0.66737 0.55432 0.0
C2394 C 0.88522 0.64939 0.66948 0.0
C2395 C 0.93618 0.68674 0.60695 0.0
C2396 C 0.91366 0.69346 0.73882 0.0
C2397 C 0.91831 0.6881 0.77675 0.0
C2398 C 0.91136 0.68717 0.69335 0.0
C2399 C 0.91427 0.67554 0.68515 0.0
C2400 C 0.91958 0.67049 0.72293 0.0
C2401 C 0.92127 0.67665 0.76861 0.0
C2402 C 0.90521 0.69256 0.65462 0.0
C2403 C 0.92325 0.65844 0.71524 0.0
H2404 H 0.88208 0.63965 0.57916 0.0
H2405 H 0.92434 0.67192 0.52478 0.0
H2406 H 0.88955 0.6462 0.70048 0.0
H2407 H 0.8827 0.65795 0.68185 0.0
H2408 H 0.8748 0.63961 0.65771 0.0
H2409 H 0.94325 0.68895 0.57505 0.0
H2410 H 0.93551 0.69674 0.61493 0.0
H2411 H 0.94155 0.68475 0.63788 0.0
H2412 H 0.91124 0.70224 0.74516 0.0
H2413 H 0.92496 0.67256 0.79789 0.0
H2414 H 0.89438 0.68341 0.64272 0.0
H2415 H 0.91262 0.69624 0.62325 0.0
H2416 H 0.90372 0.70183 0.66666 0.0
H2417 H 0.91303 0.64789 0.70781 0.0
H2418 H 0.92875 0.65689 0.74671 0.0
H2419 H 0.93056 0.66101 0.68382 0.0
C2420 C 0.31782 0.24368 0.78613 0.0
C2421 C 0.32244 0.23616 0.81649 0.0
C2422 C 0.3235 0.2476 0.73976 0.0
C2423 C 0.33376 0.24359 0.72312 0.0
C2424 C 0.33853 0.23609 0.75384 0.0
C2425 C 0.33293 0.23261 0.80033 0.0
C2426 C 0.31841 0.25589 0.70842 0.0
C2427 C 0.34928 0.2314 0.73721 0.0
C2428 C 0.33769 0.23949 0.59033 0.0
C2429 C 0.35131 0.25203 0.58068 0.0
C2430 C 0.33169 0.23674 0.63641 0.0
C2431 C 0.33935 0.24695 0.67335 0.0
C2432 C 0.35279 0.25995 0.6632 0.0
C2433 C 0.3587 0.26225 0.61709 0.0
C2434 C 0.31746 0.22263 0.64597 0.0
C2435 C 0.36112 0.27125 0.70133 0.0
H2436 H 0.30974 0.24648 0.7986 0.0
H2437 H 0.33644 0.22669 0.82359 0.0
H2438 H 0.32805 0.2661 0.69483 0.0
H2439 H 0.31245 0.24908 0.67707 0.0
H2440 H 0.31101 0.2589 0.72757 0.0
H2441 H 0.35184 0.22561 0.76547 0.0
H2442 H 0.34467 0.22397 0.70605 0.0
H2443 H 0.35971 0.24115 0.72554 0.0
H2444 H 0.332 0.23154 0.56228 0.0
H2445 H 0.36919 0.27201 0.60962 0.0
H2446 H 0.3093 0.22507 0.66252 0.0
H2447 H 0.31947 0.21576 0.67156 0.0
H2448 H 0.31258 0.21612 0.61304 0.0
H2449 H 0.35371 0.27439 0.71963 0.0
H2450 H 0.37069 0.28135 0.6867 0.0
H2451 H 0.36518 0.26649 0.72858 0.0
C2452 C 0.73966 0.08675 0.7851 0.0
C2453 C 0.75185 0.08486 0.79181 0.0
C2454 C 0.73613 0.08967 0.73961 0.0
C2455 C 0.7453 0.09121 0.7004 0.0
C2456 C 0.75754 0.08915 0.70706 0.0
C2457 C 0.76053 0.08578 0.75256 0.0
C2458 C 0.72274 0.09137 0.73365 0.0
C2459 C 0.76785 0.0911 0.66655 0.0
C2460 C 0.73311 0.09011 0.57208 0.0
C2461 C 0.73921 0.10513 0.56205 0.0
C2462 C 0.73456 0.08536 0.61753 0.0
C2463 C 0.74273 0.09592 0.65306 0.0
C2464 C 0.74899 0.11111 0.64283 0.0
C2465 C 0.74695 0.11551 0.59768 0.0
C2466 C 0.72738 0.06906 0.62754 0.0
C2467 C 0.75816 0.12274 0.67918 0.0
H2468 H 0.73289 0.08595 0.81541 0.0
H2469 H 0.77003 0.08443 0.75773 0.0
H2470 H 0.72622 0.10293 0.72424 0.0
H2471 H 0.71578 0.08431 0.70405 0.0
H2472 H 0.71596 0.08842 0.76655 0.0
H2473 H 0.77669 0.0888 0.67745 0.0
H2474 H 0.76164 0.0837 0.63661 0.0
H2475 H 0.77305 0.10257 0.65298 0.0
H2476 H 0.72702 0.08208 0.5446 0.0
H2477 H 0.75176 0.12715 0.58983 0.0
H2478 H 0.72026 0.06623 0.65953 0.0
H2479 H 0.73593 0.06607 0.63528 0.0
H2480 H 0.72061 0.06229 0.59714 0.0
H2481 H 0.75153 0.12133 0.71157 0.0
H2482 H 0.76239 0.13408 0.66535 0.0
H2483 H 0.76767 0.12151 0.69008 0.0
C2484 C 0.67785 0.90965 0.24254 0.0
C2485 C 0.67033 0.91102 0.20336 0.0
C2486 C 0.67157 0.90656 0.28816 0.0
C2487 C 0.65752 0.90507 0.29507 0.0
C2488 C 0.65 0.9068 0.25585 0.0
C2489 C 0.65644 0.90961 0.21029 0.0
C2490 C 0.67984 0.90452 0.32876 0.0
C2491 C 0.63511 0.90555 0.26196 0.0
C2492 C 0.63527 0.88221 0.4009 0.0
C2493 C 0.63823 0.89305 0.43524 0.0
C2494 C 0.64137 0.886 0.35509 0.0
C2495 C 0.65046 0.90102 0.34295 0.0
C2496 C 0.65327 0.91204 0.37722 0.0
C2497 C 0.64724 0.90792 0.42318 0.0
C2498 C 0.63833 0.87389 0.31999 0.0
C2499 C 0.66272 0.92818 0.36538 0.0
H2500 H 0.68858 0.91067 0.23737 0.0
H2501 H 0.65063 0.91075 0.18014 0.0
H2502 H 0.68151 0.91232 0.35797 0.0
H2503 H 0.67328 0.89322 0.34345 0.0
H2504 H 0.69076 0.90625 0.31758 0.0
H2505 H 0.63113 0.90808 0.22859 0.0
H2506 H 0.62693 0.89423 0.27344 0.0
H2507 H 0.63563 0.91318 0.29026 0.0
H2508 H 0.62835 0.87069 0.41009 0.0
H2509 H 0.64947 0.91633 0.44954 0.0
H2510 H 0.64884 0.87455 0.3093 0.0
H2511 H 0.63322 0.87527 0.28728 0.0
H2512 H 0.63092 0.86275 0.33487 0.0
H2513 H 0.6741 0.93072 0.35708 0.0
H2514 H 0.66318 0.93539 0.39508 0.0
H2515 H 0.65838 0.93088 0.33322 0.0
C2516 C 0.10164 0.74391 0.41163 0.0
C2517 C 0.09236 0.7413 0.4508 0.0
C2518 C 0.09809 0.74701 0.36654 0.0
C2519 C 0.08473 0.7471 0.36016 0.0
C2520 C 0.07504 0.74388 0.39923 0.0
C2521 C 0.07908 0.74125 0.44432 0.0
C2522 C 0.10891 0.75074 0.32617 0.0
C2523 C 0.06052 0.74349 0.39358 0.0
C2524 C 0.08322 0.77045 0.25931 0.0
C2525 C 0.07668 0.76006 0.22276 0.0
C2526 C 0.08582 0.76634 0.30423 0.0
C2527 C 0.08138 0.7514 0.31327 0.0
C2528 C 0.07433 0.74078 0.2769 0.0
C2529 C 0.07227 0.74528 0.23178 0.0
C2530 C 0.0937 0.77808 0.34158 0.0
C2531 C 0.0691 0.7247 0.28555 0.0
H2532 H 0.11197 0.74407 0.41662 0.0
H2533 H 0.07185 0.73916 0.47453 0.0
H2534 H 0.1035 0.74328 0.29557 0.0
H2535 H 0.11273 0.76214 0.31368 0.0
H2536 H 0.11868 0.74991 0.33678 0.0
H2537 H 0.05366 0.73951 0.42627 0.0
H2538 H 0.06252 0.75467 0.38517 0.0
H2539 H 0.05422 0.73622 0.36342 0.0
H2540 H 0.08674 0.78191 0.25232 0.0
H2541 H 0.06712 0.73722 0.20363 0.0
H2542 H 0.10407 0.77842 0.35203 0.0
H2543 H 0.0868 0.77544 0.37401 0.0
H2544 H 0.09641 0.78919 0.32888 0.0
H2545 H 0.07866 0.72317 0.29255 0.0
H2546 H 0.06287 0.7177 0.25477 0.0
H2547 H 0.06194 0.7208 0.31757 0.0
C2548 C 0.23865 0.32863 0.24672 0.0
C2549 C 0.23296 0.31361 0.2376 0.0
C2550 C 0.2414 0.33408 0.29356 0.0
C2551 C 0.23848 0.32428 0.33213 0.0
C2552 C 0.23332 0.3092 0.32293 0.0
C2553 C 0.23057 0.30404 0.27582 0.0
C2554 C 0.24688 0.35023 0.30188 0.0
C2555 C 0.23021 0.29842 0.36297 0.0
C2556 C 0.25483 0.34084 0.45298 0.0
C2557 C 0.24287 0.34081 0.47549 0.0
C2558 C 0.25351 0.33524 0.40664 0.0
C2559 C 0.23995 0.32962 0.38211 0.0
C2560 C 0.22776 0.3293 0.40507 0.0
C2561 C 0.22935 0.33484 0.45153 0.0
C2562 C 0.2667 0.33561 0.38359 0.0
C2563 C 0.21313 0.32345 0.38012 0.0
H2564 H 0.24049 0.33607 0.21735 0.0
H2565 H 0.22623 0.29242 0.26902 0.0
H2566 H 0.23841 0.35154 0.32144 0.0
H2567 H 0.25694 0.3551 0.32429 0.0
H2568 H 0.24943 0.35655 0.26808 0.0
H2569 H 0.22736 0.28732 0.34971 0.0
H2570 H 0.23992 0.3025 0.38676 0.0
H2571 H 0.2209 0.29736 0.38478 0.0
H2572 H 0.26531 0.34545 0.47131 0.0
H2573 H 0.22008 0.33485 0.4686 0.0
H2574 H 0.2701 0.34287 0.35184 0.0
H2575 H 0.2638 0.32443 0.37116 0.0
H2576 H 0.27624 0.33967 0.40824 0.0
H2577 H 0.21451 0.33006 0.34767 0.0
H2578 H 0.20467 0.32374 0.40319 0.0
H2579 H 0.20899 0.31192 0.36854 0.0
C2580 C 0.02111 0.42343 0.90979 0.0
C2581 C 0.01484 0.42819 0.87498 0.0
C2582 C 0.01508 0.41969 0.95573 0.0
C2583 C 0.00271 0.42111 0.96741 0.0
C2584 C 0.99606 0.42547 0.93192 0.0
C2585 C 0.00212 0.42881 0.88592 0.0
C2586 C 0.02227 0.41473 0.9922 0.0
C2587 C 0.983 0.42734 0.94315 0.0
C2588 C 0.98065 0.40384 0.08028 0.0
C2589 C 0.98691 0.41579 0.11187 0.0
C2590 C 0.98589 0.40529 0.03339 0.0
C2591 C -0.00259 0.4191 0.01752 0.0
C2592 C 0.0038 0.43116 0.04944 0.0
C2593 C -0.00141 0.42931 0.09637 0.0
C2594 C 0.97903 0.39209 1.00075 0.0
C2595 C 0.01595 0.44614 0.03372 0.0
H2596 H 0.0309 0.42284 0.90131 0.0
H2597 H -0.00269 0.43257 0.85914 0.0
H2598 H 0.02756 0.42327 0.02016 0.0
H2599 H 0.01387 0.40449 0.00996 0.0
H2600 H 0.03078 0.4127 0.97615 0.0
H2601 H 0.97862 0.43003 0.91101 0.0
H2602 H 0.97403 0.41715 0.95942 0.0
H2603 H 0.98627 0.43634 0.9695 0.0
H2604 H 0.97165 0.39335 0.09223 0.0
H2605 H 0.00338 0.4386 0.12059 0.0
H2606 H 0.98768 0.39008 0.98591 0.0
H2607 H 0.97365 0.39424 0.97026 0.0
H2608 H 0.97069 0.38195 0.01925 0.0
H2609 H 0.02556 0.44537 0.02101 0.0
H2610 H 0.01965 0.45441 0.0628 0.0
H2611 H 0.01209 0.45013 0.00347 0.0
C2612 C 0.5707 0.56783 0.09728 0.0
C2613 C 0.58341 0.56784 0.11269 0.0
C2614 C 0.56943 0.57158 0.05026 0.0
C2615 C 0.58131 0.57575 0.01821 0.0
C2616 C 0.59451 0.57659 0.03439 0.0
C2617 C 0.59533 0.57244 0.08135 0.0
C2618 C 0.5551 0.57033 0.03426 0.0
C2619 C 0.60754 0.58137 1.00167 0.0
C2620 C 0.57063 0.56812 0.8879 0.0
C2621 C 0.57254 0.58169 0.87262 0.0
C2622 C 0.57386 0.56617 0.9349 0.0
C2623 C 0.57944 0.57817 0.96707 0.0
C2624 C 0.58218 0.59212 0.95103 0.0
C2625 C 0.57853 0.59367 0.90409 0.0
C2626 C 0.57058 0.55106 0.95075 0.0
C2627 C 0.58846 0.60526 0.9839 0.0
H2628 H 0.56143 0.5642 0.12133 0.0
H2629 H 0.60522 0.57254 0.09326 0.0
H2630 H 0.55713 0.58084 0.01811 0.0
H2631 H 0.54996 0.56169 0.00651 0.0
H2632 H 0.54715 0.56751 0.06404 0.0
H2633 H 0.61751 0.58309 0.02111 0.0
H2634 H 0.60485 0.57287 0.97394 0.0
H2635 H 0.61013 0.59174 0.98315 0.0
H2636 H 0.56594 0.55881 0.86375 0.0
H2637 H 0.58009 0.6042 0.8923 0.0
H2638 H 0.56184 0.54682 0.97837 0.0
H2639 H 0.5805 0.55166 0.96703 0.0
H2640 H 0.56687 0.54305 0.92087 0.0
H2641 H 0.58021 0.60363 0.0115 0.0
H2642 H 0.59157 0.61566 0.96455 0.0
H2643 H 0.59833 0.60644 0.00257 0.0
C2644 C 0.41089 0.00024 0.10005 0.0
C2645 C 0.42528 0.01162 0.10891 0.0
C2646 C 0.40678 0.99375 0.0547 0.0
C2647 C 0.41744 -0.00147 0.01787 0.0
C2648 C 0.43196 0.01008 0.02671 0.0
C2649 C 0.43565 0.01659 0.07193 0.0
C2650 C 0.39111 0.98167 0.04633 0.0
C2651 C 0.44374 0.01531 0.98878 0.0
C2652 C 0.413 0.97224 0.91803 0.0
C2653 C 0.40916 0.97814 0.8795 0.0
C2654 C 0.41545 0.97861 0.96342 0.0
C2655 C 0.41371 0.99101 0.97076 0.0
C2656 C 0.40931 0.99671 0.93235 0.0
C2657 C 0.40726 0.9903 0.88697 0.0
C2658 C 0.42042 0.97238 0.00312 0.0
C2659 C 0.40705 0.00973 0.93902 0.0
H2660 H 0.40282 0.99644 0.1285 0.0
H2661 H 0.44683 0.02535 0.0787 0.0
H2662 H 0.38647 0.98433 0.01486 0.0
H2663 H 0.39086 0.97118 0.03854 0.0
H2664 H 0.38392 0.97996 0.07755 0.0
H2665 H 0.45445 0.02454 1.00123 0.0
H2666 H 0.44539 0.00608 0.97766 0.0
H2667 H 0.44024 0.01897 0.95681 0.0
H2668 H 0.41455 0.96287 0.91238 0.0
H2669 H 0.4042 0.99484 0.85732 0.0
H2670 H 0.41288 0.96943 0.03402 0.0
H2671 H 0.43155 0.98083 0.01543 0.0
H2672 H 0.42086 0.96244 0.99189 0.0
H2673 H 0.39954 0.00775 0.96946 0.0
H2674 H 0.40241 0.01202 0.90674 0.0
H2675 H 0.41772 0.01968 0.94754 0.0
C2676 C 0.58726 0.99463 0.89487 0.0
C2677 C 0.57308 0.9827 0.88703 0.0
C2678 C 0.59159 0.00097 0.94036 0.0
C2679 C 0.58136 0.99545 0.97844 0.0
C2680 C 0.56715 0.98317 0.97084 0.0
C2681 C 0.56325 0.97685 0.92538 0.0
C2682 C 0.60695 0.01382 0.94737 0.0
C2683 C 0.5558 0.97711 0.01016 0.0
C2684 C 0.59187 0.0046 0.10879 0.0
C2685 C 0.58852 0.01581 0.11648 0.0
C2686 C 0.59032 -0.00167 0.06337 0.0
C2687 C 0.58494 0.00316 0.02521 0.0
C2688 C 0.58187 0.01472 0.03268 0.0
C2689 C 0.58386 0.02099 0.07806 0.0
C2690 C 0.59403 0.98628 0.0565 0.0
C2691 C 0.57586 0.02001 0.99327 0.0
H2692 H 0.59492 -0.00088 0.86536 0.0
H2693 H 0.55225 0.96766 0.9195 0.0
H2694 H 0.60642 0.02396 0.95414 0.0
H2695 H 0.61216 0.01194 0.97894 0.0
H2696 H 0.61407 0.01571 0.91581 0.0
H2697 H 0.54545 0.96715 0.9989 0.0
H2698 H 0.56026 0.97425 0.04163 0.0
H2699 H 0.55312 0.98563 0.02158 0.0
H2700 H 0.59557 0.00062 0.13836 0.0
H2701 H 0.58119 0.02962 0.08384 0.0
H2702 H 0.60127 0.98866 0.02499 0.0
H2703 H 0.5838 0.97568 0.0497 0.0
H2704 H 0.59961 0.98493 0.08814 0.0
H2705 H 0.58325 0.02339 0.96186 0.0
H2706 H 0.57454 0.02946 0.00446 0.0
H2707 H 0.56496 0.0109 0.98177 0.0
C2708 C 0.01111 0.58956 0.95536 0.0
C2709 C 0.0238 0.58873 0.9458 0.0
C2710 C 0.00531 0.58733 1.0017 0.0
C2711 C 0.0121 0.58373 0.03889 0.0
C2712 C 0.02512 0.58324 0.02952 0.0
C2713 C 0.03092 0.58595 0.98323 0.0
C2714 C 0.99165 0.58836 0.01054 0.0
C2715 C 0.03249 0.57905 0.06776 0.0
C2716 C 0.00244 0.5846 0.16926 0.0
C2717 C 0.99158 0.5699 0.17671 0.0
C2718 C 0.009 0.58941 0.1242 0.0
C2719 C 0.00489 0.57914 0.08639 0.0
C2720 C 0.99407 0.56423 0.09415 0.0
C2721 C 0.98739 0.55986 0.13898 0.0
C2722 C 0.0202 0.60546 0.11689 0.0
C2723 C 0.98966 0.55283 0.05527 0.0
H2724 H 0.00565 0.59181 0.92651 0.0
H2725 H 0.04068 0.58521 0.9759 0.0
H2726 H 0.9822 0.57723 0.01802 0.0
H2727 H 0.99318 0.5953 0.04222 0.0
H2728 H 0.98879 0.59302 0.97952 0.0
H2729 H 0.04297 0.57995 0.05534 0.0
H2730 H 0.03482 0.58617 0.0995 0.0
H2731 H 0.02496 0.56753 0.07922 0.0
H2732 H 0.00558 0.59239 0.19835 0.0
H2733 H 0.97905 0.54845 0.14478 0.0
H2734 H 0.01668 0.60999 0.08721 0.0
H2735 H 0.03097 0.60666 0.10675 0.0
H2736 H 0.02175 0.61214 0.14934 0.0
H2737 H 0.98502 0.55582 0.02459 0.0
H2738 H 0.98135 0.54163 0.06754 0.0
H2739 H -0.00051 0.55251 0.04226 0.0
C2740 C 0.43167 0.4315 0.11049 0.0
C2741 C 0.42503 0.41725 0.12962 0.0
C2742 C 0.42856 0.43394 0.06382 0.0
C2743 C 0.41838 0.42188 0.03588 0.0
C2744 C 0.41136 0.4075 0.05547 0.0
C2745 C 0.41487 0.40535 0.10197 0.0
C2746 C 0.43642 0.44941 0.04409 0.0
C2747 C 0.40022 0.3944 0.02718 0.0
C2748 C 0.40187 0.43141 0.93072 0.0
C2749 C 0.4103 0.43098 0.89262 0.0
C2750 C 0.40407 0.42802 0.97727 0.0
C2751 C 0.41514 0.42435 0.98612 0.0
C2752 C 0.42351 0.42364 0.94763 0.0
C2753 C 0.4209 0.42684 0.90123 0.0
C2754 C 0.39473 0.42865 0.01713 0.0
C2755 C 0.43554 0.41995 0.95567 0.0
H2756 H 0.43961 0.44073 0.13156 0.0
H2757 H 0.4097 0.39431 0.11663 0.0
H2758 H 0.44277 0.44988 0.01189 0.0
H2759 H 0.42828 0.45267 0.03312 0.0
H2760 H 0.44409 0.45758 0.07032 0.0
H2761 H 0.39534 0.38403 0.04817 0.0
H2762 H 0.39122 0.39626 0.0149 0.0
H2763 H 0.40552 0.39299 0.99498 0.0
H2764 H 0.3936 0.43453 0.92421 0.0
H2765 H 0.42749 0.42656 0.87192 0.0
H2766 H 0.40176 0.43755 0.04238 0.0
H2767 H 0.38952 0.41815 0.03738 0.0
H2768 H 0.38593 0.43071 0.00388 0.0
H2769 H 0.44418 0.42839 0.97899 0.0
H2770 H 0.44076 0.41942 0.92186 0.0
H2771 H 0.43104 0.40921 0.9742 0.0
loop_
_geom_bond_atom_site_label_1
_geom_bond_atom_site_label_2
_geom_bond_distance
_geom_bond_site_symmetry_2
_ccdc_geom_bond_type
In0 O1 2.294 . S
In0 O2 2.326 . S
In0 O6 2.266 . S
In0 O7 2.326 . S
In0 O8 2.266 . S
In0 O9 2.326 1_554 S
In0 O11 2.294 . S
In0 O12 2.326 . S
O1 In0 2.294 . S
O1 C10 1.240 . S
O2 In0 2.326 . S
O2 C10 1.252 . S
C3 O6 1.252 . S
C3 O7 1.260 . S
C4 O11 1.240 . S
C4 O12 1.252 . S
C5 O8 1.252 1_556 S
C5 O9 1.260 . S
O6 In0 2.266 . S
O6 C3 1.252 . S
O7 In0 2.326 . S
O7 C3 1.260 . S
O8 In0 2.266 . S
O8 C5 1.252 1_554 S
O9 In0 2.326 1_556 S
O9 C5 1.260 . S
C10 O1 1.240 . S
C10 O2 1.252 . S
O11 In0 2.294 . S
O11 C4 1.240 . S
O12 In0 2.326 . S
O12 C4 1.252 . S
In13 O14 2.294 . S
In13 O15 2.326 . S
In13 O19 2.266 . S
In13 O20 2.326 . S
In13 O21 2.266 . S
In13 O22 2.326 1_554 S
In13 O24 2.294 . S
In13 O25 2.326 . S
O14 In13 2.294 . S
O14 C23 1.240 . S
O15 In13 2.326 . S
O15 C23 1.252 . S
C16 O19 1.252 . S
C16 O20 1.260 . S
C17 O24 1.240 . S
C17 O25 1.252 . S
C18 O21 1.252 1_556 S
C18 O22 1.260 . S
O19 In13 2.266 . S
O19 C16 1.252 . S
O20 In13 2.326 . S
O20 C16 1.260 . S
O21 In13 2.266 . S
O21 C18 1.252 1_554 S
O22 In13 2.326 1_556 S
O22 C18 1.260 . S
C23 O14 1.240 . S
C23 O15 1.252 . S
O24 In13 2.294 . S
O24 C17 1.240 . S
O25 In13 2.326 . S
O25 C17 1.252 . S
In26 O27 2.294 . S
In26 O28 2.326 . S
In26 O32 2.266 . S
In26 O33 2.326 1_554 S
In26 O34 2.266 . S
In26 O35 2.326 . S
In26 O37 2.294 . S
In26 O38 2.326 . S
O27 In26 2.294 . S
O27 C36 1.240 . S
O28 In26 2.326 . S
O28 C36 1.252 . S
C29 O32 1.252 1_556 S
C29 O33 1.260 . S
C30 O37 1.240 . S
C30 O38 1.252 . S
C31 O34 1.252 . S
C31 O35 1.260 . S
O32 In26 2.266 . S
O32 C29 1.252 1_554 S
O33 In26 2.326 1_556 S
O33 C29 1.260 . S
O34 In26 2.266 . S
O34 C31 1.252 . S
O35 In26 2.326 . S
O35 C31 1.260 . S
C36 O27 1.240 . S
C36 O28 1.252 . S
O37 In26 2.294 . S
O37 C30 1.240 . S
O38 In26 2.326 . S
O38 C30 1.252 . S
In39 O40 2.294 . S
In39 O41 2.326 . S
In39 O45 2.266 . S
In39 O46 2.326 1_556 S
In39 O47 2.266 . S
In39 O48 2.326 . S
In39 O50 2.294 . S
In39 O51 2.326 . S
O40 In39 2.294 . S
O40 C49 1.240 . S
O41 In39 2.326 . S
O41 C49 1.252 . S
C42 O45 1.252 1_554 S
C42 O46 1.260 . S
C43 O50 1.240 . S
C43 O51 1.252 . S
C44 O47 1.252 . S
C44 O48 1.260 . S
O45 In39 2.266 . S
O45 C42 1.252 1_556 S
O46 In39 2.326 1_554 S
O46 C42 1.260 . S
O47 In39 2.266 . S
O47 C44 1.252 . S
O48 In39 2.326 . S
O48 C44 1.260 . S
C49 O40 1.240 . S
C49 O41 1.252 . S
O50 In39 2.294 . S
O50 C43 1.240 . S
O51 In39 2.326 . S
O51 C43 1.252 . S
In52 O53 2.294 . S
In52 O54 2.326 . S
In52 O58 2.266 . S
In52 O59 2.326 1_556 S
In52 O60 2.266 . S
In52 O61 2.326 . S
In52 O63 2.294 . S
In52 O64 2.326 . S
O53 In52 2.294 . S
O53 C62 1.240 . S
O54 In52 2.326 . S
O54 C62 1.252 . S
C55 O58 1.252 1_554 S
C55 O59 1.260 . S
C56 O63 1.240 . S
C56 O64 1.252 . S
C57 O60 1.252 . S
C57 O61 1.260 . S
O58 In52 2.266 . S
O58 C55 1.252 1_556 S
O59 In52 2.326 1_554 S
O59 C55 1.260 . S
O60 In52 2.266 . S
O60 C57 1.252 . S
O61 In52 2.326 . S
O61 C57 1.260 . S
C62 O53 1.240 . S
C62 O54 1.252 . S
O63 In52 2.294 . S
O63 C56 1.240 . S
O64 In52 2.326 . S
O64 C56 1.252 . S
In65 O66 2.294 . S
In65 O67 2.326 . S
In65 O71 2.266 . S
In65 O72 2.326 . S
In65 O73 2.266 . S
In65 O74 2.326 1_556 S
In65 O76 2.294 . S
In65 O77 2.326 . S
O66 In65 2.294 . S
O66 C75 1.240 . S
O67 In65 2.326 . S
O67 C75 1.252 . S
C68 O71 1.252 . S
C68 O72 1.260 . S
C69 O76 1.240 . S
C69 O77 1.252 . S
C70 O73 1.252 1_554 S
C70 O74 1.260 . S
O71 In65 2.266 . S
O71 C68 1.252 . S
O72 In65 2.326 . S
O72 C68 1.260 . S
O73 In65 2.266 . S
O73 C70 1.252 1_556 S
O74 In65 2.326 1_554 S
O74 C70 1.260 . S
C75 O66 1.240 . S
C75 O67 1.252 . S
O76 In65 2.294 . S
O76 C69 1.240 . S
O77 In65 2.326 . S
O77 C69 1.252 . S
In78 O79 2.294 . S
In78 O80 2.326 . S
In78 O84 2.266 . S
In78 O85 2.326 1_556 S
In78 O86 2.266 . S
In78 O87 2.326 . S
In78 O89 2.294 . S
In78 O90 2.326 . S
O79 In78 2.294 . S
O79 C88 1.240 . S
O80 In78 2.326 . S
O80 C88 1.252 . S
C81 O84 1.252 1_554 S
C81 O85 1.260 . S
C82 O89 1.240 . S
C82 O90 1.252 . S
C83 O86 1.252 . S
C83 O87 1.260 . S
O84 In78 2.266 . S
O84 C81 1.252 1_556 S
O85 In78 2.326 1_554 S
O85 C81 1.260 . S
O86 In78 2.266 . S
O86 C83 1.252 . S
O87 In78 2.326 . S
O87 C83 1.260 . S
C88 O79 1.240 . S
C88 O80 1.252 . S
O89 In78 2.294 . S
O89 C82 1.240 . S
O90 In78 2.326 . S
O90 C82 1.252 . S
In91 O92 2.294 . S
In91 O93 2.326 . S
In91 O97 2.266 . S
In91 O98 2.326 . S
In91 O99 2.266 . S
In91 O100 2.326 1_556 S
In91 O102 2.294 . S
In91 O103 2.326 . S
O92 In91 2.294 . S
O92 C101 1.240 . S
O93 In91 2.326 . S
O93 C101 1.252 . S
C94 O97 1.252 . S
C94 O98 1.260 . S
C95 O102 1.240 . S
C95 O103 1.252 . S
C96 O99 1.252 1_554 S
C96 O100 1.260 . S
O97 In91 2.266 . S
O97 C94 1.252 . S
O98 In91 2.326 . S
O98 C94 1.260 . S
O99 In91 2.266 . S
O99 C96 1.252 1_556 S
O100 In91 2.326 1_554 S
O100 C96 1.260 . S
C101 O92 1.240 . S
C101 O93 1.252 . S
O102 In91 2.294 . S
O102 C95 1.240 . S
O103 In91 2.326 . S
O103 C95 1.252 . S
In104 O105 2.294 . S
In104 O106 2.326 . S
In104 O110 2.266 . S
In104 O111 2.326 1_556 S
In104 O112 2.266 . S
In104 O113 2.326 . S
In104 O115 2.294 . S
In104 O116 2.326 . S
O105 In104 2.294 . S
O105 C114 1.240 . S
O106 In104 2.326 . S
O106 C114 1.252 . S
C107 O110 1.252 1_554 S
C107 O111 1.260 . S
C108 O115 1.240 . S
C108 O116 1.252 . S
C109 O112 1.252 . S
C109 O113 1.260 . S
O110 In104 2.266 . S
O110 C107 1.252 1_556 S
O111 In104 2.326 1_554 S
O111 C107 1.260 . S
O112 In104 2.266 . S
O112 C109 1.252 . S
O113 In104 2.326 . S
O113 C109 1.260 . S
C114 O105 1.240 . S
C114 O106 1.252 . S
O115 In104 2.294 . S
O115 C108 1.240 . S
O116 In104 2.326 . S
O116 C108 1.252 . S
In117 O118 2.294 . S
In117 O119 2.326 . S
In117 O123 2.266 . S
In117 O124 2.326 1_554 S
In117 O125 2.266 . S
In117 O126 2.326 . S
In117 O128 2.294 . S
In117 O129 2.326 . S
O118 In117 2.294 . S
O118 C127 1.240 . S
O119 In117 2.326 . S
O119 C127 1.252 . S
C120 O123 1.252 1_556 S
C120 O124 1.260 . S
C121 O128 1.240 . S
C121 O129 1.252 . S
C122 O125 1.252 . S
C122 O126 1.260 . S
O123 In117 2.266 . S
O123 C120 1.252 1_554 S
O124 In117 2.326 1_556 S
O124 C120 1.260 . S
O125 In117 2.266 . S
O125 C122 1.252 . S
O126 In117 2.326 . S
O126 C122 1.260 . S
C127 O118 1.240 . S
C127 O119 1.252 . S
O128 In117 2.294 . S
O128 C121 1.240 . S
O129 In117 2.326 . S
O129 C121 1.252 . S
In130 O131 2.294 . S
In130 O132 2.326 . S
In130 O136 2.266 . S
In130 O137 2.326 . S
In130 O138 2.266 . S
In130 O139 2.326 1_554 S
In130 O141 2.294 . S
In130 O142 2.326 . S
O131 In130 2.294 . S
O131 C140 1.240 . S
O132 In130 2.326 . S
O132 C140 1.252 . S
C133 O136 1.252 . S
C133 O137 1.260 . S
C134 O141 1.240 . S
C134 O142 1.252 . S
C135 O138 1.252 1_556 S
C135 O139 1.260 . S
O136 In130 2.266 . S
O136 C133 1.252 . S
O137 In130 2.326 . S
O137 C133 1.260 . S
O138 In130 2.266 . S
O138 C135 1.252 1_554 S
O139 In130 2.326 1_556 S
O139 C135 1.260 . S
C140 O131 1.240 . S
C140 O132 1.252 . S
O141 In130 2.294 . S
O141 C134 1.240 . S
O142 In130 2.326 . S
O142 C134 1.252 . S
In143 O144 2.294 . S
In143 O145 2.326 . S
In143 O149 2.266 . S
In143 O150 2.326 1_554 S
In143 O151 2.266 . S
In143 O152 2.326 . S
In143 O154 2.294 . S
In143 O155 2.326 . S
O144 In143 2.294 . S
O144 C153 1.240 . S
O145 In143 2.326 . S
O145 C153 1.252 . S
C146 O149 1.252 1_556 S
C146 O150 1.260 . S
C147 O154 1.240 . S
C147 O155 1.252 . S
C148 O151 1.252 . S
C148 O152 1.260 . S
O149 In143 2.266 . S
O149 C146 1.252 1_554 S
O150 In143 2.326 1_556 S
O150 C146 1.260 . S
O151 In143 2.266 . S
O151 C148 1.252 . S
O152 In143 2.326 . S
O152 C148 1.260 . S
C153 O144 1.240 . S
C153 O145 1.252 . S
O154 In143 2.294 . S
O154 C147 1.240 . S
O155 In143 2.326 . S
O155 C147 1.252 . S
In156 O157 2.294 . S
In156 O158 2.326 . S
In156 O162 2.266 . S
In156 O163 2.326 . S
In156 O164 2.266 . S
In156 O165 2.326 . S
In156 O167 2.294 . S
In156 O168 2.326 . S
O157 In156 2.294 . S
O157 C166 1.240 . S
O158 In156 2.326 . S
O158 C166 1.252 . S
C159 O162 1.252 . S
C159 O163 1.260 . S
C160 O167 1.240 . S
C160 O168 1.252 . S
C161 O164 1.252 . S
C161 O165 1.260 . S
O162 In156 2.266 . S
O162 C159 1.252 . S
O163 In156 2.326 . S
O163 C159 1.260 . S
O164 In156 2.266 . S
O164 C161 1.252 . S
O165 In156 2.326 . S
O165 C161 1.260 . S
C166 O157 1.240 . S
C166 O158 1.252 . S
O167 In156 2.294 . S
O167 C160 1.240 . S
O168 In156 2.326 . S
O168 C160 1.252 . S
In169 O170 2.294 . S
In169 O171 2.326 . S
In169 O175 2.266 . S
In169 O176 2.326 . S
In169 O177 2.266 . S
In169 O178 2.326 . S
In169 O180 2.294 . S
In169 O181 2.326 . S
O170 In169 2.294 . S
O170 C179 1.240 . S
O171 In169 2.326 . S
O171 C179 1.252 . S
C172 O175 1.252 . S
C172 O176 1.260 . S
C173 O180 1.240 . S
C173 O181 1.252 . S
C174 O177 1.252 . S
C174 O178 1.260 . S
O175 In169 2.266 . S
O175 C172 1.252 . S
O176 In169 2.326 . S
O176 C172 1.260 . S
O177 In169 2.266 . S
O177 C174 1.252 . S
O178 In169 2.326 . S
O178 C174 1.260 . S
C179 O170 1.240 . S
C179 O171 1.252 . S
O180 In169 2.294 . S
O180 C173 1.240 . S
O181 In169 2.326 . S
O181 C173 1.252 . S
In182 O183 2.294 . S
In182 O184 2.326 . S
In182 O188 2.266 . S
In182 O189 2.326 . S
In182 O190 2.266 . S
In182 O191 2.326 . S
In182 O193 2.294 . S
In182 O194 2.326 . S
O183 In182 2.294 . S
O183 C192 1.240 . S
O184 In182 2.326 . S
O184 C192 1.252 . S
C185 O188 1.252 . S
C185 O189 1.260 . S
C186 O193 1.240 . S
C186 O194 1.252 . S
C187 O190 1.252 . S
C187 O191 1.260 . S
O188 In182 2.266 . S
O188 C185 1.252 . S
O189 In182 2.326 . S
O189 C185 1.260 . S
O190 In182 2.266 . S
O190 C187 1.252 . S
O191 In182 2.326 . S
O191 C187 1.260 . S
C192 O183 1.240 . S
C192 O184 1.252 . S
O193 In182 2.294 . S
O193 C186 1.240 . S
O194 In182 2.326 . S
O194 C186 1.252 . S
In195 O196 2.294 . S
In195 O197 2.326 . S
In195 O201 2.266 . S
In195 O202 2.326 . S
In195 O203 2.266 . S
In195 O204 2.326 . S
In195 O206 2.294 . S
In195 O207 2.326 . S
O196 In195 2.294 . S
O196 C205 1.240 . S
O197 In195 2.326 . S
O197 C205 1.252 . S
C198 O201 1.252 . S
C198 O202 1.260 . S
C199 O206 1.240 . S
C199 O207 1.252 . S
C200 O203 1.252 . S
C200 O204 1.260 . S
O201 In195 2.266 . S
O201 C198 1.252 . S
O202 In195 2.326 . S
O202 C198 1.260 . S
O203 In195 2.266 . S
O203 C200 1.252 . S
O204 In195 2.326 . S
O204 C200 1.260 . S
C205 O196 1.240 . S
C205 O197 1.252 . S
O206 In195 2.294 . S
O206 C199 1.240 . S
O207 In195 2.326 . S
O207 C199 1.252 . S
In208 O209 2.294 . S
In208 O210 2.326 . S
In208 O214 2.266 . S
In208 O215 2.326 . S
In208 O216 2.266 . S
In208 O217 2.326 . S
In208 O219 2.294 . S
In208 O220 2.326 . S
O209 In208 2.294 . S
O209 C218 1.240 . S
O210 In208 2.326 . S
O210 C218 1.252 . S
C211 O214 1.252 . S
C211 O215 1.260 . S
C212 O219 1.240 . S
C212 O220 1.252 . S
C213 O216 1.252 . S
C213 O217 1.260 . S
O214 In208 2.266 . S
O214 C211 1.252 . S
O215 In208 2.326 . S
O215 C211 1.260 . S
O216 In208 2.266 . S
O216 C213 1.252 . S
O217 In208 2.326 . S
O217 C213 1.260 . S
C218 O209 1.240 . S
C218 O210 1.252 . S
O219 In208 2.294 . S
O219 C212 1.240 . S
O220 In208 2.326 . S
O220 C212 1.252 . S
In221 O222 2.294 . S
In221 O223 2.326 . S
In221 O227 2.266 . S
In221 O228 2.326 . S
In221 O229 2.266 . S
In221 O230 2.326 . S
In221 O232 2.294 . S
In221 O233 2.326 . S
O222 In221 2.294 . S
O222 C231 1.240 . S
O223 In221 2.326 . S
O223 C231 1.252 . S
C224 O227 1.252 . S
C224 O228 1.260 . S
C225 O232 1.240 . S
C225 O233 1.252 . S
C226 O229 1.252 . S
C226 O230 1.260 . S
O227 In221 2.266 . S
O227 C224 1.252 . S
O228 In221 2.326 . S
O228 C224 1.260 . S
O229 In221 2.266 . S
O229 C226 1.252 . S
O230 In221 2.326 . S
O230 C226 1.260 . S
C231 O222 1.240 . S
C231 O223 1.252 . S
O232 In221 2.294 . S
O232 C225 1.240 . S
O233 In221 2.326 . S
O233 C225 1.252 . S
In234 O235 2.294 . S
In234 O236 2.326 . S
In234 O240 2.266 . S
In234 O241 2.326 . S
In234 O242 2.266 . S
In234 O243 2.326 . S
In234 O245 2.294 . S
In234 O246 2.326 . S
O235 In234 2.294 . S
O235 C244 1.240 . S
O236 In234 2.326 . S
O236 C244 1.252 . S
C237 O240 1.252 . S
C237 O241 1.260 . S
C238 O245 1.240 . S
C238 O246 1.252 . S
C239 O242 1.252 . S
C239 O243 1.260 . S
O240 In234 2.266 . S
O240 C237 1.252 . S
O241 In234 2.326 . S
O241 C237 1.260 . S
O242 In234 2.266 . S
O242 C239 1.252 . S
O243 In234 2.326 . S
O243 C239 1.260 . S
C244 O235 1.240 . S
C244 O236 1.252 . S
O245 In234 2.294 . S
O245 C238 1.240 . S
O246 In234 2.326 . S
O246 C238 1.252 . S
In247 O248 2.294 . S
In247 O249 2.326 . S
In247 O253 2.266 . S
In247 O254 2.326 . S
In247 O255 2.266 . S
In247 O256 2.326 . S
In247 O258 2.294 . S
In247 O259 2.326 . S
O248 In247 2.294 . S
O248 C257 1.240 . S
O249 In247 2.326 . S
O249 C257 1.252 . S
C250 O253 1.252 . S
C250 O254 1.260 . S
C251 O258 1.240 . S
C251 O259 1.252 . S
C252 O255 1.252 . S
C252 O256 1.260 . S
O253 In247 2.266 . S
O253 C250 1.252 . S
O254 In247 2.326 . S
O254 C250 1.260 . S
O255 In247 2.266 . S
O255 C252 1.252 . S
O256 In247 2.326 . S
O256 C252 1.260 . S
C257 O248 1.240 . S
C257 O249 1.252 . S
O258 In247 2.294 . S
O258 C251 1.240 . S
O259 In247 2.326 . S
O259 C251 1.252 . S
In260 O261 2.294 . S
In260 O262 2.326 . S
In260 O266 2.266 . S
In260 O267 2.326 . S
In260 O268 2.266 . S
In260 O269 2.326 . S
In260 O271 2.294 . S
In260 O272 2.326 . S
O261 In260 2.294 . S
O261 C270 1.240 . S
O262 In260 2.326 . S
O262 C270 1.252 . S
C263 O266 1.252 . S
C263 O267 1.260 . S
C264 O271 1.240 . S
C264 O272 1.252 . S
C265 O268 1.252 . S
C265 O269 1.260 . S
O266 In260 2.266 . S
O266 C263 1.252 . S
O267 In260 2.326 . S
O267 C263 1.260 . S
O268 In260 2.266 . S
O268 C265 1.252 . S
O269 In260 2.326 . S
O269 C265 1.260 . S
C270 O261 1.240 . S
C270 O262 1.252 . S
O271 In260 2.294 . S
O271 C264 1.240 . S
O272 In260 2.326 . S
O272 C264 1.252 . S
In273 O274 2.294 . S
In273 O275 2.326 . S
In273 O279 2.266 . S
In273 O280 2.326 . S
In273 O281 2.266 . S
In273 O282 2.326 . S
In273 O284 2.294 . S
In273 O285 2.326 . S
O274 In273 2.294 . S
O274 C283 1.240 . S
O275 In273 2.326 . S
O275 C283 1.252 . S
C276 O279 1.252 . S
C276 O280 1.260 . S
C277 O284 1.240 . S
C277 O285 1.252 . S
C278 O281 1.252 . S
C278 O282 1.260 . S
O279 In273 2.266 . S
O279 C276 1.252 . S
O280 In273 2.326 . S
O280 C276 1.260 . S
O281 In273 2.266 . S
O281 C278 1.252 . S
O282 In273 2.326 . S
O282 C278 1.260 . S
C283 O274 1.240 . S
C283 O275 1.252 . S
O284 In273 2.294 . S
O284 C277 1.240 . S
O285 In273 2.326 . S
O285 C277 1.252 . S
In286 O287 2.294 . S
In286 O288 2.326 . S
In286 O292 2.266 . S
In286 O293 2.326 . S
In286 O294 2.266 . S
In286 O295 2.326 . S
In286 O297 2.294 . S
In286 O298 2.326 . S
O287 In286 2.294 . S
O287 C296 1.240 . S
O288 In286 2.326 . S
O288 C296 1.252 . S
C289 O292 1.252 . S
C289 O293 1.260 . S
C290 O297 1.240 . S
C290 O298 1.252 . S
C291 O294 1.252 . S
C291 O295 1.260 . S
O292 In286 2.266 . S
O292 C289 1.252 . S
O293 In286 2.326 . S
O293 C289 1.260 . S
O294 In286 2.266 . S
O294 C291 1.252 . S
O295 In286 2.326 . S
O295 C291 1.260 . S
C296 O287 1.240 . S
C296 O288 1.252 . S
O297 In286 2.294 . S
O297 C290 1.240 . S
O298 In286 2.326 . S
O298 C290 1.252 . S
In299 O300 2.294 . S
In299 O301 2.326 . S
In299 O305 2.266 . S
In299 O306 2.326 . S
In299 O307 2.266 . S
In299 O308 2.326 . S
In299 O310 2.294 . S
In299 O311 2.326 . S
O300 In299 2.294 . S
O300 C309 1.240 . S
O301 In299 2.326 . S
O301 C309 1.252 . S
C302 O305 1.252 . S
C302 O306 1.260 . S
C303 O310 1.240 . S
C303 O311 1.252 . S
C304 O307 1.252 . S
C304 O308 1.260 . S
O305 In299 2.266 . S
O305 C302 1.252 . S
O306 In299 2.326 . S
O306 C302 1.260 . S
O307 In299 2.266 . S
O307 C304 1.252 . S
O308 In299 2.326 . S
O308 C304 1.260 . S
C309 O300 1.240 . S
C309 O301 1.252 . S
O310 In299 2.294 . S
O310 C303 1.240 . S
O311 In299 2.326 . S
O311 C303 1.252 . S
In312 O313 2.294 . S
In312 O314 2.326 . S
In312 O318 2.266 . S
In312 O319 2.326 . S
In312 O320 2.266 . S
In312 O321 2.326 . S
In312 O323 2.294 . S
In312 O324 2.326 . S
O313 In312 2.294 . S
O313 C322 1.240 . S
O314 In312 2.326 . S
O314 C322 1.252 . S
C315 O318 1.252 . S
C315 O319 1.260 . S
C316 O323 1.240 . S
C316 O324 1.252 . S
C317 O320 1.252 . S
C317 O321 1.260 . S
O318 In312 2.266 . S
O318 C315 1.252 . S
O319 In312 2.326 . S
O319 C315 1.260 . S
O320 In312 2.266 . S
O320 C317 1.252 . S
O321 In312 2.326 . S
O321 C317 1.260 . S
C322 O313 1.240 . S
C322 O314 1.252 . S
O323 In312 2.294 . S
O323 C316 1.240 . S
O324 In312 2.326 . S
O324 C316 1.252 . S
In325 O326 2.294 . S
In325 O327 2.326 . S
In325 O331 2.266 . S
In325 O332 2.326 . S
In325 O333 2.266 . S
In325 O334 2.326 . S
In325 O336 2.294 . S
In325 O337 2.326 . S
O326 In325 2.294 . S
O326 C335 1.240 . S
O327 In325 2.326 . S
O327 C335 1.252 . S
C328 O331 1.252 . S
C328 O332 1.260 . S
C329 O336 1.240 . S
C329 O337 1.252 . S
C330 O333 1.252 . S
C330 O334 1.260 . S
O331 In325 2.266 . S
O331 C328 1.252 . S
O332 In325 2.326 . S
O332 C328 1.260 . S
O333 In325 2.266 . S
O333 C330 1.252 . S
O334 In325 2.326 . S
O334 C330 1.260 . S
C335 O326 1.240 . S
C335 O327 1.252 . S
O336 In325 2.294 . S
O336 C329 1.240 . S
O337 In325 2.326 . S
O337 C329 1.252 . S
In338 O339 2.294 . S
In338 O340 2.326 . S
In338 O344 2.266 . S
In338 O345 2.326 . S
In338 O346 2.266 . S
In338 O347 2.326 . S
In338 O349 2.294 . S
In338 O350 2.326 . S
O339 In338 2.294 . S
O339 C348 1.240 . S
O340 In338 2.326 . S
O340 C348 1.252 . S
C341 O344 1.252 . S
C341 O345 1.260 . S
C342 O349 1.240 . S
C342 O350 1.252 . S
C343 O346 1.252 . S
C343 O347 1.260 . S
O344 In338 2.266 . S
O344 C341 1.252 . S
O345 In338 2.326 . S
O345 C341 1.260 . S
O346 In338 2.266 . S
O346 C343 1.252 . S
O347 In338 2.326 . S
O347 C343 1.260 . S
C348 O339 1.240 . S
C348 O340 1.252 . S
O349 In338 2.294 . S
O349 C342 1.240 . S
O350 In338 2.326 . S
O350 C342 1.252 . S
In351 O352 2.294 . S
In351 O353 2.326 . S
In351 O357 2.266 . S
In351 O358 2.326 . S
In351 O359 2.266 . S
In351 O360 2.326 . S
In351 O362 2.294 . S
In351 O363 2.326 . S
O352 In351 2.294 . S
O352 C361 1.240 . S
O353 In351 2.326 . S
O353 C361 1.252 . S
C354 O357 1.252 . S
C354 O358 1.260 . S
C355 O362 1.240 . S
C355 O363 1.252 . S
C356 O359 1.252 . S
C356 O360 1.260 . S
O357 In351 2.266 . S
O357 C354 1.252 . S
O358 In351 2.326 . S
O358 C354 1.260 . S
O359 In351 2.266 . S
O359 C356 1.252 . S
O360 In351 2.326 . S
O360 C356 1.260 . S
C361 O352 1.240 . S
C361 O353 1.252 . S
O362 In351 2.294 . S
O362 C355 1.240 . S
O363 In351 2.326 . S
O363 C355 1.252 . S
In364 O365 2.294 . S
In364 O366 2.326 . S
In364 O370 2.266 . S
In364 O371 2.326 . S
In364 O372 2.266 . S
In364 O373 2.326 . S
In364 O375 2.294 . S
In364 O376 2.326 . S
O365 In364 2.294 . S
O365 C374 1.240 . S
O366 In364 2.326 . S
O366 C374 1.252 . S
C367 O370 1.252 . S
C367 O371 1.260 . S
C368 O375 1.240 . S
C368 O376 1.252 . S
C369 O372 1.252 . S
C369 O373 1.260 . S
O370 In364 2.266 . S
O370 C367 1.252 . S
O371 In364 2.326 . S
O371 C367 1.260 . S
O372 In364 2.266 . S
O372 C369 1.252 . S
O373 In364 2.326 . S
O373 C369 1.260 . S
C374 O365 1.240 . S
C374 O366 1.252 . S
O375 In364 2.294 . S
O375 C368 1.240 . S
O376 In364 2.326 . S
O376 C368 1.252 . S
In377 O378 2.294 . S
In377 O379 2.326 . S
In377 O383 2.266 . S
In377 O384 2.326 . S
In377 O385 2.266 . S
In377 O386 2.326 . S
In377 O388 2.294 . S
In377 O389 2.326 . S
O378 In377 2.294 . S
O378 C387 1.240 . S
O379 In377 2.326 . S
O379 C387 1.252 . S
C380 O383 1.252 . S
C380 O384 1.260 . S
C381 O388 1.240 . S
C381 O389 1.252 . S
C382 O385 1.252 . S
C382 O386 1.260 . S
O383 In377 2.266 . S
O383 C380 1.252 . S
O384 In377 2.326 . S
O384 C380 1.260 . S
O385 In377 2.266 . S
O385 C382 1.252 . S
O386 In377 2.326 . S
O386 C382 1.260 . S
C387 O378 1.240 . S
C387 O379 1.252 . S
O388 In377 2.294 . S
O388 C381 1.240 . S
O389 In377 2.326 . S
O389 C381 1.252 . S
In390 O391 2.294 . S
In390 O392 2.326 . S
In390 O396 2.266 . S
In390 O397 2.326 . S
In390 O398 2.266 . S
In390 O399 2.326 . S
In390 O401 2.294 . S
In390 O402 2.326 . S
O391 In390 2.294 . S
O391 C400 1.240 . S
O392 In390 2.326 . S
O392 C400 1.252 . S
C393 O396 1.252 . S
C393 O397 1.260 . S
C394 O401 1.240 . S
C394 O402 1.252 . S
C395 O398 1.252 . S
C395 O399 1.260 . S
O396 In390 2.266 . S
O396 C393 1.252 . S
O397 In390 2.326 . S
O397 C393 1.260 . S
O398 In390 2.266 . S
O398 C395 1.252 . S
O399 In390 2.326 . S
O399 C395 1.260 . S
C400 O391 1.240 . S
C400 O392 1.252 . S
O401 In390 2.294 . S
O401 C394 1.240 . S
O402 In390 2.326 . S
O402 C394 1.252 . S
In403 O404 2.294 . S
In403 O405 2.326 . S
In403 O409 2.266 . S
In403 O410 2.326 . S
In403 O411 2.266 . S
In403 O412 2.326 . S
In403 O414 2.294 . S
In403 O415 2.326 . S
O404 In403 2.294 . S
O404 C413 1.240 . S
O405 In403 2.326 . S
O405 C413 1.252 . S
C406 O409 1.252 . S
C406 O410 1.260 . S
C407 O414 1.240 . S
C407 O415 1.252 . S
C408 O411 1.252 . S
C408 O412 1.260 . S
O409 In403 2.266 . S
O409 C406 1.252 . S
O410 In403 2.326 . S
O410 C406 1.260 . S
O411 In403 2.266 . S
O411 C408 1.252 . S
O412 In403 2.326 . S
O412 C408 1.260 . S
C413 O404 1.240 . S
C413 O405 1.252 . S
O414 In403 2.294 . S
O414 C407 1.240 . S
O415 In403 2.326 . S
O415 C407 1.252 . S
In416 O417 2.294 . S
In416 O418 2.326 . S
In416 O422 2.266 . S
In416 O423 2.326 . S
In416 O424 2.266 . S
In416 O425 2.326 . S
In416 O427 2.294 . S
In416 O428 2.326 . S
O417 In416 2.294 . S
O417 C426 1.240 . S
O418 In416 2.326 . S
O418 C426 1.252 . S
C419 O422 1.252 . S
C419 O423 1.260 . S
C420 O427 1.240 . S
C420 O428 1.252 . S
C421 O424 1.252 . S
C421 O425 1.260 . S
O422 In416 2.266 . S
O422 C419 1.252 . S
O423 In416 2.326 . S
O423 C419 1.260 . S
O424 In416 2.266 . S
O424 C421 1.252 . S
O425 In416 2.326 . S
O425 C421 1.260 . S
C426 O417 1.240 . S
C426 O418 1.252 . S
O427 In416 2.294 . S
O427 C420 1.240 . S
O428 In416 2.326 . S
O428 C420 1.252 . S
In429 O430 2.294 . S
In429 O431 2.326 . S
In429 O435 2.266 . S
In429 O436 2.326 . S
In429 O437 2.266 . S
In429 O438 2.326 . S
In429 O440 2.294 . S
In429 O441 2.326 . S
O430 In429 2.294 . S
O430 C439 1.240 . S
O431 In429 2.326 . S
O431 C439 1.252 . S
C432 O435 1.252 . S
C432 O436 1.260 . S
C433 O440 1.240 . S
C433 O441 1.252 . S
C434 O437 1.252 . S
C434 O438 1.260 . S
O435 In429 2.266 . S
O435 C432 1.252 . S
O436 In429 2.326 . S
O436 C432 1.260 . S
O437 In429 2.266 . S
O437 C434 1.252 . S
O438 In429 2.326 . S
O438 C434 1.260 . S
C439 O430 1.240 . S
C439 O431 1.252 . S
O440 In429 2.294 . S
O440 C433 1.240 . S
O441 In429 2.326 . S
O441 C433 1.252 . S
In442 O443 2.294 . S
In442 O444 2.326 . S
In442 O448 2.266 . S
In442 O449 2.326 . S
In442 O450 2.266 . S
In442 O451 2.326 . S
In442 O453 2.294 . S
In442 O454 2.326 . S
O443 In442 2.294 . S
O443 C452 1.240 . S
O444 In442 2.326 . S
O444 C452 1.252 . S
C445 O448 1.252 . S
C445 O449 1.260 . S
C446 O453 1.240 . S
C446 O454 1.252 . S
C447 O450 1.252 . S
C447 O451 1.260 . S
O448 In442 2.266 . S
O448 C445 1.252 . S
O449 In442 2.326 . S
O449 C445 1.260 . S
O450 In442 2.266 . S
O450 C447 1.252 . S
O451 In442 2.326 . S
O451 C447 1.260 . S
C452 O443 1.240 . S
C452 O444 1.252 . S
O453 In442 2.294 . S
O453 C446 1.240 . S
O454 In442 2.326 . S
O454 C446 1.252 . S
In455 O456 2.294 . S
In455 O457 2.326 . S
In455 O461 2.266 . S
In455 O462 2.326 . S
In455 O463 2.266 . S
In455 O464 2.326 . S
In455 O466 2.294 . S
In455 O467 2.326 . S
O456 In455 2.294 . S
O456 C465 1.240 . S
O457 In455 2.326 . S
O457 C465 1.252 . S
C458 O461 1.252 . S
C458 O462 1.260 . S
C459 O466 1.240 . S
C459 O467 1.252 . S
C460 O463 1.252 . S
C460 O464 1.260 . S
O461 In455 2.266 . S
O461 C458 1.252 . S
O462 In455 2.326 . S
O462 C458 1.260 . S
O463 In455 2.266 . S
O463 C460 1.252 . S
O464 In455 2.326 . S
O464 C460 1.260 . S
C465 O456 1.240 . S
C465 O457 1.252 . S
O466 In455 2.294 . S
O466 C459 1.240 . S
O467 In455 2.326 . S
O467 C459 1.252 . S
C468 C469 1.391 . S
C468 C470 1.394 . S
C468 H484 0.931 . S
C469 C468 1.391 . S
C469 C473 1.376 . S
C470 C468 1.394 . S
C470 C471 1.369 . S
C470 C474 1.531 . S
C471 C470 1.369 . S
C471 C472 1.410 . S
C471 C479 1.503 . S
C472 C471 1.410 . S
C472 C473 1.392 . S
C472 C475 1.511 . S
C473 C469 1.376 . S
C473 C472 1.392 . S
C473 H485 0.929 . S
C474 C470 1.531 . S
C474 H486 0.960 . S
C474 H487 0.962 . S
C474 H488 0.960 . S
C475 C472 1.511 . S
C475 H489 0.961 . S
C475 H490 0.961 . S
C475 H491 0.961 . S
C476 C477 1.370 . S
C476 C478 1.363 . S
C476 H492 0.931 . S
C477 C476 1.370 . S
C477 C481 1.408 . S
C478 C476 1.363 . S
C478 C479 1.370 . S
C478 C482 1.524 . S
C479 C471 1.503 . S
C479 C478 1.370 . S
C479 C480 1.403 . S
C480 C479 1.403 . S
C480 C481 1.404 . S
C480 C483 1.539 . S
C481 C477 1.408 . S
C481 C480 1.404 . S
C481 H493 0.930 . S
C482 C478 1.524 . S
C482 H494 0.956 . S
C482 H495 0.961 . S
C482 H496 0.961 . S
C483 C480 1.539 . S
C483 H497 0.958 . S
C483 H498 0.961 . S
C483 H499 0.960 . S
H484 C468 0.931 . S
H485 C473 0.929 . S
H486 C474 0.960 . S
H487 C474 0.962 . S
H488 C474 0.960 . S
H489 C475 0.961 . S
H490 C475 0.961 . S
H491 C475 0.961 . S
H492 C476 0.931 . S
H493 C481 0.930 . S
H494 C482 0.956 . S
H495 C482 0.961 . S
H496 C482 0.961 . S
H497 C483 0.958 . S
H498 C483 0.961 . S
H499 C483 0.960 . S
C500 C501 1.391 . S
C500 C502 1.394 . S
C500 H516 0.931 . S
C501 C500 1.391 . S
C501 C505 1.376 . S
C502 C500 1.394 . S
C502 C503 1.369 . S
C502 C506 1.531 . S
C503 C502 1.369 . S
C503 C504 1.410 . S
C503 C511 1.503 . S
C504 C503 1.410 . S
C504 C505 1.392 . S
C504 C507 1.511 . S
C505 C501 1.376 . S
C505 C504 1.392 . S
C505 H517 0.929 . S
C506 C502 1.531 . S
C506 H518 0.960 . S
C506 H519 0.962 . S
C506 H520 0.960 . S
C507 C504 1.511 . S
C507 H521 0.961 . S
C507 H522 0.961 . S
C507 H523 0.961 . S
C508 C509 1.370 . S
C508 C510 1.363 . S
C508 H524 0.931 . S
C509 C508 1.370 . S
C509 C513 1.408 . S
C510 C508 1.363 . S
C510 C511 1.370 . S
C510 C514 1.524 . S
C511 C503 1.503 . S
C511 C510 1.370 . S
C511 C512 1.403 . S
C512 C511 1.403 . S
C512 C513 1.404 . S
C512 C515 1.539 . S
C513 C509 1.408 . S
C513 C512 1.404 . S
C513 H525 0.930 . S
C514 C510 1.524 . S
C514 H526 0.956 . S
C514 H527 0.961 . S
C514 H528 0.961 . S
C515 C512 1.539 . S
C515 H529 0.958 1_554 S
C515 H530 0.961 1_554 S
C515 H531 0.960 . S
H516 C500 0.931 . S
H517 C505 0.929 . S
H518 C506 0.960 . S
H519 C506 0.962 . S
H520 C506 0.960 . S
H521 C507 0.961 . S
H522 C507 0.961 . S
H523 C507 0.961 . S
H524 C508 0.931 . S
H525 C513 0.930 . S
H526 C514 0.956 . S
H527 C514 0.961 . S
H528 C514 0.961 . S
H529 C515 0.958 1_556 S
H530 C515 0.961 1_556 S
H531 C515 0.960 . S
C532 C533 1.391 . S
C532 C534 1.394 . S
C532 H548 0.931 . S
C533 C532 1.391 . S
C533 C537 1.376 . S
C534 C532 1.394 . S
C534 C535 1.369 . S
C534 C538 1.531 . S
C535 C534 1.369 . S
C535 C536 1.410 . S
C535 C543 1.503 . S
C536 C535 1.410 . S
C536 C537 1.392 . S
C536 C539 1.511 . S
C537 C533 1.376 . S
C537 C536 1.392 . S
C537 H549 0.929 . S
C538 C534 1.531 . S
C538 H550 0.960 . S
C538 H551 0.962 . S
C538 H552 0.960 . S
C539 C536 1.511 . S
C539 H553 0.961 . S
C539 H554 0.961 . S
C539 H555 0.961 1_554 S
C540 C541 1.370 . S
C540 C542 1.363 . S
C540 H556 0.931 . S
C541 C540 1.370 . S
C541 C545 1.408 . S
C542 C540 1.363 . S
C542 C543 1.370 . S
C542 C546 1.524 . S
C543 C535 1.503 . S
C543 C542 1.370 . S
C543 C544 1.403 . S
C544 C543 1.403 . S
C544 C545 1.404 . S
C544 C547 1.539 . S
C545 C541 1.408 . S
C545 C544 1.404 . S
C545 H557 0.930 . S
C546 C542 1.524 . S
C546 H558 0.956 . S
C546 H559 0.961 . S
C546 H560 0.961 . S
C547 C544 1.539 . S
C547 H561 0.958 . S
C547 H562 0.961 1_554 S
C547 H563 0.960 . S
H548 C532 0.931 . S
H549 C537 0.929 . S
H550 C538 0.960 . S
H551 C538 0.962 . S
H552 C538 0.960 . S
H553 C539 0.961 . S
H554 C539 0.961 . S
H555 C539 0.961 1_556 S
H556 C540 0.931 . S
H557 C545 0.930 . S
H558 C546 0.956 . S
H559 C546 0.961 . S
H560 C546 0.961 . S
H561 C547 0.958 . S
H562 C547 0.961 1_556 S
H563 C547 0.960 . S
C564 C565 1.391 . S
C564 C566 1.394 . S
C564 H580 0.931 . S
C565 C564 1.391 . S
C565 C569 1.376 . S
C566 C564 1.394 . S
C566 C567 1.369 . S
C566 C570 1.531 . S
C567 C566 1.369 . S
C567 C568 1.410 . S
C567 C575 1.503 . S
C568 C567 1.410 . S
C568 C569 1.392 . S
C568 C571 1.511 . S
C569 C565 1.376 . S
C569 C568 1.392 . S
C569 H581 0.929 . S
C570 C566 1.531 . S
C570 H582 0.960 . S
C570 H583 0.962 . S
C570 H584 0.960 . S
C571 C568 1.511 . S
C571 H585 0.961 . S
C571 H586 0.961 . S
C571 H587 0.961 . S
C572 C573 1.370 . S
C572 C574 1.363 . S
C572 H588 0.931 . S
C573 C572 1.370 . S
C573 C577 1.408 . S
C574 C572 1.363 . S
C574 C575 1.370 . S
C574 C578 1.524 . S
C575 C567 1.503 . S
C575 C574 1.370 . S
C575 C576 1.403 . S
C576 C575 1.403 . S
C576 C577 1.404 . S
C576 C579 1.539 . S
C577 C573 1.408 . S
C577 C576 1.404 . S
C577 H589 0.930 . S
C578 C574 1.524 . S
C578 H590 0.956 . S
C578 H591 0.961 . S
C578 H592 0.961 . S
C579 C576 1.539 . S
C579 H593 0.958 . S
C579 H594 0.961 . S
C579 H595 0.960 . S
H580 C564 0.931 . S
H581 C569 0.929 . S
H582 C570 0.960 . S
H583 C570 0.962 . S
H584 C570 0.960 . S
H585 C571 0.961 . S
H586 C571 0.961 . S
H587 C571 0.961 . S
H588 C572 0.931 . S
H589 C577 0.930 . S
H590 C578 0.956 . S
H591 C578 0.961 . S
H592 C578 0.961 . S
H593 C579 0.958 . S
H594 C579 0.961 . S
H595 C579 0.960 . S
C596 C597 1.391 . S
C596 C598 1.394 . S
C596 H612 0.931 . S
C597 C596 1.391 . S
C597 C601 1.376 . S
C598 C596 1.394 . S
C598 C599 1.369 . S
C598 C602 1.531 . S
C599 C598 1.369 . S
C599 C600 1.410 . S
C599 C607 1.503 . S
C600 C599 1.410 . S
C600 C601 1.392 . S
C600 C603 1.511 . S
C601 C597 1.376 . S
C601 C600 1.392 . S
C601 H613 0.929 . S
C602 C598 1.531 . S
C602 H614 0.960 . S
C602 H615 0.962 . S
C602 H616 0.960 . S
C603 C600 1.511 . S
C603 H617 0.961 . S
C603 H618 0.961 . S
C603 H619 0.961 . S
C604 C605 1.370 . S
C604 C606 1.363 . S
C604 H620 0.931 . S
C605 C604 1.370 . S
C605 C609 1.408 . S
C606 C604 1.363 . S
C606 C607 1.370 . S
C606 C610 1.524 . S
C607 C599 1.503 . S
C607 C606 1.370 . S
C607 C608 1.403 . S
C608 C607 1.403 . S
C608 C609 1.404 . S
C608 C611 1.539 . S
C609 C605 1.408 . S
C609 C608 1.404 . S
C609 H621 0.930 . S
C610 C606 1.524 . S
C610 H622 0.956 . S
C610 H623 0.961 . S
C610 H624 0.961 1_556 S
C611 C608 1.539 . S
C611 H625 0.958 . S
C611 H626 0.961 . S
C611 H627 0.960 . S
H612 C596 0.931 . S
H613 C601 0.929 . S
H614 C602 0.960 . S
H615 C602 0.962 . S
H616 C602 0.960 . S
H617 C603 0.961 . S
H618 C603 0.961 . S
H619 C603 0.961 . S
H620 C604 0.931 . S
H621 C609 0.930 . S
H622 C610 0.956 . S
H623 C610 0.961 . S
H624 C610 0.961 1_554 S
H625 C611 0.958 . S
H626 C611 0.961 . S
H627 C611 0.960 . S
C628 C629 1.391 . S
C628 C630 1.394 . S
C628 H644 0.931 . S
C629 C628 1.391 . S
C629 C633 1.376 . S
C630 C628 1.394 . S
C630 C631 1.369 . S
C630 C634 1.531 . S
C631 C630 1.369 . S
C631 C632 1.410 . S
C631 C639 1.503 . S
C632 C631 1.410 . S
C632 C633 1.392 . S
C632 C635 1.511 . S
C633 C629 1.376 . S
C633 C632 1.392 . S
C633 H645 0.929 . S
C634 C630 1.531 . S
C634 H646 0.960 . S
C634 H647 0.962 1_556 S
C634 H648 0.960 1_556 S
C635 C632 1.511 . S
C635 H649 0.961 . S
C635 H650 0.961 . S
C635 H651 0.961 . S
C636 C637 1.370 . S
C636 C638 1.363 . S
C636 H652 0.931 . S
C637 C636 1.370 . S
C637 C641 1.408 . S
C638 C636 1.363 . S
C638 C639 1.370 . S
C638 C642 1.524 . S
C639 C631 1.503 . S
C639 C638 1.370 . S
C639 C640 1.403 . S
C640 C639 1.403 . S
C640 C641 1.404 . S
C640 C643 1.539 . S
C641 C637 1.408 . S
C641 C640 1.404 . S
C641 H653 0.930 . S
C642 C638 1.524 . S
C642 H654 0.956 . S
C642 H655 0.961 . S
C642 H656 0.961 . S
C643 C640 1.539 . S
C643 H657 0.958 . S
C643 H658 0.961 . S
C643 H659 0.960 . S
H644 C628 0.931 . S
H645 C633 0.929 . S
H646 C634 0.960 . S
H647 C634 0.962 1_554 S
H648 C634 0.960 1_554 S
H649 C635 0.961 . S
H650 C635 0.961 . S
H651 C635 0.961 . S
H652 C636 0.931 . S
H653 C641 0.930 . S
H654 C642 0.956 . S
H655 C642 0.961 . S
H656 C642 0.961 . S
H657 C643 0.958 . S
H658 C643 0.961 . S
H659 C643 0.960 . S
C660 C661 1.391 . S
C660 C662 1.394 . S
C660 H676 0.931 . S
C661 C660 1.391 . S
C661 C665 1.376 . S
C662 C660 1.394 . S
C662 C663 1.369 . S
C662 C666 1.531 . S
C663 C662 1.369 . S
C663 C664 1.410 . S
C663 C671 1.503 . S
C664 C663 1.410 . S
C664 C665 1.392 . S
C664 C667 1.511 . S
C665 C661 1.376 . S
C665 C664 1.392 . S
C665 H677 0.929 . S
C666 C662 1.531 . S
C666 H678 0.960 . S
C666 H679 0.962 . S
C666 H680 0.960 . S
C667 C664 1.511 . S
C667 H681 0.961 . S
C667 H682 0.961 . S
C667 H683 0.961 . S
C668 C669 1.370 . S
C668 C670 1.363 . S
C668 H684 0.931 . S
C669 C668 1.370 . S
C669 C673 1.408 . S
C670 C668 1.363 . S
C670 C671 1.370 . S
C670 C674 1.524 . S
C671 C663 1.503 . S
C671 C670 1.370 . S
C671 C672 1.403 . S
C672 C671 1.403 . S
C672 C673 1.404 . S
C672 C675 1.539 . S
C673 C669 1.408 . S
C673 C672 1.404 . S
C673 H685 0.930 . S
C674 C670 1.524 . S
C674 H686 0.956 . S
C674 H687 0.961 . S
C674 H688 0.961 . S
C675 C672 1.539 . S
C675 H689 0.958 . S
C675 H690 0.961 . S
C675 H691 0.960 . S
H676 C660 0.931 . S
H677 C665 0.929 . S
H678 C666 0.960 . S
H679 C666 0.962 . S
H680 C666 0.960 . S
H681 C667 0.961 . S
H682 C667 0.961 . S
H683 C667 0.961 . S
H684 C668 0.931 . S
H685 C673 0.930 . S
H686 C674 0.956 . S
H687 C674 0.961 . S
H688 C674 0.961 . S
H689 C675 0.958 . S
H690 C675 0.961 . S
H691 C675 0.960 . S
C692 C693 1.391 . S
C692 C694 1.394 . S
C692 H708 0.931 . S
C693 C692 1.391 . S
C693 C697 1.376 . S
C694 C692 1.394 . S
C694 C695 1.369 . S
C694 C698 1.531 . S
C695 C694 1.369 . S
C695 C696 1.410 . S
C695 C703 1.503 . S
C696 C695 1.410 . S
C696 C697 1.392 . S
C696 C699 1.511 . S
C697 C693 1.376 . S
C697 C696 1.392 . S
C697 H709 0.929 . S
C698 C694 1.531 . S
C698 H710 0.960 . S
C698 H711 0.962 . S
C698 H712 0.960 . S
C699 C696 1.511 . S
C699 H713 0.961 . S
C699 H714 0.961 . S
C699 H715 0.961 . S
C700 C701 1.370 . S
C700 C702 1.363 . S
C700 H716 0.931 . S
C701 C700 1.370 . S
C701 C705 1.408 . S
C702 C700 1.363 . S
C702 C703 1.370 . S
C702 C706 1.524 . S
C703 C695 1.503 . S
C703 C702 1.370 . S
C703 C704 1.403 . S
C704 C703 1.403 . S
C704 C705 1.404 . S
C704 C707 1.539 . S
C705 C701 1.408 . S
C705 C704 1.404 . S
C705 H717 0.930 . S
C706 C702 1.524 . S
C706 H718 0.956 . S
C706 H719 0.961 . S
C706 H720 0.961 . S
C707 C704 1.539 . S
C707 H721 0.958 . S
C707 H722 0.961 . S
C707 H723 0.960 . S
H708 C692 0.931 . S
H709 C697 0.929 . S
H710 C698 0.960 . S
H711 C698 0.962 . S
H712 C698 0.960 . S
H713 C699 0.961 . S
H714 C699 0.961 . S
H715 C699 0.961 . S
H716 C700 0.931 . S
H717 C705 0.930 . S
H718 C706 0.956 . S
H719 C706 0.961 . S
H720 C706 0.961 . S
H721 C707 0.958 . S
H722 C707 0.961 . S
H723 C707 0.960 . S
C724 C725 1.391 . S
C724 C726 1.394 . S
C724 H740 0.931 . S
C725 C724 1.391 . S
C725 C729 1.376 . S
C726 C724 1.394 . S
C726 C727 1.369 . S
C726 C730 1.531 . S
C727 C726 1.369 . S
C727 C728 1.410 . S
C727 C735 1.503 . S
C728 C727 1.410 . S
C728 C729 1.392 . S
C728 C731 1.511 . S
C729 C725 1.376 . S
C729 C728 1.392 . S
C729 H741 0.929 . S
C730 C726 1.531 . S
C730 H742 0.960 . S
C730 H743 0.962 . S
C730 H744 0.960 . S
C731 C728 1.511 . S
C731 H745 0.961 . S
C731 H746 0.961 . S
C731 H747 0.961 . S
C732 C733 1.370 . S
C732 C734 1.363 . S
C732 H748 0.931 . S
C733 C732 1.370 . S
C733 C737 1.408 . S
C734 C732 1.363 . S
C734 C735 1.370 . S
C734 C738 1.524 . S
C735 C727 1.503 . S
C735 C734 1.370 . S
C735 C736 1.403 . S
C736 C735 1.403 . S
C736 C737 1.404 . S
C736 C739 1.539 . S
C737 C733 1.408 . S
C737 C736 1.404 . S
C737 H749 0.930 . S
C738 C734 1.524 . S
C738 H750 0.956 . S
C738 H751 0.961 . S
C738 H752 0.961 . S
C739 C736 1.539 . S
C739 H753 0.958 . S
C739 H754 0.961 . S
C739 H755 0.960 . S
H740 C724 0.931 . S
H741 C729 0.929 . S
H742 C730 0.960 . S
H743 C730 0.962 . S
H744 C730 0.960 . S
H745 C731 0.961 . S
H746 C731 0.961 . S
H747 C731 0.961 . S
H748 C732 0.931 . S
H749 C737 0.930 . S
H750 C738 0.956 . S
H751 C738 0.961 . S
H752 C738 0.961 . S
H753 C739 0.958 . S
H754 C739 0.961 . S
H755 C739 0.960 . S
C756 C757 1.391 . S
C756 C758 1.394 . S
C756 H772 0.931 . S
C757 C756 1.391 . S
C757 C761 1.376 . S
C758 C756 1.394 . S
C758 C759 1.369 . S
C758 C762 1.531 . S
C759 C758 1.369 . S
C759 C760 1.410 . S
C759 C767 1.503 . S
C760 C759 1.410 . S
C760 C761 1.392 . S
C760 C763 1.511 . S
C761 C757 1.376 . S
C761 C760 1.392 . S
C761 H773 0.929 . S
C762 C758 1.531 . S
C762 H774 0.960 . S
C762 H775 0.962 . S
C762 H776 0.960 . S
C763 C760 1.511 . S
C763 H777 0.961 . S
C763 H778 0.961 . S
C763 H779 0.961 . S
C764 C765 1.370 . S
C764 C766 1.363 . S
C764 H780 0.931 . S
C765 C764 1.370 . S
C765 C769 1.408 . S
C766 C764 1.363 . S
C766 C767 1.370 . S
C766 C770 1.524 . S
C767 C759 1.503 . S
C767 C766 1.370 . S
C767 C768 1.403 . S
C768 C767 1.403 . S
C768 C769 1.404 . S
C768 C771 1.539 . S
C769 C765 1.408 . S
C769 C768 1.404 . S
C769 H781 0.930 . S
C770 C766 1.524 . S
C770 H782 0.956 . S
C770 H783 0.961 . S
C770 H784 0.961 . S
C771 C768 1.539 . S
C771 H785 0.958 . S
C771 H786 0.961 . S
C771 H787 0.960 . S
H772 C756 0.931 . S
H773 C761 0.929 . S
H774 C762 0.960 . S
H775 C762 0.962 . S
H776 C762 0.960 . S
H777 C763 0.961 . S
H778 C763 0.961 . S
H779 C763 0.961 . S
H780 C764 0.931 . S
H781 C769 0.930 . S
H782 C770 0.956 . S
H783 C770 0.961 . S
H784 C770 0.961 . S
H785 C771 0.958 . S
H786 C771 0.961 . S
H787 C771 0.960 . S
C788 C789 1.391 . S
C788 C790 1.394 . S
C788 H804 0.931 . S
C789 C788 1.391 . S
C789 C793 1.376 . S
C790 C788 1.394 . S
C790 C791 1.369 . S
C790 C794 1.531 . S
C791 C790 1.369 . S
C791 C792 1.410 . S
C791 C799 1.503 . S
C792 C791 1.410 . S
C792 C793 1.392 . S
C792 C795 1.511 . S
C793 C789 1.376 . S
C793 C792 1.392 . S
C793 H805 0.929 . S
C794 C790 1.531 . S
C794 H806 0.960 . S
C794 H807 0.962 . S
C794 H808 0.960 . S
C795 C792 1.511 . S
C795 H809 0.961 . S
C795 H810 0.961 . S
C795 H811 0.961 . S
C796 C797 1.370 . S
C796 C798 1.363 . S
C796 H812 0.931 . S
C797 C796 1.370 . S
C797 C801 1.408 . S
C798 C796 1.363 . S
C798 C799 1.370 . S
C798 C802 1.524 . S
C799 C791 1.503 . S
C799 C798 1.370 . S
C799 C800 1.403 . S
C800 C799 1.403 . S
C800 C801 1.404 . S
C800 C803 1.539 . S
C801 C797 1.408 . S
C801 C800 1.404 . S
C801 H813 0.930 . S
C802 C798 1.524 . S
C802 H814 0.956 . S
C802 H815 0.961 . S
C802 H816 0.961 . S
C803 C800 1.539 . S
C803 H817 0.958 . S
C803 H818 0.961 . S
C803 H819 0.960 . S
H804 C788 0.931 . S
H805 C793 0.929 . S
H806 C794 0.960 . S
H807 C794 0.962 . S
H808 C794 0.960 . S
H809 C795 0.961 . S
H810 C795 0.961 . S
H811 C795 0.961 . S
H812 C796 0.931 . S
H813 C801 0.930 . S
H814 C802 0.956 . S
H815 C802 0.961 . S
H816 C802 0.961 . S
H817 C803 0.958 . S
H818 C803 0.961 . S
H819 C803 0.960 . S
C820 C821 1.391 . S
C820 C822 1.394 . S
C820 H836 0.931 . S
C821 C820 1.391 . S
C821 C825 1.376 . S
C822 C820 1.394 . S
C822 C823 1.369 . S
C822 C826 1.531 . S
C823 C822 1.369 . S
C823 C824 1.410 . S
C823 C831 1.503 . S
C824 C823 1.410 . S
C824 C825 1.392 . S
C824 C827 1.511 . S
C825 C821 1.376 . S
C825 C824 1.392 . S
C825 H837 0.929 . S
C826 C822 1.531 . S
C826 H838 0.960 . S
C826 H839 0.962 . S
C826 H840 0.960 . S
C827 C824 1.511 . S
C827 H841 0.961 . S
C827 H842 0.961 . S
C827 H843 0.961 . S
C828 C829 1.370 . S
C828 C830 1.363 . S
C828 H844 0.931 . S
C829 C828 1.370 . S
C829 C833 1.408 . S
C830 C828 1.363 . S
C830 C831 1.370 . S
C830 C834 1.524 . S
C831 C823 1.503 . S
C831 C830 1.370 . S
C831 C832 1.403 . S
C832 C831 1.403 . S
C832 C833 1.404 . S
C832 C835 1.539 . S
C833 C829 1.408 . S
C833 C832 1.404 . S
C833 H845 0.930 . S
C834 C830 1.524 . S
C834 H846 0.956 . S
C834 H847 0.961 . S
C834 H848 0.961 . S
C835 C832 1.539 . S
C835 H849 0.958 . S
C835 H850 0.961 . S
C835 H851 0.960 . S
H836 C820 0.931 . S
H837 C825 0.929 . S
H838 C826 0.960 . S
H839 C826 0.962 . S
H840 C826 0.960 . S
H841 C827 0.961 . S
H842 C827 0.961 . S
H843 C827 0.961 . S
H844 C828 0.931 . S
H845 C833 0.930 . S
H846 C834 0.956 . S
H847 C834 0.961 . S
H848 C834 0.961 . S
H849 C835 0.958 . S
H850 C835 0.961 . S
H851 C835 0.960 . S
C852 C853 1.391 . S
C852 C854 1.394 . S
C852 H868 0.931 . S
C853 C852 1.391 . S
C853 C857 1.376 . S
C854 C852 1.394 . S
C854 C855 1.369 . S
C854 C858 1.531 . S
C855 C854 1.369 . S
C855 C856 1.410 . S
C855 C863 1.503 . S
C856 C855 1.410 . S
C856 C857 1.392 . S
C856 C859 1.511 . S
C857 C853 1.376 . S
C857 C856 1.392 . S
C857 H869 0.929 . S
C858 C854 1.531 . S
C858 H870 0.960 . S
C858 H871 0.962 . S
C858 H872 0.960 . S
C859 C856 1.511 . S
C859 H873 0.961 . S
C859 H874 0.961 . S
C859 H875 0.961 . S
C860 C861 1.370 . S
C860 C862 1.363 . S
C860 H876 0.931 . S
C861 C860 1.370 . S
C861 C865 1.408 . S
C862 C860 1.363 . S
C862 C863 1.370 . S
C862 C866 1.524 . S
C863 C855 1.503 . S
C863 C862 1.370 . S
C863 C864 1.403 . S
C864 C863 1.403 . S
C864 C865 1.404 . S
C864 C867 1.539 . S
C865 C861 1.408 . S
C865 C864 1.404 . S
C865 H877 0.930 . S
C866 C862 1.524 . S
C866 H878 0.956 . S
C866 H879 0.961 . S
C866 H880 0.961 . S
C867 C864 1.539 . S
C867 H881 0.958 . S
C867 H882 0.961 . S
C867 H883 0.960 . S
H868 C852 0.931 . S
H869 C857 0.929 . S
H870 C858 0.960 . S
H871 C858 0.962 . S
H872 C858 0.960 . S
H873 C859 0.961 . S
H874 C859 0.961 . S
H875 C859 0.961 . S
H876 C860 0.931 . S
H877 C865 0.930 . S
H878 C866 0.956 . S
H879 C866 0.961 . S
H880 C866 0.961 . S
H881 C867 0.958 . S
H882 C867 0.961 . S
H883 C867 0.960 . S
C884 C885 1.391 . S
C884 C886 1.394 . S
C884 H900 0.931 . S
C885 C884 1.391 . S
C885 C889 1.376 . S
C886 C884 1.394 . S
C886 C887 1.369 . S
C886 C890 1.531 . S
C887 C886 1.369 . S
C887 C888 1.410 . S
C887 C895 1.503 . S
C888 C887 1.410 . S
C888 C889 1.392 . S
C888 C891 1.511 . S
C889 C885 1.376 . S
C889 C888 1.392 . S
C889 H901 0.929 . S
C890 C886 1.531 . S
C890 H902 0.960 . S
C890 H903 0.962 . S
C890 H904 0.960 . S
C891 C888 1.511 . S
C891 H905 0.961 . S
C891 H906 0.961 . S
C891 H907 0.961 . S
C892 C893 1.370 . S
C892 C894 1.363 . S
C892 H908 0.931 . S
C893 C892 1.370 . S
C893 C897 1.408 . S
C894 C892 1.363 . S
C894 C895 1.370 . S
C894 C898 1.524 . S
C895 C887 1.503 . S
C895 C894 1.370 . S
C895 C896 1.403 . S
C896 C895 1.403 . S
C896 C897 1.404 . S
C896 C899 1.539 . S
C897 C893 1.408 . S
C897 C896 1.404 . S
C897 H909 0.930 . S
C898 C894 1.524 . S
C898 H910 0.956 . S
C898 H911 0.961 . S
C898 H912 0.961 . S
C899 C896 1.539 . S
C899 H913 0.958 . S
C899 H914 0.961 . S
C899 H915 0.960 . S
H900 C884 0.931 . S
H901 C889 0.929 . S
H902 C890 0.960 . S
H903 C890 0.962 . S
H904 C890 0.960 . S
H905 C891 0.961 . S
H906 C891 0.961 . S
H907 C891 0.961 . S
H908 C892 0.931 . S
H909 C897 0.930 . S
H910 C898 0.956 . S
H911 C898 0.961 . S
H912 C898 0.961 . S
H913 C899 0.958 . S
H914 C899 0.961 . S
H915 C899 0.960 . S
C916 C917 1.391 . S
C916 C918 1.394 . S
C916 H932 0.931 . S
C917 C916 1.391 . S
C917 C921 1.376 . S
C918 C916 1.394 . S
C918 C919 1.369 . S
C918 C922 1.531 . S
C919 C918 1.369 . S
C919 C920 1.410 . S
C919 C927 1.503 . S
C920 C919 1.410 . S
C920 C921 1.392 . S
C920 C923 1.511 . S
C921 C917 1.376 . S
C921 C920 1.392 . S
C921 H933 0.929 . S
C922 C918 1.531 . S
C922 H934 0.960 . S
C922 H935 0.962 . S
C922 H936 0.960 . S
C923 C920 1.511 . S
C923 H937 0.961 . S
C923 H938 0.961 . S
C923 H939 0.961 . S
C924 C925 1.370 . S
C924 C926 1.363 . S
C924 H940 0.931 . S
C925 C924 1.370 . S
C925 C929 1.408 . S
C926 C924 1.363 . S
C926 C927 1.370 . S
C926 C930 1.524 . S
C927 C919 1.503 . S
C927 C926 1.370 . S
C927 C928 1.403 . S
C928 C927 1.403 . S
C928 C929 1.404 . S
C928 C931 1.539 . S
C929 C925 1.408 . S
C929 C928 1.404 . S
C929 H941 0.930 . S
C930 C926 1.524 . S
C930 H942 0.956 . S
C930 H943 0.961 . S
C930 H944 0.961 . S
C931 C928 1.539 . S
C931 H945 0.958 . S
C931 H946 0.961 . S
C931 H947 0.960 . S
H932 C916 0.931 . S
H933 C921 0.929 . S
H934 C922 0.960 . S
H935 C922 0.962 . S
H936 C922 0.960 . S
H937 C923 0.961 . S
H938 C923 0.961 . S
H939 C923 0.961 . S
H940 C924 0.931 . S
H941 C929 0.930 . S
H942 C930 0.956 . S
H943 C930 0.961 . S
H944 C930 0.961 . S
H945 C931 0.958 . S
H946 C931 0.961 . S
H947 C931 0.960 . S
C948 C949 1.391 . S
C948 C950 1.394 . S
C948 H964 0.931 . S
C949 C948 1.391 . S
C949 C953 1.376 . S
C950 C948 1.394 . S
C950 C951 1.369 . S
C950 C954 1.531 . S
C951 C950 1.369 . S
C951 C952 1.410 . S
C951 C959 1.503 . S
C952 C951 1.410 . S
C952 C953 1.392 . S
C952 C955 1.511 . S
C953 C949 1.376 . S
C953 C952 1.392 . S
C953 H965 0.929 . S
C954 C950 1.531 . S
C954 H966 0.960 . S
C954 H967 0.962 . S
C954 H968 0.960 . S
C955 C952 1.511 . S
C955 H969 0.961 . S
C955 H970 0.961 . S
C955 H971 0.961 . S
C956 C957 1.370 . S
C956 C958 1.363 . S
C956 H972 0.931 . S
C957 C956 1.370 . S
C957 C961 1.408 . S
C958 C956 1.363 . S
C958 C959 1.370 . S
C958 C962 1.524 . S
C959 C951 1.503 . S
C959 C958 1.370 . S
C959 C960 1.403 . S
C960 C959 1.403 . S
C960 C961 1.404 . S
C960 C963 1.539 . S
C961 C957 1.408 . S
C961 C960 1.404 . S
C961 H973 0.930 . S
C962 C958 1.524 . S
C962 H974 0.956 . S
C962 H975 0.961 . S
C962 H976 0.961 . S
C963 C960 1.539 . S
C963 H977 0.958 . S
C963 H978 0.961 . S
C963 H979 0.960 . S
H964 C948 0.931 . S
H965 C953 0.929 . S
H966 C954 0.960 . S
H967 C954 0.962 . S
H968 C954 0.960 . S
H969 C955 0.961 . S
H970 C955 0.961 . S
H971 C955 0.961 . S
H972 C956 0.931 . S
H973 C961 0.930 . S
H974 C962 0.956 . S
H975 C962 0.961 . S
H976 C962 0.961 . S
H977 C963 0.958 . S
H978 C963 0.961 . S
H979 C963 0.960 . S
C980 C981 1.391 . S
C980 C982 1.394 . S
C980 H996 0.931 . S
C981 C980 1.391 . S
C981 C985 1.376 . S
C982 C980 1.394 . S
C982 C983 1.369 . S
C982 C986 1.531 . S
C983 C982 1.369 . S
C983 C984 1.410 . S
C983 C991 1.503 . S
C984 C983 1.410 . S
C984 C985 1.392 . S
C984 C987 1.511 . S
C985 C981 1.376 . S
C985 C984 1.392 . S
C985 H997 0.929 . S
C986 C982 1.531 . S
C986 H998 0.960 . S
C986 H999 0.962 . S
C986 H1000 0.960 . S
C987 C984 1.511 . S
C987 H1001 0.961 . S
C987 H1002 0.961 . S
C987 H1003 0.961 . S
C988 C989 1.370 . S
C988 C990 1.363 . S
C988 H1004 0.931 . S
C989 C988 1.370 . S
C989 C993 1.408 . S
C990 C988 1.363 . S
C990 C991 1.370 . S
C990 C994 1.524 . S
C991 C983 1.503 . S
C991 C990 1.370 . S
C991 C992 1.403 . S
C992 C991 1.403 . S
C992 C993 1.404 . S
C992 C995 1.539 . S
C993 C989 1.408 . S
C993 C992 1.404 . S
C993 H1005 0.930 . S
C994 C990 1.524 . S
C994 H1006 0.956 . S
C994 H1007 0.961 . S
C994 H1008 0.961 . S
C995 C992 1.539 . S
C995 H1009 0.958 . S
C995 H1010 0.961 . S
C995 H1011 0.960 . S
H996 C980 0.931 . S
H997 C985 0.929 . S
H998 C986 0.960 . S
H999 C986 0.962 . S
H1000 C986 0.960 . S
H1001 C987 0.961 . S
H1002 C987 0.961 . S
H1003 C987 0.961 . S
H1004 C988 0.931 . S
H1005 C993 0.930 . S
H1006 C994 0.956 . S
H1007 C994 0.961 . S
H1008 C994 0.961 . S
H1009 C995 0.958 . S
H1010 C995 0.961 . S
H1011 C995 0.960 . S
C1012 C1013 1.391 . S
C1012 C1014 1.394 . S
C1012 H1028 0.931 . S
C1013 C1012 1.391 . S
C1013 C1017 1.376 . S
C1014 C1012 1.394 . S
C1014 C1015 1.369 . S
C1014 C1018 1.531 . S
C1015 C1014 1.369 . S
C1015 C1016 1.410 . S
C1015 C1023 1.503 . S
C1016 C1015 1.410 . S
C1016 C1017 1.392 . S
C1016 C1019 1.511 . S
C1017 C1013 1.376 . S
C1017 C1016 1.392 . S
C1017 H1029 0.929 . S
C1018 C1014 1.531 . S
C1018 H1030 0.960 . S
C1018 H1031 0.962 . S
C1018 H1032 0.960 . S
C1019 C1016 1.511 . S
C1019 H1033 0.961 . S
C1019 H1034 0.961 . S
C1019 H1035 0.961 . S
C1020 C1021 1.370 . S
C1020 C1022 1.363 . S
C1020 H1036 0.931 . S
C1021 C1020 1.370 . S
C1021 C1025 1.408 . S
C1022 C1020 1.363 . S
C1022 C1023 1.370 . S
C1022 C1026 1.524 . S
C1023 C1015 1.503 . S
C1023 C1022 1.370 . S
C1023 C1024 1.403 . S
C1024 C1023 1.403 . S
C1024 C1025 1.404 . S
C1024 C1027 1.539 . S
C1025 C1021 1.408 . S
C1025 C1024 1.404 . S
C1025 H1037 0.930 . S
C1026 C1022 1.524 . S
C1026 H1038 0.956 . S
C1026 H1039 0.961 . S
C1026 H1040 0.961 . S
C1027 C1024 1.539 . S
C1027 H1041 0.958 . S
C1027 H1042 0.961 . S
C1027 H1043 0.960 . S
H1028 C1012 0.931 . S
H1029 C1017 0.929 . S
H1030 C1018 0.960 . S
H1031 C1018 0.962 . S
H1032 C1018 0.960 . S
H1033 C1019 0.961 . S
H1034 C1019 0.961 . S
H1035 C1019 0.961 . S
H1036 C1020 0.931 . S
H1037 C1025 0.930 . S
H1038 C1026 0.956 . S
H1039 C1026 0.961 . S
H1040 C1026 0.961 . S
H1041 C1027 0.958 . S
H1042 C1027 0.961 . S
H1043 C1027 0.960 . S
C1044 C1045 1.391 . S
C1044 C1046 1.394 . S
C1044 H1060 0.931 . S
C1045 C1044 1.391 . S
C1045 C1049 1.376 . S
C1046 C1044 1.394 . S
C1046 C1047 1.369 . S
C1046 C1050 1.531 1_455 S
C1047 C1046 1.369 . S
C1047 C1048 1.410 1_554 S
C1047 C1055 1.503 1_454 S
C1048 C1047 1.410 1_556 S
C1048 C1049 1.392 1_556 S
C1048 C1051 1.511 . S
C1049 C1045 1.376 . S
C1049 C1048 1.392 1_554 S
C1049 H1061 0.929 1_554 S
C1050 C1046 1.531 1_655 S
C1050 H1062 0.960 . S
C1050 H1063 0.962 . S
C1050 H1064 0.974 . S
C1051 C1048 1.511 . S
C1051 H1065 0.961 . S
C1051 H1066 0.961 . S
C1051 H1067 0.961 . S
C1052 C1053 1.370 . S
C1052 C1054 1.363 . S
C1052 H1068 0.931 . S
C1053 C1052 1.370 . S
C1053 C1057 1.408 . S
C1054 C1052 1.363 . S
C1054 C1055 1.370 . S
C1054 C1058 1.524 . S
C1055 C1047 1.503 1_656 S
C1055 C1054 1.370 . S
C1055 C1056 1.403 . S
C1056 C1055 1.403 . S
C1056 C1057 1.404 . S
C1056 C1059 1.539 1_556 S
C1057 C1053 1.408 . S
C1057 C1056 1.404 . S
C1057 H1069 0.930 . S
C1058 C1054 1.524 . S
C1058 H1070 0.968 1_556 S
C1058 H1071 0.961 1_655 S
C1058 H1072 0.961 . S
C1059 C1056 1.539 1_554 S
C1059 H1073 0.958 . S
C1059 H1074 0.961 1_554 S
C1059 H1075 0.960 . S
H1060 C1044 0.931 . S
H1061 C1049 0.929 1_556 S
H1062 C1050 0.960 . S
H1063 C1050 0.962 . S
H1064 C1050 0.974 . S
H1065 C1051 0.961 . S
H1066 C1051 0.961 . S
H1067 C1051 0.961 . S
H1068 C1052 0.931 . S
H1069 C1057 0.930 . S
H1070 C1058 0.968 1_554 S
H1071 C1058 0.961 1_455 S
H1072 C1058 0.961 . S
H1073 C1059 0.958 . S
H1074 C1059 0.961 1_556 S
H1075 C1059 0.960 . S
C1076 C1077 1.391 . S
C1076 C1078 1.394 1_556 S
C1076 H1092 0.931 . S
C1077 C1076 1.391 . S
C1077 C1081 1.376 . S
C1078 C1076 1.394 1_554 S
C1078 C1079 1.369 1_554 S
C1078 C1082 1.531 . S
C1079 C1078 1.369 1_556 S
C1079 C1080 1.410 . S
C1079 C1087 1.503 1_556 S
C1080 C1079 1.410 . S
C1080 C1081 1.392 . S
C1080 C1083 1.511 . S
C1081 C1077 1.376 . S
C1081 C1080 1.392 . S
C1081 H1093 0.929 . S
C1082 C1078 1.531 . S
C1082 H1094 0.960 . S
C1082 H1095 0.962 . S
C1082 H1096 0.960 . S
C1083 C1080 1.511 . S
C1083 H1097 0.961 . S
C1083 H1098 0.961 . S
C1083 H1099 0.961 . S
C1084 C1085 1.370 . S
C1084 C1086 1.363 1_554 S
C1084 H1100 0.931 1_554 S
C1085 C1084 1.370 . S
C1085 C1089 1.408 . S
C1086 C1084 1.363 1_556 S
C1086 C1087 1.370 1_556 S
C1086 C1090 1.524 . S
C1087 C1079 1.503 1_554 S
C1087 C1086 1.370 1_554 S
C1087 C1088 1.403 . S
C1088 C1087 1.403 . S
C1088 C1089 1.404 . S
C1088 C1091 1.539 . S
C1089 C1085 1.408 . S
C1089 C1088 1.404 . S
C1089 H1101 0.930 . S
C1090 C1086 1.524 . S
C1090 H1102 0.956 . S
C1090 H1103 0.961 . S
C1090 H1104 0.961 . S
C1091 C1088 1.539 . S
C1091 H1105 0.958 . S
C1091 H1106 0.961 . S
C1091 H1107 0.960 . S
H1092 C1076 0.931 . S
H1093 C1081 0.929 . S
H1094 C1082 0.960 . S
H1095 C1082 0.962 . S
H1096 C1082 0.960 . S
H1097 C1083 0.961 . S
H1098 C1083 0.961 . S
H1099 C1083 0.961 . S
H1100 C1084 0.931 1_556 S
H1101 C1089 0.930 . S
H1102 C1090 0.956 . S
H1103 C1090 0.961 . S
H1104 C1090 0.961 . S
H1105 C1091 0.958 . S
H1106 C1091 0.961 . S
H1107 C1091 0.960 . S
C1108 C1109 1.391 . S
C1108 C1110 1.394 1_554 S
C1108 H1124 0.931 . S
C1109 C1108 1.391 . S
C1109 C1113 1.376 . S
C1110 C1108 1.394 1_556 S
C1110 C1111 1.369 1_556 S
C1110 C1114 1.531 . S
C1111 C1110 1.369 1_554 S
C1111 C1112 1.410 . S
C1111 C1119 1.503 1_564 S
C1112 C1111 1.410 . S
C1112 C1113 1.392 . S
C1112 C1115 1.511 . S
C1113 C1109 1.376 . S
C1113 C1112 1.392 . S
C1113 H1125 0.929 . S
C1114 C1110 1.531 . S
C1114 H1126 0.960 . S
C1114 H1127 0.962 . S
C1114 H1128 0.960 . S
C1115 C1112 1.511 . S
C1115 H1129 0.961 . S
C1115 H1130 0.961 1_565 S
C1115 H1131 0.945 1_554 S
C1116 C1117 1.370 . S
C1116 C1118 1.363 1_556 S
C1116 H1132 0.931 1_556 S
C1117 C1116 1.370 . S
C1117 C1121 1.408 . S
C1118 C1116 1.363 1_554 S
C1118 C1119 1.370 1_554 S
C1118 C1122 1.524 . S
C1119 C1111 1.503 1_546 S
C1119 C1118 1.370 1_556 S
C1119 C1120 1.403 . S
C1120 C1119 1.403 . S
C1120 C1121 1.404 . S
C1120 C1123 1.539 1_545 S
C1121 C1117 1.408 . S
C1121 C1120 1.404 . S
C1121 H1133 0.930 . S
C1122 C1118 1.524 . S
C1122 H1134 0.956 . S
C1122 H1135 0.961 . S
C1122 H1136 0.961 . S
C1123 C1120 1.539 1_565 S
C1123 H1137 0.958 . S
C1123 H1138 0.961 1_565 S
C1123 H1139 0.960 . S
H1124 C1108 0.931 . S
H1125 C1113 0.929 . S
H1126 C1114 0.960 . S
H1127 C1114 0.962 . S
H1128 C1114 0.960 . S
H1129 C1115 0.961 . S
H1130 C1115 0.961 1_545 S
H1131 C1115 0.945 1_556 S
H1132 C1116 0.931 1_554 S
H1133 C1121 0.930 . S
H1134 C1122 0.956 . S
H1135 C1122 0.961 . S
H1136 C1122 0.961 . S
H1137 C1123 0.958 . S
H1138 C1123 0.961 1_545 S
H1139 C1123 0.960 . S
C1140 C1141 1.391 . S
C1140 C1142 1.394 . S
C1140 H1156 0.931 . S
C1141 C1140 1.391 . S
C1141 C1145 1.376 . S
C1142 C1140 1.394 . S
C1142 C1143 1.369 . S
C1142 C1146 1.531 1_655 S
C1143 C1142 1.369 . S
C1143 C1144 1.410 1_556 S
C1143 C1151 1.503 1_656 S
C1144 C1143 1.410 1_554 S
C1144 C1145 1.392 1_554 S
C1144 C1147 1.511 . S
C1145 C1141 1.376 . S
C1145 C1144 1.392 1_556 S
C1145 H1157 0.929 1_556 S
C1146 C1142 1.531 1_455 S
C1146 H1158 0.960 . S
C1146 H1159 0.962 . S
C1146 H1160 0.994 . S
C1147 C1144 1.511 . S
C1147 H1161 0.961 . S
C1147 H1162 0.961 . S
C1147 H1163 0.961 . S
C1148 C1149 1.370 . S
C1148 C1150 1.363 . S
C1148 H1164 0.931 . S
C1149 C1148 1.370 . S
C1149 C1153 1.408 . S
C1150 C1148 1.363 . S
C1150 C1151 1.370 . S
C1150 C1154 1.524 . S
C1151 C1143 1.503 1_454 S
C1151 C1150 1.370 . S
C1151 C1152 1.403 . S
C1152 C1151 1.403 . S
C1152 C1153 1.404 . S
C1152 C1155 1.539 1_554 S
C1153 C1149 1.408 . S
C1153 C1152 1.404 . S
C1153 H1165 0.930 . S
C1154 C1150 1.524 . S
C1154 H1166 0.958 1_554 S
C1154 H1167 0.961 1_455 S
C1154 H1168 0.961 . S
C1155 C1152 1.539 1_556 S
C1155 H1169 0.958 . S
C1155 H1170 0.961 1_556 S
C1155 H1171 0.960 . S
H1156 C1140 0.931 . S
H1157 C1145 0.929 1_554 S
H1158 C1146 0.960 . S
H1159 C1146 0.962 . S
H1160 C1146 0.994 . S
H1161 C1147 0.961 . S
H1162 C1147 0.961 . S
H1163 C1147 0.961 . S
H1164 C1148 0.931 . S
H1165 C1153 0.930 . S
H1166 C1154 0.958 1_556 S
H1167 C1154 0.961 1_655 S
H1168 C1154 0.961 . S
H1169 C1155 0.958 . S
H1170 C1155 0.961 1_554 S
H1171 C1155 0.960 . S
C1172 C1173 1.391 . S
C1172 C1174 1.394 1_556 S
C1172 H1188 0.931 1_556 S
C1173 C1172 1.391 . S
C1173 C1177 1.376 . S
C1174 C1172 1.394 1_554 S
C1174 C1175 1.369 1_554 S
C1174 C1178 1.531 . S
C1175 C1174 1.369 1_556 S
C1175 C1176 1.410 . S
C1175 C1183 1.503 1_556 S
C1176 C1175 1.410 . S
C1176 C1177 1.392 . S
C1176 C1179 1.511 . S
C1177 C1173 1.376 . S
C1177 C1176 1.392 . S
C1177 H1189 0.929 . S
C1178 C1174 1.531 . S
C1178 H1190 0.960 . S
C1178 H1191 0.962 . S
C1178 H1192 0.960 . S
C1179 C1176 1.511 . S
C1179 H1193 0.961 . S
C1179 H1194 0.961 . S
C1179 H1195 0.961 . S
C1180 C1181 1.370 . S
C1180 C1182 1.363 . S
C1180 H1196 0.931 . S
C1181 C1180 1.370 . S
C1181 C1185 1.408 . S
C1182 C1180 1.363 . S
C1182 C1183 1.370 . S
C1182 C1186 1.524 . S
C1183 C1175 1.503 1_554 S
C1183 C1182 1.370 . S
C1183 C1184 1.403 . S
C1184 C1183 1.403 . S
C1184 C1185 1.404 . S
C1184 C1187 1.539 1_554 S
C1185 C1181 1.408 . S
C1185 C1184 1.404 . S
C1185 H1197 0.930 . S
C1186 C1182 1.524 . S
C1186 H1198 0.956 . S
C1186 H1199 0.961 1_554 S
C1186 H1200 0.961 . S
C1187 C1184 1.539 1_556 S
C1187 H1201 0.958 1_556 S
C1187 H1202 0.961 . S
C1187 H1203 0.960 . S
H1188 C1172 0.931 1_554 S
H1189 C1177 0.929 . S
H1190 C1178 0.960 . S
H1191 C1178 0.962 . S
H1192 C1178 0.960 . S
H1193 C1179 0.961 . S
H1194 C1179 0.961 . S
H1195 C1179 0.961 . S
H1196 C1180 0.931 . S
H1197 C1185 0.930 . S
H1198 C1186 0.956 . S
H1199 C1186 0.961 1_556 S
H1200 C1186 0.961 . S
H1201 C1187 0.958 1_554 S
H1202 C1187 0.961 . S
H1203 C1187 0.960 . S
C1204 C1205 1.391 . S
C1204 C1206 1.394 . S
C1204 H1220 0.931 . S
C1205 C1204 1.391 . S
C1205 C1209 1.376 . S
C1206 C1204 1.394 . S
C1206 C1207 1.369 . S
C1206 C1210 1.531 . S
C1207 C1206 1.369 . S
C1207 C1208 1.410 1_556 S
C1207 C1215 1.503 1_546 S
C1208 C1207 1.410 1_554 S
C1208 C1209 1.392 1_554 S
C1208 C1211 1.511 . S
C1209 C1205 1.376 . S
C1209 C1208 1.392 1_556 S
C1209 H1221 0.929 . S
C1210 C1206 1.531 . S
C1210 H1222 0.960 1_545 S
C1210 H1223 0.962 1_545 S
C1210 H1224 0.960 . S
C1211 C1208 1.511 . S
C1211 H1225 0.961 . S
C1211 H1226 0.961 . S
C1211 H1227 0.961 . S
C1212 C1213 1.370 . S
C1212 C1214 1.363 1_554 S
C1212 H1228 0.931 1_554 S
C1213 C1212 1.370 . S
C1213 C1217 1.408 . S
C1214 C1212 1.363 1_556 S
C1214 C1215 1.370 1_556 S
C1214 C1218 1.524 . S
C1215 C1207 1.503 1_564 S
C1215 C1214 1.370 1_554 S
C1215 C1216 1.403 . S
C1216 C1215 1.403 . S
C1216 C1217 1.404 . S
C1216 C1219 1.539 1_565 S
C1217 C1213 1.408 . S
C1217 C1216 1.404 . S
C1217 H1229 0.930 . S
C1218 C1214 1.524 . S
C1218 H1230 0.956 . S
C1218 H1231 0.961 . S
C1218 H1232 0.961 . S
C1219 C1216 1.539 1_545 S
C1219 H1233 0.958 . S
C1219 H1234 0.961 1_545 S
C1219 H1235 0.960 . S
H1220 C1204 0.931 . S
H1221 C1209 0.929 . S
H1222 C1210 0.960 1_565 S
H1223 C1210 0.962 1_565 S
H1224 C1210 0.960 . S
H1225 C1211 0.961 . S
H1226 C1211 0.961 . S
H1227 C1211 0.961 . S
H1228 C1212 0.931 1_556 S
H1229 C1217 0.930 . S
H1230 C1218 0.956 . S
H1231 C1218 0.961 . S
H1232 C1218 0.961 . S
H1233 C1219 0.958 . S
H1234 C1219 0.961 1_565 S
H1235 C1219 0.960 . S
C1236 C1237 1.391 . S
C1236 C1238 1.394 . S
C1236 H1252 0.931 . S
C1237 C1236 1.391 . S
C1237 C1241 1.376 . S
C1238 C1236 1.394 . S
C1238 C1239 1.369 . S
C1238 C1242 1.531 . S
C1239 C1238 1.369 . S
C1239 C1240 1.410 . S
C1239 C1247 1.503 . S
C1240 C1239 1.410 . S
C1240 C1241 1.392 . S
C1240 C1243 1.511 . S
C1241 C1237 1.376 . S
C1241 C1240 1.392 . S
C1241 H1253 0.929 . S
C1242 C1238 1.531 . S
C1242 H1254 0.960 . S
C1242 H1255 0.962 . S
C1242 H1256 0.960 . S
C1243 C1240 1.511 . S
C1243 H1257 0.961 . S
C1243 H1258 0.961 . S
C1243 H1259 0.961 . S
C1244 C1245 1.370 . S
C1244 C1246 1.363 . S
C1244 H1260 0.931 . S
C1245 C1244 1.370 . S
C1245 C1249 1.408 . S
C1246 C1244 1.363 . S
C1246 C1247 1.370 . S
C1246 C1250 1.524 . S
C1247 C1239 1.503 . S
C1247 C1246 1.370 . S
C1247 C1248 1.403 . S
C1248 C1247 1.403 . S
C1248 C1249 1.404 . S
C1248 C1251 1.539 . S
C1249 C1245 1.408 . S
C1249 C1248 1.404 . S
C1249 H1261 0.930 . S
C1250 C1246 1.524 . S
C1250 H1262 0.956 . S
C1250 H1263 0.961 . S
C1250 H1264 0.961 . S
C1251 C1248 1.539 . S
C1251 H1265 0.958 . S
C1251 H1266 0.961 . S
C1251 H1267 0.960 . S
H1252 C1236 0.931 . S
H1253 C1241 0.929 . S
H1254 C1242 0.960 . S
H1255 C1242 0.962 . S
H1256 C1242 0.960 . S
H1257 C1243 0.961 . S
H1258 C1243 0.961 . S
H1259 C1243 0.961 . S
H1260 C1244 0.931 . S
H1261 C1249 0.930 . S
H1262 C1250 0.956 . S
H1263 C1250 0.961 . S
H1264 C1250 0.961 . S
H1265 C1251 0.958 . S
H1266 C1251 0.961 . S
H1267 C1251 0.960 . S
C1268 C1269 1.391 . S
C1268 C1270 1.394 . S
C1268 H1284 0.931 . S
C1269 C1268 1.391 . S
C1269 C1273 1.376 . S
C1270 C1268 1.394 . S
C1270 C1271 1.369 . S
C1270 C1274 1.531 . S
C1271 C1270 1.369 . S
C1271 C1272 1.410 . S
C1271 C1279 1.503 . S
C1272 C1271 1.410 . S
C1272 C1273 1.392 . S
C1272 C1275 1.511 . S
C1273 C1269 1.376 . S
C1273 C1272 1.392 . S
C1273 H1285 0.929 . S
C1274 C1270 1.531 . S
C1274 H1286 0.960 . S
C1274 H1287 0.962 . S
C1274 H1288 0.960 . S
C1275 C1272 1.511 . S
C1275 H1289 0.961 . S
C1275 H1290 0.961 . S
C1275 H1291 0.961 . S
C1276 C1277 1.370 . S
C1276 C1278 1.363 . S
C1276 H1292 0.931 . S
C1277 C1276 1.370 . S
C1277 C1281 1.408 . S
C1278 C1276 1.363 . S
C1278 C1279 1.370 . S
C1278 C1282 1.524 . S
C1279 C1271 1.503 . S
C1279 C1278 1.370 . S
C1279 C1280 1.403 . S
C1280 C1279 1.403 . S
C1280 C1281 1.404 . S
C1280 C1283 1.539 . S
C1281 C1277 1.408 . S
C1281 C1280 1.404 . S
C1281 H1293 0.930 . S
C1282 C1278 1.524 . S
C1282 H1294 0.956 . S
C1282 H1295 0.961 . S
C1282 H1296 0.961 . S
C1283 C1280 1.539 . S
C1283 H1297 0.958 . S
C1283 H1298 0.961 . S
C1283 H1299 0.960 . S
H1284 C1268 0.931 . S
H1285 C1273 0.929 . S
H1286 C1274 0.960 . S
H1287 C1274 0.962 . S
H1288 C1274 0.960 . S
H1289 C1275 0.961 . S
H1290 C1275 0.961 . S
H1291 C1275 0.961 . S
H1292 C1276 0.931 . S
H1293 C1281 0.930 . S
H1294 C1282 0.956 . S
H1295 C1282 0.961 . S
H1296 C1282 0.961 . S
H1297 C1283 0.958 . S
H1298 C1283 0.961 . S
H1299 C1283 0.960 . S
C1300 C1301 1.391 . S
C1300 C1302 1.394 . S
C1300 H1316 0.931 . S
C1301 C1300 1.391 . S
C1301 C1305 1.376 . S
C1302 C1300 1.394 . S
C1302 C1303 1.369 . S
C1302 C1306 1.531 . S
C1303 C1302 1.369 . S
C1303 C1304 1.410 . S
C1303 C1311 1.503 . S
C1304 C1303 1.410 . S
C1304 C1305 1.392 . S
C1304 C1307 1.511 . S
C1305 C1301 1.376 . S
C1305 C1304 1.392 . S
C1305 H1317 0.929 . S
C1306 C1302 1.531 . S
C1306 H1318 0.960 . S
C1306 H1319 0.962 . S
C1306 H1320 0.960 . S
C1307 C1304 1.511 . S
C1307 H1321 0.961 . S
C1307 H1322 0.961 . S
C1307 H1323 0.961 . S
C1308 C1309 1.370 . S
C1308 C1310 1.363 . S
C1308 H1324 0.931 . S
C1309 C1308 1.370 . S
C1309 C1313 1.408 . S
C1310 C1308 1.363 . S
C1310 C1311 1.370 . S
C1310 C1314 1.524 . S
C1311 C1303 1.503 . S
C1311 C1310 1.370 . S
C1311 C1312 1.403 . S
C1312 C1311 1.403 . S
C1312 C1313 1.404 . S
C1312 C1315 1.539 . S
C1313 C1309 1.408 . S
C1313 C1312 1.404 . S
C1313 H1325 0.930 . S
C1314 C1310 1.524 . S
C1314 H1326 0.956 . S
C1314 H1327 0.961 . S
C1314 H1328 0.961 . S
C1315 C1312 1.539 . S
C1315 H1329 0.958 . S
C1315 H1330 0.961 . S
C1315 H1331 0.960 . S
H1316 C1300 0.931 . S
H1317 C1305 0.929 . S
H1318 C1306 0.960 . S
H1319 C1306 0.962 . S
H1320 C1306 0.960 . S
H1321 C1307 0.961 . S
H1322 C1307 0.961 . S
H1323 C1307 0.961 . S
H1324 C1308 0.931 . S
H1325 C1313 0.930 . S
H1326 C1314 0.956 . S
H1327 C1314 0.961 . S
H1328 C1314 0.961 . S
H1329 C1315 0.958 . S
H1330 C1315 0.961 . S
H1331 C1315 0.960 . S
C1332 C1333 1.391 . S
C1332 C1334 1.394 . S
C1332 H1348 0.931 . S
C1333 C1332 1.391 . S
C1333 C1337 1.376 . S
C1334 C1332 1.394 . S
C1334 C1335 1.369 . S
C1334 C1338 1.531 . S
C1335 C1334 1.369 . S
C1335 C1336 1.410 . S
C1335 C1343 1.503 . S
C1336 C1335 1.410 . S
C1336 C1337 1.392 . S
C1336 C1339 1.511 . S
C1337 C1333 1.376 . S
C1337 C1336 1.392 . S
C1337 H1349 0.929 . S
C1338 C1334 1.531 . S
C1338 H1350 0.960 . S
C1338 H1351 0.962 . S
C1338 H1352 0.960 . S
C1339 C1336 1.511 . S
C1339 H1353 0.961 . S
C1339 H1354 0.961 . S
C1339 H1355 0.961 . S
C1340 C1341 1.370 . S
C1340 C1342 1.363 . S
C1340 H1356 0.931 . S
C1341 C1340 1.370 . S
C1341 C1345 1.408 . S
C1342 C1340 1.363 . S
C1342 C1343 1.370 . S
C1342 C1346 1.524 . S
C1343 C1335 1.503 . S
C1343 C1342 1.370 . S
C1343 C1344 1.403 . S
C1344 C1343 1.403 . S
C1344 C1345 1.404 . S
C1344 C1347 1.539 . S
C1345 C1341 1.408 . S
C1345 C1344 1.404 . S
C1345 H1357 0.930 . S
C1346 C1342 1.524 . S
C1346 H1358 0.956 . S
C1346 H1359 0.961 . S
C1346 H1360 0.961 . S
C1347 C1344 1.539 . S
C1347 H1361 0.958 . S
C1347 H1362 0.961 . S
C1347 H1363 0.960 . S
H1348 C1332 0.931 . S
H1349 C1337 0.929 . S
H1350 C1338 0.960 . S
H1351 C1338 0.962 . S
H1352 C1338 0.960 . S
H1353 C1339 0.961 . S
H1354 C1339 0.961 . S
H1355 C1339 0.961 . S
H1356 C1340 0.931 . S
H1357 C1345 0.930 . S
H1358 C1346 0.956 . S
H1359 C1346 0.961 . S
H1360 C1346 0.961 . S
H1361 C1347 0.958 . S
H1362 C1347 0.961 . S
H1363 C1347 0.960 . S
C1364 C1365 1.391 . S
C1364 C1366 1.394 . S
C1364 H1380 0.931 . S
C1365 C1364 1.391 . S
C1365 C1369 1.376 . S
C1366 C1364 1.394 . S
C1366 C1367 1.369 . S
C1366 C1370 1.531 . S
C1367 C1366 1.369 . S
C1367 C1368 1.410 . S
C1367 C1375 1.503 . S
C1368 C1367 1.410 . S
C1368 C1369 1.392 . S
C1368 C1371 1.511 . S
C1369 C1365 1.376 . S
C1369 C1368 1.392 . S
C1369 H1381 0.929 . S
C1370 C1366 1.531 . S
C1370 H1382 0.960 . S
C1370 H1383 0.962 . S
C1370 H1384 0.960 . S
C1371 C1368 1.511 . S
C1371 H1385 0.961 . S
C1371 H1386 0.961 . S
C1371 H1387 0.961 . S
C1372 C1373 1.370 . S
C1372 C1374 1.363 . S
C1372 H1388 0.931 . S
C1373 C1372 1.370 . S
C1373 C1377 1.408 . S
C1374 C1372 1.363 . S
C1374 C1375 1.370 . S
C1374 C1378 1.524 . S
C1375 C1367 1.503 . S
C1375 C1374 1.370 . S
C1375 C1376 1.403 . S
C1376 C1375 1.403 . S
C1376 C1377 1.404 . S
C1376 C1379 1.539 . S
C1377 C1373 1.408 . S
C1377 C1376 1.404 . S
C1377 H1389 0.930 . S
C1378 C1374 1.524 . S
C1378 H1390 0.956 . S
C1378 H1391 0.961 . S
C1378 H1392 0.961 . S
C1379 C1376 1.539 . S
C1379 H1393 0.958 . S
C1379 H1394 0.961 . S
C1379 H1395 0.960 . S
H1380 C1364 0.931 . S
H1381 C1369 0.929 . S
H1382 C1370 0.960 . S
H1383 C1370 0.962 . S
H1384 C1370 0.960 . S
H1385 C1371 0.961 . S
H1386 C1371 0.961 . S
H1387 C1371 0.961 . S
H1388 C1372 0.931 . S
H1389 C1377 0.930 . S
H1390 C1378 0.956 . S
H1391 C1378 0.961 . S
H1392 C1378 0.961 . S
H1393 C1379 0.958 . S
H1394 C1379 0.961 . S
H1395 C1379 0.960 . S
C1396 C1397 1.391 . S
C1396 C1398 1.394 . S
C1396 H1412 0.931 . S
C1397 C1396 1.391 . S
C1397 C1401 1.376 . S
C1398 C1396 1.394 . S
C1398 C1399 1.369 . S
C1398 C1402 1.531 . S
C1399 C1398 1.369 . S
C1399 C1400 1.410 . S
C1399 C1407 1.503 . S
C1400 C1399 1.410 . S
C1400 C1401 1.392 . S
C1400 C1403 1.511 . S
C1401 C1397 1.376 . S
C1401 C1400 1.392 . S
C1401 H1413 0.929 . S
C1402 C1398 1.531 . S
C1402 H1414 0.960 . S
C1402 H1415 0.962 . S
C1402 H1416 0.960 . S
C1403 C1400 1.511 . S
C1403 H1417 0.961 . S
C1403 H1418 0.961 . S
C1403 H1419 0.961 . S
C1404 C1405 1.370 . S
C1404 C1406 1.363 . S
C1404 H1420 0.931 . S
C1405 C1404 1.370 . S
C1405 C1409 1.408 . S
C1406 C1404 1.363 . S
C1406 C1407 1.370 . S
C1406 C1410 1.524 . S
C1407 C1399 1.503 . S
C1407 C1406 1.370 . S
C1407 C1408 1.403 . S
C1408 C1407 1.403 . S
C1408 C1409 1.404 . S
C1408 C1411 1.539 . S
C1409 C1405 1.408 . S
C1409 C1408 1.404 . S
C1409 H1421 0.930 . S
C1410 C1406 1.524 . S
C1410 H1422 0.956 . S
C1410 H1423 0.961 . S
C1410 H1424 0.961 . S
C1411 C1408 1.539 . S
C1411 H1425 0.958 . S
C1411 H1426 0.961 . S
C1411 H1427 0.960 . S
H1412 C1396 0.931 . S
H1413 C1401 0.929 . S
H1414 C1402 0.960 . S
H1415 C1402 0.962 . S
H1416 C1402 0.960 . S
H1417 C1403 0.961 . S
H1418 C1403 0.961 . S
H1419 C1403 0.961 . S
H1420 C1404 0.931 . S
H1421 C1409 0.930 . S
H1422 C1410 0.956 . S
H1423 C1410 0.961 . S
H1424 C1410 0.961 . S
H1425 C1411 0.958 . S
H1426 C1411 0.961 . S
H1427 C1411 0.960 . S
C1428 C1429 1.391 . S
C1428 C1430 1.394 . S
C1428 H1444 0.931 . S
C1429 C1428 1.391 . S
C1429 C1433 1.376 . S
C1430 C1428 1.394 . S
C1430 C1431 1.369 . S
C1430 C1434 1.531 . S
C1431 C1430 1.369 . S
C1431 C1432 1.410 . S
C1431 C1439 1.503 . S
C1432 C1431 1.410 . S
C1432 C1433 1.392 . S
C1432 C1435 1.511 . S
C1433 C1429 1.376 . S
C1433 C1432 1.392 . S
C1433 H1445 0.929 . S
C1434 C1430 1.531 . S
C1434 H1446 0.960 . S
C1434 H1447 0.962 . S
C1434 H1448 0.960 . S
C1435 C1432 1.511 . S
C1435 H1449 0.961 . S
C1435 H1450 0.961 . S
C1435 H1451 0.961 . S
C1436 C1437 1.370 . S
C1436 C1438 1.363 . S
C1436 H1452 0.931 . S
C1437 C1436 1.370 . S
C1437 C1441 1.408 . S
C1438 C1436 1.363 . S
C1438 C1439 1.370 . S
C1438 C1442 1.524 . S
C1439 C1431 1.503 . S
C1439 C1438 1.370 . S
C1439 C1440 1.403 . S
C1440 C1439 1.403 . S
C1440 C1441 1.404 . S
C1440 C1443 1.539 . S
C1441 C1437 1.408 . S
C1441 C1440 1.404 . S
C1441 H1453 0.930 . S
C1442 C1438 1.524 . S
C1442 H1454 0.956 . S
C1442 H1455 0.961 . S
C1442 H1456 0.961 . S
C1443 C1440 1.539 . S
C1443 H1457 0.958 . S
C1443 H1458 0.961 . S
C1443 H1459 0.960 . S
H1444 C1428 0.931 . S
H1445 C1433 0.929 . S
H1446 C1434 0.960 . S
H1447 C1434 0.962 . S
H1448 C1434 0.960 . S
H1449 C1435 0.961 . S
H1450 C1435 0.961 . S
H1451 C1435 0.961 . S
H1452 C1436 0.931 . S
H1453 C1441 0.930 . S
H1454 C1442 0.956 . S
H1455 C1442 0.961 . S
H1456 C1442 0.961 . S
H1457 C1443 0.958 . S
H1458 C1443 0.961 . S
H1459 C1443 0.960 . S
C1460 C1461 1.391 . S
C1460 C1462 1.394 . S
C1460 H1476 0.931 . S
C1461 C1460 1.391 . S
C1461 C1465 1.376 . S
C1462 C1460 1.394 . S
C1462 C1463 1.369 . S
C1462 C1466 1.531 . S
C1463 C1462 1.369 . S
C1463 C1464 1.410 . S
C1463 C1471 1.503 . S
C1464 C1463 1.410 . S
C1464 C1465 1.392 . S
C1464 C1467 1.511 . S
C1465 C1461 1.376 . S
C1465 C1464 1.392 . S
C1465 H1477 0.929 . S
C1466 C1462 1.531 . S
C1466 H1478 0.960 . S
C1466 H1479 0.962 . S
C1466 H1480 0.960 . S
C1467 C1464 1.511 . S
C1467 H1481 0.961 . S
C1467 H1482 0.961 . S
C1467 H1483 0.961 . S
C1468 C1469 1.370 . S
C1468 C1470 1.363 . S
C1468 H1484 0.931 . S
C1469 C1468 1.370 . S
C1469 C1473 1.408 . S
C1470 C1468 1.363 . S
C1470 C1471 1.370 . S
C1470 C1474 1.524 . S
C1471 C1463 1.503 . S
C1471 C1470 1.370 . S
C1471 C1472 1.403 . S
C1472 C1471 1.403 . S
C1472 C1473 1.404 . S
C1472 C1475 1.539 . S
C1473 C1469 1.408 . S
C1473 C1472 1.404 . S
C1473 H1485 0.930 . S
C1474 C1470 1.524 . S
C1474 H1486 0.956 . S
C1474 H1487 0.961 . S
C1474 H1488 0.961 . S
C1475 C1472 1.539 . S
C1475 H1489 0.958 . S
C1475 H1490 0.961 . S
C1475 H1491 0.960 . S
H1476 C1460 0.931 . S
H1477 C1465 0.929 . S
H1478 C1466 0.960 . S
H1479 C1466 0.962 . S
H1480 C1466 0.960 . S
H1481 C1467 0.961 . S
H1482 C1467 0.961 . S
H1483 C1467 0.961 . S
H1484 C1468 0.931 . S
H1485 C1473 0.930 . S
H1486 C1474 0.956 . S
H1487 C1474 0.961 . S
H1488 C1474 0.961 . S
H1489 C1475 0.958 . S
H1490 C1475 0.961 . S
H1491 C1475 0.960 . S
C1492 C1493 1.391 . S
C1492 C1494 1.394 . S
C1492 H1508 0.931 . S
C1493 C1492 1.391 . S
C1493 C1497 1.376 . S
C1494 C1492 1.394 . S
C1494 C1495 1.369 . S
C1494 C1498 1.531 . S
C1495 C1494 1.369 . S
C1495 C1496 1.410 . S
C1495 C1503 1.503 . S
C1496 C1495 1.410 . S
C1496 C1497 1.392 . S
C1496 C1499 1.511 . S
C1497 C1493 1.376 . S
C1497 C1496 1.392 . S
C1497 H1509 0.929 . S
C1498 C1494 1.531 . S
C1498 H1510 0.960 . S
C1498 H1511 0.962 . S
C1498 H1512 0.960 . S
C1499 C1496 1.511 . S
C1499 H1513 0.961 . S
C1499 H1514 0.961 . S
C1499 H1515 0.961 . S
C1500 C1501 1.370 . S
C1500 C1502 1.363 . S
C1500 H1516 0.931 . S
C1501 C1500 1.370 . S
C1501 C1505 1.408 . S
C1502 C1500 1.363 . S
C1502 C1503 1.370 . S
C1502 C1506 1.524 . S
C1503 C1495 1.503 . S
C1503 C1502 1.370 . S
C1503 C1504 1.403 . S
C1504 C1503 1.403 . S
C1504 C1505 1.404 . S
C1504 C1507 1.539 . S
C1505 C1501 1.408 . S
C1505 C1504 1.404 . S
C1505 H1517 0.930 . S
C1506 C1502 1.524 . S
C1506 H1518 0.956 . S
C1506 H1519 0.961 . S
C1506 H1520 0.961 . S
C1507 C1504 1.539 . S
C1507 H1521 0.958 . S
C1507 H1522 0.961 . S
C1507 H1523 0.960 . S
H1508 C1492 0.931 . S
H1509 C1497 0.929 . S
H1510 C1498 0.960 . S
H1511 C1498 0.962 . S
H1512 C1498 0.960 . S
H1513 C1499 0.961 . S
H1514 C1499 0.961 . S
H1515 C1499 0.961 . S
H1516 C1500 0.931 . S
H1517 C1505 0.930 . S
H1518 C1506 0.956 . S
H1519 C1506 0.961 . S
H1520 C1506 0.961 . S
H1521 C1507 0.958 . S
H1522 C1507 0.961 . S
H1523 C1507 0.960 . S
C1524 C1525 1.391 . S
C1524 C1526 1.394 . S
C1524 H1540 0.931 . S
C1525 C1524 1.391 . S
C1525 C1529 1.376 . S
C1526 C1524 1.394 . S
C1526 C1527 1.369 . S
C1526 C1530 1.531 . S
C1527 C1526 1.369 . S
C1527 C1528 1.410 . S
C1527 C1535 1.503 . S
C1528 C1527 1.410 . S
C1528 C1529 1.392 . S
C1528 C1531 1.511 . S
C1529 C1525 1.376 . S
C1529 C1528 1.392 . S
C1529 H1541 0.929 . S
C1530 C1526 1.531 . S
C1530 H1542 0.960 . S
C1530 H1543 0.962 . S
C1530 H1544 0.960 . S
C1531 C1528 1.511 . S
C1531 H1545 0.961 . S
C1531 H1546 0.961 . S
C1531 H1547 0.961 . S
C1532 C1533 1.370 . S
C1532 C1534 1.363 . S
C1532 H1548 0.931 . S
C1533 C1532 1.370 . S
C1533 C1537 1.408 . S
C1534 C1532 1.363 . S
C1534 C1535 1.370 . S
C1534 C1538 1.524 . S
C1535 C1527 1.503 . S
C1535 C1534 1.370 . S
C1535 C1536 1.403 . S
C1536 C1535 1.403 . S
C1536 C1537 1.404 . S
C1536 C1539 1.539 . S
C1537 C1533 1.408 . S
C1537 C1536 1.404 . S
C1537 H1549 0.930 . S
C1538 C1534 1.524 . S
C1538 H1550 0.956 . S
C1538 H1551 0.961 . S
C1538 H1552 0.961 . S
C1539 C1536 1.539 . S
C1539 H1553 0.958 . S
C1539 H1554 0.961 . S
C1539 H1555 0.960 . S
H1540 C1524 0.931 . S
H1541 C1529 0.929 . S
H1542 C1530 0.960 . S
H1543 C1530 0.962 . S
H1544 C1530 0.960 . S
H1545 C1531 0.961 . S
H1546 C1531 0.961 . S
H1547 C1531 0.961 . S
H1548 C1532 0.931 . S
H1549 C1537 0.930 . S
H1550 C1538 0.956 . S
H1551 C1538 0.961 . S
H1552 C1538 0.961 . S
H1553 C1539 0.958 . S
H1554 C1539 0.961 . S
H1555 C1539 0.960 . S
C1556 C1557 1.391 . S
C1556 C1558 1.394 . S
C1556 H1572 0.931 . S
C1557 C1556 1.391 . S
C1557 C1561 1.376 . S
C1558 C1556 1.394 . S
C1558 C1559 1.369 . S
C1558 C1562 1.531 . S
C1559 C1558 1.369 . S
C1559 C1560 1.410 . S
C1559 C1567 1.503 . S
C1560 C1559 1.410 . S
C1560 C1561 1.392 . S
C1560 C1563 1.511 . S
C1561 C1557 1.376 . S
C1561 C1560 1.392 . S
C1561 H1573 0.929 . S
C1562 C1558 1.531 . S
C1562 H1574 0.960 . S
C1562 H1575 0.962 . S
C1562 H1576 0.960 . S
C1563 C1560 1.511 . S
C1563 H1577 0.961 . S
C1563 H1578 0.961 . S
C1563 H1579 0.961 . S
C1564 C1565 1.370 . S
C1564 C1566 1.363 . S
C1564 H1580 0.931 . S
C1565 C1564 1.370 . S
C1565 C1569 1.408 . S
C1566 C1564 1.363 . S
C1566 C1567 1.370 . S
C1566 C1570 1.524 . S
C1567 C1559 1.503 . S
C1567 C1566 1.370 . S
C1567 C1568 1.403 . S
C1568 C1567 1.403 . S
C1568 C1569 1.404 . S
C1568 C1571 1.539 . S
C1569 C1565 1.408 . S
C1569 C1568 1.404 . S
C1569 H1581 0.930 . S
C1570 C1566 1.524 . S
C1570 H1582 0.956 . S
C1570 H1583 0.961 . S
C1570 H1584 0.961 . S
C1571 C1568 1.539 . S
C1571 H1585 0.958 . S
C1571 H1586 0.961 . S
C1571 H1587 0.960 . S
H1572 C1556 0.931 . S
H1573 C1561 0.929 . S
H1574 C1562 0.960 . S
H1575 C1562 0.962 . S
H1576 C1562 0.960 . S
H1577 C1563 0.961 . S
H1578 C1563 0.961 . S
H1579 C1563 0.961 . S
H1580 C1564 0.931 . S
H1581 C1569 0.930 . S
H1582 C1570 0.956 . S
H1583 C1570 0.961 . S
H1584 C1570 0.961 . S
H1585 C1571 0.958 . S
H1586 C1571 0.961 . S
H1587 C1571 0.960 . S
C1588 C1589 1.391 . S
C1588 C1590 1.394 . S
C1588 H1604 0.931 . S
C1589 C1588 1.391 . S
C1589 C1593 1.376 . S
C1590 C1588 1.394 . S
C1590 C1591 1.369 . S
C1590 C1594 1.531 . S
C1591 C1590 1.369 . S
C1591 C1592 1.410 . S
C1591 C1599 1.503 . S
C1592 C1591 1.410 . S
C1592 C1593 1.392 . S
C1592 C1595 1.511 . S
C1593 C1589 1.376 . S
C1593 C1592 1.392 . S
C1593 H1605 0.929 . S
C1594 C1590 1.531 . S
C1594 H1606 0.960 . S
C1594 H1607 0.962 . S
C1594 H1608 0.960 . S
C1595 C1592 1.511 . S
C1595 H1609 0.961 . S
C1595 H1610 0.961 . S
C1595 H1611 0.961 . S
C1596 C1597 1.370 . S
C1596 C1598 1.363 . S
C1596 H1612 0.931 . S
C1597 C1596 1.370 . S
C1597 C1601 1.408 . S
C1598 C1596 1.363 . S
C1598 C1599 1.370 . S
C1598 C1602 1.524 . S
C1599 C1591 1.503 . S
C1599 C1598 1.370 . S
C1599 C1600 1.403 . S
C1600 C1599 1.403 . S
C1600 C1601 1.404 . S
C1600 C1603 1.539 . S
C1601 C1597 1.408 . S
C1601 C1600 1.404 . S
C1601 H1613 0.930 . S
C1602 C1598 1.524 . S
C1602 H1614 0.956 . S
C1602 H1615 0.961 . S
C1602 H1616 0.961 . S
C1603 C1600 1.539 . S
C1603 H1617 0.958 . S
C1603 H1618 0.961 . S
C1603 H1619 0.960 . S
H1604 C1588 0.931 . S
H1605 C1593 0.929 . S
H1606 C1594 0.960 . S
H1607 C1594 0.962 . S
H1608 C1594 0.960 . S
H1609 C1595 0.961 . S
H1610 C1595 0.961 . S
H1611 C1595 0.961 . S
H1612 C1596 0.931 . S
H1613 C1601 0.930 . S
H1614 C1602 0.956 . S
H1615 C1602 0.961 . S
H1616 C1602 0.961 . S
H1617 C1603 0.958 . S
H1618 C1603 0.961 . S
H1619 C1603 0.960 . S
C1620 C1621 1.391 . S
C1620 C1622 1.394 . S
C1620 H1636 0.931 . S
C1621 C1620 1.391 . S
C1621 C1625 1.376 . S
C1622 C1620 1.394 . S
C1622 C1623 1.369 . S
C1622 C1626 1.531 . S
C1623 C1622 1.369 . S
C1623 C1624 1.410 . S
C1623 C1631 1.503 . S
C1624 C1623 1.410 . S
C1624 C1625 1.392 . S
C1624 C1627 1.511 . S
C1625 C1621 1.376 . S
C1625 C1624 1.392 . S
C1625 H1637 0.929 . S
C1626 C1622 1.531 . S
C1626 H1638 0.960 . S
C1626 H1639 0.962 . S
C1626 H1640 0.960 . S
C1627 C1624 1.511 . S
C1627 H1641 0.961 . S
C1627 H1642 0.961 . S
C1627 H1643 0.961 . S
C1628 C1629 1.370 . S
C1628 C1630 1.363 . S
C1628 H1644 0.931 . S
C1629 C1628 1.370 . S
C1629 C1633 1.408 . S
C1630 C1628 1.363 . S
C1630 C1631 1.370 . S
C1630 C1634 1.524 . S
C1631 C1623 1.503 . S
C1631 C1630 1.370 . S
C1631 C1632 1.403 . S
C1632 C1631 1.403 . S
C1632 C1633 1.404 . S
C1632 C1635 1.539 . S
C1633 C1629 1.408 . S
C1633 C1632 1.404 . S
C1633 H1645 0.930 . S
C1634 C1630 1.524 . S
C1634 H1646 0.956 . S
C1634 H1647 0.961 . S
C1634 H1648 0.961 . S
C1635 C1632 1.539 . S
C1635 H1649 0.958 . S
C1635 H1650 0.961 . S
C1635 H1651 0.960 . S
H1636 C1620 0.931 . S
H1637 C1625 0.929 . S
H1638 C1626 0.960 . S
H1639 C1626 0.962 . S
H1640 C1626 0.960 . S
H1641 C1627 0.961 . S
H1642 C1627 0.961 . S
H1643 C1627 0.961 . S
H1644 C1628 0.931 . S
H1645 C1633 0.930 . S
H1646 C1634 0.956 . S
H1647 C1634 0.961 . S
H1648 C1634 0.961 . S
H1649 C1635 0.958 . S
H1650 C1635 0.961 . S
H1651 C1635 0.960 . S
C1652 C1653 1.391 . S
C1652 C1654 1.394 . S
C1652 H1668 0.931 . S
C1653 C1652 1.391 . S
C1653 C1657 1.376 . S
C1654 C1652 1.394 . S
C1654 C1655 1.369 . S
C1654 C1658 1.531 . S
C1655 C1654 1.369 . S
C1655 C1656 1.410 . S
C1655 C1663 1.503 . S
C1656 C1655 1.410 . S
C1656 C1657 1.392 . S
C1656 C1659 1.511 . S
C1657 C1653 1.376 . S
C1657 C1656 1.392 . S
C1657 H1669 0.929 . S
C1658 C1654 1.531 . S
C1658 H1670 0.960 . S
C1658 H1671 0.962 . S
C1658 H1672 0.960 . S
C1659 C1656 1.511 . S
C1659 H1673 0.961 . S
C1659 H1674 0.961 . S
C1659 H1675 0.961 . S
C1660 C1661 1.370 . S
C1660 C1662 1.363 . S
C1660 H1676 0.931 . S
C1661 C1660 1.370 . S
C1661 C1665 1.408 . S
C1662 C1660 1.363 . S
C1662 C1663 1.370 . S
C1662 C1666 1.524 . S
C1663 C1655 1.503 . S
C1663 C1662 1.370 . S
C1663 C1664 1.403 . S
C1664 C1663 1.403 . S
C1664 C1665 1.404 . S
C1664 C1667 1.539 . S
C1665 C1661 1.408 . S
C1665 C1664 1.404 . S
C1665 H1677 0.930 . S
C1666 C1662 1.524 . S
C1666 H1678 0.956 . S
C1666 H1679 0.961 . S
C1666 H1680 0.961 . S
C1667 C1664 1.539 . S
C1667 H1681 0.958 . S
C1667 H1682 0.961 . S
C1667 H1683 0.960 . S
H1668 C1652 0.931 . S
H1669 C1657 0.929 . S
H1670 C1658 0.960 . S
H1671 C1658 0.962 . S
H1672 C1658 0.960 . S
H1673 C1659 0.961 . S
H1674 C1659 0.961 . S
H1675 C1659 0.961 . S
H1676 C1660 0.931 . S
H1677 C1665 0.930 . S
H1678 C1666 0.956 . S
H1679 C1666 0.961 . S
H1680 C1666 0.961 . S
H1681 C1667 0.958 . S
H1682 C1667 0.961 . S
H1683 C1667 0.960 . S
C1684 C1685 1.391 . S
C1684 C1686 1.394 . S
C1684 H1700 0.931 . S
C1685 C1684 1.391 . S
C1685 C1689 1.376 . S
C1686 C1684 1.394 . S
C1686 C1687 1.369 . S
C1686 C1690 1.531 . S
C1687 C1686 1.369 . S
C1687 C1688 1.410 . S
C1687 C1695 1.503 . S
C1688 C1687 1.410 . S
C1688 C1689 1.392 . S
C1688 C1691 1.511 . S
C1689 C1685 1.376 . S
C1689 C1688 1.392 . S
C1689 H1701 0.929 . S
C1690 C1686 1.531 . S
C1690 H1702 0.960 . S
C1690 H1703 0.962 . S
C1690 H1704 0.960 . S
C1691 C1688 1.511 . S
C1691 H1705 0.961 . S
C1691 H1706 0.961 . S
C1691 H1707 0.961 . S
C1692 C1693 1.370 . S
C1692 C1694 1.363 . S
C1692 H1708 0.931 . S
C1693 C1692 1.370 . S
C1693 C1697 1.408 . S
C1694 C1692 1.363 . S
C1694 C1695 1.370 . S
C1694 C1698 1.524 . S
C1695 C1687 1.503 . S
C1695 C1694 1.370 . S
C1695 C1696 1.403 . S
C1696 C1695 1.403 . S
C1696 C1697 1.404 . S
C1696 C1699 1.539 . S
C1697 C1693 1.408 . S
C1697 C1696 1.404 . S
C1697 H1709 0.930 . S
C1698 C1694 1.524 . S
C1698 H1710 0.956 . S
C1698 H1711 0.961 . S
C1698 H1712 0.961 . S
C1699 C1696 1.539 . S
C1699 H1713 0.958 . S
C1699 H1714 0.961 . S
C1699 H1715 0.960 . S
H1700 C1684 0.931 . S
H1701 C1689 0.929 . S
H1702 C1690 0.960 . S
H1703 C1690 0.962 . S
H1704 C1690 0.960 . S
H1705 C1691 0.961 . S
H1706 C1691 0.961 . S
H1707 C1691 0.961 . S
H1708 C1692 0.931 . S
H1709 C1697 0.930 . S
H1710 C1698 0.956 . S
H1711 C1698 0.961 . S
H1712 C1698 0.961 . S
H1713 C1699 0.958 . S
H1714 C1699 0.961 . S
H1715 C1699 0.960 . S
C1716 C1717 1.391 . S
C1716 C1718 1.394 . S
C1716 H1732 0.931 . S
C1717 C1716 1.391 . S
C1717 C1721 1.376 . S
C1718 C1716 1.394 . S
C1718 C1719 1.369 . S
C1718 C1722 1.531 . S
C1719 C1718 1.369 . S
C1719 C1720 1.410 . S
C1719 C1727 1.503 . S
C1720 C1719 1.410 . S
C1720 C1721 1.392 . S
C1720 C1723 1.511 . S
C1721 C1717 1.376 . S
C1721 C1720 1.392 . S
C1721 H1733 0.929 . S
C1722 C1718 1.531 . S
C1722 H1734 0.960 . S
C1722 H1735 0.962 . S
C1722 H1736 0.960 . S
C1723 C1720 1.511 . S
C1723 H1737 0.961 . S
C1723 H1738 0.961 . S
C1723 H1739 0.961 . S
C1724 C1725 1.370 . S
C1724 C1726 1.363 . S
C1724 H1740 0.931 . S
C1725 C1724 1.370 . S
C1725 C1729 1.408 . S
C1726 C1724 1.363 . S
C1726 C1727 1.370 . S
C1726 C1730 1.524 . S
C1727 C1719 1.503 . S
C1727 C1726 1.370 . S
C1727 C1728 1.403 . S
C1728 C1727 1.403 . S
C1728 C1729 1.404 . S
C1728 C1731 1.539 . S
C1729 C1725 1.408 . S
C1729 C1728 1.404 . S
C1729 H1741 0.930 . S
C1730 C1726 1.524 . S
C1730 H1742 0.956 . S
C1730 H1743 0.961 . S
C1730 H1744 0.961 . S
C1731 C1728 1.539 . S
C1731 H1745 0.958 . S
C1731 H1746 0.961 . S
C1731 H1747 0.960 . S
H1732 C1716 0.931 . S
H1733 C1721 0.929 . S
H1734 C1722 0.960 . S
H1735 C1722 0.962 . S
H1736 C1722 0.960 . S
H1737 C1723 0.961 . S
H1738 C1723 0.961 . S
H1739 C1723 0.961 . S
H1740 C1724 0.931 . S
H1741 C1729 0.930 . S
H1742 C1730 0.956 . S
H1743 C1730 0.961 . S
H1744 C1730 0.961 . S
H1745 C1731 0.958 . S
H1746 C1731 0.961 . S
H1747 C1731 0.960 . S
C1748 C1749 1.391 . S
C1748 C1750 1.394 . S
C1748 H1764 0.931 . S
C1749 C1748 1.391 . S
C1749 C1753 1.376 . S
C1750 C1748 1.394 . S
C1750 C1751 1.369 . S
C1750 C1754 1.531 . S
C1751 C1750 1.369 . S
C1751 C1752 1.410 . S
C1751 C1759 1.503 . S
C1752 C1751 1.410 . S
C1752 C1753 1.392 . S
C1752 C1755 1.511 . S
C1753 C1749 1.376 . S
C1753 C1752 1.392 . S
C1753 H1765 0.929 . S
C1754 C1750 1.531 . S
C1754 H1766 0.960 . S
C1754 H1767 0.962 . S
C1754 H1768 0.960 . S
C1755 C1752 1.511 . S
C1755 H1769 0.961 . S
C1755 H1770 0.961 . S
C1755 H1771 0.961 . S
C1756 C1757 1.370 . S
C1756 C1758 1.363 . S
C1756 H1772 0.931 . S
C1757 C1756 1.370 . S
C1757 C1761 1.408 . S
C1758 C1756 1.363 . S
C1758 C1759 1.370 . S
C1758 C1762 1.524 . S
C1759 C1751 1.503 . S
C1759 C1758 1.370 . S
C1759 C1760 1.403 . S
C1760 C1759 1.403 . S
C1760 C1761 1.404 . S
C1760 C1763 1.539 . S
C1761 C1757 1.408 . S
C1761 C1760 1.404 . S
C1761 H1773 0.930 . S
C1762 C1758 1.524 . S
C1762 H1774 0.956 . S
C1762 H1775 0.961 . S
C1762 H1776 0.961 . S
C1763 C1760 1.539 . S
C1763 H1777 0.958 . S
C1763 H1778 0.961 . S
C1763 H1779 0.960 . S
H1764 C1748 0.931 . S
H1765 C1753 0.929 . S
H1766 C1754 0.960 . S
H1767 C1754 0.962 . S
H1768 C1754 0.960 . S
H1769 C1755 0.961 . S
H1770 C1755 0.961 . S
H1771 C1755 0.961 . S
H1772 C1756 0.931 . S
H1773 C1761 0.930 . S
H1774 C1762 0.956 . S
H1775 C1762 0.961 . S
H1776 C1762 0.961 . S
H1777 C1763 0.958 . S
H1778 C1763 0.961 . S
H1779 C1763 0.960 . S
C1780 C1781 1.391 . S
C1780 C1782 1.394 . S
C1780 H1796 0.931 . S
C1781 C1780 1.391 . S
C1781 C1785 1.376 . S
C1782 C1780 1.394 . S
C1782 C1783 1.369 . S
C1782 C1786 1.531 . S
C1783 C1782 1.369 . S
C1783 C1784 1.410 . S
C1783 C1791 1.503 . S
C1784 C1783 1.410 . S
C1784 C1785 1.392 . S
C1784 C1787 1.511 . S
C1785 C1781 1.376 . S
C1785 C1784 1.392 . S
C1785 H1797 0.929 . S
C1786 C1782 1.531 . S
C1786 H1798 0.960 . S
C1786 H1799 0.962 . S
C1786 H1800 0.960 . S
C1787 C1784 1.511 . S
C1787 H1801 0.961 . S
C1787 H1802 0.961 . S
C1787 H1803 0.961 . S
C1788 C1789 1.370 . S
C1788 C1790 1.363 . S
C1788 H1804 0.931 . S
C1789 C1788 1.370 . S
C1789 C1793 1.408 . S
C1790 C1788 1.363 . S
C1790 C1791 1.370 . S
C1790 C1794 1.524 . S
C1791 C1783 1.503 . S
C1791 C1790 1.370 . S
C1791 C1792 1.403 . S
C1792 C1791 1.403 . S
C1792 C1793 1.404 . S
C1792 C1795 1.539 . S
C1793 C1789 1.408 . S
C1793 C1792 1.404 . S
C1793 H1805 0.930 . S
C1794 C1790 1.524 . S
C1794 H1806 0.956 . S
C1794 H1807 0.961 . S
C1794 H1808 0.961 . S
C1795 C1792 1.539 . S
C1795 H1809 0.958 . S
C1795 H1810 0.961 . S
C1795 H1811 0.960 . S
H1796 C1780 0.931 . S
H1797 C1785 0.929 . S
H1798 C1786 0.960 . S
H1799 C1786 0.962 . S
H1800 C1786 0.960 . S
H1801 C1787 0.961 . S
H1802 C1787 0.961 . S
H1803 C1787 0.961 . S
H1804 C1788 0.931 . S
H1805 C1793 0.930 . S
H1806 C1794 0.956 . S
H1807 C1794 0.961 . S
H1808 C1794 0.961 . S
H1809 C1795 0.958 . S
H1810 C1795 0.961 . S
H1811 C1795 0.960 . S
C1812 C1813 1.391 . S
C1812 C1814 1.394 . S
C1812 H1828 0.931 . S
C1813 C1812 1.391 . S
C1813 C1817 1.376 . S
C1814 C1812 1.394 . S
C1814 C1815 1.369 . S
C1814 C1818 1.531 . S
C1815 C1814 1.369 . S
C1815 C1816 1.410 . S
C1815 C1823 1.503 . S
C1816 C1815 1.410 . S
C1816 C1817 1.392 . S
C1816 C1819 1.511 . S
C1817 C1813 1.376 . S
C1817 C1816 1.392 . S
C1817 H1829 0.929 . S
C1818 C1814 1.531 . S
C1818 H1830 0.960 . S
C1818 H1831 0.962 . S
C1818 H1832 0.960 . S
C1819 C1816 1.511 . S
C1819 H1833 0.961 . S
C1819 H1834 0.961 . S
C1819 H1835 0.961 . S
C1820 C1821 1.370 . S
C1820 C1822 1.363 . S
C1820 H1836 0.931 . S
C1821 C1820 1.370 . S
C1821 C1825 1.408 . S
C1822 C1820 1.363 . S
C1822 C1823 1.370 . S
C1822 C1826 1.524 . S
C1823 C1815 1.503 . S
C1823 C1822 1.370 . S
C1823 C1824 1.403 . S
C1824 C1823 1.403 . S
C1824 C1825 1.404 . S
C1824 C1827 1.539 . S
C1825 C1821 1.408 . S
C1825 C1824 1.404 . S
C1825 H1837 0.930 . S
C1826 C1822 1.524 . S
C1826 H1838 0.956 . S
C1826 H1839 0.961 . S
C1826 H1840 0.961 . S
C1827 C1824 1.539 . S
C1827 H1841 0.958 . S
C1827 H1842 0.961 . S
C1827 H1843 0.960 . S
H1828 C1812 0.931 . S
H1829 C1817 0.929 . S
H1830 C1818 0.960 . S
H1831 C1818 0.962 . S
H1832 C1818 0.960 . S
H1833 C1819 0.961 . S
H1834 C1819 0.961 . S
H1835 C1819 0.961 . S
H1836 C1820 0.931 . S
H1837 C1825 0.930 . S
H1838 C1826 0.956 . S
H1839 C1826 0.961 . S
H1840 C1826 0.961 . S
H1841 C1827 0.958 . S
H1842 C1827 0.961 . S
H1843 C1827 0.960 . S
C1844 C1845 1.391 . S
C1844 C1846 1.394 . S
C1844 H1860 0.931 . S
C1845 C1844 1.391 . S
C1845 C1849 1.376 . S
C1846 C1844 1.394 . S
C1846 C1847 1.369 . S
C1846 C1850 1.531 . S
C1847 C1846 1.369 . S
C1847 C1848 1.410 . S
C1847 C1855 1.503 . S
C1848 C1847 1.410 . S
C1848 C1849 1.392 . S
C1848 C1851 1.511 . S
C1849 C1845 1.376 . S
C1849 C1848 1.392 . S
C1849 H1861 0.929 . S
C1850 C1846 1.531 . S
C1850 H1862 0.960 . S
C1850 H1863 0.962 . S
C1850 H1864 0.960 . S
C1851 C1848 1.511 . S
C1851 H1865 0.961 . S
C1851 H1866 0.961 . S
C1851 H1867 0.961 . S
C1852 C1853 1.370 . S
C1852 C1854 1.363 . S
C1852 H1868 0.931 . S
C1853 C1852 1.370 . S
C1853 C1857 1.408 . S
C1854 C1852 1.363 . S
C1854 C1855 1.370 . S
C1854 C1858 1.524 . S
C1855 C1847 1.503 . S
C1855 C1854 1.370 . S
C1855 C1856 1.403 . S
C1856 C1855 1.403 . S
C1856 C1857 1.404 . S
C1856 C1859 1.539 . S
C1857 C1853 1.408 . S
C1857 C1856 1.404 . S
C1857 H1869 0.930 . S
C1858 C1854 1.524 . S
C1858 H1870 0.956 . S
C1858 H1871 0.961 . S
C1858 H1872 0.961 . S
C1859 C1856 1.539 . S
C1859 H1873 0.958 . S
C1859 H1874 0.961 . S
C1859 H1875 0.960 . S
H1860 C1844 0.931 . S
H1861 C1849 0.929 . S
H1862 C1850 0.960 . S
H1863 C1850 0.962 . S
H1864 C1850 0.960 . S
H1865 C1851 0.961 . S
H1866 C1851 0.961 . S
H1867 C1851 0.961 . S
H1868 C1852 0.931 . S
H1869 C1857 0.930 . S
H1870 C1858 0.956 . S
H1871 C1858 0.961 . S
H1872 C1858 0.961 . S
H1873 C1859 0.958 . S
H1874 C1859 0.961 . S
H1875 C1859 0.960 . S
C1876 C1877 1.391 . S
C1876 C1878 1.394 . S
C1876 H1892 0.931 . S
C1877 C1876 1.391 . S
C1877 C1881 1.376 . S
C1878 C1876 1.394 . S
C1878 C1879 1.369 . S
C1878 C1882 1.531 . S
C1879 C1878 1.369 . S
C1879 C1880 1.410 . S
C1879 C1887 1.503 . S
C1880 C1879 1.410 . S
C1880 C1881 1.392 . S
C1880 C1883 1.511 . S
C1881 C1877 1.376 . S
C1881 C1880 1.392 . S
C1881 H1893 0.929 . S
C1882 C1878 1.531 . S
C1882 H1894 0.960 . S
C1882 H1895 0.962 . S
C1882 H1896 0.960 . S
C1883 C1880 1.511 . S
C1883 H1897 0.961 . S
C1883 H1898 0.961 . S
C1883 H1899 0.961 . S
C1884 C1885 1.370 . S
C1884 C1886 1.363 . S
C1884 H1900 0.931 . S
C1885 C1884 1.370 . S
C1885 C1889 1.408 . S
C1886 C1884 1.363 . S
C1886 C1887 1.370 . S
C1886 C1890 1.524 . S
C1887 C1879 1.503 . S
C1887 C1886 1.370 . S
C1887 C1888 1.403 . S
C1888 C1887 1.403 . S
C1888 C1889 1.404 . S
C1888 C1891 1.539 . S
C1889 C1885 1.408 . S
C1889 C1888 1.404 . S
C1889 H1901 0.930 . S
C1890 C1886 1.524 . S
C1890 H1902 0.956 . S
C1890 H1903 0.961 . S
C1890 H1904 0.961 . S
C1891 C1888 1.539 . S
C1891 H1905 0.958 . S
C1891 H1906 0.961 . S
C1891 H1907 0.960 . S
H1892 C1876 0.931 . S
H1893 C1881 0.929 . S
H1894 C1882 0.960 . S
H1895 C1882 0.962 . S
H1896 C1882 0.960 . S
H1897 C1883 0.961 . S
H1898 C1883 0.961 . S
H1899 C1883 0.961 . S
H1900 C1884 0.931 . S
H1901 C1889 0.930 . S
H1902 C1890 0.956 . S
H1903 C1890 0.961 . S
H1904 C1890 0.961 . S
H1905 C1891 0.958 . S
H1906 C1891 0.961 . S
H1907 C1891 0.960 . S
C1908 C1909 1.391 . S
C1908 C1910 1.394 . S
C1908 H1924 0.931 . S
C1909 C1908 1.391 . S
C1909 C1913 1.376 . S
C1910 C1908 1.394 . S
C1910 C1911 1.369 . S
C1910 C1914 1.531 . S
C1911 C1910 1.369 . S
C1911 C1912 1.410 . S
C1911 C1919 1.503 . S
C1912 C1911 1.410 . S
C1912 C1913 1.392 . S
C1912 C1915 1.511 . S
C1913 C1909 1.376 . S
C1913 C1912 1.392 . S
C1913 H1925 0.929 . S
C1914 C1910 1.531 . S
C1914 H1926 0.960 . S
C1914 H1927 0.962 . S
C1914 H1928 0.960 . S
C1915 C1912 1.511 . S
C1915 H1929 0.961 . S
C1915 H1930 0.961 . S
C1915 H1931 0.961 . S
C1916 C1917 1.370 . S
C1916 C1918 1.363 . S
C1916 H1932 0.931 . S
C1917 C1916 1.370 . S
C1917 C1921 1.408 . S
C1918 C1916 1.363 . S
C1918 C1919 1.370 . S
C1918 C1922 1.524 . S
C1919 C1911 1.503 . S
C1919 C1918 1.370 . S
C1919 C1920 1.403 . S
C1920 C1919 1.403 . S
C1920 C1921 1.404 . S
C1920 C1923 1.539 . S
C1921 C1917 1.408 . S
C1921 C1920 1.404 . S
C1921 H1933 0.930 . S
C1922 C1918 1.524 . S
C1922 H1934 0.956 . S
C1922 H1935 0.961 . S
C1922 H1936 0.961 . S
C1923 C1920 1.539 . S
C1923 H1937 0.958 . S
C1923 H1938 0.961 . S
C1923 H1939 0.960 . S
H1924 C1908 0.931 . S
H1925 C1913 0.929 . S
H1926 C1914 0.960 . S
H1927 C1914 0.962 . S
H1928 C1914 0.960 . S
H1929 C1915 0.961 . S
H1930 C1915 0.961 . S
H1931 C1915 0.961 . S
H1932 C1916 0.931 . S
H1933 C1921 0.930 . S
H1934 C1922 0.956 . S
H1935 C1922 0.961 . S
H1936 C1922 0.961 . S
H1937 C1923 0.958 . S
H1938 C1923 0.961 . S
H1939 C1923 0.960 . S
C1940 C1941 1.391 . S
C1940 C1942 1.394 . S
C1940 H1956 0.931 . S
C1941 C1940 1.391 . S
C1941 C1945 1.376 . S
C1942 C1940 1.394 . S
C1942 C1943 1.369 . S
C1942 C1946 1.531 . S
C1943 C1942 1.369 . S
C1943 C1944 1.410 . S
C1943 C1951 1.503 . S
C1944 C1943 1.410 . S
C1944 C1945 1.392 . S
C1944 C1947 1.511 . S
C1945 C1941 1.376 . S
C1945 C1944 1.392 . S
C1945 H1957 0.929 . S
C1946 C1942 1.531 . S
C1946 H1958 0.960 . S
C1946 H1959 0.962 . S
C1946 H1960 0.960 . S
C1947 C1944 1.511 . S
C1947 H1961 0.961 . S
C1947 H1962 0.961 . S
C1947 H1963 0.961 . S
C1948 C1949 1.370 . S
C1948 C1950 1.363 . S
C1948 H1964 0.931 . S
C1949 C1948 1.370 . S
C1949 C1953 1.408 . S
C1950 C1948 1.363 . S
C1950 C1951 1.370 . S
C1950 C1954 1.524 . S
C1951 C1943 1.503 . S
C1951 C1950 1.370 . S
C1951 C1952 1.403 . S
C1952 C1951 1.403 . S
C1952 C1953 1.404 . S
C1952 C1955 1.539 . S
C1953 C1949 1.408 . S
C1953 C1952 1.404 . S
C1953 H1965 0.930 . S
C1954 C1950 1.524 . S
C1954 H1966 0.956 . S
C1954 H1967 0.961 . S
C1954 H1968 0.961 . S
C1955 C1952 1.539 . S
C1955 H1969 0.958 . S
C1955 H1970 0.961 . S
C1955 H1971 0.960 . S
H1956 C1940 0.931 . S
H1957 C1945 0.929 . S
H1958 C1946 0.960 . S
H1959 C1946 0.962 . S
H1960 C1946 0.960 . S
H1961 C1947 0.961 . S
H1962 C1947 0.961 . S
H1963 C1947 0.961 . S
H1964 C1948 0.931 . S
H1965 C1953 0.930 . S
H1966 C1954 0.956 . S
H1967 C1954 0.961 . S
H1968 C1954 0.961 . S
H1969 C1955 0.958 . S
H1970 C1955 0.961 . S
H1971 C1955 0.960 . S
C1972 C1973 1.391 . S
C1972 C1974 1.394 . S
C1972 H1988 0.931 . S
C1973 C1972 1.391 . S
C1973 C1977 1.376 . S
C1974 C1972 1.394 . S
C1974 C1975 1.369 . S
C1974 C1978 1.531 . S
C1975 C1974 1.369 . S
C1975 C1976 1.410 . S
C1975 C1983 1.503 . S
C1976 C1975 1.410 . S
C1976 C1977 1.392 . S
C1976 C1979 1.511 . S
C1977 C1973 1.376 . S
C1977 C1976 1.392 . S
C1977 H1989 0.929 . S
C1978 C1974 1.531 . S
C1978 H1990 0.960 . S
C1978 H1991 0.962 . S
C1978 H1992 0.960 . S
C1979 C1976 1.511 . S
C1979 H1993 0.961 . S
C1979 H1994 0.961 . S
C1979 H1995 0.961 . S
C1980 C1981 1.370 . S
C1980 C1982 1.363 . S
C1980 H1996 0.931 . S
C1981 C1980 1.370 . S
C1981 C1985 1.408 . S
C1982 C1980 1.363 . S
C1982 C1983 1.370 . S
C1982 C1986 1.524 . S
C1983 C1975 1.503 . S
C1983 C1982 1.370 . S
C1983 C1984 1.403 . S
C1984 C1983 1.403 . S
C1984 C1985 1.404 . S
C1984 C1987 1.539 . S
C1985 C1981 1.408 . S
C1985 C1984 1.404 . S
C1985 H1997 0.930 . S
C1986 C1982 1.524 . S
C1986 H1998 0.956 . S
C1986 H1999 0.961 . S
C1986 H2000 0.961 . S
C1987 C1984 1.539 . S
C1987 H2001 0.958 . S
C1987 H2002 0.961 . S
C1987 H2003 0.960 . S
H1988 C1972 0.931 . S
H1989 C1977 0.929 . S
H1990 C1978 0.960 . S
H1991 C1978 0.962 . S
H1992 C1978 0.960 . S
H1993 C1979 0.961 . S
H1994 C1979 0.961 . S
H1995 C1979 0.961 . S
H1996 C1980 0.931 . S
H1997 C1985 0.930 . S
H1998 C1986 0.956 . S
H1999 C1986 0.961 . S
H2000 C1986 0.961 . S
H2001 C1987 0.958 . S
H2002 C1987 0.961 . S
H2003 C1987 0.960 . S
C2004 C2005 1.479 . S
C2004 C2006 1.371 1_455 S
C2004 H2020 0.872 1_455 S
C2005 C2004 1.479 . S
C2005 C2009 1.376 . S
C2006 C2004 1.371 1_655 S
C2006 C2007 1.369 1_655 S
C2006 C2010 1.531 . S
C2007 C2006 1.369 1_455 S
C2007 C2008 1.410 . S
C2007 C2015 1.503 1_455 S
C2008 C2007 1.410 . S
C2008 C2009 1.392 . S
C2008 C2011 1.511 . S
C2009 C2005 1.376 . S
C2009 C2008 1.392 . S
C2009 H2021 0.929 . S
C2010 C2006 1.531 . S
C2010 H2022 0.960 . S
C2010 H2023 0.962 . S
C2010 H2024 0.960 . S
C2011 C2008 1.511 . S
C2011 H2025 0.961 . S
C2011 H2026 0.961 . S
C2011 H2027 0.961 . S
C2012 C2013 1.370 . S
C2012 C2014 1.363 . S
C2012 H2028 0.931 . S
C2013 C2012 1.370 . S
C2013 C2017 1.408 . S
C2014 C2012 1.363 . S
C2014 C2015 1.370 . S
C2014 C2018 1.524 . S
C2015 C2007 1.503 1_655 S
C2015 C2014 1.370 . S
C2015 C2016 1.403 1_655 S
C2016 C2015 1.403 1_455 S
C2016 C2017 1.404 1_455 S
C2016 C2019 1.539 . S
C2017 C2013 1.408 . S
C2017 C2016 1.404 1_655 S
C2017 H2029 0.930 . S
C2018 C2014 1.524 . S
C2018 H2030 0.956 . S
C2018 H2031 0.961 . S
C2018 H2032 0.961 . S
C2019 C2016 1.539 . S
C2019 H2033 0.958 . S
C2019 H2034 0.961 . S
C2019 H2035 0.960 . S
H2020 C2004 0.872 1_655 S
H2021 C2009 0.929 . S
H2022 C2010 0.960 . S
H2023 C2010 0.962 . S
H2024 C2010 0.960 . S
H2025 C2011 0.961 . S
H2026 C2011 0.961 . S
H2027 C2011 0.961 . S
H2028 C2012 0.931 . S
H2029 C2017 0.930 . S
H2030 C2018 0.956 . S
H2031 C2018 0.961 . S
H2032 C2018 0.961 . S
H2033 C2019 0.958 . S
H2034 C2019 0.961 . S
H2035 C2019 0.960 . S
C2036 C2037 1.391 . S
C2036 C2038 1.394 . S
C2036 H2052 0.931 . S
C2037 C2036 1.391 . S
C2037 C2041 1.376 . S
C2038 C2036 1.394 . S
C2038 C2039 1.369 . S
C2038 C2042 1.531 . S
C2039 C2038 1.369 . S
C2039 C2040 1.410 . S
C2039 C2047 1.503 . S
C2040 C2039 1.410 . S
C2040 C2041 1.392 . S
C2040 C2043 1.511 . S
C2041 C2037 1.376 . S
C2041 C2040 1.392 . S
C2041 H2053 0.929 . S
C2042 C2038 1.531 . S
C2042 H2054 0.960 . S
C2042 H2055 0.962 . S
C2042 H2056 0.960 . S
C2043 C2040 1.511 . S
C2043 H2057 0.961 . S
C2043 H2058 0.961 . S
C2043 H2059 0.961 . S
C2044 C2045 1.370 . S
C2044 C2046 1.363 . S
C2044 H2060 0.931 . S
C2045 C2044 1.370 . S
C2045 C2049 1.408 . S
C2046 C2044 1.363 . S
C2046 C2047 1.370 . S
C2046 C2050 1.524 . S
C2047 C2039 1.503 . S
C2047 C2046 1.370 . S
C2047 C2048 1.403 . S
C2048 C2047 1.403 . S
C2048 C2049 1.404 . S
C2048 C2051 1.539 . S
C2049 C2045 1.408 . S
C2049 C2048 1.404 . S
C2049 H2061 0.930 . S
C2050 C2046 1.524 . S
C2050 H2062 0.956 . S
C2050 H2063 0.961 . S
C2050 H2064 0.961 . S
C2051 C2048 1.539 . S
C2051 H2065 0.958 . S
C2051 H2066 0.961 . S
C2051 H2067 0.960 . S
H2052 C2036 0.931 . S
H2053 C2041 0.929 . S
H2054 C2042 0.960 . S
H2055 C2042 0.962 . S
H2056 C2042 0.960 . S
H2057 C2043 0.961 . S
H2058 C2043 0.961 . S
H2059 C2043 0.961 . S
H2060 C2044 0.931 . S
H2061 C2049 0.930 . S
H2062 C2050 0.956 . S
H2063 C2050 0.961 . S
H2064 C2050 0.961 . S
H2065 C2051 0.958 . S
H2066 C2051 0.961 . S
H2067 C2051 0.960 . S
C2068 C2069 1.418 . S
C2068 C2070 1.385 1_565 S
C2068 H2084 0.912 1_565 S
C2069 C2068 1.418 . S
C2069 C2073 1.376 . S
C2070 C2068 1.385 1_545 S
C2070 C2071 1.349 1_545 S
C2070 C2074 1.531 . S
C2071 C2070 1.349 1_565 S
C2071 C2072 1.440 . S
C2071 C2079 1.495 1_565 S
C2072 C2071 1.440 . S
C2072 C2073 1.392 . S
C2072 C2075 1.511 . S
C2073 C2069 1.376 . S
C2073 C2072 1.392 . S
C2073 H2085 0.929 . S
C2074 C2070 1.531 . S
C2074 H2086 0.960 . S
C2074 H2087 0.962 . S
C2074 H2088 0.960 . S
C2075 C2072 1.511 . S
C2075 H2089 0.961 . S
C2075 H2090 0.961 . S
C2075 H2091 0.961 . S
C2076 C2077 1.370 . S
C2076 C2078 1.363 1_545 S
C2076 H2092 0.931 1_545 S
C2077 C2076 1.370 . S
C2077 C2081 1.408 . S
C2078 C2076 1.363 1_565 S
C2078 C2079 1.370 1_565 S
C2078 C2082 1.524 . S
C2079 C2071 1.495 1_545 S
C2079 C2078 1.370 1_545 S
C2079 C2080 1.403 . S
C2080 C2079 1.403 . S
C2080 C2081 1.404 . S
C2080 C2083 1.539 . S
C2081 C2077 1.408 . S
C2081 C2080 1.404 . S
C2081 H2093 0.930 . S
C2082 C2078 1.524 . S
C2082 H2094 0.956 . S
C2082 H2095 0.961 . S
C2082 H2096 0.961 . S
C2083 C2080 1.539 . S
C2083 H2097 0.958 . S
C2083 H2098 0.961 . S
C2083 H2099 0.960 . S
H2084 C2068 0.912 1_545 S
H2085 C2073 0.929 . S
H2086 C2074 0.960 . S
H2087 C2074 0.962 . S
H2088 C2074 0.960 . S
H2089 C2075 0.961 . S
H2090 C2075 0.961 . S
H2091 C2075 0.961 . S
H2092 C2076 0.931 1_565 S
H2093 C2081 0.930 . S
H2094 C2082 0.956 . S
H2095 C2082 0.961 . S
H2096 C2082 0.961 . S
H2097 C2083 0.958 . S
H2098 C2083 0.961 . S
H2099 C2083 0.960 . S
C2100 C2101 1.391 . S
C2100 C2102 1.394 1_565 S
C2100 H2116 0.931 1_565 S
C2101 C2100 1.391 . S
C2101 C2105 1.376 . S
C2102 C2100 1.394 1_545 S
C2102 C2103 1.366 1_545 S
C2102 C2106 1.531 . S
C2103 C2102 1.366 1_565 S
C2103 C2104 1.414 . S
C2103 C2111 1.502 1_565 S
C2104 C2103 1.414 . S
C2104 C2105 1.392 . S
C2104 C2107 1.511 . S
C2105 C2101 1.376 . S
C2105 C2104 1.392 . S
C2105 H2117 0.929 . S
C2106 C2102 1.531 . S
C2106 H2118 0.960 . S
C2106 H2119 0.962 . S
C2106 H2120 0.960 . S
C2107 C2104 1.511 . S
C2107 H2121 0.961 . S
C2107 H2122 0.961 . S
C2107 H2123 0.961 . S
C2108 C2109 1.370 . S
C2108 C2110 1.363 1_545 S
C2108 H2124 0.931 1_545 S
C2109 C2108 1.370 . S
C2109 C2113 1.408 . S
C2110 C2108 1.363 1_565 S
C2110 C2111 1.370 1_565 S
C2110 C2114 1.524 . S
C2111 C2103 1.502 1_545 S
C2111 C2110 1.370 1_545 S
C2111 C2112 1.403 . S
C2112 C2111 1.403 . S
C2112 C2113 1.404 . S
C2112 C2115 1.539 . S
C2113 C2109 1.408 . S
C2113 C2112 1.404 . S
C2113 H2125 0.930 . S
C2114 C2110 1.524 . S
C2114 H2126 0.956 . S
C2114 H2127 0.961 . S
C2114 H2128 0.961 . S
C2115 C2112 1.539 . S
C2115 H2129 0.958 . S
C2115 H2130 0.961 . S
C2115 H2131 0.960 . S
H2116 C2100 0.931 1_545 S
H2117 C2105 0.929 . S
H2118 C2106 0.960 . S
H2119 C2106 0.962 . S
H2120 C2106 0.960 . S
H2121 C2107 0.961 . S
H2122 C2107 0.961 . S
H2123 C2107 0.961 . S
H2124 C2108 0.931 1_565 S
H2125 C2113 0.930 . S
H2126 C2114 0.956 . S
H2127 C2114 0.961 . S
H2128 C2114 0.961 . S
H2129 C2115 0.958 . S
H2130 C2115 0.961 . S
H2131 C2115 0.960 . S
C2132 C2133 1.391 1_455 S
C2132 C2134 1.394 . S
C2132 H2148 0.931 . S
C2133 C2132 1.391 1_655 S
C2133 C2137 1.376 . S
C2134 C2132 1.394 . S
C2134 C2135 1.369 1_455 S
C2134 C2138 1.531 . S
C2135 C2134 1.369 1_655 S
C2135 C2136 1.410 . S
C2135 C2143 1.503 1_655 S
C2136 C2135 1.410 . S
C2136 C2137 1.392 . S
C2136 C2139 1.511 . S
C2137 C2133 1.376 . S
C2137 C2136 1.392 . S
C2137 H2149 0.929 . S
C2138 C2134 1.531 . S
C2138 H2150 0.960 . S
C2138 H2151 0.962 . S
C2138 H2152 0.960 . S
C2139 C2136 1.511 . S
C2139 H2153 0.961 . S
C2139 H2154 0.961 . S
C2139 H2155 0.961 . S
C2140 C2141 1.370 . S
C2140 C2142 1.363 . S
C2140 H2156 0.931 . S
C2141 C2140 1.370 . S
C2141 C2145 1.408 . S
C2142 C2140 1.363 . S
C2142 C2143 1.370 . S
C2142 C2146 1.524 1_455 S
C2143 C2135 1.503 1_455 S
C2143 C2142 1.370 . S
C2143 C2144 1.403 . S
C2144 C2143 1.403 . S
C2144 C2145 1.404 . S
C2144 C2147 1.539 . S
C2145 C2141 1.408 . S
C2145 C2144 1.404 . S
C2145 H2157 0.930 . S
C2146 C2142 1.524 1_655 S
C2146 H2158 0.956 1_655 S
C2146 H2159 0.961 . S
C2146 H2160 0.961 . S
C2147 C2144 1.539 . S
C2147 H2161 0.958 . S
C2147 H2162 0.961 . S
C2147 H2163 0.916 1_455 S
H2148 C2132 0.931 . S
H2149 C2137 0.929 . S
H2150 C2138 0.960 . S
H2151 C2138 0.962 . S
H2152 C2138 0.960 . S
H2153 C2139 0.961 . S
H2154 C2139 0.961 . S
H2155 C2139 0.961 . S
H2156 C2140 0.931 . S
H2157 C2145 0.930 . S
H2158 C2146 0.956 1_455 S
H2159 C2146 0.961 . S
H2160 C2146 0.961 . S
H2161 C2147 0.958 . S
H2162 C2147 0.961 . S
H2163 C2147 0.916 1_655 S
C2164 C2165 1.391 . S
C2164 C2166 1.394 . S
C2164 H2180 0.931 . S
C2165 C2164 1.391 . S
C2165 C2169 1.376 . S
C2166 C2164 1.394 . S
C2166 C2167 1.369 . S
C2166 C2170 1.531 . S
C2167 C2166 1.369 . S
C2167 C2168 1.410 . S
C2167 C2175 1.503 . S
C2168 C2167 1.410 . S
C2168 C2169 1.392 . S
C2168 C2171 1.511 . S
C2169 C2165 1.376 . S
C2169 C2168 1.392 . S
C2169 H2181 0.929 . S
C2170 C2166 1.531 . S
C2170 H2182 0.960 . S
C2170 H2183 0.962 . S
C2170 H2184 0.960 . S
C2171 C2168 1.511 . S
C2171 H2185 0.961 . S
C2171 H2186 0.961 . S
C2171 H2187 0.961 . S
C2172 C2173 1.370 . S
C2172 C2174 1.363 . S
C2172 H2188 0.931 . S
C2173 C2172 1.370 . S
C2173 C2177 1.408 . S
C2174 C2172 1.363 . S
C2174 C2175 1.370 . S
C2174 C2178 1.524 . S
C2175 C2167 1.503 . S
C2175 C2174 1.370 . S
C2175 C2176 1.403 . S
C2176 C2175 1.403 . S
C2176 C2177 1.404 . S
C2176 C2179 1.539 . S
C2177 C2173 1.408 . S
C2177 C2176 1.404 . S
C2177 H2189 0.930 . S
C2178 C2174 1.524 . S
C2178 H2190 0.956 . S
C2178 H2191 0.961 . S
C2178 H2192 0.961 . S
C2179 C2176 1.539 . S
C2179 H2193 0.958 . S
C2179 H2194 0.961 . S
C2179 H2195 0.960 . S
H2180 C2164 0.931 . S
H2181 C2169 0.929 . S
H2182 C2170 0.960 . S
H2183 C2170 0.962 . S
H2184 C2170 0.960 . S
H2185 C2171 0.961 . S
H2186 C2171 0.961 . S
H2187 C2171 0.961 . S
H2188 C2172 0.931 . S
H2189 C2177 0.930 . S
H2190 C2178 0.956 . S
H2191 C2178 0.961 . S
H2192 C2178 0.961 . S
H2193 C2179 0.958 . S
H2194 C2179 0.961 . S
H2195 C2179 0.960 . S
C2196 C2197 1.391 . S
C2196 C2198 1.394 . S
C2196 H2212 0.931 . S
C2197 C2196 1.391 . S
C2197 C2201 1.376 . S
C2198 C2196 1.394 . S
C2198 C2199 1.369 . S
C2198 C2202 1.531 . S
C2199 C2198 1.369 . S
C2199 C2200 1.410 . S
C2199 C2207 1.503 . S
C2200 C2199 1.410 . S
C2200 C2201 1.392 . S
C2200 C2203 1.511 . S
C2201 C2197 1.376 . S
C2201 C2200 1.392 . S
C2201 H2213 0.929 . S
C2202 C2198 1.531 . S
C2202 H2214 0.960 . S
C2202 H2215 0.962 . S
C2202 H2216 0.960 . S
C2203 C2200 1.511 . S
C2203 H2217 0.961 . S
C2203 H2218 0.961 . S
C2203 H2219 0.961 . S
C2204 C2205 1.370 . S
C2204 C2206 1.363 . S
C2204 H2220 0.931 . S
C2205 C2204 1.370 . S
C2205 C2209 1.408 . S
C2206 C2204 1.363 . S
C2206 C2207 1.370 . S
C2206 C2210 1.524 . S
C2207 C2199 1.503 . S
C2207 C2206 1.370 . S
C2207 C2208 1.403 . S
C2208 C2207 1.403 . S
C2208 C2209 1.404 . S
C2208 C2211 1.539 . S
C2209 C2205 1.408 . S
C2209 C2208 1.404 . S
C2209 H2221 0.930 . S
C2210 C2206 1.524 . S
C2210 H2222 0.956 . S
C2210 H2223 0.961 . S
C2210 H2224 0.961 . S
C2211 C2208 1.539 . S
C2211 H2225 0.958 . S
C2211 H2226 0.961 . S
C2211 H2227 0.960 . S
H2212 C2196 0.931 . S
H2213 C2201 0.929 . S
H2214 C2202 0.960 . S
H2215 C2202 0.962 . S
H2216 C2202 0.960 . S
H2217 C2203 0.961 . S
H2218 C2203 0.961 . S
H2219 C2203 0.961 . S
H2220 C2204 0.931 . S
H2221 C2209 0.930 . S
H2222 C2210 0.956 . S
H2223 C2210 0.961 . S
H2224 C2210 0.961 . S
H2225 C2211 0.958 . S
H2226 C2211 0.961 . S
H2227 C2211 0.960 . S
C2228 C2229 1.391 . S
C2228 C2230 1.394 . S
C2228 H2244 0.931 . S
C2229 C2228 1.391 . S
C2229 C2233 1.376 . S
C2230 C2228 1.394 . S
C2230 C2231 1.369 . S
C2230 C2234 1.531 . S
C2231 C2230 1.369 . S
C2231 C2232 1.410 . S
C2231 C2239 1.503 . S
C2232 C2231 1.410 . S
C2232 C2233 1.392 . S
C2232 C2235 1.511 . S
C2233 C2229 1.376 . S
C2233 C2232 1.392 . S
C2233 H2245 0.929 . S
C2234 C2230 1.531 . S
C2234 H2246 0.960 . S
C2234 H2247 0.962 . S
C2234 H2248 0.960 . S
C2235 C2232 1.511 . S
C2235 H2249 0.961 . S
C2235 H2250 0.961 . S
C2235 H2251 0.961 . S
C2236 C2237 1.370 . S
C2236 C2238 1.363 . S
C2236 H2252 0.931 . S
C2237 C2236 1.370 . S
C2237 C2241 1.408 . S
C2238 C2236 1.363 . S
C2238 C2239 1.370 . S
C2238 C2242 1.524 . S
C2239 C2231 1.503 . S
C2239 C2238 1.370 . S
C2239 C2240 1.403 . S
C2240 C2239 1.403 . S
C2240 C2241 1.404 . S
C2240 C2243 1.539 . S
C2241 C2237 1.408 . S
C2241 C2240 1.404 . S
C2241 H2253 0.930 . S
C2242 C2238 1.524 . S
C2242 H2254 0.956 . S
C2242 H2255 0.961 . S
C2242 H2256 0.961 . S
C2243 C2240 1.539 . S
C2243 H2257 0.958 . S
C2243 H2258 0.961 . S
C2243 H2259 0.960 . S
H2244 C2228 0.931 . S
H2245 C2233 0.929 . S
H2246 C2234 0.960 . S
H2247 C2234 0.962 . S
H2248 C2234 0.960 . S
H2249 C2235 0.961 . S
H2250 C2235 0.961 . S
H2251 C2235 0.961 . S
H2252 C2236 0.931 . S
H2253 C2241 0.930 . S
H2254 C2242 0.956 . S
H2255 C2242 0.961 . S
H2256 C2242 0.961 . S
H2257 C2243 0.958 . S
H2258 C2243 0.961 . S
H2259 C2243 0.960 . S
C2260 C2261 1.391 . S
C2260 C2262 1.394 . S
C2260 H2276 0.931 . S
C2261 C2260 1.391 . S
C2261 C2265 1.376 . S
C2262 C2260 1.394 . S
C2262 C2263 1.369 . S
C2262 C2266 1.531 . S
C2263 C2262 1.369 . S
C2263 C2264 1.410 . S
C2263 C2271 1.503 . S
C2264 C2263 1.410 . S
C2264 C2265 1.392 . S
C2264 C2267 1.511 . S
C2265 C2261 1.376 . S
C2265 C2264 1.392 . S
C2265 H2277 0.929 . S
C2266 C2262 1.531 . S
C2266 H2278 0.960 . S
C2266 H2279 0.962 . S
C2266 H2280 0.960 . S
C2267 C2264 1.511 . S
C2267 H2281 0.961 . S
C2267 H2282 0.961 . S
C2267 H2283 0.961 . S
C2268 C2269 1.370 . S
C2268 C2270 1.363 . S
C2268 H2284 0.931 . S
C2269 C2268 1.370 . S
C2269 C2273 1.408 . S
C2270 C2268 1.363 . S
C2270 C2271 1.370 . S
C2270 C2274 1.524 . S
C2271 C2263 1.503 . S
C2271 C2270 1.370 . S
C2271 C2272 1.403 . S
C2272 C2271 1.403 . S
C2272 C2273 1.404 . S
C2272 C2275 1.539 . S
C2273 C2269 1.408 . S
C2273 C2272 1.404 . S
C2273 H2285 0.930 . S
C2274 C2270 1.524 . S
C2274 H2286 0.956 . S
C2274 H2287 0.961 . S
C2274 H2288 0.961 . S
C2275 C2272 1.539 . S
C2275 H2289 0.958 . S
C2275 H2290 0.961 . S
C2275 H2291 0.960 . S
H2276 C2260 0.931 . S
H2277 C2265 0.929 . S
H2278 C2266 0.960 . S
H2279 C2266 0.962 . S
H2280 C2266 0.960 . S
H2281 C2267 0.961 . S
H2282 C2267 0.961 . S
H2283 C2267 0.961 . S
H2284 C2268 0.931 . S
H2285 C2273 0.930 . S
H2286 C2274 0.956 . S
H2287 C2274 0.961 . S
H2288 C2274 0.961 . S
H2289 C2275 0.958 . S
H2290 C2275 0.961 . S
H2291 C2275 0.960 . S
C2292 C2293 1.391 . S
C2292 C2294 1.394 . S
C2292 H2308 0.931 . S
C2293 C2292 1.391 . S
C2293 C2297 1.376 . S
C2294 C2292 1.394 . S
C2294 C2295 1.369 . S
C2294 C2298 1.531 . S
C2295 C2294 1.369 . S
C2295 C2296 1.410 . S
C2295 C2303 1.503 . S
C2296 C2295 1.410 . S
C2296 C2297 1.392 . S
C2296 C2299 1.511 . S
C2297 C2293 1.376 . S
C2297 C2296 1.392 . S
C2297 H2309 0.929 . S
C2298 C2294 1.531 . S
C2298 H2310 0.960 . S
C2298 H2311 0.962 . S
C2298 H2312 0.960 . S
C2299 C2296 1.511 . S
C2299 H2313 0.961 . S
C2299 H2314 0.961 . S
C2299 H2315 0.961 . S
C2300 C2301 1.370 . S
C2300 C2302 1.363 . S
C2300 H2316 0.931 . S
C2301 C2300 1.370 . S
C2301 C2305 1.408 . S
C2302 C2300 1.363 . S
C2302 C2303 1.370 . S
C2302 C2306 1.524 . S
C2303 C2295 1.503 . S
C2303 C2302 1.370 . S
C2303 C2304 1.403 . S
C2304 C2303 1.403 . S
C2304 C2305 1.404 . S
C2304 C2307 1.539 . S
C2305 C2301 1.408 . S
C2305 C2304 1.404 . S
C2305 H2317 0.930 . S
C2306 C2302 1.524 . S
C2306 H2318 0.956 . S
C2306 H2319 0.961 . S
C2306 H2320 0.961 . S
C2307 C2304 1.539 . S
C2307 H2321 0.958 . S
C2307 H2322 0.961 . S
C2307 H2323 0.960 . S
H2308 C2292 0.931 . S
H2309 C2297 0.929 . S
H2310 C2298 0.960 . S
H2311 C2298 0.962 . S
H2312 C2298 0.960 . S
H2313 C2299 0.961 . S
H2314 C2299 0.961 . S
H2315 C2299 0.961 . S
H2316 C2300 0.931 . S
H2317 C2305 0.930 . S
H2318 C2306 0.956 . S
H2319 C2306 0.961 . S
H2320 C2306 0.961 . S
H2321 C2307 0.958 . S
H2322 C2307 0.961 . S
H2323 C2307 0.960 . S
C2324 C2325 1.391 . S
C2324 C2326 1.394 . S
C2324 H2340 0.931 . S
C2325 C2324 1.391 . S
C2325 C2329 1.376 . S
C2326 C2324 1.394 . S
C2326 C2327 1.369 . S
C2326 C2330 1.531 . S
C2327 C2326 1.369 . S
C2327 C2328 1.410 . S
C2327 C2335 1.503 . S
C2328 C2327 1.410 . S
C2328 C2329 1.392 . S
C2328 C2331 1.511 . S
C2329 C2325 1.376 . S
C2329 C2328 1.392 . S
C2329 H2341 0.929 . S
C2330 C2326 1.531 . S
C2330 H2342 0.960 . S
C2330 H2343 0.962 . S
C2330 H2344 0.960 . S
C2331 C2328 1.511 . S
C2331 H2345 0.961 . S
C2331 H2346 0.961 . S
C2331 H2347 0.961 . S
C2332 C2333 1.370 . S
C2332 C2334 1.363 . S
C2332 H2348 0.931 . S
C2333 C2332 1.370 . S
C2333 C2337 1.408 . S
C2334 C2332 1.363 . S
C2334 C2335 1.370 . S
C2334 C2338 1.524 . S
C2335 C2327 1.503 . S
C2335 C2334 1.370 . S
C2335 C2336 1.403 . S
C2336 C2335 1.403 . S
C2336 C2337 1.404 . S
C2336 C2339 1.539 . S
C2337 C2333 1.408 . S
C2337 C2336 1.404 . S
C2337 H2349 0.930 . S
C2338 C2334 1.524 . S
C2338 H2350 0.956 . S
C2338 H2351 0.961 . S
C2338 H2352 0.961 . S
C2339 C2336 1.539 . S
C2339 H2353 0.958 . S
C2339 H2354 0.961 . S
C2339 H2355 0.960 . S
H2340 C2324 0.931 . S
H2341 C2329 0.929 . S
H2342 C2330 0.960 . S
H2343 C2330 0.962 . S
H2344 C2330 0.960 . S
H2345 C2331 0.961 . S
H2346 C2331 0.961 . S
H2347 C2331 0.961 . S
H2348 C2332 0.931 . S
H2349 C2337 0.930 . S
H2350 C2338 0.956 . S
H2351 C2338 0.961 . S
H2352 C2338 0.961 . S
H2353 C2339 0.958 . S
H2354 C2339 0.961 . S
H2355 C2339 0.960 . S
C2356 C2357 1.391 . S
C2356 C2358 1.394 . S
C2356 H2372 0.931 . S
C2357 C2356 1.391 . S
C2357 C2361 1.376 . S
C2358 C2356 1.394 . S
C2358 C2359 1.369 . S
C2358 C2362 1.531 . S
C2359 C2358 1.369 . S
C2359 C2360 1.410 . S
C2359 C2367 1.503 . S
C2360 C2359 1.410 . S
C2360 C2361 1.392 . S
C2360 C2363 1.511 . S
C2361 C2357 1.376 . S
C2361 C2360 1.392 . S
C2361 H2373 0.929 . S
C2362 C2358 1.531 . S
C2362 H2374 0.960 . S
C2362 H2375 0.962 . S
C2362 H2376 0.960 . S
C2363 C2360 1.511 . S
C2363 H2377 0.961 . S
C2363 H2378 0.961 . S
C2363 H2379 0.961 . S
C2364 C2365 1.370 . S
C2364 C2366 1.363 . S
C2364 H2380 0.931 . S
C2365 C2364 1.370 . S
C2365 C2369 1.408 . S
C2366 C2364 1.363 . S
C2366 C2367 1.370 . S
C2366 C2370 1.524 . S
C2367 C2359 1.503 . S
C2367 C2366 1.370 . S
C2367 C2368 1.403 . S
C2368 C2367 1.403 . S
C2368 C2369 1.404 . S
C2368 C2371 1.539 . S
C2369 C2365 1.408 . S
C2369 C2368 1.404 . S
C2369 H2381 0.930 . S
C2370 C2366 1.524 . S
C2370 H2382 0.956 . S
C2370 H2383 0.961 . S
C2370 H2384 0.961 . S
C2371 C2368 1.539 . S
C2371 H2385 0.958 . S
C2371 H2386 0.961 . S
C2371 H2387 0.960 . S
H2372 C2356 0.931 . S
H2373 C2361 0.929 . S
H2374 C2362 0.960 . S
H2375 C2362 0.962 . S
H2376 C2362 0.960 . S
H2377 C2363 0.961 . S
H2378 C2363 0.961 . S
H2379 C2363 0.961 . S
H2380 C2364 0.931 . S
H2381 C2369 0.930 . S
H2382 C2370 0.956 . S
H2383 C2370 0.961 . S
H2384 C2370 0.961 . S
H2385 C2371 0.958 . S
H2386 C2371 0.961 . S
H2387 C2371 0.960 . S
C2388 C2389 1.391 . S
C2388 C2390 1.394 . S
C2388 H2404 0.931 . S
C2389 C2388 1.391 . S
C2389 C2393 1.376 . S
C2390 C2388 1.394 . S
C2390 C2391 1.369 . S
C2390 C2394 1.531 . S
C2391 C2390 1.369 . S
C2391 C2392 1.410 . S
C2391 C2399 1.503 . S
C2392 C2391 1.410 . S
C2392 C2393 1.392 . S
C2392 C2395 1.511 . S
C2393 C2389 1.376 . S
C2393 C2392 1.392 . S
C2393 H2405 0.929 . S
C2394 C2390 1.531 . S
C2394 H2406 0.960 . S
C2394 H2407 0.962 . S
C2394 H2408 0.960 . S
C2395 C2392 1.511 . S
C2395 H2409 0.961 . S
C2395 H2410 0.961 . S
C2395 H2411 0.961 . S
C2396 C2397 1.370 . S
C2396 C2398 1.363 . S
C2396 H2412 0.931 . S
C2397 C2396 1.370 . S
C2397 C2401 1.408 . S
C2398 C2396 1.363 . S
C2398 C2399 1.370 . S
C2398 C2402 1.524 . S
C2399 C2391 1.503 . S
C2399 C2398 1.370 . S
C2399 C2400 1.403 . S
C2400 C2399 1.403 . S
C2400 C2401 1.404 . S
C2400 C2403 1.539 . S
C2401 C2397 1.408 . S
C2401 C2400 1.404 . S
C2401 H2413 0.930 . S
C2402 C2398 1.524 . S
C2402 H2414 0.956 . S
C2402 H2415 0.961 . S
C2402 H2416 0.961 . S
C2403 C2400 1.539 . S
C2403 H2417 0.958 . S
C2403 H2418 0.961 . S
C2403 H2419 0.960 . S
H2404 C2388 0.931 . S
H2405 C2393 0.929 . S
H2406 C2394 0.960 . S
H2407 C2394 0.962 . S
H2408 C2394 0.960 . S
H2409 C2395 0.961 . S
H2410 C2395 0.961 . S
H2411 C2395 0.961 . S
H2412 C2396 0.931 . S
H2413 C2401 0.930 . S
H2414 C2402 0.956 . S
H2415 C2402 0.961 . S
H2416 C2402 0.961 . S
H2417 C2403 0.958 . S
H2418 C2403 0.961 . S
H2419 C2403 0.960 . S
C2420 C2421 1.391 . S
C2420 C2422 1.394 . S
C2420 H2436 0.931 . S
C2421 C2420 1.391 . S
C2421 C2425 1.376 . S
C2422 C2420 1.394 . S
C2422 C2423 1.369 . S
C2422 C2426 1.531 . S
C2423 C2422 1.369 . S
C2423 C2424 1.410 . S
C2423 C2431 1.503 . S
C2424 C2423 1.410 . S
C2424 C2425 1.392 . S
C2424 C2427 1.511 . S
C2425 C2421 1.376 . S
C2425 C2424 1.392 . S
C2425 H2437 0.929 . S
C2426 C2422 1.531 . S
C2426 H2438 0.960 . S
C2426 H2439 0.962 . S
C2426 H2440 0.960 . S
C2427 C2424 1.511 . S
C2427 H2441 0.961 . S
C2427 H2442 0.961 . S
C2427 H2443 0.961 . S
C2428 C2429 1.370 . S
C2428 C2430 1.363 . S
C2428 H2444 0.931 . S
C2429 C2428 1.370 . S
C2429 C2433 1.408 . S
C2430 C2428 1.363 . S
C2430 C2431 1.370 . S
C2430 C2434 1.524 . S
C2431 C2423 1.503 . S
C2431 C2430 1.370 . S
C2431 C2432 1.403 . S
C2432 C2431 1.403 . S
C2432 C2433 1.404 . S
C2432 C2435 1.539 . S
C2433 C2429 1.408 . S
C2433 C2432 1.404 . S
C2433 H2445 0.930 . S
C2434 C2430 1.524 . S
C2434 H2446 0.956 . S
C2434 H2447 0.961 . S
C2434 H2448 0.961 . S
C2435 C2432 1.539 . S
C2435 H2449 0.958 . S
C2435 H2450 0.961 . S
C2435 H2451 0.960 . S
H2436 C2420 0.931 . S
H2437 C2425 0.929 . S
H2438 C2426 0.960 . S
H2439 C2426 0.962 . S
H2440 C2426 0.960 . S
H2441 C2427 0.961 . S
H2442 C2427 0.961 . S
H2443 C2427 0.961 . S
H2444 C2428 0.931 . S
H2445 C2433 0.930 . S
H2446 C2434 0.956 . S
H2447 C2434 0.961 . S
H2448 C2434 0.961 . S
H2449 C2435 0.958 . S
H2450 C2435 0.961 . S
H2451 C2435 0.960 . S
C2452 C2453 1.391 . S
C2452 C2454 1.394 . S
C2452 H2468 0.931 . S
C2453 C2452 1.391 . S
C2453 C2457 1.376 . S
C2454 C2452 1.394 . S
C2454 C2455 1.369 . S
C2454 C2458 1.531 . S
C2455 C2454 1.369 . S
C2455 C2456 1.410 . S
C2455 C2463 1.503 . S
C2456 C2455 1.410 . S
C2456 C2457 1.392 . S
C2456 C2459 1.511 . S
C2457 C2453 1.376 . S
C2457 C2456 1.392 . S
C2457 H2469 0.929 . S
C2458 C2454 1.531 . S
C2458 H2470 0.960 . S
C2458 H2471 0.962 . S
C2458 H2472 0.960 . S
C2459 C2456 1.511 . S
C2459 H2473 0.961 . S
C2459 H2474 0.961 . S
C2459 H2475 0.961 . S
C2460 C2461 1.370 . S
C2460 C2462 1.363 . S
C2460 H2476 0.931 . S
C2461 C2460 1.370 . S
C2461 C2465 1.408 . S
C2462 C2460 1.363 . S
C2462 C2463 1.370 . S
C2462 C2466 1.524 . S
C2463 C2455 1.503 . S
C2463 C2462 1.370 . S
C2463 C2464 1.403 . S
C2464 C2463 1.403 . S
C2464 C2465 1.404 . S
C2464 C2467 1.539 . S
C2465 C2461 1.408 . S
C2465 C2464 1.404 . S
C2465 H2477 0.930 . S
C2466 C2462 1.524 . S
C2466 H2478 0.956 . S
C2466 H2479 0.961 . S
C2466 H2480 0.961 . S
C2467 C2464 1.539 . S
C2467 H2481 0.958 . S
C2467 H2482 0.961 . S
C2467 H2483 0.960 . S
H2468 C2452 0.931 . S
H2469 C2457 0.929 . S
H2470 C2458 0.960 . S
H2471 C2458 0.962 . S
H2472 C2458 0.960 . S
H2473 C2459 0.961 . S
H2474 C2459 0.961 . S
H2475 C2459 0.961 . S
H2476 C2460 0.931 . S
H2477 C2465 0.930 . S
H2478 C2466 0.956 . S
H2479 C2466 0.961 . S
H2480 C2466 0.961 . S
H2481 C2467 0.958 . S
H2482 C2467 0.961 . S
H2483 C2467 0.960 . S
C2484 C2485 1.391 . S
C2484 C2486 1.394 . S
C2484 H2500 0.931 . S
C2485 C2484 1.391 . S
C2485 C2489 1.376 . S
C2486 C2484 1.394 . S
C2486 C2487 1.369 . S
C2486 C2490 1.531 . S
C2487 C2486 1.369 . S
C2487 C2488 1.410 . S
C2487 C2495 1.503 . S
C2488 C2487 1.410 . S
C2488 C2489 1.392 . S
C2488 C2491 1.511 . S
C2489 C2485 1.376 . S
C2489 C2488 1.392 . S
C2489 H2501 0.929 . S
C2490 C2486 1.531 . S
C2490 H2502 0.960 . S
C2490 H2503 0.962 . S
C2490 H2504 0.960 . S
C2491 C2488 1.511 . S
C2491 H2505 0.961 . S
C2491 H2506 0.961 . S
C2491 H2507 0.961 . S
C2492 C2493 1.370 . S
C2492 C2494 1.363 . S
C2492 H2508 0.931 . S
C2493 C2492 1.370 . S
C2493 C2497 1.408 . S
C2494 C2492 1.363 . S
C2494 C2495 1.370 . S
C2494 C2498 1.524 . S
C2495 C2487 1.503 . S
C2495 C2494 1.370 . S
C2495 C2496 1.403 . S
C2496 C2495 1.403 . S
C2496 C2497 1.404 . S
C2496 C2499 1.539 . S
C2497 C2493 1.408 . S
C2497 C2496 1.404 . S
C2497 H2509 0.930 . S
C2498 C2494 1.524 . S
C2498 H2510 0.956 . S
C2498 H2511 0.961 . S
C2498 H2512 0.961 . S
C2499 C2496 1.539 . S
C2499 H2513 0.958 . S
C2499 H2514 0.961 . S
C2499 H2515 0.960 . S
H2500 C2484 0.931 . S
H2501 C2489 0.929 . S
H2502 C2490 0.960 . S
H2503 C2490 0.962 . S
H2504 C2490 0.960 . S
H2505 C2491 0.961 . S
H2506 C2491 0.961 . S
H2507 C2491 0.961 . S
H2508 C2492 0.931 . S
H2509 C2497 0.930 . S
H2510 C2498 0.956 . S
H2511 C2498 0.961 . S
H2512 C2498 0.961 . S
H2513 C2499 0.958 . S
H2514 C2499 0.961 . S
H2515 C2499 0.960 . S
C2516 C2517 1.391 . S
C2516 C2518 1.394 . S
C2516 H2532 0.931 . S
C2517 C2516 1.391 . S
C2517 C2521 1.376 . S
C2518 C2516 1.394 . S
C2518 C2519 1.369 . S
C2518 C2522 1.531 . S
C2519 C2518 1.369 . S
C2519 C2520 1.410 . S
C2519 C2527 1.503 . S
C2520 C2519 1.410 . S
C2520 C2521 1.392 . S
C2520 C2523 1.511 . S
C2521 C2517 1.376 . S
C2521 C2520 1.392 . S
C2521 H2533 0.929 . S
C2522 C2518 1.531 . S
C2522 H2534 0.960 . S
C2522 H2535 0.962 . S
C2522 H2536 0.960 . S
C2523 C2520 1.511 . S
C2523 H2537 0.961 . S
C2523 H2538 0.961 . S
C2523 H2539 0.961 . S
C2524 C2525 1.370 . S
C2524 C2526 1.363 . S
C2524 H2540 0.931 . S
C2525 C2524 1.370 . S
C2525 C2529 1.408 . S
C2526 C2524 1.363 . S
C2526 C2527 1.370 . S
C2526 C2530 1.524 . S
C2527 C2519 1.503 . S
C2527 C2526 1.370 . S
C2527 C2528 1.403 . S
C2528 C2527 1.403 . S
C2528 C2529 1.404 . S
C2528 C2531 1.539 . S
C2529 C2525 1.408 . S
C2529 C2528 1.404 . S
C2529 H2541 0.930 . S
C2530 C2526 1.524 . S
C2530 H2542 0.956 . S
C2530 H2543 0.961 . S
C2530 H2544 0.961 . S
C2531 C2528 1.539 . S
C2531 H2545 0.958 . S
C2531 H2546 0.961 . S
C2531 H2547 0.960 . S
H2532 C2516 0.931 . S
H2533 C2521 0.929 . S
H2534 C2522 0.960 . S
H2535 C2522 0.962 . S
H2536 C2522 0.960 . S
H2537 C2523 0.961 . S
H2538 C2523 0.961 . S
H2539 C2523 0.961 . S
H2540 C2524 0.931 . S
H2541 C2529 0.930 . S
H2542 C2530 0.956 . S
H2543 C2530 0.961 . S
H2544 C2530 0.961 . S
H2545 C2531 0.958 . S
H2546 C2531 0.961 . S
H2547 C2531 0.960 . S
C2548 C2549 1.391 . S
C2548 C2550 1.394 . S
C2548 H2564 0.931 . S
C2549 C2548 1.391 . S
C2549 C2553 1.376 . S
C2550 C2548 1.394 . S
C2550 C2551 1.369 . S
C2550 C2554 1.531 . S
C2551 C2550 1.369 . S
C2551 C2552 1.410 . S
C2551 C2559 1.503 . S
C2552 C2551 1.410 . S
C2552 C2553 1.392 . S
C2552 C2555 1.511 . S
C2553 C2549 1.376 . S
C2553 C2552 1.392 . S
C2553 H2565 0.929 . S
C2554 C2550 1.531 . S
C2554 H2566 0.960 . S
C2554 H2567 0.962 . S
C2554 H2568 0.960 . S
C2555 C2552 1.511 . S
C2555 H2569 0.961 . S
C2555 H2570 0.961 . S
C2555 H2571 0.961 . S
C2556 C2557 1.370 . S
C2556 C2558 1.363 . S
C2556 H2572 0.931 . S
C2557 C2556 1.370 . S
C2557 C2561 1.408 . S
C2558 C2556 1.363 . S
C2558 C2559 1.370 . S
C2558 C2562 1.524 . S
C2559 C2551 1.503 . S
C2559 C2558 1.370 . S
C2559 C2560 1.403 . S
C2560 C2559 1.403 . S
C2560 C2561 1.404 . S
C2560 C2563 1.539 . S
C2561 C2557 1.408 . S
C2561 C2560 1.404 . S
C2561 H2573 0.930 . S
C2562 C2558 1.524 . S
C2562 H2574 0.956 . S
C2562 H2575 0.961 . S
C2562 H2576 0.961 . S
C2563 C2560 1.539 . S
C2563 H2577 0.958 . S
C2563 H2578 0.961 . S
C2563 H2579 0.960 . S
H2564 C2548 0.931 . S
H2565 C2553 0.929 . S
H2566 C2554 0.960 . S
H2567 C2554 0.962 . S
H2568 C2554 0.960 . S
H2569 C2555 0.961 . S
H2570 C2555 0.961 . S
H2571 C2555 0.961 . S
H2572 C2556 0.931 . S
H2573 C2561 0.930 . S
H2574 C2562 0.956 . S
H2575 C2562 0.961 . S
H2576 C2562 0.961 . S
H2577 C2563 0.958 . S
H2578 C2563 0.961 . S
H2579 C2563 0.960 . S
C2580 C2581 1.391 . S
C2580 C2582 1.394 . S
C2580 H2596 0.931 . S
C2581 C2580 1.391 . S
C2581 C2585 1.376 . S
C2582 C2580 1.394 . S
C2582 C2583 1.369 . S
C2582 C2586 1.520 1_556 S
C2583 C2582 1.369 . S
C2583 C2584 1.410 . S
C2583 C2591 1.503 1_456 S
C2584 C2583 1.410 . S
C2584 C2585 1.392 . S
C2584 C2587 1.511 1_455 S
C2585 C2581 1.376 . S
C2585 C2584 1.392 . S
C2585 H2597 0.929 . S
C2586 C2582 1.520 1_554 S
C2586 H2598 0.975 . S
C2586 H2599 0.962 1_554 S
C2586 H2600 0.957 1_554 S
C2587 C2584 1.511 1_655 S
C2587 H2601 0.961 . S
C2587 H2602 0.961 . S
C2587 H2603 0.961 . S
C2588 C2589 1.370 . S
C2588 C2590 1.363 . S
C2588 H2604 0.931 . S
C2589 C2588 1.370 . S
C2589 C2593 1.408 . S
C2590 C2588 1.363 . S
C2590 C2591 1.370 . S
C2590 C2594 1.524 1_554 S
C2591 C2583 1.503 1_654 S
C2591 C2590 1.370 . S
C2591 C2592 1.403 1_655 S
C2592 C2591 1.403 1_455 S
C2592 C2593 1.404 1_455 S
C2592 C2595 1.539 . S
C2593 C2589 1.408 . S
C2593 C2592 1.404 1_655 S
C2593 H2605 0.930 1_655 S
C2594 C2590 1.524 1_556 S
C2594 H2606 0.956 . S
C2594 H2607 0.961 . S
C2594 H2608 0.961 1_556 S
C2595 C2592 1.539 . S
C2595 H2609 0.958 . S
C2595 H2610 0.961 . S
C2595 H2611 0.960 . S
H2596 C2580 0.931 . S
H2597 C2585 0.929 . S
H2598 C2586 0.975 . S
H2599 C2586 0.962 1_556 S
H2600 C2586 0.957 1_556 S
H2601 C2587 0.961 . S
H2602 C2587 0.961 . S
H2603 C2587 0.961 . S
H2604 C2588 0.931 . S
H2605 C2593 0.930 1_455 S
H2606 C2594 0.956 . S
H2607 C2594 0.961 . S
H2608 C2594 0.961 1_554 S
H2609 C2595 0.958 . S
H2610 C2595 0.961 . S
H2611 C2595 0.960 . S
C2612 C2613 1.391 . S
C2612 C2614 1.394 . S
C2612 H2628 0.931 . S
C2613 C2612 1.391 . S
C2613 C2617 1.376 . S
C2614 C2612 1.394 . S
C2614 C2615 1.369 . S
C2614 C2618 1.531 . S
C2615 C2614 1.369 . S
C2615 C2616 1.410 . S
C2615 C2623 1.503 1_554 S
C2616 C2615 1.410 . S
C2616 C2617 1.392 . S
C2616 C2619 1.511 1_554 S
C2617 C2613 1.376 . S
C2617 C2616 1.392 . S
C2617 H2629 0.929 . S
C2618 C2614 1.531 . S
C2618 H2630 0.960 . S
C2618 H2631 0.962 . S
C2618 H2632 0.960 . S
C2619 C2616 1.511 1_556 S
C2619 H2633 0.957 1_556 S
C2619 H2634 0.961 . S
C2619 H2635 0.961 . S
C2620 C2621 1.370 . S
C2620 C2622 1.363 . S
C2620 H2636 0.931 . S
C2621 C2620 1.370 . S
C2621 C2625 1.408 . S
C2622 C2620 1.363 . S
C2622 C2623 1.370 . S
C2622 C2626 1.524 . S
C2623 C2615 1.503 1_556 S
C2623 C2622 1.370 . S
C2623 C2624 1.403 . S
C2624 C2623 1.403 . S
C2624 C2625 1.404 . S
C2624 C2627 1.539 . S
C2625 C2621 1.408 . S
C2625 C2624 1.404 . S
C2625 H2637 0.930 . S
C2626 C2622 1.524 . S
C2626 H2638 0.956 . S
C2626 H2639 0.961 . S
C2626 H2640 0.961 . S
C2627 C2624 1.539 . S
C2627 H2641 0.958 1_556 S
C2627 H2642 0.961 . S
C2627 H2643 0.960 1_556 S
H2628 C2612 0.931 . S
H2629 C2617 0.929 . S
H2630 C2618 0.960 . S
H2631 C2618 0.962 . S
H2632 C2618 0.960 . S
H2633 C2619 0.957 1_554 S
H2634 C2619 0.961 . S
H2635 C2619 0.961 . S
H2636 C2620 0.931 . S
H2637 C2625 0.930 . S
H2638 C2626 0.956 . S
H2639 C2626 0.961 . S
H2640 C2626 0.961 . S
H2641 C2627 0.958 1_554 S
H2642 C2627 0.961 . S
H2643 C2627 0.960 1_554 S
C2644 C2645 1.391 . S
C2644 C2646 1.394 . S
C2644 H2660 0.931 . S
C2645 C2644 1.391 . S
C2645 C2649 1.376 . S
C2646 C2644 1.394 . S
C2646 C2647 1.369 . S
C2646 C2650 1.531 . S
C2647 C2646 1.369 . S
C2647 C2648 1.410 . S
C2647 C2655 1.476 1_544 S
C2648 C2647 1.410 . S
C2648 C2649 1.392 . S
C2648 C2651 1.511 . S
C2649 C2645 1.376 . S
C2649 C2648 1.392 . S
C2649 H2661 0.929 . S
C2650 C2646 1.531 . S
C2650 H2662 0.960 1_554 S
C2650 H2663 0.923 1_545 S
C2650 H2664 0.960 . S
C2651 C2648 1.511 . S
C2651 H2665 0.961 . S
C2651 H2666 0.951 1_544 S
C2651 H2667 0.961 . S
C2652 C2653 1.370 . S
C2652 C2654 1.363 . S
C2652 H2668 0.931 . S
C2653 C2652 1.370 . S
C2653 C2657 1.408 1_565 S
C2654 C2652 1.363 . S
C2654 C2655 1.433 . S
C2654 C2658 1.524 1_556 S
C2655 C2647 1.476 1_566 S
C2655 C2654 1.433 . S
C2655 C2656 1.370 1_565 S
C2656 C2655 1.370 1_545 S
C2656 C2657 1.404 . S
C2656 C2659 1.539 . S
C2657 C2653 1.408 1_545 S
C2657 C2656 1.404 . S
C2657 H2669 0.930 . S
C2658 C2654 1.524 1_554 S
C2658 H2670 0.956 . S
C2658 H2671 0.961 . S
C2658 H2672 0.961 . S
C2659 C2656 1.539 . S
C2659 H2673 0.958 . S
C2659 H2674 0.961 . S
C2659 H2675 0.960 . S
H2660 C2644 0.931 . S
H2661 C2649 0.929 . S
H2662 C2650 0.960 1_556 S
H2663 C2650 0.923 1_565 S
H2664 C2650 0.960 . S
H2665 C2651 0.961 . S
H2666 C2651 0.951 1_566 S
H2667 C2651 0.961 . S
H2668 C2652 0.931 . S
H2669 C2657 0.930 . S
H2670 C2658 0.956 . S
H2671 C2658 0.961 . S
H2672 C2658 0.961 . S
H2673 C2659 0.958 . S
H2674 C2659 0.961 . S
H2675 C2659 0.960 . S
C2676 C2677 1.391 . S
C2676 C2678 1.394 . S
C2676 H2692 0.931 . S
C2677 C2676 1.391 . S
C2677 C2681 1.376 . S
C2678 C2676 1.394 . S
C2678 C2679 1.371 1_565 S
C2678 C2682 1.531 1_565 S
C2679 C2678 1.371 1_545 S
C2679 C2680 1.409 1_545 S
C2679 C2687 1.502 1_556 S
C2680 C2679 1.409 1_565 S
C2680 C2681 1.392 . S
C2680 C2683 1.511 . S
C2681 C2677 1.376 . S
C2681 C2680 1.392 . S
C2681 H2693 0.929 . S
C2682 C2678 1.531 1_545 S
C2682 H2694 0.960 . S
C2682 H2695 0.962 1_545 S
C2682 H2696 0.960 . S
C2683 C2680 1.511 . S
C2683 H2697 0.961 . S
C2683 H2698 0.961 1_556 S
C2683 H2699 0.961 1_565 S
C2684 C2685 1.412 . S
C2684 C2686 1.351 1_545 S
C2684 H2700 0.902 1_545 S
C2685 C2684 1.412 . S
C2685 C2689 1.408 . S
C2686 C2684 1.351 1_565 S
C2686 C2687 1.370 1_565 S
C2686 C2690 1.524 . S
C2687 C2679 1.502 1_554 S
C2687 C2686 1.370 1_545 S
C2687 C2688 1.403 . S
C2688 C2687 1.403 . S
C2688 C2689 1.404 . S
C2688 C2691 1.539 1_554 S
C2689 C2685 1.408 . S
C2689 C2688 1.404 . S
C2689 H2701 0.930 . S
C2690 C2686 1.524 . S
C2690 H2702 0.956 . S
C2690 H2703 0.961 . S
C2690 H2704 0.961 . S
C2691 C2688 1.539 1_556 S
C2691 H2705 0.958 . S
C2691 H2706 0.961 1_556 S
C2691 H2707 0.960 . S
H2692 C2676 0.931 . S
H2693 C2681 0.929 . S
H2694 C2682 0.960 . S
H2695 C2682 0.962 1_565 S
H2696 C2682 0.960 . S
H2697 C2683 0.961 . S
H2698 C2683 0.961 1_554 S
H2699 C2683 0.961 1_545 S
H2700 C2684 0.902 1_565 S
H2701 C2689 0.930 . S
H2702 C2690 0.956 . S
H2703 C2690 0.961 . S
H2704 C2690 0.961 . S
H2705 C2691 0.958 . S
H2706 C2691 0.961 1_554 S
H2707 C2691 0.960 . S
C2708 C2709 1.391 . S
C2708 C2710 1.379 1_455 S
C2708 H2724 0.931 . S
C2709 C2708 1.391 . S
C2709 C2713 1.376 . S
C2710 C2708 1.379 1_655 S
C2710 C2711 1.353 1_655 S
C2710 C2714 1.565 . S
C2711 C2710 1.353 1_455 S
C2711 C2712 1.405 . S
C2711 C2719 1.505 1_456 S
C2712 C2711 1.405 . S
C2712 C2713 1.392 . S
C2712 C2715 1.511 . S
C2713 C2709 1.376 . S
C2713 C2712 1.392 . S
C2713 H2725 0.929 . S
C2714 C2710 1.565 . S
C2714 H2726 0.960 . S
C2714 H2727 0.962 . S
C2714 H2728 0.960 . S
C2715 C2712 1.511 . S
C2715 H2729 0.961 . S
C2715 H2730 0.961 1_556 S
C2715 H2731 0.961 1_455 S
C2716 C2717 1.370 . S
C2716 C2718 1.363 1_655 S
C2716 H2732 0.931 1_655 S
C2717 C2716 1.370 . S
C2717 C2721 1.408 . S
C2718 C2716 1.363 1_455 S
C2718 C2719 1.370 1_455 S
C2718 C2722 1.524 . S
C2719 C2711 1.505 1_654 S
C2719 C2718 1.370 1_655 S
C2719 C2720 1.403 . S
C2720 C2719 1.403 . S
C2720 C2721 1.404 . S
C2720 C2723 1.539 1_554 S
C2721 C2717 1.408 . S
C2721 C2720 1.404 . S
C2721 H2733 0.930 . S
C2722 C2718 1.524 . S
C2722 H2734 0.956 . S
C2722 H2735 0.961 . S
C2722 H2736 0.961 . S
C2723 C2720 1.539 1_556 S
C2723 H2737 0.958 . S
C2723 H2738 0.961 1_556 S
C2723 H2739 0.960 . S
H2724 C2708 0.931 . S
H2725 C2713 0.929 . S
H2726 C2714 0.960 . S
H2727 C2714 0.962 . S
H2728 C2714 0.960 . S
H2729 C2715 0.961 . S
H2730 C2715 0.961 1_554 S
H2731 C2715 0.961 1_655 S
H2732 C2716 0.931 1_455 S
H2733 C2721 0.930 . S
H2734 C2722 0.956 . S
H2735 C2722 0.961 . S
H2736 C2722 0.961 . S
H2737 C2723 0.958 . S
H2738 C2723 0.961 1_554 S
H2739 C2723 0.960 . S
C2740 C2741 1.391 . S
C2740 C2742 1.394 . S
C2740 H2756 0.931 . S
C2741 C2740 1.391 . S
C2741 C2745 1.376 . S
C2742 C2740 1.394 . S
C2742 C2743 1.369 . S
C2742 C2746 1.531 . S
C2743 C2742 1.369 . S
C2743 C2744 1.410 . S
C2743 C2751 1.503 1_554 S
C2744 C2743 1.410 . S
C2744 C2745 1.392 . S
C2744 C2747 1.511 . S
C2745 C2741 1.376 . S
C2745 C2744 1.392 . S
C2745 H2757 0.929 . S
C2746 C2742 1.531 . S
C2746 H2758 0.960 1_554 S
C2746 H2759 0.962 . S
C2746 H2760 0.960 . S
C2747 C2744 1.511 . S
C2747 H2761 0.961 . S
C2747 H2762 0.952 1_554 S
C2747 H2763 0.961 . S
C2748 C2749 1.370 . S
C2748 C2750 1.363 . S
C2748 H2764 0.931 . S
C2749 C2748 1.370 . S
C2749 C2753 1.408 . S
C2750 C2748 1.363 . S
C2750 C2751 1.370 . S
C2750 C2754 1.524 1_556 S
C2751 C2743 1.503 1_556 S
C2751 C2750 1.370 . S
C2751 C2752 1.403 . S
C2752 C2751 1.403 . S
C2752 C2753 1.404 . S
C2752 C2755 1.539 . S
C2753 C2749 1.408 . S
C2753 C2752 1.404 . S
C2753 H2765 0.930 . S
C2754 C2750 1.524 1_554 S
C2754 H2766 0.956 . S
C2754 H2767 0.961 . S
C2754 H2768 0.961 . S
C2755 C2752 1.539 . S
C2755 H2769 0.958 . S
C2755 H2770 0.961 . S
C2755 H2771 0.960 . S
H2756 C2740 0.931 . S
H2757 C2745 0.929 . S
H2758 C2746 0.960 1_556 S
H2759 C2746 0.962 . S
H2760 C2746 0.960 . S
H2761 C2747 0.961 . S
H2762 C2747 0.952 1_556 S
H2763 C2747 0.961 . S
H2764 C2748 0.931 . S
H2765 C2753 0.930 . S
H2766 C2754 0.956 . S
H2767 C2754 0.961 . S
H2768 C2754 0.961 . S
H2769 C2755 0.958 . S
H2770 C2755 0.961 . S
H2771 C2755 0.960 . S
C469 C10 1.439 . S
C477 C147 1.447 . S
C501 C23 1.434 . S
C509 C121 1.443 . S
C533 C140 1.433 . S
C541 C30 1.444 . S
C565 C43 1.454 . S
C573 C101 1.453 . S
C597 C108 1.446 . S
C605 C56 1.448 . S
C629 C75 1.435 . S
C637 C82 1.445 . S
C661 C303 1.454 . S
C669 C160 1.451 . S
C693 C179 1.450 . S
C701 C283 1.451 . S
C725 C192 1.456 . S
C733 C296 1.453 . S
C757 C251 1.441 . S
C765 C199 1.446 . S
C789 C218 1.440 . S
C797 C264 1.446 . S
C821 C244 1.433 . S
C829 C231 1.443 . S
C853 C316 1.440 . S
C861 C459 1.447 . S
C885 C439 1.456 . S
C893 C335 1.453 . S
C917 C446 1.441 . S
C925 C342 1.446 . S
C949 C413 1.452 . S
C957 C355 1.451 . S
C981 C426 1.452 . S
C989 C368 1.451 . S
C1013 C400 1.441 . S
C1021 C381 1.447 . S
C1045 C3 1.371 . S
C1053 C57 1.374 . S
C1077 C68 1.368 . S
C1085 C16 1.386 . S
C1109 C31 1.365 . S
C1117 C44 1.386 . S
C1141 C83 1.388 . S
C1149 C133 1.382 . S
C1173 C94 1.371 . S
C1181 C148 1.373 . S
C1205 C109 1.368 . S
C1213 C122 1.385 . S
C1237 C211 1.373 . S
C1245 C161 1.374 . S
C1269 C224 1.359 . S
C1277 C172 1.384 . S
C1301 C185 1.368 . S
C1309 C200 1.386 . S
C1333 C289 1.391 . S
C1341 C237 1.376 . S
C1365 C304 1.378 . S
C1373 C252 1.372 . S
C1397 C265 1.377 . S
C1405 C276 1.385 . S
C1429 C369 1.375 . S
C1437 C317 1.374 . S
C1461 C328 1.389 . S
C1469 C382 1.372 . S
C1493 C343 1.369 . S
C1501 C356 1.385 . S
C1525 C447 1.391 . S
C1533 C393 1.375 . S
C1557 C406 1.386 . S
C1565 C460 1.372 . S
C1589 C432 1.391 . S
C1597 C419 1.379 . S
C1621 C380 1.304 . S
C1629 C5 1.310 . S
C1653 C18 1.292 . S
C1661 C354 1.306 . S
C1685 C29 1.293 . S
C1693 C367 1.304 . S
C1717 C42 1.312 . S
C1725 C174 1.308 . S
C1749 C187 1.307 . S
C1757 C55 1.310 . S
C1781 C159 1.305 . S
C1789 C70 1.301 . S
C1813 C81 1.299 . S
C1821 C302 1.310 . S
C1845 C96 1.296 . S
C1853 C278 1.309 . S
C1877 C107 1.307 . S
C1885 C291 1.303 . S
C1909 C408 1.312 . S
C1917 C120 1.305 . S
C1941 C421 1.302 . S
C1949 C135 1.310 . S
C1973 C146 1.313 . S
C1981 C395 1.306 . S
C2005 C330 1.292 . S
C2013 C198 1.305 . S
C2037 C213 1.311 . S
C2045 C341 1.303 . S
C2069 C315 1.302 . S
C2077 C226 1.301 . S
C2101 C458 1.313 . S
C2109 C239 1.306 . S
C2133 C250 1.312 . S
C2141 C434 1.309 . S
C2165 C263 1.297 . S
C2173 C445 1.309 . S
C2197 C4 1.522 . S
C2205 C387 1.528 . S
C2229 C361 1.530 . S
C2237 C17 1.534 . S
C2261 C36 1.532 . S
C2269 C374 1.530 . S
C2293 C173 1.528 . S
C2301 C49 1.534 . S
C2325 C62 1.520 . S
C2333 C186 1.528 . S
C2357 C69 1.532 . S
C2365 C166 1.534 . S
C2389 C309 1.533 . S
C2397 C88 1.532 . S
C2421 C95 1.524 . S
C2429 C277 1.532 . S
C2453 C114 1.519 . S
C2461 C290 1.529 . S
C2485 C127 1.534 . S
C2493 C407 1.534 . S
C2517 C420 1.534 . S
C2525 C134 1.533 . S
C2549 C153 1.520 . S
C2557 C394 1.529 . S
C2581 C329 1.525 . S
C2589 C205 1.528 . S
C2613 C212 1.532 . S
C2621 C348 1.534 . S
C2645 C225 1.529 . S
C2653 C322 1.529 . S
C2677 C465 1.523 . S
C2685 C238 1.531 . S
C2709 C433 1.522 . S
C2717 C257 1.530 . S
C2741 C270 1.531 . S
C2749 C452 1.530 . S
