# Generated by pormake.
# Topology vmn, (7)-cn, num edge types: 1
# Building blocks:
#     Node 0, Type 0, BuildingBlock: HICVOG_clean_sbu_0, # of connection points: 7
#     Node 1, Type 0, BuildingBlock: HICVOG_clean_sbu_0, # of connection points: 7
#     Node 2, Type 0, BuildingBlock: HICVOG_clean_sbu_0, # of connection points: 7
#     Node 3, Type 0, BuildingBlock: HICVOG_clean_sbu_0, # of connection points: 7
#     Node 4, Type 0, BuildingBlock: HICVOG_clean_sbu_0, # of connection points: 7
#     Node 5, Type 0, BuildingBlock: HICVOG_clean_sbu_0, # of connection points: 7
#     Node 6, Type 0, BuildingBlock: HICVOG_clean_sbu_0, # of connection points: 7
#     Node 7, Type 0, BuildingBlock: HICVOG_clean_sbu_0, # of connection points: 7
#     Edge 8, Type (0, 0), BuildingBlock: XUDNAN_clean_linker_2, # of connection points: 2
#     Edge 9, Type (0, 0), BuildingBlock: XUDNAN_clean_linker_2, # of connection points: 2
#     Edge 10, Type (0, 0), BuildingBlock: XUDNAN_clean_linker_2, # of connection points: 2
#     Edge 11, Type (0, 0), BuildingBlock: XUDNAN_clean_linker_2, # of connection points: 2
#     Edge 12, Type (0, 0), BuildingBlock: XUDNAN_clean_linker_2, # of connection points: 2
#     Edge 13, Type (0, 0), BuildingBlock: XUDNAN_clean_linker_2, # of connection points: 2
#     Edge 14, Type (0, 0), BuildingBlock: XUDNAN_clean_linker_2, # of connection points: 2
#     Edge 15, Type (0, 0), BuildingBlock: XUDNAN_clean_linker_2, # of connection points: 2
#     Edge 16, Type (0, 0), BuildingBlock: XUDNAN_clean_linker_2, # of connection points: 2
#     Edge 17, Type (0, 0), BuildingBlock: XUDNAN_clean_linker_2, # of connection points: 2
#     Edge 18, Type (0, 0), BuildingBlock: XUDNAN_clean_linker_2, # of connection points: 2
#     Edge 19, Type (0, 0), BuildingBlock: XUDNAN_clean_linker_2, # of connection points: 2
#     Edge 20, Type (0, 0), BuildingBlock: XUDNAN_clean_linker_2, # of connection points: 2
#     Edge 21, Type (0, 0), BuildingBlock: XUDNAN_clean_linker_2, # of connection points: 2
#     Edge 22, Type (0, 0), BuildingBlock: XUDNAN_clean_linker_2, # of connection points: 2
#     Edge 23, Type (0, 0), BuildingBlock: XUDNAN_clean_linker_2, # of connection points: 2
#     Edge 24, Type (0, 0), BuildingBlock: XUDNAN_clean_linker_2, # of connection points: 2
#     Edge 25, Type (0, 0), BuildingBlock: XUDNAN_clean_linker_2, # of connection points: 2
#     Edge 26, Type (0, 0), BuildingBlock: XUDNAN_clean_linker_2, # of connection points: 2
#     Edge 27, Type (0, 0), BuildingBlock: XUDNAN_clean_linker_2, # of connection points: 2
#     Edge 28, Type (0, 0), BuildingBlock: XUDNAN_clean_linker_2, # of connection points: 2
#     Edge 29, Type (0, 0), BuildingBlock: XUDNAN_clean_linker_2, # of connection points: 2
#     Edge 30, Type (0, 0), BuildingBlock: XUDNAN_clean_linker_2, # of connection points: 2
#     Edge 31, Type (0, 0), BuildingBlock: XUDNAN_clean_linker_2, # of connection points: 2
#     Edge 32, Type (0, 0), BuildingBlock: XUDNAN_clean_linker_2, # of connection points: 2
#     Edge 33, Type (0, 0), BuildingBlock: XUDNAN_clean_linker_2, # of connection points: 2
#     Edge 34, Type (0, 0), BuildingBlock: XUDNAN_clean_linker_2, # of connection points: 2
#     Edge 35, Type (0, 0), BuildingBlock: XUDNAN_clean_linker_2, # of connection points: 2
# Relax obj value: 0.162
# Max RMSD: 0.218
# Mean RMSD: 0.218
data_MOF--net-vmn--node1-HICVOG_clean_sbu_0--edge1-XUDNAN_clean_linker_2
_symmetry_space_group_name_H-M    P1
_symmetry_Int_Tables_number       1
_symmetry_cell_setting            triclinic
loop_
_symmetry_equiv_pos_as_xyz
'x, y, z'
_cell_length_a     38.936799
_cell_length_b     31.54269
_cell_length_c     28.539982
_cell_angle_alpha  90.330089
_cell_angle_beta   98.092052
_cell_angle_gamma 89.797384
loop_
_atom_site_label
_atom_site_type_symbol
_atom_site_fract_x
_atom_site_fract_y
_atom_site_fract_z
_atom_type_partial_charge
Zn0 Zn 0.97146 0.35301 0.18053 0.0
C1 C 1.00866 0.33534 0.3165 0.0
N2 N 0.99888 0.37604 0.32111 0.0
C3 C 0.99051 0.38837 0.27597 0.0
N4 N 0.9943 0.35637 0.24541 0.0
N5 N 1.00706 0.32334 0.27057 0.0
C6 C 0.02523 0.20063 0.26944 0.0
O7 O 0.99541 0.21031 0.24414 0.0
O8 O 0.97051 0.40968 0.15068 0.0
Zn9 Zn 0.0427 0.28742 0.24715 0.0
N10 N 0.92358 0.33546 0.17789 0.0
C11 C 0.8764 0.30932 0.21371 0.0
C12 C 0.91121 0.3209 0.21694 0.0
C13 C 0.90264 0.33881 0.13566 0.0
N14 N 0.85549 0.31249 0.17152 0.0
C15 C 0.86752 0.32674 0.13189 0.0
O16 O 0.03729 0.27729 0.17529 0.0
C17 C 0.01884 0.28881 0.13695 0.0
O18 O 0.9942 0.31521 0.1372 0.0
H19 H 0.92816 0.31852 0.25026 0.0
H20 H 0.91342 0.35144 0.10577 0.0
C21 C 0.11687 0.29755 0.25366 0.0
C22 C 0.1485 0.32009 0.26092 0.0
C23 C 0.11817 0.38049 0.28406 0.0
C24 C 0.08708 0.3583 0.27604 0.0
N25 N 0.08691 0.3172 0.26133 0.0
N26 N 0.14794 0.36101 0.27627 0.0
H27 H 0.11572 0.26482 0.24216 0.0
C28 C 0.99563 0.41886 0.12876 0.0
O29 O 0.02165 0.39217 0.12932 0.0
O30 O 0.04826 0.22924 0.27779 0.0
H31 H 0.06333 0.37413 0.28105 0.0
H32 H 0.86606 0.29782 0.24451 0.0
H33 H 0.11862 0.41315 0.29591 0.0
Zn34 Zn 0.56929 0.36547 0.85105 0.0
C35 C 0.51321 0.34635 0.72416 0.0
N36 N 0.5201 0.38759 0.71755 0.0
C37 C 0.53647 0.39967 0.75998 0.0
N38 N 0.53972 0.36725 0.79095 0.0
N39 N 0.52357 0.33401 0.76943 0.0
C40 C 0.50408 0.20829 0.7925 0.0
O41 O 0.532 0.21794 0.82205 0.0
O42 O 0.57821 0.42398 0.87669 0.0
Zn43 Zn 0.49154 0.2994 0.80219 0.0
N44 N 0.61288 0.3374 0.84434 0.0
C45 C 0.64426 0.292 0.79869 0.0
C46 C 0.61353 0.31209 0.80578 0.0
C47 C 0.64185 0.34305 0.8767 0.0
N48 N 0.67317 0.2979 0.83052 0.0
C49 C 0.67309 0.32277 0.86969 0.0
O50 O 0.50205 0.29641 0.87522 0.0
C51 C 0.52288 0.31289 0.90889 0.0
O52 O 0.54712 0.33738 0.90088 0.0
H53 H 0.5904 0.30767 0.78054 0.0
H54 H 0.64061 0.36371 0.90681 0.0
C55 C 0.41597 0.31546 0.77747 0.0
C56 C 0.38728 0.34341 0.77087 0.0
C57 C 0.42489 0.4012 0.79395 0.0
C58 C 0.45294 0.37358 0.80096 0.0
N59 N 0.44827 0.33147 0.79193 0.0
N60 N 0.39288 0.38555 0.77909 0.0
H61 H 0.4128 0.2818 0.77077 0.0
C62 C 0.55122 0.44258 0.88681 0.0
O63 O 0.52124 0.42312 0.87782 0.0
O64 O 0.48343 0.23813 0.77692 0.0
H65 H 0.47841 0.38568 0.81344 0.0
H66 H 0.6452 0.27193 0.76803 0.0
H67 H 0.42847 0.43483 0.80052 0.0
Zn68 Zn 0.98984 0.75275 0.7974 0.0
C69 C 0.03771 0.64929 0.76336 0.0
N70 N 0.02562 0.6597 0.71845 0.0
C71 C 1.01548 0.70033 0.7226 0.0
N72 N 0.02058 0.71391 0.76821 0.0
N73 N 0.03588 0.68225 0.79327 0.0
C74 C 0.02394 0.64892 0.91203 0.0
O75 O 1.00019 0.67405 0.88983 0.0
O76 O 0.9876 0.81208 0.76984 0.0
Zn77 Zn 0.06542 0.69025 0.85329 0.0
N78 N 0.94356 0.72727 0.78734 0.0
C79 C 0.90935 0.66497 0.77173 0.0
C80 C 0.9415 0.68493 0.77806 0.0
C81 C 0.91444 0.7503 0.79154 0.0
N82 N 0.88042 0.68783 0.77613 0.0
C83 C 0.88182 0.73005 0.78634 0.0
O84 O 0.05921 0.7472 0.88344 0.0
C85 C 0.03102 0.75844 0.89771 0.0
O86 O 1.00263 0.75867 0.86936 0.0
H87 H 0.96463 0.66652 0.77596 0.0
H88 H 0.91676 0.78387 0.79871 0.0
C89 C 0.14042 0.67743 0.87941 0.0
C90 C 0.17477 0.6736 0.86911 0.0
C91 C 0.15404 0.68485 0.78773 0.0
C92 C 0.12036 0.68899 0.79811 0.0
N93 N 0.11396 0.68466 0.84345 0.0
N94 N 0.18025 0.67724 0.82322 0.0
H95 H 0.13466 0.67423 0.91522 0.0
C96 C 0.97669 0.8424 0.79349 0.0
O97 O 0.96713 0.83427 0.83485 0.0
O98 O 0.05418 0.64816 0.9002 0.0
H99 H 0.09947 0.69575 0.77006 0.0
H100 H 0.90742 0.63137 0.76402 0.0
H101 H 0.15939 0.68789 0.75172 0.0
Zn102 Zn 0.54675 0.75002 0.25275 0.0
C103 C 0.48896 0.65146 0.27482 0.0
N104 N 0.49597 0.66241 0.32079 0.0
C105 C 0.50902 0.70181 0.31907 0.0
N106 N 0.51072 0.71409 0.27396 0.0
N107 N 0.49676 0.68305 0.24628 0.0
C108 C 0.52378 0.64848 0.12949 0.0
O109 O 0.54657 0.66992 0.15854 0.0
O110 O 0.54953 0.81048 0.27845 0.0
Zn111 Zn 0.47598 0.69126 0.1804 0.0
N112 N 0.59139 0.72212 0.27126 0.0
C113 C 0.62436 0.6633 0.30493 0.0
C114 C 0.5927 0.68404 0.29358 0.0
C115 C 0.62068 0.73991 0.25901 0.0
N116 N 0.65349 0.68094 0.29263 0.0
C117 C 0.65279 0.71865 0.26953 0.0
O118 O 0.4878 0.7466 0.15133 0.0
C119 C 0.51853 0.75731 0.14632 0.0
O120 O 0.54288 0.75611 0.18114 0.0
H121 H 0.56943 0.66938 0.3021 0.0
H122 H 0.61865 0.77024 0.24139 0.0
C123 C 0.40469 0.68151 0.13452 0.0
C124 C 0.36821 0.68146 0.13306 0.0
C125 C 0.37579 0.696 0.21573 0.0
C126 C 0.41164 0.69615 0.21683 0.0
N127 N 0.4255 0.68873 0.17642 0.0
N128 N 0.35507 0.68881 0.17414 0.0
H129 H 0.4166 0.67697 0.10284 0.0
C130 C 0.52881 0.83843 0.25859 0.0
O131 O 0.50376 0.8264 0.22552 0.0
O132 O 0.49203 0.64924 0.13546 0.0
H133 H 0.4283 0.70267 0.24963 0.0
H134 H 0.62574 0.6331 0.32288 0.0
H135 H 0.36445 0.70189 0.24765 0.0
Zn136 Zn 0.46718 0.86821 0.69398 0.0
C137 C 0.5138 0.84312 0.82517 0.0
N138 N 0.50443 0.88323 0.83381 0.0
C139 C 0.49 0.89669 0.79097 0.0
N140 N 0.49036 0.86587 0.75796 0.0
N141 N 0.50686 0.83251 0.77877 0.0
C142 C 0.52582 0.70966 0.77104 0.0
O143 O 0.49448 0.71983 0.75079 0.0
O144 O 0.46622 0.92595 0.66678 0.0
Zn145 Zn 0.54075 0.79792 0.7486 0.0
N146 N 0.41952 0.84935 0.68948 0.0
C147 C 0.3725 0.81945 0.72263 0.0
C148 C 0.40704 0.83238 0.72729 0.0
C149 C 0.39891 0.85397 0.64715 0.0
N150 N 0.35197 0.82369 0.68027 0.0
C151 C 0.36408 0.84042 0.64184 0.0
O152 O 0.53239 0.79059 0.67561 0.0
C153 C 0.51308 0.80801 0.64119 0.0
O154 O 0.49038 0.83527 0.64818 0.0
H155 H 0.42373 0.82908 0.76072 0.0
H156 H 0.4098 0.86859 0.61843 0.0
C157 C 0.61615 0.81353 0.77256 0.0
C158 C 0.64495 0.84095 0.78194 0.0
C159 C 0.60723 0.90018 0.76732 0.0
C160 C 0.57906 0.87311 0.75766 0.0
N161 N 0.58374 0.83044 0.76109 0.0
N162 N 0.63934 0.88355 0.77925 0.0
H163 H 0.61933 0.77948 0.77498 0.0
C164 C 0.49393 0.93957 0.6537 0.0
O165 O 0.52306 0.91904 0.6669 0.0
O166 O 0.54906 0.73831 0.77651 0.0
H167 H 0.55353 0.8862 0.74763 0.0
H168 H 0.36208 0.80599 0.75242 0.0
H169 H 0.60366 0.93418 0.76519 0.0
Zn170 Zn 0.99483 0.78839 0.29725 0.0
C171 C 0.03705 0.89215 0.25779 0.0
N172 N 0.02235 0.87944 0.21468 0.0
C173 C 0.01626 0.83799 0.22128 0.0
N174 N 0.02562 0.82621 0.26694 0.0
N175 N 0.03997 0.86015 0.28911 0.0
C176 C 0.04244 0.93619 0.386 0.0
O177 O 1.01373 0.91412 0.37629 0.0
O178 O 0.9949 0.72767 0.27126 0.0
Zn179 Zn 0.06723 0.86108 0.35076 0.0
N180 N 0.9493 0.81508 0.28243 0.0
C181 C 0.92067 0.88211 0.276 0.0
C182 C 0.95054 0.85799 0.28748 0.0
C183 C 0.91857 0.79497 0.26825 0.0
N184 N 0.89025 0.86234 0.2612 0.0
C185 C 0.88809 0.81939 0.25737 0.0
O186 O 0.04508 0.83 0.39837 0.0
C187 C 0.02196 0.80338 0.40497 0.0
O188 O 1.00288 0.78557 0.37044 0.0
H189 H 0.97469 0.87352 0.30022 0.0
H190 H 0.91787 0.76079 0.26499 0.0
C191 C 0.141 0.84625 0.38048 0.0
C192 C 0.17388 0.82977 0.37463 0.0
C193 C 0.14894 0.7974 0.30245 0.0
C194 C 0.1166 0.81378 0.30833 0.0
N195 N 0.11319 0.83807 0.3469 0.0
N196 N 0.17667 0.80588 0.33543 0.0
H197 H 0.13762 0.86602 0.4106 0.0
C198 C 0.97895 0.69849 0.29014 0.0
O199 O 0.96176 0.70854 0.3251 0.0
O200 O 0.0707 0.92025 0.37659 0.0
H201 H 0.09441 0.80734 0.28209 0.0
H202 H 0.92157 0.9163 0.27921 0.0
H203 H 0.15204 0.77821 0.27178 0.0
Zn204 Zn 0.4949 0.25571 0.30246 0.0
C205 C 0.53519 0.14964 0.25196 0.0
N206 N 0.52058 0.16519 0.21024 0.0
C207 C 0.51284 0.20542 0.22106 0.0
N208 N 0.52127 0.214 0.26794 0.0
N209 N 0.53651 0.17905 0.28674 0.0
C210 C 0.52197 0.09814 0.36979 0.0
O211 O 0.49869 0.11376 0.33669 0.0
O212 O 0.49138 0.31485 0.27334 0.0
Zn213 Zn 0.56083 0.17169 0.35 0.0
N214 N 0.44909 0.23124 0.30006 0.0
C215 C 0.42052 0.17125 0.32661 0.0
C216 C 0.45047 0.19478 0.32523 0.0
C217 C 0.41828 0.24666 0.27787 0.0
N218 N 0.38994 0.18596 0.30395 0.0
C219 C 0.38777 0.22325 0.27998 0.0
O220 O 0.54431 0.20974 0.39703 0.0
C221 C 0.52692 0.24171 0.4069 0.0
O222 O 0.50933 0.26339 0.37438 0.0
H223 H 0.47489 0.18452 0.34439 0.0
H224 H 0.41753 0.27637 0.25896 0.0
C225 C 0.63144 0.18068 0.39444 0.0
C226 C 0.66736 0.18808 0.39639 0.0
C227 C 0.65927 0.19513 0.3127 0.0
C228 C 0.62372 0.18868 0.31119 0.0
N229 N 0.61052 0.18113 0.35196 0.0
N230 N 0.68015 0.19475 0.35503 0.0
H231 H 0.62005 0.17429 0.4261 0.0
C232 C 0.47505 0.34394 0.29227 0.0
O233 O 0.45989 0.33454 0.32918 0.0
O234 O 0.55183 0.11502 0.37752 0.0
H235 H 0.60682 0.18927 0.27772 0.0
H236 H 0.42145 0.14186 0.34607 0.0
H237 H 0.67019 0.2007 0.28047 0.0
Zn238 Zn 0.04195 0.25292 0.74085 0.0
C239 C 0.99748 0.1474 0.77385 0.0
N240 N 1.01185 0.15684 0.81821 0.0
C241 C 0.02129 0.19755 0.8146 0.0
N242 N 1.0134 0.21235 0.76989 0.0
N243 N 0.99723 0.18103 0.74473 0.0
C244 C 1.01186 0.14965 0.62341 0.0
O245 O 0.03515 0.17316 0.64913 0.0
O246 O 0.04254 0.31195 0.77057 0.0
Zn247 Zn 0.96768 0.18792 0.68393 0.0
N248 N 0.08863 0.22843 0.74878 0.0
C249 C 0.12303 0.16557 0.7568 0.0
C250 C 0.09082 0.18548 0.75242 0.0
C251 C 0.11772 0.25225 0.74832 0.0
N252 N 0.15192 0.18922 0.75596 0.0
C253 C 0.15041 0.23213 0.75133 0.0
O254 O 0.97171 0.24619 0.65713 0.0
C255 C 0.99921 0.25795 0.64171 0.0
O256 O 0.02801 0.25898 0.66913 0.0
H257 H 0.06772 0.16656 0.75144 0.0
H258 H 0.11535 0.28627 0.74565 0.0
C259 C 0.89225 0.18382 0.65576 0.0
C260 C 0.8576 0.17995 0.66478 0.0
C261 C 0.87837 0.16634 0.74563 0.0
C262 C 0.91228 0.17139 0.73687 0.0
N263 N 0.91888 0.17948 0.69221 0.0
N264 N 0.85202 0.17099 0.7097 0.0
H265 H 0.89803 0.19165 0.62085 0.0
C266 C 0.05371 0.34206 0.74727 0.0
O267 O 0.06405 0.33332 0.7064 0.0
O268 O 0.98117 0.14834 0.63385 0.0
H269 H 0.93296 0.1697 0.76602 0.0
H270 H 0.12504 0.13147 0.76005 0.0
H271 H 0.87292 0.15968 0.78099 0.0
H272 H 0.98829 0.95306 0.25622 0.0
H273 H 0.09917 0.93233 0.28495 0.0
H274 H 0.10803 1.00945 0.30098 0.0
H275 H 0.99012 0.04663 0.19407 0.0
H276 H 0.95426 0.07145 0.21732 0.0
H277 H 0.95691 1.01462 0.2143 0.0
H278 H 0.95387 1.00974 0.30456 0.0
H279 H 0.95074 0.06673 0.30734 0.0
H280 H 0.98437 0.03936 0.34544 0.0
H281 H 0.10429 0.0899 0.3079 0.0
H282 H 0.08929 0.16597 0.29974 0.0
H283 H 0.98052 0.13323 0.26498 0.0
C284 C 1.01437 0.96486 0.26657 0.0
C285 C 0.04309 0.93717 0.27002 0.0
C286 C 0.07693 0.95333 0.28276 0.0
C287 C 0.08209 0.99691 0.29208 0.0
C288 C 0.05308 0.02359 0.28849 0.0
C289 C 0.01987 1.00803 0.2761 0.0
C290 C 0.9932 0.04337 0.27133 0.0
C291 C 0.97242 0.04405 0.22128 0.0
C292 C 0.96912 0.03956 0.30943 0.0
C293 C 0.01663 0.08161 0.2804 0.0
C294 C 0.05099 0.06959 0.29153 0.0
C295 C 0.07744 0.09957 0.29961 0.0
C296 C 0.06863 0.14277 0.29497 0.0
C297 C 0.03371 0.15566 0.2816 0.0
C298 C 1.00743 0.12451 0.27533 0.0
H299 H 0.5367 0.95879 0.81451 0.0
H300 H 0.43161 0.93802 0.7462 0.0
H301 H 0.42429 1.01588 0.73379 0.0
H302 H 0.52017 0.05132 0.87753 0.0
H303 H 0.5607 0.07635 0.87073 0.0
H304 H 0.55767 1.01945 0.87057 0.0
H305 H 0.57966 1.01642 0.78905 0.0
H306 H 0.58274 0.0734 0.78882 0.0
H307 H 0.55725 0.04616 0.74025 0.0
H308 H 0.42879 0.09813 0.73287 0.0
H309 H 0.44354 0.1742 0.74502 0.0
H310 H 0.54568 0.13892 0.8151 0.0
C311 C 0.51218 0.97065 0.79662 0.0
C312 C 0.4848 0.94253 0.78076 0.0
C313 C 0.45304 0.95911 0.75793 0.0
C314 C 0.44873 1.00324 0.75085 0.0
C315 C 0.47643 0.03023 0.76702 0.0
C316 C 0.50756 1.01429 0.78939 0.0
C317 C 0.53307 0.04944 0.80514 0.0
C318 C 0.54349 0.04911 0.85919 0.0
C319 C 0.56507 0.04616 0.77927 0.0
C320 C 0.51134 0.08804 0.78929 0.0
C321 C 0.47886 0.07654 0.76687 0.0
C322 C 0.45423 0.10724 0.75019 0.0
C323 C 0.46287 0.15048 0.75718 0.0
C324 C 0.4958 0.16282 0.78104 0.0
C325 C 0.5203 0.13085 0.79666 0.0
H326 H 0.96146 0.09209 0.82082 0.0
H327 H 0.01614 0.10276 0.70003 0.0
H328 H 1.00847 0.02629 0.6837 0.0
H329 H 1.00324 1.00208 0.86282 0.0
H330 H 0.96707 0.97774 0.88524 0.0
H331 H 0.96892 0.03444 0.88038 0.0
H332 H 0.9088 0.03511 0.82825 0.0
H333 H 0.90648 0.97829 0.83349 0.0
H334 H 0.90165 1.00238 0.77581 0.0
H335 H 1.00287 0.94698 0.68834 0.0
H336 H 1.0001 0.87228 0.71337 0.0
H337 H 0.95238 0.91278 0.83482 0.0
C338 C 0.97036 0.07846 0.78974 0.0
C339 C 0.98722 0.10377 0.75941 0.0
C340 C 1.00042 0.08466 0.72078 0.0
C341 C 0.99687 0.04095 0.71209 0.0
C342 C 0.98051 1.01664 0.74303 0.0
C343 C 0.96735 0.03478 0.78107 0.0
C344 C 0.95506 1.00124 0.81258 0.0
C345 C 0.97476 1.00406 0.86322 0.0
C346 C 0.91565 1.00445 0.81251 0.0
C347 C 0.9646 0.96141 0.78745 0.0
C348 C 0.97871 0.97086 0.74698 0.0
C349 C 0.99137 0.9392 0.71958 0.0
C350 C 0.98979 0.89685 0.73414 0.0
C351 C 0.97602 0.88662 0.77604 0.0
C352 C 0.96289 0.91944 0.80248 0.0
H353 H 0.48784 0.90502 0.22385 0.0
H354 H 0.584 0.87585 0.31448 0.0
H355 H 0.59674 0.95256 0.32335 0.0
H356 H 0.51905 0.98897 0.16195 0.0
H357 H 0.48027 1.02077 0.15914 0.0
H358 H 0.47757 0.96395 0.16265 0.0
H359 H 0.44711 0.97061 0.23764 0.0
H360 H 0.4492 0.0275 0.23377 0.0
H361 H 0.46737 1.00119 0.28752 0.0
H362 H 0.60039 0.03346 0.31782 0.0
H363 H 0.59229 0.11034 0.30284 0.0
H364 H 0.49387 0.08522 0.21635 0.0
C365 C 0.51141 0.91465 0.24608 0.0
C366 C 0.53494 0.8843 0.26841 0.0
C367 C 0.5655 0.89845 0.29711 0.0
C368 C 0.57301 0.94198 0.30224 0.0
C369 C 0.54962 0.971 0.27871 0.0
C370 C 0.51922 0.95782 0.25168 0.0
C371 C 0.49852 0.99507 0.22943 0.0
C372 C 0.49358 0.99199 0.17508 0.0
C373 C 0.46348 0.9988 0.24823 0.0
C374 C 0.52233 0.03126 0.24715 0.0
C375 C 0.55162 1.01695 0.27576 0.0
C376 C 0.57736 0.04492 0.29582 0.0
C377 C 0.57261 0.0886 0.28713 0.0
C378 C 0.54233 0.10379 0.25897 0.0
C379 C 0.51733 0.07451 0.23809 0.0
H380 H 0.48152 0.64179 0.76755 0.0
H381 H 0.59061 0.67446 0.79642 0.0
H382 H 0.6057 0.59826 0.8034 0.0
H383 H 0.48681 0.54908 0.84736 0.0
H384 H 0.45541 0.51931 0.80804 0.0
H385 H 0.45273 0.57637 0.81002 0.0
H386 H 0.45456 0.58018 0.71987 0.0
H387 H 0.45682 0.52329 0.71701 0.0
H388 H 0.48969 0.55487 0.69538 0.0
H389 H 0.60898 0.51704 0.79781 0.0
H390 H 0.59933 0.43971 0.78386 0.0
H391 H 0.48845 0.46137 0.76032 0.0
C392 C 0.50858 0.63307 0.77622 0.0
C393 C 0.53485 0.66433 0.7814 0.0
C394 C 0.56994 0.65128 0.79251 0.0
C395 C 0.57879 0.60796 0.7965 0.0
C396 C 0.55227 0.57794 0.78988 0.0
C397 C 0.51782 0.59008 0.78059 0.0
C398 C 0.49421 0.55185 0.77279 0.0
C399 C 0.47089 0.54898 0.81187 0.0
C400 C 0.47256 0.55262 0.72333 0.0
C401 C 0.52071 0.51632 0.77702 0.0
C402 C 0.55411 0.53176 0.78747 0.0
C403 C 0.58288 0.50467 0.79046 0.0
C404 C 0.57727 0.4609 0.78248 0.0
C405 C 0.5432 0.4448 0.77202 0.0
C406 C 0.51474 0.47294 0.7692 0.0
H407 H 0.94952 0.44869 0.31014 0.0
H408 H 0.02888 0.43115 0.21998 0.0
H409 H 0.02999 0.50842 0.20615 0.0
H410 H 0.90457 0.54127 0.24845 0.0
H411 H 0.89818 0.56676 0.30326 0.0
H412 H 0.89954 0.50973 0.29951 0.0
H413 H 0.94885 0.50812 0.37064 0.0
H414 H 0.9478 0.56505 0.37445 0.0
H415 H 0.98781 0.5382 0.36794 0.0
H416 H 0.02547 0.58851 0.20706 0.0
H417 H 0.01855 0.66432 0.2266 0.0
H418 H 0.94488 0.63007 0.32077 0.0
C419 C 0.96613 0.46116 0.28611 0.0
C420 C 0.98733 0.43377 0.26321 0.0
C421 C 1.01055 0.45135 0.23477 0.0
C422 C 1.01173 0.49528 0.22739 0.0
C423 C 0.99014 0.52151 0.24988 0.0
C424 C 0.96792 0.50511 0.27897 0.0
C425 C 0.95023 0.54036 0.30303 0.0
C426 C 0.91079 0.53947 0.28763 0.0
C427 C 0.95923 0.53777 0.35721 0.0
C428 C 0.96643 0.57905 0.2837 0.0
C429 C 0.98899 0.56757 0.25254 0.0
C430 C 1.00772 0.59785 0.23125 0.0
C431 C 1.00363 0.64088 0.24257 0.0
C432 C 0.98124 0.65333 0.2753 0.0
C433 C 0.96218 0.62178 0.29556 0.0
H434 H 0.44424 0.41328 0.32767 0.0
H435 H 0.50628 0.37576 0.21931 0.0
H436 H 0.50992 0.45074 0.19582 0.0
H437 H 0.39696 0.50139 0.26077 0.0
H438 H 0.39782 0.53386 0.3131 0.0
H439 H 0.39665 0.47691 0.31763 0.0
H440 H 0.45224 0.47856 0.37936 0.0
H441 H 0.45347 0.53537 0.37515 0.0
H442 H 0.49057 0.50425 0.36463 0.0
H443 H 0.51377 0.53031 0.19198 0.0
H444 H 0.51714 0.60706 0.20812 0.0
H445 H 0.44954 0.59379 0.31465 0.0
C446 C 0.45807 0.42065 0.29838 0.0
C447 C 0.47491 0.38846 0.27527 0.0
C448 C 0.49305 0.39971 0.23749 0.0
C449 C 0.49518 0.44227 0.2238 0.0
C450 C 0.47875 0.47326 0.24788 0.0
C451 C 0.46035 0.46292 0.28421 0.0
C452 C 0.44713 0.50239 0.30663 0.0
C453 C 0.40727 0.5037 0.29907 0.0
C454 C 0.46174 0.5053 0.35956 0.0
C455 C 0.46195 0.53668 0.27837 0.0
C456 C 0.47976 0.51919 0.24425 0.0
C457 C 0.49861 0.54437 0.21707 0.0
C458 C 0.49968 0.58828 0.22543 0.0
C459 C 0.48156 0.60695 0.25986 0.0
C460 C 0.46232 0.58065 0.28649 0.0
H461 H 0.08091 0.41086 0.70791 0.0
H462 H 0.02684 0.37444 0.82442 0.0
H463 H 0.02363 0.44991 0.84785 0.0
H464 H 0.13038 0.50019 0.76962 0.0
H465 H 0.12624 0.53162 0.71656 0.0
H466 H 0.12784 0.4746 0.7126 0.0
H467 H 0.06958 0.47472 0.65606 0.0
H468 H 0.06787 0.53158 0.65975 0.0
H469 H 0.03224 0.5004 0.67456 0.0
H470 H 0.01835 0.52969 0.8504 0.0
H471 H 1.01297 0.60606 0.83297 0.0
H472 H 0.07455 0.59105 0.71954 0.0
C473 C 0.06886 0.41857 0.73886 0.0
C474 C 0.05406 0.38666 0.76429 0.0
C475 C 0.03841 0.39827 0.80442 0.0
C476 C 0.03655 0.44106 0.81804 0.0
C477 C 0.05085 0.47178 0.79155 0.0
C478 C 0.067 0.46095 0.75305 0.0
C479 C 0.07834 0.49997 0.72856 0.0
C480 C 0.11806 0.50168 0.73206 0.0
C481 C 0.06096 0.50176 0.67668 0.0
C482 C 0.06487 0.53463 0.75812 0.0
C483 C 0.04943 0.51774 0.79464 0.0
C484 C 0.03181 0.54331 0.82341 0.0
C485 C 0.02966 0.58699 0.81427 0.0
C486 C 0.04572 0.605 0.7777 0.0
C487 C 0.06353 0.57836 0.7493 0.0
H488 H 0.03965 0.4413 0.0674 0.0
H489 H 0.95171 0.48649 0.13198 0.0
H490 H 0.9507 0.55239 0.08536 0.0
H491 H 0.08216 0.54278 0.06189 0.0
H492 H 0.09584 0.53113 1.00543 0.0
H493 H 0.09064 0.48876 0.04587 0.0
H494 H 0.04811 0.45095 0.98071 0.0
H495 H 0.0531 0.49326 0.94018 0.0
H496 H 1.0105 0.47915 0.95254 0.0
H497 H 0.95719 0.61095 0.0281 0.0
H498 H 0.9721 0.65928 0.96605 0.0
H499 H 0.056 0.57507 0.94064 0.0
C500 C 0.02041 0.46523 0.0722 0.0
C501 C 0.99576 0.45897 0.10314 0.0
C502 C 0.97075 0.49076 0.10815 0.0
C503 C 0.97002 0.52824 0.082 0.0
C504 C 0.99444 0.53311 0.05118 0.0
C505 C 0.01923 0.50254 0.04632 0.0
C506 C 0.04178 0.51466 1.00967 0.0
C507 C 0.07986 0.51964 0.03207 0.0
C508 C 0.03814 0.48261 0.96835 0.0
C509 C 0.02569 0.5568 0.99445 0.0
C510 C 0.9984 0.56692 1.01868 0.0
C511 C 0.97868 0.60357 1.00914 0.0
C512 C 0.98717 0.63061 0.9738 0.0
C513 C 1.01518 0.6207 0.94898 0.0
C514 C 0.03472 0.58353 0.95963 0.0
H515 H 0.48236 0.60492 0.06074 0.0
H516 H 0.58959 0.63968 0.10713 0.0
H517 H 0.60747 0.59937 0.04013 0.0
H518 H 0.49761 0.50173 0.03253 0.0
H519 H 0.46472 0.49893 0.98142 0.0
H520 H 0.46005 0.53585 0.02825 0.0
H521 H 0.45457 0.59836 0.96826 0.0
H522 H 0.45838 0.56075 0.92151 0.0
H523 H 0.48755 0.60526 0.93053 0.0
H524 H 0.61431 0.54863 0.97424 0.0
H525 H 0.60989 0.48818 0.91831 0.0
H526 H 0.49814 0.48755 0.91532 0.0
C527 C 0.50957 0.60456 0.05649 0.0
C528 C 0.53462 0.62517 0.0892 0.0
C529 C 0.56996 0.6239 0.08251 0.0
C530 C 0.58033 0.60146 0.04433 0.0
C531 C 0.55496 0.58104 1.01296 0.0
C532 C 0.52029 0.58252 1.01862 0.0
C533 C 0.49853 0.55461 0.98299 0.0
C534 C 0.47912 0.52079 1.00779 0.0
C535 C 0.47328 0.58135 0.94878 0.0
C536 C 0.52663 0.53522 0.95817 0.0
C537 C 0.55891 0.55166 0.97503 0.0
C538 C 0.58914 0.53597 0.9602 0.0
C539 C 0.58639 0.50159 0.92856 0.0
C540 C 0.5537 0.48309 0.91284 0.0
C541 C 0.52347 0.50116 0.92661 0.0
H542 H 0.56355 0.05656 0.44027 0.0
H543 H 0.45584 0.07564 0.38009 0.0
H544 H 0.4371 0.04024 0.44889 0.0
H545 H 0.55029 0.95143 0.4911 0.0
H546 H 0.58213 0.96149 0.54213 0.0
H547 H 0.58656 0.98574 0.48633 0.0
H548 H 0.58948 0.05951 0.52742 0.0
H549 H 0.5839 0.0356 0.58298 0.0
H550 H 0.55436 0.07638 0.55817 0.0
H551 H 0.43012 1.00984 0.52753 0.0
H552 H 0.43496 0.97305 0.60408 0.0
H553 H 0.54722 0.97176 0.61188 0.0
C554 C 0.53603 0.05248 0.44109 0.0
C555 C 0.51115 0.06915 0.40511 0.0
C556 C 0.47538 0.06313 0.40729 0.0
C557 C 0.46445 0.04337 0.44639 0.0
C558 C 0.48965 0.0293 0.48244 0.0
C559 C 0.52467 0.03247 0.47957 0.0
C560 C 0.5464 1.01443 0.52303 0.0
C561 C 0.56759 0.97598 0.50985 0.0
C562 C 0.56992 0.04853 0.54944 0.0
C563 C 0.51809 1.0013 0.55113 0.0
C564 C 0.48558 1.01057 0.52728 0.0
C565 C 0.4554 1.00191 0.54635 0.0
C566 C 0.45847 0.98136 0.59006 0.0
C567 C 0.49149 0.9693 0.61379 0.0
C568 C 0.52165 0.98056 0.59461 0.0
H569 H 0.98899 0.97021 0.42601 0.0
H570 H 0.09574 0.99298 0.40563 0.0
H571 H 0.09749 0.05549 0.45849 0.0
H572 H 0.9636 0.08394 0.43652 0.0
H573 H 0.93666 0.07172 0.48108 0.0
H574 H 0.94221 0.03332 0.43568 0.0
H575 H 0.96306 0.97795 0.50042 0.0
H576 H 0.95808 1.01617 0.54595 0.0
H577 H 0.99936 0.99041 0.54482 0.0
H578 H 0.09012 0.10891 0.52174 0.0
H579 H 0.07354 0.15121 0.58806 0.0
H580 H 0.97168 0.09283 0.56729 0.0
C581 C 1.01248 0.98894 0.43167 0.0
C582 C 0.04227 0.97675 0.41187 0.0
C583 C 0.07264 1.00177 0.42057 0.0
C584 C 0.07383 0.03738 0.45039 0.0
C585 C 0.04437 0.04756 0.47086 0.0
C586 C 1.01413 0.02434 0.46142 0.0
C587 C 0.98707 0.03959 0.49087 0.0
C588 C 0.95552 0.05826 0.45915 0.0
C589 C 0.97629 1.00391 0.52237 0.0
C590 C 1.00734 0.07374 0.51997 0.0
C591 C 0.04014 0.07831 0.50742 0.0
C592 C 0.06432 0.10608 0.53138 0.0
C593 C 0.05474 0.12973 0.56922 0.0
C594 C 0.02135 0.1252 0.58289 0.0
C595 C 0.99732 0.09714 0.55751 0.0
H596 H 0.79647 0.33463 0.11956 0.0
H597 H 0.88353 0.32179 0.04037 0.0
H598 H 0.84336 0.32419 0.96596 0.0
H599 H 0.739 0.26758 0.04442 0.0
H600 H 0.70076 0.29866 0.04957 0.0
H601 H 0.73651 0.29868 0.09704 0.0
H602 H 0.73971 0.38056 0.09285 0.0
H603 H 0.70401 0.38077 0.04522 0.0
H604 H 0.74449 0.40546 0.03744 0.0
H605 H 0.79394 0.32435 0.89992 0.0
H606 H 0.73843 0.32175 0.84664 0.0
H607 H 0.68263 0.33354 0.96757 0.0
C608 C 0.80719 0.33261 0.08661 0.0
C609 C 0.84347 0.32897 0.08632 0.0
C610 C 0.85617 0.326 0.04215 0.0
C611 C 0.83344 0.32697 0.99942 0.0
C612 C 0.79798 0.33082 1.00112 0.0
C613 C 0.78485 0.33355 0.04351 0.0
C614 C 0.74548 0.33596 0.03534 0.0
C615 C 0.72951 0.29795 0.05793 0.0
C616 C 0.73268 0.37821 0.05381 0.0
C617 C 0.73855 0.33367 0.98171 0.0
C618 C 0.76927 0.33085 0.9628 0.0
C619 C 0.76973 0.32685 0.91431 0.0
C620 C 0.738 0.32528 0.88432 0.0
C621 C 0.70604 0.32785 0.90267 0.0
C622 C 0.70648 0.33247 0.95216 0.0
H623 H 0.30059 0.70815 0.11393 0.0
H624 H 0.37912 0.63777 0.05148 0.0
H625 H 0.33728 0.62608 0.9795 0.0
H626 H 0.22789 0.64221 0.06676 0.0
H627 H 0.198 0.68605 0.05661 0.0
H628 H 0.23403 0.68893 0.10364 0.0
H629 H 0.2545 0.75856 0.06878 0.0
H630 H 0.21841 0.75607 0.02188 0.0
H631 H 0.26204 0.75957 1.0079 0.0
H632 H 0.28717 0.62271 0.91367 0.0
H633 H 0.23326 0.62983 0.85771 0.0
H634 H 0.18653 0.70154 0.96282 0.0
C635 C 0.3091 0.69012 0.08526 0.0
C636 C 0.34356 0.67441 0.08861 0.0
C637 C 0.35336 0.65112 0.0499 0.0
C638 C 0.32957 0.64387 1.00886 0.0
C639 C 0.29594 0.65986 1.00692 0.0
C640 C 0.28571 0.68258 0.04405 0.0
C641 C 0.2482 0.69701 0.03261 0.0
C642 C 0.22571 0.67737 0.06695 0.0
C643 C 0.24565 0.74569 0.03279 0.0
C644 C 0.23894 0.67905 0.98303 0.0
C645 C 0.26687 0.65759 0.96907 0.0
C646 C 0.26512 0.63928 0.92433 0.0
C647 C 0.23432 0.64357 0.89275 0.0
C648 C 0.20539 0.66593 0.90578 0.0
C649 C 0.20775 0.68345 0.95193 0.0
H650 H 0.29269 0.84182 0.62781 0.0
H651 H 0.38142 0.84359 0.55077 0.0
H652 H 0.34207 0.84686 0.47588 0.0
H653 H 0.24102 0.77368 0.54712 0.0
H654 H 0.20056 0.79978 0.55293 0.0
H655 H 0.23564 0.80098 0.60129 0.0
H656 H 0.23304 0.88305 0.60228 0.0
H657 H 0.19799 0.88209 0.55376 0.0
H658 H 0.23673 0.91189 0.54886 0.0
H659 H 0.29371 0.8457 0.40878 0.0
H660 H 0.23926 0.8391 0.35378 0.0
H661 H 0.18101 0.83687 0.47276 0.0
C662 C 0.30396 0.84328 0.59527 0.0
C663 C 0.34046 0.84348 0.5959 0.0
C664 C 0.35383 0.84487 0.55214 0.0
C665 C 0.33158 0.84639 0.50903 0.0
C666 C 0.29591 0.84632 0.50988 0.0
C667 C 0.28209 0.84473 0.55178 0.0
C668 C 0.24272 0.84302 0.54252 0.0
C669 C 0.2292 0.80192 0.56212 0.0
C670 C 0.22668 0.88236 0.56308 0.0
C671 C 0.23663 0.84334 0.4888 0.0
C672 C 0.26775 0.84545 0.47085 0.0
C673 C 0.26917 0.84438 0.42241 0.0
C674 C 0.23806 0.84051 0.39145 0.0
C675 C 0.20575 0.83786 0.40878 0.0
C676 C 0.20512 0.8398 0.45825 0.0
H677 H 0.84924 0.16508 0.56695 0.0
H678 H 0.79518 0.21049 0.68079 0.0
H679 H 0.74155 0.21784 0.62492 0.0
H680 H 0.80399 0.23458 0.47507 0.0
H681 H 0.80226 0.19465 0.42936 0.0
H682 H 0.83732 0.19448 0.47786 0.0
H683 H 0.82262 0.117 0.49677 0.0
H684 H 0.78734 0.11703 0.44862 0.0
H685 H 0.77934 0.10417 0.50757 0.0
H686 H 0.69302 0.21795 0.5586 0.0
H687 H 0.65279 0.21347 0.4842 0.0
H688 H 0.73688 0.16817 0.41165 0.0
C689 C 0.82634 0.17731 0.57996 0.0
C690 C 0.82666 0.18721 0.62854 0.0
C691 C 0.79574 0.20234 0.64399 0.0
C692 C 0.76503 0.20678 0.61247 0.0
C693 C 0.76537 0.19607 0.56525 0.0
C694 C 0.79515 0.18194 0.54877 0.0
C695 C 0.78781 0.17181 0.4962 0.0
C696 C 0.80911 0.20061 0.46796 0.0
C697 C 0.79469 0.1247 0.48676 0.0
C698 C 0.74932 0.18219 0.48611 0.0
C699 C 0.737 0.19609 0.52656 0.0
C700 C 0.7023 0.20703 0.52661 0.0
C701 C 0.6795 0.20389 0.48411 0.0
C702 C 0.69136 0.18978 0.44192 0.0
C703 C 0.72689 0.17901 0.4432 0.0
H704 H 0.35461 0.29486 0.3036 0.0
H705 H 0.34199 0.18264 0.21491 0.0
H706 H 0.27941 0.19843 0.19443 0.0
H707 H 0.28028 0.28026 0.35361 0.0
H708 H 0.26864 0.33542 0.35729 0.0
H709 H 0.31332 0.32055 0.35773 0.0
H710 H 0.3175 0.36876 0.2856 0.0
H711 H 0.27292 0.38445 0.28541 0.0
H712 H 0.28668 0.36241 0.23266 0.0
H713 H 0.21737 0.22184 0.191 0.0
H714 H 0.16084 0.25171 0.20315 0.0
H715 H 0.21348 0.34644 0.29846 0.0
C716 C 0.33885 0.27485 0.27818 0.0
C717 C 0.35306 0.23831 0.25953 0.0
C718 C 0.33153 0.21136 0.22844 0.0
C719 C 0.296 0.22001 0.21681 0.0
C720 C 0.28239 0.25549 0.23707 0.0
C721 C 0.30318 0.28268 0.26688 0.0
C722 C 0.28155 0.31584 0.28802 0.0
C723 C 0.28623 0.3128 0.34237 0.0
C724 C 0.29017 0.36051 0.27194 0.0
C725 C 0.24542 0.30246 0.26633 0.0
C726 C 0.24646 0.26792 0.23667 0.0
C727 C 0.21623 0.24904 0.21402 0.0
C728 C 0.18408 0.26599 0.22175 0.0
C729 C 0.18231 0.30124 0.25248 0.0
C730 C 0.21364 0.31963 0.27463 0.0
H731 H 0.35537 0.27055 0.79669 0.0
H732 H 0.33694 0.38567 0.71428 0.0
H733 H 0.27454 0.36921 0.69883 0.0
H734 H 0.28918 0.20502 0.72376 0.0
H735 H 0.27711 0.1783 0.77465 0.0
H736 H 0.32084 0.19712 0.77548 0.0
H737 H 0.31561 0.2398 0.852 0.0
H738 H 0.27172 0.22168 0.85102 0.0
H739 H 0.28085 0.27769 0.85224 0.0
H740 H 0.21378 0.34334 0.69688 0.0
H741 H 0.1589 0.30729 0.70463 0.0
H742 H 0.21626 0.20939 0.78938 0.0
C743 C 0.33838 0.29158 0.77421 0.0
C744 C 0.3511 0.32921 0.75627 0.0
C745 C 0.32777 0.35662 0.72827 0.0
C746 C 0.29227 0.34757 0.71928 0.0
C747 C 0.28038 0.31095 0.73856 0.0
C748 C 0.30269 0.28313 0.76504 0.0
C749 C 0.28282 0.24704 0.78346 0.0
C750 C 0.2931 0.20434 0.76311 0.0
C751 C 0.28807 0.24655 0.8379 0.0
C752 C 0.24595 0.25933 0.76369 0.0
C753 C 0.24514 0.29625 0.73787 0.0
C754 C 0.21404 0.31432 0.71697 0.0
C755 C 0.18288 0.29381 0.72212 0.0
C756 C 0.18302 0.25567 0.74822 0.0
C757 C 0.21515 0.23844 0.76918 0.0
H758 H 0.81572 0.71015 0.7462 0.0
H759 H 0.87344 0.8003 0.84237 0.0
H760 H 0.81872 0.83517 0.85452 0.0
H761 H 0.75179 0.78337 0.6921 0.0
H762 H 0.71676 0.74568 0.68743 0.0
H763 H 0.76057 0.72754 0.68662 0.0
H764 H 0.75491 0.67777 0.75703 0.0
H765 H 0.71118 0.69613 0.75838 0.0
H766 H 0.74277 0.69964 0.81087 0.0
H767 H 0.75809 0.86091 0.85577 0.0
H768 H 0.69575 0.8783 0.84278 0.0
H769 H 0.67664 0.77103 0.74681 0.0
C770 C 0.81693 0.73723 0.76988 0.0
C771 C 0.84916 0.7527 0.79273 0.0
C772 C 0.84941 0.78829 0.82338 0.0
C773 C 0.81833 0.80807 0.83102 0.0
C774 C 0.78714 0.79186 0.80803 0.0
C775 C 0.78617 0.75738 0.77791 0.0
C776 C 0.74918 0.74689 0.75671 0.0
C777 C 0.7443 0.75114 0.70251 0.0
C778 C 0.73892 0.70247 0.77165 0.0
C779 C 0.72949 0.78113 0.77939 0.0
C780 C 0.75196 0.80651 0.80909 0.0
C781 C 0.74024 0.84114 0.83281 0.0
C782 C 0.70476 0.85074 0.82518 0.0
C783 C 0.68123 0.82583 0.79415 0.0
C784 C 0.69378 0.79009 0.77158 0.0
H785 H 0.71883 0.70146 0.31177 0.0
H786 H 0.66195 0.77321 0.19621 0.0
H787 H 0.71704 0.80054 0.17588 0.0
H788 H 0.78236 0.77834 0.34798 0.0
H789 H 0.81734 0.74086 0.36165 0.0
H790 H 0.77346 0.72506 0.36533 0.0
H791 H 0.77977 0.66281 0.30746 0.0
H792 H 0.82365 0.67874 0.30324 0.0
H793 H 0.79258 0.67353 0.25041 0.0
H794 H 0.77774 0.82423 0.17154 0.0
H795 H 0.8396 0.84435 0.18539 0.0
H796 H 0.8577 0.75501 0.3011 0.0
C797 C 0.71785 0.72262 0.28186 0.0
C798 C 0.68575 0.73557 0.25622 0.0
C799 C 0.68587 0.76351 0.21746 0.0
C800 C 0.71717 0.77881 0.20511 0.0
C801 C 0.74821 0.76555 0.23138 0.0
C802 C 0.74882 0.73804 0.26891 0.0
C803 C 0.7856 0.7303 0.29284 0.0
C804 C 0.78993 0.74451 0.34502 0.0
C805 C 0.79601 0.68356 0.28819 0.0
C806 C 0.80557 0.75866 0.26364 0.0
C807 C 0.78348 0.77836 0.22805 0.0
C808 C 0.79536 0.80846 0.1987 0.0
C809 C 0.8305 0.81962 0.20675 0.0
C810 C 0.85343 0.80057 0.24361 0.0
C811 C 0.84094 0.76897 0.27168 0.0
H812 H 0.99194 0.26399 0.85541 0.0
H813 H 0.08084 0.18009 0.87196 0.0
H814 H 0.09344 0.19968 0.95657 0.0
H815 H 0.02874 0.3463 0.94924 0.0
H816 H 0.98665 0.35319 0.96763 0.0
H817 H 0.99015 0.34103 0.90666 0.0
H818 H 0.94985 0.27644 0.91093 0.0
H819 H 0.94708 0.28744 0.97215 0.0
H820 H 0.96189 0.23621 0.95489 0.0
H821 H 0.08949 0.21716 0.04177 0.0
H822 H 0.07311 0.23746 0.11947 0.0
H823 H 0.98562 0.30882 0.04815 0.0
C824 C 1.01533 0.25204 0.87627 0.0
C825 C 0.03621 0.22172 0.85694 0.0
C826 C 0.06532 0.20446 0.88587 0.0
C827 C 0.07243 0.21511 0.93409 0.0
C828 C 0.05009 0.24306 0.95295 0.0
C829 C 0.02252 0.26209 0.92474 0.0
C830 C 1.00016 0.2871 0.95468 0.0
C831 C 1.00151 0.33473 0.94392 0.0
C832 C 0.96254 0.2708 0.94773 0.0
C833 C 0.01841 0.27741 1.00403 0.0
C834 C 0.04741 0.25244 1.0023 0.0
C835 C 0.0672 0.2374 0.0435 0.0
C836 C 0.0575 0.24877 0.08756 0.0
C837 C 0.02803 0.27471 0.09027 0.0
C838 C 1.00836 0.28904 0.04764 0.0
H839 H 0.47577 0.19085 0.1348 0.0
H840 H 0.5341 0.2877 0.21939 0.0
H841 H 0.53481 0.33108 0.14794 0.0
H842 H 0.52418 0.19155 0.04723 0.0
H843 H 0.49033 0.18275 0.99822 0.0
H844 H 0.48483 0.16475 0.05631 0.0
H845 H 0.42788 0.20781 0.05346 0.0
H846 H 0.43259 0.22517 0.99461 0.0
H847 H 0.42775 0.26362 0.04021 0.0
H848 H 0.54062 0.35588 0.06703 0.0
H849 H 0.54707 0.36404 0.98323 0.0
H850 H 0.48691 0.2496 0.9486 0.0
C851 C 0.48701 0.22226 0.13854 0.0
C852 C 0.5036 0.23678 0.18304 0.0
C853 C 0.51952 0.27707 0.18634 0.0
C854 C 0.52056 0.30157 0.14562 0.0
C855 C 0.50566 0.28521 0.10189 0.0
C856 C 0.48863 0.24674 0.09813 0.0
C857 C 0.47906 0.23355 0.04663 0.0
C858 C 0.4956 0.19063 0.03655 0.0
C859 C 0.43946 0.23249 0.03292 0.0
C860 C 0.49496 0.26948 0.02203 0.0
C861 C 0.50971 0.29918 0.05462 0.0
C862 C 0.52853 0.33332 0.04117 0.0
C863 C 0.53234 0.33736 0.99335 0.0
C864 C 0.51754 0.30738 0.95908 0.0
C865 C 0.49819 0.27327 0.97374 0.0
H866 H 0.9891 0.80921 0.94458 0.0
H867 H 0.07043 0.71424 0.96769 0.0
H868 H 0.06586 0.71418 0.05304 0.0
H869 H 0.02111 0.86964 0.046 0.0
H870 H 0.97889 0.88563 0.05876 0.0
H871 H 0.98509 0.87315 0.99898 0.0
H872 H 0.93558 0.81787 0.99459 0.0
H873 H 0.92991 0.82955 0.05495 0.0
H874 H 0.93831 0.7759 0.03758 0.0
H875 H 0.05404 0.7261 0.13668 0.0
H876 H 0.04612 0.76053 0.21246 0.0
H877 H 0.97655 0.85221 0.1365 0.0
C878 C 1.00572 0.78821 0.96766 0.0
C879 C 0.02983 0.76139 0.94939 0.0
C880 C 0.05169 0.73501 0.98082 0.0
C881 C 0.049 0.73437 0.02934 0.0
C882 C 0.02478 0.76093 0.04628 0.0
C883 C 1.00415 0.78817 1.01655 0.0
C884 C 0.98372 0.81759 0.04458 0.0
C885 C 0.99276 0.86425 0.03662 0.0
C886 C 0.94455 0.80974 0.03217 0.0
C887 C 0.99683 0.80348 0.0947 0.0
C888 C 0.0195 0.76967 0.09483 0.0
C889 C 0.03615 0.75239 0.13701 0.0
C890 C 0.03116 0.77181 0.18002 0.0
C891 C 1.01044 0.8087 0.18032 0.0
C892 C 0.992 0.82353 0.13725 0.0
H893 H 0.47921 0.7408 0.06022 0.0
H894 H 0.57742 0.79463 0.12351 0.0
H895 H 0.59231 0.80899 0.04383 0.0
H896 H 0.51297 0.69256 0.95592 0.0
H897 H 0.47349 0.7039 0.91693 0.0
H898 H 0.47211 0.69344 0.9787 0.0
H899 H 0.4409 0.76525 0.98754 0.0
H900 H 0.44147 0.77533 0.92578 0.0
H901 H 0.46008 0.81335 0.96944 0.0
H902 H 0.59332 0.82583 0.95838 0.0
H903 H 0.57795 0.84887 0.87541 0.0
H904 H 0.48078 0.7814 0.86626 0.0
C905 C 0.50391 0.75551 0.05735 0.0
C906 C 0.527 0.76697 0.09829 0.0
C907 C 0.55921 0.78571 0.09281 0.0
C908 C 0.56805 0.79364 0.04762 0.0
C909 C 0.54475 0.78191 1.00803 0.0
C910 C 0.51334 0.76317 1.01246 0.0
C911 C 0.49187 0.75635 0.9644 0.0
C912 C 0.48735 0.70875 0.95334 0.0
C913 C 0.45651 0.77894 0.96164 0.0
C914 C 0.51504 0.77691 0.93245 0.0
C915 C 0.54589 0.79037 0.95823 0.0
C916 C 0.56974 0.81441 0.93759 0.0
C917 C 0.56103 0.82702 0.89028 0.0
C918 C 0.52886 0.81548 0.86411 0.0
C919 C 0.50629 0.7887 0.88487 0.0
H920 H 0.53256 0.73381 0.59855 0.0
H921 H 0.5052 0.86565 0.57065 0.0
H922 H 0.50934 0.85489 0.48623 0.0
H923 H 0.59236 0.72257 0.50745 0.0
H924 H 0.5776 0.66968 0.4913 0.0
H925 H 0.57735 0.68868 0.55096 0.0
H926 H 0.51186 0.6714 0.54485 0.0
H927 H 0.512 0.65221 0.48541 0.0
H928 H 0.48209 0.69344 0.497 0.0
H929 H 0.50952 0.8287 0.40361 0.0
H930 H 0.50359 0.78755 0.329 0.0
H931 H 0.53181 0.67299 0.40813 0.0
C932 C 0.52824 0.76051 0.57474 0.0
C933 C 0.51865 0.80057 0.59132 0.0
C934 C 0.51243 0.83458 0.55884 0.0
C935 C 0.51494 0.8289 0.51074 0.0
C936 C 0.52368 0.78893 0.49519 0.0
C937 C 0.53022 0.75523 0.5261 0.0
C938 C 0.53589 0.71471 0.49921 0.0
C939 C 0.57301 0.69793 0.51306 0.0
C940 C 0.50884 0.68097 0.50708 0.0
C941 C 0.53045 0.73072 0.44855 0.0
C942 C 0.52404 0.7738 0.4471 0.0
C943 C 0.51556 0.79517 0.40428 0.0
C944 C 0.51285 0.77176 0.36188 0.0
C945 C 0.51878 0.72756 0.36249 0.0
C946 C 0.52812 0.70702 0.40649 0.0
H947 H 0.98793 0.67478 0.63386 0.0
H948 H 0.02728 0.78499 0.71506 0.0
H949 H 0.02433 0.82623 0.64157 0.0
H950 H 0.03924 0.68616 0.54807 0.0
H951 H 1.00852 0.66846 0.49869 0.0
H952 H 1.00492 0.65028 0.55739 0.0
H953 H 0.94177 0.67812 0.54986 0.0
H954 H 0.9449 0.69579 0.49063 0.0
H955 H 0.93263 0.73264 0.5339 0.0
H956 H 0.02761 0.85123 0.56037 0.0
H957 H 0.03452 0.86019 0.47682 0.0
H958 H 0.99517 0.73301 0.44548 0.0
C959 C 0.99441 0.70816 0.63622 0.0
C960 C 1.0062 0.72737 0.68051 0.0
C961 C 0.016 0.77049 0.68207 0.0
C962 C 1.01501 0.79391 0.64025 0.0
C963 C 1.0044 0.77362 0.59708 0.0
C964 C 0.99392 0.73179 0.59468 0.0
C965 C 0.9879 0.71601 0.54374 0.0
C966 C 1.01156 0.67799 0.53659 0.0
C967 C 0.94951 0.705 0.52864 0.0
C968 C 0.99813 0.75493 0.51801 0.0
C969 C 1.0071 0.78788 0.54957 0.0
C970 C 0.02007 0.82595 0.53527 0.0
C971 C 0.02419 0.83052 0.48767 0.0
C972 C 1.01544 0.79723 0.45449 0.0
C973 C 1.00166 0.75916 0.46984 0.0
H974 H 0.48242 0.36675 0.63554 0.0
H975 H 0.53033 0.26239 0.71905 0.0
H976 H 0.53413 0.2218 0.64579 0.0
H977 H 0.43542 0.30042 0.53485 0.0
H978 H 0.44396 0.33931 0.49195 0.0
H979 H 0.43787 0.35582 0.55082 0.0
H980 H 0.49713 0.39409 0.55963 0.0
H981 H 0.50398 0.37675 0.50152 0.0
H982 H 0.53562 0.36437 0.552 0.0
H983 H 0.54353 0.19912 0.56477 0.0
H984 H 0.55054 0.19049 0.48123 0.0
H985 H 0.49665 0.30986 0.44824 0.0
C986 C 0.49225 0.33456 0.63845 0.0
C987 C 0.50545 0.31735 0.68312 0.0
C988 C 0.51901 0.27565 0.68548 0.0
C989 C 0.5217 0.25261 0.6439 0.0
C990 C 0.51044 0.27162 0.60034 0.0
C991 C 0.49519 0.31127 0.59728 0.0
C992 C 0.48821 0.32616 0.54625 0.0
C993 C 0.44903 0.33068 0.53 0.0
C994 C 0.50739 0.3678 0.53949 0.0
C995 C 0.50333 0.28951 0.52122 0.0
C996 C 0.51581 0.25836 0.55317 0.0
C997 C 0.53317 0.22286 0.53935 0.0
C998 C 0.5373 0.21854 0.49163 0.0
C999 C 0.52409 0.2495 0.45772 0.0
C1000 C 0.50686 0.28551 0.47301 0.0
H1001 H 0.04762 0.35239 0.40106 0.0
H1002 H 0.98009 0.25797 0.32637 0.0
H1003 H 0.97342 0.22411 0.40256 0.0
H1004 H 0.08873 0.2779 0.49931 0.0
H1005 H 0.09105 0.32037 0.54215 0.0
H1006 H 0.09551 0.3316 0.48143 0.0
H1007 H 0.04549 0.38621 0.4787 0.0
H1008 H 0.04001 0.37426 0.53871 0.0
H1009 H 1.00379 0.36929 0.49216 0.0
H1010 H 0.96278 0.21248 0.48671 0.0
H1011 H 0.95948 0.21278 0.57243 0.0
H1012 H 0.03882 0.30985 0.59373 0.0
C1013 C 0.03293 0.32326 0.40074 0.0
C1014 C 1.01487 0.30719 0.35794 0.0
C1015 C 0.99495 0.2699 0.35866 0.0
C1016 C 0.99067 0.25086 0.40188 0.0
C1017 C 1.00723 0.26897 0.44381 0.0
C1018 C 0.0291 0.30336 0.44348 0.0
C1019 C 0.04233 0.31822 0.49346 0.0
C1020 C 0.08175 0.31161 0.50476 0.0
C1021 C 0.03229 0.36474 0.50117 0.0
C1022 C 0.02298 0.28841 0.52189 0.0
C1023 C 1.0027 0.26042 0.49255 0.0
C1024 C 0.97945 0.23324 0.51009 0.0
C1025 C 0.97752 0.23395 0.55883 0.0
C1026 C 0.99931 0.26086 0.58986 0.0
C1027 C 0.02234 0.28838 0.57096 0.0
loop_
_geom_bond_atom_site_label_1
_geom_bond_atom_site_label_2
_geom_bond_distance
_geom_bond_site_symmetry_2
_ccdc_geom_bond_type
Zn0 N4 2.017 1_655 S
Zn0 O8 2.019 . S
Zn0 N10 2.119 . S
Zn0 O18 1.975 1_655 S
C1 N2 1.334 . S
C1 N5 1.336 . S
N2 C1 1.334 . S
N2 C3 1.334 1_455 S
C3 N2 1.334 1_655 S
C3 N4 1.330 1_655 S
N4 Zn0 2.017 1_455 S
N4 C3 1.330 1_455 S
N4 N5 1.361 . S
N5 C1 1.336 . S
N5 N4 1.361 . S
N5 Zn9 2.020 . S
C6 O7 1.244 1_455 S
C6 O30 1.257 . S
O7 C6 1.244 1_655 S
O8 Zn0 2.019 . S
O8 C28 1.257 1_655 S
Zn9 N5 2.020 . S
Zn9 O16 1.975 . S
Zn9 N25 2.119 . S
Zn9 O30 2.019 . S
N10 Zn0 2.119 . S
N10 C12 1.334 . S
N10 C13 1.328 . S
C11 C12 1.391 . S
C11 N14 1.329 . S
C11 H32 0.930 . S
C12 N10 1.334 . S
C12 C11 1.391 . S
C12 H19 0.930 . S
C13 N10 1.328 . S
C13 C15 1.392 . S
C13 H20 0.930 . S
N14 C11 1.329 . S
N14 C15 1.331 . S
C15 C13 1.392 . S
C15 N14 1.331 . S
O16 Zn9 1.975 . S
O16 C17 1.252 . S
C17 O16 1.252 . S
C17 O18 1.252 . S
O18 Zn0 1.975 1_455 S
O18 C17 1.252 . S
H19 C12 0.930 . S
H20 C13 0.930 . S
C21 C22 1.392 . S
C21 N25 1.328 . S
C21 H27 0.930 . S
C22 C21 1.392 . S
C22 N26 1.331 . S
C23 C24 1.391 . S
C23 N26 1.329 . S
C23 H33 0.930 . S
C24 C23 1.391 . S
C24 N25 1.334 . S
C24 H31 0.930 . S
N25 Zn9 2.119 . S
N25 C21 1.328 . S
N25 C24 1.334 . S
N26 C22 1.331 . S
N26 C23 1.329 . S
H27 C21 0.930 . S
C28 O8 1.257 1_455 S
C28 O29 1.244 . S
O29 C28 1.244 . S
O30 C6 1.257 . S
O30 Zn9 2.019 . S
H31 C24 0.930 . S
H32 C11 0.930 . S
H33 C23 0.930 . S
Zn34 N38 2.020 . S
Zn34 O42 2.019 . S
Zn34 N44 2.119 . S
Zn34 O52 1.975 . S
C35 N36 1.334 . S
C35 N39 1.336 . S
N36 C35 1.334 . S
N36 C37 1.334 . S
C37 N36 1.334 . S
C37 N38 1.336 . S
N38 Zn34 2.020 . S
N38 C37 1.336 . S
N38 N39 1.354 . S
N39 C35 1.336 . S
N39 N38 1.354 . S
N39 Zn43 2.020 . S
C40 O41 1.244 . S
C40 O64 1.257 . S
O41 C40 1.244 . S
O42 Zn34 2.019 . S
O42 C62 1.257 . S
Zn43 N39 2.020 . S
Zn43 O50 1.975 . S
Zn43 N59 2.119 . S
Zn43 O64 2.019 . S
N44 Zn34 2.119 . S
N44 C46 1.334 . S
N44 C47 1.328 . S
C45 C46 1.391 . S
C45 N48 1.329 . S
C45 H66 0.930 . S
C46 N44 1.334 . S
C46 C45 1.391 . S
C46 H53 0.930 . S
C47 N44 1.328 . S
C47 C49 1.392 . S
C47 H54 0.930 . S
N48 C45 1.329 . S
N48 C49 1.331 . S
C49 C47 1.392 . S
C49 N48 1.331 . S
O50 Zn43 1.975 . S
O50 C51 1.252 . S
C51 O50 1.252 . S
C51 O52 1.252 . S
O52 Zn34 1.975 . S
O52 C51 1.252 . S
H53 C46 0.930 . S
H54 C47 0.930 . S
C55 C56 1.392 . S
C55 N59 1.328 . S
C55 H61 0.930 . S
C56 C55 1.392 . S
C56 N60 1.331 . S
C57 C58 1.391 . S
C57 N60 1.329 . S
C57 H67 0.930 . S
C58 C57 1.391 . S
C58 N59 1.334 . S
C58 H65 0.930 . S
N59 Zn43 2.119 . S
N59 C55 1.328 . S
N59 C58 1.334 . S
N60 C56 1.331 . S
N60 C57 1.329 . S
H61 C55 0.930 . S
C62 O42 1.257 . S
C62 O63 1.244 . S
O63 C62 1.244 . S
O64 C40 1.257 . S
O64 Zn43 2.019 . S
H65 C58 0.930 . S
H66 C45 0.930 . S
H67 C57 0.930 . S
Zn68 N72 2.020 . S
Zn68 O76 2.019 . S
Zn68 N78 2.119 . S
Zn68 O86 1.975 . S
C69 N70 1.334 1_455 S
C69 N73 1.330 1_455 S
N70 C69 1.334 1_655 S
N70 C71 1.334 . S
C71 N70 1.334 . S
C71 N72 1.336 . S
N72 Zn68 2.020 . S
N72 C71 1.336 . S
N72 N73 1.361 . S
N73 C69 1.330 1_655 S
N73 N72 1.361 . S
N73 Zn77 2.017 1_655 S
C74 O75 1.244 . S
C74 O98 1.257 1_655 S
O75 C74 1.244 . S
O76 Zn68 2.019 . S
O76 C96 1.257 . S
Zn77 N73 2.017 1_455 S
Zn77 O84 1.975 1_455 S
Zn77 N93 2.119 . S
Zn77 O98 2.019 . S
N78 Zn68 2.119 . S
N78 C80 1.334 . S
N78 C81 1.328 . S
C79 C80 1.391 . S
C79 N82 1.329 . S
C79 H100 0.930 . S
C80 N78 1.334 . S
C80 C79 1.391 . S
C80 H87 0.930 . S
C81 N78 1.328 . S
C81 C83 1.392 . S
C81 H88 0.930 . S
N82 C79 1.329 . S
N82 C83 1.331 . S
C83 C81 1.392 . S
C83 N82 1.331 . S
O84 Zn77 1.975 1_655 S
O84 C85 1.252 . S
C85 O84 1.252 . S
C85 O86 1.252 . S
O86 Zn68 1.975 . S
O86 C85 1.252 . S
H87 C80 0.930 . S
H88 C81 0.930 . S
C89 C90 1.392 . S
C89 N93 1.328 . S
C89 H95 0.930 . S
C90 C89 1.392 . S
C90 N94 1.331 . S
C91 C92 1.391 . S
C91 N94 1.329 . S
C91 H101 0.930 . S
C92 C91 1.391 . S
C92 N93 1.334 . S
C92 H99 0.930 . S
N93 Zn77 2.119 . S
N93 C89 1.328 . S
N93 C92 1.334 . S
N94 C90 1.331 . S
N94 C91 1.329 . S
H95 C89 0.930 . S
C96 O76 1.257 . S
C96 O97 1.244 1_655 S
O97 C96 1.244 1_455 S
O98 C74 1.257 1_455 S
O98 Zn77 2.019 . S
H99 C92 0.930 . S
H100 C79 0.930 . S
H101 C91 0.930 . S
Zn102 N106 2.020 . S
Zn102 O110 2.019 . S
Zn102 N112 2.119 . S
Zn102 O120 1.975 . S
C103 N104 1.334 . S
C103 N107 1.336 . S
N104 C103 1.334 . S
N104 C105 1.334 . S
C105 N104 1.334 . S
C105 N106 1.336 . S
N106 Zn102 2.020 . S
N106 C105 1.336 . S
N106 N107 1.354 . S
N107 C103 1.336 . S
N107 N106 1.354 . S
N107 Zn111 2.020 . S
C108 O109 1.244 . S
C108 O132 1.257 . S
O109 C108 1.244 . S
O110 Zn102 2.019 . S
O110 C130 1.257 . S
Zn111 N107 2.020 . S
Zn111 O118 1.975 . S
Zn111 N127 2.119 . S
Zn111 O132 2.019 . S
N112 Zn102 2.119 . S
N112 C114 1.334 . S
N112 C115 1.328 . S
C113 C114 1.391 . S
C113 N116 1.329 . S
C113 H134 0.930 . S
C114 N112 1.334 . S
C114 C113 1.391 . S
C114 H121 0.930 . S
C115 N112 1.328 . S
C115 C117 1.392 . S
C115 H122 0.930 . S
N116 C113 1.329 . S
N116 C117 1.331 . S
C117 C115 1.392 . S
C117 N116 1.331 . S
O118 Zn111 1.975 . S
O118 C119 1.252 . S
C119 O118 1.252 . S
C119 O120 1.252 . S
O120 Zn102 1.975 . S
O120 C119 1.252 . S
H121 C114 0.930 . S
H122 C115 0.930 . S
C123 C124 1.392 . S
C123 N127 1.328 . S
C123 H129 0.930 . S
C124 C123 1.392 . S
C124 N128 1.331 . S
C125 C126 1.391 . S
C125 N128 1.329 . S
C125 H135 0.930 . S
C126 C125 1.391 . S
C126 N127 1.334 . S
C126 H133 0.930 . S
N127 Zn111 2.119 . S
N127 C123 1.328 . S
N127 C126 1.334 . S
N128 C124 1.331 . S
N128 C125 1.329 . S
H129 C123 0.930 . S
C130 O110 1.257 . S
C130 O131 1.244 . S
O131 C130 1.244 . S
O132 C108 1.257 . S
O132 Zn111 2.019 . S
H133 C126 0.930 . S
H134 C113 0.930 . S
H135 C125 0.930 . S
Zn136 N140 2.020 . S
Zn136 O144 2.019 . S
Zn136 N146 2.119 . S
Zn136 O154 1.975 . S
C137 N138 1.334 . S
C137 N141 1.336 . S
N138 C137 1.334 . S
N138 C139 1.334 . S
C139 N138 1.334 . S
C139 N140 1.336 . S
N140 Zn136 2.020 . S
N140 C139 1.336 . S
N140 N141 1.354 . S
N141 C137 1.336 . S
N141 N140 1.354 . S
N141 Zn145 2.020 . S
C142 O143 1.244 . S
C142 O166 1.257 . S
O143 C142 1.244 . S
O144 Zn136 2.019 . S
O144 C164 1.257 . S
Zn145 N141 2.020 . S
Zn145 O152 1.975 . S
Zn145 N161 2.119 . S
Zn145 O166 2.019 . S
N146 Zn136 2.119 . S
N146 C148 1.334 . S
N146 C149 1.328 . S
C147 C148 1.391 . S
C147 N150 1.329 . S
C147 H168 0.930 . S
C148 N146 1.334 . S
C148 C147 1.391 . S
C148 H155 0.930 . S
C149 N146 1.328 . S
C149 C151 1.392 . S
C149 H156 0.930 . S
N150 C147 1.329 . S
N150 C151 1.331 . S
C151 C149 1.392 . S
C151 N150 1.331 . S
O152 Zn145 1.975 . S
O152 C153 1.252 . S
C153 O152 1.252 . S
C153 O154 1.252 . S
O154 Zn136 1.975 . S
O154 C153 1.252 . S
H155 C148 0.930 . S
H156 C149 0.930 . S
C157 C158 1.392 . S
C157 N161 1.328 . S
C157 H163 0.930 . S
C158 C157 1.392 . S
C158 N162 1.331 . S
C159 C160 1.391 . S
C159 N162 1.329 . S
C159 H169 0.930 . S
C160 C159 1.391 . S
C160 N161 1.334 . S
C160 H167 0.930 . S
N161 Zn145 2.119 . S
N161 C157 1.328 . S
N161 C160 1.334 . S
N162 C158 1.331 . S
N162 C159 1.329 . S
H163 C157 0.930 . S
C164 O144 1.257 . S
C164 O165 1.244 . S
O165 C164 1.244 . S
O166 C142 1.257 . S
O166 Zn145 2.019 . S
H167 C160 0.930 . S
H168 C147 0.930 . S
H169 C159 0.930 . S
Zn170 N174 2.020 . S
Zn170 O178 2.019 . S
Zn170 N180 2.119 . S
Zn170 O188 1.975 . S
C171 N172 1.334 1_455 S
C171 N175 1.331 1_455 S
N172 C171 1.334 1_655 S
N172 C173 1.334 . S
C173 N172 1.334 . S
C173 N174 1.336 . S
N174 Zn170 2.020 . S
N174 C173 1.336 . S
N174 N175 1.361 . S
N175 C171 1.331 1_655 S
N175 N174 1.361 . S
N175 Zn179 2.017 1_655 S
C176 O177 1.244 . S
C176 O200 1.257 1_655 S
O177 C176 1.244 . S
O178 Zn170 2.019 . S
O178 C198 1.257 . S
Zn179 N175 2.017 1_455 S
Zn179 O186 1.975 1_455 S
Zn179 N195 2.119 . S
Zn179 O200 2.019 . S
N180 Zn170 2.119 . S
N180 C182 1.334 . S
N180 C183 1.328 . S
C181 C182 1.391 . S
C181 N184 1.329 . S
C181 H202 0.930 . S
C182 N180 1.334 . S
C182 C181 1.391 . S
C182 H189 0.930 . S
C183 N180 1.328 . S
C183 C185 1.392 . S
C183 H190 0.930 . S
N184 C181 1.329 . S
N184 C185 1.331 . S
C185 C183 1.392 . S
C185 N184 1.331 . S
O186 Zn179 1.975 1_655 S
O186 C187 1.252 . S
C187 O186 1.252 . S
C187 O188 1.252 . S
O188 Zn170 1.975 . S
O188 C187 1.252 . S
H189 C182 0.930 . S
H190 C183 0.930 . S
C191 C192 1.392 . S
C191 N195 1.328 . S
C191 H197 0.930 . S
C192 C191 1.392 . S
C192 N196 1.331 . S
C193 C194 1.391 . S
C193 N196 1.329 . S
C193 H203 0.930 . S
C194 C193 1.391 . S
C194 N195 1.334 . S
C194 H201 0.930 . S
N195 Zn179 2.119 . S
N195 C191 1.328 . S
N195 C194 1.334 . S
N196 C192 1.331 . S
N196 C193 1.329 . S
H197 C191 0.930 . S
C198 O178 1.257 . S
C198 O199 1.244 1_655 S
O199 C198 1.244 1_455 S
O200 C176 1.257 1_455 S
O200 Zn179 2.019 . S
H201 C194 0.930 . S
H202 C181 0.930 . S
H203 C193 0.930 . S
Zn204 N208 2.020 . S
Zn204 O212 2.019 . S
Zn204 N214 2.119 . S
Zn204 O222 1.975 . S
C205 N206 1.334 . S
C205 N209 1.336 . S
N206 C205 1.334 . S
N206 C207 1.334 . S
C207 N206 1.334 . S
C207 N208 1.336 . S
N208 Zn204 2.020 . S
N208 C207 1.336 . S
N208 N209 1.354 . S
N209 C205 1.336 . S
N209 N208 1.354 . S
N209 Zn213 2.020 . S
C210 O211 1.244 . S
C210 O234 1.257 . S
O211 C210 1.244 . S
O212 Zn204 2.019 . S
O212 C232 1.257 . S
Zn213 N209 2.020 . S
Zn213 O220 1.975 . S
Zn213 N229 2.119 . S
Zn213 O234 2.019 . S
N214 Zn204 2.119 . S
N214 C216 1.334 . S
N214 C217 1.328 . S
C215 C216 1.391 . S
C215 N218 1.329 . S
C215 H236 0.930 . S
C216 N214 1.334 . S
C216 C215 1.391 . S
C216 H223 0.930 . S
C217 N214 1.328 . S
C217 C219 1.392 . S
C217 H224 0.930 . S
N218 C215 1.329 . S
N218 C219 1.331 . S
C219 C217 1.392 . S
C219 N218 1.331 . S
O220 Zn213 1.975 . S
O220 C221 1.252 . S
C221 O220 1.252 . S
C221 O222 1.252 . S
O222 Zn204 1.975 . S
O222 C221 1.252 . S
H223 C216 0.930 . S
H224 C217 0.930 . S
C225 C226 1.392 . S
C225 N229 1.328 . S
C225 H231 0.930 . S
C226 C225 1.392 . S
C226 N230 1.331 . S
C227 C228 1.391 . S
C227 N230 1.329 . S
C227 H237 0.930 . S
C228 C227 1.391 . S
C228 N229 1.334 . S
C228 H235 0.930 . S
N229 Zn213 2.119 . S
N229 C225 1.328 . S
N229 C228 1.334 . S
N230 C226 1.331 . S
N230 C227 1.329 . S
H231 C225 0.930 . S
C232 O212 1.257 . S
C232 O233 1.244 . S
O233 C232 1.244 . S
O234 C210 1.257 . S
O234 Zn213 2.019 . S
H235 C228 0.930 . S
H236 C215 0.930 . S
H237 C227 0.930 . S
Zn238 N242 2.020 . S
Zn238 O246 2.019 . S
Zn238 N248 2.119 . S
Zn238 O256 1.975 . S
C239 N240 1.334 1_655 S
C239 N243 1.331 1_655 S
N240 C239 1.334 1_455 S
N240 C241 1.334 . S
C241 N240 1.334 . S
C241 N242 1.336 . S
N242 Zn238 2.020 . S
N242 C241 1.336 . S
N242 N243 1.361 . S
N243 C239 1.331 1_455 S
N243 N242 1.361 . S
N243 Zn247 2.017 1_455 S
C244 O245 1.244 . S
C244 O268 1.257 1_455 S
O245 C244 1.244 . S
O246 Zn238 2.019 . S
O246 C266 1.257 . S
Zn247 N243 2.017 1_655 S
Zn247 O254 1.975 1_655 S
Zn247 N263 2.119 . S
Zn247 O268 2.019 . S
N248 Zn238 2.119 . S
N248 C250 1.334 . S
N248 C251 1.328 . S
C249 C250 1.391 . S
C249 N252 1.329 . S
C249 H270 0.930 . S
C250 N248 1.334 . S
C250 C249 1.391 . S
C250 H257 0.930 . S
C251 N248 1.328 . S
C251 C253 1.392 . S
C251 H258 0.930 . S
N252 C249 1.329 . S
N252 C253 1.331 . S
C253 C251 1.392 . S
C253 N252 1.331 . S
O254 Zn247 1.975 1_455 S
O254 C255 1.252 . S
C255 O254 1.252 . S
C255 O256 1.252 . S
O256 Zn238 1.975 . S
O256 C255 1.252 . S
H257 C250 0.930 . S
H258 C251 0.930 . S
C259 C260 1.392 . S
C259 N263 1.328 . S
C259 H265 0.930 . S
C260 C259 1.392 . S
C260 N264 1.331 . S
C261 C262 1.391 . S
C261 N264 1.329 . S
C261 H271 0.930 . S
C262 C261 1.391 . S
C262 N263 1.334 . S
C262 H269 0.930 . S
N263 Zn247 2.119 . S
N263 C259 1.328 . S
N263 C262 1.334 . S
N264 C260 1.331 . S
N264 C261 1.329 . S
H265 C259 0.930 . S
C266 O246 1.257 . S
C266 O267 1.244 1_455 S
O267 C266 1.244 1_655 S
O268 C244 1.257 1_655 S
O268 Zn247 2.019 . S
H269 C262 0.930 . S
H270 C249 0.930 . S
H271 C261 0.930 . S
H272 C284 0.930 1_655 S
H273 C286 0.930 . S
H274 C287 0.930 . S
H275 C291 0.959 . S
H276 C291 0.959 . S
H277 C291 0.961 . S
H278 C292 0.960 . S
H279 C292 0.961 . S
H280 C292 0.959 . S
H281 C295 0.929 . S
H282 C296 0.931 . S
H283 C298 0.930 1_655 S
C284 H272 0.930 1_455 S
C284 C285 1.399 . S
C284 C289 1.399 1_565 S
C285 C284 1.399 . S
C285 C286 1.376 . S
C286 H273 0.930 . S
C286 C285 1.376 . S
C286 C287 1.388 . S
C287 H274 0.930 . S
C287 C286 1.388 . S
C287 C288 1.390 1_565 S
C288 C287 1.390 1_545 S
C288 C289 1.394 . S
C288 C294 1.465 . S
C289 C284 1.399 1_545 S
C289 C288 1.394 . S
C289 C290 1.516 . S
C290 C289 1.516 . S
C290 C291 1.502 1_455 S
C290 C292 1.561 . S
C290 C293 1.526 . S
C291 H275 0.959 . S
C291 H276 0.959 . S
C291 H277 0.961 . S
C291 C290 1.502 1_655 S
C292 H278 0.960 . S
C292 H279 0.961 . S
C292 H280 0.959 . S
C292 C290 1.561 . S
C293 C290 1.526 . S
C293 C294 1.396 . S
C293 C298 1.390 . S
C294 C288 1.465 . S
C294 C293 1.396 . S
C294 C295 1.399 . S
C295 H281 0.929 . S
C295 C294 1.399 . S
C295 C296 1.385 . S
C296 H282 0.931 . S
C296 C295 1.385 . S
C296 C297 1.389 . S
C297 C296 1.389 . S
C297 C298 1.387 . S
C298 H283 0.930 1_455 S
C298 C293 1.390 . S
C298 C297 1.387 . S
H299 C311 0.930 . S
H300 C313 0.930 . S
H301 C314 0.930 . S
H302 C318 0.959 . S
H303 C318 0.959 . S
H304 C318 0.961 . S
H305 C319 0.960 . S
H306 C319 0.961 . S
H307 C319 0.959 . S
H308 C322 0.929 . S
H309 C323 0.931 . S
H310 C325 0.930 . S
C311 H299 0.930 . S
C311 C312 1.399 . S
C311 C316 1.399 1_565 S
C312 C311 1.399 . S
C312 C313 1.376 . S
C313 H300 0.930 . S
C313 C312 1.376 . S
C313 C314 1.388 . S
C314 H301 0.930 . S
C314 C313 1.388 . S
C314 C315 1.390 1_565 S
C315 C314 1.390 1_545 S
C315 C316 1.394 . S
C315 C321 1.465 . S
C316 C311 1.399 1_545 S
C316 C315 1.394 . S
C316 C317 1.516 . S
C317 C316 1.516 . S
C317 C318 1.502 . S
C317 C319 1.561 . S
C317 C320 1.526 . S
C318 H302 0.959 . S
C318 H303 0.959 . S
C318 H304 0.961 . S
C318 C317 1.502 . S
C319 H305 0.960 . S
C319 H306 0.961 . S
C319 H307 0.959 . S
C319 C317 1.561 . S
C320 C317 1.526 . S
C320 C321 1.396 . S
C320 C325 1.390 . S
C321 C315 1.465 . S
C321 C320 1.396 . S
C321 C322 1.399 . S
C322 H308 0.929 . S
C322 C321 1.399 . S
C322 C323 1.385 . S
C323 H309 0.931 . S
C323 C322 1.385 . S
C323 C324 1.389 . S
C324 C323 1.389 . S
C324 C325 1.387 . S
C325 H310 0.930 . S
C325 C320 1.390 . S
C325 C324 1.387 . S
H326 C338 0.930 . S
H327 C340 0.930 . S
H328 C341 0.930 . S
H329 C345 0.959 . S
H330 C345 0.959 . S
H331 C345 0.961 . S
H332 C346 0.960 . S
H333 C346 0.961 . S
H334 C346 0.959 1_455 S
H335 C349 0.929 . S
H336 C350 0.931 . S
H337 C352 0.930 . S
C338 H326 0.930 . S
C338 C339 1.399 . S
C338 C343 1.399 1_545 S
C339 C338 1.399 . S
C339 C340 1.376 1_655 S
C340 H327 0.930 . S
C340 C339 1.376 1_455 S
C340 C341 1.388 . S
C341 H328 0.930 . S
C341 C340 1.388 . S
C341 C342 1.390 1_445 S
C342 C341 1.390 1_665 S
C342 C343 1.394 . S
C342 C348 1.465 . S
C343 C338 1.399 1_565 S
C343 C342 1.394 . S
C343 C344 1.516 . S
C344 C343 1.516 . S
C344 C345 1.502 . S
C344 C346 1.561 . S
C344 C347 1.526 . S
C345 H329 0.959 . S
C345 H330 0.959 . S
C345 H331 0.961 . S
C345 C344 1.502 . S
C346 H332 0.960 . S
C346 H333 0.961 . S
C346 H334 0.959 1_655 S
C346 C344 1.561 . S
C347 C344 1.526 . S
C347 C348 1.396 . S
C347 C352 1.390 . S
C348 C342 1.465 . S
C348 C347 1.396 . S
C348 C349 1.399 1_655 S
C349 H335 0.929 . S
C349 C348 1.399 1_455 S
C349 C350 1.385 . S
C350 H336 0.931 . S
C350 C349 1.385 . S
C350 C351 1.389 1_455 S
C351 C350 1.389 1_655 S
C351 C352 1.387 . S
C352 H337 0.930 . S
C352 C347 1.390 . S
C352 C351 1.387 . S
H353 C365 0.930 . S
H354 C367 0.930 . S
H355 C368 0.930 . S
H356 C372 0.959 . S
H357 C372 0.959 . S
H358 C372 0.961 . S
H359 C373 0.960 . S
H360 C373 0.961 . S
H361 C373 0.959 . S
H362 C376 0.929 . S
H363 C377 0.931 . S
H364 C379 0.930 . S
C365 H353 0.930 . S
C365 C366 1.399 . S
C365 C370 1.399 . S
C366 C365 1.399 . S
C366 C367 1.376 . S
C367 H354 0.930 . S
C367 C366 1.376 . S
C367 C368 1.388 . S
C368 H355 0.930 . S
C368 C367 1.388 . S
C368 C369 1.390 . S
C369 C368 1.390 . S
C369 C370 1.394 . S
C369 C375 1.465 . S
C370 C365 1.399 . S
C370 C369 1.394 . S
C370 C371 1.516 . S
C371 C370 1.516 . S
C371 C372 1.502 . S
C371 C373 1.561 . S
C371 C374 1.526 . S
C372 H356 0.959 . S
C372 H357 0.959 . S
C372 H358 0.961 . S
C372 C371 1.502 . S
C373 H359 0.960 . S
C373 H360 0.961 . S
C373 H361 0.959 . S
C373 C371 1.561 . S
C374 C371 1.526 . S
C374 C375 1.396 . S
C374 C379 1.390 1_565 S
C375 C369 1.465 . S
C375 C374 1.396 . S
C375 C376 1.399 1_565 S
C376 H362 0.929 . S
C376 C375 1.399 1_545 S
C376 C377 1.385 . S
C377 H363 0.931 . S
C377 C376 1.385 . S
C377 C378 1.389 . S
C378 C377 1.389 . S
C378 C379 1.387 . S
C379 H364 0.930 . S
C379 C374 1.390 1_545 S
C379 C378 1.387 . S
H380 C392 0.930 . S
H381 C394 0.930 . S
H382 C395 0.930 . S
H383 C399 0.959 . S
H384 C399 0.959 . S
H385 C399 0.961 . S
H386 C400 0.960 . S
H387 C400 0.961 . S
H388 C400 0.959 . S
H389 C403 0.929 . S
H390 C404 0.931 . S
H391 C406 0.930 . S
C392 H380 0.930 . S
C392 C393 1.399 . S
C392 C397 1.399 . S
C393 C392 1.399 . S
C393 C394 1.376 . S
C394 H381 0.930 . S
C394 C393 1.376 . S
C394 C395 1.388 . S
C395 H382 0.930 . S
C395 C394 1.388 . S
C395 C396 1.390 . S
C396 C395 1.390 . S
C396 C397 1.394 . S
C396 C402 1.465 . S
C397 C392 1.399 . S
C397 C396 1.394 . S
C397 C398 1.516 . S
C398 C397 1.516 . S
C398 C399 1.502 . S
C398 C400 1.561 . S
C398 C401 1.526 . S
C399 H383 0.959 . S
C399 H384 0.959 . S
C399 H385 0.961 . S
C399 C398 1.502 . S
C400 H386 0.960 . S
C400 H387 0.961 . S
C400 H388 0.959 . S
C400 C398 1.561 . S
C401 C398 1.526 . S
C401 C402 1.396 . S
C401 C406 1.390 . S
C402 C396 1.465 . S
C402 C401 1.396 . S
C402 C403 1.399 . S
C403 H389 0.929 . S
C403 C402 1.399 . S
C403 C404 1.385 . S
C404 H390 0.931 . S
C404 C403 1.385 . S
C404 C405 1.389 . S
C405 C404 1.389 . S
C405 C406 1.387 . S
C406 H391 0.930 . S
C406 C401 1.390 . S
C406 C405 1.387 . S
H407 C419 0.930 . S
H408 C421 0.930 . S
H409 C422 0.930 . S
H410 C426 0.959 . S
H411 C426 0.959 . S
H412 C426 0.961 . S
H413 C427 0.960 . S
H414 C427 0.961 . S
H415 C427 0.959 . S
H416 C430 0.929 . S
H417 C431 0.931 . S
H418 C433 0.930 . S
C419 H407 0.930 . S
C419 C420 1.399 . S
C419 C424 1.399 . S
C420 C419 1.399 . S
C420 C421 1.376 1_655 S
C421 H408 0.930 . S
C421 C420 1.376 1_455 S
C421 C422 1.388 . S
C422 H409 0.930 . S
C422 C421 1.388 . S
C422 C423 1.375 1_455 S
C423 C422 1.375 1_655 S
C423 C424 1.411 . S
C423 C429 1.465 . S
C424 C419 1.399 . S
C424 C423 1.411 . S
C424 C425 1.516 . S
C425 C424 1.516 . S
C425 C426 1.502 . S
C425 C427 1.561 . S
C425 C428 1.526 . S
C426 H410 0.959 . S
C426 H411 0.959 . S
C426 H412 0.961 . S
C426 C425 1.502 . S
C427 H413 0.960 . S
C427 H414 0.961 . S
C427 H415 0.959 . S
C427 C425 1.561 . S
C428 C425 1.526 . S
C428 C429 1.416 . S
C428 C433 1.390 . S
C429 C423 1.465 . S
C429 C428 1.416 . S
C429 C430 1.384 1_655 S
C430 H416 0.929 . S
C430 C429 1.384 1_455 S
C430 C431 1.385 . S
C431 H417 0.931 . S
C431 C430 1.385 . S
C431 C432 1.389 1_455 S
C432 C431 1.389 1_655 S
C432 C433 1.387 . S
C433 H418 0.930 . S
C433 C428 1.390 . S
C433 C432 1.387 . S
H434 C446 0.930 . S
H435 C448 0.930 . S
H436 C449 0.930 . S
H437 C453 0.959 . S
H438 C453 0.959 . S
H439 C453 0.961 . S
H440 C454 0.960 . S
H441 C454 0.961 . S
H442 C454 0.959 . S
H443 C457 0.929 . S
H444 C458 0.931 . S
H445 C460 0.930 . S
C446 H434 0.930 . S
C446 C447 1.399 . S
C446 C451 1.399 . S
C447 C446 1.399 . S
C447 C448 1.376 . S
C448 H435 0.930 . S
C448 C447 1.376 . S
C448 C449 1.388 . S
C449 H436 0.930 . S
C449 C448 1.388 . S
C449 C450 1.390 . S
C450 C449 1.390 . S
C450 C451 1.394 . S
C450 C456 1.465 . S
C451 C446 1.399 . S
C451 C450 1.394 . S
C451 C452 1.516 . S
C452 C451 1.516 . S
C452 C453 1.502 . S
C452 C454 1.561 . S
C452 C455 1.526 . S
C453 H437 0.959 . S
C453 H438 0.959 . S
C453 H439 0.961 . S
C453 C452 1.502 . S
C454 H440 0.960 . S
C454 H441 0.961 . S
C454 H442 0.959 . S
C454 C452 1.561 . S
C455 C452 1.526 . S
C455 C456 1.396 . S
C455 C460 1.390 . S
C456 C450 1.465 . S
C456 C455 1.396 . S
C456 C457 1.399 . S
C457 H443 0.929 . S
C457 C456 1.399 . S
C457 C458 1.385 . S
C458 H444 0.931 . S
C458 C457 1.385 . S
C458 C459 1.389 . S
C459 C458 1.389 . S
C459 C460 1.387 . S
C460 H445 0.930 . S
C460 C455 1.390 . S
C460 C459 1.387 . S
H461 C473 0.930 . S
H462 C475 0.930 . S
H463 C476 0.930 . S
H464 C480 0.959 . S
H465 C480 0.959 . S
H466 C480 0.961 . S
H467 C481 0.960 . S
H468 C481 0.961 . S
H469 C481 0.959 1_655 S
H470 C484 0.929 . S
H471 C485 0.931 . S
H472 C487 0.930 . S
C473 H461 0.930 . S
C473 C474 1.399 . S
C473 C478 1.399 . S
C474 C473 1.399 . S
C474 C475 1.376 1_455 S
C475 H462 0.930 . S
C475 C474 1.376 1_655 S
C475 C476 1.388 . S
C476 H463 0.930 . S
C476 C475 1.388 . S
C476 C477 1.390 1_655 S
C477 C476 1.390 1_455 S
C477 C478 1.394 . S
C477 C483 1.465 . S
C478 C473 1.399 . S
C478 C477 1.394 . S
C478 C479 1.516 . S
C479 C478 1.516 . S
C479 C480 1.502 . S
C479 C481 1.561 . S
C479 C482 1.526 . S
C480 H464 0.959 . S
C480 H465 0.959 . S
C480 H466 0.961 . S
C480 C479 1.502 . S
C481 H467 0.960 . S
C481 H468 0.961 . S
C481 H469 0.959 1_455 S
C481 C479 1.561 . S
C482 C479 1.526 . S
C482 C483 1.396 . S
C482 C487 1.390 . S
C483 C477 1.465 . S
C483 C482 1.396 . S
C483 C484 1.399 1_455 S
C484 H470 0.929 . S
C484 C483 1.399 1_655 S
C484 C485 1.385 . S
C485 H471 0.931 . S
C485 C484 1.385 . S
C485 C486 1.389 1_655 S
C486 C485 1.389 1_455 S
C486 C487 1.387 . S
C487 H472 0.930 . S
C487 C482 1.390 . S
C487 C486 1.387 . S
H488 C500 0.930 . S
H489 C502 0.930 . S
H490 C503 0.930 . S
H491 C507 0.959 . S
H492 C507 0.959 . S
H493 C507 0.961 . S
H494 C508 0.960 . S
H495 C508 0.961 . S
H496 C508 0.959 . S
H497 C511 0.925 1_554 S
H498 C512 0.931 . S
H499 C514 0.930 . S
C500 H488 0.930 . S
C500 C501 1.399 . S
C500 C505 1.399 . S
C501 C500 1.399 . S
C501 C502 1.376 . S
C502 H489 0.930 . S
C502 C501 1.376 . S
C502 C503 1.388 1_455 S
C503 H490 0.930 . S
C503 C502 1.388 1_655 S
C503 C504 1.390 . S
C504 C503 1.390 . S
C504 C505 1.394 1_655 S
C504 C510 1.465 1_554 S
C505 C500 1.399 . S
C505 C504 1.394 1_455 S
C505 C506 1.516 1_454 S
C506 C505 1.516 1_656 S
C506 C507 1.502 1_655 S
C506 C508 1.561 . S
C506 C509 1.526 . S
C507 H491 0.959 . S
C507 H492 0.959 . S
C507 H493 0.961 . S
C507 C506 1.502 1_455 S
C508 H494 0.960 . S
C508 H495 0.961 . S
C508 H496 0.959 . S
C508 C506 1.561 . S
C509 C506 1.526 . S
C509 C510 1.396 . S
C509 C514 1.390 . S
C510 C504 1.465 1_556 S
C510 C509 1.396 . S
C510 C511 1.399 . S
C511 H497 0.925 1_556 S
C511 C510 1.399 . S
C511 C512 1.389 . S
C512 H498 0.931 . S
C512 C511 1.389 . S
C512 C513 1.389 . S
C513 C512 1.389 . S
C513 C514 1.387 . S
C514 H499 0.930 . S
C514 C509 1.390 . S
C514 C513 1.387 . S
H515 C527 0.930 . S
H516 C529 0.930 . S
H517 C530 0.930 . S
H518 C534 0.959 . S
H519 C534 0.959 . S
H520 C534 0.961 . S
H521 C535 0.960 . S
H522 C535 0.961 . S
H523 C535 0.959 . S
H524 C538 0.929 1_554 S
H525 C539 0.931 . S
H526 C541 0.930 . S
C527 H515 0.930 . S
C527 C528 1.399 . S
C527 C532 1.399 . S
C528 C527 1.399 . S
C528 C529 1.376 . S
C529 H516 0.930 . S
C529 C528 1.376 . S
C529 C530 1.388 . S
C530 H517 0.930 . S
C530 C529 1.388 . S
C530 C531 1.390 . S
C531 C530 1.390 . S
C531 C532 1.394 . S
C531 C537 1.465 1_554 S
C532 C527 1.399 . S
C532 C531 1.394 . S
C532 C533 1.516 1_554 S
C533 C532 1.516 1_556 S
C533 C534 1.502 . S
C533 C535 1.561 . S
C533 C536 1.526 . S
C534 H518 0.959 . S
C534 H519 0.959 . S
C534 H520 0.961 . S
C534 C533 1.502 . S
C535 H521 0.960 . S
C535 H522 0.961 . S
C535 H523 0.959 . S
C535 C533 1.561 . S
C536 C533 1.526 . S
C536 C537 1.396 . S
C536 C541 1.390 . S
C537 C531 1.465 1_556 S
C537 C536 1.396 . S
C537 C538 1.399 . S
C538 H524 0.929 1_556 S
C538 C537 1.399 . S
C538 C539 1.385 . S
C539 H525 0.931 . S
C539 C538 1.385 . S
C539 C540 1.389 . S
C540 C539 1.389 . S
C540 C541 1.387 . S
C541 H526 0.930 . S
C541 C536 1.390 . S
C541 C540 1.387 . S
H542 C554 0.930 . S
H543 C556 0.930 . S
H544 C557 0.930 1_565 S
H545 C561 0.959 . S
H546 C561 0.959 . S
H547 C561 0.961 . S
H548 C562 0.960 . S
H549 C562 0.961 . S
H550 C562 0.959 . S
H551 C565 0.929 . S
H552 C566 0.931 . S
H553 C568 0.930 . S
C554 H542 0.930 . S
C554 C555 1.399 . S
C554 C559 1.399 . S
C555 C554 1.399 . S
C555 C556 1.376 . S
C556 H543 0.930 . S
C556 C555 1.376 . S
C556 C557 1.388 . S
C557 H544 0.930 1_545 S
C557 C556 1.388 . S
C557 C558 1.390 . S
C558 C557 1.390 . S
C558 C559 1.394 . S
C558 C564 1.465 1_545 S
C559 C554 1.399 . S
C559 C558 1.394 . S
C559 C560 1.516 . S
C560 C559 1.516 . S
C560 C561 1.502 . S
C560 C562 1.561 . S
C560 C563 1.526 1_545 S
C561 H545 0.959 . S
C561 H546 0.959 . S
C561 H547 0.961 . S
C561 C560 1.502 . S
C562 H548 0.960 . S
C562 H549 0.961 . S
C562 H550 0.959 . S
C562 C560 1.561 . S
C563 C560 1.526 1_565 S
C563 C564 1.396 . S
C563 C568 1.390 . S
C564 C558 1.465 1_565 S
C564 C563 1.396 . S
C564 C565 1.399 . S
C565 H551 0.929 . S
C565 C564 1.399 . S
C565 C566 1.385 . S
C566 H552 0.931 . S
C566 C565 1.385 . S
C566 C567 1.389 . S
C567 C566 1.389 . S
C567 C568 1.387 . S
C568 H553 0.930 . S
C568 C563 1.390 . S
C568 C567 1.387 . S
H569 C581 0.930 . S
H570 C583 0.930 . S
H571 C584 0.930 . S
H572 C588 0.959 . S
H573 C588 0.959 . S
H574 C588 0.961 . S
H575 C589 0.960 . S
H576 C589 0.961 . S
H577 C589 0.959 1_565 S
H578 C592 0.929 1_565 S
H579 C593 0.931 . S
H580 C595 0.930 . S
C581 H569 0.930 . S
C581 C582 1.399 . S
C581 C586 1.399 . S
C582 C581 1.399 . S
C582 C583 1.376 1_655 S
C583 H570 0.930 . S
C583 C582 1.376 1_455 S
C583 C584 1.388 . S
C584 H571 0.930 . S
C584 C583 1.388 . S
C584 C585 1.390 . S
C585 C584 1.390 . S
C585 C586 1.394 1_455 S
C585 C591 1.465 1_565 S
C586 C581 1.399 . S
C586 C585 1.394 1_655 S
C586 C587 1.516 1_565 S
C587 C586 1.516 1_545 S
C587 C588 1.502 . S
C587 C589 1.561 . S
C587 C590 1.526 . S
C588 H572 0.959 . S
C588 H573 0.959 . S
C588 H574 0.961 . S
C588 C587 1.502 . S
C589 H575 0.960 . S
C589 H576 0.961 . S
C589 H577 0.959 1_545 S
C589 C587 1.561 . S
C590 C587 1.526 . S
C590 C591 1.396 1_655 S
C590 C595 1.390 . S
C591 C585 1.465 1_545 S
C591 C590 1.396 1_455 S
C591 C592 1.399 . S
C592 H578 0.929 1_545 S
C592 C591 1.399 . S
C592 C593 1.385 . S
C593 H579 0.931 . S
C593 C592 1.385 . S
C593 C594 1.389 . S
C594 C593 1.389 . S
C594 C595 1.387 1_455 S
C595 H580 0.930 . S
C595 C590 1.390 . S
C595 C594 1.387 1_655 S
H596 C608 0.930 . S
H597 C610 0.930 . S
H598 C611 0.930 1_556 S
H599 C615 0.959 . S
H600 C615 0.959 . S
H601 C615 0.961 . S
H602 C616 0.960 . S
H603 C616 0.961 . S
H604 C616 0.959 . S
H605 C619 0.929 . S
H606 C620 0.931 . S
H607 C622 0.930 . S
C608 H596 0.930 . S
C608 C609 1.399 . S
C608 C613 1.399 . S
C609 C608 1.399 . S
C609 C610 1.376 . S
C610 H597 0.930 . S
C610 C609 1.376 . S
C610 C611 1.388 . S
C611 H598 0.930 1_554 S
C611 C610 1.388 . S
C611 C612 1.390 1_554 S
C612 C611 1.390 1_556 S
C612 C613 1.389 1_556 S
C612 C618 1.468 . S
C613 C608 1.399 . S
C613 C612 1.389 1_554 S
C613 C614 1.516 . S
C614 C613 1.516 . S
C614 C615 1.502 . S
C614 C616 1.561 1_554 S
C614 C617 1.526 1_554 S
C615 H599 0.959 . S
C615 H600 0.959 . S
C615 H601 0.961 . S
C615 C614 1.502 . S
C616 H602 0.960 . S
C616 H603 0.961 . S
C616 H604 0.959 . S
C616 C614 1.561 1_556 S
C617 C614 1.526 1_556 S
C617 C618 1.396 . S
C617 C622 1.390 . S
C618 C612 1.468 . S
C618 C617 1.396 . S
C618 C619 1.399 . S
C619 H605 0.929 . S
C619 C618 1.399 . S
C619 C620 1.385 . S
C620 H606 0.931 . S
C620 C619 1.385 . S
C620 C621 1.389 . S
C621 C620 1.389 . S
C621 C622 1.387 . S
C622 H607 0.930 . S
C622 C617 1.390 . S
C622 C621 1.387 . S
H623 C635 0.930 . S
H624 C637 0.930 . S
H625 C638 0.930 . S
H626 C642 0.959 . S
H627 C642 0.959 . S
H628 C642 0.961 . S
H629 C643 0.960 . S
H630 C643 0.961 . S
H631 C643 0.959 . S
H632 C646 0.929 . S
H633 C647 0.931 . S
H634 C649 0.930 1_554 S
C635 H623 0.930 . S
C635 C636 1.399 . S
C635 C640 1.399 . S
C636 C635 1.399 . S
C636 C637 1.376 1_554 S
C637 H624 0.930 . S
C637 C636 1.376 1_556 S
C637 C638 1.388 . S
C638 H625 0.930 . S
C638 C637 1.388 . S
C638 C639 1.390 . S
C639 C638 1.390 . S
C639 C640 1.394 1_556 S
C639 C645 1.465 . S
C640 C635 1.399 . S
C640 C639 1.394 1_554 S
C640 C641 1.516 . S
C641 C640 1.516 . S
C641 C642 1.502 . S
C641 C643 1.561 . S
C641 C644 1.526 . S
C642 H626 0.959 . S
C642 H627 0.959 . S
C642 H628 0.961 . S
C642 C641 1.502 . S
C643 H629 0.960 . S
C643 H630 0.961 . S
C643 H631 0.959 . S
C643 C641 1.561 . S
C644 C641 1.526 . S
C644 C645 1.396 1_554 S
C644 C649 1.390 1_554 S
C645 C639 1.465 . S
C645 C644 1.396 1_556 S
C645 C646 1.399 . S
C646 H632 0.929 . S
C646 C645 1.399 . S
C646 C647 1.385 . S
C647 H633 0.931 . S
C647 C646 1.385 . S
C647 C648 1.389 . S
C648 C647 1.389 . S
C648 C649 1.387 . S
C649 H634 0.930 1_556 S
C649 C644 1.390 1_556 S
C649 C648 1.387 . S
H650 C662 0.930 . S
H651 C664 0.930 . S
H652 C665 0.930 . S
H653 C669 0.959 . S
H654 C669 0.959 . S
H655 C669 0.961 . S
H656 C670 0.960 . S
H657 C670 0.961 . S
H658 C670 0.959 . S
H659 C673 0.929 . S
H660 C674 0.931 . S
H661 C676 0.930 . S
C662 H650 0.930 . S
C662 C663 1.399 . S
C662 C667 1.399 . S
C663 C662 1.399 . S
C663 C664 1.376 . S
C664 H651 0.930 . S
C664 C663 1.376 . S
C664 C665 1.388 . S
C665 H652 0.930 . S
C665 C664 1.388 . S
C665 C666 1.390 . S
C666 C665 1.390 . S
C666 C667 1.394 . S
C666 C672 1.465 . S
C667 C662 1.399 . S
C667 C666 1.394 . S
C667 C668 1.516 . S
C668 C667 1.516 . S
C668 C669 1.502 . S
C668 C670 1.561 . S
C668 C671 1.526 . S
C669 H653 0.959 . S
C669 H654 0.959 . S
C669 H655 0.961 . S
C669 C668 1.502 . S
C670 H656 0.960 . S
C670 H657 0.961 . S
C670 H658 0.959 . S
C670 C668 1.561 . S
C671 C668 1.526 . S
C671 C672 1.396 . S
C671 C676 1.390 . S
C672 C666 1.465 . S
C672 C671 1.396 . S
C672 C673 1.399 . S
C673 H659 0.929 . S
C673 C672 1.399 . S
C673 C674 1.385 . S
C674 H660 0.931 . S
C674 C673 1.385 . S
C674 C675 1.389 . S
C675 C674 1.389 . S
C675 C676 1.387 . S
C676 H661 0.930 . S
C676 C671 1.390 . S
C676 C675 1.387 . S
H677 C689 0.930 . S
H678 C691 0.930 . S
H679 C692 0.930 . S
H680 C696 0.959 . S
H681 C696 0.959 . S
H682 C696 0.961 . S
H683 C697 0.960 . S
H684 C697 0.961 . S
H685 C697 0.959 . S
H686 C700 0.929 . S
H687 C701 0.931 . S
H688 C703 0.930 . S
C689 H677 0.930 . S
C689 C690 1.399 . S
C689 C694 1.399 . S
C690 C689 1.399 . S
C690 C691 1.376 . S
C691 H678 0.930 . S
C691 C690 1.376 . S
C691 C692 1.388 . S
C692 H679 0.930 . S
C692 C691 1.388 . S
C692 C693 1.390 . S
C693 C692 1.390 . S
C693 C694 1.394 . S
C693 C699 1.465 . S
C694 C689 1.399 . S
C694 C693 1.394 . S
C694 C695 1.516 . S
C695 C694 1.516 . S
C695 C696 1.502 . S
C695 C697 1.561 . S
C695 C698 1.526 . S
C696 H680 0.959 . S
C696 H681 0.959 . S
C696 H682 0.961 . S
C696 C695 1.502 . S
C697 H683 0.960 . S
C697 H684 0.961 . S
C697 H685 0.959 . S
C697 C695 1.561 . S
C698 C695 1.526 . S
C698 C699 1.396 . S
C698 C703 1.390 . S
C699 C693 1.465 . S
C699 C698 1.396 . S
C699 C700 1.399 . S
C700 H686 0.929 . S
C700 C699 1.399 . S
C700 C701 1.385 . S
C701 H687 0.931 . S
C701 C700 1.385 . S
C701 C702 1.389 . S
C702 C701 1.389 . S
C702 C703 1.387 . S
C703 H688 0.930 . S
C703 C698 1.390 . S
C703 C702 1.387 . S
H704 C716 0.930 . S
H705 C718 0.930 . S
H706 C719 0.930 . S
H707 C723 0.959 . S
H708 C723 0.959 . S
H709 C723 0.961 . S
H710 C724 0.960 . S
H711 C724 0.961 . S
H712 C724 0.959 . S
H713 C727 0.929 . S
H714 C728 0.931 . S
H715 C730 0.930 . S
C716 H704 0.930 . S
C716 C717 1.399 . S
C716 C721 1.399 . S
C717 C716 1.399 . S
C717 C718 1.376 . S
C718 H705 0.930 . S
C718 C717 1.376 . S
C718 C719 1.388 . S
C719 H706 0.930 . S
C719 C718 1.388 . S
C719 C720 1.390 . S
C720 C719 1.390 . S
C720 C721 1.394 . S
C720 C726 1.465 . S
C721 C716 1.399 . S
C721 C720 1.394 . S
C721 C722 1.516 . S
C722 C721 1.516 . S
C722 C723 1.502 . S
C722 C724 1.561 . S
C722 C725 1.526 . S
C723 H707 0.959 . S
C723 H708 0.959 . S
C723 H709 0.961 . S
C723 C722 1.502 . S
C724 H710 0.960 . S
C724 H711 0.961 . S
C724 H712 0.959 . S
C724 C722 1.561 . S
C725 C722 1.526 . S
C725 C726 1.396 . S
C725 C730 1.390 . S
C726 C720 1.465 . S
C726 C725 1.396 . S
C726 C727 1.399 . S
C727 H713 0.929 . S
C727 C726 1.399 . S
C727 C728 1.385 . S
C728 H714 0.931 . S
C728 C727 1.385 . S
C728 C729 1.389 . S
C729 C728 1.389 . S
C729 C730 1.387 . S
C730 H715 0.930 . S
C730 C725 1.390 . S
C730 C729 1.387 . S
H731 C743 0.930 . S
H732 C745 0.930 . S
H733 C746 0.930 . S
H734 C750 0.959 . S
H735 C750 0.959 . S
H736 C750 0.961 . S
H737 C751 0.960 . S
H738 C751 0.961 . S
H739 C751 0.959 . S
H740 C754 0.929 . S
H741 C755 0.931 . S
H742 C757 0.930 . S
C743 H731 0.930 . S
C743 C744 1.399 . S
C743 C748 1.399 . S
C744 C743 1.399 . S
C744 C745 1.376 . S
C745 H732 0.930 . S
C745 C744 1.376 . S
C745 C746 1.388 . S
C746 H733 0.930 . S
C746 C745 1.388 . S
C746 C747 1.390 . S
C747 C746 1.390 . S
C747 C748 1.394 . S
C747 C753 1.465 . S
C748 C743 1.399 . S
C748 C747 1.394 . S
C748 C749 1.516 . S
C749 C748 1.516 . S
C749 C750 1.502 . S
C749 C751 1.561 . S
C749 C752 1.526 . S
C750 H734 0.959 . S
C750 H735 0.959 . S
C750 H736 0.961 . S
C750 C749 1.502 . S
C751 H737 0.960 . S
C751 H738 0.961 . S
C751 H739 0.959 . S
C751 C749 1.561 . S
C752 C749 1.526 . S
C752 C753 1.396 . S
C752 C757 1.390 . S
C753 C747 1.465 . S
C753 C752 1.396 . S
C753 C754 1.399 . S
C754 H740 0.929 . S
C754 C753 1.399 . S
C754 C755 1.385 . S
C755 H741 0.931 . S
C755 C754 1.385 . S
C755 C756 1.389 . S
C756 C755 1.389 . S
C756 C757 1.387 . S
C757 H742 0.930 . S
C757 C752 1.390 . S
C757 C756 1.387 . S
H758 C770 0.930 . S
H759 C772 0.930 . S
H760 C773 0.930 . S
H761 C777 0.959 . S
H762 C777 0.959 . S
H763 C777 0.961 . S
H764 C778 0.960 . S
H765 C778 0.961 . S
H766 C778 0.959 . S
H767 C781 0.929 . S
H768 C782 0.931 . S
H769 C784 0.930 . S
C770 H758 0.930 . S
C770 C771 1.399 . S
C770 C775 1.399 . S
C771 C770 1.399 . S
C771 C772 1.376 . S
C772 H759 0.930 . S
C772 C771 1.376 . S
C772 C773 1.388 . S
C773 H760 0.930 . S
C773 C772 1.388 . S
C773 C774 1.390 . S
C774 C773 1.390 . S
C774 C775 1.394 . S
C774 C780 1.465 . S
C775 C770 1.399 . S
C775 C774 1.394 . S
C775 C776 1.516 . S
C776 C775 1.516 . S
C776 C777 1.502 . S
C776 C778 1.561 . S
C776 C779 1.526 . S
C777 H761 0.959 . S
C777 H762 0.959 . S
C777 H763 0.961 . S
C777 C776 1.502 . S
C778 H764 0.960 . S
C778 H765 0.961 . S
C778 H766 0.959 . S
C778 C776 1.561 . S
C779 C776 1.526 . S
C779 C780 1.396 . S
C779 C784 1.390 . S
C780 C774 1.465 . S
C780 C779 1.396 . S
C780 C781 1.399 . S
C781 H767 0.929 . S
C781 C780 1.399 . S
C781 C782 1.385 . S
C782 H768 0.931 . S
C782 C781 1.385 . S
C782 C783 1.389 . S
C783 C782 1.389 . S
C783 C784 1.387 . S
C784 H769 0.930 . S
C784 C779 1.390 . S
C784 C783 1.387 . S
H785 C797 0.930 . S
H786 C799 0.930 . S
H787 C800 0.930 . S
H788 C804 0.959 . S
H789 C804 0.959 . S
H790 C804 0.961 . S
H791 C805 0.960 . S
H792 C805 0.961 . S
H793 C805 0.959 . S
H794 C808 0.929 . S
H795 C809 0.931 . S
H796 C811 0.930 . S
C797 H785 0.930 . S
C797 C798 1.399 . S
C797 C802 1.399 . S
C798 C797 1.399 . S
C798 C799 1.376 . S
C799 H786 0.930 . S
C799 C798 1.376 . S
C799 C800 1.388 . S
C800 H787 0.930 . S
C800 C799 1.388 . S
C800 C801 1.390 . S
C801 C800 1.390 . S
C801 C802 1.394 . S
C801 C807 1.465 . S
C802 C797 1.399 . S
C802 C801 1.394 . S
C802 C803 1.516 . S
C803 C802 1.516 . S
C803 C804 1.502 . S
C803 C805 1.561 . S
C803 C806 1.526 . S
C804 H788 0.959 . S
C804 H789 0.959 . S
C804 H790 0.961 . S
C804 C803 1.502 . S
C805 H791 0.960 . S
C805 H792 0.961 . S
C805 H793 0.959 . S
C805 C803 1.561 . S
C806 C803 1.526 . S
C806 C807 1.396 . S
C806 C811 1.390 . S
C807 C801 1.465 . S
C807 C806 1.396 . S
C807 C808 1.399 . S
C808 H794 0.929 . S
C808 C807 1.399 . S
C808 C809 1.385 . S
C809 H795 0.931 . S
C809 C808 1.385 . S
C809 C810 1.389 . S
C810 C809 1.389 . S
C810 C811 1.387 . S
C811 H796 0.930 . S
C811 C806 1.390 . S
C811 C810 1.387 . S
H812 C824 0.930 . S
H813 C826 0.930 . S
H814 C827 0.930 . S
H815 C831 0.959 . S
H816 C831 0.959 . S
H817 C831 0.961 . S
H818 C832 0.960 . S
H819 C832 0.961 . S
H820 C832 0.959 . S
H821 C835 0.929 . S
H822 C836 0.931 . S
H823 C838 0.930 . S
C824 H812 0.930 . S
C824 C825 1.399 . S
C824 C829 1.399 . S
C825 C824 1.399 . S
C825 C826 1.376 . S
C826 H813 0.930 . S
C826 C825 1.376 . S
C826 C827 1.388 . S
C827 H814 0.930 . S
C827 C826 1.388 . S
C827 C828 1.390 . S
C828 C827 1.390 . S
C828 C829 1.394 . S
C828 C834 1.465 . S
C829 C824 1.399 . S
C829 C828 1.394 . S
C829 C830 1.516 . S
C830 C829 1.516 . S
C830 C831 1.502 . S
C830 C832 1.561 1_455 S
C830 C833 1.526 . S
C831 H815 0.959 . S
C831 H816 0.959 . S
C831 H817 0.961 . S
C831 C830 1.502 . S
C832 H818 0.960 . S
C832 H819 0.961 . S
C832 H820 0.959 . S
C832 C830 1.561 1_655 S
C833 C830 1.526 . S
C833 C834 1.396 . S
C833 C838 1.390 . S
C834 C828 1.465 . S
C834 C833 1.396 . S
C834 C835 1.399 . S
C835 H821 0.929 . S
C835 C834 1.399 . S
C835 C836 1.385 1_556 S
C836 H822 0.931 . S
C836 C835 1.385 1_554 S
C836 C837 1.389 . S
C837 C836 1.389 . S
C837 C838 1.387 1_554 S
C838 H823 0.930 . S
C838 C833 1.390 . S
C838 C837 1.387 1_556 S
H839 C851 0.930 . S
H840 C853 0.930 . S
H841 C854 0.930 . S
H842 C858 0.959 . S
H843 C858 0.959 . S
H844 C858 0.961 . S
H845 C859 0.960 . S
H846 C859 0.961 . S
H847 C859 0.959 . S
H848 C862 0.929 . S
H849 C863 0.931 . S
H850 C865 0.930 . S
C851 H839 0.930 . S
C851 C852 1.399 . S
C851 C856 1.399 . S
C852 C851 1.399 . S
C852 C853 1.376 . S
C853 H840 0.930 . S
C853 C852 1.376 . S
C853 C854 1.388 . S
C854 H841 0.930 . S
C854 C853 1.388 . S
C854 C855 1.390 . S
C855 C854 1.390 . S
C855 C856 1.394 . S
C855 C861 1.465 . S
C856 C851 1.399 . S
C856 C855 1.394 . S
C856 C857 1.516 . S
C857 C856 1.516 . S
C857 C858 1.502 . S
C857 C859 1.561 . S
C857 C860 1.526 . S
C858 H842 0.959 . S
C858 H843 0.959 . S
C858 H844 0.961 . S
C858 C857 1.502 . S
C859 H845 0.960 . S
C859 H846 0.961 . S
C859 H847 0.959 . S
C859 C857 1.561 . S
C860 C857 1.526 . S
C860 C861 1.396 . S
C860 C865 1.390 1_554 S
C861 C855 1.465 . S
C861 C860 1.396 . S
C861 C862 1.399 . S
C862 H848 0.929 . S
C862 C861 1.399 . S
C862 C863 1.385 1_554 S
C863 H849 0.931 . S
C863 C862 1.385 1_556 S
C863 C864 1.389 . S
C864 C863 1.389 . S
C864 C865 1.387 . S
C865 H850 0.930 . S
C865 C860 1.390 1_556 S
C865 C864 1.387 . S
H866 C878 0.930 . S
H867 C880 0.930 . S
H868 C881 0.930 . S
H869 C885 0.959 . S
H870 C885 0.959 . S
H871 C885 0.961 . S
H872 C886 0.960 . S
H873 C886 0.961 . S
H874 C886 0.959 . S
H875 C889 0.929 . S
H876 C890 0.931 . S
H877 C892 0.930 . S
C878 H866 0.930 . S
C878 C879 1.399 . S
C878 C883 1.399 1_556 S
C879 C878 1.399 . S
C879 C880 1.376 1_655 S
C880 H867 0.930 . S
C880 C879 1.376 1_455 S
C880 C881 1.388 1_556 S
C881 H868 0.930 . S
C881 C880 1.388 1_554 S
C881 C882 1.390 1_455 S
C882 C881 1.390 1_655 S
C882 C883 1.394 . S
C882 C888 1.465 . S
C883 C878 1.399 1_554 S
C883 C882 1.394 . S
C883 C884 1.516 . S
C884 C883 1.516 . S
C884 C885 1.502 . S
C884 C886 1.561 . S
C884 C887 1.526 . S
C885 H869 0.959 . S
C885 H870 0.959 . S
C885 H871 0.961 . S
C885 C884 1.502 . S
C886 H872 0.960 . S
C886 H873 0.961 . S
C886 H874 0.959 . S
C886 C884 1.561 . S
C887 C884 1.526 . S
C887 C888 1.396 . S
C887 C892 1.390 . S
C888 C882 1.465 . S
C888 C887 1.396 . S
C888 C889 1.399 1_655 S
C889 H875 0.929 . S
C889 C888 1.399 1_455 S
C889 C890 1.385 . S
C890 H876 0.931 . S
C890 C889 1.385 . S
C890 C891 1.389 1_455 S
C891 C890 1.389 1_655 S
C891 C892 1.387 . S
C892 H877 0.930 . S
C892 C887 1.390 . S
C892 C891 1.387 . S
H893 C905 0.930 . S
H894 C907 0.930 . S
H895 C908 0.930 . S
H896 C912 0.959 . S
H897 C912 0.959 . S
H898 C912 0.961 . S
H899 C913 0.960 . S
H900 C913 0.961 . S
H901 C913 0.959 . S
H902 C916 0.929 . S
H903 C917 0.931 . S
H904 C919 0.930 . S
C905 H893 0.930 . S
C905 C906 1.399 1_556 S
C905 C910 1.399 . S
C906 C905 1.399 1_554 S
C906 C907 1.376 . S
C907 H894 0.930 . S
C907 C906 1.376 . S
C907 C908 1.388 1_554 S
C908 H895 0.930 . S
C908 C907 1.388 1_556 S
C908 C909 1.390 . S
C909 C908 1.390 . S
C909 C910 1.394 . S
C909 C915 1.465 . S
C910 C905 1.399 . S
C910 C909 1.394 . S
C910 C911 1.516 . S
C911 C910 1.516 . S
C911 C912 1.502 . S
C911 C913 1.561 . S
C911 C914 1.526 . S
C912 H896 0.959 . S
C912 H897 0.959 . S
C912 H898 0.961 . S
C912 C911 1.502 . S
C913 H899 0.960 . S
C913 H900 0.961 . S
C913 H901 0.959 . S
C913 C911 1.561 . S
C914 C911 1.526 . S
C914 C915 1.396 . S
C914 C919 1.390 . S
C915 C909 1.465 . S
C915 C914 1.396 . S
C915 C916 1.399 . S
C916 H902 0.929 . S
C916 C915 1.399 . S
C916 C917 1.385 . S
C917 H903 0.931 . S
C917 C916 1.385 . S
C917 C918 1.389 . S
C918 C917 1.389 . S
C918 C919 1.387 . S
C919 H904 0.930 . S
C919 C914 1.390 . S
C919 C918 1.387 . S
H920 C932 0.930 . S
H921 C934 0.930 . S
H922 C935 0.930 . S
H923 C939 0.959 . S
H924 C939 0.959 . S
H925 C939 0.961 . S
H926 C940 0.960 . S
H927 C940 0.961 . S
H928 C940 0.959 . S
H929 C943 0.929 . S
H930 C944 0.931 . S
H931 C946 0.930 . S
C932 H920 0.930 . S
C932 C933 1.399 . S
C932 C937 1.399 . S
C933 C932 1.399 . S
C933 C934 1.376 . S
C934 H921 0.930 . S
C934 C933 1.376 . S
C934 C935 1.388 . S
C935 H922 0.930 . S
C935 C934 1.388 . S
C935 C936 1.390 . S
C936 C935 1.390 . S
C936 C937 1.394 . S
C936 C942 1.465 . S
C937 C932 1.399 . S
C937 C936 1.394 . S
C937 C938 1.516 . S
C938 C937 1.516 . S
C938 C939 1.502 . S
C938 C940 1.561 . S
C938 C941 1.526 . S
C939 H923 0.959 . S
C939 H924 0.959 . S
C939 H925 0.961 . S
C939 C938 1.502 . S
C940 H926 0.960 . S
C940 H927 0.961 . S
C940 H928 0.959 . S
C940 C938 1.561 . S
C941 C938 1.526 . S
C941 C942 1.396 . S
C941 C946 1.390 . S
C942 C936 1.465 . S
C942 C941 1.396 . S
C942 C943 1.399 . S
C943 H929 0.929 . S
C943 C942 1.399 . S
C943 C944 1.385 . S
C944 H930 0.931 . S
C944 C943 1.385 . S
C944 C945 1.389 . S
C945 C944 1.389 . S
C945 C946 1.387 . S
C946 H931 0.930 . S
C946 C941 1.390 . S
C946 C945 1.387 . S
H947 C959 0.930 . S
H948 C961 0.930 1_455 S
H949 C962 0.930 . S
H950 C966 0.959 . S
H951 C966 0.959 . S
H952 C966 0.961 . S
H953 C967 0.960 . S
H954 C967 0.961 . S
H955 C967 0.959 1_455 S
H956 C970 0.929 . S
H957 C971 0.937 . S
H958 C973 0.930 . S
C959 H947 0.930 . S
C959 C960 1.399 . S
C959 C964 1.399 . S
C960 C959 1.399 . S
C960 C961 1.376 . S
C961 H948 0.930 1_655 S
C961 C960 1.376 . S
C961 C962 1.388 1_655 S
C962 H949 0.930 . S
C962 C961 1.388 1_455 S
C962 C963 1.390 1_455 S
C963 C962 1.390 1_655 S
C963 C964 1.394 . S
C963 C969 1.465 . S
C964 C959 1.399 . S
C964 C963 1.394 . S
C964 C965 1.516 . S
C965 C964 1.516 . S
C965 C966 1.502 . S
C965 C967 1.561 . S
C965 C968 1.526 . S
C966 H950 0.959 . S
C966 H951 0.959 . S
C966 H952 0.961 . S
C966 C965 1.502 . S
C967 H953 0.960 . S
C967 H954 0.961 . S
C967 H955 0.959 1_655 S
C967 C965 1.561 . S
C968 C965 1.526 . S
C968 C969 1.396 . S
C968 C973 1.390 . S
C969 C963 1.465 . S
C969 C968 1.396 . S
C969 C970 1.399 1_655 S
C970 H956 0.929 . S
C970 C969 1.399 1_455 S
C970 C971 1.385 . S
C971 H957 0.937 . S
C971 C970 1.385 . S
C971 C972 1.383 1_455 S
C972 C971 1.383 1_655 S
C972 C973 1.387 . S
C973 H958 0.930 . S
C973 C968 1.390 . S
C973 C972 1.387 . S
H974 C986 0.930 . S
H975 C988 0.930 . S
H976 C989 0.930 . S
H977 C993 0.959 . S
H978 C993 0.959 . S
H979 C993 0.961 . S
H980 C994 0.960 . S
H981 C994 0.961 . S
H982 C994 0.959 . S
H983 C997 0.929 . S
H984 C998 0.931 . S
H985 C1000 0.930 . S
C986 H974 0.930 . S
C986 C987 1.399 . S
C986 C991 1.399 . S
C987 C986 1.399 . S
C987 C988 1.376 . S
C988 H975 0.930 . S
C988 C987 1.376 . S
C988 C989 1.388 . S
C989 H976 0.930 . S
C989 C988 1.388 . S
C989 C990 1.390 . S
C990 C989 1.390 . S
C990 C991 1.394 . S
C990 C996 1.465 . S
C991 C986 1.399 . S
C991 C990 1.394 . S
C991 C992 1.516 . S
C992 C991 1.516 . S
C992 C993 1.502 . S
C992 C994 1.561 . S
C992 C995 1.526 . S
C993 H977 0.959 . S
C993 H978 0.959 . S
C993 H979 0.961 . S
C993 C992 1.502 . S
C994 H980 0.960 . S
C994 H981 0.961 . S
C994 H982 0.959 . S
C994 C992 1.561 . S
C995 C992 1.526 . S
C995 C996 1.396 . S
C995 C1000 1.390 . S
C996 C990 1.465 . S
C996 C995 1.396 . S
C996 C997 1.399 . S
C997 H983 0.929 . S
C997 C996 1.399 . S
C997 C998 1.385 . S
C998 H984 0.931 . S
C998 C997 1.385 . S
C998 C999 1.389 . S
C999 C998 1.389 . S
C999 C1000 1.387 . S
C1000 H985 0.930 . S
C1000 C995 1.390 . S
C1000 C999 1.387 . S
H1001 C1013 0.930 . S
H1002 C1015 0.930 . S
H1003 C1016 0.930 . S
H1004 C1020 0.959 . S
H1005 C1020 0.959 . S
H1006 C1020 0.961 . S
H1007 C1021 0.960 . S
H1008 C1021 0.961 . S
H1009 C1021 0.959 . S
H1010 C1024 0.929 . S
H1011 C1025 0.931 . S
H1012 C1027 0.930 . S
C1013 H1001 0.930 . S
C1013 C1014 1.399 . S
C1013 C1018 1.399 . S
C1014 C1013 1.399 . S
C1014 C1015 1.376 . S
C1015 H1002 0.930 . S
C1015 C1014 1.376 . S
C1015 C1016 1.388 . S
C1016 H1003 0.930 . S
C1016 C1015 1.388 . S
C1016 C1017 1.390 . S
C1017 C1016 1.390 . S
C1017 C1018 1.394 . S
C1017 C1023 1.465 . S
C1018 C1013 1.399 . S
C1018 C1017 1.394 . S
C1018 C1019 1.516 . S
C1019 C1018 1.516 . S
C1019 C1020 1.502 . S
C1019 C1021 1.561 1_455 S
C1019 C1022 1.526 . S
C1020 H1004 0.959 . S
C1020 H1005 0.959 . S
C1020 H1006 0.961 . S
C1020 C1019 1.502 . S
C1021 H1007 0.960 . S
C1021 H1008 0.961 . S
C1021 H1009 0.959 . S
C1021 C1019 1.561 1_655 S
C1022 C1019 1.526 . S
C1022 C1023 1.396 . S
C1022 C1027 1.390 . S
C1023 C1017 1.465 . S
C1023 C1022 1.396 . S
C1023 C1024 1.399 . S
C1024 H1010 0.929 . S
C1024 C1023 1.399 . S
C1024 C1025 1.385 . S
C1025 H1011 0.931 . S
C1025 C1024 1.385 . S
C1025 C1026 1.389 . S
C1026 C1025 1.389 . S
C1026 C1027 1.387 . S
C1027 H1012 0.930 . S
C1027 C1022 1.390 . S
C1027 C1026 1.387 . S
C285 C171 1.894 . S
C297 C6 1.955 . S
C312 C139 1.892 . S
C324 C40 1.955 . S
C339 C239 1.856 . S
C351 C96 1.958 . S
C366 C130 1.956 . S
C378 C205 1.889 . S
C393 C142 1.967 . S
C405 C37 1.913 . S
C420 C3 1.856 . S
C432 C198 1.960 . S
C447 C232 1.966 . S
C459 C103 1.884 . S
C474 C266 1.967 . S
C486 C69 1.889 . S
C501 C28 0.338 . S
C513 C74 0.199 . S
C528 C108 0.375 . S
C540 C62 0.150 . S
C555 C210 0.367 . S
C567 C164 0.159 . S
C582 C176 0.148 . S
C594 C244 0.382 . S
C609 C15 2.063 . S
C621 C49 2.048 . S
C636 C124 2.068 . S
C648 C90 2.059 . S
C663 C151 2.071 . S
C675 C192 2.049 . S
C690 C260 2.048 . S
C702 C226 2.054 . S
C717 C219 1.135 . S
C729 C22 1.083 . S
C744 C56 1.040 . S
C756 C253 1.162 . S
C771 C83 1.075 . S
C783 C158 1.104 . S
C798 C117 1.127 . S
C810 C185 1.056 . S
C825 C241 1.762 . S
C837 C17 1.878 . S
C852 C207 1.785 . S
C864 C51 1.866 . S
C879 C85 1.864 . S
C891 C173 1.777 . S
C906 C119 1.876 . S
C918 C137 1.768 . S
C933 C153 1.862 . S
C945 C105 1.809 . S
C960 C71 1.760 . S
C972 C187 1.875 . S
C987 C35 1.806 . S
C999 C221 1.863 . S
C1014 C1 1.806 . S
C1026 C255 1.863 . S
