# Generated by pormake.
# Topology vma, (5)-cn, num edge types: 1
# Building blocks:
#     Node 0, Type 0, BuildingBlock: BEQFEK_clean_sbu_0, # of connection points: 5
#     Node 1, Type 0, BuildingBlock: BEQFEK_clean_sbu_0, # of connection points: 5
#     Node 2, Type 0, BuildingBlock: BEQFEK_clean_sbu_0, # of connection points: 5
#     Node 3, Type 0, BuildingBlock: BEQFEK_clean_sbu_0, # of connection points: 5
#     Node 4, Type 0, BuildingBlock: BEQFEK_clean_sbu_0, # of connection points: 5
#     Node 5, Type 0, BuildingBlock: BEQFEK_clean_sbu_0, # of connection points: 5
#     Node 6, Type 0, BuildingBlock: BEQFEK_clean_sbu_0, # of connection points: 5
#     Node 7, Type 0, BuildingBlock: BEQFEK_clean_sbu_0, # of connection points: 5
#     Edge 8, Type (0, 0), BuildingBlock: KIFKEQ_clean_linker_1, # of connection points: 2
#     Edge 9, Type (0, 0), BuildingBlock: KIFKEQ_clean_linker_1, # of connection points: 2
#     Edge 10, Type (0, 0), BuildingBlock: KIFKEQ_clean_linker_1, # of connection points: 2
#     Edge 11, Type (0, 0), BuildingBlock: KIFKEQ_clean_linker_1, # of connection points: 2
#     Edge 12, Type (0, 0), BuildingBlock: KIFKEQ_clean_linker_1, # of connection points: 2
#     Edge 13, Type (0, 0), BuildingBlock: KIFKEQ_clean_linker_1, # of connection points: 2
#     Edge 14, Type (0, 0), BuildingBlock: KIFKEQ_clean_linker_1, # of connection points: 2
#     Edge 15, Type (0, 0), BuildingBlock: KIFKEQ_clean_linker_1, # of connection points: 2
#     Edge 16, Type (0, 0), BuildingBlock: KIFKEQ_clean_linker_1, # of connection points: 2
#     Edge 17, Type (0, 0), BuildingBlock: KIFKEQ_clean_linker_1, # of connection points: 2
#     Edge 18, Type (0, 0), BuildingBlock: KIFKEQ_clean_linker_1, # of connection points: 2
#     Edge 19, Type (0, 0), BuildingBlock: KIFKEQ_clean_linker_1, # of connection points: 2
#     Edge 20, Type (0, 0), BuildingBlock: KIFKEQ_clean_linker_1, # of connection points: 2
#     Edge 21, Type (0, 0), BuildingBlock: KIFKEQ_clean_linker_1, # of connection points: 2
#     Edge 22, Type (0, 0), BuildingBlock: KIFKEQ_clean_linker_1, # of connection points: 2
#     Edge 23, Type (0, 0), BuildingBlock: KIFKEQ_clean_linker_1, # of connection points: 2
#     Edge 24, Type (0, 0), BuildingBlock: KIFKEQ_clean_linker_1, # of connection points: 2
#     Edge 25, Type (0, 0), BuildingBlock: KIFKEQ_clean_linker_1, # of connection points: 2
#     Edge 26, Type (0, 0), BuildingBlock: KIFKEQ_clean_linker_1, # of connection points: 2
#     Edge 27, Type (0, 0), BuildingBlock: KIFKEQ_clean_linker_1, # of connection points: 2
# Relax obj value: 0.013
# Max RMSD: 0.085
# Mean RMSD: 0.085
data_MOF--net-vma--node1-BEQFEK_clean_sbu_0--edge1-KIFKEQ_clean_linker_1
_symmetry_space_group_name_H-M    P1
_symmetry_Int_Tables_number       1
_symmetry_cell_setting            triclinic
loop_
_symmetry_equiv_pos_as_xyz
'x, y, z'
_cell_length_a     37.933158
_cell_length_b     29.769165
_cell_length_c     43.137625
_cell_angle_alpha  90.048507
_cell_angle_beta   97.536231
_cell_angle_gamma 90.011307
loop_
_atom_site_label
_atom_site_type_symbol
_atom_site_fract_x
_atom_site_fract_y
_atom_site_fract_z
_atom_type_partial_charge
Co0 Co 0.37686 0.11659 0.37162 0.0
Co1 Co 0.32266 0.16876 0.32351 0.0
C2 C 0.40156 0.16881 0.31957 0.0
O3 O 0.40824 0.1451 0.34417 0.0
O4 O 0.3698 0.18002 0.30912 0.0
C5 C 0.43969 0.08276 0.40964 0.0
O6 O 0.45675 0.09918 0.3876 0.0
C7 C 0.29275 0.25069 0.29369 0.0
C8 C 0.24015 0.22817 0.27099 0.0
C9 C 0.26197 0.26568 0.27556 0.0
N10 N 0.28913 0.20666 0.29939 0.0
N11 N 0.25772 0.19331 0.28563 0.0
C12 C 0.32419 0.27774 0.30753 0.0
H13 H 0.33828 0.26052 0.32838 0.0
H14 H 0.3158 0.31176 0.31416 0.0
H15 H 0.34299 0.28118 0.29002 0.0
C16 C 0.34097 0.16919 0.41633 0.0
N17 N 0.34633 0.15896 0.38691 0.0
N18 N 0.3232 0.18084 0.36706 0.0
C19 C 0.30215 0.20563 0.3834 0.0
C20 C 0.31279 0.19907 0.41515 0.0
C21 C 0.36214 0.14988 0.44494 0.0
H22 H 0.39092 0.15332 0.44315 0.0
H23 H 0.35617 0.16691 0.46654 0.0
H24 H 0.35606 0.11353 0.44638 0.0
O25 O 0.34861 0.06893 0.34786 0.0
O26 O 0.30896 0.10499 0.31437 0.0
H27 H 0.25504 0.21099 0.35025 0.0
H28 H 0.25253 0.2403 0.3866 0.0
C29 C 0.27022 0.23129 0.36901 0.0
H30 H 0.27905 0.26261 0.35846 0.0
H31 H 0.24815 0.16051 0.28651 0.0
O32 O 0.40608 0.08674 0.40726 0.0
C33 C 0.32249 0.06855 0.32603 0.0
Co34 Co 0.6292 0.11965 0.13698 0.0
Co35 Co 0.68028 0.17471 0.18651 0.0
C36 C 0.60128 0.16874 0.18915 0.0
O37 O 0.59607 0.14455 0.16461 0.0
O38 O 0.63234 0.18231 0.19986 0.0
C39 C 0.5689 0.09868 0.09143 0.0
O40 O 0.55282 0.12951 0.10626 0.0
C41 C 0.70855 0.25796 0.21768 0.0
C42 C 0.76185 0.23618 0.23906 0.0
C43 C 0.73959 0.27336 0.2355 0.0
N44 N 0.71276 0.21424 0.21096 0.0
N45 N 0.74465 0.20146 0.2239 0.0
C46 C 0.67504 0.28353 0.20756 0.0
H47 H 0.65265 0.26058 0.20005 0.0
H48 H 0.67882 0.305 0.18726 0.0
H49 H 0.66823 0.3052 0.22687 0.0
C50 C 0.66402 0.17601 0.09354 0.0
N51 N 0.65804 0.1649 0.12267 0.0
N52 N 0.68039 0.18702 0.14312 0.0
C53 C 0.70174 0.21236 0.1275 0.0
C54 C 0.6918 0.2065 0.09565 0.0
C55 C 0.64576 0.15452 0.06441 0.0
H56 H 0.6506 0.11776 0.06544 0.0
H57 H 0.61668 0.16007 0.063 0.0
H58 H 0.65533 0.16837 0.04313 0.0
O59 O 0.65974 0.07328 0.16014 0.0
O60 O 0.69543 0.11162 0.19581 0.0
H61 H 0.74942 0.21757 0.15988 0.0
H62 H 0.74939 0.25168 0.12515 0.0
C63 C 0.73286 0.23887 0.14262 0.0
H64 H 0.7231 0.26786 0.15518 0.0
H65 H 0.75474 0.16907 0.22223 0.0
O66 O 0.60127 0.0894 0.10073 0.0
C67 C 0.68465 0.07457 0.18304 0.0
Co68 Co 0.63129 0.89525 0.6389 0.0
Co69 Co 0.68125 0.83851 0.68768 0.0
C70 C 0.60221 0.84324 0.68924 0.0
O71 O 0.59763 0.86887 0.66545 0.0
O72 O 0.63306 0.82905 0.7 0.0
C73 C 0.57267 0.91419 0.59158 0.0
O74 O 0.55884 0.878 0.60257 0.0
C75 C 0.70969 0.75436 0.71664 0.0
C76 C 0.75784 0.77816 0.74651 0.0
C77 C 0.73795 0.73998 0.73807 0.0
N78 N 0.71294 0.79891 0.71251 0.0
N79 N 0.74185 0.81286 0.73036 0.0
C80 C 0.67872 0.72706 0.70208 0.0
H81 H 0.65703 0.74903 0.69108 0.0
H82 H 0.68719 0.70499 0.68372 0.0
H83 H 0.66888 0.70528 0.71998 0.0
C84 C 0.66784 0.84218 0.59476 0.0
N85 N 0.66086 0.85126 0.62393 0.0
N86 N 0.68249 0.82779 0.64413 0.0
C87 C 0.7041 0.80311 0.62829 0.0
C88 C 0.69537 0.81129 0.59651 0.0
C89 C 0.6493 0.86408 0.56592 0.0
H90 H 0.65359 0.90093 0.56748 0.0
H91 H 0.62034 0.85772 0.56442 0.0
H92 H 0.65885 0.85107 0.54441 0.0
O93 O 0.66129 0.94101 0.663 0.0
O94 O 0.69613 0.9015 0.69848 0.0
H95 H 0.74906 0.79521 0.6636 0.0
H96 H 0.75439 0.76945 0.62652 0.0
C97 C 0.73526 0.77658 0.64328 0.0
H98 H 0.72573 0.74418 0.65168 0.0
H99 H 0.75037 0.84621 0.73188 0.0
O100 O 0.60341 0.92706 0.60355 0.0
C101 C 0.68578 0.93897 0.68618 0.0
Co102 Co 0.37686 0.89257 0.87106 0.0
Co103 Co 0.32218 0.84126 0.82262 0.0
C104 C 0.40115 0.84197 0.81814 0.0
O105 O 0.40803 0.86499 0.84309 0.0
O106 O 0.36932 0.8309 0.80767 0.0
C107 C 0.43611 0.94002 0.90455 0.0
O108 O 0.44824 0.9402 0.87739 0.0
C109 C 0.2927 0.76174 0.78854 0.0
C110 C 0.23576 0.77894 0.77784 0.0
C111 C 0.26014 0.74503 0.77503 0.0
N112 N 0.2878 0.8036 0.79889 0.0
N113 N 0.25377 0.8139 0.79208 0.0
C114 C 0.32722 0.73694 0.79446 0.0
H115 H 0.3427 0.7487 0.8166 0.0
H116 H 0.32277 0.70016 0.79564 0.0
H117 H 0.34298 0.74391 0.77506 0.0
C118 C 0.34241 0.83766 0.91544 0.0
N119 N 0.34693 0.84935 0.88607 0.0
N120 N 0.3234 0.8282 0.86612 0.0
C121 C 0.30277 0.80271 0.88237 0.0
C122 C 0.31423 0.80778 0.9141 0.0
C123 C 0.36262 0.85809 0.94414 0.0
H124 H 0.35797 0.8949 0.94388 0.0
H125 H 0.3915 0.85247 0.94393 0.0
H126 H 0.3545 0.84379 0.96586 0.0
O127 O 0.34828 0.94064 0.84806 0.0
O128 O 0.30841 0.9052 0.81433 0.0
H129 H 0.25195 0.79732 0.85468 0.0
H130 H 0.25935 0.7564 0.88581 0.0
C131 C 0.27197 0.77507 0.86793 0.0
H132 H 0.28126 0.75065 0.85138 0.0
H133 H 0.24266 0.84427 0.79804 0.0
O134 O 0.4065 0.92125 0.90688 0.0
C135 C 0.32202 0.94143 0.82636 0.0
Co136 Co 0.87778 0.61874 0.37213 0.0
Co137 Co 0.82621 0.67512 0.32397 0.0
C138 C 0.90491 0.66842 0.31997 0.0
O139 O 0.91044 0.64402 0.34435 0.0
O140 O 0.87379 0.68231 0.30975 0.0
C141 C 0.93661 0.60028 0.41973 0.0
O142 O 0.94947 0.63814 0.41031 0.0
C143 C 0.79765 0.75843 0.29262 0.0
C144 C 0.7433 0.73714 0.27373 0.0
C145 C 0.76604 0.77386 0.27575 0.0
N146 N 0.79331 0.71508 0.30031 0.0
N147 N 0.76079 0.70263 0.28885 0.0
C148 C 0.83172 0.78368 0.30087 0.0
H149 H 0.85421 0.76056 0.30747 0.0
H150 H 0.82947 0.80564 0.32131 0.0
H151 H 0.83738 0.80485 0.28094 0.0
C152 C 0.84426 0.6744 0.41707 0.0
N153 N 0.84961 0.66379 0.38767 0.0
N154 N 0.82723 0.68666 0.36772 0.0
C155 C 0.80656 0.71213 0.38395 0.0
C156 C 0.81686 0.70542 0.4157 0.0
C157 C 0.8624 0.6516 0.44571 0.0
H158 H 0.86014 0.61465 0.44273 0.0
H159 H 0.89104 0.66048 0.44877 0.0
H160 H 0.85083 0.6616 0.46701 0.0
O161 O 0.8465 0.57329 0.34898 0.0
O162 O 0.8103 0.61232 0.31421 0.0
H163 H 0.7579 0.71998 0.35322 0.0
H164 H 0.7617 0.75627 0.38721 0.0
C165 C 0.77642 0.74069 0.36938 0.0
H166 H 0.787 0.76778 0.35562 0.0
H167 H 0.75047 0.67057 0.29147 0.0
O168 O 0.90651 0.58651 0.40682 0.0
C169 C 0.82112 0.57505 0.32653 0.0
Co170 Co 0.13106 0.61535 0.13836 0.0
Co171 Co 0.18398 0.66844 0.18712 0.0
C172 C 0.10449 0.66743 0.18932 0.0
O173 O 0.09833 0.64373 0.16463 0.0
O174 O 0.13609 0.67869 0.20027 0.0
C175 C 0.07261 0.59738 0.09015 0.0
O176 O 0.05942 0.63491 0.09981 0.0
C177 C 0.21381 0.75166 0.21644 0.0
C178 C 0.26181 0.72685 0.24598 0.0
C179 C 0.24233 0.76543 0.23786 0.0
N180 N 0.21651 0.70711 0.21202 0.0
N181 N 0.24533 0.69253 0.22967 0.0
C182 C 0.18306 0.77955 0.20217 0.0
H183 H 0.16092 0.75799 0.19148 0.0
H184 H 0.19155 0.80114 0.18358 0.0
H185 H 0.17384 0.8018 0.22015 0.0
C186 C 0.16871 0.66709 0.0942 0.0
N187 N 0.16212 0.6576 0.12342 0.0
N188 N 0.18474 0.67975 0.14364 0.0
C189 C 0.20662 0.70393 0.12777 0.0
C190 C 0.19703 0.69683 0.09595 0.0
C191 C 0.14871 0.64709 0.06526 0.0
H192 H 0.15157 0.61 0.06606 0.0
H193 H 0.12009 0.65519 0.06442 0.0
H194 H 0.15821 0.66011 0.04374 0.0
O195 O 0.1589 0.56851 0.16318 0.0
O196 O 0.19794 0.60498 0.19701 0.0
H197 H 0.2521 0.70987 0.16277 0.0
H198 H 0.25763 0.7356 0.12575 0.0
C199 C 0.23856 0.72914 0.14267 0.0
H200 H 0.22998 0.76186 0.15137 0.0
H201 H 0.25345 0.65902 0.23097 0.0
O202 O 0.10269 0.58373 0.10314 0.0
C203 C 0.18458 0.56839 0.1854 0.0
Co204 Co 0.13235 0.39571 0.63914 0.0
Co205 Co 0.18429 0.34183 0.68837 0.0
C206 C 0.10531 0.34336 0.69052 0.0
O207 O 0.09996 0.36866 0.66658 0.0
O208 O 0.13652 0.33021 0.70116 0.0
C209 C 0.07022 0.42324 0.59735 0.0
O210 O 0.05275 0.3989 0.61563 0.0
C211 C 0.21355 0.2599 0.71916 0.0
C212 C 0.26622 0.28242 0.74171 0.0
C213 C 0.24426 0.245 0.7375 0.0
N214 N 0.21738 0.30377 0.713 0.0
N215 N 0.24882 0.31711 0.72669 0.0
C216 C 0.18207 0.2328 0.70548 0.0
H217 H 0.16812 0.24971 0.68444 0.0
H218 H 0.19039 0.1986 0.69918 0.0
H219 H 0.16319 0.22982 0.72297 0.0
C220 C 0.1677 0.34062 0.59536 0.0
N221 N 0.16221 0.35189 0.62458 0.0
N222 N 0.1852 0.33049 0.64487 0.0
C223 C 0.20665 0.30562 0.62902 0.0
C224 C 0.19603 0.31095 0.59718 0.0
C225 C 0.14811 0.36099 0.5664 0.0
H226 H 0.15294 0.39776 0.56665 0.0
H227 H 0.11913 0.35561 0.56619 0.0
H228 H 0.15661 0.34639 0.5449 0.0
O229 O 0.16173 0.44296 0.66254 0.0
O230 O 0.19747 0.40542 0.69852 0.0
H231 H 0.25384 0.29933 0.66191 0.0
H232 H 0.25448 0.26671 0.62652 0.0
C233 C 0.2376 0.2787 0.64397 0.0
H234 H 0.22762 0.2491 0.65572 0.0
H235 H 0.25857 0.34977 0.72547 0.0
O236 O 0.10389 0.42592 0.60312 0.0
C237 C 0.18624 0.44224 0.68576 0.0
Co238 Co 0.87778 0.39288 0.87012 0.0
Co239 Co 0.82485 0.33752 0.82253 0.0
C240 C 0.90338 0.34013 0.81821 0.0
O241 O 0.90935 0.36461 0.84256 0.0
O242 O 0.87195 0.3275 0.80776 0.0
C243 C 0.94062 0.42075 0.91127 0.0
O244 O 0.95798 0.39519 0.8936 0.0
C245 C 0.79575 0.25759 0.78832 0.0
C246 C 0.73823 0.27269 0.78073 0.0
C247 C 0.76297 0.2399 0.77625 0.0
N248 N 0.79059 0.29892 0.79952 0.0
N249 N 0.7562 0.30798 0.79452 0.0
C250 C 0.83086 0.23396 0.79239 0.0
H251 H 0.84689 0.24483 0.8145 0.0
H252 H 0.82735 0.19695 0.79257 0.0
H253 H 0.84559 0.24307 0.77271 0.0
C254 C 0.84194 0.3416 0.91547 0.0
N255 N 0.84793 0.35032 0.88597 0.0
N256 N 0.82636 0.32593 0.86635 0.0
C257 C 0.80632 0.3001 0.88293 0.0
C258 C 0.81532 0.30937 0.91462 0.0
C259 C 0.85849 0.36782 0.94328 0.0
H260 H 0.85675 0.40423 0.93788 0.0
H261 H 0.88706 0.35884 0.94834 0.0
H262 H 0.8453 0.36145 0.9643 0.0
O263 O 0.84867 0.43913 0.84623 0.0
O264 O 0.80988 0.40109 0.81311 0.0
H265 H 0.75571 0.28541 0.85697 0.0
H266 H 0.77047 0.24424 0.88662 0.0
C267 C 0.77914 0.26704 0.86875 0.0
H268 H 0.79049 0.24643 0.85113 0.0
H269 H 0.74488 0.33765 0.80151 0.0
O270 O 0.90702 0.42403 0.90523 0.0
C271 C 0.82254 0.43821 0.82446 0.0
H272 H 0.1706 0.24836 0.55425 0.0
H273 H 0.26013 0.33552 0.5812 0.0
H274 H 0.19878 0.221 0.50973 0.0
H275 H 0.28826 0.30882 0.53648 0.0
H276 H 0.30237 0.2859 0.43151 0.0
H277 H 0.27416 0.31309 0.47609 0.0
H278 H 0.25531 0.17607 0.50233 0.0
H279 H 0.28383 0.14915 0.45801 0.0
C280 C 0.19639 0.26141 0.55058 0.0
C281 C 0.21347 0.29363 0.571 0.0
C282 C 0.2125 0.24583 0.52526 0.0
C283 C 0.24567 0.26287 0.51967 0.0
C284 C 0.26259 0.29539 0.54012 0.0
C285 C 0.2467 0.31042 0.56572 0.0
C286 C 0.29215 0.2618 0.4469 0.0
C287 C 0.29531 0.21557 0.44162 0.0
C288 C 0.27621 0.27724 0.47239 0.0
C289 C 0.26262 0.24664 0.49265 0.0
C290 C 0.26539 0.20037 0.48699 0.0
C291 C 0.28181 0.18498 0.46182 0.0
H292 H 0.75201 0.17223 0.07762 0.0
H293 H 0.67324 0.27561 0.05598 0.0
H294 H 0.78196 0.1959 0.03347 0.0
H295 H 0.70372 0.30104 0.01255 0.0
H296 H 0.74421 0.30647 0.91833 0.0
H297 H 0.71464 0.28063 0.96191 0.0
H298 H 0.81706 0.25309 0.01516 0.0
H299 H 0.84629 0.27636 0.97059 0.0
C300 C 0.74148 0.20043 0.06347 0.0
C301 C 0.71059 0.22232 0.06993 0.0
C302 C 0.75865 0.21423 0.03833 0.0
C303 C 0.74534 0.25047 0.01931 0.0
C304 C 0.71444 0.27255 0.02625 0.0
C305 C 0.69712 0.25839 0.05123 0.0
C306 C 0.76029 0.29417 0.9392 0.0
C307 C 0.79749 0.29311 0.94107 0.0
C308 C 0.74341 0.27999 0.9644 0.0
C309 C 0.76338 0.26493 0.99226 0.0
C310 C 0.80072 0.26388 0.99401 0.0
C311 C 0.81754 0.27762 0.96863 0.0
H312 H 0.70191 0.7254 0.57666 0.0
H313 H 0.73132 0.86191 0.55876 0.0
H314 H 0.7317 0.69954 0.53262 0.0
H315 H 0.76155 0.83625 0.51506 0.0
H316 H 0.84455 0.76019 0.4631 0.0
H317 H 0.81573 0.78592 0.50771 0.0
H318 H 0.72118 0.71153 0.47238 0.0
H319 H 0.74995 0.68649 0.42763 0.0
C320 C 0.71492 0.7497 0.5633 0.0
C321 C 0.71427 0.79552 0.57073 0.0
C322 C 0.73177 0.73505 0.53813 0.0
C323 C 0.74882 0.76595 0.52043 0.0
C324 C 0.74876 0.81173 0.52841 0.0
C325 C 0.73141 0.82641 0.55322 0.0
C326 C 0.81754 0.74973 0.46492 0.0
C327 C 0.79921 0.72183 0.44204 0.0
C328 C 0.80108 0.76439 0.4903 0.0
C329 C 0.76627 0.75062 0.49348 0.0
C330 C 0.74811 0.72236 0.47061 0.0
C331 C 0.76438 0.70832 0.44498 0.0
H332 H 0.24844 0.82778 0.92829 0.0
H333 H 0.34219 0.74993 0.95946 0.0
H334 H 0.22074 0.80136 0.97327 0.0
H335 H 0.31442 0.7228 1.00427 0.0
H336 H 0.23022 0.64689 0.05574 0.0
H337 H 0.25942 0.67367 0.01174 0.0
H338 H 0.23377 0.81035 0.03381 0.0
H339 H 0.20504 0.78336 0.07812 0.0
C340 C 0.26292 0.80478 0.94476 0.0
C341 C 0.29724 0.7906 0.94059 0.0
C342 C 0.24726 0.78993 0.97051 0.0
C343 C 0.26549 0.76011 0.99223 0.0
C344 C 0.29973 0.74557 0.98777 0.0
C345 C 0.31561 0.76104 0.96228 0.0
C346 C 0.231 0.68262 0.05112 0.0
C347 C 0.21535 0.71319 0.06998 0.0
C348 C 0.24777 0.69793 0.02614 0.0
C349 C 0.2487 0.74404 0.01934 0.0
C350 C 0.23314 0.7746 0.0384 0.0
C351 C 0.2169 0.7593 0.06373 0.0
H352 H 0.60326 0.21129 0.2457 0.0
H353 H 0.53088 0.14839 0.17265 0.0
H354 H 0.55474 0.22025 0.27712 0.0
H355 H 0.48256 0.15711 0.20422 0.0
H356 H 0.47297 0.15835 0.33728 0.0
H357 H 0.52054 0.16637 0.30495 0.0
H358 H 0.44465 0.21192 0.22799 0.0
H359 H 0.39677 0.20357 0.2603 0.0
C360 C 0.57696 0.1998 0.23616 0.0
C361 C 0.57109 0.17868 0.20674 0.0
C362 C 0.5492 0.2048 0.25425 0.0
C363 C 0.51487 0.18913 0.24326 0.0
C364 C 0.50863 0.1699 0.21326 0.0
C365 C 0.53642 0.16464 0.19524 0.0
C366 C 0.4664 0.17067 0.31361 0.0
C367 C 0.43095 0.17986 0.30132 0.0
C368 C 0.49376 0.17554 0.29512 0.0
C369 C 0.48634 0.1895 0.26383 0.0
C370 C 0.45113 0.20057 0.25191 0.0
C371 C 0.42375 0.19603 0.2705 0.0
H372 H 0.60301 0.79872 0.7449 0.0
H373 H 0.53202 0.86424 0.67218 0.0
H374 H 0.55395 0.78951 0.77568 0.0
H375 H 0.48315 0.85524 0.70312 0.0
H376 H 0.39626 0.80873 0.75836 0.0
H377 H 0.44427 0.8005 0.72611 0.0
H378 H 0.52021 0.84376 0.8038 0.0
H379 H 0.47255 0.85179 0.83602 0.0
C380 C 0.57689 0.81067 0.73527 0.0
C381 C 0.57159 0.83268 0.70617 0.0
C382 C 0.54882 0.80554 0.753 0.0
C383 C 0.51473 0.82195 0.74196 0.0
C384 C 0.50902 0.84191 0.7122 0.0
C385 C 0.53713 0.84732 0.69454 0.0
C386 C 0.42327 0.81582 0.76871 0.0
C387 C 0.43049 0.83128 0.79973 0.0
C388 C 0.45073 0.81133 0.75016 0.0
C389 C 0.48601 0.82171 0.76234 0.0
C390 C 0.49339 0.83509 0.79378 0.0
C391 C 0.46598 0.83995 0.81221 0.0
H392 H 0.03328 0.65417 0.17163 0.0
H393 H 0.10829 0.70492 0.24772 0.0
H394 H 0.98539 0.66247 0.20369 0.0
H395 H 0.06017 0.71344 0.27968 0.0
H396 H 0.9019 0.70845 0.26248 0.0
H397 H 0.95008 0.71687 0.23057 0.0
H398 H 0.02351 0.65824 0.30445 0.0
H399 H 0.97557 0.65 0.33646 0.0
C400 C 0.0395 0.66777 0.19501 0.0
C401 C 0.07473 0.67844 0.20717 0.0
C402 C 0.01197 0.67276 0.21333 0.0
C403 C 0.01904 0.68829 0.24431 0.0
C404 C 0.05398 0.70084 0.25603 0.0
C405 C 0.0815 0.69618 0.23762 0.0
C406 C 0.9284 0.69787 0.27211 0.0
C407 C 0.93477 0.67815 0.30196 0.0
C408 C 0.95596 0.70254 0.25374 0.0
C409 C 0.99055 0.68801 0.26491 0.0
C410 C 0.99723 0.67015 0.29527 0.0
C411 C 0.96966 0.66516 0.31355 0.0
H412 H 0.10739 0.30141 0.74731 0.0
H413 H 0.03458 0.36019 0.67286 0.0
H414 H 0.05846 0.29138 0.77821 0.0
H415 H 0.98593 0.35041 0.70384 0.0
H416 H 0.90007 0.30352 0.7595 0.0
H417 H 0.94868 0.29523 0.72795 0.0
H418 H 0.02271 0.34521 0.80483 0.0
H419 H 0.97444 0.35322 0.83639 0.0
C420 C 0.08092 0.31166 0.73733 0.0
C421 C 0.07503 0.33205 0.70769 0.0
C422 C 0.05293 0.30608 0.75512 0.0
C423 C 0.01837 0.32037 0.74357 0.0
C424 C 0.01216 0.33868 0.71333 0.0
C425 C 0.04016 0.34456 0.69563 0.0
C426 C 0.9268 0.31206 0.76985 0.0
C427 C 0.93326 0.32946 0.80041 0.0
C428 C 0.9546 0.30753 0.7517 0.0
C429 C 0.9895 0.31983 0.76381 0.0
C430 C 0.9962 0.33506 0.79487 0.0
C431 C 0.96843 0.33993 0.81292 0.0
H432 H 0.23819 0.84641 0.2072 0.0
H433 H 0.26648 0.78634 0.29804 0.0
H434 H 0.2552 0.92008 0.22895 0.0
H435 H 0.28292 0.85997 0.32007 0.0
H436 H 0.35022 0.98536 0.34008 0.0
H437 H 0.32894 0.91343 0.31885 0.0
H438 H 0.24107 0.97955 0.26307 0.0
H439 H 0.26315 0.05217 0.28369 0.0
C440 C 0.24715 0.84912 0.23198 0.0
C441 C 0.25056 0.81071 0.25102 0.0
C442 C 0.25704 0.89137 0.24447 0.0
C443 C 0.27053 0.89609 0.27629 0.0
C444 C 0.27326 0.8576 0.29537 0.0
C445 C 0.26368 0.8154 0.28281 0.0
C446 C 0.32626 0.98471 0.32337 0.0
C447 C 0.30841 0.02466 0.31362 0.0
C448 C 0.31389 0.94327 0.31132 0.0
C449 C 0.28313 0.94051 0.28934 0.0
C450 C 0.26507 0.98044 0.27969 0.0
C451 C 0.27762 0.02207 0.29165 0.0
H452 H 0.68866 0.99505 0.15232 0.0
H453 H 0.71524 0.05745 0.24271 0.0
H454 H 0.71124 0.92358 0.17382 0.0
H455 H 0.73572 0.98549 0.26492 0.0
H456 H 0.79351 0.85806 0.29389 0.0
H457 H 0.77804 0.92968 0.26973 0.0
H458 H 0.69715 0.86498 0.20482 0.0
H459 H 0.71531 0.79258 0.22698 0.0
C460 C 0.69921 0.99336 0.17688 0.0
C461 C 0.70015 0.0318 0.19584 0.0
C462 C 0.71189 0.95223 0.18935 0.0
C463 C 0.72507 0.94822 0.22131 0.0
C464 C 0.72641 0.98707 0.24013 0.0
C465 C 0.71445 0.02844 0.22746 0.0
C466 C 0.77351 0.85846 0.2737 0.0
C467 C 0.75672 0.81878 0.26178 0.0
C468 C 0.76385 0.90015 0.26024 0.0
C469 C 0.73637 0.90359 0.23505 0.0
C470 C 0.71908 0.86395 0.22358 0.0
C471 C 0.72924 0.82223 0.23663 0.0
H472 H 0.71466 0.95547 0.74655 0.0
H473 H 0.6921 0.01821 0.65585 0.0
H474 H 0.73609 0.02767 0.76919 0.0
H475 H 0.71449 0.08982 0.6784 0.0
H476 H 0.79413 0.19519 0.73172 0.0
H477 H 0.77862 0.12033 0.70999 0.0
H478 H 0.6983 0.10736 0.77159 0.0
H479 H 0.71309 0.18254 0.79265 0.0
C480 C 0.7148 0.98446 0.7314 0.0
C481 C 0.70157 0.98132 0.69948 0.0
C482 C 0.72692 0.02566 0.74437 0.0
C483 C 0.72689 0.06404 0.72545 0.0
C484 C 0.71492 0.06056 0.69337 0.0
C485 C 0.70199 0.0197 0.68056 0.0
C486 C 0.77335 0.17611 0.74068 0.0
C487 C 0.75481 0.19433 0.76385 0.0
C488 C 0.76445 0.13353 0.72824 0.0
C489 C 0.73747 0.10822 0.73934 0.0
C490 C 0.71942 0.12616 0.76291 0.0
C491 C 0.72771 0.16912 0.77477 0.0
H492 H 0.20039 0.1788 0.75619 0.0
H493 H 0.31023 0.20839 0.74775 0.0
H494 H 0.2177 0.10474 0.77706 0.0
H495 H 0.32752 0.13484 0.76926 0.0
H496 H 0.34921 0.02452 0.84212 0.0
H497 H 0.32898 0.09682 0.82049 0.0
H498 H 0.24375 0.03139 0.76104 0.0
H499 H 0.26387 0.95852 0.78283 0.0
C500 C 0.22808 0.16929 0.75806 0.0
C501 C 0.25382 0.19931 0.74961 0.0
C502 C 0.23802 0.1269 0.77031 0.0
C503 C 0.27396 0.11397 0.77482 0.0
C504 C 0.29964 0.14401 0.7664 0.0
C505 C 0.28971 0.18613 0.754 0.0
C506 C 0.32603 0.02536 0.82455 0.0
C507 C 0.30827 0.98555 0.81414 0.0
C508 C 0.31459 0.06687 0.81201 0.0
C509 C 0.28497 0.06977 0.78887 0.0
C510 C 0.26658 0.0302 0.77895 0.0
C511 C 0.27821 0.98848 0.79135 0.0
H512 H 0.81514 0.49663 0.35776 0.0
H513 H 0.79145 0.5574 0.26663 0.0
H514 H 0.79231 0.42509 0.33654 0.0
H515 H 0.7708 0.48522 0.24468 0.0
H516 H 0.71328 0.35748 0.21564 0.0
H517 H 0.72844 0.42954 0.23924 0.0
H518 H 0.80702 0.36571 0.3067 0.0
H519 H 0.78904 0.29294 0.28508 0.0
C520 C 0.80515 0.49453 0.33309 0.0
C521 C 0.80512 0.53251 0.31383 0.0
C522 C 0.79235 0.45336 0.32078 0.0
C523 C 0.78003 0.44879 0.28868 0.0
C524 C 0.77947 0.48724 0.26956 0.0
C525 C 0.7915 0.52871 0.28208 0.0
C526 C 0.73267 0.35817 0.23624 0.0
C527 C 0.74882 0.31861 0.24903 0.0
C528 C 0.74217 0.40012 0.24941 0.0
C529 C 0.7689 0.40394 0.27517 0.0
C530 C 0.78562 0.36442 0.28748 0.0
C531 C 0.77557 0.32247 0.27474 0.0
H532 H 0.15731 0.48515 0.17062 0.0
H533 H 0.24208 0.55229 0.22987 0.0
H534 H 0.17732 0.41332 0.1931 0.0
H535 H 0.26203 0.47979 0.25252 0.0
H536 H 0.30571 0.33205 0.25705 0.0
H537 H 0.28833 0.40622 0.23649 0.0
H538 H 0.17862 0.37607 0.24473 0.0
H539 H 0.196 0.30236 0.26596 0.0
C540 C 0.18029 0.48466 0.18839 0.0
C541 C 0.198 0.52463 0.19849 0.0
C542 C 0.19161 0.44342 0.20142 0.0
C543 C 0.22105 0.44096 0.22475 0.0
C544 C 0.23932 0.48068 0.23448 0.0
C545 C 0.2278 0.52218 0.22158 0.0
C546 C 0.27804 0.34158 0.25537 0.0
C547 C 0.25235 0.31149 0.26382 0.0
C548 C 0.26806 0.38404 0.24332 0.0
C549 C 0.23213 0.39695 0.239 0.0
C550 C 0.20649 0.3669 0.24749 0.0
C551 C 0.21648 0.3247 0.2597 0.0
H552 H 0.21439 0.46039 0.74604 0.0
H553 H 0.19079 0.52153 0.65488 0.0
H554 H 0.23433 0.53342 0.76822 0.0
H555 H 0.21183 0.59405 0.67701 0.0
H556 H 0.29365 0.69859 0.73279 0.0
H557 H 0.27826 0.62372 0.71096 0.0
H558 H 0.19291 0.61439 0.7676 0.0
H559 H 0.20754 0.68966 0.7887 0.0
C560 C 0.21398 0.48923 0.73069 0.0
C561 C 0.20093 0.48534 0.69876 0.0
C562 C 0.22525 0.53089 0.74339 0.0
C563 C 0.22457 0.56903 0.72422 0.0
C564 C 0.2127 0.56494 0.69216 0.0
C565 C 0.20058 0.52357 0.67959 0.0
C566 C 0.27174 0.68034 0.74062 0.0
C567 C 0.2518 0.69958 0.76244 0.0
C568 C 0.26293 0.63778 0.72812 0.0
C569 C 0.2346 0.6135 0.73784 0.0
C570 C 0.21502 0.63248 0.75999 0.0
C571 C 0.22325 0.67544 0.77188 0.0
H572 H 0.73403 0.65946 0.70671 0.0
H573 H 0.76086 0.71819 0.79824 0.0
H574 H 0.7516 0.58562 0.72789 0.0
H575 H 0.77776 0.64446 0.81968 0.0
H576 H 0.84831 0.52227 0.83843 0.0
H577 H 0.82525 0.59342 0.81758 0.0
H578 H 0.73889 0.52449 0.76165 0.0
H579 H 0.76279 0.45246 0.78198 0.0
C580 C 0.74274 0.65639 0.73151 0.0
C581 C 0.74575 0.69448 0.75091 0.0
C582 C 0.75294 0.61405 0.74367 0.0
C583 C 0.76631 0.60901 0.77548 0.0
C584 C 0.76828 0.64713 0.79495 0.0
C585 C 0.75843 0.68937 0.78274 0.0
C586 C 0.82431 0.52207 0.82177 0.0
C587 C 0.8074 0.4815 0.81194 0.0
C588 C 0.8109 0.56308 0.80994 0.0
C589 C 0.77998 0.56487 0.78811 0.0
C590 C 0.76293 0.52433 0.77824 0.0
C591 C 0.77652 0.48306 0.79001 0.0
H592 H 0.41247 0.04522 0.45924 0.0
H593 H 0.51115 0.06676 0.42143 0.0
H594 H 0.44457 1.00528 0.50351 0.0
H595 H 0.54312 0.02608 0.46541 0.0
H596 H 0.593 0.99146 0.56471 0.0
H597 H 0.56069 0.03306 0.52139 0.0
H598 H 0.47615 0.93485 0.51482 0.0
H599 H 0.50808 0.89373 0.55864 0.0
C600 C 0.441 0.04134 0.46032 0.0
C601 C 0.45924 0.05909 0.43676 0.0
C602 C 0.45936 0.01822 0.48561 0.0
C603 C 0.49638 0.01235 0.48794 0.0
C604 C 0.51465 0.03044 0.4645 0.0
C605 C 0.49629 0.05355 0.43919 0.0
C606 C 0.56749 0.97874 0.55406 0.0
C607 C 0.55309 0.93928 0.56516 0.0
C608 C 0.54907 1.00247 0.5291 0.0
C609 C 0.51585 0.98727 0.51463 0.0
C610 C 0.50145 0.9478 0.52574 0.0
C611 C 0.51986 0.92409 0.55074 0.0
H612 H 0.59612 0.04012 0.05183 0.0
H613 H 0.49831 0.10448 0.06878 0.0
H614 H 0.56435 1.00119 0.00679 0.0
H615 H 0.4667 0.0659 0.02354 0.0
H616 H 0.41604 0.95068 0.96268 0.0
H617 H 0.44846 0.98865 0.00774 0.0
H618 H 0.53381 0.0184 0.95381 0.0
H619 H 0.50154 0.98002 0.90871 0.0
C620 C 0.56786 0.04601 0.04595 0.0
C621 C 0.54972 0.07531 0.06396 0.0
C622 C 0.54972 0.0239 0.02002 0.0
C623 C 0.51302 0.03043 0.01165 0.0
C624 C 0.4949 0.05977 0.02963 0.0
C625 C 0.51307 0.08206 0.05545 0.0
C626 C 0.44174 0.96523 0.9604 0.0
C627 C 0.45618 0.96238 0.93206 0.0
C628 C 0.46022 0.98722 0.98619 0.0
C629 C 0.49363 0.00666 0.98429 0.0
C630 C 0.50825 1.00341 0.95607 0.0
C631 C 0.48968 0.98161 0.93019 0.0
H632 H 0.99834 0.43162 0.58203 0.0
H633 H 0.09831 0.47156 0.55253 0.0
H634 H 0.96644 0.4746 0.53925 0.0
H635 H 0.06634 0.51366 0.50923 0.0
H636 H 0.99843 0.62342 0.45632 0.0
H637 H 0.03069 0.58043 0.49906 0.0
H638 H 0.95257 0.47435 0.48336 0.0
H639 H 0.91985 0.5178 0.4413 0.0
C640 C 0.01352 0.4493 0.56628 0.0
C641 C 0.05087 0.44826 0.57075 0.0
C642 C 0.99521 0.47378 0.54163 0.0
C643 C 0.0138 0.49763 0.52077 0.0
C644 C 0.05119 0.49626 0.52512 0.0
C645 C 0.06951 0.47189 0.54985 0.0
C646 C 0.98815 0.59092 0.462 0.0
C647 C 0.95654 0.57409 0.44544 0.0
C648 C 0.00676 0.56614 0.48639 0.0
C649 C 0.99424 0.5239 0.49467 0.0
C650 C 0.9627 0.50704 0.47795 0.0
C651 C 0.94403 0.53188 0.45369 0.0
H652 H 0.08959 0.51503 0.06846 0.0
H653 H 0.0116 0.62117 0.05271 0.0
H654 H 0.05746 0.47199 0.0258 0.0
H655 H 0.97998 0.57864 0.00937 0.0
H656 H 0.91238 0.47022 0.9554 0.0
H657 H 0.94412 0.5124 0.99877 0.0
H658 H 0.04428 0.47187 0.96991 0.0
H659 H 0.01254 0.4287 0.92703 0.0
C660 C 0.06568 0.52932 0.05577 0.0
C661 C 0.05312 0.57152 0.06402 0.0
C662 C 0.04736 0.50473 0.03116 0.0
C663 C 0.01615 0.52184 0.01409 0.0
C664 C 1.00364 0.56414 0.02231 0.0
C665 C 0.02188 0.58865 0.04705 0.0
C666 C 0.94118 0.47027 0.95832 0.0
C667 C 0.95994 0.44611 0.93774 0.0
C668 C 0.95938 0.49469 0.98309 0.0
C669 C 0.99676 0.49567 0.98781 0.0
C670 C 0.01549 0.47138 0.96723 0.0
C671 C 0.99729 0.4468 0.94253 0.0
loop_
_geom_bond_atom_site_label_1
_geom_bond_atom_site_label_2
_geom_bond_distance
_geom_bond_site_symmetry_2
_ccdc_geom_bond_type
Co0 O3 1.970 . S
Co0 N17 1.989 . S
Co0 O25 1.967 . S
Co0 O32 1.920 . S
Co1 O4 1.966 . S
Co1 N10 2.022 . S
Co1 N18 1.993 . S
Co1 O26 1.941 . S
C2 O3 1.258 . S
C2 O4 1.263 . S
O3 Co0 1.970 . S
O3 C2 1.258 . S
O4 Co1 1.966 . S
O4 C2 1.263 . S
C5 O6 1.235 . S
C5 O32 1.289 . S
O6 C5 1.235 . S
C7 C9 1.400 . S
C7 N10 1.351 . S
C7 C12 1.501 . S
C8 C9 1.387 . S
C8 N11 1.341 . S
C9 C7 1.400 . S
C9 C8 1.387 . S
N10 Co1 2.022 . S
N10 C7 1.351 . S
N10 N11 1.365 . S
N11 C8 1.341 . S
N11 N10 1.365 . S
N11 H31 0.862 . S
C12 C7 1.501 . S
C12 H13 0.961 . S
C12 H14 0.961 . S
C12 H15 0.960 . S
H13 C12 0.961 . S
H14 C12 0.961 . S
H15 C12 0.960 . S
C16 N17 1.342 . S
C16 C20 1.401 . S
C16 C21 1.499 . S
N17 Co0 1.989 . S
N17 C16 1.342 . S
N17 N18 1.388 . S
N18 Co1 1.993 . S
N18 N17 1.388 . S
N18 C19 1.346 . S
C19 N18 1.346 . S
C19 C20 1.396 . S
C19 C29 1.510 . S
C20 C16 1.401 . S
C20 C19 1.396 . S
C21 C16 1.499 . S
C21 H22 0.959 . S
C21 H23 0.960 . S
C21 H24 0.961 . S
H22 C21 0.959 . S
H23 C21 0.960 . S
H24 C21 0.961 . S
O25 Co0 1.967 . S
O25 C33 1.258 . S
O26 Co1 1.941 . S
O26 C33 1.266 . S
H27 C29 0.959 . S
H28 C29 0.961 . S
C29 C19 1.510 . S
C29 H27 0.959 . S
C29 H28 0.961 . S
C29 H30 0.960 . S
H30 C29 0.960 . S
H31 N11 0.862 . S
O32 Co0 1.920 . S
O32 C5 1.289 . S
C33 O25 1.258 . S
C33 O26 1.266 . S
Co34 O37 1.970 . S
Co34 N51 1.989 . S
Co34 O59 1.967 . S
Co34 O66 1.920 . S
Co35 O38 1.966 . S
Co35 N44 2.022 . S
Co35 N52 1.993 . S
Co35 O60 1.941 . S
C36 O37 1.258 . S
C36 O38 1.263 . S
O37 Co34 1.970 . S
O37 C36 1.258 . S
O38 Co35 1.966 . S
O38 C36 1.263 . S
C39 O40 1.235 . S
C39 O66 1.289 . S
O40 C39 1.235 . S
C41 C43 1.400 . S
C41 N44 1.351 . S
C41 C46 1.501 . S
C42 C43 1.387 . S
C42 N45 1.341 . S
C43 C41 1.400 . S
C43 C42 1.387 . S
N44 Co35 2.022 . S
N44 C41 1.351 . S
N44 N45 1.365 . S
N45 C42 1.341 . S
N45 N44 1.365 . S
N45 H65 0.862 . S
C46 C41 1.501 . S
C46 H47 0.961 . S
C46 H48 0.961 . S
C46 H49 0.960 . S
H47 C46 0.961 . S
H48 C46 0.961 . S
H49 C46 0.960 . S
C50 N51 1.342 . S
C50 C54 1.401 . S
C50 C55 1.499 . S
N51 Co34 1.989 . S
N51 C50 1.342 . S
N51 N52 1.388 . S
N52 Co35 1.993 . S
N52 N51 1.388 . S
N52 C53 1.346 . S
C53 N52 1.346 . S
C53 C54 1.396 . S
C53 C63 1.510 . S
C54 C50 1.401 . S
C54 C53 1.396 . S
C55 C50 1.499 . S
C55 H56 0.959 . S
C55 H57 0.960 . S
C55 H58 0.961 . S
H56 C55 0.959 . S
H57 C55 0.960 . S
H58 C55 0.961 . S
O59 Co34 1.967 . S
O59 C67 1.258 . S
O60 Co35 1.941 . S
O60 C67 1.266 . S
H61 C63 0.959 . S
H62 C63 0.961 . S
C63 C53 1.510 . S
C63 H61 0.959 . S
C63 H62 0.961 . S
C63 H64 0.960 . S
H64 C63 0.960 . S
H65 N45 0.862 . S
O66 Co34 1.920 . S
O66 C39 1.289 . S
C67 O59 1.258 . S
C67 O60 1.266 . S
Co68 O71 1.970 . S
Co68 N85 1.989 . S
Co68 O93 1.967 . S
Co68 O100 1.920 . S
Co69 O72 1.966 . S
Co69 N78 2.022 . S
Co69 N86 1.993 . S
Co69 O94 1.941 . S
C70 O71 1.258 . S
C70 O72 1.263 . S
O71 Co68 1.970 . S
O71 C70 1.258 . S
O72 Co69 1.966 . S
O72 C70 1.263 . S
C73 O74 1.235 . S
C73 O100 1.289 . S
O74 C73 1.235 . S
C75 C77 1.400 . S
C75 N78 1.351 . S
C75 C80 1.501 . S
C76 C77 1.387 . S
C76 N79 1.341 . S
C77 C75 1.400 . S
C77 C76 1.387 . S
N78 Co69 2.022 . S
N78 C75 1.351 . S
N78 N79 1.365 . S
N79 C76 1.341 . S
N79 N78 1.365 . S
N79 H99 0.862 . S
C80 C75 1.501 . S
C80 H81 0.961 . S
C80 H82 0.961 . S
C80 H83 0.960 . S
H81 C80 0.961 . S
H82 C80 0.961 . S
H83 C80 0.960 . S
C84 N85 1.342 . S
C84 C88 1.401 . S
C84 C89 1.499 . S
N85 Co68 1.989 . S
N85 C84 1.342 . S
N85 N86 1.388 . S
N86 Co69 1.993 . S
N86 N85 1.388 . S
N86 C87 1.346 . S
C87 N86 1.346 . S
C87 C88 1.396 . S
C87 C97 1.510 . S
C88 C84 1.401 . S
C88 C87 1.396 . S
C89 C84 1.499 . S
C89 H90 0.959 . S
C89 H91 0.960 . S
C89 H92 0.961 . S
H90 C89 0.959 . S
H91 C89 0.960 . S
H92 C89 0.961 . S
O93 Co68 1.967 . S
O93 C101 1.258 . S
O94 Co69 1.941 . S
O94 C101 1.266 . S
H95 C97 0.959 . S
H96 C97 0.961 . S
C97 C87 1.510 . S
C97 H95 0.959 . S
C97 H96 0.961 . S
C97 H98 0.960 . S
H98 C97 0.960 . S
H99 N79 0.862 . S
O100 Co68 1.920 . S
O100 C73 1.289 . S
C101 O93 1.258 . S
C101 O94 1.266 . S
Co102 O105 1.970 . S
Co102 N119 1.989 . S
Co102 O127 1.967 . S
Co102 O134 1.920 . S
Co103 O106 1.966 . S
Co103 N112 2.022 . S
Co103 N120 1.993 . S
Co103 O128 1.941 . S
C104 O105 1.258 . S
C104 O106 1.263 . S
O105 Co102 1.970 . S
O105 C104 1.258 . S
O106 Co103 1.966 . S
O106 C104 1.263 . S
C107 O108 1.235 . S
C107 O134 1.289 . S
O108 C107 1.235 . S
C109 C111 1.400 . S
C109 N112 1.351 . S
C109 C114 1.501 . S
C110 C111 1.387 . S
C110 N113 1.341 . S
C111 C109 1.400 . S
C111 C110 1.387 . S
N112 Co103 2.022 . S
N112 C109 1.351 . S
N112 N113 1.365 . S
N113 C110 1.341 . S
N113 N112 1.365 . S
N113 H133 0.862 . S
C114 C109 1.501 . S
C114 H115 0.961 . S
C114 H116 0.961 . S
C114 H117 0.960 . S
H115 C114 0.961 . S
H116 C114 0.961 . S
H117 C114 0.960 . S
C118 N119 1.342 . S
C118 C122 1.401 . S
C118 C123 1.499 . S
N119 Co102 1.989 . S
N119 C118 1.342 . S
N119 N120 1.388 . S
N120 Co103 1.993 . S
N120 N119 1.388 . S
N120 C121 1.346 . S
C121 N120 1.346 . S
C121 C122 1.396 . S
C121 C131 1.510 . S
C122 C118 1.401 . S
C122 C121 1.396 . S
C123 C118 1.499 . S
C123 H124 0.959 . S
C123 H125 0.960 . S
C123 H126 0.961 . S
H124 C123 0.959 . S
H125 C123 0.960 . S
H126 C123 0.961 . S
O127 Co102 1.967 . S
O127 C135 1.258 . S
O128 Co103 1.941 . S
O128 C135 1.266 . S
H129 C131 0.959 . S
H130 C131 0.961 . S
C131 C121 1.510 . S
C131 H129 0.959 . S
C131 H130 0.961 . S
C131 H132 0.960 . S
H132 C131 0.960 . S
H133 N113 0.862 . S
O134 Co102 1.920 . S
O134 C107 1.289 . S
C135 O127 1.258 . S
C135 O128 1.266 . S
Co136 O139 1.970 . S
Co136 N153 1.989 . S
Co136 O161 1.967 . S
Co136 O168 1.920 . S
Co137 O140 1.966 . S
Co137 N146 2.022 . S
Co137 N154 1.993 . S
Co137 O162 1.941 . S
C138 O139 1.258 . S
C138 O140 1.263 . S
O139 Co136 1.970 . S
O139 C138 1.258 . S
O140 Co137 1.966 . S
O140 C138 1.263 . S
C141 O142 1.235 . S
C141 O168 1.289 . S
O142 C141 1.235 . S
C143 C145 1.400 . S
C143 N146 1.351 . S
C143 C148 1.501 . S
C144 C145 1.387 . S
C144 N147 1.341 . S
C145 C143 1.400 . S
C145 C144 1.387 . S
N146 Co137 2.022 . S
N146 C143 1.351 . S
N146 N147 1.365 . S
N147 C144 1.341 . S
N147 N146 1.365 . S
N147 H167 0.862 . S
C148 C143 1.501 . S
C148 H149 0.961 . S
C148 H150 0.961 . S
C148 H151 0.960 . S
H149 C148 0.961 . S
H150 C148 0.961 . S
H151 C148 0.960 . S
C152 N153 1.342 . S
C152 C156 1.401 . S
C152 C157 1.499 . S
N153 Co136 1.989 . S
N153 C152 1.342 . S
N153 N154 1.388 . S
N154 Co137 1.993 . S
N154 N153 1.388 . S
N154 C155 1.346 . S
C155 N154 1.346 . S
C155 C156 1.396 . S
C155 C165 1.510 . S
C156 C152 1.401 . S
C156 C155 1.396 . S
C157 C152 1.499 . S
C157 H158 0.959 . S
C157 H159 0.960 . S
C157 H160 0.961 . S
H158 C157 0.959 . S
H159 C157 0.960 . S
H160 C157 0.961 . S
O161 Co136 1.967 . S
O161 C169 1.258 . S
O162 Co137 1.941 . S
O162 C169 1.266 . S
H163 C165 0.959 . S
H164 C165 0.961 . S
C165 C155 1.510 . S
C165 H163 0.959 . S
C165 H164 0.961 . S
C165 H166 0.960 . S
H166 C165 0.960 . S
H167 N147 0.862 . S
O168 Co136 1.920 . S
O168 C141 1.289 . S
C169 O161 1.258 . S
C169 O162 1.266 . S
Co170 O173 1.970 . S
Co170 N187 1.989 . S
Co170 O195 1.967 . S
Co170 O202 1.920 . S
Co171 O174 1.966 . S
Co171 N180 2.022 . S
Co171 N188 1.993 . S
Co171 O196 1.941 . S
C172 O173 1.258 . S
C172 O174 1.263 . S
O173 Co170 1.970 . S
O173 C172 1.258 . S
O174 Co171 1.966 . S
O174 C172 1.263 . S
C175 O176 1.235 . S
C175 O202 1.289 . S
O176 C175 1.235 . S
C177 C179 1.400 . S
C177 N180 1.351 . S
C177 C182 1.501 . S
C178 C179 1.387 . S
C178 N181 1.341 . S
C179 C177 1.400 . S
C179 C178 1.387 . S
N180 Co171 2.022 . S
N180 C177 1.351 . S
N180 N181 1.365 . S
N181 C178 1.341 . S
N181 N180 1.365 . S
N181 H201 0.862 . S
C182 C177 1.501 . S
C182 H183 0.961 . S
C182 H184 0.961 . S
C182 H185 0.960 . S
H183 C182 0.961 . S
H184 C182 0.961 . S
H185 C182 0.960 . S
C186 N187 1.342 . S
C186 C190 1.401 . S
C186 C191 1.499 . S
N187 Co170 1.989 . S
N187 C186 1.342 . S
N187 N188 1.388 . S
N188 Co171 1.993 . S
N188 N187 1.388 . S
N188 C189 1.346 . S
C189 N188 1.346 . S
C189 C190 1.396 . S
C189 C199 1.510 . S
C190 C186 1.401 . S
C190 C189 1.396 . S
C191 C186 1.499 . S
C191 H192 0.959 . S
C191 H193 0.960 . S
C191 H194 0.961 . S
H192 C191 0.959 . S
H193 C191 0.960 . S
H194 C191 0.961 . S
O195 Co170 1.967 . S
O195 C203 1.258 . S
O196 Co171 1.941 . S
O196 C203 1.266 . S
H197 C199 0.959 . S
H198 C199 0.961 . S
C199 C189 1.510 . S
C199 H197 0.959 . S
C199 H198 0.961 . S
C199 H200 0.960 . S
H200 C199 0.960 . S
H201 N181 0.862 . S
O202 Co170 1.920 . S
O202 C175 1.289 . S
C203 O195 1.258 . S
C203 O196 1.266 . S
Co204 O207 1.970 . S
Co204 N221 1.989 . S
Co204 O229 1.967 . S
Co204 O236 1.920 . S
Co205 O208 1.966 . S
Co205 N214 2.022 . S
Co205 N222 1.993 . S
Co205 O230 1.941 . S
C206 O207 1.258 . S
C206 O208 1.263 . S
O207 Co204 1.970 . S
O207 C206 1.258 . S
O208 Co205 1.966 . S
O208 C206 1.263 . S
C209 O210 1.235 . S
C209 O236 1.289 . S
O210 C209 1.235 . S
C211 C213 1.400 . S
C211 N214 1.351 . S
C211 C216 1.501 . S
C212 C213 1.387 . S
C212 N215 1.341 . S
C213 C211 1.400 . S
C213 C212 1.387 . S
N214 Co205 2.022 . S
N214 C211 1.351 . S
N214 N215 1.365 . S
N215 C212 1.341 . S
N215 N214 1.365 . S
N215 H235 0.862 . S
C216 C211 1.501 . S
C216 H217 0.961 . S
C216 H218 0.961 . S
C216 H219 0.960 . S
H217 C216 0.961 . S
H218 C216 0.961 . S
H219 C216 0.960 . S
C220 N221 1.342 . S
C220 C224 1.401 . S
C220 C225 1.499 . S
N221 Co204 1.989 . S
N221 C220 1.342 . S
N221 N222 1.388 . S
N222 Co205 1.993 . S
N222 N221 1.388 . S
N222 C223 1.346 . S
C223 N222 1.346 . S
C223 C224 1.396 . S
C223 C233 1.510 . S
C224 C220 1.401 . S
C224 C223 1.396 . S
C225 C220 1.499 . S
C225 H226 0.959 . S
C225 H227 0.960 . S
C225 H228 0.961 . S
H226 C225 0.959 . S
H227 C225 0.960 . S
H228 C225 0.961 . S
O229 Co204 1.967 . S
O229 C237 1.258 . S
O230 Co205 1.941 . S
O230 C237 1.266 . S
H231 C233 0.959 . S
H232 C233 0.961 . S
C233 C223 1.510 . S
C233 H231 0.959 . S
C233 H232 0.961 . S
C233 H234 0.960 . S
H234 C233 0.960 . S
H235 N215 0.862 . S
O236 Co204 1.920 . S
O236 C209 1.289 . S
C237 O229 1.258 . S
C237 O230 1.266 . S
Co238 O241 1.970 . S
Co238 N255 1.989 . S
Co238 O263 1.967 . S
Co238 O270 1.920 . S
Co239 O242 1.966 . S
Co239 N248 2.022 . S
Co239 N256 1.993 . S
Co239 O264 1.941 . S
C240 O241 1.258 . S
C240 O242 1.263 . S
O241 Co238 1.970 . S
O241 C240 1.258 . S
O242 Co239 1.966 . S
O242 C240 1.263 . S
C243 O244 1.235 . S
C243 O270 1.289 . S
O244 C243 1.235 . S
C245 C247 1.400 . S
C245 N248 1.351 . S
C245 C250 1.501 . S
C246 C247 1.387 . S
C246 N249 1.341 . S
C247 C245 1.400 . S
C247 C246 1.387 . S
N248 Co239 2.022 . S
N248 C245 1.351 . S
N248 N249 1.365 . S
N249 C246 1.341 . S
N249 N248 1.365 . S
N249 H269 0.862 . S
C250 C245 1.501 . S
C250 H251 0.961 . S
C250 H252 0.961 . S
C250 H253 0.960 . S
H251 C250 0.961 . S
H252 C250 0.961 . S
H253 C250 0.960 . S
C254 N255 1.342 . S
C254 C258 1.401 . S
C254 C259 1.499 . S
N255 Co238 1.989 . S
N255 C254 1.342 . S
N255 N256 1.388 . S
N256 Co239 1.993 . S
N256 N255 1.388 . S
N256 C257 1.346 . S
C257 N256 1.346 . S
C257 C258 1.396 . S
C257 C267 1.510 . S
C258 C254 1.401 . S
C258 C257 1.396 . S
C259 C254 1.499 . S
C259 H260 0.959 . S
C259 H261 0.960 . S
C259 H262 0.961 . S
H260 C259 0.959 . S
H261 C259 0.960 . S
H262 C259 0.961 . S
O263 Co238 1.967 . S
O263 C271 1.258 . S
O264 Co239 1.941 . S
O264 C271 1.266 . S
H265 C267 0.959 . S
H266 C267 0.961 . S
C267 C257 1.510 . S
C267 H265 0.959 . S
C267 H266 0.961 . S
C267 H268 0.960 . S
H268 C267 0.960 . S
H269 N249 0.862 . S
O270 Co238 1.920 . S
O270 C243 1.289 . S
C271 O263 1.258 . S
C271 O264 1.266 . S
H272 C280 0.950 . S
H273 C285 0.950 . S
H274 C282 0.950 . S
H275 C284 0.950 . S
H276 C286 0.950 . S
H277 C288 0.950 . S
H278 C290 0.950 . S
H279 C291 0.950 . S
C280 H272 0.950 . S
C280 C281 1.386 . S
C280 C282 1.391 . S
C281 C280 1.386 . S
C281 C285 1.393 . S
C282 H274 0.950 . S
C282 C280 1.391 . S
C282 C283 1.400 . S
C283 C282 1.400 . S
C283 C284 1.398 . S
C283 C289 1.491 . S
C284 H275 0.950 . S
C284 C283 1.398 . S
C284 C285 1.391 . S
C285 H273 0.950 . S
C285 C281 1.393 . S
C285 C284 1.391 . S
C286 H276 0.950 . S
C286 C287 1.386 . S
C286 C288 1.391 . S
C287 C286 1.386 . S
C287 C291 1.393 . S
C288 H277 0.950 . S
C288 C286 1.391 . S
C288 C289 1.400 . S
C289 C283 1.491 . S
C289 C288 1.400 . S
C289 C290 1.398 . S
C290 H278 0.950 . S
C290 C289 1.398 . S
C290 C291 1.391 . S
C291 H279 0.950 . S
C291 C287 1.393 . S
C291 C290 1.391 . S
H292 C300 0.950 . S
H293 C305 0.950 . S
H294 C302 0.950 . S
H295 C304 0.950 1_556 S
H296 C306 0.950 . S
H297 C308 0.950 . S
H298 C310 0.950 1_554 S
H299 C311 0.950 . S
C300 H292 0.950 . S
C300 C301 1.386 . S
C300 C302 1.391 . S
C301 C300 1.386 . S
C301 C305 1.393 . S
C302 H294 0.950 . S
C302 C300 1.391 . S
C302 C303 1.400 . S
C303 C302 1.400 . S
C303 C304 1.398 . S
C303 C309 1.491 1_554 S
C304 H295 0.950 1_554 S
C304 C303 1.398 . S
C304 C305 1.391 . S
C305 H293 0.950 . S
C305 C301 1.393 . S
C305 C304 1.391 . S
C306 H296 0.950 . S
C306 C307 1.386 . S
C306 C308 1.391 . S
C307 C306 1.386 . S
C307 C311 1.393 . S
C308 H297 0.950 . S
C308 C306 1.391 . S
C308 C309 1.400 . S
C309 C303 1.491 1_556 S
C309 C308 1.400 . S
C309 C310 1.398 . S
C310 H298 0.950 1_556 S
C310 C309 1.398 . S
C310 C311 1.391 . S
C311 H299 0.950 . S
C311 C307 1.393 . S
C311 C310 1.391 . S
H312 C320 0.950 . S
H313 C325 0.950 . S
H314 C322 0.950 . S
H315 C324 0.950 . S
H316 C326 0.950 . S
H317 C328 0.950 . S
H318 C330 0.950 . S
H319 C331 0.950 . S
C320 H312 0.950 . S
C320 C321 1.386 . S
C320 C322 1.391 . S
C321 C320 1.386 . S
C321 C325 1.393 . S
C322 H314 0.950 . S
C322 C320 1.391 . S
C322 C323 1.400 . S
C323 C322 1.400 . S
C323 C324 1.398 . S
C323 C329 1.491 . S
C324 H315 0.950 . S
C324 C323 1.398 . S
C324 C325 1.391 . S
C325 H313 0.950 . S
C325 C321 1.393 . S
C325 C324 1.391 . S
C326 H316 0.950 . S
C326 C327 1.386 . S
C326 C328 1.391 . S
C327 C326 1.386 . S
C327 C331 1.393 . S
C328 H317 0.950 . S
C328 C326 1.391 . S
C328 C329 1.400 . S
C329 C323 1.491 . S
C329 C328 1.400 . S
C329 C330 1.398 . S
C330 H318 0.950 . S
C330 C329 1.398 . S
C330 C331 1.391 . S
C331 H319 0.950 . S
C331 C327 1.393 . S
C331 C330 1.391 . S
H332 C340 0.950 . S
H333 C345 0.950 . S
H334 C342 0.950 . S
H335 C344 0.950 . S
H336 C346 0.950 . S
H337 C348 0.950 . S
H338 C350 0.950 . S
H339 C351 0.950 . S
C340 H332 0.950 . S
C340 C341 1.386 . S
C340 C342 1.391 . S
C341 C340 1.386 . S
C341 C345 1.393 . S
C342 H334 0.950 . S
C342 C340 1.391 . S
C342 C343 1.400 . S
C343 C342 1.400 . S
C343 C344 1.398 . S
C343 C349 1.491 1_556 S
C344 H335 0.950 . S
C344 C343 1.398 . S
C344 C345 1.391 . S
C345 H333 0.950 . S
C345 C341 1.393 . S
C345 C344 1.391 . S
C346 H336 0.950 . S
C346 C347 1.386 . S
C346 C348 1.391 . S
C347 C346 1.386 . S
C347 C351 1.393 . S
C348 H337 0.950 . S
C348 C346 1.391 . S
C348 C349 1.400 . S
C349 C343 1.491 1_554 S
C349 C348 1.400 . S
C349 C350 1.398 . S
C350 H338 0.950 . S
C350 C349 1.398 . S
C350 C351 1.391 . S
C351 H339 0.950 . S
C351 C347 1.393 . S
C351 C350 1.391 . S
H352 C360 0.950 . S
H353 C365 0.950 . S
H354 C362 0.950 . S
H355 C364 0.950 . S
H356 C366 0.950 . S
H357 C368 0.950 . S
H358 C370 0.950 . S
H359 C371 0.950 . S
C360 H352 0.950 . S
C360 C361 1.386 . S
C360 C362 1.391 . S
C361 C360 1.386 . S
C361 C365 1.393 . S
C362 H354 0.950 . S
C362 C360 1.391 . S
C362 C363 1.400 . S
C363 C362 1.400 . S
C363 C364 1.398 . S
C363 C369 1.491 . S
C364 H355 0.950 . S
C364 C363 1.398 . S
C364 C365 1.391 . S
C365 H353 0.950 . S
C365 C361 1.393 . S
C365 C364 1.391 . S
C366 H356 0.950 . S
C366 C367 1.386 . S
C366 C368 1.391 . S
C367 C366 1.386 . S
C367 C371 1.393 . S
C368 H357 0.950 . S
C368 C366 1.391 . S
C368 C369 1.400 . S
C369 C363 1.491 . S
C369 C368 1.400 . S
C369 C370 1.398 . S
C370 H358 0.950 . S
C370 C369 1.398 . S
C370 C371 1.391 . S
C371 H359 0.950 . S
C371 C367 1.393 . S
C371 C370 1.391 . S
H372 C380 0.950 . S
H373 C385 0.950 . S
H374 C382 0.950 . S
H375 C384 0.950 . S
H376 C386 0.950 . S
H377 C388 0.950 . S
H378 C390 0.950 . S
H379 C391 0.950 . S
C380 H372 0.950 . S
C380 C381 1.386 . S
C380 C382 1.391 . S
C381 C380 1.386 . S
C381 C385 1.393 . S
C382 H374 0.950 . S
C382 C380 1.391 . S
C382 C383 1.400 . S
C383 C382 1.400 . S
C383 C384 1.398 . S
C383 C389 1.491 . S
C384 H375 0.950 . S
C384 C383 1.398 . S
C384 C385 1.391 . S
C385 H373 0.950 . S
C385 C381 1.393 . S
C385 C384 1.391 . S
C386 H376 0.950 . S
C386 C387 1.386 . S
C386 C388 1.391 . S
C387 C386 1.386 . S
C387 C391 1.393 . S
C388 H377 0.950 . S
C388 C386 1.391 . S
C388 C389 1.400 . S
C389 C383 1.491 . S
C389 C388 1.400 . S
C389 C390 1.398 . S
C390 H378 0.950 . S
C390 C389 1.398 . S
C390 C391 1.391 . S
C391 H379 0.950 . S
C391 C387 1.393 . S
C391 C390 1.391 . S
H392 C400 0.950 . S
H393 C405 0.950 . S
H394 C402 0.950 . S
H395 C404 0.950 . S
H396 C406 0.950 . S
H397 C408 0.950 . S
H398 C410 0.950 . S
H399 C411 0.950 . S
C400 H392 0.950 . S
C400 C401 1.386 . S
C400 C402 1.391 . S
C401 C400 1.386 . S
C401 C405 1.393 . S
C402 H394 0.950 . S
C402 C400 1.391 . S
C402 C403 1.400 . S
C403 C402 1.400 . S
C403 C404 1.398 . S
C403 C409 1.491 1_455 S
C404 H395 0.950 . S
C404 C403 1.398 . S
C404 C405 1.391 . S
C405 H393 0.950 . S
C405 C401 1.393 . S
C405 C404 1.391 . S
C406 H396 0.950 . S
C406 C407 1.386 . S
C406 C408 1.391 . S
C407 C406 1.386 . S
C407 C411 1.393 . S
C408 H397 0.950 . S
C408 C406 1.391 . S
C408 C409 1.400 . S
C409 C403 1.491 1_655 S
C409 C408 1.400 . S
C409 C410 1.398 . S
C410 H398 0.950 . S
C410 C409 1.398 . S
C410 C411 1.391 . S
C411 H399 0.950 . S
C411 C407 1.393 . S
C411 C410 1.391 . S
H412 C420 0.950 . S
H413 C425 0.950 . S
H414 C422 0.950 . S
H415 C424 0.950 1_655 S
H416 C426 0.950 . S
H417 C428 0.950 . S
H418 C430 0.950 1_455 S
H419 C431 0.950 . S
C420 H412 0.950 . S
C420 C421 1.386 . S
C420 C422 1.391 . S
C421 C420 1.386 . S
C421 C425 1.393 . S
C422 H414 0.950 . S
C422 C420 1.391 . S
C422 C423 1.400 . S
C423 C422 1.400 . S
C423 C424 1.398 . S
C423 C429 1.491 1_455 S
C424 H415 0.950 1_455 S
C424 C423 1.398 . S
C424 C425 1.391 . S
C425 H413 0.950 . S
C425 C421 1.393 . S
C425 C424 1.391 . S
C426 H416 0.950 . S
C426 C427 1.386 . S
C426 C428 1.391 . S
C427 C426 1.386 . S
C427 C431 1.393 . S
C428 H417 0.950 . S
C428 C426 1.391 . S
C428 C429 1.400 . S
C429 C423 1.491 1_655 S
C429 C428 1.400 . S
C429 C430 1.398 . S
C430 H418 0.950 1_655 S
C430 C429 1.398 . S
C430 C431 1.391 . S
C431 H419 0.950 . S
C431 C427 1.393 . S
C431 C430 1.391 . S
H432 C440 0.950 . S
H433 C445 0.950 . S
H434 C442 0.950 . S
H435 C444 0.950 . S
H436 C446 0.950 . S
H437 C448 0.950 . S
H438 C450 0.950 . S
H439 C451 0.950 . S
C440 H432 0.950 . S
C440 C441 1.386 . S
C440 C442 1.391 . S
C441 C440 1.386 . S
C441 C445 1.393 . S
C442 H434 0.950 . S
C442 C440 1.391 . S
C442 C443 1.400 . S
C443 C442 1.400 . S
C443 C444 1.398 . S
C443 C449 1.491 . S
C444 H435 0.950 . S
C444 C443 1.398 . S
C444 C445 1.391 . S
C445 H433 0.950 . S
C445 C441 1.393 . S
C445 C444 1.391 . S
C446 H436 0.950 . S
C446 C447 1.386 . S
C446 C448 1.391 1_545 S
C447 C446 1.386 . S
C447 C451 1.393 . S
C448 H437 0.950 . S
C448 C446 1.391 1_565 S
C448 C449 1.400 . S
C449 C443 1.491 . S
C449 C448 1.400 . S
C449 C450 1.398 1_565 S
C450 H438 0.950 . S
C450 C449 1.398 1_545 S
C450 C451 1.391 . S
C451 H439 0.950 . S
C451 C447 1.393 . S
C451 C450 1.391 . S
H452 C460 0.950 . S
H453 C465 0.950 . S
H454 C462 0.950 . S
H455 C464 0.950 . S
H456 C466 0.950 . S
H457 C468 0.950 . S
H458 C470 0.950 . S
H459 C471 0.950 . S
C460 H452 0.950 . S
C460 C461 1.386 . S
C460 C462 1.391 1_545 S
C461 C460 1.386 . S
C461 C465 1.393 . S
C462 H454 0.950 . S
C462 C460 1.391 1_565 S
C462 C463 1.400 . S
C463 C462 1.400 . S
C463 C464 1.398 1_565 S
C463 C469 1.491 . S
C464 H455 0.950 . S
C464 C463 1.398 1_545 S
C464 C465 1.391 . S
C465 H453 0.950 . S
C465 C461 1.393 . S
C465 C464 1.391 . S
C466 H456 0.950 . S
C466 C467 1.386 . S
C466 C468 1.391 . S
C467 C466 1.386 . S
C467 C471 1.393 . S
C468 H457 0.950 . S
C468 C466 1.391 . S
C468 C469 1.400 . S
C469 C463 1.491 . S
C469 C468 1.400 . S
C469 C470 1.398 . S
C470 H458 0.950 . S
C470 C469 1.398 . S
C470 C471 1.391 . S
C471 H459 0.950 . S
C471 C467 1.393 . S
C471 C470 1.391 . S
H472 C480 0.950 . S
H473 C485 0.950 . S
H474 C482 0.950 . S
H475 C484 0.950 . S
H476 C486 0.950 . S
H477 C488 0.950 . S
H478 C490 0.950 . S
H479 C491 0.950 . S
C480 H472 0.950 . S
C480 C481 1.386 . S
C480 C482 1.391 1_565 S
C481 C480 1.386 . S
C481 C485 1.393 . S
C482 H474 0.950 . S
C482 C480 1.391 1_545 S
C482 C483 1.400 . S
C483 C482 1.400 . S
C483 C484 1.398 . S
C483 C489 1.491 . S
C484 H475 0.950 . S
C484 C483 1.398 . S
C484 C485 1.391 1_545 S
C485 H473 0.950 . S
C485 C481 1.393 . S
C485 C484 1.391 1_565 S
C486 H476 0.950 . S
C486 C487 1.386 . S
C486 C488 1.391 . S
C487 C486 1.386 . S
C487 C491 1.393 . S
C488 H477 0.950 . S
C488 C486 1.391 . S
C488 C489 1.400 . S
C489 C483 1.491 . S
C489 C488 1.400 . S
C489 C490 1.398 . S
C490 H478 0.950 . S
C490 C489 1.398 . S
C490 C491 1.391 . S
C491 H479 0.950 . S
C491 C487 1.393 . S
C491 C490 1.391 . S
H492 C500 0.950 . S
H493 C505 0.950 . S
H494 C502 0.950 . S
H495 C504 0.950 . S
H496 C506 0.950 . S
H497 C508 0.950 . S
H498 C510 0.950 . S
H499 C511 0.950 . S
C500 H492 0.950 . S
C500 C501 1.386 . S
C500 C502 1.391 . S
C501 C500 1.386 . S
C501 C505 1.393 . S
C502 H494 0.950 . S
C502 C500 1.391 . S
C502 C503 1.400 . S
C503 C502 1.400 . S
C503 C504 1.398 . S
C503 C509 1.491 . S
C504 H495 0.950 . S
C504 C503 1.398 . S
C504 C505 1.391 . S
C505 H493 0.950 . S
C505 C501 1.393 . S
C505 C504 1.391 . S
C506 H496 0.950 . S
C506 C507 1.386 . S
C506 C508 1.391 1_565 S
C507 C506 1.386 . S
C507 C511 1.393 . S
C508 H497 0.950 . S
C508 C506 1.391 1_545 S
C508 C509 1.400 . S
C509 C503 1.491 . S
C509 C508 1.400 . S
C509 C510 1.398 1_545 S
C510 H498 0.950 . S
C510 C509 1.398 1_565 S
C510 C511 1.391 . S
C511 H499 0.950 . S
C511 C507 1.393 . S
C511 C510 1.391 . S
H512 C520 0.950 . S
H513 C525 0.950 . S
H514 C522 0.950 . S
H515 C524 0.950 . S
H516 C526 0.950 . S
H517 C528 0.950 . S
H518 C530 0.950 . S
H519 C531 0.950 . S
C520 H512 0.950 . S
C520 C521 1.386 . S
C520 C522 1.391 . S
C521 C520 1.386 . S
C521 C525 1.393 . S
C522 H514 0.950 . S
C522 C520 1.391 . S
C522 C523 1.400 . S
C523 C522 1.400 . S
C523 C524 1.398 . S
C523 C529 1.491 . S
C524 H515 0.950 . S
C524 C523 1.398 . S
C524 C525 1.391 . S
C525 H513 0.950 . S
C525 C521 1.393 . S
C525 C524 1.391 . S
C526 H516 0.950 . S
C526 C527 1.386 . S
C526 C528 1.391 . S
C527 C526 1.386 . S
C527 C531 1.393 . S
C528 H517 0.950 . S
C528 C526 1.391 . S
C528 C529 1.400 . S
C529 C523 1.491 . S
C529 C528 1.400 . S
C529 C530 1.398 . S
C530 H518 0.950 . S
C530 C529 1.398 . S
C530 C531 1.391 . S
C531 H519 0.950 . S
C531 C527 1.393 . S
C531 C530 1.391 . S
H532 C540 0.950 . S
H533 C545 0.950 . S
H534 C542 0.950 . S
H535 C544 0.950 . S
H536 C546 0.950 . S
H537 C548 0.950 . S
H538 C550 0.950 . S
H539 C551 0.950 . S
C540 H532 0.950 . S
C540 C541 1.386 . S
C540 C542 1.391 . S
C541 C540 1.386 . S
C541 C545 1.393 . S
C542 H534 0.950 . S
C542 C540 1.391 . S
C542 C543 1.400 . S
C543 C542 1.400 . S
C543 C544 1.398 . S
C543 C549 1.491 . S
C544 H535 0.950 . S
C544 C543 1.398 . S
C544 C545 1.391 . S
C545 H533 0.950 . S
C545 C541 1.393 . S
C545 C544 1.391 . S
C546 H536 0.950 . S
C546 C547 1.386 . S
C546 C548 1.391 . S
C547 C546 1.386 . S
C547 C551 1.393 . S
C548 H537 0.950 . S
C548 C546 1.391 . S
C548 C549 1.400 . S
C549 C543 1.491 . S
C549 C548 1.400 . S
C549 C550 1.398 . S
C550 H538 0.950 . S
C550 C549 1.398 . S
C550 C551 1.391 . S
C551 H539 0.950 . S
C551 C547 1.393 . S
C551 C550 1.391 . S
H552 C560 0.950 . S
H553 C565 0.950 . S
H554 C562 0.950 . S
H555 C564 0.950 . S
H556 C566 0.950 . S
H557 C568 0.950 . S
H558 C570 0.950 . S
H559 C571 0.950 . S
C560 H552 0.950 . S
C560 C561 1.386 . S
C560 C562 1.391 . S
C561 C560 1.386 . S
C561 C565 1.393 . S
C562 H554 0.950 . S
C562 C560 1.391 . S
C562 C563 1.400 . S
C563 C562 1.400 . S
C563 C564 1.398 . S
C563 C569 1.491 . S
C564 H555 0.950 . S
C564 C563 1.398 . S
C564 C565 1.391 . S
C565 H553 0.950 . S
C565 C561 1.393 . S
C565 C564 1.391 . S
C566 H556 0.950 . S
C566 C567 1.386 . S
C566 C568 1.391 . S
C567 C566 1.386 . S
C567 C571 1.393 . S
C568 H557 0.950 . S
C568 C566 1.391 . S
C568 C569 1.400 . S
C569 C563 1.491 . S
C569 C568 1.400 . S
C569 C570 1.398 . S
C570 H558 0.950 . S
C570 C569 1.398 . S
C570 C571 1.391 . S
C571 H559 0.950 . S
C571 C567 1.393 . S
C571 C570 1.391 . S
H572 C580 0.950 . S
H573 C585 0.950 . S
H574 C582 0.950 . S
H575 C584 0.950 . S
H576 C586 0.950 . S
H577 C588 0.950 . S
H578 C590 0.950 . S
H579 C591 0.950 . S
C580 H572 0.950 . S
C580 C581 1.386 . S
C580 C582 1.391 . S
C581 C580 1.386 . S
C581 C585 1.393 . S
C582 H574 0.950 . S
C582 C580 1.391 . S
C582 C583 1.400 . S
C583 C582 1.400 . S
C583 C584 1.398 . S
C583 C589 1.491 . S
C584 H575 0.950 . S
C584 C583 1.398 . S
C584 C585 1.391 . S
C585 H573 0.950 . S
C585 C581 1.393 . S
C585 C584 1.391 . S
C586 H576 0.950 . S
C586 C587 1.386 . S
C586 C588 1.391 . S
C587 C586 1.386 . S
C587 C591 1.393 . S
C588 H577 0.950 . S
C588 C586 1.391 . S
C588 C589 1.400 . S
C589 C583 1.491 . S
C589 C588 1.400 . S
C589 C590 1.398 . S
C590 H578 0.950 . S
C590 C589 1.398 . S
C590 C591 1.391 . S
C591 H579 0.950 . S
C591 C587 1.393 . S
C591 C590 1.391 . S
H592 C600 0.950 1_565 S
H593 C605 0.950 . S
H594 C602 0.950 . S
H595 C604 0.950 . S
H596 C606 0.950 1_545 S
H597 C608 0.950 . S
H598 C610 0.950 . S
H599 C611 0.950 . S
C600 H592 0.950 1_545 S
C600 C601 1.386 . S
C600 C602 1.391 1_545 S
C601 C600 1.386 . S
C601 C605 1.393 . S
C602 H594 0.950 . S
C602 C600 1.391 1_565 S
C602 C603 1.400 1_565 S
C603 C602 1.400 1_545 S
C603 C604 1.398 . S
C603 C609 1.491 1_545 S
C604 H595 0.950 . S
C604 C603 1.398 . S
C604 C605 1.391 . S
C605 H593 0.950 . S
C605 C601 1.393 . S
C605 C604 1.391 . S
C606 H596 0.950 1_565 S
C606 C607 1.386 . S
C606 C608 1.391 1_565 S
C607 C606 1.386 . S
C607 C611 1.393 . S
C608 H597 0.950 . S
C608 C606 1.391 1_545 S
C608 C609 1.400 1_545 S
C609 C603 1.491 1_565 S
C609 C608 1.400 1_565 S
C609 C610 1.398 . S
C610 H598 0.950 . S
C610 C609 1.398 . S
C610 C611 1.391 . S
C611 H599 0.950 . S
C611 C607 1.393 . S
C611 C610 1.391 . S
H612 C620 0.950 . S
H613 C625 0.950 . S
H614 C622 0.950 1_556 S
H615 C624 0.950 . S
H616 C626 0.950 . S
H617 C628 0.950 1_554 S
H618 C630 0.950 . S
H619 C631 0.950 . S
C620 H612 0.950 . S
C620 C621 1.386 . S
C620 C622 1.391 . S
C621 C620 1.386 . S
C621 C625 1.393 . S
C622 H614 0.950 1_554 S
C622 C620 1.391 . S
C622 C623 1.400 . S
C623 C622 1.400 . S
C623 C624 1.398 . S
C623 C629 1.491 1_544 S
C624 H615 0.950 . S
C624 C623 1.398 . S
C624 C625 1.391 . S
C625 H613 0.950 . S
C625 C621 1.393 . S
C625 C624 1.391 . S
C626 H616 0.950 . S
C626 C627 1.386 . S
C626 C628 1.391 . S
C627 C626 1.386 . S
C627 C631 1.393 . S
C628 H617 0.950 1_556 S
C628 C626 1.391 . S
C628 C629 1.400 . S
C629 C623 1.491 1_566 S
C629 C628 1.400 . S
C629 C630 1.398 . S
C630 H618 0.950 . S
C630 C629 1.398 . S
C630 C631 1.391 . S
C631 H619 0.950 . S
C631 C627 1.393 . S
C631 C630 1.391 . S
H632 C640 0.950 . S
H633 C645 0.950 . S
H634 C642 0.950 . S
H635 C644 0.958 . S
H636 C646 0.950 . S
H637 C648 0.950 . S
H638 C650 0.958 . S
H639 C651 0.950 . S
C640 H632 0.950 . S
C640 C641 1.386 . S
C640 C642 1.391 . S
C641 C640 1.386 . S
C641 C645 1.393 . S
C642 H634 0.950 . S
C642 C640 1.391 . S
C642 C643 1.400 . S
C643 C642 1.400 . S
C643 C644 1.398 . S
C643 C649 1.491 1_455 S
C644 H635 0.958 . S
C644 C643 1.398 . S
C644 C645 1.391 . S
C645 H633 0.950 . S
C645 C641 1.393 . S
C645 C644 1.391 . S
C646 H636 0.950 . S
C646 C647 1.386 . S
C646 C648 1.391 . S
C647 C646 1.386 . S
C647 C651 1.393 . S
C648 H637 0.950 . S
C648 C646 1.391 . S
C648 C649 1.400 . S
C649 C643 1.491 1_655 S
C649 C648 1.400 . S
C649 C650 1.398 . S
C650 H638 0.958 . S
C650 C649 1.398 . S
C650 C651 1.391 . S
C651 H639 0.950 . S
C651 C647 1.393 . S
C651 C650 1.391 . S
H652 C660 0.950 . S
H653 C665 0.950 . S
H654 C662 0.950 1_655 S
H655 C664 0.950 1_556 S
H656 C666 0.950 . S
H657 C668 0.950 1_455 S
H658 C670 0.950 1_554 S
H659 C671 0.950 . S
C660 H652 0.950 . S
C660 C661 1.386 . S
C660 C662 1.391 . S
C661 C660 1.386 . S
C661 C665 1.393 . S
C662 H654 0.950 1_455 S
C662 C660 1.391 . S
C662 C663 1.400 . S
C663 C662 1.400 . S
C663 C664 1.398 . S
C663 C669 1.491 1_454 S
C664 H655 0.950 1_554 S
C664 C663 1.398 . S
C664 C665 1.391 . S
C665 H653 0.950 . S
C665 C661 1.393 . S
C665 C664 1.391 . S
C666 H656 0.950 . S
C666 C667 1.386 . S
C666 C668 1.391 . S
C667 C666 1.386 . S
C667 C671 1.393 . S
C668 H657 0.950 1_655 S
C668 C666 1.391 . S
C668 C669 1.400 . S
C669 C663 1.491 1_656 S
C669 C668 1.400 . S
C669 C670 1.398 . S
C670 H658 0.950 1_556 S
C670 C669 1.398 . S
C670 C671 1.391 . S
C671 H659 0.950 . S
C671 C667 1.393 . S
C671 C670 1.391 . S
C281 C224 1.244 . S
C287 C20 1.244 . S
C301 C54 1.243 . S
C307 C258 1.243 . S
C321 C88 1.243 . S
C327 C156 1.243 . S
C341 C122 1.247 . S
C347 C190 1.247 . S
C361 C36 1.631 . S
C367 C2 1.628 . S
C381 C70 1.627 . S
C387 C104 1.632 . S
C401 C172 1.630 . S
C407 C138 1.628 . S
C421 C206 1.627 . S
C427 C240 1.632 . S
C441 C179 1.521 . S
C447 C33 1.563 . S
C461 C67 1.564 . S
C467 C145 1.515 . S
C481 C101 1.564 . S
C487 C247 1.514 . S
C501 C213 1.521 . S
C507 C135 1.564 . S
C521 C169 1.564 . S
C527 C43 1.515 . S
C541 C203 1.564 . S
C547 C9 1.524 . S
C561 C237 1.564 . S
C567 C111 1.513 . S
C581 C77 1.513 . S
C587 C271 1.564 . S
C601 C5 1.550 . S
C607 C73 1.550 . S
C621 C39 1.562 . S
C627 C107 1.562 . S
C641 C209 1.547 . S
C647 C141 1.547 . S
C661 C175 1.544 . S
C667 C243 1.544 . S
