# Generated by pormake.
# Topology uoq, (4)-cn, num edge types: 1
# Building blocks:
#     Node 0, Type 0, BuildingBlock: KUFVIS_clean_sbu_0, # of connection points: 4
#     Node 1, Type 0, BuildingBlock: KUFVIS_clean_sbu_0, # of connection points: 4
#     Node 2, Type 0, BuildingBlock: KUFVIS_clean_sbu_0, # of connection points: 4
#     Node 3, Type 0, BuildingBlock: KUFVIS_clean_sbu_0, # of connection points: 4
#     Node 4, Type 0, BuildingBlock: KUFVIS_clean_sbu_0, # of connection points: 4
#     Node 5, Type 0, BuildingBlock: KUFVIS_clean_sbu_0, # of connection points: 4
#     Node 6, Type 0, BuildingBlock: KUFVIS_clean_sbu_0, # of connection points: 4
#     Node 7, Type 0, BuildingBlock: KUFVIS_clean_sbu_0, # of connection points: 4
#     Node 8, Type 0, BuildingBlock: KUFVIS_clean_sbu_0, # of connection points: 4
#     Node 9, Type 0, BuildingBlock: KUFVIS_clean_sbu_0, # of connection points: 4
#     Node 10, Type 0, BuildingBlock: KUFVIS_clean_sbu_0, # of connection points: 4
#     Node 11, Type 0, BuildingBlock: KUFVIS_clean_sbu_0, # of connection points: 4
#     Edge 12, Type (0, 0), BuildingBlock: OJICUG_clean_linker_0, # of connection points: 2
#     Edge 13, Type (0, 0), BuildingBlock: OJICUG_clean_linker_0, # of connection points: 2
#     Edge 14, Type (0, 0), BuildingBlock: OJICUG_clean_linker_0, # of connection points: 2
#     Edge 15, Type (0, 0), BuildingBlock: OJICUG_clean_linker_0, # of connection points: 2
#     Edge 16, Type (0, 0), BuildingBlock: OJICUG_clean_linker_0, # of connection points: 2
#     Edge 17, Type (0, 0), BuildingBlock: OJICUG_clean_linker_0, # of connection points: 2
#     Edge 18, Type (0, 0), BuildingBlock: OJICUG_clean_linker_0, # of connection points: 2
#     Edge 19, Type (0, 0), BuildingBlock: OJICUG_clean_linker_0, # of connection points: 2
#     Edge 20, Type (0, 0), BuildingBlock: OJICUG_clean_linker_0, # of connection points: 2
#     Edge 21, Type (0, 0), BuildingBlock: OJICUG_clean_linker_0, # of connection points: 2
#     Edge 22, Type (0, 0), BuildingBlock: OJICUG_clean_linker_0, # of connection points: 2
#     Edge 23, Type (0, 0), BuildingBlock: OJICUG_clean_linker_0, # of connection points: 2
#     Edge 24, Type (0, 0), BuildingBlock: OJICUG_clean_linker_0, # of connection points: 2
#     Edge 25, Type (0, 0), BuildingBlock: OJICUG_clean_linker_0, # of connection points: 2
#     Edge 26, Type (0, 0), BuildingBlock: OJICUG_clean_linker_0, # of connection points: 2
#     Edge 27, Type (0, 0), BuildingBlock: OJICUG_clean_linker_0, # of connection points: 2
#     Edge 28, Type (0, 0), BuildingBlock: OJICUG_clean_linker_0, # of connection points: 2
#     Edge 29, Type (0, 0), BuildingBlock: OJICUG_clean_linker_0, # of connection points: 2
#     Edge 30, Type (0, 0), BuildingBlock: OJICUG_clean_linker_0, # of connection points: 2
#     Edge 31, Type (0, 0), BuildingBlock: OJICUG_clean_linker_0, # of connection points: 2
#     Edge 32, Type (0, 0), BuildingBlock: OJICUG_clean_linker_0, # of connection points: 2
#     Edge 33, Type (0, 0), BuildingBlock: OJICUG_clean_linker_0, # of connection points: 2
#     Edge 34, Type (0, 0), BuildingBlock: OJICUG_clean_linker_0, # of connection points: 2
#     Edge 35, Type (0, 0), BuildingBlock: OJICUG_clean_linker_0, # of connection points: 2
# Relax obj value: 0.140
# Max RMSD: 0.132
# Mean RMSD: 0.132
data_MOF--net-uoq--node1-KUFVIS_clean_sbu_0--edge1-OJICUG_clean_linker_0
_symmetry_space_group_name_H-M    P1
_symmetry_Int_Tables_number       1
_symmetry_cell_setting            triclinic
loop_
_symmetry_equiv_pos_as_xyz
'x, y, z'
_cell_length_a     43.605088
_cell_length_b     43.545397
_cell_length_c     15.837196
_cell_angle_alpha  89.710882
_cell_angle_beta   90.121235
_cell_angle_gamma 120.07299
loop_
_atom_site_label
_atom_site_type_symbol
_atom_site_fract_x
_atom_site_fract_y
_atom_site_fract_z
_atom_type_partial_charge
Mn0 Mn 0.29185 0.44375 0.28396 0.0
Mn1 Mn 0.31112 0.43958 0.49225 0.0
C2 C 0.27173 0.4649 0.39242 0.0
C3 C 0.25451 0.42509 0.16135 0.0
C4 C 0.36323 0.49424 0.37034 0.0
O5 O 0.30701 0.40526 0.28343 0.0
O6 O 0.31879 0.40741 0.42308 0.0
C7 C 0.25346 0.36608 0.52643 0.0
N8 N 0.27114 0.40116 0.54668 0.0
C9 C 0.23547 0.39023 0.67107 0.0
C10 C 0.21698 0.35395 0.65179 0.0
C11 C 0.22588 0.34186 0.57887 0.0
C12 C 0.26246 0.41314 0.61602 0.0
H13 H 0.26038 0.35665 0.47076 0.0
C14 C 0.31677 0.39482 0.34966 0.0
O15 O 0.28832 0.44713 0.15717 0.0
O16 O 0.24285 0.41105 0.23526 0.0
N17 N 0.30447 0.46955 0.56903 0.0
C18 C 0.32372 0.50553 0.57644 0.0
C19 C 0.31749 0.52201 0.64504 0.0
C20 C 0.29202 0.50129 0.7061 0.0
C21 C 0.27298 0.46426 0.69799 0.0
C22 C 0.28037 0.44934 0.62834 0.0
H23 H 0.3436 0.52155 0.53022 0.0
O24 O 0.27443 0.4772 0.31641 0.0
O25 O 0.28093 0.44132 0.40312 0.0
O26 O 0.34366 0.48281 0.30458 0.0
O27 O 0.35342 0.4801 0.44323 0.0
C28 C 0.24667 0.4416 0.75571 0.0
C29 C 0.22778 0.40463 0.74193 0.0
H30 H 0.19572 0.33519 0.69214 0.0
H31 H 0.21163 0.31393 0.56335 0.0
H32 H 0.33237 0.55059 0.65098 0.0
H33 H 0.28718 0.5141 0.75871 0.0
H34 H 0.2404 0.45236 0.8102 0.0
H35 H 0.20719 0.38751 0.7858 0.0
Mn36 Mn 0.84506 0.29591 0.61498 0.0
Mn37 Mn 0.87157 0.31468 0.82122 0.0
C38 C 0.80542 0.2743 0.72656 0.0
C39 C 0.8257 0.25946 0.49174 0.0
C40 C 0.86477 0.36616 0.70561 0.0
O41 O 0.899 0.31373 0.60705 0.0
O42 O 0.91096 0.32549 0.74633 0.0
C43 C 0.89108 0.25901 0.84299 0.0
N44 N 0.87294 0.27511 0.86959 0.0
C45 C 0.85061 0.23668 0.99098 0.0
C46 C 0.86923 0.21982 0.96522 0.0
C47 C 0.8894 0.23092 0.89066 0.0
C48 C 0.85311 0.26436 0.94061 0.0
H49 H 0.90666 0.26751 0.78584 0.0
C50 C 0.92029 0.32471 0.67075 0.0
O51 O 0.83652 0.29316 0.4894 0.0
O52 O 0.82985 0.24759 0.56377 0.0
N53 N 0.83602 0.30547 0.90389 0.0
C54 C 0.81867 0.32368 0.91837 0.0
C55 C 0.79698 0.31553 0.99004 0.0
C56 C 0.79383 0.28921 0.04681 0.0
C57 C 0.81257 0.2714 0.03157 0.0
C58 C 0.83398 0.28083 0.95948 0.0
H59 H 0.82125 0.34416 0.87537 0.0
O60 O 0.7946 0.27684 0.65197 0.0
O61 O 0.83853 0.2841 0.7342 0.0
O62 O 0.8565 0.34698 0.63928 0.0
O63 O 0.87026 0.35635 0.77742 0.0
C64 C 0.81042 0.24426 0.08435 0.0
C65 C 0.82921 0.22674 0.06386 0.0
H66 H 0.86799 0.19814 1.0018 0.0
H67 H 0.90369 0.21792 0.8701 0.0
H68 H 0.78272 0.32951 1.00152 0.0
H69 H 0.77685 0.28278 0.10165 0.0
H70 H 0.79395 0.2363 0.1401 0.0
H71 H 0.82679 0.20547 0.10423 0.0
Mn72 Mn 0.54838 0.84766 0.95249 0.0
Mn73 Mn 0.55661 0.87425 0.15889 0.0
C74 C 0.52985 0.80791 0.06439 0.0
C75 C 0.56592 0.82864 0.82923 0.0
C76 C 0.49896 0.86868 0.04318 0.0
O77 O 0.58483 0.90153 0.94445 0.0
O78 O 0.58656 0.91362 0.08414 0.0
C79 C 0.63102 0.89169 0.18297 0.0
N80 N 0.59657 0.87422 0.20857 0.0
C81 C 0.61088 0.85121 0.33159 0.0
C82 C 0.64656 0.86911 0.30681 0.0
C83 C 0.65663 0.88929 0.23194 0.0
C84 C 0.58653 0.85441 0.27995 0.0
H85 H 0.63885 0.90732 0.12566 0.0
C86 C 0.59634 0.92276 1.00806 0.0
O87 O 0.54282 0.83908 0.82658 0.0
O88 O 0.58136 0.83235 0.90166 0.0
N89 N 0.52898 0.83864 0.24105 0.0
C90 C 0.49328 0.82165 0.25389 0.0
C91 C 0.47873 0.79982 0.3253 0.0
C92 C 0.50106 0.79613 0.38347 0.0
C93 C 0.53776 0.81439 0.36978 0.0
C94 C 0.55075 0.83593 0.29775 0.0
H95 H 0.47602 0.82456 0.20971 0.0
O96 O 0.51657 0.79714 0.98985 0.0
O97 O 0.55341 0.841 0.07174 0.0
O98 O 0.50913 0.8595 0.97705 0.0
O99 O 0.51454 0.87444 0.11448 0.0
C100 C 0.56192 0.81162 0.42406 0.0
C101 C 0.59843 0.82982 0.40468 0.0
H102 H 0.6664 0.86732 0.34438 0.0
H103 H 0.68409 0.90303 0.21218 0.0
H104 H 0.45038 0.78587 0.33549 0.0
H105 H 0.48972 0.77905 0.43812 0.0
H106 H 0.55262 0.79513 0.48016 0.0
H107 H 0.61665 0.82693 0.44601 0.0
Mn108 Mn 0.7 0.55287 0.28576 0.0
Mn109 Mn 0.67964 0.5596 0.49129 0.0
C110 C 0.72028 0.53382 0.39856 0.0
C111 C 0.73703 0.57024 0.16307 0.0
C112 C 0.62866 0.50261 0.37313 0.0
O113 O 0.68275 0.5894 0.27716 0.0
O114 O 0.67057 0.5896 0.41625 0.0
C115 C 0.73606 0.63427 0.51665 0.0
N116 N 0.71916 0.59968 0.54188 0.0
C117 C 0.75625 0.61388 0.66488 0.0
C118 C 0.77391 0.6497 0.64052 0.0
C119 C 0.76388 0.6599 0.56586 0.0
C120 C 0.72885 0.58951 0.61306 0.0
H121 H 0.7284 0.64222 0.4594 0.0
C122 C 0.67211 0.60013 0.34052 0.0
O123 O 0.70333 0.54758 0.16037 0.0
O124 O 0.74871 0.58589 0.23529 0.0
N125 N 0.68728 0.53188 0.57377 0.0
C126 C 0.66844 0.49612 0.58673 0.0
C127 C 0.67556 0.48147 0.65818 0.0
C128 C 0.70154 0.50377 0.71624 0.0
C129 C 0.72005 0.54054 0.70249 0.0
C130 C 0.71163 0.55363 0.63055 0.0
H131 H 0.64827 0.47889 0.54266 0.0
O132 O 0.7183 0.52084 0.32397 0.0
O133 O 0.71069 0.55729 0.40543 0.0
O134 O 0.64874 0.51358 0.30817 0.0
O135 O 0.63776 0.51737 0.4454 0.0
C136 C 0.74692 0.56469 0.75663 0.0
C137 C 0.76516 0.60129 0.73766 0.0
H138 H 0.7954 0.66954 0.67826 0.0
H139 H 0.7775 0.68747 0.54638 0.0
H140 H 0.66106 0.45307 0.66848 0.0
H141 H 0.70718 0.49236 0.7709 0.0
H142 H 0.75415 0.5553 0.81225 0.0
H143 H 0.7862 0.61948 0.77908 0.0
Mn144 Mn 0.14668 0.70164 0.61397 0.0
Mn145 Mn 0.11787 0.67752 0.81644 0.0
C146 C 0.18585 0.71962 0.72801 0.0
C147 C 0.16596 0.74206 0.49669 0.0
C148 C 0.12307 0.62801 0.69223 0.0
O149 O 0.09302 0.6852 0.60601 0.0
O150 O 0.07944 0.67199 0.7443 0.0
C151 C 0.10338 0.73562 0.85152 0.0
N152 N 0.11962 0.71687 0.87265 0.0
C153 C 0.14883 0.75492 0.99019 0.0
C154 C 0.13224 0.77454 0.97045 0.0
C155 C 0.10931 0.76476 0.90085 0.0
C156 C 0.14131 0.72567 0.94006 0.0
H157 H 0.08636 0.72866 0.79694 0.0
C158 C 0.0713 0.67498 0.66885 0.0
O159 O 0.15497 0.70849 0.48803 0.0
O160 O 0.16297 0.75172 0.57213 0.0
N161 N 0.15301 0.68177 0.89464 0.0
C162 C 0.16933 0.66211 0.90056 0.0
C163 C 0.19347 0.66877 0.96629 0.0
C164 C 0.20079 0.6958 0.02446 0.0
C165 C 0.1835 0.71551 1.01681 0.0
C166 C 0.15871 0.7068 0.95222 0.0
H167 H 0.16432 0.64179 0.85502 0.0
O168 O 0.19696 0.71892 0.65252 0.0
O169 O 0.15266 0.70975 0.73433 0.0
O170 O 0.13423 0.64946 0.6293 0.0
O171 O 0.11587 0.63594 0.76401 0.0
C172 C 0.19153 0.74485 0.06759 0.0
C173 C 0.17431 0.76468 0.05411 0.0
H174 H 0.13746 0.79757 1.00726 0.0
H175 H 0.09667 0.77996 0.88455 0.0
H176 H 0.20685 0.65357 0.97123 0.0
H177 H 0.22026 0.70169 0.07361 0.0
H178 H 0.21232 0.75318 0.11416 0.0
H179 H 0.18171 0.78832 0.09051 0.0
Mn180 Mn 0.44328 0.14823 0.93561 0.0
Mn181 Mn 0.43621 0.12293 0.14357 0.0
C182 C 0.46292 0.1888 0.04562 0.0
C183 C 0.42502 0.16643 0.81099 0.0
C184 C 0.49306 0.12753 0.02672 0.0
O185 O 0.40657 0.09422 0.93096 0.0
O186 O 0.40554 0.08333 0.07138 0.0
C187 C 0.3622 0.10631 0.16993 0.0
N188 N 0.39682 0.12363 0.19406 0.0
C189 C 0.3836 0.1469 0.31745 0.0
C190 C 0.34774 0.12918 0.29417 0.0
C191 C 0.33704 0.10897 0.21983 0.0
C192 C 0.40748 0.14353 0.26481 0.0
H193 H 0.35387 0.09055 0.11315 0.0
C194 C 0.39528 0.07353 0.99608 0.0
O195 O 0.44806 0.15591 0.8091 0.0
O196 O 0.41008 0.16336 0.88379 0.0
N197 N 0.46464 0.15874 0.22386 0.0
C198 C 0.50037 0.17522 0.2357 0.0
C199 C 0.51551 0.19694 0.3066 0.0
C200 C 0.49371 0.20094 0.36544 0.0
C201 C 0.45695 0.18312 0.35292 0.0
C202 C 0.44337 0.16174 0.28124 0.0
H203 H 0.51721 0.17196 0.19117 0.0
O204 O 0.47555 0.19902 0.97021 0.0
O205 O 0.43918 0.15584 0.05482 0.0
O206 O 0.4827 0.13649 0.9602 0.0
O207 O 0.4777 0.12206 0.09823 0.0
C208 C 0.43327 0.18604 0.40819 0.0
C209 C 0.39665 0.16815 0.39017 0.0
H210 H 0.32825 0.13111 0.33257 0.0
H211 H 0.30945 0.09533 0.20127 0.0
H212 H 0.5439 0.2105 0.31597 0.0
H213 H 0.5055 0.21787 0.41979 0.0
H214 H 0.44303 0.20236 0.46414 0.0
H215 H 0.37878 0.17108 0.43236 0.0
Mn216 Mn 0.5467 0.69749 0.44011 0.0
Mn217 Mn 0.55358 0.67888 0.23343 0.0
C218 C 0.52834 0.71922 0.32908 0.0
C219 C 0.56411 0.73399 0.56336 0.0
C220 C 0.49579 0.62725 0.34926 0.0
O221 O 0.58314 0.68001 0.44707 0.0
O222 O 0.58222 0.66789 0.30776 0.0
C223 C 0.62883 0.73436 0.21117 0.0
N224 N 0.59449 0.71841 0.18495 0.0
C225 C 0.61038 0.75677 0.06345 0.0
C226 C 0.64596 0.7735 0.08886 0.0
C227 C 0.65518 0.76236 0.16329 0.0
C228 C 0.58526 0.7292 0.11408 0.0
H229 H 0.63603 0.7258 0.26818 0.0
C230 C 0.59283 0.66872 0.38298 0.0
O231 O 0.54131 0.70026 0.56584 0.0
O232 O 0.57989 0.74586 0.49121 0.0
N233 N 0.52709 0.68832 0.15137 0.0
C234 C 0.49145 0.6703 0.13737 0.0
C235 C 0.47775 0.67853 0.06594 0.0
C236 C 0.50084 0.70474 1.00892 0.0
C237 C 0.53746 0.72237 1.02371 0.0
C238 C 0.54959 0.71288 0.09561 0.0
H239 H 0.47363 0.6499 0.18055 0.0
O240 O 0.51508 0.71648 0.40374 0.0
O241 O 0.55155 0.70937 0.32101 0.0
O242 O 0.50705 0.64628 0.41583 0.0
O243 O 0.51067 0.63726 0.27721 0.0
C244 C 0.56238 0.74936 0.97062 0.0
C245 C 0.59877 0.76674 0.9907 0.0
H246 H 0.66636 0.79511 0.05209 0.0
H247 H 0.68255 0.77526 0.18356 0.0
H248 H 0.44946 0.6647 0.05482 0.0
H249 H 0.49018 0.71122 0.95423 0.0
H250 H 0.55374 0.75733 0.91496 0.0
H251 H 0.61756 0.7879 0.9501 0.0
Mn252 Mn 0.84829 0.5519 0.77302 0.0
Mn253 Mn 0.87186 0.55638 0.56502 0.0
C254 C 0.80725 0.53296 0.66392 0.0
C255 C 0.83103 0.57129 0.8961 0.0
C256 C 0.86582 0.49944 0.68447 0.0
O257 O 0.90256 0.5879 0.77614 0.0
O258 O 0.91223 0.58582 0.63626 0.0
C259 C 0.89199 0.63147 0.53659 0.0
N260 N 0.87313 0.59675 0.51348 0.0
C261 C 0.8503 0.61121 0.39049 0.0
C262 C 0.8696 0.64716 0.41272 0.0
C263 C 0.89036 0.6573 0.48636 0.0
C264 C 0.85266 0.58665 0.44349 0.0
H265 H 0.90815 0.63937 0.59284 0.0
C266 C 0.92289 0.59696 0.71063 0.0
O267 O 0.84108 0.54788 0.89948 0.0
O268 O 0.83432 0.58612 0.82278 0.0
N269 N 0.83511 0.52888 0.48579 0.0
C270 C 0.81729 0.49303 0.47468 0.0
C271 C 0.795 0.47844 0.40434 0.0
C272 C 0.79183 0.50087 0.34526 0.0
C273 C 0.81105 0.53771 0.35697 0.0
C274 C 0.83292 0.55072 0.42814 0.0
H275 H 0.81998 0.47571 0.51929 0.0
O276 O 0.79717 0.52054 0.73959 0.0
O277 O 0.84039 0.55569 0.6538 0.0
O278 O 0.8586 0.51133 0.75069 0.0
O279 O 0.87061 0.51392 0.6118 0.0
C280 C 0.8091 0.56202 0.30132 0.0
C281 C 0.82847 0.59872 0.31844 0.0
H282 H 0.86848 0.66716 0.37404 0.0
H283 H 0.90522 0.68497 0.50413 0.0
H284 H 0.78039 0.44999 0.39554 0.0
H285 H 0.77447 0.48951 0.29132 0.0
H286 H 0.79243 0.55272 0.24577 0.0
H287 H 0.82626 0.61711 0.27605 0.0
Mn288 Mn 0.29529 0.85001 0.10271 0.0
Mn289 Mn 0.31808 0.87694 0.89828 0.0
C290 C 0.27614 0.80995 0.99035 0.0
C291 C 0.25566 0.83156 0.22126 0.0
C292 C 0.36761 0.87085 1.02104 0.0
O293 O 0.31217 0.90395 0.10852 0.0
O294 O 0.32675 0.91623 0.97053 0.0
C295 C 0.26169 0.8946 0.86948 0.0
N296 N 0.27892 0.87719 0.84564 0.0
C297 C 0.23862 0.84918 0.73082 0.0
C298 C 0.22053 0.86695 0.75347 0.0
C299 C 0.2322 0.88987 0.82306 0.0
C300 C 0.26821 0.85541 0.77834 0.0
H301 H 0.27011 0.91165 0.92403 0.0
C302 C 0.32417 0.92538 0.04495 0.0
O303 O 0.28917 0.8424 0.22955 0.0
O304 O 0.24572 0.83423 0.14566 0.0
N305 N 0.311 0.84121 0.81891 0.0
C306 C 0.32977 0.82414 0.80912 0.0
C307 C 0.32158 0.80037 0.74193 0.0
C308 C 0.29413 0.79435 0.68595 0.0
C309 C 0.27549 0.81254 0.69717 0.0
C310 C 0.28564 0.83682 0.76329 0.0
H311 H 0.3506 0.82837 0.8526 0.0
O312 O 0.2774 0.79933 0.06627 0.0
O313 O 0.28614 0.84316 0.98242 0.0
O314 O 0.34721 0.86205 0.08565 0.0
O315 O 0.35902 0.87657 0.94806 0.0
C316 C 0.24601 0.8061 0.64821 0.0
C317 C 0.22725 0.82403 0.66589 0.0
H318 H 0.19733 0.86276 0.71872 0.0
H319 H 0.21822 0.90345 0.84153 0.0
H320 H 0.33603 0.78636 0.73403 0.0
H321 H 0.28716 0.77524 0.63557 0.0
H322 H 0.2368 0.78618 0.59938 0.0
H323 H 0.20337 0.81765 0.63137 0.0
Mn324 Mn 0.44496 0.29772 0.41775 0.0
Mn325 Mn 0.44415 0.32015 0.21032 0.0
C326 C 0.46727 0.27871 0.30895 0.0
C327 C 0.4257 0.25959 0.53938 0.0
C328 C 0.49619 0.37065 0.33812 0.0
O329 O 0.40618 0.31256 0.41628 0.0
O330 O 0.41019 0.326 0.27702 0.0
C331 C 0.37185 0.26281 0.16595 0.0
N332 N 0.40735 0.28094 0.15052 0.0
C333 C 0.3998 0.24774 1.02355 0.0
C334 C 0.36314 0.22879 0.0379 0.0
C335 C 0.34914 0.23621 0.1097 0.0
C336 C 0.42115 0.27368 0.08225 0.0
H337 H 0.36095 0.26865 0.22064 0.0
C338 C 0.39638 0.32275 0.3496 0.0
O339 O 0.44716 0.2935 0.54403 0.0
O340 O 0.41194 0.24811 0.46522 0.0
N341 N 0.4761 0.31517 0.13675 0.0
C342 C 0.51218 0.33457 0.13445 0.0
C343 C 0.53045 0.32959 0.06786 0.0
C344 C 0.51144 0.30521 1.00365 0.0
C345 C 0.47431 0.28594 1.00677 0.0
C346 C 0.45756 0.29199 0.07469 0.0
H347 H 0.52689 0.35361 0.18314 0.0
O348 O 0.4787 0.28049 0.38546 0.0
O349 O 0.44419 0.28848 0.29814 0.0
O350 O 0.4841 0.34979 0.4017 0.0
O351 O 0.48317 0.36203 0.26419 0.0
C352 C 0.45328 0.2607 0.94561 0.0
C353 C 0.41607 0.2415 0.95412 0.0
H354 H 0.34553 0.20829 0.99461 0.0
H355 H 0.32088 0.2216 0.12139 0.0
H356 H 0.5591 0.34461 0.06585 0.0
H357 H 0.52562 0.30137 0.95251 0.0
H358 H 0.46554 0.25552 0.89251 0.0
H359 H 0.40024 0.22182 0.90727 0.0
Mn360 Mn 0.14376 0.44565 0.76711 0.0
Mn361 Mn 0.11682 0.43701 0.56071 0.0
C362 C 0.18322 0.46389 0.65508 0.0
C363 C 0.16327 0.42868 0.89151 0.0
C364 C 0.12364 0.49565 0.67331 0.0
O365 O 0.08991 0.4092 0.77606 0.0
O366 O 0.07765 0.40866 0.63677 0.0
C367 C 0.09737 0.36167 0.54319 0.0
N368 N 0.1153 0.3958 0.51467 0.0
C369 C 0.13688 0.37906 0.39387 0.0
C370 C 0.11845 0.34368 0.42161 0.0
C371 C 0.09876 0.33499 0.49685 0.0
C372 C 0.13467 0.40453 0.44299 0.0
H373 H 0.08215 0.35488 0.60087 0.0
C374 C 0.06849 0.39866 0.71264 0.0
O375 O 0.15258 0.45163 0.89288 0.0
O376 O 0.15915 0.41274 0.81979 0.0
N377 N 0.15204 0.463 0.47676 0.0
C378 C 0.16945 0.49855 0.46059 0.0
C379 C 0.19076 0.51176 0.38813 0.0
C380 C 0.19346 0.48825 0.33234 0.0
C381 C 0.1747 0.45171 0.34939 0.0
C382 C 0.15369 0.44008 0.42219 0.0
H383 H 0.1673 0.5167 0.50296 0.0
O384 O 0.19411 0.4774 0.72933 0.0
O385 O 0.15017 0.4402 0.64806 0.0
O386 O 0.13189 0.48495 0.74053 0.0
O387 O 0.11829 0.48023 0.60204 0.0
C388 C 0.17648 0.42642 0.29776 0.0
C389 C 0.15781 0.39016 0.3202 0.0
H390 H 0.11948 0.32303 0.38604 0.0
H391 H 0.08463 0.30778 0.51893 0.0
H392 H 0.20508 0.53999 0.37534 0.0
H393 H 0.21016 0.49853 0.27689 0.0
H394 H 0.19257 0.43466 0.2414 0.0
H395 H 0.15997 0.37109 0.28071 0.0
Mn396 Mn 0.69564 0.14654 0.10261 0.0
Mn397 Mn 0.67683 0.12086 0.89581 0.0
C398 C 0.7174 0.18665 0.99132 0.0
C399 C 0.73238 0.16499 0.22583 0.0
C400 C 0.62541 0.12704 1.01183 0.0
O401 O 0.67779 0.09248 0.10964 0.0
O402 O 0.66645 0.0811 0.96994 0.0
C403 C 0.73261 0.10182 0.87165 0.0
N404 N 0.71632 0.12003 0.84629 0.0
C405 C 0.75388 0.14282 0.72386 0.0
C406 C 0.77096 0.12418 0.74843 0.0
C407 C 0.76039 0.10374 0.82289 0.0
C408 C 0.72656 0.14011 0.77535 0.0
H409 H 0.72444 0.08596 0.92861 0.0
C410 C 0.66707 0.07145 0.04558 0.0
O411 O 0.69889 0.1548 0.22862 0.0
O412 O 0.7439 0.16128 0.15327 0.0
N413 N 0.68562 0.15691 0.81416 0.0
C414 C 0.66739 0.17438 0.80116 0.0
C415 C 0.67509 0.19642 0.72995 0.0
C416 C 0.70097 0.19977 0.67207 0.0
C417 C 0.71887 0.18096 0.68584 0.0
C418 C 0.70994 0.15926 0.75769 0.0
H419 H 0.64725 0.17167 0.845 0.0
O420 O 0.71496 0.19729 0.06599 0.0
O421 O 0.70733 0.15348 0.98343 0.0
O422 O 0.6446 0.13538 0.07835 0.0
O423 O 0.63519 0.1216 0.9403 0.0
C424 C 0.74557 0.18327 0.63174 0.0
C425 C 0.76325 0.16443 0.65106 0.0
H426 H 0.79238 0.12557 0.71098 0.0
H427 H 0.77355 0.08941 0.84246 0.0
H428 H 0.66107 0.21075 0.71963 0.0
H429 H 0.70702 0.21697 0.61754 0.0
H430 H 0.75305 0.19987 0.57578 0.0
H431 H 0.78419 0.16694 0.60987 0.0
C432 C 0.33924 0.35992 0.27125 0.0
C433 C 0.32935 0.36883 0.34672 0.0
H434 H 0.36687 0.33711 0.2131 0.0
C435 C 0.33614 0.35639 0.42378 0.0
H436 H 0.33403 0.36842 0.21118 0.0
C437 C 0.35619 0.33947 0.42586 0.0
C438 C 0.36912 0.33373 0.35079 0.0
H439 H 0.32788 0.36169 0.4838 0.0
H440 H 0.36307 0.33271 0.48617 0.0
C441 C 0.35851 0.34221 0.27321 0.0
C442 C 0.97658 0.32361 0.67789 0.0
C443 C 0.95891 0.34267 0.66281 0.0
H444 H 0.02599 0.32654 0.7102 0.0
C445 C 0.97707 0.37936 0.67784 0.0
H446 H 0.96261 0.29501 0.67134 0.0
C447 C 0.01184 0.39661 0.70751 0.0
C448 C 0.0299 0.37791 0.72114 0.0
H449 H 0.96356 0.39443 0.67107 0.0
H450 H 0.02544 0.42518 0.71524 0.0
C451 C 0.0121 0.34126 0.70475 0.0
C452 C 0.5975 0.97905 1.00314 0.0
C453 C 0.61689 0.96137 0.99884 0.0
H454 H 0.59793 0.02725 0.03071 0.0
C455 C 0.65283 0.97971 1.02262 0.0
H456 H 0.56932 0.96504 0.98973 0.0
C457 C 0.66924 0.01545 0.04746 0.0
C458 C 0.64945 0.03275 0.05313 0.0
H459 H 0.66787 0.96608 0.02433 0.0
H460 H 0.69746 0.02979 0.05993 0.0
C461 C 0.61342 0.01405 0.0308 0.0
C462 C 0.61686 0.60068 0.33463 0.0
C463 C 0.65395 0.62052 0.33135 0.0
H464 H 0.56866 0.59989 0.36366 0.0
C465 C 0.67109 0.65613 0.3579 0.0
H466 H 0.603 0.57267 0.31915 0.0
C467 C 0.65132 0.67175 0.38471 0.0
C468 C 0.6142 0.65145 0.38953 0.0
H469 H 0.69976 0.67147 0.36046 0.0
H470 H 0.66489 0.6998 0.39928 0.0
C471 C 0.59735 0.61574 0.36443 0.0
C472 C 0.97951 0.65504 0.71782 0.0
C473 C 0.96174 0.61784 0.71448 0.0
H474 H 0.02923 0.70352 0.70104 0.0
C475 C 0.97982 0.60128 0.68212 0.0
H476 H 0.96571 0.66857 0.73837 0.0
C477 C 0.0146 0.62115 0.65337 0.0
C478 C 0.03288 0.65823 0.65864 0.0
H479 H 0.96631 0.57266 0.67553 0.0
H480 H 0.02809 0.60732 0.63245 0.0
C481 C 0.01513 0.67504 0.69208 0.0
C482 C 0.3215 0.98104 0.037 0.0
C483 C 0.34123 0.96405 0.05201 0.0
H484 H 0.32324 0.02991 1.00326 0.0
C485 C 0.37781 0.98287 0.03571 0.0
H486 H 0.29298 0.96658 0.04463 0.0
C487 C 0.39424 0.01739 1.00395 0.0
C488 C 0.37489 0.03477 0.99018 0.0
H489 H 0.39343 0.96993 0.04269 0.0
H490 H 0.42272 0.0314 0.99481 0.0
C491 C 0.33841 0.01649 1.00865 0.0
C492 C 0.20169 0.4536 1.02124 0.0
C493 C 0.18428 0.42545 0.96365 0.0
H494 H 0.23776 0.4757 0.12566 0.0
C495 C 0.18994 0.39633 0.9724 0.0
H496 H 0.1986 0.47672 1.01647 0.0
C497 C 0.21211 0.39546 0.037 0.0
C498 C 0.22998 0.42413 0.09305 0.0
H499 H 0.17727 0.37422 0.92922 0.0
H500 H 0.21577 0.37269 0.04212 0.0
C501 C 0.22447 0.45316 0.08375 0.0
C502 C 0.78733 0.24648 0.36232 0.0
C503 C 0.80419 0.23521 0.42057 0.0
H504 H 0.75109 0.23297 0.25841 0.0
C505 C 0.79734 0.19997 0.41372 0.0
H506 H 0.79132 0.27307 0.36572 0.0
C507 C 0.77459 0.17699 0.35008 0.0
C508 C 0.75726 0.18834 0.29345 0.0
H509 H 0.80946 0.19011 0.45773 0.0
H510 H 0.77004 0.1502 0.34621 0.0
C511 C 0.76393 0.22332 0.30092 0.0
C512 C 0.53832 0.77063 0.75239 0.0
C513 C 0.56719 0.80526 0.76142 0.0
H514 H 0.51541 0.72109 0.68656 0.0
C515 C 0.59622 0.81619 0.70632 0.0
H516 H 0.51555 0.7613 0.79371 0.0
C517 C 0.59581 0.79319 0.64263 0.0
C518 C 0.5669 0.75827 0.63441 0.0
H519 H 0.61888 0.84269 0.71138 0.0
H520 H 0.61808 0.80275 0.59976 0.0
C521 C 0.5384 0.7474 0.69113 0.0
C522 C 0.79628 0.60172 0.08324 0.0
C523 C 0.76131 0.57296 0.09196 0.0
H524 H 0.84567 0.62451 1.01373 0.0
C525 C 0.75019 0.54448 0.03526 0.0
H526 H 0.806 0.624 0.12597 0.0
C527 C 0.77321 0.54425 0.97356 0.0
C528 C 0.80788 0.57296 0.96401 0.0
H529 H 0.72382 0.52158 0.04015 0.0
H530 H 0.76368 0.52145 0.93244 0.0
C531 C 0.8191 0.60198 1.01912 0.0
C532 C 0.21399 0.80249 0.44095 0.0
C533 C 0.18508 0.76812 0.42617 0.0
H534 H 0.26004 0.84866 0.39035 0.0
C535 C 0.17719 0.75744 0.34197 0.0
H536 H 0.22022 0.81295 0.50311 0.0
C537 C 0.19834 0.77963 0.27615 0.0
C538 C 0.22955 0.81209 0.29129 0.0
H539 H 0.15488 0.73163 0.32675 0.0
H540 H 0.19079 0.77012 0.21394 0.0
C541 C 0.23675 0.82353 0.37527 0.0
C542 C 0.4531 0.22281 0.7264 0.0
C543 C 0.42337 0.18919 0.74125 0.0
H544 H 0.47649 0.27123 0.6549 0.0
C545 C 0.39329 0.17873 0.68979 0.0
H546 H 0.4768 0.23168 0.76412 0.0
C547 C 0.39349 0.2012 0.62412 0.0
C548 C 0.42323 0.23526 0.61073 0.0
H549 H 0.36992 0.15296 0.6992 0.0
H550 H 0.37034 0.19204 0.58432 0.0
C551 C 0.45282 0.24563 0.66366 0.0
C552 C 0.23408 0.49922 0.55667 0.0
C553 C 0.20773 0.46664 0.58982 0.0
H554 H 0.27516 0.52453 0.4627 0.0
C555 C 0.20252 0.43478 0.5565 0.0
H556 H 0.23822 0.52401 0.58236 0.0
C557 C 0.22222 0.43507 0.48844 0.0
C558 C 0.24878 0.46723 0.45505 0.0
H559 H 0.18265 0.40941 0.58229 0.0
H560 H 0.21723 0.40987 0.46315 0.0
C561 C 0.25448 0.49952 0.48798 0.0
C562 C 0.78607 0.22541 0.82534 0.0
C563 C 0.78087 0.25214 0.79163 0.0
H564 H 0.77127 0.18552 0.91931 0.0
C565 C 0.75452 0.2582 0.82444 0.0
H566 H 0.80602 0.22012 0.79987 0.0
C567 C 0.7342 0.23797 0.89333 0.0
C568 C 0.73985 0.21131 0.92666 0.0
H569 H 0.75042 0.27892 0.79854 0.0
H570 H 0.71367 0.24235 0.91873 0.0
C571 C 0.7663 0.20573 0.89348 0.0
C572 C 0.49454 0.75692 0.16257 0.0
C573 C 0.52711 0.78327 0.12972 0.0
H574 H 0.46915 0.71584 0.2568 0.0
C575 C 0.5589 0.78834 0.16348 0.0
H576 H 0.46982 0.75292 0.13659 0.0
C577 C 0.55854 0.76845 0.23171 0.0
C578 C 0.52636 0.74194 0.26479 0.0
H579 H 0.58426 0.80824 0.13791 0.0
H580 H 0.58363 0.77332 0.25753 0.0
C581 C 0.49417 0.73642 0.23147 0.0
C582 C 0.73556 0.4987 0.49847 0.0
C583 C 0.74201 0.53122 0.46444 0.0
H584 H 0.75095 0.47352 0.59381 0.0
C585 C 0.76877 0.56315 0.49761 0.0
H586 H 0.71479 0.47388 0.47305 0.0
C587 C 0.78823 0.56296 0.56601 0.0
C588 C 0.78234 0.53083 0.60022 0.0
H589 H 0.77436 0.58847 0.4713 0.0
H590 H 0.80862 0.58815 0.591 0.0
C591 C 0.75553 0.49851 0.56773 0.0
C592 C 0.23747 0.73653 0.82669 0.0
C593 C 0.2104 0.74177 0.79424 0.0
H594 H 0.27958 0.75375 0.91848 0.0
C595 C 0.2056 0.76884 0.82677 0.0
H596 H 0.24157 0.71574 0.80188 0.0
C597 C 0.22666 0.78991 0.89195 0.0
C598 C 0.25367 0.78504 0.92508 0.0
H599 H 0.18518 0.77365 0.802 0.0
H600 H 0.22198 0.81045 0.91609 0.0
C601 C 0.2588 0.75786 0.89334 0.0
C602 C 0.43526 0.20941 0.14512 0.0
C603 C 0.46662 0.21389 0.1104 0.0
H604 H 0.41148 0.22485 0.23971 0.0
C605 C 0.49955 0.23977 0.14257 0.0
H606 H 0.40963 0.18987 0.12029 0.0
C607 C 0.50067 0.26038 0.21166 0.0
C608 C 0.46886 0.25534 0.24614 0.0
H609 H 0.52397 0.24333 0.1159 0.0
H610 H 0.52596 0.28067 0.23615 0.0
C611 C 0.43635 0.2293 0.2135 0.0
C612 C 0.41704 0.54425 0.43785 0.0
C613 C 0.39839 0.52695 0.36405 0.0
H614 H 0.46208 0.58937 0.49127 0.0
C615 C 0.41292 0.54221 0.2853 0.0
H616 H 0.40676 0.53331 0.49977 0.0
C617 C 0.44497 0.57432 0.28057 0.0
C618 C 0.46299 0.59215 0.35451 0.0
H619 H 0.39938 0.52959 0.22726 0.0
H620 H 0.45516 0.58551 0.21878 0.0
C621 C 0.44881 0.57654 0.43314 0.0
C622 C 0.86776 0.44855 0.61672 0.0
C623 C 0.86737 0.46626 0.69053 0.0
H624 H 0.86709 0.40319 0.56341 0.0
C625 C 0.86745 0.45137 0.76933 0.0
H626 H 0.86777 0.45922 0.55479 0.0
C627 C 0.86743 0.41929 0.77414 0.0
C628 C 0.86687 0.40114 0.70026 0.0
H629 H 0.86733 0.46434 0.82739 0.0
H630 H 0.86716 0.40843 0.83598 0.0
C631 C 0.8673 0.4163 0.62153 0.0
C632 C 0.44819 0.87075 0.1121 0.0
C633 C 0.46654 0.87149 0.03827 0.0
H634 H 0.40242 0.86965 0.16495 0.0
C635 C 0.45297 0.87382 0.95967 0.0
H636 H 0.45799 0.86912 0.17386 0.0
C637 C 0.42149 0.8747 0.95476 0.0
C638 C 0.40239 0.87267 0.02829 0.0
H639 H 0.46656 0.87478 0.90168 0.0
H640 H 0.41181 0.87621 0.89275 0.0
C641 C 0.41629 0.87103 0.10713 0.0
C642 C 0.57456 0.45099 0.43698 0.0
C643 C 0.59343 0.47026 0.36501 0.0
H644 H 0.52916 0.40433 0.48526 0.0
C645 C 0.57888 0.45757 0.28488 0.0
H646 H 0.58495 0.46007 0.49976 0.0
C647 C 0.54674 0.42592 0.27668 0.0
C648 C 0.5285 0.40586 0.34838 0.0
H649 H 0.59251 0.47188 0.22818 0.0
H650 H 0.53674 0.41678 0.21366 0.0
C651 C 0.54257 0.41899 0.42873 0.0
C652 C 0.1239 0.57973 0.60716 0.0
C653 C 0.12058 0.59287 0.68529 0.0
H654 H 0.12682 0.5384 0.54184 0.0
C655 C 0.11653 0.57278 0.75881 0.0
H656 H 0.12686 0.59437 0.54936 0.0
C657 C 0.11723 0.54115 0.75481 0.0
C658 C 0.12126 0.52835 0.67705 0.0
H659 H 0.11367 0.58183 0.82028 0.0
H660 H 0.11474 0.52681 0.81286 0.0
C661 C 0.12389 0.54762 0.603 0.0
C662 C 0.57276 0.12473 0.94132 0.0
C663 C 0.59048 0.12499 1.01603 0.0
H664 H 0.52836 0.12553 0.88588 0.0
C665 C 0.57496 0.12435 0.09406 0.0
H666 H 0.58383 0.12508 0.87995 0.0
C667 C 0.54283 0.12412 0.09731 0.0
C668 C 0.52571 0.12506 1.02261 0.0
H669 H 0.58773 0.12428 0.15274 0.0
H670 H 0.53187 0.12399 0.15868 0.0
C671 C 0.5409 0.12503 0.94458 0.0
loop_
_geom_bond_atom_site_label_1
_geom_bond_atom_site_label_2
_geom_bond_distance
_geom_bond_site_symmetry_2
_ccdc_geom_bond_type
Mn0 O5 2.095 . S
Mn0 O15 2.162 . S
Mn0 O16 2.297 . S
Mn0 O24 2.385 . S
Mn0 O25 2.209 . S
Mn0 O26 2.094 . S
Mn1 O6 2.121 . S
Mn1 N8 2.257 . S
Mn1 N17 2.282 . S
Mn1 O25 2.215 . S
Mn1 O27 2.117 . S
C2 O24 1.234 . S
C2 O25 1.283 . S
C3 O15 1.281 . S
C3 O16 1.236 . S
C4 O26 1.240 . S
C4 O27 1.264 . S
O5 Mn0 2.095 . S
O5 C14 1.250 . S
O6 Mn1 2.121 . S
O6 C14 1.258 . S
C7 N8 1.326 . S
C7 C11 1.460 . S
C7 H13 0.929 . S
N8 Mn1 2.257 . S
N8 C7 1.326 . S
N8 C12 1.362 . S
C9 C10 1.258 . S
C9 C12 1.431 . S
C9 C29 1.449 . S
C10 C9 1.258 . S
C10 C11 1.477 . S
C10 H30 0.931 . S
C11 C7 1.460 . S
C11 C10 1.477 . S
C11 H31 0.930 . S
C12 N8 1.362 . S
C12 C9 1.431 . S
C12 C22 1.476 . S
H13 C7 0.929 . S
C14 O5 1.250 . S
C14 O6 1.258 . S
O15 Mn0 2.162 . S
O15 C3 1.281 . S
O16 Mn0 2.297 . S
O16 C3 1.236 . S
N17 Mn1 2.282 . S
N17 C18 1.328 . S
N17 C22 1.318 . S
C18 N17 1.328 . S
C18 C19 1.457 . S
C18 H23 0.929 . S
C19 C18 1.457 . S
C19 C20 1.291 . S
C19 H32 0.931 . S
C20 C19 1.291 . S
C20 C21 1.373 . S
C20 H33 0.929 . S
C21 C20 1.373 . S
C21 C22 1.396 . S
C21 C28 1.403 . S
C22 C12 1.476 . S
C22 N17 1.318 . S
C22 C21 1.396 . S
H23 C18 0.929 . S
O24 Mn0 2.385 . S
O24 C2 1.234 . S
O25 Mn0 2.209 . S
O25 Mn1 2.215 . S
O25 C2 1.283 . S
O26 Mn0 2.094 . S
O26 C4 1.240 . S
O27 Mn1 2.117 . S
O27 C4 1.264 . S
C28 C21 1.403 . S
C28 C29 1.399 . S
C28 H34 0.929 . S
C29 C9 1.449 . S
C29 C28 1.399 . S
C29 H35 0.930 . S
H30 C10 0.931 . S
H31 C11 0.930 . S
H32 C19 0.931 . S
H33 C20 0.929 . S
H34 C28 0.929 . S
H35 C29 0.930 . S
Mn36 O41 2.095 . S
Mn36 O51 2.162 . S
Mn36 O52 2.297 . S
Mn36 O60 2.385 . S
Mn36 O61 2.209 . S
Mn36 O62 2.094 . S
Mn37 O42 2.121 . S
Mn37 N44 2.257 . S
Mn37 N53 2.282 . S
Mn37 O61 2.215 . S
Mn37 O63 2.117 . S
C38 O60 1.234 . S
C38 O61 1.283 . S
C39 O51 1.281 . S
C39 O52 1.236 . S
C40 O62 1.240 . S
C40 O63 1.264 . S
O41 Mn36 2.095 . S
O41 C50 1.250 . S
O42 Mn37 2.121 . S
O42 C50 1.258 . S
C43 N44 1.326 . S
C43 C47 1.460 . S
C43 H49 0.929 . S
N44 Mn37 2.257 . S
N44 C43 1.326 . S
N44 C48 1.362 . S
C45 C46 1.258 . S
C45 C48 1.431 1_554 S
C45 C65 1.449 . S
C46 C45 1.258 . S
C46 C47 1.477 1_554 S
C46 H66 0.931 . S
C47 C43 1.460 . S
C47 C46 1.477 1_556 S
C47 H67 0.930 . S
C48 N44 1.362 . S
C48 C45 1.431 1_556 S
C48 C58 1.476 . S
H49 C43 0.929 . S
C50 O41 1.250 . S
C50 O42 1.258 . S
O51 Mn36 2.162 . S
O51 C39 1.281 . S
O52 Mn36 2.297 . S
O52 C39 1.236 . S
N53 Mn37 2.282 . S
N53 C54 1.328 . S
N53 C58 1.318 . S
C54 N53 1.328 . S
C54 C55 1.457 . S
C54 H59 0.929 . S
C55 C54 1.457 . S
C55 C56 1.291 1_556 S
C55 H68 0.931 . S
C56 C55 1.291 1_554 S
C56 C57 1.373 . S
C56 H69 0.929 . S
C57 C56 1.373 . S
C57 C58 1.396 1_554 S
C57 C64 1.403 . S
C58 C48 1.476 . S
C58 N53 1.318 . S
C58 C57 1.396 1_556 S
H59 C54 0.929 . S
O60 Mn36 2.385 . S
O60 C38 1.234 . S
O61 Mn36 2.209 . S
O61 Mn37 2.215 . S
O61 C38 1.283 . S
O62 Mn36 2.094 . S
O62 C40 1.240 . S
O63 Mn37 2.117 . S
O63 C40 1.264 . S
C64 C57 1.403 . S
C64 C65 1.399 . S
C64 H70 0.929 . S
C65 C45 1.449 . S
C65 C64 1.399 . S
C65 H71 0.930 . S
H66 C46 0.931 . S
H67 C47 0.930 . S
H68 C55 0.931 . S
H69 C56 0.929 . S
H70 C64 0.929 . S
H71 C65 0.930 . S
Mn72 O77 2.095 . S
Mn72 O87 2.162 . S
Mn72 O88 2.297 . S
Mn72 O96 2.385 . S
Mn72 O97 2.209 1_556 S
Mn72 O98 2.094 . S
Mn73 O78 2.121 . S
Mn73 N80 2.257 . S
Mn73 N89 2.282 . S
Mn73 O97 2.215 . S
Mn73 O99 2.117 . S
C74 O96 1.234 1_554 S
C74 O97 1.283 . S
C75 O87 1.281 . S
C75 O88 1.236 . S
C76 O98 1.231 1_554 S
C76 O99 1.273 . S
O77 Mn72 2.095 . S
O77 C86 1.250 . S
O78 Mn73 2.121 . S
O78 C86 1.258 1_554 S
C79 N80 1.326 . S
C79 C83 1.460 . S
C79 H85 0.929 . S
N80 Mn73 2.257 . S
N80 C79 1.326 . S
N80 C84 1.362 . S
C81 C82 1.258 . S
C81 C84 1.431 . S
C81 C101 1.449 . S
C82 C81 1.258 . S
C82 C83 1.477 . S
C82 H102 0.931 . S
C83 C79 1.460 . S
C83 C82 1.477 . S
C83 H103 0.930 . S
C84 N80 1.362 . S
C84 C81 1.431 . S
C84 C94 1.476 . S
H85 C79 0.929 . S
C86 O77 1.250 . S
C86 O78 1.258 1_556 S
O87 Mn72 2.162 . S
O87 C75 1.281 . S
O88 Mn72 2.297 . S
O88 C75 1.236 . S
N89 Mn73 2.282 . S
N89 C90 1.328 . S
N89 C94 1.318 . S
C90 N89 1.328 . S
C90 C91 1.457 . S
C90 H95 0.929 . S
C91 C90 1.457 . S
C91 C92 1.291 . S
C91 H104 0.931 . S
C92 C91 1.291 . S
C92 C93 1.373 . S
C92 H105 0.929 . S
C93 C92 1.373 . S
C93 C94 1.396 . S
C93 C100 1.403 . S
C94 C84 1.476 . S
C94 N89 1.318 . S
C94 C93 1.396 . S
H95 C90 0.929 . S
O96 Mn72 2.385 . S
O96 C74 1.234 1_556 S
O97 Mn72 2.209 1_554 S
O97 Mn73 2.215 . S
O97 C74 1.283 . S
O98 Mn72 2.094 . S
O98 C76 1.231 1_556 S
O99 Mn73 2.117 . S
O99 C76 1.273 . S
C100 C93 1.403 . S
C100 C101 1.399 . S
C100 H106 0.929 . S
C101 C81 1.449 . S
C101 C100 1.399 . S
C101 H107 0.930 . S
H102 C82 0.931 . S
H103 C83 0.930 . S
H104 C91 0.931 . S
H105 C92 0.929 . S
H106 C100 0.929 . S
H107 C101 0.930 . S
Mn108 O113 2.095 . S
Mn108 O123 2.162 . S
Mn108 O124 2.297 . S
Mn108 O132 2.385 . S
Mn108 O133 2.209 . S
Mn108 O134 2.094 . S
Mn109 O114 2.121 . S
Mn109 N116 2.257 . S
Mn109 N125 2.282 . S
Mn109 O133 2.215 . S
Mn109 O135 2.117 . S
C110 O132 1.234 . S
C110 O133 1.283 . S
C111 O123 1.281 . S
C111 O124 1.236 . S
C112 O134 1.240 . S
C112 O135 1.264 . S
O113 Mn108 2.095 . S
O113 C122 1.250 . S
O114 Mn109 2.121 . S
O114 C122 1.258 . S
C115 N116 1.326 . S
C115 C119 1.460 . S
C115 H121 0.929 . S
N116 Mn109 2.257 . S
N116 C115 1.326 . S
N116 C120 1.362 . S
C117 C118 1.258 . S
C117 C120 1.431 . S
C117 C137 1.449 . S
C118 C117 1.258 . S
C118 C119 1.477 . S
C118 H138 0.931 . S
C119 C115 1.460 . S
C119 C118 1.477 . S
C119 H139 0.930 . S
C120 N116 1.362 . S
C120 C117 1.431 . S
C120 C130 1.476 . S
H121 C115 0.929 . S
C122 O113 1.250 . S
C122 O114 1.258 . S
O123 Mn108 2.162 . S
O123 C111 1.281 . S
O124 Mn108 2.297 . S
O124 C111 1.236 . S
N125 Mn109 2.282 . S
N125 C126 1.328 . S
N125 C130 1.318 . S
C126 N125 1.328 . S
C126 C127 1.457 . S
C126 H131 0.929 . S
C127 C126 1.457 . S
C127 C128 1.291 . S
C127 H140 0.931 . S
C128 C127 1.291 . S
C128 C129 1.373 . S
C128 H141 0.929 . S
C129 C128 1.373 . S
C129 C130 1.396 . S
C129 C136 1.403 . S
C130 C120 1.476 . S
C130 N125 1.318 . S
C130 C129 1.396 . S
H131 C126 0.929 . S
O132 Mn108 2.385 . S
O132 C110 1.234 . S
O133 Mn108 2.209 . S
O133 Mn109 2.215 . S
O133 C110 1.283 . S
O134 Mn108 2.094 . S
O134 C112 1.240 . S
O135 Mn109 2.117 . S
O135 C112 1.264 . S
C136 C129 1.403 . S
C136 C137 1.399 . S
C136 H142 0.929 . S
C137 C117 1.449 . S
C137 C136 1.399 . S
C137 H143 0.930 . S
H138 C118 0.931 . S
H139 C119 0.930 . S
H140 C127 0.931 . S
H141 C128 0.929 . S
H142 C136 0.929 . S
H143 C137 0.930 . S
Mn144 O149 2.095 . S
Mn144 O159 2.162 . S
Mn144 O160 2.297 . S
Mn144 O168 2.385 . S
Mn144 O169 2.209 . S
Mn144 O170 2.094 . S
Mn145 O150 2.121 . S
Mn145 N152 2.257 . S
Mn145 N161 2.282 . S
Mn145 O169 2.215 . S
Mn145 O171 2.117 . S
C146 O168 1.234 . S
C146 O169 1.283 . S
C147 O159 1.281 . S
C147 O160 1.236 . S
C148 O170 1.240 . S
C148 O171 1.264 . S
O149 Mn144 2.095 . S
O149 C158 1.250 . S
O150 Mn145 2.121 . S
O150 C158 1.258 . S
C151 N152 1.326 . S
C151 C155 1.460 . S
C151 H157 0.929 . S
N152 Mn145 2.257 . S
N152 C151 1.326 . S
N152 C156 1.362 . S
C153 C154 1.258 . S
C153 C156 1.431 1_554 S
C153 C173 1.449 . S
C154 C153 1.258 . S
C154 C155 1.477 1_554 S
C154 H174 0.931 . S
C155 C151 1.460 . S
C155 C154 1.477 1_556 S
C155 H175 0.930 . S
C156 N152 1.362 . S
C156 C153 1.431 1_556 S
C156 C166 1.476 . S
H157 C151 0.929 . S
C158 O149 1.250 . S
C158 O150 1.258 . S
O159 Mn144 2.162 . S
O159 C147 1.281 . S
O160 Mn144 2.297 . S
O160 C147 1.236 . S
N161 Mn145 2.282 . S
N161 C162 1.328 . S
N161 C166 1.318 . S
C162 N161 1.328 . S
C162 C163 1.457 . S
C162 H167 0.929 . S
C163 C162 1.457 . S
C163 C164 1.291 1_556 S
C163 H176 0.931 . S
C164 C163 1.291 1_554 S
C164 C165 1.373 . S
C164 H177 0.929 . S
C165 C164 1.373 . S
C165 C166 1.396 1_554 S
C165 C172 1.403 . S
C166 C156 1.476 . S
C166 N161 1.318 . S
C166 C165 1.396 1_556 S
H167 C162 0.929 . S
O168 Mn144 2.385 . S
O168 C146 1.234 . S
O169 Mn144 2.209 . S
O169 Mn145 2.215 . S
O169 C146 1.283 . S
O170 Mn144 2.094 . S
O170 C148 1.240 . S
O171 Mn145 2.117 . S
O171 C148 1.264 . S
C172 C165 1.403 . S
C172 C173 1.399 . S
C172 H178 0.929 . S
C173 C153 1.449 . S
C173 C172 1.399 . S
C173 H179 0.930 . S
H174 C154 0.931 . S
H175 C155 0.930 . S
H176 C163 0.931 . S
H177 C164 0.929 . S
H178 C172 0.929 . S
H179 C173 0.930 . S
Mn180 O185 2.095 . S
Mn180 O195 2.162 . S
Mn180 O196 2.297 . S
Mn180 O204 2.385 . S
Mn180 O205 2.209 1_556 S
Mn180 O206 2.094 . S
Mn181 O186 2.121 . S
Mn181 N188 2.257 . S
Mn181 N197 2.282 . S
Mn181 O205 2.215 . S
Mn181 O207 2.117 . S
C182 O204 1.234 1_554 S
C182 O205 1.283 . S
C183 O195 1.281 . S
C183 O196 1.236 . S
C184 O206 1.231 1_554 S
C184 O207 1.273 . S
O185 Mn180 2.095 . S
O185 C194 1.250 . S
O186 Mn181 2.121 . S
O186 C194 1.258 1_554 S
C187 N188 1.326 . S
C187 C191 1.460 . S
C187 H193 0.929 . S
N188 Mn181 2.257 . S
N188 C187 1.326 . S
N188 C192 1.362 . S
C189 C190 1.258 . S
C189 C192 1.431 . S
C189 C209 1.449 . S
C190 C189 1.258 . S
C190 C191 1.477 . S
C190 H210 0.931 . S
C191 C187 1.460 . S
C191 C190 1.477 . S
C191 H211 0.930 . S
C192 N188 1.362 . S
C192 C189 1.431 . S
C192 C202 1.476 . S
H193 C187 0.929 . S
C194 O185 1.250 . S
C194 O186 1.258 1_556 S
O195 Mn180 2.162 . S
O195 C183 1.281 . S
O196 Mn180 2.297 . S
O196 C183 1.236 . S
N197 Mn181 2.282 . S
N197 C198 1.328 . S
N197 C202 1.318 . S
C198 N197 1.328 . S
C198 C199 1.457 . S
C198 H203 0.929 . S
C199 C198 1.457 . S
C199 C200 1.291 . S
C199 H212 0.931 . S
C200 C199 1.291 . S
C200 C201 1.373 . S
C200 H213 0.929 . S
C201 C200 1.373 . S
C201 C202 1.396 . S
C201 C208 1.403 . S
C202 C192 1.476 . S
C202 N197 1.318 . S
C202 C201 1.396 . S
H203 C198 0.929 . S
O204 Mn180 2.385 . S
O204 C182 1.234 1_556 S
O205 Mn180 2.209 1_554 S
O205 Mn181 2.215 . S
O205 C182 1.283 . S
O206 Mn180 2.094 . S
O206 C184 1.231 1_556 S
O207 Mn181 2.117 . S
O207 C184 1.273 . S
C208 C201 1.403 . S
C208 C209 1.399 . S
C208 H214 0.929 . S
C209 C189 1.449 . S
C209 C208 1.399 . S
C209 H215 0.930 . S
H210 C190 0.931 . S
H211 C191 0.930 . S
H212 C199 0.931 . S
H213 C200 0.929 . S
H214 C208 0.929 . S
H215 C209 0.930 . S
Mn216 O221 2.095 . S
Mn216 O231 2.162 . S
Mn216 O232 2.297 . S
Mn216 O240 2.385 . S
Mn216 O241 2.209 . S
Mn216 O242 2.094 . S
Mn217 O222 2.121 . S
Mn217 N224 2.257 . S
Mn217 N233 2.282 . S
Mn217 O241 2.215 . S
Mn217 O243 2.117 . S
C218 O240 1.234 . S
C218 O241 1.283 . S
C219 O231 1.281 . S
C219 O232 1.236 . S
C220 O242 1.240 . S
C220 O243 1.264 . S
O221 Mn216 2.095 . S
O221 C230 1.250 . S
O222 Mn217 2.121 . S
O222 C230 1.258 . S
C223 N224 1.326 . S
C223 C227 1.460 . S
C223 H229 0.929 . S
N224 Mn217 2.257 . S
N224 C223 1.326 . S
N224 C228 1.362 . S
C225 C226 1.258 . S
C225 C228 1.431 1_556 S
C225 C245 1.449 . S
C226 C225 1.258 . S
C226 C227 1.477 1_556 S
C226 H246 0.931 . S
C227 C223 1.460 . S
C227 C226 1.477 1_554 S
C227 H247 0.930 . S
C228 N224 1.362 . S
C228 C225 1.431 1_554 S
C228 C238 1.476 . S
H229 C223 0.929 . S
C230 O221 1.250 . S
C230 O222 1.258 . S
O231 Mn216 2.162 . S
O231 C219 1.281 . S
O232 Mn216 2.297 . S
O232 C219 1.236 . S
N233 Mn217 2.282 . S
N233 C234 1.328 . S
N233 C238 1.318 . S
C234 N233 1.328 . S
C234 C235 1.457 . S
C234 H239 0.929 . S
C235 C234 1.457 . S
C235 C236 1.291 1_554 S
C235 H248 0.931 . S
C236 C235 1.291 1_556 S
C236 C237 1.373 . S
C236 H249 0.929 . S
C237 C236 1.373 . S
C237 C238 1.396 1_556 S
C237 C244 1.403 . S
C238 C228 1.476 . S
C238 N233 1.318 . S
C238 C237 1.396 1_554 S
H239 C234 0.929 . S
O240 Mn216 2.385 . S
O240 C218 1.234 . S
O241 Mn216 2.209 . S
O241 Mn217 2.215 . S
O241 C218 1.283 . S
O242 Mn216 2.094 . S
O242 C220 1.240 . S
O243 Mn217 2.117 . S
O243 C220 1.264 . S
C244 C237 1.403 . S
C244 C245 1.399 . S
C244 H250 0.929 . S
C245 C225 1.449 . S
C245 C244 1.399 . S
C245 H251 0.930 . S
H246 C226 0.931 . S
H247 C227 0.930 . S
H248 C235 0.931 . S
H249 C236 0.929 . S
H250 C244 0.929 . S
H251 C245 0.930 . S
Mn252 O257 2.095 . S
Mn252 O267 2.162 . S
Mn252 O268 2.297 . S
Mn252 O276 2.385 . S
Mn252 O277 2.209 . S
Mn252 O278 2.094 . S
Mn253 O258 2.121 . S
Mn253 N260 2.257 . S
Mn253 N269 2.282 . S
Mn253 O277 2.215 . S
Mn253 O279 2.117 . S
C254 O276 1.234 . S
C254 O277 1.283 . S
C255 O267 1.281 . S
C255 O268 1.236 . S
C256 O278 1.240 . S
C256 O279 1.264 . S
O257 Mn252 2.095 . S
O257 C266 1.250 . S
O258 Mn253 2.121 . S
O258 C266 1.258 . S
C259 N260 1.326 . S
C259 C263 1.460 . S
C259 H265 0.929 . S
N260 Mn253 2.257 . S
N260 C259 1.326 . S
N260 C264 1.362 . S
C261 C262 1.258 . S
C261 C264 1.431 . S
C261 C281 1.449 . S
C262 C261 1.258 . S
C262 C263 1.477 . S
C262 H282 0.931 . S
C263 C259 1.460 . S
C263 C262 1.477 . S
C263 H283 0.930 . S
C264 N260 1.362 . S
C264 C261 1.431 . S
C264 C274 1.476 . S
H265 C259 0.929 . S
C266 O257 1.250 . S
C266 O258 1.258 . S
O267 Mn252 2.162 . S
O267 C255 1.281 . S
O268 Mn252 2.297 . S
O268 C255 1.236 . S
N269 Mn253 2.282 . S
N269 C270 1.328 . S
N269 C274 1.318 . S
C270 N269 1.328 . S
C270 C271 1.457 . S
C270 H275 0.929 . S
C271 C270 1.457 . S
C271 C272 1.291 . S
C271 H284 0.931 . S
C272 C271 1.291 . S
C272 C273 1.373 . S
C272 H285 0.929 . S
C273 C272 1.373 . S
C273 C274 1.396 . S
C273 C280 1.403 . S
C274 C264 1.476 . S
C274 N269 1.318 . S
C274 C273 1.396 . S
H275 C270 0.929 . S
O276 Mn252 2.385 . S
O276 C254 1.234 . S
O277 Mn252 2.209 . S
O277 Mn253 2.215 . S
O277 C254 1.283 . S
O278 Mn252 2.094 . S
O278 C256 1.240 . S
O279 Mn253 2.117 . S
O279 C256 1.264 . S
C280 C273 1.403 . S
C280 C281 1.399 . S
C280 H286 0.929 . S
C281 C261 1.449 . S
C281 C280 1.399 . S
C281 H287 0.930 . S
H282 C262 0.931 . S
H283 C263 0.930 . S
H284 C271 0.931 . S
H285 C272 0.929 . S
H286 C280 0.929 . S
H287 C281 0.930 . S
Mn288 O293 2.095 . S
Mn288 O303 2.162 . S
Mn288 O304 2.297 . S
Mn288 O312 2.385 . S
Mn288 O313 2.209 1_554 S
Mn288 O314 2.094 . S
Mn289 O294 2.121 . S
Mn289 N296 2.257 . S
Mn289 N305 2.282 . S
Mn289 O313 2.215 . S
Mn289 O315 2.117 . S
C290 O312 1.234 1_556 S
C290 O313 1.283 . S
C291 O303 1.281 . S
C291 O304 1.236 . S
C292 O314 1.231 1_556 S
C292 O315 1.273 . S
O293 Mn288 2.095 . S
O293 C302 1.250 . S
O294 Mn289 2.121 . S
O294 C302 1.258 1_556 S
C295 N296 1.326 . S
C295 C299 1.460 . S
C295 H301 0.929 . S
N296 Mn289 2.257 . S
N296 C295 1.326 . S
N296 C300 1.362 . S
C297 C298 1.258 . S
C297 C300 1.431 . S
C297 C317 1.449 . S
C298 C297 1.258 . S
C298 C299 1.477 . S
C298 H318 0.931 . S
C299 C295 1.460 . S
C299 C298 1.477 . S
C299 H319 0.930 . S
C300 N296 1.362 . S
C300 C297 1.431 . S
C300 C310 1.476 . S
H301 C295 0.929 . S
C302 O293 1.250 . S
C302 O294 1.258 1_554 S
O303 Mn288 2.162 . S
O303 C291 1.281 . S
O304 Mn288 2.297 . S
O304 C291 1.236 . S
N305 Mn289 2.282 . S
N305 C306 1.328 . S
N305 C310 1.318 . S
C306 N305 1.328 . S
C306 C307 1.457 . S
C306 H311 0.929 . S
C307 C306 1.457 . S
C307 C308 1.291 . S
C307 H320 0.931 . S
C308 C307 1.291 . S
C308 C309 1.373 . S
C308 H321 0.929 . S
C309 C308 1.373 . S
C309 C310 1.396 . S
C309 C316 1.403 . S
C310 C300 1.476 . S
C310 N305 1.318 . S
C310 C309 1.396 . S
H311 C306 0.929 . S
O312 Mn288 2.385 . S
O312 C290 1.234 1_554 S
O313 Mn288 2.209 1_556 S
O313 Mn289 2.215 . S
O313 C290 1.283 . S
O314 Mn288 2.094 . S
O314 C292 1.231 1_554 S
O315 Mn289 2.117 . S
O315 C292 1.273 . S
C316 C309 1.403 . S
C316 C317 1.399 . S
C316 H322 0.929 . S
C317 C297 1.449 . S
C317 C316 1.399 . S
C317 H323 0.930 . S
H318 C298 0.931 . S
H319 C299 0.930 . S
H320 C307 0.931 . S
H321 C308 0.929 . S
H322 C316 0.929 . S
H323 C317 0.930 . S
Mn324 O329 2.095 . S
Mn324 O339 2.162 . S
Mn324 O340 2.297 . S
Mn324 O348 2.385 . S
Mn324 O349 2.209 . S
Mn324 O350 2.094 . S
Mn325 O330 2.121 . S
Mn325 N332 2.257 . S
Mn325 N341 2.282 . S
Mn325 O349 2.215 . S
Mn325 O351 2.117 . S
C326 O348 1.234 . S
C326 O349 1.283 . S
C327 O339 1.281 . S
C327 O340 1.236 . S
C328 O350 1.240 . S
C328 O351 1.264 . S
O329 Mn324 2.095 . S
O329 C338 1.250 . S
O330 Mn325 2.121 . S
O330 C338 1.258 . S
C331 N332 1.326 . S
C331 C335 1.460 . S
C331 H337 0.929 . S
N332 Mn325 2.257 . S
N332 C331 1.326 . S
N332 C336 1.362 . S
C333 C334 1.258 . S
C333 C336 1.431 1_556 S
C333 C353 1.449 . S
C334 C333 1.258 . S
C334 C335 1.477 1_556 S
C334 H354 0.931 . S
C335 C331 1.460 . S
C335 C334 1.477 1_554 S
C335 H355 0.930 . S
C336 N332 1.362 . S
C336 C333 1.431 1_554 S
C336 C346 1.476 . S
H337 C331 0.929 . S
C338 O329 1.250 . S
C338 O330 1.258 . S
O339 Mn324 2.162 . S
O339 C327 1.281 . S
O340 Mn324 2.297 . S
O340 C327 1.236 . S
N341 Mn325 2.282 . S
N341 C342 1.328 . S
N341 C346 1.318 . S
C342 N341 1.328 . S
C342 C343 1.457 . S
C342 H347 0.929 . S
C343 C342 1.457 . S
C343 C344 1.291 1_554 S
C343 H356 0.931 . S
C344 C343 1.291 1_556 S
C344 C345 1.373 . S
C344 H357 0.929 . S
C345 C344 1.373 . S
C345 C346 1.396 1_556 S
C345 C352 1.403 . S
C346 C336 1.476 . S
C346 N341 1.318 . S
C346 C345 1.396 1_554 S
H347 C342 0.929 . S
O348 Mn324 2.385 . S
O348 C326 1.234 . S
O349 Mn324 2.209 . S
O349 Mn325 2.215 . S
O349 C326 1.283 . S
O350 Mn324 2.094 . S
O350 C328 1.240 . S
O351 Mn325 2.117 . S
O351 C328 1.264 . S
C352 C345 1.403 . S
C352 C353 1.399 . S
C352 H358 0.929 . S
C353 C333 1.449 . S
C353 C352 1.399 . S
C353 H359 0.930 . S
H354 C334 0.931 . S
H355 C335 0.930 . S
H356 C343 0.931 . S
H357 C344 0.929 . S
H358 C352 0.929 . S
H359 C353 0.930 . S
Mn360 O365 2.095 . S
Mn360 O375 2.162 . S
Mn360 O376 2.297 . S
Mn360 O384 2.385 . S
Mn360 O385 2.209 . S
Mn360 O386 2.094 . S
Mn361 O366 2.121 . S
Mn361 N368 2.257 . S
Mn361 N377 2.282 . S
Mn361 O385 2.215 . S
Mn361 O387 2.117 . S
C362 O384 1.234 . S
C362 O385 1.283 . S
C363 O375 1.281 . S
C363 O376 1.236 . S
C364 O386 1.240 . S
C364 O387 1.264 . S
O365 Mn360 2.095 . S
O365 C374 1.250 . S
O366 Mn361 2.121 . S
O366 C374 1.258 . S
C367 N368 1.326 . S
C367 C371 1.460 . S
C367 H373 0.929 . S
N368 Mn361 2.257 . S
N368 C367 1.326 . S
N368 C372 1.362 . S
C369 C370 1.258 . S
C369 C372 1.431 . S
C369 C389 1.449 . S
C370 C369 1.258 . S
C370 C371 1.477 . S
C370 H390 0.931 . S
C371 C367 1.460 . S
C371 C370 1.477 . S
C371 H391 0.930 . S
C372 N368 1.362 . S
C372 C369 1.431 . S
C372 C382 1.476 . S
H373 C367 0.929 . S
C374 O365 1.250 . S
C374 O366 1.258 . S
O375 Mn360 2.162 . S
O375 C363 1.281 . S
O376 Mn360 2.297 . S
O376 C363 1.236 . S
N377 Mn361 2.282 . S
N377 C378 1.328 . S
N377 C382 1.318 . S
C378 N377 1.328 . S
C378 C379 1.457 . S
C378 H383 0.929 . S
C379 C378 1.457 . S
C379 C380 1.291 . S
C379 H392 0.931 . S
C380 C379 1.291 . S
C380 C381 1.373 . S
C380 H393 0.929 . S
C381 C380 1.373 . S
C381 C382 1.396 . S
C381 C388 1.403 . S
C382 C372 1.476 . S
C382 N377 1.318 . S
C382 C381 1.396 . S
H383 C378 0.929 . S
O384 Mn360 2.385 . S
O384 C362 1.234 . S
O385 Mn360 2.209 . S
O385 Mn361 2.215 . S
O385 C362 1.283 . S
O386 Mn360 2.094 . S
O386 C364 1.240 . S
O387 Mn361 2.117 . S
O387 C364 1.264 . S
C388 C381 1.403 . S
C388 C389 1.399 . S
C388 H394 0.929 . S
C389 C369 1.449 . S
C389 C388 1.399 . S
C389 H395 0.930 . S
H390 C370 0.931 . S
H391 C371 0.930 . S
H392 C379 0.931 . S
H393 C380 0.929 . S
H394 C388 0.929 . S
H395 C389 0.930 . S
Mn396 O401 2.095 . S
Mn396 O411 2.162 . S
Mn396 O412 2.297 . S
Mn396 O420 2.385 . S
Mn396 O421 2.209 1_554 S
Mn396 O422 2.094 . S
Mn397 O402 2.121 . S
Mn397 N404 2.257 . S
Mn397 N413 2.282 . S
Mn397 O421 2.215 . S
Mn397 O423 2.117 . S
C398 O420 1.234 1_556 S
C398 O421 1.283 . S
C399 O411 1.281 . S
C399 O412 1.236 . S
C400 O422 1.231 1_556 S
C400 O423 1.273 . S
O401 Mn396 2.095 . S
O401 C410 1.250 . S
O402 Mn397 2.121 . S
O402 C410 1.258 1_556 S
C403 N404 1.326 . S
C403 C407 1.460 . S
C403 H409 0.929 . S
N404 Mn397 2.257 . S
N404 C403 1.326 . S
N404 C408 1.362 . S
C405 C406 1.258 . S
C405 C408 1.431 . S
C405 C425 1.449 . S
C406 C405 1.258 . S
C406 C407 1.477 . S
C406 H426 0.931 . S
C407 C403 1.460 . S
C407 C406 1.477 . S
C407 H427 0.930 . S
C408 N404 1.362 . S
C408 C405 1.431 . S
C408 C418 1.476 . S
H409 C403 0.929 . S
C410 O401 1.250 . S
C410 O402 1.258 1_554 S
O411 Mn396 2.162 . S
O411 C399 1.281 . S
O412 Mn396 2.297 . S
O412 C399 1.236 . S
N413 Mn397 2.282 . S
N413 C414 1.328 . S
N413 C418 1.318 . S
C414 N413 1.328 . S
C414 C415 1.457 . S
C414 H419 0.929 . S
C415 C414 1.457 . S
C415 C416 1.291 . S
C415 H428 0.931 . S
C416 C415 1.291 . S
C416 C417 1.373 . S
C416 H429 0.929 . S
C417 C416 1.373 . S
C417 C418 1.396 . S
C417 C424 1.403 . S
C418 C408 1.476 . S
C418 N413 1.318 . S
C418 C417 1.396 . S
H419 C414 0.929 . S
O420 Mn396 2.385 . S
O420 C398 1.234 1_554 S
O421 Mn396 2.209 1_556 S
O421 Mn397 2.215 . S
O421 C398 1.283 . S
O422 Mn396 2.094 . S
O422 C400 1.231 1_554 S
O423 Mn397 2.117 . S
O423 C400 1.273 . S
C424 C417 1.403 . S
C424 C425 1.399 . S
C424 H430 0.929 . S
C425 C405 1.449 . S
C425 C424 1.399 . S
C425 H431 0.930 . S
H426 C406 0.931 . S
H427 C407 0.930 . S
H428 C415 0.931 . S
H429 C416 0.929 . S
H430 C424 0.929 . S
H431 C425 0.930 . S
C432 C433 1.387 . S
C432 H436 0.950 . S
C432 C441 1.390 . S
C433 C432 1.387 . S
C433 C435 1.387 . S
H434 C441 0.950 . S
C435 C433 1.387 . S
C435 C437 1.390 . S
C435 H439 0.950 . S
H436 C432 0.950 . S
C437 C435 1.390 . S
C437 C438 1.387 . S
C437 H440 0.950 . S
C438 C437 1.387 . S
C438 C441 1.387 . S
H439 C435 0.950 . S
H440 C437 0.950 . S
C441 C432 1.390 . S
C441 H434 0.950 . S
C441 C438 1.387 . S
C442 C443 1.387 . S
C442 H446 0.950 . S
C442 C451 1.390 1_655 S
C443 C442 1.387 . S
C443 C445 1.387 . S
H444 C451 0.950 . S
C445 C443 1.387 . S
C445 C447 1.390 1_655 S
C445 H449 0.950 . S
H446 C442 0.950 . S
C447 C445 1.390 1_455 S
C447 C448 1.387 . S
C447 H450 0.950 . S
C448 C447 1.387 . S
C448 C451 1.387 . S
H449 C445 0.950 . S
H450 C447 0.950 . S
C451 C442 1.390 1_455 S
C451 H444 0.950 . S
C451 C448 1.387 . S
C452 C453 1.387 . S
C452 H456 0.950 . S
C452 C461 1.390 1_566 S
C453 C452 1.387 . S
C453 C455 1.387 . S
H454 C461 0.950 . S
C455 C453 1.387 . S
C455 C457 1.390 1_566 S
C455 H459 0.950 . S
H456 C452 0.950 . S
C457 C455 1.390 1_544 S
C457 C458 1.387 . S
C457 H460 0.950 . S
C458 C457 1.387 . S
C458 C461 1.387 . S
H459 C455 0.950 . S
H460 C457 0.950 . S
C461 C452 1.390 1_544 S
C461 H454 0.950 . S
C461 C458 1.387 . S
C462 C463 1.387 . S
C462 H466 0.950 . S
C462 C471 1.390 . S
C463 C462 1.387 . S
C463 C465 1.387 . S
H464 C471 0.950 . S
C465 C463 1.387 . S
C465 C467 1.390 . S
C465 H469 0.950 . S
H466 C462 0.950 . S
C467 C465 1.390 . S
C467 C468 1.387 . S
C467 H470 0.950 . S
C468 C467 1.387 . S
C468 C471 1.387 . S
H469 C465 0.950 . S
H470 C467 0.950 . S
C471 C462 1.390 . S
C471 H464 0.950 . S
C471 C468 1.387 . S
C472 C473 1.387 . S
C472 H476 0.950 . S
C472 C481 1.390 1_655 S
C473 C472 1.387 . S
C473 C475 1.387 . S
H474 C481 0.950 . S
C475 C473 1.387 . S
C475 C477 1.390 1_655 S
C475 H479 0.950 . S
H476 C472 0.950 . S
C477 C475 1.390 1_455 S
C477 C478 1.387 . S
C477 H480 0.950 . S
C478 C477 1.387 . S
C478 C481 1.387 . S
H479 C475 0.950 . S
H480 C477 0.950 . S
C481 C472 1.390 1_455 S
C481 H474 0.950 . S
C481 C478 1.387 . S
C482 C483 1.387 . S
C482 H486 0.950 . S
C482 C491 1.390 1_564 S
C483 C482 1.387 . S
C483 C485 1.387 . S
H484 C491 0.950 . S
C485 C483 1.387 . S
C485 C487 1.390 1_564 S
C485 H489 0.950 . S
H486 C482 0.950 . S
C487 C485 1.390 1_546 S
C487 C488 1.387 . S
C487 H490 0.950 . S
C488 C487 1.387 . S
C488 C491 1.387 . S
H489 C485 0.950 . S
H490 C487 0.950 . S
C491 C482 1.390 1_546 S
C491 H484 0.950 . S
C491 C488 1.387 . S
C492 C493 1.387 . S
C492 H496 0.950 . S
C492 C501 1.390 1_556 S
C493 C492 1.387 . S
C493 C495 1.387 . S
H494 C501 0.950 . S
C495 C493 1.387 . S
C495 C497 1.390 1_556 S
C495 H499 0.950 . S
H496 C492 0.950 . S
C497 C495 1.390 1_554 S
C497 C498 1.387 . S
C497 H500 0.950 . S
C498 C497 1.387 . S
C498 C501 1.387 . S
H499 C495 0.950 . S
H500 C497 0.950 . S
C501 C492 1.390 1_554 S
C501 H494 0.950 . S
C501 C498 1.387 . S
C502 C503 1.387 . S
C502 H506 0.950 . S
C502 C511 1.390 . S
C503 C502 1.387 . S
C503 C505 1.387 . S
H504 C511 0.950 . S
C505 C503 1.387 . S
C505 C507 1.390 . S
C505 H509 0.950 . S
H506 C502 0.950 . S
C507 C505 1.390 . S
C507 C508 1.387 . S
C507 H510 0.950 . S
C508 C507 1.387 . S
C508 C511 1.387 . S
H509 C505 0.950 . S
H510 C507 0.950 . S
C511 C502 1.390 . S
C511 H504 0.950 . S
C511 C508 1.387 . S
C512 C513 1.387 . S
C512 H516 0.950 . S
C512 C521 1.390 . S
C513 C512 1.387 . S
C513 C515 1.387 . S
H514 C521 0.950 . S
C515 C513 1.387 . S
C515 C517 1.390 . S
C515 H519 0.950 . S
H516 C512 0.950 . S
C517 C515 1.390 . S
C517 C518 1.387 . S
C517 H520 0.950 . S
C518 C517 1.387 . S
C518 C521 1.387 . S
H519 C515 0.950 . S
H520 C517 0.950 . S
C521 C512 1.390 . S
C521 H514 0.950 . S
C521 C518 1.387 . S
C522 C523 1.387 . S
C522 H526 0.950 . S
C522 C531 1.390 1_554 S
C523 C522 1.387 . S
C523 C525 1.387 . S
H524 C531 0.950 . S
C525 C523 1.387 . S
C525 C527 1.390 1_554 S
C525 H529 0.950 . S
H526 C522 0.950 . S
C527 C525 1.390 1_556 S
C527 C528 1.387 . S
C527 H530 0.950 . S
C528 C527 1.387 . S
C528 C531 1.387 . S
H529 C525 0.950 . S
H530 C527 0.950 . S
C531 C522 1.390 1_556 S
C531 H524 0.950 . S
C531 C528 1.387 . S
C532 C533 1.387 . S
C532 H536 0.950 . S
C532 C541 1.390 . S
C533 C532 1.387 . S
C533 C535 1.387 . S
H534 C541 0.950 . S
C535 C533 1.387 . S
C535 C537 1.390 . S
C535 H539 0.950 . S
H536 C532 0.950 . S
C537 C535 1.390 . S
C537 C538 1.387 . S
C537 H540 0.950 . S
C538 C537 1.387 . S
C538 C541 1.387 . S
H539 C535 0.950 . S
H540 C537 0.950 . S
C541 C532 1.390 . S
C541 H534 0.950 . S
C541 C538 1.387 . S
C542 C543 1.387 . S
C542 H546 0.950 . S
C542 C551 1.390 . S
C543 C542 1.387 . S
C543 C545 1.387 . S
H544 C551 0.950 . S
C545 C543 1.387 . S
C545 C547 1.390 . S
C545 H549 0.950 . S
H546 C542 0.950 . S
C547 C545 1.390 . S
C547 C548 1.387 . S
C547 H550 0.950 . S
C548 C547 1.387 . S
C548 C551 1.387 . S
H549 C545 0.950 . S
H550 C547 0.950 . S
C551 C542 1.390 . S
C551 H544 0.950 . S
C551 C548 1.387 . S
C552 C553 1.387 . S
C552 H556 0.950 . S
C552 C561 1.390 . S
C553 C552 1.387 . S
C553 C555 1.387 . S
H554 C561 0.950 . S
C555 C553 1.387 . S
C555 C557 1.390 . S
C555 H559 0.950 . S
H556 C552 0.950 . S
C557 C555 1.390 . S
C557 C558 1.387 . S
C557 H560 0.950 . S
C558 C557 1.387 . S
C558 C561 1.387 . S
H559 C555 0.950 . S
H560 C557 0.950 . S
C561 C552 1.390 . S
C561 H554 0.950 . S
C561 C558 1.387 . S
C562 C563 1.387 . S
C562 H566 0.950 . S
C562 C571 1.390 . S
C563 C562 1.387 . S
C563 C565 1.387 . S
H564 C571 0.950 . S
C565 C563 1.387 . S
C565 C567 1.390 . S
C565 H569 0.950 . S
H566 C562 0.950 . S
C567 C565 1.390 . S
C567 C568 1.387 . S
C567 H570 0.950 . S
C568 C567 1.387 . S
C568 C571 1.387 . S
H569 C565 0.950 . S
H570 C567 0.950 . S
C571 C562 1.390 . S
C571 H564 0.950 . S
C571 C568 1.387 . S
C572 C573 1.387 . S
C572 H576 0.950 . S
C572 C581 1.390 . S
C573 C572 1.387 . S
C573 C575 1.387 . S
H574 C581 0.950 . S
C575 C573 1.387 . S
C575 C577 1.390 . S
C575 H579 0.950 . S
H576 C572 0.950 . S
C577 C575 1.390 . S
C577 C578 1.387 . S
C577 H580 0.950 . S
C578 C577 1.387 . S
C578 C581 1.387 . S
H579 C575 0.950 . S
H580 C577 0.950 . S
C581 C572 1.390 . S
C581 H574 0.950 . S
C581 C578 1.387 . S
C582 C583 1.387 . S
C582 H586 0.950 . S
C582 C591 1.390 . S
C583 C582 1.387 . S
C583 C585 1.387 . S
H584 C591 0.950 . S
C585 C583 1.387 . S
C585 C587 1.390 . S
C585 H589 0.950 . S
H586 C582 0.950 . S
C587 C585 1.390 . S
C587 C588 1.387 . S
C587 H590 0.950 . S
C588 C587 1.387 . S
C588 C591 1.387 . S
H589 C585 0.950 . S
H590 C587 0.950 . S
C591 C582 1.390 . S
C591 H584 0.950 . S
C591 C588 1.387 . S
C592 C593 1.387 . S
C592 H596 0.950 . S
C592 C601 1.390 . S
C593 C592 1.387 . S
C593 C595 1.387 . S
H594 C601 0.950 . S
C595 C593 1.387 . S
C595 C597 1.390 . S
C595 H599 0.950 . S
H596 C592 0.950 . S
C597 C595 1.390 . S
C597 C598 1.387 . S
C597 H600 0.950 . S
C598 C597 1.387 . S
C598 C601 1.387 . S
H599 C595 0.950 . S
H600 C597 0.950 . S
C601 C592 1.390 . S
C601 H594 0.950 . S
C601 C598 1.387 . S
C602 C603 1.387 . S
C602 H606 0.950 . S
C602 C611 1.390 . S
C603 C602 1.387 . S
C603 C605 1.387 . S
H604 C611 0.950 . S
C605 C603 1.387 . S
C605 C607 1.390 . S
C605 H609 0.950 . S
H606 C602 0.950 . S
C607 C605 1.390 . S
C607 C608 1.387 . S
C607 H610 0.950 . S
C608 C607 1.387 . S
C608 C611 1.387 . S
H609 C605 0.950 . S
H610 C607 0.950 . S
C611 C602 1.390 . S
C611 H604 0.950 . S
C611 C608 1.387 . S
C612 C613 1.387 . S
C612 H616 0.950 . S
C612 C621 1.390 . S
C613 C612 1.387 . S
C613 C615 1.387 . S
H614 C621 0.950 . S
C615 C613 1.387 . S
C615 C617 1.390 . S
C615 H619 0.950 . S
H616 C612 0.950 . S
C617 C615 1.390 . S
C617 C618 1.387 . S
C617 H620 0.950 . S
C618 C617 1.387 . S
C618 C621 1.387 . S
H619 C615 0.950 . S
H620 C617 0.950 . S
C621 C612 1.390 . S
C621 H614 0.950 . S
C621 C618 1.387 . S
C622 C623 1.387 . S
C622 H626 0.950 . S
C622 C631 1.390 . S
C623 C622 1.387 . S
C623 C625 1.387 . S
H624 C631 0.950 . S
C625 C623 1.387 . S
C625 C627 1.390 . S
C625 H629 0.950 . S
H626 C622 0.950 . S
C627 C625 1.390 . S
C627 C628 1.387 . S
C627 H630 0.950 . S
C628 C627 1.387 . S
C628 C631 1.387 . S
H629 C625 0.950 . S
H630 C627 0.950 . S
C631 C622 1.390 . S
C631 H624 0.950 . S
C631 C628 1.387 . S
C632 C633 1.388 . S
C632 H636 0.950 . S
C632 C641 1.390 1_554 S
C633 C632 1.388 . S
C633 C635 1.387 . S
H634 C641 0.950 . S
C635 C633 1.387 . S
C635 C637 1.390 1_554 S
C635 H639 0.950 . S
H636 C632 0.950 . S
C637 C635 1.390 1_556 S
C637 C638 1.388 . S
C637 H640 0.950 . S
C638 C637 1.388 . S
C638 C641 1.387 . S
H639 C635 0.950 . S
H640 C637 0.950 . S
C641 C632 1.390 1_556 S
C641 H634 0.950 . S
C641 C638 1.387 . S
C642 C643 1.387 . S
C642 H646 0.950 . S
C642 C651 1.390 . S
C643 C642 1.387 . S
C643 C645 1.387 . S
H644 C651 0.950 . S
C645 C643 1.387 . S
C645 C647 1.390 . S
C645 H649 0.950 . S
H646 C642 0.950 . S
C647 C645 1.390 . S
C647 C648 1.387 . S
C647 H650 0.950 . S
C648 C647 1.387 . S
C648 C651 1.387 . S
H649 C645 0.950 . S
H650 C647 0.950 . S
C651 C642 1.390 . S
C651 H644 0.950 . S
C651 C648 1.387 . S
C652 C653 1.387 . S
C652 H656 0.950 . S
C652 C661 1.390 . S
C653 C652 1.387 . S
C653 C655 1.387 . S
H654 C661 0.950 . S
C655 C653 1.387 . S
C655 C657 1.390 . S
C655 H659 0.950 . S
H656 C652 0.950 . S
C657 C655 1.390 . S
C657 C658 1.387 . S
C657 H660 0.950 . S
C658 C657 1.387 . S
C658 C661 1.387 . S
H659 C655 0.950 . S
H660 C657 0.950 . S
C661 C652 1.390 . S
C661 H654 0.950 . S
C661 C658 1.387 . S
C662 C663 1.387 . S
C662 H666 0.950 . S
C662 C671 1.390 1_556 S
C663 C662 1.387 . S
C663 C665 1.388 . S
H664 C671 0.950 . S
C665 C663 1.388 . S
C665 C667 1.390 1_556 S
C665 H669 0.950 . S
H666 C662 0.950 . S
C667 C665 1.390 1_554 S
C667 C668 1.388 . S
C667 H670 0.950 . S
C668 C667 1.388 . S
C668 C671 1.388 . S
H669 C665 0.950 . S
H670 C667 0.950 . S
C671 C662 1.390 1_554 S
C671 H664 0.950 . S
C671 C668 1.388 . S
C433 C14 1.281 . S
C438 C338 1.278 . S
C443 C50 1.277 . S
C448 C374 1.276 . S
C453 C86 1.281 . S
C458 C410 1.281 . S
C463 C122 1.280 . S
C468 C230 1.282 . S
C473 C266 1.277 . S
C478 C158 1.276 . S
C483 C302 1.276 . S
C488 C194 1.276 . S
C493 C363 1.681 . S
C498 C3 1.681 . S
C503 C39 1.680 . S
C508 C399 1.681 . S
C513 C75 1.681 . S
C518 C219 1.680 . S
C523 C111 1.681 . S
C528 C255 1.681 . S
C533 C147 1.682 . S
C538 C291 1.680 . S
C543 C183 1.681 . S
C548 C327 1.680 . S
C553 C362 1.148 . S
C558 C2 1.148 . S
C563 C38 1.149 . S
C568 C398 1.147 . S
C573 C74 1.148 . S
C578 C218 1.149 . S
C583 C110 1.148 . S
C588 C254 1.148 . S
C593 C146 1.148 . S
C598 C290 1.148 . S
C603 C182 1.149 . S
C608 C326 1.147 . S
C613 C4 1.629 . S
C618 C220 1.628 . S
C623 C256 1.629 . S
C628 C40 1.628 . S
C633 C76 1.629 . S
C638 C292 1.629 . S
C643 C112 1.628 . S
C648 C328 1.628 . S
C653 C148 1.628 . S
C658 C364 1.629 . S
C663 C400 1.629 . S
C668 C184 1.629 . S
