# Generated by pormake.
# Topology dmp, (4)-cn, num edge types: 1
# Building blocks:
#     Node 0, Type 0, BuildingBlock: KUFVIS_clean_sbu_0, # of connection points: 4
#     Node 1, Type 0, BuildingBlock: KUFVIS_clean_sbu_0, # of connection points: 4
#     Node 2, Type 0, BuildingBlock: KUFVIS_clean_sbu_0, # of connection points: 4
#     Node 3, Type 0, BuildingBlock: KUFVIS_clean_sbu_0, # of connection points: 4
#     Edge 4, Type (0, 0), BuildingBlock: CIFDUS_clean_linker_0, # of connection points: 2
#     Edge 5, Type (0, 0), BuildingBlock: CIFDUS_clean_linker_0, # of connection points: 2
#     Edge 6, Type (0, 0), BuildingBlock: CIFDUS_clean_linker_0, # of connection points: 2
#     Edge 7, Type (0, 0), BuildingBlock: CIFDUS_clean_linker_0, # of connection points: 2
#     Edge 8, Type (0, 0), BuildingBlock: CIFDUS_clean_linker_0, # of connection points: 2
#     Edge 9, Type (0, 0), BuildingBlock: CIFDUS_clean_linker_0, # of connection points: 2
#     Edge 10, Type (0, 0), BuildingBlock: CIFDUS_clean_linker_0, # of connection points: 2
#     Edge 11, Type (0, 0), BuildingBlock: CIFDUS_clean_linker_0, # of connection points: 2
# Relax obj value: 0.122
# Max RMSD: 0.218
# Mean RMSD: 0.218
data_MOF--net-dmp--node1-KUFVIS_clean_sbu_0--edge1-CIFDUS_clean_linker_0
_symmetry_space_group_name_H-M    P1
_symmetry_Int_Tables_number       1
_symmetry_cell_setting            triclinic
loop_
_symmetry_equiv_pos_as_xyz
'x, y, z'
_cell_length_a     34.256108
_cell_length_b     16.39822
_cell_length_c     13.63577
_cell_angle_alpha  89.396323
_cell_angle_beta   90.053642
_cell_angle_gamma 94.113547
loop_
_atom_site_label
_atom_site_type_symbol
_atom_site_fract_x
_atom_site_fract_y
_atom_site_fract_z
_atom_type_partial_charge
Mn0 Mn 0.10458 0.23213 0.31985 0.0
Mn1 Mn 0.16763 0.18066 0.14279 0.0
C2 C 0.16511 0.29948 0.31086 0.0
C3 C 0.05413 0.30917 0.37386 0.0
C4 C 0.15761 0.08997 0.3366 0.0
O5 O 0.06951 0.16549 0.22783 0.0
O6 O 0.11374 0.13206 0.11677 0.0
C7 C 0.1332 0.27219 0.97936 0.0
N8 N 0.16497 0.2536 0.03306 0.0
C9 C 0.20858 0.33253 0.92428 0.0
C10 C 0.17635 0.35224 0.86753 0.0
C11 C 0.13848 0.32238 0.89561 0.0
C12 C 0.20144 0.28311 0.00761 0.0
H13 H 0.1041 0.24859 1.00007 0.0
C14 C 0.07876 0.12983 0.14977 0.0
O15 O 0.06117 0.24023 0.41586 0.0
O16 O 0.07478 0.33052 0.29699 0.0
N17 N 0.22136 0.22118 0.15178 0.0
C18 C 0.24903 0.20131 0.21791 0.0
C19 C 0.2883 0.22931 0.203 0.0
C20 C 0.29896 0.27543 0.11862 0.0
C21 C 0.27018 0.29357 0.05022 0.0
C22 C 0.23144 0.26483 0.06972 0.0
H23 H 0.24124 0.16406 0.28111 0.0
O24 O 0.14424 0.29934 0.39005 0.0
O25 O 0.14919 0.26296 0.23405 0.0
O26 O 0.12978 0.12892 0.37115 0.0
O27 O 0.17332 0.10443 0.25282 0.0
C28 C 0.27828 0.3404 0.96438 0.0
C29 C 0.24745 0.36042 0.90187 0.0
H30 H 0.18032 0.39062 0.80264 0.0
H31 H 0.11345 0.33752 0.85235 0.0
H32 H 0.31036 0.21448 0.25585 0.0
H33 H 0.32929 0.2968 0.10726 0.0
H34 H 0.30796 0.3633 0.94724 0.0
H35 H 0.25392 0.39808 0.83738 0.0
Mn36 Mn 0.39145 0.73045 0.28318 0.0
Mn37 Mn 0.32354 0.77207 0.112 0.0
C38 C 0.33945 0.63767 0.25742 0.0
C39 C 0.4474 0.66845 0.33442 0.0
C40 C 0.32253 0.83668 0.31832 0.0
O41 O 0.42005 0.8208 0.20395 0.0
O42 O 0.371 0.84933 0.1026 0.0
C43 C 0.37029 0.72858 0.93983 0.0
N44 N 0.33609 0.72185 0.99117 0.0
C45 C 0.30469 0.63744 0.86656 0.0
C46 C 0.33945 0.64411 0.81194 0.0
C47 C 0.37244 0.68959 0.84897 0.0
C48 C 0.30427 0.67779 0.9565 0.0
H49 H 0.39571 0.76345 0.96788 0.0
C50 C 0.40586 0.86279 0.13519 0.0
O51 O 0.43385 0.72766 0.38376 0.0
O52 O 0.43105 0.65188 0.25056 0.0
N53 N 0.27535 0.70541 0.10577 0.0
C54 C 0.24499 0.69983 0.17046 0.0
C55 C 0.21003 0.6547 0.14583 0.0
C56 C 0.20636 0.6167 0.05415 0.0
C57 C 0.23779 0.62399 0.98807 0.0
C58 C 0.27176 0.67059 0.01633 0.0
H59 H 0.24752 0.72927 0.24032 0.0
O60 O 0.35877 0.63996 0.33899 0.0
O61 O 0.35118 0.69051 0.18888 0.0
O62 O 0.35551 0.81234 0.34579 0.0
O63 O 0.30775 0.82345 0.23356 0.0
C64 C 0.2372 0.5846 0.89669 0.0
C65 C 0.27067 0.59108 0.83614 0.0
H66 H 0.34128 0.61391 0.74198 0.0
H67 H 0.39945 0.69461 0.80753 0.0
H68 H 0.18598 0.64921 0.19742 0.0
H69 H 0.17954 0.58104 0.03589 0.0
H70 H 0.21143 0.54778 0.87317 0.0
H71 H 0.2701 0.55928 0.76686 0.0
Mn72 Mn 0.89249 0.75128 0.66287 0.0
Mn73 Mn 0.84668 0.80047 0.87148 0.0
C74 C 0.83601 0.67615 0.71277 0.0
C75 C 0.93811 0.67484 0.58457 0.0
C76 C 0.83623 0.88723 0.67733 0.0
O77 O 0.93451 0.82682 0.72884 0.0
O78 O 0.89986 0.85311 0.86258 0.0
C79 C 0.89815 0.71584 0.00741 0.0
N80 N 0.86166 0.7273 0.97239 0.0
C81 C 0.83196 0.63532 0.09363 0.0
C82 C 0.86918 0.62256 0.13116 0.0
C83 C 0.90246 0.66244 0.08723 0.0
C84 C 0.82958 0.68672 0.01153 0.0
H85 H 0.92377 0.74759 0.97515 0.0
C86 C 0.93086 0.86207 0.81084 0.0
O87 O 0.92593 0.74034 0.54353 0.0
O88 O 0.92573 0.65755 0.67246 0.0
N89 N 0.79439 0.75594 0.89486 0.0
C90 C 0.76068 0.78775 0.86413 0.0
C91 C 0.72461 0.75674 0.90283 0.0
C92 C 0.72366 0.69706 0.97741 0.0
C93 C 0.75887 0.67088 0.01448 0.0
C94 C 0.79392 0.70245 0.97117 0.0
H95 H 0.76122 0.83622 0.81002 0.0
O96 O 0.84794 0.67511 0.62281 0.0
O97 O 0.85816 0.71947 0.77305 0.0
O98 O 0.8603 0.84894 0.62664 0.0
O99 O 0.8294 0.87433 0.76848 0.0
C100 C 0.76057 0.61923 0.0972 0.0
C101 C 0.79708 0.60146 0.13674 0.0
H102 H 0.87253 0.58295 0.19425 0.0
H103 H 0.93129 0.65309 0.11586 0.0
H104 H 0.69767 0.7799 0.87651 0.0
H105 H 0.69582 0.67437 0.00848 0.0
H106 H 0.73392 0.59524 0.13296 0.0
H107 H 0.79801 0.56359 0.20212 0.0
Mn108 Mn 0.60331 0.26719 0.72336 0.0
Mn109 Mn 0.66119 0.21749 0.91285 0.0
C110 C 0.66088 0.34478 0.75475 0.0
C111 C 0.5535 0.34321 0.66082 0.0
C112 C 0.66265 0.13648 0.71484 0.0
O113 O 0.5665 0.18675 0.80145 0.0
O114 O 0.60908 0.15918 0.92038 0.0
C115 C 0.61544 0.29431 0.06631 0.0
N116 N 0.65008 0.28695 0.01938 0.0
C117 C 0.68373 0.38244 0.12848 0.0
C118 C 0.64845 0.39101 0.17811 0.0
C119 C 0.61408 0.34722 0.14636 0.0
C120 C 0.683 0.33111 0.04697 0.0
H121 H 0.58906 0.25987 0.04307 0.0
C122 C 0.57565 0.14878 0.87943 0.0
O123 O 0.5644 0.27946 0.61505 0.0
O124 O 0.56913 0.35802 0.74579 0.0
N125 N 0.71335 0.26685 0.9193 0.0
C126 C 0.74595 0.23895 0.87747 0.0
C127 C 0.7831 0.27372 0.90344 0.0
C128 C 0.78659 0.33298 0.97692 0.0
C129 C 0.75296 0.35489 0.02568 0.0
C130 C 0.7166 0.31972 0.99478 0.0
H131 H 0.74368 0.19077 0.82414 0.0
O132 O 0.64407 0.34705 0.66996 0.0
O133 O 0.64284 0.2992 0.82153 0.0
O134 O 0.63496 0.1731 0.67447 0.0
O135 O 0.67447 0.14818 0.80285 0.0
C136 C 0.75444 0.40592 0.10802 0.0
C137 C 0.71982 0.42052 0.15877 0.0
H138 H 0.64748 0.43036 0.24126 0.0
H139 H 0.58674 0.35339 0.18435 0.0
H140 H 0.809 0.25374 0.86819 0.0
H141 H 0.81534 0.35862 0.99817 0.0
H142 H 0.7823 0.43179 0.13475 0.0
H143 H 0.72145 0.45915 0.2228 0.0
H144 H 0.24999 0.79247 0.38274 0.0
H145 H 0.34141 0.98581 0.40019 0.0
H146 H 0.29327 0.08197 0.44733 0.0
H147 H 0.22479 0.11705 0.4347 0.0
H148 H 0.13481 0.92926 0.3677 0.0
H149 H 0.18136 0.82432 0.39231 0.0
C150 C 0.25933 0.85537 0.39849 0.0
C151 C 0.29882 0.88291 0.38525 0.0
C152 C 0.23112 0.91126 0.41591 0.0
C153 C 0.31112 0.96345 0.40992 0.0
C154 C 0.28346 0.01853 0.43542 0.0
C155 C 0.21532 0.05277 0.42851 0.0
C156 C 0.17684 0.03048 0.3978 0.0
C157 C 0.24325 -0.00575 0.43141 0.0
C158 C 0.16426 0.94751 0.39188 0.0
C159 C 0.19112 0.88781 0.40409 0.0
H160 H 0.19894 0.38697 0.15857 0.0
H161 H 0.21081 0.33368 0.46699 0.0
H162 H 0.26335 0.441 0.47958 0.0
H163 H 0.30279 0.55352 0.40311 0.0
H164 H 0.31435 0.5586 0.08962 0.0
H165 H 0.25513 0.46524 0.07505 0.0
C166 C 0.21502 0.39381 0.22651 0.0
C167 C 0.20195 0.35033 0.31044 0.0
C168 C 0.24809 0.4487 0.23168 0.0
C169 C 0.22074 0.36588 0.40076 0.0
C170 C 0.25071 0.42705 0.40826 0.0
C171 C 0.29279 0.53362 0.33111 0.0
C172 C 0.30883 0.57139 0.24604 0.0
C173 C 0.26408 0.46958 0.32418 0.0
C174 C 0.29823 0.53904 0.15464 0.0
C175 C 0.26583 0.48283 0.14684 0.0
H176 H 0.73385 0.17657 0.64373 0.0
H177 H 0.64474 0.97824 0.66354 0.0
H178 H 0.69307 0.88041 0.62343 0.0
H179 H 0.76233 0.85061 0.62466 0.0
H180 H 0.85207 0.04807 0.63193 0.0
H181 H 0.80234 0.14776 0.61665 0.0
C182 C 0.72493 0.11216 0.63517 0.0
C183 C 0.68612 0.08395 0.6561 0.0
C184 C 0.7533 0.05647 0.61823 0.0
C185 C 0.67448 0.00083 0.64634 0.0
C186 C 0.70221 0.94506 0.62469 0.0
C187 C 0.77088 0.9155 0.61836 0.0
C188 C 0.81049 0.94265 0.62874 0.0
C189 C 0.74199 0.97187 0.61633 0.0
C190 C 0.82169 0.02636 0.6225 0.0
C191 C 0.79321 0.08311 0.61523 0.0
H192 H 0.75777 0.67619 0.73598 0.0
H193 H 0.85394 0.52203 0.74227 0.0
H194 H 0.80793 0.40098 0.75334 0.0
H195 H 0.73917 0.34356 0.73953 0.0
H196 H 0.64588 0.49745 0.79929 0.0
H197 H 0.69178 0.61841 0.7862 0.0
C198 C 0.76892 0.61743 0.75087 0.0
C199 C 0.80909 0.60845 0.74555 0.0
C200 C 0.74282 0.54929 0.76787 0.0
C201 C 0.82298 0.53007 0.75025 0.0
C202 C 0.79679 0.4611 0.75616 0.0
C203 C 0.7296 0.40219 0.76082 0.0
C204 C 0.68991 0.41115 0.77748 0.0
C205 C 0.75657 0.47021 0.76376 0.0
C206 C 0.67682 0.48938 0.79072 0.0
C207 C 0.70292 0.55833 0.78271 0.0
H208 H 0.08544 0.04147 0.98162 0.0
H209 H 0.00068 0.12022 0.18899 0.0
H210 H 0.94816 0.04959 0.09697 0.0
H211 H 0.92624 0.96373 0.96297 0.0
H212 H 0.00891 0.87765 0.75598 0.0
H213 H 0.06244 0.95504 0.84194 0.0
C214 C 0.05549 0.04313 0.00675 0.0
C215 C 0.0472 0.08581 0.09282 0.0
C216 C 0.02511 0.00178 0.95348 0.0
C217 C 0.00814 0.08759 0.12374 0.0
C218 C 0.97797 0.04739 0.07096 0.0
C219 C 0.95591 0.96144 0.93593 0.0
C220 C 0.96355 0.91411 0.85354 0.0
C221 C 0.98618 0.00404 0.98646 0.0
C222 C 0.00219 0.91352 0.81921 0.0
C223 C 0.03277 0.95733 0.86873 0.0
H224 H 0.49501 0.13814 0.87311 0.0
H225 H 0.59386 0.0226 0.99522 0.0
H226 H 0.55042 0.92801 0.08826 0.0
H227 H 0.48497 0.87769 0.1372 0.0
H228 H 0.38477 0.9877 0.01531 0.0
H229 H 0.42797 0.08472 0.92134 0.0
C230 C 0.50688 0.09174 0.91937 0.0
C231 C 0.54764 0.08811 0.92747 0.0
C232 C 0.48156 0.03688 0.97389 0.0
C233 C 0.56261 0.02768 0.98821 0.0
C234 C 0.53782 0.9733 0.04176 0.0
C235 C 0.47248 0.92338 0.09097 0.0
C236 C 0.43174 0.9257 0.08401 0.0
C237 C 0.49733 0.97778 0.03598 0.0
C238 C 0.41613 0.98464 0.02229 0.0
C239 C 0.4408 0.04002 0.96819 0.0
H240 H 0.94965 0.51929 0.63743 0.0
H241 H 0.97813 0.6994 0.41092 0.0
H242 H 0.01472 0.60018 0.32225 0.0
H243 H 0.03964 0.46281 0.31163 0.0
H244 H 0.00945 0.28331 0.5381 0.0
H245 H 0.97188 0.38163 0.62349 0.0
C246 C 0.96408 0.53726 0.56896 0.0
C247 C 0.96165 0.61708 0.5315 0.0
C248 C 0.98437 0.47968 0.51792 0.0
C249 C 0.97987 0.63863 0.44176 0.0
C250 C 0.00065 0.5818 0.39093 0.0
C251 C 0.02446 0.44487 0.37908 0.0
C252 C 0.02743 0.36565 0.41843 0.0
C253 C 0.00313 0.50212 0.42845 0.0
C254 C 0.00765 0.34364 0.50603 0.0
C255 C 0.98633 0.40002 0.55525 0.0
H256 H 0.4612 0.64518 0.52849 0.0
H257 H 0.49016 0.55783 0.24225 0.0
H258 H 0.52331 0.44565 0.31754 0.0
H259 H 0.54232 0.36954 0.46527 0.0
H260 H 0.51269 0.45707 0.751 0.0
H261 H 0.48072 0.57043 0.67551 0.0
C262 C 0.47547 0.60263 0.48257 0.0
C263 C 0.4736 0.61055 0.37985 0.0
C264 C 0.49345 0.53682 0.52634 0.0
C265 C 0.49151 0.55366 0.32151 0.0
C266 C 0.51013 0.48896 0.36452 0.0
C267 C 0.52828 0.41266 0.51084 0.0
C268 C 0.52943 0.40418 0.61363 0.0
C269 C 0.51068 0.47902 0.46688 0.0
C270 C 0.51188 0.46171 0.67172 0.0
C271 C 0.49388 0.52702 0.62862 0.0
loop_
_geom_bond_atom_site_label_1
_geom_bond_atom_site_label_2
_geom_bond_distance
_geom_bond_site_symmetry_2
_ccdc_geom_bond_type
Mn0 O5 2.095 . S
Mn0 O15 2.162 . S
Mn0 O16 2.297 . S
Mn0 O24 2.385 . S
Mn0 O25 2.209 . S
Mn0 O26 2.094 . S
Mn1 O6 2.121 . S
Mn1 N8 2.257 1_554 S
Mn1 N17 2.282 . S
Mn1 O25 2.215 . S
Mn1 O27 2.117 . S
C2 O24 1.234 . S
C2 O25 1.283 . S
C3 O15 1.281 . S
C3 O16 1.236 . S
C4 O26 1.240 . S
C4 O27 1.264 . S
O5 Mn0 2.095 . S
O5 C14 1.250 . S
O6 Mn1 2.121 . S
O6 C14 1.258 . S
C7 N8 1.326 . S
C7 C11 1.460 . S
C7 H13 0.929 . S
N8 Mn1 2.257 1_556 S
N8 C7 1.326 . S
N8 C12 1.362 . S
C9 C10 1.258 . S
C9 C12 1.431 . S
C9 C29 1.449 . S
C10 C9 1.258 . S
C10 C11 1.477 . S
C10 H30 0.931 . S
C11 C7 1.460 . S
C11 C10 1.477 . S
C11 H31 0.930 . S
C12 N8 1.362 . S
C12 C9 1.431 . S
C12 C22 1.476 1_556 S
H13 C7 0.929 . S
C14 O5 1.250 . S
C14 O6 1.258 . S
O15 Mn0 2.162 . S
O15 C3 1.281 . S
O16 Mn0 2.297 . S
O16 C3 1.236 . S
N17 Mn1 2.282 . S
N17 C18 1.328 . S
N17 C22 1.318 . S
C18 N17 1.328 . S
C18 C19 1.457 . S
C18 H23 0.929 . S
C19 C18 1.457 . S
C19 C20 1.291 . S
C19 H32 0.931 . S
C20 C19 1.291 . S
C20 C21 1.373 . S
C20 H33 0.929 . S
C21 C20 1.373 . S
C21 C22 1.396 . S
C21 C28 1.403 1_554 S
C22 C12 1.476 1_554 S
C22 N17 1.318 . S
C22 C21 1.396 . S
H23 C18 0.929 . S
O24 Mn0 2.385 . S
O24 C2 1.234 . S
O25 Mn0 2.209 . S
O25 Mn1 2.215 . S
O25 C2 1.283 . S
O26 Mn0 2.094 . S
O26 C4 1.240 . S
O27 Mn1 2.117 . S
O27 C4 1.264 . S
C28 C21 1.403 1_556 S
C28 C29 1.399 . S
C28 H34 0.929 . S
C29 C9 1.449 . S
C29 C28 1.399 . S
C29 H35 0.930 . S
H30 C10 0.931 . S
H31 C11 0.930 . S
H32 C19 0.931 . S
H33 C20 0.929 . S
H34 C28 0.929 . S
H35 C29 0.930 . S
Mn36 O41 2.095 . S
Mn36 O51 2.162 . S
Mn36 O52 2.297 . S
Mn36 O60 2.385 . S
Mn36 O61 2.209 . S
Mn36 O62 2.094 . S
Mn37 O42 2.121 . S
Mn37 N44 2.257 1_554 S
Mn37 N53 2.282 . S
Mn37 O61 2.215 . S
Mn37 O63 2.117 . S
C38 O60 1.234 . S
C38 O61 1.283 . S
C39 O51 1.281 . S
C39 O52 1.236 . S
C40 O62 1.240 . S
C40 O63 1.264 . S
O41 Mn36 2.095 . S
O41 C50 1.250 . S
O42 Mn37 2.121 . S
O42 C50 1.258 . S
C43 N44 1.326 . S
C43 C47 1.460 . S
C43 H49 0.929 . S
N44 Mn37 2.257 1_556 S
N44 C43 1.326 . S
N44 C48 1.362 . S
C45 C46 1.258 . S
C45 C48 1.431 . S
C45 C65 1.449 . S
C46 C45 1.258 . S
C46 C47 1.477 . S
C46 H66 0.931 . S
C47 C43 1.460 . S
C47 C46 1.477 . S
C47 H67 0.930 . S
C48 N44 1.362 . S
C48 C45 1.431 . S
C48 C58 1.476 1_556 S
H49 C43 0.929 . S
C50 O41 1.250 . S
C50 O42 1.258 . S
O51 Mn36 2.162 . S
O51 C39 1.281 . S
O52 Mn36 2.297 . S
O52 C39 1.236 . S
N53 Mn37 2.282 . S
N53 C54 1.328 . S
N53 C58 1.318 . S
C54 N53 1.328 . S
C54 C55 1.457 . S
C54 H59 0.929 . S
C55 C54 1.457 . S
C55 C56 1.291 . S
C55 H68 0.931 . S
C56 C55 1.291 . S
C56 C57 1.373 . S
C56 H69 0.929 . S
C57 C56 1.373 . S
C57 C58 1.396 . S
C57 C64 1.403 1_554 S
C58 C48 1.476 1_554 S
C58 N53 1.318 . S
C58 C57 1.396 . S
H59 C54 0.929 . S
O60 Mn36 2.385 . S
O60 C38 1.234 . S
O61 Mn36 2.209 . S
O61 Mn37 2.215 . S
O61 C38 1.283 . S
O62 Mn36 2.094 . S
O62 C40 1.240 . S
O63 Mn37 2.117 . S
O63 C40 1.264 . S
C64 C57 1.403 1_556 S
C64 C65 1.399 . S
C64 H70 0.929 . S
C65 C45 1.449 . S
C65 C64 1.399 . S
C65 H71 0.930 . S
H66 C46 0.931 . S
H67 C47 0.930 . S
H68 C55 0.931 . S
H69 C56 0.929 . S
H70 C64 0.929 . S
H71 C65 0.930 . S
Mn72 O77 2.095 . S
Mn72 O87 2.162 . S
Mn72 O88 2.297 . S
Mn72 O96 2.385 . S
Mn72 O97 2.209 . S
Mn72 O98 2.094 . S
Mn73 O78 2.121 . S
Mn73 N80 2.257 1_556 S
Mn73 N89 2.282 . S
Mn73 O97 2.215 . S
Mn73 O99 2.117 . S
C74 O96 1.234 . S
C74 O97 1.283 . S
C75 O87 1.281 . S
C75 O88 1.236 . S
C76 O98 1.240 . S
C76 O99 1.264 . S
O77 Mn72 2.095 . S
O77 C86 1.250 . S
O78 Mn73 2.121 . S
O78 C86 1.258 . S
C79 N80 1.326 . S
C79 C83 1.460 . S
C79 H85 0.929 . S
N80 Mn73 2.257 1_554 S
N80 C79 1.326 . S
N80 C84 1.362 . S
C81 C82 1.258 . S
C81 C84 1.431 . S
C81 C101 1.449 . S
C82 C81 1.258 . S
C82 C83 1.477 . S
C82 H102 0.931 . S
C83 C79 1.460 . S
C83 C82 1.477 . S
C83 H103 0.930 . S
C84 N80 1.362 . S
C84 C81 1.431 . S
C84 C94 1.476 1_554 S
H85 C79 0.929 . S
C86 O77 1.250 . S
C86 O78 1.258 . S
O87 Mn72 2.162 . S
O87 C75 1.281 . S
O88 Mn72 2.297 . S
O88 C75 1.236 . S
N89 Mn73 2.282 . S
N89 C90 1.328 . S
N89 C94 1.318 . S
C90 N89 1.328 . S
C90 C91 1.457 . S
C90 H95 0.929 . S
C91 C90 1.457 . S
C91 C92 1.291 . S
C91 H104 0.931 . S
C92 C91 1.291 . S
C92 C93 1.373 . S
C92 H105 0.929 . S
C93 C92 1.373 . S
C93 C94 1.396 . S
C93 C100 1.403 1_556 S
C94 C84 1.476 1_556 S
C94 N89 1.318 . S
C94 C93 1.396 . S
H95 C90 0.929 . S
O96 Mn72 2.385 . S
O96 C74 1.234 . S
O97 Mn72 2.209 . S
O97 Mn73 2.215 . S
O97 C74 1.283 . S
O98 Mn72 2.094 . S
O98 C76 1.240 . S
O99 Mn73 2.117 . S
O99 C76 1.264 . S
C100 C93 1.403 1_554 S
C100 C101 1.399 . S
C100 H106 0.929 . S
C101 C81 1.449 . S
C101 C100 1.399 . S
C101 H107 0.930 . S
H102 C82 0.931 . S
H103 C83 0.930 . S
H104 C91 0.931 . S
H105 C92 0.929 . S
H106 C100 0.929 . S
H107 C101 0.930 . S
Mn108 O113 2.095 . S
Mn108 O123 2.162 . S
Mn108 O124 2.297 . S
Mn108 O132 2.385 . S
Mn108 O133 2.209 . S
Mn108 O134 2.094 . S
Mn109 O114 2.121 . S
Mn109 N116 2.257 1_556 S
Mn109 N125 2.282 . S
Mn109 O133 2.215 . S
Mn109 O135 2.117 . S
C110 O132 1.234 . S
C110 O133 1.283 . S
C111 O123 1.281 . S
C111 O124 1.236 . S
C112 O134 1.240 . S
C112 O135 1.264 . S
O113 Mn108 2.095 . S
O113 C122 1.250 . S
O114 Mn109 2.121 . S
O114 C122 1.258 . S
C115 N116 1.326 . S
C115 C119 1.460 . S
C115 H121 0.929 . S
N116 Mn109 2.257 1_554 S
N116 C115 1.326 . S
N116 C120 1.362 . S
C117 C118 1.258 . S
C117 C120 1.431 . S
C117 C137 1.449 . S
C118 C117 1.258 . S
C118 C119 1.477 . S
C118 H138 0.931 . S
C119 C115 1.460 . S
C119 C118 1.477 . S
C119 H139 0.930 . S
C120 N116 1.362 . S
C120 C117 1.431 . S
C120 C130 1.476 1_554 S
H121 C115 0.929 . S
C122 O113 1.250 . S
C122 O114 1.258 . S
O123 Mn108 2.162 . S
O123 C111 1.281 . S
O124 Mn108 2.297 . S
O124 C111 1.236 . S
N125 Mn109 2.282 . S
N125 C126 1.328 . S
N125 C130 1.318 . S
C126 N125 1.328 . S
C126 C127 1.457 . S
C126 H131 0.929 . S
C127 C126 1.457 . S
C127 C128 1.291 . S
C127 H140 0.931 . S
C128 C127 1.291 . S
C128 C129 1.373 . S
C128 H141 0.929 . S
C129 C128 1.373 . S
C129 C130 1.396 . S
C129 C136 1.403 1_556 S
C130 C120 1.476 1_556 S
C130 N125 1.318 . S
C130 C129 1.396 . S
H131 C126 0.929 . S
O132 Mn108 2.385 . S
O132 C110 1.234 . S
O133 Mn108 2.209 . S
O133 Mn109 2.215 . S
O133 C110 1.283 . S
O134 Mn108 2.094 . S
O134 C112 1.240 . S
O135 Mn109 2.117 . S
O135 C112 1.264 . S
C136 C129 1.403 1_554 S
C136 C137 1.399 . S
C136 H142 0.929 . S
C137 C117 1.449 . S
C137 C136 1.399 . S
C137 H143 0.930 . S
H138 C118 0.931 . S
H139 C119 0.930 . S
H140 C127 0.931 . S
H141 C128 0.929 . S
H142 C136 0.929 . S
H143 C137 0.930 . S
H144 C150 0.930 . S
H145 C153 0.930 . S
H146 C154 0.930 . S
H147 C155 0.930 . S
H148 C158 0.930 . S
H149 C159 0.930 . S
C150 H144 0.930 . S
C150 C151 1.355 . S
C150 C152 1.415 . S
C151 C150 1.355 . S
C151 C153 1.419 . S
C152 C150 1.415 . S
C152 C157 1.425 1_565 S
C152 C159 1.409 . S
C153 H145 0.930 . S
C153 C151 1.419 . S
C153 C154 1.362 1_565 S
C154 H146 0.930 . S
C154 C153 1.362 1_545 S
C154 C157 1.409 . S
C155 H147 0.930 . S
C155 C156 1.355 . S
C155 C157 1.415 . S
C156 C155 1.355 . S
C156 C158 1.419 . S
C157 C152 1.425 1_545 S
C157 C154 1.409 . S
C157 C155 1.415 . S
C158 H148 0.930 . S
C158 C156 1.419 . S
C158 C159 1.362 1_545 S
C159 H149 0.930 . S
C159 C152 1.409 . S
C159 C158 1.362 1_565 S
H160 C166 0.930 . S
H161 C169 0.930 . S
H162 C170 0.930 . S
H163 C171 0.930 . S
H164 C174 0.930 . S
H165 C175 0.930 . S
C166 H160 0.930 . S
C166 C167 1.355 . S
C166 C168 1.415 . S
C167 C166 1.355 . S
C167 C169 1.419 . S
C168 C166 1.415 . S
C168 C173 1.425 . S
C168 C175 1.409 . S
C169 H161 0.930 . S
C169 C167 1.419 . S
C169 C170 1.362 . S
C170 H162 0.930 . S
C170 C169 1.362 . S
C170 C173 1.409 . S
C171 H163 0.930 . S
C171 C172 1.355 . S
C171 C173 1.415 . S
C172 C171 1.355 . S
C172 C174 1.419 . S
C173 C168 1.425 . S
C173 C170 1.409 . S
C173 C171 1.415 . S
C174 H164 0.930 . S
C174 C172 1.419 . S
C174 C175 1.362 . S
C175 H165 0.930 . S
C175 C168 1.409 . S
C175 C174 1.362 . S
H176 C182 0.930 1_565 S
H177 C185 0.930 . S
H178 C186 0.930 . S
H179 C187 0.930 1_545 S
H180 C190 0.930 . S
H181 C191 0.930 . S
C182 H176 0.930 1_545 S
C182 C183 1.355 . S
C182 C184 1.415 1_545 S
C183 C182 1.355 . S
C183 C185 1.419 . S
C184 C182 1.415 1_565 S
C184 C189 1.425 1_565 S
C184 C191 1.409 . S
C185 H177 0.930 . S
C185 C183 1.419 . S
C185 C186 1.362 . S
C186 H178 0.930 . S
C186 C185 1.362 . S
C186 C189 1.409 . S
C187 H179 0.930 1_565 S
C187 C188 1.355 . S
C187 C189 1.415 1_565 S
C188 C187 1.355 . S
C188 C190 1.419 . S
C189 C184 1.425 1_545 S
C189 C186 1.409 . S
C189 C187 1.415 1_545 S
C190 H180 0.930 . S
C190 C188 1.419 . S
C190 C191 1.362 . S
C191 H181 0.930 . S
C191 C184 1.409 . S
C191 C190 1.362 . S
H192 C198 0.930 . S
H193 C201 0.930 . S
H194 C202 0.930 . S
H195 C203 0.930 . S
H196 C206 0.930 . S
H197 C207 0.930 . S
C198 H192 0.930 . S
C198 C199 1.355 . S
C198 C200 1.415 . S
C199 C198 1.355 . S
C199 C201 1.419 . S
C200 C198 1.415 . S
C200 C205 1.425 . S
C200 C207 1.409 . S
C201 H193 0.930 . S
C201 C199 1.419 . S
C201 C202 1.362 . S
C202 H194 0.930 . S
C202 C201 1.362 . S
C202 C205 1.409 . S
C203 H195 0.930 . S
C203 C204 1.355 . S
C203 C205 1.415 . S
C204 C203 1.355 . S
C204 C206 1.419 . S
C205 C200 1.425 . S
C205 C202 1.409 . S
C205 C203 1.415 . S
C206 H196 0.930 . S
C206 C204 1.419 . S
C206 C207 1.362 . S
C207 H197 0.930 . S
C207 C200 1.409 . S
C207 C206 1.362 . S
H208 C214 0.930 . S
H209 C217 0.930 . S
H210 C218 0.930 . S
H211 C219 0.930 . S
H212 C222 0.930 . S
H213 C223 0.930 . S
C214 H208 0.930 . S
C214 C215 1.355 . S
C214 C216 1.415 1_545 S
C215 C214 1.355 . S
C215 C217 1.419 1_554 S
C216 C214 1.415 1_565 S
C216 C221 1.425 1_464 S
C216 C223 1.409 1_455 S
C217 H209 0.930 . S
C217 C215 1.419 1_556 S
C217 C218 1.362 . S
C218 H210 0.930 . S
C218 C217 1.362 . S
C218 C221 1.409 1_455 S
C219 H211 0.930 . S
C219 C220 1.355 . S
C219 C221 1.415 1_565 S
C220 C219 1.355 . S
C220 C222 1.419 1_556 S
C221 C216 1.425 1_646 S
C221 C218 1.409 1_655 S
C221 C219 1.415 1_545 S
C222 H212 0.930 . S
C222 C220 1.419 1_554 S
C222 C223 1.362 . S
C223 H213 0.930 . S
C223 C216 1.409 1_655 S
C223 C222 1.362 . S
H224 C230 0.930 . S
H225 C233 0.930 . S
H226 C234 0.930 . S
H227 C235 0.930 . S
H228 C238 0.930 . S
H229 C239 0.930 . S
C230 H224 0.930 . S
C230 C231 1.355 . S
C230 C232 1.415 . S
C231 C230 1.355 . S
C231 C233 1.419 . S
C232 C230 1.415 . S
C232 C237 1.425 1_546 S
C232 C239 1.409 . S
C233 H225 0.930 . S
C233 C231 1.419 . S
C233 C234 1.362 1_546 S
C234 H226 0.930 . S
C234 C233 1.362 1_564 S
C234 C237 1.409 . S
C235 H227 0.930 . S
C235 C236 1.355 . S
C235 C237 1.415 . S
C236 C235 1.355 . S
C236 C238 1.419 . S
C237 C232 1.425 1_564 S
C237 C234 1.409 . S
C237 C235 1.415 . S
C238 H228 0.930 . S
C238 C236 1.419 . S
C238 C239 1.362 1_564 S
C239 H229 0.930 . S
C239 C232 1.409 . S
C239 C238 1.362 1_546 S
H240 C246 0.930 1_455 S
H241 C249 0.930 . S
H242 C250 0.930 . S
H243 C251 0.930 1_655 S
H244 C254 0.930 . S
H245 C255 0.930 . S
C246 H240 0.930 1_655 S
C246 C247 1.355 . S
C246 C248 1.415 1_655 S
C247 C246 1.355 . S
C247 C249 1.419 . S
C248 C246 1.415 1_455 S
C248 C253 1.425 1_455 S
C248 C255 1.409 . S
C249 H241 0.930 . S
C249 C247 1.419 . S
C249 C250 1.362 . S
C250 H242 0.930 . S
C250 C249 1.362 . S
C250 C253 1.409 . S
C251 H243 0.930 1_455 S
C251 C252 1.355 . S
C251 C253 1.415 1_455 S
C252 C251 1.355 . S
C252 C254 1.419 . S
C253 C248 1.425 1_655 S
C253 C250 1.409 . S
C253 C251 1.415 1_655 S
C254 H244 0.930 . S
C254 C252 1.419 . S
C254 C255 1.362 . S
C255 H245 0.930 . S
C255 C248 1.409 . S
C255 C254 1.362 . S
H256 C262 0.930 . S
H257 C265 0.930 . S
H258 C266 0.930 . S
H259 C267 0.930 . S
H260 C270 0.930 . S
H261 C271 0.930 . S
C262 H256 0.930 . S
C262 C263 1.355 . S
C262 C264 1.415 . S
C263 C262 1.355 . S
C263 C265 1.419 . S
C264 C262 1.415 . S
C264 C269 1.425 . S
C264 C271 1.409 . S
C265 H257 0.930 . S
C265 C263 1.419 . S
C265 C266 1.362 . S
C266 H258 0.930 . S
C266 C265 1.362 . S
C266 C269 1.409 . S
C267 H259 0.930 . S
C267 C268 1.355 . S
C267 C269 1.415 . S
C268 C267 1.355 . S
C268 C270 1.419 . S
C269 C264 1.425 . S
C269 C266 1.409 . S
C269 C267 1.415 . S
C270 H260 0.930 . S
C270 C268 1.419 . S
C270 C271 1.362 . S
C271 H261 0.930 . S
C271 C264 1.409 . S
C271 C270 1.362 . S
C151 C40 1.123 . S
C156 C4 1.066 . S
C167 C2 0.936 . S
C172 C38 1.001 . S
C183 C112 1.019 . S
C188 C76 1.082 . S
C199 C74 1.024 . S
C204 C110 1.012 . S
C215 C14 1.487 . S
C220 C86 1.487 . S
C231 C122 1.467 . S
C236 C50 1.467 . S
C247 C75 1.603 . S
C252 C3 1.603 . S
C263 C39 1.577 . S
C268 C111 1.577 . S
