# Generated by pormake.
# Topology utg, (3)-cn, num edge types: 1
# Building blocks:
#     Node 0, Type 0, BuildingBlock: OLANEW_clean_sbu_2, # of connection points: 3
#     Node 1, Type 0, BuildingBlock: OLANEW_clean_sbu_2, # of connection points: 3
#     Node 2, Type 0, BuildingBlock: OLANEW_clean_sbu_2, # of connection points: 3
#     Node 3, Type 0, BuildingBlock: OLANEW_clean_sbu_2, # of connection points: 3
#     Node 4, Type 0, BuildingBlock: OLANEW_clean_sbu_2, # of connection points: 3
#     Node 5, Type 0, BuildingBlock: OLANEW_clean_sbu_2, # of connection points: 3
#     Node 6, Type 0, BuildingBlock: OLANEW_clean_sbu_2, # of connection points: 3
#     Node 7, Type 0, BuildingBlock: OLANEW_clean_sbu_2, # of connection points: 3
#     Node 8, Type 0, BuildingBlock: OLANEW_clean_sbu_2, # of connection points: 3
#     Node 9, Type 0, BuildingBlock: OLANEW_clean_sbu_2, # of connection points: 3
#     Node 10, Type 0, BuildingBlock: OLANEW_clean_sbu_2, # of connection points: 3
#     Node 11, Type 0, BuildingBlock: OLANEW_clean_sbu_2, # of connection points: 3
#     Node 12, Type 0, BuildingBlock: OLANEW_clean_sbu_2, # of connection points: 3
#     Node 13, Type 0, BuildingBlock: OLANEW_clean_sbu_2, # of connection points: 3
#     Node 14, Type 0, BuildingBlock: OLANEW_clean_sbu_2, # of connection points: 3
#     Node 15, Type 0, BuildingBlock: OLANEW_clean_sbu_2, # of connection points: 3
#     Edge 16, Type (0, 0), BuildingBlock: TEMPAE_clean_linker_10, # of connection points: 2
#     Edge 17, Type (0, 0), BuildingBlock: TEMPAE_clean_linker_10, # of connection points: 2
#     Edge 18, Type (0, 0), BuildingBlock: TEMPAE_clean_linker_10, # of connection points: 2
#     Edge 19, Type (0, 0), BuildingBlock: TEMPAE_clean_linker_10, # of connection points: 2
#     Edge 20, Type (0, 0), BuildingBlock: TEMPAE_clean_linker_10, # of connection points: 2
#     Edge 21, Type (0, 0), BuildingBlock: TEMPAE_clean_linker_10, # of connection points: 2
#     Edge 22, Type (0, 0), BuildingBlock: TEMPAE_clean_linker_10, # of connection points: 2
#     Edge 23, Type (0, 0), BuildingBlock: TEMPAE_clean_linker_10, # of connection points: 2
#     Edge 24, Type (0, 0), BuildingBlock: TEMPAE_clean_linker_10, # of connection points: 2
#     Edge 25, Type (0, 0), BuildingBlock: TEMPAE_clean_linker_10, # of connection points: 2
#     Edge 26, Type (0, 0), BuildingBlock: TEMPAE_clean_linker_10, # of connection points: 2
#     Edge 27, Type (0, 0), BuildingBlock: TEMPAE_clean_linker_10, # of connection points: 2
#     Edge 28, Type (0, 0), BuildingBlock: TEMPAE_clean_linker_10, # of connection points: 2
#     Edge 29, Type (0, 0), BuildingBlock: TEMPAE_clean_linker_10, # of connection points: 2
#     Edge 30, Type (0, 0), BuildingBlock: TEMPAE_clean_linker_10, # of connection points: 2
#     Edge 31, Type (0, 0), BuildingBlock: TEMPAE_clean_linker_10, # of connection points: 2
#     Edge 32, Type (0, 0), BuildingBlock: TEMPAE_clean_linker_10, # of connection points: 2
#     Edge 33, Type (0, 0), BuildingBlock: TEMPAE_clean_linker_10, # of connection points: 2
#     Edge 34, Type (0, 0), BuildingBlock: TEMPAE_clean_linker_10, # of connection points: 2
#     Edge 35, Type (0, 0), BuildingBlock: TEMPAE_clean_linker_10, # of connection points: 2
#     Edge 36, Type (0, 0), BuildingBlock: TEMPAE_clean_linker_10, # of connection points: 2
#     Edge 37, Type (0, 0), BuildingBlock: TEMPAE_clean_linker_10, # of connection points: 2
#     Edge 38, Type (0, 0), BuildingBlock: TEMPAE_clean_linker_10, # of connection points: 2
#     Edge 39, Type (0, 0), BuildingBlock: TEMPAE_clean_linker_10, # of connection points: 2
# Relax obj value: 0.002
# Max RMSD: 0.043
# Mean RMSD: 0.043
data_MOF--net-utg--node1-OLANEW_clean_sbu_2--edge1-TEMPAE_clean_linker_10
_symmetry_space_group_name_H-M    P1
_symmetry_Int_Tables_number       1
_symmetry_cell_setting            triclinic
loop_
_symmetry_equiv_pos_as_xyz
'x, y, z'
_cell_length_a     43.761892
_cell_length_b     43.921566
_cell_length_c     85.996944
_cell_angle_alpha  90.023014
_cell_angle_beta   90.012045
_cell_angle_gamma 90.091009
loop_
_atom_site_label
_atom_site_type_symbol
_atom_site_fract_x
_atom_site_fract_y
_atom_site_fract_z
_atom_type_partial_charge
O0 O 0.07611 0.17965 0.17855 0.0
Cd1 Cd 0.07529 0.15309 0.20354 0.0
O2 O 0.12207 0.16518 0.17132 0.0
Cd3 Cd 0.13508 0.14849 0.19425 0.0
O4 O 0.16801 0.16275 0.21193 0.0
C5 C 0.18961 0.17919 0.20666 0.0
O6 O 0.19061 0.18454 0.19163 0.0
C7 C 0.09721 0.17897 0.1684 0.0
C8 C 0.04751 0.09591 0.20167 0.0
O9 O 0.03154 0.12032 0.20172 0.0
O10 O 0.07665 0.09836 0.20243 0.0
O11 O 0.82593 0.60111 0.42187 0.0
Cd12 Cd 0.86053 0.61012 0.44377 0.0
O13 O 0.84106 0.64252 0.40971 0.0
Cd14 Cd 0.86224 0.66173 0.43048 0.0
O15 O 0.85118 0.6915 0.45002 0.0
C16 C 0.82463 0.68736 0.45563 0.0
O17 O 0.80773 0.66524 0.44995 0.0
C18 C 0.82543 0.61808 0.40989 0.0
C19 C 0.90947 0.56928 0.44355 0.0
O20 O 0.88505 0.56351 0.45124 0.0
O21 O 0.91078 0.59441 0.436 0.0
O22 O 0.39709 0.32092 0.66748 0.0
Cd23 Cd 0.38837 0.35376 0.69005 0.0
O24 O 0.36319 0.34508 0.65322 0.0
Cd25 Cd 0.34258 0.36546 0.67378 0.0
O26 O 0.31155 0.3479 0.69151 0.0
C27 C 0.29264 0.32822 0.68646 0.0
O28 O 0.29236 0.32217 0.67149 0.0
C29 C 0.38407 0.32509 0.65442 0.0
C30 C 0.4274 0.40415 0.68991 0.0
O31 O 0.43456 0.37973 0.69719 0.0
O32 O 0.40175 0.40475 0.68272 0.0
O33 O 0.65177 0.87051 0.91514 0.0
Cd34 Cd 0.61548 0.86177 0.93629 0.0
O35 O 0.69205 0.85908 0.92928 0.0
Cd36 Cd 0.66737 0.84147 0.94939 0.0
O37 O 0.67346 0.80651 0.96713 0.0
C38 C 0.68394 0.78126 0.96225 0.0
O39 O 0.68778 0.77757 0.94721 0.0
C40 C 0.68061 0.86828 0.91655 0.0
C41 C 0.57212 0.90838 0.93731 0.0
O42 O 0.59678 0.90998 0.94532 0.0
O43 O 0.56787 0.88461 0.92893 0.0
O44 O 0.10078 0.32238 0.0663 0.0
Cd45 Cd 0.11079 0.35639 0.04433 0.0
O46 O 0.13296 0.34643 0.08166 0.0
Cd47 Cd 0.15469 0.36868 0.06189 0.0
O48 O 0.18633 0.35468 0.04366 0.0
C49 C 0.2083 0.33803 0.04825 0.0
O50 O 0.21131 0.33298 0.06323 0.0
C51 C 0.11255 0.32612 0.0797 0.0
C52 C 0.07001 0.40528 0.04421 0.0
O53 O 0.09513 0.40661 0.05185 0.0
O54 O 0.06427 0.38089 0.03656 0.0
O55 O 0.67009 0.59838 0.31295 0.0
Cd56 Cd 0.63649 0.60697 0.29061 0.0
O57 O 0.65277 0.63867 0.3253 0.0
Cd58 Cd 0.63301 0.65793 0.30423 0.0
O59 O 0.64788 0.68729 0.28519 0.0
C60 C 0.67411 0.68088 0.27977 0.0
O61 O 0.68842 0.65686 0.28523 0.0
C62 C 0.66924 0.61483 0.32513 0.0
C63 C 0.58706 0.56655 0.29044 0.0
O64 O 0.61174 0.56044 0.28305 0.0
O65 O 0.58576 0.59179 0.2979 0.0
O66 O 0.39323 0.16795 0.55783 0.0
Cd67 Cd 0.38314 0.134 0.53586 0.0
O68 O 0.34773 0.15987 0.5679 0.0
Cd69 Cd 0.32843 0.14076 0.54664 0.0
O70 O 0.29693 0.15425 0.52817 0.0
C71 C 0.27383 0.16946 0.53263 0.0
O72 O 0.26987 0.17388 0.54761 0.0
C73 C 0.37427 0.17155 0.56889 0.0
C74 C 0.42344 0.08466 0.53565 0.0
O75 O 0.42942 0.10904 0.52805 0.0
O76 O 0.39834 0.08358 0.54332 0.0
O77 O 0.8184 0.89954 0.81349 0.0
Cd78 Cd 0.84145 0.90392 0.78769 0.0
O79 O 0.81507 0.84951 0.81384 0.0
Cd80 Cd 0.83029 0.84092 0.79011 0.0
O81 O 0.81661 0.81124 0.77095 0.0
C82 C 0.79545 0.79271 0.77462 0.0
O83 O 0.78506 0.79309 0.78896 0.0
C84 C 0.81108 0.87508 0.82046 0.0
C85 C 0.89633 0.93636 0.78857 0.0
O86 O 0.87057 0.95009 0.78927 0.0
O87 O 0.89631 0.90727 0.78744 0.0
O88 O 0.59906 0.66873 0.66561 0.0
Cd89 Cd 0.60834 0.63629 0.68827 0.0
O90 O 0.63523 0.6469 0.65182 0.0
Cd91 Cd 0.65528 0.62657 0.67254 0.0
O92 O 0.68289 0.64298 0.69195 0.0
C93 C 0.68098 0.67162 0.69385 0.0
O94 O 0.66274 0.68715 0.68467 0.0
C95 C 0.61317 0.66565 0.65277 0.0
C96 C 0.56921 0.58598 0.68871 0.0
O97 O 0.56234 0.61058 0.69593 0.0
O98 O 0.59462 0.58518 0.68131 0.0
O99 O 0.34021 0.1194 0.91395 0.0
Cd100 Cd 0.37648 0.12775 0.93516 0.0
O101 O 0.30239 0.14285 0.92581 0.0
Cd102 Cd 0.32749 0.15926 0.94606 0.0
O103 O 0.32284 0.1912 0.96536 0.0
C104 C 0.29736 0.18953 0.97239 0.0
O105 O 0.27788 0.16827 0.96817 0.0
C106 C 0.31245 0.12791 0.91425 0.0
C107 C 0.41938 0.08073 0.93645 0.0
O108 O 0.39461 0.07945 0.94438 0.0
O109 O 0.42393 0.10434 0.928 0.0
O110 O 0.91314 0.80743 0.18026 0.0
Cd111 Cd 0.91426 0.8347 0.20507 0.0
O112 O 0.86801 0.82347 0.17257 0.0
Cd113 Cd 0.85503 0.84052 0.19544 0.0
O114 O 0.82225 0.82638 0.21321 0.0
C115 C 0.79929 0.81192 0.20791 0.0
O116 O 0.7968 0.80847 0.19278 0.0
C117 C 0.89243 0.80872 0.16992 0.0
C118 C 0.942 0.89182 0.20267 0.0
O119 O 0.95797 0.86742 0.20285 0.0
O120 O 0.91286 0.88939 0.20356 0.0
O121 O 0.16891 0.3885 0.42073 0.0
Cd122 Cd 0.13454 0.37977 0.44274 0.0
O123 O 0.15288 0.34755 0.40844 0.0
Cd124 Cd 0.13143 0.32857 0.42917 0.0
O125 O 0.14149 0.29885 0.44887 0.0
C126 C 0.16656 0.30452 0.45576 0.0
O127 O 0.18269 0.32817 0.45121 0.0
C128 C 0.16897 0.37169 0.40868 0.0
C129 C 0.08586 0.42091 0.4428 0.0
O130 O 0.11047 0.42651 0.45038 0.0
O131 O 0.08427 0.39583 0.43521 0.0
O132 O 0.60037 0.82298 0.55649 0.0
Cd133 Cd 0.60997 0.85738 0.53465 0.0
O134 O 0.64448 0.83399 0.56741 0.0
Cd135 Cd 0.66393 0.85354 0.54631 0.0
O136 O 0.69574 0.83947 0.5281 0.0
C137 C 0.71707 0.82201 0.5327 0.0
O138 O 0.71903 0.81579 0.54762 0.0
C139 C 0.61866 0.82069 0.56793 0.0
C140 C 0.56963 0.90668 0.5349 0.0
O141 O 0.56354 0.88245 0.52718 0.0
O142 O 0.59485 0.90762 0.54247 0.0
O143 O 0.17151 0.09463 0.81216 0.0
Cd144 Cd 0.14733 0.08936 0.78666 0.0
O145 O 0.18122 0.14368 0.81014 0.0
Cd146 Cd 0.16326 0.15134 0.78683 0.0
O147 O 0.17154 0.1803 0.76664 0.0
C148 C 0.19873 0.1798 0.76146 0.0
O149 O 0.21835 0.16085 0.76778 0.0
C150 C 0.18258 0.11901 0.81782 0.0
C151 C 0.09243 0.05703 0.7881 0.0
O152 O 0.11818 0.04328 0.78876 0.0
O153 O 0.09247 0.0861 0.78679 0.0
O154 O 0.88846 0.66227 0.06872 0.0
Cd155 Cd 0.87813 0.6279 0.04692 0.0
O156 O 0.85187 0.64266 0.08314 0.0
Cd157 Cd 0.83053 0.62094 0.0631 0.0
O158 O 0.80089 0.63322 0.04368 0.0
C159 C 0.80749 0.65864 0.03747 0.0
O160 O 0.83152 0.67357 0.04258 0.0
C161 C 0.87448 0.66068 0.08167 0.0
C162 C 0.91965 0.57969 0.0461 0.0
O163 O 0.92459 0.60423 0.03843 0.0
O164 O 0.89503 0.57794 0.05412 0.0
O165 O 0.32453 0.38949 0.31175 0.0
Cd166 Cd 0.35824 0.38081 0.28948 0.0
O167 O 0.34105 0.34868 0.32392 0.0
Cd168 Cd 0.36042 0.32944 0.30275 0.0
O169 O 0.34424 0.30078 0.28369 0.0
C170 C 0.31697 0.3064 0.27949 0.0
O171 O 0.3025 0.32913 0.28615 0.0
C172 C 0.32501 0.37281 0.32384 0.0
C173 C 0.40796 0.42088 0.28961 0.0
O174 O 0.40899 0.39554 0.29699 0.0
O175 O 0.38343 0.42724 0.28215 0.0
C176 C 0.27152 0.29471 0.26299 0.0
C177 C 0.30081 0.28667 0.26817 0.0
C178 C 0.25501 0.27576 0.2529 0.0
C179 C 0.268 0.24793 0.2479 0.0
C180 C 0.29768 0.23975 0.25295 0.0
C181 C 0.3138 0.25928 0.263 0.0
C182 C 0.22354 0.28546 0.24767 0.0
C183 C 0.31222 0.21022 0.24788 0.0
C184 C 0.21045 0.18966 0.23333 0.0
C185 C 0.21169 0.19435 0.21721 0.0
C186 C 0.22962 0.20602 0.24345 0.0
C187 C 0.25036 0.22769 0.2373 0.0
C188 C 0.2525 0.23168 0.22101 0.0
C189 C 0.23322 0.21492 0.21117 0.0
C190 C 0.22689 0.20095 0.26076 0.0
C191 C 0.27424 0.25462 0.21399 0.0
H192 H 0.26132 0.31586 0.26688 0.0
H193 H 0.33637 0.25284 0.267 0.0
H194 H 0.2227 0.28673 0.23479 0.0
H195 H 0.20636 0.26832 0.25136 0.0
H196 H 0.21686 0.30796 0.25249 0.0
H197 H 0.33555 0.20729 0.25274 0.0
H198 H 0.29785 0.19074 0.25165 0.0
H199 H 0.31362 0.20931 0.23501 0.0
H200 H 0.19403 0.17369 0.23809 0.0
H201 H 0.23447 0.21863 0.19873 0.0
H202 H 0.21762 0.22173 0.26636 0.0
H203 H 0.24973 0.19665 0.2659 0.0
H204 H 0.21164 0.18148 0.2636 0.0
H205 H 0.26724 0.27794 0.21742 0.0
H206 H 0.27479 0.25334 0.20109 0.0
H207 H 0.29772 0.251 0.21848 0.0
C208 C 0.73383 0.81075 0.5054 0.0
C209 C 0.73718 0.80614 0.52145 0.0
C210 C 0.7505 0.79331 0.49466 0.0
C211 C 0.77089 0.77068 0.5001 0.0
C212 C 0.77539 0.7669 0.51628 0.0
C213 C 0.75854 0.78471 0.52675 0.0
C214 C 0.74528 0.79818 0.47748 0.0
C215 C 0.7969 0.74302 0.52256 0.0
C216 C 0.78323 0.70197 0.47413 0.0
C217 C 0.81188 0.70818 0.46754 0.0
C218 C 0.76983 0.72205 0.4848 0.0
C219 C 0.78537 0.74914 0.48896 0.0
C220 C 0.81446 0.75544 0.48251 0.0
C221 C 0.82743 0.73482 0.47189 0.0
C222 C 0.73886 0.71436 0.49152 0.0
C223 C 0.83167 0.78413 0.48667 0.0
H224 H 0.71752 0.82737 0.5012 0.0
H225 H 0.76144 0.78108 0.53913 0.0
H226 H 0.76742 0.80085 0.47135 0.0
H227 H 0.7337 0.77793 0.47248 0.0
H228 H 0.73097 0.81854 0.47513 0.0
H229 H 0.79988 0.74479 0.53535 0.0
H230 H 0.78787 0.72002 0.51979 0.0
H231 H 0.81964 0.74503 0.51694 0.0
H232 H 0.77106 0.68141 0.47088 0.0
H233 H 0.84954 0.73984 0.46681 0.0
H234 H 0.72218 0.73238 0.48845 0.0
H235 H 0.74021 0.71348 0.50439 0.0
H236 H 0.73 0.69217 0.48724 0.0
H237 H 0.81803 0.80436 0.48331 0.0
H238 H 0.85427 0.78545 0.48083 0.0
H239 H 0.83521 0.78532 0.49943 0.0
C240 C 0.27591 0.3141 0.71341 0.0
C241 C 0.27386 0.30978 0.69729 0.0
C242 C 0.26088 0.29439 0.72376 0.0
C243 C 0.2435 0.26975 0.71783 0.0
C244 C 0.24016 0.26616 0.70157 0.0
C245 C 0.25532 0.28625 0.6915 0.0
C246 C 0.26475 0.29911 0.74104 0.0
C247 C 0.22182 0.2402 0.69479 0.0
C248 C 0.23845 0.19926 0.74316 0.0
C249 C 0.2091 0.20189 0.74956 0.0
C250 C 0.24968 0.22102 0.73269 0.0
C251 C 0.2312 0.24618 0.72856 0.0
C252 C 0.20135 0.24875 0.73476 0.0
C253 C 0.19059 0.22649 0.74516 0.0
C254 C 0.28155 0.21728 0.72621 0.0
C255 C 0.18103 0.2753 0.73064 0.0
H256 H 0.29003 0.33232 0.71798 0.0
H257 H 0.25342 0.28282 0.67906 0.0
H258 H 0.24219 0.29888 0.74692 0.0
H259 H 0.27839 0.28017 0.74598 0.0
H260 H 0.27647 0.32092 0.74378 0.0
H261 H 0.21913 0.24222 0.68198 0.0
H262 H 0.23338 0.21831 0.69738 0.0
H263 H 0.19881 0.23922 0.70017 0.0
H264 H 0.25287 0.18028 0.74644 0.0
H265 H 0.16792 0.22874 0.7501 0.0
H266 H 0.29595 0.23695 0.72969 0.0
H267 H 0.28078 0.2169 0.71332 0.0
H268 H 0.29271 0.19606 0.73032 0.0
H269 H 0.19188 0.29687 0.7345 0.0
H270 H 0.15809 0.27352 0.7361 0.0
H271 H 0.17816 0.27676 0.71785 0.0
C272 C 0.69422 0.76315 0.98939 0.0
C273 C 0.69602 0.75833 0.97329 0.0
C274 C 0.70953 0.74392 -0.00017 0.0
C275 C 0.72715 0.7194 -0.00598 0.0
C276 C 0.72749 0.71331 0.97787 0.0
C277 C 0.71184 0.7328 0.9677 0.0
C278 C 0.70831 0.75094 0.01701 0.0
C279 C 0.74596 0.68738 0.97122 0.0
C280 C 0.79713 0.69883 0.01772 0.0
C281 C 0.78742 0.6726 0.02559 0.0
C282 C 0.77787 0.71386 0.00724 0.0
C283 C 0.74801 0.70253 0.0046 0.0
C284 C 0.73821 0.67569 0.01225 0.0
C285 C 0.75811 0.66094 0.02263 0.0
C286 C 0.78933 0.74224 -0.00082 0.0
C287 C 0.70651 0.66302 0.00974 0.0
H288 H 0.68181 0.78265 -0.00618 0.0
H289 H 0.71319 0.72872 0.95529 0.0
H290 H 0.70325 0.73001 0.02376 0.0
H291 H 0.73092 0.7595 0.02091 0.0
H292 H 0.6908 0.76839 0.0198 0.0
H293 H 0.74088 0.68343 0.95872 0.0
H294 H 0.77067 0.69259 0.97241 0.0
H295 H 0.74148 0.66604 0.97772 0.0
H296 H 0.8198 0.70788 0.01987 0.0
H297 H 0.75042 0.64072 0.02871 0.0
H298 H 0.77498 0.76199 0.00251 0.0
H299 H 0.78749 0.73954 0.98639 0.0
H300 H 0.81348 0.74751 0.00215 0.0
H301 H 0.68928 0.67968 0.01385 0.0
H302 H 0.7029 0.64118 0.01599 0.0
H303 H 0.70231 0.65928 -0.00284 0.0
C304 C 0.2489 0.29981 0.04229 0.0
C305 C 0.2273 0.32097 0.03696 0.0
C306 C 0.26388 0.28017 0.03194 0.0
C307 C 0.2572 0.2818 0.01587 0.0
C308 C 0.23692 0.30442 0.0103 0.0
C309 C 0.22215 0.32372 0.02092 0.0
C310 C 0.28542 0.25643 0.03834 0.0
C311 C 0.22944 0.30707 -0.00678 0.0
C312 C 0.30631 0.23851 0.9868 0.0
C313 C 0.28844 0.21243 0.98419 0.0
C314 C 0.29664 0.26128 -0.00282 0.0
C315 C 0.26857 0.25774 0.00517 0.0
C316 C 0.25084 0.23115 0.00283 0.0
C317 C 0.26096 0.20888 0.99237 0.0
C318 C 0.31612 0.28935 -0.00062 0.0
C319 C 0.22087 0.22638 0.01122 0.0
H320 H 0.25323 0.29766 0.05465 0.0
H321 H 0.20569 0.34016 0.01669 0.0
H322 H 0.2748 0.23357 0.03722 0.0
H323 H 0.30701 0.25609 0.03159 0.0
H324 H 0.29093 0.26043 0.05078 0.0
H325 H 0.21611 0.32795 0.99058 0.0
H326 H 0.25069 0.30732 0.98618 0.0
H327 H 0.21587 0.28698 0.98951 0.0
H328 H 0.32755 0.24145 0.98049 0.0
H329 H 0.24706 0.18877 0.99049 0.0
H330 H 0.3215 0.29257 0.01188 0.0
H331 H 0.30332 0.30977 -0.00449 0.0
H332 H 0.33789 0.28812 -0.00723 0.0
H333 H 0.22447 0.22755 0.02398 0.0
H334 H 0.21017 0.20411 0.00837 0.0
H335 H 0.20464 0.24476 0.00808 0.0
C336 C 0.67745 0.7299 0.26483 0.0
C337 C 0.68958 0.70121 0.26849 0.0
C338 C 0.69322 0.75003 0.25497 0.0
C339 C 0.72164 0.74115 0.24855 0.0
C340 C 0.73364 0.712 0.25195 0.0
C341 C 0.71752 0.69245 0.2619 0.0
C342 C 0.67974 0.78096 0.25161 0.0
C343 C 0.76374 0.70154 0.24522 0.0
C344 C 0.75397 0.77828 0.21228 0.0
C345 C 0.77736 0.79655 0.21846 0.0
C346 C 0.73485 0.76104 0.22198 0.0
C347 C 0.7391 0.76217 0.23828 0.0
C348 C 0.76174 0.78161 0.24464 0.0
C349 C 0.78066 0.79853 0.23466 0.0
C350 C 0.711 0.74058 0.21473 0.0
C351 C 0.76678 0.78362 0.26198 0.0
H352 H 0.65592 0.73688 0.26992 0.0
H353 H 0.72703 0.6703 0.2646 0.0
H354 H 0.69548 0.79901 0.2558 0.0
H355 H 0.67707 0.78414 0.23889 0.0
H356 H 0.65713 0.78416 0.25724 0.0
H357 H 0.76963 0.67796 0.24878 0.0
H358 H 0.76288 0.70248 0.23233 0.0
H359 H 0.78235 0.71701 0.24904 0.0
H360 H 0.75111 0.77669 0.19979 0.0
H361 H 0.79854 0.81271 0.23954 0.0
H362 H 0.68838 0.74454 0.22017 0.0
H363 H 0.7171 0.71641 0.21684 0.0
H364 H 0.70892 0.74417 0.20199 0.0
H365 H 0.74487 0.7882 0.26803 0.0
H366 H 0.78341 0.80173 0.26514 0.0
H367 H 0.7755 0.76152 0.26637 0.0
C368 C 0.25956 0.18298 0.50524 0.0
C369 C 0.25379 0.18507 0.52125 0.0
C370 C 0.24291 0.20051 0.49453 0.0
C371 C 0.22002 0.22063 0.49997 0.0
C372 C 0.21311 0.22174 0.51604 0.0
C373 C 0.23004 0.20392 0.52647 0.0
C374 C 0.25079 0.19852 0.47747 0.0
C375 C 0.18884 0.24286 0.5223 0.0
C376 C 0.20574 0.29133 0.47574 0.0
C377 C 0.17888 0.28363 0.46774 0.0
C378 C 0.21906 0.27115 0.48638 0.0
C379 C 0.20529 0.24245 0.48908 0.0
C380 C 0.17788 0.23469 0.48127 0.0
C381 C 0.16493 0.25543 0.47071 0.0
C382 C 0.24818 0.28041 0.49458 0.0
C383 C 0.16257 0.20429 0.48385 0.0
H384 H 0.27775 0.16835 0.50109 0.0
H385 H 0.22526 0.20558 0.53881 0.0
H386 H 0.22982 0.19492 0.47045 0.0
H387 H 0.26119 0.2203 0.47361 0.0
H388 H 0.2671 0.17979 0.47496 0.0
H389 H 0.18427 0.23896 0.53485 0.0
H390 H 0.19627 0.26683 0.52074 0.0
H391 H 0.16719 0.23992 0.51576 0.0
H392 H 0.21662 0.31311 0.47357 0.0
H393 H 0.14421 0.24927 0.46454 0.0
H394 H 0.26679 0.26434 0.49155 0.0
H395 H 0.24494 0.27929 0.50736 0.0
H396 H 0.2556 0.30381 0.49144 0.0
H397 H 0.17814 0.18568 0.48022 0.0
H398 H 0.14084 0.20211 0.47725 0.0
H399 H 0.15769 0.20099 0.49639 0.0
C400 C 0.75534 0.75519 0.76686 0.0
C401 C 0.78139 0.77221 0.76294 0.0
C402 C 0.74039 0.73708 0.75578 0.0
C403 C 0.75188 0.73573 0.74042 0.0
C404 C 0.77878 0.75199 0.73651 0.0
C405 C 0.79316 0.77018 0.74781 0.0
C406 C 0.71164 0.72028 0.76039 0.0
C407 C 0.79187 0.75084 0.72028 0.0
C408 C 0.72191 0.67234 0.71433 0.0
C409 C 0.69931 0.68764 0.70582 0.0
C410 C 0.73963 0.68778 0.72548 0.0
C411 C 0.73439 0.71913 0.72823 0.0
C412 C 0.71162 0.73464 0.71967 0.0
C413 C 0.69445 0.71875 0.70855 0.0
C414 C 0.76385 0.67056 0.73434 0.0
C415 C 0.70514 0.76801 0.72235 0.0
H416 H 0.7461 0.75654 0.77853 0.0
H417 H 0.81339 0.7831 0.74472 0.0
H418 H 0.6919 0.72947 0.7538 0.0
H419 H 0.71362 0.69579 0.7574 0.0
H420 H 0.70667 0.72232 0.77301 0.0
H421 H 0.81424 0.76273 0.71944 0.0
H422 H 0.79489 0.72686 0.71653 0.0
H423 H 0.77573 0.76165 0.71201 0.0
H424 H 0.7259 0.64834 0.71223 0.0
H425 H 0.67703 0.73077 0.70204 0.0
H426 H 0.75855 0.67089 0.74695 0.0
H427 H 0.78638 0.6818 0.73282 0.0
H428 H 0.76573 0.64649 0.73049 0.0
H429 H 0.69806 0.77171 0.7346 0.0
H430 H 0.68687 0.77679 0.71459 0.0
H431 H 0.72617 0.78162 0.72039 0.0
C432 C 0.11722 0.19585 0.14253 0.0
C433 C 0.09426 0.19701 0.1539 0.0
C434 C 0.11708 0.21593 0.12985 0.0
C435 C 0.09349 0.23781 0.12854 0.0
C436 C 0.06942 0.23809 0.13952 0.0
C437 C 0.07003 0.21762 0.15205 0.0
C438 C 0.14299 0.21467 0.11827 0.0
C439 C 0.04386 0.26105 0.13849 0.0
C440 C 0.11646 0.31021 0.10755 0.0
C441 C 0.1046 0.30521 0.09261 0.0
C442 C 0.11205 0.28891 0.11948 0.0
C443 C 0.09549 0.26184 0.1164 0.0
C444 C 0.08246 0.25716 0.10153 0.0
C445 C 0.08709 0.27896 0.08981 0.0
C446 C 0.12606 0.29488 0.13525 0.0
C447 C 0.0647 0.22857 0.09781 0.0
H448 H 0.13592 0.17988 0.14379 0.0
H449 H 0.05215 0.21868 0.16075 0.0
H450 H 0.1339 0.2137 0.10624 0.0
H451 H 0.15701 0.23565 0.11923 0.0
H452 H 0.15807 0.19469 0.12017 0.0
H453 H 0.02531 0.25629 0.14697 0.0
H454 H 0.05303 0.28417 0.14083 0.0
H455 H 0.03397 0.26131 0.12661 0.0
H456 H 0.12987 0.3305 0.10985 0.0
H457 H 0.07785 0.27487 0.07831 0.0
H458 H 0.14394 0.27764 0.13767 0.0
H459 H 0.10846 0.29275 0.14447 0.0
H460 H 0.13657 0.31787 0.13604 0.0
H461 H 0.08023 0.20865 0.09818 0.0
H462 H 0.05388 0.22954 0.08613 0.0
H463 H 0.04664 0.2247 0.10664 0.0
C464 C 0.68723 0.62525 0.3522 0.0
C465 C 0.68974 0.6083 0.33843 0.0
C466 C 0.70912 0.6227 0.36403 0.0
C467 C 0.73425 0.60282 0.36203 0.0
C468 C 0.73604 0.58438 0.34856 0.0
C469 C 0.71369 0.58728 0.33693 0.0
C470 C 0.70618 0.64251 0.37832 0.0
C471 C 0.76245 0.56288 0.34603 0.0
C472 C 0.80558 0.62883 0.3832 0.0
C473 C 0.80461 0.6111 0.39676 0.0
C474 C 0.78357 0.62532 0.37149 0.0
C475 C 0.7599 0.60363 0.37338 0.0
C476 C 0.7596 0.58462 0.38667 0.0
C477 C 0.78203 0.58853 0.3982 0.0
C478 C 0.78488 0.64584 0.35741 0.0
C479 C 0.73476 0.56121 0.38907 0.0
H480 H 0.66865 0.64135 0.35353 0.0
H481 H 0.71582 0.57405 0.32634 0.0
H482 H 0.70854 0.62858 0.389 0.0
H483 H 0.72481 0.65968 0.37842 0.0
H484 H 0.68394 0.65465 0.37874 0.0
H485 H 0.75861 0.54755 0.33594 0.0
H486 H 0.7836 0.57621 0.34391 0.0
H487 H 0.7664 0.5488 0.35654 0.0
H488 H 0.82307 0.64615 0.38192 0.0
H489 H 0.7811 0.5747 0.40862 0.0
H490 H 0.76491 0.66138 0.35745 0.0
H491 H 0.78364 0.63214 0.34659 0.0
H492 H 0.80605 0.65982 0.35711 0.0
H493 H 0.71272 0.57291 0.39125 0.0
H494 H 0.73967 0.54599 0.39908 0.0
H495 H 0.73183 0.54709 0.37848 0.0
C496 C 0.40761 0.21052 0.58189 0.0
C497 C 0.38181 0.19149 0.58227 0.0
C498 C 0.41266 0.23232 0.59359 0.0
C499 C 0.39149 0.23499 0.60595 0.0
C500 C 0.36629 0.21481 0.6068 0.0
C501 C 0.36173 0.19337 0.59494 0.0
C502 C 0.43983 0.25339 0.59233 0.0
C503 C 0.34334 0.21671 0.61989 0.0
C504 C 0.40768 0.27784 0.64339 0.0
C505 C 0.39045 0.30443 0.64118 0.0
C506 C 0.40963 0.2556 0.6317 0.0
C507 C 0.39412 0.26018 0.61745 0.0
C508 C 0.3784 0.28784 0.61478 0.0
C509 C 0.3767 0.3096 0.62669 0.0
C510 C 0.42669 0.22645 0.63496 0.0
C511 C 0.36184 0.29374 0.59967 0.0
H512 H 0.42326 0.20922 0.57215 0.0
H513 H 0.34188 0.17861 0.59541 0.0
H514 H 0.43182 0.27681 0.58976 0.0
H515 H 0.45243 0.25429 0.60351 0.0
H516 H 0.45586 0.24628 0.583 0.0
H517 H 0.32626 0.19799 0.61943 0.0
H518 H 0.35516 0.21586 0.63129 0.0
H519 H 0.33103 0.23874 0.61927 0.0
H520 H 0.41846 0.27366 0.65454 0.0
H521 H 0.36358 0.33018 0.62481 0.0
H522 H 0.44178 0.2205 0.62505 0.0
H523 H 0.4101 0.20753 0.6364 0.0
H524 H 0.44076 0.22804 0.64568 0.0
H525 H 0.37712 0.28924 0.58964 0.0
H526 H 0.35332 0.3175 0.59884 0.0
H527 H 0.34205 0.27803 0.59867 0.0
C528 C 0.73283 0.8738 0.90502 0.0
C529 C 0.70096 0.87436 0.90312 0.0
C530 C 0.75249 0.87645 0.8922 0.0
C531 C 0.74 0.87954 0.87712 0.0
C532 C 0.70791 0.88133 0.87518 0.0
C533 C 0.68877 0.87883 0.88821 0.0
C534 C 0.78659 0.87472 0.89475 0.0
C535 C 0.69373 0.88456 0.85925 0.0
C536 C 0.78936 0.90428 0.84299 0.0
C537 C 0.79548 0.87628 0.83576 0.0
C538 C 0.77194 0.90571 0.85669 0.0
C539 C 0.76028 0.87852 0.86326 0.0
C540 C 0.76715 0.85015 0.85628 0.0
C541 C 0.78472 0.84937 0.84267 0.0
C542 C 0.76533 0.93633 0.86391 0.0
C543 C 0.75517 0.82063 0.86295 0.0
H544 H 0.7425 0.8706 0.9165 0.0
H545 H 0.6642 0.87933 0.88663 0.0
H546 H 0.79555 0.85336 0.88961 0.0
H547 H 0.79824 0.89394 0.88883 0.0
H548 H 0.79272 0.87519 0.90729 0.0
H549 H 0.66857 0.88769 0.85982 0.0
H550 H 0.70388 0.90425 0.85303 0.0
H551 H 0.69863 0.86392 0.85225 0.0
H552 H 0.79762 0.92518 0.83777 0.0
H553 H 0.78932 0.82761 0.83721 0.0
H554 H 0.77182 0.93627 0.87639 0.0
H555 H 0.74046 0.94104 0.86331 0.0
H556 H 0.77773 0.95512 0.85798 0.0
H557 H 0.76226 0.81832 0.87527 0.0
H558 H 0.76341 0.80043 0.85641 0.0
H559 H 0.72981 0.82066 0.86271 0.0
C560 C 0.62154 0.6823 0.6253 0.0
C561 C 0.60643 0.6862 0.63954 0.0
C562 C 0.61922 0.70416 0.61347 0.0
C563 C 0.60143 0.73062 0.61596 0.0
C564 C 0.58466 0.73383 0.62993 0.0
C565 C 0.5873 0.71153 0.64155 0.0
C566 C 0.63721 0.69973 0.59866 0.0
C567 C 0.56537 0.76166 0.633 0.0
C568 C 0.63065 0.79976 0.59423 0.0
C569 C 0.61144 0.80034 0.58118 0.0
C570 C 0.62672 0.77798 0.60597 0.0
C571 C 0.60306 0.75611 0.60461 0.0
C572 C 0.58264 0.75745 0.59187 0.0
C573 C 0.58703 0.77963 0.5803 0.0
C574 C 0.64879 0.77754 0.61948 0.0
C575 C 0.55711 0.73457 0.59005 0.0
H576 H 0.63616 0.66269 0.62357 0.0
H577 H 0.57545 0.71471 0.6525 0.0
H578 H 0.62235 0.70327 0.58837 0.0
H579 H 0.65586 0.71684 0.59808 0.0
H580 H 0.6475 0.67666 0.59791 0.0
H581 H 0.55073 0.75891 0.64346 0.0
H582 H 0.58048 0.78166 0.6348 0.0
H583 H 0.55058 0.76672 0.62285 0.0
H584 H 0.64941 0.81582 0.59508 0.0
H585 H 0.57205 0.77991 0.57026 0.0
H586 H 0.66272 0.75646 0.61902 0.0
H587 H 0.63614 0.77734 0.63065 0.0
H588 H 0.66449 0.79744 0.6194 0.0
H589 H 0.56691 0.71182 0.58753 0.0
H590 H 0.54123 0.74073 0.58048 0.0
H591 H 0.54389 0.73258 0.60101 0.0
C592 C 0.26061 0.12819 0.90202 0.0
C593 C 0.29198 0.12194 0.90085 0.0
C594 C 0.24125 0.12533 0.8891 0.0
C595 C 0.25358 0.11623 0.87463 0.0
C596 C 0.28498 0.10879 0.87349 0.0
C597 C 0.3038 0.11161 0.88664 0.0
C598 C 0.20783 0.1332 0.89081 0.0
C599 C 0.29897 0.09911 0.85822 0.0
C600 C 0.20072 0.09175 0.84178 0.0
C601 C 0.19901 0.11851 0.8329 0.0
C602 C 0.21807 0.0907 0.85552 0.0
C603 C 0.23421 0.11696 0.86042 0.0
C604 C 0.23216 0.14415 0.85166 0.0
C605 C 0.21452 0.14462 0.83807 0.0
C606 C 0.21948 0.06142 0.86468 0.0
C607 C 0.24908 0.17264 0.85649 0.0
H608 H 0.25119 0.13592 0.91298 0.0
H609 H 0.32799 0.1067 0.88564 0.0
H610 H 0.20271 0.15412 0.88407 0.0
H611 H 0.19336 0.11468 0.88602 0.0
H612 H 0.20129 0.13714 0.90313 0.0
H613 H 0.32319 0.09199 0.85953 0.0
H614 H 0.28581 0.07996 0.85311 0.0
H615 H 0.29798 0.11829 0.84985 0.0
H616 H 0.18879 0.07147 0.8379 0.0
H617 H 0.21342 0.16541 0.83131 0.0
H618 H 0.21233 0.06553 0.87688 0.0
H619 H 0.24334 0.05296 0.86502 0.0
H620 H 0.20467 0.04338 0.85964 0.0
H621 H 0.24206 0.17952 0.86838 0.0
H622 H 0.24486 0.192 0.84847 0.0
H623 H 0.27401 0.16812 0.85683 0.0
C624 C 0.91838 0.76845 0.15409 0.0
C625 C 0.8952 0.79034 0.15552 0.0
C626 C 0.91859 0.74776 0.14164 0.0
C627 C 0.89521 0.74917 0.1303 0.0
C628 C 0.8728 0.77232 0.13118 0.0
C629 C 0.873 0.79256 0.14381 0.0
C630 C 0.94287 0.72339 0.1411 0.0
C631 C 0.8477 0.77481 0.11919 0.0
C632 C 0.9018 0.70669 0.09193 0.0
C633 C 0.88267 0.68153 0.09458 0.0
C634 C 0.90681 0.72856 0.10358 0.0
C635 C 0.89256 0.72502 0.11824 0.0
C636 C 0.87431 0.699 0.12119 0.0
C637 C 0.86949 0.67765 0.10931 0.0
C638 C 0.92633 0.75605 0.1 0.0
C639 C 0.85901 0.69421 0.13674 0.0
H640 H 0.93566 0.76656 0.16307 0.0
H641 H 0.85513 0.80953 0.14474 0.0
H642 H 0.93227 0.70086 0.14338 0.0
H643 H 0.95342 0.72235 0.12939 0.0
H644 H 0.96115 0.72728 0.14985 0.0
H645 H 0.83373 0.79569 0.12076 0.0
H646 H 0.85753 0.77494 0.1073 0.0
H647 H 0.83241 0.7547 0.12004 0.0
H648 H 0.91202 0.70991 0.08057 0.0
H649 H 0.85483 0.65819 0.11148 0.0
H650 H 0.94407 0.75913 0.10908 0.0
H651 H 0.91191 0.7768 0.10005 0.0
H652 H 0.93773 0.75424 0.0885 0.0
H653 H 0.87612 0.69557 0.14624 0.0
H654 H 0.84716 0.67187 0.13747 0.0
H655 H 0.842 0.71249 0.13878 0.0
C656 C 0.21296 0.40041 0.39705 0.0
C657 C 0.18982 0.37843 0.39553 0.0
C658 C 0.2354 0.40397 0.38551 0.0
C659 C 0.23455 0.38521 0.37213 0.0
C660 C 0.21031 0.36417 0.37015 0.0
C661 C 0.1883 0.36099 0.38188 0.0
C662 C 0.26086 0.42669 0.388 0.0
C663 C 0.2084 0.34396 0.35597 0.0
C664 C 0.28114 0.4011 0.33575 0.0
C665 C 0.30458 0.37948 0.33716 0.0
C666 C 0.25885 0.40429 0.34739 0.0
C667 C 0.26017 0.38555 0.36076 0.0
C668 C 0.28479 0.36501 0.36265 0.0
C669 C 0.30664 0.36217 0.35082 0.0
C670 C 0.23298 0.4265 0.34498 0.0
C671 C 0.28722 0.34484 0.37682 0.0
H672 H 0.21431 0.41401 0.40755 0.0
H673 H 0.17037 0.34414 0.38054 0.0
H674 H 0.28259 0.41438 0.3901 0.0
H675 H 0.26412 0.44091 0.37747 0.0
H676 H 0.25639 0.44186 0.39809 0.0
H677 H 0.18685 0.33057 0.35561 0.0
H678 H 0.20997 0.35781 0.34522 0.0
H679 H 0.22792 0.32787 0.35592 0.0
H680 H 0.27937 0.4146 0.32525 0.0
H681 H 0.32481 0.34561 0.35207 0.0
H682 H 0.22943 0.4405 0.35556 0.0
H683 H 0.21149 0.41374 0.34282 0.0
H684 H 0.23718 0.44189 0.33496 0.0
H685 H 0.28528 0.35862 0.38759 0.0
H686 H 0.30911 0.33208 0.37717 0.0
H687 H 0.26813 0.32819 0.37685 0.0
C688 C 0.04362 0.0418 0.21017 0.0
C689 C 0.0326 0.0658 0.20105 0.0
C690 C 0.02865 0.01349 0.21035 0.0
C691 C 0.00283 0.00877 0.20069 0.0
C692 C 0.99225 0.03274 0.19108 0.0
C693 C 0.00689 0.0612 0.19163 0.0
C694 C 0.03999 0.9889 0.22117 0.0
C695 C 0.96558 0.02828 0.18016 0.0
C696 C 0.98241 0.92623 0.19219 0.0
C697 C 0.95688 0.92191 0.20176 0.0
C698 C -0.00297 0.95467 0.19135 0.0
C699 C 0.98663 0.97892 0.20083 0.0
C700 C 0.96101 0.97449 0.21066 0.0
C701 C 0.94604 0.94618 0.21075 0.0
C702 C 0.02348 0.95881 0.18028 0.0
C703 C 0.94987 -0.0006 0.22134 0.0
H704 H 0.06336 0.04551 0.21755 0.0
H705 H -0.00145 0.07977 0.1845 0.0
H706 H 0.02132 0.98178 0.22912 0.0
H707 H 0.04687 0.96854 0.21441 0.0
H708 H 0.05979 -0.00347 0.22827 0.0
H709 H 0.96152 0.04854 0.17272 0.0
H710 H 0.96972 0.00829 0.17255 0.0
H711 H 0.94452 0.02354 0.18691 0.0
H712 H 0.99061 0.90745 0.18515 0.0
H713 H 0.92643 0.94269 0.21825 0.0
H714 H 0.04468 0.96375 0.18689 0.0
H715 H 0.01919 0.97857 0.17255 0.0
H716 H 0.02741 0.93833 0.17297 0.0
H717 H 0.96869 0.00676 0.22915 0.0
H718 H 0.93021 0.99199 0.22859 0.0
H719 H 0.94285 0.01956 0.21447 0.0
C720 C 0.06054 0.46827 0.45264 0.0
C721 C 0.06004 0.44275 0.44283 0.0
C722 C 0.03617 0.48903 0.45286 0.0
C723 C 0.01078 0.48431 0.44294 0.0
C724 C 0.01021 0.4587 0.43294 0.0
C725 C 0.03478 0.43816 0.43305 0.0
C726 C 0.03752 0.51595 0.46377 0.0
C727 C 0.98365 0.45301 0.4221 0.0
C728 C 0.9352 0.52196 0.45314 0.0
C729 C 0.93538 0.54756 0.44339 0.0
C730 C 0.95962 0.50125 0.45315 0.0
C731 C 0.98474 0.50611 0.44307 0.0
C732 C 0.98501 0.53182 0.43314 0.0
C733 C 0.96039 0.5523 0.43347 0.0
C734 C 0.9586 0.47422 0.46399 0.0
C735 C 0.01127 0.53766 0.42214 0.0
H736 H 0.07993 0.47196 0.46026 0.0
H737 H 0.03425 0.41856 0.42539 0.0
H738 H 0.03612 0.53746 0.45706 0.0
H739 H 0.01766 0.51544 0.47179 0.0
H740 H 0.05882 0.51629 0.47081 0.0
H741 H 0.98687 0.43223 0.41491 0.0
H742 H 0.96225 0.4505 0.42889 0.0
H743 H 0.98059 0.47279 0.41423 0.0
H744 H 0.91601 0.51815 0.46087 0.0
H745 H 0.96068 0.57197 0.42586 0.0
H746 H 0.97871 0.47464 0.47184 0.0
H747 H 0.95978 0.45278 0.4572 0.0
H748 H 0.93753 0.47381 0.47118 0.0
H749 H 0.03286 0.54006 0.4288 0.0
H750 H 0.00786 0.55854 0.41507 0.0
H751 H 0.01409 0.51799 0.41417 0.0
C752 C 0.523 0.55876 0.69885 0.0
C753 C 0.54843 0.5593 0.68892 0.0
C754 C 0.50319 0.53359 0.69921 0.0
C755 C 0.50875 0.50846 0.68929 0.0
C756 C 0.5343 0.50892 0.67919 0.0
C757 C 0.55391 0.53426 0.67918 0.0
C758 C 0.47635 0.53382 0.71024 0.0
C759 C 0.54083 0.48269 0.66833 0.0
C760 C 0.47397 0.43162 0.69945 0.0
C761 C 0.44816 0.43086 0.68978 0.0
C762 C 0.49379 0.45681 0.69947 0.0
C763 C 0.48783 0.4817 0.68947 0.0
C764 C 0.46189 0.48101 0.67963 0.0
C765 C 0.44229 0.45567 0.67996 0.0
C766 C 0.52106 0.45682 0.71023 0.0
C767 C 0.45492 0.50699 0.6687 0.0
H768 H 0.51865 0.57796 0.70645 0.0
H769 H 0.57345 0.53453 0.67144 0.0
H770 H 0.45469 0.53167 0.70362 0.0
H771 H 0.47769 0.514 0.71821 0.0
H772 H 0.4754 0.55496 0.71732 0.0
H773 H 0.56148 0.48669 0.6611 0.0
H774 H 0.54418 0.46148 0.67512 0.0
H775 H 0.52102 0.47888 0.66052 0.0
H776 H 0.47863 0.41259 0.70711 0.0
H777 H 0.42245 0.45522 0.67241 0.0
H778 H 0.52004 0.47683 0.71809 0.0
H779 H 0.54245 0.4588 0.70338 0.0
H780 H 0.52229 0.43585 0.71743 0.0
H781 H 0.45184 0.52836 0.67539 0.0
H782 H 0.43398 0.50283 0.6617 0.0
H783 H 0.47441 0.51061 0.66066 0.0
C784 C 0.46767 0.05612 0.9272 0.0
C785 C 0.44192 0.05557 0.93692 0.0
C786 C 0.48895 0.03223 0.92734 0.0
C787 C 0.48447 0.00723 0.93748 0.0
C788 C 0.45864 0.00663 0.94739 0.0
C789 C 0.43764 0.03076 0.94696 0.0
C790 C 0.51614 0.03363 0.91654 0.0
C791 C 0.45316 0.98044 0.95842 0.0
C792 C 0.5238 0.9325 0.92776 0.0
C793 C 0.54942 0.9334 0.93757 0.0
C794 C 0.50245 0.95633 0.92765 0.0
C795 C 0.50672 0.98162 0.93764 0.0
C796 C 0.53237 0.98256 0.94766 0.0
C797 C 0.55345 0.95848 0.94748 0.0
C798 C 0.47545 0.95456 0.91674 0.0
C799 C 0.53762 0.00907 0.95853 0.0
H800 H 0.47114 0.07516 0.91938 0.0
H801 H 0.41784 0.03016 0.95453 0.0
H802 H 0.53763 0.03261 0.92336 0.0
H803 H 0.51597 0.01367 0.90863 0.0
H804 H 0.51637 0.0547 0.9094 0.0
H805 H 0.43219 0.9836 0.96551 0.0
H806 H 0.45098 0.95888 0.95178 0.0
H807 H 0.47296 0.97787 0.96637 0.0
H808 H 0.52053 0.91325 0.92005 0.0
H809 H 0.57314 0.95935 0.95512 0.0
H810 H 0.47578 0.97425 0.90866 0.0
H811 H 0.45384 0.95584 0.92345 0.0
H812 H 0.47533 0.93325 0.90978 0.0
H813 H 0.53997 0.03042 0.95175 0.0
H814 H 0.55842 0.00611 0.96578 0.0
H815 H 0.51764 0.01189 0.96634 0.0
C816 C 0.9378 0.52885 0.05547 0.0
C817 C 0.94176 0.55415 0.04572 0.0
C818 C 0.95866 0.50459 0.05531 0.0
C819 C 0.98398 0.50553 0.04507 0.0
C820 C 0.98803 0.53094 0.03515 0.0
C821 C 0.96694 0.55499 0.03563 0.0
C822 C 0.95368 0.47798 0.06614 0.0
C823 C 0.01462 0.53268 0.02399 0.0
C824 C 0.05299 0.45613 0.05414 0.0
C825 C 0.04818 0.43107 0.04431 0.0
C826 C 0.03226 0.48051 0.05451 0.0
C827 C 0.00622 0.47992 0.04474 0.0
C828 C 0.00136 0.4548 0.03471 0.0
C829 C 0.02233 0.43063 0.03466 0.0
C830 C 0.03813 0.5068 0.06544 0.0
C831 C 0.97398 0.45345 0.02404 0.0
H832 H 0.91846 0.52804 0.06333 0.0
H833 H 0.97013 0.57441 0.02803 0.0
H834 H 0.95132 0.45665 0.05933 0.0
H835 H 0.97378 0.47522 0.07387 0.0
H836 H 0.93297 0.48081 0.07347 0.0
H837 H 0.01438 0.55389 0.01696 0.0
H838 H 0.03647 0.53163 0.03051 0.0
H839 H 0.01413 0.51287 0.01598 0.0
H840 H 0.07285 0.45663 0.06166 0.0
H841 H 0.01848 0.4114 0.027 0.0
H842 H 0.01868 0.5093 0.07361 0.0
H843 H 0.0399 0.52834 0.05876 0.0
H844 H 0.05943 0.50378 0.07229 0.0
H845 H 0.95262 0.45421 0.03098 0.0
H846 H 0.97372 0.43251 0.01679 0.0
H847 H 0.97386 0.47356 0.01624 0.0
C848 C 0.53564 0.55005 0.3001 0.0
C849 C 0.56085 0.54511 0.29035 0.0
C850 C 0.5107 0.52988 0.30018 0.0
C851 C 0.51083 0.5043 0.29015 0.0
C852 C 0.53615 0.49925 0.28023 0.0
C853 C 0.56091 0.51963 0.28051 0.0
C854 C 0.48424 0.53589 0.31101 0.0
C855 C 0.53702 0.47238 0.26928 0.0
C856 C 0.45929 0.437 0.2996 0.0
C857 C 0.43429 0.44217 0.28973 0.0
C858 C 0.48428 0.4571 0.29991 0.0
C859 C 0.48442 0.48285 0.29 0.0
C860 C 0.45934 0.48811 0.27996 0.0
C861 C 0.43452 0.4678 0.28 0.0
C862 C 0.51048 0.45086 0.31088 0.0
C863 C 0.45876 0.51517 0.26913 0.0
H864 H 0.53544 0.56962 0.30778 0.0
H865 H 0.58025 0.51569 0.2729 0.0
H866 H 0.46288 0.53871 0.30422 0.0
H867 H 0.48085 0.51614 0.31887 0.0
H868 H 0.4878 0.5566 0.31821 0.0
H869 H 0.55829 0.47179 0.26224 0.0
H870 H 0.5353 0.45085 0.27597 0.0
H871 H 0.51714 0.47319 0.26129 0.0
H872 H 0.45926 0.41732 0.3072 0.0
H873 H 0.41535 0.47192 0.2723 0.0
H874 H 0.51366 0.47044 0.31887 0.0
H875 H 0.53201 0.4482 0.30421 0.0
H876 H 0.50675 0.42999 0.31792 0.0
H877 H 0.46028 0.53658 0.27593 0.0
H878 H 0.4377 0.51586 0.26193 0.0
H879 H 0.47887 0.51451 0.26128 0.0
C880 C 0.47049 0.05861 0.52579 0.0
C881 C 0.44488 0.05855 0.53561 0.0
C882 C 0.49093 0.03399 0.52558 0.0
C883 C 0.48578 0.00879 0.53551 0.0
C884 C 0.46007 0.00865 0.5455 0.0
C885 C 0.43986 0.03346 0.54538 0.0
C886 C 0.51797 0.03489 0.51469 0.0
C887 C 0.45394 0.9823 0.55634 0.0
C888 C 0.52247 0.93294 0.52532 0.0
C889 C 0.54817 0.93278 0.53508 0.0
C890 C 0.50203 0.95756 0.52532 0.0
C891 C 0.50727 0.98252 0.5354 0.0
C892 C 0.53307 0.98243 0.54534 0.0
C893 C 0.55328 0.95762 0.54501 0.0
C894 C 0.47489 0.95692 0.51447 0.0
C895 C 0.53929 0.00851 0.55634 0.0
H896 H 0.47451 0.07786 0.51818 0.0
H897 H 0.42019 0.03327 0.55304 0.0
H898 H 0.53953 0.03321 0.52142 0.0
H899 H 0.51718 0.01508 0.50669 0.0
H900 H 0.51864 0.05608 0.50764 0.0
H901 H 0.43311 0.98583 0.5635 0.0
H902 H 0.45113 0.96099 0.54956 0.0
H903 H 0.47371 0.97898 0.56424 0.0
H904 H 0.51839 0.91388 0.51759 0.0
H905 H 0.57302 0.95764 0.55263 0.0
H906 H 0.47562 0.97692 0.5066 0.0
H907 H 0.45339 0.95844 0.52125 0.0
H908 H 0.47416 0.9359 0.50729 0.0
H909 H 0.54205 0.02998 0.5497 0.0
H910 H 0.56018 0.00481 0.56344 0.0
H911 H 0.51958 0.01164 0.5643 0.0
C912 C 0.92789 0.97962 0.79834 0.0
C913 C 0.92521 0.9537 0.78895 0.0
C914 C 0.95525 -0.00364 0.79884 0.0
C915 C 0.98 0.98762 0.78922 0.0
C916 C 0.97719 0.96165 0.77955 0.0
C917 C 0.95 0.94462 0.77977 0.0
C918 C 0.95773 0.02321 0.80974 0.0
C919 C 0.00266 0.95219 0.76874 0.0
C920 C 0.03865 0.04868 0.77949 0.0
C921 C 0.06352 0.03975 0.78865 0.0
C922 C 0.01146 0.03165 0.77939 0.0
C923 C 0.00874 0.00582 0.78916 0.0
C924 C 0.03358 -0.00276 0.79876 0.0
C925 C 0.06093 0.01397 0.79815 0.0
C926 C 0.98589 0.04094 0.7686 0.0
C927 C 0.0312 0.97055 0.80976 0.0
H928 H 0.90875 0.98646 0.80554 0.0
H929 H 0.94778 0.92469 0.77241 0.0
H930 H 0.97787 0.02043 0.81745 0.0
H931 H 0.96122 0.04444 0.803 0.0
H932 H 0.93702 0.02594 0.81708 0.0
H933 H -0.00355 0.93204 0.76159 0.0
H934 H 0.00854 0.97131 0.76084 0.0
H935 H 0.02349 0.94672 0.77552 0.0
H936 H 0.0408 0.06849 0.77205 0.0
H937 H 0.08014 0.00724 0.80532 0.0
H938 H 0.96511 0.04649 0.7754 0.0
H939 H 0.97997 0.02171 0.76077 0.0
H940 H 0.99203 0.061 0.76137 0.0
H941 H 0.01111 0.97342 0.81749 0.0
H942 H 0.05196 0.96795 0.81708 0.0
H943 H 0.02768 0.94922 0.8031 0.0
loop_
_geom_bond_atom_site_label_1
_geom_bond_atom_site_label_2
_geom_bond_distance
_geom_bond_site_symmetry_2
_ccdc_geom_bond_type
O0 Cd1 2.300 . S
O0 C7 1.275 . S
Cd1 O0 2.300 . S
Cd1 O9 2.381 . S
Cd1 O10 2.378 . S
O2 Cd3 2.385 . S
O2 C7 1.255 . S
Cd3 O2 2.385 . S
Cd3 O4 2.317 . S
O4 Cd3 2.317 . S
O4 C5 1.232 . S
C5 O4 1.232 . S
C5 O6 1.218 . S
O6 C5 1.218 . S
C7 O0 1.275 . S
C7 O2 1.255 . S
C8 O9 1.258 . S
C8 O10 1.256 . S
O9 Cd1 2.381 . S
O9 C8 1.258 . S
O10 Cd1 2.378 . S
O10 C8 1.256 . S
O11 Cd12 2.300 . S
O11 C18 1.275 . S
Cd12 O11 2.300 . S
Cd12 O20 2.381 . S
Cd12 O21 2.378 . S
O13 Cd14 2.385 . S
O13 C18 1.255 . S
Cd14 O13 2.385 . S
Cd14 O15 2.317 . S
O15 Cd14 2.317 . S
O15 C16 1.232 . S
C16 O15 1.232 . S
C16 O17 1.218 . S
O17 C16 1.218 . S
C18 O11 1.275 . S
C18 O13 1.255 . S
C19 O20 1.258 . S
C19 O21 1.256 . S
O20 Cd12 2.381 . S
O20 C19 1.258 . S
O21 Cd12 2.378 . S
O21 C19 1.256 . S
O22 Cd23 2.300 . S
O22 C29 1.275 . S
Cd23 O22 2.300 . S
Cd23 O31 2.381 . S
Cd23 O32 2.378 . S
O24 Cd25 2.385 . S
O24 C29 1.255 . S
Cd25 O24 2.385 . S
Cd25 O26 2.317 . S
O26 Cd25 2.317 . S
O26 C27 1.232 . S
C27 O26 1.232 . S
C27 O28 1.218 . S
O28 C27 1.218 . S
C29 O22 1.275 . S
C29 O24 1.255 . S
C30 O31 1.258 . S
C30 O32 1.256 . S
O31 Cd23 2.381 . S
O31 C30 1.258 . S
O32 Cd23 2.378 . S
O32 C30 1.256 . S
O33 Cd34 2.300 . S
O33 C40 1.275 . S
Cd34 O33 2.300 . S
Cd34 O42 2.381 . S
Cd34 O43 2.378 . S
O35 Cd36 2.385 . S
O35 C40 1.255 . S
Cd36 O35 2.385 . S
Cd36 O37 2.317 . S
O37 Cd36 2.317 . S
O37 C38 1.232 . S
C38 O37 1.232 . S
C38 O39 1.218 . S
O39 C38 1.218 . S
C40 O33 1.275 . S
C40 O35 1.255 . S
C41 O42 1.258 . S
C41 O43 1.256 . S
O42 Cd34 2.381 . S
O42 C41 1.258 . S
O43 Cd34 2.378 . S
O43 C41 1.256 . S
O44 Cd45 2.300 . S
O44 C51 1.275 . S
Cd45 O44 2.300 . S
Cd45 O53 2.381 . S
Cd45 O54 2.378 . S
O46 Cd47 2.385 . S
O46 C51 1.255 . S
Cd47 O46 2.385 . S
Cd47 O48 2.317 . S
O48 Cd47 2.317 . S
O48 C49 1.232 . S
C49 O48 1.232 . S
C49 O50 1.218 . S
O50 C49 1.218 . S
C51 O44 1.275 . S
C51 O46 1.255 . S
C52 O53 1.258 . S
C52 O54 1.256 . S
O53 Cd45 2.381 . S
O53 C52 1.258 . S
O54 Cd45 2.378 . S
O54 C52 1.256 . S
O55 Cd56 2.300 . S
O55 C62 1.275 . S
Cd56 O55 2.300 . S
Cd56 O64 2.381 . S
Cd56 O65 2.378 . S
O57 Cd58 2.385 . S
O57 C62 1.255 . S
Cd58 O57 2.385 . S
Cd58 O59 2.317 . S
O59 Cd58 2.317 . S
O59 C60 1.232 . S
C60 O59 1.232 . S
C60 O61 1.218 . S
O61 C60 1.218 . S
C62 O55 1.275 . S
C62 O57 1.255 . S
C63 O64 1.258 . S
C63 O65 1.256 . S
O64 Cd56 2.381 . S
O64 C63 1.258 . S
O65 Cd56 2.378 . S
O65 C63 1.256 . S
O66 Cd67 2.300 . S
O66 C73 1.275 . S
Cd67 O66 2.300 . S
Cd67 O75 2.381 . S
Cd67 O76 2.378 . S
O68 Cd69 2.385 . S
O68 C73 1.255 . S
Cd69 O68 2.385 . S
Cd69 O70 2.317 . S
O70 Cd69 2.317 . S
O70 C71 1.232 . S
C71 O70 1.232 . S
C71 O72 1.218 . S
O72 C71 1.218 . S
C73 O66 1.275 . S
C73 O68 1.255 . S
C74 O75 1.258 . S
C74 O76 1.256 . S
O75 Cd67 2.381 . S
O75 C74 1.258 . S
O76 Cd67 2.378 . S
O76 C74 1.256 . S
O77 Cd78 2.300 . S
O77 C84 1.275 . S
Cd78 O77 2.300 . S
Cd78 O86 2.381 . S
Cd78 O87 2.378 . S
O79 Cd80 2.385 . S
O79 C84 1.255 . S
Cd80 O79 2.385 . S
Cd80 O81 2.317 . S
O81 Cd80 2.317 . S
O81 C82 1.232 . S
C82 O81 1.232 . S
C82 O83 1.218 . S
O83 C82 1.218 . S
C84 O77 1.275 . S
C84 O79 1.255 . S
C85 O86 1.258 . S
C85 O87 1.256 . S
O86 Cd78 2.381 . S
O86 C85 1.258 . S
O87 Cd78 2.378 . S
O87 C85 1.256 . S
O88 Cd89 2.300 . S
O88 C95 1.275 . S
Cd89 O88 2.300 . S
Cd89 O97 2.381 . S
Cd89 O98 2.378 . S
O90 Cd91 2.385 . S
O90 C95 1.255 . S
Cd91 O90 2.385 . S
Cd91 O92 2.317 . S
O92 Cd91 2.317 . S
O92 C93 1.232 . S
C93 O92 1.232 . S
C93 O94 1.218 . S
O94 C93 1.218 . S
C95 O88 1.275 . S
C95 O90 1.255 . S
C96 O97 1.258 . S
C96 O98 1.256 . S
O97 Cd89 2.381 . S
O97 C96 1.258 . S
O98 Cd89 2.378 . S
O98 C96 1.256 . S
O99 Cd100 2.300 . S
O99 C106 1.275 . S
Cd100 O99 2.300 . S
Cd100 O108 2.381 . S
Cd100 O109 2.378 . S
O101 Cd102 2.385 . S
O101 C106 1.255 . S
Cd102 O101 2.385 . S
Cd102 O103 2.317 . S
O103 Cd102 2.317 . S
O103 C104 1.232 . S
C104 O103 1.232 . S
C104 O105 1.218 . S
O105 C104 1.218 . S
C106 O99 1.275 . S
C106 O101 1.255 . S
C107 O108 1.258 . S
C107 O109 1.256 . S
O108 Cd100 2.381 . S
O108 C107 1.258 . S
O109 Cd100 2.378 . S
O109 C107 1.256 . S
O110 Cd111 2.300 . S
O110 C117 1.275 . S
Cd111 O110 2.300 . S
Cd111 O119 2.381 . S
Cd111 O120 2.378 . S
O112 Cd113 2.385 . S
O112 C117 1.255 . S
Cd113 O112 2.385 . S
Cd113 O114 2.317 . S
O114 Cd113 2.317 . S
O114 C115 1.232 . S
C115 O114 1.232 . S
C115 O116 1.218 . S
O116 C115 1.218 . S
C117 O110 1.275 . S
C117 O112 1.255 . S
C118 O119 1.258 . S
C118 O120 1.256 . S
O119 Cd111 2.381 . S
O119 C118 1.258 . S
O120 Cd111 2.378 . S
O120 C118 1.256 . S
O121 Cd122 2.300 . S
O121 C128 1.275 . S
Cd122 O121 2.300 . S
Cd122 O130 2.381 . S
Cd122 O131 2.378 . S
O123 Cd124 2.385 . S
O123 C128 1.255 . S
Cd124 O123 2.385 . S
Cd124 O125 2.317 . S
O125 Cd124 2.317 . S
O125 C126 1.232 . S
C126 O125 1.232 . S
C126 O127 1.218 . S
O127 C126 1.218 . S
C128 O121 1.275 . S
C128 O123 1.255 . S
C129 O130 1.258 . S
C129 O131 1.256 . S
O130 Cd122 2.381 . S
O130 C129 1.258 . S
O131 Cd122 2.378 . S
O131 C129 1.256 . S
O132 Cd133 2.300 . S
O132 C139 1.275 . S
Cd133 O132 2.300 . S
Cd133 O141 2.381 . S
Cd133 O142 2.378 . S
O134 Cd135 2.385 . S
O134 C139 1.255 . S
Cd135 O134 2.385 . S
Cd135 O136 2.317 . S
O136 Cd135 2.317 . S
O136 C137 1.232 . S
C137 O136 1.232 . S
C137 O138 1.218 . S
O138 C137 1.218 . S
C139 O132 1.275 . S
C139 O134 1.255 . S
C140 O141 1.258 . S
C140 O142 1.256 . S
O141 Cd133 2.381 . S
O141 C140 1.258 . S
O142 Cd133 2.378 . S
O142 C140 1.256 . S
O143 Cd144 2.300 . S
O143 C150 1.275 . S
Cd144 O143 2.300 . S
Cd144 O152 2.381 . S
Cd144 O153 2.378 . S
O145 Cd146 2.385 . S
O145 C150 1.255 . S
Cd146 O145 2.385 . S
Cd146 O147 2.317 . S
O147 Cd146 2.317 . S
O147 C148 1.232 . S
C148 O147 1.232 . S
C148 O149 1.218 . S
O149 C148 1.218 . S
C150 O143 1.275 . S
C150 O145 1.255 . S
C151 O152 1.258 . S
C151 O153 1.256 . S
O152 Cd144 2.381 . S
O152 C151 1.258 . S
O153 Cd144 2.378 . S
O153 C151 1.256 . S
O154 Cd155 2.300 . S
O154 C161 1.275 . S
Cd155 O154 2.300 . S
Cd155 O163 2.381 . S
Cd155 O164 2.378 . S
O156 Cd157 2.385 . S
O156 C161 1.255 . S
Cd157 O156 2.385 . S
Cd157 O158 2.317 . S
O158 Cd157 2.317 . S
O158 C159 1.232 . S
C159 O158 1.232 . S
C159 O160 1.218 . S
O160 C159 1.218 . S
C161 O154 1.275 . S
C161 O156 1.255 . S
C162 O163 1.258 . S
C162 O164 1.256 . S
O163 Cd155 2.381 . S
O163 C162 1.258 . S
O164 Cd155 2.378 . S
O164 C162 1.256 . S
O165 Cd166 2.300 . S
O165 C172 1.275 . S
Cd166 O165 2.300 . S
Cd166 O174 2.381 . S
Cd166 O175 2.378 . S
O167 Cd168 2.385 . S
O167 C172 1.255 . S
Cd168 O167 2.385 . S
Cd168 O169 2.317 . S
O169 Cd168 2.317 . S
O169 C170 1.232 . S
C170 O169 1.232 . S
C170 O171 1.218 . S
O171 C170 1.218 . S
C172 O165 1.275 . S
C172 O167 1.255 . S
C173 O174 1.258 . S
C173 O175 1.256 . S
O174 Cd166 2.381 . S
O174 C173 1.258 . S
O175 Cd166 2.378 . S
O175 C173 1.256 . S
C176 C177 1.391 . S
C176 C178 1.394 . S
C176 H192 0.931 . S
C177 C176 1.391 . S
C177 C181 1.376 . S
C178 C176 1.394 . S
C178 C179 1.369 . S
C178 C182 1.531 . S
C179 C178 1.369 . S
C179 C180 1.410 . S
C179 C187 1.503 . S
C180 C179 1.410 . S
C180 C181 1.392 . S
C180 C183 1.511 . S
C181 C177 1.376 . S
C181 C180 1.392 . S
C181 H193 0.929 . S
C182 C178 1.531 . S
C182 H194 0.960 . S
C182 H195 0.962 . S
C182 H196 0.960 . S
C183 C180 1.511 . S
C183 H197 0.961 . S
C183 H198 0.961 . S
C183 H199 0.961 . S
C184 C185 1.370 . S
C184 C186 1.363 . S
C184 H200 0.931 . S
C185 C184 1.370 . S
C185 C189 1.408 . S
C186 C184 1.363 . S
C186 C187 1.370 . S
C186 C190 1.524 . S
C187 C179 1.503 . S
C187 C186 1.370 . S
C187 C188 1.403 . S
C188 C187 1.403 . S
C188 C189 1.404 . S
C188 C191 1.539 . S
C189 C185 1.408 . S
C189 C188 1.404 . S
C189 H201 0.930 . S
C190 C186 1.524 . S
C190 H202 0.956 . S
C190 H203 0.961 . S
C190 H204 0.961 . S
C191 C188 1.539 . S
C191 H205 0.958 . S
C191 H206 0.961 . S
C191 H207 0.960 . S
H192 C176 0.931 . S
H193 C181 0.929 . S
H194 C182 0.960 . S
H195 C182 0.962 . S
H196 C182 0.960 . S
H197 C183 0.961 . S
H198 C183 0.961 . S
H199 C183 0.961 . S
H200 C184 0.931 . S
H201 C189 0.930 . S
H202 C190 0.956 . S
H203 C190 0.961 . S
H204 C190 0.961 . S
H205 C191 0.958 . S
H206 C191 0.961 . S
H207 C191 0.960 . S
C208 C209 1.391 . S
C208 C210 1.394 . S
C208 H224 0.931 . S
C209 C208 1.391 . S
C209 C213 1.376 . S
C210 C208 1.394 . S
C210 C211 1.369 . S
C210 C214 1.531 . S
C211 C210 1.369 . S
C211 C212 1.410 . S
C211 C219 1.503 . S
C212 C211 1.410 . S
C212 C213 1.392 . S
C212 C215 1.511 . S
C213 C209 1.376 . S
C213 C212 1.392 . S
C213 H225 0.929 . S
C214 C210 1.531 . S
C214 H226 0.960 . S
C214 H227 0.962 . S
C214 H228 0.960 . S
C215 C212 1.511 . S
C215 H229 0.961 . S
C215 H230 0.961 . S
C215 H231 0.961 . S
C216 C217 1.370 . S
C216 C218 1.363 . S
C216 H232 0.931 . S
C217 C216 1.370 . S
C217 C221 1.408 . S
C218 C216 1.363 . S
C218 C219 1.370 . S
C218 C222 1.524 . S
C219 C211 1.503 . S
C219 C218 1.370 . S
C219 C220 1.403 . S
C220 C219 1.403 . S
C220 C221 1.404 . S
C220 C223 1.539 . S
C221 C217 1.408 . S
C221 C220 1.404 . S
C221 H233 0.930 . S
C222 C218 1.524 . S
C222 H234 0.956 . S
C222 H235 0.961 . S
C222 H236 0.961 . S
C223 C220 1.539 . S
C223 H237 0.958 . S
C223 H238 0.961 . S
C223 H239 0.960 . S
H224 C208 0.931 . S
H225 C213 0.929 . S
H226 C214 0.960 . S
H227 C214 0.962 . S
H228 C214 0.960 . S
H229 C215 0.961 . S
H230 C215 0.961 . S
H231 C215 0.961 . S
H232 C216 0.931 . S
H233 C221 0.930 . S
H234 C222 0.956 . S
H235 C222 0.961 . S
H236 C222 0.961 . S
H237 C223 0.958 . S
H238 C223 0.961 . S
H239 C223 0.960 . S
C240 C241 1.391 . S
C240 C242 1.394 . S
C240 H256 0.931 . S
C241 C240 1.391 . S
C241 C245 1.376 . S
C242 C240 1.394 . S
C242 C243 1.369 . S
C242 C246 1.531 . S
C243 C242 1.369 . S
C243 C244 1.410 . S
C243 C251 1.503 . S
C244 C243 1.410 . S
C244 C245 1.392 . S
C244 C247 1.511 . S
C245 C241 1.376 . S
C245 C244 1.392 . S
C245 H257 0.929 . S
C246 C242 1.531 . S
C246 H258 0.960 . S
C246 H259 0.962 . S
C246 H260 0.960 . S
C247 C244 1.511 . S
C247 H261 0.961 . S
C247 H262 0.961 . S
C247 H263 0.961 . S
C248 C249 1.370 . S
C248 C250 1.363 . S
C248 H264 0.931 . S
C249 C248 1.370 . S
C249 C253 1.408 . S
C250 C248 1.363 . S
C250 C251 1.370 . S
C250 C254 1.524 . S
C251 C243 1.503 . S
C251 C250 1.370 . S
C251 C252 1.403 . S
C252 C251 1.403 . S
C252 C253 1.404 . S
C252 C255 1.539 . S
C253 C249 1.408 . S
C253 C252 1.404 . S
C253 H265 0.930 . S
C254 C250 1.524 . S
C254 H266 0.956 . S
C254 H267 0.961 . S
C254 H268 0.961 . S
C255 C252 1.539 . S
C255 H269 0.958 . S
C255 H270 0.961 . S
C255 H271 0.960 . S
H256 C240 0.931 . S
H257 C245 0.929 . S
H258 C246 0.960 . S
H259 C246 0.962 . S
H260 C246 0.960 . S
H261 C247 0.961 . S
H262 C247 0.961 . S
H263 C247 0.961 . S
H264 C248 0.931 . S
H265 C253 0.930 . S
H266 C254 0.956 . S
H267 C254 0.961 . S
H268 C254 0.961 . S
H269 C255 0.958 . S
H270 C255 0.961 . S
H271 C255 0.960 . S
C272 C273 1.391 . S
C272 C274 1.385 1_556 S
C272 H288 0.931 . S
C273 C272 1.391 . S
C273 C277 1.376 . S
C274 C272 1.385 1_554 S
C274 C275 1.365 1_554 S
C274 C278 1.544 . S
C275 C274 1.365 1_556 S
C275 C276 1.410 . S
C275 C283 1.503 1_556 S
C276 C275 1.410 . S
C276 C277 1.392 . S
C276 C279 1.511 . S
C277 C273 1.376 . S
C277 C276 1.392 . S
C277 H289 0.929 . S
C278 C274 1.544 . S
C278 H290 0.960 . S
C278 H291 0.962 . S
C278 H292 0.960 . S
C279 C276 1.511 . S
C279 H293 0.961 . S
C279 H294 0.961 . S
C279 H295 0.961 . S
C280 C281 1.370 . S
C280 C282 1.363 . S
C280 H296 0.931 . S
C281 C280 1.370 . S
C281 C285 1.408 . S
C282 C280 1.363 . S
C282 C283 1.370 . S
C282 C286 1.524 1_554 S
C283 C275 1.503 1_554 S
C283 C282 1.370 . S
C283 C284 1.403 . S
C284 C283 1.403 . S
C284 C285 1.404 . S
C284 C287 1.539 . S
C285 C281 1.408 . S
C285 C284 1.404 . S
C285 H297 0.930 . S
C286 C282 1.524 1_556 S
C286 H298 0.956 . S
C286 H299 0.961 . S
C286 H300 0.961 . S
C287 C284 1.539 . S
C287 H301 0.958 . S
C287 H302 0.961 . S
C287 H303 0.960 . S
H288 C272 0.931 . S
H289 C277 0.929 . S
H290 C278 0.960 . S
H291 C278 0.962 . S
H292 C278 0.960 . S
H293 C279 0.961 . S
H294 C279 0.961 . S
H295 C279 0.961 . S
H296 C280 0.931 . S
H297 C285 0.930 . S
H298 C286 0.956 . S
H299 C286 0.961 . S
H300 C286 0.961 . S
H301 C287 0.958 . S
H302 C287 0.961 . S
H303 C287 0.960 . S
C304 C305 1.391 . S
C304 C306 1.394 . S
C304 H320 0.931 . S
C305 C304 1.391 . S
C305 C309 1.376 . S
C306 C304 1.394 . S
C306 C307 1.369 . S
C306 C310 1.531 . S
C307 C306 1.369 . S
C307 C308 1.428 . S
C307 C315 1.503 1_554 S
C308 C307 1.428 . S
C308 C309 1.424 . S
C308 C311 1.464 1_554 S
C309 C305 1.376 . S
C309 C308 1.424 . S
C309 H321 0.929 . S
C310 C306 1.531 . S
C310 H322 0.960 . S
C310 H323 0.962 . S
C310 H324 0.960 . S
C311 C308 1.464 1_556 S
C311 H325 0.961 . S
C311 H326 0.961 . S
C311 H327 0.961 . S
C312 C313 1.370 . S
C312 C314 1.363 . S
C312 H328 0.931 . S
C313 C312 1.370 . S
C313 C317 1.408 . S
C314 C312 1.363 . S
C314 C315 1.370 . S
C314 C318 1.524 . S
C315 C307 1.503 1_556 S
C315 C314 1.370 . S
C315 C316 1.403 . S
C316 C315 1.403 . S
C316 C317 1.404 . S
C316 C319 1.571 . S
C317 C313 1.408 . S
C317 C316 1.404 . S
C317 H329 0.930 . S
C318 C314 1.524 . S
C318 H330 0.956 1_556 S
C318 H331 0.961 . S
C318 H332 0.961 . S
C319 C316 1.571 . S
C319 H333 0.896 1_556 S
C319 H334 1.012 . S
C319 H335 0.947 1_556 S
H320 C304 0.931 . S
H321 C309 0.929 . S
H322 C310 0.960 . S
H323 C310 0.962 . S
H324 C310 0.960 . S
H325 C311 0.961 . S
H326 C311 0.961 . S
H327 C311 0.961 . S
H328 C312 0.931 . S
H329 C317 0.930 . S
H330 C318 0.956 1_554 S
H331 C318 0.961 . S
H332 C318 0.961 . S
H333 C319 0.896 1_554 S
H334 C319 1.012 . S
H335 C319 0.947 1_554 S
C336 C337 1.391 . S
C336 C338 1.394 . S
C336 H352 0.931 . S
C337 C336 1.391 . S
C337 C341 1.376 . S
C338 C336 1.394 . S
C338 C339 1.369 . S
C338 C342 1.531 . S
C339 C338 1.369 . S
C339 C340 1.410 . S
C339 C347 1.503 . S
C340 C339 1.410 . S
C340 C341 1.392 . S
C340 C343 1.511 . S
C341 C337 1.376 . S
C341 C340 1.392 . S
C341 H353 0.929 . S
C342 C338 1.531 . S
C342 H354 0.960 . S
C342 H355 0.962 . S
C342 H356 0.960 . S
C343 C340 1.511 . S
C343 H357 0.961 . S
C343 H358 0.961 . S
C343 H359 0.961 . S
C344 C345 1.370 . S
C344 C346 1.363 . S
C344 H360 0.931 . S
C345 C344 1.370 . S
C345 C349 1.408 . S
C346 C344 1.363 . S
C346 C347 1.370 . S
C346 C350 1.524 . S
C347 C339 1.503 . S
C347 C346 1.370 . S
C347 C348 1.403 . S
C348 C347 1.403 . S
C348 C349 1.404 . S
C348 C351 1.539 . S
C349 C345 1.408 . S
C349 C348 1.404 . S
C349 H361 0.930 . S
C350 C346 1.524 . S
C350 H362 0.956 . S
C350 H363 0.961 . S
C350 H364 0.961 . S
C351 C348 1.539 . S
C351 H365 0.958 . S
C351 H366 0.961 . S
C351 H367 0.960 . S
H352 C336 0.931 . S
H353 C341 0.929 . S
H354 C342 0.960 . S
H355 C342 0.962 . S
H356 C342 0.960 . S
H357 C343 0.961 . S
H358 C343 0.961 . S
H359 C343 0.961 . S
H360 C344 0.931 . S
H361 C349 0.930 . S
H362 C350 0.956 . S
H363 C350 0.961 . S
H364 C350 0.961 . S
H365 C351 0.958 . S
H366 C351 0.961 . S
H367 C351 0.960 . S
C368 C369 1.391 . S
C368 C370 1.394 . S
C368 H384 0.931 . S
C369 C368 1.391 . S
C369 C373 1.376 . S
C370 C368 1.394 . S
C370 C371 1.369 . S
C370 C374 1.531 . S
C371 C370 1.369 . S
C371 C372 1.410 . S
C371 C379 1.503 . S
C372 C371 1.410 . S
C372 C373 1.392 . S
C372 C375 1.511 . S
C373 C369 1.376 . S
C373 C372 1.392 . S
C373 H385 0.929 . S
C374 C370 1.531 . S
C374 H386 0.960 . S
C374 H387 0.962 . S
C374 H388 0.960 . S
C375 C372 1.511 . S
C375 H389 0.961 . S
C375 H390 0.961 . S
C375 H391 0.961 . S
C376 C377 1.370 . S
C376 C378 1.363 . S
C376 H392 0.931 . S
C377 C376 1.370 . S
C377 C381 1.408 . S
C378 C376 1.363 . S
C378 C379 1.370 . S
C378 C382 1.524 . S
C379 C371 1.503 . S
C379 C378 1.370 . S
C379 C380 1.403 . S
C380 C379 1.403 . S
C380 C381 1.404 . S
C380 C383 1.539 . S
C381 C377 1.408 . S
C381 C380 1.404 . S
C381 H393 0.930 . S
C382 C378 1.524 . S
C382 H394 0.956 . S
C382 H395 0.961 . S
C382 H396 0.961 . S
C383 C380 1.539 . S
C383 H397 0.958 . S
C383 H398 0.961 . S
C383 H399 0.960 . S
H384 C368 0.931 . S
H385 C373 0.929 . S
H386 C374 0.960 . S
H387 C374 0.962 . S
H388 C374 0.960 . S
H389 C375 0.961 . S
H390 C375 0.961 . S
H391 C375 0.961 . S
H392 C376 0.931 . S
H393 C381 0.930 . S
H394 C382 0.956 . S
H395 C382 0.961 . S
H396 C382 0.961 . S
H397 C383 0.958 . S
H398 C383 0.961 . S
H399 C383 0.960 . S
C400 C401 1.391 . S
C400 C402 1.394 . S
C400 H416 0.931 . S
C401 C400 1.391 . S
C401 C405 1.376 . S
C402 C400 1.394 . S
C402 C403 1.369 . S
C402 C406 1.531 . S
C403 C402 1.369 . S
C403 C404 1.410 . S
C403 C411 1.503 . S
C404 C403 1.410 . S
C404 C405 1.392 . S
C404 C407 1.511 . S
C405 C401 1.376 . S
C405 C404 1.392 . S
C405 H417 0.929 . S
C406 C402 1.531 . S
C406 H418 0.960 . S
C406 H419 0.962 . S
C406 H420 0.960 . S
C407 C404 1.511 . S
C407 H421 0.961 . S
C407 H422 0.961 . S
C407 H423 0.961 . S
C408 C409 1.370 . S
C408 C410 1.363 . S
C408 H424 0.931 . S
C409 C408 1.370 . S
C409 C413 1.408 . S
C410 C408 1.363 . S
C410 C411 1.370 . S
C410 C414 1.524 . S
C411 C403 1.503 . S
C411 C410 1.370 . S
C411 C412 1.403 . S
C412 C411 1.403 . S
C412 C413 1.404 . S
C412 C415 1.539 . S
C413 C409 1.408 . S
C413 C412 1.404 . S
C413 H425 0.930 . S
C414 C410 1.524 . S
C414 H426 0.956 . S
C414 H427 0.961 . S
C414 H428 0.961 . S
C415 C412 1.539 . S
C415 H429 0.958 . S
C415 H430 0.961 . S
C415 H431 0.960 . S
H416 C400 0.931 . S
H417 C405 0.929 . S
H418 C406 0.960 . S
H419 C406 0.962 . S
H420 C406 0.960 . S
H421 C407 0.961 . S
H422 C407 0.961 . S
H423 C407 0.961 . S
H424 C408 0.931 . S
H425 C413 0.930 . S
H426 C414 0.956 . S
H427 C414 0.961 . S
H428 C414 0.961 . S
H429 C415 0.958 . S
H430 C415 0.961 . S
H431 C415 0.960 . S
C432 C433 1.391 . S
C432 C434 1.394 . S
C432 H448 0.931 . S
C433 C432 1.391 . S
C433 C437 1.376 . S
C434 C432 1.394 . S
C434 C435 1.369 . S
C434 C438 1.531 . S
C435 C434 1.369 . S
C435 C436 1.410 . S
C435 C443 1.503 . S
C436 C435 1.410 . S
C436 C437 1.392 . S
C436 C439 1.511 . S
C437 C433 1.376 . S
C437 C436 1.392 . S
C437 H449 0.929 . S
C438 C434 1.531 . S
C438 H450 0.960 . S
C438 H451 0.962 . S
C438 H452 0.960 . S
C439 C436 1.511 . S
C439 H453 0.961 . S
C439 H454 0.961 . S
C439 H455 0.961 . S
C440 C441 1.370 . S
C440 C442 1.363 . S
C440 H456 0.931 . S
C441 C440 1.370 . S
C441 C445 1.408 . S
C442 C440 1.363 . S
C442 C443 1.370 . S
C442 C446 1.524 . S
C443 C435 1.503 . S
C443 C442 1.370 . S
C443 C444 1.403 . S
C444 C443 1.403 . S
C444 C445 1.404 . S
C444 C447 1.539 . S
C445 C441 1.408 . S
C445 C444 1.404 . S
C445 H457 0.930 . S
C446 C442 1.524 . S
C446 H458 0.956 . S
C446 H459 0.961 . S
C446 H460 0.961 . S
C447 C444 1.539 . S
C447 H461 0.958 . S
C447 H462 0.961 . S
C447 H463 0.960 . S
H448 C432 0.931 . S
H449 C437 0.929 . S
H450 C438 0.960 . S
H451 C438 0.962 . S
H452 C438 0.960 . S
H453 C439 0.961 . S
H454 C439 0.961 . S
H455 C439 0.961 . S
H456 C440 0.931 . S
H457 C445 0.930 . S
H458 C446 0.956 . S
H459 C446 0.961 . S
H460 C446 0.961 . S
H461 C447 0.958 . S
H462 C447 0.961 . S
H463 C447 0.960 . S
C464 C465 1.391 . S
C464 C466 1.394 . S
C464 H480 0.931 . S
C465 C464 1.391 . S
C465 C469 1.376 . S
C466 C464 1.394 . S
C466 C467 1.369 . S
C466 C470 1.531 . S
C467 C466 1.369 . S
C467 C468 1.410 . S
C467 C475 1.503 . S
C468 C467 1.410 . S
C468 C469 1.392 . S
C468 C471 1.511 . S
C469 C465 1.376 . S
C469 C468 1.392 . S
C469 H481 0.929 . S
C470 C466 1.531 . S
C470 H482 0.960 . S
C470 H483 0.962 . S
C470 H484 0.960 . S
C471 C468 1.511 . S
C471 H485 0.961 . S
C471 H486 0.961 . S
C471 H487 0.961 . S
C472 C473 1.370 . S
C472 C474 1.363 . S
C472 H488 0.931 . S
C473 C472 1.370 . S
C473 C477 1.408 . S
C474 C472 1.363 . S
C474 C475 1.370 . S
C474 C478 1.524 . S
C475 C467 1.503 . S
C475 C474 1.370 . S
C475 C476 1.403 . S
C476 C475 1.403 . S
C476 C477 1.404 . S
C476 C479 1.539 . S
C477 C473 1.408 . S
C477 C476 1.404 . S
C477 H489 0.930 . S
C478 C474 1.524 . S
C478 H490 0.956 . S
C478 H491 0.961 . S
C478 H492 0.961 . S
C479 C476 1.539 . S
C479 H493 0.958 . S
C479 H494 0.961 . S
C479 H495 0.960 . S
H480 C464 0.931 . S
H481 C469 0.929 . S
H482 C470 0.960 . S
H483 C470 0.962 . S
H484 C470 0.960 . S
H485 C471 0.961 . S
H486 C471 0.961 . S
H487 C471 0.961 . S
H488 C472 0.931 . S
H489 C477 0.930 . S
H490 C478 0.956 . S
H491 C478 0.961 . S
H492 C478 0.961 . S
H493 C479 0.958 . S
H494 C479 0.961 . S
H495 C479 0.960 . S
C496 C497 1.391 . S
C496 C498 1.394 . S
C496 H512 0.931 . S
C497 C496 1.391 . S
C497 C501 1.376 . S
C498 C496 1.394 . S
C498 C499 1.369 . S
C498 C502 1.531 . S
C499 C498 1.369 . S
C499 C500 1.410 . S
C499 C507 1.503 . S
C500 C499 1.410 . S
C500 C501 1.392 . S
C500 C503 1.511 . S
C501 C497 1.376 . S
C501 C500 1.392 . S
C501 H513 0.929 . S
C502 C498 1.531 . S
C502 H514 0.960 . S
C502 H515 0.962 . S
C502 H516 0.960 . S
C503 C500 1.511 . S
C503 H517 0.961 . S
C503 H518 0.961 . S
C503 H519 0.961 . S
C504 C505 1.370 . S
C504 C506 1.363 . S
C504 H520 0.931 . S
C505 C504 1.370 . S
C505 C509 1.408 . S
C506 C504 1.363 . S
C506 C507 1.370 . S
C506 C510 1.524 . S
C507 C499 1.503 . S
C507 C506 1.370 . S
C507 C508 1.403 . S
C508 C507 1.403 . S
C508 C509 1.404 . S
C508 C511 1.539 . S
C509 C505 1.408 . S
C509 C508 1.404 . S
C509 H521 0.930 . S
C510 C506 1.524 . S
C510 H522 0.956 . S
C510 H523 0.961 . S
C510 H524 0.961 . S
C511 C508 1.539 . S
C511 H525 0.958 . S
C511 H526 0.961 . S
C511 H527 0.960 . S
H512 C496 0.931 . S
H513 C501 0.929 . S
H514 C502 0.960 . S
H515 C502 0.962 . S
H516 C502 0.960 . S
H517 C503 0.961 . S
H518 C503 0.961 . S
H519 C503 0.961 . S
H520 C504 0.931 . S
H521 C509 0.930 . S
H522 C510 0.956 . S
H523 C510 0.961 . S
H524 C510 0.961 . S
H525 C511 0.958 . S
H526 C511 0.961 . S
H527 C511 0.960 . S
C528 C529 1.391 . S
C528 C530 1.394 . S
C528 H544 0.931 . S
C529 C528 1.391 . S
C529 C533 1.376 . S
C530 C528 1.394 . S
C530 C531 1.369 . S
C530 C534 1.531 . S
C531 C530 1.369 . S
C531 C532 1.410 . S
C531 C539 1.503 . S
C532 C531 1.410 . S
C532 C533 1.392 . S
C532 C535 1.511 . S
C533 C529 1.376 . S
C533 C532 1.392 . S
C533 H545 0.929 . S
C534 C530 1.531 . S
C534 H546 0.960 . S
C534 H547 0.962 . S
C534 H548 0.960 . S
C535 C532 1.511 . S
C535 H549 0.961 . S
C535 H550 0.961 . S
C535 H551 0.961 . S
C536 C537 1.370 . S
C536 C538 1.363 . S
C536 H552 0.931 . S
C537 C536 1.370 . S
C537 C541 1.408 . S
C538 C536 1.363 . S
C538 C539 1.370 . S
C538 C542 1.524 . S
C539 C531 1.503 . S
C539 C538 1.370 . S
C539 C540 1.403 . S
C540 C539 1.403 . S
C540 C541 1.404 . S
C540 C543 1.539 . S
C541 C537 1.408 . S
C541 C540 1.404 . S
C541 H553 0.930 . S
C542 C538 1.524 . S
C542 H554 0.956 . S
C542 H555 0.961 . S
C542 H556 0.961 . S
C543 C540 1.539 . S
C543 H557 0.958 . S
C543 H558 0.961 . S
C543 H559 0.960 . S
H544 C528 0.931 . S
H545 C533 0.929 . S
H546 C534 0.960 . S
H547 C534 0.962 . S
H548 C534 0.960 . S
H549 C535 0.961 . S
H550 C535 0.961 . S
H551 C535 0.961 . S
H552 C536 0.931 . S
H553 C541 0.930 . S
H554 C542 0.956 . S
H555 C542 0.961 . S
H556 C542 0.961 . S
H557 C543 0.958 . S
H558 C543 0.961 . S
H559 C543 0.960 . S
C560 C561 1.391 . S
C560 C562 1.394 . S
C560 H576 0.931 . S
C561 C560 1.391 . S
C561 C565 1.376 . S
C562 C560 1.394 . S
C562 C563 1.369 . S
C562 C566 1.531 . S
C563 C562 1.369 . S
C563 C564 1.410 . S
C563 C571 1.503 . S
C564 C563 1.410 . S
C564 C565 1.392 . S
C564 C567 1.511 . S
C565 C561 1.376 . S
C565 C564 1.392 . S
C565 H577 0.929 . S
C566 C562 1.531 . S
C566 H578 0.960 . S
C566 H579 0.962 . S
C566 H580 0.960 . S
C567 C564 1.511 . S
C567 H581 0.961 . S
C567 H582 0.961 . S
C567 H583 0.961 . S
C568 C569 1.370 . S
C568 C570 1.363 . S
C568 H584 0.931 . S
C569 C568 1.370 . S
C569 C573 1.408 . S
C570 C568 1.363 . S
C570 C571 1.370 . S
C570 C574 1.524 . S
C571 C563 1.503 . S
C571 C570 1.370 . S
C571 C572 1.403 . S
C572 C571 1.403 . S
C572 C573 1.404 . S
C572 C575 1.539 . S
C573 C569 1.408 . S
C573 C572 1.404 . S
C573 H585 0.930 . S
C574 C570 1.524 . S
C574 H586 0.956 . S
C574 H587 0.961 . S
C574 H588 0.961 . S
C575 C572 1.539 . S
C575 H589 0.958 . S
C575 H590 0.961 . S
C575 H591 0.960 . S
H576 C560 0.931 . S
H577 C565 0.929 . S
H578 C566 0.960 . S
H579 C566 0.962 . S
H580 C566 0.960 . S
H581 C567 0.961 . S
H582 C567 0.961 . S
H583 C567 0.961 . S
H584 C568 0.931 . S
H585 C573 0.930 . S
H586 C574 0.956 . S
H587 C574 0.961 . S
H588 C574 0.961 . S
H589 C575 0.958 . S
H590 C575 0.961 . S
H591 C575 0.960 . S
C592 C593 1.391 . S
C592 C594 1.394 . S
C592 H608 0.931 . S
C593 C592 1.391 . S
C593 C597 1.376 . S
C594 C592 1.394 . S
C594 C595 1.369 . S
C594 C598 1.531 . S
C595 C594 1.369 . S
C595 C596 1.410 . S
C595 C603 1.503 . S
C596 C595 1.410 . S
C596 C597 1.392 . S
C596 C599 1.511 . S
C597 C593 1.376 . S
C597 C596 1.392 . S
C597 H609 0.929 . S
C598 C594 1.531 . S
C598 H610 0.960 . S
C598 H611 0.962 . S
C598 H612 0.960 . S
C599 C596 1.511 . S
C599 H613 0.961 . S
C599 H614 0.961 . S
C599 H615 0.961 . S
C600 C601 1.370 . S
C600 C602 1.363 . S
C600 H616 0.931 . S
C601 C600 1.370 . S
C601 C605 1.408 . S
C602 C600 1.363 . S
C602 C603 1.370 . S
C602 C606 1.524 . S
C603 C595 1.503 . S
C603 C602 1.370 . S
C603 C604 1.403 . S
C604 C603 1.403 . S
C604 C605 1.404 . S
C604 C607 1.539 . S
C605 C601 1.408 . S
C605 C604 1.404 . S
C605 H617 0.930 . S
C606 C602 1.524 . S
C606 H618 0.956 . S
C606 H619 0.961 . S
C606 H620 0.961 . S
C607 C604 1.539 . S
C607 H621 0.958 . S
C607 H622 0.961 . S
C607 H623 0.960 . S
H608 C592 0.931 . S
H609 C597 0.929 . S
H610 C598 0.960 . S
H611 C598 0.962 . S
H612 C598 0.960 . S
H613 C599 0.961 . S
H614 C599 0.961 . S
H615 C599 0.961 . S
H616 C600 0.931 . S
H617 C605 0.930 . S
H618 C606 0.956 . S
H619 C606 0.961 . S
H620 C606 0.961 . S
H621 C607 0.958 . S
H622 C607 0.961 . S
H623 C607 0.960 . S
C624 C625 1.391 . S
C624 C626 1.394 . S
C624 H640 0.931 . S
C625 C624 1.391 . S
C625 C629 1.376 . S
C626 C624 1.394 . S
C626 C627 1.369 . S
C626 C630 1.531 . S
C627 C626 1.369 . S
C627 C628 1.410 . S
C627 C635 1.503 . S
C628 C627 1.410 . S
C628 C629 1.392 . S
C628 C631 1.511 . S
C629 C625 1.376 . S
C629 C628 1.392 . S
C629 H641 0.929 . S
C630 C626 1.531 . S
C630 H642 0.960 . S
C630 H643 0.962 . S
C630 H644 0.960 . S
C631 C628 1.511 . S
C631 H645 0.961 . S
C631 H646 0.961 . S
C631 H647 0.961 . S
C632 C633 1.370 . S
C632 C634 1.363 . S
C632 H648 0.931 . S
C633 C632 1.370 . S
C633 C637 1.408 . S
C634 C632 1.363 . S
C634 C635 1.370 . S
C634 C638 1.524 . S
C635 C627 1.503 . S
C635 C634 1.370 . S
C635 C636 1.403 . S
C636 C635 1.403 . S
C636 C637 1.404 . S
C636 C639 1.539 . S
C637 C633 1.408 . S
C637 C636 1.404 . S
C637 H649 0.930 . S
C638 C634 1.524 . S
C638 H650 0.956 . S
C638 H651 0.961 . S
C638 H652 0.961 . S
C639 C636 1.539 . S
C639 H653 0.958 . S
C639 H654 0.961 . S
C639 H655 0.960 . S
H640 C624 0.931 . S
H641 C629 0.929 . S
H642 C630 0.960 . S
H643 C630 0.962 . S
H644 C630 0.960 . S
H645 C631 0.961 . S
H646 C631 0.961 . S
H647 C631 0.961 . S
H648 C632 0.931 . S
H649 C637 0.930 . S
H650 C638 0.956 . S
H651 C638 0.961 . S
H652 C638 0.961 . S
H653 C639 0.958 . S
H654 C639 0.961 . S
H655 C639 0.960 . S
C656 C657 1.391 . S
C656 C658 1.394 . S
C656 H672 0.931 . S
C657 C656 1.391 . S
C657 C661 1.376 . S
C658 C656 1.394 . S
C658 C659 1.369 . S
C658 C662 1.531 . S
C659 C658 1.369 . S
C659 C660 1.410 . S
C659 C667 1.503 . S
C660 C659 1.410 . S
C660 C661 1.392 . S
C660 C663 1.511 . S
C661 C657 1.376 . S
C661 C660 1.392 . S
C661 H673 0.929 . S
C662 C658 1.531 . S
C662 H674 0.960 . S
C662 H675 0.962 . S
C662 H676 0.960 . S
C663 C660 1.511 . S
C663 H677 0.961 . S
C663 H678 0.961 . S
C663 H679 0.961 . S
C664 C665 1.370 . S
C664 C666 1.363 . S
C664 H680 0.931 . S
C665 C664 1.370 . S
C665 C669 1.408 . S
C666 C664 1.363 . S
C666 C667 1.370 . S
C666 C670 1.524 . S
C667 C659 1.503 . S
C667 C666 1.370 . S
C667 C668 1.403 . S
C668 C667 1.403 . S
C668 C669 1.404 . S
C668 C671 1.539 . S
C669 C665 1.408 . S
C669 C668 1.404 . S
C669 H681 0.930 . S
C670 C666 1.524 . S
C670 H682 0.956 . S
C670 H683 0.961 . S
C670 H684 0.961 . S
C671 C668 1.539 . S
C671 H685 0.958 . S
C671 H686 0.961 . S
C671 H687 0.960 . S
H672 C656 0.931 . S
H673 C661 0.929 . S
H674 C662 0.960 . S
H675 C662 0.962 . S
H676 C662 0.960 . S
H677 C663 0.961 . S
H678 C663 0.961 . S
H679 C663 0.961 . S
H680 C664 0.931 . S
H681 C669 0.930 . S
H682 C670 0.956 . S
H683 C670 0.961 . S
H684 C670 0.961 . S
H685 C671 0.958 . S
H686 C671 0.961 . S
H687 C671 0.960 . S
C688 C689 1.391 . S
C688 C690 1.394 . S
C688 H704 0.931 . S
C689 C688 1.391 . S
C689 C693 1.376 . S
C690 C688 1.394 . S
C690 C691 1.369 . S
C690 C694 1.531 1_545 S
C691 C690 1.369 . S
C691 C692 1.410 . S
C691 C699 1.503 1_445 S
C692 C691 1.410 . S
C692 C693 1.392 . S
C692 C695 1.511 1_455 S
C693 C689 1.376 . S
C693 C692 1.392 . S
C693 H705 0.929 . S
C694 C690 1.531 1_565 S
C694 H706 0.960 . S
C694 H707 0.962 . S
C694 H708 0.960 . S
C695 C692 1.511 1_655 S
C695 H709 0.961 . S
C695 H710 0.961 . S
C695 H711 0.961 . S
C696 C697 1.370 . S
C696 C698 1.363 . S
C696 H712 0.931 . S
C697 C696 1.370 . S
C697 C701 1.408 . S
C698 C696 1.363 . S
C698 C699 1.370 . S
C698 C702 1.524 1_655 S
C699 C691 1.503 1_665 S
C699 C698 1.370 . S
C699 C700 1.403 . S
C700 C699 1.403 . S
C700 C701 1.404 . S
C700 C703 1.539 1_565 S
C701 C697 1.408 . S
C701 C700 1.404 . S
C701 H713 0.930 . S
C702 C698 1.524 1_455 S
C702 H714 0.956 . S
C702 H715 0.961 . S
C702 H716 0.961 . S
C703 C700 1.539 1_545 S
C703 H717 0.958 . S
C703 H718 0.961 . S
C703 H719 0.960 . S
H704 C688 0.931 . S
H705 C693 0.929 . S
H706 C694 0.960 . S
H707 C694 0.962 . S
H708 C694 0.960 . S
H709 C695 0.961 . S
H710 C695 0.961 . S
H711 C695 0.961 . S
H712 C696 0.931 . S
H713 C701 0.930 . S
H714 C702 0.956 . S
H715 C702 0.961 . S
H716 C702 0.961 . S
H717 C703 0.958 . S
H718 C703 0.961 . S
H719 C703 0.960 . S
C720 C721 1.391 . S
C720 C722 1.394 . S
C720 H736 0.931 . S
C721 C720 1.391 . S
C721 C725 1.376 . S
C722 C720 1.394 . S
C722 C723 1.369 . S
C722 C726 1.531 . S
C723 C722 1.369 . S
C723 C724 1.406 1_455 S
C723 C731 1.503 1_455 S
C724 C723 1.406 1_655 S
C724 C725 1.387 1_655 S
C724 C727 1.520 . S
C725 C721 1.376 . S
C725 C724 1.387 1_455 S
C725 H737 0.929 . S
C726 C722 1.531 . S
C726 H738 0.960 . S
C726 H739 0.962 . S
C726 H740 0.960 . S
C727 C724 1.520 . S
C727 H741 0.961 . S
C727 H742 0.961 . S
C727 H743 0.961 . S
C728 C729 1.370 . S
C728 C730 1.363 . S
C728 H744 0.931 . S
C729 C728 1.370 . S
C729 C733 1.408 . S
C730 C728 1.363 . S
C730 C731 1.370 . S
C730 C734 1.524 . S
C731 C723 1.503 1_655 S
C731 C730 1.370 . S
C731 C732 1.403 . S
C732 C731 1.403 . S
C732 C733 1.404 . S
C732 C735 1.539 . S
C733 C729 1.408 . S
C733 C732 1.404 . S
C733 H745 0.930 . S
C734 C730 1.524 . S
C734 H746 0.956 1_655 S
C734 H747 0.961 . S
C734 H748 0.961 . S
C735 C732 1.539 . S
C735 H749 0.958 1_655 S
C735 H750 0.961 . S
C735 H751 0.955 1_655 S
H736 C720 0.931 . S
H737 C725 0.929 . S
H738 C726 0.960 . S
H739 C726 0.962 . S
H740 C726 0.960 . S
H741 C727 0.961 . S
H742 C727 0.961 . S
H743 C727 0.961 . S
H744 C728 0.931 . S
H745 C733 0.930 . S
H746 C734 0.956 1_455 S
H747 C734 0.961 . S
H748 C734 0.961 . S
H749 C735 0.958 1_455 S
H750 C735 0.961 . S
H751 C735 0.955 1_455 S
C752 C753 1.391 . S
C752 C754 1.394 . S
C752 H768 0.931 . S
C753 C752 1.391 . S
C753 C757 1.376 . S
C754 C752 1.394 . S
C754 C755 1.369 . S
C754 C758 1.531 . S
C755 C754 1.369 . S
C755 C756 1.410 . S
C755 C763 1.503 . S
C756 C755 1.410 . S
C756 C757 1.392 . S
C756 C759 1.511 . S
C757 C753 1.376 . S
C757 C756 1.392 . S
C757 H769 0.929 . S
C758 C754 1.531 . S
C758 H770 0.960 . S
C758 H771 0.962 . S
C758 H772 0.960 . S
C759 C756 1.511 . S
C759 H773 0.961 . S
C759 H774 0.961 . S
C759 H775 0.961 . S
C760 C761 1.370 . S
C760 C762 1.363 . S
C760 H776 0.931 . S
C761 C760 1.370 . S
C761 C765 1.408 . S
C762 C760 1.363 . S
C762 C763 1.370 . S
C762 C766 1.524 . S
C763 C755 1.503 . S
C763 C762 1.370 . S
C763 C764 1.403 . S
C764 C763 1.403 . S
C764 C765 1.404 . S
C764 C767 1.539 . S
C765 C761 1.408 . S
C765 C764 1.404 . S
C765 H777 0.930 . S
C766 C762 1.524 . S
C766 H778 0.956 . S
C766 H779 0.961 . S
C766 H780 0.961 . S
C767 C764 1.539 . S
C767 H781 0.958 . S
C767 H782 0.961 . S
C767 H783 0.960 . S
H768 C752 0.931 . S
H769 C757 0.929 . S
H770 C758 0.960 . S
H771 C758 0.962 . S
H772 C758 0.960 . S
H773 C759 0.961 . S
H774 C759 0.961 . S
H775 C759 0.961 . S
H776 C760 0.931 . S
H777 C765 0.930 . S
H778 C766 0.956 . S
H779 C766 0.961 . S
H780 C766 0.961 . S
H781 C767 0.958 . S
H782 C767 0.961 . S
H783 C767 0.960 . S
C784 C785 1.391 . S
C784 C786 1.394 . S
C784 H800 0.931 . S
C785 C784 1.391 . S
C785 C789 1.376 . S
C786 C784 1.394 . S
C786 C787 1.369 . S
C786 C790 1.531 . S
C787 C786 1.369 . S
C787 C788 1.410 . S
C787 C795 1.503 1_545 S
C788 C787 1.410 . S
C788 C789 1.392 . S
C788 C791 1.511 . S
C789 C785 1.376 . S
C789 C788 1.392 . S
C789 H801 0.929 . S
C790 C786 1.531 . S
C790 H802 0.960 . S
C790 H803 0.962 1_545 S
C790 H804 0.960 . S
C791 C788 1.511 . S
C791 H805 0.961 . S
C791 H806 0.961 . S
C791 H807 0.961 . S
C792 C793 1.370 . S
C792 C794 1.363 . S
C792 H808 0.931 . S
C793 C792 1.370 . S
C793 C797 1.408 . S
C794 C792 1.363 . S
C794 C795 1.370 . S
C794 C798 1.524 . S
C795 C787 1.503 1_565 S
C795 C794 1.370 . S
C795 C796 1.403 . S
C796 C795 1.403 . S
C796 C797 1.404 . S
C796 C799 1.539 1_565 S
C797 C793 1.408 . S
C797 C796 1.404 . S
C797 H809 0.930 . S
C798 C794 1.524 . S
C798 H810 0.956 . S
C798 H811 0.961 . S
C798 H812 0.961 . S
C799 C796 1.539 1_545 S
C799 H813 0.958 . S
C799 H814 0.961 . S
C799 H815 0.960 . S
H800 C784 0.931 . S
H801 C789 0.929 . S
H802 C790 0.960 . S
H803 C790 0.962 1_565 S
H804 C790 0.960 . S
H805 C791 0.961 . S
H806 C791 0.961 . S
H807 C791 0.961 . S
H808 C792 0.931 . S
H809 C797 0.930 . S
H810 C798 0.956 . S
H811 C798 0.961 . S
H812 C798 0.961 . S
H813 C799 0.958 . S
H814 C799 0.961 . S
H815 C799 0.960 . S
C816 C817 1.391 . S
C816 C818 1.394 . S
C816 H832 0.931 . S
C817 C816 1.391 . S
C817 C821 1.376 . S
C818 C816 1.394 . S
C818 C819 1.369 . S
C818 C822 1.531 . S
C819 C818 1.369 . S
C819 C820 1.410 . S
C819 C827 1.503 1_655 S
C820 C819 1.410 . S
C820 C821 1.392 . S
C820 C823 1.511 1_655 S
C821 C817 1.376 . S
C821 C820 1.392 . S
C821 H833 0.929 . S
C822 C818 1.531 . S
C822 H834 0.960 . S
C822 H835 0.962 . S
C822 H836 0.960 . S
C823 C820 1.511 1_455 S
C823 H837 0.961 . S
C823 H838 0.961 . S
C823 H839 0.961 . S
C824 C825 1.370 . S
C824 C826 1.363 . S
C824 H840 0.931 . S
C825 C824 1.370 . S
C825 C829 1.408 . S
C826 C824 1.363 . S
C826 C827 1.370 . S
C826 C830 1.524 . S
C827 C819 1.503 1_455 S
C827 C826 1.370 . S
C827 C828 1.403 . S
C828 C827 1.403 . S
C828 C829 1.404 . S
C828 C831 1.539 . S
C829 C825 1.408 . S
C829 C828 1.404 . S
C829 H841 0.930 . S
C830 C826 1.524 . S
C830 H842 0.956 1_455 S
C830 H843 0.962 . S
C830 H844 0.961 . S
C831 C828 1.539 . S
C831 H845 0.958 . S
C831 H846 0.961 . S
C831 H847 0.960 . S
H832 C816 0.931 . S
H833 C821 0.929 . S
H834 C822 0.960 . S
H835 C822 0.962 . S
H836 C822 0.960 . S
H837 C823 0.961 . S
H838 C823 0.961 . S
H839 C823 0.961 . S
H840 C824 0.931 . S
H841 C829 0.930 . S
H842 C830 0.956 1_655 S
H843 C830 0.962 . S
H844 C830 0.961 . S
H845 C831 0.958 . S
H846 C831 0.961 . S
H847 C831 0.960 . S
C848 C849 1.391 . S
C848 C850 1.394 . S
C848 H864 0.931 . S
C849 C848 1.391 . S
C849 C853 1.376 . S
C850 C848 1.394 . S
C850 C851 1.369 . S
C850 C854 1.531 . S
C851 C850 1.369 . S
C851 C852 1.410 . S
C851 C859 1.503 . S
C852 C851 1.410 . S
C852 C853 1.392 . S
C852 C855 1.511 . S
C853 C849 1.376 . S
C853 C852 1.392 . S
C853 H865 0.929 . S
C854 C850 1.531 . S
C854 H866 0.960 . S
C854 H867 0.962 . S
C854 H868 0.960 . S
C855 C852 1.511 . S
C855 H869 0.961 . S
C855 H870 0.961 . S
C855 H871 0.961 . S
C856 C857 1.370 . S
C856 C858 1.363 . S
C856 H872 0.931 . S
C857 C856 1.370 . S
C857 C861 1.408 . S
C858 C856 1.363 . S
C858 C859 1.370 . S
C858 C862 1.524 . S
C859 C851 1.503 . S
C859 C858 1.370 . S
C859 C860 1.403 . S
C860 C859 1.403 . S
C860 C861 1.404 . S
C860 C863 1.539 . S
C861 C857 1.408 . S
C861 C860 1.404 . S
C861 H873 0.930 . S
C862 C858 1.524 . S
C862 H874 0.956 . S
C862 H875 0.961 . S
C862 H876 0.961 . S
C863 C860 1.539 . S
C863 H877 0.958 . S
C863 H878 0.961 . S
C863 H879 0.960 . S
H864 C848 0.931 . S
H865 C853 0.929 . S
H866 C854 0.960 . S
H867 C854 0.962 . S
H868 C854 0.960 . S
H869 C855 0.961 . S
H870 C855 0.961 . S
H871 C855 0.961 . S
H872 C856 0.931 . S
H873 C861 0.930 . S
H874 C862 0.956 . S
H875 C862 0.961 . S
H876 C862 0.961 . S
H877 C863 0.958 . S
H878 C863 0.961 . S
H879 C863 0.960 . S
C880 C881 1.391 . S
C880 C882 1.394 . S
C880 H896 0.931 . S
C881 C880 1.391 . S
C881 C885 1.376 . S
C882 C880 1.394 . S
C882 C883 1.369 . S
C882 C886 1.531 . S
C883 C882 1.369 . S
C883 C884 1.410 1_545 S
C883 C891 1.503 1_545 S
C884 C883 1.410 1_565 S
C884 C885 1.392 1_565 S
C884 C887 1.511 . S
C885 C881 1.376 . S
C885 C884 1.392 1_545 S
C885 H897 0.929 . S
C886 C882 1.531 . S
C886 H898 0.960 . S
C886 H899 0.962 . S
C886 H900 0.960 . S
C887 C884 1.511 . S
C887 H901 0.961 . S
C887 H902 0.961 . S
C887 H903 0.961 . S
C888 C889 1.370 . S
C888 C890 1.363 . S
C888 H904 0.931 . S
C889 C888 1.370 . S
C889 C893 1.408 . S
C890 C888 1.363 . S
C890 C891 1.370 . S
C890 C894 1.524 . S
C891 C883 1.503 1_565 S
C891 C890 1.370 . S
C891 C892 1.403 . S
C892 C891 1.403 . S
C892 C893 1.404 . S
C892 C895 1.539 . S
C893 C889 1.408 . S
C893 C892 1.404 . S
C893 H905 0.930 . S
C894 C890 1.524 . S
C894 H906 0.956 1_565 S
C894 H907 0.961 . S
C894 H908 0.961 . S
C895 C892 1.539 . S
C895 H909 0.958 . S
C895 H910 0.961 . S
C895 H911 0.960 . S
H896 C880 0.931 . S
H897 C885 0.929 . S
H898 C886 0.960 . S
H899 C886 0.962 . S
H900 C886 0.960 . S
H901 C887 0.961 . S
H902 C887 0.961 . S
H903 C887 0.961 . S
H904 C888 0.931 . S
H905 C893 0.930 . S
H906 C894 0.956 1_545 S
H907 C894 0.961 . S
H908 C894 0.961 . S
H909 C895 0.958 . S
H910 C895 0.961 . S
H911 C895 0.960 . S
C912 C913 1.391 . S
C912 C914 1.394 . S
C912 H928 0.931 . S
C913 C912 1.391 . S
C913 C917 1.376 . S
C914 C912 1.394 . S
C914 C915 1.369 . S
C914 C918 1.531 1_565 S
C915 C914 1.369 . S
C915 C916 1.409 1_655 S
C915 C923 1.503 1_665 S
C916 C915 1.409 1_455 S
C916 C917 1.390 1_455 S
C916 C919 1.514 . S
C917 C913 1.376 . S
C917 C916 1.390 1_655 S
C917 H929 0.929 . S
C918 C914 1.531 1_545 S
C918 H930 0.960 . S
C918 H931 0.962 . S
C918 H932 0.960 . S
C919 C916 1.514 . S
C919 H933 0.961 . S
C919 H934 0.961 . S
C919 H935 0.961 . S
C920 C921 1.370 . S
C920 C922 1.363 . S
C920 H936 0.931 . S
C921 C920 1.370 . S
C921 C925 1.408 . S
C922 C920 1.363 . S
C922 C923 1.370 . S
C922 C926 1.524 1_455 S
C923 C915 1.503 1_445 S
C923 C922 1.370 . S
C923 C924 1.403 . S
C924 C923 1.403 . S
C924 C925 1.404 . S
C924 C927 1.539 1_545 S
C925 C921 1.408 . S
C925 C924 1.404 . S
C925 H937 0.930 . S
C926 C922 1.524 1_655 S
C926 H938 0.956 . S
C926 H939 0.961 . S
C926 H940 0.961 . S
C927 C924 1.539 1_565 S
C927 H941 0.958 . S
C927 H942 0.961 . S
C927 H943 0.960 . S
H928 C912 0.931 . S
H929 C917 0.929 . S
H930 C918 0.960 . S
H931 C918 0.962 . S
H932 C918 0.960 . S
H933 C919 0.961 . S
H934 C919 0.961 . S
H935 C919 0.961 . S
H936 C920 0.931 . S
H937 C925 0.930 . S
H938 C926 0.956 . S
H939 C926 0.961 . S
H940 C926 0.961 . S
H941 C927 0.958 . S
H942 C927 0.961 . S
H943 C927 0.960 . S
C177 C170 1.423 . S
C185 C5 1.373 . S
C209 C137 1.352 . S
C217 C16 1.370 . S
C241 C27 1.359 . S
C249 C148 1.368 . S
C273 C38 1.358 . S
C281 C159 1.368 . S
C305 C49 1.414 . S
C313 C104 1.404 . S
C337 C60 1.361 . S
C345 C115 1.406 . S
C369 C71 1.370 . S
C377 C126 1.366 . S
C401 C82 1.434 . S
C409 C93 1.390 . S
C433 C7 1.514 . S
C441 C51 1.533 . S
C465 C62 1.520 . S
C473 C18 1.530 . S
C497 C73 1.548 . S
C505 C29 1.525 . S
C529 C40 1.529 . S
C537 C84 1.536 . S
C561 C95 1.508 . S
C569 C139 1.539 . S
C593 C106 1.516 . S
C601 C150 1.540 . S
C625 C117 1.545 . S
C633 C161 1.528 . S
C657 C128 1.548 . S
C665 C172 1.525 . S
C689 C8 1.583 . S
C697 C118 1.587 . S
C721 C129 1.571 . S
C729 C19 1.581 . S
C753 C96 1.579 . S
C761 C30 1.586 . S
C785 C107 1.582 . S
C793 C41 1.583 . S
C817 C162 1.587 . S
C825 C52 1.587 . S
C849 C63 1.588 . S
C857 C173 1.587 . S
C881 C74 1.572 . S
C889 C140 1.580 . S
C913 C85 1.576 . S
C921 C151 1.581 . S
