# Generated by pormake.
# Topology vcb, (5)-cn, num edge types: 1
# Building blocks:
#     Node 0, Type 0, BuildingBlock: XOMCOT_clean_sbu_1, # of connection points: 5
#     Node 1, Type 0, BuildingBlock: XOMCOT_clean_sbu_1, # of connection points: 5
#     Node 2, Type 0, BuildingBlock: XOMCOT_clean_sbu_1, # of connection points: 5
#     Node 3, Type 0, BuildingBlock: XOMCOT_clean_sbu_1, # of connection points: 5
#     Node 4, Type 0, BuildingBlock: XOMCOT_clean_sbu_1, # of connection points: 5
#     Node 5, Type 0, BuildingBlock: XOMCOT_clean_sbu_1, # of connection points: 5
#     Node 6, Type 0, BuildingBlock: XOMCOT_clean_sbu_1, # of connection points: 5
#     Node 7, Type 0, BuildingBlock: XOMCOT_clean_sbu_1, # of connection points: 5
#     Node 8, Type 0, BuildingBlock: XOMCOT_clean_sbu_1, # of connection points: 5
#     Node 9, Type 0, BuildingBlock: XOMCOT_clean_sbu_1, # of connection points: 5
#     Node 10, Type 0, BuildingBlock: XOMCOT_clean_sbu_1, # of connection points: 5
#     Node 11, Type 0, BuildingBlock: XOMCOT_clean_sbu_1, # of connection points: 5
#     Node 12, Type 0, BuildingBlock: XOMCOT_clean_sbu_1, # of connection points: 5
#     Node 13, Type 0, BuildingBlock: XOMCOT_clean_sbu_1, # of connection points: 5
#     Node 14, Type 0, BuildingBlock: XOMCOT_clean_sbu_1, # of connection points: 5
#     Node 15, Type 0, BuildingBlock: XOMCOT_clean_sbu_1, # of connection points: 5
#     Node 16, Type 0, BuildingBlock: XOMCOT_clean_sbu_1, # of connection points: 5
#     Node 17, Type 0, BuildingBlock: XOMCOT_clean_sbu_1, # of connection points: 5
#     Node 18, Type 0, BuildingBlock: XOMCOT_clean_sbu_1, # of connection points: 5
#     Node 19, Type 0, BuildingBlock: XOMCOT_clean_sbu_1, # of connection points: 5
#     Node 20, Type 0, BuildingBlock: XOMCOT_clean_sbu_1, # of connection points: 5
#     Node 21, Type 0, BuildingBlock: XOMCOT_clean_sbu_1, # of connection points: 5
#     Node 22, Type 0, BuildingBlock: XOMCOT_clean_sbu_1, # of connection points: 5
#     Node 23, Type 0, BuildingBlock: XOMCOT_clean_sbu_1, # of connection points: 5
#     Node 24, Type 0, BuildingBlock: XOMCOT_clean_sbu_1, # of connection points: 5
#     Node 25, Type 0, BuildingBlock: XOMCOT_clean_sbu_1, # of connection points: 5
#     Node 26, Type 0, BuildingBlock: XOMCOT_clean_sbu_1, # of connection points: 5
#     Node 27, Type 0, BuildingBlock: XOMCOT_clean_sbu_1, # of connection points: 5
#     Node 28, Type 0, BuildingBlock: XOMCOT_clean_sbu_1, # of connection points: 5
#     Node 29, Type 0, BuildingBlock: XOMCOT_clean_sbu_1, # of connection points: 5
#     Node 30, Type 0, BuildingBlock: XOMCOT_clean_sbu_1, # of connection points: 5
#     Node 31, Type 0, BuildingBlock: XOMCOT_clean_sbu_1, # of connection points: 5
#     Edge 32, Type (0, 0), BuildingBlock: XIVTED_clean_linker_0, # of connection points: 2
#     Edge 33, Type (0, 0), BuildingBlock: XIVTED_clean_linker_0, # of connection points: 2
#     Edge 34, Type (0, 0), BuildingBlock: XIVTED_clean_linker_0, # of connection points: 2
#     Edge 35, Type (0, 0), BuildingBlock: XIVTED_clean_linker_0, # of connection points: 2
#     Edge 36, Type (0, 0), BuildingBlock: XIVTED_clean_linker_0, # of connection points: 2
#     Edge 37, Type (0, 0), BuildingBlock: XIVTED_clean_linker_0, # of connection points: 2
#     Edge 38, Type (0, 0), BuildingBlock: XIVTED_clean_linker_0, # of connection points: 2
#     Edge 39, Type (0, 0), BuildingBlock: XIVTED_clean_linker_0, # of connection points: 2
#     Edge 40, Type (0, 0), BuildingBlock: XIVTED_clean_linker_0, # of connection points: 2
#     Edge 41, Type (0, 0), BuildingBlock: XIVTED_clean_linker_0, # of connection points: 2
#     Edge 42, Type (0, 0), BuildingBlock: XIVTED_clean_linker_0, # of connection points: 2
#     Edge 43, Type (0, 0), BuildingBlock: XIVTED_clean_linker_0, # of connection points: 2
#     Edge 44, Type (0, 0), BuildingBlock: XIVTED_clean_linker_0, # of connection points: 2
#     Edge 45, Type (0, 0), BuildingBlock: XIVTED_clean_linker_0, # of connection points: 2
#     Edge 46, Type (0, 0), BuildingBlock: XIVTED_clean_linker_0, # of connection points: 2
#     Edge 47, Type (0, 0), BuildingBlock: XIVTED_clean_linker_0, # of connection points: 2
#     Edge 48, Type (0, 0), BuildingBlock: XIVTED_clean_linker_0, # of connection points: 2
#     Edge 49, Type (0, 0), BuildingBlock: XIVTED_clean_linker_0, # of connection points: 2
#     Edge 50, Type (0, 0), BuildingBlock: XIVTED_clean_linker_0, # of connection points: 2
#     Edge 51, Type (0, 0), BuildingBlock: XIVTED_clean_linker_0, # of connection points: 2
#     Edge 52, Type (0, 0), BuildingBlock: XIVTED_clean_linker_0, # of connection points: 2
#     Edge 53, Type (0, 0), BuildingBlock: XIVTED_clean_linker_0, # of connection points: 2
#     Edge 54, Type (0, 0), BuildingBlock: XIVTED_clean_linker_0, # of connection points: 2
#     Edge 55, Type (0, 0), BuildingBlock: XIVTED_clean_linker_0, # of connection points: 2
#     Edge 56, Type (0, 0), BuildingBlock: XIVTED_clean_linker_0, # of connection points: 2
#     Edge 57, Type (0, 0), BuildingBlock: XIVTED_clean_linker_0, # of connection points: 2
#     Edge 58, Type (0, 0), BuildingBlock: XIVTED_clean_linker_0, # of connection points: 2
#     Edge 59, Type (0, 0), BuildingBlock: XIVTED_clean_linker_0, # of connection points: 2
#     Edge 60, Type (0, 0), BuildingBlock: XIVTED_clean_linker_0, # of connection points: 2
#     Edge 61, Type (0, 0), BuildingBlock: XIVTED_clean_linker_0, # of connection points: 2
#     Edge 62, Type (0, 0), BuildingBlock: XIVTED_clean_linker_0, # of connection points: 2
#     Edge 63, Type (0, 0), BuildingBlock: XIVTED_clean_linker_0, # of connection points: 2
#     Edge 64, Type (0, 0), BuildingBlock: XIVTED_clean_linker_0, # of connection points: 2
#     Edge 65, Type (0, 0), BuildingBlock: XIVTED_clean_linker_0, # of connection points: 2
#     Edge 66, Type (0, 0), BuildingBlock: XIVTED_clean_linker_0, # of connection points: 2
#     Edge 67, Type (0, 0), BuildingBlock: XIVTED_clean_linker_0, # of connection points: 2
#     Edge 68, Type (0, 0), BuildingBlock: XIVTED_clean_linker_0, # of connection points: 2
#     Edge 69, Type (0, 0), BuildingBlock: XIVTED_clean_linker_0, # of connection points: 2
#     Edge 70, Type (0, 0), BuildingBlock: XIVTED_clean_linker_0, # of connection points: 2
#     Edge 71, Type (0, 0), BuildingBlock: XIVTED_clean_linker_0, # of connection points: 2
#     Edge 72, Type (0, 0), BuildingBlock: XIVTED_clean_linker_0, # of connection points: 2
#     Edge 73, Type (0, 0), BuildingBlock: XIVTED_clean_linker_0, # of connection points: 2
#     Edge 74, Type (0, 0), BuildingBlock: XIVTED_clean_linker_0, # of connection points: 2
#     Edge 75, Type (0, 0), BuildingBlock: XIVTED_clean_linker_0, # of connection points: 2
#     Edge 76, Type (0, 0), BuildingBlock: XIVTED_clean_linker_0, # of connection points: 2
#     Edge 77, Type (0, 0), BuildingBlock: XIVTED_clean_linker_0, # of connection points: 2
#     Edge 78, Type (0, 0), BuildingBlock: XIVTED_clean_linker_0, # of connection points: 2
#     Edge 79, Type (0, 0), BuildingBlock: XIVTED_clean_linker_0, # of connection points: 2
#     Edge 80, Type (0, 0), BuildingBlock: XIVTED_clean_linker_0, # of connection points: 2
#     Edge 81, Type (0, 0), BuildingBlock: XIVTED_clean_linker_0, # of connection points: 2
#     Edge 82, Type (0, 0), BuildingBlock: XIVTED_clean_linker_0, # of connection points: 2
#     Edge 83, Type (0, 0), BuildingBlock: XIVTED_clean_linker_0, # of connection points: 2
#     Edge 84, Type (0, 0), BuildingBlock: XIVTED_clean_linker_0, # of connection points: 2
#     Edge 85, Type (0, 0), BuildingBlock: XIVTED_clean_linker_0, # of connection points: 2
#     Edge 86, Type (0, 0), BuildingBlock: XIVTED_clean_linker_0, # of connection points: 2
#     Edge 87, Type (0, 0), BuildingBlock: XIVTED_clean_linker_0, # of connection points: 2
#     Edge 88, Type (0, 0), BuildingBlock: XIVTED_clean_linker_0, # of connection points: 2
#     Edge 89, Type (0, 0), BuildingBlock: XIVTED_clean_linker_0, # of connection points: 2
#     Edge 90, Type (0, 0), BuildingBlock: XIVTED_clean_linker_0, # of connection points: 2
#     Edge 91, Type (0, 0), BuildingBlock: XIVTED_clean_linker_0, # of connection points: 2
#     Edge 92, Type (0, 0), BuildingBlock: XIVTED_clean_linker_0, # of connection points: 2
#     Edge 93, Type (0, 0), BuildingBlock: XIVTED_clean_linker_0, # of connection points: 2
#     Edge 94, Type (0, 0), BuildingBlock: XIVTED_clean_linker_0, # of connection points: 2
#     Edge 95, Type (0, 0), BuildingBlock: XIVTED_clean_linker_0, # of connection points: 2
#     Edge 96, Type (0, 0), BuildingBlock: XIVTED_clean_linker_0, # of connection points: 2
#     Edge 97, Type (0, 0), BuildingBlock: XIVTED_clean_linker_0, # of connection points: 2
#     Edge 98, Type (0, 0), BuildingBlock: XIVTED_clean_linker_0, # of connection points: 2
#     Edge 99, Type (0, 0), BuildingBlock: XIVTED_clean_linker_0, # of connection points: 2
#     Edge 100, Type (0, 0), BuildingBlock: XIVTED_clean_linker_0, # of connection points: 2
#     Edge 101, Type (0, 0), BuildingBlock: XIVTED_clean_linker_0, # of connection points: 2
#     Edge 102, Type (0, 0), BuildingBlock: XIVTED_clean_linker_0, # of connection points: 2
#     Edge 103, Type (0, 0), BuildingBlock: XIVTED_clean_linker_0, # of connection points: 2
#     Edge 104, Type (0, 0), BuildingBlock: XIVTED_clean_linker_0, # of connection points: 2
#     Edge 105, Type (0, 0), BuildingBlock: XIVTED_clean_linker_0, # of connection points: 2
#     Edge 106, Type (0, 0), BuildingBlock: XIVTED_clean_linker_0, # of connection points: 2
#     Edge 107, Type (0, 0), BuildingBlock: XIVTED_clean_linker_0, # of connection points: 2
#     Edge 108, Type (0, 0), BuildingBlock: XIVTED_clean_linker_0, # of connection points: 2
#     Edge 109, Type (0, 0), BuildingBlock: XIVTED_clean_linker_0, # of connection points: 2
#     Edge 110, Type (0, 0), BuildingBlock: XIVTED_clean_linker_0, # of connection points: 2
#     Edge 111, Type (0, 0), BuildingBlock: XIVTED_clean_linker_0, # of connection points: 2
# Relax obj value: 0.110
# Max RMSD: 0.135
# Mean RMSD: 0.135
data_MOF--net-vcb--node1-XOMCOT_clean_sbu_1--edge1-XIVTED_clean_linker_0
_symmetry_space_group_name_H-M    P1
_symmetry_Int_Tables_number       1
_symmetry_cell_setting            triclinic
loop_
_symmetry_equiv_pos_as_xyz
'x, y, z'
_cell_length_a     68.250526
_cell_length_b     96.74807
_cell_length_c     26.879553
_cell_angle_alpha  90.015828
_cell_angle_beta   89.984256
_cell_angle_gamma 90.023797
loop_
_atom_site_label
_atom_site_type_symbol
_atom_site_fract_x
_atom_site_fract_y
_atom_site_fract_z
_atom_type_partial_charge
C0 C 0.98529 0.06223 0.36151 0.0
C1 C 0.96589 0.06008 0.35097 0.0
N2 N 0.95608 0.07199 0.35831 0.0
N3 N 0.988 0.07541 0.37628 0.0
C4 C 0.96999 0.08127 0.37201 0.0
H5 H 0.99674 0.05455 0.35888 0.0
Co6 Co 1.01303 0.08219 0.39517 0.0
C7 C 0.98833 0.096 0.47948 0.0
O8 O 0.97097 0.09059 0.47164 0.0
N9 N 0.03811 0.08883 0.4143 0.0
C10 C 0.06247 0.0943 0.46574 0.0
C11 C 0.0447 0.0879 0.46162 0.0
C12 C 0.05252 0.09581 0.39001 0.0
N13 N 0.06743 0.09932 0.4209 0.0
O14 O 1.01023 0.09711 0.34956 0.0
H15 H 0.03678 0.08319 0.49206 0.0
H16 H 0.0518 0.09873 0.3512 0.0
O17 O 1.0027 0.09284 0.45119 0.0
C18 C 1.01398 0.09145 0.3077 0.0
O19 O 1.01864 0.07827 0.3069 0.0
N20 N 1.01673 0.06668 0.43497 0.0
C21 C 0.02473 0.04162 0.48114 0.0
C22 C 1.00975 0.05024 0.49907 0.0
C23 C 1.00585 0.06274 0.47511 0.0
C24 C 0.0313 0.05844 0.41713 0.0
C25 C 0.03563 0.04591 0.43978 0.0
H26 H 0.99382 0.06897 0.48801 0.0
H27 H 0.03936 0.06156 0.38433 0.0
H28 H 0.96707 0.09204 0.37976 0.0
H29 H 0.95951 0.05038 0.33911 0.0
H30 H 0.071 0.09542 0.49947 0.0
H31 H 1.00094 0.04727 0.53083 0.0
H32 H 0.04694 0.03943 0.42383 0.0
C33 C 0.28445 0.15451 0.30791 0.0
C34 C 0.30425 0.1531 0.30137 0.0
N35 N 0.31233 0.14918 0.34491 0.0
N36 N 0.27973 0.15138 0.3552 0.0
C37 C 0.29703 0.14812 0.37705 0.0
H38 H 0.2741 0.15784 0.27994 0.0
Co39 Co 0.25381 0.15304 0.37677 0.0
C40 C 0.25267 0.14488 0.48237 0.0
O41 O 0.2405 0.15523 0.48871 0.0
N42 N 0.22672 0.15483 0.39621 0.0
C43 C 0.19725 0.16308 0.41669 0.0
C44 C 0.21663 0.16628 0.40988 0.0
C45 C 0.21277 0.14477 0.39523 0.0
N46 N 0.19473 0.14956 0.40716 0.0
O47 O 0.24772 0.13678 0.33995 0.0
H48 H 0.22264 0.17646 0.41526 0.0
H49 H 0.21571 0.13411 0.38574 0.0
O50 O 0.25949 0.14238 0.43869 0.0
C51 C 0.24016 0.14062 0.29874 0.0
O52 O 0.23494 0.15364 0.29402 0.0
N53 N 0.26061 0.16987 0.4058 0.0
C54 C 0.27167 0.19668 0.43065 0.0
C55 C 0.27806 0.18541 0.45924 0.0
C56 C 0.27274 0.17202 0.44546 0.0
C57 C 0.25568 0.18059 0.37543 0.0
C58 C 0.2606 0.19411 0.38777 0.0
H59 H 0.27897 0.16349 0.46582 0.0
H60 H 0.24741 0.17859 0.34186 0.0
H61 H 0.29843 0.14544 0.41595 0.0
H62 H 0.31202 0.15487 0.26689 0.0
H63 H 0.18578 0.17028 0.42674 0.0
H64 H 0.28747 0.1869 0.49123 0.0
H65 H 0.25551 0.20245 0.36424 0.0
C66 C 1.01357 0.15867 0.9455 0.0
C67 C 0.99364 0.15969 0.9531 0.0
N68 N 0.98479 0.14914 0.92918 0.0
N69 N 1.01729 0.14756 0.91684 0.0
C70 C 0.99953 0.14189 0.908 0.0
H71 H 1.02461 0.1658 0.95874 0.0
Co72 Co 0.04175 0.14216 0.89244 0.0
C73 C 0.0323 0.11974 0.82294 0.0
O74 O 0.04541 0.1118 0.84443 0.0
N75 N 0.0665 0.13677 0.86699 0.0
C76 C 0.09059 0.1337 0.81225 0.0
C77 C 0.07166 0.13806 0.81866 0.0
C78 C 0.08266 0.13143 0.88921 0.0
N79 N 0.09755 0.12954 0.85658 0.0
O80 O 0.04116 0.12695 0.93698 0.0
H81 H 0.06219 0.14193 0.78958 0.0
H82 H 0.08365 0.12915 0.9285 0.0
O83 O 0.02915 0.13185 0.83963 0.0
C84 C 0.0475 0.1318 0.97808 0.0
O85 O 0.05546 0.14418 0.97785 0.0
N86 N 0.04247 0.15793 0.85375 0.0
C87 C 0.04348 0.18418 0.81252 0.0
C88 C 0.02975 0.17441 0.79587 0.0
C89 C 0.02937 0.16128 0.81738 0.0
C90 C 0.05615 0.16717 0.86954 0.0
C91 C 0.05703 0.18034 0.84914 0.0
H92 H 1.01806 0.15409 0.80637 0.0
H93 H 0.06607 0.16437 0.89924 0.0
H94 H 0.99743 0.13266 0.88594 0.0
H95 H 0.98625 0.1679 0.97297 0.0
H96 H 0.09853 0.1334 0.77741 0.0
H97 H 1.01885 0.17709 0.76823 0.0
H98 H 0.06795 0.18755 0.86265 0.0
C99 C 0.32064 0.08847 0.95784 0.0
C100 C 0.34032 0.09108 0.95733 0.0
N101 N 0.34604 0.0929 0.9099 0.0
N102 N 0.31354 0.08875 0.91102 0.0
C103 C 0.3295 0.09138 0.88231 0.0
H104 H 0.31228 0.08592 0.99064 0.0
Co105 Co 0.2872 0.08426 0.89795 0.0
C106 C 0.27789 0.09302 0.79584 0.0
O107 O 0.26824 0.08131 0.79212 0.0
N108 N 0.26023 0.07973 0.88762 0.0
C109 C 0.23075 0.06977 0.88858 0.0
C110 C 0.25063 0.06753 0.89113 0.0
C111 C 0.24567 0.08919 0.883 0.0
N112 N 0.22764 0.08343 0.88369 0.0
O113 O 0.27887 0.09911 0.94059 0.0
H114 H 0.25728 0.05758 0.89737 0.0
H115 H 0.24829 0.10022 0.88148 0.0
O116 O 0.28675 0.09605 0.83672 0.0
C117 C 0.27453 0.09295 0.98125 0.0
O118 O 0.27604 0.07941 0.98279 0.0
N119 N 0.29576 0.06867 0.86302 0.0
C120 C 0.30294 0.0426 0.82475 0.0
C121 C 0.30705 0.05436 0.79613 0.0
C122 C 0.30383 0.06745 0.81665 0.0
C123 C 0.2948 0.05745 0.8934 0.0
C124 C 0.29791 0.04426 0.87482 0.0
H125 H 0.30728 0.07644 0.79461 0.0
H126 H 0.2903 0.0587 0.93168 0.0
H127 H 0.32911 0.09186 0.84212 0.0
H128 H 0.34989 0.09088 0.98943 0.0
H129 H 0.21947 0.06194 0.89114 0.0
H130 H 0.3118 0.05347 0.75781 0.0
H131 H 0.29558 0.03542 0.89885 0.0
C132 C 0.0673 0.90126 0.69663 0.0
C133 C 0.08725 0.9003 0.70095 0.0
N134 N 0.09458 0.8956 0.65763 0.0
N135 N 0.06176 0.89709 0.65093 0.0
C136 C 0.07877 0.89379 0.62763 0.0
H137 H 0.05745 0.90512 0.72487 0.0
Co138 Co 0.03531 0.89765 0.63224 0.0
C139 C 0.03452 0.89195 0.52451 0.0
O140 O 1.02418 0.90327 0.51921 0.0
N141 N 1.00777 0.89822 0.61454 0.0
C142 C 0.97807 0.90443 0.58711 0.0
C143 C 0.997 0.9087 0.59512 0.0
C144 C 0.9946 0.88769 0.61819 0.0
N145 N 0.97656 0.89125 0.60197 0.0
O146 O 0.03143 0.88038 0.66501 0.0
H147 H 1.00243 0.91879 0.58506 0.0
H148 H 0.99812 0.87743 0.63137 0.0
O149 O 0.04073 0.88839 0.56774 0.0
C150 C 0.02525 0.8838 0.70811 0.0
O151 O 1.02177 0.89689 0.71754 0.0
N152 N 0.03957 0.9154 0.60811 0.0
C153 C 0.04196 0.94342 0.58777 0.0
C154 C 0.0522 0.93387 0.55818 0.0
C155 C 0.05125 0.91979 0.56996 0.0
C156 C 0.03185 0.92469 0.64068 0.0
C157 C 0.03253 0.93874 0.63078 0.0
H158 H 0.05946 0.91247 0.5479 0.0
H159 H 1.02417 0.92108 0.67335 0.0
H160 H 0.07958 0.89026 0.58947 0.0
H161 H 0.09577 0.90335 0.7331 0.0
H162 H 0.96628 0.91056 0.57162 0.0
H163 H 0.06029 0.93719 0.52563 0.0
H164 H 0.02527 0.94584 0.6559 0.0
C165 C 0.76461 0.8227 0.69231 0.0
C166 C 0.74478 0.82328 0.70006 0.0
N167 N 0.73623 0.82905 0.65984 0.0
N168 N 0.76889 0.82817 0.64762 0.0
C169 C 0.75132 0.83199 0.62856 0.0
H170 H 0.7753 0.81842 0.71766 0.0
Co171 Co 0.79475 0.8287 0.62459 0.0
C172 C 0.79271 0.83747 0.51977 0.0
O173 O 0.80509 0.82745 0.51032 0.0
N174 N 0.82183 0.82924 0.60307 0.0
C175 C 0.85143 0.82417 0.57209 0.0
C176 C 0.83276 0.81938 0.58016 0.0
C177 C 0.83468 0.83989 0.60889 0.0
N178 N 0.85265 0.83701 0.59054 0.0
O179 O 0.79856 0.84495 0.66329 0.0
H180 H 0.82762 0.80941 0.56797 0.0
H181 H 0.831 0.8497 0.62572 0.0
O182 O 0.78695 0.83955 0.56468 0.0
C183 C 0.80581 0.84101 0.70472 0.0
O184 O 0.81201 0.82818 0.70834 0.0
N185 N 0.79026 0.81177 0.59357 0.0
C186 C 0.78213 0.78471 0.56541 0.0
C187 C 0.7727 0.79582 0.542 0.0
C188 C 0.77662 0.80929 0.55748 0.0
C189 C 0.79844 0.80106 0.61906 0.0
C190 C 0.79498 0.78745 0.60483 0.0
H191 H 0.76817 0.8176 0.54152 0.0
H192 H 0.80795 0.80317 0.65035 0.0
H193 H 0.74964 0.83654 0.59207 0.0
H194 H 0.73737 0.81967 0.73316 0.0
H195 H 0.8633 0.81859 0.55443 0.0
H196 H 0.76194 0.79411 0.51303 0.0
H197 H 0.80239 0.77918 0.6244 0.0
C198 C 0.03332 0.82507 0.04855 0.0
C199 C 0.05329 0.8257 0.04308 0.0
N200 N 0.06115 0.83063 0.08558 0.0
N201 N 0.02839 0.82965 0.09412 0.0
C202 C 0.04563 0.83297 0.11601 0.0
H203 H 1.02296 0.82156 0.02087 0.0
Co204 Co 1.00238 0.8305 0.11462 0.0
C205 C 1.00235 0.84089 0.21798 0.0
O206 O 0.98779 0.83237 0.22692 0.0
N207 N 0.9752 0.8313 0.13354 0.0
C208 C 0.94456 0.82559 0.154 0.0
C209 C 0.96335 0.82086 0.14853 0.0
C210 C 0.96296 0.84237 0.13096 0.0
N211 N 0.94421 0.8391 0.14251 0.0
O212 O 0.99944 0.84661 0.07474 0.0
H213 H 0.9677 0.81036 0.15565 0.0
H214 H 0.96754 0.85255 0.11909 0.0
O215 O 1.00976 0.84148 0.17416 0.0
C216 C 0.99124 0.84301 0.03405 0.0
O217 O 0.98335 0.83064 0.03131 0.0
N218 N 1.00594 0.81367 0.14687 0.0
C219 C 1.00894 0.78648 0.17888 0.0
C220 C 1.01687 0.79725 0.20744 0.0
C221 C 1.01573 0.81082 0.18998 0.0
C222 C 0.99993 0.8032 0.11662 0.0
C223 C 1.00091 0.78953 0.13226 0.0
H224 H 1.02296 0.81885 0.21084 0.0
H225 H 0.99351 0.8056 0.08087 0.0
H226 H 0.04676 0.83684 0.15365 0.0
H227 H 0.06129 0.82289 0.00985 0.0
H228 H 0.93206 0.81948 0.16548 0.0
H229 H 1.02407 0.79519 0.24256 0.0
H230 H 0.99487 0.78151 0.1087 0.0
C231 C 0.73074 0.89775 0.04463 0.0
C232 C 0.71096 0.89535 0.04359 0.0
N233 N 0.70501 0.89221 0.08993 0.0
N234 N 0.73755 0.896 0.0913 0.0
C235 C 0.72142 0.89269 0.11836 0.0
H236 H 0.73945 0.90103 0.01326 0.0
Co237 Co 0.76395 0.89934 0.10693 0.0
C238 C 0.77057 0.89041 0.20973 0.0
O239 O 0.7806 0.90193 0.21462 0.0
N240 N 0.7911 0.9026 0.12022 0.0
C241 C 0.82151 0.9109 0.1258 0.0
C242 C 0.80204 0.91426 0.11986 0.0
C243 C 0.80442 0.89235 0.12624 0.0
N244 N 0.82304 0.89706 0.12953 0.0
O245 O 0.77144 0.88418 0.06492 0.0
H246 H 0.79667 0.92459 0.11382 0.0
H247 H 0.80042 0.88154 0.12748 0.0
O248 O 0.76248 0.88751 0.16774 0.0
C249 C 0.77673 0.88998 0.02431 0.0
O250 O 0.7768 0.90356 0.02241 0.0
N251 N 0.75613 0.9152 0.14139 0.0
C252 C 0.74626 0.94114 0.17797 0.0
C253 C 0.74135 0.92919 0.20475 0.0
C254 C 0.7459 0.91623 0.185 0.0
C255 C 0.75897 0.92661 0.11273 0.0
C256 C 0.75459 0.93971 0.13065 0.0
H257 H 0.74122 0.90715 0.205 0.0
H258 H 0.76531 0.92553 0.07607 0.0
H259 H 0.72162 0.89088 0.15807 0.0
H260 H 0.70151 0.8965 0.01151 0.0
H261 H 0.83363 0.9181 0.12514 0.0
H262 H 0.73407 0.92986 0.24048 0.0
H263 H 0.75835 0.94862 0.10824 0.0
C264 C 1.01267 0.57249 0.81082 0.0
C265 C 0.99274 0.57434 0.80914 0.0
N266 N 0.98678 0.57914 0.85363 0.0
N267 N 1.01941 0.57623 0.85596 0.0
C268 C 1.00322 0.58015 0.88159 0.0
H269 H 1.02171 0.56861 0.7809 0.0
Co270 Co 0.0461 0.5756 0.87126 0.0
C271 C 0.05015 0.5848 0.97488 0.0
O272 O 0.06311 0.57488 0.97988 0.0
N273 N 0.07375 0.57512 0.88476 0.0
C274 C 0.10488 0.56913 0.89789 0.0
C275 C 0.086 0.56438 0.89306 0.0
C276 C 0.08581 0.58629 0.88501 0.0
N277 N 0.10488 0.58297 0.89245 0.0
O278 O 0.04979 0.59167 0.83082 0.0
H279 H 0.08188 0.55366 0.89578 0.0
H280 H 0.08062 0.5967 0.87884 0.0
O281 O 0.04187 0.58671 0.93252 0.0
C282 C 0.05579 0.58738 0.78851 0.0
O283 O 0.06035 0.57423 0.78407 0.0
N284 N 0.04161 0.55886 0.90419 0.0
C285 C 0.03224 0.53203 0.93377 0.0
C286 C 0.02612 0.54344 0.96204 0.0
C287 C 0.03055 0.55681 0.94596 0.0
C288 C 0.04653 0.54793 0.87481 0.0
C289 C 0.04248 0.53443 0.88942 0.0
H290 H 1.0243 0.56539 0.96604 0.0
H291 H 0.05379 0.54975 0.83963 0.0
H292 H 1.00346 0.58377 0.91968 0.0
H293 H 0.98328 0.57204 0.77789 0.0
H294 H 0.11757 0.56274 0.90488 0.0
H295 H 1.01736 0.54208 0.99528 0.0
H296 H 0.04732 0.52598 0.86604 0.0
C297 C 0.31462 0.66406 0.81841 0.0
C298 C 0.33446 0.66238 0.81457 0.0
N299 N 0.34013 0.65273 0.84761 0.0
N300 N 0.30751 0.65553 0.8537 0.0
C301 C 0.32347 0.64876 0.87128 0.0
H302 H 0.30586 0.67113 0.79663 0.0
Co303 Co 0.28048 0.65491 0.86583 0.0
C304 C 0.27469 0.64516 0.96784 0.0
O305 O 0.26109 0.6547 0.97143 0.0
N306 N 0.25256 0.65432 0.87556 0.0
C307 C 0.22098 0.65952 0.88563 0.0
C308 C 0.23957 0.66475 0.8816 0.0
C309 C 0.24114 0.64279 0.87589 0.0
N310 N 0.22182 0.64566 0.88174 0.0
O311 O 0.27856 0.63898 0.82468 0.0
H312 H 0.24292 0.67559 0.88369 0.0
H313 H 0.24694 0.63247 0.87135 0.0
O314 O 0.28424 0.64372 0.92698 0.0
C315 C 0.2753 0.6443 0.78205 0.0
O316 O 0.27322 0.65777 0.77883 0.0
N317 N 0.28292 0.67161 0.89992 0.0
C318 C 0.28348 0.69836 0.93655 0.0
C319 C 0.29119 0.68749 0.96494 0.0
C320 C 0.29146 0.67415 0.94499 0.0
C321 C 0.27783 0.68233 0.8698 0.0
C322 C 0.27759 0.69577 0.88762 0.0
H323 H 0.29832 0.66598 0.96599 0.0
H324 H 0.27273 0.68029 0.83245 0.0
H325 H 0.32288 0.64097 0.90011 0.0
H326 H 0.34406 0.66805 0.78982 0.0
H327 H 0.20789 0.66559 0.89162 0.0
H328 H 0.29679 0.68927 0.00209 0.0
H329 H 0.27185 0.70391 0.86409 0.0
C330 C 0.98834 0.64683 0.44706 0.0
C331 C 0.96846 0.64483 0.44619 0.0
N332 N 0.96298 0.64233 0.39896 0.0
N333 N 0.99563 0.64546 0.4007 0.0
C334 C 0.97974 0.64275 0.37196 0.0
H335 H 0.99679 0.64963 0.47947 0.0
Co336 Co 1.02209 0.64872 0.38622 0.0
C337 C 0.02941 0.63879 0.28459 0.0
O338 O 0.0396 0.65016 0.27809 0.0
N339 N 0.0493 0.65199 0.37339 0.0
C340 C 0.07885 0.66064 0.35557 0.0
C341 C 0.05932 0.6637 0.36237 0.0
C342 C 0.0633 0.64204 0.3737 0.0
N343 N 0.08126 0.64703 0.36311 0.0
O344 O 0.02921 0.63373 0.4295 0.0
H345 H 0.05313 0.67388 0.35848 0.0
H346 H 0.06037 0.63122 0.38058 0.0
O347 O 1.02097 0.63648 0.32656 0.0
C348 C 0.03441 0.63933 0.47052 0.0
O349 O 0.03486 0.6529 0.47294 0.0
N350 N 1.0145 0.66441 0.35053 0.0
C351 C 1.00479 0.6903 0.31328 0.0
C352 C 1.00068 0.67834 0.28572 0.0
C353 C 1.00517 0.6654 0.30568 0.0
C354 C 1.0167 0.67582 0.37962 0.0
C355 C 1.01234 0.6889 0.36144 0.0
H356 H 1.00109 0.65632 0.28489 0.0
H357 H 1.02275 0.67477 0.4166 0.0
H358 H 0.98035 0.64137 0.33207 0.0
H359 H 0.95865 0.64583 0.47764 0.0
H360 H 0.09041 0.66786 0.34643 0.0
H361 H 0.99402 0.67898 0.24921 0.0
H362 H 1.01557 0.69784 0.3843 0.0
C363 C 0.29212 0.57565 0.44786 0.0
C364 C 0.31196 0.5765 0.45586 0.0
N365 N 0.32001 0.58399 0.41883 0.0
N366 N 0.28752 0.58256 0.406 0.0
C367 C 0.3048 0.58757 0.38906 0.0
H368 H 0.28167 0.57012 0.47066 0.0
Co369 Co 0.26191 0.58348 0.38207 0.0
C370 C 0.26543 0.5921 0.27757 0.0
O371 O 0.25369 0.58182 0.26654 0.0
N372 N 0.2351 0.58451 0.35906 0.0
C373 C 0.20577 0.58041 0.32469 0.0
C374 C 0.22416 0.57518 0.33346 0.0
C375 C 0.22258 0.59529 0.36564 0.0
N376 N 0.2048 0.593 0.34531 0.0
O377 O 0.25842 0.59963 0.42061 0.0
H378 H 0.22913 0.56529 0.31995 0.0
H379 H 0.22633 0.60481 0.38441 0.0
O380 O 0.27033 0.59429 0.32299 0.0
C381 C 0.25099 0.59549 0.46153 0.0
O382 O 0.24478 0.58264 0.4643 0.0
N383 N 0.26605 0.56658 0.35123 0.0
C384 C 0.27263 0.53948 0.32211 0.0
C385 C 0.28341 0.5503 0.30076 0.0
C386 C 0.28028 0.5638 0.31692 0.0
C387 C 0.25673 0.55608 0.37528 0.0
C388 C 0.25943 0.54245 0.36053 0.0
H389 H 0.28953 0.57192 0.30251 0.0
H390 H 0.2468 0.55839 0.40553 0.0
H391 H 0.30621 0.59361 0.35542 0.0
H392 H 0.31988 0.57155 0.48582 0.0
H393 H 0.19392 0.5753 0.30518 0.0
H394 H 0.29438 0.54831 0.27253 0.0
H395 H 0.251 0.53438 0.37845 0.0
C396 C 0.03457 0.40082 0.18504 0.0
C397 C 0.05469 0.40135 0.18848 0.0
N398 N 0.06228 0.39594 0.14654 0.0
N399 N 0.02948 0.39495 0.1414 0.0
C400 C 0.04673 0.39217 0.11868 0.0
H401 H 1.02432 0.4046 0.21252 0.0
Co402 Co 1.00388 0.39173 0.11928 0.0
C403 C 1.00821 0.36933 0.04589 0.0
O404 O 0.99423 0.36228 0.06793 0.0
N405 N 0.97795 0.38853 0.09619 0.0
C406 C 0.95245 0.38751 0.04456 0.0
C407 C 0.97155 0.39165 0.04993 0.0
C408 C 0.96233 0.38233 0.11803 0.0
N409 N 0.94663 0.3816 0.08737 0.0
O410 O 1.00274 0.37609 0.16263 0.0
H411 H 0.98039 0.39629 0.02104 0.0
H412 H 0.96241 0.37823 0.15539 0.0
O413 O 1.01371 0.38088 0.06395 0.0
C414 C 0.9965 0.38047 0.20459 0.0
O415 O 0.98932 0.39306 0.20675 0.0
N416 N 1.00514 0.4079 0.08245 0.0
C417 C 1.00803 0.43461 0.04528 0.0
C418 C 1.01833 0.42373 0.02269 0.0
C419 C 1.01681 0.41038 0.04216 0.0
C420 C 0.99464 0.41825 0.10391 0.0
C421 C 0.99577 0.43169 0.08576 0.0
H422 H 0.02553 0.40223 0.02597 0.0
H423 H 0.98575 0.41608 0.1363 0.0
H424 H 0.04799 0.38744 0.08242 0.0
H425 H 0.06308 0.4057 0.21887 0.0
H426 H 0.94377 0.38829 0.01098 0.0
H427 H 0.02815 0.42562 0.99176 0.0
H428 H 0.98741 0.43976 0.1039 0.0
C429 C 0.72643 0.32957 0.18543 0.0
C430 C 0.70676 0.33219 0.1855 0.0
N431 N 0.70146 0.33619 0.13952 0.0
N432 N 0.73386 0.33202 0.1398 0.0
C433 C 0.71817 0.33592 0.11218 0.0
H434 H 0.73464 0.32567 0.21672 0.0
Co435 Co 0.7604 0.32881 0.12682 0.0
C436 C 0.76886 0.33789 0.02475 0.0
O437 O 0.77941 0.32658 0.02093 0.0
N438 N 0.78771 0.32557 0.11657 0.0
C439 C 0.81806 0.31705 0.11644 0.0
C440 C 0.79846 0.31386 0.11959 0.0
C441 C 0.8013 0.33572 0.11175 0.0
N442 N 0.81984 0.33084 0.11172 0.0
O443 O 0.76715 0.34401 0.16907 0.0
H444 H 0.79282 0.3036 0.12567 0.0
H445 H 0.79762 0.34659 0.11039 0.0
O446 O 0.75983 0.34058 0.06568 0.0
C447 C 0.77154 0.33812 0.21015 0.0
O448 O 0.77143 0.32454 0.21201 0.0
N449 N 0.75328 0.3129 0.092 0.0
C450 C 0.74865 0.28673 0.05222 0.0
C451 C 0.74322 0.29841 0.02454 0.0
C452 C 0.74499 0.31151 0.046 0.0
C453 C 0.75545 0.30163 0.1217 0.0
C454 C 0.75363 0.2884 0.10237 0.0
H455 H 0.74037 0.32041 0.02491 0.0
H456 H 0.76008 0.30294 0.15986 0.0
H457 H 0.71892 0.3383 0.07288 0.0
H458 H 0.69692 0.33064 0.21661 0.0
H459 H 0.83007 0.30977 0.11834 0.0
H460 H 0.73832 0.29745 0.98637 0.0
H461 H 0.75754 0.27968 0.12557 0.0
C462 C 0.06604 0.31034 0.57669 0.0
C463 C 0.08575 0.31145 0.56759 0.0
N464 N 0.09156 0.32419 0.58111 0.0
N465 N 0.05932 0.32225 0.59659 0.0
C466 C 0.07519 0.33066 0.59735 0.0
H467 H 0.05717 0.30128 0.5699 0.0
Co468 Co 0.03275 0.32457 0.61431 0.0
C469 C 0.05119 0.34054 0.70394 0.0
O470 O 0.06981 0.33761 0.69818 0.0
N471 N 1.006 0.32674 0.63187 0.0
C472 C 0.97868 0.32621 0.67725 0.0
C473 C 0.99798 0.32239 0.67517 0.0
C474 C 0.99115 0.33346 0.60866 0.0
N475 N 0.97437 0.33322 0.63553 0.0
O476 O 0.03116 0.34022 0.57089 0.0
H477 H 1.0058 0.31717 0.70464 0.0
H478 H 0.9926 0.33867 0.57327 0.0
O479 O 0.03848 0.33586 0.67327 0.0
C480 C 0.02917 0.33467 0.52798 0.0
O481 O 0.02832 0.32112 0.52518 0.0
N482 N 0.03397 0.30826 0.65096 0.0
C483 C 0.036 0.28155 0.68841 0.0
C484 C 0.04715 0.29219 0.70979 0.0
C485 C 0.04604 0.30553 0.69018 0.0
C486 C 1.02297 0.29806 0.63002 0.0
C487 C 1.02359 0.28466 0.64847 0.0
H488 H 0.05549 0.31338 0.70518 0.0
H489 H 1.01393 0.30034 0.59801 0.0
H490 H 0.07483 0.34134 0.60922 0.0
H491 H 0.09526 0.30332 0.55411 0.0
H492 H 0.96884 0.32457 0.7083 0.0
H493 H 0.05722 0.29014 0.74003 0.0
H494 H 1.0146 0.27678 0.63118 0.0
C495 C 0.76535 0.40388 0.53984 0.0
C496 C 0.74559 0.40318 0.53128 0.0
N497 N 0.73696 0.39717 0.57088 0.0
N498 N 0.76941 0.39828 0.58448 0.0
C499 C 0.75182 0.39422 0.60269 0.0
H500 H 0.77617 0.40827 0.51508 0.0
Co501 Co 0.79511 0.39786 0.60721 0.0
C502 C 0.79424 0.38893 0.71168 0.0
O503 O 0.80738 0.39859 0.71975 0.0
N504 N 0.82212 0.39752 0.62778 0.0
C505 C 0.85288 0.40337 0.6469 0.0
C506 C 0.83394 0.40799 0.64276 0.0
C507 C 0.83447 0.38655 0.62439 0.0
N508 N 0.85325 0.38991 0.63482 0.0
O509 O 0.79896 0.38163 0.56886 0.0
H510 H 0.8295 0.41845 0.65041 0.0
H511 H 0.83 0.37637 0.61227 0.0
O512 O 0.78761 0.38708 0.66744 0.0
C513 C 0.80667 0.38535 0.52772 0.0
O514 O 0.81335 0.39806 0.52391 0.0
N515 N 0.7905 0.41472 0.63812 0.0
C516 C 0.78248 0.44174 0.66629 0.0
C517 C 0.77385 0.43063 0.69165 0.0
C518 C 0.77766 0.41716 0.67611 0.0
C519 C 0.79755 0.42542 0.61048 0.0
C520 C 0.79419 0.43902 0.62465 0.0
H521 H 0.76975 0.40882 0.69361 0.0
H522 H 0.80624 0.4233 0.57768 0.0
H523 H 0.74994 0.38949 0.63884 0.0
H524 H 0.73825 0.40675 0.49805 0.0
H525 H 0.86545 0.40952 0.65755 0.0
H526 H 0.7639 0.43235 0.72243 0.0
H527 H 0.80095 0.44728 0.60354 0.0
C528 C 0.515 0.07063 0.82449 0.0
C529 C 0.49519 0.07197 0.81781 0.0
N530 N 0.48846 0.08168 0.84947 0.0
N531 N 0.52098 0.07937 0.86039 0.0
C532 C 0.50449 0.08601 0.87509 0.0
H533 H 0.52454 0.06365 0.80449 0.0
Co534 Co 0.54745 0.08033 0.87762 0.0
C535 C 0.54966 0.09048 0.98018 0.0
O536 O 0.56384 0.08148 0.9862 0.0
N537 N 0.57504 0.08123 0.89247 0.0
C538 C 0.60632 0.07618 0.90856 0.0
C539 C 0.58761 0.07108 0.90617 0.0
C540 C 0.58681 0.09249 0.88746 0.0
N541 N 0.6059 0.08964 0.89637 0.0
O542 O 0.54991 0.09603 0.83598 0.0
H543 H 0.58385 0.06056 0.91483 0.0
H544 H 0.5816 0.10255 0.87595 0.0
O545 O 0.54148 0.0917 0.93736 0.0
C546 C 0.55549 0.09114 0.79423 0.0
O547 O 0.55999 0.07794 0.79178 0.0
N548 N 0.54421 0.06388 0.91245 0.0
C549 C 0.53715 0.0373 0.94684 0.0
C550 C 0.52922 0.04872 0.97174 0.0
C551 C 0.53244 0.06196 0.95301 0.0
C552 C 0.55076 0.05281 0.88595 0.0
C553 C 0.54788 0.03944 0.90313 0.0
H554 H 0.52475 0.07048 0.96995 0.0
H555 H 0.55851 0.05445 0.85134 0.0
H556 H 0.50429 0.09392 0.90353 0.0
H557 H 0.4864 0.06599 0.79214 0.0
H558 H 0.61927 0.07036 0.91867 0.0
H559 H 0.51998 0.0474 0.00417 0.0
H560 H 0.55397 0.03087 0.88231 0.0
C561 C 0.81975 0.15275 0.79329 0.0
C562 C 0.83949 0.15041 0.79677 0.0
N563 N 0.84367 0.14695 0.84403 0.0
N564 N 0.81129 0.15062 0.83797 0.0
C565 C 0.82634 0.14722 0.86853 0.0
H566 H 0.81217 0.15607 0.76015 0.0
Co567 Co 0.78441 0.15304 0.848 0.0
C568 C 0.77559 0.14367 0.94942 0.0
O569 O 0.76435 0.15464 0.95327 0.0
N570 N 0.75681 0.15537 0.85606 0.0
C571 C 0.72586 0.16271 0.8573 0.0
C572 C 0.74516 0.16663 0.85256 0.0
C573 C 0.74407 0.14476 0.86212 0.0
N574 N 0.72516 0.14891 0.86323 0.0
O575 O 0.77919 0.13759 0.80553 0.0
H576 H 0.74998 0.17705 0.84547 0.0
H577 H 0.74872 0.13412 0.86569 0.0
O578 O 0.785 0.14135 0.90884 0.0
C579 C 0.77522 0.14317 0.76364 0.0
O580 O 0.7749 0.15673 0.76085 0.0
N581 N 0.78997 0.1692 0.88319 0.0
C582 C 0.79262 0.19556 0.92262 0.0
C583 C 0.79849 0.1841 0.95089 0.0
C584 C 0.79771 0.17092 0.92966 0.0
C585 C 0.78725 0.18034 0.85319 0.0
C586 C 0.78807 0.19365 0.87232 0.0
H587 H 0.80269 0.16221 0.95126 0.0
H588 H 0.78304 0.17883 0.81481 0.0
H589 H 0.82468 0.14501 0.90777 0.0
H590 H 0.85009 0.15159 0.76709 0.0
H591 H 0.71331 0.16951 0.85477 0.0
H592 H 0.80306 0.18527 0.98925 0.0
H593 H 0.78384 0.20221 0.84871 0.0
C594 C 0.48167 0.14515 0.46096 0.0
C595 C 0.46191 0.14269 0.46342 0.0
N596 N 0.45523 0.14046 0.41703 0.0
N597 N 0.48775 0.14436 0.41328 0.0
C598 C 0.47122 0.14145 0.38724 0.0
H599 H 0.49082 0.14799 0.49209 0.0
Co600 Co 0.51358 0.14892 0.39497 0.0
C601 C 0.51951 0.14035 0.29178 0.0
O602 O 0.52814 0.15238 0.28572 0.0
N603 N 0.54019 0.15343 0.37892 0.0
C604 C 0.56978 0.16308 0.37219 0.0
C605 C 0.55015 0.16551 0.38054 0.0
C606 C 0.55427 0.14386 0.36971 0.0
N607 N 0.57235 0.14943 0.36543 0.0
O608 O 0.52311 0.1342 0.43556 0.0
H609 H 0.544 0.17549 0.38901 0.0
H610 H 0.55134 0.13287 0.36811 0.0
O611 O 0.51234 0.13706 0.33443 0.0
C612 C 0.52896 0.14021 0.47521 0.0
O613 O 0.52783 0.15376 0.47743 0.0
N614 N 0.50376 0.16436 0.36146 0.0
C615 C 0.4917 0.18968 0.32428 0.0
C616 C 0.48717 0.17746 0.29877 0.0
C617 C 0.49291 0.16481 0.31873 0.0
C618 C 0.50596 0.17595 0.38954 0.0
C619 C 0.50045 0.1888 0.37125 0.0
H620 H 0.48885 0.15553 0.29916 0.0
H621 H 0.51275 0.17526 0.42577 0.0
H622 H 0.47074 0.14042 0.34723 0.0
H623 H 0.45295 0.14336 0.49657 0.0
H624 H 0.58128 0.17079 0.37188 0.0
H625 H 0.47959 0.1777 0.26338 0.0
H626 H 0.50391 0.19795 0.39271 0.0
C627 C 0.78262 0.07591 0.42777 0.0
C628 C 0.80255 0.07457 0.4316 0.0
N629 N 0.81071 0.07891 0.38878 0.0
N630 N 0.77803 0.08104 0.38269 0.0
C631 C 0.79553 0.08285 0.35954 0.0
H632 H 0.77202 0.07285 0.45557 0.0
Co633 Co 0.75177 0.08257 0.36388 0.0
C634 C 0.75108 0.0922 0.26007 0.0
O635 O 0.73641 0.08366 0.25273 0.0
N636 N 0.72442 0.08405 0.34684 0.0
C637 C 0.69334 0.07925 0.32773 0.0
C638 C 0.71169 0.07386 0.33468 0.0
C639 C 0.71309 0.09562 0.34698 0.0
N640 N 0.69411 0.09296 0.33554 0.0
O641 O 0.74999 0.09898 0.40258 0.0
H642 H 0.71509 0.06306 0.33058 0.0
H643 H 0.71864 0.10583 0.35539 0.0
O644 O 0.759 0.09304 0.30325 0.0
C645 C 0.74248 0.09556 0.44432 0.0
O646 O 0.73498 0.0831 0.44872 0.0
N647 N 0.75407 0.06547 0.3326 0.0
C648 C 0.75503 0.03809 0.30192 0.0
C649 C 0.76347 0.04847 0.27244 0.0
C650 C 0.76337 0.06213 0.28925 0.0
C651 C 0.74776 0.05532 0.36384 0.0
C652 C 0.74768 0.04158 0.34888 0.0
H653 H 0.77096 0.06983 0.26761 0.0
H654 H 0.74183 0.05807 0.39984 0.0
H655 H 0.79708 0.08629 0.32143 0.0
H656 H 0.81047 0.07039 0.46309 0.0
H657 H 0.6803 0.07338 0.31891 0.0
H658 H 0.77023 0.04603 0.23705 0.0
H659 H 0.74132 0.03387 0.3732 0.0
C660 C 0.53339 0.90129 0.19371 0.0
C661 C 0.55326 0.90058 0.20054 0.0
N662 N 0.56158 0.89581 0.15838 0.0
N663 N 0.52887 0.89687 0.14766 0.0
C664 C 0.54635 0.89356 0.12683 0.0
H665 H 0.52284 0.90495 0.22064 0.0
Co666 Co 0.5029 0.89701 0.12564 0.0
C667 C 0.50287 0.8878 0.02163 0.0
O668 O 0.48975 0.89747 0.01378 0.0
N669 N 0.47577 0.89719 0.10559 0.0
C670 C 0.44556 0.90338 0.08304 0.0
C671 C 0.46444 0.90783 0.09002 0.0
C672 C 0.46312 0.88635 0.10731 0.0
N673 N 0.44456 0.88985 0.09445 0.0
O674 O 0.49836 0.88094 0.16437 0.0
H675 H 0.46926 0.91824 0.08305 0.0
H676 H 0.46738 0.87611 0.11902 0.0
O677 O 0.50974 0.88601 0.06565 0.0
C678 C 0.49073 0.88497 0.20524 0.0
O679 O 0.48488 0.89788 0.20864 0.0
N680 N 0.50811 0.91369 0.09413 0.0
C681 C 0.51657 0.94044 0.06387 0.0
C682 C 0.52443 0.92912 0.03822 0.0
C683 C 0.52046 0.91578 0.05484 0.0
C684 C 0.50177 0.9246 0.12183 0.0
C685 C 0.50541 0.93809 0.10673 0.0
H686 H 0.52785 0.90729 0.03695 0.0
H687 H 0.49341 0.92273 0.15537 0.0
H688 H 0.54787 0.88992 0.08898 0.0
H689 H 0.56087 0.90339 0.23433 0.0
H690 H 0.43357 0.90977 0.07043 0.0
H691 H 0.53399 0.93057 0.00646 0.0
H692 H 0.49934 0.94656 0.12809 0.0
C693 C 0.2291 0.83455 0.20961 0.0
C694 C 0.20924 0.83658 0.20938 0.0
N695 N 0.20348 0.83874 0.16217 0.0
N696 N 0.23612 0.83557 0.16283 0.0
C697 C 0.22007 0.83809 0.13454 0.0
H698 H 0.2377 0.83195 0.24196 0.0
Co699 Co 0.26249 0.83217 0.14738 0.0
C700 C 0.26932 0.84153 0.04506 0.0
O701 O 0.27938 0.83007 0.03914 0.0
N702 N 0.28959 0.82883 0.13384 0.0
C703 C 0.31964 0.82024 0.1238 0.0
C704 C 0.30022 0.81706 0.13175 0.0
C705 C 0.30306 0.83898 0.12754 0.0
N706 N 0.32146 0.83409 0.12121 0.0
O707 O 0.27008 0.84718 0.18964 0.0
H708 H 0.29461 0.80672 0.13631 0.0
H709 H 0.29937 0.84985 0.12854 0.0
O710 O 0.26112 0.84416 0.08711 0.0
C711 C 0.27524 0.84121 0.22999 0.0
O712 O 0.2751 0.82763 0.23137 0.0
N713 N 0.25462 0.8164 0.11266 0.0
C714 C 0.24753 0.79031 0.07421 0.0
C715 C 0.24229 0.80211 0.04702 0.0
C716 C 0.24541 0.81516 0.06773 0.0
C717 C 0.25708 0.80508 0.142 0.0
C718 C 0.25401 0.79189 0.12327 0.0
H719 H 0.24089 0.82413 0.04689 0.0
H720 H 0.2627 0.80629 0.17933 0.0
H721 H 0.22043 0.83915 0.0945 0.0
H722 H 0.19961 0.83578 0.24128 0.0
H723 H 0.33145 0.81285 0.12027 0.0
H724 H 0.23639 0.80126 0.00975 0.0
H725 H 0.25794 0.78307 0.14598 0.0
C726 C 0.56721 0.82955 0.5438 0.0
C727 C 0.58702 0.83182 0.54245 0.0
N728 N 0.59312 0.83489 0.58872 0.0
N729 N 0.56053 0.83132 0.59061 0.0
C730 C 0.57678 0.83451 0.61741 0.0
H731 H 0.55839 0.82637 0.51252 0.0
Co732 Co 0.53409 0.82824 0.60699 0.0
C733 C 0.52802 0.83741 0.70936 0.0
O734 O 0.5179 0.82596 0.71499 0.0
N735 N 0.50685 0.82527 0.62128 0.0
C736 C 0.47645 0.81722 0.63095 0.0
C737 C 0.49581 0.81368 0.62402 0.0
C738 C 0.49367 0.83566 0.62648 0.0
N739 N 0.47505 0.83111 0.63229 0.0
O740 O 0.52672 0.84328 0.56491 0.0
H741 H 0.50109 0.80324 0.62038 0.0
H742 H 0.49772 0.84645 0.62464 0.0
O743 O 0.53599 0.84017 0.66715 0.0
C744 C 0.52122 0.83726 0.52498 0.0
O745 O 0.52115 0.82367 0.52397 0.0
N746 N 0.54178 0.81242 0.64164 0.0
C747 C 0.55081 0.78652 0.6793 0.0
C748 C 0.55624 0.79846 0.7054 0.0
C749 C 0.55214 0.8114 0.68503 0.0
C750 C 0.53857 0.80097 0.61344 0.0
C751 C 0.54258 0.78787 0.63188 0.0
H752 H 0.55711 0.82048 0.70458 0.0
H753 H 0.53206 0.802 0.57698 0.0
H754 H 0.57672 0.83633 0.65712 0.0
H755 H 0.59639 0.83066 0.5102 0.0
H756 H 0.46438 0.81004 0.63433 0.0
H757 H 0.56343 0.79779 0.74124 0.0
H758 H 0.53844 0.77892 0.61007 0.0
C759 C 0.26603 0.91107 0.57343 0.0
C760 C 0.2461 0.91032 0.56724 0.0
N761 N 0.23864 0.90203 0.60283 0.0
N762 N 0.27134 0.90333 0.61279 0.0
C763 C 0.25432 0.89794 0.63017 0.0
H764 H 0.2761 0.91694 0.55066 0.0
Co765 Co 0.29768 0.90163 0.63114 0.0
C766 C 0.29778 0.89286 0.73622 0.0
O767 O 0.31218 0.90163 0.74317 0.0
N768 N 0.3252 0.89994 0.64789 0.0
C769 C 0.356 0.90449 0.67069 0.0
C770 C 0.33741 0.90966 0.66681 0.0
C771 C 0.33718 0.88884 0.64086 0.0
N772 N 0.35604 0.89141 0.6539 0.0
O773 O 0.29898 0.88517 0.59279 0.0
H774 H 0.33331 0.91985 0.67915 0.0
H775 H 0.33227 0.87912 0.62548 0.0
O776 O 0.29034 0.89146 0.69265 0.0
C777 C 0.30517 0.88927 0.55044 0.0
O778 O 0.31134 0.9021 0.54646 0.0
N779 N 0.29579 0.91884 0.66166 0.0
C780 C 0.29442 0.94628 0.69184 0.0
C781 C 0.28454 0.93602 0.71903 0.0
C782 C 0.28494 0.92235 0.70242 0.0
C783 C 0.30375 0.92886 0.63234 0.0
C784 C 0.3036 0.94261 0.64718 0.0
H785 H 0.27636 0.91473 0.72201 0.0
H786 H 0.31085 0.92604 0.59784 0.0
H787 H 0.25347 0.89104 0.66177 0.0
H788 H 0.23774 0.91571 0.5391 0.0
H789 H 0.36848 0.91001 0.68563 0.0
H790 H 0.27671 0.93848 0.75292 0.0
H791 H 0.31059 0.95028 0.6238 0.0
C792 C 0.48702 0.56972 0.31982 0.0
C793 C 0.46727 0.57206 0.31888 0.0
N794 N 0.46258 0.5801 0.35793 0.0
N795 N 0.49503 0.5763 0.35905 0.0
C796 C 0.47969 0.58247 0.3822 0.0
H797 H 0.49506 0.5635 0.29344 0.0
Co798 Co 0.52211 0.57542 0.36827 0.0
C799 C 0.531 0.58533 0.46906 0.0
O800 O 0.54375 0.57518 0.47177 0.0
N801 N 0.54996 0.57442 0.37445 0.0
C802 C 0.58116 0.5677 0.37075 0.0
C803 C 0.56201 0.56336 0.37098 0.0
C804 C 0.56237 0.58538 0.37623 0.0
N805 N 0.58141 0.58157 0.37376 0.0
O806 O 0.52521 0.59117 0.32652 0.0
H807 H 0.55756 0.55274 0.36715 0.0
H808 H 0.55748 0.59602 0.37733 0.0
O809 O 0.52072 0.58693 0.42944 0.0
C810 C 0.5286 0.58587 0.28389 0.0
O811 O 0.52995 0.57236 0.28037 0.0
N812 N 0.51848 0.55894 0.40302 0.0
C813 C 0.51668 0.5321 0.43856 0.0
C814 C 0.5115 0.5432 0.46945 0.0
C815 C 0.51177 0.55663 0.4502 0.0
C816 C 0.52105 0.54814 0.37127 0.0
C817 C 0.52058 0.53464 0.38834 0.0
H818 H 0.50684 0.56502 0.47344 0.0
H819 H 0.52464 0.55008 0.33276 0.0
H820 H 0.48101 0.58869 0.41552 0.0
H821 H 0.45703 0.56792 0.29197 0.0
H822 H 0.59393 0.56112 0.36794 0.0
H823 H 0.5075 0.54152 0.50798 0.0
H824 H 0.52434 0.52636 0.36295 0.0
C825 C 0.79274 0.66155 0.31161 0.0
C826 C 0.81274 0.66178 0.30465 0.0
N827 N 0.82063 0.65087 0.32863 0.0
N828 N 0.78797 0.65056 0.33989 0.0
C829 C 0.80522 0.6442 0.3493 0.0
H830 H 0.78235 0.66909 0.29798 0.0
Co831 Co 0.76283 0.64607 0.36245 0.0
C832 C 0.7697 0.62306 0.43092 0.0
O833 O 0.75622 0.61572 0.4081 0.0
N834 N 0.73742 0.64155 0.38594 0.0
C835 C 0.71245 0.63884 0.43838 0.0
C836 C 0.73146 0.64322 0.43353 0.0
C837 C 0.72165 0.63599 0.36263 0.0
N838 N 0.70625 0.63427 0.39382 0.0
O839 O 0.76259 0.63101 0.31745 0.0
H840 H 0.74053 0.64715 0.46335 0.0
H841 H 0.72142 0.6332 0.32369 0.0
O842 O 0.77396 0.6351 0.41525 0.0
C843 C 0.75717 0.63606 0.27587 0.0
O844 O 0.75076 0.64887 0.27504 0.0
N845 N 0.76303 0.66168 0.40199 0.0
C846 C 0.76374 0.68774 0.44486 0.0
C847 C 0.77656 0.67738 0.46153 0.0
C848 C 0.77608 0.66436 0.43921 0.0
C849 C 0.75019 0.67149 0.38622 0.0
C850 C 0.75015 0.68457 0.4075 0.0
H851 H 0.78673 0.65669 0.45026 0.0
H852 H 0.74029 0.66921 0.35588 0.0
H853 H 0.80647 0.63487 0.37119 0.0
H854 H 0.82086 0.66968 0.28497 0.0
H855 H 0.70406 0.63861 0.47254 0.0
H856 H 0.78748 0.67953 0.48972 0.0
H857 H 0.73991 0.69224 0.39392 0.0
C858 C 0.50978 0.6521 0.94743 0.0
C859 C 0.48985 0.65083 0.95136 0.0
N860 N 0.48285 0.64577 0.90818 0.0
N861 N 0.51559 0.64781 0.90211 0.0
C862 C 0.49881 0.6441 0.87863 0.0
H863 H 0.51948 0.65611 0.97575 0.0
Co864 Co 0.54208 0.64835 0.8851 0.0
C865 C 0.54588 0.63831 0.78209 0.0
O866 O 0.55939 0.64782 0.77571 0.0
N867 N 0.56963 0.649 0.87055 0.0
C868 C 0.60055 0.65603 0.86088 0.0
C869 C 0.58134 0.66013 0.86332 0.0
C870 C 0.58236 0.6382 0.87153 0.0
N871 N 0.60125 0.64224 0.86648 0.0
O872 O 0.54605 0.63238 0.92465 0.0
H873 H 0.57666 0.67072 0.86061 0.0
H874 H 0.57796 0.62761 0.87797 0.0
O875 O 0.53737 0.63713 0.82447 0.0
C876 C 0.55277 0.63646 0.96643 0.0
O877 O 0.55794 0.6495 0.97099 0.0
N878 N 0.53747 0.66497 0.85256 0.0
C879 C 0.53407 0.69189 0.81867 0.0
C880 C 0.52744 0.68084 0.78932 0.0
C881 C 0.52872 0.66739 0.80773 0.0
C882 C 0.54158 0.67567 0.88373 0.0
C883 C 0.54042 0.68924 0.86723 0.0
H884 H 0.52269 0.65908 0.78585 0.0
H885 H 0.54699 0.67356 0.92077 0.0
H886 H 0.49831 0.64028 0.84081 0.0
H887 H 0.48112 0.65383 0.9832 0.0
H888 H 0.61309 0.66273 0.85579 0.0
H889 H 0.52146 0.68259 0.75254 0.0
H890 H 0.54536 0.69747 0.89149 0.0
C891 C 0.81693 0.56421 0.89544 0.0
C892 C 0.83651 0.56409 0.90717 0.0
N893 N 0.84373 0.57687 0.89996 0.0
N894 N 0.81169 0.57696 0.88005 0.0
C895 C 0.82829 0.58457 0.88467 0.0
H896 H 0.80714 0.55545 0.89767 0.0
Co897 Co 0.78575 0.58168 0.86176 0.0
C898 C 0.80812 0.59639 0.77628 0.0
O899 O 0.82592 0.59177 0.78422 0.0
N900 N 0.75972 0.58625 0.84366 0.0
C901 C 0.73311 0.58831 0.79634 0.0
C902 C 0.75236 0.58435 0.79747 0.0
C903 C 0.74451 0.59159 0.86993 0.0
N904 N 0.72811 0.59286 0.84185 0.0
O905 O 0.78662 0.59698 0.90604 0.0
H906 H 0.76052 0.58034 0.76615 0.0
H907 H 0.74533 0.59438 0.90885 0.0
O908 O 0.79406 0.59276 0.80483 0.0
C909 C 0.78355 0.5913 0.9482 0.0
O910 O 0.78047 0.57789 0.94963 0.0
N911 N 0.78415 0.56579 0.82336 0.0
C912 C 0.7801 0.53971 0.78187 0.0
C913 C 0.79336 0.54924 0.76147 0.0
C914 C 0.7953 0.56228 0.78315 0.0
C915 C 0.77107 0.55669 0.84312 0.0
C916 C 0.76866 0.54365 0.82267 0.0
H917 H 0.80621 0.56924 0.76876 0.0
H918 H 0.76271 0.55956 0.87572 0.0
H919 H 0.82907 0.59553 0.87691 0.0
H920 H 0.84493 0.55514 0.91837 0.0
H921 H 0.72361 0.58815 0.76408 0.0
H922 H 0.80271 0.54644 0.7305 0.0
H923 H 0.75817 0.53662 0.83925 0.0
C924 C 0.56803 0.389 0.6787 0.0
C925 C 0.5877 0.38625 0.67867 0.0
N926 N 0.59402 0.38623 0.6313 0.0
N927 N 0.56165 0.39057 0.63152 0.0
C928 C 0.57795 0.38887 0.60329 0.0
H929 H 0.55921 0.39035 0.71165 0.0
Co930 Co 0.5358 0.39572 0.61652 0.0
C931 C 0.52763 0.38745 0.51309 0.0
O932 O 0.51859 0.39937 0.50839 0.0
N933 N 0.50929 0.4008 0.60379 0.0
C934 C 0.47998 0.41096 0.60293 0.0
C935 C 0.49987 0.41305 0.60772 0.0
C936 C 0.49472 0.3915 0.59659 0.0
N937 N 0.47679 0.39736 0.59608 0.0
O938 O 0.5263 0.38082 0.65694 0.0
H939 H 0.50665 0.42285 0.61592 0.0
H940 H 0.49722 0.38047 0.59428 0.0
O941 O 0.53578 0.38423 0.55467 0.0
C942 C 0.52108 0.38679 0.69728 0.0
O943 O 0.52306 0.40028 0.70024 0.0
N944 N 0.54542 0.41136 0.58389 0.0
C945 C 0.55369 0.43774 0.5499 0.0
C946 C 0.55725 0.42624 0.5194 0.0
C947 C 0.55357 0.41298 0.53781 0.0
C948 C 0.54476 0.42222 0.61597 0.0
C949 C 0.54852 0.43556 0.59965 0.0
H950 H 0.55667 0.40423 0.51428 0.0
H951 H 0.53987 0.42062 0.65377 0.0
H952 H 0.57816 0.38987 0.56323 0.0
H953 H 0.59688 0.38515 0.71129 0.0
H954 H 0.46874 0.41881 0.60549 0.0
H955 H 0.5621 0.42751 0.4813 0.0
H956 H 0.54588 0.4441 0.62481 0.0
C957 C 0.26244 0.32697 0.67952 0.0
C958 C 0.24241 0.3261 0.68528 0.0
N959 N 0.23388 0.33205 0.64551 0.0
N960 N 0.26655 0.33356 0.63657 0.0
C961 C 0.24881 0.33646 0.61662 0.0
H962 H 0.27332 0.32298 0.70497 0.0
Co963 Co 0.29165 0.33759 0.61227 0.0
C964 C 0.28489 0.35993 0.54107 0.0
O965 O 0.29841 0.3674 0.56313 0.0
N966 N 0.31699 0.34164 0.58682 0.0
C967 C 0.34142 0.34352 0.53224 0.0
C968 C 0.32257 0.33905 0.53945 0.0
C969 C 0.33283 0.34787 0.6075 0.0
N970 N 0.34789 0.3491 0.57502 0.0
O971 O 0.29233 0.35318 0.65515 0.0
H972 H 0.31333 0.3345 0.51119 0.0
H973 H 0.33339 0.35156 0.64541 0.0
O974 O 0.28047 0.34807 0.55821 0.0
C975 C 0.29935 0.34891 0.69637 0.0
O976 O 0.30741 0.33657 0.69756 0.0
N977 N 0.29102 0.32146 0.5756 0.0
C978 C 0.29025 0.29479 0.53799 0.0
C979 C 0.2783 0.30509 0.51721 0.0
C980 C 0.27879 0.31845 0.53694 0.0
C981 C 0.30303 0.31169 0.59531 0.0
C982 C 0.303 0.29829 0.57682 0.0
H983 H 0.2689 0.32616 0.52234 0.0
H984 H 0.31234 0.31429 0.62649 0.0
H985 H 0.24675 0.34178 0.58169 0.0
H986 H 0.23474 0.3212 0.71579 0.0
H987 H 0.34949 0.34312 0.49761 0.0
H988 H 0.26808 0.30271 0.48762 0.0
H989 H 0.31258 0.29066 0.59349 0.0
C990 C 0.53372 0.31571 0.05046 0.0
C991 C 0.55356 0.31717 0.04488 0.0
N992 N 0.55977 0.32719 0.07595 0.0
N993 N 0.52724 0.32466 0.08511 0.0
C994 C 0.54346 0.33156 0.10019 0.0
H995 H 0.52448 0.30861 0.03008 0.0
Co996 Co 0.50057 0.32607 0.0989 0.0
C997 C 0.49653 0.33747 0.20026 0.0
O998 O 0.48125 0.32935 0.20533 0.0
N999 N 0.4728 0.32733 0.11001 0.0
C1000 C 0.44111 0.32231 0.12017 0.0
C1001 C 0.45982 0.31722 0.12166 0.0
C1002 C 0.46127 0.33859 0.10249 0.0
N1003 N 0.44199 0.33573 0.10772 0.0
O1004 O 0.49937 0.3416 0.05594 0.0
H1005 H 0.46327 0.30669 0.13112 0.0
H1006 H 0.46682 0.34863 0.09172 0.0
O1007 O 0.50585 0.33767 0.15871 0.0
C1008 C 0.49444 0.33647 0.01399 0.0
O1009 O 0.48989 0.32328 0.01206 0.0
N1010 N 0.50244 0.30971 0.13488 0.0
C1011 C 0.50344 0.28321 0.17373 0.0
C1012 C 0.51121 0.29431 0.20084 0.0
C1013 C 0.51113 0.30751 0.17995 0.0
C1014 C 0.49676 0.29881 0.10627 0.0
C1015 C 0.49671 0.2855 0.12529 0.0
H1016 H 0.51827 0.31578 0.1998 0.0
H1017 H 0.4913 0.30061 0.06908 0.0
H1018 H 0.54326 0.33979 0.12744 0.0
H1019 H 0.56272 0.31117 0.02015 0.0
H1020 H 0.42784 0.31656 0.12783 0.0
H1021 H 0.51746 0.29277 0.23745 0.0
H1022 H 0.49084 0.27718 0.10281 0.0
C1023 C 0.22995 0.41741 0.07753 0.0
C1024 C 0.21014 0.41673 0.06919 0.0
N1025 N 0.20412 0.40377 0.0788 0.0
N1026 N 0.23651 0.40498 0.0931 0.0
C1027 C 0.22046 0.39675 0.0919 0.0
H1028 H 0.23898 0.42651 0.07313 0.0
Co1029 Co 0.26301 0.40135 0.10828 0.0
C1030 C 0.2434 0.38642 0.19742 0.0
O1031 O 0.22531 0.39073 0.19185 0.0
N1032 N 0.28962 0.39787 0.12338 0.0
C1033 C 0.31732 0.39698 0.167 0.0
C1034 C 0.29799 0.40074 0.1678 0.0
C1035 C 0.30428 0.39211 0.09633 0.0
N1036 N 0.3213 0.39154 0.12212 0.0
O1037 O 0.26256 0.38583 0.06475 0.0
H1038 H 0.29044 0.40512 0.19945 0.0
H1039 H 0.30257 0.38837 0.05867 0.0
O1040 O 0.25672 0.39019 0.16685 0.0
C1041 C 0.26393 0.39134 0.02172 0.0
O1042 O 0.26525 0.40488 0.01863 0.0
N1043 N 0.26407 0.41748 0.14554 0.0
C1044 C 0.26803 0.44359 0.18678 0.0
C1045 C 0.25575 0.43375 0.20911 0.0
C1046 C 0.25383 0.4207 0.18756 0.0
C1047 C 0.27593 0.42695 0.12332 0.0
C1048 C 0.27831 0.44002 0.14359 0.0
H1049 H 0.2438 0.41345 0.20397 0.0
H1050 H 0.28355 0.42429 0.08934 0.0
H1051 H 0.22067 0.38585 0.10095 0.0
H1052 H 0.20072 0.42528 0.05903 0.0
H1053 H 0.32749 0.39771 0.19779 0.0
H1054 H 0.24727 0.43625 0.24196 0.0
H1055 H 0.28805 0.44728 0.12542 0.0
H1056 H 0.96367 0.09952 0.5598 0.0
H1057 H 0.04958 0.10403 0.75134 0.0
H1058 H 1.023 0.10721 0.51149 0.0
H1059 H 0.99709 0.12733 0.78228 0.0
H1060 H 0.03781 0.10004 0.66641 0.0
H1061 H 0.97331 0.10596 0.64481 0.0
C1062 C 0.97865 0.10268 0.56677 0.0
C1063 C 0.99271 0.10241 0.52849 0.0
C1064 C 0.02884 0.10595 0.69201 0.0
C1065 C 1.00377 0.10934 0.62558 0.0
C1066 C 0.03542 0.10809 0.74052 0.0
C1067 C 1.02423 0.11595 0.77383 0.0
C1068 C 1.01073 0.11141 0.67709 0.0
C1069 C 1.00611 0.12118 0.7576 0.0
C1070 C 0.9841 0.10629 0.61529 0.0
C1071 C 1.01184 0.10673 0.53991 0.0
N1072 N 0.99979 0.11871 0.71034 0.0
N1073 N 1.01692 0.10971 0.58756 0.0
H1074 H 0.25164 0.15442 0.57742 0.0
H1075 H 0.28227 0.08349 0.70197 0.0
H1076 H 0.27102 0.11942 0.49097 0.0
H1077 H 0.27734 0.12142 0.78512 0.0
H1078 H 0.27972 0.09653 0.62455 0.0
H1079 H 0.26196 0.14273 0.65304 0.0
C1080 C 0.25811 0.14424 0.57423 0.0
C1081 C 0.2602 0.13781 0.52757 0.0
C1082 C 0.27948 0.10207 0.65955 0.0
C1083 C 0.27211 0.12429 0.61491 0.0
C1084 C 0.28092 0.09464 0.70385 0.0
C1085 C 0.27989 0.1014 0.75005 0.0
C1086 C 0.27659 0.1164 0.66122 0.0
C1087 C 0.27827 0.11583 0.75031 0.0
C1088 C 0.26413 0.13761 0.61764 0.0
C1089 C 0.26901 0.12472 0.52606 0.0
N1090 N 0.27634 0.12284 0.70652 0.0
N1091 N 0.2744 0.11831 0.56918 0.0
H1092 H 0.03452 0.86361 0.51785 0.0
H1093 H 0.02553 0.86433 0.21967 0.0
H1094 H 0.03984 0.90061 0.42958 0.0
H1095 H 1.00108 0.83276 0.31459 0.0
H1096 H 0.03893 0.87585 0.29408 0.0
H1097 H 0.03104 0.85009 0.44083 0.0
C1098 C 0.03554 0.86881 0.48227 0.0
C1099 C 0.0373 0.88322 0.47995 0.0
C1100 C 0.03076 0.86633 0.29834 0.0
C1101 C 0.03314 0.86796 0.39207 0.0
C1102 C 1.02313 0.85978 0.25597 0.0
C1103 C 1.01186 0.84774 0.26102 0.0
C1104 C 0.02739 0.86061 0.34577 0.0
C1105 C 1.00933 0.84219 0.30895 0.0
C1106 C 0.03336 0.86115 0.43838 0.0
C1107 C 0.03831 0.88951 0.43288 0.0
N1108 N 1.01696 0.84867 0.34933 0.0
N1109 N 0.03605 0.88187 0.39083 0.0
H1110 H 0.77649 0.86366 0.51607 0.0
H1111 H 0.76664 0.86208 0.21768 0.0
H1112 H 0.7895 0.82809 0.42507 0.0
H1113 H 0.76841 0.8995 0.30477 0.0
H1114 H 0.76752 0.84859 0.29535 0.0
H1115 H 0.76617 0.87614 0.4406 0.0
C1116 C 0.77693 0.85844 0.48044 0.0
C1117 C 0.78419 0.84493 0.47674 0.0
C1118 C 0.76745 0.85976 0.29736 0.0
C1119 C 0.77234 0.859 0.39062 0.0
C1120 C 0.76682 0.86743 0.25308 0.0
C1121 C 0.76773 0.88188 0.25486 0.0
C1122 C 0.76878 0.86665 0.34349 0.0
C1123 C 0.76802 0.88834 0.30174 0.0
C1124 C 0.77111 0.86555 0.43739 0.0
C1125 C 0.78438 0.8386 0.42959 0.0
N1126 N 0.76868 0.8807 0.34407 0.0
N1127 N 0.77868 0.84569 0.3885 0.0
H1128 H 1.02181 0.64728 0.1909 0.0
H1129 H 0.05516 0.57657 0.07076 0.0
H1130 H 0.03082 0.61039 0.27771 0.0
H1131 H 0.02963 0.60936 0.98338 0.0
H1132 H 0.0456 0.58861 0.14642 0.0
H1133 H 1.02316 0.6335 0.11484 0.0
C1134 C 1.02373 0.63619 0.19388 0.0
C1135 C 0.02629 0.62993 0.24055 0.0
C1136 C 0.04192 0.59315 0.11081 0.0
C1137 C 0.02833 0.61413 0.15346 0.0
C1138 C 0.04752 0.58634 0.06739 0.0
C1139 C 0.04344 0.59206 0.02044 0.0
C1140 C 0.03239 0.60595 0.10768 0.0
C1141 C 0.0332 0.60463 0.01871 0.0
C1142 C 1.02451 0.62834 0.15042 0.0
C1143 C 0.02868 0.61557 0.24243 0.0
N1144 N 0.02826 0.61125 0.06175 0.0
N1145 N 0.03 0.60817 0.19937 0.0
H1146 H 0.28862 0.61853 0.97755 0.0
H1147 H 0.27554 0.61968 0.27461 0.0
H1148 H 0.27278 0.6547 0.06232 0.0
H1149 H 0.27396 0.58265 0.18535 0.0
H1150 H 0.28366 0.63303 0.19939 0.0
H1151 H 0.29228 0.60563 0.05601 0.0
C1152 C 0.28628 0.62379 0.01262 0.0
C1153 C 0.28004 0.63758 0.01356 0.0
C1154 C 0.28183 0.62194 0.19655 0.0
C1155 C 0.28427 0.62306 0.10292 0.0
C1156 C 0.27731 0.61434 0.23945 0.0
C1157 C 0.27375 0.60012 0.23588 0.0
C1158 C 0.28299 0.61518 0.15018 0.0
C1159 C 0.27622 0.59367 0.18946 0.0
C1160 C 0.28828 0.61646 0.0573 0.0
C1161 C 0.27722 0.64397 0.05997 0.0
N1162 N 0.28052 0.60124 0.1484 0.0
N1163 N 0.27921 0.63665 0.10271 0.0
H1164 H 0.04168 0.37775 -0.00193 0.0
H1165 H 1.01362 0.34233 0.74009 0.0
H1166 H 0.99111 0.35142 0.98009 0.0
H1167 H 0.07344 0.35231 0.77785 0.0
H1168 H 1.00348 0.34933 0.82349 0.0
H1169 H 0.05216 0.37171 0.91358 0.0
C1170 C 0.03284 0.37064 0.97651 0.0
C1171 C 1.01554 0.36501 0.99635 0.0
C1172 C 1.01882 0.35002 0.81341 0.0
C1173 C 0.02724 0.35834 0.89932 0.0
C1174 C 1.02463 0.34608 0.76566 0.0
C1175 C 0.04449 0.34653 0.75193 0.0
C1176 C 0.03287 0.3547 0.8476 0.0
C1177 C 0.05801 0.35167 0.78681 0.0
C1178 C 0.03883 0.36722 0.92831 0.0
C1179 C 1.00463 0.3559 0.96655 0.0
N1180 N 0.05196 0.35555 0.83302 0.0
N1181 N 1.01057 0.35295 0.91942 0.0
H1182 H 0.76656 0.36626 0.0155 0.0
H1183 H 0.77558 0.36358 0.71696 0.0
H1184 H 0.76612 0.32851 0.93027 0.0
H1185 H 0.79334 0.39836 0.80677 0.0
H1186 H 0.76456 0.35173 0.79316 0.0
H1187 H 0.76859 0.37943 0.93718 0.0
C1188 C 0.76645 0.36079 0.98034 0.0
C1189 C 0.7664 0.34631 0.97925 0.0
C1190 C 0.77072 0.36202 0.79594 0.0
C1191 C 0.76875 0.36117 0.88994 0.0
C1192 C 0.77696 0.36876 0.7525 0.0
C1193 C 0.7857 0.38185 0.75559 0.0
C1194 C 0.77298 0.36853 0.84252 0.0
C1195 C 0.78704 0.38815 0.80266 0.0
C1196 C 0.76775 0.36826 0.93572 0.0
C1197 C 0.76641 0.33968 0.9327 0.0
N1198 N 0.78085 0.38143 0.84414 0.0
N1199 N 0.7677 0.34713 0.89001 0.0
H1200 H 0.51023 0.14887 0.19912 0.0
H1201 H 0.5539 0.08165 0.07534 0.0
H1202 H 0.52442 0.11225 0.28283 0.0
H1203 H 0.52592 0.11359 0.9887 0.0
H1204 H 0.54164 0.09227 0.15097 0.0
H1205 H 0.51351 0.13576 0.12192 0.0
C1206 C 0.51366 0.13795 0.20116 0.0
C1207 C 0.51718 0.13161 0.24727 0.0
C1208 C 0.53801 0.09694 0.11555 0.0
C1209 C 0.52142 0.11662 0.15897 0.0
C1210 C 0.54516 0.09095 0.07213 0.0
C1211 C 0.54123 0.09689 0.02545 0.0
C1212 C 0.52702 0.10914 0.11276 0.0
C1213 C 0.52947 0.10876 0.02388 0.0
C1214 C 0.51554 0.13049 0.15707 0.0
C1215 C 0.52151 0.11747 0.248 0.0
N1216 N 0.52299 0.11462 0.06703 0.0
N1217 N 0.52387 0.11049 0.20437 0.0
H1218 H 0.772 0.11657 0.2556 0.0
H1219 H 0.77843 0.11537 0.95701 0.0
H1220 H 0.75001 0.08331 0.16439 0.0
H1221 H 0.77859 0.15279 0.04413 0.0
H1222 H 0.77698 0.10187 0.03467 0.0
H1223 H 0.78317 0.12844 0.17962 0.0
C1224 C 0.76975 0.11171 0.21974 0.0
C1225 C 0.75976 0.09909 0.21615 0.0
C1226 C 0.77766 0.11304 0.03665 0.0
C1227 C 0.77268 0.11239 0.12965 0.0
C1228 C 0.77862 0.1207 0.99246 0.0
C1229 C 0.77839 0.13516 0.99439 0.0
C1230 C 0.77678 0.11995 0.08275 0.0
C1231 C 0.77851 0.14163 0.04118 0.0
C1232 C 0.77607 0.11847 0.17649 0.0
C1233 C 0.7573 0.09318 0.16879 0.0
N1234 N 0.77759 0.13399 0.08349 0.0
N1235 N 0.76364 0.09989 0.12746 0.0
H1236 H 0.52303 0.86306 0.01608 0.0
H1237 H 0.52883 0.86578 0.71744 0.0
H1238 H 0.50269 0.89718 0.92657 0.0
H1239 H 0.53382 0.82829 0.80312 0.0
H1240 H 0.52729 0.87901 0.79561 0.0
H1241 H 0.53464 0.8516 0.9397 0.0
C1242 C 0.52117 0.86817 0.98056 0.0
C1243 C 0.51153 0.88093 0.97758 0.0
C1244 C 0.52906 0.8679 0.79719 0.0
C1245 C 0.52493 0.86809 0.89055 0.0
C1246 C 0.53009 0.8604 0.75264 0.0
C1247 C 0.5312 0.84596 0.75406 0.0
C1248 C 0.52933 0.86086 0.84311 0.0
C1249 C 0.53266 0.83943 0.80058 0.0
C1250 C 0.52777 0.86166 0.93704 0.0
C1251 C 0.50965 0.88719 0.93059 0.0
N1252 N 0.53152 0.84689 0.84323 0.0
N1253 N 0.51618 0.8807 0.88905 0.0
H1254 H 0.29963 0.90219 0.83128 0.0
H1255 H 0.26152 0.83284 0.95171 0.0
H1256 H 0.27545 0.86905 0.74312 0.0
H1257 H 0.27162 0.86985 0.03717 0.0
H1258 H 0.26394 0.84629 0.8751 0.0
H1259 H 0.28751 0.89105 0.90628 0.0
C1260 C 0.2917 0.89254 0.82764 0.0
C1261 C 0.28884 0.88641 0.78079 0.0
C1262 C 0.26526 0.85156 0.91048 0.0
C1263 C 0.27488 0.87353 0.8672 0.0
C1264 C 0.26386 0.8439 0.95425 0.0
C1265 C 0.26647 0.85027 0.00071 0.0
C1266 C 0.26975 0.86569 0.91304 0.0
C1267 C 0.26943 0.86458 0.00205 0.0
C1268 C 0.28465 0.88624 0.87064 0.0
C1269 C 0.27812 0.87406 0.77848 0.0
N1270 N 0.27136 0.87179 0.95873 0.0
N1271 N 0.27178 0.8679 0.82122 0.0
H1272 H 0.52949 0.61229 0.77653 0.0
H1273 H 0.52313 0.61314 0.47787 0.0
H1274 H 0.54626 0.64723 0.68642 0.0
H1275 H 0.53106 0.57596 0.56388 0.0
H1276 H 0.52253 0.62655 0.55588 0.0
H1277 H 0.52116 0.59955 0.69996 0.0
C1278 C 0.53118 0.61732 0.74078 0.0
C1279 C 0.53888 0.63072 0.7377 0.0
C1280 C 0.52411 0.61542 0.55753 0.0
C1281 C 0.52913 0.61641 0.65052 0.0
C1282 C 0.52433 0.6078 0.51315 0.0
C1283 C 0.52739 0.59349 0.51459 0.0
C1284 C 0.52659 0.6086 0.6034 0.0
C1285 C 0.52896 0.58703 0.56122 0.0
C1286 C 0.52648 0.61007 0.6972 0.0
C1287 C 0.54072 0.63681 0.69043 0.0
N1288 N 0.52862 0.59462 0.60373 0.0
N1289 N 0.53594 0.62961 0.64878 0.0
H1290 H 0.77207 0.60431 0.74165 0.0
H1291 H 0.80441 0.63013 0.47503 0.0
H1292 H 0.83307 0.60292 0.69923 0.0
H1293 H 0.75151 0.60662 0.49906 0.0
H1294 H 0.81471 0.62477 0.5606 0.0
H1295 H 0.76355 0.61056 0.65649 0.0
C1296 C 0.78371 0.60537 0.71463 0.0
C1297 C 0.80329 0.60269 0.72749 0.0
C1298 C 0.80094 0.62073 0.5468 0.0
C1299 C 0.79358 0.61019 0.63012 0.0
C1300 C 0.79508 0.62374 0.49817 0.0
C1301 C 0.77716 0.6187 0.47997 0.0
C1302 C 0.7885 0.61301 0.57766 0.0
C1303 C 0.76554 0.61056 0.51145 0.0
C1304 C 0.7788 0.60892 0.666 0.0
C1305 C 0.81776 0.6047 0.69093 0.0
N1306 N 0.77129 0.60811 0.55901 0.0
N1307 N 0.81261 0.60831 0.64375 0.0
H1308 H 0.49015 0.32959 0.29584 0.0
H1309 H 0.53573 0.3961 0.41973 0.0
H1310 H 0.52172 0.35983 0.20923 0.0
H1311 H 0.52229 0.35937 0.50369 0.0
H1312 H 0.53179 0.38304 0.34248 0.0
H1313 H 0.50213 0.34032 0.37176 0.0
C1314 C 0.49961 0.33854 0.2927 0.0
C1315 C 0.50469 0.34395 0.24588 0.0
C1316 C 0.53006 0.37774 0.37768 0.0
C1317 C 0.51854 0.35634 0.33351 0.0
C1318 C 0.53232 0.38517 0.42181 0.0
C1319 C 0.5293 0.37877 0.46808 0.0
C1320 C 0.52425 0.36385 0.37969 0.0
C1321 C 0.52488 0.36464 0.46878 0.0
C1322 C 0.5066 0.34458 0.33628 0.0
C1323 C 0.51731 0.35539 0.24447 0.0
N1324 N 0.52213 0.35769 0.42515 0.0
N1325 N 0.52359 0.36134 0.2877 0.0
H1326 H 0.25088 0.35166 0.49591 0.0
H1327 H 0.28058 0.38126 0.2314 0.0
H1328 H 0.30217 0.37699 0.47318 0.0
H1329 H 0.21978 0.37748 0.27375 0.0
H1330 H 0.29011 0.37482 0.31572 0.0
H1331 H 0.24032 0.3569 0.41066 0.0
C1332 C 0.25983 0.3584 0.47314 0.0
C1333 C 0.27735 0.36399 0.49171 0.0
C1334 C 0.27469 0.37536 0.30638 0.0
C1335 C 0.26568 0.36963 0.39417 0.0
C1336 C 0.26921 0.37899 0.25818 0.0
C1337 C 0.24932 0.38023 0.24558 0.0
C1338 C 0.26022 0.37261 0.34205 0.0
C1339 C 0.23528 0.37683 0.28189 0.0
C1340 C 0.25381 0.36135 0.42461 0.0
C1341 C 0.28846 0.37259 0.46055 0.0
N1342 N 0.241 0.37319 0.32858 0.0
N1343 N 0.28254 0.37503 0.4131 0.0
H1344 H 0.09362 0.09711 0.34471 0.0
H1345 H 0.16347 0.15486 0.46584 0.0
H1346 H 0.08031 0.12035 0.47706 0.0
H1347 H 0.18366 0.12757 0.34983 0.0
H1348 H 0.1317 0.14351 0.46399 0.0
H1349 H 0.12522 0.10952 0.33843 0.0
C1350 C 0.09723 0.105 0.37179 0.0
C1351 C 0.08446 0.10772 0.41153 0.0
C1352 C 0.14302 0.13994 0.43886 0.0
C1353 C 0.12035 0.12178 0.4051 0.0
C1354 C 0.1612 0.14647 0.43983 0.0
C1355 C 0.17629 0.1422 0.40791 0.0
C1356 C 0.13966 0.12899 0.40555 0.0
C1357 C 0.17251 0.1311 0.37546 0.0
C1358 C 0.11528 0.11196 0.36857 0.0
C1359 C 0.08983 0.1179 0.44609 0.0
N1360 N 0.15453 0.1249 0.37496 0.0
N1361 N 0.1073 0.12449 0.44215 0.0
H1362 H 0.1312 0.13704 0.81098 0.0
H1363 H 0.19361 0.07516 0.92714 0.0
H1364 H 0.10802 0.10942 0.92216 0.0
H1365 H 0.21897 0.10787 0.83917 0.0
H1366 H 0.16205 0.08711 0.92464 0.0
H1367 H 0.16333 0.12627 0.82029 0.0
C1368 C 0.13292 0.12871 0.83751 0.0
C1369 C 0.11688 0.12405 0.86559 0.0
C1370 C 0.17453 0.0917 0.90605 0.0
C1371 C 0.15371 0.11159 0.87639 0.0
C1372 C 0.19254 0.08482 0.90709 0.0
C1373 C 0.20898 0.09047 0.88305 0.0
C1374 C 0.17285 0.10428 0.88036 0.0
C1375 C 0.20675 0.10317 0.85846 0.0
C1376 C 0.15129 0.1226 0.84296 0.0
C1377 C 0.12001 0.11336 0.89998 0.0
N1378 N 0.18902 0.10959 0.85748 0.0
N1379 N 0.13802 0.10739 0.90406 0.0
H1380 H 0.87692 0.84221 0.51372 0.0
H1381 H 0.96225 0.87484 0.67509 0.0
H1382 H 0.86794 0.85078 0.66922 0.0
H1383 H 0.95109 0.88885 0.52573 0.0
H1384 H 0.93111 0.86186 0.6732 0.0
H1385 H 0.90762 0.85552 0.51644 0.0
C1386 C 0.88145 0.84697 0.54834 0.0
C1387 C 0.86992 0.84554 0.59121 0.0
C1388 C 0.93556 0.86776 0.64089 0.0
C1389 C 0.90513 0.86035 0.59502 0.0
C1390 C 0.95331 0.87503 0.64181 0.0
C1391 C 0.95913 0.88288 0.60049 0.0
C1392 C 0.92389 0.86806 0.59783 0.0
C1393 C 0.94701 0.88295 0.55833 0.0
C1394 C 0.89888 0.85453 0.54989 0.0
C1395 C 0.87637 0.85183 0.63533 0.0
N1396 N 0.93005 0.87556 0.55787 0.0
N1397 N 0.89371 0.85883 0.63632 0.0
H1398 H 0.90724 0.83089 0.12106 0.0
H1399 H 0.85925 0.90557 0.16019 0.0
H1400 H 0.94159 0.86699 0.1566 0.0
H1401 H 0.82797 0.86995 0.10467 0.0
H1402 H 0.88929 0.8918 0.16228 0.0
H1403 H 0.87793 0.84514 0.11854 0.0
C1404 C 0.90862 0.84183 0.12869 0.0
C1405 C 0.92695 0.84771 0.13956 0.0
C1406 C 0.87583 0.88702 0.14968 0.0
C1407 C 0.8932 0.86425 0.13622 0.0
C1408 C 0.85862 0.89489 0.14831 0.0
C1409 C 0.84087 0.88898 0.1323 0.0
C1410 C 0.87533 0.87309 0.13512 0.0
C1411 C 0.84108 0.875 0.11805 0.0
C1412 C 0.89184 0.85 0.1269 0.0
C1413 C 0.9278 0.86203 0.14791 0.0
N1414 N 0.85797 0.86758 0.11983 0.0
N1415 N 0.91114 0.86981 0.14634 0.0
H1416 H 0.22231 0.61765 0.89709 0.0
H1417 H 0.10529 0.61128 0.89569 0.0
H1418 H 0.18312 0.65182 0.86886 0.0
H1419 H 0.14374 0.57583 0.88869 0.0
H1420 H 0.13385 0.62631 0.8928 0.0
H1421 H 0.19393 0.60218 0.90022 0.0
C1422 C 0.20786 0.62195 0.89138 0.0
C1423 C 0.20532 0.63619 0.88302 0.0
C1424 C 0.13601 0.61522 0.8919 0.0
C1425 C 0.17263 0.61847 0.88729 0.0
C1426 C 0.11961 0.60656 0.89341 0.0
C1427 C 0.1218 0.5921 0.89225 0.0
C1428 C 0.1549 0.60949 0.88956 0.0
C1429 C 0.14104 0.58682 0.89011 0.0
C1430 C 0.19162 0.61309 0.89339 0.0
C1431 C 0.18603 0.64105 0.87639 0.0
N1432 N 0.15677 0.59548 0.88888 0.0
N1433 N 0.17054 0.63225 0.87883 0.0
H1434 H 0.0945 0.6284 0.42986 0.0
H1435 H 0.182 0.60053 0.26809 0.0
H1436 H 0.10904 0.64846 0.2917 0.0
H1437 H 0.18894 0.60509 0.42641 0.0
H1438 H 0.15184 0.61447 0.27229 0.0
H1439 H 0.12584 0.61579 0.42628 0.0
C1440 C 0.1043 0.63005 0.39871 0.0
C1441 C 0.09934 0.63943 0.36102 0.0
C1442 C 0.16005 0.61247 0.306 0.0
C1443 C 0.13475 0.625 0.35625 0.0
C1444 C 0.17714 0.60455 0.30362 0.0
C1445 C 0.18787 0.60181 0.34694 0.0
C1446 C 0.15338 0.61727 0.35228 0.0
C1447 C 0.18107 0.60715 0.39226 0.0
C1448 C 0.12213 0.62297 0.39685 0.0
C1449 C 0.11249 0.64135 0.32151 0.0
N1450 N 0.16406 0.61448 0.39394 0.0
N1451 N 0.12953 0.63406 0.31977 0.0
H1452 H 0.93898 0.35967 0.14775 0.0
H1453 H 0.82571 0.35591 0.06866 0.0
H1454 H 0.91159 0.3884 0.04678 0.0
H1455 H 0.85503 0.32395 0.15213 0.0
H1456 H 0.85632 0.36908 0.06661 0.0
H1457 H 0.90756 0.34766 0.15677 0.0
C1458 C 0.92632 0.36355 0.12793 0.0
C1459 C 0.92796 0.37502 0.09621 0.0
C1460 C 0.85605 0.35918 0.08541 0.0
C1461 C 0.89198 0.36125 0.10596 0.0
C1462 C 0.83854 0.35169 0.08678 0.0
C1463 C 0.83778 0.33876 0.11037 0.0
C1464 C 0.87295 0.35377 0.10809 0.0
C1465 C 0.85497 0.33375 0.13282 0.0
C1466 C 0.90841 0.35663 0.13277 0.0
C1467 C 0.91108 0.37949 0.07101 0.0
N1468 N 0.87182 0.34126 0.13116 0.0
N1469 N 0.89385 0.3726 0.07635 0.0
H1470 H 0.93802 0.32452 0.65997 0.0
H1471 H 0.88982 0.39812 0.60868 0.0
H1472 H 0.96922 0.35811 0.59059 0.0
H1473 H 0.85596 0.36212 0.64824 0.0
H1474 H 0.91899 0.38365 0.60173 0.0
H1475 H 0.90771 0.33791 0.65466 0.0
C1476 C 0.93841 0.33469 0.64317 0.0
C1477 C 0.95616 0.34026 0.626 0.0
C1478 C 0.90517 0.37888 0.61169 0.0
C1479 C 0.92156 0.35573 0.62021 0.0
C1480 C 0.88853 0.38716 0.61614 0.0
C1481 C 0.87043 0.38134 0.62961 0.0
C1482 C 0.90383 0.36465 0.62124 0.0
C1483 C 0.86958 0.36703 0.6377 0.0
C1484 C 0.92111 0.34231 0.64006 0.0
C1485 C 0.95584 0.35341 0.60404 0.0
N1486 N 0.88608 0.35919 0.63382 0.0
N1487 N 0.93886 0.36078 0.60235 0.0
H1488 H 0.60717 0.11766 0.90694 0.0
H1489 H 0.72185 0.12141 0.84299 0.0
H1490 H 0.64305 0.08221 0.87265 0.0
H1491 H 0.68862 0.15671 0.89335 0.0
H1492 H 0.69261 0.10718 0.85083 0.0
H1493 H 0.63619 0.13249 0.89834 0.0
C1494 C 0.62109 0.113 0.89745 0.0
C1495 C 0.62266 0.09864 0.8909 0.0
C1496 C 0.69169 0.11804 0.86025 0.0
C1497 C 0.65591 0.11551 0.88111 0.0
C1498 C 0.70849 0.12619 0.85606 0.0
C1499 C 0.70786 0.14034 0.86771 0.0
C1500 C 0.67399 0.12401 0.87609 0.0
C1501 C 0.68985 0.14592 0.88345 0.0
C1502 C 0.63767 0.12145 0.8928 0.0
C1503 C 0.64114 0.09317 0.87897 0.0
N1504 N 0.67366 0.13775 0.88718 0.0
N1505 N 0.65697 0.10158 0.87444 0.0
H1506 H 0.66059 0.09013 0.28227 0.0
H1507 H 0.60858 0.15703 0.39802 0.0
H1508 H 0.68954 0.11721 0.38648 0.0
H1509 H 0.57807 0.12516 0.31681 0.0
H1510 H 0.63923 0.14418 0.3873 0.0
H1511 H 0.63136 0.10446 0.28735 0.0
C1512 C 0.66084 0.09909 0.30631 0.0
C1513 C 0.67756 0.10231 0.33456 0.0
C1514 C 0.62583 0.14002 0.37174 0.0
C1515 C 0.64392 0.11897 0.34019 0.0
C1516 C 0.60833 0.14739 0.37758 0.0
C1517 C 0.59065 0.14216 0.35838 0.0
C1518 C 0.62575 0.12737 0.3461 0.0
C1519 C 0.59124 0.12951 0.33279 0.0
C1520 C 0.64409 0.10732 0.30908 0.0
C1521 C 0.67706 0.11432 0.36396 0.0
N1522 N 0.60846 0.12259 0.32737 0.0
N1523 N 0.66047 0.12217 0.36625 0.0
H1524 H 0.32491 0.8609 0.09104 0.0
H1525 H 0.44213 0.86163 0.10293 0.0
H1526 H 0.35917 0.82553 0.13612 0.0
H1527 H 0.40639 0.89832 0.08943 0.0
H1528 H 0.41228 0.84777 0.10795 0.0
H1529 H 0.355 0.87425 0.08291 0.0
C1530 C 0.33867 0.85591 0.09952 0.0
C1531 C 0.3393 0.84201 0.11473 0.0
C1532 C 0.41106 0.85887 0.10377 0.0
C1533 C 0.37409 0.85731 0.1046 0.0
C1534 C 0.42816 0.86685 0.10104 0.0
C1535 C 0.42707 0.88131 0.09577 0.0
C1536 C 0.39266 0.86533 0.10092 0.0
C1537 C 0.40828 0.88729 0.09289 0.0
C1538 C 0.35593 0.86356 0.09459 0.0
C1539 C 0.35781 0.83613 0.12395 0.0
N1540 N 0.39194 0.8793 0.09549 0.0
N1541 N 0.37442 0.8438 0.1188 0.0
H1542 H 0.43708 0.82288 0.61754 0.0
H1543 H 0.39438 0.89915 0.65128 0.0
H1544 H 0.47216 0.85844 0.65658 0.0
H1545 H 0.35701 0.86315 0.64596 0.0
H1546 H 0.42288 0.88427 0.64738 0.0
H1547 H 0.40771 0.83723 0.62293 0.0
C1548 C 0.43873 0.83364 0.62752 0.0
C1549 C 0.45738 0.83937 0.63639 0.0
C1550 C 0.40847 0.87958 0.64724 0.0
C1551 C 0.42356 0.85596 0.64184 0.0
C1552 C 0.39205 0.88811 0.64976 0.0
C1553 C 0.37303 0.88248 0.64972 0.0
C1554 C 0.40611 0.8652 0.64415 0.0
C1555 C 0.37127 0.86802 0.64601 0.0
C1556 C 0.42186 0.84185 0.63036 0.0
C1557 C 0.45832 0.8535 0.64855 0.0
N1558 N 0.38758 0.85989 0.64342 0.0
N1559 N 0.44173 0.86126 0.65071 0.0
H1560 H 0.5861 0.60686 0.41626 0.0
H1561 H 0.69801 0.61392 0.32715 0.0
H1562 H 0.61584 0.57639 0.32677 0.0
H1563 H 0.67156 0.6402 0.43794 0.0
H1564 H 0.6666 0.60191 0.31728 0.0
H1565 H 0.61595 0.621 0.4158 0.0
C1566 C 0.59884 0.6032 0.39621 0.0
C1567 C 0.59852 0.59035 0.37199 0.0
C1568 C 0.66765 0.61036 0.34354 0.0
C1569 C 0.63273 0.60644 0.37127 0.0
C1570 C 0.68554 0.61728 0.34888 0.0
C1571 C 0.68746 0.62799 0.38374 0.0
C1572 C 0.65151 0.61425 0.37299 0.0
C1573 C 0.67082 0.63184 0.41125 0.0
C1574 C 0.6159 0.61123 0.39613 0.0
C1575 C 0.61552 0.58608 0.34677 0.0
N1576 N 0.6536 0.62496 0.40543 0.0
N1577 N 0.6319 0.59408 0.34714 0.0
H1578 H 0.60584 0.6155 0.83756 0.0
H1579 H 0.72058 0.6142 0.90485 0.0
H1580 H 0.63665 0.6499 0.90304 0.0
H1581 H 0.69267 0.58448 0.80868 0.0
H1582 H 0.68867 0.62545 0.91758 0.0
H1583 H 0.63638 0.60209 0.83907 0.0
C1584 C 0.61897 0.62018 0.85262 0.0
C1585 C 0.61874 0.63389 0.86957 0.0
C1586 C 0.68952 0.61639 0.89404 0.0
C1587 C 0.6537 0.61865 0.87162 0.0
C1588 C 0.70768 0.60992 0.88714 0.0
C1589 C 0.70927 0.5985 0.85527 0.0
C1590 C 0.67283 0.61129 0.8693 0.0
C1591 C 0.69212 0.59341 0.83289 0.0
C1592 C 0.63641 0.61256 0.85331 0.0
C1593 C 0.63623 0.63947 0.88862 0.0
N1594 N 0.67466 0.59986 0.84013 0.0
N1595 N 0.65297 0.63186 0.88903 0.0
H1596 H 0.46899 0.37317 0.54915 0.0
H1597 H 0.3566 0.37069 0.63618 0.0
H1598 H 0.44208 0.40526 0.63712 0.0
H1599 H 0.38217 0.3424 0.53055 0.0
H1600 H 0.38833 0.3825 0.64304 0.0
H1601 H 0.43774 0.36089 0.54713 0.0
C1602 C 0.45652 0.37762 0.56817 0.0
C1603 C 0.4582 0.39028 0.5933 0.0
C1604 C 0.38698 0.37369 0.61846 0.0
C1605 C 0.42223 0.37626 0.59109 0.0
C1606 C 0.36892 0.36688 0.61486 0.0
C1607 C 0.3667 0.35559 0.5825 0.0
C1608 C 0.40295 0.36909 0.58982 0.0
C1609 C 0.38313 0.35118 0.55535 0.0
C1610 C 0.43863 0.37063 0.56685 0.0
C1611 C 0.44142 0.39563 0.61678 0.0
N1612 N 0.4005 0.35793 0.55959 0.0
N1613 N 0.42416 0.38858 0.61524 0.0
H1614 H 0.35759 0.40019 0.1472 0.0
H1615 H 0.40644 0.32871 0.07111 0.0
H1616 H 0.3268 0.36846 0.06625 0.0
H1617 H 0.43977 0.3633 0.1264 0.0
H1618 H 0.37759 0.34351 0.0649 0.0
H1619 H 0.38822 0.38754 0.13522 0.0
C1620 C 0.35736 0.39061 0.12637 0.0
C1621 C 0.33964 0.38528 0.10811 0.0
C1622 C 0.39123 0.34793 0.07797 0.0
C1623 C 0.37461 0.37064 0.09464 0.0
C1624 C 0.40767 0.33946 0.08187 0.0
C1625 C 0.42546 0.34475 0.09997 0.0
C1626 C 0.39244 0.36181 0.09282 0.0
C1627 C 0.42635 0.35882 0.11231 0.0
C1628 C 0.37485 0.3834 0.11944 0.0
C1629 C 0.34016 0.37293 0.08082 0.0
N1630 N 0.40999 0.36683 0.10912 0.0
N1631 N 0.35733 0.36591 0.07555 0.0
H1632 H 1.00867 0.95866 0.58812 0.0
H1633 H 0.05981 0.02852 0.49762 0.0
H1634 H 0.07034 0.96134 0.55385 0.0
H1635 H 0.99729 0.02301 0.51262 0.0
H1636 H 0.06463 0.00463 0.52475 0.0
H1637 H 1.00493 0.98291 0.56675 0.0
C1638 C 1.02148 0.96442 0.57632 0.0
C1639 C 0.03989 0.95805 0.57315 0.0
C1640 C 0.04989 0.0087 0.52233 0.0
C1641 C 0.03567 0.98584 0.54805 0.0
C1642 C 0.04711 0.02231 0.50682 0.0
C1643 C 0.0281 0.02775 0.50265 0.0
C1644 C 0.03354 0.00051 0.53384 0.0
C1645 C 1.0122 0.01933 0.51583 0.0
C1646 C 1.01931 0.97825 0.5639 0.0
C1647 C 0.05589 0.96589 0.55662 0.0
N1648 N 1.01529 0.00612 0.53061 0.0
N1649 N 0.05343 0.97945 0.54478 0.0
H1650 H 0.28188 0.21853 0.37081 0.0
H1651 H 0.28841 0.27193 0.5968 0.0
H1652 H 0.27197 0.20754 0.5245 0.0
H1653 H 0.28809 0.28459 0.44284 0.0
H1654 H 0.28557 0.24793 0.57057 0.0
H1655 H 0.28724 0.24248 0.39624 0.0
C1656 C 0.28081 0.22115 0.40989 0.0
C1657 C 0.27633 0.21103 0.44558 0.0
C1658 C 0.28616 0.25593 0.54244 0.0
C1659 C 0.28266 0.23835 0.47485 0.0
C1660 C 0.2879 0.26963 0.55738 0.0
C1661 C 0.28859 0.28024 0.52187 0.0
C1662 C 0.2851 0.25279 0.49158 0.0
C1663 C 0.28748 0.27671 0.47135 0.0
C1664 C 0.28394 0.23481 0.42435 0.0
C1665 C 0.27556 0.21496 0.49577 0.0
N1666 N 0.28582 0.26324 0.45764 0.0
N1667 N 0.27863 0.22832 0.50887 0.0
H1668 H 0.03777 0.25799 0.63246 0.0
H1669 H 0.04656 0.20781 0.86723 0.0
H1670 H 0.03852 0.27232 0.78459 0.0
H1671 H 0.03905 0.19326 0.71662 0.0
H1672 H 0.04555 0.23156 0.83709 0.0
H1673 H 0.0399 0.23424 0.66219 0.0
C1674 C 0.03826 0.25613 0.67218 0.0
C1675 C 0.03779 0.26714 0.70617 0.0
C1676 C 0.04415 0.22319 0.81058 0.0
C1677 C 0.04052 0.23999 0.74037 0.0
C1678 C 0.04486 0.20963 0.8277 0.0
C1679 C 0.04299 0.19857 0.79426 0.0
C1680 C 0.04158 0.22571 0.75962 0.0
C1681 C 0.04041 0.2015 0.74363 0.0
C1682 C 0.03958 0.24257 0.68909 0.0
C1683 C 0.03896 0.26415 0.75711 0.0
N1684 N 0.03982 0.21482 0.72779 0.0
N1685 N 0.04022 0.25083 0.77269 0.0
H1686 H 0.26517 0.96142 0.73555 0.0
H1687 H 0.32958 0.03018 0.76227 0.0
H1688 H 0.32556 0.96405 0.68838 0.0
H1689 H 0.27406 0.02366 0.83547 0.0
H1690 H 0.32731 0.0068 0.727 0.0
H1691 H 0.26717 0.98517 0.76558 0.0
C1692 C 0.27887 0.96697 0.73173 0.0
C1693 C 0.29523 0.96073 0.7096 0.0
C1694 C 0.31567 0.01052 0.75087 0.0
C1695 C 0.29757 0.98796 0.74322 0.0
C1696 C 0.31694 0.02383 0.77076 0.0
C1697 C 0.30212 0.02871 0.80225 0.0
C1698 C 0.29935 0.00221 0.76223 0.0
C1699 C 0.286 0.02015 0.81214 0.0
C1700 C 0.27999 0.98055 0.74861 0.0
C1701 C 0.31251 0.96852 0.70469 0.0
N1702 N 0.28505 0.00732 0.79222 0.0
N1703 N 0.31324 0.98173 0.72143 0.0
H1704 H 0.76299 0.71142 0.39026 0.0
H1705 H 0.77747 0.7616 0.6234 0.0
H1706 H 0.76876 0.69662 0.54104 0.0
H1707 H 0.77837 0.77513 0.47033 0.0
H1708 H 0.7724 0.73787 0.59502 0.0
H1709 H 0.76636 0.73503 0.42017 0.0
C1710 C 0.76477 0.71316 0.42981 0.0
C1711 C 0.76546 0.70206 0.46332 0.0
C1712 C 0.77369 0.74605 0.5677 0.0
C1713 C 0.76966 0.72908 0.49776 0.0
C1714 C 0.77668 0.75957 0.58383 0.0
C1715 C 0.77843 0.77035 0.54913 0.0
C1716 C 0.7724 0.7433 0.51655 0.0
C1717 C 0.77689 0.76717 0.49838 0.0
C1718 C 0.76685 0.72664 0.44682 0.0
C1719 C 0.76825 0.7049 0.51399 0.0
N1720 N 0.774 0.75393 0.48364 0.0
N1721 N 0.77024 0.71817 0.52975 0.0
H1722 H 0.99021 0.71362 0.35772 0.0
H1723 H 1.01733 0.76264 0.12833 0.0
H1724 H 1.01428 0.69866 0.21928 0.0
H1725 H 0.99916 0.77777 0.27219 0.0
H1726 H 1.01421 0.73898 0.15899 0.0
H1727 H 0.9907 0.73709 0.32439 0.0
C1728 C 0.99549 0.71528 0.32019 0.0
C1729 C 1.00238 0.70421 0.29136 0.0
C1730 C 1.01094 0.74747 0.18389 0.0
C1731 C 1.00301 0.73099 0.25304 0.0
C1732 C 1.0127 0.76096 0.1664 0.0
C1733 C 1.0085 0.77215 0.19783 0.0
C1734 C 1.00487 0.74516 0.23309 0.0
C1735 C 1.00277 0.76943 0.24695 0.0
C1736 C 0.99577 0.72866 0.30119 0.0
C1737 C 1.00872 0.70689 0.24266 0.0
N1738 N 1.00106 0.75619 0.26305 0.0
N1739 N 1.00901 0.72004 0.22513 0.0
H1740 H 0.75457 0.94923 0.27296 0.0
H1741 H 0.74391 0.02952 0.20945 0.0
H1742 H 0.7331 0.96472 0.13259 0.0
H1743 H 0.76187 0.01409 0.35302 0.0
H1744 H 0.73929 0.00577 0.18108 0.0
H1745 H 0.75549 0.97286 0.30478 0.0
C1746 C 0.7497 0.95758 0.24915 0.0
C1747 C 0.74393 0.95504 0.19992 0.0
C1748 C 0.74422 0.00757 0.21882 0.0
C1749 C 0.74538 0.98209 0.2356 0.0
C1750 C 0.74706 0.02112 0.23482 0.0
C1751 C 0.75333 0.02375 0.28357 0.0
C1752 C 0.74776 -0.00341 0.25176 0.0
C1753 C 0.75685 0.0125 0.31525 0.0
C1754 C 0.75041 0.97108 0.26715 0.0
C1755 C 0.738 0.96626 0.17048 0.0
N1756 N 0.75405 -0.00061 0.29875 0.0
N1757 N 0.73904 0.97932 0.18865 0.0
H1758 H 1.0131 0.45742 0.1036 0.0
H1759 H 1.0209 0.51013 0.87559 0.0
H1760 H 1.00969 0.44471 0.94991 0.0
H1761 H 0.03293 0.52131 0.02809 0.0
H1762 H 1.0146 0.48642 0.90221 0.0
H1763 H 1.018 0.48122 0.07666 0.0
C1764 C 1.01322 0.45966 0.06412 0.0
C1765 C 1.01088 0.44908 0.02889 0.0
C1766 C 1.01862 0.49407 0.92983 0.0
C1767 C 1.01672 0.47632 -0.00221 0.0
C1768 C 1.02231 0.50759 0.91466 0.0
C1769 C 0.02761 0.51772 0.94964 0.0
C1770 C 1.02013 0.49063 0.98039 0.0
C1771 C 0.02874 0.51389 -0.0001 0.0
C1772 C 1.01616 0.47325 0.04878 0.0
C1773 C 1.01156 0.45255 0.97826 0.0
N1774 N 0.02507 0.50064 0.01374 0.0
N1775 N 1.01439 0.46589 0.96418 0.0
H1776 H 0.29102 0.7236 0.89514 0.0
H1777 H 0.23676 0.76513 0.11217 0.0
H1778 H 0.26718 0.70425 0.02653 0.0
H1779 H 0.26223 0.78442 0.98259 0.0
H1780 H 0.24591 0.74252 0.07897 0.0
H1781 H 0.27996 0.74601 0.92597 0.0
C1782 C 0.28362 0.72412 0.93076 0.0
C1783 C 0.27995 0.71211 0.95836 0.0
C1784 C 0.24931 0.75169 0.05757 0.0
C1785 C 0.26706 0.7376 0.99355 0.0
C1786 C 0.24401 0.76457 0.07638 0.0
C1787 C 0.24888 0.77664 0.05022 0.0
C1788 C 0.2596 0.75092 0.01243 0.0
C1789 C 0.25807 0.77537 0.00378 0.0
C1790 C 0.27724 0.73688 0.94823 0.0
C1791 C 0.27047 0.71331 0.00441 0.0
N1792 N 0.26332 0.76273 0.98659 0.0
N1793 N 0.26422 0.72585 0.02047 0.0
H1794 H 0.27481 0.51557 0.37632 0.0
H1795 H 0.26822 0.46778 0.135 0.0
H1796 H 0.2747 0.53103 0.22567 0.0
H1797 H 0.27144 0.45149 0.28432 0.0
H1798 H 0.27159 0.49103 0.16815 0.0
H1799 H 0.27478 0.49196 0.34393 0.0
C1800 C 0.27486 0.51397 0.33643 0.0
C1801 C 0.27462 0.52522 0.30354 0.0
C1802 C 0.27164 0.48239 0.19375 0.0
C1803 C 0.27462 0.49836 0.26638 0.0
C1804 C 0.26979 0.46911 0.17482 0.0
C1805 C 0.26967 0.45771 0.20701 0.0
C1806 C 0.27328 0.48433 0.2453 0.0
C1807 C 0.27131 0.46003 0.25832 0.0
C1808 C 0.27491 0.50052 0.318 0.0
C1809 C 0.27502 0.52263 0.25228 0.0
N1810 N 0.27305 0.47312 0.27596 0.0
N1811 N 0.27486 0.50945 0.23526 0.0
H1812 H 0.77414 0.20045 0.01063 0.0
H1813 H 0.76646 0.28179 0.96338 0.0
H1814 H 0.80137 0.22135 0.88669 0.0
H1815 H 0.73924 0.26096 0.08747 0.0
H1816 H 0.77819 0.25957 0.93273 0.0
H1817 H 0.76192 0.22263 0.04066 0.0
C1818 C 0.77793 0.20976 0.99036 0.0
C1819 C 0.78872 0.20908 0.94603 0.0
C1820 C 0.7695 0.25983 0.96642 0.0
C1821 C 0.77427 0.23439 0.97923 0.0
C1822 C 0.76253 0.27249 0.98352 0.0
C1823 C 0.75193 0.27321 0.02814 0.0
C1824 C 0.76586 0.24782 0.99423 0.0
C1825 C 0.74758 0.26087 0.05321 0.0
C1826 C 0.77069 0.22238 0.0071 0.0
C1827 C 0.79289 0.22142 0.92074 0.0
N1828 N 0.75471 0.24867 0.03612 0.0
N1829 N 0.78554 0.23357 0.93753 0.0
H1830 H 0.77915 0.53082 0.68502 0.0
H1831 H 0.78203 0.45113 0.76195 0.0
H1832 H 0.77893 0.51611 0.83663 0.0
H1833 H 0.77657 0.46499 0.60987 0.0
H1834 H 0.77978 0.47502 0.78976 0.0
H1835 H 0.77784 0.50682 0.65602 0.0
C1836 C 0.77882 0.52253 0.7121 0.0
C1837 C 0.77906 0.5254 0.76321 0.0
C1838 C 0.77896 0.47285 0.7503 0.0
C1839 C 0.77749 0.49809 0.73061 0.0
C1840 C 0.78011 0.45919 0.73444 0.0
C1841 C 0.7796 0.45609 0.68353 0.0
C1842 C 0.7774 0.48348 0.71498 0.0
C1843 C 0.77739 0.46697 0.64945 0.0
C1844 C 0.77796 0.50888 0.69562 0.0
C1845 C 0.77847 0.51434 0.79687 0.0
N1846 N 0.77648 0.48022 0.6658 0.0
N1847 N 0.77776 0.50118 0.77996 0.0
H1848 H 0.53907 0.02807 0.04274 0.0
H1849 H 0.51516 0.94986 0.96841 0.0
H1850 H 0.52738 0.01447 0.89266 0.0
H1851 H 0.52585 0.96325 0.11922 0.0
H1852 H 0.52012 0.97352 0.93987 0.0
H1853 H 0.53414 0.0044 0.07193 0.0
C1854 C 0.53536 0.0201 0.01604 0.0
C1855 C 0.53373 0.02317 0.96525 0.0
C1856 C 0.52139 0.97129 0.97921 0.0
C1857 C 0.52827 -0.00385 -0.00191 0.0
C1858 C 0.51869 0.95778 0.99544 0.0
C1859 C 0.52008 0.95464 0.04619 0.0
C1860 C 0.52553 0.98171 0.01403 0.0
C1861 C 0.5244 0.9653 0.0798 0.0
C1862 C 0.53266 0.0066 0.03261 0.0
C1863 C 0.52909 0.01248 0.93205 0.0
N1864 N 0.52698 0.9784 0.06309 0.0
N1865 N 0.52654 -0.00057 0.94907 0.0
H1866 H 0.47868 0.21392 0.36581 0.0
H1867 H 0.51189 0.25842 0.13028 0.0
H1868 H 0.49997 0.19638 0.22832 0.0
H1869 H 0.49075 0.27651 0.26693 0.0
H1870 H 0.50613 0.23549 0.16477 0.0
H1871 H 0.48068 0.23693 0.32859 0.0
C1872 C 0.48355 0.21491 0.32762 0.0
C1873 C 0.48932 0.20327 0.30019 0.0
C1874 C 0.50275 0.24446 0.18729 0.0
C1875 C 0.49177 0.22944 0.25766 0.0
C1876 C 0.50605 0.25754 0.16763 0.0
C1877 C 0.50175 0.26933 0.19585 0.0
C1878 C 0.49511 0.24318 0.23556 0.0
C1879 C 0.49446 0.26765 0.24423 0.0
C1880 C 0.48471 0.22802 0.30644 0.0
C1881 C 0.49524 0.20507 0.25067 0.0
N1882 N 0.49132 0.25478 0.2626 0.0
N1883 N 0.4965 0.21794 0.23114 0.0
H1884 H 0.52473 0.71639 0.86386 0.0
H1885 H 0.5634 0.76235 0.63719 0.0
H1886 H 0.54771 0.69938 0.7273 0.0
H1887 H 0.54034 0.77937 0.77358 0.0
H1888 H 0.55961 0.73915 0.67161 0.0
H1889 H 0.53122 0.73961 0.83239 0.0
C1890 C 0.53106 0.71756 0.82714 0.0
C1891 C 0.53569 0.70598 0.79809 0.0
C1892 C 0.55554 0.74796 0.6942 0.0
C1893 C 0.54325 0.73244 0.76199 0.0
C1894 C 0.55775 0.76118 0.67462 0.0
C1895 C 0.55202 0.77274 0.7025 0.0
C1896 C 0.54746 0.74632 0.74187 0.0
C1897 C 0.54504 0.77072 0.751 0.0
C1898 C 0.5348 0.7308 0.80924 0.0
C1899 C 0.54368 0.70805 0.75061 0.0
N1900 N 0.54276 0.75773 0.769 0.0
N1901 N 0.54727 0.72105 0.73408 0.0
H1902 H 0.50452 0.50754 0.39914 0.0
H1903 H 0.56697 0.46208 0.59 0.0
H1904 H 0.53695 0.52493 0.52191 0.0
H1905 H 0.53603 0.44535 0.46356 0.0
H1906 H 0.5572 0.48533 0.56438 0.0
H1907 H 0.51561 0.48454 0.42343 0.0
C1908 C 0.51378 0.50646 0.43164 0.0
C1909 C 0.51991 0.5181 0.45852 0.0
C1910 C 0.55275 0.47658 0.54193 0.0
C1911 C 0.5329 0.49192 0.48607 0.0
C1912 C 0.55842 0.46334 0.55635 0.0
C1913 C 0.5522 0.45179 0.52898 0.0
C1914 C 0.5407 0.47823 0.50003 0.0
C1915 C 0.54129 0.45397 0.4855 0.0
C1916 C 0.52021 0.49336 0.44531 0.0
C1917 C 0.53176 0.51618 0.50052 0.0
N1918 N 0.5357 0.46693 0.47267 0.0
N1919 N 0.53802 0.50331 0.51284 0.0
H1920 H 0.93467 0.09564 0.34326 0.0
H1921 H 0.83395 0.05712 0.40667 0.0
H1922 H 0.92887 0.05201 0.37315 0.0
H1923 H 0.83429 0.09811 0.34448 0.0
H1924 H 0.86928 0.05576 0.39544 0.0
H1925 H 0.89863 0.09767 0.34504 0.0
C1926 C 0.92591 0.08651 0.34999 0.0
C1927 C 0.93496 0.07361 0.35768 0.0
C1928 C 0.86176 0.06507 0.38378 0.0
C1929 C 0.89382 0.07586 0.35984 0.0
C1930 C 0.84155 0.06582 0.39027 0.0
C1931 C 0.83123 0.07774 0.37658 0.0
C1932 C 0.87201 0.07641 0.364 0.0
C1933 C 0.84177 0.08871 0.35518 0.0
C1934 C 0.90535 0.08766 0.35071 0.0
C1935 C 0.92277 0.06213 0.36605 0.0
N1936 N 0.86167 0.08786 0.35001 0.0
N1937 N 0.90301 0.06355 0.3671 0.0
H1938 H 0.42568 0.12912 0.4707 0.0
H1939 H 0.34294 0.1594 0.29113 0.0
H1940 H 0.43796 0.14995 0.3324 0.0
H1941 H 0.32962 0.13463 0.42043 0.0
H1942 H 0.3776 0.15567 0.30557 0.0
H1943 H 0.39061 0.13044 0.45244 0.0
C1944 C 0.42099 0.13388 0.43626 0.0
C1945 C 0.43481 0.13951 0.40317 0.0
C1946 C 0.36714 0.15098 0.33072 0.0
C1947 C 0.39458 0.14113 0.38211 0.0
C1948 C 0.34719 0.15304 0.32239 0.0
C1949 C 0.33307 0.14722 0.35432 0.0
C1950 C 0.37329 0.1431 0.3716 0.0
C1951 C 0.33983 0.13941 0.39494 0.0
C1952 C 0.40096 0.13462 0.42585 0.0
C1953 C 0.42789 0.14539 0.35881 0.0
N1954 N 0.35943 0.13759 0.40242 0.0
N1955 N 0.40828 0.14617 0.34984 0.0
H1956 H 0.95512 0.15833 0.98878 0.0
H1957 H 0.87266 0.13312 0.798 0.0
H1958 H 0.96649 0.135 0.8549 0.0
H1959 H 0.85901 0.15527 0.93261 0.0
H1960 H 0.90688 0.13187 0.82355 0.0
H1961 H 0.9199 0.15588 0.97362 0.0
C1962 C 0.95029 0.15266 0.95633 0.0
C1963 C 0.96395 0.14694 0.92297 0.0
C1964 C 0.89646 0.1369 0.84793 0.0
C1965 C 0.92356 0.14401 0.90566 0.0
C1966 C 0.87691 0.1376 0.83329 0.0
C1967 C 0.86307 0.1444 0.86305 0.0
C1968 C 0.90239 0.14321 0.89254 0.0
C1969 C 0.86926 0.1499 0.90874 0.0
C1970 C 0.93014 0.1512 0.94788 0.0
C1971 C 0.9567 0.1395 0.88202 0.0
N1972 N 0.88856 0.14935 0.92185 0.0
N1973 N 0.93709 0.13835 0.87444 0.0
H1974 H 0.36268 0.0836 0.82383 0.0
H1975 H 0.47116 0.09384 0.92999 0.0
H1976 H 0.37563 0.1052 0.96027 0.0
H1977 H 0.45911 0.07929 0.78127 0.0
H1978 H 0.43629 0.09896 0.94031 0.0
H1979 H 0.39789 0.08291 0.8052 0.0
C1980 C 0.37287 0.08841 0.8494 0.0
C1981 C 0.36618 0.09429 0.89402 0.0
C1982 C 0.44132 0.09472 0.90528 0.0
C1983 C 0.40652 0.09332 0.87352 0.0
C1984 C 0.4613 0.09184 0.89932 0.0
C1985 C 0.4682 0.0859 0.85497 0.0
C1986 C 0.42807 0.0916 0.86675 0.0
C1987 C 0.45453 0.0835 0.81665 0.0
C1988 C 0.393 0.08793 0.83898 0.0
C1989 C 0.38013 0.10028 0.92599 0.0
N1990 N 0.43518 0.08623 0.82358 0.0
N1991 N 0.39957 0.0995 0.91543 0.0
H1992 H 0.22027 0.89443 0.68877 0.0
H1993 H 0.11279 0.8982 0.56766 0.0
H1994 H 0.20977 0.90216 0.53297 0.0
H1995 H 0.12371 0.88931 0.72237 0.0
H1996 H 0.14827 0.89792 0.55256 0.0
H1997 H 0.18505 0.89081 0.70051 0.0
C1998 C 0.21064 0.89523 0.65693 0.0
C1999 C 0.21809 0.89878 0.60994 0.0
C2000 C 0.14288 0.89594 0.58977 0.0
C2001 C 0.17758 0.89477 0.62315 0.0
C2002 C 0.1226 0.89601 0.59829 0.0
C2003 C 0.11521 0.89395 0.64647 0.0
C2004 C 0.15589 0.89376 0.62969 0.0
C2005 C 0.1287 0.89125 0.68483 0.0
C2006 C 0.19047 0.89323 0.66367 0.0
C2007 C 0.20475 0.89976 0.57013 0.0
N2008 N 0.1483 0.89133 0.67571 0.0
N2009 N 0.18522 0.89785 0.57769 0.0
H2010 H 0.70598 0.81812 0.71403 0.0
H2011 H 0.62216 0.84687 0.53552 0.0
H2012 H 0.71799 0.84447 0.5878 0.0
H2013 H 0.61039 0.8264 0.6747 0.0
H2014 H 0.65718 0.84665 0.55481 0.0
H2015 H 0.67121 0.8214 0.70071 0.0
C2016 C 0.7015 0.82471 0.68369 0.0
C2017 C 0.71534 0.83105 0.65213 0.0
C2018 C 0.64697 0.84232 0.58143 0.0
C2019 C 0.67488 0.83466 0.63626 0.0
C2020 C 0.62697 0.84243 0.57041 0.0
C2021 C 0.61334 0.83656 0.60342 0.0
C2022 C 0.65352 0.83615 0.62564 0.0
C2023 C 0.62035 0.8311 0.64836 0.0
C2024 C 0.68144 0.82654 0.67607 0.0
C2025 C 0.70812 0.83924 0.61297 0.0
N2026 N 0.63997 0.83088 0.65788 0.0
N2027 N 0.68844 0.84075 0.60607 0.0
H2028 H 0.18787 0.82892 0.07601 0.0
H2029 H 0.07759 0.8468 0.15785 0.0
H2030 H 0.17312 0.8504 0.21146 0.0
H2031 H 0.09234 0.81952 0.03623 0.0
H2032 H 0.11253 0.85024 0.17343 0.0
H2033 H 0.15293 0.82793 0.0548 0.0
C2034 C 0.17731 0.83363 0.10084 0.0
C2035 C 0.18339 0.83966 0.14573 0.0
C2036 C 0.10807 0.84354 0.14322 0.0
C2037 C 0.1434 0.83843 0.12216 0.0
C2038 C 0.08806 0.84149 0.13445 0.0
C2039 C 0.08178 0.83284 0.09558 0.0
C2040 C 0.122 0.83693 0.11286 0.0
C2041 C 0.09626 0.82643 0.06617 0.0
C2042 C 0.15736 0.83295 0.08901 0.0
C2043 C 0.16904 0.84548 0.17683 0.0
N2044 N 0.11559 0.8286 0.07544 0.0
N2045 N 0.14975 0.84466 0.16461 0.0
H2046 H 0.68807 0.90011 0.17704 0.0
H2047 H 0.57943 0.88093 0.08448 0.0
H2048 H 0.6758 0.88049 0.03649 0.0
H2049 H 0.59191 0.90679 0.21165 0.0
H2050 H 0.61469 0.87842 0.07063 0.0
H2051 H 0.65288 0.89984 0.19605 0.0
C2052 C 0.67801 0.89554 0.1506 0.0
C2053 C 0.68485 0.89042 0.10497 0.0
C2054 C 0.60964 0.88459 0.1017 0.0
C2055 C 0.64456 0.89021 0.12602 0.0
C2056 C 0.58944 0.88609 0.1095 0.0
C2057 C 0.58241 0.89407 0.14943 0.0
C2058 C 0.62299 0.89106 0.13409 0.0
C2059 C 0.59635 0.90036 0.18083 0.0
C2060 C 0.65791 0.89549 0.16118 0.0
C2061 C 0.67111 0.88473 0.07178 0.0
N2062 N 0.61585 0.89872 0.17247 0.0
N2063 N 0.65167 0.88484 0.08281 0.0
H2064 H 0.96916 0.57393 0.94236 0.0
H2065 H 0.86277 0.59495 0.83964 0.0
H2066 H 0.95865 0.59052 0.79608 0.0
H2067 H 0.87158 0.56707 0.96262 0.0
H2068 H 0.89835 0.59816 0.83391 0.0
H2069 H 0.93392 0.57597 0.96051 0.0
C2070 C 0.95948 0.57823 0.91448 0.0
C2071 C 0.96675 0.58194 0.86751 0.0
C2072 C 0.89247 0.59148 0.86257 0.0
C2073 C 0.92658 0.58432 0.88782 0.0
C2074 C 0.87216 0.58974 0.8661 0.0
C2075 C 0.86421 0.58063 0.90136 0.0
C2076 C 0.90494 0.58416 0.89485 0.0
C2077 C 0.87712 0.57403 0.93444 0.0
C2078 C 0.93939 0.57931 0.92466 0.0
C2079 C 0.95357 0.58736 0.83248 0.0
N2080 N 0.89683 0.57585 0.93022 0.0
N2081 N 0.93416 0.58835 0.84324 0.0
H2082 H 0.35703 0.6443 0.93431 0.0
H2083 H 0.46518 0.64705 0.81733 0.0
H2084 H 0.36901 0.65115 0.77879 0.0
H2085 H 0.45353 0.63962 0.97275 0.0
H2086 H 0.42989 0.64603 0.80093 0.0
H2087 H 0.3921 0.63996 0.94793 0.0
C2088 C 0.36697 0.64468 0.90296 0.0
C2089 C 0.36011 0.64831 0.85553 0.0
C2090 C 0.43507 0.64452 0.8386 0.0
C2091 C 0.40025 0.64351 0.87072 0.0
C2092 C 0.45526 0.64502 0.84788 0.0
C2093 C 0.46237 0.64363 0.8966 0.0
C2094 C 0.42186 0.6426 0.87829 0.0
C2095 C 0.44872 0.64108 0.93479 0.0
C2096 C 0.38701 0.6423 0.91072 0.0
C2097 C 0.3737 0.64871 0.8162 0.0
N2098 N 0.42919 0.64077 0.92492 0.0
N2099 N 0.39307 0.64648 0.82472 0.0
H2100 H 0.94748 0.65151 0.31159 0.0
H2101 H 0.83777 0.63585 0.40245 0.0
H2102 H 0.93272 0.6306 0.4481 0.0
H2103 H 0.85095 0.65876 0.26875 0.0
H2104 H 0.87262 0.63176 0.41438 0.0
H2105 H 0.91251 0.65209 0.28971 0.0
C2106 C 0.93693 0.64683 0.33649 0.0
C2107 C 0.94299 0.64111 0.38194 0.0
C2108 C 0.86792 0.63762 0.38223 0.0
C2109 C 0.90301 0.64186 0.35758 0.0
C2110 C 0.84791 0.6399 0.37517 0.0
C2111 C 0.84125 0.64773 0.33456 0.0
C2112 C 0.88155 0.64322 0.34858 0.0
C2113 C 0.85533 0.65286 0.30102 0.0
C2114 C 0.91696 0.64726 0.32423 0.0
C2115 C 0.92866 0.63531 0.41309 0.0
N2116 N 0.87478 0.65057 0.30889 0.0
N2117 N 0.90941 0.63591 0.4005 0.0
H2118 H 0.33867 0.58971 0.33157 0.0
H2119 H 0.44595 0.58222 0.44971 0.0
H2120 H 0.34894 0.58406 0.48869 0.0
H2121 H 0.43436 0.5877 0.29343 0.0
H2122 H 0.41088 0.5858 0.46692 0.0
H2123 H 0.37391 0.59185 0.31878 0.0
C2124 C 0.34825 0.58908 0.36353 0.0
C2125 C 0.3407 0.58652 0.41122 0.0
C2126 C 0.41607 0.58639 0.42892 0.0
C2127 C 0.38134 0.58878 0.39671 0.0
C2128 C 0.43609 0.58446 0.41923 0.0
C2129 C 0.44297 0.5845 0.37007 0.0
C2130 C 0.40296 0.58843 0.3891 0.0
C2131 C 0.42957 0.58734 0.33179 0.0
C2132 C 0.36846 0.59023 0.35617 0.0
C2133 C 0.35403 0.58571 0.45108 0.0
N2134 N 0.41025 0.58906 0.34203 0.0
N2135 N 0.37366 0.58672 0.44289 0.0
H2136 H 0.07825 0.39869 0.05472 0.0
H2137 H 0.18826 0.38713 0.14928 0.0
H2138 H 0.09289 0.39101 0.20823 0.0
H2139 H 0.17404 0.41089 0.01864 0.0
H2140 H 0.15316 0.38323 0.16361 0.0
H2141 H 0.11324 0.39819 0.03381 0.0
C2142 C 0.08883 0.39674 0.08389 0.0
C2143 C 0.08271 0.39497 0.13334 0.0
C2144 C 0.15777 0.38915 0.13146 0.0
C2145 C 0.12265 0.3943 0.10969 0.0
C2146 C 0.17776 0.39125 0.12301 0.0
C2147 C 0.18401 0.3994 0.08285 0.0
C2148 C 0.14396 0.39505 0.09905 0.0
C2149 C 0.16978 0.40465 0.05024 0.0
C2150 C 0.10876 0.39652 0.072 0.0
C2151 C 0.09704 0.3926 0.1698 0.0
N2152 N 0.15042 0.40242 0.0591 0.0
N2153 N 0.11635 0.39232 0.15726 0.0
H2154 H 0.57656 0.33889 0.15775 0.0
H2155 H 0.68508 0.33052 0.04938 0.0
H2156 H 0.589 0.32594 0.0074 0.0
H2157 H 0.67216 0.34715 0.19451 0.0
H2158 H 0.64995 0.331 0.02982 0.0
H2159 H 0.61138 0.34411 0.16915 0.0
C2160 C 0.58653 0.3373 0.12695 0.0
C2161 C 0.57982 0.33173 0.08186 0.0
C2162 C 0.65484 0.3347 0.06575 0.0
C2163 C 0.6198 0.33755 0.09473 0.0
C2164 C 0.67491 0.33452 0.07671 0.0
C2165 C 0.68152 0.3386 0.12388 0.0
C2166 C 0.64132 0.33897 0.10229 0.0
C2167 C 0.66765 0.34362 0.15808 0.0
C2168 C 0.60645 0.34023 0.1335 0.0
C2169 C 0.59352 0.32985 0.04329 0.0
N2170 N 0.64825 0.34351 0.14686 0.0
N2171 N 0.61282 0.33262 0.05075 0.0
H2172 H 0.2043 0.335 0.71213 0.0
H2173 H 0.12066 0.31965 0.51509 0.0
H2174 H 0.21617 0.33125 0.55517 0.0
H2175 H 0.10835 0.33819 0.65736 0.0
H2176 H 0.15573 0.32352 0.52894 0.0
H2177 H 0.16911 0.33557 0.69386 0.0
C2178 C 0.19949 0.33431 0.67384 0.0
C2179 C 0.21318 0.33302 0.63513 0.0
C2180 C 0.14537 0.32695 0.55684 0.0
C2181 C 0.17296 0.33363 0.61393 0.0
C2182 C 0.12539 0.32476 0.54889 0.0
C2183 C 0.11165 0.32863 0.58511 0.0
C2184 C 0.15172 0.33278 0.6019 0.0
C2185 C 0.11847 0.33518 0.62836 0.0
C2186 C 0.17942 0.33475 0.66339 0.0
C2187 C 0.20614 0.33235 0.58609 0.0
N2188 N 0.13807 0.33685 0.63595 0.0
N2189 N 0.18654 0.3325 0.57694 0.0
H2190 H 0.62288 0.37128 0.67427 0.0
H2191 H 0.70705 0.41041 0.52379 0.0
H2192 H 0.61155 0.39998 0.5551 0.0
H2193 H 0.71894 0.37869 0.63267 0.0
H2194 H 0.6722 0.40614 0.53318 0.0
H2195 H 0.65798 0.37302 0.65731 0.0
C2196 C 0.62781 0.37785 0.64417 0.0
C2197 C 0.61429 0.38558 0.61629 0.0
C2198 C 0.6824 0.40005 0.55487 0.0
C2199 C 0.65452 0.38772 0.59686 0.0
C2200 C 0.70243 0.40243 0.54941 0.0
C2201 C 0.71617 0.39484 0.57725 0.0
C2202 C 0.67584 0.39004 0.58873 0.0
C2203 C 0.709 0.38489 0.61071 0.0
C2204 C 0.64785 0.37884 0.6345 0.0
C2205 C 0.62144 0.39379 0.57731 0.0
N2206 N 0.68935 0.3828 0.61556 0.0
N2207 N 0.64108 0.39476 0.56911 0.0
H2208 H 1.00211 0.08194 0.21853 0.0
H2209 H 0.05959 0.14021 0.06952 0.0
H2210 H 0.02773 0.11764 0.28915 0.0
H2211 H 1.02425 0.10912 -0.00282 0.0
H2212 H 0.04865 0.13172 0.15003 0.0
H2213 H 1.00938 0.09189 0.13724 0.0
C2214 C 1.00893 0.09205 0.21674 0.0
C2215 C 1.01436 0.09902 0.26037 0.0
C2216 C 0.04327 0.12673 0.11663 0.0
C2217 C 1.02323 0.11028 0.16755 0.0
C2218 C 0.04965 0.13149 0.07052 0.0
C2219 C 0.04284 0.12534 0.02642 0.0
C2220 C 0.03006 0.11567 0.11892 0.0
C2221 C 0.02997 0.1141 0.03019 0.0
C2222 C 1.01316 0.09768 0.17036 0.0
C2223 C 1.02317 0.11203 0.25626 0.0
N2224 N 1.02398 0.10961 0.07572 0.0
N2225 N 0.02762 0.11717 0.21048 0.0
H2226 H 0.27819 0.08305 0.07452 0.0
H2227 H 0.22552 0.1466 0.20704 0.0
H2228 H 0.25863 0.11906 0.99387 0.0
H2229 H 0.25872 0.11563 0.28616 0.0
H2230 H 0.23339 0.13511 0.1288 0.0
H2231 H 0.26778 0.09368 0.1518 0.0
C2232 C 0.27168 0.09325 0.07304 0.0
C2233 C 0.26921 0.10019 0.02758 0.0
C2234 C 0.23882 0.13077 0.16328 0.0
C2235 C 0.25712 0.11241 0.11657 0.0
C2236 C 0.23422 0.13724 0.2081 0.0
C2237 C 0.2416 0.13211 0.2533 0.0
C2238 C 0.25077 0.11901 0.1636 0.0
C2239 C 0.2527 0.11993 0.25229 0.0
C2240 C 0.26577 0.09931 0.11737 0.0
C2241 C 0.26087 0.11342 0.02815 0.0
N2242 N 0.25705 0.11384 0.20805 0.0
N2243 N 0.25499 0.1191 0.07212 0.0
H2244 H 0.96968 0.84151 0.94953 0.0
H2245 H 0.04969 0.88116 0.78566 0.0
H2246 H 1.02138 0.86066 0.01097 0.0
H2247 H 0.99513 0.86611 0.72629 0.0
H2248 H 0.04111 0.8715 0.86688 0.0
H2249 H 0.97927 0.8495 0.86693 0.0
C2250 C 0.98287 0.84765 0.9457 0.0
C2251 C 0.99471 0.85051 0.98714 0.0
C2252 C 0.03116 0.87003 0.83596 0.0
C2253 C 1.00608 0.85934 0.89246 0.0
C2254 C 0.03623 0.87531 0.78947 0.0
C2255 C 1.02328 0.87407 0.74932 0.0
C2256 C 1.01285 0.86366 0.84237 0.0
C2257 C 1.00569 0.8669 0.75622 0.0
C2258 C 0.98843 0.85209 0.89846 0.0
C2259 C 1.01171 0.8584 0.9801 0.0
N2260 N 1.00088 0.86204 0.80212 0.0
N2261 N 1.01698 0.86245 0.93351 0.0
H2262 H 0.79039 0.86711 0.71588 0.0
H2263 H 0.78678 0.86244 0.01313 0.0
H2264 H 0.81631 0.83352 0.7986 0.0
H2265 H 0.77733 0.90015 0.93072 0.0
H2266 H 0.79528 0.85078 0.93452 0.0
H2267 H 0.78362 0.87896 0.79461 0.0
C2268 C 0.79488 0.86232 0.75045 0.0
C2269 C 0.8039 0.84932 0.7506 0.0
C2270 C 0.79137 0.86162 0.93393 0.0
C2271 C 0.79586 0.86261 0.8407 0.0
C2272 C 0.78644 0.86822 0.97864 0.0
C2273 C 0.78144 0.88226 0.97846 0.0
C2274 C 0.791 0.86913 0.88901 0.0
C2275 C 0.78126 0.88932 0.93276 0.0
C2276 C 0.79094 0.86903 0.7954 0.0
C2277 C 0.80929 0.84353 0.79663 0.0
N2278 N 0.78589 0.88268 0.89 0.0
N2279 N 0.80503 0.85015 0.8398 0.0
H2280 H 0.0443 0.6146 0.77873 0.0
H2281 H 0.04061 0.61125 0.48117 0.0
H2282 H 0.06462 0.57947 0.69404 0.0
H2283 H 0.03737 0.64935 0.56444 0.0
H2284 H 0.04713 0.59885 0.55934 0.0
H2285 H 0.03973 0.6273 0.70052 0.0
C2286 C 0.04799 0.60962 0.74387 0.0
C2287 C 0.05482 0.59596 0.74301 0.0
C2288 C 0.04505 0.60994 0.56027 0.0
C2289 C 0.04931 0.61026 0.65358 0.0
C2290 C 0.04127 0.61698 0.51574 0.0
C2291 C 0.0385 0.63133 0.51623 0.0
C2292 C 0.04577 0.61732 0.60544 0.0
C2293 C 0.03952 0.63828 0.56213 0.0
C2294 C 0.04532 0.61683 0.69924 0.0
C2295 C 0.05927 0.58998 0.69664 0.0
N2296 N 0.04297 0.63122 0.60479 0.0
N2297 N 0.05629 0.59711 0.65386 0.0
H2298 H 0.28597 0.65264 0.69059 0.0
H2299 H 0.23583 0.58906 0.55217 0.0
H2300 H 0.26106 0.61791 0.76888 0.0
H2301 H 0.27053 0.61995 0.47672 0.0
H2302 H 0.24293 0.60026 0.63129 0.0
H2303 H 0.27952 0.64113 0.61187 0.0
C2304 C 0.27928 0.64247 0.69109 0.0
C2305 C 0.27393 0.63619 0.73609 0.0
C2306 C 0.24893 0.60462 0.59745 0.0
C2307 C 0.26623 0.62305 0.646 0.0
C2308 C 0.24477 0.59831 0.55215 0.0
C2309 C 0.25267 0.60357 0.50775 0.0
C2310 C 0.26101 0.61632 0.59841 0.0
C2311 C 0.26409 0.61558 0.51 0.0
C2312 C 0.27558 0.63593 0.64612 0.0
C2313 C 0.26547 0.62302 0.73484 0.0
N2314 N 0.26799 0.62153 0.55471 0.0
N2315 N 0.26167 0.6169 0.69026 0.0
H2316 H 0.04017 0.32661 0.4361 0.0
H2317 H 0.9834 0.38739 0.2969 0.0
H2318 H 1.01252 0.3604 0.51372 0.0
H2319 H 1.01828 0.35686 0.2203 0.0
H2320 H 0.99277 0.37716 0.37616 0.0
H2321 H 0.03214 0.33747 0.35702 0.0
C2322 C 0.03257 0.33645 0.43643 0.0
C2323 C 0.02695 0.34262 0.48149 0.0
C2324 C 0.99834 0.37265 0.34209 0.0
C2325 C 1.01738 0.35503 0.39074 0.0
C2326 C 0.99289 0.37842 0.29665 0.0
C2327 C 1.00007 0.37297 0.25172 0.0
C2328 C 1.01104 0.36128 0.34288 0.0
C2329 C 1.01231 0.36135 0.25392 0.0
C2330 C 0.02795 0.34262 0.39119 0.0
C2331 C 1.01724 0.35536 0.47979 0.0
N2332 N 1.01744 0.35591 0.29879 0.0
N2333 N 1.01256 0.36109 0.43501 0.0
H2334 H 0.76469 0.3292 0.30331 0.0
H2335 H 0.82109 0.39118 0.43566 0.0
H2336 H 0.78825 0.36392 0.22219 0.0
H2337 H 0.78612 0.36119 0.51491 0.0
H2338 H 0.81224 0.38008 0.35741 0.0
H2339 H 0.77455 0.33998 0.38095 0.0
C2340 C 0.7719 0.33918 0.30192 0.0
C2341 C 0.77576 0.34569 0.25633 0.0
C2342 C 0.8066 0.37589 0.39191 0.0
C2343 C 0.78729 0.35803 0.34537 0.0
C2344 C 0.81176 0.38213 0.43671 0.0
C2345 C 0.80424 0.37713 0.48195 0.0
C2346 C 0.79391 0.36451 0.39231 0.0
C2347 C 0.79228 0.36537 0.48097 0.0
C2348 C 0.77752 0.34531 0.34634 0.0
C2349 C 0.78494 0.35863 0.25668 0.0
N2350 N 0.7874 0.35949 0.43676 0.0
N2351 N 0.79057 0.36437 0.30071 0.0
H2352 H 0.54623 0.1186 0.78196 0.0
H2353 H 0.53422 0.11213 0.48793 0.0
H2354 H 0.56215 0.08179 0.70042 0.0
H2355 H 0.53784 0.15123 0.56505 0.0
H2356 H 0.54286 0.10037 0.56598 0.0
H2357 H 0.54153 0.13065 0.70266 0.0
C2358 C 0.54892 0.11311 0.7475 0.0
C2359 C 0.5545 0.09919 0.74778 0.0
C2360 C 0.54187 0.11154 0.56546 0.0
C2361 C 0.5489 0.11275 0.65731 0.0
C2362 C 0.53693 0.11822 0.52105 0.0
C2363 C 0.53523 0.13264 0.52004 0.0
C2364 C 0.54486 0.11938 0.60893 0.0
C2365 C 0.53891 0.14007 0.56401 0.0
C2366 C 0.54622 0.11996 0.70229 0.0
C2367 C 0.55777 0.09254 0.702 0.0
N2368 N 0.54339 0.13336 0.60668 0.0
N2369 N 0.55473 0.09934 0.65862 0.0
H2370 H 0.76049 0.11674 0.75328 0.0
H2371 H 0.76307 0.11983 0.45517 0.0
H2372 H 0.78144 0.15184 0.66969 0.0
H2373 H 0.72955 0.08969 0.53769 0.0
H2374 H 0.77178 0.13107 0.53379 0.0
H2375 H 0.75171 0.10537 0.67436 0.0
C2376 C 0.76343 0.12195 0.71839 0.0
C2377 C 0.77156 0.13523 0.71784 0.0
C2378 C 0.7624 0.12204 0.53456 0.0
C2379 C 0.76155 0.12249 0.62814 0.0
C2380 C 0.75733 0.1157 0.48967 0.0
C2381 C 0.74561 0.10381 0.48983 0.0
C2382 C 0.75584 0.11637 0.57981 0.0
C2383 C 0.73869 0.09883 0.53574 0.0
C2384 C 0.75829 0.11556 0.6735 0.0
C2385 C 0.77499 0.14163 0.67175 0.0
N2386 N 0.74403 0.10506 0.57888 0.0
N2387 N 0.76997 0.13521 0.62883 0.0
H2388 H 0.51092 0.86468 0.51296 0.0
H2389 H 0.50584 0.85884 0.21678 0.0
H2390 H 0.51983 0.8266 0.43224 0.0
H2391 H 0.47969 0.89255 0.2986 0.0
H2392 H 0.51266 0.8472 0.29572 0.0
H2393 H 0.50161 0.87593 0.43426 0.0
C2394 C 0.51097 0.85873 0.4788 0.0
C2395 C 0.51607 0.84472 0.47907 0.0
C2396 C 0.50526 0.8571 0.29627 0.0
C2397 C 0.50557 0.85736 0.38966 0.0
C2398 C 0.50128 0.86369 0.25122 0.0
C2399 C 0.49227 0.87669 0.2511 0.0
C2400 C 0.50038 0.86364 0.34135 0.0
C2401 C 0.48675 0.88255 0.2969 0.0
C2402 C 0.50556 0.86509 0.43408 0.0
C2403 C 0.51585 0.83742 0.43387 0.0
N2404 N 0.49108 0.87605 0.34022 0.0
N2405 N 0.51077 0.84383 0.39107 0.0
H2406 H 0.28883 0.8634 0.53932 0.0
H2407 H 0.28545 0.86864 0.24223 0.0
H2408 H 0.31559 0.89672 0.45669 0.0
H2409 H 0.27546 0.83075 0.3232 0.0
H2410 H 0.29386 0.88005 0.32127 0.0
H2411 H 0.28165 0.85171 0.46038 0.0
C2412 C 0.29339 0.86816 0.50474 0.0
C2413 C 0.30276 0.88104 0.50462 0.0
C2414 C 0.28985 0.86922 0.32146 0.0
C2415 C 0.29429 0.86796 0.41449 0.0
C2416 C 0.28497 0.86277 0.27651 0.0
C2417 C 0.27987 0.84875 0.27617 0.0
C2418 C 0.28932 0.8616 0.3661 0.0
C2419 C 0.27949 0.84156 0.32161 0.0
C2420 C 0.28922 0.86155 0.45972 0.0
C2421 C 0.30826 0.88681 0.45864 0.0
N2422 N 0.28409 0.84806 0.36466 0.0
N2423 N 0.30379 0.88029 0.41547 0.0
H2424 H 0.5367 0.61059 0.97663 0.0
H2425 H 0.54 0.6131 0.27452 0.0
H2426 H 0.56498 0.64321 0.05959 0.0
H2427 H 0.52322 0.5771 0.18974 0.0
H2428 H 0.54696 0.62524 0.19602 0.0
H2429 H 0.53029 0.59849 0.05489 0.0
C2430 C 0.5418 0.6151 0.01117 0.0
C2431 C 0.55131 0.62792 0.01163 0.0
C2432 C 0.54172 0.61468 0.19481 0.0
C2433 C 0.54371 0.61436 0.10115 0.0
C2434 C 0.53761 0.60784 0.23947 0.0
C2435 C 0.53117 0.5941 0.23843 0.0
C2436 C 0.53914 0.60771 0.14925 0.0
C2437 C 0.52838 0.58766 0.19217 0.0
C2438 C 0.53803 0.60826 0.05585 0.0
C2439 C 0.5575 0.63336 0.0575 0.0
N2440 N 0.53239 0.59451 0.14948 0.0
N2441 N 0.55346 0.6266 0.10047 0.0
H2442 H 0.77459 0.61081 0.26028 0.0
H2443 H 0.77347 0.61856 0.96293 0.0
H2444 H 0.74817 0.64521 0.18298 0.0
H2445 H 0.79079 0.58143 0.04018 0.0
H2446 H 0.76739 0.62967 0.04378 0.0
H2447 H 0.78298 0.60053 0.17978 0.0
C2448 C 0.77039 0.61612 0.22645 0.0
C2449 C 0.76065 0.62885 0.22834 0.0
C2450 C 0.77266 0.61912 0.0429 0.0
C2451 C 0.77047 0.61734 0.13635 0.0
C2452 C 0.77629 0.61286 0.99687 0.0
C2453 C 0.78248 0.59907 0.99511 0.0
C2454 C 0.77542 0.61151 0.08703 0.0
C2455 C 0.78579 0.59205 0.04001 0.0
C2456 C 0.77528 0.61032 0.18053 0.0
C2457 C 0.75569 0.63536 0.18333 0.0
N2458 N 0.78215 0.59832 0.08409 0.0
N2459 N 0.76071 0.62956 0.1392 0.0
H2460 H 0.48817 0.32671 0.92054 0.0
H2461 H 0.51178 0.39797 0.78659 0.0
H2462 H 0.5038 0.3639 0.00018 0.0
H2463 H 0.51595 0.35867 0.71092 0.0
H2464 H 0.50352 0.38606 0.86304 0.0
H2465 H 0.49298 0.33883 0.84219 0.0
C2466 C 0.49247 0.33748 0.92165 0.0
C2467 C 0.4957 0.34431 0.9671 0.0
C2468 C 0.5062 0.38002 0.82977 0.0
C2469 C 0.50119 0.35819 0.87721 0.0
C2470 C 0.51087 0.38679 0.78586 0.0
C2471 C 0.51473 0.37927 0.74218 0.0
C2472 C 0.50516 0.3656 0.83025 0.0
C2473 C 0.51317 0.36484 0.74377 0.0
C2474 C 0.49529 0.34435 0.87678 0.0
C2475 C 0.50121 0.35825 0.96604 0.0
N2476 N 0.50852 0.35843 0.7873 0.0
N2477 N 0.50381 0.36475 0.92168 0.0
H2478 H 0.31377 0.34241 0.78767 0.0
H2479 H 0.24998 0.39858 0.93176 0.0
H2480 H 0.27486 0.37096 0.71381 0.0
H2481 H 0.2825 0.3665 0.00634 0.0
H2482 H 0.2584 0.38833 0.85178 0.0
H2483 H 0.30316 0.35147 0.86779 0.0
C2484 C 0.30313 0.35071 0.78825 0.0
C2485 C 0.29518 0.35595 0.7439 0.0
C2486 C 0.26352 0.38339 0.8855 0.0
C2487 C 0.28276 0.36623 0.83582 0.0
C2488 C 0.25863 0.38919 0.93117 0.0
C2489 C 0.26559 0.38334 0.9755 0.0
C2490 C 0.27572 0.37175 0.88404 0.0
C2491 C 0.27672 0.37121 0.9729 0.0
C2492 C 0.29697 0.35579 0.83412 0.0
C2493 C 0.28146 0.36669 0.74703 0.0
N2494 N 0.28168 0.36589 0.92772 0.0
N2495 N 0.27564 0.37145 0.79228 0.0
loop_
_geom_bond_atom_site_label_1
_geom_bond_atom_site_label_2
_geom_bond_distance
_geom_bond_site_symmetry_2
_ccdc_geom_bond_type
C0 C1 1.351 . S
C0 N3 1.368 . S
C0 H5 0.931 . S
C1 C0 1.351 . S
C1 N2 1.373 . S
C1 H29 0.930 . S
N2 C1 1.373 . S
N2 C4 1.340 . S
N3 C0 1.368 . S
N3 C4 1.321 . S
N3 Co6 2.196 . S
C4 N2 1.340 . S
C4 N3 1.321 . S
C4 H28 0.930 . S
H5 C0 0.931 . S
Co6 N3 2.196 . S
Co6 N9 2.059 1_655 S
Co6 O14 2.054 . S
Co6 O17 2.049 . S
Co6 N20 2.136 1_655 S
C7 O8 1.227 . S
C7 O17 1.265 . S
O8 C7 1.227 . S
N9 Co6 2.059 1_455 S
N9 C11 1.375 . S
N9 C12 1.313 . S
C10 C11 1.338 . S
C10 N13 1.377 . S
C10 H30 0.930 . S
C11 N9 1.375 . S
C11 C10 1.338 . S
C11 H15 0.931 . S
C12 N9 1.313 . S
C12 N13 1.344 . S
C12 H16 0.930 . S
N13 C10 1.377 . S
N13 C12 1.344 . S
O14 Co6 2.054 . S
O14 C18 1.250 1_655 S
H15 C11 0.931 . S
H16 C12 0.930 . S
O17 Co6 2.049 . S
O17 C7 1.265 . S
C18 O14 1.250 1_455 S
C18 O19 1.227 . S
O19 C18 1.227 . S
N20 Co6 2.136 1_455 S
N20 C23 1.346 1_455 S
N20 C24 1.345 . S
C21 C22 1.387 1_455 S
C21 C25 1.391 . S
C22 C21 1.387 1_655 S
C22 C23 1.369 . S
C22 H31 0.929 . S
C23 N20 1.346 1_655 S
C23 C22 1.369 . S
C23 H26 0.928 . S
C24 N20 1.345 . S
C24 C25 1.371 . S
C24 H27 0.931 . S
C25 C21 1.391 . S
C25 C24 1.371 . S
C25 H32 0.930 . S
H26 C23 0.928 . S
H27 C24 0.931 . S
H28 C4 0.930 . S
H29 C1 0.930 . S
H30 C10 0.930 . S
H31 C22 0.929 . S
H32 C25 0.930 . S
C33 C34 1.351 . S
C33 N36 1.368 . S
C33 H38 0.931 . S
C34 C33 1.351 . S
C34 N35 1.373 . S
C34 H62 0.930 . S
N35 C34 1.373 . S
N35 C37 1.340 . S
N36 C33 1.368 . S
N36 C37 1.321 . S
N36 Co39 2.135 . S
C37 N35 1.340 . S
C37 N36 1.321 . S
C37 H61 0.930 . S
H38 C33 0.931 . S
Co39 N36 2.135 . S
Co39 N42 2.121 . S
Co39 O47 2.055 . S
Co39 O50 2.039 . S
Co39 N53 2.140 . S
C40 O41 1.227 . S
C40 O50 1.265 . S
O41 C40 1.227 . S
N42 Co39 2.121 . S
N42 C44 1.375 . S
N42 C45 1.313 . S
C43 C44 1.338 . S
C43 N46 1.377 . S
C43 H63 0.930 . S
C44 N42 1.375 . S
C44 C43 1.338 . S
C44 H48 0.931 . S
C45 N42 1.313 . S
C45 N46 1.344 . S
C45 H49 0.930 . S
N46 C43 1.377 . S
N46 C45 1.344 . S
O47 Co39 2.055 . S
O47 C51 1.253 . S
H48 C44 0.931 . S
H49 C45 0.930 . S
O50 Co39 2.039 . S
O50 C40 1.265 . S
C51 O47 1.253 . S
C51 O52 1.227 . S
O52 C51 1.227 . S
N53 Co39 2.140 . S
N53 C56 1.346 . S
N53 C57 1.345 . S
C54 C55 1.387 . S
C54 C58 1.391 . S
C55 C54 1.387 . S
C55 C56 1.369 . S
C55 H64 0.929 . S
C56 N53 1.346 . S
C56 C55 1.369 . S
C56 H59 0.928 . S
C57 N53 1.345 . S
C57 C58 1.371 . S
C57 H60 0.931 . S
C58 C54 1.391 . S
C58 C57 1.371 . S
C58 H65 0.930 . S
H59 C56 0.928 . S
H60 C57 0.931 . S
H61 C37 0.930 . S
H62 C34 0.930 . S
H63 C43 0.930 . S
H64 C55 0.929 . S
H65 C58 0.930 . S
C66 C67 1.351 . S
C66 N69 1.368 . S
C66 H71 0.931 . S
C67 C66 1.351 . S
C67 N68 1.373 . S
C67 H95 0.930 . S
N68 C67 1.373 . S
N68 C70 1.340 . S
N69 C66 1.368 . S
N69 C70 1.321 . S
N69 Co72 2.196 . S
C70 N68 1.340 . S
C70 N69 1.321 . S
C70 H94 0.930 . S
H71 C66 0.931 . S
Co72 N69 2.196 . S
Co72 N75 2.059 1_655 S
Co72 O80 2.054 . S
Co72 O83 2.049 . S
Co72 N86 2.136 1_655 S
C73 O74 1.227 . S
C73 O83 1.265 . S
O74 C73 1.227 . S
N75 Co72 2.059 1_455 S
N75 C77 1.375 . S
N75 C78 1.313 . S
C76 C77 1.338 . S
C76 N79 1.377 . S
C76 H96 0.930 . S
C77 N75 1.375 . S
C77 C76 1.338 . S
C77 H81 0.931 . S
C78 N75 1.313 . S
C78 N79 1.344 . S
C78 H82 0.930 . S
N79 C76 1.377 . S
N79 C78 1.344 . S
O80 Co72 2.054 . S
O80 C84 1.250 1_655 S
H81 C77 0.931 . S
H82 C78 0.930 . S
O83 Co72 2.049 . S
O83 C73 1.265 . S
C84 O80 1.250 1_455 S
C84 O85 1.227 . S
O85 C84 1.227 . S
N86 Co72 2.136 1_455 S
N86 C89 1.346 1_455 S
N86 C90 1.345 . S
C87 C88 1.387 1_455 S
C87 C91 1.391 . S
C88 C87 1.387 1_655 S
C88 C89 1.369 . S
C88 H97 0.929 . S
C89 N86 1.346 1_655 S
C89 C88 1.369 . S
C89 H92 0.928 . S
C90 N86 1.345 . S
C90 C91 1.371 . S
C90 H93 0.931 . S
C91 C87 1.391 . S
C91 C90 1.371 . S
C91 H98 0.930 . S
H92 C89 0.928 . S
H93 C90 0.931 . S
H94 C70 0.930 . S
H95 C67 0.930 . S
H96 C76 0.930 . S
H97 C88 0.929 . S
H98 C91 0.930 . S
C99 C100 1.351 . S
C99 N102 1.368 . S
C99 H104 0.931 . S
C100 C99 1.351 . S
C100 N101 1.373 . S
C100 H128 0.930 . S
N101 C100 1.373 . S
N101 C103 1.340 . S
N102 C99 1.368 . S
N102 C103 1.321 . S
N102 Co105 2.135 . S
C103 N101 1.340 . S
C103 N102 1.321 . S
C103 H127 0.930 . S
H104 C99 0.931 . S
Co105 N102 2.135 . S
Co105 N108 2.121 . S
Co105 O113 2.055 . S
Co105 O116 2.039 . S
Co105 N119 2.140 . S
C106 O107 1.227 . S
C106 O116 1.265 . S
O107 C106 1.227 . S
N108 Co105 2.121 . S
N108 C110 1.375 . S
N108 C111 1.313 . S
C109 C110 1.338 . S
C109 N112 1.377 . S
C109 H129 0.930 . S
C110 N108 1.375 . S
C110 C109 1.338 . S
C110 H114 0.931 . S
C111 N108 1.313 . S
C111 N112 1.344 . S
C111 H115 0.930 . S
N112 C109 1.377 . S
N112 C111 1.344 . S
O113 Co105 2.055 . S
O113 C117 1.253 . S
H114 C110 0.931 . S
H115 C111 0.930 . S
O116 Co105 2.039 . S
O116 C106 1.265 . S
C117 O113 1.253 . S
C117 O118 1.227 . S
O118 C117 1.227 . S
N119 Co105 2.140 . S
N119 C122 1.346 . S
N119 C123 1.345 . S
C120 C121 1.387 . S
C120 C124 1.391 . S
C121 C120 1.387 . S
C121 C122 1.369 . S
C121 H130 0.929 . S
C122 N119 1.346 . S
C122 C121 1.369 . S
C122 H125 0.928 . S
C123 N119 1.345 . S
C123 C124 1.371 . S
C123 H126 0.931 . S
C124 C120 1.391 . S
C124 C123 1.371 . S
C124 H131 0.930 . S
H125 C122 0.928 . S
H126 C123 0.931 . S
H127 C103 0.930 . S
H128 C100 0.930 . S
H129 C109 0.930 . S
H130 C121 0.929 . S
H131 C124 0.930 . S
C132 C133 1.351 . S
C132 N135 1.368 . S
C132 H137 0.931 . S
C133 C132 1.351 . S
C133 N134 1.373 . S
C133 H161 0.930 . S
N134 C133 1.373 . S
N134 C136 1.340 . S
N135 C132 1.368 . S
N135 C136 1.321 . S
N135 Co138 2.196 . S
C136 N134 1.340 . S
C136 N135 1.321 . S
C136 H160 0.930 . S
H137 C132 0.931 . S
Co138 N135 2.196 . S
Co138 N141 2.059 1_455 S
Co138 O146 2.054 . S
Co138 O149 2.049 . S
Co138 N152 2.136 1_455 S
C139 O140 1.227 . S
C139 O149 1.265 . S
O140 C139 1.227 . S
N141 Co138 2.059 1_655 S
N141 C143 1.375 . S
N141 C144 1.313 . S
C142 C143 1.338 . S
C142 N145 1.377 . S
C142 H162 0.930 . S
C143 N141 1.375 . S
C143 C142 1.338 . S
C143 H147 0.931 . S
C144 N141 1.313 . S
C144 N145 1.344 . S
C144 H148 0.930 . S
N145 C142 1.377 . S
N145 C144 1.344 . S
O146 Co138 2.054 . S
O146 C150 1.250 1_455 S
H147 C143 0.931 . S
H148 C144 0.930 . S
O149 Co138 2.049 . S
O149 C139 1.265 . S
C150 O146 1.250 1_655 S
C150 O151 1.227 . S
O151 C150 1.227 . S
N152 Co138 2.136 1_655 S
N152 C155 1.346 1_655 S
N152 C156 1.345 . S
C153 C154 1.387 1_655 S
C153 C157 1.391 . S
C154 C153 1.387 1_455 S
C154 C155 1.369 . S
C154 H163 0.929 . S
C155 N152 1.346 1_455 S
C155 C154 1.369 . S
C155 H158 0.928 . S
C156 N152 1.345 . S
C156 C157 1.371 . S
C156 H159 0.931 . S
C157 C153 1.391 . S
C157 C156 1.371 . S
C157 H164 0.930 . S
H158 C155 0.928 . S
H159 C156 0.931 . S
H160 C136 0.930 . S
H161 C133 0.930 . S
H162 C142 0.930 . S
H163 C154 0.929 . S
H164 C157 0.930 . S
C165 C166 1.351 . S
C165 N168 1.368 . S
C165 H170 0.931 . S
C166 C165 1.351 . S
C166 N167 1.373 . S
C166 H194 0.930 . S
N167 C166 1.373 . S
N167 C169 1.340 . S
N168 C165 1.368 . S
N168 C169 1.321 . S
N168 Co171 2.135 . S
C169 N167 1.340 . S
C169 N168 1.321 . S
C169 H193 0.930 . S
H170 C165 0.931 . S
Co171 N168 2.135 . S
Co171 N174 2.121 . S
Co171 O179 2.055 . S
Co171 O182 2.039 . S
Co171 N185 2.140 . S
C172 O173 1.227 . S
C172 O182 1.265 . S
O173 C172 1.227 . S
N174 Co171 2.121 . S
N174 C176 1.375 . S
N174 C177 1.313 . S
C175 C176 1.338 . S
C175 N178 1.377 . S
C175 H195 0.930 . S
C176 N174 1.375 . S
C176 C175 1.338 . S
C176 H180 0.931 . S
C177 N174 1.313 . S
C177 N178 1.344 . S
C177 H181 0.930 . S
N178 C175 1.377 . S
N178 C177 1.344 . S
O179 Co171 2.055 . S
O179 C183 1.253 . S
H180 C176 0.931 . S
H181 C177 0.930 . S
O182 Co171 2.039 . S
O182 C172 1.265 . S
C183 O179 1.253 . S
C183 O184 1.227 . S
O184 C183 1.227 . S
N185 Co171 2.140 . S
N185 C188 1.346 . S
N185 C189 1.345 . S
C186 C187 1.387 . S
C186 C190 1.391 . S
C187 C186 1.387 . S
C187 C188 1.369 . S
C187 H196 0.929 . S
C188 N185 1.346 . S
C188 C187 1.369 . S
C188 H191 0.928 . S
C189 N185 1.345 . S
C189 C190 1.371 . S
C189 H192 0.931 . S
C190 C186 1.391 . S
C190 C189 1.371 . S
C190 H197 0.930 . S
H191 C188 0.928 . S
H192 C189 0.931 . S
H193 C169 0.930 . S
H194 C166 0.930 . S
H195 C175 0.930 . S
H196 C187 0.929 . S
H197 C190 0.930 . S
C198 C199 1.351 . S
C198 N201 1.368 . S
C198 H203 0.931 . S
C199 C198 1.351 . S
C199 N200 1.373 . S
C199 H227 0.930 . S
N200 C199 1.373 . S
N200 C202 1.340 . S
N201 C198 1.368 . S
N201 C202 1.321 . S
N201 Co204 2.196 . S
C202 N200 1.340 . S
C202 N201 1.321 . S
C202 H226 0.930 . S
H203 C198 0.931 . S
Co204 N201 2.196 . S
Co204 N207 2.059 1_455 S
Co204 O212 2.054 . S
Co204 O215 2.049 . S
Co204 N218 2.136 1_455 S
C205 O206 1.227 . S
C205 O215 1.265 . S
O206 C205 1.227 . S
N207 Co204 2.059 1_655 S
N207 C209 1.375 . S
N207 C210 1.313 . S
C208 C209 1.338 . S
C208 N211 1.377 . S
C208 H228 0.930 . S
C209 N207 1.375 . S
C209 C208 1.338 . S
C209 H213 0.931 . S
C210 N207 1.313 . S
C210 N211 1.344 . S
C210 H214 0.930 . S
N211 C208 1.377 . S
N211 C210 1.344 . S
O212 Co204 2.054 . S
O212 C216 1.250 1_455 S
H213 C209 0.931 . S
H214 C210 0.930 . S
O215 Co204 2.049 . S
O215 C205 1.265 . S
C216 O212 1.250 1_655 S
C216 O217 1.227 . S
O217 C216 1.227 . S
N218 Co204 2.136 1_655 S
N218 C221 1.346 1_655 S
N218 C222 1.345 . S
C219 C220 1.387 1_655 S
C219 C223 1.391 . S
C220 C219 1.387 1_455 S
C220 C221 1.369 . S
C220 H229 0.929 . S
C221 N218 1.346 1_455 S
C221 C220 1.369 . S
C221 H224 0.928 . S
C222 N218 1.345 . S
C222 C223 1.371 . S
C222 H225 0.931 . S
C223 C219 1.391 . S
C223 C222 1.371 . S
C223 H230 0.930 . S
H224 C221 0.928 . S
H225 C222 0.931 . S
H226 C202 0.930 . S
H227 C199 0.930 . S
H228 C208 0.930 . S
H229 C220 0.929 . S
H230 C223 0.930 . S
C231 C232 1.351 . S
C231 N234 1.368 . S
C231 H236 0.931 . S
C232 C231 1.351 . S
C232 N233 1.373 . S
C232 H260 0.930 . S
N233 C232 1.373 . S
N233 C235 1.340 . S
N234 C231 1.368 . S
N234 C235 1.321 . S
N234 Co237 2.135 . S
C235 N233 1.340 . S
C235 N234 1.321 . S
C235 H259 0.930 . S
H236 C231 0.931 . S
Co237 N234 2.135 . S
Co237 N240 2.121 . S
Co237 O245 2.055 . S
Co237 O248 2.039 . S
Co237 N251 2.140 . S
C238 O239 1.227 . S
C238 O248 1.265 . S
O239 C238 1.227 . S
N240 Co237 2.121 . S
N240 C242 1.375 . S
N240 C243 1.313 . S
C241 C242 1.338 . S
C241 N244 1.377 . S
C241 H261 0.930 . S
C242 N240 1.375 . S
C242 C241 1.338 . S
C242 H246 0.931 . S
C243 N240 1.313 . S
C243 N244 1.344 . S
C243 H247 0.930 . S
N244 C241 1.377 . S
N244 C243 1.344 . S
O245 Co237 2.055 . S
O245 C249 1.253 . S
H246 C242 0.931 . S
H247 C243 0.930 . S
O248 Co237 2.039 . S
O248 C238 1.265 . S
C249 O245 1.253 . S
C249 O250 1.227 . S
O250 C249 1.227 . S
N251 Co237 2.140 . S
N251 C254 1.346 . S
N251 C255 1.345 . S
C252 C253 1.387 . S
C252 C256 1.391 . S
C253 C252 1.387 . S
C253 C254 1.369 . S
C253 H262 0.929 . S
C254 N251 1.346 . S
C254 C253 1.369 . S
C254 H257 0.928 . S
C255 N251 1.345 . S
C255 C256 1.371 . S
C255 H258 0.931 . S
C256 C252 1.391 . S
C256 C255 1.371 . S
C256 H263 0.930 . S
H257 C254 0.928 . S
H258 C255 0.931 . S
H259 C235 0.930 . S
H260 C232 0.930 . S
H261 C241 0.930 . S
H262 C253 0.929 . S
H263 C256 0.930 . S
C264 C265 1.351 . S
C264 N267 1.368 . S
C264 H269 0.931 . S
C265 C264 1.351 . S
C265 N266 1.373 . S
C265 H293 0.930 . S
N266 C265 1.373 . S
N266 C268 1.340 . S
N267 C264 1.368 . S
N267 C268 1.321 . S
N267 Co270 2.196 . S
C268 N266 1.340 . S
C268 N267 1.321 . S
C268 H292 0.930 . S
H269 C264 0.931 . S
Co270 N267 2.196 . S
Co270 N273 2.059 1_655 S
Co270 O278 2.054 . S
Co270 O281 2.049 . S
Co270 N284 2.136 1_655 S
C271 O272 1.227 . S
C271 O281 1.265 . S
O272 C271 1.227 . S
N273 Co270 2.059 1_455 S
N273 C275 1.375 . S
N273 C276 1.313 . S
C274 C275 1.338 . S
C274 N277 1.377 . S
C274 H294 0.930 . S
C275 N273 1.375 . S
C275 C274 1.338 . S
C275 H279 0.931 . S
C276 N273 1.313 . S
C276 N277 1.344 . S
C276 H280 0.930 . S
N277 C274 1.377 . S
N277 C276 1.344 . S
O278 Co270 2.054 . S
O278 C282 1.250 1_655 S
H279 C275 0.931 . S
H280 C276 0.930 . S
O281 Co270 2.049 . S
O281 C271 1.265 . S
C282 O278 1.250 1_455 S
C282 O283 1.227 . S
O283 C282 1.227 . S
N284 Co270 2.136 1_455 S
N284 C287 1.346 1_455 S
N284 C288 1.345 . S
C285 C286 1.387 1_455 S
C285 C289 1.391 . S
C286 C285 1.387 1_655 S
C286 C287 1.369 . S
C286 H295 0.929 . S
C287 N284 1.346 1_655 S
C287 C286 1.369 . S
C287 H290 0.928 . S
C288 N284 1.345 . S
C288 C289 1.371 . S
C288 H291 0.931 . S
C289 C285 1.391 . S
C289 C288 1.371 . S
C289 H296 0.930 . S
H290 C287 0.928 . S
H291 C288 0.931 . S
H292 C268 0.930 . S
H293 C265 0.930 . S
H294 C274 0.930 . S
H295 C286 0.929 . S
H296 C289 0.930 . S
C297 C298 1.351 . S
C297 N300 1.368 . S
C297 H302 0.931 . S
C298 C297 1.351 . S
C298 N299 1.373 . S
C298 H326 0.930 . S
N299 C298 1.373 . S
N299 C301 1.340 . S
N300 C297 1.368 . S
N300 C301 1.321 . S
N300 Co303 2.135 . S
C301 N299 1.340 . S
C301 N300 1.321 . S
C301 H325 0.930 . S
H302 C297 0.931 . S
Co303 N300 2.135 . S
Co303 N306 2.121 . S
Co303 O311 2.055 . S
Co303 O314 2.039 . S
Co303 N317 2.140 . S
C304 O305 1.227 . S
C304 O314 1.265 . S
O305 C304 1.227 . S
N306 Co303 2.121 . S
N306 C308 1.375 . S
N306 C309 1.313 . S
C307 C308 1.338 . S
C307 N310 1.377 . S
C307 H327 0.930 . S
C308 N306 1.375 . S
C308 C307 1.338 . S
C308 H312 0.931 . S
C309 N306 1.313 . S
C309 N310 1.344 . S
C309 H313 0.930 . S
N310 C307 1.377 . S
N310 C309 1.344 . S
O311 Co303 2.055 . S
O311 C315 1.253 . S
H312 C308 0.931 . S
H313 C309 0.930 . S
O314 Co303 2.039 . S
O314 C304 1.265 . S
C315 O311 1.253 . S
C315 O316 1.227 . S
O316 C315 1.227 . S
N317 Co303 2.140 . S
N317 C320 1.346 . S
N317 C321 1.345 . S
C318 C319 1.387 . S
C318 C322 1.391 . S
C319 C318 1.387 . S
C319 C320 1.369 . S
C319 H328 0.929 . S
C320 N317 1.346 . S
C320 C319 1.369 . S
C320 H323 0.928 . S
C321 N317 1.345 . S
C321 C322 1.371 . S
C321 H324 0.931 . S
C322 C318 1.391 . S
C322 C321 1.371 . S
C322 H329 0.930 . S
H323 C320 0.928 . S
H324 C321 0.931 . S
H325 C301 0.930 . S
H326 C298 0.930 . S
H327 C307 0.930 . S
H328 C319 0.929 . S
H329 C322 0.930 . S
C330 C331 1.351 . S
C330 N333 1.368 . S
C330 H335 0.931 . S
C331 C330 1.351 . S
C331 N332 1.373 . S
C331 H359 0.930 . S
N332 C331 1.373 . S
N332 C334 1.340 . S
N333 C330 1.368 . S
N333 C334 1.321 . S
N333 Co336 2.196 . S
C334 N332 1.340 . S
C334 N333 1.321 . S
C334 H358 0.930 . S
H335 C330 0.931 . S
Co336 N333 2.196 . S
Co336 N339 2.059 1_655 S
Co336 O344 2.054 . S
Co336 O347 2.049 . S
Co336 N350 2.136 1_655 S
C337 O338 1.227 . S
C337 O347 1.265 . S
O338 C337 1.227 . S
N339 Co336 2.059 1_455 S
N339 C341 1.375 . S
N339 C342 1.313 . S
C340 C341 1.338 . S
C340 N343 1.377 . S
C340 H360 0.930 . S
C341 N339 1.375 . S
C341 C340 1.338 . S
C341 H345 0.931 . S
C342 N339 1.313 . S
C342 N343 1.344 . S
C342 H346 0.930 . S
N343 C340 1.377 . S
N343 C342 1.344 . S
O344 Co336 2.054 . S
O344 C348 1.250 1_655 S
H345 C341 0.931 . S
H346 C342 0.930 . S
O347 Co336 2.049 . S
O347 C337 1.265 . S
C348 O344 1.250 1_455 S
C348 O349 1.227 . S
O349 C348 1.227 . S
N350 Co336 2.136 1_455 S
N350 C353 1.346 1_455 S
N350 C354 1.345 . S
C351 C352 1.387 1_455 S
C351 C355 1.391 . S
C352 C351 1.387 1_655 S
C352 C353 1.369 . S
C352 H361 0.929 . S
C353 N350 1.346 1_655 S
C353 C352 1.369 . S
C353 H356 0.928 . S
C354 N350 1.345 . S
C354 C355 1.371 . S
C354 H357 0.931 . S
C355 C351 1.391 . S
C355 C354 1.371 . S
C355 H362 0.930 . S
H356 C353 0.928 . S
H357 C354 0.931 . S
H358 C334 0.930 . S
H359 C331 0.930 . S
H360 C340 0.930 . S
H361 C352 0.929 . S
H362 C355 0.930 . S
C363 C364 1.351 . S
C363 N366 1.368 . S
C363 H368 0.931 . S
C364 C363 1.351 . S
C364 N365 1.373 . S
C364 H392 0.930 . S
N365 C364 1.373 . S
N365 C367 1.340 . S
N366 C363 1.368 . S
N366 C367 1.321 . S
N366 Co369 2.135 . S
C367 N365 1.340 . S
C367 N366 1.321 . S
C367 H391 0.930 . S
H368 C363 0.931 . S
Co369 N366 2.135 . S
Co369 N372 2.121 . S
Co369 O377 2.055 . S
Co369 O380 2.039 . S
Co369 N383 2.140 . S
C370 O371 1.227 . S
C370 O380 1.265 . S
O371 C370 1.227 . S
N372 Co369 2.121 . S
N372 C374 1.375 . S
N372 C375 1.313 . S
C373 C374 1.338 . S
C373 N376 1.377 . S
C373 H393 0.930 . S
C374 N372 1.375 . S
C374 C373 1.338 . S
C374 H378 0.931 . S
C375 N372 1.313 . S
C375 N376 1.344 . S
C375 H379 0.930 . S
N376 C373 1.377 . S
N376 C375 1.344 . S
O377 Co369 2.055 . S
O377 C381 1.253 . S
H378 C374 0.931 . S
H379 C375 0.930 . S
O380 Co369 2.039 . S
O380 C370 1.265 . S
C381 O377 1.253 . S
C381 O382 1.227 . S
O382 C381 1.227 . S
N383 Co369 2.140 . S
N383 C386 1.346 . S
N383 C387 1.345 . S
C384 C385 1.387 . S
C384 C388 1.391 . S
C385 C384 1.387 . S
C385 C386 1.369 . S
C385 H394 0.929 . S
C386 N383 1.346 . S
C386 C385 1.369 . S
C386 H389 0.928 . S
C387 N383 1.345 . S
C387 C388 1.371 . S
C387 H390 0.931 . S
C388 C384 1.391 . S
C388 C387 1.371 . S
C388 H395 0.930 . S
H389 C386 0.928 . S
H390 C387 0.931 . S
H391 C367 0.930 . S
H392 C364 0.930 . S
H393 C373 0.930 . S
H394 C385 0.929 . S
H395 C388 0.930 . S
C396 C397 1.351 . S
C396 N399 1.368 . S
C396 H401 0.931 . S
C397 C396 1.351 . S
C397 N398 1.373 . S
C397 H425 0.930 . S
N398 C397 1.373 . S
N398 C400 1.340 . S
N399 C396 1.368 . S
N399 C400 1.321 . S
N399 Co402 2.196 . S
C400 N398 1.340 . S
C400 N399 1.321 . S
C400 H424 0.930 . S
H401 C396 0.931 . S
Co402 N399 2.196 . S
Co402 N405 2.059 1_455 S
Co402 O410 2.054 . S
Co402 O413 2.049 . S
Co402 N416 2.136 1_455 S
C403 O404 1.227 . S
C403 O413 1.265 . S
O404 C403 1.227 . S
N405 Co402 2.059 1_655 S
N405 C407 1.375 . S
N405 C408 1.313 . S
C406 C407 1.338 . S
C406 N409 1.377 . S
C406 H426 0.930 . S
C407 N405 1.375 . S
C407 C406 1.338 . S
C407 H411 0.931 . S
C408 N405 1.313 . S
C408 N409 1.344 . S
C408 H412 0.930 . S
N409 C406 1.377 . S
N409 C408 1.344 . S
O410 Co402 2.054 . S
O410 C414 1.250 1_455 S
H411 C407 0.931 . S
H412 C408 0.930 . S
O413 Co402 2.049 . S
O413 C403 1.265 . S
C414 O410 1.250 1_655 S
C414 O415 1.227 . S
O415 C414 1.227 . S
N416 Co402 2.136 1_655 S
N416 C419 1.346 1_655 S
N416 C420 1.345 . S
C417 C418 1.387 1_655 S
C417 C421 1.391 . S
C418 C417 1.387 1_455 S
C418 C419 1.369 . S
C418 H427 0.929 . S
C419 N416 1.346 1_455 S
C419 C418 1.369 . S
C419 H422 0.928 . S
C420 N416 1.345 . S
C420 C421 1.371 . S
C420 H423 0.931 . S
C421 C417 1.391 . S
C421 C420 1.371 . S
C421 H428 0.930 . S
H422 C419 0.928 . S
H423 C420 0.931 . S
H424 C400 0.930 . S
H425 C397 0.930 . S
H426 C406 0.930 . S
H427 C418 0.929 . S
H428 C421 0.930 . S
C429 C430 1.351 . S
C429 N432 1.368 . S
C429 H434 0.931 . S
C430 C429 1.351 . S
C430 N431 1.373 . S
C430 H458 0.930 . S
N431 C430 1.373 . S
N431 C433 1.340 . S
N432 C429 1.368 . S
N432 C433 1.321 . S
N432 Co435 2.135 . S
C433 N431 1.340 . S
C433 N432 1.321 . S
C433 H457 0.930 . S
H434 C429 0.931 . S
Co435 N432 2.135 . S
Co435 N438 2.121 . S
Co435 O443 2.055 . S
Co435 O446 2.039 . S
Co435 N449 2.140 . S
C436 O437 1.227 . S
C436 O446 1.265 . S
O437 C436 1.227 . S
N438 Co435 2.121 . S
N438 C440 1.375 . S
N438 C441 1.313 . S
C439 C440 1.338 . S
C439 N442 1.377 . S
C439 H459 0.930 . S
C440 N438 1.375 . S
C440 C439 1.338 . S
C440 H444 0.931 . S
C441 N438 1.313 . S
C441 N442 1.344 . S
C441 H445 0.930 . S
N442 C439 1.377 . S
N442 C441 1.344 . S
O443 Co435 2.055 . S
O443 C447 1.253 . S
H444 C440 0.931 . S
H445 C441 0.930 . S
O446 Co435 2.039 . S
O446 C436 1.265 . S
C447 O443 1.253 . S
C447 O448 1.227 . S
O448 C447 1.227 . S
N449 Co435 2.140 . S
N449 C452 1.346 . S
N449 C453 1.345 . S
C450 C451 1.387 . S
C450 C454 1.391 . S
C451 C450 1.387 . S
C451 C452 1.369 . S
C451 H460 0.929 . S
C452 N449 1.346 . S
C452 C451 1.369 . S
C452 H455 0.928 . S
C453 N449 1.345 . S
C453 C454 1.371 . S
C453 H456 0.931 . S
C454 C450 1.391 . S
C454 C453 1.371 . S
C454 H461 0.930 . S
H455 C452 0.928 . S
H456 C453 0.931 . S
H457 C433 0.930 . S
H458 C430 0.930 . S
H459 C439 0.930 . S
H460 C451 0.929 . S
H461 C454 0.930 . S
C462 C463 1.351 . S
C462 N465 1.368 . S
C462 H467 0.931 . S
C463 C462 1.351 . S
C463 N464 1.373 . S
C463 H491 0.930 . S
N464 C463 1.373 . S
N464 C466 1.340 . S
N465 C462 1.368 . S
N465 C466 1.321 . S
N465 Co468 2.196 . S
C466 N464 1.340 . S
C466 N465 1.321 . S
C466 H490 0.930 . S
H467 C462 0.931 . S
Co468 N465 2.196 . S
Co468 N471 2.059 1_455 S
Co468 O476 2.054 . S
Co468 O479 2.049 . S
Co468 N482 2.136 1_455 S
C469 O470 1.227 . S
C469 O479 1.265 . S
O470 C469 1.227 . S
N471 Co468 2.059 1_655 S
N471 C473 1.375 . S
N471 C474 1.313 . S
C472 C473 1.338 . S
C472 N475 1.377 . S
C472 H492 0.930 . S
C473 N471 1.375 . S
C473 C472 1.338 . S
C473 H477 0.931 . S
C474 N471 1.313 . S
C474 N475 1.344 . S
C474 H478 0.930 . S
N475 C472 1.377 . S
N475 C474 1.344 . S
O476 Co468 2.054 . S
O476 C480 1.250 1_455 S
H477 C473 0.931 . S
H478 C474 0.930 . S
O479 Co468 2.049 . S
O479 C469 1.265 . S
C480 O476 1.250 1_655 S
C480 O481 1.227 . S
O481 C480 1.227 . S
N482 Co468 2.136 1_655 S
N482 C485 1.346 1_655 S
N482 C486 1.345 . S
C483 C484 1.387 1_655 S
C483 C487 1.391 . S
C484 C483 1.387 1_455 S
C484 C485 1.369 . S
C484 H493 0.929 . S
C485 N482 1.346 1_455 S
C485 C484 1.369 . S
C485 H488 0.928 . S
C486 N482 1.345 . S
C486 C487 1.371 . S
C486 H489 0.931 . S
C487 C483 1.391 . S
C487 C486 1.371 . S
C487 H494 0.930 . S
H488 C485 0.928 . S
H489 C486 0.931 . S
H490 C466 0.930 . S
H491 C463 0.930 . S
H492 C472 0.930 . S
H493 C484 0.929 . S
H494 C487 0.930 . S
C495 C496 1.351 . S
C495 N498 1.368 . S
C495 H500 0.931 . S
C496 C495 1.351 . S
C496 N497 1.373 . S
C496 H524 0.930 . S
N497 C496 1.373 . S
N497 C499 1.340 . S
N498 C495 1.368 . S
N498 C499 1.321 . S
N498 Co501 2.135 . S
C499 N497 1.340 . S
C499 N498 1.321 . S
C499 H523 0.930 . S
H500 C495 0.931 . S
Co501 N498 2.135 . S
Co501 N504 2.121 . S
Co501 O509 2.055 . S
Co501 O512 2.039 . S
Co501 N515 2.140 . S
C502 O503 1.227 . S
C502 O512 1.265 . S
O503 C502 1.227 . S
N504 Co501 2.121 . S
N504 C506 1.375 . S
N504 C507 1.313 . S
C505 C506 1.338 . S
C505 N508 1.377 . S
C505 H525 0.930 . S
C506 N504 1.375 . S
C506 C505 1.338 . S
C506 H510 0.931 . S
C507 N504 1.313 . S
C507 N508 1.344 . S
C507 H511 0.930 . S
N508 C505 1.377 . S
N508 C507 1.344 . S
O509 Co501 2.055 . S
O509 C513 1.253 . S
H510 C506 0.931 . S
H511 C507 0.930 . S
O512 Co501 2.039 . S
O512 C502 1.265 . S
C513 O509 1.253 . S
C513 O514 1.227 . S
O514 C513 1.227 . S
N515 Co501 2.140 . S
N515 C518 1.346 . S
N515 C519 1.345 . S
C516 C517 1.387 . S
C516 C520 1.391 . S
C517 C516 1.387 . S
C517 C518 1.369 . S
C517 H526 0.929 . S
C518 N515 1.346 . S
C518 C517 1.369 . S
C518 H521 0.928 . S
C519 N515 1.345 . S
C519 C520 1.371 . S
C519 H522 0.931 . S
C520 C516 1.391 . S
C520 C519 1.371 . S
C520 H527 0.930 . S
H521 C518 0.928 . S
H522 C519 0.931 . S
H523 C499 0.930 . S
H524 C496 0.930 . S
H525 C505 0.930 . S
H526 C517 0.929 . S
H527 C520 0.930 . S
C528 C529 1.351 . S
C528 N531 1.368 . S
C528 H533 0.931 . S
C529 C528 1.351 . S
C529 N530 1.373 . S
C529 H557 0.930 . S
N530 C529 1.373 . S
N530 C532 1.340 . S
N531 C528 1.368 . S
N531 C532 1.321 . S
N531 Co534 2.135 . S
C532 N530 1.340 . S
C532 N531 1.321 . S
C532 H556 0.930 . S
H533 C528 0.931 . S
Co534 N531 2.135 . S
Co534 N537 2.121 . S
Co534 O542 2.055 . S
Co534 O545 2.039 . S
Co534 N548 2.140 . S
C535 O536 1.227 . S
C535 O545 1.265 . S
O536 C535 1.227 . S
N537 Co534 2.121 . S
N537 C539 1.375 . S
N537 C540 1.313 . S
C538 C539 1.338 . S
C538 N541 1.377 . S
C538 H558 0.930 . S
C539 N537 1.375 . S
C539 C538 1.338 . S
C539 H543 0.931 . S
C540 N537 1.313 . S
C540 N541 1.344 . S
C540 H544 0.930 . S
N541 C538 1.377 . S
N541 C540 1.344 . S
O542 Co534 2.055 . S
O542 C546 1.253 . S
H543 C539 0.931 . S
H544 C540 0.930 . S
O545 Co534 2.039 . S
O545 C535 1.265 . S
C546 O542 1.253 . S
C546 O547 1.227 . S
O547 C546 1.227 . S
N548 Co534 2.140 . S
N548 C551 1.346 . S
N548 C552 1.345 . S
C549 C550 1.387 . S
C549 C553 1.391 . S
C550 C549 1.387 . S
C550 C551 1.369 . S
C550 H559 0.929 . S
C551 N548 1.346 . S
C551 C550 1.369 . S
C551 H554 0.928 . S
C552 N548 1.345 . S
C552 C553 1.371 . S
C552 H555 0.931 . S
C553 C549 1.391 . S
C553 C552 1.371 . S
C553 H560 0.930 . S
H554 C551 0.928 . S
H555 C552 0.931 . S
H556 C532 0.930 . S
H557 C529 0.930 . S
H558 C538 0.930 . S
H559 C550 0.929 . S
H560 C553 0.930 . S
C561 C562 1.351 . S
C561 N564 1.368 . S
C561 H566 0.931 . S
C562 C561 1.351 . S
C562 N563 1.373 . S
C562 H590 0.930 . S
N563 C562 1.373 . S
N563 C565 1.340 . S
N564 C561 1.368 . S
N564 C565 1.321 . S
N564 Co567 2.135 . S
C565 N563 1.340 . S
C565 N564 1.321 . S
C565 H589 0.930 . S
H566 C561 0.931 . S
Co567 N564 2.135 . S
Co567 N570 2.121 . S
Co567 O575 2.055 . S
Co567 O578 2.039 . S
Co567 N581 2.140 . S
C568 O569 1.227 . S
C568 O578 1.265 . S
O569 C568 1.227 . S
N570 Co567 2.121 . S
N570 C572 1.375 . S
N570 C573 1.313 . S
C571 C572 1.338 . S
C571 N574 1.377 . S
C571 H591 0.930 . S
C572 N570 1.375 . S
C572 C571 1.338 . S
C572 H576 0.931 . S
C573 N570 1.313 . S
C573 N574 1.344 . S
C573 H577 0.930 . S
N574 C571 1.377 . S
N574 C573 1.344 . S
O575 Co567 2.055 . S
O575 C579 1.253 . S
H576 C572 0.931 . S
H577 C573 0.930 . S
O578 Co567 2.039 . S
O578 C568 1.265 . S
C579 O575 1.253 . S
C579 O580 1.227 . S
O580 C579 1.227 . S
N581 Co567 2.140 . S
N581 C584 1.346 . S
N581 C585 1.345 . S
C582 C583 1.387 . S
C582 C586 1.391 . S
C583 C582 1.387 . S
C583 C584 1.369 . S
C583 H592 0.929 . S
C584 N581 1.346 . S
C584 C583 1.369 . S
C584 H587 0.928 . S
C585 N581 1.345 . S
C585 C586 1.371 . S
C585 H588 0.931 . S
C586 C582 1.391 . S
C586 C585 1.371 . S
C586 H593 0.930 . S
H587 C584 0.928 . S
H588 C585 0.931 . S
H589 C565 0.930 . S
H590 C562 0.930 . S
H591 C571 0.930 . S
H592 C583 0.929 . S
H593 C586 0.930 . S
C594 C595 1.351 . S
C594 N597 1.368 . S
C594 H599 0.931 . S
C595 C594 1.351 . S
C595 N596 1.373 . S
C595 H623 0.930 . S
N596 C595 1.373 . S
N596 C598 1.340 . S
N597 C594 1.368 . S
N597 C598 1.321 . S
N597 Co600 2.135 . S
C598 N596 1.340 . S
C598 N597 1.321 . S
C598 H622 0.930 . S
H599 C594 0.931 . S
Co600 N597 2.135 . S
Co600 N603 2.121 . S
Co600 O608 2.055 . S
Co600 O611 2.039 . S
Co600 N614 2.140 . S
C601 O602 1.227 . S
C601 O611 1.265 . S
O602 C601 1.227 . S
N603 Co600 2.121 . S
N603 C605 1.375 . S
N603 C606 1.313 . S
C604 C605 1.338 . S
C604 N607 1.377 . S
C604 H624 0.930 . S
C605 N603 1.375 . S
C605 C604 1.338 . S
C605 H609 0.931 . S
C606 N603 1.313 . S
C606 N607 1.344 . S
C606 H610 0.930 . S
N607 C604 1.377 . S
N607 C606 1.344 . S
O608 Co600 2.055 . S
O608 C612 1.253 . S
H609 C605 0.931 . S
H610 C606 0.930 . S
O611 Co600 2.039 . S
O611 C601 1.265 . S
C612 O608 1.253 . S
C612 O613 1.227 . S
O613 C612 1.227 . S
N614 Co600 2.140 . S
N614 C617 1.346 . S
N614 C618 1.345 . S
C615 C616 1.387 . S
C615 C619 1.391 . S
C616 C615 1.387 . S
C616 C617 1.369 . S
C616 H625 0.929 . S
C617 N614 1.346 . S
C617 C616 1.369 . S
C617 H620 0.928 . S
C618 N614 1.345 . S
C618 C619 1.371 . S
C618 H621 0.931 . S
C619 C615 1.391 . S
C619 C618 1.371 . S
C619 H626 0.930 . S
H620 C617 0.928 . S
H621 C618 0.931 . S
H622 C598 0.930 . S
H623 C595 0.930 . S
H624 C604 0.930 . S
H625 C616 0.929 . S
H626 C619 0.930 . S
C627 C628 1.351 . S
C627 N630 1.368 . S
C627 H632 0.931 . S
C628 C627 1.351 . S
C628 N629 1.373 . S
C628 H656 0.930 . S
N629 C628 1.373 . S
N629 C631 1.340 . S
N630 C627 1.368 . S
N630 C631 1.321 . S
N630 Co633 2.135 . S
C631 N629 1.340 . S
C631 N630 1.321 . S
C631 H655 0.930 . S
H632 C627 0.931 . S
Co633 N630 2.135 . S
Co633 N636 2.121 . S
Co633 O641 2.055 . S
Co633 O644 2.039 . S
Co633 N647 2.140 . S
C634 O635 1.227 . S
C634 O644 1.265 . S
O635 C634 1.227 . S
N636 Co633 2.121 . S
N636 C638 1.375 . S
N636 C639 1.313 . S
C637 C638 1.338 . S
C637 N640 1.377 . S
C637 H657 0.930 . S
C638 N636 1.375 . S
C638 C637 1.338 . S
C638 H642 0.931 . S
C639 N636 1.313 . S
C639 N640 1.344 . S
C639 H643 0.930 . S
N640 C637 1.377 . S
N640 C639 1.344 . S
O641 Co633 2.055 . S
O641 C645 1.253 . S
H642 C638 0.931 . S
H643 C639 0.930 . S
O644 Co633 2.039 . S
O644 C634 1.265 . S
C645 O641 1.253 . S
C645 O646 1.227 . S
O646 C645 1.227 . S
N647 Co633 2.140 . S
N647 C650 1.346 . S
N647 C651 1.345 . S
C648 C649 1.387 . S
C648 C652 1.391 . S
C649 C648 1.387 . S
C649 C650 1.369 . S
C649 H658 0.929 . S
C650 N647 1.346 . S
C650 C649 1.369 . S
C650 H653 0.928 . S
C651 N647 1.345 . S
C651 C652 1.371 . S
C651 H654 0.931 . S
C652 C648 1.391 . S
C652 C651 1.371 . S
C652 H659 0.930 . S
H653 C650 0.928 . S
H654 C651 0.931 . S
H655 C631 0.930 . S
H656 C628 0.930 . S
H657 C637 0.930 . S
H658 C649 0.929 . S
H659 C652 0.930 . S
C660 C661 1.351 . S
C660 N663 1.368 . S
C660 H665 0.931 . S
C661 C660 1.351 . S
C661 N662 1.373 . S
C661 H689 0.930 . S
N662 C661 1.373 . S
N662 C664 1.340 . S
N663 C660 1.368 . S
N663 C664 1.321 . S
N663 Co666 2.135 . S
C664 N662 1.340 . S
C664 N663 1.321 . S
C664 H688 0.930 . S
H665 C660 0.931 . S
Co666 N663 2.135 . S
Co666 N669 2.121 . S
Co666 O674 2.055 . S
Co666 O677 2.039 . S
Co666 N680 2.140 . S
C667 O668 1.227 . S
C667 O677 1.265 . S
O668 C667 1.227 . S
N669 Co666 2.121 . S
N669 C671 1.375 . S
N669 C672 1.313 . S
C670 C671 1.338 . S
C670 N673 1.377 . S
C670 H690 0.930 . S
C671 N669 1.375 . S
C671 C670 1.338 . S
C671 H675 0.931 . S
C672 N669 1.313 . S
C672 N673 1.344 . S
C672 H676 0.930 . S
N673 C670 1.377 . S
N673 C672 1.344 . S
O674 Co666 2.055 . S
O674 C678 1.253 . S
H675 C671 0.931 . S
H676 C672 0.930 . S
O677 Co666 2.039 . S
O677 C667 1.265 . S
C678 O674 1.253 . S
C678 O679 1.227 . S
O679 C678 1.227 . S
N680 Co666 2.140 . S
N680 C683 1.346 . S
N680 C684 1.345 . S
C681 C682 1.387 . S
C681 C685 1.391 . S
C682 C681 1.387 . S
C682 C683 1.369 . S
C682 H691 0.929 . S
C683 N680 1.346 . S
C683 C682 1.369 . S
C683 H686 0.928 . S
C684 N680 1.345 . S
C684 C685 1.371 . S
C684 H687 0.931 . S
C685 C681 1.391 . S
C685 C684 1.371 . S
C685 H692 0.930 . S
H686 C683 0.928 . S
H687 C684 0.931 . S
H688 C664 0.930 . S
H689 C661 0.930 . S
H690 C670 0.930 . S
H691 C682 0.929 . S
H692 C685 0.930 . S
C693 C694 1.351 . S
C693 N696 1.368 . S
C693 H698 0.931 . S
C694 C693 1.351 . S
C694 N695 1.373 . S
C694 H722 0.930 . S
N695 C694 1.373 . S
N695 C697 1.340 . S
N696 C693 1.368 . S
N696 C697 1.321 . S
N696 Co699 2.135 . S
C697 N695 1.340 . S
C697 N696 1.321 . S
C697 H721 0.930 . S
H698 C693 0.931 . S
Co699 N696 2.135 . S
Co699 N702 2.121 . S
Co699 O707 2.055 . S
Co699 O710 2.039 . S
Co699 N713 2.140 . S
C700 O701 1.227 . S
C700 O710 1.265 . S
O701 C700 1.227 . S
N702 Co699 2.121 . S
N702 C704 1.375 . S
N702 C705 1.313 . S
C703 C704 1.338 . S
C703 N706 1.377 . S
C703 H723 0.930 . S
C704 N702 1.375 . S
C704 C703 1.338 . S
C704 H708 0.931 . S
C705 N702 1.313 . S
C705 N706 1.344 . S
C705 H709 0.930 . S
N706 C703 1.377 . S
N706 C705 1.344 . S
O707 Co699 2.055 . S
O707 C711 1.253 . S
H708 C704 0.931 . S
H709 C705 0.930 . S
O710 Co699 2.039 . S
O710 C700 1.265 . S
C711 O707 1.253 . S
C711 O712 1.227 . S
O712 C711 1.227 . S
N713 Co699 2.140 . S
N713 C716 1.346 . S
N713 C717 1.345 . S
C714 C715 1.387 . S
C714 C718 1.391 . S
C715 C714 1.387 . S
C715 C716 1.369 . S
C715 H724 0.929 . S
C716 N713 1.346 . S
C716 C715 1.369 . S
C716 H719 0.928 . S
C717 N713 1.345 . S
C717 C718 1.371 . S
C717 H720 0.931 . S
C718 C714 1.391 . S
C718 C717 1.371 . S
C718 H725 0.930 . S
H719 C716 0.928 . S
H720 C717 0.931 . S
H721 C697 0.930 . S
H722 C694 0.930 . S
H723 C703 0.930 . S
H724 C715 0.929 . S
H725 C718 0.930 . S
C726 C727 1.351 . S
C726 N729 1.368 . S
C726 H731 0.931 . S
C727 C726 1.351 . S
C727 N728 1.373 . S
C727 H755 0.930 . S
N728 C727 1.373 . S
N728 C730 1.340 . S
N729 C726 1.368 . S
N729 C730 1.321 . S
N729 Co732 2.135 . S
C730 N728 1.340 . S
C730 N729 1.321 . S
C730 H754 0.930 . S
H731 C726 0.931 . S
Co732 N729 2.135 . S
Co732 N735 2.121 . S
Co732 O740 2.055 . S
Co732 O743 2.039 . S
Co732 N746 2.140 . S
C733 O734 1.227 . S
C733 O743 1.265 . S
O734 C733 1.227 . S
N735 Co732 2.121 . S
N735 C737 1.375 . S
N735 C738 1.313 . S
C736 C737 1.338 . S
C736 N739 1.377 . S
C736 H756 0.930 . S
C737 N735 1.375 . S
C737 C736 1.338 . S
C737 H741 0.931 . S
C738 N735 1.313 . S
C738 N739 1.344 . S
C738 H742 0.930 . S
N739 C736 1.377 . S
N739 C738 1.344 . S
O740 Co732 2.055 . S
O740 C744 1.253 . S
H741 C737 0.931 . S
H742 C738 0.930 . S
O743 Co732 2.039 . S
O743 C733 1.265 . S
C744 O740 1.253 . S
C744 O745 1.227 . S
O745 C744 1.227 . S
N746 Co732 2.140 . S
N746 C749 1.346 . S
N746 C750 1.345 . S
C747 C748 1.387 . S
C747 C751 1.391 . S
C748 C747 1.387 . S
C748 C749 1.369 . S
C748 H757 0.929 . S
C749 N746 1.346 . S
C749 C748 1.369 . S
C749 H752 0.928 . S
C750 N746 1.345 . S
C750 C751 1.371 . S
C750 H753 0.931 . S
C751 C747 1.391 . S
C751 C750 1.371 . S
C751 H758 0.930 . S
H752 C749 0.928 . S
H753 C750 0.931 . S
H754 C730 0.930 . S
H755 C727 0.930 . S
H756 C736 0.930 . S
H757 C748 0.929 . S
H758 C751 0.930 . S
C759 C760 1.351 . S
C759 N762 1.368 . S
C759 H764 0.931 . S
C760 C759 1.351 . S
C760 N761 1.373 . S
C760 H788 0.930 . S
N761 C760 1.373 . S
N761 C763 1.340 . S
N762 C759 1.368 . S
N762 C763 1.321 . S
N762 Co765 2.135 . S
C763 N761 1.340 . S
C763 N762 1.321 . S
C763 H787 0.930 . S
H764 C759 0.931 . S
Co765 N762 2.135 . S
Co765 N768 2.121 . S
Co765 O773 2.055 . S
Co765 O776 2.039 . S
Co765 N779 2.140 . S
C766 O767 1.227 . S
C766 O776 1.265 . S
O767 C766 1.227 . S
N768 Co765 2.121 . S
N768 C770 1.375 . S
N768 C771 1.313 . S
C769 C770 1.338 . S
C769 N772 1.377 . S
C769 H789 0.930 . S
C770 N768 1.375 . S
C770 C769 1.338 . S
C770 H774 0.931 . S
C771 N768 1.313 . S
C771 N772 1.344 . S
C771 H775 0.930 . S
N772 C769 1.377 . S
N772 C771 1.344 . S
O773 Co765 2.055 . S
O773 C777 1.253 . S
H774 C770 0.931 . S
H775 C771 0.930 . S
O776 Co765 2.039 . S
O776 C766 1.265 . S
C777 O773 1.253 . S
C777 O778 1.227 . S
O778 C777 1.227 . S
N779 Co765 2.140 . S
N779 C782 1.346 . S
N779 C783 1.345 . S
C780 C781 1.387 . S
C780 C784 1.391 . S
C781 C780 1.387 . S
C781 C782 1.369 . S
C781 H790 0.929 . S
C782 N779 1.346 . S
C782 C781 1.369 . S
C782 H785 0.928 . S
C783 N779 1.345 . S
C783 C784 1.371 . S
C783 H786 0.931 . S
C784 C780 1.391 . S
C784 C783 1.371 . S
C784 H791 0.930 . S
H785 C782 0.928 . S
H786 C783 0.931 . S
H787 C763 0.930 . S
H788 C760 0.930 . S
H789 C769 0.930 . S
H790 C781 0.929 . S
H791 C784 0.930 . S
C792 C793 1.351 . S
C792 N795 1.368 . S
C792 H797 0.931 . S
C793 C792 1.351 . S
C793 N794 1.373 . S
C793 H821 0.930 . S
N794 C793 1.373 . S
N794 C796 1.340 . S
N795 C792 1.368 . S
N795 C796 1.321 . S
N795 Co798 2.135 . S
C796 N794 1.340 . S
C796 N795 1.321 . S
C796 H820 0.930 . S
H797 C792 0.931 . S
Co798 N795 2.135 . S
Co798 N801 2.121 . S
Co798 O806 2.055 . S
Co798 O809 2.039 . S
Co798 N812 2.140 . S
C799 O800 1.227 . S
C799 O809 1.265 . S
O800 C799 1.227 . S
N801 Co798 2.121 . S
N801 C803 1.375 . S
N801 C804 1.313 . S
C802 C803 1.338 . S
C802 N805 1.377 . S
C802 H822 0.930 . S
C803 N801 1.375 . S
C803 C802 1.338 . S
C803 H807 0.931 . S
C804 N801 1.313 . S
C804 N805 1.344 . S
C804 H808 0.930 . S
N805 C802 1.377 . S
N805 C804 1.344 . S
O806 Co798 2.055 . S
O806 C810 1.253 . S
H807 C803 0.931 . S
H808 C804 0.930 . S
O809 Co798 2.039 . S
O809 C799 1.265 . S
C810 O806 1.253 . S
C810 O811 1.227 . S
O811 C810 1.227 . S
N812 Co798 2.140 . S
N812 C815 1.346 . S
N812 C816 1.345 . S
C813 C814 1.387 . S
C813 C817 1.391 . S
C814 C813 1.387 . S
C814 C815 1.369 . S
C814 H823 0.929 . S
C815 N812 1.346 . S
C815 C814 1.369 . S
C815 H818 0.928 . S
C816 N812 1.345 . S
C816 C817 1.371 . S
C816 H819 0.931 . S
C817 C813 1.391 . S
C817 C816 1.371 . S
C817 H824 0.930 . S
H818 C815 0.928 . S
H819 C816 0.931 . S
H820 C796 0.930 . S
H821 C793 0.930 . S
H822 C802 0.930 . S
H823 C814 0.929 . S
H824 C817 0.930 . S
C825 C826 1.351 . S
C825 N828 1.368 . S
C825 H830 0.931 . S
C826 C825 1.351 . S
C826 N827 1.373 . S
C826 H854 0.930 . S
N827 C826 1.373 . S
N827 C829 1.340 . S
N828 C825 1.368 . S
N828 C829 1.321 . S
N828 Co831 2.135 . S
C829 N827 1.340 . S
C829 N828 1.321 . S
C829 H853 0.930 . S
H830 C825 0.931 . S
Co831 N828 2.135 . S
Co831 N834 2.121 . S
Co831 O839 2.055 . S
Co831 O842 2.039 . S
Co831 N845 2.140 . S
C832 O833 1.227 . S
C832 O842 1.265 . S
O833 C832 1.227 . S
N834 Co831 2.121 . S
N834 C836 1.375 . S
N834 C837 1.313 . S
C835 C836 1.338 . S
C835 N838 1.377 . S
C835 H855 0.930 . S
C836 N834 1.375 . S
C836 C835 1.338 . S
C836 H840 0.931 . S
C837 N834 1.313 . S
C837 N838 1.344 . S
C837 H841 0.930 . S
N838 C835 1.377 . S
N838 C837 1.344 . S
O839 Co831 2.055 . S
O839 C843 1.253 . S
H840 C836 0.931 . S
H841 C837 0.930 . S
O842 Co831 2.039 . S
O842 C832 1.265 . S
C843 O839 1.253 . S
C843 O844 1.227 . S
O844 C843 1.227 . S
N845 Co831 2.140 . S
N845 C848 1.346 . S
N845 C849 1.345 . S
C846 C847 1.387 . S
C846 C850 1.391 . S
C847 C846 1.387 . S
C847 C848 1.369 . S
C847 H856 0.929 . S
C848 N845 1.346 . S
C848 C847 1.369 . S
C848 H851 0.928 . S
C849 N845 1.345 . S
C849 C850 1.371 . S
C849 H852 0.931 . S
C850 C846 1.391 . S
C850 C849 1.371 . S
C850 H857 0.930 . S
H851 C848 0.928 . S
H852 C849 0.931 . S
H853 C829 0.930 . S
H854 C826 0.930 . S
H855 C835 0.930 . S
H856 C847 0.929 . S
H857 C850 0.930 . S
C858 C859 1.351 . S
C858 N861 1.368 . S
C858 H863 0.931 . S
C859 C858 1.351 . S
C859 N860 1.373 . S
C859 H887 0.930 . S
N860 C859 1.373 . S
N860 C862 1.340 . S
N861 C858 1.368 . S
N861 C862 1.321 . S
N861 Co864 2.135 . S
C862 N860 1.340 . S
C862 N861 1.321 . S
C862 H886 0.930 . S
H863 C858 0.931 . S
Co864 N861 2.135 . S
Co864 N867 2.121 . S
Co864 O872 2.055 . S
Co864 O875 2.039 . S
Co864 N878 2.140 . S
C865 O866 1.227 . S
C865 O875 1.265 . S
O866 C865 1.227 . S
N867 Co864 2.121 . S
N867 C869 1.375 . S
N867 C870 1.313 . S
C868 C869 1.338 . S
C868 N871 1.377 . S
C868 H888 0.930 . S
C869 N867 1.375 . S
C869 C868 1.338 . S
C869 H873 0.931 . S
C870 N867 1.313 . S
C870 N871 1.344 . S
C870 H874 0.930 . S
N871 C868 1.377 . S
N871 C870 1.344 . S
O872 Co864 2.055 . S
O872 C876 1.253 . S
H873 C869 0.931 . S
H874 C870 0.930 . S
O875 Co864 2.039 . S
O875 C865 1.265 . S
C876 O872 1.253 . S
C876 O877 1.227 . S
O877 C876 1.227 . S
N878 Co864 2.140 . S
N878 C881 1.346 . S
N878 C882 1.345 . S
C879 C880 1.387 . S
C879 C883 1.391 . S
C880 C879 1.387 . S
C880 C881 1.369 . S
C880 H889 0.929 . S
C881 N878 1.346 . S
C881 C880 1.369 . S
C881 H884 0.928 . S
C882 N878 1.345 . S
C882 C883 1.371 . S
C882 H885 0.931 . S
C883 C879 1.391 . S
C883 C882 1.371 . S
C883 H890 0.930 . S
H884 C881 0.928 . S
H885 C882 0.931 . S
H886 C862 0.930 . S
H887 C859 0.930 . S
H888 C868 0.930 . S
H889 C880 0.929 . S
H890 C883 0.930 . S
C891 C892 1.351 . S
C891 N894 1.368 . S
C891 H896 0.931 . S
C892 C891 1.351 . S
C892 N893 1.373 . S
C892 H920 0.930 . S
N893 C892 1.373 . S
N893 C895 1.340 . S
N894 C891 1.368 . S
N894 C895 1.321 . S
N894 Co897 2.135 . S
C895 N893 1.340 . S
C895 N894 1.321 . S
C895 H919 0.930 . S
H896 C891 0.931 . S
Co897 N894 2.135 . S
Co897 N900 2.121 . S
Co897 O905 2.055 . S
Co897 O908 2.039 . S
Co897 N911 2.140 . S
C898 O899 1.227 . S
C898 O908 1.265 . S
O899 C898 1.227 . S
N900 Co897 2.121 . S
N900 C902 1.375 . S
N900 C903 1.313 . S
C901 C902 1.338 . S
C901 N904 1.377 . S
C901 H921 0.930 . S
C902 N900 1.375 . S
C902 C901 1.338 . S
C902 H906 0.931 . S
C903 N900 1.313 . S
C903 N904 1.344 . S
C903 H907 0.930 . S
N904 C901 1.377 . S
N904 C903 1.344 . S
O905 Co897 2.055 . S
O905 C909 1.253 . S
H906 C902 0.931 . S
H907 C903 0.930 . S
O908 Co897 2.039 . S
O908 C898 1.265 . S
C909 O905 1.253 . S
C909 O910 1.227 . S
O910 C909 1.227 . S
N911 Co897 2.140 . S
N911 C914 1.346 . S
N911 C915 1.345 . S
C912 C913 1.387 . S
C912 C916 1.391 . S
C913 C912 1.387 . S
C913 C914 1.369 . S
C913 H922 0.929 . S
C914 N911 1.346 . S
C914 C913 1.369 . S
C914 H917 0.928 . S
C915 N911 1.345 . S
C915 C916 1.371 . S
C915 H918 0.931 . S
C916 C912 1.391 . S
C916 C915 1.371 . S
C916 H923 0.930 . S
H917 C914 0.928 . S
H918 C915 0.931 . S
H919 C895 0.930 . S
H920 C892 0.930 . S
H921 C901 0.930 . S
H922 C913 0.929 . S
H923 C916 0.930 . S
C924 C925 1.351 . S
C924 N927 1.368 . S
C924 H929 0.931 . S
C925 C924 1.351 . S
C925 N926 1.373 . S
C925 H953 0.930 . S
N926 C925 1.373 . S
N926 C928 1.340 . S
N927 C924 1.368 . S
N927 C928 1.321 . S
N927 Co930 2.135 . S
C928 N926 1.340 . S
C928 N927 1.321 . S
C928 H952 0.930 . S
H929 C924 0.931 . S
Co930 N927 2.135 . S
Co930 N933 2.121 . S
Co930 O938 2.055 . S
Co930 O941 2.039 . S
Co930 N944 2.140 . S
C931 O932 1.227 . S
C931 O941 1.265 . S
O932 C931 1.227 . S
N933 Co930 2.121 . S
N933 C935 1.375 . S
N933 C936 1.313 . S
C934 C935 1.338 . S
C934 N937 1.377 . S
C934 H954 0.930 . S
C935 N933 1.375 . S
C935 C934 1.338 . S
C935 H939 0.931 . S
C936 N933 1.313 . S
C936 N937 1.344 . S
C936 H940 0.930 . S
N937 C934 1.377 . S
N937 C936 1.344 . S
O938 Co930 2.055 . S
O938 C942 1.253 . S
H939 C935 0.931 . S
H940 C936 0.930 . S
O941 Co930 2.039 . S
O941 C931 1.265 . S
C942 O938 1.253 . S
C942 O943 1.227 . S
O943 C942 1.227 . S
N944 Co930 2.140 . S
N944 C947 1.346 . S
N944 C948 1.345 . S
C945 C946 1.387 . S
C945 C949 1.391 . S
C946 C945 1.387 . S
C946 C947 1.369 . S
C946 H955 0.929 . S
C947 N944 1.346 . S
C947 C946 1.369 . S
C947 H950 0.928 . S
C948 N944 1.345 . S
C948 C949 1.371 . S
C948 H951 0.931 . S
C949 C945 1.391 . S
C949 C948 1.371 . S
C949 H956 0.930 . S
H950 C947 0.928 . S
H951 C948 0.931 . S
H952 C928 0.930 . S
H953 C925 0.930 . S
H954 C934 0.930 . S
H955 C946 0.929 . S
H956 C949 0.930 . S
C957 C958 1.351 . S
C957 N960 1.368 . S
C957 H962 0.931 . S
C958 C957 1.351 . S
C958 N959 1.373 . S
C958 H986 0.930 . S
N959 C958 1.373 . S
N959 C961 1.340 . S
N960 C957 1.368 . S
N960 C961 1.321 . S
N960 Co963 2.135 . S
C961 N959 1.340 . S
C961 N960 1.321 . S
C961 H985 0.930 . S
H962 C957 0.931 . S
Co963 N960 2.135 . S
Co963 N966 2.121 . S
Co963 O971 2.055 . S
Co963 O974 2.039 . S
Co963 N977 2.140 . S
C964 O965 1.227 . S
C964 O974 1.265 . S
O965 C964 1.227 . S
N966 Co963 2.121 . S
N966 C968 1.375 . S
N966 C969 1.313 . S
C967 C968 1.338 . S
C967 N970 1.377 . S
C967 H987 0.930 . S
C968 N966 1.375 . S
C968 C967 1.338 . S
C968 H972 0.931 . S
C969 N966 1.313 . S
C969 N970 1.344 . S
C969 H973 0.930 . S
N970 C967 1.377 . S
N970 C969 1.344 . S
O971 Co963 2.055 . S
O971 C975 1.253 . S
H972 C968 0.931 . S
H973 C969 0.930 . S
O974 Co963 2.039 . S
O974 C964 1.265 . S
C975 O971 1.253 . S
C975 O976 1.227 . S
O976 C975 1.227 . S
N977 Co963 2.140 . S
N977 C980 1.346 . S
N977 C981 1.345 . S
C978 C979 1.387 . S
C978 C982 1.391 . S
C979 C978 1.387 . S
C979 C980 1.369 . S
C979 H988 0.929 . S
C980 N977 1.346 . S
C980 C979 1.369 . S
C980 H983 0.928 . S
C981 N977 1.345 . S
C981 C982 1.371 . S
C981 H984 0.931 . S
C982 C978 1.391 . S
C982 C981 1.371 . S
C982 H989 0.930 . S
H983 C980 0.928 . S
H984 C981 0.931 . S
H985 C961 0.930 . S
H986 C958 0.930 . S
H987 C967 0.930 . S
H988 C979 0.929 . S
H989 C982 0.930 . S
C990 C991 1.351 . S
C990 N993 1.368 . S
C990 H995 0.931 . S
C991 C990 1.351 . S
C991 N992 1.373 . S
C991 H1019 0.930 . S
N992 C991 1.373 . S
N992 C994 1.340 . S
N993 C990 1.368 . S
N993 C994 1.321 . S
N993 Co996 2.135 . S
C994 N992 1.340 . S
C994 N993 1.321 . S
C994 H1018 0.930 . S
H995 C990 0.931 . S
Co996 N993 2.135 . S
Co996 N999 2.121 . S
Co996 O1004 2.055 . S
Co996 O1007 2.039 . S
Co996 N1010 2.140 . S
C997 O998 1.227 . S
C997 O1007 1.265 . S
O998 C997 1.227 . S
N999 Co996 2.121 . S
N999 C1001 1.375 . S
N999 C1002 1.313 . S
C1000 C1001 1.338 . S
C1000 N1003 1.377 . S
C1000 H1020 0.930 . S
C1001 N999 1.375 . S
C1001 C1000 1.338 . S
C1001 H1005 0.931 . S
C1002 N999 1.313 . S
C1002 N1003 1.344 . S
C1002 H1006 0.930 . S
N1003 C1000 1.377 . S
N1003 C1002 1.344 . S
O1004 Co996 2.055 . S
O1004 C1008 1.253 . S
H1005 C1001 0.931 . S
H1006 C1002 0.930 . S
O1007 Co996 2.039 . S
O1007 C997 1.265 . S
C1008 O1004 1.253 . S
C1008 O1009 1.227 . S
O1009 C1008 1.227 . S
N1010 Co996 2.140 . S
N1010 C1013 1.346 . S
N1010 C1014 1.345 . S
C1011 C1012 1.387 . S
C1011 C1015 1.391 . S
C1012 C1011 1.387 . S
C1012 C1013 1.369 . S
C1012 H1021 0.929 . S
C1013 N1010 1.346 . S
C1013 C1012 1.369 . S
C1013 H1016 0.928 . S
C1014 N1010 1.345 . S
C1014 C1015 1.371 . S
C1014 H1017 0.931 . S
C1015 C1011 1.391 . S
C1015 C1014 1.371 . S
C1015 H1022 0.930 . S
H1016 C1013 0.928 . S
H1017 C1014 0.931 . S
H1018 C994 0.930 . S
H1019 C991 0.930 . S
H1020 C1000 0.930 . S
H1021 C1012 0.929 . S
H1022 C1015 0.930 . S
C1023 C1024 1.351 . S
C1023 N1026 1.368 . S
C1023 H1028 0.931 . S
C1024 C1023 1.351 . S
C1024 N1025 1.373 . S
C1024 H1052 0.930 . S
N1025 C1024 1.373 . S
N1025 C1027 1.340 . S
N1026 C1023 1.368 . S
N1026 C1027 1.321 . S
N1026 Co1029 2.135 . S
C1027 N1025 1.340 . S
C1027 N1026 1.321 . S
C1027 H1051 0.930 . S
H1028 C1023 0.931 . S
Co1029 N1026 2.135 . S
Co1029 N1032 2.121 . S
Co1029 O1037 2.055 . S
Co1029 O1040 2.039 . S
Co1029 N1043 2.140 . S
C1030 O1031 1.227 . S
C1030 O1040 1.265 . S
O1031 C1030 1.227 . S
N1032 Co1029 2.121 . S
N1032 C1034 1.375 . S
N1032 C1035 1.313 . S
C1033 C1034 1.338 . S
C1033 N1036 1.377 . S
C1033 H1053 0.930 . S
C1034 N1032 1.375 . S
C1034 C1033 1.338 . S
C1034 H1038 0.931 . S
C1035 N1032 1.313 . S
C1035 N1036 1.344 . S
C1035 H1039 0.930 . S
N1036 C1033 1.377 . S
N1036 C1035 1.344 . S
O1037 Co1029 2.055 . S
O1037 C1041 1.253 . S
H1038 C1034 0.931 . S
H1039 C1035 0.930 . S
O1040 Co1029 2.039 . S
O1040 C1030 1.265 . S
C1041 O1037 1.253 . S
C1041 O1042 1.227 . S
O1042 C1041 1.227 . S
N1043 Co1029 2.140 . S
N1043 C1046 1.346 . S
N1043 C1047 1.345 . S
C1044 C1045 1.387 . S
C1044 C1048 1.391 . S
C1045 C1044 1.387 . S
C1045 C1046 1.369 . S
C1045 H1054 0.929 . S
C1046 N1043 1.346 . S
C1046 C1045 1.369 . S
C1046 H1049 0.928 . S
C1047 N1043 1.345 . S
C1047 C1048 1.371 . S
C1047 H1050 0.931 . S
C1048 C1044 1.391 . S
C1048 C1047 1.371 . S
C1048 H1055 0.930 . S
H1049 C1046 0.928 . S
H1050 C1047 0.931 . S
H1051 C1027 0.930 . S
H1052 C1024 0.930 . S
H1053 C1033 0.930 . S
H1054 C1045 0.929 . S
H1055 C1048 0.930 . S
H1056 C1062 0.943 . S
H1057 C1066 0.930 . S
H1058 C1071 0.929 . S
H1059 C1069 0.946 . S
H1060 C1064 0.929 . S
H1061 C1070 0.941 . S
C1062 H1056 0.943 . S
C1062 C1063 1.355 1_455 S
C1062 C1070 1.378 . S
C1063 C1062 1.355 1_655 S
C1063 C1071 1.433 . S
C1064 H1060 0.929 . S
C1064 C1066 1.378 . S
C1064 C1068 1.350 . S
C1065 C1068 1.463 . S
C1065 C1070 1.338 1_655 S
C1065 N1073 1.427 . S
C1066 H1057 0.930 . S
C1066 C1064 1.378 . S
C1066 C1067 1.367 . S
C1067 C1066 1.367 . S
C1067 C1069 1.417 1_655 S
C1068 C1064 1.350 . S
C1068 C1065 1.463 . S
C1068 N1072 1.414 1_655 S
C1069 H1059 0.946 . S
C1069 C1067 1.417 1_455 S
C1069 N1072 1.384 . S
C1070 H1061 0.941 . S
C1070 C1062 1.378 . S
C1070 C1065 1.338 1_455 S
C1071 H1058 0.929 . S
C1071 C1063 1.433 . S
C1071 N1073 1.384 . S
N1072 C1068 1.414 1_455 S
N1072 C1069 1.384 . S
N1073 C1065 1.427 . S
N1073 C1071 1.384 . S
H1074 C1080 0.930 . S
H1075 C1084 0.930 . S
H1076 C1089 0.929 . S
H1077 C1087 0.929 . S
H1078 C1082 0.929 . S
H1079 C1088 0.929 . S
C1080 H1074 0.930 . S
C1080 C1081 1.367 . S
C1080 C1088 1.378 . S
C1081 C1080 1.367 . S
C1081 C1089 1.433 . S
C1082 H1078 0.929 . S
C1082 C1084 1.378 . S
C1082 C1086 1.350 . S
C1083 C1086 1.463 . S
C1083 C1088 1.350 . S
C1083 N1091 1.427 . S
C1084 H1075 0.930 . S
C1084 C1082 1.378 . S
C1084 C1085 1.367 . S
C1085 C1084 1.367 . S
C1085 C1087 1.433 . S
C1086 C1082 1.350 . S
C1086 C1083 1.463 . S
C1086 N1090 1.427 . S
C1087 H1077 0.929 . S
C1087 C1085 1.433 . S
C1087 N1090 1.384 . S
C1088 H1079 0.929 . S
C1088 C1080 1.378 . S
C1088 C1083 1.350 . S
C1089 H1076 0.929 . S
C1089 C1081 1.433 . S
C1089 N1091 1.384 . S
N1090 C1086 1.427 . S
N1090 C1087 1.384 . S
N1091 C1083 1.427 . S
N1091 C1089 1.384 . S
H1092 C1098 0.930 . S
H1093 C1102 0.930 . S
H1094 C1107 0.929 . S
H1095 C1105 0.929 . S
H1096 C1100 0.929 . S
H1097 C1106 0.929 . S
C1098 H1092 0.930 . S
C1098 C1099 1.367 1_655 S
C1098 C1106 1.378 . S
C1099 C1098 1.367 1_455 S
C1099 C1107 1.433 . S
C1100 H1096 0.929 . S
C1100 C1102 1.378 . S
C1100 C1104 1.350 . S
C1101 C1104 1.463 . S
C1101 C1106 1.350 1_455 S
C1101 N1109 1.427 . S
C1102 H1093 0.930 . S
C1102 C1100 1.378 . S
C1102 C1103 1.367 . S
C1103 C1102 1.367 . S
C1103 C1105 1.433 1_455 S
C1104 C1100 1.350 . S
C1104 C1101 1.463 . S
C1104 N1108 1.427 1_455 S
C1105 H1095 0.929 . S
C1105 C1103 1.433 1_655 S
C1105 N1108 1.384 . S
C1106 H1097 0.929 . S
C1106 C1098 1.378 . S
C1106 C1101 1.350 1_655 S
C1107 H1094 0.929 . S
C1107 C1099 1.433 . S
C1107 N1109 1.384 . S
N1108 C1104 1.427 1_655 S
N1108 C1105 1.384 . S
N1109 C1101 1.427 . S
N1109 C1107 1.384 . S
H1110 C1116 0.930 . S
H1111 C1120 0.930 . S
H1112 C1125 0.929 . S
H1113 C1123 0.929 . S
H1114 C1118 0.929 . S
H1115 C1124 0.929 . S
C1116 H1110 0.930 . S
C1116 C1117 1.367 . S
C1116 C1124 1.378 . S
C1117 C1116 1.367 . S
C1117 C1125 1.433 . S
C1118 H1114 0.929 . S
C1118 C1120 1.378 . S
C1118 C1122 1.350 . S
C1119 C1122 1.463 . S
C1119 C1124 1.350 . S
C1119 N1127 1.427 . S
C1120 H1111 0.930 . S
C1120 C1118 1.378 . S
C1120 C1121 1.367 . S
C1121 C1120 1.367 . S
C1121 C1123 1.433 . S
C1122 C1118 1.350 . S
C1122 C1119 1.463 . S
C1122 N1126 1.427 . S
C1123 H1113 0.929 . S
C1123 C1121 1.433 . S
C1123 N1126 1.384 . S
C1124 H1115 0.929 . S
C1124 C1116 1.378 . S
C1124 C1119 1.350 . S
C1125 H1112 0.929 . S
C1125 C1117 1.433 . S
C1125 N1127 1.384 . S
N1126 C1122 1.427 . S
N1126 C1123 1.384 . S
N1127 C1119 1.427 . S
N1127 C1125 1.384 . S
H1128 C1134 0.930 . S
H1129 C1138 0.930 . S
H1130 C1143 0.929 . S
H1131 C1141 0.929 1_556 S
H1132 C1136 0.929 . S
H1133 C1142 0.929 . S
C1134 H1128 0.930 . S
C1134 C1135 1.367 1_455 S
C1134 C1142 1.378 . S
C1135 C1134 1.367 1_655 S
C1135 C1143 1.433 . S
C1136 H1132 0.929 . S
C1136 C1138 1.378 . S
C1136 C1140 1.350 . S
C1137 C1140 1.463 . S
C1137 C1142 1.350 1_655 S
C1137 N1145 1.427 . S
C1138 H1129 0.930 . S
C1138 C1136 1.378 . S
C1138 C1139 1.367 . S
C1139 C1138 1.367 . S
C1139 C1141 1.433 1_655 S
C1140 C1136 1.350 . S
C1140 C1137 1.463 . S
C1140 N1144 1.427 1_655 S
C1141 H1131 0.929 1_554 S
C1141 C1139 1.433 1_455 S
C1141 N1144 1.384 . S
C1142 H1133 0.929 . S
C1142 C1134 1.378 . S
C1142 C1137 1.350 1_455 S
C1143 H1130 0.929 . S
C1143 C1135 1.433 . S
C1143 N1145 1.384 . S
N1144 C1140 1.427 1_455 S
N1144 C1141 1.384 . S
N1145 C1137 1.427 . S
N1145 C1143 1.384 . S
H1146 C1152 0.930 1_556 S
H1147 C1156 0.930 . S
H1148 C1161 0.929 . S
H1149 C1159 0.929 . S
H1150 C1154 0.929 . S
H1151 C1160 0.929 . S
C1152 H1146 0.930 1_554 S
C1152 C1153 1.367 . S
C1152 C1160 1.378 . S
C1153 C1152 1.367 . S
C1153 C1161 1.433 . S
C1154 H1150 0.929 . S
C1154 C1156 1.378 . S
C1154 C1158 1.350 . S
C1155 C1158 1.463 . S
C1155 C1160 1.350 . S
C1155 N1163 1.427 . S
C1156 H1147 0.930 . S
C1156 C1154 1.378 . S
C1156 C1157 1.367 . S
C1157 C1156 1.367 . S
C1157 C1159 1.433 . S
C1158 C1154 1.350 . S
C1158 C1155 1.463 . S
C1158 N1162 1.427 . S
C1159 H1149 0.929 . S
C1159 C1157 1.433 . S
C1159 N1162 1.384 . S
C1160 H1151 0.929 . S
C1160 C1152 1.378 . S
C1160 C1155 1.350 . S
C1161 H1148 0.929 . S
C1161 C1153 1.433 . S
C1161 N1163 1.384 . S
N1162 C1158 1.427 . S
N1162 C1159 1.384 . S
N1163 C1155 1.427 . S
N1163 C1161 1.384 . S
H1164 C1170 0.930 . S
H1165 C1174 0.930 . S
H1166 C1179 0.929 1_554 S
H1167 C1177 0.929 . S
H1168 C1172 0.929 . S
H1169 C1178 0.929 . S
C1170 H1164 0.930 . S
C1170 C1171 1.367 . S
C1170 C1178 1.378 . S
C1171 C1170 1.367 . S
C1171 C1179 1.433 1_455 S
C1172 H1168 0.929 . S
C1172 C1174 1.378 . S
C1172 C1176 1.350 1_655 S
C1173 C1176 1.463 . S
C1173 C1178 1.350 . S
C1173 N1181 1.427 1_455 S
C1174 H1165 0.930 . S
C1174 C1172 1.378 . S
C1174 C1175 1.367 1_655 S
C1175 C1174 1.367 1_455 S
C1175 C1177 1.433 . S
C1176 C1172 1.350 1_455 S
C1176 C1173 1.463 . S
C1176 N1180 1.427 . S
C1177 H1167 0.929 . S
C1177 C1175 1.433 . S
C1177 N1180 1.384 . S
C1178 H1169 0.929 . S
C1178 C1170 1.378 . S
C1178 C1173 1.350 . S
C1179 H1166 0.929 1_556 S
C1179 C1171 1.433 1_655 S
C1179 N1181 1.384 . S
N1180 C1176 1.427 . S
N1180 C1177 1.384 . S
N1181 C1173 1.427 1_655 S
N1181 C1179 1.384 . S
H1182 C1188 0.930 1_554 S
H1183 C1192 0.930 . S
H1184 C1197 0.929 . S
H1185 C1195 0.929 . S
H1186 C1190 0.929 . S
H1187 C1196 0.929 . S
C1188 H1182 0.930 1_556 S
C1188 C1189 1.367 . S
C1188 C1196 1.378 . S
C1189 C1188 1.367 . S
C1189 C1197 1.433 . S
C1190 H1186 0.929 . S
C1190 C1192 1.378 . S
C1190 C1194 1.350 . S
C1191 C1194 1.463 . S
C1191 C1196 1.350 . S
C1191 N1199 1.427 . S
C1192 H1183 0.930 . S
C1192 C1190 1.378 . S
C1192 C1193 1.367 . S
C1193 C1192 1.367 . S
C1193 C1195 1.433 . S
C1194 C1190 1.350 . S
C1194 C1191 1.463 . S
C1194 N1198 1.427 . S
C1195 H1185 0.929 . S
C1195 C1193 1.433 . S
C1195 N1198 1.384 . S
C1196 H1187 0.929 . S
C1196 C1188 1.378 . S
C1196 C1191 1.350 . S
C1197 H1184 0.929 . S
C1197 C1189 1.433 . S
C1197 N1199 1.384 . S
N1198 C1194 1.427 . S
N1198 C1195 1.384 . S
N1199 C1191 1.427 . S
N1199 C1197 1.384 . S
H1200 C1206 0.930 . S
H1201 C1210 0.930 . S
H1202 C1215 0.929 . S
H1203 C1213 0.929 . S
H1204 C1208 0.929 . S
H1205 C1214 0.929 . S
C1206 H1200 0.930 . S
C1206 C1207 1.367 . S
C1206 C1214 1.378 . S
C1207 C1206 1.367 . S
C1207 C1215 1.433 . S
C1208 H1204 0.929 . S
C1208 C1210 1.378 . S
C1208 C1212 1.350 . S
C1209 C1212 1.463 . S
C1209 C1214 1.350 . S
C1209 N1217 1.427 . S
C1210 H1201 0.930 . S
C1210 C1208 1.378 . S
C1210 C1211 1.367 . S
C1211 C1210 1.367 . S
C1211 C1213 1.433 . S
C1212 C1208 1.350 . S
C1212 C1209 1.463 . S
C1212 N1216 1.427 . S
C1213 H1203 0.929 . S
C1213 C1211 1.433 . S
C1213 N1216 1.384 . S
C1214 H1205 0.929 . S
C1214 C1206 1.378 . S
C1214 C1209 1.350 . S
C1215 H1202 0.929 . S
C1215 C1207 1.433 . S
C1215 N1217 1.384 . S
N1216 C1212 1.427 . S
N1216 C1213 1.384 . S
N1217 C1209 1.427 . S
N1217 C1215 1.384 . S
H1218 C1224 0.930 . S
H1219 C1228 0.930 1_556 S
H1220 C1233 0.929 . S
H1221 C1231 0.929 . S
H1222 C1226 0.929 . S
H1223 C1232 0.929 . S
C1224 H1218 0.930 . S
C1224 C1225 1.367 . S
C1224 C1232 1.378 . S
C1225 C1224 1.367 . S
C1225 C1233 1.433 . S
C1226 H1222 0.929 . S
C1226 C1228 1.378 . S
C1226 C1230 1.350 . S
C1227 C1230 1.463 . S
C1227 C1232 1.350 . S
C1227 N1235 1.427 . S
C1228 H1219 0.930 1_554 S
C1228 C1226 1.378 . S
C1228 C1229 1.367 . S
C1229 C1228 1.367 . S
C1229 C1231 1.433 . S
C1230 C1226 1.350 . S
C1230 C1227 1.463 . S
C1230 N1234 1.427 . S
C1231 H1221 0.929 . S
C1231 C1229 1.433 . S
C1231 N1234 1.384 . S
C1232 H1223 0.929 . S
C1232 C1224 1.378 . S
C1232 C1227 1.350 . S
C1233 H1220 0.929 . S
C1233 C1225 1.433 . S
C1233 N1235 1.384 . S
N1234 C1230 1.427 . S
N1234 C1231 1.384 . S
N1235 C1227 1.427 . S
N1235 C1233 1.384 . S
H1236 C1242 0.930 1_554 S
H1237 C1246 0.930 . S
H1238 C1251 0.929 . S
H1239 C1249 0.929 . S
H1240 C1244 0.929 . S
H1241 C1250 0.929 . S
C1242 H1236 0.930 1_556 S
C1242 C1243 1.367 . S
C1242 C1250 1.378 . S
C1243 C1242 1.367 . S
C1243 C1251 1.433 . S
C1244 H1240 0.929 . S
C1244 C1246 1.378 . S
C1244 C1248 1.350 . S
C1245 C1248 1.463 . S
C1245 C1250 1.350 . S
C1245 N1253 1.427 . S
C1246 H1237 0.930 . S
C1246 C1244 1.378 . S
C1246 C1247 1.367 . S
C1247 C1246 1.367 . S
C1247 C1249 1.433 . S
C1248 C1244 1.350 . S
C1248 C1245 1.463 . S
C1248 N1252 1.427 . S
C1249 H1239 0.929 . S
C1249 C1247 1.433 . S
C1249 N1252 1.384 . S
C1250 H1241 0.929 . S
C1250 C1242 1.378 . S
C1250 C1245 1.350 . S
C1251 H1238 0.929 . S
C1251 C1243 1.433 . S
C1251 N1253 1.384 . S
N1252 C1248 1.427 . S
N1252 C1249 1.384 . S
N1253 C1245 1.427 . S
N1253 C1251 1.384 . S
H1254 C1260 0.930 . S
H1255 C1264 0.930 . S
H1256 C1269 0.929 . S
H1257 C1267 0.929 1_554 S
H1258 C1262 0.929 . S
H1259 C1268 0.929 . S
C1260 H1254 0.930 . S
C1260 C1261 1.367 . S
C1260 C1268 1.378 . S
C1261 C1260 1.367 . S
C1261 C1269 1.433 . S
C1262 H1258 0.929 . S
C1262 C1264 1.378 . S
C1262 C1266 1.350 . S
C1263 C1266 1.463 . S
C1263 C1268 1.350 . S
C1263 N1271 1.427 . S
C1264 H1255 0.930 . S
C1264 C1262 1.378 . S
C1264 C1265 1.367 . S
C1265 C1264 1.367 . S
C1265 C1267 1.433 . S
C1266 C1262 1.350 . S
C1266 C1263 1.463 . S
C1266 N1270 1.427 . S
C1267 H1257 0.929 1_556 S
C1267 C1265 1.433 . S
C1267 N1270 1.384 . S
C1268 H1259 0.929 . S
C1268 C1260 1.378 . S
C1268 C1263 1.350 . S
C1269 H1256 0.929 . S
C1269 C1261 1.433 . S
C1269 N1271 1.384 . S
N1270 C1266 1.427 . S
N1270 C1267 1.384 . S
N1271 C1263 1.427 . S
N1271 C1269 1.384 . S
H1272 C1278 0.930 . S
H1273 C1282 0.930 . S
H1274 C1287 0.929 . S
H1275 C1285 0.929 . S
H1276 C1280 0.929 . S
H1277 C1286 0.929 . S
C1278 H1272 0.930 . S
C1278 C1279 1.367 . S
C1278 C1286 1.378 . S
C1279 C1278 1.367 . S
C1279 C1287 1.433 . S
C1280 H1276 0.929 . S
C1280 C1282 1.378 . S
C1280 C1284 1.350 . S
C1281 C1284 1.463 . S
C1281 C1286 1.350 . S
C1281 N1289 1.427 . S
C1282 H1273 0.930 . S
C1282 C1280 1.378 . S
C1282 C1283 1.367 . S
C1283 C1282 1.367 . S
C1283 C1285 1.433 . S
C1284 C1280 1.350 . S
C1284 C1281 1.463 . S
C1284 N1288 1.427 . S
C1285 H1275 0.929 . S
C1285 C1283 1.433 . S
C1285 N1288 1.384 . S
C1286 H1277 0.929 . S
C1286 C1278 1.378 . S
C1286 C1281 1.350 . S
C1287 H1274 0.929 . S
C1287 C1279 1.433 . S
C1287 N1289 1.384 . S
N1288 C1284 1.427 . S
N1288 C1285 1.384 . S
N1289 C1281 1.427 . S
N1289 C1287 1.384 . S
H1290 C1296 0.930 . S
H1291 C1300 0.930 . S
H1292 C1305 0.929 . S
H1293 C1303 0.929 . S
H1294 C1298 0.929 . S
H1295 C1304 0.929 . S
C1296 H1290 0.930 . S
C1296 C1297 1.367 . S
C1296 C1304 1.378 . S
C1297 C1296 1.367 . S
C1297 C1305 1.433 . S
C1298 H1294 0.929 . S
C1298 C1300 1.378 . S
C1298 C1302 1.350 . S
C1299 C1302 1.463 . S
C1299 C1304 1.350 . S
C1299 N1307 1.427 . S
C1300 H1291 0.930 . S
C1300 C1298 1.378 . S
C1300 C1301 1.367 . S
C1301 C1300 1.367 . S
C1301 C1303 1.433 . S
C1302 C1298 1.350 . S
C1302 C1299 1.463 . S
C1302 N1306 1.427 . S
C1303 H1293 0.929 . S
C1303 C1301 1.433 . S
C1303 N1306 1.384 . S
C1304 H1295 0.929 . S
C1304 C1296 1.378 . S
C1304 C1299 1.350 . S
C1305 H1292 0.929 . S
C1305 C1297 1.433 . S
C1305 N1307 1.384 . S
N1306 C1302 1.427 . S
N1306 C1303 1.384 . S
N1307 C1299 1.427 . S
N1307 C1305 1.384 . S
H1308 C1314 0.930 . S
H1309 C1318 0.930 . S
H1310 C1323 0.929 . S
H1311 C1321 0.929 . S
H1312 C1316 0.929 . S
H1313 C1322 0.929 . S
C1314 H1308 0.930 . S
C1314 C1315 1.367 . S
C1314 C1322 1.378 . S
C1315 C1314 1.367 . S
C1315 C1323 1.433 . S
C1316 H1312 0.929 . S
C1316 C1318 1.378 . S
C1316 C1320 1.350 . S
C1317 C1320 1.463 . S
C1317 C1322 1.350 . S
C1317 N1325 1.427 . S
C1318 H1309 0.930 . S
C1318 C1316 1.378 . S
C1318 C1319 1.367 . S
C1319 C1318 1.367 . S
C1319 C1321 1.433 . S
C1320 C1316 1.350 . S
C1320 C1317 1.463 . S
C1320 N1324 1.427 . S
C1321 H1311 0.929 . S
C1321 C1319 1.433 . S
C1321 N1324 1.384 . S
C1322 H1313 0.929 . S
C1322 C1314 1.378 . S
C1322 C1317 1.350 . S
C1323 H1310 0.929 . S
C1323 C1315 1.433 . S
C1323 N1325 1.384 . S
N1324 C1320 1.427 . S
N1324 C1321 1.384 . S
N1325 C1317 1.427 . S
N1325 C1323 1.384 . S
H1326 C1332 0.930 . S
H1327 C1336 0.930 . S
H1328 C1341 0.929 . S
H1329 C1339 0.929 . S
H1330 C1334 0.929 . S
H1331 C1340 0.929 . S
C1332 H1326 0.930 . S
C1332 C1333 1.367 . S
C1332 C1340 1.378 . S
C1333 C1332 1.367 . S
C1333 C1341 1.433 . S
C1334 H1330 0.929 . S
C1334 C1336 1.378 . S
C1334 C1338 1.350 . S
C1335 C1338 1.463 . S
C1335 C1340 1.350 . S
C1335 N1343 1.427 . S
C1336 H1327 0.930 . S
C1336 C1334 1.378 . S
C1336 C1337 1.367 . S
C1337 C1336 1.367 . S
C1337 C1339 1.433 . S
C1338 C1334 1.350 . S
C1338 C1335 1.463 . S
C1338 N1342 1.427 . S
C1339 H1329 0.929 . S
C1339 C1337 1.433 . S
C1339 N1342 1.384 . S
C1340 H1331 0.929 . S
C1340 C1332 1.378 . S
C1340 C1335 1.350 . S
C1341 H1328 0.929 . S
C1341 C1333 1.433 . S
C1341 N1343 1.384 . S
N1342 C1338 1.427 . S
N1342 C1339 1.384 . S
N1343 C1335 1.427 . S
N1343 C1341 1.384 . S
H1344 C1350 0.930 . S
H1345 C1354 0.930 . S
H1346 C1359 0.929 . S
H1347 C1357 0.929 . S
H1348 C1352 0.929 . S
H1349 C1358 0.929 . S
C1350 H1344 0.930 . S
C1350 C1351 1.367 . S
C1350 C1358 1.378 . S
C1351 C1350 1.367 . S
C1351 C1359 1.433 . S
C1352 H1348 0.929 . S
C1352 C1354 1.378 . S
C1352 C1356 1.350 . S
C1353 C1356 1.463 . S
C1353 C1358 1.350 . S
C1353 N1361 1.427 . S
C1354 H1345 0.930 . S
C1354 C1352 1.378 . S
C1354 C1355 1.367 . S
C1355 C1354 1.367 . S
C1355 C1357 1.433 . S
C1356 C1352 1.350 . S
C1356 C1353 1.463 . S
C1356 N1360 1.427 . S
C1357 H1347 0.929 . S
C1357 C1355 1.433 . S
C1357 N1360 1.384 . S
C1358 H1349 0.929 . S
C1358 C1350 1.378 . S
C1358 C1353 1.350 . S
C1359 H1346 0.929 . S
C1359 C1351 1.433 . S
C1359 N1361 1.384 . S
N1360 C1356 1.427 . S
N1360 C1357 1.384 . S
N1361 C1353 1.427 . S
N1361 C1359 1.384 . S
H1362 C1368 0.930 . S
H1363 C1372 0.930 . S
H1364 C1377 0.929 . S
H1365 C1375 0.929 . S
H1366 C1370 0.929 . S
H1367 C1376 0.929 . S
C1368 H1362 0.930 . S
C1368 C1369 1.367 . S
C1368 C1376 1.378 . S
C1369 C1368 1.367 . S
C1369 C1377 1.433 . S
C1370 H1366 0.929 . S
C1370 C1372 1.378 . S
C1370 C1374 1.350 . S
C1371 C1374 1.463 . S
C1371 C1376 1.350 . S
C1371 N1379 1.427 . S
C1372 H1363 0.930 . S
C1372 C1370 1.378 . S
C1372 C1373 1.367 . S
C1373 C1372 1.367 . S
C1373 C1375 1.433 . S
C1374 C1370 1.350 . S
C1374 C1371 1.463 . S
C1374 N1378 1.427 . S
C1375 H1365 0.929 . S
C1375 C1373 1.433 . S
C1375 N1378 1.384 . S
C1376 H1367 0.929 . S
C1376 C1368 1.378 . S
C1376 C1371 1.350 . S
C1377 H1364 0.929 . S
C1377 C1369 1.433 . S
C1377 N1379 1.384 . S
N1378 C1374 1.427 . S
N1378 C1375 1.384 . S
N1379 C1371 1.427 . S
N1379 C1377 1.384 . S
H1380 C1386 0.930 . S
H1381 C1390 0.930 . S
H1382 C1395 0.929 . S
H1383 C1393 0.929 . S
H1384 C1388 0.929 . S
H1385 C1394 0.929 . S
C1386 H1380 0.930 . S
C1386 C1387 1.367 . S
C1386 C1394 1.378 . S
C1387 C1386 1.367 . S
C1387 C1395 1.433 . S
C1388 H1384 0.929 . S
C1388 C1390 1.378 . S
C1388 C1392 1.350 . S
C1389 C1392 1.463 . S
C1389 C1394 1.350 . S
C1389 N1397 1.427 . S
C1390 H1381 0.930 . S
C1390 C1388 1.378 . S
C1390 C1391 1.367 . S
C1391 C1390 1.367 . S
C1391 C1393 1.433 . S
C1392 C1388 1.350 . S
C1392 C1389 1.463 . S
C1392 N1396 1.427 . S
C1393 H1383 0.929 . S
C1393 C1391 1.433 . S
C1393 N1396 1.384 . S
C1394 H1385 0.929 . S
C1394 C1386 1.378 . S
C1394 C1389 1.350 . S
C1395 H1382 0.929 . S
C1395 C1387 1.433 . S
C1395 N1397 1.384 . S
N1396 C1392 1.427 . S
N1396 C1393 1.384 . S
N1397 C1389 1.427 . S
N1397 C1395 1.384 . S
H1398 C1404 0.930 . S
H1399 C1408 0.930 . S
H1400 C1413 0.929 . S
H1401 C1411 0.929 . S
H1402 C1406 0.929 . S
H1403 C1412 0.929 . S
C1404 H1398 0.930 . S
C1404 C1405 1.367 . S
C1404 C1412 1.378 . S
C1405 C1404 1.367 . S
C1405 C1413 1.433 . S
C1406 H1402 0.929 . S
C1406 C1408 1.378 . S
C1406 C1410 1.350 . S
C1407 C1410 1.463 . S
C1407 C1412 1.350 . S
C1407 N1415 1.427 . S
C1408 H1399 0.930 . S
C1408 C1406 1.378 . S
C1408 C1409 1.367 . S
C1409 C1408 1.367 . S
C1409 C1411 1.433 . S
C1410 C1406 1.350 . S
C1410 C1407 1.463 . S
C1410 N1414 1.427 . S
C1411 H1401 0.929 . S
C1411 C1409 1.433 . S
C1411 N1414 1.384 . S
C1412 H1403 0.929 . S
C1412 C1404 1.378 . S
C1412 C1407 1.350 . S
C1413 H1400 0.929 . S
C1413 C1405 1.433 . S
C1413 N1415 1.384 . S
N1414 C1410 1.427 . S
N1414 C1411 1.384 . S
N1415 C1407 1.427 . S
N1415 C1413 1.384 . S
H1416 C1422 0.930 . S
H1417 C1426 0.930 . S
H1418 C1431 0.929 . S
H1419 C1429 0.929 . S
H1420 C1424 0.929 . S
H1421 C1430 0.929 . S
C1422 H1416 0.930 . S
C1422 C1423 1.367 . S
C1422 C1430 1.378 . S
C1423 C1422 1.367 . S
C1423 C1431 1.433 . S
C1424 H1420 0.929 . S
C1424 C1426 1.378 . S
C1424 C1428 1.350 . S
C1425 C1428 1.463 . S
C1425 C1430 1.350 . S
C1425 N1433 1.427 . S
C1426 H1417 0.930 . S
C1426 C1424 1.378 . S
C1426 C1427 1.367 . S
C1427 C1426 1.367 . S
C1427 C1429 1.433 . S
C1428 C1424 1.350 . S
C1428 C1425 1.463 . S
C1428 N1432 1.427 . S
C1429 H1419 0.929 . S
C1429 C1427 1.433 . S
C1429 N1432 1.384 . S
C1430 H1421 0.929 . S
C1430 C1422 1.378 . S
C1430 C1425 1.350 . S
C1431 H1418 0.929 . S
C1431 C1423 1.433 . S
C1431 N1433 1.384 . S
N1432 C1428 1.427 . S
N1432 C1429 1.384 . S
N1433 C1425 1.427 . S
N1433 C1431 1.384 . S
H1434 C1440 0.930 . S
H1435 C1444 0.930 . S
H1436 C1449 0.929 . S
H1437 C1447 0.929 . S
H1438 C1442 0.929 . S
H1439 C1448 0.929 . S
C1440 H1434 0.930 . S
C1440 C1441 1.367 . S
C1440 C1448 1.378 . S
C1441 C1440 1.367 . S
C1441 C1449 1.433 . S
C1442 H1438 0.929 . S
C1442 C1444 1.378 . S
C1442 C1446 1.350 . S
C1443 C1446 1.463 . S
C1443 C1448 1.350 . S
C1443 N1451 1.427 . S
C1444 H1435 0.930 . S
C1444 C1442 1.378 . S
C1444 C1445 1.367 . S
C1445 C1444 1.367 . S
C1445 C1447 1.433 . S
C1446 C1442 1.350 . S
C1446 C1443 1.463 . S
C1446 N1450 1.427 . S
C1447 H1437 0.929 . S
C1447 C1445 1.433 . S
C1447 N1450 1.384 . S
C1448 H1439 0.929 . S
C1448 C1440 1.378 . S
C1448 C1443 1.350 . S
C1449 H1436 0.929 . S
C1449 C1441 1.433 . S
C1449 N1451 1.384 . S
N1450 C1446 1.427 . S
N1450 C1447 1.384 . S
N1451 C1443 1.427 . S
N1451 C1449 1.384 . S
H1452 C1458 0.930 . S
H1453 C1462 0.930 . S
H1454 C1467 0.929 . S
H1455 C1465 0.929 . S
H1456 C1460 0.929 . S
H1457 C1466 0.929 . S
C1458 H1452 0.930 . S
C1458 C1459 1.367 . S
C1458 C1466 1.378 . S
C1459 C1458 1.367 . S
C1459 C1467 1.433 . S
C1460 H1456 0.929 . S
C1460 C1462 1.378 . S
C1460 C1464 1.350 . S
C1461 C1464 1.463 . S
C1461 C1466 1.350 . S
C1461 N1469 1.427 . S
C1462 H1453 0.930 . S
C1462 C1460 1.378 . S
C1462 C1463 1.367 . S
C1463 C1462 1.367 . S
C1463 C1465 1.433 . S
C1464 C1460 1.350 . S
C1464 C1461 1.463 . S
C1464 N1468 1.427 . S
C1465 H1455 0.929 . S
C1465 C1463 1.433 . S
C1465 N1468 1.384 . S
C1466 H1457 0.929 . S
C1466 C1458 1.378 . S
C1466 C1461 1.350 . S
C1467 H1454 0.929 . S
C1467 C1459 1.433 . S
C1467 N1469 1.384 . S
N1468 C1464 1.427 . S
N1468 C1465 1.384 . S
N1469 C1461 1.427 . S
N1469 C1467 1.384 . S
H1470 C1476 0.930 . S
H1471 C1480 0.930 . S
H1472 C1485 0.929 . S
H1473 C1483 0.929 . S
H1474 C1478 0.929 . S
H1475 C1484 0.929 . S
C1476 H1470 0.930 . S
C1476 C1477 1.367 . S
C1476 C1484 1.378 . S
C1477 C1476 1.367 . S
C1477 C1485 1.433 . S
C1478 H1474 0.929 . S
C1478 C1480 1.378 . S
C1478 C1482 1.350 . S
C1479 C1482 1.463 . S
C1479 C1484 1.350 . S
C1479 N1487 1.427 . S
C1480 H1471 0.930 . S
C1480 C1478 1.378 . S
C1480 C1481 1.367 . S
C1481 C1480 1.367 . S
C1481 C1483 1.433 . S
C1482 C1478 1.350 . S
C1482 C1479 1.463 . S
C1482 N1486 1.427 . S
C1483 H1473 0.929 . S
C1483 C1481 1.433 . S
C1483 N1486 1.384 . S
C1484 H1475 0.929 . S
C1484 C1476 1.378 . S
C1484 C1479 1.350 . S
C1485 H1472 0.929 . S
C1485 C1477 1.433 . S
C1485 N1487 1.384 . S
N1486 C1482 1.427 . S
N1486 C1483 1.384 . S
N1487 C1479 1.427 . S
N1487 C1485 1.384 . S
H1488 C1494 0.930 . S
H1489 C1498 0.930 . S
H1490 C1503 0.929 . S
H1491 C1501 0.929 . S
H1492 C1496 0.929 . S
H1493 C1502 0.929 . S
C1494 H1488 0.930 . S
C1494 C1495 1.367 . S
C1494 C1502 1.378 . S
C1495 C1494 1.367 . S
C1495 C1503 1.433 . S
C1496 H1492 0.929 . S
C1496 C1498 1.378 . S
C1496 C1500 1.350 . S
C1497 C1500 1.463 . S
C1497 C1502 1.350 . S
C1497 N1505 1.427 . S
C1498 H1489 0.930 . S
C1498 C1496 1.378 . S
C1498 C1499 1.367 . S
C1499 C1498 1.367 . S
C1499 C1501 1.433 . S
C1500 C1496 1.350 . S
C1500 C1497 1.463 . S
C1500 N1504 1.427 . S
C1501 H1491 0.929 . S
C1501 C1499 1.433 . S
C1501 N1504 1.384 . S
C1502 H1493 0.929 . S
C1502 C1494 1.378 . S
C1502 C1497 1.350 . S
C1503 H1490 0.929 . S
C1503 C1495 1.433 . S
C1503 N1505 1.384 . S
N1504 C1500 1.427 . S
N1504 C1501 1.384 . S
N1505 C1497 1.427 . S
N1505 C1503 1.384 . S
H1506 C1512 0.930 . S
H1507 C1516 0.930 . S
H1508 C1521 0.929 . S
H1509 C1519 0.929 . S
H1510 C1514 0.929 . S
H1511 C1520 0.929 . S
C1512 H1506 0.930 . S
C1512 C1513 1.367 . S
C1512 C1520 1.378 . S
C1513 C1512 1.367 . S
C1513 C1521 1.433 . S
C1514 H1510 0.929 . S
C1514 C1516 1.378 . S
C1514 C1518 1.350 . S
C1515 C1518 1.463 . S
C1515 C1520 1.350 . S
C1515 N1523 1.427 . S
C1516 H1507 0.930 . S
C1516 C1514 1.378 . S
C1516 C1517 1.367 . S
C1517 C1516 1.367 . S
C1517 C1519 1.433 . S
C1518 C1514 1.350 . S
C1518 C1515 1.463 . S
C1518 N1522 1.427 . S
C1519 H1509 0.929 . S
C1519 C1517 1.433 . S
C1519 N1522 1.384 . S
C1520 H1511 0.929 . S
C1520 C1512 1.378 . S
C1520 C1515 1.350 . S
C1521 H1508 0.929 . S
C1521 C1513 1.433 . S
C1521 N1523 1.384 . S
N1522 C1518 1.427 . S
N1522 C1519 1.384 . S
N1523 C1515 1.427 . S
N1523 C1521 1.384 . S
H1524 C1530 0.930 . S
H1525 C1534 0.930 . S
H1526 C1539 0.929 . S
H1527 C1537 0.929 . S
H1528 C1532 0.929 . S
H1529 C1538 0.929 . S
C1530 H1524 0.930 . S
C1530 C1531 1.367 . S
C1530 C1538 1.378 . S
C1531 C1530 1.367 . S
C1531 C1539 1.433 . S
C1532 H1528 0.929 . S
C1532 C1534 1.378 . S
C1532 C1536 1.350 . S
C1533 C1536 1.463 . S
C1533 C1538 1.350 . S
C1533 N1541 1.427 . S
C1534 H1525 0.930 . S
C1534 C1532 1.378 . S
C1534 C1535 1.367 . S
C1535 C1534 1.367 . S
C1535 C1537 1.433 . S
C1536 C1532 1.350 . S
C1536 C1533 1.463 . S
C1536 N1540 1.427 . S
C1537 H1527 0.929 . S
C1537 C1535 1.433 . S
C1537 N1540 1.384 . S
C1538 H1529 0.929 . S
C1538 C1530 1.378 . S
C1538 C1533 1.350 . S
C1539 H1526 0.929 . S
C1539 C1531 1.433 . S
C1539 N1541 1.384 . S
N1540 C1536 1.427 . S
N1540 C1537 1.384 . S
N1541 C1533 1.427 . S
N1541 C1539 1.384 . S
H1542 C1548 0.930 . S
H1543 C1552 0.930 . S
H1544 C1557 0.929 . S
H1545 C1555 0.929 . S
H1546 C1550 0.929 . S
H1547 C1556 0.929 . S
C1548 H1542 0.930 . S
C1548 C1549 1.367 . S
C1548 C1556 1.378 . S
C1549 C1548 1.367 . S
C1549 C1557 1.433 . S
C1550 H1546 0.929 . S
C1550 C1552 1.378 . S
C1550 C1554 1.350 . S
C1551 C1554 1.463 . S
C1551 C1556 1.350 . S
C1551 N1559 1.427 . S
C1552 H1543 0.930 . S
C1552 C1550 1.378 . S
C1552 C1553 1.367 . S
C1553 C1552 1.367 . S
C1553 C1555 1.433 . S
C1554 C1550 1.350 . S
C1554 C1551 1.463 . S
C1554 N1558 1.427 . S
C1555 H1545 0.929 . S
C1555 C1553 1.433 . S
C1555 N1558 1.384 . S
C1556 H1547 0.929 . S
C1556 C1548 1.378 . S
C1556 C1551 1.350 . S
C1557 H1544 0.929 . S
C1557 C1549 1.433 . S
C1557 N1559 1.384 . S
N1558 C1554 1.427 . S
N1558 C1555 1.384 . S
N1559 C1551 1.427 . S
N1559 C1557 1.384 . S
H1560 C1566 0.930 . S
H1561 C1570 0.930 . S
H1562 C1575 0.929 . S
H1563 C1573 0.929 . S
H1564 C1568 0.929 . S
H1565 C1574 0.929 . S
C1566 H1560 0.930 . S
C1566 C1567 1.367 . S
C1566 C1574 1.378 . S
C1567 C1566 1.367 . S
C1567 C1575 1.433 . S
C1568 H1564 0.929 . S
C1568 C1570 1.378 . S
C1568 C1572 1.350 . S
C1569 C1572 1.463 . S
C1569 C1574 1.350 . S
C1569 N1577 1.427 . S
C1570 H1561 0.930 . S
C1570 C1568 1.378 . S
C1570 C1571 1.367 . S
C1571 C1570 1.367 . S
C1571 C1573 1.433 . S
C1572 C1568 1.350 . S
C1572 C1569 1.463 . S
C1572 N1576 1.427 . S
C1573 H1563 0.929 . S
C1573 C1571 1.433 . S
C1573 N1576 1.384 . S
C1574 H1565 0.929 . S
C1574 C1566 1.378 . S
C1574 C1569 1.350 . S
C1575 H1562 0.929 . S
C1575 C1567 1.433 . S
C1575 N1577 1.384 . S
N1576 C1572 1.427 . S
N1576 C1573 1.384 . S
N1577 C1569 1.427 . S
N1577 C1575 1.384 . S
H1578 C1584 0.930 . S
H1579 C1588 0.930 . S
H1580 C1593 0.929 . S
H1581 C1591 0.929 . S
H1582 C1586 0.929 . S
H1583 C1592 0.929 . S
C1584 H1578 0.930 . S
C1584 C1585 1.367 . S
C1584 C1592 1.378 . S
C1585 C1584 1.367 . S
C1585 C1593 1.433 . S
C1586 H1582 0.929 . S
C1586 C1588 1.378 . S
C1586 C1590 1.350 . S
C1587 C1590 1.463 . S
C1587 C1592 1.350 . S
C1587 N1595 1.427 . S
C1588 H1579 0.930 . S
C1588 C1586 1.378 . S
C1588 C1589 1.367 . S
C1589 C1588 1.367 . S
C1589 C1591 1.433 . S
C1590 C1586 1.350 . S
C1590 C1587 1.463 . S
C1590 N1594 1.427 . S
C1591 H1581 0.929 . S
C1591 C1589 1.433 . S
C1591 N1594 1.384 . S
C1592 H1583 0.929 . S
C1592 C1584 1.378 . S
C1592 C1587 1.350 . S
C1593 H1580 0.929 . S
C1593 C1585 1.433 . S
C1593 N1595 1.384 . S
N1594 C1590 1.427 . S
N1594 C1591 1.384 . S
N1595 C1587 1.427 . S
N1595 C1593 1.384 . S
H1596 C1602 0.930 . S
H1597 C1606 0.930 . S
H1598 C1611 0.929 . S
H1599 C1609 0.929 . S
H1600 C1604 0.929 . S
H1601 C1610 0.929 . S
C1602 H1596 0.930 . S
C1602 C1603 1.367 . S
C1602 C1610 1.378 . S
C1603 C1602 1.367 . S
C1603 C1611 1.433 . S
C1604 H1600 0.929 . S
C1604 C1606 1.378 . S
C1604 C1608 1.350 . S
C1605 C1608 1.463 . S
C1605 C1610 1.350 . S
C1605 N1613 1.427 . S
C1606 H1597 0.930 . S
C1606 C1604 1.378 . S
C1606 C1607 1.367 . S
C1607 C1606 1.367 . S
C1607 C1609 1.433 . S
C1608 C1604 1.350 . S
C1608 C1605 1.463 . S
C1608 N1612 1.427 . S
C1609 H1599 0.929 . S
C1609 C1607 1.433 . S
C1609 N1612 1.384 . S
C1610 H1601 0.929 . S
C1610 C1602 1.378 . S
C1610 C1605 1.350 . S
C1611 H1598 0.929 . S
C1611 C1603 1.433 . S
C1611 N1613 1.384 . S
N1612 C1608 1.427 . S
N1612 C1609 1.384 . S
N1613 C1605 1.427 . S
N1613 C1611 1.384 . S
H1614 C1620 0.930 . S
H1615 C1624 0.930 . S
H1616 C1629 0.929 . S
H1617 C1627 0.929 . S
H1618 C1622 0.929 . S
H1619 C1628 0.929 . S
C1620 H1614 0.930 . S
C1620 C1621 1.367 . S
C1620 C1628 1.378 . S
C1621 C1620 1.367 . S
C1621 C1629 1.433 . S
C1622 H1618 0.929 . S
C1622 C1624 1.378 . S
C1622 C1626 1.350 . S
C1623 C1626 1.463 . S
C1623 C1628 1.350 . S
C1623 N1631 1.427 . S
C1624 H1615 0.930 . S
C1624 C1622 1.378 . S
C1624 C1625 1.367 . S
C1625 C1624 1.367 . S
C1625 C1627 1.433 . S
C1626 C1622 1.350 . S
C1626 C1623 1.463 . S
C1626 N1630 1.427 . S
C1627 H1617 0.929 . S
C1627 C1625 1.433 . S
C1627 N1630 1.384 . S
C1628 H1619 0.929 . S
C1628 C1620 1.378 . S
C1628 C1623 1.350 . S
C1629 H1616 0.929 . S
C1629 C1621 1.433 . S
C1629 N1631 1.384 . S
N1630 C1626 1.427 . S
N1630 C1627 1.384 . S
N1631 C1623 1.427 . S
N1631 C1629 1.384 . S
H1632 C1638 0.930 . S
H1633 C1642 0.930 . S
H1634 C1647 0.929 . S
H1635 C1645 0.929 . S
H1636 C1640 0.929 . S
H1637 C1646 0.929 . S
C1638 H1632 0.930 . S
C1638 C1639 1.367 . S
C1638 C1646 1.378 . S
C1639 C1638 1.367 . S
C1639 C1647 1.433 1_655 S
C1640 H1636 0.929 . S
C1640 C1642 1.378 . S
C1640 C1644 1.350 . S
C1641 C1644 1.463 1_665 S
C1641 C1646 1.350 . S
C1641 N1649 1.427 1_655 S
C1642 H1633 0.930 . S
C1642 C1640 1.378 . S
C1642 C1643 1.367 . S
C1643 C1642 1.367 . S
C1643 C1645 1.433 1_455 S
C1644 C1640 1.350 . S
C1644 C1641 1.463 1_445 S
C1644 N1648 1.427 1_455 S
C1645 H1635 0.929 . S
C1645 C1643 1.433 1_655 S
C1645 N1648 1.384 . S
C1646 H1637 0.929 . S
C1646 C1638 1.378 . S
C1646 C1641 1.350 . S
C1647 H1634 0.929 . S
C1647 C1639 1.433 1_455 S
C1647 N1649 1.384 . S
N1648 C1644 1.427 1_655 S
N1648 C1645 1.384 . S
N1649 C1641 1.427 1_455 S
N1649 C1647 1.384 . S
H1650 C1656 0.930 . S
H1651 C1660 0.930 . S
H1652 C1665 0.929 . S
H1653 C1663 0.929 . S
H1654 C1658 0.929 . S
H1655 C1664 0.929 . S
C1656 H1650 0.930 . S
C1656 C1657 1.367 . S
C1656 C1664 1.378 . S
C1657 C1656 1.367 . S
C1657 C1665 1.433 . S
C1658 H1654 0.929 . S
C1658 C1660 1.378 . S
C1658 C1662 1.350 . S
C1659 C1662 1.463 . S
C1659 C1664 1.350 . S
C1659 N1667 1.427 . S
C1660 H1651 0.930 . S
C1660 C1658 1.378 . S
C1660 C1661 1.367 . S
C1661 C1660 1.367 . S
C1661 C1663 1.433 . S
C1662 C1658 1.350 . S
C1662 C1659 1.463 . S
C1662 N1666 1.427 . S
C1663 H1653 0.929 . S
C1663 C1661 1.433 . S
C1663 N1666 1.384 . S
C1664 H1655 0.929 . S
C1664 C1656 1.378 . S
C1664 C1659 1.350 . S
C1665 H1652 0.929 . S
C1665 C1657 1.433 . S
C1665 N1667 1.384 . S
N1666 C1662 1.427 . S
N1666 C1663 1.384 . S
N1667 C1659 1.427 . S
N1667 C1665 1.384 . S
H1668 C1674 0.930 . S
H1669 C1678 0.930 . S
H1670 C1683 0.929 . S
H1671 C1681 0.929 . S
H1672 C1676 0.929 . S
H1673 C1682 0.929 . S
C1674 H1668 0.930 . S
C1674 C1675 1.367 . S
C1674 C1682 1.378 . S
C1675 C1674 1.367 . S
C1675 C1683 1.433 1_655 S
C1676 H1672 0.929 . S
C1676 C1678 1.378 . S
C1676 C1680 1.350 . S
C1677 C1680 1.463 1_655 S
C1677 C1682 1.350 . S
C1677 N1685 1.427 1_655 S
C1678 H1669 0.930 . S
C1678 C1676 1.378 . S
C1678 C1679 1.367 . S
C1679 C1678 1.367 . S
C1679 C1681 1.433 1_455 S
C1680 C1676 1.350 . S
C1680 C1677 1.463 1_455 S
C1680 N1684 1.427 1_455 S
C1681 H1671 0.929 . S
C1681 C1679 1.433 1_655 S
C1681 N1684 1.384 . S
C1682 H1673 0.929 . S
C1682 C1674 1.378 . S
C1682 C1677 1.350 . S
C1683 H1670 0.929 . S
C1683 C1675 1.433 1_455 S
C1683 N1685 1.384 . S
N1684 C1680 1.427 1_655 S
N1684 C1681 1.384 . S
N1685 C1677 1.427 1_455 S
N1685 C1683 1.384 . S
H1686 C1692 0.930 . S
H1687 C1696 0.930 . S
H1688 C1701 0.929 . S
H1689 C1699 0.929 . S
H1690 C1694 0.929 . S
H1691 C1700 0.929 . S
C1692 H1686 0.930 . S
C1692 C1693 1.367 . S
C1692 C1700 1.378 . S
C1693 C1692 1.367 . S
C1693 C1701 1.433 . S
C1694 H1690 0.929 . S
C1694 C1696 1.378 . S
C1694 C1698 1.350 . S
C1695 C1698 1.463 1_565 S
C1695 C1700 1.350 . S
C1695 N1703 1.427 . S
C1696 H1687 0.930 . S
C1696 C1694 1.378 . S
C1696 C1697 1.367 . S
C1697 C1696 1.367 . S
C1697 C1699 1.433 . S
C1698 C1694 1.350 . S
C1698 C1695 1.463 1_545 S
C1698 N1702 1.427 . S
C1699 H1689 0.929 . S
C1699 C1697 1.433 . S
C1699 N1702 1.384 . S
C1700 H1691 0.929 . S
C1700 C1692 1.378 . S
C1700 C1695 1.350 . S
C1701 H1688 0.929 . S
C1701 C1693 1.433 . S
C1701 N1703 1.384 . S
N1702 C1698 1.427 . S
N1702 C1699 1.384 . S
N1703 C1695 1.427 . S
N1703 C1701 1.384 . S
H1704 C1710 0.930 . S
H1705 C1714 0.930 . S
H1706 C1719 0.929 . S
H1707 C1717 0.929 . S
H1708 C1712 0.929 . S
H1709 C1718 0.929 . S
C1710 H1704 0.930 . S
C1710 C1711 1.367 . S
C1710 C1718 1.378 . S
C1711 C1710 1.367 . S
C1711 C1719 1.433 . S
C1712 H1708 0.929 . S
C1712 C1714 1.378 . S
C1712 C1716 1.350 . S
C1713 C1716 1.463 . S
C1713 C1718 1.350 . S
C1713 N1721 1.427 . S
C1714 H1705 0.930 . S
C1714 C1712 1.378 . S
C1714 C1715 1.367 . S
C1715 C1714 1.367 . S
C1715 C1717 1.433 . S
C1716 C1712 1.350 . S
C1716 C1713 1.463 . S
C1716 N1720 1.427 . S
C1717 H1707 0.929 . S
C1717 C1715 1.433 . S
C1717 N1720 1.384 . S
C1718 H1709 0.929 . S
C1718 C1710 1.378 . S
C1718 C1713 1.350 . S
C1719 H1706 0.929 . S
C1719 C1711 1.433 . S
C1719 N1721 1.384 . S
N1720 C1716 1.427 . S
N1720 C1717 1.384 . S
N1721 C1713 1.427 . S
N1721 C1719 1.384 . S
H1722 C1728 0.930 . S
H1723 C1732 0.930 . S
H1724 C1737 0.929 . S
H1725 C1735 0.929 . S
H1726 C1730 0.929 . S
H1727 C1736 0.929 . S
C1728 H1722 0.930 . S
C1728 C1729 1.367 . S
C1728 C1736 1.378 . S
C1729 C1728 1.367 . S
C1729 C1737 1.433 1_455 S
C1730 H1726 0.929 . S
C1730 C1732 1.378 . S
C1730 C1734 1.350 . S
C1731 C1734 1.463 1_455 S
C1731 C1736 1.350 . S
C1731 N1739 1.427 1_455 S
C1732 H1723 0.930 . S
C1732 C1730 1.378 . S
C1732 C1733 1.367 . S
C1733 C1732 1.367 . S
C1733 C1735 1.433 1_655 S
C1734 C1730 1.350 . S
C1734 C1731 1.463 1_655 S
C1734 N1738 1.427 1_655 S
C1735 H1725 0.929 . S
C1735 C1733 1.433 1_455 S
C1735 N1738 1.384 . S
C1736 H1727 0.929 . S
C1736 C1728 1.378 . S
C1736 C1731 1.350 . S
C1737 H1724 0.929 . S
C1737 C1729 1.433 1_655 S
C1737 N1739 1.384 . S
N1738 C1734 1.427 1_455 S
N1738 C1735 1.384 . S
N1739 C1731 1.427 1_655 S
N1739 C1737 1.384 . S
H1740 C1746 0.930 . S
H1741 C1750 0.930 . S
H1742 C1755 0.929 . S
H1743 C1753 0.929 . S
H1744 C1748 0.929 . S
H1745 C1754 0.929 . S
C1746 H1740 0.930 . S
C1746 C1747 1.367 . S
C1746 C1754 1.378 . S
C1747 C1746 1.367 . S
C1747 C1755 1.433 . S
C1748 H1744 0.929 . S
C1748 C1750 1.378 . S
C1748 C1752 1.350 . S
C1749 C1752 1.463 1_565 S
C1749 C1754 1.350 . S
C1749 N1757 1.427 . S
C1750 H1741 0.930 . S
C1750 C1748 1.378 . S
C1750 C1751 1.367 . S
C1751 C1750 1.367 . S
C1751 C1753 1.433 . S
C1752 C1748 1.350 . S
C1752 C1749 1.463 1_545 S
C1752 N1756 1.427 . S
C1753 H1743 0.929 . S
C1753 C1751 1.433 . S
C1753 N1756 1.384 . S
C1754 H1745 0.929 . S
C1754 C1746 1.378 . S
C1754 C1749 1.350 . S
C1755 H1742 0.929 . S
C1755 C1747 1.433 . S
C1755 N1757 1.384 . S
N1756 C1752 1.427 . S
N1756 C1753 1.384 . S
N1757 C1749 1.427 . S
N1757 C1755 1.384 . S
H1758 C1764 0.930 . S
H1759 C1768 0.930 . S
H1760 C1773 0.929 1_556 S
H1761 C1771 0.929 1_554 S
H1762 C1766 0.929 . S
H1763 C1772 0.929 . S
C1764 H1758 0.930 . S
C1764 C1765 1.367 1_455 S
C1764 C1772 1.378 . S
C1765 C1764 1.367 1_655 S
C1765 C1773 1.433 . S
C1766 H1762 0.929 . S
C1766 C1768 1.378 . S
C1766 C1770 1.341 1_655 S
C1767 C1770 1.458 1_654 S
C1767 C1772 1.339 1_655 S
C1767 N1775 1.446 1_554 S
C1768 H1759 0.930 . S
C1768 C1766 1.378 . S
C1768 C1769 1.367 1_655 S
C1769 C1768 1.367 1_455 S
C1769 C1771 1.433 . S
C1770 C1766 1.341 1_455 S
C1770 C1767 1.458 1_456 S
C1770 N1774 1.441 1_556 S
C1771 H1761 0.929 1_556 S
C1771 C1769 1.433 . S
C1771 N1774 1.384 1_556 S
C1772 H1763 0.929 . S
C1772 C1764 1.378 . S
C1772 C1767 1.339 1_455 S
C1773 H1760 0.929 1_554 S
C1773 C1765 1.433 . S
C1773 N1775 1.384 1_554 S
N1774 C1770 1.441 1_554 S
N1774 C1771 1.384 1_554 S
N1775 C1767 1.446 1_556 S
N1775 C1773 1.384 1_556 S
H1776 C1782 0.930 . S
H1777 C1786 0.930 . S
H1778 C1791 0.929 . S
H1779 C1789 0.929 . S
H1780 C1784 0.929 . S
H1781 C1790 0.929 . S
C1782 H1776 0.930 . S
C1782 C1783 1.367 . S
C1782 C1790 1.378 . S
C1783 C1782 1.367 . S
C1783 C1791 1.433 . S
C1784 H1780 0.929 . S
C1784 C1786 1.378 . S
C1784 C1788 1.350 . S
C1785 C1788 1.463 1_556 S
C1785 C1790 1.350 . S
C1785 N1793 1.427 1_556 S
C1786 H1777 0.930 . S
C1786 C1784 1.378 . S
C1786 C1787 1.367 . S
C1787 C1786 1.367 . S
C1787 C1789 1.433 . S
C1788 C1784 1.350 . S
C1788 C1785 1.463 1_554 S
C1788 N1792 1.427 1_554 S
C1789 H1779 0.929 . S
C1789 C1787 1.433 . S
C1789 N1792 1.384 1_554 S
C1790 H1781 0.929 . S
C1790 C1782 1.378 . S
C1790 C1785 1.350 . S
C1791 H1778 0.929 . S
C1791 C1783 1.433 . S
C1791 N1793 1.384 1_556 S
N1792 C1788 1.427 1_556 S
N1792 C1789 1.384 1_556 S
N1793 C1785 1.427 1_554 S
N1793 C1791 1.384 1_554 S
H1794 C1800 0.930 . S
H1795 C1804 0.930 . S
H1796 C1809 0.929 . S
H1797 C1807 0.929 . S
H1798 C1802 0.929 . S
H1799 C1808 0.929 . S
C1800 H1794 0.930 . S
C1800 C1801 1.367 . S
C1800 C1808 1.378 . S
C1801 C1800 1.367 . S
C1801 C1809 1.433 . S
C1802 H1798 0.929 . S
C1802 C1804 1.378 . S
C1802 C1806 1.350 . S
C1803 C1806 1.463 . S
C1803 C1808 1.350 . S
C1803 N1811 1.427 . S
C1804 H1795 0.930 . S
C1804 C1802 1.378 . S
C1804 C1805 1.367 . S
C1805 C1804 1.367 . S
C1805 C1807 1.433 . S
C1806 C1802 1.350 . S
C1806 C1803 1.463 . S
C1806 N1810 1.427 . S
C1807 H1797 0.929 . S
C1807 C1805 1.433 . S
C1807 N1810 1.384 . S
C1808 H1799 0.929 . S
C1808 C1800 1.378 . S
C1808 C1803 1.350 . S
C1809 H1796 0.929 . S
C1809 C1801 1.433 . S
C1809 N1811 1.384 . S
N1810 C1806 1.427 . S
N1810 C1807 1.384 . S
N1811 C1803 1.427 . S
N1811 C1809 1.384 . S
H1812 C1818 0.930 . S
H1813 C1822 0.930 . S
H1814 C1827 0.929 . S
H1815 C1825 0.929 . S
H1816 C1820 0.946 . S
H1817 C1826 0.946 . S
C1818 H1812 0.930 . S
C1818 C1819 1.367 . S
C1818 C1826 1.367 1_556 S
C1819 C1818 1.367 . S
C1819 C1827 1.433 . S
C1820 H1816 0.946 . S
C1820 C1822 1.367 1_556 S
C1820 C1824 1.344 1_556 S
C1821 C1824 1.463 1_556 S
C1821 C1826 1.344 1_556 S
C1821 N1829 1.427 . S
C1822 H1813 0.930 . S
C1822 C1820 1.367 1_554 S
C1822 C1823 1.367 . S
C1823 C1822 1.367 . S
C1823 C1825 1.433 . S
C1824 C1820 1.344 1_554 S
C1824 C1821 1.463 1_554 S
C1824 N1828 1.427 . S
C1825 H1815 0.929 . S
C1825 C1823 1.433 . S
C1825 N1828 1.384 . S
C1826 H1817 0.946 . S
C1826 C1818 1.367 1_554 S
C1826 C1821 1.344 1_554 S
C1827 H1814 0.929 . S
C1827 C1819 1.433 . S
C1827 N1829 1.384 . S
N1828 C1824 1.427 . S
N1828 C1825 1.384 . S
N1829 C1821 1.427 . S
N1829 C1827 1.384 . S
H1830 C1836 0.930 . S
H1831 C1840 0.930 . S
H1832 C1845 0.929 . S
H1833 C1843 0.929 . S
H1834 C1838 0.929 . S
H1835 C1844 0.929 . S
C1836 H1830 0.930 . S
C1836 C1837 1.367 . S
C1836 C1844 1.378 . S
C1837 C1836 1.367 . S
C1837 C1845 1.433 . S
C1838 H1834 0.929 . S
C1838 C1840 1.378 . S
C1838 C1842 1.350 . S
C1839 C1842 1.463 . S
C1839 C1844 1.350 . S
C1839 N1847 1.427 . S
C1840 H1831 0.930 . S
C1840 C1838 1.378 . S
C1840 C1841 1.367 . S
C1841 C1840 1.367 . S
C1841 C1843 1.433 . S
C1842 C1838 1.350 . S
C1842 C1839 1.463 . S
C1842 N1846 1.427 . S
C1843 H1833 0.929 . S
C1843 C1841 1.433 . S
C1843 N1846 1.384 . S
C1844 H1835 0.929 . S
C1844 C1836 1.378 . S
C1844 C1839 1.350 . S
C1845 H1832 0.929 . S
C1845 C1837 1.433 . S
C1845 N1847 1.384 . S
N1846 C1842 1.427 . S
N1846 C1843 1.384 . S
N1847 C1839 1.427 . S
N1847 C1845 1.384 . S
H1848 C1854 0.930 1_554 S
H1849 C1858 0.930 1_556 S
H1850 C1863 0.929 . S
H1851 C1861 0.929 . S
H1852 C1856 0.929 . S
H1853 C1862 0.929 . S
C1854 H1848 0.930 1_556 S
C1854 C1855 1.367 . S
C1854 C1862 1.378 1_556 S
C1855 C1854 1.367 . S
C1855 C1863 1.433 . S
C1856 H1852 0.929 . S
C1856 C1858 1.378 1_556 S
C1856 C1860 1.350 1_556 S
C1857 C1860 1.463 1_546 S
C1857 C1862 1.350 1_556 S
C1857 N1865 1.427 . S
C1858 H1849 0.930 1_554 S
C1858 C1856 1.378 1_554 S
C1858 C1859 1.367 . S
C1859 C1858 1.367 . S
C1859 C1861 1.433 . S
C1860 C1856 1.350 1_554 S
C1860 C1857 1.463 1_564 S
C1860 N1864 1.427 . S
C1861 H1851 0.929 . S
C1861 C1859 1.433 . S
C1861 N1864 1.384 . S
C1862 H1853 0.929 . S
C1862 C1854 1.378 1_554 S
C1862 C1857 1.350 1_554 S
C1863 H1850 0.929 . S
C1863 C1855 1.433 . S
C1863 N1865 1.384 . S
N1864 C1860 1.427 . S
N1864 C1861 1.384 . S
N1865 C1857 1.427 . S
N1865 C1863 1.384 . S
H1866 C1872 0.930 . S
H1867 C1876 0.930 . S
H1868 C1881 0.929 . S
H1869 C1879 0.929 . S
H1870 C1874 0.929 . S
H1871 C1880 0.929 . S
C1872 H1866 0.930 . S
C1872 C1873 1.367 . S
C1872 C1880 1.378 . S
C1873 C1872 1.367 . S
C1873 C1881 1.433 . S
C1874 H1870 0.929 . S
C1874 C1876 1.378 . S
C1874 C1878 1.350 . S
C1875 C1878 1.463 . S
C1875 C1880 1.350 . S
C1875 N1883 1.427 . S
C1876 H1867 0.930 . S
C1876 C1874 1.378 . S
C1876 C1877 1.367 . S
C1877 C1876 1.367 . S
C1877 C1879 1.433 . S
C1878 C1874 1.350 . S
C1878 C1875 1.463 . S
C1878 N1882 1.427 . S
C1879 H1869 0.929 . S
C1879 C1877 1.433 . S
C1879 N1882 1.384 . S
C1880 H1871 0.929 . S
C1880 C1872 1.378 . S
C1880 C1875 1.350 . S
C1881 H1868 0.929 . S
C1881 C1873 1.433 . S
C1881 N1883 1.384 . S
N1882 C1878 1.427 . S
N1882 C1879 1.384 . S
N1883 C1875 1.427 . S
N1883 C1881 1.384 . S
H1884 C1890 0.930 . S
H1885 C1894 0.930 . S
H1886 C1899 0.929 . S
H1887 C1897 0.929 . S
H1888 C1892 0.929 . S
H1889 C1898 0.929 . S
C1890 H1884 0.930 . S
C1890 C1891 1.367 . S
C1890 C1898 1.378 . S
C1891 C1890 1.367 . S
C1891 C1899 1.433 . S
C1892 H1888 0.929 . S
C1892 C1894 1.378 . S
C1892 C1896 1.350 . S
C1893 C1896 1.463 . S
C1893 C1898 1.350 . S
C1893 N1901 1.427 . S
C1894 H1885 0.930 . S
C1894 C1892 1.378 . S
C1894 C1895 1.367 . S
C1895 C1894 1.367 . S
C1895 C1897 1.433 . S
C1896 C1892 1.350 . S
C1896 C1893 1.463 . S
C1896 N1900 1.427 . S
C1897 H1887 0.929 . S
C1897 C1895 1.433 . S
C1897 N1900 1.384 . S
C1898 H1889 0.929 . S
C1898 C1890 1.378 . S
C1898 C1893 1.350 . S
C1899 H1886 0.929 . S
C1899 C1891 1.433 . S
C1899 N1901 1.384 . S
N1900 C1896 1.427 . S
N1900 C1897 1.384 . S
N1901 C1893 1.427 . S
N1901 C1899 1.384 . S
H1902 C1908 0.930 . S
H1903 C1912 0.930 . S
H1904 C1917 0.929 . S
H1905 C1915 0.929 . S
H1906 C1910 0.929 . S
H1907 C1916 0.929 . S
C1908 H1902 0.930 . S
C1908 C1909 1.367 . S
C1908 C1916 1.378 . S
C1909 C1908 1.367 . S
C1909 C1917 1.433 . S
C1910 H1906 0.929 . S
C1910 C1912 1.378 . S
C1910 C1914 1.350 . S
C1911 C1914 1.463 . S
C1911 C1916 1.350 . S
C1911 N1919 1.427 . S
C1912 H1903 0.930 . S
C1912 C1910 1.378 . S
C1912 C1913 1.367 . S
C1913 C1912 1.367 . S
C1913 C1915 1.433 . S
C1914 C1910 1.350 . S
C1914 C1911 1.463 . S
C1914 N1918 1.427 . S
C1915 H1905 0.929 . S
C1915 C1913 1.433 . S
C1915 N1918 1.384 . S
C1916 H1907 0.929 . S
C1916 C1908 1.378 . S
C1916 C1911 1.350 . S
C1917 H1904 0.929 . S
C1917 C1909 1.433 . S
C1917 N1919 1.384 . S
N1918 C1914 1.427 . S
N1918 C1915 1.384 . S
N1919 C1911 1.427 . S
N1919 C1917 1.384 . S
H1920 C1926 0.930 . S
H1921 C1930 0.930 . S
H1922 C1935 0.929 . S
H1923 C1933 0.929 . S
H1924 C1928 0.929 . S
H1925 C1934 0.929 . S
C1926 H1920 0.930 . S
C1926 C1927 1.367 . S
C1926 C1934 1.378 . S
C1927 C1926 1.367 . S
C1927 C1935 1.433 . S
C1928 H1924 0.929 . S
C1928 C1930 1.378 . S
C1928 C1932 1.350 . S
C1929 C1932 1.463 . S
C1929 C1934 1.350 . S
C1929 N1937 1.427 . S
C1930 H1921 0.930 . S
C1930 C1928 1.378 . S
C1930 C1931 1.367 . S
C1931 C1930 1.367 . S
C1931 C1933 1.433 . S
C1932 C1928 1.350 . S
C1932 C1929 1.463 . S
C1932 N1936 1.427 . S
C1933 H1923 0.929 . S
C1933 C1931 1.433 . S
C1933 N1936 1.384 . S
C1934 H1925 0.929 . S
C1934 C1926 1.378 . S
C1934 C1929 1.350 . S
C1935 H1922 0.929 . S
C1935 C1927 1.433 . S
C1935 N1937 1.384 . S
N1936 C1932 1.427 . S
N1936 C1933 1.384 . S
N1937 C1929 1.427 . S
N1937 C1935 1.384 . S
H1938 C1944 0.930 . S
H1939 C1948 0.930 . S
H1940 C1953 0.929 . S
H1941 C1951 0.929 . S
H1942 C1946 0.929 . S
H1943 C1952 0.929 . S
C1944 H1938 0.930 . S
C1944 C1945 1.367 . S
C1944 C1952 1.378 . S
C1945 C1944 1.367 . S
C1945 C1953 1.433 . S
C1946 H1942 0.929 . S
C1946 C1948 1.378 . S
C1946 C1950 1.350 . S
C1947 C1950 1.463 . S
C1947 C1952 1.350 . S
C1947 N1955 1.427 . S
C1948 H1939 0.930 . S
C1948 C1946 1.378 . S
C1948 C1949 1.367 . S
C1949 C1948 1.367 . S
C1949 C1951 1.433 . S
C1950 C1946 1.350 . S
C1950 C1947 1.463 . S
C1950 N1954 1.427 . S
C1951 H1941 0.929 . S
C1951 C1949 1.433 . S
C1951 N1954 1.384 . S
C1952 H1943 0.929 . S
C1952 C1944 1.378 . S
C1952 C1947 1.350 . S
C1953 H1940 0.929 . S
C1953 C1945 1.433 . S
C1953 N1955 1.384 . S
N1954 C1950 1.427 . S
N1954 C1951 1.384 . S
N1955 C1947 1.427 . S
N1955 C1953 1.384 . S
H1956 C1962 0.930 . S
H1957 C1966 0.930 . S
H1958 C1971 0.929 . S
H1959 C1969 0.929 . S
H1960 C1964 0.929 . S
H1961 C1970 0.929 . S
C1962 H1956 0.930 . S
C1962 C1963 1.367 . S
C1962 C1970 1.378 . S
C1963 C1962 1.367 . S
C1963 C1971 1.433 . S
C1964 H1960 0.929 . S
C1964 C1966 1.378 . S
C1964 C1968 1.350 . S
C1965 C1968 1.463 . S
C1965 C1970 1.350 . S
C1965 N1973 1.427 . S
C1966 H1957 0.930 . S
C1966 C1964 1.378 . S
C1966 C1967 1.367 . S
C1967 C1966 1.367 . S
C1967 C1969 1.433 . S
C1968 C1964 1.350 . S
C1968 C1965 1.463 . S
C1968 N1972 1.427 . S
C1969 H1959 0.929 . S
C1969 C1967 1.433 . S
C1969 N1972 1.384 . S
C1970 H1961 0.929 . S
C1970 C1962 1.378 . S
C1970 C1965 1.350 . S
C1971 H1958 0.929 . S
C1971 C1963 1.433 . S
C1971 N1973 1.384 . S
N1972 C1968 1.427 . S
N1972 C1969 1.384 . S
N1973 C1965 1.427 . S
N1973 C1971 1.384 . S
H1974 C1980 0.930 . S
H1975 C1984 0.930 . S
H1976 C1989 0.929 . S
H1977 C1987 0.929 . S
H1978 C1982 0.929 . S
H1979 C1988 0.929 . S
C1980 H1974 0.930 . S
C1980 C1981 1.367 . S
C1980 C1988 1.378 . S
C1981 C1980 1.367 . S
C1981 C1989 1.433 . S
C1982 H1978 0.929 . S
C1982 C1984 1.378 . S
C1982 C1986 1.350 . S
C1983 C1986 1.463 . S
C1983 C1988 1.350 . S
C1983 N1991 1.427 . S
C1984 H1975 0.930 . S
C1984 C1982 1.378 . S
C1984 C1985 1.367 . S
C1985 C1984 1.367 . S
C1985 C1987 1.433 . S
C1986 C1982 1.350 . S
C1986 C1983 1.463 . S
C1986 N1990 1.427 . S
C1987 H1977 0.929 . S
C1987 C1985 1.433 . S
C1987 N1990 1.384 . S
C1988 H1979 0.929 . S
C1988 C1980 1.378 . S
C1988 C1983 1.350 . S
C1989 H1976 0.929 . S
C1989 C1981 1.433 . S
C1989 N1991 1.384 . S
N1990 C1986 1.427 . S
N1990 C1987 1.384 . S
N1991 C1983 1.427 . S
N1991 C1989 1.384 . S
H1992 C1998 0.930 . S
H1993 C2002 0.930 . S
H1994 C2007 0.929 . S
H1995 C2005 0.929 . S
H1996 C2000 0.929 . S
H1997 C2006 0.929 . S
C1998 H1992 0.930 . S
C1998 C1999 1.367 . S
C1998 C2006 1.378 . S
C1999 C1998 1.367 . S
C1999 C2007 1.433 . S
C2000 H1996 0.929 . S
C2000 C2002 1.378 . S
C2000 C2004 1.350 . S
C2001 C2004 1.463 . S
C2001 C2006 1.350 . S
C2001 N2009 1.427 . S
C2002 H1993 0.930 . S
C2002 C2000 1.378 . S
C2002 C2003 1.367 . S
C2003 C2002 1.367 . S
C2003 C2005 1.433 . S
C2004 C2000 1.350 . S
C2004 C2001 1.463 . S
C2004 N2008 1.427 . S
C2005 H1995 0.929 . S
C2005 C2003 1.433 . S
C2005 N2008 1.384 . S
C2006 H1997 0.929 . S
C2006 C1998 1.378 . S
C2006 C2001 1.350 . S
C2007 H1994 0.929 . S
C2007 C1999 1.433 . S
C2007 N2009 1.384 . S
N2008 C2004 1.427 . S
N2008 C2005 1.384 . S
N2009 C2001 1.427 . S
N2009 C2007 1.384 . S
H2010 C2016 0.930 . S
H2011 C2020 0.930 . S
H2012 C2025 0.929 . S
H2013 C2023 0.929 . S
H2014 C2018 0.929 . S
H2015 C2024 0.929 . S
C2016 H2010 0.930 . S
C2016 C2017 1.367 . S
C2016 C2024 1.378 . S
C2017 C2016 1.367 . S
C2017 C2025 1.433 . S
C2018 H2014 0.929 . S
C2018 C2020 1.378 . S
C2018 C2022 1.350 . S
C2019 C2022 1.463 . S
C2019 C2024 1.350 . S
C2019 N2027 1.427 . S
C2020 H2011 0.930 . S
C2020 C2018 1.378 . S
C2020 C2021 1.367 . S
C2021 C2020 1.367 . S
C2021 C2023 1.433 . S
C2022 C2018 1.350 . S
C2022 C2019 1.463 . S
C2022 N2026 1.427 . S
C2023 H2013 0.929 . S
C2023 C2021 1.433 . S
C2023 N2026 1.384 . S
C2024 H2015 0.929 . S
C2024 C2016 1.378 . S
C2024 C2019 1.350 . S
C2025 H2012 0.929 . S
C2025 C2017 1.433 . S
C2025 N2027 1.384 . S
N2026 C2022 1.427 . S
N2026 C2023 1.384 . S
N2027 C2019 1.427 . S
N2027 C2025 1.384 . S
H2028 C2034 0.930 . S
H2029 C2038 0.930 . S
H2030 C2043 0.929 . S
H2031 C2041 0.929 . S
H2032 C2036 0.929 . S
H2033 C2042 0.929 . S
C2034 H2028 0.930 . S
C2034 C2035 1.367 . S
C2034 C2042 1.378 . S
C2035 C2034 1.367 . S
C2035 C2043 1.433 . S
C2036 H2032 0.929 . S
C2036 C2038 1.378 . S
C2036 C2040 1.350 . S
C2037 C2040 1.463 . S
C2037 C2042 1.350 . S
C2037 N2045 1.427 . S
C2038 H2029 0.930 . S
C2038 C2036 1.378 . S
C2038 C2039 1.367 . S
C2039 C2038 1.367 . S
C2039 C2041 1.433 . S
C2040 C2036 1.350 . S
C2040 C2037 1.463 . S
C2040 N2044 1.427 . S
C2041 H2031 0.929 . S
C2041 C2039 1.433 . S
C2041 N2044 1.384 . S
C2042 H2033 0.929 . S
C2042 C2034 1.378 . S
C2042 C2037 1.350 . S
C2043 H2030 0.929 . S
C2043 C2035 1.433 . S
C2043 N2045 1.384 . S
N2044 C2040 1.427 . S
N2044 C2041 1.384 . S
N2045 C2037 1.427 . S
N2045 C2043 1.384 . S
H2046 C2052 0.930 . S
H2047 C2056 0.930 . S
H2048 C2061 0.929 . S
H2049 C2059 0.929 . S
H2050 C2054 0.929 . S
H2051 C2060 0.929 . S
C2052 H2046 0.930 . S
C2052 C2053 1.367 . S
C2052 C2060 1.378 . S
C2053 C2052 1.367 . S
C2053 C2061 1.433 . S
C2054 H2050 0.929 . S
C2054 C2056 1.378 . S
C2054 C2058 1.350 . S
C2055 C2058 1.463 . S
C2055 C2060 1.350 . S
C2055 N2063 1.427 . S
C2056 H2047 0.930 . S
C2056 C2054 1.378 . S
C2056 C2057 1.367 . S
C2057 C2056 1.367 . S
C2057 C2059 1.433 . S
C2058 C2054 1.350 . S
C2058 C2055 1.463 . S
C2058 N2062 1.427 . S
C2059 H2049 0.929 . S
C2059 C2057 1.433 . S
C2059 N2062 1.384 . S
C2060 H2051 0.929 . S
C2060 C2052 1.378 . S
C2060 C2055 1.350 . S
C2061 H2048 0.929 . S
C2061 C2053 1.433 . S
C2061 N2063 1.384 . S
N2062 C2058 1.427 . S
N2062 C2059 1.384 . S
N2063 C2055 1.427 . S
N2063 C2061 1.384 . S
H2064 C2070 0.930 . S
H2065 C2074 0.930 . S
H2066 C2079 0.929 . S
H2067 C2077 0.929 . S
H2068 C2072 0.929 . S
H2069 C2078 0.929 . S
C2070 H2064 0.930 . S
C2070 C2071 1.367 . S
C2070 C2078 1.378 . S
C2071 C2070 1.367 . S
C2071 C2079 1.433 . S
C2072 H2068 0.929 . S
C2072 C2074 1.378 . S
C2072 C2076 1.350 . S
C2073 C2076 1.463 . S
C2073 C2078 1.350 . S
C2073 N2081 1.427 . S
C2074 H2065 0.930 . S
C2074 C2072 1.378 . S
C2074 C2075 1.367 . S
C2075 C2074 1.367 . S
C2075 C2077 1.433 . S
C2076 C2072 1.350 . S
C2076 C2073 1.463 . S
C2076 N2080 1.427 . S
C2077 H2067 0.929 . S
C2077 C2075 1.433 . S
C2077 N2080 1.384 . S
C2078 H2069 0.929 . S
C2078 C2070 1.378 . S
C2078 C2073 1.350 . S
C2079 H2066 0.929 . S
C2079 C2071 1.433 . S
C2079 N2081 1.384 . S
N2080 C2076 1.427 . S
N2080 C2077 1.384 . S
N2081 C2073 1.427 . S
N2081 C2079 1.384 . S
H2082 C2088 0.930 . S
H2083 C2092 0.930 . S
H2084 C2097 0.929 . S
H2085 C2095 0.929 . S
H2086 C2090 0.929 . S
H2087 C2096 0.929 . S
C2088 H2082 0.930 . S
C2088 C2089 1.367 . S
C2088 C2096 1.378 . S
C2089 C2088 1.367 . S
C2089 C2097 1.433 . S
C2090 H2086 0.929 . S
C2090 C2092 1.378 . S
C2090 C2094 1.350 . S
C2091 C2094 1.463 . S
C2091 C2096 1.350 . S
C2091 N2099 1.427 . S
C2092 H2083 0.930 . S
C2092 C2090 1.378 . S
C2092 C2093 1.367 . S
C2093 C2092 1.367 . S
C2093 C2095 1.433 . S
C2094 C2090 1.350 . S
C2094 C2091 1.463 . S
C2094 N2098 1.427 . S
C2095 H2085 0.929 . S
C2095 C2093 1.433 . S
C2095 N2098 1.384 . S
C2096 H2087 0.929 . S
C2096 C2088 1.378 . S
C2096 C2091 1.350 . S
C2097 H2084 0.929 . S
C2097 C2089 1.433 . S
C2097 N2099 1.384 . S
N2098 C2094 1.427 . S
N2098 C2095 1.384 . S
N2099 C2091 1.427 . S
N2099 C2097 1.384 . S
H2100 C2106 0.930 . S
H2101 C2110 0.930 . S
H2102 C2115 0.929 . S
H2103 C2113 0.929 . S
H2104 C2108 0.929 . S
H2105 C2114 0.929 . S
C2106 H2100 0.930 . S
C2106 C2107 1.367 . S
C2106 C2114 1.378 . S
C2107 C2106 1.367 . S
C2107 C2115 1.433 . S
C2108 H2104 0.929 . S
C2108 C2110 1.378 . S
C2108 C2112 1.350 . S
C2109 C2112 1.463 . S
C2109 C2114 1.350 . S
C2109 N2117 1.427 . S
C2110 H2101 0.930 . S
C2110 C2108 1.378 . S
C2110 C2111 1.367 . S
C2111 C2110 1.367 . S
C2111 C2113 1.433 . S
C2112 C2108 1.350 . S
C2112 C2109 1.463 . S
C2112 N2116 1.427 . S
C2113 H2103 0.929 . S
C2113 C2111 1.433 . S
C2113 N2116 1.384 . S
C2114 H2105 0.929 . S
C2114 C2106 1.378 . S
C2114 C2109 1.350 . S
C2115 H2102 0.929 . S
C2115 C2107 1.433 . S
C2115 N2117 1.384 . S
N2116 C2112 1.427 . S
N2116 C2113 1.384 . S
N2117 C2109 1.427 . S
N2117 C2115 1.384 . S
H2118 C2124 0.930 . S
H2119 C2128 0.930 . S
H2120 C2133 0.929 . S
H2121 C2131 0.929 . S
H2122 C2126 0.929 . S
H2123 C2132 0.929 . S
C2124 H2118 0.930 . S
C2124 C2125 1.367 . S
C2124 C2132 1.378 . S
C2125 C2124 1.367 . S
C2125 C2133 1.433 . S
C2126 H2122 0.929 . S
C2126 C2128 1.378 . S
C2126 C2130 1.350 . S
C2127 C2130 1.463 . S
C2127 C2132 1.350 . S
C2127 N2135 1.427 . S
C2128 H2119 0.930 . S
C2128 C2126 1.378 . S
C2128 C2129 1.367 . S
C2129 C2128 1.367 . S
C2129 C2131 1.433 . S
C2130 C2126 1.350 . S
C2130 C2127 1.463 . S
C2130 N2134 1.427 . S
C2131 H2121 0.929 . S
C2131 C2129 1.433 . S
C2131 N2134 1.384 . S
C2132 H2123 0.929 . S
C2132 C2124 1.378 . S
C2132 C2127 1.350 . S
C2133 H2120 0.929 . S
C2133 C2125 1.433 . S
C2133 N2135 1.384 . S
N2134 C2130 1.427 . S
N2134 C2131 1.384 . S
N2135 C2127 1.427 . S
N2135 C2133 1.384 . S
H2136 C2142 0.930 . S
H2137 C2146 0.930 . S
H2138 C2151 0.929 . S
H2139 C2149 0.929 . S
H2140 C2144 0.929 . S
H2141 C2150 0.929 . S
C2142 H2136 0.930 . S
C2142 C2143 1.367 . S
C2142 C2150 1.378 . S
C2143 C2142 1.367 . S
C2143 C2151 1.433 . S
C2144 H2140 0.929 . S
C2144 C2146 1.378 . S
C2144 C2148 1.350 . S
C2145 C2148 1.463 . S
C2145 C2150 1.350 . S
C2145 N2153 1.427 . S
C2146 H2137 0.930 . S
C2146 C2144 1.378 . S
C2146 C2147 1.367 . S
C2147 C2146 1.367 . S
C2147 C2149 1.433 . S
C2148 C2144 1.350 . S
C2148 C2145 1.463 . S
C2148 N2152 1.427 . S
C2149 H2139 0.929 . S
C2149 C2147 1.433 . S
C2149 N2152 1.384 . S
C2150 H2141 0.929 . S
C2150 C2142 1.378 . S
C2150 C2145 1.350 . S
C2151 H2138 0.929 . S
C2151 C2143 1.433 . S
C2151 N2153 1.384 . S
N2152 C2148 1.427 . S
N2152 C2149 1.384 . S
N2153 C2145 1.427 . S
N2153 C2151 1.384 . S
H2154 C2160 0.930 . S
H2155 C2164 0.930 . S
H2156 C2169 0.929 . S
H2157 C2167 0.929 . S
H2158 C2162 0.929 . S
H2159 C2168 0.929 . S
C2160 H2154 0.930 . S
C2160 C2161 1.367 . S
C2160 C2168 1.378 . S
C2161 C2160 1.367 . S
C2161 C2169 1.433 . S
C2162 H2158 0.929 . S
C2162 C2164 1.378 . S
C2162 C2166 1.350 . S
C2163 C2166 1.463 . S
C2163 C2168 1.350 . S
C2163 N2171 1.427 . S
C2164 H2155 0.930 . S
C2164 C2162 1.378 . S
C2164 C2165 1.367 . S
C2165 C2164 1.367 . S
C2165 C2167 1.433 . S
C2166 C2162 1.350 . S
C2166 C2163 1.463 . S
C2166 N2170 1.427 . S
C2167 H2157 0.929 . S
C2167 C2165 1.433 . S
C2167 N2170 1.384 . S
C2168 H2159 0.929 . S
C2168 C2160 1.378 . S
C2168 C2163 1.350 . S
C2169 H2156 0.929 . S
C2169 C2161 1.433 . S
C2169 N2171 1.384 . S
N2170 C2166 1.427 . S
N2170 C2167 1.384 . S
N2171 C2163 1.427 . S
N2171 C2169 1.384 . S
H2172 C2178 0.930 . S
H2173 C2182 0.930 . S
H2174 C2187 0.929 . S
H2175 C2185 0.929 . S
H2176 C2180 0.929 . S
H2177 C2186 0.929 . S
C2178 H2172 0.930 . S
C2178 C2179 1.367 . S
C2178 C2186 1.378 . S
C2179 C2178 1.367 . S
C2179 C2187 1.433 . S
C2180 H2176 0.929 . S
C2180 C2182 1.378 . S
C2180 C2184 1.350 . S
C2181 C2184 1.463 . S
C2181 C2186 1.350 . S
C2181 N2189 1.427 . S
C2182 H2173 0.930 . S
C2182 C2180 1.378 . S
C2182 C2183 1.367 . S
C2183 C2182 1.367 . S
C2183 C2185 1.433 . S
C2184 C2180 1.350 . S
C2184 C2181 1.463 . S
C2184 N2188 1.427 . S
C2185 H2175 0.929 . S
C2185 C2183 1.433 . S
C2185 N2188 1.384 . S
C2186 H2177 0.929 . S
C2186 C2178 1.378 . S
C2186 C2181 1.350 . S
C2187 H2174 0.929 . S
C2187 C2179 1.433 . S
C2187 N2189 1.384 . S
N2188 C2184 1.427 . S
N2188 C2185 1.384 . S
N2189 C2181 1.427 . S
N2189 C2187 1.384 . S
H2190 C2196 0.930 . S
H2191 C2200 0.930 . S
H2192 C2205 0.929 . S
H2193 C2203 0.929 . S
H2194 C2198 0.929 . S
H2195 C2204 0.929 . S
C2196 H2190 0.930 . S
C2196 C2197 1.367 . S
C2196 C2204 1.378 . S
C2197 C2196 1.367 . S
C2197 C2205 1.433 . S
C2198 H2194 0.929 . S
C2198 C2200 1.378 . S
C2198 C2202 1.350 . S
C2199 C2202 1.463 . S
C2199 C2204 1.350 . S
C2199 N2207 1.427 . S
C2200 H2191 0.930 . S
C2200 C2198 1.378 . S
C2200 C2201 1.367 . S
C2201 C2200 1.367 . S
C2201 C2203 1.433 . S
C2202 C2198 1.350 . S
C2202 C2199 1.463 . S
C2202 N2206 1.427 . S
C2203 H2193 0.929 . S
C2203 C2201 1.433 . S
C2203 N2206 1.384 . S
C2204 H2195 0.929 . S
C2204 C2196 1.378 . S
C2204 C2199 1.350 . S
C2205 H2192 0.929 . S
C2205 C2197 1.433 . S
C2205 N2207 1.384 . S
N2206 C2202 1.427 . S
N2206 C2203 1.384 . S
N2207 C2199 1.427 . S
N2207 C2205 1.384 . S
H2208 C2214 0.930 . S
H2209 C2218 0.930 . S
H2210 C2223 0.929 . S
H2211 C2221 0.929 1_556 S
H2212 C2216 0.929 . S
H2213 C2222 0.929 . S
C2214 H2208 0.930 . S
C2214 C2215 1.367 1_655 S
C2214 C2222 1.378 . S
C2215 C2214 1.367 1_455 S
C2215 C2223 1.433 . S
C2216 H2212 0.929 . S
C2216 C2218 1.378 . S
C2216 C2220 1.350 . S
C2217 C2220 1.463 . S
C2217 C2222 1.350 1_455 S
C2217 N2225 1.427 . S
C2218 H2209 0.930 . S
C2218 C2216 1.378 . S
C2218 C2219 1.367 . S
C2219 C2218 1.367 . S
C2219 C2221 1.433 1_455 S
C2220 C2216 1.350 . S
C2220 C2217 1.463 . S
C2220 N2224 1.427 1_455 S
C2221 H2211 0.929 1_554 S
C2221 C2219 1.433 1_655 S
C2221 N2224 1.384 . S
C2222 H2213 0.929 . S
C2222 C2214 1.378 . S
C2222 C2217 1.350 1_655 S
C2223 H2210 0.929 . S
C2223 C2215 1.433 . S
C2223 N2225 1.384 . S
N2224 C2220 1.427 1_655 S
N2224 C2221 1.384 . S
N2225 C2217 1.427 . S
N2225 C2223 1.384 . S
H2226 C2232 0.930 . S
H2227 C2236 0.930 . S
H2228 C2241 0.929 1_556 S
H2229 C2239 0.929 . S
H2230 C2234 0.929 . S
H2231 C2240 0.929 . S
C2232 H2226 0.930 . S
C2232 C2233 1.367 . S
C2232 C2240 1.378 . S
C2233 C2232 1.367 . S
C2233 C2241 1.433 . S
C2234 H2230 0.929 . S
C2234 C2236 1.378 . S
C2234 C2238 1.350 . S
C2235 C2238 1.463 . S
C2235 C2240 1.350 . S
C2235 N2243 1.427 . S
C2236 H2227 0.930 . S
C2236 C2234 1.378 . S
C2236 C2237 1.367 . S
C2237 C2236 1.367 . S
C2237 C2239 1.433 . S
C2238 C2234 1.350 . S
C2238 C2235 1.463 . S
C2238 N2242 1.427 . S
C2239 H2229 0.929 . S
C2239 C2237 1.433 . S
C2239 N2242 1.384 . S
C2240 H2231 0.929 . S
C2240 C2232 1.378 . S
C2240 C2235 1.350 . S
C2241 H2228 0.929 1_554 S
C2241 C2233 1.433 . S
C2241 N2243 1.384 . S
N2242 C2238 1.427 . S
N2242 C2239 1.384 . S
N2243 C2235 1.427 . S
N2243 C2241 1.384 . S
H2244 C2250 0.930 . S
H2245 C2254 0.930 . S
H2246 C2259 0.929 1_554 S
H2247 C2257 0.929 . S
H2248 C2252 0.929 . S
H2249 C2258 0.929 . S
C2250 H2244 0.930 . S
C2250 C2251 1.367 . S
C2250 C2258 1.378 . S
C2251 C2250 1.367 . S
C2251 C2259 1.433 1_655 S
C2252 H2248 0.929 . S
C2252 C2254 1.378 . S
C2252 C2256 1.350 1_455 S
C2253 C2256 1.463 . S
C2253 C2258 1.350 . S
C2253 N2261 1.427 1_655 S
C2254 H2245 0.930 . S
C2254 C2252 1.378 . S
C2254 C2255 1.367 1_455 S
C2255 C2254 1.367 1_655 S
C2255 C2257 1.433 . S
C2256 C2252 1.350 1_655 S
C2256 C2253 1.463 . S
C2256 N2260 1.427 . S
C2257 H2247 0.929 . S
C2257 C2255 1.433 . S
C2257 N2260 1.384 . S
C2258 H2249 0.929 . S
C2258 C2250 1.378 . S
C2258 C2253 1.350 . S
C2259 H2246 0.929 1_556 S
C2259 C2251 1.433 1_455 S
C2259 N2261 1.384 . S
N2260 C2256 1.427 . S
N2260 C2257 1.384 . S
N2261 C2253 1.427 1_455 S
N2261 C2259 1.384 . S
H2262 C2268 0.930 . S
H2263 C2272 0.930 1_554 S
H2264 C2277 0.929 . S
H2265 C2275 0.929 . S
H2266 C2270 0.929 . S
H2267 C2276 0.929 . S
C2268 H2262 0.930 . S
C2268 C2269 1.367 . S
C2268 C2276 1.378 . S
C2269 C2268 1.367 . S
C2269 C2277 1.433 . S
C2270 H2266 0.929 . S
C2270 C2272 1.378 . S
C2270 C2274 1.350 . S
C2271 C2274 1.463 . S
C2271 C2276 1.350 . S
C2271 N2279 1.427 . S
C2272 H2263 0.930 1_556 S
C2272 C2270 1.378 . S
C2272 C2273 1.367 . S
C2273 C2272 1.367 . S
C2273 C2275 1.433 . S
C2274 C2270 1.350 . S
C2274 C2271 1.463 . S
C2274 N2278 1.427 . S
C2275 H2265 0.929 . S
C2275 C2273 1.433 . S
C2275 N2278 1.384 . S
C2276 H2267 0.929 . S
C2276 C2268 1.378 . S
C2276 C2271 1.350 . S
C2277 H2264 0.929 . S
C2277 C2269 1.433 . S
C2277 N2279 1.384 . S
N2278 C2274 1.427 . S
N2278 C2275 1.384 . S
N2279 C2271 1.427 . S
N2279 C2277 1.384 . S
H2280 C2286 0.930 . S
H2281 C2290 0.930 . S
H2282 C2295 0.929 . S
H2283 C2293 0.929 . S
H2284 C2288 0.929 . S
H2285 C2294 0.929 . S
C2286 H2280 0.930 . S
C2286 C2287 1.367 1_655 S
C2286 C2294 1.378 . S
C2287 C2286 1.367 1_455 S
C2287 C2295 1.433 . S
C2288 H2284 0.929 . S
C2288 C2290 1.378 . S
C2288 C2292 1.350 . S
C2289 C2292 1.463 . S
C2289 C2294 1.350 1_455 S
C2289 N2297 1.427 . S
C2290 H2281 0.930 . S
C2290 C2288 1.378 . S
C2290 C2291 1.367 . S
C2291 C2290 1.367 . S
C2291 C2293 1.433 1_455 S
C2292 C2288 1.350 . S
C2292 C2289 1.463 . S
C2292 N2296 1.427 1_455 S
C2293 H2283 0.929 . S
C2293 C2291 1.433 1_655 S
C2293 N2296 1.384 . S
C2294 H2285 0.929 . S
C2294 C2286 1.378 . S
C2294 C2289 1.350 1_655 S
C2295 H2282 0.929 . S
C2295 C2287 1.433 . S
C2295 N2297 1.384 . S
N2296 C2292 1.427 1_655 S
N2296 C2293 1.384 . S
N2297 C2289 1.427 . S
N2297 C2295 1.384 . S
H2298 C2304 0.930 . S
H2299 C2308 0.930 . S
H2300 C2313 0.929 . S
H2301 C2311 0.929 . S
H2302 C2306 0.929 . S
H2303 C2312 0.929 . S
C2304 H2298 0.930 . S
C2304 C2305 1.367 . S
C2304 C2312 1.378 . S
C2305 C2304 1.367 . S
C2305 C2313 1.433 . S
C2306 H2302 0.929 . S
C2306 C2308 1.378 . S
C2306 C2310 1.350 . S
C2307 C2310 1.463 . S
C2307 C2312 1.350 . S
C2307 N2315 1.427 . S
C2308 H2299 0.930 . S
C2308 C2306 1.378 . S
C2308 C2309 1.367 . S
C2309 C2308 1.367 . S
C2309 C2311 1.433 . S
C2310 C2306 1.350 . S
C2310 C2307 1.463 . S
C2310 N2314 1.427 . S
C2311 H2301 0.929 . S
C2311 C2309 1.433 . S
C2311 N2314 1.384 . S
C2312 H2303 0.929 . S
C2312 C2304 1.378 . S
C2312 C2307 1.350 . S
C2313 H2300 0.929 . S
C2313 C2305 1.433 . S
C2313 N2315 1.384 . S
N2314 C2310 1.427 . S
N2314 C2311 1.384 . S
N2315 C2307 1.427 . S
N2315 C2313 1.384 . S
H2316 C2322 0.930 . S
H2317 C2326 0.930 . S
H2318 C2331 0.929 . S
H2319 C2329 0.929 . S
H2320 C2324 0.929 . S
H2321 C2330 0.929 . S
C2322 H2316 0.930 . S
C2322 C2323 1.367 . S
C2322 C2330 1.378 . S
C2323 C2322 1.367 . S
C2323 C2331 1.433 1_655 S
C2324 H2320 0.929 . S
C2324 C2326 1.378 . S
C2324 C2328 1.350 1_455 S
C2325 C2328 1.463 . S
C2325 C2330 1.350 . S
C2325 N2333 1.427 1_655 S
C2326 H2317 0.930 . S
C2326 C2324 1.378 . S
C2326 C2327 1.367 1_455 S
C2327 C2326 1.367 1_655 S
C2327 C2329 1.433 . S
C2328 C2324 1.350 1_655 S
C2328 C2325 1.463 . S
C2328 N2332 1.427 . S
C2329 H2319 0.929 . S
C2329 C2327 1.433 . S
C2329 N2332 1.384 . S
C2330 H2321 0.929 . S
C2330 C2322 1.378 . S
C2330 C2325 1.350 . S
C2331 H2318 0.929 . S
C2331 C2323 1.433 1_455 S
C2331 N2333 1.384 . S
N2332 C2328 1.427 . S
N2332 C2329 1.384 . S
N2333 C2325 1.427 1_455 S
N2333 C2331 1.384 . S
H2334 C2340 0.930 . S
H2335 C2344 0.930 . S
H2336 C2349 0.929 . S
H2337 C2347 0.929 . S
H2338 C2342 0.929 . S
H2339 C2348 0.929 . S
C2340 H2334 0.930 . S
C2340 C2341 1.367 . S
C2340 C2348 1.378 . S
C2341 C2340 1.367 . S
C2341 C2349 1.433 . S
C2342 H2338 0.929 . S
C2342 C2344 1.378 . S
C2342 C2346 1.350 . S
C2343 C2346 1.463 . S
C2343 C2348 1.350 . S
C2343 N2351 1.427 . S
C2344 H2335 0.930 . S
C2344 C2342 1.378 . S
C2344 C2345 1.367 . S
C2345 C2344 1.367 . S
C2345 C2347 1.433 . S
C2346 C2342 1.350 . S
C2346 C2343 1.463 . S
C2346 N2350 1.427 . S
C2347 H2337 0.929 . S
C2347 C2345 1.433 . S
C2347 N2350 1.384 . S
C2348 H2339 0.929 . S
C2348 C2340 1.378 . S
C2348 C2343 1.350 . S
C2349 H2336 0.929 . S
C2349 C2341 1.433 . S
C2349 N2351 1.384 . S
N2350 C2346 1.427 . S
N2350 C2347 1.384 . S
N2351 C2343 1.427 . S
N2351 C2349 1.384 . S
H2352 C2358 0.930 . S
H2353 C2362 0.930 . S
H2354 C2367 0.929 . S
H2355 C2365 0.929 . S
H2356 C2360 0.929 . S
H2357 C2366 0.929 . S
C2358 H2352 0.930 . S
C2358 C2359 1.367 . S
C2358 C2366 1.378 . S
C2359 C2358 1.367 . S
C2359 C2367 1.433 . S
C2360 H2356 0.929 . S
C2360 C2362 1.378 . S
C2360 C2364 1.350 . S
C2361 C2364 1.463 . S
C2361 C2366 1.350 . S
C2361 N2369 1.427 . S
C2362 H2353 0.930 . S
C2362 C2360 1.378 . S
C2362 C2363 1.367 . S
C2363 C2362 1.367 . S
C2363 C2365 1.433 . S
C2364 C2360 1.350 . S
C2364 C2361 1.463 . S
C2364 N2368 1.427 . S
C2365 H2355 0.929 . S
C2365 C2363 1.433 . S
C2365 N2368 1.384 . S
C2366 H2357 0.929 . S
C2366 C2358 1.378 . S
C2366 C2361 1.350 . S
C2367 H2354 0.929 . S
C2367 C2359 1.433 . S
C2367 N2369 1.384 . S
N2368 C2364 1.427 . S
N2368 C2365 1.384 . S
N2369 C2361 1.427 . S
N2369 C2367 1.384 . S
H2370 C2376 0.930 . S
H2371 C2380 0.930 . S
H2372 C2385 0.929 . S
H2373 C2383 0.929 . S
H2374 C2378 0.929 . S
H2375 C2384 0.929 . S
C2376 H2370 0.930 . S
C2376 C2377 1.367 . S
C2376 C2384 1.378 . S
C2377 C2376 1.367 . S
C2377 C2385 1.433 . S
C2378 H2374 0.929 . S
C2378 C2380 1.378 . S
C2378 C2382 1.350 . S
C2379 C2382 1.463 . S
C2379 C2384 1.350 . S
C2379 N2387 1.427 . S
C2380 H2371 0.930 . S
C2380 C2378 1.378 . S
C2380 C2381 1.367 . S
C2381 C2380 1.367 . S
C2381 C2383 1.433 . S
C2382 C2378 1.350 . S
C2382 C2379 1.463 . S
C2382 N2386 1.427 . S
C2383 H2373 0.929 . S
C2383 C2381 1.433 . S
C2383 N2386 1.384 . S
C2384 H2375 0.929 . S
C2384 C2376 1.378 . S
C2384 C2379 1.350 . S
C2385 H2372 0.929 . S
C2385 C2377 1.433 . S
C2385 N2387 1.384 . S
N2386 C2382 1.427 . S
N2386 C2383 1.384 . S
N2387 C2379 1.427 . S
N2387 C2385 1.384 . S
H2388 C2394 0.930 . S
H2389 C2398 0.930 . S
H2390 C2403 0.929 . S
H2391 C2401 0.929 . S
H2392 C2396 0.929 . S
H2393 C2402 0.929 . S
C2394 H2388 0.930 . S
C2394 C2395 1.367 . S
C2394 C2402 1.378 . S
C2395 C2394 1.367 . S
C2395 C2403 1.433 . S
C2396 H2392 0.929 . S
C2396 C2398 1.378 . S
C2396 C2400 1.350 . S
C2397 C2400 1.463 . S
C2397 C2402 1.350 . S
C2397 N2405 1.427 . S
C2398 H2389 0.930 . S
C2398 C2396 1.378 . S
C2398 C2399 1.367 . S
C2399 C2398 1.367 . S
C2399 C2401 1.433 . S
C2400 C2396 1.350 . S
C2400 C2397 1.463 . S
C2400 N2404 1.427 . S
C2401 H2391 0.929 . S
C2401 C2399 1.433 . S
C2401 N2404 1.384 . S
C2402 H2393 0.929 . S
C2402 C2394 1.378 . S
C2402 C2397 1.350 . S
C2403 H2390 0.929 . S
C2403 C2395 1.433 . S
C2403 N2405 1.384 . S
N2404 C2400 1.427 . S
N2404 C2401 1.384 . S
N2405 C2397 1.427 . S
N2405 C2403 1.384 . S
H2406 C2412 0.930 . S
H2407 C2416 0.930 . S
H2408 C2421 0.929 . S
H2409 C2419 0.929 . S
H2410 C2414 0.929 . S
H2411 C2420 0.929 . S
C2412 H2406 0.930 . S
C2412 C2413 1.367 . S
C2412 C2420 1.378 . S
C2413 C2412 1.367 . S
C2413 C2421 1.433 . S
C2414 H2410 0.929 . S
C2414 C2416 1.378 . S
C2414 C2418 1.350 . S
C2415 C2418 1.463 . S
C2415 C2420 1.350 . S
C2415 N2423 1.427 . S
C2416 H2407 0.930 . S
C2416 C2414 1.378 . S
C2416 C2417 1.367 . S
C2417 C2416 1.367 . S
C2417 C2419 1.433 . S
C2418 C2414 1.350 . S
C2418 C2415 1.463 . S
C2418 N2422 1.427 . S
C2419 H2409 0.929 . S
C2419 C2417 1.433 . S
C2419 N2422 1.384 . S
C2420 H2411 0.929 . S
C2420 C2412 1.378 . S
C2420 C2415 1.350 . S
C2421 H2408 0.929 . S
C2421 C2413 1.433 . S
C2421 N2423 1.384 . S
N2422 C2418 1.427 . S
N2422 C2419 1.384 . S
N2423 C2415 1.427 . S
N2423 C2421 1.384 . S
H2424 C2430 0.930 . S
H2425 C2434 0.930 . S
H2426 C2439 0.929 . S
H2427 C2437 0.929 . S
H2428 C2432 0.929 . S
H2429 C2438 0.929 . S
C2430 H2424 0.930 . S
C2430 C2431 1.367 . S
C2430 C2438 1.378 . S
C2431 C2430 1.367 . S
C2431 C2439 1.433 . S
C2432 H2428 0.929 . S
C2432 C2434 1.378 . S
C2432 C2436 1.350 . S
C2433 C2436 1.463 . S
C2433 C2438 1.350 . S
C2433 N2441 1.427 . S
C2434 H2425 0.930 . S
C2434 C2432 1.378 . S
C2434 C2435 1.367 . S
C2435 C2434 1.367 . S
C2435 C2437 1.433 . S
C2436 C2432 1.350 . S
C2436 C2433 1.463 . S
C2436 N2440 1.427 . S
C2437 H2427 0.929 . S
C2437 C2435 1.433 . S
C2437 N2440 1.384 . S
C2438 H2429 0.929 . S
C2438 C2430 1.378 . S
C2438 C2433 1.350 . S
C2439 H2426 0.929 . S
C2439 C2431 1.433 . S
C2439 N2441 1.384 . S
N2440 C2436 1.427 . S
N2440 C2437 1.384 . S
N2441 C2433 1.427 . S
N2441 C2439 1.384 . S
H2442 C2448 0.930 . S
H2443 C2452 0.930 1_556 S
H2444 C2457 0.929 . S
H2445 C2455 0.929 . S
H2446 C2450 0.929 . S
H2447 C2456 0.929 . S
C2448 H2442 0.930 . S
C2448 C2449 1.367 . S
C2448 C2456 1.378 . S
C2449 C2448 1.367 . S
C2449 C2457 1.433 . S
C2450 H2446 0.929 . S
C2450 C2452 1.378 . S
C2450 C2454 1.350 . S
C2451 C2454 1.463 . S
C2451 C2456 1.350 . S
C2451 N2459 1.427 . S
C2452 H2443 0.930 1_554 S
C2452 C2450 1.378 . S
C2452 C2453 1.367 . S
C2453 C2452 1.367 . S
C2453 C2455 1.433 . S
C2454 C2450 1.350 . S
C2454 C2451 1.463 . S
C2454 N2458 1.427 . S
C2455 H2445 0.929 . S
C2455 C2453 1.433 . S
C2455 N2458 1.384 . S
C2456 H2447 0.929 . S
C2456 C2448 1.378 . S
C2456 C2451 1.350 . S
C2457 H2444 0.929 . S
C2457 C2449 1.433 . S
C2457 N2459 1.384 . S
N2458 C2454 1.427 . S
N2458 C2455 1.384 . S
N2459 C2451 1.427 . S
N2459 C2457 1.384 . S
H2460 C2466 0.930 . S
H2461 C2470 0.930 . S
H2462 C2475 0.929 1_554 S
H2463 C2473 0.929 . S
H2464 C2468 0.929 . S
H2465 C2474 0.929 . S
C2466 H2460 0.930 . S
C2466 C2467 1.367 . S
C2466 C2474 1.378 . S
C2467 C2466 1.367 . S
C2467 C2475 1.433 . S
C2468 H2464 0.929 . S
C2468 C2470 1.378 . S
C2468 C2472 1.350 . S
C2469 C2472 1.463 . S
C2469 C2474 1.350 . S
C2469 N2477 1.427 . S
C2470 H2461 0.930 . S
C2470 C2468 1.378 . S
C2470 C2471 1.367 . S
C2471 C2470 1.367 . S
C2471 C2473 1.433 . S
C2472 C2468 1.350 . S
C2472 C2469 1.463 . S
C2472 N2476 1.427 . S
C2473 H2463 0.929 . S
C2473 C2471 1.433 . S
C2473 N2476 1.384 . S
C2474 H2465 0.929 . S
C2474 C2466 1.378 . S
C2474 C2469 1.350 . S
C2475 H2462 0.929 1_556 S
C2475 C2467 1.433 . S
C2475 N2477 1.384 . S
N2476 C2472 1.427 . S
N2476 C2473 1.384 . S
N2477 C2469 1.427 . S
N2477 C2475 1.384 . S
H2478 C2484 0.930 . S
H2479 C2488 0.930 . S
H2480 C2493 0.929 . S
H2481 C2491 0.929 1_554 S
H2482 C2486 0.929 . S
H2483 C2492 0.929 . S
C2484 H2478 0.930 . S
C2484 C2485 1.367 . S
C2484 C2492 1.378 . S
C2485 C2484 1.367 . S
C2485 C2493 1.433 . S
C2486 H2482 0.929 . S
C2486 C2488 1.378 . S
C2486 C2490 1.350 . S
C2487 C2490 1.463 . S
C2487 C2492 1.350 . S
C2487 N2495 1.427 . S
C2488 H2479 0.930 . S
C2488 C2486 1.378 . S
C2488 C2489 1.367 . S
C2489 C2488 1.367 . S
C2489 C2491 1.433 . S
C2490 C2486 1.350 . S
C2490 C2487 1.463 . S
C2490 N2494 1.427 . S
C2491 H2481 0.929 1_556 S
C2491 C2489 1.433 . S
C2491 N2494 1.384 . S
C2492 H2483 0.929 . S
C2492 C2484 1.378 . S
C2492 C2487 1.350 . S
C2493 H2480 0.929 . S
C2493 C2485 1.433 . S
C2493 N2495 1.384 . S
N2494 C2490 1.427 . S
N2494 C2491 1.384 . S
N2495 C2487 1.427 . S
N2495 C2493 1.384 . S
C1063 C7 0.758 . S
C1067 C73 0.758 . S
C1081 C40 0.758 . S
C1085 C106 0.758 . S
C1099 C139 0.774 . S
C1103 C205 0.774 . S
C1117 C172 0.767 . S
C1121 C238 0.767 . S
C1135 C337 0.760 . S
C1139 C271 0.760 1_554 S
C1153 C304 0.769 1_554 S
C1157 C370 0.769 . S
C1171 C403 0.760 1_556 S
C1175 C469 0.761 . S
C1189 C436 0.773 1_556 S
C1193 C502 0.773 . S
C1207 C601 0.763 . S
C1211 C535 0.763 1_554 S
C1225 C634 0.772 . S
C1229 C568 0.772 1_554 S
C1243 C667 0.771 1_556 S
C1247 C733 0.771 . S
C1261 C766 0.758 . S
C1265 C700 0.758 1_556 S
C1279 C865 0.774 . S
C1283 C799 0.774 . S
C1297 C898 0.773 . S
C1301 C832 0.773 . S
C1315 C997 0.760 . S
C1319 C931 0.761 . S
C1333 C964 0.773 . S
C1337 C1030 0.773 . S
C1351 N13 1.819 . S
C1355 N46 1.802 . S
C1369 N79 1.814 . S
C1373 N112 1.811 . S
C1387 N178 1.808 . S
C1391 N145 1.812 . S
C1405 N211 1.819 . S
C1409 N244 1.802 . S
C1423 N310 1.807 . S
C1427 N277 1.809 . S
C1441 N343 1.815 . S
C1445 N376 1.800 . S
C1459 N409 1.811 . S
C1463 N442 1.802 . S
C1477 N475 1.819 . S
C1481 N508 1.804 . S
C1495 N541 1.811 . S
C1499 N574 1.822 . S
C1513 N640 1.812 . S
C1517 N607 1.822 . S
C1531 N706 1.817 . S
C1535 N673 1.811 . S
C1549 N739 1.821 . S
C1553 N772 1.818 . S
C1567 N805 1.816 . S
C1571 N838 1.811 . S
C1585 N871 1.810 . S
C1589 N904 1.819 . S
C1603 N937 1.817 . S
C1607 N970 1.811 . S
C1621 N1036 1.812 . S
C1625 N1003 1.823 . S
C1639 C153 1.639 . S
C1643 C21 1.639 . S
C1657 C54 1.647 . S
C1661 C978 1.647 . S
C1675 C483 1.646 . S
C1679 C87 1.646 . S
C1693 C780 1.644 . S
C1697 C120 1.644 . S
C1711 C846 1.646 . S
C1715 C186 1.646 . S
C1729 C351 1.646 . S
C1733 C219 1.646 . S
C1747 C252 1.637 . S
C1751 C648 1.637 . S
C1765 C417 1.645 . S
C1769 C285 1.645 . S
C1783 C318 1.647 . S
C1787 C714 1.647 . S
C1801 C384 1.647 . S
C1805 C1044 1.647 . S
C1819 C582 1.637 . S
C1823 C450 1.637 . S
C1837 C912 1.638 . S
C1841 C516 1.638 . S
C1855 C549 1.636 . S
C1859 C681 1.636 . S
C1873 C615 1.646 . S
C1877 C1011 1.646 . S
C1891 C879 1.646 . S
C1895 C747 1.646 . S
C1909 C813 1.646 . S
C1913 C945 1.646 . S
C1927 N2 1.224 . S
C1931 N629 1.235 . S
C1945 N596 1.219 . S
C1949 N35 1.223 . S
C1963 N68 1.230 . S
C1967 N563 1.233 . S
C1981 N101 1.232 . S
C1985 N530 1.229 . S
C1999 N761 1.236 . S
C2003 N134 1.240 . S
C2017 N167 1.224 . S
C2021 N728 1.220 . S
C2035 N695 1.224 . S
C2039 N200 1.228 . S
C2053 N233 1.222 . S
C2057 N662 1.218 . S
C2071 N266 1.239 . S
C2075 N893 1.245 . S
C2089 N299 1.234 . S
C2093 N860 1.232 . S
C2107 N332 1.224 . S
C2111 N827 1.228 . S
C2125 N365 1.233 . S
C2129 N794 1.231 . S
C2143 N398 1.239 . S
C2147 N1025 1.245 . S
C2161 N992 1.234 . S
C2165 N431 1.235 . S
C2179 N959 1.218 . S
C2183 N464 1.226 . S
C2197 N926 1.219 . S
C2201 N497 1.222 . S
C2215 C18 1.272 . S
C2219 C84 1.272 1_554 S
C2233 C117 1.272 1_554 S
C2237 C51 1.272 . S
C2251 C216 1.272 1_556 S
C2255 C150 1.272 . S
C2269 C183 1.270 . S
C2273 C249 1.271 1_556 S
C2287 C282 1.272 . S
C2291 C348 1.272 . S
C2305 C315 1.271 . S
C2309 C381 1.272 . S
C2323 C480 1.272 . S
C2327 C414 1.272 . S
C2341 C447 1.270 . S
C2345 C513 1.271 . S
C2359 C546 1.271 . S
C2363 C612 1.271 . S
C2377 C579 1.271 . S
C2381 C645 1.270 . S
C2395 C744 1.271 . S
C2399 C678 1.271 . S
C2413 C777 1.270 . S
C2417 C711 1.271 . S
C2431 C876 1.271 1_554 S
C2435 C810 1.272 . S
C2449 C843 1.270 . S
C2453 C909 1.270 1_554 S
C2467 C1008 1.272 1_556 S
C2471 C942 1.272 . S
C2485 C975 1.272 . S
C2489 C1041 1.271 1_556 S
