# Generated by pormake.
# Topology wme, (6)-cn, num edge types: 1
# Building blocks:
#     Node 0, Type 0, BuildingBlock: BETDAH_clean_sbu_0, # of connection points: 6
#     Node 1, Type 0, BuildingBlock: BETDAH_clean_sbu_0, # of connection points: 6
#     Node 2, Type 0, BuildingBlock: BETDAH_clean_sbu_0, # of connection points: 6
#     Node 3, Type 0, BuildingBlock: BETDAH_clean_sbu_0, # of connection points: 6
#     Node 4, Type 0, BuildingBlock: BETDAH_clean_sbu_0, # of connection points: 6
#     Node 5, Type 0, BuildingBlock: BETDAH_clean_sbu_0, # of connection points: 6
#     Node 6, Type 0, BuildingBlock: BETDAH_clean_sbu_0, # of connection points: 6
#     Node 7, Type 0, BuildingBlock: BETDAH_clean_sbu_0, # of connection points: 6
#     Node 8, Type 0, BuildingBlock: BETDAH_clean_sbu_0, # of connection points: 6
#     Node 9, Type 0, BuildingBlock: BETDAH_clean_sbu_0, # of connection points: 6
#     Node 10, Type 0, BuildingBlock: BETDAH_clean_sbu_0, # of connection points: 6
#     Node 11, Type 0, BuildingBlock: BETDAH_clean_sbu_0, # of connection points: 6
#     Edge 12, Type (0, 0), BuildingBlock: MIFKUJ_clean_linker_0, # of connection points: 2
#     Edge 13, Type (0, 0), BuildingBlock: MIFKUJ_clean_linker_0, # of connection points: 2
#     Edge 14, Type (0, 0), BuildingBlock: MIFKUJ_clean_linker_0, # of connection points: 2
#     Edge 15, Type (0, 0), BuildingBlock: MIFKUJ_clean_linker_0, # of connection points: 2
#     Edge 16, Type (0, 0), BuildingBlock: MIFKUJ_clean_linker_0, # of connection points: 2
#     Edge 17, Type (0, 0), BuildingBlock: MIFKUJ_clean_linker_0, # of connection points: 2
#     Edge 18, Type (0, 0), BuildingBlock: MIFKUJ_clean_linker_0, # of connection points: 2
#     Edge 19, Type (0, 0), BuildingBlock: MIFKUJ_clean_linker_0, # of connection points: 2
#     Edge 20, Type (0, 0), BuildingBlock: MIFKUJ_clean_linker_0, # of connection points: 2
#     Edge 21, Type (0, 0), BuildingBlock: MIFKUJ_clean_linker_0, # of connection points: 2
#     Edge 22, Type (0, 0), BuildingBlock: MIFKUJ_clean_linker_0, # of connection points: 2
#     Edge 23, Type (0, 0), BuildingBlock: MIFKUJ_clean_linker_0, # of connection points: 2
#     Edge 24, Type (0, 0), BuildingBlock: MIFKUJ_clean_linker_0, # of connection points: 2
#     Edge 25, Type (0, 0), BuildingBlock: MIFKUJ_clean_linker_0, # of connection points: 2
#     Edge 26, Type (0, 0), BuildingBlock: MIFKUJ_clean_linker_0, # of connection points: 2
#     Edge 27, Type (0, 0), BuildingBlock: MIFKUJ_clean_linker_0, # of connection points: 2
#     Edge 28, Type (0, 0), BuildingBlock: MIFKUJ_clean_linker_0, # of connection points: 2
#     Edge 29, Type (0, 0), BuildingBlock: MIFKUJ_clean_linker_0, # of connection points: 2
#     Edge 30, Type (0, 0), BuildingBlock: MIFKUJ_clean_linker_0, # of connection points: 2
#     Edge 31, Type (0, 0), BuildingBlock: MIFKUJ_clean_linker_0, # of connection points: 2
#     Edge 32, Type (0, 0), BuildingBlock: MIFKUJ_clean_linker_0, # of connection points: 2
#     Edge 33, Type (0, 0), BuildingBlock: MIFKUJ_clean_linker_0, # of connection points: 2
#     Edge 34, Type (0, 0), BuildingBlock: MIFKUJ_clean_linker_0, # of connection points: 2
#     Edge 35, Type (0, 0), BuildingBlock: MIFKUJ_clean_linker_0, # of connection points: 2
#     Edge 36, Type (0, 0), BuildingBlock: MIFKUJ_clean_linker_0, # of connection points: 2
#     Edge 37, Type (0, 0), BuildingBlock: MIFKUJ_clean_linker_0, # of connection points: 2
#     Edge 38, Type (0, 0), BuildingBlock: MIFKUJ_clean_linker_0, # of connection points: 2
#     Edge 39, Type (0, 0), BuildingBlock: MIFKUJ_clean_linker_0, # of connection points: 2
#     Edge 40, Type (0, 0), BuildingBlock: MIFKUJ_clean_linker_0, # of connection points: 2
#     Edge 41, Type (0, 0), BuildingBlock: MIFKUJ_clean_linker_0, # of connection points: 2
#     Edge 42, Type (0, 0), BuildingBlock: MIFKUJ_clean_linker_0, # of connection points: 2
#     Edge 43, Type (0, 0), BuildingBlock: MIFKUJ_clean_linker_0, # of connection points: 2
#     Edge 44, Type (0, 0), BuildingBlock: MIFKUJ_clean_linker_0, # of connection points: 2
#     Edge 45, Type (0, 0), BuildingBlock: MIFKUJ_clean_linker_0, # of connection points: 2
#     Edge 46, Type (0, 0), BuildingBlock: MIFKUJ_clean_linker_0, # of connection points: 2
#     Edge 47, Type (0, 0), BuildingBlock: MIFKUJ_clean_linker_0, # of connection points: 2
# Relax obj value: 0.098
# Max RMSD: 0.196
# Mean RMSD: 0.196
data_MOF--net-wme--node1-BETDAH_clean_sbu_0--edge1-MIFKUJ_clean_linker_0
_symmetry_space_group_name_H-M    P1
_symmetry_Int_Tables_number       1
_symmetry_cell_setting            triclinic
loop_
_symmetry_equiv_pos_as_xyz
'x, y, z'
_cell_length_a     49.389982
_cell_length_b     49.398926
_cell_length_c     67.593812
_cell_angle_alpha  90.179554
_cell_angle_beta   89.881252
_cell_angle_gamma 119.88334
loop_
_atom_site_label
_atom_site_type_symbol
_atom_site_fract_x
_atom_site_fract_y
_atom_site_fract_z
_atom_type_partial_charge
Ho0 Ho 0.20688 0.36163 0.12731 0.0
Ho1 Ho 0.24093 0.327 0.13766 0.0
C2 C 0.28161 0.40096 0.13532 0.0
C3 C 0.18203 0.39696 0.12389 0.0
C4 C 0.18597 0.42866 0.12572 0.0
C5 C 0.19249 0.44457 0.14394 0.0
C6 C 0.19099 0.47211 0.14575 0.0
C7 C 0.18267 0.48415 0.12946 0.0
C8 C 0.17745 0.46882 0.11111 0.0
C9 C 0.17904 0.44144 0.1093 0.0
C10 C 0.22246 0.33648 0.09649 0.0
C11 C 0.16466 0.28894 0.13207 0.0
C12 C 0.26074 0.28734 0.13789 0.0
C13 C 0.24604 0.25282 0.1364 0.0
C14 C 0.23985 0.23788 0.11785 0.0
C15 C 0.22656 0.20542 0.11654 0.0
C16 C 0.21918 0.18708 0.13373 0.0
C17 C 0.22528 0.20202 0.15226 0.0
C18 C 0.23865 0.23448 0.15358 0.0
C19 C 0.22713 0.35112 0.16949 0.0
O20 O 0.25463 0.4006 0.13574 0.0
O21 O 0.28289 0.37486 0.13371 0.0
O22 O 0.19636 0.39165 0.1094 0.0
O23 O 0.18079 0.38188 0.14006 0.0
O24 O 0.19605 0.33603 0.09777 0.0
O25 O 0.23906 0.3507 0.11117 0.0
O26 O 0.19089 0.28773 0.1325 0.0
O27 O 0.16482 0.31563 0.13218 0.0
O28 O 0.2552 0.29853 0.15398 0.0
O29 O 0.26016 0.30213 0.12203 0.0
O30 O 0.25258 0.34985 0.16724 0.0
O31 O 0.20936 0.33824 0.15474 0.0
H32 H 0.19769 0.4352 0.15693 0.0
H33 H 0.195 0.48321 0.16013 0.0
H34 H 0.17154 0.47769 0.09817 0.0
H35 H 0.17369 0.42957 0.09512 0.0
H36 H 0.24538 0.25124 0.10428 0.0
H37 H 0.22196 0.19468 0.10202 0.0
H38 H 0.22043 0.18871 0.1658 0.0
H39 H 0.24345 0.24523 0.16809 0.0
Ho40 Ho 0.8609 0.2011 0.62975 0.0
Ho41 Ho 0.93558 0.24001 0.63371 0.0
C42 C 0.89748 0.27703 0.63594 0.0
C43 C 0.80065 0.17554 0.6314 0.0
C44 C 0.77354 0.17928 0.63693 0.0
C45 C 0.75618 0.16471 0.65406 0.0
C46 C 0.72731 0.16282 0.65753 0.0
C47 C 0.71496 0.17531 0.64392 0.0
C48 C 0.73303 0.19117 0.62726 0.0
C49 C 0.76188 0.19305 0.62378 0.0
C50 C 0.89597 0.21391 0.59655 0.0
C51 C 0.89692 0.16323 0.63393 0.0
C52 C 0.99309 0.262 0.62355 0.0
C53 C 1.0147 0.24941 0.62499 0.0
C54 C 1.00707 0.22039 0.61652 0.0
C55 C 0.02745 0.20855 0.61814 0.0
C56 C 0.05591 0.22529 0.62836 0.0
C57 C 0.06342 0.25427 0.63689 0.0
C58 C 0.04309 0.26622 0.63516 0.0
C59 C 0.90853 0.22219 0.6699 0.0
O60 O 0.87109 0.2498 0.63699 0.0
O61 O 0.92532 0.27958 0.63306 0.0
O62 O 0.81736 0.19085 0.61598 0.0
O63 O 0.81747 0.17326 0.64559 0.0
O64 O 0.87078 0.18735 0.59956 0.0
O65 O 0.9008 0.23173 0.61101 0.0
O66 O 0.92376 0.18939 0.6307 0.0
O67 O 0.87017 0.16268 0.63671 0.0
O68 O 0.98492 0.26963 0.64022 0.0
O69 O 0.96966 0.24751 0.61128 0.0
O70 O 0.93846 0.23878 0.66704 0.0
O71 O 0.89538 0.21641 0.65324 0.0
H72 H 0.7643 0.15359 0.6644 0.0
H73 H 0.71431 0.15089 0.67068 0.0
H74 H 0.72419 0.20081 0.61635 0.0
H75 H 0.77435 0.20409 0.6103 0.0
H76 H 0.98532 0.2067 0.6086 0.0
H77 H 0.02101 0.18642 0.61112 0.0
H78 H 0.08487 0.26763 0.64514 0.0
H79 H 0.04946 0.28854 0.64189 0.0
Ho80 Ho 0.67154 0.85887 0.13121 0.0
Ho81 Ho 0.70826 0.93298 0.13809 0.0
C82 C 0.63303 0.89567 0.13874 0.0
C83 C 0.63615 0.79867 0.1301 0.0
C84 C 0.60575 0.77076 0.13512 0.0
C85 C 0.60478 0.74972 0.14942 0.0
C86 C 0.57802 0.72044 0.15182 0.0
C87 C 0.55154 0.71133 0.13988 0.0
C88 C 0.55202 0.73297 0.12616 0.0
C89 C 0.57882 0.76229 0.12377 0.0
C90 C 0.69473 0.89697 0.09914 0.0
C91 C 0.74475 0.89275 0.13824 0.0
C92 C 0.74446 0.9912 0.12976 0.0
C93 C 0.77726 0.01468 0.13371 0.0
C94 C 0.79364 0.03789 0.11959 0.0
C95 C 0.82575 0.05811 0.12156 0.0
C96 C 0.84227 0.05569 0.13779 0.0
C97 C 0.82556 0.03262 0.15215 0.0
C98 C 0.79337 0.01219 0.15007 0.0
C99 C 0.69605 0.90288 0.17328 0.0
O100 O 0.63374 0.86921 0.14012 0.0
O101 O 0.65855 0.92324 0.13567 0.0
O102 O 0.6368 0.81737 0.11618 0.0
O103 O 0.65602 0.81349 0.14442 0.0
O104 O 0.69471 0.87077 0.10074 0.0
O105 O 0.68214 0.90078 0.11419 0.0
O106 O 0.74635 0.92006 0.13512 0.0
O107 O 0.7181 0.86621 0.13967 0.0
O108 O 0.72485 0.98178 0.14471 0.0
O109 O 0.74096 0.96825 0.11834 0.0
O110 O 0.71012 0.93306 0.17147 0.0
O111 O 0.68972 0.8911 0.15617 0.0
H112 H 0.62523 0.75536 0.15825 0.0
H113 H 0.57835 0.70465 0.16277 0.0
H114 H 0.53221 0.72673 0.11658 0.0
H115 H 0.57882 0.77772 0.11242 0.0
H116 H 0.78175 0.03974 0.10665 0.0
H117 H 0.83775 0.07498 0.10994 0.0
H118 H 0.83735 0.03019 0.16493 0.0
H119 H 0.78122 0.99404 0.16098 0.0
Ho120 Ho 0.82793 0.66507 0.63003 0.0
Ho121 Ho 0.79566 0.70536 0.64096 0.0
C122 C 0.75476 0.6306 0.64324 0.0
C123 C 0.84863 0.62651 0.62555 0.0
C124 C 0.84589 0.5964 0.63164 0.0
C125 C 0.86096 0.59435 0.64874 0.0
C126 C 0.86313 0.56761 0.65243 0.0
C127 C 0.8504 0.54235 0.63909 0.0
C128 C 0.8342 0.54392 0.62244 0.0
C129 C 0.83209 0.57066 0.61873 0.0
C130 C 0.81276 0.69161 0.60004 0.0
C131 C 0.87188 0.73783 0.63752 0.0
C132 C 0.77581 0.74416 0.63566 0.0
C133 C 0.79032 0.77824 0.63848 0.0
C134 C 0.82226 0.79801 0.6346 0.0
C135 C 0.83551 0.8304 0.63567 0.0
C136 C 0.8171 0.84384 0.6406 0.0
C137 C 0.78533 0.82392 0.6452 0.0
C138 C 0.77208 0.79142 0.64413 0.0
C139 C 0.81762 0.69216 0.6741 0.0
O140 O 0.78118 0.62975 0.64232 0.0
O141 O 0.75367 0.6568 0.64096 0.0
O142 O 0.82627 0.62571 0.6147 0.0
O143 O 0.86035 0.64971 0.63823 0.0
O144 O 0.83788 0.6895 0.60021 0.0
O145 O 0.79707 0.67895 0.61531 0.0
O146 O 0.84693 0.74135 0.63645 0.0
O147 O 0.8699 0.71017 0.63762 0.0
O148 O 0.76948 0.7271 0.65167 0.0
O149 O 0.78818 0.73548 0.6216 0.0
O150 O 0.80393 0.70878 0.67401 0.0
O151 O 0.81892 0.68416 0.65657 0.0
H152 H 0.87213 0.61383 0.65893 0.0
H153 H 0.87541 0.56701 0.66554 0.0
H154 H 0.82445 0.52511 0.61171 0.0
H155 H 0.82082 0.57169 0.60525 0.0
H156 H 0.83686 0.7885 0.6301 0.0
H157 H 0.85989 0.84487 0.63177 0.0
H158 H 0.77057 0.83344 0.64939 0.0
H159 H 0.74744 0.77662 0.64727 0.0
Ho160 Ho 0.17365 0.82377 0.1264 0.0
Ho161 Ho 0.09996 0.78891 0.13343 0.0
C162 C 0.13568 0.74986 0.13745 0.0
C163 C 0.23355 0.84673 0.12513 0.0
C164 C 0.26118 0.84467 0.1316 0.0
C165 C 0.28238 0.86693 0.14499 0.0
C166 C 0.31158 0.86965 0.14835 0.0
C167 C 0.32046 0.85032 0.13829 0.0
C168 C 0.29862 0.82696 0.12565 0.0
C169 C 0.26935 0.82422 0.12229 0.0
C170 C 0.13542 0.80745 0.09435 0.0
C171 C 0.14128 0.86538 0.12981 0.0
C172 C 0.04211 0.76766 0.1246 0.0
C173 C 0.02 0.77927 0.1276 0.0
C174 C 1.00405 0.78184 0.11119 0.0
C175 C 0.98527 0.79549 0.11314 0.0
C176 C 0.98184 0.80665 0.1316 0.0
C177 C 0.99741 0.8036 0.1481 0.0
C178 C 1.01651 0.79025 0.1461 0.0
C179 C 0.13018 0.81089 0.16832 0.0
O180 O 0.16243 0.77674 0.1382 0.0
O181 O 0.10848 0.74809 0.13345 0.0
O182 O 0.21414 0.82601 0.11247 0.0
O183 O 0.2196 0.85542 0.13814 0.0
O184 O 0.16171 0.83346 0.09559 0.0
O185 O 0.13146 0.79188 0.10978 0.0
O186 O 0.11345 0.83969 0.1289 0.0
O187 O 0.16776 0.86501 0.13107 0.0
O188 O 0.05102 0.75836 0.14024 0.0
O189 O 0.06515 0.78455 0.1125 0.0
O190 O 0.09998 0.79578 0.16646 0.0
O191 O 0.14212 0.81338 0.15143 0.0
H192 H 0.27697 0.88325 0.15225 0.0
H193 H 0.32756 0.88753 0.15845 0.0
H194 H 0.30473 0.81183 0.11753 0.0
H195 H 0.25377 0.80701 0.1117 0.0
H196 H 1.00659 0.77377 0.09675 0.0
H197 H 0.97326 0.79715 0.10021 0.0
H198 H 0.99536 0.81217 0.16248 0.0
H199 H 0.02894 0.78904 0.15895 0.0
Ho200 Ho 0.36948 0.17238 0.62629 0.0
Ho201 Ho 0.32934 0.09931 0.63635 0.0
C202 C 0.40476 0.13382 0.63778 0.0
C203 C 0.40641 0.23209 0.62341 0.0
C204 C 0.43703 0.25995 0.62777 0.0
C205 C 0.4475 0.26988 0.6472 0.0
C206 C 0.47436 0.29891 0.65064 0.0
C207 C 0.49117 0.31862 0.63474 0.0
C208 C 0.48097 0.30803 0.61535 0.0
C209 C 0.45432 0.27912 0.61195 0.0
C210 C 0.34527 0.13131 0.59563 0.0
C211 C 0.29591 0.1422 0.63205 0.0
C212 C 0.29211 0.04052 0.63011 0.0
C213 C 0.25935 0.01774 0.63468 0.0
C214 C 0.24435 0.9897 0.62402 0.0
C215 C 0.21242 0.96907 0.62657 0.0
C216 C 0.19475 0.97605 0.63989 0.0
C217 C 0.21007 1.00414 0.65075 0.0
C218 C 0.24207 0.02486 0.6481 0.0
C219 C 0.34113 0.13372 0.66976 0.0
O220 O 0.40571 0.1611 0.63684 0.0
O221 O 0.37838 0.10653 0.63612 0.0
O222 O 0.4055 0.21202 0.61034 0.0
O223 O 0.38635 0.21893 0.63789 0.0
O224 O 0.34762 0.15868 0.59565 0.0
O225 O 0.35674 0.12795 0.61138 0.0
O226 O 0.29282 0.11389 0.63143 0.0
O227 O 0.32334 0.16807 0.63233 0.0
O228 O 0.31185 0.05117 0.64497 0.0
O229 O 0.29575 0.06245 0.61775 0.0
O230 O 0.32492 0.10343 0.66942 0.0
O231 O 0.34938 0.14332 0.65234 0.0
H232 H 0.43455 0.25568 0.65973 0.0
H233 H 0.4817 0.30605 0.66576 0.0
H234 H 0.49282 0.32262 0.60272 0.0
H235 H 0.44648 0.27227 0.59685 0.0
H236 H 0.25721 0.98411 0.61331 0.0
H237 H 0.20143 0.94805 0.61765 0.0
H238 H 0.19736 1.01017 0.66127 0.0
H239 H 0.2532 0.04666 0.65627 0.0
Ho240 Ho 0.67205 0.81894 0.41191 0.0
Ho241 Ho 0.7082 0.7811 0.40496 0.0
C242 C 0.63295 0.74315 0.40511 0.0
C243 C 0.63796 0.84518 0.41354 0.0
C244 C 0.60725 0.84299 0.41096 0.0
C245 C 0.5883 0.82907 0.39429 0.0
C246 C 0.56108 0.83093 0.3915 0.0
C247 C 0.55264 0.847 0.40521 0.0
C248 C 0.57124 0.85997 0.42212 0.0
C249 C 0.59817 0.85796 0.42494 0.0
C250 C 0.69681 0.80538 0.44357 0.0
C251 C 0.74506 0.85788 0.40439 0.0
C252 C 0.7453 0.76026 0.41363 0.0
C253 C 0.77959 0.77329 0.4121 0.0
C254 C 0.79839 0.78627 0.42896 0.0
C255 C 0.83073 0.79903 0.42792 0.0
C256 C 0.84523 0.79936 0.40994 0.0
C257 C 0.82655 0.7866 0.393 0.0
C258 C 0.79404 0.77354 0.39409 0.0
C259 C 0.69562 0.79876 0.36981 0.0
O260 O 0.63327 0.77024 0.40509 0.0
O261 O 0.6587 0.741 0.40662 0.0
O262 O 0.64149 0.83043 0.42848 0.0
O263 O 0.65353 0.84545 0.39773 0.0
O264 O 0.69818 0.83211 0.4413 0.0
O265 O 0.68282 0.78796 0.42916 0.0
O266 O 0.7466 0.83208 0.40738 0.0
O267 O 0.71831 0.85764 0.40288 0.0
O268 O 0.72896 0.75274 0.3972 0.0
O269 O 0.73638 0.77422 0.42641 0.0
O270 O 0.70934 0.78224 0.37153 0.0
O271 O 0.6896 0.80443 0.38695 0.0
H272 H 0.59489 0.81748 0.38324 0.0
H273 H 0.54725 0.82074 0.3783 0.0
H274 H 0.56514 0.87199 0.43314 0.0
H275 H 0.61247 0.86892 0.43788 0.0
H276 H 0.78811 0.78685 0.443 0.0
H277 H 0.84447 0.80898 0.44118 0.0
H278 H 0.83701 0.78622 0.37898 0.0
H279 H 0.78031 0.76374 0.38081 0.0
Ho280 Ho 0.8596 0.66476 0.91259 0.0
Ho281 Ho 0.93456 0.70235 0.90955 0.0
C282 C 0.89778 0.62734 0.90619 0.0
C283 C 0.79947 0.62905 0.91112 0.0
C284 C 0.77194 0.59869 0.90544 0.0
C285 C 0.75096 0.59832 0.89128 0.0
C286 C 0.72175 0.57161 0.88845 0.0
C287 C 0.71263 0.54455 0.89978 0.0
C288 C 0.73432 0.54437 0.91321 0.0
C289 C 0.76359 0.57114 0.91606 0.0
C290 C 0.89394 0.68635 0.94628 0.0
C291 C 0.89405 0.73856 0.90837 0.0
C292 C 0.99154 0.73781 0.92091 0.0
C293 C 1.0153 0.77112 0.91838 0.0
C294 C 0.03114 0.78888 0.9351 0.0
C295 C 0.05189 0.82099 0.9335 0.0
C296 C 0.05742 0.83605 0.91508 0.0
C297 C 0.04189 0.81811 0.89828 0.0
C298 C 0.02087 0.78601 0.89993 0.0
C299 C 0.90838 0.69405 0.87314 0.0
O300 O 0.8714 0.62791 0.90369 0.0
O301 O 0.92476 0.65258 0.91088 0.0
O302 O 0.8167 0.62964 0.92602 0.0
O303 O 0.81568 0.64905 0.89717 0.0
O304 O 0.86844 0.68722 0.94322 0.0
O305 O 0.89937 0.67428 0.93158 0.0
O306 O 0.92082 0.73976 0.91292 0.0
O307 O 0.8679 0.71207 0.905 0.0
O308 O 0.984 0.71943 0.90534 0.0
O309 O 0.96727 0.73283 0.9315 0.0
O310 O 0.93832 0.70901 0.87628 0.0
O311 O 0.89489 0.68516 0.88959 0.0
H312 H 0.75657 0.61921 0.88298 0.0
H313 H 0.70597 0.57246 0.8777 0.0
H314 H 0.72812 0.52408 0.92228 0.0
H315 H 0.77902 0.57062 0.92721 0.0
H316 H 0.02706 0.77794 0.9495 0.0
H317 H 0.06371 0.83403 0.94669 0.0
H318 H 0.0454 0.82906 0.88393 0.0
H319 H 1.00863 0.77299 0.88684 0.0
Ho320 Ho 0.20952 0.84961 0.41374 0.0
Ho321 Ho 0.24349 0.9219 0.40136 0.0
C322 C 0.28238 0.88557 0.39956 0.0
C323 C 0.18592 0.79022 0.41923 0.0
C324 C 0.18674 0.76096 0.41632 0.0
C325 C 0.19411 0.75245 0.39808 0.0
C326 C 0.1909 0.7227 0.39559 0.0
C327 C 0.1799 0.70094 0.4112 0.0
C328 C 0.17356 0.71008 0.42954 0.0
C329 C 0.17699 0.73971 0.43205 0.0
C330 C 0.22965 0.89346 0.44286 0.0
C331 C 0.1676 0.88155 0.40841 0.0
C332 C 0.26581 0.98101 0.40658 0.0
C333 C 0.25449 1.00302 0.40288 0.0
C334 C 0.26616 0.03021 0.41434 0.0
C335 C 0.25359 0.04993 0.41258 0.0
C336 C 0.22899 0.04286 0.39929 0.0
C337 C 0.2174 0.01551 0.38775 0.0
C338 C 0.22997 0.99571 0.38959 0.0
C339 C 0.21809 0.88517 0.36918 0.0
O340 O 0.25573 0.85877 0.4015 0.0
O341 O 0.2843 0.91335 0.40114 0.0
O342 O 0.20647 0.8114 0.43116 0.0
O343 O 0.17866 0.80208 0.40418 0.0
O344 O 0.20393 0.86686 0.44393 0.0
O345 O 0.24319 0.89473 0.42687 0.0
O346 O 0.19322 0.90933 0.40694 0.0
O347 O 0.16793 0.85501 0.40932 0.0
O348 O 0.2727 0.9694 0.39111 0.0
O349 O 0.24993 0.96001 0.42005 0.0
O350 O 0.23354 0.91548 0.36853 0.0
O351 O 0.21728 0.8767 0.38685 0.0
H352 H 0.20159 0.76842 0.38569 0.0
H353 H 0.19593 0.71634 0.38126 0.0
H354 H 0.16558 0.69415 0.44197 0.0
H355 H 0.1711 0.74572 0.44624 0.0
H356 H 0.28454 0.03581 0.42504 0.0
H357 H 0.26264 0.07034 0.42203 0.0
H358 H 0.19865 1.00942 0.37728 0.0
H359 H 0.22023 0.97446 0.38088 0.0
Ho360 Ho 0.36238 0.20144 0.91146 0.0
Ho361 Ho 0.32499 0.23805 0.9054 0.0
C362 C 0.40042 0.27671 0.9037 0.0
C363 C 0.39774 0.17654 0.91224 0.0
C364 C 0.42888 0.18019 0.90807 0.0
C365 C 0.43539 0.1713 0.88967 0.0
C366 C 0.46234 0.16902 0.88706 0.0
C367 C 0.48328 0.17539 0.90282 0.0
C368 C 0.47737 0.18555 0.92094 0.0
C369 C 0.45049 0.18784 0.92354 0.0
C370 C 0.33919 0.21578 0.94387 0.0
C371 C 0.28923 0.16149 0.90505 0.0
C372 C 0.28825 0.25919 0.91478 0.0
C373 C 0.25432 0.24757 0.91259 0.0
C374 C 0.2346 0.23458 0.92908 0.0
C375 C 0.20231 0.22158 0.92725 0.0
C376 C 0.18894 0.22166 0.90896 0.0
C377 C 0.20865 0.23545 0.89256 0.0
C378 C 0.24103 0.24815 0.89432 0.0
C379 C 0.33509 0.21882 0.86991 0.0
O380 O 0.40021 0.24972 0.90318 0.0
O381 O 0.37461 0.27859 0.9062 0.0
O382 O 0.39534 0.19254 0.92695 0.0
O383 O 0.37948 0.17345 0.89733 0.0
O384 O 0.33855 0.18934 0.94168 0.0
O385 O 0.35188 0.23252 0.929 0.0
O386 O 0.28737 0.18692 0.90893 0.0
O387 O 0.31606 0.16211 0.9028 0.0
O388 O 0.30584 0.26825 0.89885 0.0
O389 O 0.29521 0.24272 0.92669 0.0
O390 O 0.3201 0.23403 0.87214 0.0
O391 O 0.34325 0.21472 0.88679 0.0
H392 H 0.41909 0.16488 0.8775 0.0
H393 H 0.46638 0.16154 0.87283 0.0
H394 H 0.49268 0.19024 0.9335 0.0
H395 H 0.44594 0.19418 0.93802 0.0
H396 H 0.24414 0.23412 0.94342 0.0
H397 H 0.1878 0.21169 0.94023 0.0
H398 H 0.19895 0.23588 0.87828 0.0
H399 H 0.25553 0.25807 0.88135 0.0
Ho400 Ho 0.17564 0.35364 0.41542 0.0
Ho401 Ho 0.102 0.31502 0.40601 0.0
C402 C 0.13768 0.39008 0.40482 0.0
C403 C 0.23549 0.39031 0.4179 0.0
C404 C 0.26308 0.42052 0.41217 0.0
C405 C 0.28204 0.42186 0.39621 0.0
C406 C 0.31109 0.44857 0.39296 0.0
C407 C 0.32205 0.47457 0.40564 0.0
C408 C 0.30249 0.4737 0.4211 0.0
C409 C 0.27345 0.44699 0.42437 0.0
C410 C 0.13504 0.32897 0.44613 0.0
C411 C 0.14371 0.28001 0.40866 0.0
C412 C 0.04336 0.27822 0.41279 0.0
C413 C 0.0213 0.24497 0.4091 0.0
C414 C 0.99305 0.23014 0.41951 0.0
C415 C 0.97324 0.19789 0.41784 0.0
C416 C 0.9813 0.17975 0.40569 0.0
C417 C 1.00958 0.19488 0.39505 0.0
C418 C 0.02944 0.22719 0.39679 0.0
C419 C 0.13601 0.32796 0.3723 0.0
O420 O 0.16468 0.39025 0.40465 0.0
O421 O 0.1103 0.36422 0.40756 0.0
O422 O 0.2155 0.39067 0.43056 0.0
O423 O 0.2221 0.36857 0.40432 0.0
O424 O 0.16194 0.33028 0.44563 0.0
O425 O 0.1319 0.34147 0.43085 0.0
O426 O 0.11567 0.27758 0.40953 0.0
O427 O 0.17002 0.30712 0.40857 0.0
O428 O 0.05375 0.29664 0.39731 0.0
O429 O 0.06539 0.28346 0.42553 0.0
O430 O 0.10567 0.31352 0.37256 0.0
O431 O 0.14556 0.3344 0.38983 0.0
H432 H 0.275 0.40181 0.38665 0.0
H433 H 0.32529 0.44856 0.38073 0.0
H434 H 0.31024 0.49311 0.43131 0.0
H435 H 0.25975 0.44664 0.437 0.0
H436 H 0.98668 0.24341 0.42936 0.0
H437 H 0.95202 0.18706 0.42655 0.0
H438 H 1.01643 0.18176 0.38542 0.0
H439 H 0.05142 0.23821 0.38884 0.0
Ho440 Ho 0.82261 0.16569 0.91027 0.0
Ho441 Ho 0.79 0.09578 0.90124 0.0
C442 C 0.74698 0.12704 0.90468 0.0
C443 C 0.84603 0.22587 0.91036 0.0
C444 C 0.84093 0.253 0.91212 0.0
C445 C 0.83281 0.26444 0.89545 0.0
C446 C 0.83418 0.29346 0.89607 0.0
C447 C 0.84388 0.3119 0.91334 0.0
C448 C 0.85059 0.29976 0.93026 0.0
C449 C 0.84925 0.27077 0.92963 0.0
C450 C 0.80723 0.12676 0.94191 0.0
C451 C 0.8661 0.13674 0.90504 0.0
C452 C 0.77115 0.03648 0.90155 0.0
C453 C 0.78558 0.0168 0.90401 0.0
C454 C 0.81571 0.02897 0.91193 0.0
C455 C 0.82928 1.01006 0.91376 0.0
C456 C 0.81273 0.9785 0.90798 0.0
C457 C 0.78243 0.96639 0.90022 0.0
C458 C 0.76906 0.98541 0.8982 0.0
C459 C 0.80129 0.13212 0.86921 0.0
O460 O 0.7731 0.15441 0.90509 0.0
O461 O 0.74699 0.10017 0.90498 0.0
O462 O 0.84382 0.20976 0.92623 0.0
O463 O 0.83599 0.20849 0.89444 0.0
O464 O 0.83294 0.15344 0.94087 0.0
O465 O 0.79123 0.12312 0.92675 0.0
O466 O 0.84064 0.10914 0.90747 0.0
O467 O 0.86434 0.16221 0.90266 0.0
O468 O 0.77846 0.05315 0.8854 0.0
O469 O 0.77107 0.05215 0.91714 0.0
O470 O 0.77659 0.10496 0.8716 0.0
O471 O 0.81979 0.13811 0.88366 0.0
H472 H 0.8268 0.2517 0.88159 0.0
H473 H 0.82915 0.3021 0.88268 0.0
H474 H 0.85764 0.31303 0.94392 0.0
H475 H 0.85604 0.26289 0.94266 0.0
H476 H 0.82869 0.05302 0.91675 0.0
H477 H 0.85253 0.02 0.91994 0.0
H478 H 0.76922 0.94229 0.89541 0.0
H479 H 0.74581 0.9756 0.89203 0.0
H480 H 0.10402 0.88468 0.14796 0.0
H481 H 0.11243 0.93805 0.149 0.0
H482 H 0.19135 0.96836 0.10969 0.0
H483 H 0.18412 0.91583 0.10974 0.0
H484 H 0.20787 1.0072 0.13729 0.0
H485 H 0.11482 0.95832 0.09662 0.0
H486 H 0.06006 0.91925 0.08922 0.0
H487 H 0.02941 0.9498 0.1397 0.0
H488 H 0.08403 0.98879 0.14756 0.0
H489 H 0.2365 0.1552 0.10825 0.0
H490 H 0.21771 0.09918 0.10731 0.0
H491 H 0.15457 0.08485 0.15546 0.0
H492 H 0.17275 0.14097 0.1562 0.0
H493 H 0.1277 0.03806 0.1262 0.0
H494 H 0.221 0.08788 0.16574 0.0
H495 H 0.27585 0.127 0.17275 0.0
H496 H 0.30585 0.09402 0.12315 0.0
H497 H 0.2511 0.05497 0.11568 0.0
C498 C 0.12291 0.90279 0.13943 0.0
C499 C 0.14354 0.89629 0.12887 0.0
C500 C 0.12766 0.93327 0.13993 0.0
C501 C 0.15248 0.95745 0.12932 0.0
C502 C 0.17223 0.95039 0.11817 0.0
C503 C 0.16803 0.92031 0.11813 0.0
C504 C 0.1594 0.9905 0.13051 0.0
C505 C 0.19029 0.0138 0.13455 0.0
C506 C 0.13641 0.99937 0.12769 0.0
C507 C 0.10354 0.97627 0.12278 0.0
C508 C 0.09641 0.95659 0.1062 0.0
C509 C 0.0654 0.93447 0.10192 0.0
C510 C 0.04128 0.93198 0.11401 0.0
C511 C 0.04812 0.95171 0.13036 0.0
C512 C 0.0791 0.97385 0.13473 0.0
C513 C 0.21822 0.14013 0.11843 0.0
C514 C 0.20629 0.15267 0.13239 0.0
C515 C 0.20764 0.1081 0.11795 0.0
C516 C 0.18497 0.08785 0.13146 0.0
C517 C 0.17212 0.10004 0.14493 0.0
C518 C 0.18277 0.13216 0.14546 0.0
C519 C 0.17622 0.05438 0.13221 0.0
C520 C 0.14509 0.03118 0.12881 0.0
C521 C 0.19897 0.04545 0.13545 0.0
C522 C 0.23193 0.06867 0.14006 0.0
C523 C 0.23927 0.08911 0.15625 0.0
C524 C 0.27035 0.11125 0.16032 0.0
C525 C 0.29431 0.11304 0.14838 0.0
C526 C 0.28726 0.09262 0.13238 0.0
C527 C 0.25622 0.07046 0.12823 0.0
H528 H 0.31836 0.1302 0.15154 0.0
H529 H 1.01729 0.91483 0.11068 0.0
H530 H 0.23367 0.09632 0.63367 0.0
H531 H 0.18811 0.10385 0.63503 0.0
H532 H 0.2492 0.20363 0.63278 0.0
H533 H 0.29431 0.19652 0.63169 0.0
H534 H 0.20608 0.18904 0.66053 0.0
H535 H 0.20817 0.16047 0.59192 0.0
H536 H 0.20685 0.1256 0.56527 0.0
H537 H 0.11696 0.0537 0.58525 0.0
H538 H 0.11795 0.08805 0.61218 0.0
H539 H 0.11994 0.25765 0.62672 0.0
H540 H 0.15566 0.2372 0.62961 0.0
H541 H 0.07758 0.14389 0.63577 0.0
H542 H 0.04151 0.16423 0.63344 0.0
H543 H 0.12278 0.14696 0.60956 0.0
H544 H 0.11802 0.17847 0.67554 0.0
H545 H 0.11938 0.21374 0.7019 0.0
H546 H 0.21436 0.28007 0.68704 0.0
H547 H 0.21343 0.24541 0.66037 0.0
C548 C 0.23734 0.11984 0.63344 0.0
C549 C 0.26774 0.14577 0.63257 0.0
C550 C 0.21128 0.12411 0.63418 0.0
C551 C 0.21522 0.15435 0.63396 0.0
C552 C 0.24552 0.1801 0.63309 0.0
C553 C 0.27138 0.1759 0.63239 0.0
C554 C 0.18823 0.15989 0.63463 0.0
C555 C 0.18796 0.17992 0.64932 0.0
C556 C 0.16396 0.14722 0.62042 0.0
C557 C 0.1633 0.12667 0.60419 0.0
C558 C 0.18824 0.13713 0.59072 0.0
C559 C 0.18753 0.11749 0.57555 0.0
C560 C 0.16188 0.08742 0.57361 0.0
C561 C 0.13684 0.07697 0.5868 0.0
C562 C 0.13745 0.09652 0.60201 0.0
C563 C 0.11025 0.23283 0.62897 0.0
C564 C 0.07774 0.21269 0.62997 0.0
C565 C 0.13075 0.22114 0.63051 0.0
C566 C 0.1193 0.18904 0.63307 0.0
C567 C 0.08692 0.16873 0.63377 0.0
C568 C 0.06634 0.18044 0.63236 0.0
C569 C 0.14139 0.177 0.63503 0.0
C570 C 0.14066 0.15569 0.62093 0.0
C571 C 0.16482 0.18851 0.64977 0.0
C572 C 0.16556 0.20942 0.66585 0.0
C573 C 0.13912 0.20068 0.67779 0.0
C574 C 0.13983 0.22055 0.6928 0.0
C575 C 0.16692 0.24915 0.69612 0.0
C576 C 0.19338 0.25792 0.68445 0.0
C577 C 0.19279 0.23815 0.66939 0.0
H578 H 0.16742 0.2645 0.70775 0.0
H579 H 0.16138 0.07224 0.56185 0.0
H580 H 0.87686 0.11745 0.12747 0.0
H581 H 0.93353 0.1502 0.12678 0.0
H582 H 0.94333 0.07515 0.15132 0.0
H583 H 0.88637 0.04147 0.15133 0.0
H584 H 0.98417 0.13688 0.16856 0.0
H585 H 0.95696 0.08514 0.10608 0.0
H586 H 0.92671 0.06575 0.07522 0.0
H587 H 0.95608 0.15981 0.05751 0.0
H588 H 0.98611 0.17976 0.08845 0.0
H589 H 0.14903 0.23001 0.14506 0.0
H590 H 0.0963 0.18384 0.14644 0.0
H591 H 0.05853 0.23674 0.11921 0.0
H592 H 0.11047 0.28252 0.11797 0.0
H593 H 0.03403 0.17742 0.10328 0.0
H594 H 0.05454 0.22796 0.16755 0.0
H595 H 0.08399 0.24798 0.19866 0.0
H596 H 0.06698 0.15618 0.21297 0.0
H597 H 0.03785 0.1357 0.18175 0.0
C598 C 0.89091 0.10766 0.13259 0.0
C599 C 0.87685 0.07656 0.13921 0.0
C600 C 0.92336 0.12655 0.13231 0.0
C601 C 0.9426 0.11497 0.13881 0.0
C602 C 0.92884 0.08447 0.14623 0.0
C603 C 0.89625 0.06534 0.14631 0.0
C604 C 0.97704 0.13471 0.13704 0.0
C605 C 0.99525 0.14522 0.15428 0.0
C606 C 0.9914 0.14575 0.11841 0.0
C607 C 0.97361 0.13393 0.09967 0.0
C608 C 0.95678 0.10169 0.09569 0.0
C609 C 0.93969 0.0906 0.07816 0.0
C610 C 0.93942 0.11153 0.06443 0.0
C611 C 0.9563 0.14362 0.06817 0.0
C612 C 0.97339 0.15483 0.08569 0.0
C613 C 0.12947 0.23159 0.1392 0.0
C614 C 0.13386 0.25995 0.13156 0.0
C615 C 0.0994 0.20529 0.14006 0.0
C616 C 0.07347 0.20693 0.13301 0.0
C617 C 0.07814 0.2349 0.12472 0.0
C618 C 0.10789 0.26113 0.12412 0.0
C619 C 0.04108 0.18028 0.13481 0.0
C620 C 0.02316 0.16852 0.11755 0.0
C621 C 0.02705 0.16814 0.15341 0.0
C622 C 0.04441 0.18039 0.1722 0.0
C623 C 0.05734 0.2121 0.17724 0.0
C624 C 0.07392 0.22353 0.19491 0.0
C625 C 0.07744 0.20339 0.20776 0.0
C626 C 0.0643 0.17177 0.20298 0.0
C627 C 0.04776 0.16024 0.1853 0.0
H628 H 0.09027 0.21228 0.22143 0.0
H629 H 0.92617 0.1029 0.05087 0.0
H630 H 0.87563 0.88971 0.65222 0.0
H631 H 0.89826 0.94626 0.64943 0.0
H632 H 0.81179 0.93278 0.62496 0.0
H633 H 0.78957 0.87634 0.62676 0.0
H634 H 0.8594 0.97626 0.60486 0.0
H635 H 0.83363 0.95401 0.67444 0.0
H636 H 0.83625 0.93374 0.70726 0.0
H637 H 0.93558 0.99498 0.70855 0.0
H638 H 0.93358 0.01534 0.67561 0.0
H639 H 0.84589 0.10614 0.62843 0.0
H640 H 0.84285 0.05551 0.62803 0.0
H641 H 0.94197 0.09961 0.63845 0.0
H642 H 0.94546 0.15118 0.63858 0.0
H643 H 0.90033 0.04487 0.66391 0.0
H644 H 0.92358 0.07347 0.59634 0.0
H645 H 0.91906 0.09467 0.56432 0.0
H646 H 0.8233 0.02203 0.55961 0.0
H647 H 0.82705 1.00069 0.59178 0.0
C648 C 0.86148 0.89875 0.64611 0.0
C649 C 0.83063 0.87837 0.63987 0.0
C650 C 0.8744 0.93115 0.64467 0.0
C651 C 0.85665 0.94387 0.63717 0.0
C652 C 0.82596 0.92358 0.63083 0.0
C653 C 0.81311 0.89125 0.63214 0.0
C654 C 0.86966 0.97824 0.63598 0.0
C655 C 0.86829 0.99121 0.6178 0.0
C656 C 0.88233 0.99808 0.65268 0.0
C657 C 0.88351 0.9859 0.67247 0.0
C658 C 0.85605 0.96296 0.68166 0.0
C659 C 0.85742 0.9515 0.70029 0.0
C660 C 0.88608 0.96299 0.70996 0.0
C661 C 0.91341 0.98605 0.70103 0.0
C662 C 0.91218 0.99757 0.68239 0.0
C663 C 0.86717 0.10529 0.63067 0.0
C664 C 0.89594 0.13276 0.63365 0.0
C665 C 0.86535 0.07626 0.63034 0.0
C666 C 0.89216 0.07386 0.63312 0.0
C667 C 0.92102 0.10108 0.63625 0.0
C668 C 0.92298 0.13044 0.63627 0.0
C669 C 0.88909 0.04246 0.63299 0.0
C670 C 0.89221 0.03002 0.65089 0.0
C671 C 0.87791 0.02306 0.61607 0.0
C672 C 0.87557 0.03556 0.59656 0.0
C673 C 0.90148 0.06213 0.58856 0.0
C674 C 0.89907 0.07416 0.57037 0.0
C675 C 0.8709 0.05972 0.55995 0.0
C676 C 0.84511 0.03318 0.5677 0.0
C677 C 0.84738 0.02108 0.5859 0.0
H678 H 0.86908 0.06908 0.54588 0.0
H679 H 0.88709 0.95409 0.72438 0.0
H680 H 0.93797 0.79522 0.15996 0.0
H681 H 0.90225 0.81604 0.16188 0.0
H682 H 0.94439 0.8713 0.1097 0.0
H683 H 0.98032 0.85057 0.10771 0.0
H684 H 0.92994 0.90323 0.14026 0.0
H685 H 0.88091 0.80717 0.10313 0.0
H686 H 0.86346 0.75155 0.09732 0.0
H687 H 0.80575 0.72663 0.14923 0.0
H688 H 0.82325 0.78219 0.15552 0.0
H689 H 0.80042 0.92776 0.11878 0.0
H690 H 0.84506 0.91878 0.11829 0.0
H691 H 0.79885 0.84531 0.16138 0.0
H692 H 0.75397 0.85327 0.16115 0.0
H693 H 0.81763 0.82462 0.13332 0.0
H694 H 0.86622 0.92006 0.17116 0.0
H695 H 0.88412 0.97557 0.17784 0.0
H696 H 0.94238 1.00194 0.12615 0.0
H697 H 0.9245 0.94653 0.119 0.0
C698 C 0.93994 0.81214 0.14907 0.0
C699 C 0.96174 0.82104 0.13358 0.0
C700 C 0.91948 0.82396 0.15015 0.0
C701 C 0.92053 0.84503 0.13585 0.0
C702 C 0.94318 0.85504 0.12087 0.0
C703 C 0.96346 0.84297 0.11965 0.0
C704 C 0.89642 0.85463 0.13577 0.0
C705 C 0.90537 0.88618 0.13854 0.0
C706 C 0.86441 0.8323 0.13376 0.0
C707 C 0.85361 0.79885 0.12989 0.0
C708 C 0.86468 0.78985 0.11339 0.0
C709 C 0.85476 0.75833 0.11 0.0
C710 C 0.83357 0.73558 0.12292 0.0
C711 C 0.82219 0.74429 0.13924 0.0
C712 C 0.83209 0.77578 0.14272 0.0
C713 C 0.80014 0.91007 0.12835 0.0
C714 C 0.77369 0.89104 0.13988 0.0
C715 C 0.82568 0.90498 0.12812 0.0
C716 C 0.82545 0.88132 0.13982 0.0
C717 C 0.79957 0.86347 0.15205 0.0
C718 C 0.77393 0.86809 0.15196 0.0
C719 C 0.85079 0.87328 0.13844 0.0
C720 C 0.84211 0.84187 0.13515 0.0
C721 C 0.88294 0.89579 0.14013 0.0
C722 C 0.89377 0.92911 0.14443 0.0
C723 C 0.88266 0.93767 0.16113 0.0
C724 C 0.89283 0.96912 0.16501 0.0
C725 C 0.91432 0.99225 0.15241 0.0
C726 C 0.92571 0.98399 0.13589 0.0
C727 C 0.91558 0.95257 0.13192 0.0
H728 H 0.92224 0.01657 0.15548 0.0
H729 H 0.82591 0.71119 0.12027 0.0
H730 H 0.88841 0.79952 0.64366 0.0
H731 H 0.94138 0.84442 0.64684 0.0
H732 H 0.97981 0.78383 0.63748 0.0
H733 H 0.92755 0.73923 0.63454 0.0
H734 H 1.00751 0.822 0.66806 0.0
H735 H 0.97839 0.83253 0.60061 0.0
H736 H 0.94442 0.83861 0.57646 0.0
H737 H 0.96206 0.9237 0.60493 0.0
H738 H 0.99589 0.91792 0.62939 0.0
H739 H 0.1635 0.91202 0.63974 0.0
H740 H 0.10744 0.87641 0.64158 0.0
H741 H 0.0918 0.9545 0.64769 0.0
H742 H 0.14803 0.99055 0.64477 0.0
H743 H 0.05024 0.91336 0.62316 0.0
H744 H 0.08466 0.90746 0.68769 0.0
H745 H 0.11718 0.9017 0.71309 0.0
H746 H 0.08813 0.80899 0.69227 0.0
H747 H 0.05578 0.81434 0.66655 0.0
C748 C 0.90816 0.79582 0.64216 0.0
C749 C 0.90361 0.76569 0.63882 0.0
C750 C 0.93844 0.82153 0.64399 0.0
C751 C 0.96464 0.81753 0.64235 0.0
C752 C 0.96003 0.78752 0.63893 0.0
C753 C 0.92998 0.76197 0.63718 0.0
C754 C 0.9971 0.84417 0.64423 0.0
C755 C 1.01692 0.8419 0.65816 0.0
C756 C 1.00908 0.8708 0.63191 0.0
C757 C 0.98941 0.87464 0.61692 0.0
C758 C 0.97491 0.85246 0.60176 0.0
C759 C 0.9557 0.85586 0.58802 0.0
C760 C 0.95101 0.88148 0.58919 0.0
C761 C 0.96567 0.90385 0.60405 0.0
C762 C 0.9849 0.90054 0.61784 0.0
C763 C 0.14823 0.92176 0.64131 0.0
C764 C 0.16046 0.95427 0.64209 0.0
C765 C 0.11609 0.90127 0.64262 0.0
C766 C 0.09529 0.91266 0.64511 0.0
C767 C 0.10733 0.94509 0.64589 0.0
C768 C 0.13957 0.96568 0.64443 0.0
C769 C 0.06103 0.89051 0.64646 0.0
C770 C 0.04085 0.89371 0.63324 0.0
C771 C 0.04856 0.86479 0.65959 0.0
C772 C 0.06793 0.8614 0.6751 0.0
C773 C 0.08536 0.88592 0.68844 0.0
C774 C 0.10375 0.88272 0.70291 0.0
C775 C 0.10476 0.85502 0.70427 0.0
C776 C 0.08733 0.83043 0.69119 0.0
C777 C 0.06893 0.83353 0.67668 0.0
H778 H 0.11901 0.85258 0.71549 0.0
H779 H 0.93606 0.88403 0.57857 0.0
H780 H 0.14754 0.91618 0.38793 0.0
H781 H 0.09407 0.90751 0.3867 0.0
H782 H 0.06547 0.83445 0.43025 0.0
H783 H 0.11806 0.84187 0.43056 0.0
H784 H 0.02626 0.81382 0.40264 0.0
H785 H 0.07463 0.91158 0.43896 0.0
H786 H 0.11344 0.96721 0.44385 0.0
H787 H 0.0815 0.99082 0.39114 0.0
H788 H 0.04261 0.93523 0.38583 0.0
H789 H 0.88153 0.78953 0.43602 0.0
H790 H 0.93777 0.80947 0.43442 0.0
H791 H 0.94325 0.85823 0.38045 0.0
H792 H 0.88669 0.8384 0.382 0.0
H793 H 0.99383 0.89368 0.40917 0.0
H794 H 0.94333 0.79523 0.37468 0.0
H795 H 0.90453 0.7394 0.37073 0.0
H796 H 0.94145 0.7175 0.42182 0.0
H797 H 0.98018 0.77328 0.42625 0.0
C798 C 0.1298 0.89856 0.39736 0.0
C799 C 0.13677 0.87952 0.40923 0.0
C800 C 0.09927 0.89367 0.39674 0.0
C801 C 0.07554 0.87032 0.40844 0.0
C802 C 0.08311 0.85237 0.42091 0.0
C803 C 0.11323 0.85667 0.42114 0.0
C804 C 0.04236 0.86282 0.40701 0.0
C805 C 0.01934 0.83139 0.40433 0.0
C806 C 0.03307 0.88571 0.40845 0.0
C807 C 0.05595 0.91919 0.41187 0.0
C808 C 0.07598 0.92861 0.42835 0.0
C809 C 0.09798 0.96014 0.43121 0.0
C810 C 0.10006 0.98251 0.41775 0.0
C811 C 0.07992 0.97344 0.40151 0.0
C812 C 0.05786 0.94193 0.39859 0.0
C813 C 0.89471 0.8048 0.42393 0.0
C814 C 0.87962 0.81229 0.4091 0.0
C815 C 0.92684 0.81613 0.42301 0.0
C816 C 0.94465 0.83528 0.4073 0.0
C817 C 0.92991 0.84356 0.39273 0.0
C818 C 0.8976 0.83196 0.39353 0.0
C819 C 0.9782 0.84474 0.40561 0.0
C820 C 1.00108 0.87637 0.40749 0.0
C821 C 0.98754 0.82208 0.40365 0.0
C822 C 0.96449 0.78846 0.40088 0.0
C823 C 0.94302 0.77853 0.38516 0.0
C824 C 0.92107 0.74689 0.38282 0.0
C825 C 0.92048 0.72492 0.39604 0.0
C826 C 0.94191 0.73454 0.4116 0.0
C827 C 0.96389 0.76617 0.41402 0.0
H828 H 0.90346 0.70043 0.39421 0.0
H829 H 0.11724 1.00686 0.4199 0.0
H830 H 0.06137 0.88244 0.93937 0.0
H831 H 0.09753 0.93876 0.93685 0.0
H832 H 0.1386 0.92358 0.88466 0.0
H833 H 0.10259 0.86725 0.88713 0.0
H834 H 0.1826 0.96247 0.91227 0.0
H835 H 0.09132 0.95277 0.88004 0.0
H836 H 0.03565 0.93727 0.87751 0.0
H837 H 0.04504 0.99553 0.9273 0.0
H838 H 0.1007 1.01102 0.93031 0.0
H839 H 0.27895 0.11432 0.88015 0.0
H840 H 0.23598 0.06053 0.88086 0.0
H841 H 0.19264 0.084 0.92828 0.0
H842 H 0.23533 0.1386 0.927 0.0
H843 H 0.14876 0.04111 0.90468 0.0
H844 H 0.23857 0.05076 0.93771 0.0
H845 H 0.29414 0.06643 0.94149 0.0
H846 H 0.28724 1.0079 0.89242 0.0
H847 H 0.23171 0.99222 0.88817 0.0
C848 C 0.07815 0.8911 0.92738 0.0
C849 C 0.07911 0.87034 0.91345 0.0
C850 C 0.09863 0.92331 0.92587 0.0
C851 C 0.12064 0.93543 0.91048 0.0
C852 C 0.12174 0.91477 0.89662 0.0
C853 C 0.10105 0.8826 0.89798 0.0
C854 C 0.14322 0.96953 0.90916 0.0
C855 C 0.1752 0.97962 0.91035 0.0
C856 C 0.13354 0.99202 0.90736 0.0
C857 C 0.1001 0.98278 0.90553 0.0
C858 C 0.08145 0.96205 0.89056 0.0
C859 C 0.04991 0.95331 0.88902 0.0
C860 C 0.03679 0.96533 0.90227 0.0
C861 C 0.05522 0.98619 0.91706 0.0
C862 C 0.08677 0.99497 0.91869 0.0
C863 C 0.26 0.10814 0.89053 0.0
C864 C 0.26063 0.13052 0.90369 0.0
C865 C 0.23551 0.07732 0.891 0.0
C866 C 0.2115 0.06787 0.90505 0.0
C867 C 0.21103 0.09062 0.91742 0.0
C868 C 0.23537 0.1218 0.91668 0.0
C869 C 0.18823 0.03403 0.90748 0.0
C870 C 0.15616 0.02398 0.90661 0.0
C871 C 0.19776 1.01147 0.90985 0.0
C872 C 0.23104 0.02051 0.91253 0.0
C873 C 0.24895 0.04136 0.92766 0.0
C874 C 0.28043 0.05024 0.92989 0.0
C875 C 0.29422 0.03822 0.91718 0.0
C876 C 0.27653 0.01721 0.90225 0.0
C877 C 0.24504 1.0083 0.89993 0.0
H878 H 0.31861 0.04514 0.91892 0.0
H879 H 1.01237 0.95854 0.90105 0.0
H880 H 0.1965 0.27615 0.41267 0.0
H881 H 0.20266 0.23068 0.40884 0.0
H882 H 0.10391 0.17303 0.39806 0.0
H883 H 0.09728 0.21894 0.40212 0.0
H884 H 0.12861 0.14403 0.42249 0.0
H885 H 0.15054 0.19398 0.35975 0.0
H886 H 0.17418 0.23891 0.33703 0.0
H887 H 0.26579 0.25763 0.35364 0.0
H888 H 0.24273 0.21317 0.37676 0.0
H889 H 0.16731 0.02675 0.39474 0.0
H890 H 0.14553 0.06167 0.39318 0.0
H891 H 0.23805 0.14125 0.39957 0.0
H892 H 0.26003 0.10673 0.40017 0.0
H893 H 0.20678 0.1531 0.37277 0.0
H894 H 0.1844 0.10853 0.43909 0.0
H895 H 0.16108 0.06432 0.46241 0.0
H896 H 0.07006 0.0352 0.43862 0.0
H897 H 0.09292 0.07901 0.41496 0.0
C898 C 0.17592 0.2539 0.40953 0.0
C899 C 0.1464 0.25138 0.40745 0.0
C900 C 0.17955 0.22784 0.40733 0.0
C901 C 0.15388 0.19855 0.4028 0.0
C902 C 0.12408 0.19548 0.40145 0.0
C903 C 0.12035 0.22174 0.40372 0.0
C904 C 0.15908 0.17182 0.3989 0.0
C905 C 0.14517 0.14563 0.41134 0.0
C906 C 0.18084 0.174 0.38441 0.0
C907 C 0.19486 0.20026 0.37007 0.0
C908 C 0.17573 0.20774 0.35863 0.0
C909 C 0.18903 0.23314 0.34568 0.0
C910 C 0.22146 0.25112 0.3439 0.0
C911 C 0.24066 0.24367 0.35503 0.0
C912 C 0.22749 0.21834 0.36804 0.0
C913 C 0.18307 0.05171 0.39551 0.0
C914 C 0.21547 0.06387 0.39772 0.0
C915 C 0.17053 0.07165 0.39482 0.0
C916 C 0.19008 0.10415 0.39652 0.0
C917 C 0.22243 0.1163 0.39828 0.0
C918 C 0.23496 0.09646 0.39885 0.0
C919 C 0.17728 0.12583 0.39687 0.0
C920 C 0.18976 0.15112 0.38368 0.0
C921 C 0.15418 0.12272 0.41062 0.0
C922 C 0.14039 0.09687 0.42516 0.0
C923 C 0.15943 0.09263 0.43879 0.0
C924 C 0.1463 0.06766 0.45208 0.0
C925 C 0.11411 0.04699 0.45201 0.0
C926 C 0.09498 0.05127 0.43868 0.0
C927 C 0.10801 0.07616 0.42533 0.0
H928 H 0.104 0.0276 0.46225 0.0
H929 H 0.2317 0.2708 0.3339 0.0
H930 H 0.15708 0.2472 0.89149 0.0
H931 H 0.10051 0.22633 0.89103 0.0
H932 H 0.08653 0.14425 0.92211 0.0
H933 H 0.14322 0.16508 0.92268 0.0
H934 H 0.0419 0.13219 0.89028 0.0
H935 H 0.08325 0.19392 0.94875 0.0
H936 H 0.12003 0.24042 0.96785 0.0
H937 H 0.09182 0.29654 0.93507 0.0
H938 H 0.05523 0.25044 0.91551 0.0
H939 H 0.88384 0.09413 0.91657 0.0
H940 H 0.93721 0.10247 0.91774 0.0
H941 H 0.97264 0.19505 0.89402 0.0
H942 H 0.92008 0.18713 0.89294 0.0
H943 H 1.00542 0.19626 0.92576 0.0
H944 H 0.96705 0.13477 0.86551 0.0
H945 H 0.93002 0.08799 0.84669 0.0
H946 H 0.95155 0.0307 0.88367 0.0
H947 H 0.98855 0.07717 0.90283 0.0
C948 C 0.14194 0.2245 0.89795 0.0
C949 C 0.15456 0.20787 0.90724 0.0
C950 C 0.10966 0.21264 0.89773 0.0
C951 C 0.08938 0.18382 0.90662 0.0
C952 C 0.10178 0.1665 0.91515 0.0
C953 C 0.13413 0.17855 0.91561 0.0
C954 C 0.05555 0.17312 0.90822 0.0
C955 C 0.03379 0.14589 0.89826 0.0
C956 C 0.04504 0.19102 0.91863 0.0
C957 C 0.0667 0.21877 0.93053 0.0
C958 C 0.08506 0.21623 0.9455 0.0
C959 C 0.10586 0.2425 0.95643 0.0
C960 C 0.10832 0.27144 0.95265 0.0
C961 C 0.08992 0.27412 0.93796 0.0
C962 C 0.06913 0.24791 0.92696 0.0
C963 C 0.90299 0.11611 0.91145 0.0
C964 C 0.89763 0.13999 0.90478 0.0
C965 C 0.93348 0.12086 0.91213 0.0
C966 C 0.95897 0.14946 0.90601 0.0
C967 C 0.95344 0.17292 0.89899 0.0
C968 C 0.92324 0.16827 0.89836 0.0
C969 C 0.9917 0.15586 0.90725 0.0
C970 C 1.01336 0.18232 0.91789 0.0
C971 C 1.00197 0.13716 0.89752 0.0
C972 C 0.98034 0.10938 0.88571 0.0
C973 C 0.96379 0.11217 0.86968 0.0
C974 C 0.94283 0.08573 0.85894 0.0
C975 C 0.93838 0.05638 0.86401 0.0
C976 C 0.95501 0.05344 0.87977 0.0
C977 C 0.97602 0.07983 0.89055 0.0
H978 H 0.92209 0.03591 0.85572 0.0
H979 H 0.12445 0.29176 0.96112 0.0
H980 H 0.99812 0.13435 0.40412 0.0
H981 H 0.96367 0.07761 0.40384 0.0
H982 H 0.88326 0.09008 0.405 0.0
H983 H 0.91734 0.14662 0.40484 0.0
H984 H 0.8794 0.04814 0.43268 0.0
H985 H 0.9045 0.06837 0.36306 0.0
H986 H 0.94003 0.08793 0.33437 0.0
H987 H 0.97571 0.02695 0.34877 0.0
H988 H 0.94065 1.00732 0.37772 0.0
H989 H 0.74912 0.91452 0.39988 0.0
H990 H 0.7953 0.96583 0.40074 0.0
H991 H 0.85346 0.92427 0.40767 0.0
H992 H 0.80669 0.87189 0.40702 0.0
H993 H 0.87565 0.97753 0.37902 0.0
H994 H 0.84518 0.95242 0.44634 0.0
H995 H 0.80836 0.93228 0.47434 0.0
H996 H 0.78278 1.00241 0.46432 0.0
H997 H 0.81905 0.02264 0.43601 0.0
C998 C 0.9731 0.12505 0.40399 0.0
C999 C 0.96055 0.14518 0.40458 0.0
C1000 C 0.95344 0.09258 0.40392 0.0
C1001 C 0.92088 0.07958 0.40442 0.0
C1002 C 0.90832 0.09957 0.40477 0.0
C1003 C 0.92788 0.13195 0.40475 0.0
C1004 C 0.89958 0.04521 0.40505 0.0
C1005 C 0.87857 0.03275 0.42092 0.0
C1006 C 0.89921 0.02489 0.39008 0.0
C1007 C 0.92026 0.03668 0.37269 0.0
C1008 C 0.92013 0.05935 0.36022 0.0
C1009 C 0.94014 0.0704 0.34388 0.0
C1010 C 0.96019 0.05877 0.33979 0.0
C1011 C 0.96021 0.03599 0.35199 0.0
C1012 C 0.94027 0.02488 0.36835 0.0
C1013 C 0.7716 0.91593 0.4015 0.0
C1014 C 0.77403 0.88886 0.40354 0.0
C1015 C 0.79806 0.94547 0.40198 0.0
C1016 C 0.82773 0.94887 0.40445 0.0
C1017 C 0.83067 0.92207 0.40579 0.0
C1018 C 0.80395 0.89221 0.40546 0.0
C1019 C 0.85501 0.98081 0.40635 0.0
C1020 C 0.87704 0.99284 0.391 0.0
C1021 C 0.85644 1.00083 0.42183 0.0
C1022 C 0.83472 0.98893 0.43895 0.0
C1023 C 0.83153 0.9634 0.45 0.0
C1024 C 0.81077 0.95198 0.46595 0.0
C1025 C 0.79321 0.96603 0.47109 0.0
C1026 C 0.7964 0.99155 0.46031 0.0
C1027 C 0.81708 1.00302 0.44432 0.0
H1028 H 0.77716 0.95716 0.48345 0.0
H1029 H 0.97565 0.06735 0.32713 0.0
H1030 H 0.93321 0.7951 0.92597 0.0
H1031 H 0.92748 0.84177 0.92635 0.0
H1032 H 0.84627 0.79465 0.88896 0.0
H1033 H 0.85162 0.74816 0.88864 0.0
H1034 H 0.88612 0.85696 0.87787 0.0
H1035 H 0.83605 0.79544 0.93674 0.0
H1036 H 0.83589 0.76943 0.96786 0.0
H1037 H 0.90683 0.85697 0.99165 0.0
H1038 H 0.90771 0.88341 0.96052 0.0
H1039 H 0.78533 0.91898 0.92228 0.0
H1040 H 0.80707 0.88406 0.9233 0.0
H1041 H 0.89384 0.95693 0.89926 0.0
H1042 H 0.87206 0.99198 0.898 0.0
H1043 H 0.85838 0.8868 0.94174 0.0
H1044 H 0.91988 0.92045 0.86671 0.0
H1045 H 0.91787 0.94469 0.83527 0.0
H1046 H 0.81972 0.90976 0.84348 0.0
H1047 H 0.82111 0.88504 0.87483 0.0
C1048 C 0.91438 0.79487 0.91765 0.0
C1049 C 0.89272 0.76785 0.90741 0.0
C1050 C 0.9111 0.8215 0.91791 0.0
C1051 C 0.88636 0.82162 0.90774 0.0
C1052 C 0.86556 0.79511 0.89687 0.0
C1053 C 0.86855 0.76846 0.89682 0.0
C1054 C 0.88063 0.84835 0.90924 0.0
C1055 C 0.88049 0.86379 0.89187 0.0
C1056 C 0.87304 0.85713 0.92747 0.0
C1057 C 0.8722 0.84132 0.94624 0.0
C1058 C 0.85177 0.80909 0.94856 0.0
C1059 C 0.85153 0.79428 0.9662 0.0
C1060 C 0.87141 0.81152 0.9817 0.0
C1061 C 0.89149 0.84363 0.97961 0.0
C1062 C 0.89187 0.85854 0.96198 0.0
C1063 C 0.80906 0.9276 0.91724 0.0
C1064 C 0.82686 0.95815 0.90989 0.0
C1065 C 0.82156 0.90772 0.918 0.0
C1066 C 0.85201 0.9178 0.91126 0.0
C1067 C 0.87023 0.9486 0.90445 0.0
C1068 C 0.8578 0.96863 0.90381 0.0
C1069 C 0.8637 0.8953 0.91034 0.0
C1070 C 0.86482 0.88057 0.92781 0.0
C1071 C 0.87201 0.88703 0.89218 0.0
C1072 C 0.87071 0.90123 0.87318 0.0
C1073 C 0.89787 0.91788 0.86175 0.0
C1074 C 0.89684 0.93171 0.84396 0.0
C1075 C 0.86871 0.92886 0.83741 0.0
C1076 C 0.84152 0.91205 0.8486 0.0
C1077 C 0.84242 0.89816 0.86638 0.0
H1078 H 0.86796 0.93961 0.82365 0.0
H1079 H 0.8712 0.80001 0.99535 0.0
H1080 H 0.18061 0.74349 0.15672 0.0
H1081 H 0.18722 0.69777 0.15777 0.0
H1082 H 0.10212 0.64511 0.12445 0.0
H1083 H 0.09483 0.69074 0.12392 0.0
H1084 H 0.10659 0.60878 0.15135 0.0
H1085 H 0.17612 0.67969 0.10228 0.0
H1086 H 0.21744 0.73065 0.08996 0.0
H1087 H 0.28215 0.7295 0.13179 0.0
H1088 H 0.24107 0.67867 0.14456 0.0
H1089 H 0.13573 0.49159 0.11382 0.0
H1090 H 0.1274 0.53611 0.11725 0.0
H1091 H 0.20946 0.5831 0.15393 0.0
H1092 H 0.21835 0.53869 0.15021 0.0
H1093 H 0.20722 0.62243 0.12641 0.0
H1094 H 0.13768 0.55016 0.17452 0.0
H1095 H 0.09596 0.49936 0.18674 0.0
H1096 H 0.03102 0.50298 0.1462 0.0
H1097 H 0.07248 0.55362 0.13353 0.0
C1098 C 0.16308 0.72209 0.14978 0.0
C1099 C 0.13732 0.72086 0.14006 0.0
C1100 C 0.167 0.69596 0.1503 0.0
C1101 C 0.14565 0.66814 0.14072 0.0
C1102 C 0.11907 0.66635 0.13183 0.0
C1103 C 0.11488 0.69244 0.13155 0.0
C1104 C 0.15169 0.64141 0.13941 0.0
C1105 C 0.12845 0.61172 0.14566 0.0
C1106 C 0.18051 0.64524 0.1324 0.0
C1107 C 0.20544 0.67549 0.12448 0.0
C1108 C 0.19912 0.69037 0.10891 0.0
C1109 C 0.2225 0.71922 0.10185 0.0
C1110 C 0.25238 0.73332 0.11011 0.0
C1111 C 0.25898 0.71854 0.12542 0.0
C1112 C 0.23567 0.6897 0.13256 0.0
C1113 C 0.15223 0.51148 0.12248 0.0
C1114 C 0.17782 0.51155 0.13168 0.0
C1115 C 0.14723 0.53684 0.12459 0.0
C1116 C 0.16759 0.56289 0.13602 0.0
C1117 C 0.19335 0.56323 0.14509 0.0
C1118 C 0.1983 0.53774 0.14306 0.0
C1119 C 0.16205 0.5898 0.13827 0.0
C1120 C 0.1854 0.61952 0.13216 0.0
C1121 C 0.1333 0.58596 0.14531 0.0
C1122 C 0.10828 0.55556 0.15295 0.0
C1123 C 0.11457 0.54001 0.1681 0.0
C1124 C 0.09095 0.51126 0.17512 0.0
C1125 C 0.06088 0.49791 0.16722 0.0
C1126 C 0.05434 0.51333 0.1523 0.0
C1127 C 0.07788 0.54207 0.1452 0.0
H1128 H 0.04262 0.47566 0.17268 0.0
H1129 H 0.27044 0.75565 0.10461 0.0
H1130 H 0.66252 0.12211 0.65625 0.0
H1131 H 0.60897 0.11236 0.65817 0.0
H1132 H 0.63999 0.20613 0.63816 0.0
H1133 H 0.69381 0.21639 0.63676 0.0
H1134 H 0.59779 0.18999 0.66773 0.0
H1135 H 0.60545 0.14353 0.60651 0.0
H1136 H 0.61642 0.10869 0.58603 0.0
H1137 H 0.54705 0.02912 0.61792 0.0
H1138 H 0.53596 0.06356 0.63878 0.0
H1139 H 0.46265 0.18396 0.63218 0.0
H1140 H 0.51301 0.18728 0.63586 0.0
H1141 H 0.46762 0.09015 0.65239 0.0
H1142 H 0.41633 0.08631 0.64812 0.0
H1143 H 0.51521 0.10378 0.62806 0.0
H1144 H 0.50399 0.14975 0.68738 0.0
H1145 H 0.49239 0.18454 0.70741 0.0
H1146 H 0.568 0.26468 0.67961 0.0
H1147 H 0.57979 0.23036 0.65919 0.0
C1148 C 0.65811 0.14088 0.65258 0.0
C1149 C 0.6826 0.17006 0.6463 0.0
C1150 C 0.62735 0.13513 0.65348 0.0
C1151 C 0.62029 0.15834 0.64804 0.0
C1152 C 0.64478 0.18778 0.64235 0.0
C1153 C 0.67555 0.19355 0.64141 0.0
C1154 C 0.58738 0.15188 0.64788 0.0
C1155 C 0.5798 0.17129 0.65894 0.0
C1156 C 0.56357 0.12685 0.63692 0.0
C1157 C 0.57013 0.10614 0.62434 0.0
C1158 C 0.59271 0.11862 0.60925 0.0
C1159 C 0.59892 0.09895 0.59756 0.0
C1160 C 0.58251 0.06672 0.60071 0.0
C1161 C 0.55978 0.05409 0.61552 0.0
C1162 C 0.55352 0.07367 0.62727 0.0
C1163 C 0.46312 0.16319 0.63671 0.0
C1164 C 0.43525 0.13488 0.64008 0.0
C1165 C 0.49214 0.16522 0.63889 0.0
C1166 C 0.49432 0.13922 0.64491 0.0
C1167 C 0.46659 0.11065 0.64791 0.0
C1168 C 0.43729 0.10847 0.6455 0.0
C1169 C 0.5257 0.14225 0.64764 0.0
C1170 C 0.53305 0.12222 0.63708 0.0
C1171 C 0.54931 0.16666 0.65913 0.0
C1172 C 0.54266 0.18744 0.67167 0.0
C1173 C 0.51806 0.17478 0.68547 0.0
C1174 C 0.51145 0.19443 0.6969 0.0
C1175 C 0.52942 0.2268 0.69477 0.0
C1176 C 0.5541 0.2396 0.68124 0.0
C1177 C 0.56079 0.22006 0.66976 0.0
H1178 H 0.52423 0.24196 0.70361 0.0
H1179 H 0.58734 0.05152 0.59164 0.0
H1180 H 0.4889 0.69224 0.13752 0.0
H1181 H 0.44478 0.63882 0.13782 0.0
H1182 H 0.50818 0.60335 0.14511 0.0
H1183 H 0.55245 0.65658 0.14417 0.0
H1184 H 0.46485 0.56987 0.11797 0.0
H1185 H 0.46418 0.60523 0.18399 0.0
H1186 H 0.46385 0.64081 0.20954 0.0
H1187 H 0.37648 0.62709 0.18734 0.0
H1188 H 0.3765 0.59174 0.16147 0.0
H1189 H 0.34258 0.41369 0.13877 0.0
H1190 H 0.38986 0.46518 0.14098 0.0
H1191 H 0.3337 0.50941 0.13646 0.0
H1192 H 0.28671 0.45853 0.13474 0.0
H1193 H 0.37552 0.53739 0.16388 0.0
H1194 H 0.37743 0.50482 0.0968 0.0
H1195 H 0.37756 0.46972 0.07081 0.0
H1196 H 0.46216 0.47853 0.09458 0.0
H1197 H 0.46231 0.51339 0.12087 0.0
C1198 C 0.49351 0.6731 0.13912 0.0
C1199 C 0.52433 0.67886 0.14093 0.0
C1200 C 0.4682 0.64252 0.13946 0.0
C1201 C 0.47305 0.61696 0.14172 0.0
C1202 C 0.50376 0.62261 0.14344 0.0
C1203 C 0.52907 0.65316 0.14311 0.0
C1204 C 0.44616 0.58434 0.14197 0.0
C1205 C 0.44554 0.56264 0.12822 0.0
C1206 C 0.42063 0.57492 0.15508 0.0
C1207 C 0.42048 0.59605 0.17069 0.0
C1208 C 0.44501 0.60997 0.18447 0.0
C1209 C 0.44486 0.63007 0.19902 0.0
C1210 C 0.4202 0.63626 0.20003 0.0
C1211 C 0.39559 0.6223 0.18652 0.0
C1212 C 0.39564 0.6022 0.17193 0.0
C1213 C 0.34034 0.4344 0.13825 0.0
C1214 C 0.31075 0.43183 0.13657 0.0
C1215 C 0.36742 0.46386 0.13944 0.0
C1216 C 0.36549 0.49134 0.13872 0.0
C1217 C 0.33594 0.4887 0.13712 0.0
C1218 C 0.30899 0.45942 0.13607 0.0
C1219 C 0.39393 0.52298 0.13967 0.0
C1220 C 0.39489 0.54453 0.15369 0.0
C1221 C 0.41969 0.53227 0.12675 0.0
C1222 C 0.41969 0.51142 0.11092 0.0
C1223 C 0.39593 0.49908 0.09656 0.0
C1224 C 0.39598 0.47926 0.08177 0.0
C1225 C 0.4198 0.47182 0.08108 0.0
C1226 C 0.44369 0.48427 0.09515 0.0
C1227 C 0.44373 0.50407 0.11 0.0
H1228 H 0.4198 0.45648 0.06961 0.0
H1229 H 0.42013 0.65183 0.21131 0.0
H1230 H 0.90405 0.54358 0.65091 0.0
H1231 H 0.91396 0.49987 0.653 0.0
H1232 H 0.81938 0.43657 0.63456 0.0
H1233 H 0.80901 0.48007 0.63296 0.0
H1234 H 0.83743 0.41198 0.66435 0.0
H1235 H 0.87962 0.46298 0.60178 0.0
H1236 H 0.91288 0.5078 0.58037 0.0
H1237 H 0.99469 0.51999 0.6105 0.0
H1238 H 0.96185 0.47546 0.63228 0.0
H1239 H 0.8451 0.28158 0.63153 0.0
H1240 H 0.83983 0.32777 0.63427 0.0
H1241 H 0.93816 0.38377 0.6472 0.0
H1242 H 0.94388 0.33736 0.64378 0.0
H1243 H 0.92151 0.41412 0.62287 0.0
H1244 H 0.88075 0.36204 0.68427 0.0
H1245 H 0.84834 0.31741 0.706 0.0
H1246 H 0.76521 0.30766 0.67914 0.0
H1247 H 0.79717 0.35216 0.65714 0.0
C1248 C 0.88516 0.5203 0.64763 0.0
C1249 C 0.85572 0.51539 0.64172 0.0
C1250 C 0.89098 0.49536 0.64864 0.0
C1251 C 0.86755 0.46498 0.64367 0.0
C1252 C 0.83786 0.45982 0.63838 0.0
C1253 C 0.83203 0.48475 0.63734 0.0
C1254 C 0.87413 0.43866 0.64348 0.0
C1255 C 0.85563 0.41232 0.65515 0.0
C1256 C 0.89852 0.43947 0.63195 0.0
C1257 C 0.91826 0.46611 0.61879 0.0
C1258 C 0.90469 0.47537 0.60394 0.0
C1259 C 0.92346 0.50069 0.59172 0.0
C1260 C 0.95587 0.51679 0.59411 0.0
C1261 C 0.96958 0.50753 0.60869 0.0
C1262 C 0.9509 0.48224 0.62096 0.0
C1263 C 0.86569 0.30364 0.63505 0.0
C1264 C 0.89491 0.30566 0.63761 0.0
C1265 C 0.86257 0.33011 0.63671 0.0
C1266 C 0.88841 0.35924 0.64143 0.0
C1267 C 0.9178 0.36152 0.64369 0.0
C1268 C 0.92105 0.33498 0.64175 0.0
C1269 C 0.88455 0.38718 0.64356 0.0
C1270 C 0.90352 0.41384 0.63225 0.0
C1271 C 0.86074 0.38677 0.65555 0.0
C1272 C 0.84138 0.36032 0.66897 0.0
C1273 C 0.85556 0.3503 0.68294 0.0
C1274 C 0.83726 0.32502 0.69531 0.0
C1275 C 0.80472 0.30963 0.69392 0.0
C1276 C 0.79042 0.31959 0.68021 0.0
C1277 C 0.80861 0.3449 0.66781 0.0
H1278 H 0.79059 0.29002 0.70348 0.0
H1279 H 0.97037 0.53639 0.58464 0.0
H1280 H 0.61861 0.94304 0.13787 0.0
H1281 H 0.5664 0.93762 0.13854 0.0
H1282 H 0.52479 0.83764 0.14271 0.0
H1283 H 0.57627 0.84266 0.14202 0.0
H1284 H 0.49601 0.85355 0.11499 0.0
H1285 H 0.52886 0.88066 0.18274 0.0
H1286 H 0.56384 0.91334 0.20951 0.0
H1287 H 0.55199 0.98997 0.19121 0.0
H1288 H 0.51726 0.95785 0.16414 0.0
H1289 H 0.33989 0.80701 0.14061 0.0
H1290 H 0.39355 0.8167 0.14139 0.0
H1291 H 0.42843 0.91596 0.14016 0.0
H1292 H 0.37497 0.90648 0.13938 0.0
H1293 H 0.46168 0.90312 0.16553 0.0
H1294 H 0.42799 0.87615 0.09839 0.0
H1295 H 0.39317 0.84393 0.07143 0.0
H1296 H 0.40716 0.76794 0.08799 0.0
H1297 H 0.44173 0.79957 0.11525 0.0
C1298 C 0.59835 0.91993 0.13903 0.0
C1299 C 0.60182 0.89334 0.13991 0.0
C1300 C 0.56851 0.91686 0.13945 0.0
C1301 C 0.54162 0.88719 0.14072 0.0
C1302 C 0.54511 0.86075 0.14166 0.0
C1303 C 0.57475 0.86376 0.14134 0.0
C1304 C 0.50967 0.88322 0.14074 0.0
C1305 C 0.48843 0.86415 0.12617 0.0
C1306 C 0.49994 0.89765 0.155 0.0
C1307 C 0.52076 0.91697 0.17128 0.0
C1308 C 0.53393 0.90457 0.18431 0.0
C1309 C 0.55367 0.92297 0.19956 0.0
C1310 C 0.56021 0.95375 0.20202 0.0
C1311 C 0.54695 0.96615 0.18926 0.0
C1312 C 0.52723 0.94785 0.17397 0.0
C1313 C 0.35897 0.8309 0.14048 0.0
C1314 C 0.35302 0.85593 0.13991 0.0
C1315 C 0.38968 0.83643 0.14093 0.0
C1316 C 0.41514 0.8671 0.14058 0.0
C1317 C 0.40925 0.89211 0.14048 0.0
C1318 C 0.37859 0.88662 0.14011 0.0
C1319 C 0.44787 0.87311 0.13991 0.0
C1320 C 0.46928 0.89261 0.15431 0.0
C1321 C 0.45785 0.85916 0.12543 0.0
C1322 C 0.43721 0.84014 0.10898 0.0
C1323 C 0.42346 0.85249 0.09637 0.0
C1324 C 0.40379 0.83435 0.08103 0.0
C1325 C 0.39789 0.80388 0.07803 0.0
C1326 C 0.41172 0.79153 0.09035 0.0
C1327 C 0.43137 0.80956 0.10574 0.0
H1328 H 0.38266 0.78987 0.06614 0.0
H1329 H 0.57549 0.96796 0.21384 0.0
H1330 H 0.74941 0.57494 0.6539 0.0
H1331 H 0.70258 0.52389 0.65502 0.0
H1332 H 0.6464 0.5655 0.64044 0.0
H1333 H 0.69367 0.61713 0.63891 0.0
H1334 H 0.65043 0.49688 0.67594 0.0
H1335 H 0.58614 0.51364 0.61053 0.0
H1336 H 0.59767 0.54638 0.58074 0.0
H1337 H 0.68942 0.55725 0.57763 0.0
H1338 H 0.67829 0.52427 0.60724 0.0
H1339 H 0.49849 0.36083 0.66388 0.0
H1340 H 0.54133 0.41453 0.66785 0.0
H1341 H 0.58756 0.4033 0.61693 0.0
H1342 H 0.54537 0.34945 0.61314 0.0
H1343 H 0.58602 0.45771 0.61516 0.0
H1344 H 0.61401 0.40304 0.66221 0.0
H1345 H 0.60554 0.36872 0.69074 0.0
H1346 H 0.59179 0.43092 0.7285 0.0
H1347 H 0.59974 0.46541 0.7001 0.0
C1348 C 0.72715 0.57347 0.65104 0.0
C1349 C 0.72545 0.60027 0.64609 0.0
C1350 C 0.70027 0.54413 0.65182 0.0
C1351 C 0.67091 0.54066 0.64761 0.0
C1352 C 0.66884 0.5675 0.6435 0.0
C1353 C 0.69587 0.59704 0.64272 0.0
C1354 C 0.64308 0.50868 0.64652 0.0
C1355 C 0.63615 0.48846 0.66272 0.0
C1356 C 0.62466 0.49734 0.62919 0.0
C1357 C 0.63149 0.51682 0.61122 0.0
C1358 C 0.60874 0.52296 0.60344 0.0
C1359 C 0.6152 0.54156 0.5866 0.0
C1360 C 0.6443 0.55399 0.57734 0.0
C1361 C 0.66694 0.54772 0.58486 0.0
C1362 C 0.66057 0.5291 0.60168 0.0
C1363 C 0.51801 0.36953 0.65372 0.0
C1364 C 0.51829 0.35066 0.63814 0.0
C1365 C 0.54242 0.40037 0.65594 0.0
C1366 C 0.56763 0.41304 0.64263 0.0
C1367 C 0.56821 0.39418 0.62726 0.0
C1368 C 0.54397 0.36334 0.6251 0.0
C1369 C 0.59341 0.44597 0.64456 0.0
C1370 C 0.59995 0.46632 0.62852 0.0
C1371 C 0.6118 0.45724 0.66189 0.0
C1372 C 0.6071 0.43661 0.67899 0.0
C1373 C 0.6089 0.40926 0.67656 0.0
C1374 C 0.60425 0.3898 0.69271 0.0
C1375 C 0.59803 0.39758 0.71141 0.0
C1376 C 0.59654 0.42489 0.714 0.0
C1377 C 0.60113 0.44441 0.69788 0.0
H1378 H 0.59444 0.38249 0.7239 0.0
H1379 H 0.64927 0.56841 0.56432 0.0
H1380 H 0.28633 0.83465 0.38808 0.0
H1381 H 0.33267 0.82928 0.38634 0.0
H1382 H 0.39019 0.92602 0.4028 0.0
H1383 H 0.34367 0.93182 0.40426 0.0
H1384 H 0.41864 0.9093 0.37482 0.0
H1385 H 0.36842 0.86836 0.43717 0.0
H1386 H 0.32416 0.83544 0.4591 0.0
H1387 H 0.31425 0.75295 0.43094 0.0
H1388 H 0.35822 0.78541 0.40865 0.0
H1389 H 0.5494 0.90021 0.41014 0.0
H1390 H 0.50397 0.90699 0.40638 0.0
H1391 H 0.4483 0.81062 0.38862 0.0
H1392 H 0.49377 0.80353 0.39267 0.0
H1393 H 0.41878 0.82679 0.41646 0.0
H1394 H 0.47074 0.86818 0.35488 0.0
H1395 H 0.515 0.90148 0.33306 0.0
H1396 H 0.52211 0.98356 0.36008 0.0
H1397 H 0.47816 0.95073 0.38228 0.0
C1398 C 0.30881 0.85495 0.39121 0.0
C1399 C 0.31118 0.88363 0.39654 0.0
C1400 C 0.33534 0.85177 0.39025 0.0
C1401 C 0.36489 0.87704 0.39486 0.0
C1402 C 0.36761 0.90613 0.39929 0.0
C1403 C 0.34099 0.90941 0.40012 0.0
C1404 C 0.39257 0.87259 0.39577 0.0
C1405 C 0.41884 0.89153 0.38411 0.0
C1406 C 0.39262 0.84893 0.40756 0.0
C1407 C 0.36643 0.82933 0.42112 0.0
C1408 C 0.35668 0.84321 0.43557 0.0
C1409 C 0.33166 0.82463 0.44808 0.0
C1410 C 0.31635 0.79213 0.44638 0.0
C1411 C 0.32611 0.77813 0.43222 0.0
C1412 C 0.3511 0.79661 0.41966 0.0
C1413 C 0.52748 0.88041 0.40546 0.0
C1414 C 0.52517 0.85125 0.40182 0.0
C1415 C 0.50158 0.88441 0.40314 0.0
C1416 C 0.47273 0.8594 0.39707 0.0
C1417 C 0.47035 0.83029 0.39326 0.0
C1418 C 0.49637 0.8263 0.39547 0.0
C1419 C 0.44488 0.86346 0.39548 0.0
C1420 C 0.41858 0.84448 0.40709 0.0
C1421 C 0.4449 0.88715 0.3837 0.0
C1422 C 0.47133 0.90698 0.37037 0.0
C1423 C 0.48191 0.89333 0.35629 0.0
C1424 C 0.50691 0.91212 0.34383 0.0
C1425 C 0.52141 0.94461 0.34522 0.0
C1426 C 0.51088 0.95838 0.35904 0.0
C1427 C 0.4859 0.93969 0.37155 0.0
H1428 H 0.54075 0.95912 0.33555 0.0
H1429 H 0.29696 0.77779 0.45607 0.0
H1430 H 0.65803 0.54599 0.89629 0.0
H1431 H 0.60464 0.5021 0.89534 0.0
H1432 H 0.63937 0.43777 0.90021 0.0
H1433 H 0.69307 0.48165 0.90063 0.0
H1434 H 0.59285 0.4178 0.87305 0.0
H1435 H 0.60842 0.45538 0.94016 0.0
H1436 H 0.62224 0.49492 0.96639 0.0
H1437 H 0.54921 0.51176 0.94699 0.0
H1438 H 0.53523 0.47259 0.92046 0.0
H1439 H 0.45777 0.28115 0.90253 0.0
H1440 H 0.50881 0.32765 0.90043 0.0
H1441 H 0.46579 0.38511 0.89872 0.0
H1442 H 0.41398 0.33818 0.90133 0.0
H1443 H 0.51527 0.41051 0.92264 0.0
H1444 H 0.49773 0.3711 0.85655 0.0
H1445 H 0.48364 0.33144 0.83037 0.0
H1446 H 0.56002 0.3183 0.84738 0.0
H1447 H 0.57433 0.35759 0.87385 0.0
C1448 C 0.65444 0.52252 0.89687 0.0
C1449 C 0.68003 0.51747 0.8985 0.0
C1450 C 0.62378 0.4974 0.89655 0.0
C1451 C 0.61783 0.46654 0.89795 0.0
C1452 C 0.64329 0.46134 0.89918 0.0
C1453 C 0.67402 0.48649 0.89956 0.0
C1454 C 0.5851 0.43976 0.89827 0.0
C1455 C 0.576 0.41605 0.88403 0.0
C1456 C 0.5627 0.43783 0.91221 0.0
C1457 C 0.571 0.4613 0.92819 0.0
C1458 C 0.59547 0.46769 0.94139 0.0
C1459 C 0.6033 0.49001 0.95633 0.0
C1460 C 0.58667 0.50591 0.95832 0.0
C1461 C 0.56211 0.49946 0.94541 0.0
C1462 C 0.5542 0.47719 0.93043 0.0
C1463 C 0.45887 0.30356 0.90161 0.0
C1464 C 0.43147 0.30572 0.90197 0.0
C1465 C 0.4883 0.33028 0.90031 0.0
C1466 C 0.49134 0.36002 0.89902 0.0
C1467 C 0.46412 0.36244 0.89958 0.0
C1468 C 0.43447 0.33556 0.90101 0.0
C1469 C 0.52306 0.38833 0.89752 0.0
C1470 C 0.53201 0.41234 0.91154 0.0
C1471 C 0.54531 0.3906 0.88333 0.0
C1472 C 0.53696 0.36715 0.86729 0.0
C1473 C 0.51141 0.35962 0.85479 0.0
C1474 C 0.5034 0.33722 0.83989 0.0
C1475 C 0.52089 0.32232 0.83724 0.0
C1476 C 0.54648 0.32986 0.84946 0.0
C1477 C 0.55458 0.35222 0.8644 0.0
H1478 H 0.51464 0.30497 0.8257 0.0
H1479 H 0.59277 0.52317 0.9699 0.0
H1480 H 0.21724 0.68151 0.39311 0.0
H1481 H 0.20791 0.62804 0.39019 0.0
H1482 H 0.11935 0.59342 0.4199 0.0
H1483 H 0.12889 0.64671 0.42317 0.0
H1484 H 0.14729 0.56574 0.43455 0.0
H1485 H 0.12622 0.58478 0.36854 0.0
H1486 H 0.13679 0.61299 0.33689 0.0
H1487 H 0.2164 0.60142 0.32722 0.0
H1488 H 0.20654 0.57349 0.35896 0.0
H1489 H 0.09211 0.40485 0.41365 0.0
H1490 H 0.09667 0.45662 0.41274 0.0
H1491 H 0.19069 0.49625 0.39048 0.0
H1492 H 0.18637 0.44487 0.3913 0.0
H1493 H 0.15786 0.52018 0.3715 0.0
H1494 H 0.17882 0.50237 0.43851 0.0
H1495 H 0.16656 0.47294 0.46978 0.0
H1496 H 0.08458 0.48122 0.47696 0.0
H1497 H 0.09613 0.51033 0.44557 0.0
C1498 C 0.19568 0.66244 0.39884 0.0
C1499 C 0.17389 0.66841 0.40844 0.0
C1500 C 0.19029 0.63183 0.39714 0.0
C1501 C 0.16274 0.60645 0.40468 0.0
C1502 C 0.14085 0.61245 0.41405 0.0
C1503 C 0.14636 0.643 0.41592 0.0
C1504 C 0.15697 0.57377 0.40333 0.0
C1505 C 0.14914 0.55571 0.42066 0.0
C1506 C 0.15984 0.56058 0.38534 0.0
C1507 C 0.16581 0.57731 0.36623 0.0
C1508 C 0.14612 0.58846 0.35974 0.0
C1509 C 0.15196 0.60436 0.34177 0.0
C1510 C 0.1773 0.60906 0.33008 0.0
C1511 C 0.1968 0.5978 0.33631 0.0
C1512 C 0.19108 0.5819 0.35428 0.0
C1513 C 0.11362 0.42451 0.40834 0.0
C1514 C 0.13892 0.42065 0.40268 0.0
C1515 C 0.11625 0.45413 0.40792 0.0
C1516 C 0.14416 0.48043 0.40173 0.0
C1517 C 0.16895 0.47638 0.39534 0.0
C1518 C 0.16645 0.44692 0.39591 0.0
C1519 C 0.1482 0.51239 0.40266 0.0
C1520 C 0.15581 0.53028 0.3853 0.0
C1521 C 0.14489 0.52536 0.42059 0.0
C1522 C 0.13816 0.50823 0.43959 0.0
C1523 C 0.15806 0.49772 0.44669 0.0
C1524 C 0.15126 0.48113 0.46444 0.0
C1525 C 0.12476 0.47513 0.47532 0.0
C1526 C 0.10507 0.48583 0.4685 0.0
C1527 C 0.11174 0.5024 0.45074 0.0
H1528 H 0.11952 0.46225 0.48905 0.0
H1529 H 0.18178 0.62138 0.31617 0.0
H1530 H 0.73762 0.17408 0.91701 0.0
H1531 H 0.68961 0.17652 0.91605 0.0
H1532 H 0.64062 0.08398 0.89091 0.0
H1533 H 0.68899 0.0811 0.89206 0.0
H1534 H 0.63117 0.13157 0.87104 0.0
H1535 H 0.624 0.08834 0.9352 0.0
H1536 H 0.643 0.08429 0.96813 0.0
H1537 H 0.6585 0.17539 0.98335 0.0
H1538 H 0.64005 0.1802 0.95037 0.0
H1539 H 0.48428 0.12658 0.88402 0.0
H1540 H 0.52669 0.11463 0.88321 0.0
H1541 H 0.58477 0.19794 0.91704 0.0
H1542 H 0.54262 0.2103 0.9177 0.0
H1543 H 0.58582 0.14825 0.93231 0.0
H1544 H 0.59763 0.1938 0.86799 0.0
H1545 H 0.58067 0.19987 0.83483 0.0
H1546 H 0.55801 0.1064 0.81974 0.0
H1547 H 0.57445 0.09962 0.85294 0.0
C1548 C 0.71668 0.15412 0.9113 0.0
C1549 C 0.71713 0.12736 0.90459 0.0
C1550 C 0.68922 0.15556 0.91083 0.0
C1551 C 0.66157 0.13043 0.90347 0.0
C1552 C 0.66177 0.10362 0.89666 0.0
C1553 C 0.68931 0.10194 0.89742 0.0
C1554 C 0.63283 0.13287 0.90286 0.0
C1555 C 0.62073 0.13451 0.88443 0.0
C1556 C 0.61985 0.13754 0.92033 0.0
C1557 C 0.63086 0.13473 0.94023 0.0
C1558 C 0.63171 0.10763 0.9455 0.0
C1559 C 0.64234 0.10517 0.96419 0.0
C1560 C 0.65201 0.12959 0.97781 0.0
C1561 C 0.65102 0.1565 0.97278 0.0
C1562 C 0.64044 0.15909 0.95409 0.0
C1563 C 0.50627 0.14273 0.89095 0.0
C1564 C 0.50998 0.16946 0.90092 0.0
C1565 C 0.53048 0.13576 0.89055 0.0
C1566 C 0.55896 0.15539 0.90004 0.0
C1567 C 0.56293 0.18233 0.90972 0.0
C1568 C 0.53878 0.18935 0.9101 0.0
C1569 C 0.58434 0.14747 0.90045 0.0
C1570 C 0.59588 0.14487 0.91889 0.0
C1571 C 0.59687 0.14209 0.88298 0.0
C1572 C 0.58691 0.14607 0.86303 0.0
C1573 C 0.58875 0.17444 0.85767 0.0
C1574 C 0.57929 0.17803 0.83885 0.0
C1575 C 0.56817 0.1535 0.8252 0.0
C1576 C 0.56657 0.12536 0.83034 0.0
C1577 C 0.57597 0.12163 0.84915 0.0
H1578 H 0.56087 0.15633 0.81064 0.0
H1579 H 0.66023 0.12764 0.99228 0.0
H1580 H 0.34184 0.53708 0.40994 0.0
H1581 H 0.39529 0.58099 0.40828 0.0
H1582 H 0.42903 0.5176 0.39477 0.0
H1583 H 0.37578 0.47348 0.397 0.0
H1584 H 0.4651 0.55943 0.42233 0.0
H1585 H 0.42418 0.56372 0.35884 0.0
H1586 H 0.38655 0.5656 0.33576 0.0
H1587 H 0.40304 0.6519 0.36181 0.0
H1588 H 0.44046 0.65033 0.38524 0.0
H1589 H 0.6196 0.68238 0.39932 0.0
H1590 H 0.56792 0.6354 0.39742 0.0
H1591 H 0.5245 0.69156 0.40686 0.0
H1592 H 0.57558 0.73833 0.40818 0.0
H1593 H 0.49423 0.65116 0.37939 0.0
H1594 H 0.5319 0.64563 0.44418 0.0
H1595 H 0.5691 0.64427 0.46788 0.0
H1596 H 0.55824 0.56105 0.44024 0.0
H1597 H 0.52126 0.56215 0.4162 0.0
C1598 C 0.36061 0.53244 0.40665 0.0
C1599 C 0.35438 0.50167 0.40352 0.0
C1600 C 0.39118 0.55763 0.40555 0.0
C1601 C 0.41625 0.5527 0.4012 0.0
C1602 C 0.41012 0.52204 0.39808 0.0
C1603 C 0.37956 0.49684 0.39915 0.0
C1604 C 0.44887 0.57944 0.4003 0.0
C1605 C 0.47159 0.57928 0.41271 0.0
C1606 C 0.4573 0.60567 0.38805 0.0
C1607 C 0.43493 0.60676 0.37391 0.0
C1608 C 0.41962 0.58298 0.35975 0.0
C1609 C 0.39835 0.58401 0.34658 0.0
C1610 C 0.39236 0.60882 0.34735 0.0
C1611 C 0.40769 0.63269 0.36124 0.0
C1612 C 0.42895 0.63176 0.37445 0.0
C1613 C 0.59903 0.6847 0.40098 0.0
C1614 C 0.60189 0.71423 0.40392 0.0
C1615 C 0.56945 0.65778 0.39997 0.0
C1616 C 0.54215 0.65978 0.40221 0.0
C1617 C 0.54506 0.68927 0.40502 0.0
C1618 C 0.57446 0.7161 0.40583 0.0
C1619 C 0.51042 0.63144 0.40165 0.0
C1620 C 0.48784 0.63126 0.38894 0.0
C1621 C 0.50208 0.60501 0.41373 0.0
C1622 C 0.52409 0.60417 0.42826 0.0
C1623 C 0.53761 0.62717 0.44308 0.0
C1624 C 0.55863 0.62643 0.45658 0.0
C1625 C 0.5661 0.60265 0.45553 0.0
C1626 C 0.55248 0.57949 0.44101 0.0
C1627 C 0.53147 0.58015 0.42745 0.0
H1628 H 0.5824 0.60212 0.46599 0.0
H1629 H 0.37589 0.60957 0.33715 0.0
H1630 H 0.85359 0.57553 0.887 0.0
H1631 H 0.84631 0.523 0.88756 0.0
H1632 H 0.92922 0.55569 0.92319 0.0
H1633 H 0.93719 0.60887 0.92222 0.0
H1634 H 0.92529 0.51335 0.89668 0.0
H1635 H 0.85508 0.51825 0.94407 0.0
H1636 H 0.81425 0.52993 0.95487 0.0
H1637 H 0.75028 0.4638 0.9128 0.0
H1638 H 0.79088 0.45199 0.90157 0.0
H1639 H 0.89136 0.36422 0.93083 0.0
H1640 H 0.90117 0.41773 0.9295 0.0
H1641 H 0.81888 0.38745 0.89363 0.0
H1642 H 0.80823 0.33353 0.89549 0.0
H1643 H 0.82287 0.4288 0.92076 0.0
H1644 H 0.89242 0.42397 0.87315 0.0
H1645 H 0.93338 0.41329 0.86118 0.0
H1646 H 0.99836 0.4795 0.90281 0.0
H1647 H 0.95763 0.49027 0.91523 0.0
C1648 C 0.8705 0.5717 0.89483 0.0
C1649 C 0.89583 0.5964 0.90475 0.0
C1650 C 0.86619 0.54153 0.89521 0.0
C1651 C 0.88672 0.53511 0.90586 0.0
C1652 C 0.91291 0.55998 0.915 0.0
C1653 C 0.91747 0.59039 0.91442 0.0
C1654 C 0.88013 0.5023 0.90793 0.0
C1655 C 0.90308 0.49496 0.90224 0.0
C1656 C 0.85085 0.47805 0.91474 0.0
C1657 C 0.8261 0.48441 0.92188 0.0
C1658 C 0.83234 0.50627 0.93708 0.0
C1659 C 0.80924 0.51292 0.94327 0.0
C1660 C 0.77971 0.49766 0.9345 0.0
C1661 C 0.77317 0.4756 0.91958 0.0
C1662 C 0.7962 0.46889 0.91331 0.0
C1663 C 0.875 0.36875 0.92291 0.0
C1664 C 0.84896 0.34439 0.91326 0.0
C1665 C 0.88089 0.39953 0.92196 0.0
C1666 C 0.86107 0.40682 0.9112 0.0
C1667 C 0.83464 0.3825 0.90194 0.0
C1668 C 0.8287 0.35167 0.9029 0.0
C1669 C 0.86804 0.4398 0.90949 0.0
C1670 C 0.84514 0.44718 0.91527 0.0
C1671 C 0.89733 0.46406 0.90272 0.0
C1672 C 0.92188 0.45769 0.89525 0.0
C1673 C 0.91537 0.43607 0.87986 0.0
C1674 C 0.93856 0.43003 0.87298 0.0
C1675 C 0.96843 0.44565 0.88127 0.0
C1676 C 0.97519 0.46739 0.89643 0.0
C1677 C 0.95208 0.47349 0.90338 0.0
H1678 H 0.98635 0.44094 0.87591 0.0
H1679 H 0.76189 0.50288 0.9393 0.0
H1680 H 0.16332 0.29915 0.35354 0.0
H1681 H 0.18203 0.30773 0.31925 0.0
H1682 H 0.16681 0.38635 0.31516 0.0
H1683 H 0.14723 0.37702 0.34928 0.0
H1684 H 0.14113 0.34944 0.28481 0.0
H1685 H 0.24189 0.39458 0.31542 0.0
H1686 H 0.28123 0.39598 0.33846 0.0
H1687 H 0.276 0.31583 0.30977 0.0
H1688 H 0.23624 0.31362 0.28676 0.0
H1689 H 0.20698 0.38845 0.18659 0.0
H1690 H 0.19441 0.38942 0.2218 0.0
H1691 H 0.20849 0.31127 0.23284 0.0
H1692 H 0.22187 0.31103 0.19807 0.0
H1693 H 0.23743 0.35323 0.25991 0.0
H1694 H 0.13411 0.30515 0.23139 0.0
H1695 H 0.09335 0.30192 0.20886 0.0
H1696 H 0.10265 0.38613 0.23389 0.0
H1697 H 0.14377 0.3901 0.25639 0.0
C1698 C 0.16505 0.31889 0.34547 0.0
C1699 C 0.15463 0.33793 0.35405 0.0
C1700 C 0.17561 0.32374 0.32585 0.0
C1701 C 0.17609 0.34789 0.31455 0.0
C1702 C 0.16672 0.36763 0.3235 0.0
C1703 C 0.15592 0.36256 0.34305 0.0
C1704 C 0.18406 0.35105 0.29305 0.0
C1705 C 0.1625 0.35086 0.2794 0.0
C1706 C 0.21155 0.35218 0.28586 0.0
C1707 C 0.23593 0.35383 0.29943 0.0
C1708 C 0.24901 0.37716 0.31409 0.0
C1709 C 0.27139 0.37809 0.32714 0.0
C1710 C 0.28106 0.35598 0.3256 0.0
C1711 C 0.26847 0.33295 0.31095 0.0
C1712 C 0.24604 0.33186 0.29788 0.0
C1713 C 0.20685 0.37127 0.19657 0.0
C1714 C 0.21522 0.3496 0.18972 0.0
C1715 C 0.19973 0.3718 0.21666 0.0
C1716 C 0.20045 0.35036 0.23008 0.0
C1717 C 0.20799 0.32821 0.22294 0.0
C1718 C 0.2154 0.32793 0.20303 0.0
C1719 C 0.1943 0.35119 0.25166 0.0
C1720 C 0.21622 0.35213 0.26533 0.0
C1721 C 0.16707 0.35059 0.25887 0.0
C1722 C 0.14225 0.34811 0.24542 0.0
C1723 C 0.12762 0.3231 0.23199 0.0
C1724 C 0.10443 0.32111 0.21924 0.0
C1725 C 0.09548 0.34384 0.21991 0.0
C1726 C 0.10964 0.36857 0.23336 0.0
C1727 C 0.13287 0.37069 0.24612 0.0
H1728 H 0.07753 0.34226 0.21003 0.0
H1729 H 0.29835 0.35671 0.33574 0.0
H1730 H 0.84763 0.17965 0.68034 0.0
H1731 H 0.8266 0.16574 0.71419 0.0
H1732 H 0.91643 0.23362 0.73773 0.0
H1733 H 0.93737 0.24679 0.70439 0.0
H1734 H 0.8955 0.1814 0.75704 0.0
H1735 H 0.85207 0.24549 0.73606 0.0
H1736 H 0.82149 0.25922 0.71362 0.0
H1737 H 0.73938 0.17113 0.72529 0.0
H1738 H 0.76961 0.15663 0.74758 0.0
H1739 H 0.85741 0.18197 0.8575 0.0
H1740 H 0.8734 0.20079 0.82354 0.0
H1741 H 0.78179 0.13301 0.8024 0.0
H1742 H 0.76553 0.11505 0.83617 0.0
H1743 H 0.80212 0.18401 0.78157 0.0
H1744 H 0.84452 0.11914 0.80161 0.0
H1745 H 0.87446 0.10351 0.82332 0.0
H1746 H 0.95767 0.19116 0.81263 0.0
H1747 H 0.92812 0.20747 0.79105 0.0
C1748 C 0.86264 0.19168 0.69278 0.0
C1749 C 0.89408 0.21427 0.68975 0.0
C1750 C 0.85068 0.1838 0.71211 0.0
C1751 C 0.86993 0.19873 0.72858 0.0
C1752 C 0.90113 0.2216 0.72537 0.0
C1753 C 0.91305 0.22919 0.70623 0.0
C1754 C 0.85838 0.19038 0.7493 0.0
C1755 C 0.87528 0.18236 0.76243 0.0
C1756 C 0.83155 0.19081 0.7563 0.0
C1757 C 0.81317 0.19987 0.74336 0.0
C1758 C 0.82752 0.229 0.73378 0.0
C1759 C 0.81025 0.23692 0.72109 0.0
C1760 C 0.77852 0.21606 0.71801 0.0
C1761 C 0.76396 0.18726 0.72768 0.0
C1762 C 0.78115 0.17919 0.74036 0.0
C1763 C 0.8406 0.17153 0.84563 0.0
C1764 C 0.81039 0.14676 0.84944 0.0
C1765 C 0.84976 0.18213 0.82621 0.0
C1766 C 0.829 0.16782 0.81028 0.0
C1767 C 0.79831 0.14435 0.81433 0.0
C1768 C 0.78909 0.13399 0.83368 0.0
C1769 C 0.83961 0.1756 0.78935 0.0
C1770 C 0.82242 0.18324 0.77618 0.0
C1771 C 0.86611 0.17466 0.78222 0.0
C1772 C 0.88405 0.16463 0.79487 0.0
C1773 C 0.86918 0.13513 0.80396 0.0
C1774 C 0.88607 0.12615 0.81624 0.0
C1775 C 0.91793 0.14637 0.8194 0.0
C1776 C 0.93298 0.17555 0.8102 0.0
C1777 C 0.91619 0.18466 0.79793 0.0
H1778 H 0.93095 0.1394 0.82894 0.0
H1779 H 0.76522 0.22223 0.70814 0.0
H1780 H 0.68695 0.9262 0.2069 0.0
H1781 H 0.67918 0.9049 0.24015 0.0
H1782 H 0.67865 0.82301 0.21726 0.0
H1783 H 0.68549 0.84414 0.18339 0.0
H1784 H 0.63721 0.80823 0.2479 0.0
H1785 H 0.74485 0.88251 0.23707 0.0
H1786 H 0.78974 0.9329 0.227 0.0
H1787 H 0.76639 0.98013 0.27149 0.0
H1788 H 0.72106 0.93005 0.28163 0.0
H1789 H 0.69037 0.76968 0.33514 0.0
H1790 H 0.68209 0.78436 0.3023 0.0
H1791 H 0.67458 0.86066 0.32754 0.0
H1792 H 0.68264 0.84564 0.36087 0.0
H1793 H 0.71768 0.87796 0.29617 0.0
H1794 H 0.61133 0.80091 0.30837 0.0
H1795 H 0.56814 0.74939 0.31832 0.0
H1796 H 0.59133 0.70583 0.27131 0.0
H1797 H 0.63499 0.75705 0.26125 0.0
C1798 C 0.68475 0.90342 0.20886 0.0
C1799 C 0.68713 0.88692 0.19262 0.0
C1800 C 0.68041 0.89132 0.22792 0.0
C1801 C 0.67916 0.86274 0.23134 0.0
C1802 C 0.67979 0.84525 0.215 0.0
C1803 C 0.68367 0.85726 0.19569 0.0
C1804 C 0.6791 0.8525 0.25208 0.0
C1805 C 0.655 0.8233 0.25839 0.0
C1806 C 0.70198 0.87241 0.26594 0.0
C1807 C 0.72938 0.90256 0.25999 0.0
C1808 C 0.74915 0.90367 0.24461 0.0
C1809 C 0.7747 0.93217 0.23891 0.0
C1810 C 0.78087 0.95971 0.24857 0.0
C1811 C 0.76156 0.95879 0.264 0.0
C1812 C 0.73595 0.93035 0.26975 0.0
C1813 C 0.68648 0.78933 0.33378 0.0
C1814 C 0.68711 0.80654 0.35055 0.0
C1815 C 0.6816 0.79759 0.31497 0.0
C1816 C 0.67748 0.82345 0.31242 0.0
C1817 C 0.67753 0.84047 0.3292 0.0
C1818 C 0.68198 0.83186 0.3482 0.0
C1819 C 0.67571 0.83379 0.29205 0.0
C1820 C 0.69968 0.863 0.28575 0.0
C1821 C 0.65297 0.8137 0.27821 0.0
C1822 C 0.62661 0.78284 0.28415 0.0
C1823 C 0.60739 0.78033 0.30024 0.0
C1824 C 0.58279 0.75117 0.30589 0.0
C1825 C 0.57703 0.72434 0.29548 0.0
C1826 C 0.59583 0.72663 0.27937 0.0
C1827 C 0.62049 0.75573 0.27367 0.0
H1828 H 0.55798 0.70179 0.29988 0.0
H1829 H 0.80065 0.98176 0.24413 0.0
H1830 H 0.8532 0.73436 0.70142 0.0
H1831 H 0.86665 0.72453 0.73441 0.0
H1832 H 0.82124 0.62599 0.72153 0.0
H1833 H 0.80869 0.63603 0.6879 0.0
H1834 H 0.80373 0.65475 0.7603 0.0
H1835 H 0.88416 0.64431 0.72645 0.0
H1836 H 0.92698 0.66049 0.70233 0.0
H1837 H 0.97972 0.74814 0.73258 0.0
H1838 H 0.93695 0.73268 0.75669 0.0
H1839 H 0.85427 0.64371 0.85916 0.0
H1840 H 0.83659 0.63374 0.82451 0.0
H1841 H 0.91315 0.72423 0.80822 0.0
H1842 H 0.93162 0.73308 0.84227 0.0
H1843 H 0.91101 0.68644 0.78274 0.0
H1844 H 0.83085 0.70316 0.81249 0.0
H1845 H 0.78857 0.6919 0.83627 0.0
H1846 H 0.73596 0.59823 0.81389 0.0
H1847 H 0.77813 0.60886 0.79012 0.0
C1848 C 0.84683 0.7107 0.70544 0.0
C1849 C 0.83034 0.686 0.69213 0.0
C1850 C 0.85432 0.70509 0.72431 0.0
C1851 C 0.84476 0.67456 0.73043 0.0
C1852 C 0.8288 0.64973 0.71703 0.0
C1853 C 0.82198 0.65548 0.69783 0.0
C1854 C 0.85078 0.66932 0.75118 0.0
C1855 C 0.82697 0.66086 0.76526 0.0
C1856 C 0.88127 0.67818 0.7576 0.0
C1857 C 0.90723 0.68741 0.74329 0.0
C1858 C 0.90477 0.66714 0.72786 0.0
C1859 C 0.92906 0.67616 0.71421 0.0
C1860 C 0.95603 0.70535 0.7159 0.0
C1861 C 0.9588 0.72554 0.73128 0.0
C1862 C 0.93456 0.71664 0.74496 0.0
C1863 C 0.86691 0.66151 0.84813 0.0
C1864 C 0.89422 0.68918 0.85331 0.0
C1865 C 0.85686 0.65586 0.82833 0.0
C1866 C 0.87346 0.67824 0.81356 0.0
C1867 C 0.90006 0.70633 0.81911 0.0
C1868 C 0.91048 0.71154 0.83865 0.0
C1869 C 0.86416 0.67281 0.79222 0.0
C1870 C 0.88749 0.6795 0.77795 0.0
C1871 C 0.83332 0.66288 0.78569 0.0
C1872 C 0.80776 0.65669 0.7997 0.0
C1873 C 0.81032 0.68012 0.81271 0.0
C1874 C 0.78639 0.67386 0.82618 0.0
C1875 C 0.75965 0.64433 0.82664 0.0
C1876 C 0.75672 0.62106 0.81355 0.0
C1877 C 0.78061 0.6272 0.80007 0.0
H1878 H 0.74117 0.6395 0.83711 0.0
H1879 H 0.97481 0.7123 0.70531 0.0
H1880 H 0.18676 0.81812 0.18078 0.0
H1881 H 0.20727 0.82924 0.21498 0.0
H1882 H 0.12892 0.83925 0.23314 0.0
H1883 H 0.10838 0.82771 0.19956 0.0
H1884 H 0.18564 0.8855 0.24877 0.0
H1885 H 0.12662 0.7725 0.24059 0.0
H1886 H 0.11609 0.72307 0.22486 0.0
H1887 H 0.20743 0.74076 0.24132 0.0
H1888 H 0.21866 0.79057 0.2569 0.0
H1889 H 0.16546 0.87193 0.34965 0.0
H1890 H 0.1543 0.85616 0.3149 0.0
H1891 H 0.23425 0.84295 0.31269 0.0
H1892 H 0.245 0.8582 0.34773 0.0
H1893 H 0.18619 0.80092 0.28793 0.0
H1894 H 0.24374 0.91073 0.29915 0.0
H1895 H 0.25528 0.96046 0.31485 0.0
H1896 H 0.1697 0.95046 0.292 0.0
H1897 H 0.15736 0.90035 0.27644 0.0
C1898 C 0.17438 0.82329 0.19207 0.0
C1899 C 0.14603 0.82211 0.18759 0.0
C1900 C 0.18592 0.82939 0.21158 0.0
C1901 C 0.16948 0.83489 0.22666 0.0
C1902 C 0.14202 0.83511 0.22182 0.0
C1903 C 0.13029 0.8285 0.2026 0.0
C1904 C 0.17956 0.83926 0.24775 0.0
C1905 C 0.18575 0.867 0.25731 0.0
C1906 C 0.18049 0.81545 0.25884 0.0
C1907 C 0.17362 0.78542 0.24967 0.0
C1908 C 0.14455 0.76597 0.2407 0.0
C1909 C 0.13844 0.73787 0.23184 0.0
C1910 C 0.16112 0.72883 0.23203 0.0
C1911 C 0.18992 0.74783 0.24114 0.0
C1912 C 0.19616 0.77599 0.24999 0.0
C1913 C 0.17972 0.8642 0.34199 0.0
C1914 C 0.20566 0.86561 0.35139 0.0
C1915 C 0.17361 0.85559 0.32207 0.0
C1916 C 0.19381 0.84898 0.31104 0.0
C1917 C 0.21836 0.84796 0.32086 0.0
C1918 C 0.22435 0.85642 0.3409 0.0
C1919 C 0.19126 0.84681 0.28903 0.0
C1920 C 0.18658 0.81962 0.27933 0.0
C1921 C 0.19198 0.87126 0.27769 0.0
C1922 C 0.19952 0.90165 0.28675 0.0
C1923 C 0.22728 0.91903 0.29757 0.0
C1924 C 0.23397 0.9473 0.30644 0.0
C1925 C 0.21321 0.95859 0.30445 0.0
C1926 C 0.18575 0.94167 0.29354 0.0
C1927 C 0.1789 0.91334 0.28468 0.0
H1928 H 0.21842 0.98047 0.31134 0.0
H1929 H 0.15634 0.70707 0.22516 0.0
H1930 H 0.30256 0.21181 0.83671 0.0
H1931 H 0.31186 0.19878 0.80355 0.0
H1932 H 0.39 0.19138 0.82511 0.0
H1933 H 0.38027 0.20399 0.85893 0.0
H1934 H 0.39665 0.23089 0.78608 0.0
H1935 H 0.33973 0.12936 0.81567 0.0
H1936 H 0.29768 0.08917 0.83621 0.0
H1937 H 0.22884 0.08878 0.79734 0.0
H1938 H 0.27048 0.12945 0.77678 0.0
H1939 H 0.39632 0.1648 0.6896 0.0
H1940 H 0.40262 0.18108 0.72448 0.0
H1941 H 0.30604 0.15794 0.72634 0.0
H1942 H 0.29965 0.14056 0.69188 0.0
H1943 H 0.31657 0.13145 0.75567 0.0
H1944 H 0.37133 0.23571 0.72838 0.0
H1945 H 0.41185 0.27788 0.70806 0.0
H1946 H 0.48346 0.27476 0.7422 0.0
H1947 H 0.44333 0.23224 0.76256 0.0
C1948 C 0.32166 0.20725 0.8345 0.0
C1949 C 0.34061 0.20876 0.85042 0.0
C1950 C 0.327 0.19993 0.8155 0.0
C1951 C 0.35169 0.19432 0.81184 0.0
C1952 C 0.3709 0.19582 0.82765 0.0
C1953 C 0.36517 0.20269 0.84693 0.0
C1954 C 0.35605 0.18605 0.79138 0.0
C1955 C 0.37969 0.20885 0.77946 0.0
C1956 C 0.33341 0.15766 0.7827 0.0
C1957 C 0.30826 0.13263 0.79475 0.0
C1958 C 0.31562 0.12088 0.81158 0.0
C1959 C 0.29186 0.09799 0.82322 0.0
C1960 C 0.26061 0.08647 0.8181 0.0
C1961 C 0.25306 0.09774 0.80129 0.0
C1962 C 0.27675 0.12069 0.78962 0.0
C1963 C 0.37687 0.16437 0.69734 0.0
C1964 C 0.34769 0.15215 0.68805 0.0
C1965 C 0.38038 0.17346 0.71731 0.0
C1966 C 0.35479 0.17076 0.72819 0.0
C1967 C 0.32611 0.16012 0.71841 0.0
C1968 C 0.32254 0.15061 0.69864 0.0
C1969 C 0.35677 0.17662 0.75 0.0
C1970 C 0.33409 0.1533 0.76221 0.0
C1971 C 0.38021 0.20462 0.75884 0.0
C1972 C 0.40433 0.23056 0.74685 0.0
C1973 C 0.39572 0.24388 0.73147 0.0
C1974 C 0.41861 0.26787 0.71996 0.0
C1975 C 0.45021 0.27893 0.7238 0.0
C1976 C 0.45898 0.26613 0.73922 0.0
C1977 C 0.43617 0.24211 0.75076 0.0
H1978 H 0.4679 0.29746 0.71484 0.0
H1979 H 0.24224 0.06878 0.82715 0.0
H1980 H 0.34956 0.27388 0.95236 0.0
H1981 H 0.32608 0.28978 0.97845 0.0
H1982 H 0.27533 0.19491 0.99954 0.0
H1983 H 0.29879 0.17876 0.97312 0.0
H1984 H 0.26534 0.27203 0.98537 0.0
H1985 H 0.26723 0.20019 0.05145 0.0
H1986 H 0.29638 0.17495 0.06349 0.0
H1987 H 0.37758 0.24123 0.03137 0.0
H1988 H 0.34906 0.26712 1.01939 0.0
H1989 H 0.18585 0.29566 0.06742 0.0
H1990 H 0.20166 0.27061 0.04197 0.0
H1991 H 0.29582 0.31891 0.06461 0.0
H1992 H 0.28006 0.3436 0.09002 0.0
H1993 H 0.27948 0.26026 0.05683 0.0
H1994 H 0.27223 0.34235 0.02207 0.0
H1995 H 0.24532 0.36979 1.00992 0.0
H1996 H 0.17886 0.28705 0.97904 0.0
H1997 H 0.20514 0.259 0.99124 0.0
C1998 C 0.33342 0.25635 0.96256 0.0
C1999 C 0.32583 0.225 0.96057 0.0
C2000 C 0.3199 0.26547 0.97744 0.0
C2001 C 0.29881 0.24361 0.99099 0.0
C2002 C 0.29161 0.21228 0.98933 0.0
C2003 C 0.30505 0.20306 0.97426 0.0
C2004 C 0.28467 0.25407 1.00671 0.0
C2005 C 0.26824 0.26922 1.00101 0.0
C2006 C 0.28836 0.2505 0.02714 0.0
C2007 C 0.30585 0.23529 0.0343 0.0
C2008 C 0.29132 0.20938 0.04698 0.0
C2009 C 0.30773 0.19498 0.0538 0.0
C2010 C 0.33877 0.20639 0.04812 0.0
C2011 C 0.35349 0.23232 0.03568 0.0
C2012 C 0.3372 0.24684 0.02885 0.0
C2013 C 0.20992 0.30094 0.0669 0.0
C2014 C 0.23169 0.32156 0.08075 0.0
C2015 C 0.21897 0.28663 0.05233 0.0
C2016 C 0.25006 0.29292 0.05121 0.0
C2017 C 0.27169 0.31346 0.06514 0.0
C2018 C 0.26266 0.32767 0.07966 0.0
C2019 C 0.26049 0.27865 0.03552 0.0
C2020 C 0.27616 0.26269 0.04121 0.0
C2021 C 0.25622 0.2816 1.01506 0.0
C2022 C 0.24042 0.29847 1.00778 0.0
C2023 C 0.25172 0.32994 1.01284 0.0
C2024 C 0.23661 0.34561 1.00592 0.0
C2025 C 0.21033 0.33014 0.99378 0.0
C2026 C 0.19916 0.29898 0.98849 0.0
C2027 C 0.21416 0.28319 0.9954 0.0
H2028 H 0.19867 0.34232 0.98843 0.0
H2029 H 0.35143 0.1952 0.05341 0.0
H2030 H 0.08703 0.33954 0.45346 0.0
H2031 H 0.04721 0.31666 0.47935 0.0
H2032 H 0.08865 0.26324 0.50033 0.0
H2033 H 0.12907 0.28656 0.47446 0.0
H2034 H 0.01891 0.22881 0.49614 0.0
H2035 H 0.10312 0.32144 0.52644 0.0
H2036 H 0.14227 0.37755 0.52721 0.0
H2037 H 0.06941 0.4006 0.52244 0.0
H2038 H 0.02984 0.3446 0.52141 0.0
H2039 H 0.92329 0.18072 0.58341 0.0
H2040 H 0.9654 0.1975 0.55898 0.0
H2041 H 0.95966 0.28057 0.54766 0.0
H2042 H 0.91997 0.2651 0.57343 0.0
H2043 H 1.01502 0.29813 0.54793 0.0
H2044 H 0.93103 0.20927 0.51458 0.0
H2045 H 0.88961 0.15416 0.51143 0.0
H2046 H 0.95746 0.1248 0.51882 0.0
H2047 H 0.99925 0.17975 0.52216 0.0
C2048 C 0.08769 0.32292 0.46359 0.0
C2049 C 0.1112 0.31488 0.46198 0.0
C2050 C 0.06489 0.30983 0.47836 0.0
C2051 C 0.06492 0.28823 0.49179 0.0
C2052 C 0.08813 0.27978 0.49008 0.0
C2053 C 0.11129 0.29325 0.47541 0.0
C2054 C 0.04122 0.27548 0.50793 0.0
C2055 C 0.0182 0.24378 0.50766 0.0
C2056 C 0.03983 0.29516 0.52263 0.0
C2057 C 0.06355 0.32883 0.52371 0.0
C2058 C 0.09546 0.33848 0.52545 0.0
C2059 C 0.11772 0.37026 0.52595 0.0
C2060 C 0.10834 0.39263 0.52483 0.0
C2061 C 0.07665 0.38325 0.5233 0.0
C2062 C 0.05429 0.35149 0.52279 0.0
C2063 C 0.93087 0.20232 0.57544 0.0
C2064 C 0.91821 0.22148 0.58004 0.0
C2065 C 0.95489 0.21192 0.56137 0.0
C2066 C 0.96568 0.24019 0.55095 0.0
C2067 C 0.95219 0.25879 0.55538 0.0
C2068 C 0.92921 0.24982 0.56998 0.0
C2069 C 0.99162 0.25129 0.53601 0.0
C2070 C 1.01538 0.28284 0.53651 0.0
C2071 C 0.99315 0.23154 0.52123 0.0
C2072 C 0.96818 0.19857 0.51881 0.0
C2073 C 0.93708 0.19104 0.51559 0.0
C2074 C 0.91355 0.15985 0.51377 0.0
C2075 C 0.92088 0.13599 0.51499 0.0
C2076 C 0.9518 0.1433 0.51791 0.0
C2077 C 0.97542 0.17446 0.51973 0.0
H2078 H 0.90263 0.11185 0.51364 0.0
H2079 H 0.12561 0.41722 0.52518 0.0
H2080 H 0.69154 0.94987 0.09463 0.0
H2081 H 0.71338 0.98843 0.0684 0.0
H2082 H 0.74497 0.93215 0.03809 0.0
H2083 H 0.72547 0.89464 0.0656 0.0
H2084 H 0.78615 0.98818 0.03215 0.0
H2085 H 0.67622 0.93645 0.02422 0.0
H2086 H 0.62107 0.91485 0.03383 0.0
H2087 H 0.63872 1.00677 0.04886 0.0
H2088 H 0.6941 0.02888 0.03958 0.0
H2089 H 0.75122 0.0739 0.94574 0.0
H2090 H 0.73448 0.03366 0.97089 0.0
H2091 H 0.82206 0.08808 1.00154 0.0
H2092 H 0.83991 0.1275 0.9752 0.0
H2093 H 0.72083 0.03007 1.00571 0.0
H2094 H 0.8394 0.04268 0.03038 0.0
H2095 H 0.89068 0.05704 1.01584 0.0
H2096 H 0.84896 0.03026 0.95823 0.0
H2097 H 0.7974 0.01537 0.97245 0.0
C2098 C 0.70349 0.94582 0.08252 0.0
C2099 C 0.70711 0.91935 0.08236 0.0
C2100 C 0.71567 0.96779 0.0673 0.0
C2101 C 0.73032 0.96314 0.05083 0.0
C2102 C 0.73381 0.93649 0.05054 0.0
C2103 C 0.72244 0.91488 0.0662 0.0
C2104 C 0.74151 0.98597 0.034 0.0
C2105 C 0.77178 0.99723 0.02634 0.0
C2106 C 0.72271 0.99742 0.02583 0.0
C2107 C 0.68937 0.98428 0.03135 0.0
C2108 C 0.66838 0.95203 0.02968 0.0
C2109 C 0.63708 0.9397 0.03506 0.0
C2110 C 0.62642 0.95942 0.04199 0.0
C2111 C 0.64702 0.99152 0.0435 0.0
C2112 C 0.67836 1.00397 0.03816 0.0
C2113 C 0.76724 0.07707 0.95761 0.0
C2114 C 0.7972 0.10358 0.9582 0.0
C2115 C 0.75746 0.0541 0.9722 0.0
C2116 C 0.777 0.05729 0.98818 0.0
C2117 C 0.8067 0.08439 0.98918 0.0
C2118 C 0.81682 0.10715 0.97422 0.0
C2119 C 0.76558 0.03255 1.00388 0.0
C2120 C 0.73524 0.02099 1.01141 0.0
C2121 C 0.78374 0.01974 1.01112 0.0
C2122 C 0.8146 0.02823 1.00248 0.0
C2123 C 0.84116 0.03975 1.01463 0.0
C2124 C 0.87028 0.04799 1.00643 0.0
C2125 C 0.87309 0.04465 0.98611 0.0
C2126 C 0.84677 0.03293 0.97395 0.0
C2127 C 0.8176 0.02462 0.98207 0.0
H2128 H 0.89566 0.05109 0.9798 0.0
H2129 H 0.60217 0.94982 0.04615 0.0
H2130 H 0.84948 0.73394 0.57184 0.0
H2131 H 0.8328 0.75666 0.54541 0.0
H2132 H 0.73762 0.70318 0.56564 0.0
H2133 H 0.7542 0.68108 0.5923 0.0
H2134 H 0.75519 0.70104 0.52063 0.0
H2135 H 0.75855 0.7701 0.57504 0.0
H2136 H 0.78446 0.80825 0.6019 0.0
H2137 H 0.86002 0.8663 0.56293 0.0
H2138 H 0.83406 0.82874 0.53565 0.0
H2139 H 0.67051 0.74977 0.46228 0.0
H2140 H 0.69242 0.73306 0.48867 0.0
H2141 H 0.77724 0.8226 0.48686 0.0
H2142 H 0.75372 0.84025 0.46164 0.0
H2143 H 0.77003 0.80801 0.52175 0.0
H2144 H 0.76896 0.74632 0.46688 0.0
H2145 H 0.74723 0.71133 0.43795 0.0
H2146 H 0.67638 0.64082 0.47474 0.0
H2147 H 0.69777 0.67546 0.50383 0.0
C2148 C 0.82504 0.72716 0.57067 0.0
C2149 C 0.80314 0.70573 0.58412 0.0
C2150 C 0.81557 0.74023 0.55564 0.0
C2151 C 0.78397 0.73165 0.5536 0.0
C2152 C 0.76211 0.71019 0.56698 0.0
C2153 C 0.77162 0.69758 0.58219 0.0
C2154 C 0.77338 0.74392 0.53703 0.0
C2155 C 0.75817 0.72434 0.52088 0.0
C2156 C 0.77844 0.77468 0.53694 0.0
C2157 C 0.79459 0.79654 0.55344 0.0
C2158 C 0.78084 0.79086 0.57228 0.0
C2159 C 0.79547 0.81244 0.58756 0.0
C2160 C 0.82402 0.83958 0.58421 0.0
C2161 C 0.83794 0.84525 0.56553 0.0
C2162 C 0.8232 0.82392 0.55013 0.0
C2163 C 0.69374 0.76594 0.46768 0.0
C2164 C 0.71038 0.7963 0.46003 0.0
C2165 C 0.70658 0.7562 0.48258 0.0
C2166 C 0.73714 0.776 0.48952 0.0
C2167 C 0.75372 0.80661 0.48188 0.0
C2168 C 0.74031 0.81679 0.46746 0.0
C2169 C 0.75117 0.765 0.50509 0.0
C2170 C 0.76715 0.78478 0.52114 0.0
C2171 C 0.74767 0.73462 0.50477 0.0
C2172 C 0.73472 0.71363 0.4874 0.0
C2173 C 0.74858 0.72348 0.46869 0.0
C2174 C 0.73638 0.7037 0.45231 0.0
C2175 C 0.7103 0.67397 0.45447 0.0
C2176 C 0.69653 0.66388 0.47307 0.0
C2177 C 0.70876 0.68354 0.48952 0.0
H2178 H 0.70084 0.65871 0.44176 0.0
H2179 H 0.83527 0.85633 0.59602 0.0
H2180 H 0.93512 0.66981 0.9598 0.0
H2181 H 0.97427 0.69469 0.98592 0.0
H2182 H 0.94323 0.76109 0.99601 0.0
H2183 H 0.90311 0.73554 0.9701 0.0
H2184 H 0.01919 0.77785 0.98759 0.0
H2185 H 0.92608 0.73109 0.03017 0.0
H2186 H 0.87552 0.68668 0.04057 0.0
H2187 H 0.91923 0.63149 0.05068 0.0
H2188 H 0.96996 0.67548 0.04005 0.0
H2189 H 0.12429 0.84537 0.07006 0.0
H2190 H 0.08203 0.8292 0.04578 0.0
H2191 H 0.05175 0.73254 0.05826 0.0
H2192 H 0.09255 0.74878 0.08326 0.0
H2193 H 1.00367 0.73564 0.0557 0.0
H2194 H 0.09497 0.77749 1.01429 0.0
H2195 H 0.14608 0.81662 1.00079 0.0
H2196 H 0.10856 0.87553 0.98501 0.0
H2197 H 0.05738 0.83701 0.99876 0.0
C2198 C 0.93636 0.68948 0.96775 0.0
C2199 C 0.91596 0.70064 0.96303 0.0
C2200 C 0.9588 0.70372 0.98261 0.0
C2201 C 0.96164 0.72968 0.99291 0.0
C2202 C 0.94131 0.74097 0.98827 0.0
C2203 C 0.91833 0.7263 0.97359 0.0
C2204 C 0.9863 0.74488 1.00826 0.0
C2205 C 1.0158 0.76921 1.00265 0.0
C2206 C 0.98207 0.73274 0.0276 0.0
C2207 C 0.95168 0.70642 0.03411 0.0
C2208 C 0.92482 0.70938 0.03441 0.0
C2209 C 0.89616 0.68431 0.0404 0.0
C2210 C 0.89414 0.65625 0.04623 0.0
C2211 C 0.92081 0.65322 0.04614 0.0
C2212 C 0.94952 0.67822 0.04015 0.0
C2213 C 0.10868 0.8207 0.06744 0.0
C2214 C 0.11175 0.79831 0.07847 0.0
C2215 C 0.08454 0.81141 0.05349 0.0
C2216 C 0.06359 0.7795 0.04983 0.0
C2217 C 0.06723 0.75727 0.06072 0.0
C2218 C 0.09076 0.76655 0.07495 0.0
C2219 C 0.03737 0.76883 0.03517 0.0
C2220 C 1.0074 0.745 0.04082 0.0
C2221 C 0.04148 0.78108 1.01569 0.0
C2222 C 0.07248 0.80459 1.00787 0.0
C2223 C 0.09773 0.79897 1.00818 0.0
C2224 C 0.1267 0.82101 1.00044 0.0
C2225 C 0.13061 0.84861 0.99214 0.0
C2226 C 0.10555 0.85421 0.99153 0.0
C2227 C 0.07657 0.8323 0.99932 0.0
H2228 H 0.15304 0.86561 0.98611 0.0
H2229 H 0.87194 0.63687 0.05086 0.0
H2230 H 0.19846 0.89976 0.4746 0.0
H2231 H 0.21849 0.94238 0.49897 0.0
H2232 H 0.3075 0.98731 0.46902 0.0
H2233 H 0.28779 0.94452 0.44504 0.0
H2234 H 0.31803 0.99087 0.5061 0.0
H2235 H 0.2565 0.0153 0.46543 0.0
H2236 H 0.21076 1.00857 0.44671 0.0
H2237 H 0.15896 0.9916 0.50074 0.0
H2238 H 0.20423 0.99769 0.51981 0.0
H2239 H 0.32183 0.13599 0.55979 0.0
H2240 H 0.30374 0.09835 0.53237 0.0
H2241 H 0.32163 0.03609 0.5675 0.0
H2242 H 0.34244 0.0748 0.59389 0.0
H2243 H 0.26029 0.04539 0.52476 0.0
H2244 H 0.33752 0.98923 0.54195 0.0
H2245 H 0.38994 1.00528 0.55514 0.0
H2246 H 0.4214 0.10017 0.53841 0.0
H2247 H 0.3693 0.08464 0.52489 0.0
C2248 C 0.22231 0.91873 0.47328 0.0
C2249 C 0.24148 0.91889 0.45784 0.0
C2250 C 0.2337 0.94323 0.48712 0.0
C2251 C 0.2645 0.96842 0.48579 0.0
C2252 C 0.28371 0.96829 0.47046 0.0
C2253 C 0.27237 0.94382 0.4567 0.0
C2254 C 0.27701 0.99446 0.50063 0.0
C2255 C 0.30533 1.00272 0.51018 0.0
C2256 C 0.26129 1.01102 0.50546 0.0
C2257 C 0.23369 1.00663 0.49406 0.0
C2258 C 0.23525 1.00978 0.47333 0.0
C2259 C 0.20944 1.00616 0.46264 0.0
C2260 C 0.18198 0.99964 0.47253 0.0
C2261 C 0.18025 0.99663 0.49311 0.0
C2262 C 0.20598 1.00016 0.50387 0.0
C2263 C 0.32212 0.11435 0.56153 0.0
C2264 C 0.33334 0.10831 0.5791 0.0
C2265 C 0.31156 0.09268 0.54588 0.0
C2266 C 0.31163 0.06427 0.54752 0.0
C2267 C 0.32209 0.05802 0.56537 0.0
C2268 C 0.33355 0.08005 0.58069 0.0
C2269 C 0.30094 0.04122 0.53072 0.0
C2270 C 0.27299 0.03353 0.52074 0.0
C2271 C 0.31788 0.02632 0.52469 0.0
C2272 C 0.3494 0.03579 0.53258 0.0
C2273 C 0.35566 0.01349 0.54101 0.0
C2274 C 0.38531 0.02251 0.54856 0.0
C2275 C 0.40895 0.05374 0.54767 0.0
C2276 C 0.40304 0.07601 0.53916 0.0
C2277 C 0.37344 0.06712 0.53156 0.0
H2278 H 0.43188 0.06067 0.55355 0.0
H2279 H 0.16209 0.99703 0.46425 0.0
loop_
_geom_bond_atom_site_label_1
_geom_bond_atom_site_label_2
_geom_bond_distance
_geom_bond_site_symmetry_2
_ccdc_geom_bond_type
Ho0 C3 2.811 . S
Ho0 O20 2.322 . S
Ho0 O22 2.378 . S
Ho0 O23 2.524 . S
Ho0 O24 2.381 . S
Ho0 O25 2.669 . S
Ho0 O27 2.346 . S
Ho0 O31 2.305 . S
Ho1 C12 2.811 . S
Ho1 O21 2.346 . S
Ho1 O25 2.305 . S
Ho1 O26 2.322 . S
Ho1 O28 2.378 . S
Ho1 O29 2.524 . S
Ho1 O30 2.381 . S
Ho1 O31 2.669 . S
C2 O20 1.259 . S
C2 O21 1.268 . S
C3 Ho0 2.811 . S
C3 C4 1.488 . S
C3 O22 1.215 . S
C3 O23 1.289 . S
C4 C3 1.488 . S
C4 C5 1.348 . S
C4 C9 1.413 . S
C5 C4 1.348 . S
C5 C6 1.442 . S
C5 H32 0.930 . S
C6 C5 1.442 . S
C6 C7 1.381 . S
C6 H33 0.931 . S
C7 C6 1.381 . S
C7 C8 1.321 . S
C8 C7 1.321 . S
C8 C9 1.403 . S
C8 H34 0.934 . S
C9 C4 1.413 . S
C9 C8 1.403 . S
C9 H35 0.930 . S
C10 O24 1.275 . S
C10 O25 1.256 . S
C11 O26 1.259 . S
C11 O27 1.268 . S
C12 Ho1 2.811 . S
C12 C13 1.488 . S
C12 O28 1.215 . S
C12 O29 1.289 . S
C13 C12 1.488 . S
C13 C14 1.348 . S
C13 C18 1.413 . S
C14 C13 1.348 . S
C14 C15 1.442 . S
C14 H36 0.930 . S
C15 C14 1.442 . S
C15 C16 1.381 . S
C15 H37 0.931 . S
C16 C15 1.381 . S
C16 C17 1.321 . S
C17 C16 1.321 . S
C17 C18 1.403 . S
C17 H38 0.934 . S
C18 C13 1.413 . S
C18 C17 1.403 . S
C18 H39 0.930 . S
C19 O30 1.275 . S
C19 O31 1.256 . S
O20 Ho0 2.322 . S
O20 C2 1.259 . S
O21 Ho1 2.346 . S
O21 C2 1.268 . S
O22 Ho0 2.378 . S
O22 C3 1.215 . S
O23 Ho0 2.524 . S
O23 C3 1.289 . S
O24 Ho0 2.381 . S
O24 C10 1.275 . S
O25 Ho0 2.669 . S
O25 Ho1 2.305 . S
O25 C10 1.256 . S
O26 Ho1 2.322 . S
O26 C11 1.259 . S
O27 Ho0 2.346 . S
O27 C11 1.268 . S
O28 Ho1 2.378 . S
O28 C12 1.215 . S
O29 Ho1 2.524 . S
O29 C12 1.289 . S
O30 Ho1 2.381 . S
O30 C19 1.275 . S
O31 Ho0 2.305 . S
O31 Ho1 2.669 . S
O31 C19 1.256 . S
H32 C5 0.930 . S
H33 C6 0.931 . S
H34 C8 0.934 . S
H35 C9 0.930 . S
H36 C14 0.930 . S
H37 C15 0.931 . S
H38 C17 0.934 . S
H39 C18 0.930 . S
Ho40 C43 2.811 . S
Ho40 O60 2.322 . S
Ho40 O62 2.378 . S
Ho40 O63 2.524 . S
Ho40 O64 2.381 . S
Ho40 O65 2.669 . S
Ho40 O67 2.346 . S
Ho40 O71 2.305 . S
Ho41 C52 2.811 . S
Ho41 O61 2.346 . S
Ho41 O65 2.305 . S
Ho41 O66 2.322 . S
Ho41 O68 2.378 . S
Ho41 O69 2.524 . S
Ho41 O70 2.381 . S
Ho41 O71 2.669 . S
C42 O60 1.259 . S
C42 O61 1.268 . S
C43 Ho40 2.811 . S
C43 C44 1.488 . S
C43 O62 1.215 . S
C43 O63 1.289 . S
C44 C43 1.488 . S
C44 C45 1.348 . S
C44 C49 1.413 . S
C45 C44 1.348 . S
C45 C46 1.442 . S
C45 H72 0.930 . S
C46 C45 1.442 . S
C46 C47 1.381 . S
C46 H73 0.931 . S
C47 C46 1.381 . S
C47 C48 1.321 . S
C48 C47 1.321 . S
C48 C49 1.403 . S
C48 H74 0.934 . S
C49 C44 1.413 . S
C49 C48 1.403 . S
C49 H75 0.930 . S
C50 O64 1.275 . S
C50 O65 1.256 . S
C51 O66 1.259 . S
C51 O67 1.268 . S
C52 Ho41 2.811 . S
C52 C53 1.488 . S
C52 O68 1.215 . S
C52 O69 1.289 . S
C53 C52 1.488 . S
C53 C54 1.348 . S
C53 C58 1.413 . S
C54 C53 1.348 . S
C54 C55 1.442 1_655 S
C54 H76 0.930 . S
C55 C54 1.442 1_455 S
C55 C56 1.381 . S
C55 H77 0.931 . S
C56 C55 1.381 . S
C56 C57 1.321 . S
C57 C56 1.321 . S
C57 C58 1.403 1_455 S
C57 H78 0.934 . S
C58 C53 1.413 . S
C58 C57 1.403 1_655 S
C58 H79 0.930 . S
C59 O70 1.275 . S
C59 O71 1.256 . S
O60 Ho40 2.322 . S
O60 C42 1.259 . S
O61 Ho41 2.346 . S
O61 C42 1.268 . S
O62 Ho40 2.378 . S
O62 C43 1.215 . S
O63 Ho40 2.524 . S
O63 C43 1.289 . S
O64 Ho40 2.381 . S
O64 C50 1.275 . S
O65 Ho40 2.669 . S
O65 Ho41 2.305 . S
O65 C50 1.256 . S
O66 Ho41 2.322 . S
O66 C51 1.259 . S
O67 Ho40 2.346 . S
O67 C51 1.268 . S
O68 Ho41 2.378 . S
O68 C52 1.215 . S
O69 Ho41 2.524 . S
O69 C52 1.289 . S
O70 Ho41 2.381 . S
O70 C59 1.275 . S
O71 Ho40 2.305 . S
O71 Ho41 2.669 . S
O71 C59 1.256 . S
H72 C45 0.930 . S
H73 C46 0.931 . S
H74 C48 0.934 . S
H75 C49 0.930 . S
H76 C54 0.930 . S
H77 C55 0.931 . S
H78 C57 0.934 . S
H79 C58 0.930 . S
Ho80 C83 2.811 . S
Ho80 O100 2.322 . S
Ho80 O102 2.378 . S
Ho80 O103 2.524 . S
Ho80 O104 2.381 . S
Ho80 O105 2.669 . S
Ho80 O107 2.346 . S
Ho80 O111 2.305 . S
Ho81 C92 2.811 . S
Ho81 O101 2.346 . S
Ho81 O105 2.305 . S
Ho81 O106 2.322 . S
Ho81 O108 2.378 . S
Ho81 O109 2.524 . S
Ho81 O110 2.381 . S
Ho81 O111 2.669 . S
C82 O100 1.259 . S
C82 O101 1.268 . S
C83 Ho80 2.811 . S
C83 C84 1.488 . S
C83 O102 1.215 . S
C83 O103 1.289 . S
C84 C83 1.488 . S
C84 C85 1.348 . S
C84 C89 1.413 . S
C85 C84 1.348 . S
C85 C86 1.442 . S
C85 H112 0.930 . S
C86 C85 1.442 . S
C86 C87 1.381 . S
C86 H113 0.931 . S
C87 C86 1.381 . S
C87 C88 1.321 . S
C88 C87 1.321 . S
C88 C89 1.403 . S
C88 H114 0.934 . S
C89 C84 1.413 . S
C89 C88 1.403 . S
C89 H115 0.930 . S
C90 O104 1.275 . S
C90 O105 1.256 . S
C91 O106 1.259 . S
C91 O107 1.268 . S
C92 Ho81 2.811 . S
C92 C93 1.488 . S
C92 O108 1.215 . S
C92 O109 1.289 . S
C93 C92 1.488 . S
C93 C94 1.348 . S
C93 C98 1.413 . S
C94 C93 1.348 . S
C94 C95 1.442 1_565 S
C94 H116 0.930 . S
C95 C94 1.442 1_545 S
C95 C96 1.381 . S
C95 H117 0.931 . S
C96 C95 1.381 . S
C96 C97 1.321 . S
C97 C96 1.321 . S
C97 C98 1.403 1_545 S
C97 H118 0.934 . S
C98 C93 1.413 . S
C98 C97 1.403 1_565 S
C98 H119 0.930 . S
C99 O110 1.275 . S
C99 O111 1.256 . S
O100 Ho80 2.322 . S
O100 C82 1.259 . S
O101 Ho81 2.346 . S
O101 C82 1.268 . S
O102 Ho80 2.378 . S
O102 C83 1.215 . S
O103 Ho80 2.524 . S
O103 C83 1.289 . S
O104 Ho80 2.381 . S
O104 C90 1.275 . S
O105 Ho80 2.669 . S
O105 Ho81 2.305 . S
O105 C90 1.256 . S
O106 Ho81 2.322 . S
O106 C91 1.259 . S
O107 Ho80 2.346 . S
O107 C91 1.268 . S
O108 Ho81 2.378 . S
O108 C92 1.215 . S
O109 Ho81 2.524 . S
O109 C92 1.289 . S
O110 Ho81 2.381 . S
O110 C99 1.275 . S
O111 Ho80 2.305 . S
O111 Ho81 2.669 . S
O111 C99 1.256 . S
H112 C85 0.930 . S
H113 C86 0.931 . S
H114 C88 0.934 . S
H115 C89 0.930 . S
H116 C94 0.930 . S
H117 C95 0.931 . S
H118 C97 0.934 . S
H119 C98 0.930 . S
Ho120 C123 2.811 . S
Ho120 O140 2.322 . S
Ho120 O142 2.378 . S
Ho120 O143 2.524 . S
Ho120 O144 2.381 . S
Ho120 O145 2.669 . S
Ho120 O147 2.346 . S
Ho120 O151 2.305 . S
Ho121 C132 2.811 . S
Ho121 O141 2.346 . S
Ho121 O145 2.305 . S
Ho121 O146 2.322 . S
Ho121 O148 2.378 . S
Ho121 O149 2.524 . S
Ho121 O150 2.381 . S
Ho121 O151 2.669 . S
C122 O140 1.259 . S
C122 O141 1.268 . S
C123 Ho120 2.811 . S
C123 C124 1.488 . S
C123 O142 1.215 . S
C123 O143 1.289 . S
C124 C123 1.488 . S
C124 C125 1.348 . S
C124 C129 1.413 . S
C125 C124 1.348 . S
C125 C126 1.442 . S
C125 H152 0.930 . S
C126 C125 1.442 . S
C126 C127 1.381 . S
C126 H153 0.931 . S
C127 C126 1.381 . S
C127 C128 1.321 . S
C128 C127 1.321 . S
C128 C129 1.403 . S
C128 H154 0.934 . S
C129 C124 1.413 . S
C129 C128 1.403 . S
C129 H155 0.930 . S
C130 O144 1.275 . S
C130 O145 1.256 . S
C131 O146 1.259 . S
C131 O147 1.268 . S
C132 Ho121 2.811 . S
C132 C133 1.488 . S
C132 O148 1.215 . S
C132 O149 1.289 . S
C133 C132 1.488 . S
C133 C134 1.348 . S
C133 C138 1.413 . S
C134 C133 1.348 . S
C134 C135 1.442 . S
C134 H156 0.930 . S
C135 C134 1.442 . S
C135 C136 1.381 . S
C135 H157 0.931 . S
C136 C135 1.381 . S
C136 C137 1.321 . S
C137 C136 1.321 . S
C137 C138 1.403 . S
C137 H158 0.934 . S
C138 C133 1.413 . S
C138 C137 1.403 . S
C138 H159 0.930 . S
C139 O150 1.275 . S
C139 O151 1.256 . S
O140 Ho120 2.322 . S
O140 C122 1.259 . S
O141 Ho121 2.346 . S
O141 C122 1.268 . S
O142 Ho120 2.378 . S
O142 C123 1.215 . S
O143 Ho120 2.524 . S
O143 C123 1.289 . S
O144 Ho120 2.381 . S
O144 C130 1.275 . S
O145 Ho120 2.669 . S
O145 Ho121 2.305 . S
O145 C130 1.256 . S
O146 Ho121 2.322 . S
O146 C131 1.259 . S
O147 Ho120 2.346 . S
O147 C131 1.268 . S
O148 Ho121 2.378 . S
O148 C132 1.215 . S
O149 Ho121 2.524 . S
O149 C132 1.289 . S
O150 Ho121 2.381 . S
O150 C139 1.275 . S
O151 Ho120 2.305 . S
O151 Ho121 2.669 . S
O151 C139 1.256 . S
H152 C125 0.930 . S
H153 C126 0.931 . S
H154 C128 0.934 . S
H155 C129 0.930 . S
H156 C134 0.930 . S
H157 C135 0.931 . S
H158 C137 0.934 . S
H159 C138 0.930 . S
Ho160 C163 2.811 . S
Ho160 O180 2.322 . S
Ho160 O182 2.378 . S
Ho160 O183 2.524 . S
Ho160 O184 2.381 . S
Ho160 O185 2.669 . S
Ho160 O187 2.346 . S
Ho160 O191 2.305 . S
Ho161 C172 2.811 . S
Ho161 O181 2.346 . S
Ho161 O185 2.305 . S
Ho161 O186 2.322 . S
Ho161 O188 2.378 . S
Ho161 O189 2.524 . S
Ho161 O190 2.381 . S
Ho161 O191 2.669 . S
C162 O180 1.259 . S
C162 O181 1.268 . S
C163 Ho160 2.811 . S
C163 C164 1.488 . S
C163 O182 1.215 . S
C163 O183 1.289 . S
C164 C163 1.488 . S
C164 C165 1.348 . S
C164 C169 1.413 . S
C165 C164 1.348 . S
C165 C166 1.442 . S
C165 H192 0.930 . S
C166 C165 1.442 . S
C166 C167 1.381 . S
C166 H193 0.931 . S
C167 C166 1.381 . S
C167 C168 1.321 . S
C168 C167 1.321 . S
C168 C169 1.403 . S
C168 H194 0.934 . S
C169 C164 1.413 . S
C169 C168 1.403 . S
C169 H195 0.930 . S
C170 O184 1.275 . S
C170 O185 1.256 . S
C171 O186 1.259 . S
C171 O187 1.268 . S
C172 Ho161 2.811 . S
C172 C173 1.488 . S
C172 O188 1.215 . S
C172 O189 1.289 . S
C173 C172 1.488 . S
C173 C174 1.348 . S
C173 C178 1.413 . S
C174 C173 1.348 . S
C174 C175 1.442 1_455 S
C174 H196 0.930 . S
C175 C174 1.442 1_655 S
C175 C176 1.381 . S
C175 H197 0.931 . S
C176 C175 1.381 . S
C176 C177 1.321 . S
C177 C176 1.321 . S
C177 C178 1.403 1_655 S
C177 H198 0.934 . S
C178 C173 1.413 . S
C178 C177 1.403 1_455 S
C178 H199 0.930 . S
C179 O190 1.275 . S
C179 O191 1.256 . S
O180 Ho160 2.322 . S
O180 C162 1.259 . S
O181 Ho161 2.346 . S
O181 C162 1.268 . S
O182 Ho160 2.378 . S
O182 C163 1.215 . S
O183 Ho160 2.524 . S
O183 C163 1.289 . S
O184 Ho160 2.381 . S
O184 C170 1.275 . S
O185 Ho160 2.669 . S
O185 Ho161 2.305 . S
O185 C170 1.256 . S
O186 Ho161 2.322 . S
O186 C171 1.259 . S
O187 Ho160 2.346 . S
O187 C171 1.268 . S
O188 Ho161 2.378 . S
O188 C172 1.215 . S
O189 Ho161 2.524 . S
O189 C172 1.289 . S
O190 Ho161 2.381 . S
O190 C179 1.275 . S
O191 Ho160 2.305 . S
O191 Ho161 2.669 . S
O191 C179 1.256 . S
H192 C165 0.930 . S
H193 C166 0.931 . S
H194 C168 0.934 . S
H195 C169 0.930 . S
H196 C174 0.930 . S
H197 C175 0.931 . S
H198 C177 0.934 . S
H199 C178 0.930 . S
Ho200 C203 2.811 . S
Ho200 O220 2.322 . S
Ho200 O222 2.378 . S
Ho200 O223 2.524 . S
Ho200 O224 2.381 . S
Ho200 O225 2.669 . S
Ho200 O227 2.346 . S
Ho200 O231 2.305 . S
Ho201 C212 2.811 . S
Ho201 O221 2.346 . S
Ho201 O225 2.305 . S
Ho201 O226 2.322 . S
Ho201 O228 2.378 . S
Ho201 O229 2.524 . S
Ho201 O230 2.381 . S
Ho201 O231 2.669 . S
C202 O220 1.259 . S
C202 O221 1.268 . S
C203 Ho200 2.811 . S
C203 C204 1.488 . S
C203 O222 1.215 . S
C203 O223 1.289 . S
C204 C203 1.488 . S
C204 C205 1.348 . S
C204 C209 1.413 . S
C205 C204 1.348 . S
C205 C206 1.442 . S
C205 H232 0.930 . S
C206 C205 1.442 . S
C206 C207 1.381 . S
C206 H233 0.931 . S
C207 C206 1.381 . S
C207 C208 1.321 . S
C208 C207 1.321 . S
C208 C209 1.403 . S
C208 H234 0.934 . S
C209 C204 1.413 . S
C209 C208 1.403 . S
C209 H235 0.930 . S
C210 O224 1.275 . S
C210 O225 1.256 . S
C211 O226 1.259 . S
C211 O227 1.268 . S
C212 Ho201 2.811 . S
C212 C213 1.488 . S
C212 O228 1.215 . S
C212 O229 1.289 . S
C213 C212 1.488 . S
C213 C214 1.348 . S
C213 C218 1.413 . S
C214 C213 1.348 . S
C214 C215 1.442 1_545 S
C214 H236 0.930 . S
C215 C214 1.442 1_565 S
C215 C216 1.381 . S
C215 H237 0.931 . S
C216 C215 1.381 . S
C216 C217 1.321 . S
C217 C216 1.321 . S
C217 C218 1.403 1_565 S
C217 H238 0.934 . S
C218 C213 1.413 . S
C218 C217 1.403 1_545 S
C218 H239 0.930 . S
C219 O230 1.275 . S
C219 O231 1.256 . S
O220 Ho200 2.322 . S
O220 C202 1.259 . S
O221 Ho201 2.346 . S
O221 C202 1.268 . S
O222 Ho200 2.378 . S
O222 C203 1.215 . S
O223 Ho200 2.524 . S
O223 C203 1.289 . S
O224 Ho200 2.381 . S
O224 C210 1.275 . S
O225 Ho200 2.669 . S
O225 Ho201 2.305 . S
O225 C210 1.256 . S
O226 Ho201 2.322 . S
O226 C211 1.259 . S
O227 Ho200 2.346 . S
O227 C211 1.268 . S
O228 Ho201 2.378 . S
O228 C212 1.215 . S
O229 Ho201 2.524 . S
O229 C212 1.289 . S
O230 Ho201 2.381 . S
O230 C219 1.275 . S
O231 Ho200 2.305 . S
O231 Ho201 2.669 . S
O231 C219 1.256 . S
H232 C205 0.930 . S
H233 C206 0.931 . S
H234 C208 0.934 . S
H235 C209 0.930 . S
H236 C214 0.930 . S
H237 C215 0.931 . S
H238 C217 0.934 . S
H239 C218 0.930 . S
Ho240 C243 2.811 . S
Ho240 O260 2.322 . S
Ho240 O262 2.378 . S
Ho240 O263 2.524 . S
Ho240 O264 2.381 . S
Ho240 O265 2.669 . S
Ho240 O267 2.346 . S
Ho240 O271 2.305 . S
Ho241 C252 2.811 . S
Ho241 O261 2.346 . S
Ho241 O265 2.305 . S
Ho241 O266 2.322 . S
Ho241 O268 2.378 . S
Ho241 O269 2.524 . S
Ho241 O270 2.381 . S
Ho241 O271 2.669 . S
C242 O260 1.259 . S
C242 O261 1.268 . S
C243 Ho240 2.811 . S
C243 C244 1.488 . S
C243 O262 1.215 . S
C243 O263 1.289 . S
C244 C243 1.488 . S
C244 C245 1.348 . S
C244 C249 1.413 . S
C245 C244 1.348 . S
C245 C246 1.442 . S
C245 H272 0.930 . S
C246 C245 1.442 . S
C246 C247 1.381 . S
C246 H273 0.931 . S
C247 C246 1.381 . S
C247 C248 1.321 . S
C248 C247 1.321 . S
C248 C249 1.403 . S
C248 H274 0.934 . S
C249 C244 1.413 . S
C249 C248 1.403 . S
C249 H275 0.930 . S
C250 O264 1.275 . S
C250 O265 1.256 . S
C251 O266 1.259 . S
C251 O267 1.268 . S
C252 Ho241 2.811 . S
C252 C253 1.488 . S
C252 O268 1.215 . S
C252 O269 1.289 . S
C253 C252 1.488 . S
C253 C254 1.348 . S
C253 C258 1.413 . S
C254 C253 1.348 . S
C254 C255 1.442 . S
C254 H276 0.930 . S
C255 C254 1.442 . S
C255 C256 1.381 . S
C255 H277 0.931 . S
C256 C255 1.381 . S
C256 C257 1.321 . S
C257 C256 1.321 . S
C257 C258 1.403 . S
C257 H278 0.934 . S
C258 C253 1.413 . S
C258 C257 1.403 . S
C258 H279 0.930 . S
C259 O270 1.275 . S
C259 O271 1.256 . S
O260 Ho240 2.322 . S
O260 C242 1.259 . S
O261 Ho241 2.346 . S
O261 C242 1.268 . S
O262 Ho240 2.378 . S
O262 C243 1.215 . S
O263 Ho240 2.524 . S
O263 C243 1.289 . S
O264 Ho240 2.381 . S
O264 C250 1.275 . S
O265 Ho240 2.669 . S
O265 Ho241 2.305 . S
O265 C250 1.256 . S
O266 Ho241 2.322 . S
O266 C251 1.259 . S
O267 Ho240 2.346 . S
O267 C251 1.268 . S
O268 Ho241 2.378 . S
O268 C252 1.215 . S
O269 Ho241 2.524 . S
O269 C252 1.289 . S
O270 Ho241 2.381 . S
O270 C259 1.275 . S
O271 Ho240 2.305 . S
O271 Ho241 2.669 . S
O271 C259 1.256 . S
H272 C245 0.930 . S
H273 C246 0.931 . S
H274 C248 0.934 . S
H275 C249 0.930 . S
H276 C254 0.930 . S
H277 C255 0.931 . S
H278 C257 0.934 . S
H279 C258 0.930 . S
Ho280 C283 2.811 . S
Ho280 O300 2.322 . S
Ho280 O302 2.378 . S
Ho280 O303 2.524 . S
Ho280 O304 2.381 . S
Ho280 O305 2.669 . S
Ho280 O307 2.346 . S
Ho280 O311 2.305 . S
Ho281 C292 2.811 . S
Ho281 O301 2.346 . S
Ho281 O305 2.305 . S
Ho281 O306 2.322 . S
Ho281 O308 2.378 . S
Ho281 O309 2.524 . S
Ho281 O310 2.381 . S
Ho281 O311 2.669 . S
C282 O300 1.259 . S
C282 O301 1.268 . S
C283 Ho280 2.811 . S
C283 C284 1.488 . S
C283 O302 1.215 . S
C283 O303 1.289 . S
C284 C283 1.488 . S
C284 C285 1.348 . S
C284 C289 1.413 . S
C285 C284 1.348 . S
C285 C286 1.442 . S
C285 H312 0.930 . S
C286 C285 1.442 . S
C286 C287 1.381 . S
C286 H313 0.931 . S
C287 C286 1.381 . S
C287 C288 1.321 . S
C288 C287 1.321 . S
C288 C289 1.403 . S
C288 H314 0.934 . S
C289 C284 1.413 . S
C289 C288 1.403 . S
C289 H315 0.930 . S
C290 O304 1.275 . S
C290 O305 1.256 . S
C291 O306 1.259 . S
C291 O307 1.268 . S
C292 Ho281 2.811 . S
C292 C293 1.488 . S
C292 O308 1.215 . S
C292 O309 1.289 . S
C293 C292 1.488 . S
C293 C294 1.348 . S
C293 C298 1.413 . S
C294 C293 1.348 . S
C294 C295 1.442 1_655 S
C294 H316 0.930 . S
C295 C294 1.442 1_455 S
C295 C296 1.381 . S
C295 H317 0.931 . S
C296 C295 1.381 . S
C296 C297 1.321 . S
C297 C296 1.321 . S
C297 C298 1.403 1_455 S
C297 H318 0.934 . S
C298 C293 1.413 . S
C298 C297 1.403 1_655 S
C298 H319 0.930 . S
C299 O310 1.275 . S
C299 O311 1.256 . S
O300 Ho280 2.322 . S
O300 C282 1.259 . S
O301 Ho281 2.346 . S
O301 C282 1.268 . S
O302 Ho280 2.378 . S
O302 C283 1.215 . S
O303 Ho280 2.524 . S
O303 C283 1.289 . S
O304 Ho280 2.381 . S
O304 C290 1.275 . S
O305 Ho280 2.669 . S
O305 Ho281 2.305 . S
O305 C290 1.256 . S
O306 Ho281 2.322 . S
O306 C291 1.259 . S
O307 Ho280 2.346 . S
O307 C291 1.268 . S
O308 Ho281 2.378 . S
O308 C292 1.215 . S
O309 Ho281 2.524 . S
O309 C292 1.289 . S
O310 Ho281 2.381 . S
O310 C299 1.275 . S
O311 Ho280 2.305 . S
O311 Ho281 2.669 . S
O311 C299 1.256 . S
H312 C285 0.930 . S
H313 C286 0.931 . S
H314 C288 0.934 . S
H315 C289 0.930 . S
H316 C294 0.930 . S
H317 C295 0.931 . S
H318 C297 0.934 . S
H319 C298 0.930 . S
Ho320 C323 2.811 . S
Ho320 O340 2.322 . S
Ho320 O342 2.378 . S
Ho320 O343 2.524 . S
Ho320 O344 2.381 . S
Ho320 O345 2.669 . S
Ho320 O347 2.346 . S
Ho320 O351 2.305 . S
Ho321 C332 2.811 . S
Ho321 O341 2.346 . S
Ho321 O345 2.305 . S
Ho321 O346 2.322 . S
Ho321 O348 2.378 . S
Ho321 O349 2.524 . S
Ho321 O350 2.381 . S
Ho321 O351 2.669 . S
C322 O340 1.259 . S
C322 O341 1.268 . S
C323 Ho320 2.811 . S
C323 C324 1.488 . S
C323 O342 1.215 . S
C323 O343 1.289 . S
C324 C323 1.488 . S
C324 C325 1.348 . S
C324 C329 1.413 . S
C325 C324 1.348 . S
C325 C326 1.442 . S
C325 H352 0.930 . S
C326 C325 1.442 . S
C326 C327 1.381 . S
C326 H353 0.931 . S
C327 C326 1.381 . S
C327 C328 1.321 . S
C328 C327 1.321 . S
C328 C329 1.403 . S
C328 H354 0.934 . S
C329 C324 1.413 . S
C329 C328 1.403 . S
C329 H355 0.930 . S
C330 O344 1.275 . S
C330 O345 1.256 . S
C331 O346 1.259 . S
C331 O347 1.268 . S
C332 Ho321 2.811 . S
C332 C333 1.488 . S
C332 O348 1.215 . S
C332 O349 1.289 . S
C333 C332 1.488 . S
C333 C334 1.348 . S
C333 C338 1.413 . S
C334 C333 1.348 . S
C334 C335 1.442 1_565 S
C334 H356 0.930 . S
C335 C334 1.442 1_545 S
C335 C336 1.381 . S
C335 H357 0.931 . S
C336 C335 1.381 . S
C336 C337 1.321 . S
C337 C336 1.321 . S
C337 C338 1.403 1_545 S
C337 H358 0.934 . S
C338 C333 1.413 . S
C338 C337 1.403 1_565 S
C338 H359 0.930 . S
C339 O350 1.275 . S
C339 O351 1.256 . S
O340 Ho320 2.322 . S
O340 C322 1.259 . S
O341 Ho321 2.346 . S
O341 C322 1.268 . S
O342 Ho320 2.378 . S
O342 C323 1.215 . S
O343 Ho320 2.524 . S
O343 C323 1.289 . S
O344 Ho320 2.381 . S
O344 C330 1.275 . S
O345 Ho320 2.669 . S
O345 Ho321 2.305 . S
O345 C330 1.256 . S
O346 Ho321 2.322 . S
O346 C331 1.259 . S
O347 Ho320 2.346 . S
O347 C331 1.268 . S
O348 Ho321 2.378 . S
O348 C332 1.215 . S
O349 Ho321 2.524 . S
O349 C332 1.289 . S
O350 Ho321 2.381 . S
O350 C339 1.275 . S
O351 Ho320 2.305 . S
O351 Ho321 2.669 . S
O351 C339 1.256 . S
H352 C325 0.930 . S
H353 C326 0.931 . S
H354 C328 0.934 . S
H355 C329 0.930 . S
H356 C334 0.930 . S
H357 C335 0.931 . S
H358 C337 0.934 . S
H359 C338 0.930 . S
Ho360 C363 2.811 . S
Ho360 O380 2.322 . S
Ho360 O382 2.378 . S
Ho360 O383 2.524 . S
Ho360 O384 2.381 . S
Ho360 O385 2.669 . S
Ho360 O387 2.346 . S
Ho360 O391 2.305 . S
Ho361 C372 2.811 . S
Ho361 O381 2.346 . S
Ho361 O385 2.305 . S
Ho361 O386 2.322 . S
Ho361 O388 2.378 . S
Ho361 O389 2.524 . S
Ho361 O390 2.381 . S
Ho361 O391 2.669 . S
C362 O380 1.259 . S
C362 O381 1.268 . S
C363 Ho360 2.811 . S
C363 C364 1.488 . S
C363 O382 1.215 . S
C363 O383 1.289 . S
C364 C363 1.488 . S
C364 C365 1.348 . S
C364 C369 1.413 . S
C365 C364 1.348 . S
C365 C366 1.442 . S
C365 H392 0.930 . S
C366 C365 1.442 . S
C366 C367 1.381 . S
C366 H393 0.931 . S
C367 C366 1.381 . S
C367 C368 1.321 . S
C368 C367 1.321 . S
C368 C369 1.403 . S
C368 H394 0.934 . S
C369 C364 1.413 . S
C369 C368 1.403 . S
C369 H395 0.930 . S
C370 O384 1.275 . S
C370 O385 1.256 . S
C371 O386 1.259 . S
C371 O387 1.268 . S
C372 Ho361 2.811 . S
C372 C373 1.488 . S
C372 O388 1.215 . S
C372 O389 1.289 . S
C373 C372 1.488 . S
C373 C374 1.348 . S
C373 C378 1.413 . S
C374 C373 1.348 . S
C374 C375 1.442 . S
C374 H396 0.930 . S
C375 C374 1.442 . S
C375 C376 1.381 . S
C375 H397 0.931 . S
C376 C375 1.381 . S
C376 C377 1.321 . S
C377 C376 1.321 . S
C377 C378 1.403 . S
C377 H398 0.934 . S
C378 C373 1.413 . S
C378 C377 1.403 . S
C378 H399 0.930 . S
C379 O390 1.275 . S
C379 O391 1.256 . S
O380 Ho360 2.322 . S
O380 C362 1.259 . S
O381 Ho361 2.346 . S
O381 C362 1.268 . S
O382 Ho360 2.378 . S
O382 C363 1.215 . S
O383 Ho360 2.524 . S
O383 C363 1.289 . S
O384 Ho360 2.381 . S
O384 C370 1.275 . S
O385 Ho360 2.669 . S
O385 Ho361 2.305 . S
O385 C370 1.256 . S
O386 Ho361 2.322 . S
O386 C371 1.259 . S
O387 Ho360 2.346 . S
O387 C371 1.268 . S
O388 Ho361 2.378 . S
O388 C372 1.215 . S
O389 Ho361 2.524 . S
O389 C372 1.289 . S
O390 Ho361 2.381 . S
O390 C379 1.275 . S
O391 Ho360 2.305 . S
O391 Ho361 2.669 . S
O391 C379 1.256 . S
H392 C365 0.930 . S
H393 C366 0.931 . S
H394 C368 0.934 . S
H395 C369 0.930 . S
H396 C374 0.930 . S
H397 C375 0.931 . S
H398 C377 0.934 . S
H399 C378 0.930 . S
Ho400 C403 2.811 . S
Ho400 O420 2.322 . S
Ho400 O422 2.378 . S
Ho400 O423 2.524 . S
Ho400 O424 2.381 . S
Ho400 O425 2.669 . S
Ho400 O427 2.346 . S
Ho400 O431 2.305 . S
Ho401 C412 2.811 . S
Ho401 O421 2.346 . S
Ho401 O425 2.305 . S
Ho401 O426 2.322 . S
Ho401 O428 2.378 . S
Ho401 O429 2.524 . S
Ho401 O430 2.381 . S
Ho401 O431 2.669 . S
C402 O420 1.259 . S
C402 O421 1.268 . S
C403 Ho400 2.811 . S
C403 C404 1.488 . S
C403 O422 1.215 . S
C403 O423 1.289 . S
C404 C403 1.488 . S
C404 C405 1.348 . S
C404 C409 1.413 . S
C405 C404 1.348 . S
C405 C406 1.442 . S
C405 H432 0.930 . S
C406 C405 1.442 . S
C406 C407 1.381 . S
C406 H433 0.931 . S
C407 C406 1.381 . S
C407 C408 1.321 . S
C408 C407 1.321 . S
C408 C409 1.403 . S
C408 H434 0.934 . S
C409 C404 1.413 . S
C409 C408 1.403 . S
C409 H435 0.930 . S
C410 O424 1.275 . S
C410 O425 1.256 . S
C411 O426 1.259 . S
C411 O427 1.268 . S
C412 Ho401 2.811 . S
C412 C413 1.488 . S
C412 O428 1.215 . S
C412 O429 1.289 . S
C413 C412 1.488 . S
C413 C414 1.348 . S
C413 C418 1.413 . S
C414 C413 1.348 . S
C414 C415 1.442 1_455 S
C414 H436 0.930 . S
C415 C414 1.442 1_655 S
C415 C416 1.381 . S
C415 H437 0.931 . S
C416 C415 1.381 . S
C416 C417 1.321 . S
C417 C416 1.321 . S
C417 C418 1.403 1_655 S
C417 H438 0.934 . S
C418 C413 1.413 . S
C418 C417 1.403 1_455 S
C418 H439 0.930 . S
C419 O430 1.275 . S
C419 O431 1.256 . S
O420 Ho400 2.322 . S
O420 C402 1.259 . S
O421 Ho401 2.346 . S
O421 C402 1.268 . S
O422 Ho400 2.378 . S
O422 C403 1.215 . S
O423 Ho400 2.524 . S
O423 C403 1.289 . S
O424 Ho400 2.381 . S
O424 C410 1.275 . S
O425 Ho400 2.669 . S
O425 Ho401 2.305 . S
O425 C410 1.256 . S
O426 Ho401 2.322 . S
O426 C411 1.259 . S
O427 Ho400 2.346 . S
O427 C411 1.268 . S
O428 Ho401 2.378 . S
O428 C412 1.215 . S
O429 Ho401 2.524 . S
O429 C412 1.289 . S
O430 Ho401 2.381 . S
O430 C419 1.275 . S
O431 Ho400 2.305 . S
O431 Ho401 2.669 . S
O431 C419 1.256 . S
H432 C405 0.930 . S
H433 C406 0.931 . S
H434 C408 0.934 . S
H435 C409 0.930 . S
H436 C414 0.930 . S
H437 C415 0.931 . S
H438 C417 0.934 . S
H439 C418 0.930 . S
Ho440 C443 2.811 . S
Ho440 O460 2.322 . S
Ho440 O462 2.378 . S
Ho440 O463 2.524 . S
Ho440 O464 2.381 . S
Ho440 O465 2.669 . S
Ho440 O467 2.346 . S
Ho440 O471 2.305 . S
Ho441 C452 2.811 . S
Ho441 O461 2.346 . S
Ho441 O465 2.305 . S
Ho441 O466 2.322 . S
Ho441 O468 2.378 . S
Ho441 O469 2.524 . S
Ho441 O470 2.381 . S
Ho441 O471 2.669 . S
C442 O460 1.259 . S
C442 O461 1.268 . S
C443 Ho440 2.811 . S
C443 C444 1.488 . S
C443 O462 1.215 . S
C443 O463 1.289 . S
C444 C443 1.488 . S
C444 C445 1.348 . S
C444 C449 1.413 . S
C445 C444 1.348 . S
C445 C446 1.442 . S
C445 H472 0.930 . S
C446 C445 1.442 . S
C446 C447 1.381 . S
C446 H473 0.931 . S
C447 C446 1.381 . S
C447 C448 1.321 . S
C448 C447 1.321 . S
C448 C449 1.403 . S
C448 H474 0.934 . S
C449 C444 1.413 . S
C449 C448 1.403 . S
C449 H475 0.930 . S
C450 O464 1.275 . S
C450 O465 1.256 . S
C451 O466 1.259 . S
C451 O467 1.268 . S
C452 Ho441 2.811 . S
C452 C453 1.488 . S
C452 O468 1.215 . S
C452 O469 1.289 . S
C453 C452 1.488 . S
C453 C454 1.348 . S
C453 C458 1.413 . S
C454 C453 1.348 . S
C454 C455 1.442 1_545 S
C454 H476 0.930 . S
C455 C454 1.442 1_565 S
C455 C456 1.381 . S
C455 H477 0.931 . S
C456 C455 1.381 . S
C456 C457 1.321 . S
C457 C456 1.321 . S
C457 C458 1.403 1_565 S
C457 H478 0.934 . S
C458 C453 1.413 . S
C458 C457 1.403 1_545 S
C458 H479 0.930 . S
C459 O470 1.275 . S
C459 O471 1.256 . S
O460 Ho440 2.322 . S
O460 C442 1.259 . S
O461 Ho441 2.346 . S
O461 C442 1.268 . S
O462 Ho440 2.378 . S
O462 C443 1.215 . S
O463 Ho440 2.524 . S
O463 C443 1.289 . S
O464 Ho440 2.381 . S
O464 C450 1.275 . S
O465 Ho440 2.669 . S
O465 Ho441 2.305 . S
O465 C450 1.256 . S
O466 Ho441 2.322 . S
O466 C451 1.259 . S
O467 Ho440 2.346 . S
O467 C451 1.268 . S
O468 Ho441 2.378 . S
O468 C452 1.215 . S
O469 Ho441 2.524 . S
O469 C452 1.289 . S
O470 Ho441 2.381 . S
O470 C459 1.275 . S
O471 Ho440 2.305 . S
O471 Ho441 2.669 . S
O471 C459 1.256 . S
H472 C445 0.930 . S
H473 C446 0.931 . S
H474 C448 0.934 . S
H475 C449 0.930 . S
H476 C454 0.930 . S
H477 C455 0.931 . S
H478 C457 0.934 . S
H479 C458 0.930 . S
H480 C498 0.951 . S
H481 C500 0.951 . S
H482 C502 0.950 . S
H483 C503 0.950 . S
H484 C505 0.950 1_565 S
H485 C508 0.950 . S
H486 C509 0.950 . S
H487 C511 0.950 . S
H488 C512 0.950 . S
H489 C513 0.951 . S
H490 C515 0.951 . S
H491 C517 0.950 . S
H492 C518 0.950 . S
H493 C520 0.950 . S
H494 C523 0.950 . S
H495 C524 0.950 . S
H496 C526 0.950 . S
H497 C527 0.950 . S
C498 H480 0.951 . S
C498 C499 1.366 . S
C498 C500 1.388 . S
C499 C498 1.366 . S
C499 C503 1.385 . S
C500 H481 0.951 . S
C500 C498 1.388 . S
C500 C501 1.366 . S
C501 C500 1.366 . S
C501 C502 1.414 . S
C501 C504 1.499 . S
C502 H482 0.950 . S
C502 C501 1.414 . S
C502 C503 1.374 . S
C503 H483 0.950 . S
C503 C499 1.385 . S
C503 C502 1.374 . S
C504 C501 1.499 . S
C504 C505 1.373 1_565 S
C504 C506 1.389 . S
C505 H484 0.950 1_545 S
C505 C504 1.373 1_545 S
C505 C521 1.377 . S
C506 C504 1.389 . S
C506 C507 1.524 . S
C506 C520 1.377 1_565 S
C507 C506 1.524 . S
C507 C508 1.397 . S
C507 C512 1.363 . S
C508 H485 0.950 . S
C508 C507 1.397 . S
C508 C509 1.334 . S
C509 H486 0.950 . S
C509 C508 1.334 . S
C509 C510 1.287 . S
C510 C509 1.287 . S
C510 C511 1.524 . S
C510 H529 0.913 . S
C511 H487 0.950 . S
C511 C510 1.524 . S
C511 C512 1.415 . S
C512 H488 0.950 . S
C512 C507 1.363 . S
C512 C511 1.415 . S
C513 H489 0.951 . S
C513 C514 1.366 . S
C513 C515 1.388 . S
C514 C513 1.366 . S
C514 C518 1.385 . S
C515 H490 0.951 . S
C515 C513 1.388 . S
C515 C516 1.366 . S
C516 C515 1.366 . S
C516 C517 1.414 . S
C516 C519 1.499 . S
C517 H491 0.950 . S
C517 C516 1.414 . S
C517 C518 1.374 . S
C518 H492 0.950 . S
C518 C514 1.385 . S
C518 C517 1.374 . S
C519 C516 1.499 . S
C519 C520 1.373 . S
C519 C521 1.389 . S
C520 H493 0.950 . S
C520 C506 1.377 1_545 S
C520 C519 1.373 . S
C521 C505 1.377 . S
C521 C519 1.389 . S
C521 C522 1.524 . S
C522 C521 1.524 . S
C522 C523 1.397 . S
C522 C527 1.363 . S
C523 H494 0.950 . S
C523 C522 1.397 . S
C523 C524 1.334 . S
C524 H495 0.950 . S
C524 C523 1.334 . S
C524 C525 1.287 . S
C525 C524 1.287 . S
C525 C526 1.524 . S
C525 H528 0.999 . S
C526 H496 0.950 . S
C526 C525 1.524 . S
C526 C527 1.415 . S
C527 H497 0.950 . S
C527 C522 1.363 . S
C527 C526 1.415 . S
H528 C525 0.999 . S
H529 C510 0.913 . S
H530 C548 0.951 . S
H531 C550 0.951 . S
H532 C552 0.950 . S
H533 C553 0.950 . S
H534 C555 0.950 . S
H535 C558 0.950 . S
H536 C559 0.950 . S
H537 C561 0.950 . S
H538 C562 0.950 . S
H539 C563 0.951 . S
H540 C565 0.951 . S
H541 C567 0.950 . S
H542 C568 0.950 . S
H543 C570 0.950 . S
H544 C573 0.950 . S
H545 C574 0.950 . S
H546 C576 0.950 . S
H547 C577 0.950 . S
C548 H530 0.951 . S
C548 C549 1.366 . S
C548 C550 1.388 . S
C549 C548 1.366 . S
C549 C553 1.385 . S
C550 H531 0.951 . S
C550 C548 1.388 . S
C550 C551 1.366 . S
C551 C550 1.366 . S
C551 C552 1.414 . S
C551 C554 1.499 . S
C552 H532 0.950 . S
C552 C551 1.414 . S
C552 C553 1.374 . S
C553 H533 0.950 . S
C553 C549 1.385 . S
C553 C552 1.374 . S
C554 C551 1.499 . S
C554 C555 1.373 . S
C554 C556 1.389 . S
C555 H534 0.950 . S
C555 C554 1.373 . S
C555 C571 1.377 . S
C556 C554 1.389 . S
C556 C557 1.524 . S
C556 C570 1.377 . S
C557 C556 1.524 . S
C557 C558 1.397 . S
C557 C562 1.363 . S
C558 H535 0.950 . S
C558 C557 1.397 . S
C558 C559 1.334 . S
C559 H536 0.950 . S
C559 C558 1.334 . S
C559 C560 1.287 . S
C560 C559 1.287 . S
C560 C561 1.524 . S
C560 H579 0.913 . S
C561 H537 0.950 . S
C561 C560 1.524 . S
C561 C562 1.415 . S
C562 H538 0.950 . S
C562 C557 1.363 . S
C562 C561 1.415 . S
C563 H539 0.951 . S
C563 C564 1.366 . S
C563 C565 1.388 . S
C564 C563 1.366 . S
C564 C568 1.385 . S
C565 H540 0.951 . S
C565 C563 1.388 . S
C565 C566 1.366 . S
C566 C565 1.366 . S
C566 C567 1.414 . S
C566 C569 1.499 . S
C567 H541 0.950 . S
C567 C566 1.414 . S
C567 C568 1.374 . S
C568 H542 0.950 . S
C568 C564 1.385 . S
C568 C567 1.374 . S
C569 C566 1.499 . S
C569 C570 1.373 . S
C569 C571 1.389 . S
C570 H543 0.950 . S
C570 C556 1.377 . S
C570 C569 1.373 . S
C571 C555 1.377 . S
C571 C569 1.389 . S
C571 C572 1.524 . S
C572 C571 1.524 . S
C572 C573 1.397 . S
C572 C577 1.363 . S
C573 H544 0.950 . S
C573 C572 1.397 . S
C573 C574 1.334 . S
C574 H545 0.950 . S
C574 C573 1.334 . S
C574 C575 1.287 . S
C575 C574 1.287 . S
C575 C576 1.524 . S
C575 H578 0.999 . S
C576 H546 0.950 . S
C576 C575 1.524 . S
C576 C577 1.415 . S
C577 H547 0.950 . S
C577 C572 1.363 . S
C577 C576 1.415 . S
H578 C575 0.999 . S
H579 C560 0.913 . S
H580 C598 0.951 . S
H581 C600 0.951 . S
H582 C602 0.950 . S
H583 C603 0.950 . S
H584 C605 0.950 . S
H585 C608 0.950 . S
H586 C609 0.950 . S
H587 C611 0.950 . S
H588 C612 0.950 . S
H589 C613 0.951 . S
H590 C615 0.951 . S
H591 C617 0.950 . S
H592 C618 0.950 . S
H593 C620 0.950 . S
H594 C623 0.950 . S
H595 C624 0.950 . S
H596 C626 0.950 . S
H597 C627 0.950 . S
C598 H580 0.951 . S
C598 C599 1.366 . S
C598 C600 1.388 . S
C599 C598 1.366 . S
C599 C603 1.385 . S
C600 H581 0.951 . S
C600 C598 1.388 . S
C600 C601 1.366 . S
C601 C600 1.366 . S
C601 C602 1.414 . S
C601 C604 1.499 . S
C602 H582 0.950 . S
C602 C601 1.414 . S
C602 C603 1.374 . S
C603 H583 0.950 . S
C603 C599 1.385 . S
C603 C602 1.374 . S
C604 C601 1.499 . S
C604 C605 1.373 . S
C604 C606 1.389 . S
C605 H584 0.950 . S
C605 C604 1.373 . S
C605 C621 1.377 1_655 S
C606 C604 1.389 . S
C606 C607 1.524 . S
C606 C620 1.377 1_655 S
C607 C606 1.524 . S
C607 C608 1.397 . S
C607 C612 1.363 . S
C608 H585 0.950 . S
C608 C607 1.397 . S
C608 C609 1.334 . S
C609 H586 0.950 . S
C609 C608 1.334 . S
C609 C610 1.287 . S
C610 C609 1.287 . S
C610 C611 1.524 . S
C610 H629 0.913 . S
C611 H587 0.950 . S
C611 C610 1.524 . S
C611 C612 1.415 . S
C612 H588 0.950 . S
C612 C607 1.363 . S
C612 C611 1.415 . S
C613 H589 0.951 . S
C613 C614 1.366 . S
C613 C615 1.388 . S
C614 C613 1.366 . S
C614 C618 1.385 . S
C615 H590 0.951 . S
C615 C613 1.388 . S
C615 C616 1.366 . S
C616 C615 1.366 . S
C616 C617 1.414 . S
C616 C619 1.499 . S
C617 H591 0.950 . S
C617 C616 1.414 . S
C617 C618 1.374 . S
C618 H592 0.950 . S
C618 C614 1.385 . S
C618 C617 1.374 . S
C619 C616 1.499 . S
C619 C620 1.373 . S
C619 C621 1.389 . S
C620 H593 0.950 . S
C620 C606 1.377 1_455 S
C620 C619 1.373 . S
C621 C605 1.377 1_455 S
C621 C619 1.389 . S
C621 C622 1.524 . S
C622 C621 1.524 . S
C622 C623 1.397 . S
C622 C627 1.363 . S
C623 H594 0.950 . S
C623 C622 1.397 . S
C623 C624 1.334 . S
C624 H595 0.950 . S
C624 C623 1.334 . S
C624 C625 1.287 . S
C625 C624 1.287 . S
C625 C626 1.524 . S
C625 H628 0.999 . S
C626 H596 0.950 . S
C626 C625 1.524 . S
C626 C627 1.415 . S
C627 H597 0.950 . S
C627 C622 1.363 . S
C627 C626 1.415 . S
H628 C625 0.999 . S
H629 C610 0.913 . S
H630 C648 0.951 . S
H631 C650 0.951 . S
H632 C652 0.950 . S
H633 C653 0.950 . S
H634 C655 0.950 . S
H635 C658 0.950 . S
H636 C659 0.950 . S
H637 C661 0.950 . S
H638 C662 0.950 . S
H639 C663 0.951 . S
H640 C665 0.951 . S
H641 C667 0.950 . S
H642 C668 0.950 . S
H643 C670 0.950 . S
H644 C673 0.950 . S
H645 C674 0.950 . S
H646 C676 0.950 . S
H647 C677 0.950 . S
C648 H630 0.951 . S
C648 C649 1.366 . S
C648 C650 1.388 . S
C649 C648 1.366 . S
C649 C653 1.385 . S
C650 H631 0.951 . S
C650 C648 1.388 . S
C650 C651 1.366 . S
C651 C650 1.366 . S
C651 C652 1.414 . S
C651 C654 1.499 . S
C652 H632 0.950 . S
C652 C651 1.414 . S
C652 C653 1.374 . S
C653 H633 0.950 . S
C653 C649 1.385 . S
C653 C652 1.374 . S
C654 C651 1.499 . S
C654 C655 1.373 . S
C654 C656 1.389 . S
C655 H634 0.950 . S
C655 C654 1.373 . S
C655 C671 1.377 . S
C656 C654 1.389 . S
C656 C657 1.524 . S
C656 C670 1.377 1_565 S
C657 C656 1.524 . S
C657 C658 1.397 . S
C657 C662 1.363 1_565 S
C658 H635 0.950 . S
C658 C657 1.397 . S
C658 C659 1.334 . S
C659 H636 0.950 . S
C659 C658 1.334 . S
C659 C660 1.287 . S
C660 C659 1.287 . S
C660 C661 1.524 1_565 S
C660 H679 0.913 . S
C661 H637 0.950 . S
C661 C660 1.524 1_545 S
C661 C662 1.415 . S
C662 H638 0.950 . S
C662 C657 1.363 1_545 S
C662 C661 1.415 . S
C663 H639 0.951 . S
C663 C664 1.366 . S
C663 C665 1.388 . S
C664 C663 1.366 . S
C664 C668 1.385 . S
C665 H640 0.951 . S
C665 C663 1.388 . S
C665 C666 1.366 . S
C666 C665 1.366 . S
C666 C667 1.414 . S
C666 C669 1.499 . S
C667 H641 0.950 . S
C667 C666 1.414 . S
C667 C668 1.374 . S
C668 H642 0.950 . S
C668 C664 1.385 . S
C668 C667 1.374 . S
C669 C666 1.499 . S
C669 C670 1.373 . S
C669 C671 1.389 1_545 S
C670 H643 0.950 . S
C670 C656 1.377 1_545 S
C670 C669 1.373 . S
C671 C655 1.377 . S
C671 C669 1.389 1_565 S
C671 C672 1.508 1_565 S
C672 C671 1.508 1_545 S
C672 C673 1.416 . S
C672 C677 1.359 1_545 S
C673 H644 0.950 . S
C673 C672 1.416 . S
C673 C674 1.334 . S
C674 H645 0.950 . S
C674 C673 1.334 . S
C674 C675 1.287 . S
C675 C674 1.287 . S
C675 C676 1.524 1_545 S
C675 H678 0.999 . S
C676 H646 0.950 . S
C676 C675 1.524 1_565 S
C676 C677 1.415 . S
C677 H647 0.950 . S
C677 C672 1.359 1_565 S
C677 C676 1.415 . S
H678 C675 0.999 . S
H679 C660 0.913 . S
H680 C698 0.951 . S
H681 C700 0.951 . S
H682 C702 0.950 . S
H683 C703 0.950 . S
H684 C705 0.950 . S
H685 C708 0.950 . S
H686 C709 0.950 . S
H687 C711 0.950 . S
H688 C712 0.950 . S
H689 C713 0.951 . S
H690 C715 0.951 . S
H691 C717 0.950 . S
H692 C718 0.950 . S
H693 C720 0.950 . S
H694 C723 0.950 . S
H695 C724 0.950 . S
H696 C726 0.950 . S
H697 C727 0.950 . S
C698 H680 0.951 . S
C698 C699 1.366 . S
C698 C700 1.388 . S
C699 C698 1.366 . S
C699 C703 1.385 . S
C700 H681 0.951 . S
C700 C698 1.388 . S
C700 C701 1.366 . S
C701 C700 1.366 . S
C701 C702 1.414 . S
C701 C704 1.499 . S
C702 H682 0.950 . S
C702 C701 1.414 . S
C702 C703 1.374 . S
C703 H683 0.950 . S
C703 C699 1.385 . S
C703 C702 1.374 . S
C704 C701 1.499 . S
C704 C705 1.373 . S
C704 C706 1.389 . S
C705 H684 0.950 . S
C705 C704 1.373 . S
C705 C721 1.377 . S
C706 C704 1.389 . S
C706 C707 1.524 . S
C706 C720 1.377 . S
C707 C706 1.524 . S
C707 C708 1.397 . S
C707 C712 1.363 . S
C708 H685 0.950 . S
C708 C707 1.397 . S
C708 C709 1.334 . S
C709 H686 0.950 . S
C709 C708 1.334 . S
C709 C710 1.287 . S
C710 C709 1.287 . S
C710 C711 1.524 . S
C710 H729 0.913 . S
C711 H687 0.950 . S
C711 C710 1.524 . S
C711 C712 1.415 . S
C712 H688 0.950 . S
C712 C707 1.363 . S
C712 C711 1.415 . S
C713 H689 0.951 . S
C713 C714 1.366 . S
C713 C715 1.388 . S
C714 C713 1.366 . S
C714 C718 1.385 . S
C715 H690 0.951 . S
C715 C713 1.388 . S
C715 C716 1.366 . S
C716 C715 1.366 . S
C716 C717 1.414 . S
C716 C719 1.499 . S
C717 H691 0.950 . S
C717 C716 1.414 . S
C717 C718 1.374 . S
C718 H692 0.950 . S
C718 C714 1.385 . S
C718 C717 1.374 . S
C719 C716 1.499 . S
C719 C720 1.373 . S
C719 C721 1.389 . S
C720 H693 0.950 . S
C720 C706 1.377 . S
C720 C719 1.373 . S
C721 C705 1.377 . S
C721 C719 1.389 . S
C721 C722 1.524 . S
C722 C721 1.524 . S
C722 C723 1.397 . S
C722 C727 1.363 . S
C723 H694 0.950 . S
C723 C722 1.397 . S
C723 C724 1.334 . S
C724 H695 0.950 . S
C724 C723 1.334 . S
C724 C725 1.287 . S
C725 C724 1.287 . S
C725 C726 1.524 . S
C725 H728 0.999 . S
C726 H696 0.950 . S
C726 C725 1.524 . S
C726 C727 1.415 . S
C727 H697 0.950 . S
C727 C722 1.363 . S
C727 C726 1.415 . S
H728 C725 0.999 . S
H729 C710 0.913 . S
H730 C748 0.951 . S
H731 C750 0.951 . S
H732 C752 0.950 . S
H733 C753 0.950 . S
H734 C755 0.949 1_655 S
H735 C758 0.950 . S
H736 C759 0.950 . S
H737 C761 0.950 . S
H738 C762 0.950 . S
H739 C763 0.951 . S
H740 C765 0.951 . S
H741 C767 0.950 . S
H742 C768 0.950 . S
H743 C770 0.950 . S
H744 C773 0.950 . S
H745 C774 0.950 . S
H746 C776 0.950 . S
H747 C777 0.950 . S
C748 H730 0.951 . S
C748 C749 1.366 . S
C748 C750 1.388 . S
C749 C748 1.366 . S
C749 C753 1.385 . S
C750 H731 0.951 . S
C750 C748 1.388 . S
C750 C751 1.366 . S
C751 C750 1.366 . S
C751 C752 1.414 . S
C751 C754 1.499 . S
C752 H732 0.950 . S
C752 C751 1.414 . S
C752 C753 1.374 . S
C753 H733 0.950 . S
C753 C749 1.385 . S
C753 C752 1.374 . S
C754 C751 1.499 . S
C754 C755 1.376 1_655 S
C754 C756 1.389 . S
C755 H734 0.949 1_455 S
C755 C754 1.376 1_455 S
C755 C771 1.375 . S
C756 C754 1.389 . S
C756 C757 1.524 . S
C756 C770 1.377 1_655 S
C757 C756 1.524 . S
C757 C758 1.397 . S
C757 C762 1.363 . S
C758 H735 0.950 . S
C758 C757 1.397 . S
C758 C759 1.334 . S
C759 H736 0.950 . S
C759 C758 1.334 . S
C759 C760 1.287 . S
C760 C759 1.287 . S
C760 C761 1.524 . S
C760 H779 0.913 . S
C761 H737 0.950 . S
C761 C760 1.524 . S
C761 C762 1.415 . S
C762 H738 0.950 . S
C762 C757 1.363 . S
C762 C761 1.415 . S
C763 H739 0.951 . S
C763 C764 1.366 . S
C763 C765 1.388 . S
C764 C763 1.366 . S
C764 C768 1.385 . S
C765 H740 0.951 . S
C765 C763 1.388 . S
C765 C766 1.366 . S
C766 C765 1.366 . S
C766 C767 1.414 . S
C766 C769 1.499 . S
C767 H741 0.950 . S
C767 C766 1.414 . S
C767 C768 1.374 . S
C768 H742 0.950 . S
C768 C764 1.385 . S
C768 C767 1.374 . S
C769 C766 1.499 . S
C769 C770 1.373 . S
C769 C771 1.389 . S
C770 H743 0.950 . S
C770 C756 1.377 1_455 S
C770 C769 1.373 . S
C771 C755 1.375 . S
C771 C769 1.389 . S
C771 C772 1.524 . S
C772 C771 1.524 . S
C772 C773 1.397 . S
C772 C777 1.363 . S
C773 H744 0.950 . S
C773 C772 1.397 . S
C773 C774 1.334 . S
C774 H745 0.950 . S
C774 C773 1.334 . S
C774 C775 1.287 . S
C775 C774 1.287 . S
C775 C776 1.524 . S
C775 H778 0.999 . S
C776 H746 0.950 . S
C776 C775 1.524 . S
C776 C777 1.415 . S
C777 H747 0.950 . S
C777 C772 1.363 . S
C777 C776 1.415 . S
H778 C775 0.999 . S
H779 C760 0.913 . S
H780 C798 0.951 . S
H781 C800 0.951 . S
H782 C802 0.950 . S
H783 C803 0.950 . S
H784 C805 0.929 1_455 S
H785 C808 0.950 . S
H786 C809 0.950 . S
H787 C811 0.950 . S
H788 C812 0.950 . S
H789 C813 0.951 . S
H790 C815 0.951 . S
H791 C817 0.950 . S
H792 C818 0.950 . S
H793 C820 0.950 . S
H794 C823 0.950 . S
H795 C824 0.950 . S
H796 C826 0.950 . S
H797 C827 0.950 . S
C798 H780 0.951 . S
C798 C799 1.366 . S
C798 C800 1.388 . S
C799 C798 1.366 . S
C799 C803 1.385 . S
C800 H781 0.951 . S
C800 C798 1.388 . S
C800 C801 1.366 . S
C801 C800 1.366 . S
C801 C802 1.414 . S
C801 C804 1.499 . S
C802 H782 0.950 . S
C802 C801 1.414 . S
C802 C803 1.374 . S
C803 H783 0.950 . S
C803 C799 1.385 . S
C803 C802 1.374 . S
C804 C801 1.499 . S
C804 C805 1.356 1_455 S
C804 C806 1.389 . S
C805 H784 0.929 1_655 S
C805 C804 1.356 1_655 S
C805 C821 1.416 . S
C806 C804 1.389 . S
C806 C807 1.524 . S
C806 C820 1.377 1_455 S
C807 C806 1.524 . S
C807 C808 1.397 . S
C807 C812 1.363 . S
C808 H785 0.950 . S
C808 C807 1.397 . S
C808 C809 1.334 . S
C809 H786 0.950 . S
C809 C808 1.334 . S
C809 C810 1.287 . S
C810 C809 1.287 . S
C810 C811 1.524 . S
C810 H829 0.913 . S
C811 H787 0.950 . S
C811 C810 1.524 . S
C811 C812 1.415 . S
C812 H788 0.950 . S
C812 C807 1.363 . S
C812 C811 1.415 . S
C813 H789 0.951 . S
C813 C814 1.366 . S
C813 C815 1.388 . S
C814 C813 1.366 . S
C814 C818 1.385 . S
C815 H790 0.951 . S
C815 C813 1.388 . S
C815 C816 1.366 . S
C816 C815 1.366 . S
C816 C817 1.414 . S
C816 C819 1.499 . S
C817 H791 0.950 . S
C817 C816 1.414 . S
C817 C818 1.374 . S
C818 H792 0.950 . S
C818 C814 1.385 . S
C818 C817 1.374 . S
C819 C816 1.499 . S
C819 C820 1.373 . S
C819 C821 1.389 . S
C820 H793 0.950 . S
C820 C806 1.377 1_655 S
C820 C819 1.373 . S
C821 C805 1.416 . S
C821 C819 1.389 . S
C821 C822 1.524 . S
C822 C821 1.524 . S
C822 C823 1.397 . S
C822 C827 1.363 . S
C823 H794 0.950 . S
C823 C822 1.397 . S
C823 C824 1.334 . S
C824 H795 0.950 . S
C824 C823 1.334 . S
C824 C825 1.287 . S
C825 C824 1.287 . S
C825 C826 1.524 . S
C825 H828 0.999 . S
C826 H796 0.950 . S
C826 C825 1.524 . S
C826 C827 1.415 . S
C827 H797 0.950 . S
C827 C822 1.363 . S
C827 C826 1.415 . S
H828 C825 0.999 . S
H829 C810 0.913 . S
H830 C848 0.951 . S
H831 C850 0.951 . S
H832 C852 0.950 . S
H833 C853 0.950 . S
H834 C855 0.950 . S
H835 C858 0.950 . S
H836 C859 0.950 . S
H837 C861 0.949 . S
H838 C862 0.951 . S
H839 C863 0.951 . S
H840 C865 0.951 . S
H841 C867 0.950 . S
H842 C868 0.950 . S
H843 C870 0.950 . S
H844 C873 0.950 . S
H845 C874 0.950 . S
H846 C876 0.950 . S
H847 C877 0.950 . S
C848 H830 0.951 . S
C848 C849 1.366 . S
C848 C850 1.388 . S
C849 C848 1.366 . S
C849 C853 1.385 . S
C850 H831 0.951 . S
C850 C848 1.388 . S
C850 C851 1.366 . S
C851 C850 1.366 . S
C851 C852 1.414 . S
C851 C854 1.499 . S
C852 H832 0.950 . S
C852 C851 1.414 . S
C852 C853 1.374 . S
C853 H833 0.950 . S
C853 C849 1.385 . S
C853 C852 1.374 . S
C854 C851 1.499 . S
C854 C855 1.373 . S
C854 C856 1.389 . S
C855 H834 0.950 . S
C855 C854 1.373 . S
C855 C871 1.377 . S
C856 C854 1.389 . S
C856 C857 1.524 . S
C856 C870 1.377 1_565 S
C857 C856 1.524 . S
C857 C858 1.397 . S
C857 C862 1.362 1_565 S
C858 H835 0.950 . S
C858 C857 1.397 . S
C858 C859 1.334 . S
C859 H836 0.950 . S
C859 C858 1.334 . S
C859 C860 1.287 . S
C860 C859 1.287 . S
C860 C861 1.524 1_565 S
C860 H879 0.913 . S
C861 H837 0.949 . S
C861 C860 1.524 1_545 S
C861 C862 1.416 . S
C862 H838 0.951 . S
C862 C857 1.362 1_545 S
C862 C861 1.416 . S
C863 H839 0.951 . S
C863 C864 1.366 . S
C863 C865 1.388 . S
C864 C863 1.366 . S
C864 C868 1.385 . S
C865 H840 0.951 . S
C865 C863 1.388 . S
C865 C866 1.366 . S
C866 C865 1.366 . S
C866 C867 1.414 . S
C866 C869 1.499 . S
C867 H841 0.950 . S
C867 C866 1.414 . S
C867 C868 1.374 . S
C868 H842 0.950 . S
C868 C864 1.385 . S
C868 C867 1.374 . S
C869 C866 1.499 . S
C869 C870 1.373 . S
C869 C871 1.389 1_545 S
C870 H843 0.950 . S
C870 C856 1.377 1_545 S
C870 C869 1.373 . S
C871 C855 1.377 . S
C871 C869 1.389 1_565 S
C871 C872 1.524 . S
C872 C871 1.524 . S
C872 C873 1.397 1_565 S
C872 C877 1.363 . S
C873 H844 0.950 . S
C873 C872 1.397 1_545 S
C873 C874 1.334 . S
C874 H845 0.950 . S
C874 C873 1.334 . S
C874 C875 1.267 1_545 S
C875 C874 1.267 1_565 S
C875 C876 1.530 . S
C875 H878 1.015 . S
C876 H846 0.950 . S
C876 C875 1.530 . S
C876 C877 1.415 . S
C877 H847 0.950 . S
C877 C872 1.363 . S
C877 C876 1.415 . S
H878 C875 1.015 . S
H879 C860 0.913 . S
H880 C898 0.951 . S
H881 C900 0.951 . S
H882 C902 0.950 . S
H883 C903 0.950 . S
H884 C905 0.950 . S
H885 C908 0.950 . S
H886 C909 0.950 . S
H887 C911 0.950 . S
H888 C912 0.950 . S
H889 C913 0.951 . S
H890 C915 0.951 . S
H891 C917 0.950 . S
H892 C918 0.950 . S
H893 C920 0.950 . S
H894 C923 0.950 . S
H895 C924 0.950 . S
H896 C926 0.950 . S
H897 C927 0.950 . S
C898 H880 0.951 . S
C898 C899 1.366 . S
C898 C900 1.388 . S
C899 C898 1.366 . S
C899 C903 1.385 . S
C900 H881 0.951 . S
C900 C898 1.388 . S
C900 C901 1.366 . S
C901 C900 1.366 . S
C901 C902 1.414 . S
C901 C904 1.499 . S
C902 H882 0.950 . S
C902 C901 1.414 . S
C902 C903 1.374 . S
C903 H883 0.950 . S
C903 C899 1.385 . S
C903 C902 1.374 . S
C904 C901 1.499 . S
C904 C905 1.373 . S
C904 C906 1.389 . S
C905 H884 0.950 . S
C905 C904 1.373 . S
C905 C921 1.377 . S
C906 C904 1.389 . S
C906 C907 1.524 . S
C906 C920 1.377 . S
C907 C906 1.524 . S
C907 C908 1.397 . S
C907 C912 1.363 . S
C908 H885 0.950 . S
C908 C907 1.397 . S
C908 C909 1.334 . S
C909 H886 0.950 . S
C909 C908 1.334 . S
C909 C910 1.287 . S
C910 C909 1.287 . S
C910 C911 1.524 . S
C910 H929 0.913 . S
C911 H887 0.950 . S
C911 C910 1.524 . S
C911 C912 1.415 . S
C912 H888 0.950 . S
C912 C907 1.363 . S
C912 C911 1.415 . S
C913 H889 0.951 . S
C913 C914 1.366 . S
C913 C915 1.388 . S
C914 C913 1.366 . S
C914 C918 1.385 . S
C915 H890 0.951 . S
C915 C913 1.388 . S
C915 C916 1.366 . S
C916 C915 1.366 . S
C916 C917 1.414 . S
C916 C919 1.499 . S
C917 H891 0.950 . S
C917 C916 1.414 . S
C917 C918 1.374 . S
C918 H892 0.950 . S
C918 C914 1.385 . S
C918 C917 1.374 . S
C919 C916 1.499 . S
C919 C920 1.373 . S
C919 C921 1.389 . S
C920 H893 0.950 . S
C920 C906 1.377 . S
C920 C919 1.373 . S
C921 C905 1.377 . S
C921 C919 1.389 . S
C921 C922 1.524 . S
C922 C921 1.524 . S
C922 C923 1.397 . S
C922 C927 1.363 . S
C923 H894 0.950 . S
C923 C922 1.397 . S
C923 C924 1.334 . S
C924 H895 0.950 . S
C924 C923 1.334 . S
C924 C925 1.287 . S
C925 C924 1.287 . S
C925 C926 1.524 . S
C925 H928 0.999 . S
C926 H896 0.950 . S
C926 C925 1.524 . S
C926 C927 1.415 . S
C927 H897 0.950 . S
C927 C922 1.363 . S
C927 C926 1.415 . S
H928 C925 0.999 . S
H929 C910 0.913 . S
H930 C948 0.951 . S
H931 C950 0.951 . S
H932 C952 0.950 . S
H933 C953 0.950 . S
H934 C955 0.950 . S
H935 C958 0.950 . S
H936 C959 0.950 . S
H937 C961 0.950 . S
H938 C962 0.950 . S
H939 C963 0.951 . S
H940 C965 0.951 . S
H941 C967 0.950 . S
H942 C968 0.950 . S
H943 C970 0.950 1_655 S
H944 C973 0.950 . S
H945 C974 0.950 . S
H946 C976 0.950 . S
H947 C977 0.950 . S
C948 H930 0.951 . S
C948 C949 1.366 . S
C948 C950 1.388 . S
C949 C948 1.366 . S
C949 C953 1.385 . S
C950 H931 0.951 . S
C950 C948 1.388 . S
C950 C951 1.366 . S
C951 C950 1.366 . S
C951 C952 1.414 . S
C951 C954 1.499 . S
C952 H932 0.950 . S
C952 C951 1.414 . S
C952 C953 1.374 . S
C953 H933 0.950 . S
C953 C949 1.385 . S
C953 C952 1.374 . S
C954 C951 1.499 . S
C954 C955 1.373 . S
C954 C956 1.389 . S
C955 H934 0.950 . S
C955 C954 1.373 . S
C955 C971 1.377 1_455 S
C956 C954 1.389 . S
C956 C957 1.524 . S
C956 C970 1.377 . S
C957 C956 1.524 . S
C957 C958 1.397 . S
C957 C962 1.363 . S
C958 H935 0.950 . S
C958 C957 1.397 . S
C958 C959 1.334 . S
C959 H936 0.950 . S
C959 C958 1.334 . S
C959 C960 1.287 . S
C960 C959 1.287 . S
C960 C961 1.524 . S
C960 H979 0.913 . S
C961 H937 0.950 . S
C961 C960 1.524 . S
C961 C962 1.415 . S
C962 H938 0.950 . S
C962 C957 1.363 . S
C962 C961 1.415 . S
C963 H939 0.951 . S
C963 C964 1.366 . S
C963 C965 1.388 . S
C964 C963 1.366 . S
C964 C968 1.385 . S
C965 H940 0.951 . S
C965 C963 1.388 . S
C965 C966 1.366 . S
C966 C965 1.366 . S
C966 C967 1.414 . S
C966 C969 1.499 . S
C967 H941 0.950 . S
C967 C966 1.414 . S
C967 C968 1.374 . S
C968 H942 0.950 . S
C968 C964 1.385 . S
C968 C967 1.374 . S
C969 C966 1.499 . S
C969 C970 1.373 1_655 S
C969 C971 1.389 . S
C970 H943 0.950 1_455 S
C970 C956 1.377 . S
C970 C969 1.373 1_455 S
C971 C955 1.377 1_655 S
C971 C969 1.389 . S
C971 C972 1.524 . S
C972 C971 1.524 . S
C972 C973 1.397 . S
C972 C977 1.363 . S
C973 H944 0.950 . S
C973 C972 1.397 . S
C973 C974 1.334 . S
C974 H945 0.950 . S
C974 C973 1.334 . S
C974 C975 1.287 . S
C975 C974 1.287 . S
C975 C976 1.524 . S
C975 H978 0.999 . S
C976 H946 0.950 . S
C976 C975 1.524 . S
C976 C977 1.415 . S
C977 H947 0.950 . S
C977 C972 1.363 . S
C977 C976 1.415 . S
H978 C975 0.999 . S
H979 C960 0.913 . S
H980 C998 0.951 . S
H981 C1000 0.951 . S
H982 C1002 0.950 . S
H983 C1003 0.950 . S
H984 C1005 0.950 . S
H985 C1008 0.950 . S
H986 C1009 0.950 . S
H987 C1011 0.950 . S
H988 C1012 0.950 1_565 S
H989 C1013 0.951 . S
H990 C1015 0.951 . S
H991 C1017 0.950 . S
H992 C1018 0.950 . S
H993 C1020 0.950 . S
H994 C1023 0.950 . S
H995 C1024 0.950 . S
H996 C1026 0.950 1_545 S
H997 C1027 0.950 . S
C998 H980 0.951 . S
C998 C999 1.366 . S
C998 C1000 1.388 . S
C999 C998 1.366 . S
C999 C1003 1.385 . S
C1000 H981 0.951 . S
C1000 C998 1.388 . S
C1000 C1001 1.366 . S
C1001 C1000 1.366 . S
C1001 C1002 1.414 . S
C1001 C1004 1.499 . S
C1002 H982 0.950 . S
C1002 C1001 1.414 . S
C1002 C1003 1.374 . S
C1003 H983 0.950 . S
C1003 C999 1.385 . S
C1003 C1002 1.374 . S
C1004 C1001 1.499 . S
C1004 C1005 1.373 . S
C1004 C1006 1.389 . S
C1005 H984 0.950 . S
C1005 C1004 1.373 . S
C1005 C1021 1.377 1_545 S
C1006 C1004 1.389 . S
C1006 C1007 1.524 . S
C1006 C1020 1.377 1_545 S
C1007 C1006 1.524 . S
C1007 C1008 1.397 . S
C1007 C1012 1.363 . S
C1008 H985 0.950 . S
C1008 C1007 1.397 . S
C1008 C1009 1.334 . S
C1009 H986 0.950 . S
C1009 C1008 1.334 . S
C1009 C1010 1.287 . S
C1010 C1009 1.287 . S
C1010 C1011 1.524 . S
C1010 H1029 0.913 . S
C1011 H987 0.950 . S
C1011 C1010 1.524 . S
C1011 C1012 1.415 . S
C1012 H988 0.950 1_545 S
C1012 C1007 1.363 . S
C1012 C1011 1.415 . S
C1013 H989 0.951 . S
C1013 C1014 1.366 . S
C1013 C1015 1.388 . S
C1014 C1013 1.366 . S
C1014 C1018 1.385 . S
C1015 H990 0.951 . S
C1015 C1013 1.388 . S
C1015 C1016 1.366 . S
C1016 C1015 1.366 . S
C1016 C1017 1.414 . S
C1016 C1019 1.499 . S
C1017 H991 0.950 . S
C1017 C1016 1.414 . S
C1017 C1018 1.374 . S
C1018 H992 0.950 . S
C1018 C1014 1.385 . S
C1018 C1017 1.374 . S
C1019 C1016 1.499 . S
C1019 C1020 1.373 . S
C1019 C1021 1.389 . S
C1020 H993 0.950 . S
C1020 C1006 1.377 1_565 S
C1020 C1019 1.373 . S
C1021 C1005 1.377 1_565 S
C1021 C1019 1.389 . S
C1021 C1022 1.524 . S
C1022 C1021 1.524 . S
C1022 C1023 1.397 . S
C1022 C1027 1.363 1_565 S
C1023 H994 0.950 . S
C1023 C1022 1.397 . S
C1023 C1024 1.334 . S
C1024 H995 0.950 . S
C1024 C1023 1.334 . S
C1024 C1025 1.287 . S
C1025 C1024 1.287 . S
C1025 C1026 1.524 . S
C1025 H1028 0.999 . S
C1026 H996 0.950 1_565 S
C1026 C1025 1.524 . S
C1026 C1027 1.415 1_565 S
C1027 H997 0.950 . S
C1027 C1022 1.363 1_545 S
C1027 C1026 1.415 1_545 S
H1028 C1025 0.999 . S
H1029 C1010 0.913 . S
H1030 C1048 0.951 . S
H1031 C1050 0.951 . S
H1032 C1052 0.950 . S
H1033 C1053 0.950 . S
H1034 C1055 0.950 . S
H1035 C1058 0.950 . S
H1036 C1059 0.950 . S
H1037 C1061 0.950 . S
H1038 C1062 0.950 . S
H1039 C1063 0.951 . S
H1040 C1065 0.951 . S
H1041 C1067 0.950 . S
H1042 C1068 0.950 . S
H1043 C1070 0.950 . S
H1044 C1073 0.950 . S
H1045 C1074 0.950 . S
H1046 C1076 0.950 . S
H1047 C1077 0.950 . S
C1048 H1030 0.951 . S
C1048 C1049 1.366 . S
C1048 C1050 1.388 . S
C1049 C1048 1.366 . S
C1049 C1053 1.385 . S
C1050 H1031 0.951 . S
C1050 C1048 1.388 . S
C1050 C1051 1.366 . S
C1051 C1050 1.366 . S
C1051 C1052 1.414 . S
C1051 C1054 1.499 . S
C1052 H1032 0.950 . S
C1052 C1051 1.414 . S
C1052 C1053 1.374 . S
C1053 H1033 0.950 . S
C1053 C1049 1.385 . S
C1053 C1052 1.374 . S
C1054 C1051 1.499 . S
C1054 C1055 1.373 . S
C1054 C1056 1.389 . S
C1055 H1034 0.950 . S
C1055 C1054 1.373 . S
C1055 C1071 1.377 . S
C1056 C1054 1.389 . S
C1056 C1057 1.524 . S
C1056 C1070 1.377 . S
C1057 C1056 1.524 . S
C1057 C1058 1.397 . S
C1057 C1062 1.363 . S
C1058 H1035 0.950 . S
C1058 C1057 1.397 . S
C1058 C1059 1.334 . S
C1059 H1036 0.950 . S
C1059 C1058 1.334 . S
C1059 C1060 1.287 . S
C1060 C1059 1.287 . S
C1060 C1061 1.524 . S
C1060 H1079 0.913 . S
C1061 H1037 0.950 . S
C1061 C1060 1.524 . S
C1061 C1062 1.415 . S
C1062 H1038 0.950 . S
C1062 C1057 1.363 . S
C1062 C1061 1.415 . S
C1063 H1039 0.951 . S
C1063 C1064 1.366 . S
C1063 C1065 1.388 . S
C1064 C1063 1.366 . S
C1064 C1068 1.385 . S
C1065 H1040 0.951 . S
C1065 C1063 1.388 . S
C1065 C1066 1.366 . S
C1066 C1065 1.366 . S
C1066 C1067 1.414 . S
C1066 C1069 1.499 . S
C1067 H1041 0.950 . S
C1067 C1066 1.414 . S
C1067 C1068 1.374 . S
C1068 H1042 0.950 . S
C1068 C1064 1.385 . S
C1068 C1067 1.374 . S
C1069 C1066 1.499 . S
C1069 C1070 1.373 . S
C1069 C1071 1.389 . S
C1070 H1043 0.950 . S
C1070 C1056 1.377 . S
C1070 C1069 1.373 . S
C1071 C1055 1.377 . S
C1071 C1069 1.389 . S
C1071 C1072 1.524 . S
C1072 C1071 1.524 . S
C1072 C1073 1.397 . S
C1072 C1077 1.363 . S
C1073 H1044 0.950 . S
C1073 C1072 1.397 . S
C1073 C1074 1.334 . S
C1074 H1045 0.950 . S
C1074 C1073 1.334 . S
C1074 C1075 1.287 . S
C1075 C1074 1.287 . S
C1075 C1076 1.524 . S
C1075 H1078 0.999 . S
C1076 H1046 0.950 . S
C1076 C1075 1.524 . S
C1076 C1077 1.415 . S
C1077 H1047 0.950 . S
C1077 C1072 1.363 . S
C1077 C1076 1.415 . S
H1078 C1075 0.999 . S
H1079 C1060 0.913 . S
H1080 C1098 0.951 . S
H1081 C1100 0.951 . S
H1082 C1102 0.950 . S
H1083 C1103 0.950 . S
H1084 C1105 0.950 . S
H1085 C1108 0.950 . S
H1086 C1109 0.950 . S
H1087 C1111 0.950 . S
H1088 C1112 0.950 . S
H1089 C1113 0.951 . S
H1090 C1115 0.951 . S
H1091 C1117 0.950 . S
H1092 C1118 0.950 . S
H1093 C1120 0.950 . S
H1094 C1123 0.950 . S
H1095 C1124 0.950 . S
H1096 C1126 0.950 . S
H1097 C1127 0.950 . S
C1098 H1080 0.951 . S
C1098 C1099 1.366 . S
C1098 C1100 1.388 . S
C1099 C1098 1.366 . S
C1099 C1103 1.385 . S
C1100 H1081 0.951 . S
C1100 C1098 1.388 . S
C1100 C1101 1.366 . S
C1101 C1100 1.366 . S
C1101 C1102 1.414 . S
C1101 C1104 1.499 . S
C1102 H1082 0.950 . S
C1102 C1101 1.414 . S
C1102 C1103 1.374 . S
C1103 H1083 0.950 . S
C1103 C1099 1.385 . S
C1103 C1102 1.374 . S
C1104 C1101 1.499 . S
C1104 C1105 1.373 . S
C1104 C1106 1.389 . S
C1105 H1084 0.950 . S
C1105 C1104 1.373 . S
C1105 C1121 1.377 . S
C1106 C1104 1.389 . S
C1106 C1107 1.524 . S
C1106 C1120 1.377 . S
C1107 C1106 1.524 . S
C1107 C1108 1.397 . S
C1107 C1112 1.363 . S
C1108 H1085 0.950 . S
C1108 C1107 1.397 . S
C1108 C1109 1.334 . S
C1109 H1086 0.950 . S
C1109 C1108 1.334 . S
C1109 C1110 1.287 . S
C1110 C1109 1.287 . S
C1110 C1111 1.524 . S
C1110 H1129 0.913 . S
C1111 H1087 0.950 . S
C1111 C1110 1.524 . S
C1111 C1112 1.415 . S
C1112 H1088 0.950 . S
C1112 C1107 1.363 . S
C1112 C1111 1.415 . S
C1113 H1089 0.951 . S
C1113 C1114 1.366 . S
C1113 C1115 1.388 . S
C1114 C1113 1.366 . S
C1114 C1118 1.385 . S
C1115 H1090 0.951 . S
C1115 C1113 1.388 . S
C1115 C1116 1.366 . S
C1116 C1115 1.366 . S
C1116 C1117 1.414 . S
C1116 C1119 1.499 . S
C1117 H1091 0.950 . S
C1117 C1116 1.414 . S
C1117 C1118 1.374 . S
C1118 H1092 0.950 . S
C1118 C1114 1.385 . S
C1118 C1117 1.374 . S
C1119 C1116 1.499 . S
C1119 C1120 1.373 . S
C1119 C1121 1.389 . S
C1120 H1093 0.950 . S
C1120 C1106 1.377 . S
C1120 C1119 1.373 . S
C1121 C1105 1.377 . S
C1121 C1119 1.389 . S
C1121 C1122 1.524 . S
C1122 C1121 1.524 . S
C1122 C1123 1.397 . S
C1122 C1127 1.363 . S
C1123 H1094 0.950 . S
C1123 C1122 1.397 . S
C1123 C1124 1.334 . S
C1124 H1095 0.950 . S
C1124 C1123 1.334 . S
C1124 C1125 1.287 . S
C1125 C1124 1.287 . S
C1125 C1126 1.524 . S
C1125 H1128 0.999 . S
C1126 H1096 0.950 . S
C1126 C1125 1.524 . S
C1126 C1127 1.415 . S
C1127 H1097 0.950 . S
C1127 C1122 1.363 . S
C1127 C1126 1.415 . S
H1128 C1125 0.999 . S
H1129 C1110 0.913 . S
H1130 C1148 0.951 . S
H1131 C1150 0.951 . S
H1132 C1152 0.950 . S
H1133 C1153 0.950 . S
H1134 C1155 0.950 . S
H1135 C1158 0.950 . S
H1136 C1159 0.950 . S
H1137 C1161 0.950 . S
H1138 C1162 0.950 . S
H1139 C1163 0.951 . S
H1140 C1165 0.951 . S
H1141 C1167 0.950 . S
H1142 C1168 0.950 . S
H1143 C1170 0.950 . S
H1144 C1173 0.950 . S
H1145 C1174 0.950 . S
H1146 C1176 0.950 . S
H1147 C1177 0.950 . S
C1148 H1130 0.951 . S
C1148 C1149 1.366 . S
C1148 C1150 1.388 . S
C1149 C1148 1.366 . S
C1149 C1153 1.385 . S
C1150 H1131 0.951 . S
C1150 C1148 1.388 . S
C1150 C1151 1.366 . S
C1151 C1150 1.366 . S
C1151 C1152 1.414 . S
C1151 C1154 1.499 . S
C1152 H1132 0.950 . S
C1152 C1151 1.414 . S
C1152 C1153 1.374 . S
C1153 H1133 0.950 . S
C1153 C1149 1.385 . S
C1153 C1152 1.374 . S
C1154 C1151 1.499 . S
C1154 C1155 1.373 . S
C1154 C1156 1.389 . S
C1155 H1134 0.950 . S
C1155 C1154 1.373 . S
C1155 C1171 1.377 . S
C1156 C1154 1.389 . S
C1156 C1157 1.524 . S
C1156 C1170 1.377 . S
C1157 C1156 1.524 . S
C1157 C1158 1.397 . S
C1157 C1162 1.363 . S
C1158 H1135 0.950 . S
C1158 C1157 1.397 . S
C1158 C1159 1.334 . S
C1159 H1136 0.950 . S
C1159 C1158 1.334 . S
C1159 C1160 1.287 . S
C1160 C1159 1.287 . S
C1160 C1161 1.524 . S
C1160 H1179 0.913 . S
C1161 H1137 0.950 . S
C1161 C1160 1.524 . S
C1161 C1162 1.415 . S
C1162 H1138 0.950 . S
C1162 C1157 1.363 . S
C1162 C1161 1.415 . S
C1163 H1139 0.951 . S
C1163 C1164 1.366 . S
C1163 C1165 1.388 . S
C1164 C1163 1.366 . S
C1164 C1168 1.385 . S
C1165 H1140 0.951 . S
C1165 C1163 1.388 . S
C1165 C1166 1.366 . S
C1166 C1165 1.366 . S
C1166 C1167 1.414 . S
C1166 C1169 1.499 . S
C1167 H1141 0.950 . S
C1167 C1166 1.414 . S
C1167 C1168 1.374 . S
C1168 H1142 0.950 . S
C1168 C1164 1.385 . S
C1168 C1167 1.374 . S
C1169 C1166 1.499 . S
C1169 C1170 1.373 . S
C1169 C1171 1.389 . S
C1170 H1143 0.950 . S
C1170 C1156 1.377 . S
C1170 C1169 1.373 . S
C1171 C1155 1.377 . S
C1171 C1169 1.389 . S
C1171 C1172 1.524 . S
C1172 C1171 1.524 . S
C1172 C1173 1.397 . S
C1172 C1177 1.363 . S
C1173 H1144 0.950 . S
C1173 C1172 1.397 . S
C1173 C1174 1.334 . S
C1174 H1145 0.950 . S
C1174 C1173 1.334 . S
C1174 C1175 1.287 . S
C1175 C1174 1.287 . S
C1175 C1176 1.524 . S
C1175 H1178 0.999 . S
C1176 H1146 0.950 . S
C1176 C1175 1.524 . S
C1176 C1177 1.415 . S
C1177 H1147 0.950 . S
C1177 C1172 1.363 . S
C1177 C1176 1.415 . S
H1178 C1175 0.999 . S
H1179 C1160 0.913 . S
H1180 C1198 0.951 . S
H1181 C1200 0.951 . S
H1182 C1202 0.950 . S
H1183 C1203 0.950 . S
H1184 C1205 0.950 . S
H1185 C1208 0.950 . S
H1186 C1209 0.950 . S
H1187 C1211 0.950 . S
H1188 C1212 0.950 . S
H1189 C1213 0.951 . S
H1190 C1215 0.951 . S
H1191 C1217 0.950 . S
H1192 C1218 0.950 . S
H1193 C1220 0.950 . S
H1194 C1223 0.950 . S
H1195 C1224 0.950 . S
H1196 C1226 0.950 . S
H1197 C1227 0.950 . S
C1198 H1180 0.951 . S
C1198 C1199 1.366 . S
C1198 C1200 1.388 . S
C1199 C1198 1.366 . S
C1199 C1203 1.385 . S
C1200 H1181 0.951 . S
C1200 C1198 1.388 . S
C1200 C1201 1.366 . S
C1201 C1200 1.366 . S
C1201 C1202 1.414 . S
C1201 C1204 1.499 . S
C1202 H1182 0.950 . S
C1202 C1201 1.414 . S
C1202 C1203 1.374 . S
C1203 H1183 0.950 . S
C1203 C1199 1.385 . S
C1203 C1202 1.374 . S
C1204 C1201 1.499 . S
C1204 C1205 1.373 . S
C1204 C1206 1.389 . S
C1205 H1184 0.950 . S
C1205 C1204 1.373 . S
C1205 C1221 1.377 . S
C1206 C1204 1.389 . S
C1206 C1207 1.524 . S
C1206 C1220 1.377 . S
C1207 C1206 1.524 . S
C1207 C1208 1.397 . S
C1207 C1212 1.363 . S
C1208 H1185 0.950 . S
C1208 C1207 1.397 . S
C1208 C1209 1.334 . S
C1209 H1186 0.950 . S
C1209 C1208 1.334 . S
C1209 C1210 1.287 . S
C1210 C1209 1.287 . S
C1210 C1211 1.524 . S
C1210 H1229 0.913 . S
C1211 H1187 0.950 . S
C1211 C1210 1.524 . S
C1211 C1212 1.415 . S
C1212 H1188 0.950 . S
C1212 C1207 1.363 . S
C1212 C1211 1.415 . S
C1213 H1189 0.951 . S
C1213 C1214 1.366 . S
C1213 C1215 1.388 . S
C1214 C1213 1.366 . S
C1214 C1218 1.385 . S
C1215 H1190 0.951 . S
C1215 C1213 1.388 . S
C1215 C1216 1.366 . S
C1216 C1215 1.366 . S
C1216 C1217 1.414 . S
C1216 C1219 1.499 . S
C1217 H1191 0.950 . S
C1217 C1216 1.414 . S
C1217 C1218 1.374 . S
C1218 H1192 0.950 . S
C1218 C1214 1.385 . S
C1218 C1217 1.374 . S
C1219 C1216 1.499 . S
C1219 C1220 1.373 . S
C1219 C1221 1.389 . S
C1220 H1193 0.950 . S
C1220 C1206 1.377 . S
C1220 C1219 1.373 . S
C1221 C1205 1.377 . S
C1221 C1219 1.389 . S
C1221 C1222 1.524 . S
C1222 C1221 1.524 . S
C1222 C1223 1.397 . S
C1222 C1227 1.363 . S
C1223 H1194 0.950 . S
C1223 C1222 1.397 . S
C1223 C1224 1.334 . S
C1224 H1195 0.950 . S
C1224 C1223 1.334 . S
C1224 C1225 1.287 . S
C1225 C1224 1.287 . S
C1225 C1226 1.524 . S
C1225 H1228 0.999 . S
C1226 H1196 0.950 . S
C1226 C1225 1.524 . S
C1226 C1227 1.415 . S
C1227 H1197 0.950 . S
C1227 C1222 1.363 . S
C1227 C1226 1.415 . S
H1228 C1225 0.999 . S
H1229 C1210 0.913 . S
H1230 C1248 0.951 . S
H1231 C1250 0.951 . S
H1232 C1252 0.950 . S
H1233 C1253 0.950 . S
H1234 C1255 0.950 . S
H1235 C1258 0.950 . S
H1236 C1259 0.950 . S
H1237 C1261 0.950 . S
H1238 C1262 0.950 . S
H1239 C1263 0.951 . S
H1240 C1265 0.951 . S
H1241 C1267 0.950 . S
H1242 C1268 0.950 . S
H1243 C1270 0.950 . S
H1244 C1273 0.950 . S
H1245 C1274 0.950 . S
H1246 C1276 0.950 . S
H1247 C1277 0.950 . S
C1248 H1230 0.951 . S
C1248 C1249 1.366 . S
C1248 C1250 1.388 . S
C1249 C1248 1.366 . S
C1249 C1253 1.385 . S
C1250 H1231 0.951 . S
C1250 C1248 1.388 . S
C1250 C1251 1.366 . S
C1251 C1250 1.366 . S
C1251 C1252 1.414 . S
C1251 C1254 1.499 . S
C1252 H1232 0.950 . S
C1252 C1251 1.414 . S
C1252 C1253 1.374 . S
C1253 H1233 0.950 . S
C1253 C1249 1.385 . S
C1253 C1252 1.374 . S
C1254 C1251 1.499 . S
C1254 C1255 1.373 . S
C1254 C1256 1.389 . S
C1255 H1234 0.950 . S
C1255 C1254 1.373 . S
C1255 C1271 1.377 . S
C1256 C1254 1.389 . S
C1256 C1257 1.524 . S
C1256 C1270 1.377 . S
C1257 C1256 1.524 . S
C1257 C1258 1.397 . S
C1257 C1262 1.363 . S
C1258 H1235 0.950 . S
C1258 C1257 1.397 . S
C1258 C1259 1.334 . S
C1259 H1236 0.950 . S
C1259 C1258 1.334 . S
C1259 C1260 1.287 . S
C1260 C1259 1.287 . S
C1260 C1261 1.524 . S
C1260 H1279 0.913 . S
C1261 H1237 0.950 . S
C1261 C1260 1.524 . S
C1261 C1262 1.415 . S
C1262 H1238 0.950 . S
C1262 C1257 1.363 . S
C1262 C1261 1.415 . S
C1263 H1239 0.951 . S
C1263 C1264 1.366 . S
C1263 C1265 1.388 . S
C1264 C1263 1.366 . S
C1264 C1268 1.385 . S
C1265 H1240 0.951 . S
C1265 C1263 1.388 . S
C1265 C1266 1.366 . S
C1266 C1265 1.366 . S
C1266 C1267 1.414 . S
C1266 C1269 1.499 . S
C1267 H1241 0.950 . S
C1267 C1266 1.414 . S
C1267 C1268 1.374 . S
C1268 H1242 0.950 . S
C1268 C1264 1.385 . S
C1268 C1267 1.374 . S
C1269 C1266 1.499 . S
C1269 C1270 1.373 . S
C1269 C1271 1.389 . S
C1270 H1243 0.950 . S
C1270 C1256 1.377 . S
C1270 C1269 1.373 . S
C1271 C1255 1.377 . S
C1271 C1269 1.389 . S
C1271 C1272 1.524 . S
C1272 C1271 1.524 . S
C1272 C1273 1.397 . S
C1272 C1277 1.363 . S
C1273 H1244 0.950 . S
C1273 C1272 1.397 . S
C1273 C1274 1.334 . S
C1274 H1245 0.950 . S
C1274 C1273 1.334 . S
C1274 C1275 1.287 . S
C1275 C1274 1.287 . S
C1275 C1276 1.524 . S
C1275 H1278 0.999 . S
C1276 H1246 0.950 . S
C1276 C1275 1.524 . S
C1276 C1277 1.415 . S
C1277 H1247 0.950 . S
C1277 C1272 1.363 . S
C1277 C1276 1.415 . S
H1278 C1275 0.999 . S
H1279 C1260 0.913 . S
H1280 C1298 0.951 . S
H1281 C1300 0.951 . S
H1282 C1302 0.950 . S
H1283 C1303 0.950 . S
H1284 C1305 0.950 . S
H1285 C1308 0.950 . S
H1286 C1309 0.950 . S
H1287 C1311 0.950 . S
H1288 C1312 0.950 . S
H1289 C1313 0.951 . S
H1290 C1315 0.951 . S
H1291 C1317 0.950 . S
H1292 C1318 0.950 . S
H1293 C1320 0.950 . S
H1294 C1323 0.950 . S
H1295 C1324 0.950 . S
H1296 C1326 0.950 . S
H1297 C1327 0.950 . S
C1298 H1280 0.951 . S
C1298 C1299 1.366 . S
C1298 C1300 1.388 . S
C1299 C1298 1.366 . S
C1299 C1303 1.385 . S
C1300 H1281 0.951 . S
C1300 C1298 1.388 . S
C1300 C1301 1.366 . S
C1301 C1300 1.366 . S
C1301 C1302 1.414 . S
C1301 C1304 1.499 . S
C1302 H1282 0.950 . S
C1302 C1301 1.414 . S
C1302 C1303 1.374 . S
C1303 H1283 0.950 . S
C1303 C1299 1.385 . S
C1303 C1302 1.374 . S
C1304 C1301 1.499 . S
C1304 C1305 1.373 . S
C1304 C1306 1.389 . S
C1305 H1284 0.950 . S
C1305 C1304 1.373 . S
C1305 C1321 1.377 . S
C1306 C1304 1.389 . S
C1306 C1307 1.524 . S
C1306 C1320 1.377 . S
C1307 C1306 1.524 . S
C1307 C1308 1.397 . S
C1307 C1312 1.363 . S
C1308 H1285 0.950 . S
C1308 C1307 1.397 . S
C1308 C1309 1.334 . S
C1309 H1286 0.950 . S
C1309 C1308 1.334 . S
C1309 C1310 1.287 . S
C1310 C1309 1.287 . S
C1310 C1311 1.524 . S
C1310 H1329 0.913 . S
C1311 H1287 0.950 . S
C1311 C1310 1.524 . S
C1311 C1312 1.415 . S
C1312 H1288 0.950 . S
C1312 C1307 1.363 . S
C1312 C1311 1.415 . S
C1313 H1289 0.951 . S
C1313 C1314 1.366 . S
C1313 C1315 1.388 . S
C1314 C1313 1.366 . S
C1314 C1318 1.385 . S
C1315 H1290 0.951 . S
C1315 C1313 1.388 . S
C1315 C1316 1.366 . S
C1316 C1315 1.366 . S
C1316 C1317 1.414 . S
C1316 C1319 1.499 . S
C1317 H1291 0.950 . S
C1317 C1316 1.414 . S
C1317 C1318 1.374 . S
C1318 H1292 0.950 . S
C1318 C1314 1.385 . S
C1318 C1317 1.374 . S
C1319 C1316 1.499 . S
C1319 C1320 1.373 . S
C1319 C1321 1.389 . S
C1320 H1293 0.950 . S
C1320 C1306 1.377 . S
C1320 C1319 1.373 . S
C1321 C1305 1.377 . S
C1321 C1319 1.389 . S
C1321 C1322 1.524 . S
C1322 C1321 1.524 . S
C1322 C1323 1.397 . S
C1322 C1327 1.363 . S
C1323 H1294 0.950 . S
C1323 C1322 1.397 . S
C1323 C1324 1.334 . S
C1324 H1295 0.950 . S
C1324 C1323 1.334 . S
C1324 C1325 1.287 . S
C1325 C1324 1.287 . S
C1325 C1326 1.524 . S
C1325 H1328 0.999 . S
C1326 H1296 0.950 . S
C1326 C1325 1.524 . S
C1326 C1327 1.415 . S
C1327 H1297 0.950 . S
C1327 C1322 1.363 . S
C1327 C1326 1.415 . S
H1328 C1325 0.999 . S
H1329 C1310 0.913 . S
H1330 C1348 0.951 . S
H1331 C1350 0.951 . S
H1332 C1352 0.950 . S
H1333 C1353 0.950 . S
H1334 C1355 0.950 . S
H1335 C1358 0.950 . S
H1336 C1359 0.950 . S
H1337 C1361 0.950 . S
H1338 C1362 0.950 . S
H1339 C1363 0.951 . S
H1340 C1365 0.951 . S
H1341 C1367 0.950 . S
H1342 C1368 0.950 . S
H1343 C1370 0.950 . S
H1344 C1373 0.950 . S
H1345 C1374 0.950 . S
H1346 C1376 0.950 . S
H1347 C1377 0.950 . S
C1348 H1330 0.951 . S
C1348 C1349 1.366 . S
C1348 C1350 1.388 . S
C1349 C1348 1.366 . S
C1349 C1353 1.385 . S
C1350 H1331 0.951 . S
C1350 C1348 1.388 . S
C1350 C1351 1.366 . S
C1351 C1350 1.366 . S
C1351 C1352 1.414 . S
C1351 C1354 1.499 . S
C1352 H1332 0.950 . S
C1352 C1351 1.414 . S
C1352 C1353 1.374 . S
C1353 H1333 0.950 . S
C1353 C1349 1.385 . S
C1353 C1352 1.374 . S
C1354 C1351 1.499 . S
C1354 C1355 1.373 . S
C1354 C1356 1.389 . S
C1355 H1334 0.950 . S
C1355 C1354 1.373 . S
C1355 C1371 1.377 . S
C1356 C1354 1.389 . S
C1356 C1357 1.524 . S
C1356 C1370 1.377 . S
C1357 C1356 1.524 . S
C1357 C1358 1.397 . S
C1357 C1362 1.363 . S
C1358 H1335 0.950 . S
C1358 C1357 1.397 . S
C1358 C1359 1.334 . S
C1359 H1336 0.950 . S
C1359 C1358 1.334 . S
C1359 C1360 1.287 . S
C1360 C1359 1.287 . S
C1360 C1361 1.524 . S
C1360 H1379 0.913 . S
C1361 H1337 0.950 . S
C1361 C1360 1.524 . S
C1361 C1362 1.415 . S
C1362 H1338 0.950 . S
C1362 C1357 1.363 . S
C1362 C1361 1.415 . S
C1363 H1339 0.951 . S
C1363 C1364 1.366 . S
C1363 C1365 1.388 . S
C1364 C1363 1.366 . S
C1364 C1368 1.385 . S
C1365 H1340 0.951 . S
C1365 C1363 1.388 . S
C1365 C1366 1.366 . S
C1366 C1365 1.366 . S
C1366 C1367 1.414 . S
C1366 C1369 1.499 . S
C1367 H1341 0.950 . S
C1367 C1366 1.414 . S
C1367 C1368 1.374 . S
C1368 H1342 0.950 . S
C1368 C1364 1.385 . S
C1368 C1367 1.374 . S
C1369 C1366 1.499 . S
C1369 C1370 1.373 . S
C1369 C1371 1.389 . S
C1370 H1343 0.950 . S
C1370 C1356 1.377 . S
C1370 C1369 1.373 . S
C1371 C1355 1.377 . S
C1371 C1369 1.389 . S
C1371 C1372 1.524 . S
C1372 C1371 1.524 . S
C1372 C1373 1.397 . S
C1372 C1377 1.363 . S
C1373 H1344 0.950 . S
C1373 C1372 1.397 . S
C1373 C1374 1.334 . S
C1374 H1345 0.950 . S
C1374 C1373 1.334 . S
C1374 C1375 1.287 . S
C1375 C1374 1.287 . S
C1375 C1376 1.524 . S
C1375 H1378 0.999 . S
C1376 H1346 0.950 . S
C1376 C1375 1.524 . S
C1376 C1377 1.415 . S
C1377 H1347 0.950 . S
C1377 C1372 1.363 . S
C1377 C1376 1.415 . S
H1378 C1375 0.999 . S
H1379 C1360 0.913 . S
H1380 C1398 0.951 . S
H1381 C1400 0.951 . S
H1382 C1402 0.950 . S
H1383 C1403 0.950 . S
H1384 C1405 0.950 . S
H1385 C1408 0.950 . S
H1386 C1409 0.950 . S
H1387 C1411 0.950 . S
H1388 C1412 0.950 . S
H1389 C1413 0.951 . S
H1390 C1415 0.951 . S
H1391 C1417 0.950 . S
H1392 C1418 0.950 . S
H1393 C1420 0.950 . S
H1394 C1423 0.950 . S
H1395 C1424 0.950 . S
H1396 C1426 0.950 . S
H1397 C1427 0.950 . S
C1398 H1380 0.951 . S
C1398 C1399 1.366 . S
C1398 C1400 1.388 . S
C1399 C1398 1.366 . S
C1399 C1403 1.385 . S
C1400 H1381 0.951 . S
C1400 C1398 1.388 . S
C1400 C1401 1.366 . S
C1401 C1400 1.366 . S
C1401 C1402 1.414 . S
C1401 C1404 1.499 . S
C1402 H1382 0.950 . S
C1402 C1401 1.414 . S
C1402 C1403 1.374 . S
C1403 H1383 0.950 . S
C1403 C1399 1.385 . S
C1403 C1402 1.374 . S
C1404 C1401 1.499 . S
C1404 C1405 1.373 . S
C1404 C1406 1.389 . S
C1405 H1384 0.950 . S
C1405 C1404 1.373 . S
C1405 C1421 1.377 . S
C1406 C1404 1.389 . S
C1406 C1407 1.524 . S
C1406 C1420 1.377 . S
C1407 C1406 1.524 . S
C1407 C1408 1.397 . S
C1407 C1412 1.363 . S
C1408 H1385 0.950 . S
C1408 C1407 1.397 . S
C1408 C1409 1.334 . S
C1409 H1386 0.950 . S
C1409 C1408 1.334 . S
C1409 C1410 1.287 . S
C1410 C1409 1.287 . S
C1410 C1411 1.524 . S
C1410 H1429 0.913 . S
C1411 H1387 0.950 . S
C1411 C1410 1.524 . S
C1411 C1412 1.415 . S
C1412 H1388 0.950 . S
C1412 C1407 1.363 . S
C1412 C1411 1.415 . S
C1413 H1389 0.951 . S
C1413 C1414 1.366 . S
C1413 C1415 1.388 . S
C1414 C1413 1.366 . S
C1414 C1418 1.385 . S
C1415 H1390 0.951 . S
C1415 C1413 1.388 . S
C1415 C1416 1.366 . S
C1416 C1415 1.366 . S
C1416 C1417 1.414 . S
C1416 C1419 1.499 . S
C1417 H1391 0.950 . S
C1417 C1416 1.414 . S
C1417 C1418 1.374 . S
C1418 H1392 0.950 . S
C1418 C1414 1.385 . S
C1418 C1417 1.374 . S
C1419 C1416 1.499 . S
C1419 C1420 1.373 . S
C1419 C1421 1.389 . S
C1420 H1393 0.950 . S
C1420 C1406 1.377 . S
C1420 C1419 1.373 . S
C1421 C1405 1.377 . S
C1421 C1419 1.389 . S
C1421 C1422 1.524 . S
C1422 C1421 1.524 . S
C1422 C1423 1.397 . S
C1422 C1427 1.363 . S
C1423 H1394 0.950 . S
C1423 C1422 1.397 . S
C1423 C1424 1.334 . S
C1424 H1395 0.950 . S
C1424 C1423 1.334 . S
C1424 C1425 1.287 . S
C1425 C1424 1.287 . S
C1425 C1426 1.524 . S
C1425 H1428 0.999 . S
C1426 H1396 0.950 . S
C1426 C1425 1.524 . S
C1426 C1427 1.415 . S
C1427 H1397 0.950 . S
C1427 C1422 1.363 . S
C1427 C1426 1.415 . S
H1428 C1425 0.999 . S
H1429 C1410 0.913 . S
H1430 C1448 0.951 . S
H1431 C1450 0.951 . S
H1432 C1452 0.950 . S
H1433 C1453 0.950 . S
H1434 C1455 0.950 . S
H1435 C1458 0.950 . S
H1436 C1459 0.950 . S
H1437 C1461 0.950 . S
H1438 C1462 0.950 . S
H1439 C1463 0.951 . S
H1440 C1465 0.951 . S
H1441 C1467 0.950 . S
H1442 C1468 0.950 . S
H1443 C1470 0.950 . S
H1444 C1473 0.950 . S
H1445 C1474 0.950 . S
H1446 C1476 0.950 . S
H1447 C1477 0.950 . S
C1448 H1430 0.951 . S
C1448 C1449 1.366 . S
C1448 C1450 1.388 . S
C1449 C1448 1.366 . S
C1449 C1453 1.385 . S
C1450 H1431 0.951 . S
C1450 C1448 1.388 . S
C1450 C1451 1.366 . S
C1451 C1450 1.366 . S
C1451 C1452 1.414 . S
C1451 C1454 1.499 . S
C1452 H1432 0.950 . S
C1452 C1451 1.414 . S
C1452 C1453 1.374 . S
C1453 H1433 0.950 . S
C1453 C1449 1.385 . S
C1453 C1452 1.374 . S
C1454 C1451 1.499 . S
C1454 C1455 1.373 . S
C1454 C1456 1.389 . S
C1455 H1434 0.950 . S
C1455 C1454 1.373 . S
C1455 C1471 1.377 . S
C1456 C1454 1.389 . S
C1456 C1457 1.524 . S
C1456 C1470 1.377 . S
C1457 C1456 1.524 . S
C1457 C1458 1.397 . S
C1457 C1462 1.363 . S
C1458 H1435 0.950 . S
C1458 C1457 1.397 . S
C1458 C1459 1.334 . S
C1459 H1436 0.950 . S
C1459 C1458 1.334 . S
C1459 C1460 1.287 . S
C1460 C1459 1.287 . S
C1460 C1461 1.524 . S
C1460 H1479 0.913 . S
C1461 H1437 0.950 . S
C1461 C1460 1.524 . S
C1461 C1462 1.415 . S
C1462 H1438 0.950 . S
C1462 C1457 1.363 . S
C1462 C1461 1.415 . S
C1463 H1439 0.951 . S
C1463 C1464 1.366 . S
C1463 C1465 1.388 . S
C1464 C1463 1.366 . S
C1464 C1468 1.385 . S
C1465 H1440 0.951 . S
C1465 C1463 1.388 . S
C1465 C1466 1.366 . S
C1466 C1465 1.366 . S
C1466 C1467 1.414 . S
C1466 C1469 1.499 . S
C1467 H1441 0.950 . S
C1467 C1466 1.414 . S
C1467 C1468 1.374 . S
C1468 H1442 0.950 . S
C1468 C1464 1.385 . S
C1468 C1467 1.374 . S
C1469 C1466 1.499 . S
C1469 C1470 1.373 . S
C1469 C1471 1.389 . S
C1470 H1443 0.950 . S
C1470 C1456 1.377 . S
C1470 C1469 1.373 . S
C1471 C1455 1.377 . S
C1471 C1469 1.389 . S
C1471 C1472 1.524 . S
C1472 C1471 1.524 . S
C1472 C1473 1.397 . S
C1472 C1477 1.363 . S
C1473 H1444 0.950 . S
C1473 C1472 1.397 . S
C1473 C1474 1.334 . S
C1474 H1445 0.950 . S
C1474 C1473 1.334 . S
C1474 C1475 1.287 . S
C1475 C1474 1.287 . S
C1475 C1476 1.524 . S
C1475 H1478 0.999 . S
C1476 H1446 0.950 . S
C1476 C1475 1.524 . S
C1476 C1477 1.415 . S
C1477 H1447 0.950 . S
C1477 C1472 1.363 . S
C1477 C1476 1.415 . S
H1478 C1475 0.999 . S
H1479 C1460 0.913 . S
H1480 C1498 0.951 . S
H1481 C1500 0.951 . S
H1482 C1502 0.950 . S
H1483 C1503 0.950 . S
H1484 C1505 0.950 . S
H1485 C1508 0.950 . S
H1486 C1509 0.950 . S
H1487 C1511 0.950 . S
H1488 C1512 0.950 . S
H1489 C1513 0.951 . S
H1490 C1515 0.951 . S
H1491 C1517 0.950 . S
H1492 C1518 0.950 . S
H1493 C1520 0.950 . S
H1494 C1523 0.950 . S
H1495 C1524 0.950 . S
H1496 C1526 0.950 . S
H1497 C1527 0.950 . S
C1498 H1480 0.951 . S
C1498 C1499 1.366 . S
C1498 C1500 1.388 . S
C1499 C1498 1.366 . S
C1499 C1503 1.385 . S
C1500 H1481 0.951 . S
C1500 C1498 1.388 . S
C1500 C1501 1.366 . S
C1501 C1500 1.366 . S
C1501 C1502 1.414 . S
C1501 C1504 1.499 . S
C1502 H1482 0.950 . S
C1502 C1501 1.414 . S
C1502 C1503 1.374 . S
C1503 H1483 0.950 . S
C1503 C1499 1.385 . S
C1503 C1502 1.374 . S
C1504 C1501 1.499 . S
C1504 C1505 1.373 . S
C1504 C1506 1.389 . S
C1505 H1484 0.950 . S
C1505 C1504 1.373 . S
C1505 C1521 1.377 . S
C1506 C1504 1.389 . S
C1506 C1507 1.524 . S
C1506 C1520 1.377 . S
C1507 C1506 1.524 . S
C1507 C1508 1.397 . S
C1507 C1512 1.363 . S
C1508 H1485 0.950 . S
C1508 C1507 1.397 . S
C1508 C1509 1.334 . S
C1509 H1486 0.950 . S
C1509 C1508 1.334 . S
C1509 C1510 1.287 . S
C1510 C1509 1.287 . S
C1510 C1511 1.524 . S
C1510 H1529 0.913 . S
C1511 H1487 0.950 . S
C1511 C1510 1.524 . S
C1511 C1512 1.415 . S
C1512 H1488 0.950 . S
C1512 C1507 1.363 . S
C1512 C1511 1.415 . S
C1513 H1489 0.951 . S
C1513 C1514 1.366 . S
C1513 C1515 1.388 . S
C1514 C1513 1.366 . S
C1514 C1518 1.385 . S
C1515 H1490 0.951 . S
C1515 C1513 1.388 . S
C1515 C1516 1.366 . S
C1516 C1515 1.366 . S
C1516 C1517 1.414 . S
C1516 C1519 1.499 . S
C1517 H1491 0.950 . S
C1517 C1516 1.414 . S
C1517 C1518 1.374 . S
C1518 H1492 0.950 . S
C1518 C1514 1.385 . S
C1518 C1517 1.374 . S
C1519 C1516 1.499 . S
C1519 C1520 1.373 . S
C1519 C1521 1.389 . S
C1520 H1493 0.950 . S
C1520 C1506 1.377 . S
C1520 C1519 1.373 . S
C1521 C1505 1.377 . S
C1521 C1519 1.389 . S
C1521 C1522 1.524 . S
C1522 C1521 1.524 . S
C1522 C1523 1.397 . S
C1522 C1527 1.363 . S
C1523 H1494 0.950 . S
C1523 C1522 1.397 . S
C1523 C1524 1.334 . S
C1524 H1495 0.950 . S
C1524 C1523 1.334 . S
C1524 C1525 1.287 . S
C1525 C1524 1.287 . S
C1525 C1526 1.524 . S
C1525 H1528 0.999 . S
C1526 H1496 0.950 . S
C1526 C1525 1.524 . S
C1526 C1527 1.415 . S
C1527 H1497 0.950 . S
C1527 C1522 1.363 . S
C1527 C1526 1.415 . S
H1528 C1525 0.999 . S
H1529 C1510 0.913 . S
H1530 C1548 0.951 . S
H1531 C1550 0.951 . S
H1532 C1552 0.950 . S
H1533 C1553 0.950 . S
H1534 C1555 0.950 . S
H1535 C1558 0.950 . S
H1536 C1559 0.950 . S
H1537 C1561 0.950 . S
H1538 C1562 0.950 . S
H1539 C1563 0.951 . S
H1540 C1565 0.951 . S
H1541 C1567 0.950 . S
H1542 C1568 0.950 . S
H1543 C1570 0.950 . S
H1544 C1573 0.950 . S
H1545 C1574 0.950 . S
H1546 C1576 0.950 . S
H1547 C1577 0.950 . S
C1548 H1530 0.951 . S
C1548 C1549 1.366 . S
C1548 C1550 1.388 . S
C1549 C1548 1.366 . S
C1549 C1553 1.385 . S
C1550 H1531 0.951 . S
C1550 C1548 1.388 . S
C1550 C1551 1.366 . S
C1551 C1550 1.366 . S
C1551 C1552 1.414 . S
C1551 C1554 1.499 . S
C1552 H1532 0.950 . S
C1552 C1551 1.414 . S
C1552 C1553 1.374 . S
C1553 H1533 0.950 . S
C1553 C1549 1.385 . S
C1553 C1552 1.374 . S
C1554 C1551 1.499 . S
C1554 C1555 1.373 . S
C1554 C1556 1.389 . S
C1555 H1534 0.950 . S
C1555 C1554 1.373 . S
C1555 C1571 1.377 . S
C1556 C1554 1.389 . S
C1556 C1557 1.524 . S
C1556 C1570 1.377 . S
C1557 C1556 1.524 . S
C1557 C1558 1.397 . S
C1557 C1562 1.363 . S
C1558 H1535 0.950 . S
C1558 C1557 1.397 . S
C1558 C1559 1.334 . S
C1559 H1536 0.950 . S
C1559 C1558 1.334 . S
C1559 C1560 1.287 . S
C1560 C1559 1.287 . S
C1560 C1561 1.524 . S
C1560 H1579 0.913 . S
C1561 H1537 0.950 . S
C1561 C1560 1.524 . S
C1561 C1562 1.415 . S
C1562 H1538 0.950 . S
C1562 C1557 1.363 . S
C1562 C1561 1.415 . S
C1563 H1539 0.951 . S
C1563 C1564 1.366 . S
C1563 C1565 1.388 . S
C1564 C1563 1.366 . S
C1564 C1568 1.385 . S
C1565 H1540 0.951 . S
C1565 C1563 1.388 . S
C1565 C1566 1.366 . S
C1566 C1565 1.366 . S
C1566 C1567 1.414 . S
C1566 C1569 1.499 . S
C1567 H1541 0.950 . S
C1567 C1566 1.414 . S
C1567 C1568 1.374 . S
C1568 H1542 0.950 . S
C1568 C1564 1.385 . S
C1568 C1567 1.374 . S
C1569 C1566 1.499 . S
C1569 C1570 1.373 . S
C1569 C1571 1.389 . S
C1570 H1543 0.950 . S
C1570 C1556 1.377 . S
C1570 C1569 1.373 . S
C1571 C1555 1.377 . S
C1571 C1569 1.389 . S
C1571 C1572 1.524 . S
C1572 C1571 1.524 . S
C1572 C1573 1.397 . S
C1572 C1577 1.363 . S
C1573 H1544 0.950 . S
C1573 C1572 1.397 . S
C1573 C1574 1.334 . S
C1574 H1545 0.950 . S
C1574 C1573 1.334 . S
C1574 C1575 1.287 . S
C1575 C1574 1.287 . S
C1575 C1576 1.524 . S
C1575 H1578 0.999 . S
C1576 H1546 0.950 . S
C1576 C1575 1.524 . S
C1576 C1577 1.415 . S
C1577 H1547 0.950 . S
C1577 C1572 1.363 . S
C1577 C1576 1.415 . S
H1578 C1575 0.999 . S
H1579 C1560 0.913 . S
H1580 C1598 0.951 . S
H1581 C1600 0.951 . S
H1582 C1602 0.950 . S
H1583 C1603 0.950 . S
H1584 C1605 0.950 . S
H1585 C1608 0.950 . S
H1586 C1609 0.950 . S
H1587 C1611 0.950 . S
H1588 C1612 0.950 . S
H1589 C1613 0.951 . S
H1590 C1615 0.951 . S
H1591 C1617 0.950 . S
H1592 C1618 0.950 . S
H1593 C1620 0.950 . S
H1594 C1623 0.950 . S
H1595 C1624 0.950 . S
H1596 C1626 0.950 . S
H1597 C1627 0.950 . S
C1598 H1580 0.951 . S
C1598 C1599 1.366 . S
C1598 C1600 1.388 . S
C1599 C1598 1.366 . S
C1599 C1603 1.385 . S
C1600 H1581 0.951 . S
C1600 C1598 1.388 . S
C1600 C1601 1.366 . S
C1601 C1600 1.366 . S
C1601 C1602 1.414 . S
C1601 C1604 1.499 . S
C1602 H1582 0.950 . S
C1602 C1601 1.414 . S
C1602 C1603 1.374 . S
C1603 H1583 0.950 . S
C1603 C1599 1.385 . S
C1603 C1602 1.374 . S
C1604 C1601 1.499 . S
C1604 C1605 1.373 . S
C1604 C1606 1.389 . S
C1605 H1584 0.950 . S
C1605 C1604 1.373 . S
C1605 C1621 1.377 . S
C1606 C1604 1.389 . S
C1606 C1607 1.524 . S
C1606 C1620 1.377 . S
C1607 C1606 1.524 . S
C1607 C1608 1.397 . S
C1607 C1612 1.363 . S
C1608 H1585 0.950 . S
C1608 C1607 1.397 . S
C1608 C1609 1.334 . S
C1609 H1586 0.950 . S
C1609 C1608 1.334 . S
C1609 C1610 1.287 . S
C1610 C1609 1.287 . S
C1610 C1611 1.524 . S
C1610 H1629 0.913 . S
C1611 H1587 0.950 . S
C1611 C1610 1.524 . S
C1611 C1612 1.415 . S
C1612 H1588 0.950 . S
C1612 C1607 1.363 . S
C1612 C1611 1.415 . S
C1613 H1589 0.951 . S
C1613 C1614 1.366 . S
C1613 C1615 1.388 . S
C1614 C1613 1.366 . S
C1614 C1618 1.385 . S
C1615 H1590 0.951 . S
C1615 C1613 1.388 . S
C1615 C1616 1.366 . S
C1616 C1615 1.366 . S
C1616 C1617 1.414 . S
C1616 C1619 1.499 . S
C1617 H1591 0.950 . S
C1617 C1616 1.414 . S
C1617 C1618 1.374 . S
C1618 H1592 0.950 . S
C1618 C1614 1.385 . S
C1618 C1617 1.374 . S
C1619 C1616 1.499 . S
C1619 C1620 1.373 . S
C1619 C1621 1.389 . S
C1620 H1593 0.950 . S
C1620 C1606 1.377 . S
C1620 C1619 1.373 . S
C1621 C1605 1.377 . S
C1621 C1619 1.389 . S
C1621 C1622 1.524 . S
C1622 C1621 1.524 . S
C1622 C1623 1.397 . S
C1622 C1627 1.363 . S
C1623 H1594 0.950 . S
C1623 C1622 1.397 . S
C1623 C1624 1.334 . S
C1624 H1595 0.950 . S
C1624 C1623 1.334 . S
C1624 C1625 1.287 . S
C1625 C1624 1.287 . S
C1625 C1626 1.524 . S
C1625 H1628 0.999 . S
C1626 H1596 0.950 . S
C1626 C1625 1.524 . S
C1626 C1627 1.415 . S
C1627 H1597 0.950 . S
C1627 C1622 1.363 . S
C1627 C1626 1.415 . S
H1628 C1625 0.999 . S
H1629 C1610 0.913 . S
H1630 C1648 0.951 . S
H1631 C1650 0.951 . S
H1632 C1652 0.950 . S
H1633 C1653 0.950 . S
H1634 C1655 0.950 . S
H1635 C1658 0.950 . S
H1636 C1659 0.950 . S
H1637 C1661 0.950 . S
H1638 C1662 0.950 . S
H1639 C1663 0.951 . S
H1640 C1665 0.951 . S
H1641 C1667 0.950 . S
H1642 C1668 0.950 . S
H1643 C1670 0.950 . S
H1644 C1673 0.950 . S
H1645 C1674 0.950 . S
H1646 C1676 0.950 . S
H1647 C1677 0.950 . S
C1648 H1630 0.951 . S
C1648 C1649 1.366 . S
C1648 C1650 1.388 . S
C1649 C1648 1.366 . S
C1649 C1653 1.385 . S
C1650 H1631 0.951 . S
C1650 C1648 1.388 . S
C1650 C1651 1.366 . S
C1651 C1650 1.366 . S
C1651 C1652 1.414 . S
C1651 C1654 1.499 . S
C1652 H1632 0.950 . S
C1652 C1651 1.414 . S
C1652 C1653 1.374 . S
C1653 H1633 0.950 . S
C1653 C1649 1.385 . S
C1653 C1652 1.374 . S
C1654 C1651 1.499 . S
C1654 C1655 1.373 . S
C1654 C1656 1.389 . S
C1655 H1634 0.950 . S
C1655 C1654 1.373 . S
C1655 C1671 1.377 . S
C1656 C1654 1.389 . S
C1656 C1657 1.524 . S
C1656 C1670 1.377 . S
C1657 C1656 1.524 . S
C1657 C1658 1.397 . S
C1657 C1662 1.363 . S
C1658 H1635 0.950 . S
C1658 C1657 1.397 . S
C1658 C1659 1.334 . S
C1659 H1636 0.950 . S
C1659 C1658 1.334 . S
C1659 C1660 1.287 . S
C1660 C1659 1.287 . S
C1660 C1661 1.524 . S
C1660 H1679 0.913 . S
C1661 H1637 0.950 . S
C1661 C1660 1.524 . S
C1661 C1662 1.415 . S
C1662 H1638 0.950 . S
C1662 C1657 1.363 . S
C1662 C1661 1.415 . S
C1663 H1639 0.951 . S
C1663 C1664 1.366 . S
C1663 C1665 1.388 . S
C1664 C1663 1.366 . S
C1664 C1668 1.385 . S
C1665 H1640 0.951 . S
C1665 C1663 1.388 . S
C1665 C1666 1.366 . S
C1666 C1665 1.366 . S
C1666 C1667 1.414 . S
C1666 C1669 1.499 . S
C1667 H1641 0.950 . S
C1667 C1666 1.414 . S
C1667 C1668 1.374 . S
C1668 H1642 0.950 . S
C1668 C1664 1.385 . S
C1668 C1667 1.374 . S
C1669 C1666 1.499 . S
C1669 C1670 1.373 . S
C1669 C1671 1.389 . S
C1670 H1643 0.950 . S
C1670 C1656 1.377 . S
C1670 C1669 1.373 . S
C1671 C1655 1.377 . S
C1671 C1669 1.389 . S
C1671 C1672 1.524 . S
C1672 C1671 1.524 . S
C1672 C1673 1.397 . S
C1672 C1677 1.363 . S
C1673 H1644 0.950 . S
C1673 C1672 1.397 . S
C1673 C1674 1.334 . S
C1674 H1645 0.950 . S
C1674 C1673 1.334 . S
C1674 C1675 1.287 . S
C1675 C1674 1.287 . S
C1675 C1676 1.524 . S
C1675 H1678 0.999 . S
C1676 H1646 0.950 . S
C1676 C1675 1.524 . S
C1676 C1677 1.415 . S
C1677 H1647 0.950 . S
C1677 C1672 1.363 . S
C1677 C1676 1.415 . S
H1678 C1675 0.999 . S
H1679 C1660 0.913 . S
H1680 C1698 0.951 . S
H1681 C1700 0.951 . S
H1682 C1702 0.950 . S
H1683 C1703 0.950 . S
H1684 C1705 0.950 . S
H1685 C1708 0.950 . S
H1686 C1709 0.950 . S
H1687 C1711 0.950 . S
H1688 C1712 0.950 . S
H1689 C1713 0.951 . S
H1690 C1715 0.951 . S
H1691 C1717 0.950 . S
H1692 C1718 0.950 . S
H1693 C1720 0.950 . S
H1694 C1723 0.950 . S
H1695 C1724 0.950 . S
H1696 C1726 0.950 . S
H1697 C1727 0.950 . S
C1698 H1680 0.951 . S
C1698 C1699 1.366 . S
C1698 C1700 1.388 . S
C1699 C1698 1.366 . S
C1699 C1703 1.385 . S
C1700 H1681 0.951 . S
C1700 C1698 1.388 . S
C1700 C1701 1.366 . S
C1701 C1700 1.366 . S
C1701 C1702 1.414 . S
C1701 C1704 1.499 . S
C1702 H1682 0.950 . S
C1702 C1701 1.414 . S
C1702 C1703 1.374 . S
C1703 H1683 0.950 . S
C1703 C1699 1.385 . S
C1703 C1702 1.374 . S
C1704 C1701 1.499 . S
C1704 C1705 1.373 . S
C1704 C1706 1.389 . S
C1705 H1684 0.950 . S
C1705 C1704 1.373 . S
C1705 C1721 1.377 . S
C1706 C1704 1.389 . S
C1706 C1707 1.524 . S
C1706 C1720 1.377 . S
C1707 C1706 1.524 . S
C1707 C1708 1.397 . S
C1707 C1712 1.363 . S
C1708 H1685 0.950 . S
C1708 C1707 1.397 . S
C1708 C1709 1.334 . S
C1709 H1686 0.950 . S
C1709 C1708 1.334 . S
C1709 C1710 1.287 . S
C1710 C1709 1.287 . S
C1710 C1711 1.524 . S
C1710 H1729 0.913 . S
C1711 H1687 0.950 . S
C1711 C1710 1.524 . S
C1711 C1712 1.415 . S
C1712 H1688 0.950 . S
C1712 C1707 1.363 . S
C1712 C1711 1.415 . S
C1713 H1689 0.951 . S
C1713 C1714 1.366 . S
C1713 C1715 1.388 . S
C1714 C1713 1.366 . S
C1714 C1718 1.385 . S
C1715 H1690 0.951 . S
C1715 C1713 1.388 . S
C1715 C1716 1.366 . S
C1716 C1715 1.366 . S
C1716 C1717 1.414 . S
C1716 C1719 1.499 . S
C1717 H1691 0.950 . S
C1717 C1716 1.414 . S
C1717 C1718 1.374 . S
C1718 H1692 0.950 . S
C1718 C1714 1.385 . S
C1718 C1717 1.374 . S
C1719 C1716 1.499 . S
C1719 C1720 1.373 . S
C1719 C1721 1.389 . S
C1720 H1693 0.950 . S
C1720 C1706 1.377 . S
C1720 C1719 1.373 . S
C1721 C1705 1.377 . S
C1721 C1719 1.389 . S
C1721 C1722 1.524 . S
C1722 C1721 1.524 . S
C1722 C1723 1.397 . S
C1722 C1727 1.363 . S
C1723 H1694 0.950 . S
C1723 C1722 1.397 . S
C1723 C1724 1.334 . S
C1724 H1695 0.950 . S
C1724 C1723 1.334 . S
C1724 C1725 1.287 . S
C1725 C1724 1.287 . S
C1725 C1726 1.524 . S
C1725 H1728 0.999 . S
C1726 H1696 0.950 . S
C1726 C1725 1.524 . S
C1726 C1727 1.415 . S
C1727 H1697 0.950 . S
C1727 C1722 1.363 . S
C1727 C1726 1.415 . S
H1728 C1725 0.999 . S
H1729 C1710 0.913 . S
H1730 C1748 0.951 . S
H1731 C1750 0.951 . S
H1732 C1752 0.950 . S
H1733 C1753 0.950 . S
H1734 C1755 0.950 . S
H1735 C1758 0.950 . S
H1736 C1759 0.950 . S
H1737 C1761 0.950 . S
H1738 C1762 0.950 . S
H1739 C1763 0.951 . S
H1740 C1765 0.951 . S
H1741 C1767 0.950 . S
H1742 C1768 0.950 . S
H1743 C1770 0.950 . S
H1744 C1773 0.950 . S
H1745 C1774 0.950 . S
H1746 C1776 0.950 . S
H1747 C1777 0.950 . S
C1748 H1730 0.951 . S
C1748 C1749 1.366 . S
C1748 C1750 1.388 . S
C1749 C1748 1.366 . S
C1749 C1753 1.385 . S
C1750 H1731 0.951 . S
C1750 C1748 1.388 . S
C1750 C1751 1.366 . S
C1751 C1750 1.366 . S
C1751 C1752 1.414 . S
C1751 C1754 1.499 . S
C1752 H1732 0.950 . S
C1752 C1751 1.414 . S
C1752 C1753 1.374 . S
C1753 H1733 0.950 . S
C1753 C1749 1.385 . S
C1753 C1752 1.374 . S
C1754 C1751 1.499 . S
C1754 C1755 1.373 . S
C1754 C1756 1.389 . S
C1755 H1734 0.950 . S
C1755 C1754 1.373 . S
C1755 C1771 1.377 . S
C1756 C1754 1.389 . S
C1756 C1757 1.524 . S
C1756 C1770 1.377 . S
C1757 C1756 1.524 . S
C1757 C1758 1.397 . S
C1757 C1762 1.363 . S
C1758 H1735 0.950 . S
C1758 C1757 1.397 . S
C1758 C1759 1.334 . S
C1759 H1736 0.950 . S
C1759 C1758 1.334 . S
C1759 C1760 1.287 . S
C1760 C1759 1.287 . S
C1760 C1761 1.524 . S
C1760 H1779 0.913 . S
C1761 H1737 0.950 . S
C1761 C1760 1.524 . S
C1761 C1762 1.415 . S
C1762 H1738 0.950 . S
C1762 C1757 1.363 . S
C1762 C1761 1.415 . S
C1763 H1739 0.951 . S
C1763 C1764 1.366 . S
C1763 C1765 1.388 . S
C1764 C1763 1.366 . S
C1764 C1768 1.385 . S
C1765 H1740 0.951 . S
C1765 C1763 1.388 . S
C1765 C1766 1.366 . S
C1766 C1765 1.366 . S
C1766 C1767 1.414 . S
C1766 C1769 1.499 . S
C1767 H1741 0.950 . S
C1767 C1766 1.414 . S
C1767 C1768 1.374 . S
C1768 H1742 0.950 . S
C1768 C1764 1.385 . S
C1768 C1767 1.374 . S
C1769 C1766 1.499 . S
C1769 C1770 1.373 . S
C1769 C1771 1.389 . S
C1770 H1743 0.950 . S
C1770 C1756 1.377 . S
C1770 C1769 1.373 . S
C1771 C1755 1.377 . S
C1771 C1769 1.389 . S
C1771 C1772 1.524 . S
C1772 C1771 1.524 . S
C1772 C1773 1.397 . S
C1772 C1777 1.363 . S
C1773 H1744 0.950 . S
C1773 C1772 1.397 . S
C1773 C1774 1.334 . S
C1774 H1745 0.950 . S
C1774 C1773 1.334 . S
C1774 C1775 1.287 . S
C1775 C1774 1.287 . S
C1775 C1776 1.524 . S
C1775 H1778 0.999 . S
C1776 H1746 0.950 . S
C1776 C1775 1.524 . S
C1776 C1777 1.415 . S
C1777 H1747 0.950 . S
C1777 C1772 1.363 . S
C1777 C1776 1.415 . S
H1778 C1775 0.999 . S
H1779 C1760 0.913 . S
H1780 C1798 0.951 . S
H1781 C1800 0.951 . S
H1782 C1802 0.950 . S
H1783 C1803 0.950 . S
H1784 C1805 0.950 . S
H1785 C1808 0.950 . S
H1786 C1809 0.950 . S
H1787 C1811 0.950 . S
H1788 C1812 0.950 . S
H1789 C1813 0.951 . S
H1790 C1815 0.951 . S
H1791 C1817 0.950 . S
H1792 C1818 0.950 . S
H1793 C1820 0.950 . S
H1794 C1823 0.950 . S
H1795 C1824 0.950 . S
H1796 C1826 0.950 . S
H1797 C1827 0.950 . S
C1798 H1780 0.951 . S
C1798 C1799 1.366 . S
C1798 C1800 1.388 . S
C1799 C1798 1.366 . S
C1799 C1803 1.385 . S
C1800 H1781 0.951 . S
C1800 C1798 1.388 . S
C1800 C1801 1.366 . S
C1801 C1800 1.366 . S
C1801 C1802 1.414 . S
C1801 C1804 1.499 . S
C1802 H1782 0.950 . S
C1802 C1801 1.414 . S
C1802 C1803 1.374 . S
C1803 H1783 0.950 . S
C1803 C1799 1.385 . S
C1803 C1802 1.374 . S
C1804 C1801 1.499 . S
C1804 C1805 1.373 . S
C1804 C1806 1.389 . S
C1805 H1784 0.950 . S
C1805 C1804 1.373 . S
C1805 C1821 1.377 . S
C1806 C1804 1.389 . S
C1806 C1807 1.524 . S
C1806 C1820 1.377 . S
C1807 C1806 1.524 . S
C1807 C1808 1.397 . S
C1807 C1812 1.363 . S
C1808 H1785 0.950 . S
C1808 C1807 1.397 . S
C1808 C1809 1.334 . S
C1809 H1786 0.950 . S
C1809 C1808 1.334 . S
C1809 C1810 1.287 . S
C1810 C1809 1.287 . S
C1810 C1811 1.524 . S
C1810 H1829 0.913 . S
C1811 H1787 0.950 . S
C1811 C1810 1.524 . S
C1811 C1812 1.415 . S
C1812 H1788 0.950 . S
C1812 C1807 1.363 . S
C1812 C1811 1.415 . S
C1813 H1789 0.951 . S
C1813 C1814 1.366 . S
C1813 C1815 1.388 . S
C1814 C1813 1.366 . S
C1814 C1818 1.385 . S
C1815 H1790 0.951 . S
C1815 C1813 1.388 . S
C1815 C1816 1.366 . S
C1816 C1815 1.366 . S
C1816 C1817 1.414 . S
C1816 C1819 1.499 . S
C1817 H1791 0.950 . S
C1817 C1816 1.414 . S
C1817 C1818 1.374 . S
C1818 H1792 0.950 . S
C1818 C1814 1.385 . S
C1818 C1817 1.374 . S
C1819 C1816 1.499 . S
C1819 C1820 1.373 . S
C1819 C1821 1.389 . S
C1820 H1793 0.950 . S
C1820 C1806 1.377 . S
C1820 C1819 1.373 . S
C1821 C1805 1.377 . S
C1821 C1819 1.389 . S
C1821 C1822 1.524 . S
C1822 C1821 1.524 . S
C1822 C1823 1.397 . S
C1822 C1827 1.363 . S
C1823 H1794 0.950 . S
C1823 C1822 1.397 . S
C1823 C1824 1.334 . S
C1824 H1795 0.950 . S
C1824 C1823 1.334 . S
C1824 C1825 1.287 . S
C1825 C1824 1.287 . S
C1825 C1826 1.524 . S
C1825 H1828 0.999 . S
C1826 H1796 0.950 . S
C1826 C1825 1.524 . S
C1826 C1827 1.415 . S
C1827 H1797 0.950 . S
C1827 C1822 1.363 . S
C1827 C1826 1.415 . S
H1828 C1825 0.999 . S
H1829 C1810 0.913 . S
H1830 C1848 0.951 . S
H1831 C1850 0.951 . S
H1832 C1852 0.950 . S
H1833 C1853 0.950 . S
H1834 C1855 0.950 . S
H1835 C1858 0.950 . S
H1836 C1859 0.950 . S
H1837 C1861 0.950 . S
H1838 C1862 0.950 . S
H1839 C1863 0.951 . S
H1840 C1865 0.951 . S
H1841 C1867 0.950 . S
H1842 C1868 0.950 . S
H1843 C1870 0.950 . S
H1844 C1873 0.950 . S
H1845 C1874 0.950 . S
H1846 C1876 0.950 . S
H1847 C1877 0.950 . S
C1848 H1830 0.951 . S
C1848 C1849 1.366 . S
C1848 C1850 1.388 . S
C1849 C1848 1.366 . S
C1849 C1853 1.385 . S
C1850 H1831 0.951 . S
C1850 C1848 1.388 . S
C1850 C1851 1.366 . S
C1851 C1850 1.366 . S
C1851 C1852 1.414 . S
C1851 C1854 1.499 . S
C1852 H1832 0.950 . S
C1852 C1851 1.414 . S
C1852 C1853 1.374 . S
C1853 H1833 0.950 . S
C1853 C1849 1.385 . S
C1853 C1852 1.374 . S
C1854 C1851 1.499 . S
C1854 C1855 1.373 . S
C1854 C1856 1.389 . S
C1855 H1834 0.950 . S
C1855 C1854 1.373 . S
C1855 C1871 1.377 . S
C1856 C1854 1.389 . S
C1856 C1857 1.524 . S
C1856 C1870 1.377 . S
C1857 C1856 1.524 . S
C1857 C1858 1.397 . S
C1857 C1862 1.363 . S
C1858 H1835 0.950 . S
C1858 C1857 1.397 . S
C1858 C1859 1.334 . S
C1859 H1836 0.950 . S
C1859 C1858 1.334 . S
C1859 C1860 1.287 . S
C1860 C1859 1.287 . S
C1860 C1861 1.524 . S
C1860 H1879 0.913 . S
C1861 H1837 0.950 . S
C1861 C1860 1.524 . S
C1861 C1862 1.415 . S
C1862 H1838 0.950 . S
C1862 C1857 1.363 . S
C1862 C1861 1.415 . S
C1863 H1839 0.951 . S
C1863 C1864 1.366 . S
C1863 C1865 1.388 . S
C1864 C1863 1.366 . S
C1864 C1868 1.385 . S
C1865 H1840 0.951 . S
C1865 C1863 1.388 . S
C1865 C1866 1.366 . S
C1866 C1865 1.366 . S
C1866 C1867 1.414 . S
C1866 C1869 1.499 . S
C1867 H1841 0.950 . S
C1867 C1866 1.414 . S
C1867 C1868 1.374 . S
C1868 H1842 0.950 . S
C1868 C1864 1.385 . S
C1868 C1867 1.374 . S
C1869 C1866 1.499 . S
C1869 C1870 1.373 . S
C1869 C1871 1.389 . S
C1870 H1843 0.950 . S
C1870 C1856 1.377 . S
C1870 C1869 1.373 . S
C1871 C1855 1.377 . S
C1871 C1869 1.389 . S
C1871 C1872 1.524 . S
C1872 C1871 1.524 . S
C1872 C1873 1.397 . S
C1872 C1877 1.363 . S
C1873 H1844 0.950 . S
C1873 C1872 1.397 . S
C1873 C1874 1.334 . S
C1874 H1845 0.950 . S
C1874 C1873 1.334 . S
C1874 C1875 1.287 . S
C1875 C1874 1.287 . S
C1875 C1876 1.524 . S
C1875 H1878 0.999 . S
C1876 H1846 0.950 . S
C1876 C1875 1.524 . S
C1876 C1877 1.415 . S
C1877 H1847 0.950 . S
C1877 C1872 1.363 . S
C1877 C1876 1.415 . S
H1878 C1875 0.999 . S
H1879 C1860 0.913 . S
H1880 C1898 0.951 . S
H1881 C1900 0.951 . S
H1882 C1902 0.950 . S
H1883 C1903 0.950 . S
H1884 C1905 0.950 . S
H1885 C1908 0.950 . S
H1886 C1909 0.950 . S
H1887 C1911 0.950 . S
H1888 C1912 0.950 . S
H1889 C1913 0.951 . S
H1890 C1915 0.951 . S
H1891 C1917 0.950 . S
H1892 C1918 0.950 . S
H1893 C1920 0.950 . S
H1894 C1923 0.950 . S
H1895 C1924 0.950 . S
H1896 C1926 0.950 . S
H1897 C1927 0.950 . S
C1898 H1880 0.951 . S
C1898 C1899 1.366 . S
C1898 C1900 1.388 . S
C1899 C1898 1.366 . S
C1899 C1903 1.385 . S
C1900 H1881 0.951 . S
C1900 C1898 1.388 . S
C1900 C1901 1.366 . S
C1901 C1900 1.366 . S
C1901 C1902 1.414 . S
C1901 C1904 1.499 . S
C1902 H1882 0.950 . S
C1902 C1901 1.414 . S
C1902 C1903 1.374 . S
C1903 H1883 0.950 . S
C1903 C1899 1.385 . S
C1903 C1902 1.374 . S
C1904 C1901 1.499 . S
C1904 C1905 1.373 . S
C1904 C1906 1.389 . S
C1905 H1884 0.950 . S
C1905 C1904 1.373 . S
C1905 C1921 1.377 . S
C1906 C1904 1.389 . S
C1906 C1907 1.524 . S
C1906 C1920 1.377 . S
C1907 C1906 1.524 . S
C1907 C1908 1.397 . S
C1907 C1912 1.363 . S
C1908 H1885 0.950 . S
C1908 C1907 1.397 . S
C1908 C1909 1.334 . S
C1909 H1886 0.950 . S
C1909 C1908 1.334 . S
C1909 C1910 1.287 . S
C1910 C1909 1.287 . S
C1910 C1911 1.524 . S
C1910 H1929 0.913 . S
C1911 H1887 0.950 . S
C1911 C1910 1.524 . S
C1911 C1912 1.415 . S
C1912 H1888 0.950 . S
C1912 C1907 1.363 . S
C1912 C1911 1.415 . S
C1913 H1889 0.951 . S
C1913 C1914 1.366 . S
C1913 C1915 1.388 . S
C1914 C1913 1.366 . S
C1914 C1918 1.385 . S
C1915 H1890 0.951 . S
C1915 C1913 1.388 . S
C1915 C1916 1.366 . S
C1916 C1915 1.366 . S
C1916 C1917 1.414 . S
C1916 C1919 1.499 . S
C1917 H1891 0.950 . S
C1917 C1916 1.414 . S
C1917 C1918 1.374 . S
C1918 H1892 0.950 . S
C1918 C1914 1.385 . S
C1918 C1917 1.374 . S
C1919 C1916 1.499 . S
C1919 C1920 1.373 . S
C1919 C1921 1.389 . S
C1920 H1893 0.950 . S
C1920 C1906 1.377 . S
C1920 C1919 1.373 . S
C1921 C1905 1.377 . S
C1921 C1919 1.389 . S
C1921 C1922 1.524 . S
C1922 C1921 1.524 . S
C1922 C1923 1.397 . S
C1922 C1927 1.363 . S
C1923 H1894 0.950 . S
C1923 C1922 1.397 . S
C1923 C1924 1.334 . S
C1924 H1895 0.950 . S
C1924 C1923 1.334 . S
C1924 C1925 1.287 . S
C1925 C1924 1.287 . S
C1925 C1926 1.524 . S
C1925 H1928 0.999 . S
C1926 H1896 0.950 . S
C1926 C1925 1.524 . S
C1926 C1927 1.415 . S
C1927 H1897 0.950 . S
C1927 C1922 1.363 . S
C1927 C1926 1.415 . S
H1928 C1925 0.999 . S
H1929 C1910 0.913 . S
H1930 C1948 0.951 . S
H1931 C1950 0.951 . S
H1932 C1952 0.950 . S
H1933 C1953 0.950 . S
H1934 C1955 0.950 . S
H1935 C1958 0.950 . S
H1936 C1959 0.950 . S
H1937 C1961 0.950 . S
H1938 C1962 0.950 . S
H1939 C1963 0.951 . S
H1940 C1965 0.951 . S
H1941 C1967 0.950 . S
H1942 C1968 0.950 . S
H1943 C1970 0.950 . S
H1944 C1973 0.950 . S
H1945 C1974 0.950 . S
H1946 C1976 0.950 . S
H1947 C1977 0.950 . S
C1948 H1930 0.951 . S
C1948 C1949 1.366 . S
C1948 C1950 1.388 . S
C1949 C1948 1.366 . S
C1949 C1953 1.385 . S
C1950 H1931 0.951 . S
C1950 C1948 1.388 . S
C1950 C1951 1.366 . S
C1951 C1950 1.366 . S
C1951 C1952 1.414 . S
C1951 C1954 1.499 . S
C1952 H1932 0.950 . S
C1952 C1951 1.414 . S
C1952 C1953 1.374 . S
C1953 H1933 0.950 . S
C1953 C1949 1.385 . S
C1953 C1952 1.374 . S
C1954 C1951 1.499 . S
C1954 C1955 1.373 . S
C1954 C1956 1.389 . S
C1955 H1934 0.950 . S
C1955 C1954 1.373 . S
C1955 C1971 1.377 . S
C1956 C1954 1.389 . S
C1956 C1957 1.524 . S
C1956 C1970 1.377 . S
C1957 C1956 1.524 . S
C1957 C1958 1.397 . S
C1957 C1962 1.363 . S
C1958 H1935 0.950 . S
C1958 C1957 1.397 . S
C1958 C1959 1.334 . S
C1959 H1936 0.950 . S
C1959 C1958 1.334 . S
C1959 C1960 1.287 . S
C1960 C1959 1.287 . S
C1960 C1961 1.524 . S
C1960 H1979 0.913 . S
C1961 H1937 0.950 . S
C1961 C1960 1.524 . S
C1961 C1962 1.415 . S
C1962 H1938 0.950 . S
C1962 C1957 1.363 . S
C1962 C1961 1.415 . S
C1963 H1939 0.951 . S
C1963 C1964 1.366 . S
C1963 C1965 1.388 . S
C1964 C1963 1.366 . S
C1964 C1968 1.385 . S
C1965 H1940 0.951 . S
C1965 C1963 1.388 . S
C1965 C1966 1.366 . S
C1966 C1965 1.366 . S
C1966 C1967 1.414 . S
C1966 C1969 1.499 . S
C1967 H1941 0.950 . S
C1967 C1966 1.414 . S
C1967 C1968 1.374 . S
C1968 H1942 0.950 . S
C1968 C1964 1.385 . S
C1968 C1967 1.374 . S
C1969 C1966 1.499 . S
C1969 C1970 1.373 . S
C1969 C1971 1.389 . S
C1970 H1943 0.950 . S
C1970 C1956 1.377 . S
C1970 C1969 1.373 . S
C1971 C1955 1.377 . S
C1971 C1969 1.389 . S
C1971 C1972 1.524 . S
C1972 C1971 1.524 . S
C1972 C1973 1.397 . S
C1972 C1977 1.363 . S
C1973 H1944 0.950 . S
C1973 C1972 1.397 . S
C1973 C1974 1.334 . S
C1974 H1945 0.950 . S
C1974 C1973 1.334 . S
C1974 C1975 1.287 . S
C1975 C1974 1.287 . S
C1975 C1976 1.524 . S
C1975 H1978 0.999 . S
C1976 H1946 0.950 . S
C1976 C1975 1.524 . S
C1976 C1977 1.415 . S
C1977 H1947 0.950 . S
C1977 C1972 1.363 . S
C1977 C1976 1.415 . S
H1978 C1975 0.999 . S
H1979 C1960 0.913 . S
H1980 C1998 0.951 . S
H1981 C2000 0.951 . S
H1982 C2002 0.950 . S
H1983 C2003 0.950 . S
H1984 C2005 0.950 . S
H1985 C2008 0.950 . S
H1986 C2009 0.950 . S
H1987 C2011 0.950 . S
H1988 C2012 0.950 . S
H1989 C2013 0.951 . S
H1990 C2015 0.951 . S
H1991 C2017 0.950 . S
H1992 C2018 0.950 . S
H1993 C2020 0.950 . S
H1994 C2023 0.950 . S
H1995 C2024 0.950 . S
H1996 C2026 0.950 . S
H1997 C2027 0.950 . S
C1998 H1980 0.951 . S
C1998 C1999 1.366 . S
C1998 C2000 1.388 . S
C1999 C1998 1.366 . S
C1999 C2003 1.385 . S
C2000 H1981 0.951 . S
C2000 C1998 1.388 . S
C2000 C2001 1.366 . S
C2001 C2000 1.366 . S
C2001 C2002 1.414 . S
C2001 C2004 1.499 . S
C2002 H1982 0.950 . S
C2002 C2001 1.414 . S
C2002 C2003 1.374 . S
C2003 H1983 0.950 . S
C2003 C1999 1.385 . S
C2003 C2002 1.374 . S
C2004 C2001 1.499 . S
C2004 C2005 1.373 . S
C2004 C2006 1.389 1_556 S
C2005 H1984 0.950 . S
C2005 C2004 1.373 . S
C2005 C2021 1.377 . S
C2006 C2004 1.389 1_554 S
C2006 C2007 1.524 . S
C2006 C2020 1.377 . S
C2007 C2006 1.524 . S
C2007 C2008 1.397 . S
C2007 C2012 1.363 . S
C2008 H1985 0.950 . S
C2008 C2007 1.397 . S
C2008 C2009 1.334 . S
C2009 H1986 0.950 . S
C2009 C2008 1.334 . S
C2009 C2010 1.287 . S
C2010 C2009 1.287 . S
C2010 C2011 1.524 . S
C2010 H2029 0.913 . S
C2011 H1987 0.950 . S
C2011 C2010 1.524 . S
C2011 C2012 1.415 . S
C2012 H1988 0.950 . S
C2012 C2007 1.363 . S
C2012 C2011 1.415 . S
C2013 H1989 0.951 . S
C2013 C2014 1.366 . S
C2013 C2015 1.388 . S
C2014 C2013 1.366 . S
C2014 C2018 1.385 . S
C2015 H1990 0.951 . S
C2015 C2013 1.388 . S
C2015 C2016 1.366 . S
C2016 C2015 1.366 . S
C2016 C2017 1.414 . S
C2016 C2019 1.499 . S
C2017 H1991 0.950 . S
C2017 C2016 1.414 . S
C2017 C2018 1.374 . S
C2018 H1992 0.950 . S
C2018 C2014 1.385 . S
C2018 C2017 1.374 . S
C2019 C2016 1.499 . S
C2019 C2020 1.373 . S
C2019 C2021 1.389 1_554 S
C2020 H1993 0.950 . S
C2020 C2006 1.377 . S
C2020 C2019 1.373 . S
C2021 C2005 1.377 . S
C2021 C2019 1.389 1_556 S
C2021 C2022 1.524 . S
C2022 C2021 1.524 . S
C2022 C2023 1.397 . S
C2022 C2027 1.363 . S
C2023 H1994 0.950 . S
C2023 C2022 1.397 . S
C2023 C2024 1.334 . S
C2024 H1995 0.950 . S
C2024 C2023 1.334 . S
C2024 C2025 1.287 . S
C2025 C2024 1.287 . S
C2025 C2026 1.524 . S
C2025 H2028 0.999 . S
C2026 H1996 0.950 . S
C2026 C2025 1.524 . S
C2026 C2027 1.415 . S
C2027 H1997 0.950 . S
C2027 C2022 1.363 . S
C2027 C2026 1.415 . S
H2028 C2025 0.999 . S
H2029 C2010 0.913 . S
H2030 C2048 0.951 . S
H2031 C2050 0.951 . S
H2032 C2052 0.950 . S
H2033 C2053 0.950 . S
H2034 C2055 0.950 . S
H2035 C2058 0.950 . S
H2036 C2059 0.950 . S
H2037 C2061 0.950 . S
H2038 C2062 0.950 1_655 S
H2039 C2063 0.951 . S
H2040 C2065 0.951 . S
H2041 C2067 0.950 . S
H2042 C2068 0.950 . S
H2043 C2070 0.950 . S
H2044 C2073 0.950 . S
H2045 C2074 0.950 . S
H2046 C2076 0.950 . S
H2047 C2077 0.950 1_455 S
C2048 H2030 0.951 . S
C2048 C2049 1.366 . S
C2048 C2050 1.388 . S
C2049 C2048 1.366 . S
C2049 C2053 1.385 . S
C2050 H2031 0.951 . S
C2050 C2048 1.388 . S
C2050 C2051 1.366 . S
C2051 C2050 1.366 . S
C2051 C2052 1.414 . S
C2051 C2054 1.499 . S
C2052 H2032 0.950 . S
C2052 C2051 1.414 . S
C2052 C2053 1.374 . S
C2053 H2033 0.950 . S
C2053 C2049 1.385 . S
C2053 C2052 1.374 . S
C2054 C2051 1.499 . S
C2054 C2055 1.373 . S
C2054 C2056 1.389 . S
C2055 H2034 0.950 . S
C2055 C2054 1.373 . S
C2055 C2071 1.377 1_455 S
C2056 C2054 1.389 . S
C2056 C2057 1.524 . S
C2056 C2070 1.377 1_455 S
C2057 C2056 1.524 . S
C2057 C2058 1.397 . S
C2057 C2062 1.363 . S
C2058 H2035 0.950 . S
C2058 C2057 1.397 . S
C2058 C2059 1.334 . S
C2059 H2036 0.950 . S
C2059 C2058 1.334 . S
C2059 C2060 1.287 . S
C2060 C2059 1.287 . S
C2060 C2061 1.524 . S
C2060 H2079 0.913 . S
C2061 H2037 0.950 . S
C2061 C2060 1.524 . S
C2061 C2062 1.415 . S
C2062 H2038 0.950 1_455 S
C2062 C2057 1.363 . S
C2062 C2061 1.415 . S
C2063 H2039 0.951 . S
C2063 C2064 1.366 . S
C2063 C2065 1.388 . S
C2064 C2063 1.366 . S
C2064 C2068 1.385 . S
C2065 H2040 0.951 . S
C2065 C2063 1.388 . S
C2065 C2066 1.366 . S
C2066 C2065 1.366 . S
C2066 C2067 1.414 . S
C2066 C2069 1.499 . S
C2067 H2041 0.950 . S
C2067 C2066 1.414 . S
C2067 C2068 1.374 . S
C2068 H2042 0.950 . S
C2068 C2064 1.385 . S
C2068 C2067 1.374 . S
C2069 C2066 1.499 . S
C2069 C2070 1.373 . S
C2069 C2071 1.389 . S
C2070 H2043 0.950 . S
C2070 C2056 1.377 1_655 S
C2070 C2069 1.373 . S
C2071 C2055 1.377 1_655 S
C2071 C2069 1.389 . S
C2071 C2072 1.524 . S
C2072 C2071 1.524 . S
C2072 C2073 1.397 . S
C2072 C2077 1.363 . S
C2073 H2044 0.950 . S
C2073 C2072 1.397 . S
C2073 C2074 1.334 . S
C2074 H2045 0.950 . S
C2074 C2073 1.334 . S
C2074 C2075 1.287 . S
C2075 C2074 1.287 . S
C2075 C2076 1.524 . S
C2075 H2078 0.999 . S
C2076 H2046 0.950 . S
C2076 C2075 1.524 . S
C2076 C2077 1.415 . S
C2077 H2047 0.950 1_655 S
C2077 C2072 1.363 . S
C2077 C2076 1.415 . S
H2078 C2075 0.999 . S
H2079 C2060 0.913 . S
H2080 C2098 0.951 . S
H2081 C2100 0.951 . S
H2082 C2102 0.950 . S
H2083 C2103 0.950 . S
H2084 C2105 0.950 . S
H2085 C2108 0.950 . S
H2086 C2109 0.950 . S
H2087 C2111 0.950 . S
H2088 C2112 0.950 . S
H2089 C2113 0.951 . S
H2090 C2115 0.951 . S
H2091 C2117 0.950 . S
H2092 C2118 0.950 . S
H2093 C2120 0.950 . S
H2094 C2123 0.950 . S
H2095 C2124 0.950 . S
H2096 C2126 0.950 . S
H2097 C2127 0.950 . S
C2098 H2080 0.951 . S
C2098 C2099 1.366 . S
C2098 C2100 1.388 . S
C2099 C2098 1.366 . S
C2099 C2103 1.385 . S
C2100 H2081 0.951 . S
C2100 C2098 1.388 . S
C2100 C2101 1.366 . S
C2101 C2100 1.366 . S
C2101 C2102 1.414 . S
C2101 C2104 1.499 . S
C2102 H2082 0.950 . S
C2102 C2101 1.414 . S
C2102 C2103 1.374 . S
C2103 H2083 0.950 . S
C2103 C2099 1.385 . S
C2103 C2102 1.374 . S
C2104 C2101 1.499 . S
C2104 C2105 1.373 1_554 S
C2104 C2106 1.389 1_565 S
C2105 H2084 0.950 . S
C2105 C2104 1.373 1_556 S
C2105 C2121 1.377 . S
C2106 C2104 1.389 1_545 S
C2106 C2107 1.524 . S
C2106 C2120 1.377 . S
C2107 C2106 1.524 . S
C2107 C2108 1.397 1_545 S
C2107 C2112 1.363 . S
C2108 H2085 0.950 . S
C2108 C2107 1.397 1_565 S
C2108 C2109 1.334 . S
C2109 H2086 0.950 . S
C2109 C2108 1.334 . S
C2109 C2110 1.287 1_565 S
C2110 C2109 1.287 1_545 S
C2110 C2111 1.524 . S
C2110 H2129 0.913 . S
C2111 H2087 0.950 . S
C2111 C2110 1.524 . S
C2111 C2112 1.415 . S
C2112 H2088 0.950 . S
C2112 C2107 1.363 . S
C2112 C2111 1.415 . S
C2113 H2089 0.951 . S
C2113 C2114 1.366 . S
C2113 C2115 1.388 . S
C2114 C2113 1.366 . S
C2114 C2118 1.385 . S
C2115 H2090 0.951 . S
C2115 C2113 1.388 . S
C2115 C2116 1.366 . S
C2116 C2115 1.366 . S
C2116 C2117 1.414 . S
C2116 C2119 1.499 . S
C2117 H2091 0.950 . S
C2117 C2116 1.414 . S
C2117 C2118 1.374 . S
C2118 H2092 0.950 . S
C2118 C2114 1.385 . S
C2118 C2117 1.374 . S
C2119 C2116 1.499 . S
C2119 C2120 1.373 1_556 S
C2119 C2121 1.389 1_545 S
C2120 H2093 0.950 . S
C2120 C2106 1.377 . S
C2120 C2119 1.373 1_554 S
C2121 C2105 1.377 . S
C2121 C2119 1.389 1_565 S
C2121 C2122 1.524 . S
C2122 C2121 1.524 . S
C2122 C2123 1.397 1_565 S
C2122 C2127 1.363 . S
C2123 H2094 0.950 . S
C2123 C2122 1.397 1_545 S
C2123 C2124 1.334 . S
C2124 H2095 0.950 . S
C2124 C2123 1.334 . S
C2124 C2125 1.287 1_545 S
C2125 C2124 1.287 1_565 S
C2125 C2126 1.524 . S
C2125 H2128 0.999 . S
C2126 H2096 0.950 . S
C2126 C2125 1.524 . S
C2126 C2127 1.415 . S
C2127 H2097 0.950 . S
C2127 C2122 1.363 . S
C2127 C2126 1.415 . S
H2128 C2125 0.999 . S
H2129 C2110 0.913 . S
H2130 C2148 0.951 . S
H2131 C2150 0.951 . S
H2132 C2152 0.950 . S
H2133 C2153 0.950 . S
H2134 C2155 0.950 . S
H2135 C2158 0.950 . S
H2136 C2159 0.950 . S
H2137 C2161 0.950 . S
H2138 C2162 0.950 . S
H2139 C2163 0.951 . S
H2140 C2165 0.951 . S
H2141 C2167 0.950 . S
H2142 C2168 0.950 . S
H2143 C2170 0.950 . S
H2144 C2173 0.950 . S
H2145 C2174 0.950 . S
H2146 C2176 0.950 . S
H2147 C2177 0.950 . S
C2148 H2130 0.951 . S
C2148 C2149 1.366 . S
C2148 C2150 1.388 . S
C2149 C2148 1.366 . S
C2149 C2153 1.385 . S
C2150 H2131 0.951 . S
C2150 C2148 1.388 . S
C2150 C2151 1.366 . S
C2151 C2150 1.366 . S
C2151 C2152 1.414 . S
C2151 C2154 1.499 . S
C2152 H2132 0.950 . S
C2152 C2151 1.414 . S
C2152 C2153 1.374 . S
C2153 H2133 0.950 . S
C2153 C2149 1.385 . S
C2153 C2152 1.374 . S
C2154 C2151 1.499 . S
C2154 C2155 1.373 . S
C2154 C2156 1.389 . S
C2155 H2134 0.950 . S
C2155 C2154 1.373 . S
C2155 C2171 1.377 . S
C2156 C2154 1.389 . S
C2156 C2157 1.524 . S
C2156 C2170 1.377 . S
C2157 C2156 1.524 . S
C2157 C2158 1.397 . S
C2157 C2162 1.363 . S
C2158 H2135 0.950 . S
C2158 C2157 1.397 . S
C2158 C2159 1.334 . S
C2159 H2136 0.950 . S
C2159 C2158 1.334 . S
C2159 C2160 1.287 . S
C2160 C2159 1.287 . S
C2160 C2161 1.524 . S
C2160 H2179 0.913 . S
C2161 H2137 0.950 . S
C2161 C2160 1.524 . S
C2161 C2162 1.415 . S
C2162 H2138 0.950 . S
C2162 C2157 1.363 . S
C2162 C2161 1.415 . S
C2163 H2139 0.951 . S
C2163 C2164 1.366 . S
C2163 C2165 1.388 . S
C2164 C2163 1.366 . S
C2164 C2168 1.385 . S
C2165 H2140 0.951 . S
C2165 C2163 1.388 . S
C2165 C2166 1.366 . S
C2166 C2165 1.366 . S
C2166 C2167 1.414 . S
C2166 C2169 1.499 . S
C2167 H2141 0.950 . S
C2167 C2166 1.414 . S
C2167 C2168 1.374 . S
C2168 H2142 0.950 . S
C2168 C2164 1.385 . S
C2168 C2167 1.374 . S
C2169 C2166 1.499 . S
C2169 C2170 1.373 . S
C2169 C2171 1.389 . S
C2170 H2143 0.950 . S
C2170 C2156 1.377 . S
C2170 C2169 1.373 . S
C2171 C2155 1.377 . S
C2171 C2169 1.389 . S
C2171 C2172 1.524 . S
C2172 C2171 1.524 . S
C2172 C2173 1.397 . S
C2172 C2177 1.363 . S
C2173 H2144 0.950 . S
C2173 C2172 1.397 . S
C2173 C2174 1.334 . S
C2174 H2145 0.950 . S
C2174 C2173 1.334 . S
C2174 C2175 1.287 . S
C2175 C2174 1.287 . S
C2175 C2176 1.524 . S
C2175 H2178 0.999 . S
C2176 H2146 0.950 . S
C2176 C2175 1.524 . S
C2176 C2177 1.415 . S
C2177 H2147 0.950 . S
C2177 C2172 1.363 . S
C2177 C2176 1.415 . S
H2178 C2175 0.999 . S
H2179 C2160 0.913 . S
H2180 C2198 0.951 . S
H2181 C2200 0.951 . S
H2182 C2202 0.950 . S
H2183 C2203 0.950 . S
H2184 C2205 0.950 . S
H2185 C2208 0.937 1_554 S
H2186 C2209 0.950 . S
H2187 C2211 0.950 . S
H2188 C2212 0.950 1_455 S
H2189 C2213 0.951 . S
H2190 C2215 0.951 . S
H2191 C2217 0.950 . S
H2192 C2218 0.950 . S
H2193 C2220 0.950 . S
H2194 C2223 0.937 1_556 S
H2195 C2224 0.950 . S
H2196 C2226 0.950 . S
H2197 C2227 0.950 1_655 S
C2198 H2180 0.951 . S
C2198 C2199 1.366 . S
C2198 C2200 1.388 . S
C2199 C2198 1.366 . S
C2199 C2203 1.385 . S
C2200 H2181 0.951 . S
C2200 C2198 1.388 . S
C2200 C2201 1.366 . S
C2201 C2200 1.366 . S
C2201 C2202 1.414 . S
C2201 C2204 1.499 . S
C2202 H2182 0.950 . S
C2202 C2201 1.414 . S
C2202 C2203 1.374 . S
C2203 H2183 0.950 . S
C2203 C2199 1.385 . S
C2203 C2202 1.374 . S
C2204 C2201 1.499 . S
C2204 C2205 1.373 . S
C2204 C2206 1.389 . S
C2205 H2184 0.950 . S
C2205 C2204 1.373 . S
C2205 C2221 1.377 1_656 S
C2206 C2204 1.389 . S
C2206 C2207 1.524 . S
C2206 C2220 1.377 1_656 S
C2207 C2206 1.524 . S
C2207 C2208 1.397 . S
C2207 C2212 1.363 . S
C2208 H2185 0.937 1_556 S
C2208 C2207 1.397 . S
C2208 C2209 1.334 . S
C2209 H2186 0.950 . S
C2209 C2208 1.334 . S
C2209 C2210 1.287 . S
C2210 C2209 1.287 . S
C2210 C2211 1.524 . S
C2210 H2229 0.913 . S
C2211 H2187 0.950 . S
C2211 C2210 1.524 . S
C2211 C2212 1.415 . S
C2212 H2188 0.950 1_655 S
C2212 C2207 1.363 . S
C2212 C2211 1.415 . S
C2213 H2189 0.951 . S
C2213 C2214 1.366 . S
C2213 C2215 1.388 . S
C2214 C2213 1.366 . S
C2214 C2218 1.385 . S
C2215 H2190 0.951 . S
C2215 C2213 1.388 . S
C2215 C2216 1.366 . S
C2216 C2215 1.366 . S
C2216 C2217 1.414 . S
C2216 C2219 1.499 . S
C2217 H2191 0.950 . S
C2217 C2216 1.414 . S
C2217 C2218 1.374 . S
C2218 H2192 0.950 . S
C2218 C2214 1.385 . S
C2218 C2217 1.374 . S
C2219 C2216 1.499 . S
C2219 C2220 1.373 . S
C2219 C2221 1.389 . S
C2220 H2193 0.950 . S
C2220 C2206 1.377 1_454 S
C2220 C2219 1.373 . S
C2221 C2205 1.377 1_454 S
C2221 C2219 1.389 . S
C2221 C2222 1.524 . S
C2222 C2221 1.524 . S
C2222 C2223 1.397 . S
C2222 C2227 1.363 . S
C2223 H2194 0.937 1_554 S
C2223 C2222 1.397 . S
C2223 C2224 1.334 . S
C2224 H2195 0.950 . S
C2224 C2223 1.334 . S
C2224 C2225 1.287 . S
C2225 C2224 1.287 . S
C2225 C2226 1.524 . S
C2225 H2228 0.999 . S
C2226 H2196 0.950 . S
C2226 C2225 1.524 . S
C2226 C2227 1.415 . S
C2227 H2197 0.950 1_455 S
C2227 C2222 1.363 . S
C2227 C2226 1.415 . S
H2228 C2225 0.999 . S
H2229 C2210 0.913 . S
H2230 C2248 0.951 . S
H2231 C2250 0.951 . S
H2232 C2252 0.950 . S
H2233 C2253 0.950 . S
H2234 C2255 0.958 . S
H2235 C2258 0.950 . S
H2236 C2259 0.950 . S
H2237 C2261 0.950 . S
H2238 C2262 0.950 . S
H2239 C2263 0.951 . S
H2240 C2265 0.951 . S
H2241 C2267 0.950 . S
H2242 C2268 0.950 . S
H2243 C2270 0.958 . S
H2244 C2273 0.950 . S
H2245 C2274 0.950 . S
H2246 C2276 0.950 . S
H2247 C2277 0.950 . S
C2248 H2230 0.951 . S
C2248 C2249 1.366 . S
C2248 C2250 1.388 . S
C2249 C2248 1.366 . S
C2249 C2253 1.385 . S
C2250 H2231 0.951 . S
C2250 C2248 1.388 . S
C2250 C2251 1.366 . S
C2251 C2250 1.366 . S
C2251 C2252 1.414 . S
C2251 C2254 1.499 . S
C2252 H2232 0.950 . S
C2252 C2251 1.414 . S
C2252 C2253 1.374 . S
C2253 H2233 0.950 . S
C2253 C2249 1.385 . S
C2253 C2252 1.374 . S
C2254 C2251 1.499 . S
C2254 C2255 1.371 1_565 S
C2254 C2256 1.389 . S
C2255 H2234 0.958 . S
C2255 C2254 1.371 1_545 S
C2255 C2271 1.381 . S
C2256 C2254 1.389 . S
C2256 C2257 1.524 . S
C2256 C2270 1.381 . S
C2257 C2256 1.524 . S
C2257 C2258 1.397 . S
C2257 C2262 1.363 . S
C2258 H2235 0.950 . S
C2258 C2257 1.397 . S
C2258 C2259 1.334 . S
C2259 H2236 0.950 . S
C2259 C2258 1.334 . S
C2259 C2260 1.287 . S
C2260 C2259 1.287 . S
C2260 C2261 1.524 . S
C2260 H2279 0.913 . S
C2261 H2237 0.950 . S
C2261 C2260 1.524 . S
C2261 C2262 1.415 . S
C2262 H2238 0.950 . S
C2262 C2257 1.363 . S
C2262 C2261 1.415 . S
C2263 H2239 0.951 . S
C2263 C2264 1.366 . S
C2263 C2265 1.388 . S
C2264 C2263 1.366 . S
C2264 C2268 1.385 . S
C2265 H2240 0.951 . S
C2265 C2263 1.388 . S
C2265 C2266 1.366 . S
C2266 C2265 1.366 . S
C2266 C2267 1.414 . S
C2266 C2269 1.499 . S
C2267 H2241 0.950 . S
C2267 C2266 1.414 . S
C2267 C2268 1.374 . S
C2268 H2242 0.950 . S
C2268 C2264 1.385 . S
C2268 C2267 1.374 . S
C2269 C2266 1.499 . S
C2269 C2270 1.371 1_545 S
C2269 C2271 1.389 . S
C2270 H2243 0.958 . S
C2270 C2256 1.381 . S
C2270 C2269 1.371 1_565 S
C2271 C2255 1.381 . S
C2271 C2269 1.389 . S
C2271 C2272 1.524 . S
C2272 C2271 1.524 . S
C2272 C2273 1.397 . S
C2272 C2277 1.363 . S
C2273 H2244 0.950 . S
C2273 C2272 1.397 . S
C2273 C2274 1.334 . S
C2274 H2245 0.950 . S
C2274 C2273 1.334 . S
C2274 C2275 1.287 . S
C2275 C2274 1.287 . S
C2275 C2276 1.524 . S
C2275 H2278 0.999 . S
C2276 H2246 0.950 . S
C2276 C2275 1.524 . S
C2276 C2277 1.415 . S
C2277 H2247 0.950 . S
C2277 C2272 1.363 . S
C2277 C2276 1.415 . S
H2278 C2275 0.999 . S
H2279 C2260 0.913 . S
C499 C171 1.217 . S
C514 C16 1.249 . S
C549 C211 1.217 . S
C564 C56 1.248 . S
C599 C96 1.249 . S
C614 C11 1.219 . S
C649 C136 1.248 . S
C664 C51 1.217 . S
C699 C176 1.249 . S
C714 C91 1.217 . S
C749 C131 1.217 . S
C764 C216 1.248 . S
C799 C331 1.218 . S
C814 C256 1.249 . S
C849 C296 1.249 . S
C864 C371 1.218 . S
C899 C411 1.218 . S
C914 C336 1.249 . S
C949 C376 1.249 . S
C964 C451 1.218 . S
C999 C416 1.248 . S
C1014 C251 1.217 . S
C1049 C291 1.218 . S
C1064 C456 1.248 . S
C1099 C162 1.764 . S
C1114 C7 1.762 . S
C1149 C47 1.762 . S
C1164 C202 1.763 . S
C1199 C87 1.762 . S
C1214 C2 1.764 . S
C1249 C127 1.762 . S
C1264 C42 1.763 . S
C1299 C82 1.763 . S
C1314 C167 1.762 . S
C1349 C122 1.764 . S
C1364 C207 1.762 . S
C1399 C322 1.764 . S
C1414 C247 1.762 . S
C1449 C287 1.762 . S
C1464 C362 1.763 . S
C1499 C327 1.762 . S
C1514 C402 1.764 . S
C1549 C442 1.764 . S
C1564 C367 1.762 . S
C1599 C407 1.762 . S
C1614 C242 1.764 . S
C1649 C282 1.764 . S
C1664 C447 1.762 . S
C1699 C419 1.662 . S
C1714 C19 1.662 . S
C1749 C59 1.661 . S
C1764 C459 1.662 . S
C1799 C99 1.663 . S
C1814 C259 1.662 . S
C1849 C139 1.662 . S
C1864 C299 1.662 . S
C1899 C179 1.663 . S
C1914 C339 1.663 . S
C1949 C379 1.662 . S
C1964 C219 1.661 . S
C1999 C370 2.147 . S
C2014 C10 2.147 . S
C2049 C410 2.147 . S
C2064 C50 2.147 . S
C2099 C90 2.147 . S
C2114 C450 2.147 . S
C2149 C130 2.147 . S
C2164 C250 2.147 . S
C2199 C290 2.147 . S
C2214 C170 2.147 . S
C2249 C330 2.147 . S
C2264 C210 2.147 . S
