# Generated by pormake.
# Topology uka, (4)-cn, num edge types: 1
# Building blocks:
#     Node 0, Type 0, BuildingBlock: KUFVIS_clean_sbu_0, # of connection points: 4
#     Node 1, Type 0, BuildingBlock: KUFVIS_clean_sbu_0, # of connection points: 4
#     Node 2, Type 0, BuildingBlock: KUFVIS_clean_sbu_0, # of connection points: 4
#     Node 3, Type 0, BuildingBlock: KUFVIS_clean_sbu_0, # of connection points: 4
#     Node 4, Type 0, BuildingBlock: KUFVIS_clean_sbu_0, # of connection points: 4
#     Node 5, Type 0, BuildingBlock: KUFVIS_clean_sbu_0, # of connection points: 4
#     Node 6, Type 0, BuildingBlock: KUFVIS_clean_sbu_0, # of connection points: 4
#     Node 7, Type 0, BuildingBlock: KUFVIS_clean_sbu_0, # of connection points: 4
#     Node 8, Type 0, BuildingBlock: KUFVIS_clean_sbu_0, # of connection points: 4
#     Node 9, Type 0, BuildingBlock: KUFVIS_clean_sbu_0, # of connection points: 4
#     Node 10, Type 0, BuildingBlock: KUFVIS_clean_sbu_0, # of connection points: 4
#     Node 11, Type 0, BuildingBlock: KUFVIS_clean_sbu_0, # of connection points: 4
#     Node 12, Type 0, BuildingBlock: KUFVIS_clean_sbu_0, # of connection points: 4
#     Node 13, Type 0, BuildingBlock: KUFVIS_clean_sbu_0, # of connection points: 4
#     Node 14, Type 0, BuildingBlock: KUFVIS_clean_sbu_0, # of connection points: 4
#     Node 15, Type 0, BuildingBlock: KUFVIS_clean_sbu_0, # of connection points: 4
#     Node 16, Type 0, BuildingBlock: KUFVIS_clean_sbu_0, # of connection points: 4
#     Node 17, Type 0, BuildingBlock: KUFVIS_clean_sbu_0, # of connection points: 4
#     Node 18, Type 0, BuildingBlock: KUFVIS_clean_sbu_0, # of connection points: 4
#     Node 19, Type 0, BuildingBlock: KUFVIS_clean_sbu_0, # of connection points: 4
#     Node 20, Type 0, BuildingBlock: KUFVIS_clean_sbu_0, # of connection points: 4
#     Node 21, Type 0, BuildingBlock: KUFVIS_clean_sbu_0, # of connection points: 4
#     Node 22, Type 0, BuildingBlock: KUFVIS_clean_sbu_0, # of connection points: 4
#     Node 23, Type 0, BuildingBlock: KUFVIS_clean_sbu_0, # of connection points: 4
#     Node 24, Type 0, BuildingBlock: KUFVIS_clean_sbu_0, # of connection points: 4
#     Node 25, Type 0, BuildingBlock: KUFVIS_clean_sbu_0, # of connection points: 4
#     Node 26, Type 0, BuildingBlock: KUFVIS_clean_sbu_0, # of connection points: 4
#     Node 27, Type 0, BuildingBlock: KUFVIS_clean_sbu_0, # of connection points: 4
#     Node 28, Type 0, BuildingBlock: KUFVIS_clean_sbu_0, # of connection points: 4
#     Node 29, Type 0, BuildingBlock: KUFVIS_clean_sbu_0, # of connection points: 4
#     Node 30, Type 0, BuildingBlock: KUFVIS_clean_sbu_0, # of connection points: 4
#     Node 31, Type 0, BuildingBlock: KUFVIS_clean_sbu_0, # of connection points: 4
#     Edge 32, Type (0, 0), BuildingBlock: EZIPEK_clean_linker_0, # of connection points: 2
#     Edge 33, Type (0, 0), BuildingBlock: EZIPEK_clean_linker_0, # of connection points: 2
#     Edge 34, Type (0, 0), BuildingBlock: EZIPEK_clean_linker_0, # of connection points: 2
#     Edge 35, Type (0, 0), BuildingBlock: EZIPEK_clean_linker_0, # of connection points: 2
#     Edge 36, Type (0, 0), BuildingBlock: EZIPEK_clean_linker_0, # of connection points: 2
#     Edge 37, Type (0, 0), BuildingBlock: EZIPEK_clean_linker_0, # of connection points: 2
#     Edge 38, Type (0, 0), BuildingBlock: EZIPEK_clean_linker_0, # of connection points: 2
#     Edge 39, Type (0, 0), BuildingBlock: EZIPEK_clean_linker_0, # of connection points: 2
#     Edge 40, Type (0, 0), BuildingBlock: EZIPEK_clean_linker_0, # of connection points: 2
#     Edge 41, Type (0, 0), BuildingBlock: EZIPEK_clean_linker_0, # of connection points: 2
#     Edge 42, Type (0, 0), BuildingBlock: EZIPEK_clean_linker_0, # of connection points: 2
#     Edge 43, Type (0, 0), BuildingBlock: EZIPEK_clean_linker_0, # of connection points: 2
#     Edge 44, Type (0, 0), BuildingBlock: EZIPEK_clean_linker_0, # of connection points: 2
#     Edge 45, Type (0, 0), BuildingBlock: EZIPEK_clean_linker_0, # of connection points: 2
#     Edge 46, Type (0, 0), BuildingBlock: EZIPEK_clean_linker_0, # of connection points: 2
#     Edge 47, Type (0, 0), BuildingBlock: EZIPEK_clean_linker_0, # of connection points: 2
#     Edge 48, Type (0, 0), BuildingBlock: EZIPEK_clean_linker_0, # of connection points: 2
#     Edge 49, Type (0, 0), BuildingBlock: EZIPEK_clean_linker_0, # of connection points: 2
#     Edge 50, Type (0, 0), BuildingBlock: EZIPEK_clean_linker_0, # of connection points: 2
#     Edge 51, Type (0, 0), BuildingBlock: EZIPEK_clean_linker_0, # of connection points: 2
#     Edge 52, Type (0, 0), BuildingBlock: EZIPEK_clean_linker_0, # of connection points: 2
#     Edge 53, Type (0, 0), BuildingBlock: EZIPEK_clean_linker_0, # of connection points: 2
#     Edge 54, Type (0, 0), BuildingBlock: EZIPEK_clean_linker_0, # of connection points: 2
#     Edge 55, Type (0, 0), BuildingBlock: EZIPEK_clean_linker_0, # of connection points: 2
#     Edge 56, Type (0, 0), BuildingBlock: EZIPEK_clean_linker_0, # of connection points: 2
#     Edge 57, Type (0, 0), BuildingBlock: EZIPEK_clean_linker_0, # of connection points: 2
#     Edge 58, Type (0, 0), BuildingBlock: EZIPEK_clean_linker_0, # of connection points: 2
#     Edge 59, Type (0, 0), BuildingBlock: EZIPEK_clean_linker_0, # of connection points: 2
#     Edge 60, Type (0, 0), BuildingBlock: EZIPEK_clean_linker_0, # of connection points: 2
#     Edge 61, Type (0, 0), BuildingBlock: EZIPEK_clean_linker_0, # of connection points: 2
#     Edge 62, Type (0, 0), BuildingBlock: EZIPEK_clean_linker_0, # of connection points: 2
#     Edge 63, Type (0, 0), BuildingBlock: EZIPEK_clean_linker_0, # of connection points: 2
#     Edge 64, Type (0, 0), BuildingBlock: EZIPEK_clean_linker_0, # of connection points: 2
#     Edge 65, Type (0, 0), BuildingBlock: EZIPEK_clean_linker_0, # of connection points: 2
#     Edge 66, Type (0, 0), BuildingBlock: EZIPEK_clean_linker_0, # of connection points: 2
#     Edge 67, Type (0, 0), BuildingBlock: EZIPEK_clean_linker_0, # of connection points: 2
#     Edge 68, Type (0, 0), BuildingBlock: EZIPEK_clean_linker_0, # of connection points: 2
#     Edge 69, Type (0, 0), BuildingBlock: EZIPEK_clean_linker_0, # of connection points: 2
#     Edge 70, Type (0, 0), BuildingBlock: EZIPEK_clean_linker_0, # of connection points: 2
#     Edge 71, Type (0, 0), BuildingBlock: EZIPEK_clean_linker_0, # of connection points: 2
#     Edge 72, Type (0, 0), BuildingBlock: EZIPEK_clean_linker_0, # of connection points: 2
#     Edge 73, Type (0, 0), BuildingBlock: EZIPEK_clean_linker_0, # of connection points: 2
#     Edge 74, Type (0, 0), BuildingBlock: EZIPEK_clean_linker_0, # of connection points: 2
#     Edge 75, Type (0, 0), BuildingBlock: EZIPEK_clean_linker_0, # of connection points: 2
#     Edge 76, Type (0, 0), BuildingBlock: EZIPEK_clean_linker_0, # of connection points: 2
#     Edge 77, Type (0, 0), BuildingBlock: EZIPEK_clean_linker_0, # of connection points: 2
#     Edge 78, Type (0, 0), BuildingBlock: EZIPEK_clean_linker_0, # of connection points: 2
#     Edge 79, Type (0, 0), BuildingBlock: EZIPEK_clean_linker_0, # of connection points: 2
#     Edge 80, Type (0, 0), BuildingBlock: EZIPEK_clean_linker_0, # of connection points: 2
#     Edge 81, Type (0, 0), BuildingBlock: EZIPEK_clean_linker_0, # of connection points: 2
#     Edge 82, Type (0, 0), BuildingBlock: EZIPEK_clean_linker_0, # of connection points: 2
#     Edge 83, Type (0, 0), BuildingBlock: EZIPEK_clean_linker_0, # of connection points: 2
#     Edge 84, Type (0, 0), BuildingBlock: EZIPEK_clean_linker_0, # of connection points: 2
#     Edge 85, Type (0, 0), BuildingBlock: EZIPEK_clean_linker_0, # of connection points: 2
#     Edge 86, Type (0, 0), BuildingBlock: EZIPEK_clean_linker_0, # of connection points: 2
#     Edge 87, Type (0, 0), BuildingBlock: EZIPEK_clean_linker_0, # of connection points: 2
#     Edge 88, Type (0, 0), BuildingBlock: EZIPEK_clean_linker_0, # of connection points: 2
#     Edge 89, Type (0, 0), BuildingBlock: EZIPEK_clean_linker_0, # of connection points: 2
#     Edge 90, Type (0, 0), BuildingBlock: EZIPEK_clean_linker_0, # of connection points: 2
#     Edge 91, Type (0, 0), BuildingBlock: EZIPEK_clean_linker_0, # of connection points: 2
#     Edge 92, Type (0, 0), BuildingBlock: EZIPEK_clean_linker_0, # of connection points: 2
#     Edge 93, Type (0, 0), BuildingBlock: EZIPEK_clean_linker_0, # of connection points: 2
#     Edge 94, Type (0, 0), BuildingBlock: EZIPEK_clean_linker_0, # of connection points: 2
#     Edge 95, Type (0, 0), BuildingBlock: EZIPEK_clean_linker_0, # of connection points: 2
# Relax obj value: 0.146
# Max RMSD: 0.209
# Mean RMSD: 0.204
data_MOF--net-uka--node1-KUFVIS_clean_sbu_0--edge1-EZIPEK_clean_linker_0
_symmetry_space_group_name_H-M    P1
_symmetry_Int_Tables_number       1
_symmetry_cell_setting            triclinic
loop_
_symmetry_equiv_pos_as_xyz
'x, y, z'
_cell_length_a     41.980025
_cell_length_b     44.21044
_cell_length_c     30.72883
_cell_angle_alpha  89.982927
_cell_angle_beta   90.077879
_cell_angle_gamma 90.029543
loop_
_atom_site_label
_atom_site_type_symbol
_atom_site_fract_x
_atom_site_fract_y
_atom_site_fract_z
_atom_type_partial_charge
Mn0 Mn 0.13582 0.27499 0.28805 0.0
Mn1 Mn 0.13574 0.21683 0.21689 0.0
C2 C 0.13099 0.22572 0.3136 0.0
C3 C 0.10881 0.31074 0.32895 0.0
C4 C 0.19497 0.25171 0.24321 0.0
O5 O 0.12556 0.29549 0.22998 0.0
O6 O 0.11801 0.25427 0.1873 0.0
C7 C 0.0679 0.2048 0.19601 0.0
N8 N 0.09552 0.19621 0.21546 0.0
C9 C 0.07209 0.14881 0.23737 0.0
C10 C 0.04289 0.15823 0.22009 0.0
C11 C 0.04082 0.18625 0.1989 0.0
C12 C 0.0981 0.16855 0.23399 0.0
H13 H 0.06706 0.22502 0.17708 0.0
C14 C 0.11674 0.28313 0.19427 0.0
O15 O 0.13874 0.31426 0.31971 0.0
O16 O 0.09427 0.28759 0.31231 0.0
N17 N 0.15158 0.18039 0.2434 0.0
C18 C 0.18212 0.1732 0.25458 0.0
C19 C 0.18869 0.14503 0.27365 0.0
C20 C 0.1639 0.12431 0.28067 0.0
C21 C 0.13287 0.13173 0.26767 0.0
C22 C 0.12779 0.16013 0.24861 0.0
H23 H 0.20146 0.18872 0.24912 0.0
O24 O 0.14129 0.2471 0.3388 0.0
O25 O 0.12492 0.23377 0.27375 0.0
O26 O 0.18217 0.26898 0.27117 0.0
O27 O 0.17906 0.23469 0.21754 0.0
C28 C 0.10685 0.11191 0.27256 0.0
C29 C 0.07647 0.12044 0.25736 0.0
H30 H 0.02221 0.14371 0.2219 0.0
H31 H 0.0186 0.19326 0.18412 0.0
H32 H 0.21281 0.13935 0.28306 0.0
H33 H 0.16902 0.10265 0.2956 0.0
H34 H 0.11001 0.08993 0.28754 0.0
H35 H 0.05669 0.10488 0.2608 0.0
Mn36 Mn 0.96519 0.86011 0.52255 0.0
Mn37 Mn 0.02466 0.87131 0.45071 0.0
C38 C 0.01621 0.86811 0.5481 0.0
C39 C 0.9349 0.82628 0.56318 0.0
C40 C 0.98004 0.92131 0.48132 0.0
O41 O 0.94491 0.84728 0.46571 0.0
O42 O 0.9868 0.85217 0.42094 0.0
C43 C 0.03884 0.80702 0.43079 0.0
N44 N 0.04879 0.83483 0.4443 0.0
C45 C 0.10256 0.81689 0.45334 0.0
C46 C 0.09296 0.78825 0.43893 0.0
C47 C 0.06095 0.78328 0.42794 0.0
C48 C 0.0795 0.83975 0.45558 0.0
H49 H 0.01425 0.80293 0.42233 0.0
C50 C 0.95802 0.84383 0.42876 0.0
O51 O 0.92443 0.8534 0.5551 0.0
O52 O 0.96172 0.81858 0.54572 0.0
N53 N 0.06299 0.8883 0.4743 0.0
C54 C 0.06843 0.91698 0.4889 0.0
C55 C 0.09915 0.92527 0.50249 0.0
C56 C 0.12408 0.90419 0.50021 0.0
C57 C 0.11807 0.87497 0.48474 0.0
C58 C 0.087 0.86802 0.47145 0.0
H59 H 0.04953 0.93349 0.49014 0.0
O60 O 0.99159 0.8715 0.57291 0.0
O61 O 0.01043 0.85861 0.50857 0.0
O62 O 0.96233 0.90486 0.50538 0.0
O63 O 0.00231 0.91048 0.4575 0.0
C64 C 0.14175 0.8525 0.48205 0.0
C65 C 0.13397 0.82343 0.46646 0.0
H66 H 0.10986 0.76982 0.43666 0.0
H67 H 0.05348 0.76119 0.41714 0.0
H68 H 0.10367 0.94792 0.51433 0.0
H69 H 0.14786 0.91067 0.5099 0.0
H70 H 0.16595 0.85724 0.49227 0.0
H71 H 0.15227 0.8062 0.46507 0.0
Mn72 Mn 0.365 0.7239 0.79892 0.0
Mn73 Mn 0.37304 0.78036 0.72563 0.0
C74 C 0.37486 0.77287 0.82228 0.0
C75 C 0.38809 0.68651 0.84153 0.0
C76 C 0.30909 0.75432 0.75348 0.0
O77 O 0.37298 0.701 0.74239 0.0
O78 O 0.3817 0.74051 0.69764 0.0
C79 C 0.44175 0.77527 0.70458 0.0
N80 N 0.41691 0.79168 0.72059 0.0
C81 C 0.45064 0.83504 0.73166 0.0
C82 C 0.47646 0.81865 0.71504 0.0
C83 C 0.47197 0.78869 0.70131 0.0
C84 C 0.42093 0.82067 0.73347 0.0
H85 H 0.43854 0.75221 0.69392 0.0
C86 C 0.38157 0.71204 0.70584 0.0
O87 O 0.35789 0.6856 0.83234 0.0
O88 O 0.40483 0.70804 0.8245 0.0
N89 N 0.36671 0.81999 0.7493 0.0
C90 C 0.33908 0.83331 0.76246 0.0
C91 C 0.33964 0.86327 0.77762 0.0
C92 C 0.36846 0.87939 0.77844 0.0
C93 C 0.39642 0.86553 0.76351 0.0
C94 C 0.39442 0.8356 0.74882 0.0
H95 H 0.3168 0.82113 0.76186 0.0
O96 O 0.36213 0.75317 0.84822 0.0
O97 O 0.38104 0.76337 0.78318 0.0
O98 O 0.31969 0.73442 0.77979 0.0
O99 O 0.32694 0.77118 0.73002 0.0
C100 C 0.42616 0.88031 0.76247 0.0
C101 C 0.45323 0.86511 0.7464 0.0
H102 H 0.49977 0.82887 0.71248 0.0
H103 H 0.49176 0.776 0.68811 0.0
H104 H 0.3179 0.87388 0.78874 0.0
H105 H 0.3688 0.90246 0.79026 0.0
H106 H 0.42844 0.90341 0.77377 0.0
H107 H 0.47594 0.87674 0.74557 0.0
Mn108 Mn 0.53869 0.13861 0.02181 0.0
Mn109 Mn 0.4827 0.12676 0.94504 0.0
C110 C 0.48619 0.1333 0.04243 0.0
C111 C 0.56769 0.17214 0.06422 0.0
C112 C 0.52238 0.07663 0.98534 0.0
O113 O 0.56271 0.14842 0.96686 0.0
O114 O 0.52386 0.14044 0.91808 0.0
C115 C 0.47675 0.19014 0.91427 0.0
N116 N 0.46313 0.16462 0.93089 0.0
C117 C 0.41129 0.18781 0.93043 0.0
C118 C 0.4247 0.21405 0.91259 0.0
C119 C 0.45762 0.21536 0.905 0.0
C120 C 0.43154 0.16336 0.93906 0.0
H121 H 0.50202 0.19132 0.90806 0.0
C122 C 0.55228 0.14871 0.92805 0.0
O123 O 0.57755 0.14453 0.05853 0.0
O124 O 0.54262 0.18056 0.0429 0.0
N125 N 0.44144 0.11482 0.96532 0.0
C126 C 0.43194 0.08756 0.98149 0.0
C127 C 0.3998 0.08307 0.99228 0.0
C128 C 0.37763 0.10636 0.98534 0.0
C129 C 0.38775 0.13387 0.96751 0.0
C130 C 0.42009 0.13708 0.95745 0.0
H131 H 0.44871 0.06933 0.98602 0.0
O132 O 0.50936 0.12962 0.06967 0.0
O133 O 0.49428 0.14156 0.00301 0.0
O134 O 0.54089 0.09354 0.00748 0.0
O135 O 0.50076 0.08675 0.95977 0.0
C136 C 0.36692 0.15815 0.95901 0.0
C137 C 0.37868 0.1851 0.94044 0.0
H138 H 0.40995 0.23335 0.90478 0.0
H139 H 0.46819 0.23572 0.89179 0.0
H140 H 0.3921 0.06158 0.00545 0.0
H141 H 0.35279 0.10278 0.99309 0.0
H142 H 0.3418 0.15632 0.96661 0.0
H143 H 0.36247 0.20366 0.93415 0.0
Mn144 Mn 0.12357 0.72946 0.21175 0.0
Mn145 Mn 0.12708 0.78621 0.28561 0.0
C146 C 0.12022 0.77907 0.1888 0.0
C147 C 0.0942 0.6951 0.17082 0.0
C148 C 0.18479 0.75125 0.25381 0.0
O149 O 0.11415 0.70797 0.26896 0.0
O150 O 0.10982 0.74839 0.31386 0.0
C151 C 0.06127 0.79835 0.3155 0.0
N152 N 0.08721 0.80689 0.29206 0.0
C153 C 0.06351 0.85542 0.27707 0.0
C154 C 0.03546 0.84585 0.29756 0.0
C155 C 0.03451 0.81733 0.31751 0.0
C156 C 0.08917 0.83517 0.27547 0.0
H157 H 0.06167 0.77789 0.33416 0.0
C158 C 0.10658 0.71996 0.30532 0.0
O159 O 0.12434 0.69088 0.1782 0.0
O160 O 0.08087 0.71826 0.18917 0.0
N161 N 0.14192 0.82331 0.26005 0.0
C162 C 0.17176 0.83055 0.24593 0.0
C163 C 0.17755 0.85923 0.22801 0.0
C164 C 0.15277 0.88042 0.22531 0.0
C165 C 0.12252 0.87289 0.24122 0.0
C166 C 0.11811 0.84386 0.25855 0.0
H167 H 0.19109 0.81461 0.24803 0.0
O168 O 0.12871 0.75784 0.16214 0.0
O169 O 0.1142 0.77064 0.22852 0.0
O170 O 0.17067 0.73423 0.22659 0.0
O171 O 0.17008 0.76829 0.28064 0.0
C172 C 0.09669 0.8932 0.24101 0.0
C173 C 0.06724 0.88453 0.25914 0.0
H174 H 0.01501 0.86067 0.29958 0.0
H175 H 0.01355 0.81034 0.33535 0.0
H176 H 0.20109 0.86496 0.21626 0.0
H177 H 0.15733 0.90254 0.21147 0.0
H178 H 0.09936 0.91572 0.22759 0.0
H179 H 0.04772 0.90053 0.25955 0.0
Mn180 Mn 0.52384 0.86202 0.48366 0.0
Mn181 Mn 0.46621 0.87611 0.55713 0.0
C182 C 0.47203 0.86865 0.46025 0.0
C183 C 0.55385 0.82825 0.44357 0.0
C184 C 0.50889 0.92479 0.5188 0.0
O185 O 0.54565 0.851 0.53991 0.0
O186 O 0.50627 0.86166 0.58678 0.0
C187 C 0.45784 0.81286 0.58755 0.0
N188 N 0.4453 0.83868 0.5703 0.0
C189 C 0.39329 0.81596 0.56562 0.0
C190 C 0.40558 0.78938 0.5839 0.0
C191 C 0.43805 0.78772 0.5945 0.0
C192 C 0.41416 0.84031 0.55934 0.0
H193 H 0.48277 0.81132 0.59582 0.0
C194 C 0.53439 0.85186 0.57824 0.0
O195 O 0.56388 0.85567 0.45016 0.0
O196 O 0.52749 0.82014 0.46213 0.0
N197 N 0.42583 0.88885 0.53449 0.0
C198 C 0.41726 0.91646 0.51853 0.0
C199 C 0.3857 0.92139 0.5051 0.0
C200 C 0.36305 0.89822 0.5095 0.0
C201 C 0.37205 0.87046 0.52765 0.0
C202 C 0.40387 0.86682 0.54036 0.0
H203 H 0.43437 0.93461 0.51602 0.0
O204 O 0.49595 0.87186 0.43414 0.0
O205 O 0.47892 0.8604 0.50009 0.0
O206 O 0.52742 0.90694 0.49844 0.0
O207 O 0.48577 0.91571 0.54268 0.0
C208 C 0.35062 0.84632 0.53382 0.0
C209 C 0.36123 0.81907 0.55277 0.0
H210 H 0.39034 0.77004 0.58959 0.0
H211 H 0.4478 0.76708 0.60797 0.0
H212 H 0.3788 0.94308 0.49177 0.0
H213 H 0.33865 0.90208 0.49961 0.0
H214 H 0.32591 0.84846 0.52407 0.0
H215 H 0.34458 0.8006 0.55716 0.0
Mn216 Mn 0.37104 0.27645 0.70741 0.0
Mn217 Mn 0.38059 0.22026 0.7806 0.0
C218 C 0.37843 0.22717 0.68431 0.0
C219 C 0.39394 0.31222 0.66167 0.0
C220 C 0.31617 0.2467 0.75563 0.0
O221 O 0.38189 0.2997 0.7628 0.0
O222 O 0.39089 0.2602 0.80742 0.0
C223 C 0.45029 0.22515 0.79548 0.0
N224 N 0.42449 0.20856 0.7829 0.0
C225 C 0.45716 0.16461 0.77102 0.0
C226 C 0.48393 0.18112 0.78438 0.0
C227 C 0.4805 0.21154 0.79646 0.0
C228 C 0.42761 0.1793 0.77084 0.0
H229 H 0.44789 0.24852 0.80506 0.0
C230 C 0.39157 0.28863 0.79885 0.0
O231 O 0.36414 0.31435 0.67279 0.0
O232 O 0.41043 0.2907 0.6791 0.0
N233 N 0.37293 0.18049 0.75809 0.0
C234 C 0.34473 0.1674 0.74663 0.0
C235 C 0.34434 0.13725 0.73231 0.0
C236 C 0.37282 0.12067 0.73067 0.0
C237 C 0.40141 0.13431 0.74379 0.0
C238 C 0.40037 0.16448 0.75761 0.0
H239 H 0.32268 0.17989 0.74799 0.0
O240 O 0.36521 0.24694 0.659 0.0
O241 O 0.38661 0.23678 0.72263 0.0
O242 O 0.32626 0.26707 0.72968 0.0
O243 O 0.33449 0.22973 0.77831 0.0
C244 C 0.43089 0.1191 0.74376 0.0
C245 C 0.45873 0.13419 0.75755 0.0
H246 H 0.50722 0.17071 0.78543 0.0
H247 H 0.50112 0.22431 0.80686 0.0
H248 H 0.32213 0.12682 0.72257 0.0
H249 H 0.37243 0.09742 0.71955 0.0
H250 H 0.43243 0.09577 0.73318 0.0
H251 H 0.48128 0.12229 0.75728 0.0
Mn252 Mn 0.9602 0.13478 0.97579 0.0
Mn253 Mn 0.02111 0.12193 0.04494 0.0
C254 C 0.01029 0.13097 0.94636 0.0
C255 C 0.92622 0.16845 0.94165 0.0
C256 C 0.98238 0.07155 0.00636 0.0
O257 O 0.93996 0.14206 0.03441 0.0
O258 O 0.98032 0.12985 0.07748 0.0
C259 C 0.02213 0.18367 0.08143 0.0
N260 N 0.03735 0.16081 0.06038 0.0
C261 C 0.08672 0.18845 0.0606 0.0
C262 C 0.07148 0.21238 0.08205 0.0
C263 C 0.03909 0.20977 0.09274 0.0
C264 C 0.06855 0.16285 0.05022 0.0
H265 H 0.99736 0.18189 0.09033 0.0
C266 C 0.95108 0.13729 0.07209 0.0
O267 O 0.91815 0.14026 0.9466 0.0
O268 O 0.95276 0.17734 0.95888 0.0
N269 N 0.06266 0.11437 0.02174 0.0
C270 C 0.07513 0.08742 0.00881 0.0
C271 C 0.10756 0.08539 0.99849 0.0
C272 C 0.12736 0.11073 0.00372 0.0
C273 C 0.11466 0.13752 0.02064 0.0
C274 C 0.08201 0.13822 0.02994 0.0
H275 H 0.06089 0.06719 0.00878 0.0
O276 O 0.98481 0.12963 0.92293 0.0
O277 O 0.00589 0.13766 0.98791 0.0
O278 O 0.96194 0.08837 0.98669 0.0
O279 O 0.00571 0.08152 0.02896 0.0
C280 C 0.13337 0.16314 0.03031 0.0
C281 C 0.11936 0.18866 0.05006 0.0
H282 H 0.08454 0.23252 0.09134 0.0
H283 H 0.02729 0.22724 0.11109 0.0
H284 H 0.11743 0.06396 0.98835 0.0
H285 H 0.15254 0.10894 0.99677 0.0
H286 H 0.15864 0.16328 0.02322 0.0
H287 H 0.13403 0.20811 0.05774 0.0
Mn288 Mn 0.87249 0.68901 0.71301 0.0
Mn289 Mn 0.8279 0.62604 0.72192 0.0
C290 C 0.88873 0.64494 0.67773 0.0
C291 C 0.88473 0.73374 0.67651 0.0
C292 C 0.87167 0.64902 0.79425 0.0
O293 O 0.82988 0.70558 0.73274 0.0
O294 O 0.80098 0.66259 0.73239 0.0
C295 C 0.7857 0.63609 0.64579 0.0
N296 N 0.80777 0.61888 0.66692 0.0
C297 C 0.80886 0.5829 0.60817 0.0
C298 C 0.78635 0.60037 0.58568 0.0
C299 C 0.77478 0.62711 0.60456 0.0
C300 C 0.81947 0.59337 0.64868 0.0
H301 H 0.77658 0.65657 0.66015 0.0
C302 C 0.80361 0.69137 0.7358 0.0
O303 O 0.89242 0.72989 0.71712 0.0
O304 O 0.86897 0.71221 0.65779 0.0
N305 N 0.85008 0.58891 0.71154 0.0
C306 C 0.86691 0.57195 0.74068 0.0
C307 C 0.8789 0.54364 0.72805 0.0
C308 C 0.8723 0.53245 0.68625 0.0
C309 C 0.85275 0.54918 0.65812 0.0
C310 C 0.84157 0.57731 0.67252 0.0
H311 H 0.87139 0.58002 0.77325 0.0
O312 O 0.90891 0.66593 0.68832 0.0
O313 O 0.85962 0.65004 0.6902 0.0
O314 O 0.88233 0.67181 0.77345 0.0
O315 O 0.85014 0.63129 0.77914 0.0
C316 C 0.84267 0.53838 0.61725 0.0
C317 C 0.82074 0.55522 0.59232 0.0
H318 H 0.77761 0.59335 0.55406 0.0
H319 H 0.75735 0.64069 0.58746 0.0
H320 H 0.89301 0.53041 0.75058 0.0
H321 H 0.8814 0.51051 0.6767 0.0
H322 H 0.85104 0.51679 0.60515 0.0
H323 H 0.81264 0.54634 0.56137 0.0
Mn324 Mn 0.037 0.10663 0.46168 0.0
Mn325 Mn 0.98205 0.10662 0.54163 0.0
C326 C 0.98414 0.11624 0.44558 0.0
C327 C 0.0724 0.13357 0.41787 0.0
C328 C 0.00673 0.04917 0.49879 0.0
O329 O 0.06451 0.11082 0.516 0.0
O330 O 0.02598 0.11038 0.56719 0.0
C331 C 0.992 0.16931 0.57337 0.0
N332 N 0.97252 0.14782 0.55592 0.0
C333 C 0.92907 0.18321 0.55132 0.0
C334 C 0.94877 0.20572 0.56892 0.0
C335 C 0.98036 0.19871 0.58005 0.0
C336 C 0.94201 0.15431 0.54533 0.0
H337 H 0.01624 0.16413 0.58216 0.0
C338 C 0.05525 0.11265 0.55546 0.0
O339 O 0.07498 0.1044 0.42196 0.0
O340 O 0.05085 0.14688 0.44094 0.0
N341 N 0.93885 0.10438 0.52169 0.0
C342 C 0.92258 0.07994 0.50625 0.0
C343 C 0.89058 0.08318 0.49374 0.0
C344 C 0.87548 0.11136 0.49788 0.0
C345 C 0.89235 0.13591 0.5153 0.0
C346 C 0.92415 0.13128 0.52744 0.0
H347 H 0.93399 0.05818 0.50298 0.0
O348 O 0.00343 0.10639 0.41601 0.0
O349 O 0.99632 0.11958 0.48426 0.0
O350 O 0.02773 0.0618 0.47472 0.0
O351 O 0.98949 0.06367 0.52612 0.0
C352 C 0.87884 0.16479 0.52107 0.0
C353 C 0.89719 0.18843 0.53905 0.0
H354 H 0.93991 0.22846 0.574 0.0
H355 H 0.99573 0.21594 0.5937 0.0
H356 H 0.87763 0.06403 0.48075 0.0
H357 H 0.85085 0.11382 0.48793 0.0
H358 H 0.85437 0.16909 0.51174 0.0
H359 H 0.88659 0.21058 0.54314 0.0
Mn360 Mn 0.62556 0.30984 0.21443 0.0
Mn361 Mn 0.67348 0.37072 0.22067 0.0
C362 C 0.61288 0.35301 0.17481 0.0
C363 C 0.61264 0.2646 0.18043 0.0
C364 C 0.62671 0.35255 0.29257 0.0
O365 O 0.66639 0.29194 0.2378 0.0
O366 O 0.69784 0.33326 0.2358 0.0
C367 C 0.71727 0.35527 0.14827 0.0
N368 N 0.69514 0.37411 0.16602 0.0
C369 C 0.69443 0.40497 0.10142 0.0
C370 C 0.7167 0.38552 0.08221 0.0
C371 C 0.72828 0.36065 0.10584 0.0
C372 C 0.68394 0.39818 0.14356 0.0
H373 H 0.72642 0.33623 0.16627 0.0
C374 C 0.69334 0.30482 0.24125 0.0
O375 O 0.6035 0.27006 0.22008 0.0
O376 O 0.62981 0.28489 0.16134 0.0
N377 N 0.65383 0.40831 0.20531 0.0
C378 C 0.63865 0.42825 0.23199 0.0
C379 C 0.62773 0.45591 0.2151 0.0
C380 C 0.6338 0.46334 0.17144 0.0
C381 C 0.65211 0.44371 0.1458 0.0
C382 C 0.66246 0.41658 0.16464 0.0
H383 H 0.63508 0.42313 0.26596 0.0
O384 O 0.59117 0.33359 0.18587 0.0
O385 O 0.64122 0.34706 0.18958 0.0
O386 O 0.61536 0.32955 0.27294 0.0
O387 O 0.64928 0.36901 0.27708 0.0
C388 C 0.66165 0.4506 0.103 0.0
C389 C 0.68264 0.43112 0.08071 0.0
H390 H 0.7254 0.38971 0.04958 0.0
H391 H 0.74571 0.34568 0.09141 0.0
H392 H 0.61488 0.47152 0.23575 0.0
H393 H 0.62539 0.48468 0.15847 0.0
H394 H 0.65361 0.47117 0.08731 0.0
H395 H 0.69025 0.43692 0.04809 0.0
Mn396 Mn 0.47103 0.89119 0.96686 0.0
Mn397 Mn 0.52609 0.8913 0.0466 0.0
C398 C 0.52419 0.88365 0.95025 0.0
C399 C 0.43615 0.86459 0.92271 0.0
C400 C 0.50062 0.94847 0.00462 0.0
O401 O 0.44339 0.88599 0.0207 0.0
O402 O 0.48204 0.8875 0.07149 0.0
C403 C 0.51554 0.82829 0.07655 0.0
N404 N 0.53547 0.85011 0.06099 0.0
C405 C 0.57957 0.81532 0.05995 0.0
C406 C 0.55955 0.7926 0.07622 0.0
C407 C 0.52739 0.79911 0.08446 0.0
C408 C 0.56643 0.84401 0.05269 0.0
H409 H 0.49074 0.83301 0.0827 0.0
C410 C 0.45272 0.88454 0.06014 0.0
O411 O 0.43301 0.89365 0.92764 0.0
O412 O 0.4581 0.85115 0.94505 0.0
N413 N 0.5695 0.89366 0.02779 0.0
C414 C 0.58571 0.918 0.01191 0.0
C415 C 0.618 0.91496 1.00091 0.0
C416 C 0.63347 0.88716 0.00717 0.0
C417 C 0.61661 0.86272 0.0249 0.0
C418 C 0.58446 0.86708 0.03526 0.0
H419 H 0.57404 0.93951 0.00724 0.0
O420 O 0.50432 0.89304 0.92103 0.0
O421 O 0.51228 0.87884 0.98879 0.0
O422 O 0.4791 0.93578 0.98153 0.0
O423 O 0.51875 0.93413 0.03104 0.0
C424 C 0.63042 0.83416 0.03249 0.0
C425 C 0.61191 0.81048 0.04999 0.0
H426 H 0.56856 0.77001 0.08218 0.0
H427 H 0.51173 0.78163 0.09676 0.0
H428 H 0.63091 0.93402 0.9876 0.0
H429 H 0.65835 0.88487 0.99847 0.0
H430 H 0.6552 0.8301 0.02466 0.0
H431 H 0.62271 0.78853 0.05523 0.0
Mn432 Mn 0.88377 0.31043 0.79307 0.0
Mn433 Mn 0.84132 0.37385 0.77698 0.0
C434 C 0.90029 0.35476 0.82752 0.0
C435 C 0.88651 0.2653 0.83323 0.0
C436 C 0.88812 0.34807 0.71004 0.0
O437 O 0.84262 0.29469 0.76783 0.0
O438 O 0.81402 0.33755 0.76572 0.0
C439 C 0.79616 0.3657 0.85018 0.0
N440 N 0.81924 0.38227 0.8301 0.0
C441 C 0.82023 0.41815 0.889 0.0
C442 C 0.79668 0.40131 0.91042 0.0
C443 C 0.78458 0.37498 0.89088 0.0
C444 C 0.8313 0.40745 0.84888 0.0
H445 H 0.78672 0.34547 0.83539 0.0
C446 C 0.81671 0.30882 0.76219 0.0
O447 O 0.9001 0.2678 0.7953 0.0
O448 O 0.8738 0.28966 0.84827 0.0
N449 N 0.86324 0.41108 0.78732 0.0
C450 C 0.87963 0.42816 0.75792 0.0
C451 C 0.8915 0.45659 0.77039 0.0
C452 C 0.885 0.46781 0.81221 0.0
C453 C 0.86539 0.45114 0.84029 0.0
C454 C 0.85422 0.423 0.82589 0.0
H455 H 0.88373 0.42006 0.72529 0.0
O456 O 0.91962 0.33229 0.82132 0.0
O457 O 0.87166 0.35049 0.8122 0.0
O458 O 0.89796 0.32589 0.73315 0.0
O459 O 0.86616 0.36648 0.72226 0.0
C460 C 0.85514 0.46203 0.88101 0.0
C461 C 0.83274 0.44543 0.90549 0.0
H462 H 0.7875 0.40855 0.94166 0.0
H463 H 0.76631 0.36191 0.90712 0.0
H464 H 0.90537 0.4699 0.74771 0.0
H465 H 0.89404 0.4898 0.82168 0.0
H466 H 0.8637 0.48352 0.89329 0.0
H467 H 0.82461 0.45428 0.93641 0.0
Mn468 Mn 0.4712 0.11182 0.53502 0.0
Mn469 Mn 0.52727 0.11193 0.4569 0.0
C470 C 0.52386 0.12138 0.55305 0.0
C471 C 0.43539 0.13727 0.57857 0.0
C472 C 0.50031 0.05459 0.4971 0.0
O473 O 0.44455 0.1169 0.48019 0.0
O474 O 0.48377 0.11658 0.42994 0.0
C475 C 0.51932 0.1748 0.425 0.0
N476 N 0.53781 0.15309 0.44377 0.0
C477 C 0.58134 0.1881 0.45212 0.0
C478 C 0.56256 0.2109 0.43345 0.0
C479 C 0.53146 0.20415 0.41966 0.0
C480 C 0.56795 0.15923 0.45656 0.0
H481 H 0.49551 0.1698 0.41403 0.0
C482 C 0.45434 0.11895 0.441 0.0
O483 O 0.43283 0.10824 0.57303 0.0
O484 O 0.45717 0.15142 0.55681 0.0
N485 N 0.56994 0.10892 0.47869 0.0
C486 C 0.58545 0.08414 0.49442 0.0
C487 C 0.61704 0.08695 0.50896 0.0
C488 C 0.63248 0.11509 0.50672 0.0
C489 C 0.61639 0.14004 0.48913 0.0
C490 C 0.58501 0.13582 0.47484 0.0
H491 H 0.5737 0.06245 0.49643 0.0
O492 O 0.50414 0.11082 0.5816 0.0
O493 O 0.51229 0.12492 0.514 0.0
O494 O 0.47974 0.06756 0.5211 0.0
O495 O 0.51875 0.06877 0.47092 0.0
C496 C 0.63027 0.16894 0.48521 0.0
C497 C 0.61275 0.19295 0.46674 0.0
H498 H 0.5718 0.23361 0.42941 0.0
H499 H 0.51686 0.22151 0.40488 0.0
H500 H 0.62939 0.06751 0.52213 0.0
H501 H 0.65676 0.11722 0.51828 0.0
H502 H 0.65442 0.17293 0.49627 0.0
H503 H 0.62367 0.21507 0.46394 0.0
Mn504 Mn 0.61801 0.69158 0.29747 0.0
Mn505 Mn 0.65957 0.62694 0.29132 0.0
C506 C 0.59973 0.64876 0.33217 0.0
C507 C 0.60557 0.73658 0.33177 0.0
C508 C 0.61429 0.64786 0.22037 0.0
O509 O 0.66072 0.70705 0.27957 0.0
O510 O 0.68587 0.66241 0.27132 0.0
C511 C 0.70852 0.64165 0.35791 0.0
N512 N 0.68405 0.62387 0.34386 0.0
C513 C 0.6876 0.59284 0.40809 0.0
C514 C 0.71238 0.61121 0.42354 0.0
C515 C 0.7229 0.6357 0.39828 0.0
C516 C 0.67366 0.60029 0.36805 0.0
H517 H 0.71727 0.6601 0.33842 0.0
C518 C 0.68516 0.69148 0.27059 0.0
O519 O 0.59916 0.73254 0.29078 0.0
O520 O 0.62031 0.71511 0.35211 0.0
N521 N 0.63836 0.59111 0.31111 0.0
C522 C 0.61889 0.57231 0.28805 0.0
C523 C 0.60746 0.54569 0.30751 0.0
C524 C 0.61722 0.53801 0.34979 0.0
C525 C 0.6393 0.55642 0.37151 0.0
C526 C 0.64966 0.58281 0.35056 0.0
H527 H 0.61176 0.57777 0.2552 0.0
O528 O 0.58034 0.66999 0.32009 0.0
O529 O 0.62957 0.65288 0.32242 0.0
O530 O 0.61014 0.67408 0.23669 0.0
O531 O 0.6325 0.62811 0.23799 0.0
C532 C 0.65256 0.54883 0.41218 0.0
C533 C 0.67674 0.56701 0.43041 0.0
H534 H 0.7238 0.60645 0.45442 0.0
H535 H 0.74227 0.64979 0.40971 0.0
H536 H 0.5913 0.53106 0.28986 0.0
H537 H 0.60853 0.51736 0.3646 0.0
H538 H 0.64491 0.52865 0.42923 0.0
H539 H 0.68722 0.5606 0.4613 0.0
Mn540 Mn 0.02689 0.8889 0.03912 0.0
Mn541 Mn 0.9707 0.88122 0.9614 0.0
C542 C 0.97629 0.87301 0.05797 0.0
C543 C 0.06634 0.86847 0.08259 0.0
C544 C 0.99161 0.94177 0.9979 0.0
O545 O 0.05341 0.88647 0.98399 0.0
O546 O 0.01435 0.87932 0.93422 0.0
C547 C 0.98195 0.81974 0.92697 0.0
N548 N 0.96336 0.83934 0.94974 0.0
C549 C 0.9227 0.80151 0.95904 0.0
C550 C 0.94194 0.78065 0.93696 0.0
C551 C 0.97144 0.79003 0.92016 0.0
C552 C 0.9342 0.83104 0.96401 0.0
H553 H 0.00426 0.82691 0.91308 0.0
C554 C 0.04388 0.88134 0.94523 0.0
O555 O 0.06488 0.89751 0.07649 0.0
O556 O 0.04644 0.85158 0.06149 0.0
N557 N 0.9284 0.88132 0.98481 0.0
C558 C 0.91139 0.90494 1.00127 0.0
C559 C 0.88065 0.89983 0.01766 0.0
C560 C 0.86757 0.87059 0.01658 0.0
C561 C 0.88519 0.84679 0.99849 0.0
C562 C 0.91572 0.85325 0.98268 0.0
H563 H 0.92135 0.92744 0.00246 0.0
O564 O 0.9946 0.88625 0.08606 0.0
O565 O 0.98779 0.87069 0.01872 0.0
O566 O 0.01232 0.93162 0.0244 0.0
O567 O 0.97545 0.92518 0.97202 0.0
C568 C 0.87358 0.81696 0.99527 0.0
C569 C 0.89226 0.79436 0.97536 0.0
H570 H 0.93392 0.75764 0.93173 0.0
H571 H 0.98593 0.77461 0.90136 0.0
H572 H 0.86713 0.91836 0.03132 0.0
H573 H 0.84389 0.86673 0.02938 0.0
H574 H 0.85014 0.81125 0.00746 0.0
H575 H 0.88286 0.77163 0.97236 0.0
Mn576 Mn 0.63343 0.78678 0.80609 0.0
Mn577 Mn 0.61309 0.72533 0.74787 0.0
C578 C 0.62618 0.74046 0.84027 0.0
C579 C 0.61546 0.82659 0.84899 0.0
C580 C 0.68117 0.7492 0.75518 0.0
O581 O 0.6187 0.80562 0.74899 0.0
O582 O 0.60299 0.76311 0.7148 0.0
C583 C 0.54323 0.73592 0.74935 0.0
N584 N 0.56873 0.71785 0.75832 0.0
C585 C 0.53509 0.68154 0.79451 0.0
C586 C 0.50854 0.69965 0.78533 0.0
C587 C 0.51266 0.72698 0.76279 0.0
C588 C 0.56502 0.69162 0.78044 0.0
H589 H 0.54619 0.75721 0.73263 0.0
C590 C 0.60536 0.79203 0.71716 0.0
O591 O 0.64427 0.82711 0.83337 0.0
O592 O 0.59723 0.80476 0.83678 0.0
N593 N 0.62022 0.68743 0.77653 0.0
C594 C 0.64798 0.67173 0.78088 0.0
C595 C 0.6478 0.64346 0.80177 0.0
C596 C 0.61907 0.63152 0.81765 0.0
C597 C 0.59063 0.64755 0.81136 0.0
C598 C 0.5922 0.67532 0.7895 0.0
H599 H 0.67018 0.68077 0.76884 0.0
O600 O 0.64262 0.76161 0.85863 0.0
O601 O 0.61482 0.74712 0.80224 0.0
O602 O 0.67502 0.77257 0.7782 0.0
O603 O 0.65976 0.7314 0.73964 0.0
C604 C 0.56078 0.637 0.8258 0.0
C605 C 0.53305 0.65407 0.81758 0.0
H606 H 0.48492 0.69293 0.79574 0.0
H607 H 0.49229 0.74121 0.75628 0.0
H608 H 0.6698 0.63106 0.80599 0.0
H609 H 0.61909 0.60992 0.83429 0.0
H610 H 0.55889 0.61579 0.84327 0.0
H611 H 0.51024 0.6458 0.82902 0.0
Mn612 Mn 0.48181 0.36454 0.02273 0.0
Mn613 Mn 0.53741 0.37332 0.94433 0.0
C614 C 0.53445 0.37099 0.04196 0.0
C615 C 0.45213 0.33414 0.06908 0.0
C616 C 0.49757 0.42481 0.97958 0.0
O617 O 0.45783 0.35126 0.96929 0.0
O618 O 0.49577 0.35883 0.91901 0.0
C619 C 0.54334 0.30927 0.91662 0.0
N620 N 0.55687 0.33499 0.93271 0.0
C621 C 0.60875 0.31184 0.93341 0.0
C622 C 0.59543 0.28539 0.91609 0.0
C623 C 0.56254 0.28396 0.90813 0.0
C624 C 0.5885 0.33644 0.9409 0.0
H625 H 0.51813 0.30804 0.90995 0.0
C626 C 0.46765 0.3503 0.93022 0.0
O627 O 0.44269 0.36129 0.05932 0.0
O628 O 0.47762 0.32417 0.05021 0.0
N629 N 0.57888 0.38589 0.96334 0.0
C630 C 0.5886 0.41371 0.9772 0.0
C631 C 0.62062 0.41826 0.98876 0.0
C632 C 0.64259 0.39453 0.98434 0.0
C633 C 0.6324 0.36659 0.96789 0.0
C634 C 0.60007 0.36324 0.95754 0.0
H635 H 0.57205 0.43229 0.97961 0.0
O636 O 0.5115 0.37634 0.06895 0.0
O637 O 0.52614 0.36064 0.00364 0.0
O638 O 0.47899 0.4086 0.00259 0.0
O639 O 0.5198 0.41389 0.95596 0.0
C640 C 0.65313 0.342 0.96106 0.0
C641 C 0.64134 0.3147 0.9436 0.0
H642 H 0.61029 0.26611 0.90866 0.0
H643 H 0.55207 0.26349 0.89511 0.0
H644 H 0.6284 0.44008 1.0007 0.0
H645 H 0.66731 0.39815 0.99299 0.0
H646 H 0.67822 0.34392 0.96886 0.0
H647 H 0.65754 0.296 0.93827 0.0
Mn648 Mn 0.86955 0.21628 0.30245 0.0
Mn649 Mn 0.87893 0.27002 0.22587 0.0
C650 C 0.87761 0.26627 0.32285 0.0
C651 C 0.8924 0.18076 0.34845 0.0
C652 C 0.81439 0.24597 0.25396 0.0
O653 O 0.87965 0.19138 0.24822 0.0
O654 O 0.88667 0.22914 0.19996 0.0
C655 C 0.94815 0.25993 0.21799 0.0
N656 N 0.9233 0.27933 0.22336 0.0
C657 C 0.95889 0.32105 0.23612 0.0
C658 C 0.98486 0.30161 0.22984 0.0
C659 C 0.97939 0.27075 0.22183 0.0
C660 C 0.92823 0.30868 0.23358 0.0
H661 H 0.94423 0.23616 0.21224 0.0
C662 C 0.88717 0.20107 0.21046 0.0
O663 O 0.86236 0.17906 0.33839 0.0
O664 O 0.90897 0.20205 0.33058 0.0
N665 N 0.87354 0.31081 0.24552 0.0
C666 C 0.84608 0.32577 0.25525 0.0
C667 C 0.84741 0.35641 0.26715 0.0
C668 C 0.87685 0.37148 0.26828 0.0
C669 C 0.90468 0.35587 0.2569 0.0
C670 C 0.90184 0.32544 0.24485 0.0
H671 H 0.82334 0.31439 0.25432 0.0
O672 O 0.86476 0.2472 0.34958 0.0
O673 O 0.88522 0.25538 0.28497 0.0
O674 O 0.82464 0.22583 0.28025 0.0
O675 O 0.8325 0.26229 0.22996 0.0
C676 C 0.93516 0.36922 0.25754 0.0
C677 C 0.96227 0.35179 0.2473 0.0
H678 H 0.00905 0.30989 0.23276 0.0
H679 H 0.99909 0.25511 0.21943 0.0
H680 H 0.82578 0.36835 0.27559 0.0
H681 H 0.87781 0.39503 0.27789 0.0
H682 H 0.9381 0.39269 0.26682 0.0
H683 H 0.98568 0.36201 0.24935 0.0
Mn684 Mn 0.02285 0.63794 0.52664 0.0
Mn685 Mn 0.9672 0.62024 0.45042 0.0
C686 C 0.9715 0.62672 0.54781 0.0
C687 C 0.04988 0.67236 0.57042 0.0
C688 C 0.01511 0.57523 0.4864 0.0
O689 O 0.04364 0.65292 0.4715 0.0
O690 O 0.00525 0.64117 0.42267 0.0
C691 C 0.94598 0.67897 0.41404 0.0
N692 N 0.93986 0.65402 0.4385 0.0
C693 C 0.88504 0.66905 0.44705 0.0
C694 C 0.89172 0.69617 0.42532 0.0
C695 C 0.92225 0.70097 0.40817 0.0
C696 C 0.90994 0.64825 0.45251 0.0
H697 H 0.96826 0.68125 0.39749 0.0
C698 C 0.03257 0.65261 0.43295 0.0
O699 O 0.06204 0.64613 0.56137 0.0
O700 O 0.02293 0.67925 0.55228 0.0
N701 N 0.92965 0.6013 0.47344 0.0
C702 C 0.92595 0.57249 0.48851 0.0
C703 C 0.89606 0.563 0.50378 0.0
C704 C 0.87008 0.58293 0.50236 0.0
C705 C 0.87413 0.61207 0.48542 0.0
C706 C 0.90454 0.62035 0.47095 0.0
H707 H 0.94565 0.55683 0.48917 0.0
O708 O 0.99536 0.62431 0.57437 0.0
O709 O 0.97807 0.63631 0.50852 0.0
O710 O 0.031 0.59379 0.50948 0.0
O711 O 0.99221 0.5833 0.46167 0.0
C712 C 0.84903 0.63304 0.48175 0.0
C713 C 0.85448 0.66152 0.4625 0.0
H714 H 0.87326 0.71289 0.4202 0.0
H715 H 0.92724 0.72121 0.38956 0.0
H716 H 0.89301 0.54031 0.51634 0.0
H717 H 0.84696 0.57546 0.51342 0.0
H718 H 0.82534 0.62733 0.49304 0.0
H719 H 0.83487 0.67726 0.45907 0.0
Mn720 Mn 0.63734 0.22497 0.69843 0.0
Mn721 Mn 0.63121 0.27955 0.77489 0.0
C722 C 0.62851 0.27479 0.67811 0.0
C723 C 0.61264 0.18915 0.65423 0.0
C724 C 0.69432 0.25334 0.74417 0.0
O725 O 0.6297 0.20067 0.75404 0.0
O726 O 0.62164 0.23919 0.80066 0.0
C727 C 0.56241 0.27555 0.79614 0.0
N728 N 0.58775 0.29185 0.78132 0.0
C729 C 0.55562 0.33672 0.77501 0.0
C730 C 0.52935 0.32048 0.7906 0.0
C731 C 0.53272 0.28976 0.80108 0.0
C732 C 0.5847 0.32146 0.7711 0.0
H733 H 0.56486 0.25197 0.80465 0.0
C734 C 0.62131 0.21092 0.79115 0.0
O735 O 0.64296 0.18749 0.66251 0.0
O736 O 0.59674 0.21049 0.67311 0.0
N737 N 0.63858 0.31963 0.75344 0.0
C738 C 0.66638 0.33239 0.73969 0.0
C739 C 0.66669 0.36283 0.72666 0.0
C740 C 0.6386 0.37999 0.72859 0.0
C741 C 0.61047 0.3666 0.74384 0.0
C742 C 0.61154 0.33611 0.75616 0.0
H743 H 0.68813 0.31943 0.73827 0.0
O744 O 0.64021 0.25552 0.65068 0.0
O745 O 0.62243 0.2643 0.71668 0.0
O746 O 0.68319 0.23434 0.71685 0.0
O747 O 0.67692 0.26944 0.76924 0.0
C748 C 0.58142 0.38235 0.74734 0.0
C749 C 0.55406 0.36747 0.76315 0.0
H750 H 0.50652 0.33139 0.79483 0.0
H751 H 0.51253 0.27724 0.81343 0.0
H752 H 0.68856 0.37303 0.71517 0.0
H753 H 0.63894 0.40346 0.71848 0.0
H754 H 0.57987 0.40594 0.73803 0.0
H755 H 0.53185 0.37981 0.76575 0.0
Mn756 Mn 0.03666 0.36643 0.96968 0.0
Mn757 Mn 0.98461 0.38619 0.04922 0.0
C758 C 0.98423 0.3758 0.95199 0.0
C759 C 0.06213 0.33077 0.9268 0.0
C760 C 0.02995 0.43022 0.00561 0.0
O761 O 0.06091 0.35487 0.02414 0.0
O762 O 0.02407 0.3667 0.07481 0.0
C763 C 0.96607 0.32921 0.09316 0.0
N764 N 0.95844 0.35271 0.0665 0.0
C765 C 0.90355 0.33682 0.06427 0.0
C766 C 0.91157 0.31105 0.0885 0.0
C767 C 0.94288 0.30754 0.10375 0.0
C768 C 0.92782 0.35756 0.05465 0.0
H769 H 0.98927 0.32776 0.10777 0.0
C770 C 0.05148 0.35615 0.0634 0.0
O771 O 0.07399 0.35763 0.93206 0.0
O772 O 0.03668 0.32399 0.94867 0.0
N773 N 0.94576 0.4038 0.02808 0.0
C774 C 0.94094 0.4318 0.01062 0.0
C775 C 0.91036 0.44004 0.99634 0.0
C776 C 0.88485 0.41979 1.00126 0.0
C777 C 0.89006 0.39166 0.02102 0.0
C778 C 0.92114 0.38453 0.03415 0.0
H779 H 0.96033 0.44765 0.00711 0.0
O780 O 0.00672 0.37697 0.92325 0.0
O781 O 0.99273 0.36802 0.99153 0.0
O782 O 0.04415 0.41135 0.98126 0.0
O783 O 0.00874 0.42267 0.03324 0.0
C784 C 0.86555 0.37053 0.02857 0.0
C785 C 0.87226 0.34318 0.05036 0.0
H786 H 0.89364 0.29445 0.09702 0.0
H787 H 0.94897 0.28856 0.1244 0.0
H788 H 0.90645 0.46199 0.98165 0.0
H789 H 0.86127 0.42627 0.99047 0.0
H790 H 0.84135 0.37532 0.01841 0.0
H791 H 0.85309 0.32742 0.05689 0.0
Mn792 Mn 0.86922 0.76195 0.20452 0.0
Mn793 Mn 0.87032 0.70663 0.2803 0.0
C794 C 0.87238 0.71188 0.18306 0.0
C795 C 0.89567 0.7966 0.161 0.0
C796 C 0.81042 0.73951 0.25145 0.0
O797 O 0.88012 0.78473 0.26059 0.0
O798 O 0.88688 0.74523 0.30612 0.0
C799 C 0.93949 0.70016 0.29801 0.0
N800 N 0.91132 0.68792 0.28474 0.0
C801 C 0.93533 0.63872 0.27705 0.0
C802 C 0.96446 0.65078 0.29088 0.0
C803 C 0.96652 0.68159 0.3013 0.0
C804 C 0.90906 0.65818 0.2747 0.0
H805 H 0.94129 0.72384 0.30626 0.0
C806 C 0.88928 0.77354 0.2969 0.0
O807 O 0.86573 0.79995 0.17033 0.0
O808 O 0.91048 0.7738 0.17824 0.0
N809 N 0.85597 0.66829 0.25856 0.0
C810 C 0.82627 0.66004 0.24499 0.0
C811 C 0.82062 0.63016 0.23164 0.0
C812 C 0.8454 0.6089 0.23296 0.0
C813 C 0.87558 0.61769 0.24783 0.0
C814 C 0.87985 0.64786 0.26059 0.0
H815 H 0.80697 0.67609 0.244 0.0
O816 O 0.86267 0.73253 0.15619 0.0
O817 O 0.88017 0.72122 0.22176 0.0
O818 O 0.8231 0.75657 0.22309 0.0
O819 O 0.82644 0.72283 0.27743 0.0
C820 C 0.90165 0.59772 0.25023 0.0
C821 C 0.93147 0.6082 0.26501 0.0
H822 H 0.98546 0.63665 0.29342 0.0
H823 H 0.98889 0.69078 0.3122 0.0
H824 H 0.79719 0.62355 0.22037 0.0
H825 H 0.84097 0.58587 0.22256 0.0
H826 H 0.89905 0.57429 0.24058 0.0
H827 H 0.9514 0.59267 0.26646 0.0
Mn828 Mn 0.45962 0.63332 0.47558 0.0
Mn829 Mn 0.51538 0.6197 0.55231 0.0
C830 C 0.51168 0.62535 0.45501 0.0
C831 C 0.4316 0.66694 0.43222 0.0
C832 C 0.47194 0.57128 0.51498 0.0
O833 O 0.43676 0.64563 0.53053 0.0
O834 O 0.47562 0.6367 0.57911 0.0
C835 C 0.52695 0.68274 0.58151 0.0
N836 N 0.53818 0.65615 0.56511 0.0
C837 C 0.59195 0.67509 0.56508 0.0
C838 C 0.58097 0.70253 0.58226 0.0
C839 C 0.54832 0.7064 0.59041 0.0
C840 C 0.56957 0.65221 0.55718 0.0
H841 H 0.5019 0.68592 0.58787 0.0
C842 C 0.44766 0.64628 0.56913 0.0
O843 O 0.42058 0.63996 0.4397 0.0
O844 O 0.4576 0.67485 0.45189 0.0
N845 N 0.55529 0.60449 0.53162 0.0
C846 C 0.56208 0.57681 0.51442 0.0
C847 C 0.59363 0.56977 0.50323 0.0
C848 C 0.61792 0.59101 0.51061 0.0
C849 C 0.61047 0.61914 0.52887 0.0
C850 C 0.5786 0.62493 0.53933 0.0
H851 H 0.54359 0.56025 0.50906 0.0
O852 O 0.48827 0.62201 0.428 0.0
O853 O 0.50414 0.63449 0.49415 0.0
O854 O 0.45488 0.58873 0.49169 0.0
O855 O 0.49431 0.58079 0.53973 0.0
C856 C 0.63343 0.64171 0.53693 0.0
C857 C 0.62418 0.66967 0.555 0.0
H858 H 0.5974 0.7208 0.58913 0.0
H859 H 0.53965 0.72755 0.60358 0.0
H860 H 0.59924 0.54796 0.48923 0.0
H861 H 0.64226 0.58544 0.50253 0.0
H862 H 0.65825 0.63788 0.52905 0.0
H863 H 0.64201 0.68695 0.56074 0.0
Mn864 Mn 0.38888 0.19787 0.21442 0.0
Mn865 Mn 0.34177 0.13655 0.21003 0.0
C866 C 0.40494 0.15637 0.17423 0.0
C867 C 0.40338 0.24456 0.18517 0.0
C868 C 0.38044 0.154 0.29088 0.0
O869 O 0.34609 0.21429 0.23289 0.0
O870 O 0.31518 0.17318 0.22179 0.0
C871 C 0.30326 0.15069 0.1317 0.0
N872 N 0.3246 0.13253 0.15254 0.0
C873 C 0.32672 0.09865 0.0913 0.0
C874 C 0.30522 0.1173 0.06896 0.0
C875 C 0.29346 0.14345 0.08925 0.0
C876 C 0.33615 0.10737 0.13321 0.0
H877 H 0.29361 0.17043 0.14741 0.0
C878 C 0.3191 0.20131 0.23059 0.0
O879 O 0.40911 0.23808 0.2257 0.0
O880 O 0.38844 0.22433 0.1626 0.0
N881 N 0.36458 0.10001 0.19739 0.0
C882 C 0.38305 0.08304 0.22449 0.0
C883 C 0.39556 0.0554 0.20986 0.0
C884 C 0.38876 0.04532 0.16756 0.0
C885 C 0.36898 0.06271 0.14061 0.0
C886 C 0.35704 0.08999 0.1571 0.0
H887 H 0.38899 0.09088 0.25658 0.0
O888 O 0.42563 0.17562 0.18909 0.0
O889 O 0.37565 0.16151 0.18545 0.0
O890 O 0.39477 0.17628 0.27302 0.0
O891 O 0.35951 0.13839 0.27046 0.0
C892 C 0.35996 0.05359 0.09846 0.0
C893 C 0.33876 0.07149 0.07391 0.0
H894 H 0.29733 0.11161 0.03639 0.0
H895 H 0.27663 0.15784 0.07239 0.0
H896 H 0.41063 0.04204 0.23103 0.0
H897 H 0.39852 0.02404 0.15631 0.0
H898 H 0.36883 0.03263 0.08485 0.0
H899 H 0.33155 0.06393 0.04185 0.0
Mn900 Mn 0.5287 0.61782 0.97292 0.0
Mn901 Mn 0.46614 0.60342 0.03782 0.0
C902 C 0.47792 0.62412 0.94539 0.0
C903 C 0.56548 0.65438 0.95151 0.0
C904 C 0.50649 0.55471 0.99461 0.0
O905 O 0.54842 0.6162 0.03291 0.0
O906 O 0.50438 0.61475 0.0749 0.0
C907 C 0.45185 0.66148 0.0819 0.0
N908 N 0.44375 0.63977 0.05255 0.0
C909 C 0.39411 0.66491 0.03704 0.0
C910 C 0.40311 0.68858 0.06478 0.0
C911 C 0.43192 0.68662 0.08784 0.0
C912 C 0.41518 0.64057 0.0322 0.0
H913 H 0.47273 0.65902 0.10166 0.0
C914 C 0.53483 0.61725 0.06982 0.0
O915 O 0.57135 0.62571 0.94592 0.0
O916 O 0.53853 0.66089 0.96918 0.0
N917 N 0.42871 0.59324 0.00498 0.0
C918 C 0.42215 0.56731 0.98267 0.0
C919 C 0.39316 0.5646 0.96015 0.0
C920 C 0.37108 0.58841 0.96107 0.0
C921 C 0.37792 0.61451 0.98523 0.0
C922 C 0.40716 0.61588 0.00718 0.0
H923 H 0.43898 0.5489 0.98161 0.0
O924 O 0.5021 0.62128 0.91956 0.0
O925 O 0.48446 0.62312 0.98686 0.0
O926 O 0.52461 0.57175 0.97196 0.0
O927 O 0.4864 0.56456 0.02248 0.0
C928 C 0.35679 0.63913 0.98858 0.0
C929 C 0.36485 0.6643 0.01455 0.0
H930 H 0.38767 0.70792 0.06959 0.0
H931 H 0.43848 0.70418 0.11071 0.0
H932 H 0.38796 0.54425 0.94189 0.0
H933 H 0.34882 0.5863 0.94346 0.0
H934 H 0.33413 0.63881 0.97168 0.0
H935 H 0.34824 0.68293 0.01733 0.0
Mn936 Mn 0.1149 0.80826 0.71954 0.0
Mn937 Mn 0.1606 0.87064 0.71992 0.0
C938 C 0.09806 0.85087 0.68228 0.0
C939 C 0.10029 0.76264 0.68685 0.0
C940 C 0.12213 0.84977 0.79885 0.0
O941 O 0.1581 0.79189 0.73672 0.0
O942 O 0.1879 0.83425 0.73035 0.0
C943 C 0.20016 0.85958 0.6417 0.0
N944 N 0.17821 0.87666 0.66311 0.0
C945 C 0.17593 0.91232 0.60397 0.0
C946 C 0.19808 0.89479 0.58102 0.0
C947 C 0.2102 0.86827 0.59996 0.0
C948 C 0.16623 0.90213 0.64503 0.0
H949 H 0.21005 0.83954 0.65641 0.0
C950 C 0.1847 0.80572 0.73678 0.0
O951 O 0.09505 0.76752 0.72794 0.0
O952 O 0.11519 0.78364 0.66579 0.0
N953 N 0.13709 0.90705 0.70898 0.0
C954 C 0.11823 0.92296 0.73684 0.0
C955 C 0.1052 0.95073 0.72359 0.0
C956 C 0.11202 0.96212 0.68201 0.0
C957 C 0.13234 0.9459 0.65441 0.0
C958 C 0.14469 0.91835 0.66945 0.0
H959 H 0.11251 0.91424 0.76856 0.0
O960 O 0.07775 0.83098 0.69627 0.0
O961 O 0.12748 0.84578 0.6931 0.0
O962 O 0.10882 0.82753 0.77956 0.0
O963 O 0.14235 0.86678 0.77959 0.0
C964 C 0.14162 0.95648 0.61311 0.0
C965 C 0.16351 0.93979 0.58802 0.0
H966 H 0.20616 0.90162 0.54903 0.0
H967 H 0.2275 0.85473 0.58261 0.0
H968 H 0.08982 0.96326 0.74533 0.0
H969 H 0.10196 0.98356 0.67189 0.0
H970 H 0.13248 0.9777 0.60064 0.0
H971 H 0.17094 0.94852 0.55671 0.0
Mn972 Mn 0.9733 0.3882 0.4613 0.0
Mn973 Mn 0.03406 0.38604 0.53249 0.0
C974 C 0.02451 0.37878 0.43718 0.0
C975 C 0.93598 0.36102 0.4208 0.0
C976 C 0.00594 0.44472 0.49781 0.0
O977 O 0.94985 0.38266 0.51864 0.0
O978 O 0.99227 0.38196 0.5638 0.0
C979 C 0.02552 0.32246 0.56113 0.0
N980 N 0.04406 0.34438 0.54291 0.0
C981 C 0.0863 0.30874 0.52969 0.0
C982 C 0.06771 0.28587 0.5485 0.0
C983 C 0.03719 0.29277 0.56426 0.0
C984 C 0.07346 0.33795 0.52757 0.0
H985 H 0.00191 0.32746 0.57292 0.0
C986 C 0.96217 0.37992 0.55641 0.0
O987 O 0.93279 0.39009 0.4259 0.0
O988 O 0.95892 0.34812 0.44159 0.0
N989 N 0.0754 0.38849 0.50642 0.0
C990 C 0.09048 0.41312 0.48949 0.0
C991 C 0.12114 0.40992 0.47189 0.0
C992 C 0.13613 0.38154 0.47233 0.0
C993 C 0.12054 0.3567 0.49106 0.0
C994 C 0.09009 0.36131 0.50842 0.0
H995 H 0.07906 0.43499 0.48888 0.0
O996 O 0.00325 0.38982 0.41121 0.0
O997 O 0.01534 0.37477 0.47715 0.0
O998 O 0.98331 0.43272 0.47574 0.0
O999 O 0.02582 0.42942 0.52059 0.0
C1000 C 0.13397 0.32754 0.49303 0.0
C1001 C 0.11686 0.30358 0.51233 0.0
H1002 H 0.07654 0.2629 0.55074 0.0
H1003 H 0.02261 0.2752 0.57858 0.0
H1004 H 0.13311 0.42925 0.45778 0.0
H1005 H 0.15968 0.37911 0.4584 0.0
H1006 H 0.1574 0.32326 0.47965 0.0
H1007 H 0.12735 0.28121 0.51336 0.0
Mn1008 Mn 0.37659 0.80774 0.28663 0.0
Mn1009 Mn 0.33027 0.86981 0.28291 0.0
C1010 C 0.39162 0.8505 0.32619 0.0
C1011 C 0.38918 0.76153 0.31873 0.0
C1012 C 0.37463 0.85075 0.20882 0.0
O1013 O 0.3346 0.791 0.26519 0.0
O1014 O 0.30444 0.83303 0.26862 0.0
C1015 C 0.28757 0.85542 0.35695 0.0
N1016 N 0.30976 0.87379 0.33827 0.0
C1017 C 0.3105 0.90621 0.40122 0.0
C1018 C 0.28807 0.88734 0.42133 0.0
C1019 C 0.27655 0.86184 0.39906 0.0
C1020 C 0.32122 0.89824 0.35963 0.0
H1021 H 0.2783 0.83603 0.33988 0.0
C1022 C 0.30798 0.80453 0.26272 0.0
O1023 O 0.39676 0.76729 0.27859 0.0
O1024 O 0.37366 0.78228 0.33948 0.0
N1025 N 0.35118 0.907 0.29727 0.0
C1026 C 0.36645 0.92636 0.26976 0.0
C1027 C 0.3779 0.95413 0.28557 0.0
C1028 C 0.37199 0.96244 0.32891 0.0
C1029 C 0.35342 0.94352 0.3553 0.0
C1030 C 0.34287 0.91602 0.33772 0.0
H1031 H 0.36968 0.92075 0.23591 0.0
O1032 O 0.4124 0.83054 0.31382 0.0
O1033 O 0.36271 0.84534 0.31276 0.0
O1034 O 0.38579 0.82744 0.22779 0.0
O1035 O 0.35303 0.8677 0.22553 0.0
C1036 C 0.3435 0.95165 0.39746 0.0
C1037 C 0.32207 0.933 0.42039 0.0
H1038 H 0.27922 0.89242 0.45361 0.0
H1039 H 0.25903 0.84729 0.4142 0.0
H1040 H 0.39085 0.96924 0.26426 0.0
H1041 H 0.38058 0.98398 0.34093 0.0
H1042 H 0.35147 0.97265 0.41203 0.0
H1043 H 0.31397 0.93993 0.45232 0.0
Mn1044 Mn 0.96319 0.60429 0.03792 0.0
Mn1045 Mn 0.02183 0.62053 0.96731 0.0
C1046 C 0.0121 0.62167 0.06324 0.0
C1047 C 0.92126 0.62044 0.0808 0.0
C1048 C 0.0056 0.55658 0.99586 0.0
O1049 O 0.93852 0.60829 0.98107 0.0
O1050 O 0.97954 0.61955 0.9366 0.0
C1051 C 0.00105 0.68303 0.94827 0.0
N1052 N 0.02407 0.66354 0.96195 0.0
C1053 C 0.0596 0.70471 0.97857 0.0
C1054 C 0.03638 0.72518 0.96414 0.0
C1055 C 0.00691 0.71421 0.94928 0.0
C1056 C 0.0523 0.67381 0.97718 0.0
H1057 H 0.97816 0.67493 0.93731 0.0
C1058 C 0.94964 0.61574 0.94394 0.0
O1059 O 0.92449 0.59187 0.0719 0.0
O1060 O 0.94061 0.63918 0.0623 0.0
N1061 N 0.06346 0.62339 0.99268 0.0
C1062 C 0.08303 0.60072 0.00639 0.0
C1063 C 0.11314 0.60786 0.02351 0.0
C1064 C 0.123 0.63818 0.0258 0.0
C1065 C 0.10287 0.66105 0.01025 0.0
C1066 C 0.07323 0.65254 0.9932 0.0
H1067 H 0.07562 0.57736 0.00479 0.0
O1068 O 0.9935 0.606 0.08798 0.0
O1069 O 0.00184 0.62591 0.02376 0.0
O1070 O 0.98157 0.56354 0.01919 0.0
O1071 O 0.02178 0.57585 0.97396 0.0
C1072 C 0.11097 0.69198 0.01121 0.0
C1073 C 0.08934 0.7138 0.99541 0.0
H1074 H 0.04068 0.74934 0.96503 0.0
H1075 H 0.9885 0.72963 0.93909 0.0
H1076 H 0.12864 0.59005 0.03512 0.0
H1077 H 0.14613 0.64362 0.03937 0.0
H1078 H 0.13366 0.69925 0.02439 0.0
H1079 H 0.09563 0.73755 0.99692 0.0
Mn1080 Mn 0.12212 0.19277 0.78111 0.0
Mn1081 Mn 0.16491 0.1289 0.78842 0.0
C1082 C 0.10158 0.15241 0.81891 0.0
C1083 C 0.10889 0.23926 0.81093 0.0
C1084 C 0.12908 0.14745 0.70579 0.0
O1085 O 0.16632 0.20705 0.7656 0.0
O1086 O 0.19384 0.16376 0.7753 0.0
C1087 C 0.20407 0.143 0.86611 0.0
N1088 N 0.18192 0.12529 0.84599 0.0
C1089 C 0.17961 0.09175 0.90755 0.0
C1090 C 0.20225 0.10973 0.92898 0.0
C1091 C 0.21439 0.13556 0.90823 0.0
C1092 C 0.16973 0.10063 0.86593 0.0
H1093 H 0.21395 0.16257 0.85012 0.0
C1094 C 0.1922 0.19223 0.76747 0.0
O1095 O 0.1039 0.23386 0.76983 0.0
O1096 O 0.12268 0.21842 0.83356 0.0
N1097 N 0.1401 0.09384 0.80261 0.0
C1098 C 0.12004 0.07768 0.77663 0.0
C1099 C 0.1058 0.05117 0.7926 0.0
C1100 C 0.11293 0.04109 0.83481 0.0
C1101 C 0.1345 0.05748 0.86047 0.0
C1102 C 0.14764 0.08396 0.84297 0.0
H1103 H 0.11431 0.08531 0.7443 0.0
O1104 O 0.08309 0.173 0.80267 0.0
O1105 O 0.13188 0.15571 0.8112 0.0
O1106 O 0.11697 0.17157 0.72181 0.0
O1107 O 0.14747 0.13033 0.72806 0.0
C1108 C 0.14412 0.04812 0.90227 0.0
C1109 C 0.16681 0.06515 0.92567 0.0
H1110 H 0.21056 0.10385 0.96128 0.0
H1111 H 0.23193 0.14952 0.92449 0.0
H1112 H 0.08943 0.0385 0.77237 0.0
H1113 H 0.10207 0.02052 0.84694 0.0
H1114 H 0.13445 0.02769 0.91657 0.0
H1115 H 0.17425 0.05757 0.95763 0.0
Mn1116 Mn 0.53183 0.38997 0.53621 0.0
Mn1117 Mn 0.47545 0.38417 0.45888 0.0
C1118 C 0.48011 0.37761 0.55525 0.0
C1119 C 0.56959 0.36697 0.57992 0.0
C1120 C 0.49653 0.44406 0.49772 0.0
O1121 O 0.55869 0.38623 0.48141 0.0
O1122 O 0.51906 0.38398 0.432 0.0
C1123 C 0.49153 0.32195 0.4303 0.0
N1124 N 0.46999 0.342 0.44665 0.0
C1125 C 0.43053 0.30282 0.45423 0.0
C1126 C 0.45225 0.28184 0.43727 0.0
C1127 C 0.48288 0.29148 0.42528 0.0
C1128 C 0.44046 0.33294 0.4584 0.0
H1129 H 0.51522 0.32904 0.42134 0.0
C1130 C 0.54872 0.38359 0.44239 0.0
O1131 O 0.57016 0.39611 0.57417 0.0
O1132 O 0.5487 0.35154 0.55841 0.0
N1133 N 0.43253 0.38286 0.47987 0.0
C1134 C 0.41401 0.40604 0.49441 0.0
C1135 C 0.38271 0.40012 0.50805 0.0
C1136 C 0.37056 0.37056 0.5058 0.0
C1137 C 0.38963 0.34729 0.48907 0.0
C1138 C 0.4206 0.35459 0.47579 0.0
H1139 H 0.42315 0.42885 0.4961 0.0
O1140 O 0.49941 0.38946 0.58328 0.0
O1141 O 0.49165 0.37371 0.5163 0.0
O1142 O 0.51928 0.43344 0.52075 0.0
O1143 O 0.47904 0.42788 0.47262 0.0
C1144 C 0.3791 0.31715 0.48506 0.0
C1145 C 0.39955 0.29493 0.46768 0.0
H1146 H 0.44574 0.25827 0.43353 0.0
H1147 H 0.49986 0.27544 0.41234 0.0
H1148 H 0.36802 0.41829 0.52042 0.0
H1149 H 0.34647 0.36605 0.5166 0.0
H1150 H 0.35535 0.31081 0.49532 0.0
H1151 H 0.39125 0.2718 0.46498 0.0
C1152 C 0.12273 0.15701 0.38809 0.0
C1153 C 0.08964 0.15119 0.38425 0.0
C1154 C 0.08422 0.19215 0.33142 0.0
C1155 C 0.11747 0.19806 0.33403 0.0
N1156 N 0.16933 0.18302 0.35985 0.0
N1157 N 0.04037 0.16007 0.34452 0.0
C1158 C 0.13704 0.17943 0.36085 0.0
C1159 C 0.07126 0.16729 0.35325 0.0
N1160 N 0.14001 0.1424 0.41939 0.0
N1161 N 0.06333 0.21029 0.30963 0.0
H1162 H 0.02877 0.14125 0.35744 0.0
H1163 H 0.02877 0.14125 0.35744 0.0
H1164 H 0.06929 0.23034 0.29381 0.0
H1165 H 0.06929 0.23034 0.29381 0.0
H1166 H 0.16331 0.14806 0.42765 0.0
H1167 H 0.13037 0.12542 0.43893 0.0
H1168 H 0.18531 0.16849 0.37515 0.0
H1169 H 0.18032 0.19909 0.34019 0.0
C1170 C 0.06953 0.84661 0.57119 0.0
C1171 C 0.04793 0.87122 0.56897 0.0
C1172 C 0.06718 0.88902 0.63916 0.0
C1173 C 0.08978 0.86534 0.64034 0.0
N1174 N 0.12091 0.83029 0.59745 0.0
N1175 N 0.03626 0.92192 0.59271 0.0
C1176 C 0.09444 0.84776 0.60225 0.0
C1177 C 0.0511 0.89498 0.59962 0.0
N1178 N 0.0643 0.82059 0.54846 0.0
N1179 N 0.05814 0.90338 0.67636 0.0
H1180 H 0.02418 0.92626 0.56371 0.0
H1181 H 0.03902 0.94035 0.61358 0.0
H1182 H 0.06687 0.89713 0.7068 0.0
H1183 H 0.03972 0.91919 0.67715 0.0
H1184 H 0.07816 0.80125 0.55287 0.0
H1185 H 0.04467 0.81742 0.5283 0.0
H1186 H 0.12531 0.81798 0.56912 0.0
H1187 H 0.13972 0.8309 0.61956 0.0
C1188 C 0.43645 0.83013 0.85918 0.0
C1189 C 0.41848 0.84719 0.88951 0.0
C1190 C 0.37024 0.8205 0.86635 0.0
C1191 C 0.3893 0.80046 0.84121 0.0
N1192 N 0.44218 0.78433 0.8187 0.0
N1193 N 0.36833 0.85779 0.92429 0.0
C1194 C 0.42275 0.80482 0.83882 0.0
C1195 C 0.38522 0.84256 0.89328 0.0
N1196 N 0.46733 0.83699 0.84989 0.0
N1197 N 0.33784 0.81862 0.86403 0.0
H1198 H 0.37841 0.87444 0.94398 0.0
H1199 H 0.34485 0.85271 0.93236 0.0
H1200 H 0.32638 0.8031 0.84395 0.0
H1201 H 0.32249 0.83427 0.87816 0.0
H1202 H 0.47913 0.85603 0.86182 0.0
H1203 H 0.47913 0.85603 0.86182 0.0
H1204 H 0.46683 0.78726 0.81675 0.0
H1205 H 0.43438 0.76379 0.80609 0.0
C1206 C 0.40909 0.15869 0.09382 0.0
C1207 C 0.41308 0.14153 0.13254 0.0
C1208 C 0.44888 0.10876 0.09233 0.0
C1209 C 0.45353 0.13165 0.06074 0.0
N1210 N 0.43948 0.18209 0.03657 0.0
N1211 N 0.44324 0.10283 0.16967 0.0
C1212 C 0.43335 0.15737 0.06175 0.0
C1213 C 0.43417 0.11665 0.13201 0.0
N1214 N 0.38393 0.17788 0.08913 0.0
N1215 N 0.46162 0.08079 0.08632 0.0
H1216 H 0.43559 0.11027 0.20009 0.0
H1217 H 0.46071 0.08608 0.1706 0.0
H1218 H 0.47287 0.07515 0.05721 0.0
H1219 H 0.45791 0.06305 0.10814 0.0
H1220 H 0.37966 0.18965 0.06028 0.0
H1221 H 0.36571 0.17919 0.11203 0.0
H1222 H 0.42695 0.20233 0.03978 0.0
H1223 H 0.45866 0.18324 0.01526 0.0
C1224 C 0.07702 0.81711 0.17504 0.0
C1225 C 0.10935 0.80812 0.17026 0.0
C1226 C 0.11654 0.84607 0.11275 0.0
C1227 C 0.08454 0.85491 0.11857 0.0
N1228 N 0.03887 0.85746 0.16532 0.0
N1229 N 0.16168 0.81799 0.14111 0.0
C1230 C 0.06654 0.84349 0.1536 0.0
C1231 C 0.12981 0.82413 0.1414 0.0
N1232 N 0.05548 0.79937 0.19657 0.0
N1233 N 0.13351 0.85749 0.07862 0.0
H1234 H 0.17191 0.80201 0.16179 0.0
H1235 H 0.17824 0.83052 0.12347 0.0
H1236 H 0.12442 0.8744 0.05841 0.0
H1237 H 0.1558 0.84944 0.06937 0.0
H1238 H 0.03111 0.80384 0.19667 0.0
H1239 H 0.06098 0.7787 0.21086 0.0
H1240 H 0.02556 0.85114 0.19246 0.0
H1241 H 0.0316 0.87767 0.1509 0.0
C1242 C 0.41916 0.89001 0.37184 0.0
C1243 C 0.3983 0.86492 0.36902 0.0
C1244 C 0.4188 0.84622 0.43835 0.0
C1245 C 0.43972 0.87136 0.44087 0.0
N1246 N 0.44905 0.92291 0.41954 0.0
N1247 N 0.36859 0.82787 0.40992 0.0
C1248 C 0.43537 0.89558 0.41137 0.0
C1249 C 0.39431 0.84648 0.40641 0.0
N1250 N 0.42618 0.90667 0.33595 0.0
N1251 N 0.42414 0.82079 0.46238 0.0
H1252 H 0.35017 0.82816 0.38713 0.0
H1253 H 0.36416 0.81504 0.43776 0.0
H1254 H 0.44307 0.8188 0.48409 0.0
H1255 H 0.41104 0.80096 0.4581 0.0
H1256 H 0.44374 0.92336 0.3355 0.0
H1257 H 0.41604 0.9019 0.30604 0.0
H1258 H 0.44518 0.94186 0.40001 0.0
H1259 H 0.46132 0.9269 0.44846 0.0
C1260 C 0.42512 0.19472 0.66499 0.0
C1261 C 0.39166 0.19944 0.66475 0.0
C1262 C 0.38528 0.15863 0.61127 0.0
C1263 C 0.41848 0.15351 0.61337 0.0
N1264 N 0.46738 0.15871 0.6537 0.0
N1265 N 0.33918 0.18225 0.64441 0.0
C1266 C 0.43742 0.16883 0.64436 0.0
C1267 C 0.37145 0.18006 0.64014 0.0
N1268 N 0.44558 0.21588 0.68159 0.0
N1269 N 0.36738 0.14433 0.58035 0.0
H1270 H 0.32858 0.19752 0.66574 0.0
H1271 H 0.32321 0.16709 0.63034 0.0
H1272 H 0.37682 0.12808 0.55944 0.0
H1273 H 0.34371 0.14975 0.57383 0.0
H1274 H 0.47022 0.21444 0.6781 0.0
H1275 H 0.43838 0.23639 0.69487 0.0
H1276 H 0.48155 0.16798 0.67818 0.0
H1277 H 0.4763 0.13871 0.64063 0.0
C1278 C 0.09215 0.14942 0.89802 0.0
C1279 C 0.08863 0.13566 0.85664 0.0
C1280 C 0.04141 0.10942 0.88387 0.0
C1281 C 0.04095 0.12853 0.9217 0.0
N1282 N 0.06149 0.1749 0.95283 0.0
N1283 N 0.05544 0.107 0.80783 0.0
C1284 C 0.0655 0.15041 0.9264 0.0
C1285 C 0.06253 0.11617 0.84924 0.0
N1286 N 0.11955 0.16432 0.90841 0.0
N1287 N 0.01983 0.08653 0.87862 0.0
H1288 H 0.06929 0.1128 0.78097 0.0
H1289 H 0.0343 0.09606 0.79947 0.0
H1290 H 0.00103 0.08225 0.89975 0.0
H1291 H 0.02217 0.07013 0.85444 0.0
H1292 H 0.12336 0.17395 0.93893 0.0
H1293 H 0.13938 0.16441 0.88809 0.0
H1294 H 0.0775 0.19294 0.95354 0.0
H1295 H 0.04079 0.17879 0.97056 0.0
C1296 C 0.93952 0.79333 0.62846 0.0
C1297 C 0.91986 0.80597 0.59562 0.0
C1298 C 0.87494 0.77622 0.62335 0.0
C1299 C 0.89618 0.76003 0.65091 0.0
N1300 N 0.95076 0.74877 0.67043 0.0
N1301 N 0.8693 0.8068 0.5582 0.0
C1302 C 0.929 0.76747 0.65127 0.0
C1303 C 0.88753 0.79692 0.59218 0.0
N1304 N 0.96813 0.80633 0.63865 0.0
N1305 N 0.84282 0.77235 0.6276 0.0
H1306 H 0.87781 0.82163 0.53452 0.0
H1307 H 0.84665 0.79834 0.55155 0.0
H1308 H 0.83287 0.75815 0.65105 0.0
H1309 H 0.82614 0.78547 0.61103 0.0
H1310 H 0.98196 0.79932 0.665 0.0
H1311 H 0.97616 0.82624 0.62419 0.0
H1312 H 0.97515 0.75175 0.66608 0.0
H1313 H 0.94487 0.72849 0.6857 0.0
C1314 C 0.93325 0.11438 0.40342 0.0
C1315 C 0.95423 0.13091 0.43095 0.0
C1316 C 0.92359 0.17676 0.41628 0.0
C1317 C 0.90749 0.1617 0.38216 0.0
N1318 N 0.89682 0.11601 0.34208 0.0
N1319 N 0.97237 0.1799 0.45704 0.0
C1320 C 0.9117 0.13026 0.37589 0.0
C1321 C 0.94998 0.1626 0.43635 0.0
N1322 N 0.93429 0.08353 0.40332 0.0
N1323 N 0.91398 0.20495 0.4288 0.0
H1324 H 0.99307 0.17132 0.47089 0.0
H1325 H 0.97172 0.20346 0.45719 0.0
H1326 H 0.89423 0.21559 0.41496 0.0
H1327 H 0.92331 0.21608 0.45588 0.0
H1328 H 0.91789 0.07003 0.38688 0.0
H1329 H 0.9496 0.07147 0.4236 0.0
H1330 H 0.90199 0.09395 0.33254 0.0
H1331 H 0.88048 0.12687 0.32184 0.0
C1332 C 0.61367 0.19968 0.09992 0.0
C1333 C 0.58086 0.19216 0.09837 0.0
C1334 C 0.56906 0.23142 0.15187 0.0
C1335 C 0.602 0.23766 0.15594 0.0
N1336 N 0.65627 0.22282 0.14168 0.0
N1337 N 0.52953 0.19398 0.13401 0.0
C1338 C 0.62456 0.22019 0.13241 0.0
C1339 C 0.55928 0.20581 0.12793 0.0
N1340 N 0.6341 0.1886 0.06926 0.0
N1341 N 0.54678 0.25096 0.16787 0.0
H1342 H 0.52184 0.17426 0.11875 0.0
H1343 H 0.51404 0.20171 0.15807 0.0
H1344 H 0.55238 0.27088 0.18429 0.0
H1345 H 0.52269 0.24892 0.16023 0.0
H1346 H 0.65756 0.19596 0.06615 0.0
H1347 H 0.6269 0.17389 0.04463 0.0
H1348 H 0.67361 0.20886 0.12815 0.0
H1349 H 0.66479 0.23686 0.16639 0.0
C1350 C 0.57435 0.89045 0.9074 0.0
C1351 C 0.55547 0.87205 0.93538 0.0
C1352 C 0.59125 0.82993 0.9211 0.0
C1353 C 0.6042 0.84572 0.88527 0.0
N1354 N 0.6093 0.89174 0.8444 0.0
N1355 N 0.54317 0.82147 0.96149 0.0
C1356 C 0.59669 0.8765 0.87893 0.0
C1357 C 0.56341 0.84108 0.94105 0.0
N1358 N 0.57055 0.92108 0.90783 0.0
N1359 N 0.60469 0.80336 0.93421 0.0
H1360 H 0.52125 0.82768 0.97439 0.0
H1361 H 0.54694 0.79817 0.9621 0.0
H1362 H 0.62589 0.79556 0.92059 0.0
H1363 H 0.59694 0.79134 0.96139 0.0
H1364 H 0.58508 0.93589 0.89048 0.0
H1365 H 0.55503 0.93166 0.92943 0.0
H1366 H 0.60183 0.91323 0.83499 0.0
H1367 H 0.62641 0.88209 0.82409 0.0
C1368 C 0.89737 0.2092 0.84036 0.0
C1369 C 0.88686 0.2366 0.85941 0.0
C1370 C 0.89244 0.2144 0.93217 0.0
C1371 C 0.90813 0.18927 0.91343 0.0
N1372 N 0.92576 0.16197 0.84976 0.0
N1373 N 0.8567 0.25635 0.92027 0.0
C1374 C 0.91005 0.18609 0.86748 0.0
C1375 C 0.87908 0.23679 0.90452 0.0
N1376 N 0.8928 0.20437 0.79689 0.0
N1377 N 0.89096 0.21725 0.97643 0.0
H1378 H 0.84187 0.26895 0.90003 0.0
H1379 H 0.84893 0.25633 0.95243 0.0
H1380 H 0.89866 0.20033 0.99768 0.0
H1381 H 0.88381 0.23704 0.99199 0.0
H1382 H 0.89759 0.18392 0.78145 0.0
H1383 H 0.8799 0.21937 0.77747 0.0
H1384 H 0.93177 0.16055 0.81697 0.0
H1385 H 0.93457 0.14406 0.86824 0.0
C1386 C 0.59331 0.13839 0.62742 0.0
C1387 C 0.59671 0.16994 0.62124 0.0
C1388 C 0.55565 0.16927 0.56476 0.0
C1389 C 0.55265 0.13735 0.5696 0.0
N1390 N 0.57392 0.09085 0.59846 0.0
N1391 N 0.58949 0.21302 0.57433 0.0
C1392 C 0.57341 0.12171 0.59852 0.0
C1393 C 0.58075 0.18448 0.58647 0.0
N1394 N 0.60743 0.12467 0.66231 0.0
N1395 N 0.53324 0.18572 0.54276 0.0
H1396 H 0.60829 0.22455 0.58913 0.0
H1397 H 0.58056 0.22368 0.54661 0.0
H1398 H 0.5135 0.17642 0.52738 0.0
H1399 H 0.53276 0.20929 0.54298 0.0
H1400 H 0.60267 0.10246 0.67157 0.0
H1401 H 0.62235 0.13614 0.68387 0.0
H1402 H 0.59041 0.07807 0.61588 0.0
H1403 H 0.56002 0.0782 0.57711 0.0
C1404 C 0.5608 0.77019 0.3548 0.0
C1405 C 0.59367 0.76304 0.3561 0.0
C1406 C 0.60145 0.79956 0.41523 0.0
C1407 C 0.569 0.80803 0.41148 0.0
N1408 N 0.5209 0.80823 0.36811 0.0
N1409 N 0.64672 0.77561 0.38043 0.0
C1410 C 0.54969 0.79555 0.37816 0.0
C1411 C 0.61451 0.77923 0.38412 0.0
N1412 N 0.53956 0.7517 0.33411 0.0
N1413 N 0.61932 0.80962 0.44949 0.0
H1414 H 0.657 0.7615 0.35714 0.0
H1415 H 0.66316 0.7888 0.39733 0.0
H1416 H 0.61043 0.82421 0.47319 0.0
H1417 H 0.64208 0.80153 0.45634 0.0
H1418 H 0.51506 0.75451 0.33715 0.0
H1419 H 0.54588 0.73176 0.31828 0.0
H1420 H 0.50736 0.80156 0.34131 0.0
H1421 H 0.51233 0.82764 0.38332 0.0
C1422 C 0.92904 0.80375 0.0945 0.0
C1423 C 0.91208 0.81672 0.12975 0.0
C1424 C 0.92867 0.86697 0.10562 0.0
C1425 C 0.95013 0.85378 0.07538 0.0
N1426 N 0.97486 0.80785 0.0479 0.0
N1427 N 0.89692 0.86221 0.16924 0.0
C1428 C 0.95124 0.82169 0.07112 0.0
C1429 C 0.91186 0.84854 0.13518 0.0
N1430 N 0.92352 0.77442 0.08263 0.0
N1431 N 0.92519 0.89757 0.10761 0.0
H1432 H 0.88525 0.85077 0.19422 0.0
H1433 H 0.88525 0.85077 0.19422 0.0
H1434 H 0.93576 0.91179 0.08499 0.0
H1435 H 0.91009 0.90823 0.1298 0.0
H1436 H 0.93295 0.76487 0.05442 0.0
H1437 H 0.90671 0.76077 0.09807 0.0
H1438 H 0.97853 0.78453 0.04846 0.0
H1439 H 0.99256 0.81931 0.03102 0.0
C1440 C 0.57062 0.70679 0.92226 0.0
C1441 C 0.58544 0.67888 0.93234 0.0
C1442 C 0.63071 0.69417 0.88723 0.0
C1443 C 0.61169 0.7174 0.86867 0.0
N1444 N 0.56074 0.74347 0.86644 0.0
N1445 N 0.63523 0.65093 0.93336 0.0
C1446 C 0.58068 0.72283 0.88521 0.0
C1447 C 0.61694 0.67377 0.91737 0.0
N1448 N 0.54912 0.71957 0.95005 0.0
N1449 N 0.66199 0.69124 0.87602 0.0
H1450 H 0.62818 0.63667 0.9586 0.0
H1451 H 0.62818 0.63667 0.9586 0.0
H1452 H 0.67289 0.70528 0.85328 0.0
H1453 H 0.67668 0.67452 0.88921 0.0
H1454 H 0.53927 0.74091 0.94484 0.0
H1455 H 0.54561 0.71154 0.98159 0.0
H1456 H 0.53698 0.74574 0.8758 0.0
H1457 H 0.56647 0.75594 0.83891 0.0
C1458 C 0.61209 0.34874 0.09488 0.0
C1459 C 0.60791 0.36753 0.13182 0.0
C1460 C 0.57246 0.3984 0.08777 0.0
C1461 C 0.56729 0.37367 0.05942 0.0
N1462 N 0.58168 0.32225 0.04046 0.0
N1463 N 0.57983 0.40968 0.16346 0.0
C1464 C 0.58767 0.3482 0.06296 0.0
C1465 C 0.58765 0.39291 0.12798 0.0
N1466 N 0.63759 0.32984 0.09217 0.0
N1467 N 0.55988 0.42597 0.07831 0.0
H1468 H 0.58866 0.40457 0.19409 0.0
H1469 H 0.5627 0.42675 0.16269 0.0
H1470 H 0.54817 0.42976 0.0489 0.0
H1471 H 0.56411 0.44506 0.09742 0.0
H1472 H 0.64195 0.3166 0.06471 0.0
H1473 H 0.65581 0.3302 0.11525 0.0
H1474 H 0.59451 0.30237 0.04566 0.0
H1475 H 0.56246 0.31992 0.01934 0.0
C1476 C 0.87141 0.31585 0.36232 0.0
C1477 C 0.89132 0.29467 0.34053 0.0
C1478 C 0.93772 0.32519 0.35926 0.0
C1479 C 0.91879 0.34308 0.38742 0.0
N1480 N 0.86746 0.35489 0.41774 0.0
N1481 N 0.9448 0.27592 0.32775 0.0
C1482 C 0.88543 0.33864 0.38907 0.0
C1483 C 0.92487 0.2985 0.34123 0.0
N1484 N 0.83917 0.31418 0.35724 0.0
N1485 N 0.96825 0.3337 0.35002 0.0
H1486 H 0.93698 0.25518 0.3159 0.0
H1487 H 0.96939 0.27661 0.33238 0.0
H1488 H 0.97756 0.3543 0.36035 0.0
H1489 H 0.98275 0.32229 0.32798 0.0
H1490 H 0.82343 0.3304 0.36906 0.0
H1491 H 0.82853 0.29813 0.33714 0.0
H1492 H 0.84361 0.35023 0.42416 0.0
H1493 H 0.87698 0.37202 0.4371 0.0
C1494 C 0.91821 0.60502 0.63571 0.0
C1495 C 0.89595 0.62906 0.63634 0.0
C1496 C 0.91709 0.64743 0.56755 0.0
C1497 C 0.93923 0.62317 0.56677 0.0
N1498 N 0.95099 0.57263 0.59106 0.0
N1499 N 0.86513 0.66345 0.59231 0.0
C1500 C 0.93552 0.59936 0.59715 0.0
C1501 C 0.89174 0.64628 0.5979 0.0
N1502 N 0.92563 0.58984 0.67283 0.0
N1503 N 0.92194 0.67305 0.54373 0.0
H1504 H 0.84621 0.66269 0.61423 0.0
H1505 H 0.8608 0.67557 0.56378 0.0
H1506 H 0.94136 0.67603 0.52318 0.0
H1507 H 0.90771 0.69225 0.54714 0.0
H1508 H 0.94406 0.57409 0.67479 0.0
H1509 H 0.91502 0.59512 0.70223 0.0
H1510 H 0.94772 0.55399 0.61139 0.0
H1511 H 0.96431 0.56859 0.56306 0.0
C1512 C 0.56941 0.33579 0.64605 0.0
C1513 C 0.58752 0.35155 0.61466 0.0
C1514 C 0.63472 0.32314 0.63629 0.0
C1515 C 0.61521 0.30355 0.66152 0.0
N1516 N 0.56177 0.28822 0.68244 0.0
N1517 N 0.63905 0.36223 0.5829 0.0
C1518 C 0.58197 0.30922 0.66491 0.0
C1519 C 0.62056 0.34621 0.611 0.0
N1520 N 0.53994 0.34617 0.65736 0.0
N1521 N 0.66692 0.31921 0.63523 0.0
H1522 H 0.63046 0.37963 0.56321 0.0
H1523 H 0.63046 0.37963 0.56321 0.0
H1524 H 0.67839 0.30337 0.65476 0.0
H1525 H 0.68194 0.33286 0.61657 0.0
H1526 H 0.52644 0.33678 0.68239 0.0
H1527 H 0.53097 0.36646 0.6452 0.0
H1528 H 0.53706 0.29029 0.68125 0.0
H1529 H 0.56909 0.26733 0.69437 0.0
C1530 C 0.92848 0.35625 0.93704 0.0
C1531 C 0.95126 0.37998 0.93556 0.0
C1532 C 0.92931 0.3966 0.86635 0.0
C1533 C 0.90681 0.37273 0.86747 0.0
N1534 N 0.87596 0.34014 0.91386 0.0
N1535 N 0.96393 0.42948 0.9078 0.0
C1536 C 0.90271 0.35691 0.90712 0.0
C1537 C 0.94736 0.40308 0.90409 0.0
N1538 N 0.93317 0.33139 0.9625 0.0
N1539 N 0.93658 0.41046 0.8282 0.0
H1540 H 0.97868 0.43376 0.93443 0.0
H1541 H 0.96055 0.44767 0.88667 0.0
H1542 H 0.92549 0.40429 0.79953 0.0
H1543 H 0.9552 0.42588 0.82477 0.0
H1544 H 0.91841 0.31243 0.961 0.0
H1545 H 0.95296 0.32884 0.98258 0.0
H1546 H 0.87163 0.32887 0.9431 0.0
H1547 H 0.85705 0.34046 0.89178 0.0
C1548 C 0.87132 0.64194 0.11183 0.0
C1549 C 0.90276 0.6316 0.1181 0.0
C1550 C 0.91295 0.67112 0.17096 0.0
C1551 C 0.88135 0.68187 0.16573 0.0
N1552 N 0.82804 0.67295 0.13904 0.0
N1553 N 0.94854 0.62941 0.16555 0.0
C1554 C 0.85959 0.66561 0.13885 0.0
C1555 C 0.92124 0.64326 0.15255 0.0
N1556 N 0.85358 0.63036 0.07855 0.0
N1557 N 0.93604 0.68803 0.19074 0.0
H1558 H 0.95535 0.60813 0.15427 0.0
H1559 H 0.95535 0.60813 0.15427 0.0
H1560 H 0.93276 0.71028 0.20081 0.0
H1561 H 0.95941 0.68027 0.1941 0.0
H1562 H 0.83174 0.63928 0.06886 0.0
H1563 H 0.8617 0.6123 0.05969 0.0
H1564 H 0.8107 0.66051 0.12267 0.0
H1565 H 0.81897 0.68981 0.15919 0.0
C1566 C 0.56627 0.60878 0.36672 0.0
C1567 C 0.58981 0.63148 0.37082 0.0
C1568 C 0.56656 0.64695 0.43952 0.0
C1569 C 0.54426 0.62286 0.43682 0.0
N1570 N 0.53268 0.57387 0.40596 0.0
N1571 N 0.6197 0.66309 0.42024 0.0
C1572 C 0.54844 0.60077 0.40389 0.0
C1573 C 0.59312 0.64655 0.41122 0.0
N1574 N 0.55777 0.59784 0.3269 0.0
N1575 N 0.56065 0.67212 0.46381 0.0
H1576 H 0.6395 0.66304 0.39976 0.0
H1577 H 0.62297 0.67391 0.45009 0.0
H1578 H 0.53982 0.67517 0.48155 0.0
H1579 H 0.57536 0.69114 0.46292 0.0
H1580 H 0.53864 0.58305 0.32262 0.0
H1581 H 0.56791 0.6058 0.29813 0.0
H1582 H 0.53596 0.55686 0.38285 0.0
H1583 H 0.51912 0.56796 0.4331 0.0
C1584 C 0.45512 0.30901 0.14167 0.0
C1585 C 0.43697 0.3163 0.10411 0.0
C1586 C 0.3929 0.28609 0.13217 0.0
C1587 C 0.41362 0.27314 0.16371 0.0
N1588 N 0.46563 0.2725 0.19842 0.0
N1589 N 0.38861 0.31124 0.06239 0.0
C1590 C 0.44491 0.28502 0.16917 0.0
C1591 C 0.40565 0.30506 0.09925 0.0
N1592 N 0.48202 0.32521 0.15106 0.0
N1593 N 0.36088 0.28079 0.13446 0.0
H1594 H 0.39712 0.32522 0.03765 0.0
H1595 H 0.36706 0.30071 0.05499 0.0
H1596 H 0.35067 0.26849 0.15987 0.0
H1597 H 0.3443 0.29148 0.11443 0.0
H1598 H 0.49462 0.3232 0.18012 0.0
H1599 H 0.4898 0.34315 0.1318 0.0
H1600 H 0.48923 0.27928 0.20172 0.0
H1601 H 0.46043 0.25396 0.21789 0.0
C1602 C 0.43828 0.66642 0.93729 0.0
C1603 C 0.44803 0.6365 0.92676 0.0
C1604 C 0.4127 0.63697 0.86284 0.0
C1605 C 0.40287 0.66648 0.87422 0.0
N1606 N 0.39793 0.70506 0.92889 0.0
N1607 N 0.44011 0.59114 0.88464 0.0
C1608 C 0.41275 0.67962 0.91391 0.0
C1609 C 0.43355 0.62102 0.89128 0.0
N1610 N 0.4549 0.68338 0.96682 0.0
N1611 N 0.40352 0.62495 0.82382 0.0
H1612 H 0.45524 0.57905 0.9051 0.0
H1613 H 0.42837 0.57776 0.86183 0.0
H1614 H 0.38745 0.6358 0.80312 0.0
H1615 H 0.41297 0.60511 0.81097 0.0
H1616 H 0.45086 0.7064 0.97152 0.0
H1617 H 0.47441 0.67545 0.98428 0.0
H1618 H 0.40224 0.71419 0.95961 0.0
H1619 H 0.37879 0.71492 0.91251 0.0
C1620 C 0.05775 0.72346 0.66922 0.0
C1621 C 0.08904 0.73521 0.6632 0.0
C1622 C 0.09537 0.70432 0.5974 0.0
C1623 C 0.06441 0.69241 0.60361 0.0
N1624 N 0.02025 0.68334 0.65204 0.0
N1625 N 0.14097 0.72828 0.63107 0.0
C1626 C 0.04696 0.69958 0.64181 0.0
C1627 C 0.10891 0.72294 0.63019 0.0
N1628 N 0.0376 0.73596 0.69914 0.0
N1629 N 0.11138 0.69897 0.55949 0.0
H1630 H 0.15199 0.7402 0.65625 0.0
H1631 H 0.15697 0.71787 0.60995 0.0
H1632 H 0.10221 0.68554 0.53453 0.0
H1633 H 0.13252 0.70993 0.55133 0.0
H1634 H 0.01435 0.72869 0.70411 0.0
H1635 H 0.04279 0.75516 0.71728 0.0
H1636 H 0.00832 0.68518 0.68159 0.0
H1637 H 0.0118 0.66563 0.63286 0.0
C1638 C 0.07112 0.37809 0.38674 0.0
C1639 C 0.05167 0.36248 0.41724 0.0
C1640 C 0.07784 0.31509 0.39743 0.0
C1641 C 0.09256 0.32969 0.36174 0.0
N1642 N 0.10188 0.37506 0.32012 0.0
N1643 N 0.03229 0.31417 0.44449 0.0
C1644 C 0.0893 0.36132 0.35604 0.0
C1645 C 0.05404 0.33048 0.42113 0.0
N1646 N 0.07203 0.40895 0.38708 0.0
N1647 N 0.08678 0.28649 0.40904 0.0
H1648 H 0.01359 0.32361 0.46186 0.0
H1649 H 0.03118 0.29063 0.44354 0.0
H1650 H 0.10499 0.27483 0.39334 0.0
H1651 H 0.07872 0.27587 0.43726 0.0
H1652 H 0.08787 0.42163 0.36847 0.0
H1653 H 0.0592 0.4217 0.40951 0.0
H1654 H 0.09713 0.39742 0.31165 0.0
H1655 H 0.11517 0.36349 0.29684 0.0
C1656 C 0.38728 0.69932 0.40295 0.0
C1657 C 0.418 0.68671 0.39826 0.0
C1658 C 0.42916 0.72044 0.33695 0.0
C1659 C 0.39816 0.73303 0.34128 0.0
N1660 N 0.34441 0.72614 0.36726 0.0
N1661 N 0.46335 0.67757 0.35206 0.0
C1662 C 0.37614 0.71987 0.3709 0.0
C1663 C 0.43731 0.6947 0.3622 0.0
N1664 N 0.36924 0.6927 0.43867 0.0
N1665 N 0.45162 0.73389 0.31121 0.0
H1666 H 0.46952 0.65823 0.36948 0.0
H1667 H 0.47656 0.68038 0.32367 0.0
H1668 H 0.44834 0.75437 0.29524 0.0
H1669 H 0.47488 0.72607 0.30862 0.0
H1670 H 0.34813 0.70399 0.44597 0.0
H1671 H 0.37657 0.67752 0.46267 0.0
H1672 H 0.327 0.71547 0.38591 0.0
H1673 H 0.33532 0.73907 0.34175 0.0
C1674 C 0.03432 0.67268 0.08428 0.0
C1675 C 0.03696 0.64061 0.08442 0.0
C1676 C 0.07666 0.64398 0.14306 0.0
C1677 C 0.07609 0.67596 0.13976 0.0
N1678 N 0.06119 0.72005 0.09785 0.0
N1679 N 0.06544 0.59619 0.10794 0.0
C1680 C 0.05708 0.6901 0.1074 0.0
C1681 C 0.05976 0.62645 0.11188 0.0
N1682 N 0.00914 0.68674 0.06459 0.0
N1683 N 0.09162 0.6303 0.17734 0.0
H1684 H 0.05417 0.58305 0.08447 0.0
H1685 H 0.08384 0.58507 0.12414 0.0
H1686 H 0.10323 0.64227 0.20189 0.0
H1687 H 0.08981 0.60723 0.1838 0.0
H1688 H 0.00458 0.70979 0.06803 0.0
H1689 H 0.99111 0.67536 0.04816 0.0
H1690 H 0.04958 0.73076 0.07211 0.0
H1691 H 0.07885 0.73332 0.11219 0.0
C1692 C 0.06464 0.27367 0.83475 0.0
C1693 C 0.09763 0.26684 0.83325 0.0
C1694 C 0.10767 0.30194 0.89345 0.0
C1695 C 0.07493 0.30983 0.89356 0.0
N1696 N 0.02445 0.30998 0.85544 0.0
N1697 N 0.15143 0.27997 0.85291 0.0
C1698 C 0.05407 0.2978 0.86146 0.0
C1699 C 0.11944 0.28286 0.85995 0.0
N1700 N 0.04306 0.2561 0.813 0.0
N1701 N 0.12716 0.3112 0.92653 0.0
H1702 H 0.16061 0.26673 0.82777 0.0
H1703 H 0.16851 0.29303 0.86881 0.0
H1704 H 0.11927 0.32445 0.95242 0.0
H1705 H 0.15041 0.30343 0.93045 0.0
H1706 H 0.01854 0.25796 0.81756 0.0
H1707 H 0.04942 0.23798 0.79321 0.0
H1708 H 0.00961 0.30397 0.82964 0.0
H1709 H 0.01606 0.3284 0.87318 0.0
C1710 C 0.44911 0.32989 0.56991 0.0
C1711 C 0.45146 0.36192 0.57229 0.0
C1712 C 0.41112 0.36245 0.63025 0.0
C1713 C 0.40845 0.33065 0.6267 0.0
N1714 N 0.41588 0.28617 0.58254 0.0
N1715 N 0.42891 0.40904 0.59663 0.0
C1716 C 0.42433 0.31515 0.59273 0.0
C1717 C 0.43035 0.3783 0.59971 0.0
N1718 N 0.47181 0.31306 0.54922 0.0
N1719 N 0.39707 0.37728 0.66415 0.0
H1720 H 0.44207 0.4209 0.57358 0.0
H1721 H 0.41222 0.42217 0.61307 0.0
H1722 H 0.38273 0.36644 0.687 0.0
H1723 H 0.40139 0.39994 0.6713 0.0
H1724 H 0.47272 0.28954 0.5512 0.0
H1725 H 0.49132 0.32222 0.53312 0.0
H1726 H 0.42501 0.27466 0.55571 0.0
H1727 H 0.39706 0.27508 0.59789 0.0
C1728 C 0.27626 0.23397 0.19869 0.0
C1729 C 0.29046 0.22032 0.23578 0.0
C1730 C 0.24581 0.23621 0.28128 0.0
C1731 C 0.23017 0.24775 0.24342 0.0
N1732 N 0.2337 0.26556 0.16979 0.0
N1733 N 0.29429 0.21614 0.31354 0.0
C1734 C 0.24659 0.24921 0.20323 0.0
C1735 C 0.27702 0.22407 0.27751 0.0
N1736 N 0.29088 0.23169 0.15909 0.0
N1737 N 0.23023 0.23476 0.32026 0.0
H1738 H 0.31695 0.20653 0.31166 0.0
H1739 H 0.28755 0.22145 0.34522 0.0
H1740 H 0.20838 0.24487 0.3263 0.0
H1741 H 0.23837 0.22223 0.34672 0.0
H1742 H 0.2804 0.23808 0.12981 0.0
H1743 H 0.31345 0.22218 0.1552 0.0
H1744 H 0.24514 0.2696 0.14036 0.0
H1745 H 0.21235 0.27744 0.17312 0.0
C1746 C 0.98095 0.96915 0.52662 0.0
C1747 C 0.97857 0.95515 0.48497 0.0
C1748 C 0.99174 0.0042 0.45115 0.0
C1749 C 0.99971 0.01622 0.49293 0.0
N1750 N 0.00813 0.00711 0.5694 0.0
N1751 N 0.97996 0.96001 0.407 0.0
C1752 C 0.99603 0.9978 0.53032 0.0
C1753 C 0.98345 0.973 0.44709 0.0
N1754 N 0.96823 0.95587 0.5628 0.0
N1755 N 0.99063 0.02268 0.4155 0.0
H1756 H 0.96993 0.9386 0.40276 0.0
H1757 H 0.9878 0.96999 0.37824 0.0
H1758 H 0.99703 0.04537 0.416 0.0
H1759 H 0.98102 0.01615 0.3857 0.0
H1760 H 0.96746 0.96664 0.59295 0.0
H1761 H 0.95458 0.9363 0.56216 0.0
H1762 H 0.0091 0.99315 0.59672 0.0
H1763 H 0.02052 0.0274 0.57316 0.0
C1764 C 0.25873 0.75961 0.71067 0.0
C1765 C 0.27423 0.76025 0.75168 0.0
C1766 C 0.22677 0.78349 0.78458 0.0
C1767 C 0.21386 0.78744 0.74245 0.0
N1768 N 0.21513 0.77753 0.66538 0.0
N1769 N 0.27273 0.77154 0.82882 0.0
C1770 C 0.22899 0.77466 0.70548 0.0
C1771 C 0.25792 0.77124 0.78919 0.0
N1772 N 0.27233 0.74393 0.67715 0.0
N1773 N 0.20896 0.79114 0.82017 0.0
H1774 H 0.29437 0.76098 0.83497 0.0
H1775 H 0.26424 0.78339 0.85566 0.0
H1776 H 0.1863 0.8007 0.81772 0.0
H1777 H 0.21528 0.78584 0.85203 0.0
H1778 H 0.26149 0.74042 0.64711 0.0
H1779 H 0.29362 0.73201 0.68079 0.0
H1780 H 0.22633 0.77194 0.63631 0.0
H1781 H 0.19249 0.78676 0.66089 0.0
C1782 C 0.51981 0.03015 0.03327 0.0
C1783 C 0.52368 0.04325 0.99126 0.0
C1784 C 0.51333 0.9939 0.95725 0.0
C1785 C 0.50665 0.98147 0.99918 0.0
N1786 N 0.49724 0.98945 0.07567 0.0
N1787 N 0.5335 0.03639 0.91507 0.0
C1788 C 0.50858 -3e-05 0.03679 0.0
C1789 C 0.52292 0.02472 0.95371 0.0
N1790 N 0.52743 0.04595 0.07011 0.0
N1791 N 0.50984 0.97665 0.92061 0.0
H1792 H 0.5422 0.05843 0.91232 0.0
H1793 H 0.53683 0.02382 0.88684 0.0
H1794 H 0.50522 0.95359 0.92089 0.0
H1795 H 0.50985 0.98535 0.88916 0.0
H1796 H 0.52908 0.03592 0.10071 0.0
H1797 H 0.53498 0.06828 0.07063 0.0
H1798 H 0.49383 0.00308 0.1029 0.0
H1799 H 0.48783 0.96785 0.07951 0.0
C1800 C 0.23736 0.75416 0.2913 0.0
C1801 C 0.22005 0.75508 0.25179 0.0
C1802 C 0.26325 0.78399 0.2172 0.0
C1803 C 0.279 0.78564 0.2579 0.0
N1804 N 0.28154 0.77325 0.33433 0.0
N1805 N 0.22107 0.76204 0.1736 0.0
C1806 C 0.26653 0.77042 0.29499 0.0
C1807 C 0.23447 0.76709 0.21352 0.0
N1808 N 0.22582 0.7371 0.32489 0.0
N1809 N 0.27504 0.79993 0.18261 0.0
H1810 H 0.20052 0.74941 0.16876 0.0
H1811 H 0.23195 0.76773 0.14432 0.0
H1812 H 0.29655 0.81171 0.18389 0.0
H1813 H 0.26274 0.80327 0.15359 0.0
H1814 H 0.238 0.73315 0.35384 0.0
H1815 H 0.20489 0.72448 0.32203 0.0
H1816 H 0.27219 0.76562 0.36366 0.0
H1817 H 0.30296 0.78489 0.33835 0.0
C1818 C 0.51103 0.97107 0.47015 0.0
C1819 C 0.51269 0.95807 0.51266 0.0
C1820 C 0.51114 0.00905 0.54439 0.0
C1821 C 0.50462 0.02139 0.50243 0.0
N1822 N 0.49311 0.01334 0.42649 0.0
N1823 N 0.51546 0.96468 0.59041 0.0
C1824 C 0.50348 0.00223 0.46558 0.0
C1825 C 0.51311 0.97714 0.54978 0.0
N1826 N 0.51664 0.95407 0.43379 0.0
N1827 N 0.51675 0.02782 0.57892 0.0
H1828 H 0.52108 0.94198 0.59556 0.0
H1829 H 0.51088 0.97652 0.619 0.0
H1830 H 0.51481 0.0512 0.57717 0.0
H1831 H 0.52568 0.02051 0.60873 0.0
H1832 H 0.51972 0.96355 0.40303 0.0
H1833 H 0.52078 0.93094 0.43389 0.0
H1834 H 0.48775 -0.00037 0.39988 0.0
H1835 H 0.48665 0.03586 0.42178 0.0
C1836 C 0.23469 0.22509 0.7999 0.0
C1837 C 0.22224 0.20944 0.76325 0.0
C1838 C 0.26635 0.22792 0.71851 0.0
C1839 C 0.28151 0.23948 0.75665 0.0
N1840 N 0.28003 0.25012 0.83345 0.0
N1841 N 0.22649 0.19404 0.68843 0.0
C1842 C 0.26547 0.23854 0.79727 0.0
C1843 C 0.23803 0.21051 0.7227 0.0
N1844 N 0.21694 0.22724 0.83708 0.0
N1845 N 0.27859 0.23369 0.67815 0.0
H1846 H 0.20512 0.182 0.68976 0.0
H1847 H 0.23912 0.19047 0.65975 0.0
H1848 H 0.29939 0.24578 0.67262 0.0
H1849 H 0.26654 0.22877 0.64937 0.0
H1850 H 0.22301 0.24093 0.86336 0.0
H1851 H 0.19477 0.21688 0.84068 0.0
H1852 H 0.27184 0.24674 0.86503 0.0
H1853 H 0.3012 0.26246 0.83191 0.0
C1854 C 0.96317 0.02058 0.03 0.0
C1855 C 0.98104 0.03836 1.00062 0.0
C1856 C 0.99993 0.99246 0.96433 0.0
C1857 C 0.98601 0.97476 0.99743 0.0
N1858 N 0.95978 0.97253 0.06721 0.0
N1859 N 0.02413 0.04037 0.94863 0.0
C1860 C 0.96892 0.98892 0.03178 0.0
C1861 C 0.00144 0.02413 0.96996 0.0
N1862 N 0.94145 0.03395 0.05689 0.0
N1863 N 0.01238 0.97917 0.92802 0.0
H1864 H 0.02738 0.06335 0.95403 0.0
H1865 H 0.04177 0.0305 0.92946 0.0
H1866 H 0.01175 0.95589 0.9228 0.0
H1867 H 0.02045 0.9916 0.90137 0.0
H1868 H 0.92571 0.0217 0.07627 0.0
H1869 H 0.93738 0.05724 0.05697 0.0
H1870 H 0.94967 0.98209 0.09492 0.0
H1871 H 0.96568 0.94985 0.07074 0.0
C1872 C 0.75906 0.72223 0.70402 0.0
C1873 C 0.77402 0.70926 0.74111 0.0
C1874 C 0.73255 0.73041 0.788 0.0
C1875 C 0.71505 0.73966 0.75042 0.0
N1876 N 0.7113 0.74435 0.67251 0.0
N1877 N 0.77355 0.69776 0.81759 0.0
C1878 C 0.72832 0.73565 0.70834 0.0
C1879 C 0.76045 0.7126 0.78287 0.0
N1880 N 0.77436 0.72185 0.66476 0.0
N1881 N 0.72288 0.73865 0.82876 0.0
H1882 H 0.79437 0.68505 0.81521 0.0
H1883 H 0.76249 0.69595 0.84779 0.0
H1884 H 0.70227 0.7508 0.83517 0.0
H1885 H 0.73683 0.73565 0.85647 0.0
H1886 H 0.76645 0.73359 0.63745 0.0
H1887 H 0.79638 0.71141 0.66012 0.0
H1888 H 0.71753 0.73871 0.64077 0.0
H1889 H 0.68998 0.75638 0.67468 0.0
C1890 C 0.73606 0.28181 0.28738 0.0
C1891 C 0.72166 0.28522 0.24615 0.0
C1892 C 0.76351 0.25381 0.21306 0.0
C1893 C 0.7798 0.25337 0.25349 0.0
N1894 N 0.77745 0.26259 0.33192 0.0
N1895 N 0.72034 0.27429 0.16923 0.0
C1896 C 0.76484 0.26552 0.29131 0.0
C1897 C 0.73475 0.27073 0.20888 0.0
N1898 N 0.72261 0.29473 0.32333 0.0
N1899 N 0.77536 0.23725 0.17918 0.0
H1900 H 0.69888 0.28583 0.16513 0.0
H1901 H 0.73012 0.26721 0.13989 0.0
H1902 H 0.79576 0.22395 0.18232 0.0
H1903 H 0.7639 0.23443 0.14944 0.0
H1904 H 0.73261 0.29299 0.35435 0.0
H1905 H 0.70158 0.3072 0.322 0.0
H1906 H 0.79808 0.25057 0.33942 0.0
H1907 H 0.79808 0.25057 0.33942 0.0
C1908 C 0.74478 0.27208 0.70824 0.0
C1909 C 0.72916 0.25959 0.74534 0.0
C1910 C 0.77297 0.27648 0.7923 0.0
C1911 C 0.78754 0.29052 0.75578 0.0
N1912 N 0.79188 0.29642 0.67828 0.0
N1913 N 0.73235 0.24198 0.81909 0.0
C1914 C 0.77486 0.28658 0.71347 0.0
C1915 C 0.74466 0.25929 0.78629 0.0
N1916 N 0.73028 0.27152 0.66842 0.0
N1917 N 0.78557 0.28057 0.83296 0.0
H1918 H 0.71206 0.22863 0.81479 0.0
H1919 H 0.74363 0.23847 0.84883 0.0
H1920 H 0.80671 0.29234 0.83859 0.0
H1921 H 0.77424 0.27396 0.86152 0.0
H1922 H 0.73791 0.28411 0.64179 0.0
H1923 H 0.70975 0.25922 0.66177 0.0
H1924 H 0.78619 0.29123 0.64618 0.0
H1925 H 0.81323 0.30826 0.68132 0.0
C1926 C 0.75887 0.72383 0.21561 0.0
C1927 C 0.77521 0.73589 0.25243 0.0
C1928 C 0.72965 0.72374 0.2991 0.0
C1929 C 0.71521 0.70825 0.26348 0.0
N1930 N 0.71537 0.6928 0.18843 0.0
N1931 N 0.7732 0.75544 0.32508 0.0
C1932 C 0.72946 0.70839 0.22178 0.0
C1933 C 0.75952 0.73836 0.29297 0.0
N1934 N 0.77087 0.72773 0.17465 0.0
N1935 N 0.71572 0.72281 0.33936 0.0
H1936 H 0.79464 0.76699 0.32044 0.0
H1937 H 0.76245 0.76047 0.35466 0.0
H1938 H 0.69397 0.71228 0.34546 0.0
H1939 H 0.72631 0.73085 0.36768 0.0
H1940 H 0.75855 0.72218 0.14636 0.0
H1941 H 0.79187 0.73919 0.16791 0.0
H1942 H 0.72646 0.6882 0.15891 0.0
H1943 H 0.69295 0.68276 0.19108 0.0
C1944 C 0.49619 0.47618 0.94455 0.0
C1945 C 0.49583 0.45837 0.9831 0.0
C1946 C 0.5096 0.50318 0.02617 0.0
C1947 C 0.50741 0.52143 0.98853 0.0
N1948 N 0.49504 0.52606 0.91194 0.0
N1949 N 0.49387 0.45743 0.06239 0.0
C1950 C 0.49998 0.50815 0.94758 0.0
C1951 C 0.49978 0.47257 0.02443 0.0
N1952 N 0.49257 0.46251 0.90494 0.0
N1953 N 0.52235 0.51488 0.06354 0.0
H1954 H 0.48763 0.43478 0.0645 0.0
H1955 H 0.49267 0.46826 0.09246 0.0
H1956 H 0.53057 0.5371 0.06573 0.0
H1957 H 0.52804 0.50172 0.0906 0.0
H1958 H 0.49727 0.4732 0.87544 0.0
H1959 H 0.48571 0.43995 0.90157 0.0
H1960 H 0.48513 0.51828 0.88296 0.0
H1961 H 0.49932 0.54921 0.91169 0.0
C1962 C 0.01312 0.49554 0.53399 0.0
C1963 C 0.0109 0.47816 0.49521 0.0
C1964 C 0.02117 0.52425 0.45217 0.0
C1965 C 0.02078 0.54197 0.4906 0.0
N1966 N 0.02101 0.54221 0.57035 0.0
N1967 N 0.01647 0.47694 0.41615 0.0
C1968 C 0.01869 0.52713 0.53183 0.0
C1969 C 0.01592 0.49263 0.45427 0.0
N1970 N 0.00886 0.48223 0.57375 0.0
N1971 N 0.02705 0.53765 0.41288 0.0
H1972 H 0.01348 0.45363 0.41347 0.0
H1973 H 0.01348 0.45363 0.41347 0.0
H1974 H 0.03335 0.56041 0.40997 0.0
H1975 H 0.02699 0.52568 0.3836 0.0
H1976 H 0.01015 0.49419 0.60299 0.0
H1977 H 0.00336 0.45948 0.57775 0.0
H1978 H 0.02532 0.56527 0.57386 0.0
H1979 H 0.02532 0.56527 0.57386 0.0
C1980 C 0.03059 0.47742 0.95913 0.0
C1981 C 0.0354 0.46326 1.00016 0.0
C1982 C 0.02584 0.51129 0.0375 0.0
C1983 C 0.017 0.5247 0.99697 0.0
N1984 N 0.00872 0.52005 0.91957 0.0
N1985 N 0.04968 0.46849 0.07513 0.0
C1986 C 0.01943 0.50782 0.95775 0.0
C1987 C 0.03684 0.48093 0.03833 0.0
N1988 N 0.03746 0.46229 0.9215 0.0
N1989 N 0.02235 0.52698 0.07552 0.0
H1990 H 0.05868 0.44646 0.07557 0.0
H1991 H 0.05451 0.48055 0.10345 0.0
H1992 H 0.01522 0.54942 0.07698 0.0
H1993 H 0.02447 0.51728 0.10624 0.0
H1994 H 0.0373 0.47236 0.89089 0.0
H1995 H 0.04706 0.44066 0.92065 0.0
H1996 H 0.00545 0.50772 0.89107 0.0
H1997 H 0.00047 0.54216 0.91703 0.0
C1998 C 0.48454 0.49481 0.46494 0.0
C1999 C 0.48813 0.47661 0.5026 0.0
C2000 C 0.47209 0.51974 0.54834 0.0
C2001 C 0.46877 0.5378 0.51046 0.0
N2002 N 0.46003 0.53858 0.4323 0.0
N2003 N 0.48014 0.47031 0.58022 0.0
C2004 C 0.47112 0.52415 0.46863 0.0
C2005 C 0.48043 0.48865 0.54439 0.0
N2006 N 0.49553 0.48473 0.42569 0.0
N2007 N 0.46748 0.53266 0.58828 0.0
H2008 H 0.48756 0.44792 0.57989 0.0
H2009 H 0.47073 0.47658 0.61018 0.0
H2010 H 0.4575 0.55414 0.59191 0.0
H2011 H 0.47414 0.52267 0.61758 0.0
H2012 H 0.49733 0.49849 0.39826 0.0
H2013 H 0.50602 0.46359 0.42158 0.0
H2014 H 0.4588 0.52823 0.40189 0.0
H2015 H 0.44807 0.55911 0.43278 0.0
C2016 C 0.05777 0.30986 0.10846 0.0
C2017 C 0.06997 0.3382 0.09581 0.0
C2018 C 0.11649 0.32906 0.14314 0.0
C2019 C 0.10113 0.30299 0.16068 0.0
N2020 N 0.05085 0.27783 0.17047 0.0
N2021 N 0.1105 0.37636 0.10295 0.0
C2022 C 0.07006 0.2958 0.1461 0.0
C2023 C 0.09932 0.34836 0.11368 0.0
N2024 N 0.03481 0.296 0.08412 0.0
N2025 N 0.14754 0.33484 0.15343 0.0
H2026 H 0.09865 0.39045 0.08098 0.0
H2027 H 0.13015 0.38631 0.11795 0.0
H2028 H 0.16075 0.32093 0.1741 0.0
H2029 H 0.16087 0.35188 0.13874 0.0
H2030 H 0.02586 0.27472 0.0915 0.0
H2031 H 0.02638 0.30486 0.05479 0.0
H2032 H 0.02751 0.27308 0.16127 0.0
H2033 H 0.05711 0.27113 0.20193 0.0
C2034 C 0.92796 0.81605 0.31755 0.0
C2035 C 0.905 0.7938 0.32989 0.0
C2036 C 0.92038 0.80167 0.40601 0.0
C2037 C 0.93958 0.82702 0.39438 0.0
N2038 N 0.95388 0.8628 0.33816 0.0
N2039 N 0.87304 0.77326 0.38824 0.0
C2040 C 0.94102 0.83563 0.34986 0.0
C2041 C 0.89918 0.7891 0.37486 0.0
N2042 N 0.93904 0.81753 0.27584 0.0
N2043 N 0.92364 0.78807 0.44569 0.0
H2044 H 0.85578 0.76525 0.36668 0.0
H2045 H 0.86672 0.77144 0.42095 0.0
H2046 H 0.94132 0.79399 0.46793 0.0
H2047 H 0.91165 0.76819 0.45384 0.0
H2048 H 0.95778 0.83168 0.26676 0.0
H2049 H 0.93253 0.80225 0.25167 0.0
H2050 H 0.95289 0.871 0.30636 0.0
H2051 H 0.96213 0.87856 0.36077 0.0
C2052 C 0.41677 0.66814 0.6815 0.0
C2053 C 0.39457 0.69154 0.67143 0.0
C2054 C 0.4087 0.68664 0.59452 0.0
C2055 C 0.42778 0.66075 0.60386 0.0
N2056 N 0.44042 0.62157 0.65613 0.0
N2057 N 0.3622 0.71509 0.61594 0.0
C2058 C 0.42875 0.64974 0.6473 0.0
C2059 C 0.38806 0.69806 0.62711 0.0
N2060 N 0.42842 0.66452 0.72271 0.0
N2061 N 0.41178 0.702 0.55615 0.0
H2062 H 0.34572 0.72271 0.63884 0.0
H2063 H 0.35532 0.71849 0.58367 0.0
H2064 H 0.42945 0.69743 0.53336 0.0
H2065 H 0.39955 0.72202 0.54969 0.0
H2066 H 0.4467 0.64937 0.72999 0.0
H2067 H 0.42296 0.67885 0.74846 0.0
H2068 H 0.43931 0.61195 0.68709 0.0
H2069 H 0.44736 0.60652 0.63182 0.0
C2070 C 0.61533 0.19636 0.86946 0.0
C2071 C 0.60849 0.18992 0.82522 0.0
C2072 C 0.57235 0.14967 0.85012 0.0
C2073 C 0.57332 0.16149 0.89313 0.0
N2074 N 0.59181 0.20209 0.94029 0.0
N2075 N 0.5755 0.16203 0.77378 0.0
C2076 C 0.59397 0.18633 0.90213 0.0
C2077 C 0.58586 0.16677 0.8154 0.0
N2078 N 0.64208 0.21225 0.88031 0.0
N2079 N 0.55927 0.12191 0.84232 0.0
H2080 H 0.58243 0.17503 0.74727 0.0
H2081 H 0.55728 0.1469 0.76618 0.0
H2082 H 0.55102 0.10788 0.86714 0.0
H2083 H 0.56039 0.11134 0.81203 0.0
H2084 H 0.64925 0.21554 0.91247 0.0
H2085 H 0.6589 0.21885 0.85719 0.0
H2086 H 0.60593 0.22083 0.9473 0.0
H2087 H 0.57332 0.19932 0.96247 0.0
C2088 C 0.04069 0.69651 0.3822 0.0
C2089 C 0.05172 0.66864 0.39911 0.0
C2090 C 0.10126 0.67513 0.35705 0.0
C2091 C 0.08796 0.701 0.33648 0.0
N2092 N 0.03993 0.72812 0.31833 0.0
N2093 N 0.09137 0.62922 0.39874 0.0
C2094 C 0.05607 0.70921 0.34562 0.0
C2095 C 0.08175 0.65722 0.38534 0.0
N2096 N 0.01701 0.71202 0.40271 0.0
N2097 N 0.13258 0.66818 0.35056 0.0
H2098 H 0.07769 0.61577 0.41946 0.0
H2099 H 0.11156 0.61844 0.38669 0.0
H2100 H 0.14726 0.6808 0.33004 0.0
H2101 H 0.14452 0.6514 0.36789 0.0
H2102 H 0.00893 0.7331 0.39222 0.0
H2103 H 0.00804 0.70524 0.43284 0.0
H2104 H 0.01633 0.73452 0.3234 0.0
H2105 H 0.04952 0.73556 0.28888 0.0
C2106 C 0.57012 0.83549 0.69084 0.0
C2107 C 0.59008 0.81017 0.68159 0.0
C2108 C 0.57062 0.81055 0.60643 0.0
C2109 C 0.55392 0.83808 0.61399 0.0
N2110 N 0.54512 0.88061 0.66188 0.0
N2111 N 0.61632 0.78044 0.62632 0.0
C2112 C 0.55594 0.8518 0.65573 0.0
C2113 C 0.5926 0.79993 0.638 0.0
N2114 N 0.56288 0.84306 0.73279 0.0
N2115 N 0.56417 0.79326 0.57062 0.0
H2116 H 0.63391 0.77329 0.64802 0.0
H2117 H 0.62064 0.77448 0.59403 0.0
H2118 H 0.54575 0.79802 0.54892 0.0
H2119 H 0.57436 0.77205 0.56567 0.0
H2120 H 0.5463 0.85971 0.74067 0.0
H2121 H 0.57031 0.83062 0.7597 0.0
H2122 H 0.54866 0.89249 0.69078 0.0
H2123 H 0.53594 0.8938 0.63671 0.0
C2124 C 0.40271 0.30209 0.87671 0.0
C2125 C 0.40706 0.30876 0.83198 0.0
C2126 C 0.44499 0.34854 0.85345 0.0
C2127 C 0.44589 0.33689 0.89657 0.0
N2128 N 0.43 0.29612 0.94506 0.0
N2129 N 0.43839 0.3357 0.77771 0.0
C2130 C 0.42581 0.31196 0.90728 0.0
C2131 C 0.42969 0.33144 0.82012 0.0
N2132 N 0.37649 0.28639 0.89017 0.0
N2133 N 0.45794 0.37614 0.84424 0.0
H2134 H 0.43055 0.32225 0.75213 0.0
H2135 H 0.45637 0.35062 0.76845 0.0
H2136 H 0.46751 0.39022 0.8681 0.0
H2137 H 0.45551 0.38654 0.81396 0.0
H2138 H 0.37124 0.28295 0.92296 0.0
H2139 H 0.3583 0.28004 0.86885 0.0
H2140 H 0.41674 0.27692 0.95273 0.0
H2141 H 0.44926 0.29943 0.96592 0.0
C2142 C 0.9295 0.16398 0.1864 0.0
C2143 C 0.90026 0.17923 0.17787 0.0
C2144 C 0.89868 0.15575 0.10525 0.0
C2145 C 0.93037 0.14496 0.11114 0.0
N2146 N 0.96541 0.12374 0.16528 0.0
N2147 N 0.85667 0.18961 0.12901 0.0
C2148 C 0.94286 0.14459 0.15412 0.0
C2149 C 0.88467 0.17493 0.1373 0.0
N2150 N 0.9457 0.16939 0.22423 0.0
N2151 N 0.88081 0.14512 0.07135 0.0
H2152 H 0.84458 0.20206 0.15257 0.0
H2153 H 0.84639 0.19081 0.09819 0.0
H2154 H 0.88844 0.12731 0.05171 0.0
H2155 H 0.85687 0.15037 0.06676 0.0
H2156 H 0.96879 0.16176 0.22982 0.0
H2157 H 0.93734 0.18359 0.24872 0.0
H2158 H 0.97309 0.12037 0.19714 0.0
H2159 H 0.97235 0.10645 0.14428 0.0
C2160 C 0.90204 0.64379 0.9119 0.0
C2161 C 0.92696 0.62206 0.90733 0.0
C2162 C 0.91674 0.62034 0.8288 0.0
C2163 C 0.88976 0.63937 0.83384 0.0
N2164 N 0.85393 0.66591 0.88134 0.0
N2165 N 0.95209 0.58419 0.8627 0.0
C2166 C 0.8814 0.64989 0.87587 0.0
C2167 C 0.93245 0.60867 0.86612 0.0
N2168 N 0.89932 0.66015 0.94945 0.0
N2169 N 0.92846 0.61451 0.78827 0.0
H2170 H 0.96291 0.57434 0.88971 0.0
H2171 H 0.95463 0.57176 0.83411 0.0
H2172 H 0.91863 0.62401 0.76035 0.0
H2173 H 0.94983 0.60313 0.78285 0.0
H2174 H 0.88383 0.67839 0.95285 0.0
H2175 H 0.91459 0.65757 0.97594 0.0
H2176 H 0.84473 0.6715 0.91176 0.0
H2177 H 0.8391 0.67153 0.85535 0.0
C2178 C 0.11532 0.10699 0.64881 0.0
C2179 C 0.11896 0.13805 0.66026 0.0
C2180 C 0.08924 0.15165 0.59351 0.0
C2181 C 0.07918 0.12102 0.58936 0.0
N2182 N 0.08229 0.06929 0.61354 0.0
N2183 N 0.11775 0.18974 0.63563 0.0
C2184 C 0.09212 0.09864 0.61718 0.0
C2185 C 0.10847 0.16036 0.62997 0.0
N2186 N 0.13575 0.08567 0.66475 0.0
N2187 N 0.08057 0.17224 0.56241 0.0
H2188 H 0.13599 0.19574 0.65709 0.0
H2189 H 0.10817 0.20805 0.61891 0.0
H2190 H 0.06617 0.16675 0.53588 0.0
H2191 H 0.08859 0.19447 0.56126 0.0
H2192 H 0.1352 0.06309 0.65505 0.0
H2193 H 0.15635 0.09113 0.68188 0.0
H2194 H 0.08815 0.0527 0.6363 0.0
H2195 H 0.06655 0.06203 0.5894 0.0
C2196 C 0.59229 0.35174 0.40791 0.0
C2197 C 0.57231 0.3778 0.40689 0.0
C2198 C 0.58756 0.38654 0.33097 0.0
C2199 C 0.60986 0.36243 0.33303 0.0
N2200 N 0.63662 0.32447 0.3756 0.0
N2201 N 0.55757 0.42408 0.37083 0.0
C2202 C 0.61333 0.34589 0.37234 0.0
C2203 C 0.57213 0.3965 0.36947 0.0
N2204 N 0.58974 0.33144 0.44131 0.0
N2205 N 0.57923 0.39852 0.29168 0.0
H2206 H 0.54705 0.43241 0.39909 0.0
H2207 H 0.55912 0.43982 0.34566 0.0
H2208 H 0.58836 0.39024 0.26261 0.0
H2209 H 0.56086 0.41415 0.28773 0.0
H2210 H 0.60099 0.31045 0.44132 0.0
H2211 H 0.57417 0.33422 0.46737 0.0
H2212 H 0.64268 0.31386 0.40472 0.0
H2213 H 0.65159 0.3191 0.34971 0.0
C2214 C 0.42938 0.89562 0.13363 0.0
C2215 C 0.42891 0.87794 0.09522 0.0
C2216 C 0.38734 0.84582 0.12845 0.0
C2217 C 0.39153 0.86108 0.16865 0.0
N2218 N 0.4241 0.89467 0.21154 0.0
N2219 N 0.41076 0.83239 0.05899 0.0
C2220 C 0.41452 0.88451 0.17177 0.0
C2221 C 0.4085 0.85212 0.09308 0.0
N2222 N 0.44365 0.92335 0.13365 0.0
N2223 N 0.36338 0.82515 0.12417 0.0
H2224 H 0.42673 0.83515 0.0334 0.0
H2225 H 0.39893 0.81169 0.05811 0.0
H2226 H 0.34821 0.81959 0.14981 0.0
H2227 H 0.357 0.81548 0.09449 0.0
H2228 H 0.44236 0.93819 0.15996 0.0
H2229 H 0.45337 0.93276 0.10557 0.0
H2230 H 0.44287 0.90983 0.21585 0.0
H2231 H 0.41568 0.88508 0.24018 0.0
C2232 C 0.94287 0.39022 0.63233 0.0
C2233 C 0.94098 0.37251 0.59403 0.0
C2234 C 0.90185 0.33939 0.63047 0.0
C2235 C 0.90646 0.3556 0.66981 0.0
N2236 N 0.93964 0.38977 0.71059 0.0
N2237 N 0.92313 0.3263 0.55954 0.0
C2238 C 0.92929 0.37919 0.6714 0.0
C2239 C 0.92148 0.34606 0.59367 0.0
N2240 N 0.95695 0.41803 0.63125 0.0
N2241 N 0.87889 0.31758 0.62833 0.0
H2242 H 0.9379 0.32963 0.53273 0.0
H2243 H 0.91211 0.30519 0.55958 0.0
H2244 H 0.86549 0.31116 0.65533 0.0
H2245 H 0.87186 0.30728 0.59938 0.0
H2246 H 0.95655 0.43295 0.65751 0.0
H2247 H 0.96563 0.42741 0.60252 0.0
H2248 H 0.95815 0.40533 0.71389 0.0
H2249 H 0.93238 0.37989 0.73965 0.0
C2250 C 0.40329 0.16759 0.36513 0.0
C2251 C 0.39063 0.14517 0.33658 0.0
C2252 C 0.41578 0.10544 0.38089 0.0
C2253 C 0.43076 0.12775 0.40688 0.0
N2254 N 0.43191 0.17939 0.43205 0.0
N2255 N 0.37033 0.09386 0.33572 0.0
C2256 C 0.4223 0.1587 0.40163 0.0
C2257 C 0.39246 0.1143 0.34968 0.0
N2258 N 0.39646 0.19737 0.35772 0.0
N2259 N 0.42375 0.0757 0.38589 0.0
H2260 H 0.34999 0.10009 0.31856 0.0
H2261 H 0.3695 0.0716 0.34681 0.0
H2262 H 0.43958 0.06823 0.40976 0.0
H2263 H 0.41623 0.05889 0.36442 0.0
H2264 H 0.40816 0.21532 0.37273 0.0
H2265 H 0.37852 0.20413 0.33627 0.0
H2266 H 0.42444 0.20181 0.43269 0.0
H2267 H 0.44602 0.17372 0.4588 0.0
C2268 C 0.54891 0.64992 0.13398 0.0
C2269 C 0.55562 0.62439 0.10805 0.0
C2270 C 0.6053 0.61796 0.14974 0.0
C2271 C 0.59455 0.6394 0.18119 0.0
N2272 N 0.54831 0.66728 0.20765 0.0
N2273 N 0.58955 0.58119 0.09518 0.0
C2274 C 0.56405 0.65294 0.17476 0.0
C2275 C 0.58362 0.6074 0.11717 0.0
N2276 N 0.53005 0.67259 0.11861 0.0
N2277 N 0.63641 0.609 0.1489 0.0
H2278 H 0.57428 0.57273 0.07133 0.0
H2279 H 0.60808 0.5666 0.10357 0.0
H2280 H 0.65384 0.61834 0.16895 0.0
H2281 H 0.64565 0.59525 0.12443 0.0
H2282 H 0.5262 0.69251 0.13606 0.0
H2283 H 0.52227 0.67306 0.08634 0.0
H2284 H 0.52543 0.67607 0.20347 0.0
H2285 H 0.55564 0.66634 0.24 0.0
C2286 C 0.10942 0.88775 0.85937 0.0
C2287 C 0.111 0.85729 0.84447 0.0
C2288 C 0.07685 0.84242 0.90622 0.0
C2289 C 0.06852 0.87328 0.91237 0.0
N2290 N 0.07824 0.92584 0.89668 0.0
N2291 N 0.10412 0.80464 0.86251 0.0
C2292 C 0.08529 0.89611 0.88957 0.0
C2293 C 0.09713 0.83426 0.87081 0.0
N2294 N 0.13249 0.90806 0.84815 0.0
N2295 N 0.06632 0.82118 0.93524 0.0
H2296 H 0.12293 0.79833 0.84228 0.0
H2297 H 0.09174 0.78644 0.87571 0.0
H2298 H 0.0519 0.82652 0.96178 0.0
H2299 H 0.07341 0.79865 0.93515 0.0
H2300 H 0.13346 0.92997 0.86053 0.0
H2301 H 0.15329 0.9018 0.83214 0.0
H2302 H 0.08693 0.94328 0.87719 0.0
H2303 H 0.06222 0.9328 0.92054 0.0
loop_
_geom_bond_atom_site_label_1
_geom_bond_atom_site_label_2
_geom_bond_distance
_geom_bond_site_symmetry_2
_ccdc_geom_bond_type
Mn0 O5 2.095 . S
Mn0 O15 2.162 . S
Mn0 O16 2.297 . S
Mn0 O24 2.385 . S
Mn0 O25 2.209 . S
Mn0 O26 2.094 . S
Mn1 O6 2.121 . S
Mn1 N8 2.257 . S
Mn1 N17 2.282 . S
Mn1 O25 2.215 . S
Mn1 O27 2.117 . S
C2 O24 1.234 . S
C2 O25 1.283 . S
C3 O15 1.281 . S
C3 O16 1.236 . S
C4 O26 1.240 . S
C4 O27 1.264 . S
O5 Mn0 2.095 . S
O5 C14 1.250 . S
O6 Mn1 2.121 . S
O6 C14 1.258 . S
C7 N8 1.326 . S
C7 C11 1.460 . S
C7 H13 0.929 . S
N8 Mn1 2.257 . S
N8 C7 1.326 . S
N8 C12 1.362 . S
C9 C10 1.258 . S
C9 C12 1.431 . S
C9 C29 1.449 . S
C10 C9 1.258 . S
C10 C11 1.477 . S
C10 H30 0.931 . S
C11 C7 1.460 . S
C11 C10 1.477 . S
C11 H31 0.930 . S
C12 N8 1.362 . S
C12 C9 1.431 . S
C12 C22 1.476 . S
H13 C7 0.929 . S
C14 O5 1.250 . S
C14 O6 1.258 . S
O15 Mn0 2.162 . S
O15 C3 1.281 . S
O16 Mn0 2.297 . S
O16 C3 1.236 . S
N17 Mn1 2.282 . S
N17 C18 1.328 . S
N17 C22 1.318 . S
C18 N17 1.328 . S
C18 C19 1.457 . S
C18 H23 0.929 . S
C19 C18 1.457 . S
C19 C20 1.291 . S
C19 H32 0.931 . S
C20 C19 1.291 . S
C20 C21 1.373 . S
C20 H33 0.929 . S
C21 C20 1.373 . S
C21 C22 1.396 . S
C21 C28 1.403 . S
C22 C12 1.476 . S
C22 N17 1.318 . S
C22 C21 1.396 . S
H23 C18 0.929 . S
O24 Mn0 2.385 . S
O24 C2 1.234 . S
O25 Mn0 2.209 . S
O25 Mn1 2.215 . S
O25 C2 1.283 . S
O26 Mn0 2.094 . S
O26 C4 1.240 . S
O27 Mn1 2.117 . S
O27 C4 1.264 . S
C28 C21 1.403 . S
C28 C29 1.399 . S
C28 H34 0.929 . S
C29 C9 1.449 . S
C29 C28 1.399 . S
C29 H35 0.930 . S
H30 C10 0.931 . S
H31 C11 0.930 . S
H32 C19 0.931 . S
H33 C20 0.929 . S
H34 C28 0.929 . S
H35 C29 0.930 . S
Mn36 O41 2.095 . S
Mn36 O51 2.162 . S
Mn36 O52 2.297 . S
Mn36 O60 2.385 . S
Mn36 O61 2.209 . S
Mn36 O62 2.094 . S
Mn37 O42 2.121 1_455 S
Mn37 N44 2.257 . S
Mn37 N53 2.282 . S
Mn37 O61 2.215 1_455 S
Mn37 O63 2.117 1_455 S
C38 O60 1.234 1_455 S
C38 O61 1.283 1_455 S
C39 O51 1.281 . S
C39 O52 1.236 . S
C40 O62 1.240 . S
C40 O63 1.264 . S
O41 Mn36 2.095 . S
O41 C50 1.250 . S
O42 Mn37 2.121 1_655 S
O42 C50 1.258 . S
C43 N44 1.326 . S
C43 C47 1.460 . S
C43 H49 0.929 . S
N44 Mn37 2.257 . S
N44 C43 1.326 . S
N44 C48 1.362 . S
C45 C46 1.258 . S
C45 C48 1.431 . S
C45 C65 1.449 . S
C46 C45 1.258 . S
C46 C47 1.477 . S
C46 H66 0.931 . S
C47 C43 1.460 . S
C47 C46 1.477 . S
C47 H67 0.930 . S
C48 N44 1.362 . S
C48 C45 1.431 . S
C48 C58 1.476 . S
H49 C43 0.929 . S
C50 O41 1.250 . S
C50 O42 1.258 . S
O51 Mn36 2.162 . S
O51 C39 1.281 . S
O52 Mn36 2.297 . S
O52 C39 1.236 . S
N53 Mn37 2.282 . S
N53 C54 1.328 . S
N53 C58 1.318 . S
C54 N53 1.328 . S
C54 C55 1.457 . S
C54 H59 0.929 . S
C55 C54 1.457 . S
C55 C56 1.291 . S
C55 H68 0.931 . S
C56 C55 1.291 . S
C56 C57 1.373 . S
C56 H69 0.929 . S
C57 C56 1.373 . S
C57 C58 1.396 . S
C57 C64 1.403 . S
C58 C48 1.476 . S
C58 N53 1.318 . S
C58 C57 1.396 . S
H59 C54 0.929 . S
O60 Mn36 2.385 . S
O60 C38 1.234 1_655 S
O61 Mn36 2.209 . S
O61 Mn37 2.215 1_655 S
O61 C38 1.283 1_655 S
O62 Mn36 2.094 . S
O62 C40 1.240 . S
O63 Mn37 2.117 1_655 S
O63 C40 1.264 . S
C64 C57 1.403 . S
C64 C65 1.399 . S
C64 H70 0.929 . S
C65 C45 1.449 . S
C65 C64 1.399 . S
C65 H71 0.930 . S
H66 C46 0.931 . S
H67 C47 0.930 . S
H68 C55 0.931 . S
H69 C56 0.929 . S
H70 C64 0.929 . S
H71 C65 0.930 . S
Mn72 O77 2.095 . S
Mn72 O87 2.162 . S
Mn72 O88 2.297 . S
Mn72 O96 2.385 . S
Mn72 O97 2.209 . S
Mn72 O98 2.094 . S
Mn73 O78 2.121 . S
Mn73 N80 2.257 . S
Mn73 N89 2.282 . S
Mn73 O97 2.215 . S
Mn73 O99 2.117 . S
C74 O96 1.234 . S
C74 O97 1.283 . S
C75 O87 1.281 . S
C75 O88 1.236 . S
C76 O98 1.240 . S
C76 O99 1.264 . S
O77 Mn72 2.095 . S
O77 C86 1.250 . S
O78 Mn73 2.121 . S
O78 C86 1.258 . S
C79 N80 1.326 . S
C79 C83 1.460 . S
C79 H85 0.929 . S
N80 Mn73 2.257 . S
N80 C79 1.326 . S
N80 C84 1.362 . S
C81 C82 1.258 . S
C81 C84 1.431 . S
C81 C101 1.449 . S
C82 C81 1.258 . S
C82 C83 1.477 . S
C82 H102 0.931 . S
C83 C79 1.460 . S
C83 C82 1.477 . S
C83 H103 0.930 . S
C84 N80 1.362 . S
C84 C81 1.431 . S
C84 C94 1.476 . S
H85 C79 0.929 . S
C86 O77 1.250 . S
C86 O78 1.258 . S
O87 Mn72 2.162 . S
O87 C75 1.281 . S
O88 Mn72 2.297 . S
O88 C75 1.236 . S
N89 Mn73 2.282 . S
N89 C90 1.328 . S
N89 C94 1.318 . S
C90 N89 1.328 . S
C90 C91 1.457 . S
C90 H95 0.929 . S
C91 C90 1.457 . S
C91 C92 1.291 . S
C91 H104 0.931 . S
C92 C91 1.291 . S
C92 C93 1.373 . S
C92 H105 0.929 . S
C93 C92 1.373 . S
C93 C94 1.396 . S
C93 C100 1.403 . S
C94 C84 1.476 . S
C94 N89 1.318 . S
C94 C93 1.396 . S
H95 C90 0.929 . S
O96 Mn72 2.385 . S
O96 C74 1.234 . S
O97 Mn72 2.209 . S
O97 Mn73 2.215 . S
O97 C74 1.283 . S
O98 Mn72 2.094 . S
O98 C76 1.240 . S
O99 Mn73 2.117 . S
O99 C76 1.264 . S
C100 C93 1.403 . S
C100 C101 1.399 . S
C100 H106 0.929 . S
C101 C81 1.449 . S
C101 C100 1.399 . S
C101 H107 0.930 . S
H102 C82 0.931 . S
H103 C83 0.930 . S
H104 C91 0.931 . S
H105 C92 0.929 . S
H106 C100 0.929 . S
H107 C101 0.930 . S
Mn108 O113 2.095 1_554 S
Mn108 O123 2.162 . S
Mn108 O124 2.297 . S
Mn108 O132 2.385 . S
Mn108 O133 2.209 . S
Mn108 O134 2.094 . S
Mn109 O114 2.121 . S
Mn109 N116 2.257 . S
Mn109 N125 2.282 1_556 S
Mn109 O133 2.215 1_556 S
Mn109 O135 2.117 . S
C110 O132 1.234 . S
C110 O133 1.283 . S
C111 O123 1.281 . S
C111 O124 1.236 . S
C112 O134 1.240 . S
C112 O135 1.264 1_554 S
O113 Mn108 2.095 1_556 S
O113 C122 1.250 . S
O114 Mn109 2.121 . S
O114 C122 1.258 . S
C115 N116 1.326 . S
C115 C119 1.460 . S
C115 H121 0.929 . S
N116 Mn109 2.257 . S
N116 C115 1.326 . S
N116 C120 1.362 . S
C117 C118 1.258 . S
C117 C120 1.431 . S
C117 C137 1.449 . S
C118 C117 1.258 . S
C118 C119 1.477 . S
C118 H138 0.931 . S
C119 C115 1.460 . S
C119 C118 1.477 . S
C119 H139 0.930 . S
C120 N116 1.362 . S
C120 C117 1.431 . S
C120 C130 1.476 . S
H121 C115 0.929 . S
C122 O113 1.250 . S
C122 O114 1.258 . S
O123 Mn108 2.162 . S
O123 C111 1.281 . S
O124 Mn108 2.297 . S
O124 C111 1.236 . S
N125 Mn109 2.282 1_554 S
N125 C126 1.328 . S
N125 C130 1.318 1_554 S
C126 N125 1.328 . S
C126 C127 1.457 . S
C126 H131 0.929 . S
C127 C126 1.457 . S
C127 C128 1.291 . S
C127 H140 0.931 . S
C128 C127 1.291 . S
C128 C129 1.373 . S
C128 H141 0.929 . S
C129 C128 1.373 . S
C129 C130 1.396 1_554 S
C129 C136 1.403 . S
C130 C120 1.476 . S
C130 N125 1.318 1_556 S
C130 C129 1.396 1_556 S
H131 C126 0.929 . S
O132 Mn108 2.385 . S
O132 C110 1.234 . S
O133 Mn108 2.209 . S
O133 Mn109 2.215 1_554 S
O133 C110 1.283 . S
O134 Mn108 2.094 . S
O134 C112 1.240 . S
O135 Mn109 2.117 . S
O135 C112 1.264 1_556 S
C136 C129 1.403 . S
C136 C137 1.399 1_554 S
C136 H142 0.929 . S
C137 C117 1.449 . S
C137 C136 1.399 1_556 S
C137 H143 0.930 . S
H138 C118 0.931 . S
H139 C119 0.930 . S
H140 C127 0.931 . S
H141 C128 0.929 . S
H142 C136 0.929 . S
H143 C137 0.930 . S
Mn144 O149 2.095 . S
Mn144 O159 2.162 . S
Mn144 O160 2.297 . S
Mn144 O168 2.385 . S
Mn144 O169 2.209 . S
Mn144 O170 2.094 . S
Mn145 O150 2.121 . S
Mn145 N152 2.257 . S
Mn145 N161 2.282 . S
Mn145 O169 2.215 . S
Mn145 O171 2.117 . S
C146 O168 1.234 . S
C146 O169 1.283 . S
C147 O159 1.281 . S
C147 O160 1.236 . S
C148 O170 1.240 . S
C148 O171 1.264 . S
O149 Mn144 2.095 . S
O149 C158 1.250 . S
O150 Mn145 2.121 . S
O150 C158 1.258 . S
C151 N152 1.326 . S
C151 C155 1.460 . S
C151 H157 0.929 . S
N152 Mn145 2.257 . S
N152 C151 1.326 . S
N152 C156 1.362 . S
C153 C154 1.258 . S
C153 C156 1.431 . S
C153 C173 1.449 . S
C154 C153 1.258 . S
C154 C155 1.477 . S
C154 H174 0.931 . S
C155 C151 1.460 . S
C155 C154 1.477 . S
C155 H175 0.930 . S
C156 N152 1.362 . S
C156 C153 1.431 . S
C156 C166 1.476 . S
H157 C151 0.929 . S
C158 O149 1.250 . S
C158 O150 1.258 . S
O159 Mn144 2.162 . S
O159 C147 1.281 . S
O160 Mn144 2.297 . S
O160 C147 1.236 . S
N161 Mn145 2.282 . S
N161 C162 1.328 . S
N161 C166 1.318 . S
C162 N161 1.328 . S
C162 C163 1.457 . S
C162 H167 0.929 . S
C163 C162 1.457 . S
C163 C164 1.291 . S
C163 H176 0.931 . S
C164 C163 1.291 . S
C164 C165 1.373 . S
C164 H177 0.929 . S
C165 C164 1.373 . S
C165 C166 1.396 . S
C165 C172 1.403 . S
C166 C156 1.476 . S
C166 N161 1.318 . S
C166 C165 1.396 . S
H167 C162 0.929 . S
O168 Mn144 2.385 . S
O168 C146 1.234 . S
O169 Mn144 2.209 . S
O169 Mn145 2.215 . S
O169 C146 1.283 . S
O170 Mn144 2.094 . S
O170 C148 1.240 . S
O171 Mn145 2.117 . S
O171 C148 1.264 . S
C172 C165 1.403 . S
C172 C173 1.399 . S
C172 H178 0.929 . S
C173 C153 1.449 . S
C173 C172 1.399 . S
C173 H179 0.930 . S
H174 C154 0.931 . S
H175 C155 0.930 . S
H176 C163 0.931 . S
H177 C164 0.929 . S
H178 C172 0.929 . S
H179 C173 0.930 . S
Mn180 O185 2.095 . S
Mn180 O195 2.162 . S
Mn180 O196 2.297 . S
Mn180 O204 2.385 . S
Mn180 O205 2.209 . S
Mn180 O206 2.094 . S
Mn181 O186 2.121 . S
Mn181 N188 2.257 . S
Mn181 N197 2.282 . S
Mn181 O205 2.215 . S
Mn181 O207 2.117 . S
C182 O204 1.234 . S
C182 O205 1.283 . S
C183 O195 1.281 . S
C183 O196 1.236 . S
C184 O206 1.240 . S
C184 O207 1.264 . S
O185 Mn180 2.095 . S
O185 C194 1.250 . S
O186 Mn181 2.121 . S
O186 C194 1.258 . S
C187 N188 1.326 . S
C187 C191 1.460 . S
C187 H193 0.929 . S
N188 Mn181 2.257 . S
N188 C187 1.326 . S
N188 C192 1.362 . S
C189 C190 1.258 . S
C189 C192 1.431 . S
C189 C209 1.449 . S
C190 C189 1.258 . S
C190 C191 1.477 . S
C190 H210 0.931 . S
C191 C187 1.460 . S
C191 C190 1.477 . S
C191 H211 0.930 . S
C192 N188 1.362 . S
C192 C189 1.431 . S
C192 C202 1.476 . S
H193 C187 0.929 . S
C194 O185 1.250 . S
C194 O186 1.258 . S
O195 Mn180 2.162 . S
O195 C183 1.281 . S
O196 Mn180 2.297 . S
O196 C183 1.236 . S
N197 Mn181 2.282 . S
N197 C198 1.328 . S
N197 C202 1.318 . S
C198 N197 1.328 . S
C198 C199 1.457 . S
C198 H203 0.929 . S
C199 C198 1.457 . S
C199 C200 1.291 . S
C199 H212 0.931 . S
C200 C199 1.291 . S
C200 C201 1.373 . S
C200 H213 0.929 . S
C201 C200 1.373 . S
C201 C202 1.396 . S
C201 C208 1.403 . S
C202 C192 1.476 . S
C202 N197 1.318 . S
C202 C201 1.396 . S
H203 C198 0.929 . S
O204 Mn180 2.385 . S
O204 C182 1.234 . S
O205 Mn180 2.209 . S
O205 Mn181 2.215 . S
O205 C182 1.283 . S
O206 Mn180 2.094 . S
O206 C184 1.240 . S
O207 Mn181 2.117 . S
O207 C184 1.264 . S
C208 C201 1.403 . S
C208 C209 1.399 . S
C208 H214 0.929 . S
C209 C189 1.449 . S
C209 C208 1.399 . S
C209 H215 0.930 . S
H210 C190 0.931 . S
H211 C191 0.930 . S
H212 C199 0.931 . S
H213 C200 0.929 . S
H214 C208 0.929 . S
H215 C209 0.930 . S
Mn216 O221 2.095 . S
Mn216 O231 2.162 . S
Mn216 O232 2.297 . S
Mn216 O240 2.385 . S
Mn216 O241 2.209 . S
Mn216 O242 2.094 . S
Mn217 O222 2.121 . S
Mn217 N224 2.257 . S
Mn217 N233 2.282 . S
Mn217 O241 2.215 . S
Mn217 O243 2.117 . S
C218 O240 1.234 . S
C218 O241 1.283 . S
C219 O231 1.281 . S
C219 O232 1.236 . S
C220 O242 1.240 . S
C220 O243 1.264 . S
O221 Mn216 2.095 . S
O221 C230 1.250 . S
O222 Mn217 2.121 . S
O222 C230 1.258 . S
C223 N224 1.326 . S
C223 C227 1.460 . S
C223 H229 0.929 . S
N224 Mn217 2.257 . S
N224 C223 1.326 . S
N224 C228 1.362 . S
C225 C226 1.258 . S
C225 C228 1.431 . S
C225 C245 1.449 . S
C226 C225 1.258 . S
C226 C227 1.477 . S
C226 H246 0.931 . S
C227 C223 1.460 . S
C227 C226 1.477 . S
C227 H247 0.930 . S
C228 N224 1.362 . S
C228 C225 1.431 . S
C228 C238 1.476 . S
H229 C223 0.929 . S
C230 O221 1.250 . S
C230 O222 1.258 . S
O231 Mn216 2.162 . S
O231 C219 1.281 . S
O232 Mn216 2.297 . S
O232 C219 1.236 . S
N233 Mn217 2.282 . S
N233 C234 1.328 . S
N233 C238 1.318 . S
C234 N233 1.328 . S
C234 C235 1.457 . S
C234 H239 0.929 . S
C235 C234 1.457 . S
C235 C236 1.291 . S
C235 H248 0.931 . S
C236 C235 1.291 . S
C236 C237 1.373 . S
C236 H249 0.929 . S
C237 C236 1.373 . S
C237 C238 1.396 . S
C237 C244 1.403 . S
C238 C228 1.476 . S
C238 N233 1.318 . S
C238 C237 1.396 . S
H239 C234 0.929 . S
O240 Mn216 2.385 . S
O240 C218 1.234 . S
O241 Mn216 2.209 . S
O241 Mn217 2.215 . S
O241 C218 1.283 . S
O242 Mn216 2.094 . S
O242 C220 1.240 . S
O243 Mn217 2.117 . S
O243 C220 1.264 . S
C244 C237 1.403 . S
C244 C245 1.399 . S
C244 H250 0.929 . S
C245 C225 1.449 . S
C245 C244 1.399 . S
C245 H251 0.930 . S
H246 C226 0.931 . S
H247 C227 0.930 . S
H248 C235 0.931 . S
H249 C236 0.929 . S
H250 C244 0.929 . S
H251 C245 0.930 . S
Mn252 O257 2.095 1_556 S
Mn252 O267 2.162 . S
Mn252 O268 2.297 . S
Mn252 O276 2.385 . S
Mn252 O277 2.209 . S
Mn252 O278 2.094 . S
Mn253 O258 2.121 1_455 S
Mn253 N260 2.257 . S
Mn253 N269 2.282 1_554 S
Mn253 O277 2.215 1_454 S
Mn253 O279 2.117 1_455 S
C254 O276 1.234 1_455 S
C254 O277 1.283 1_455 S
C255 O267 1.281 . S
C255 O268 1.236 . S
C256 O278 1.240 . S
C256 O279 1.264 1_556 S
O257 Mn252 2.095 1_554 S
O257 C266 1.250 . S
O258 Mn253 2.121 1_655 S
O258 C266 1.258 . S
C259 N260 1.326 . S
C259 C263 1.460 . S
C259 H265 0.929 . S
N260 Mn253 2.257 . S
N260 C259 1.326 . S
N260 C264 1.362 . S
C261 C262 1.258 . S
C261 C264 1.431 . S
C261 C281 1.449 . S
C262 C261 1.258 . S
C262 C263 1.477 . S
C262 H282 0.931 . S
C263 C259 1.460 . S
C263 C262 1.477 . S
C263 H283 0.930 . S
C264 N260 1.362 . S
C264 C261 1.431 . S
C264 C274 1.476 . S
H265 C259 0.929 . S
C266 O257 1.250 . S
C266 O258 1.258 . S
O267 Mn252 2.162 . S
O267 C255 1.281 . S
O268 Mn252 2.297 . S
O268 C255 1.236 . S
N269 Mn253 2.282 1_556 S
N269 C270 1.328 . S
N269 C274 1.318 1_556 S
C270 N269 1.328 . S
C270 C271 1.457 . S
C270 H275 0.929 . S
C271 C270 1.457 . S
C271 C272 1.291 . S
C271 H284 0.931 . S
C272 C271 1.291 . S
C272 C273 1.373 . S
C272 H285 0.929 . S
C273 C272 1.373 . S
C273 C274 1.396 1_556 S
C273 C280 1.403 . S
C274 C264 1.476 . S
C274 N269 1.318 1_554 S
C274 C273 1.396 1_554 S
H275 C270 0.929 . S
O276 Mn252 2.385 . S
O276 C254 1.234 1_655 S
O277 Mn252 2.209 . S
O277 Mn253 2.215 1_656 S
O277 C254 1.283 1_655 S
O278 Mn252 2.094 . S
O278 C256 1.240 . S
O279 Mn253 2.117 1_655 S
O279 C256 1.264 1_554 S
C280 C273 1.403 . S
C280 C281 1.399 1_556 S
C280 H286 0.929 . S
C281 C261 1.449 . S
C281 C280 1.399 1_554 S
C281 H287 0.930 . S
H282 C262 0.931 . S
H283 C263 0.930 . S
H284 C271 0.931 . S
H285 C272 0.929 . S
H286 C280 0.929 . S
H287 C281 0.930 . S
Mn288 O293 2.095 . S
Mn288 O303 2.162 . S
Mn288 O304 2.297 . S
Mn288 O312 2.385 . S
Mn288 O313 2.209 . S
Mn288 O314 2.094 . S
Mn289 O294 2.121 . S
Mn289 N296 2.257 . S
Mn289 N305 2.282 . S
Mn289 O313 2.215 . S
Mn289 O315 2.117 . S
C290 O312 1.234 . S
C290 O313 1.283 . S
C291 O303 1.281 . S
C291 O304 1.236 . S
C292 O314 1.240 . S
C292 O315 1.264 . S
O293 Mn288 2.095 . S
O293 C302 1.250 . S
O294 Mn289 2.121 . S
O294 C302 1.258 . S
C295 N296 1.326 . S
C295 C299 1.460 . S
C295 H301 0.929 . S
N296 Mn289 2.257 . S
N296 C295 1.326 . S
N296 C300 1.362 . S
C297 C298 1.258 . S
C297 C300 1.431 . S
C297 C317 1.449 . S
C298 C297 1.258 . S
C298 C299 1.477 . S
C298 H318 0.931 . S
C299 C295 1.460 . S
C299 C298 1.477 . S
C299 H319 0.930 . S
C300 N296 1.362 . S
C300 C297 1.431 . S
C300 C310 1.476 . S
H301 C295 0.929 . S
C302 O293 1.250 . S
C302 O294 1.258 . S
O303 Mn288 2.162 . S
O303 C291 1.281 . S
O304 Mn288 2.297 . S
O304 C291 1.236 . S
N305 Mn289 2.282 . S
N305 C306 1.328 . S
N305 C310 1.318 . S
C306 N305 1.328 . S
C306 C307 1.457 . S
C306 H311 0.929 . S
C307 C306 1.457 . S
C307 C308 1.291 . S
C307 H320 0.931 . S
C308 C307 1.291 . S
C308 C309 1.373 . S
C308 H321 0.929 . S
C309 C308 1.373 . S
C309 C310 1.396 . S
C309 C316 1.403 . S
C310 C300 1.476 . S
C310 N305 1.318 . S
C310 C309 1.396 . S
H311 C306 0.929 . S
O312 Mn288 2.385 . S
O312 C290 1.234 . S
O313 Mn288 2.209 . S
O313 Mn289 2.215 . S
O313 C290 1.283 . S
O314 Mn288 2.094 . S
O314 C292 1.240 . S
O315 Mn289 2.117 . S
O315 C292 1.264 . S
C316 C309 1.403 . S
C316 C317 1.399 . S
C316 H322 0.929 . S
C317 C297 1.449 . S
C317 C316 1.399 . S
C317 H323 0.930 . S
H318 C298 0.931 . S
H319 C299 0.930 . S
H320 C307 0.931 . S
H321 C308 0.929 . S
H322 C316 0.929 . S
H323 C317 0.930 . S
Mn324 O329 2.095 . S
Mn324 O339 2.162 . S
Mn324 O340 2.297 . S
Mn324 O348 2.385 . S
Mn324 O349 2.209 . S
Mn324 O350 2.094 . S
Mn325 O330 2.121 1_655 S
Mn325 N332 2.257 . S
Mn325 N341 2.282 . S
Mn325 O349 2.215 1_655 S
Mn325 O351 2.117 1_655 S
C326 O348 1.234 . S
C326 O349 1.283 . S
C327 O339 1.281 . S
C327 O340 1.236 . S
C328 O350 1.240 . S
C328 O351 1.264 . S
O329 Mn324 2.095 . S
O329 C338 1.250 . S
O330 Mn325 2.121 1_455 S
O330 C338 1.258 . S
C331 N332 1.326 . S
C331 C335 1.460 . S
C331 H337 0.929 . S
N332 Mn325 2.257 . S
N332 C331 1.326 . S
N332 C336 1.362 . S
C333 C334 1.258 . S
C333 C336 1.431 . S
C333 C353 1.449 . S
C334 C333 1.258 . S
C334 C335 1.477 . S
C334 H354 0.931 . S
C335 C331 1.460 . S
C335 C334 1.477 . S
C335 H355 0.930 . S
C336 N332 1.362 . S
C336 C333 1.431 . S
C336 C346 1.476 . S
H337 C331 0.929 . S
C338 O329 1.250 . S
C338 O330 1.258 . S
O339 Mn324 2.162 . S
O339 C327 1.281 . S
O340 Mn324 2.297 . S
O340 C327 1.236 . S
N341 Mn325 2.282 . S
N341 C342 1.328 . S
N341 C346 1.318 . S
C342 N341 1.328 . S
C342 C343 1.457 . S
C342 H347 0.929 . S
C343 C342 1.457 . S
C343 C344 1.291 . S
C343 H356 0.931 . S
C344 C343 1.291 . S
C344 C345 1.373 . S
C344 H357 0.929 . S
C345 C344 1.373 . S
C345 C346 1.396 . S
C345 C352 1.403 . S
C346 C336 1.476 . S
C346 N341 1.318 . S
C346 C345 1.396 . S
H347 C342 0.929 . S
O348 Mn324 2.385 . S
O348 C326 1.234 . S
O349 Mn324 2.209 . S
O349 Mn325 2.215 1_455 S
O349 C326 1.283 . S
O350 Mn324 2.094 . S
O350 C328 1.240 . S
O351 Mn325 2.117 1_455 S
O351 C328 1.264 . S
C352 C345 1.403 . S
C352 C353 1.399 . S
C352 H358 0.929 . S
C353 C333 1.449 . S
C353 C352 1.399 . S
C353 H359 0.930 . S
H354 C334 0.931 . S
H355 C335 0.930 . S
H356 C343 0.931 . S
H357 C344 0.929 . S
H358 C352 0.929 . S
H359 C353 0.930 . S
Mn360 O365 2.095 . S
Mn360 O375 2.162 . S
Mn360 O376 2.297 . S
Mn360 O384 2.385 . S
Mn360 O385 2.209 . S
Mn360 O386 2.094 . S
Mn361 O366 2.121 . S
Mn361 N368 2.257 . S
Mn361 N377 2.282 . S
Mn361 O385 2.215 . S
Mn361 O387 2.117 . S
C362 O384 1.234 . S
C362 O385 1.283 . S
C363 O375 1.281 . S
C363 O376 1.236 . S
C364 O386 1.240 . S
C364 O387 1.264 . S
O365 Mn360 2.095 . S
O365 C374 1.250 . S
O366 Mn361 2.121 . S
O366 C374 1.258 . S
C367 N368 1.326 . S
C367 C371 1.460 . S
C367 H373 0.929 . S
N368 Mn361 2.257 . S
N368 C367 1.326 . S
N368 C372 1.362 . S
C369 C370 1.258 . S
C369 C372 1.431 . S
C369 C389 1.449 . S
C370 C369 1.258 . S
C370 C371 1.477 . S
C370 H390 0.931 . S
C371 C367 1.460 . S
C371 C370 1.477 . S
C371 H391 0.930 . S
C372 N368 1.362 . S
C372 C369 1.431 . S
C372 C382 1.476 . S
H373 C367 0.929 . S
C374 O365 1.250 . S
C374 O366 1.258 . S
O375 Mn360 2.162 . S
O375 C363 1.281 . S
O376 Mn360 2.297 . S
O376 C363 1.236 . S
N377 Mn361 2.282 . S
N377 C378 1.328 . S
N377 C382 1.318 . S
C378 N377 1.328 . S
C378 C379 1.457 . S
C378 H383 0.929 . S
C379 C378 1.457 . S
C379 C380 1.291 . S
C379 H392 0.931 . S
C380 C379 1.291 . S
C380 C381 1.373 . S
C380 H393 0.929 . S
C381 C380 1.373 . S
C381 C382 1.396 . S
C381 C388 1.403 . S
C382 C372 1.476 . S
C382 N377 1.318 . S
C382 C381 1.396 . S
H383 C378 0.929 . S
O384 Mn360 2.385 . S
O384 C362 1.234 . S
O385 Mn360 2.209 . S
O385 Mn361 2.215 . S
O385 C362 1.283 . S
O386 Mn360 2.094 . S
O386 C364 1.240 . S
O387 Mn361 2.117 . S
O387 C364 1.264 . S
C388 C381 1.403 . S
C388 C389 1.399 . S
C388 H394 0.929 . S
C389 C369 1.449 . S
C389 C388 1.399 . S
C389 H395 0.930 . S
H390 C370 0.931 . S
H391 C371 0.930 . S
H392 C379 0.931 . S
H393 C380 0.929 . S
H394 C388 0.929 . S
H395 C389 0.930 . S
Mn396 O401 2.095 1_556 S
Mn396 O411 2.162 . S
Mn396 O412 2.297 . S
Mn396 O420 2.385 . S
Mn396 O421 2.209 . S
Mn396 O422 2.094 . S
Mn397 O402 2.121 . S
Mn397 N404 2.257 . S
Mn397 N413 2.282 1_554 S
Mn397 O421 2.215 1_554 S
Mn397 O423 2.117 1_554 S
C398 O420 1.234 . S
C398 O421 1.283 . S
C399 O411 1.281 . S
C399 O412 1.236 . S
C400 O422 1.240 . S
C400 O423 1.264 . S
O401 Mn396 2.095 1_554 S
O401 C410 1.250 . S
O402 Mn397 2.121 . S
O402 C410 1.258 . S
C403 N404 1.326 . S
C403 C407 1.460 . S
C403 H409 0.929 . S
N404 Mn397 2.257 . S
N404 C403 1.326 . S
N404 C408 1.362 . S
C405 C406 1.258 . S
C405 C408 1.431 . S
C405 C425 1.449 . S
C406 C405 1.258 . S
C406 C407 1.477 . S
C406 H426 0.931 . S
C407 C403 1.460 . S
C407 C406 1.477 . S
C407 H427 0.930 . S
C408 N404 1.362 . S
C408 C405 1.431 . S
C408 C418 1.476 1_554 S
H409 C403 0.929 . S
C410 O401 1.250 . S
C410 O402 1.258 . S
O411 Mn396 2.162 . S
O411 C399 1.281 . S
O412 Mn396 2.297 . S
O412 C399 1.236 . S
N413 Mn397 2.282 1_556 S
N413 C414 1.328 . S
N413 C418 1.318 . S
C414 N413 1.328 . S
C414 C415 1.457 . S
C414 H419 0.929 . S
C415 C414 1.457 . S
C415 C416 1.291 . S
C415 H428 0.931 . S
C416 C415 1.291 . S
C416 C417 1.373 . S
C416 H429 0.929 . S
C417 C416 1.373 . S
C417 C418 1.396 . S
C417 C424 1.403 . S
C418 C408 1.476 1_556 S
C418 N413 1.318 . S
C418 C417 1.396 . S
H419 C414 0.929 . S
O420 Mn396 2.385 . S
O420 C398 1.234 . S
O421 Mn396 2.209 . S
O421 Mn397 2.215 1_556 S
O421 C398 1.283 . S
O422 Mn396 2.094 . S
O422 C400 1.240 . S
O423 Mn397 2.117 1_556 S
O423 C400 1.264 . S
C424 C417 1.403 . S
C424 C425 1.399 1_556 S
C424 H430 0.929 . S
C425 C405 1.449 . S
C425 C424 1.399 1_554 S
C425 H431 0.930 . S
H426 C406 0.931 . S
H427 C407 0.930 . S
H428 C415 0.931 . S
H429 C416 0.929 . S
H430 C424 0.929 . S
H431 C425 0.930 . S
Mn432 O437 2.095 . S
Mn432 O447 2.162 . S
Mn432 O448 2.297 . S
Mn432 O456 2.385 . S
Mn432 O457 2.209 . S
Mn432 O458 2.094 . S
Mn433 O438 2.121 . S
Mn433 N440 2.257 . S
Mn433 N449 2.282 . S
Mn433 O457 2.215 . S
Mn433 O459 2.117 . S
C434 O456 1.234 . S
C434 O457 1.283 . S
C435 O447 1.281 . S
C435 O448 1.236 . S
C436 O458 1.240 . S
C436 O459 1.264 . S
O437 Mn432 2.095 . S
O437 C446 1.250 . S
O438 Mn433 2.121 . S
O438 C446 1.258 . S
C439 N440 1.326 . S
C439 C443 1.460 . S
C439 H445 0.929 . S
N440 Mn433 2.257 . S
N440 C439 1.326 . S
N440 C444 1.362 . S
C441 C442 1.258 . S
C441 C444 1.431 . S
C441 C461 1.449 . S
C442 C441 1.258 . S
C442 C443 1.477 . S
C442 H462 0.931 . S
C443 C439 1.460 . S
C443 C442 1.477 . S
C443 H463 0.930 . S
C444 N440 1.362 . S
C444 C441 1.431 . S
C444 C454 1.476 . S
H445 C439 0.929 . S
C446 O437 1.250 . S
C446 O438 1.258 . S
O447 Mn432 2.162 . S
O447 C435 1.281 . S
O448 Mn432 2.297 . S
O448 C435 1.236 . S
N449 Mn433 2.282 . S
N449 C450 1.328 . S
N449 C454 1.318 . S
C450 N449 1.328 . S
C450 C451 1.457 . S
C450 H455 0.929 . S
C451 C450 1.457 . S
C451 C452 1.291 . S
C451 H464 0.931 . S
C452 C451 1.291 . S
C452 C453 1.373 . S
C452 H465 0.929 . S
C453 C452 1.373 . S
C453 C454 1.396 . S
C453 C460 1.403 . S
C454 C444 1.476 . S
C454 N449 1.318 . S
C454 C453 1.396 . S
H455 C450 0.929 . S
O456 Mn432 2.385 . S
O456 C434 1.234 . S
O457 Mn432 2.209 . S
O457 Mn433 2.215 . S
O457 C434 1.283 . S
O458 Mn432 2.094 . S
O458 C436 1.240 . S
O459 Mn433 2.117 . S
O459 C436 1.264 . S
C460 C453 1.403 . S
C460 C461 1.399 . S
C460 H466 0.929 . S
C461 C441 1.449 . S
C461 C460 1.399 . S
C461 H467 0.930 . S
H462 C442 0.931 . S
H463 C443 0.930 . S
H464 C451 0.931 . S
H465 C452 0.929 . S
H466 C460 0.929 . S
H467 C461 0.930 . S
Mn468 O473 2.095 . S
Mn468 O483 2.162 . S
Mn468 O484 2.297 . S
Mn468 O492 2.385 . S
Mn468 O493 2.209 . S
Mn468 O494 2.094 . S
Mn469 O474 2.121 . S
Mn469 N476 2.257 . S
Mn469 N485 2.282 . S
Mn469 O493 2.215 . S
Mn469 O495 2.117 . S
C470 O492 1.234 . S
C470 O493 1.283 . S
C471 O483 1.281 . S
C471 O484 1.236 . S
C472 O494 1.240 . S
C472 O495 1.264 . S
O473 Mn468 2.095 . S
O473 C482 1.250 . S
O474 Mn469 2.121 . S
O474 C482 1.258 . S
C475 N476 1.326 . S
C475 C479 1.460 . S
C475 H481 0.929 . S
N476 Mn469 2.257 . S
N476 C475 1.326 . S
N476 C480 1.362 . S
C477 C478 1.258 . S
C477 C480 1.431 . S
C477 C497 1.449 . S
C478 C477 1.258 . S
C478 C479 1.477 . S
C478 H498 0.931 . S
C479 C475 1.460 . S
C479 C478 1.477 . S
C479 H499 0.930 . S
C480 N476 1.362 . S
C480 C477 1.431 . S
C480 C490 1.476 . S
H481 C475 0.929 . S
C482 O473 1.250 . S
C482 O474 1.258 . S
O483 Mn468 2.162 . S
O483 C471 1.281 . S
O484 Mn468 2.297 . S
O484 C471 1.236 . S
N485 Mn469 2.282 . S
N485 C486 1.328 . S
N485 C490 1.318 . S
C486 N485 1.328 . S
C486 C487 1.457 . S
C486 H491 0.929 . S
C487 C486 1.457 . S
C487 C488 1.291 . S
C487 H500 0.931 . S
C488 C487 1.291 . S
C488 C489 1.373 . S
C488 H501 0.929 . S
C489 C488 1.373 . S
C489 C490 1.396 . S
C489 C496 1.403 . S
C490 C480 1.476 . S
C490 N485 1.318 . S
C490 C489 1.396 . S
H491 C486 0.929 . S
O492 Mn468 2.385 . S
O492 C470 1.234 . S
O493 Mn468 2.209 . S
O493 Mn469 2.215 . S
O493 C470 1.283 . S
O494 Mn468 2.094 . S
O494 C472 1.240 . S
O495 Mn469 2.117 . S
O495 C472 1.264 . S
C496 C489 1.403 . S
C496 C497 1.399 . S
C496 H502 0.929 . S
C497 C477 1.449 . S
C497 C496 1.399 . S
C497 H503 0.930 . S
H498 C478 0.931 . S
H499 C479 0.930 . S
H500 C487 0.931 . S
H501 C488 0.929 . S
H502 C496 0.929 . S
H503 C497 0.930 . S
Mn504 O509 2.095 . S
Mn504 O519 2.162 . S
Mn504 O520 2.297 . S
Mn504 O528 2.385 . S
Mn504 O529 2.209 . S
Mn504 O530 2.094 . S
Mn505 O510 2.121 . S
Mn505 N512 2.257 . S
Mn505 N521 2.282 . S
Mn505 O529 2.215 . S
Mn505 O531 2.117 . S
C506 O528 1.234 . S
C506 O529 1.283 . S
C507 O519 1.281 . S
C507 O520 1.236 . S
C508 O530 1.240 . S
C508 O531 1.264 . S
O509 Mn504 2.095 . S
O509 C518 1.250 . S
O510 Mn505 2.121 . S
O510 C518 1.258 . S
C511 N512 1.326 . S
C511 C515 1.460 . S
C511 H517 0.929 . S
N512 Mn505 2.257 . S
N512 C511 1.326 . S
N512 C516 1.362 . S
C513 C514 1.258 . S
C513 C516 1.431 . S
C513 C533 1.449 . S
C514 C513 1.258 . S
C514 C515 1.477 . S
C514 H534 0.931 . S
C515 C511 1.460 . S
C515 C514 1.477 . S
C515 H535 0.930 . S
C516 N512 1.362 . S
C516 C513 1.431 . S
C516 C526 1.476 . S
H517 C511 0.929 . S
C518 O509 1.250 . S
C518 O510 1.258 . S
O519 Mn504 2.162 . S
O519 C507 1.281 . S
O520 Mn504 2.297 . S
O520 C507 1.236 . S
N521 Mn505 2.282 . S
N521 C522 1.328 . S
N521 C526 1.318 . S
C522 N521 1.328 . S
C522 C523 1.457 . S
C522 H527 0.929 . S
C523 C522 1.457 . S
C523 C524 1.291 . S
C523 H536 0.931 . S
C524 C523 1.291 . S
C524 C525 1.373 . S
C524 H537 0.929 . S
C525 C524 1.373 . S
C525 C526 1.396 . S
C525 C532 1.403 . S
C526 C516 1.476 . S
C526 N521 1.318 . S
C526 C525 1.396 . S
H527 C522 0.929 . S
O528 Mn504 2.385 . S
O528 C506 1.234 . S
O529 Mn504 2.209 . S
O529 Mn505 2.215 . S
O529 C506 1.283 . S
O530 Mn504 2.094 . S
O530 C508 1.240 . S
O531 Mn505 2.117 . S
O531 C508 1.264 . S
C532 C525 1.403 . S
C532 C533 1.399 . S
C532 H538 0.929 . S
C533 C513 1.449 . S
C533 C532 1.399 . S
C533 H539 0.930 . S
H534 C514 0.931 . S
H535 C515 0.930 . S
H536 C523 0.931 . S
H537 C524 0.929 . S
H538 C532 0.929 . S
H539 C533 0.930 . S
Mn540 O545 2.095 1_554 S
Mn540 O555 2.162 . S
Mn540 O556 2.297 . S
Mn540 O564 2.385 . S
Mn540 O565 2.209 . S
Mn540 O566 2.094 . S
Mn541 O546 2.121 1_655 S
Mn541 N548 2.257 . S
Mn541 N557 2.282 1_556 S
Mn541 O565 2.215 1_656 S
Mn541 O567 2.117 1_656 S
C542 O564 1.234 . S
C542 O565 1.283 . S
C543 O555 1.281 . S
C543 O556 1.236 . S
C544 O566 1.240 . S
C544 O567 1.264 . S
O545 Mn540 2.095 1_556 S
O545 C554 1.250 . S
O546 Mn541 2.121 1_455 S
O546 C554 1.258 . S
C547 N548 1.326 . S
C547 C551 1.460 . S
C547 H553 0.929 . S
N548 Mn541 2.257 . S
N548 C547 1.326 . S
N548 C552 1.362 . S
C549 C550 1.258 . S
C549 C552 1.431 . S
C549 C569 1.449 . S
C550 C549 1.258 . S
C550 C551 1.477 . S
C550 H570 0.931 . S
C551 C547 1.460 . S
C551 C550 1.477 . S
C551 H571 0.930 . S
C552 N548 1.362 . S
C552 C549 1.431 . S
C552 C562 1.476 1_556 S
H553 C547 0.929 . S
C554 O545 1.250 . S
C554 O546 1.258 . S
O555 Mn540 2.162 . S
O555 C543 1.281 . S
O556 Mn540 2.297 . S
O556 C543 1.236 . S
N557 Mn541 2.282 1_554 S
N557 C558 1.328 . S
N557 C562 1.318 . S
C558 N557 1.328 . S
C558 C559 1.457 . S
C558 H563 0.929 . S
C559 C558 1.457 . S
C559 C560 1.291 . S
C559 H572 0.931 . S
C560 C559 1.291 . S
C560 C561 1.373 . S
C560 H573 0.929 . S
C561 C560 1.373 . S
C561 C562 1.396 . S
C561 C568 1.403 . S
C562 C552 1.476 1_554 S
C562 N557 1.318 . S
C562 C561 1.396 . S
H563 C558 0.929 . S
O564 Mn540 2.385 . S
O564 C542 1.234 . S
O565 Mn540 2.209 . S
O565 Mn541 2.215 1_454 S
O565 C542 1.283 . S
O566 Mn540 2.094 . S
O566 C544 1.240 . S
O567 Mn541 2.117 1_454 S
O567 C544 1.264 . S
C568 C561 1.403 . S
C568 C569 1.399 1_554 S
C568 H574 0.929 . S
C569 C549 1.449 . S
C569 C568 1.399 1_556 S
C569 H575 0.930 . S
H570 C550 0.931 . S
H571 C551 0.930 . S
H572 C559 0.931 . S
H573 C560 0.929 . S
H574 C568 0.929 . S
H575 C569 0.930 . S
Mn576 O581 2.095 . S
Mn576 O591 2.162 . S
Mn576 O592 2.297 . S
Mn576 O600 2.385 . S
Mn576 O601 2.209 . S
Mn576 O602 2.094 . S
Mn577 O582 2.121 . S
Mn577 N584 2.257 . S
Mn577 N593 2.282 . S
Mn577 O601 2.215 . S
Mn577 O603 2.117 . S
C578 O600 1.234 . S
C578 O601 1.283 . S
C579 O591 1.281 . S
C579 O592 1.236 . S
C580 O602 1.240 . S
C580 O603 1.264 . S
O581 Mn576 2.095 . S
O581 C590 1.250 . S
O582 Mn577 2.121 . S
O582 C590 1.258 . S
C583 N584 1.326 . S
C583 C587 1.460 . S
C583 H589 0.929 . S
N584 Mn577 2.257 . S
N584 C583 1.326 . S
N584 C588 1.362 . S
C585 C586 1.258 . S
C585 C588 1.431 . S
C585 C605 1.449 . S
C586 C585 1.258 . S
C586 C587 1.477 . S
C586 H606 0.931 . S
C587 C583 1.460 . S
C587 C586 1.477 . S
C587 H607 0.930 . S
C588 N584 1.362 . S
C588 C585 1.431 . S
C588 C598 1.476 . S
H589 C583 0.929 . S
C590 O581 1.250 . S
C590 O582 1.258 . S
O591 Mn576 2.162 . S
O591 C579 1.281 . S
O592 Mn576 2.297 . S
O592 C579 1.236 . S
N593 Mn577 2.282 . S
N593 C594 1.328 . S
N593 C598 1.318 . S
C594 N593 1.328 . S
C594 C595 1.457 . S
C594 H599 0.929 . S
C595 C594 1.457 . S
C595 C596 1.291 . S
C595 H608 0.931 . S
C596 C595 1.291 . S
C596 C597 1.373 . S
C596 H609 0.929 . S
C597 C596 1.373 . S
C597 C598 1.396 . S
C597 C604 1.403 . S
C598 C588 1.476 . S
C598 N593 1.318 . S
C598 C597 1.396 . S
H599 C594 0.929 . S
O600 Mn576 2.385 . S
O600 C578 1.234 . S
O601 Mn576 2.209 . S
O601 Mn577 2.215 . S
O601 C578 1.283 . S
O602 Mn576 2.094 . S
O602 C580 1.240 . S
O603 Mn577 2.117 . S
O603 C580 1.264 . S
C604 C597 1.403 . S
C604 C605 1.399 . S
C604 H610 0.929 . S
C605 C585 1.449 . S
C605 C604 1.399 . S
C605 H611 0.930 . S
H606 C586 0.931 . S
H607 C587 0.930 . S
H608 C595 0.931 . S
H609 C596 0.929 . S
H610 C604 0.929 . S
H611 C605 0.930 . S
Mn612 O617 2.095 1_554 S
Mn612 O627 2.162 . S
Mn612 O628 2.297 . S
Mn612 O636 2.385 . S
Mn612 O637 2.209 . S
Mn612 O638 2.094 . S
Mn613 O618 2.121 . S
Mn613 N620 2.257 . S
Mn613 N629 2.282 1_556 S
Mn613 O637 2.215 1_556 S
Mn613 O639 2.117 . S
C614 O636 1.234 . S
C614 O637 1.283 . S
C615 O627 1.281 . S
C615 O628 1.236 . S
C616 O638 1.240 . S
C616 O639 1.264 1_554 S
O617 Mn612 2.095 1_556 S
O617 C626 1.250 . S
O618 Mn613 2.121 . S
O618 C626 1.258 . S
C619 N620 1.326 . S
C619 C623 1.460 . S
C619 H625 0.929 . S
N620 Mn613 2.257 . S
N620 C619 1.326 . S
N620 C624 1.362 . S
C621 C622 1.258 . S
C621 C624 1.431 . S
C621 C641 1.449 . S
C622 C621 1.258 . S
C622 C623 1.477 . S
C622 H642 0.931 . S
C623 C619 1.460 . S
C623 C622 1.477 . S
C623 H643 0.930 . S
C624 N620 1.362 . S
C624 C621 1.431 . S
C624 C634 1.476 . S
H625 C619 0.929 . S
C626 O617 1.250 . S
C626 O618 1.258 . S
O627 Mn612 2.162 . S
O627 C615 1.281 . S
O628 Mn612 2.297 . S
O628 C615 1.236 . S
N629 Mn613 2.282 1_554 S
N629 C630 1.328 . S
N629 C634 1.318 1_554 S
C630 N629 1.328 . S
C630 C631 1.457 . S
C630 H635 0.929 . S
C631 C630 1.457 . S
C631 C632 1.291 . S
C631 H644 0.931 . S
C632 C631 1.291 . S
C632 C633 1.373 . S
C632 H645 0.929 . S
C633 C632 1.373 . S
C633 C634 1.396 1_554 S
C633 C640 1.403 . S
C634 C624 1.476 . S
C634 N629 1.318 1_556 S
C634 C633 1.396 1_556 S
H635 C630 0.929 . S
O636 Mn612 2.385 . S
O636 C614 1.234 . S
O637 Mn612 2.209 . S
O637 Mn613 2.215 1_554 S
O637 C614 1.283 . S
O638 Mn612 2.094 . S
O638 C616 1.240 . S
O639 Mn613 2.117 . S
O639 C616 1.264 1_556 S
C640 C633 1.403 . S
C640 C641 1.399 1_554 S
C640 H646 0.929 . S
C641 C621 1.449 . S
C641 C640 1.399 1_556 S
C641 H647 0.930 . S
H642 C622 0.931 . S
H643 C623 0.930 . S
H644 C631 0.931 . S
H645 C632 0.929 . S
H646 C640 0.929 . S
H647 C641 0.930 . S
Mn648 O653 2.095 . S
Mn648 O663 2.162 . S
Mn648 O664 2.297 . S
Mn648 O672 2.385 . S
Mn648 O673 2.209 . S
Mn648 O674 2.094 . S
Mn649 O654 2.121 . S
Mn649 N656 2.257 . S
Mn649 N665 2.282 . S
Mn649 O673 2.215 . S
Mn649 O675 2.117 . S
C650 O672 1.234 . S
C650 O673 1.283 . S
C651 O663 1.281 . S
C651 O664 1.236 . S
C652 O674 1.240 . S
C652 O675 1.264 . S
O653 Mn648 2.095 . S
O653 C662 1.250 . S
O654 Mn649 2.121 . S
O654 C662 1.258 . S
C655 N656 1.326 . S
C655 C659 1.460 . S
C655 H661 0.929 . S
N656 Mn649 2.257 . S
N656 C655 1.326 . S
N656 C660 1.362 . S
C657 C658 1.258 . S
C657 C660 1.431 . S
C657 C677 1.449 . S
C658 C657 1.258 . S
C658 C659 1.477 . S
C658 H678 0.931 . S
C659 C655 1.460 . S
C659 C658 1.477 . S
C659 H679 0.930 . S
C660 N656 1.362 . S
C660 C657 1.431 . S
C660 C670 1.476 . S
H661 C655 0.929 . S
C662 O653 1.250 . S
C662 O654 1.258 . S
O663 Mn648 2.162 . S
O663 C651 1.281 . S
O664 Mn648 2.297 . S
O664 C651 1.236 . S
N665 Mn649 2.282 . S
N665 C666 1.328 . S
N665 C670 1.318 . S
C666 N665 1.328 . S
C666 C667 1.457 . S
C666 H671 0.929 . S
C667 C666 1.457 . S
C667 C668 1.291 . S
C667 H680 0.931 . S
C668 C667 1.291 . S
C668 C669 1.373 . S
C668 H681 0.929 . S
C669 C668 1.373 . S
C669 C670 1.396 . S
C669 C676 1.403 . S
C670 C660 1.476 . S
C670 N665 1.318 . S
C670 C669 1.396 . S
H671 C666 0.929 . S
O672 Mn648 2.385 . S
O672 C650 1.234 . S
O673 Mn648 2.209 . S
O673 Mn649 2.215 . S
O673 C650 1.283 . S
O674 Mn648 2.094 . S
O674 C652 1.240 . S
O675 Mn649 2.117 . S
O675 C652 1.264 . S
C676 C669 1.403 . S
C676 C677 1.399 . S
C676 H682 0.929 . S
C677 C657 1.449 . S
C677 C676 1.399 . S
C677 H683 0.930 . S
H678 C658 0.931 . S
H679 C659 0.930 . S
H680 C667 0.931 . S
H681 C668 0.929 . S
H682 C676 0.929 . S
H683 C677 0.930 . S
Mn684 O689 2.095 . S
Mn684 O699 2.162 . S
Mn684 O700 2.297 . S
Mn684 O708 2.385 . S
Mn684 O709 2.209 . S
Mn684 O710 2.094 . S
Mn685 O690 2.121 1_655 S
Mn685 N692 2.257 . S
Mn685 N701 2.282 . S
Mn685 O709 2.215 1_655 S
Mn685 O711 2.117 1_655 S
C686 O708 1.234 1_655 S
C686 O709 1.283 1_655 S
C687 O699 1.281 . S
C687 O700 1.236 . S
C688 O710 1.240 . S
C688 O711 1.264 . S
O689 Mn684 2.095 . S
O689 C698 1.250 . S
O690 Mn685 2.121 1_455 S
O690 C698 1.258 . S
C691 N692 1.326 . S
C691 C695 1.460 . S
C691 H697 0.929 . S
N692 Mn685 2.257 . S
N692 C691 1.326 . S
N692 C696 1.362 . S
C693 C694 1.258 . S
C693 C696 1.431 . S
C693 C713 1.449 . S
C694 C693 1.258 . S
C694 C695 1.477 . S
C694 H714 0.931 . S
C695 C691 1.460 . S
C695 C694 1.477 . S
C695 H715 0.930 . S
C696 N692 1.362 . S
C696 C693 1.431 . S
C696 C706 1.476 . S
H697 C691 0.929 . S
C698 O689 1.250 . S
C698 O690 1.258 . S
O699 Mn684 2.162 . S
O699 C687 1.281 . S
O700 Mn684 2.297 . S
O700 C687 1.236 . S
N701 Mn685 2.282 . S
N701 C702 1.328 . S
N701 C706 1.318 . S
C702 N701 1.328 . S
C702 C703 1.457 . S
C702 H707 0.929 . S
C703 C702 1.457 . S
C703 C704 1.291 . S
C703 H716 0.931 . S
C704 C703 1.291 . S
C704 C705 1.373 . S
C704 H717 0.929 . S
C705 C704 1.373 . S
C705 C706 1.396 . S
C705 C712 1.403 . S
C706 C696 1.476 . S
C706 N701 1.318 . S
C706 C705 1.396 . S
H707 C702 0.929 . S
O708 Mn684 2.385 . S
O708 C686 1.234 1_455 S
O709 Mn684 2.209 . S
O709 Mn685 2.215 1_455 S
O709 C686 1.283 1_455 S
O710 Mn684 2.094 . S
O710 C688 1.240 . S
O711 Mn685 2.117 1_455 S
O711 C688 1.264 . S
C712 C705 1.403 . S
C712 C713 1.399 . S
C712 H718 0.929 . S
C713 C693 1.449 . S
C713 C712 1.399 . S
C713 H719 0.930 . S
H714 C694 0.931 . S
H715 C695 0.930 . S
H716 C703 0.931 . S
H717 C704 0.929 . S
H718 C712 0.929 . S
H719 C713 0.930 . S
Mn720 O725 2.095 . S
Mn720 O735 2.162 . S
Mn720 O736 2.297 . S
Mn720 O744 2.385 . S
Mn720 O745 2.209 . S
Mn720 O746 2.094 . S
Mn721 O726 2.121 . S
Mn721 N728 2.257 . S
Mn721 N737 2.282 . S
Mn721 O745 2.215 . S
Mn721 O747 2.117 . S
C722 O744 1.234 . S
C722 O745 1.283 . S
C723 O735 1.281 . S
C723 O736 1.236 . S
C724 O746 1.240 . S
C724 O747 1.264 . S
O725 Mn720 2.095 . S
O725 C734 1.250 . S
O726 Mn721 2.121 . S
O726 C734 1.258 . S
C727 N728 1.326 . S
C727 C731 1.460 . S
C727 H733 0.929 . S
N728 Mn721 2.257 . S
N728 C727 1.326 . S
N728 C732 1.362 . S
C729 C730 1.258 . S
C729 C732 1.431 . S
C729 C749 1.449 . S
C730 C729 1.258 . S
C730 C731 1.477 . S
C730 H750 0.931 . S
C731 C727 1.460 . S
C731 C730 1.477 . S
C731 H751 0.930 . S
C732 N728 1.362 . S
C732 C729 1.431 . S
C732 C742 1.476 . S
H733 C727 0.929 . S
C734 O725 1.250 . S
C734 O726 1.258 . S
O735 Mn720 2.162 . S
O735 C723 1.281 . S
O736 Mn720 2.297 . S
O736 C723 1.236 . S
N737 Mn721 2.282 . S
N737 C738 1.328 . S
N737 C742 1.318 . S
C738 N737 1.328 . S
C738 C739 1.457 . S
C738 H743 0.929 . S
C739 C738 1.457 . S
C739 C740 1.291 . S
C739 H752 0.931 . S
C740 C739 1.291 . S
C740 C741 1.373 . S
C740 H753 0.929 . S
C741 C740 1.373 . S
C741 C742 1.396 . S
C741 C748 1.403 . S
C742 C732 1.476 . S
C742 N737 1.318 . S
C742 C741 1.396 . S
H743 C738 0.929 . S
O744 Mn720 2.385 . S
O744 C722 1.234 . S
O745 Mn720 2.209 . S
O745 Mn721 2.215 . S
O745 C722 1.283 . S
O746 Mn720 2.094 . S
O746 C724 1.240 . S
O747 Mn721 2.117 . S
O747 C724 1.264 . S
C748 C741 1.403 . S
C748 C749 1.399 . S
C748 H754 0.929 . S
C749 C729 1.449 . S
C749 C748 1.399 . S
C749 H755 0.930 . S
H750 C730 0.931 . S
H751 C731 0.930 . S
H752 C739 0.931 . S
H753 C740 0.929 . S
H754 C748 0.929 . S
H755 C749 0.930 . S
Mn756 O761 2.095 1_556 S
Mn756 O771 2.162 . S
Mn756 O772 2.297 . S
Mn756 O780 2.385 . S
Mn756 O781 2.209 . S
Mn756 O782 2.094 . S
Mn757 O762 2.121 1_655 S
Mn757 N764 2.257 . S
Mn757 N773 2.282 1_554 S
Mn757 O781 2.215 1_654 S
Mn757 O783 2.117 1_655 S
C758 O780 1.234 1_655 S
C758 O781 1.283 1_655 S
C759 O771 1.281 . S
C759 O772 1.236 . S
C760 O782 1.240 . S
C760 O783 1.264 1_556 S
O761 Mn756 2.095 1_554 S
O761 C770 1.250 . S
O762 Mn757 2.121 1_455 S
O762 C770 1.258 . S
C763 N764 1.326 . S
C763 C767 1.460 . S
C763 H769 0.929 . S
N764 Mn757 2.257 . S
N764 C763 1.326 . S
N764 C768 1.362 . S
C765 C766 1.258 . S
C765 C768 1.431 . S
C765 C785 1.449 . S
C766 C765 1.258 . S
C766 C767 1.477 . S
C766 H786 0.931 . S
C767 C763 1.460 . S
C767 C766 1.477 . S
C767 H787 0.930 . S
C768 N764 1.362 . S
C768 C765 1.431 . S
C768 C778 1.476 . S
H769 C763 0.929 . S
C770 O761 1.250 . S
C770 O762 1.258 . S
O771 Mn756 2.162 . S
O771 C759 1.281 . S
O772 Mn756 2.297 . S
O772 C759 1.236 . S
N773 Mn757 2.282 1_556 S
N773 C774 1.328 . S
N773 C778 1.318 1_556 S
C774 N773 1.328 . S
C774 C775 1.457 . S
C774 H779 0.929 . S
C775 C774 1.457 . S
C775 C776 1.291 . S
C775 H788 0.931 . S
C776 C775 1.291 . S
C776 C777 1.373 . S
C776 H789 0.929 . S
C777 C776 1.373 . S
C777 C778 1.396 1_556 S
C777 C784 1.403 . S
C778 C768 1.476 . S
C778 N773 1.318 1_554 S
C778 C777 1.396 1_554 S
H779 C774 0.929 . S
O780 Mn756 2.385 . S
O780 C758 1.234 1_455 S
O781 Mn756 2.209 . S
O781 Mn757 2.215 1_456 S
O781 C758 1.283 1_455 S
O782 Mn756 2.094 . S
O782 C760 1.240 . S
O783 Mn757 2.117 1_455 S
O783 C760 1.264 1_554 S
C784 C777 1.403 . S
C784 C785 1.399 1_556 S
C784 H790 0.929 . S
C785 C765 1.449 . S
C785 C784 1.399 1_554 S
C785 H791 0.930 . S
H786 C766 0.931 . S
H787 C767 0.930 . S
H788 C775 0.931 . S
H789 C776 0.929 . S
H790 C784 0.929 . S
H791 C785 0.930 . S
Mn792 O797 2.095 . S
Mn792 O807 2.162 . S
Mn792 O808 2.297 . S
Mn792 O816 2.385 . S
Mn792 O817 2.209 . S
Mn792 O818 2.094 . S
Mn793 O798 2.121 . S
Mn793 N800 2.257 . S
Mn793 N809 2.282 . S
Mn793 O817 2.215 . S
Mn793 O819 2.117 . S
C794 O816 1.234 . S
C794 O817 1.283 . S
C795 O807 1.281 . S
C795 O808 1.236 . S
C796 O818 1.240 . S
C796 O819 1.264 . S
O797 Mn792 2.095 . S
O797 C806 1.250 . S
O798 Mn793 2.121 . S
O798 C806 1.258 . S
C799 N800 1.326 . S
C799 C803 1.460 . S
C799 H805 0.929 . S
N800 Mn793 2.257 . S
N800 C799 1.326 . S
N800 C804 1.362 . S
C801 C802 1.258 . S
C801 C804 1.431 . S
C801 C821 1.449 . S
C802 C801 1.258 . S
C802 C803 1.477 . S
C802 H822 0.931 . S
C803 C799 1.460 . S
C803 C802 1.477 . S
C803 H823 0.930 . S
C804 N800 1.362 . S
C804 C801 1.431 . S
C804 C814 1.476 . S
H805 C799 0.929 . S
C806 O797 1.250 . S
C806 O798 1.258 . S
O807 Mn792 2.162 . S
O807 C795 1.281 . S
O808 Mn792 2.297 . S
O808 C795 1.236 . S
N809 Mn793 2.282 . S
N809 C810 1.328 . S
N809 C814 1.318 . S
C810 N809 1.328 . S
C810 C811 1.457 . S
C810 H815 0.929 . S
C811 C810 1.457 . S
C811 C812 1.291 . S
C811 H824 0.931 . S
C812 C811 1.291 . S
C812 C813 1.373 . S
C812 H825 0.929 . S
C813 C812 1.373 . S
C813 C814 1.396 . S
C813 C820 1.403 . S
C814 C804 1.476 . S
C814 N809 1.318 . S
C814 C813 1.396 . S
H815 C810 0.929 . S
O816 Mn792 2.385 . S
O816 C794 1.234 . S
O817 Mn792 2.209 . S
O817 Mn793 2.215 . S
O817 C794 1.283 . S
O818 Mn792 2.094 . S
O818 C796 1.240 . S
O819 Mn793 2.117 . S
O819 C796 1.264 . S
C820 C813 1.403 . S
C820 C821 1.399 . S
C820 H826 0.929 . S
C821 C801 1.449 . S
C821 C820 1.399 . S
C821 H827 0.930 . S
H822 C802 0.931 . S
H823 C803 0.930 . S
H824 C811 0.931 . S
H825 C812 0.929 . S
H826 C820 0.929 . S
H827 C821 0.930 . S
Mn828 O833 2.095 . S
Mn828 O843 2.162 . S
Mn828 O844 2.297 . S
Mn828 O852 2.385 . S
Mn828 O853 2.209 . S
Mn828 O854 2.094 . S
Mn829 O834 2.121 . S
Mn829 N836 2.257 . S
Mn829 N845 2.282 . S
Mn829 O853 2.215 . S
Mn829 O855 2.117 . S
C830 O852 1.234 . S
C830 O853 1.283 . S
C831 O843 1.281 . S
C831 O844 1.236 . S
C832 O854 1.240 . S
C832 O855 1.264 . S
O833 Mn828 2.095 . S
O833 C842 1.250 . S
O834 Mn829 2.121 . S
O834 C842 1.258 . S
C835 N836 1.326 . S
C835 C839 1.460 . S
C835 H841 0.929 . S
N836 Mn829 2.257 . S
N836 C835 1.326 . S
N836 C840 1.362 . S
C837 C838 1.258 . S
C837 C840 1.431 . S
C837 C857 1.449 . S
C838 C837 1.258 . S
C838 C839 1.477 . S
C838 H858 0.931 . S
C839 C835 1.460 . S
C839 C838 1.477 . S
C839 H859 0.930 . S
C840 N836 1.362 . S
C840 C837 1.431 . S
C840 C850 1.476 . S
H841 C835 0.929 . S
C842 O833 1.250 . S
C842 O834 1.258 . S
O843 Mn828 2.162 . S
O843 C831 1.281 . S
O844 Mn828 2.297 . S
O844 C831 1.236 . S
N845 Mn829 2.282 . S
N845 C846 1.328 . S
N845 C850 1.318 . S
C846 N845 1.328 . S
C846 C847 1.457 . S
C846 H851 0.929 . S
C847 C846 1.457 . S
C847 C848 1.291 . S
C847 H860 0.931 . S
C848 C847 1.291 . S
C848 C849 1.373 . S
C848 H861 0.929 . S
C849 C848 1.373 . S
C849 C850 1.396 . S
C849 C856 1.403 . S
C850 C840 1.476 . S
C850 N845 1.318 . S
C850 C849 1.396 . S
H851 C846 0.929 . S
O852 Mn828 2.385 . S
O852 C830 1.234 . S
O853 Mn828 2.209 . S
O853 Mn829 2.215 . S
O853 C830 1.283 . S
O854 Mn828 2.094 . S
O854 C832 1.240 . S
O855 Mn829 2.117 . S
O855 C832 1.264 . S
C856 C849 1.403 . S
C856 C857 1.399 . S
C856 H862 0.929 . S
C857 C837 1.449 . S
C857 C856 1.399 . S
C857 H863 0.930 . S
H858 C838 0.931 . S
H859 C839 0.930 . S
H860 C847 0.931 . S
H861 C848 0.929 . S
H862 C856 0.929 . S
H863 C857 0.930 . S
Mn864 O869 2.095 . S
Mn864 O879 2.162 . S
Mn864 O880 2.297 . S
Mn864 O888 2.385 . S
Mn864 O889 2.209 . S
Mn864 O890 2.094 . S
Mn865 O870 2.121 . S
Mn865 N872 2.257 . S
Mn865 N881 2.282 . S
Mn865 O889 2.215 . S
Mn865 O891 2.117 . S
C866 O888 1.234 . S
C866 O889 1.283 . S
C867 O879 1.281 . S
C867 O880 1.236 . S
C868 O890 1.240 . S
C868 O891 1.264 . S
O869 Mn864 2.095 . S
O869 C878 1.250 . S
O870 Mn865 2.121 . S
O870 C878 1.258 . S
C871 N872 1.326 . S
C871 C875 1.460 . S
C871 H877 0.929 . S
N872 Mn865 2.257 . S
N872 C871 1.326 . S
N872 C876 1.362 . S
C873 C874 1.258 . S
C873 C876 1.431 . S
C873 C893 1.449 . S
C874 C873 1.258 . S
C874 C875 1.477 . S
C874 H894 0.931 . S
C875 C871 1.460 . S
C875 C874 1.477 . S
C875 H895 0.930 . S
C876 N872 1.362 . S
C876 C873 1.431 . S
C876 C886 1.476 . S
H877 C871 0.929 . S
C878 O869 1.250 . S
C878 O870 1.258 . S
O879 Mn864 2.162 . S
O879 C867 1.281 . S
O880 Mn864 2.297 . S
O880 C867 1.236 . S
N881 Mn865 2.282 . S
N881 C882 1.328 . S
N881 C886 1.318 . S
C882 N881 1.328 . S
C882 C883 1.457 . S
C882 H887 0.929 . S
C883 C882 1.457 . S
C883 C884 1.291 . S
C883 H896 0.931 . S
C884 C883 1.291 . S
C884 C885 1.373 . S
C884 H897 0.929 . S
C885 C884 1.373 . S
C885 C886 1.396 . S
C885 C892 1.403 . S
C886 C876 1.476 . S
C886 N881 1.318 . S
C886 C885 1.396 . S
H887 C882 0.929 . S
O888 Mn864 2.385 . S
O888 C866 1.234 . S
O889 Mn864 2.209 . S
O889 Mn865 2.215 . S
O889 C866 1.283 . S
O890 Mn864 2.094 . S
O890 C868 1.240 . S
O891 Mn865 2.117 . S
O891 C868 1.264 . S
C892 C885 1.403 . S
C892 C893 1.399 . S
C892 H898 0.929 . S
C893 C873 1.449 . S
C893 C892 1.399 . S
C893 H899 0.930 . S
H894 C874 0.931 . S
H895 C875 0.930 . S
H896 C883 0.931 . S
H897 C884 0.929 . S
H898 C892 0.929 . S
H899 C893 0.930 . S
Mn900 O905 2.095 1_556 S
Mn900 O915 2.162 . S
Mn900 O916 2.297 . S
Mn900 O924 2.385 . S
Mn900 O925 2.209 . S
Mn900 O926 2.094 . S
Mn901 O906 2.121 . S
Mn901 N908 2.257 . S
Mn901 N917 2.282 1_554 S
Mn901 O925 2.215 1_554 S
Mn901 O927 2.117 1_554 S
C902 O924 1.234 . S
C902 O925 1.283 . S
C903 O915 1.281 . S
C903 O916 1.236 . S
C904 O926 1.240 . S
C904 O927 1.264 . S
O905 Mn900 2.095 1_554 S
O905 C914 1.250 . S
O906 Mn901 2.121 . S
O906 C914 1.258 . S
C907 N908 1.326 . S
C907 C911 1.460 . S
C907 H913 0.929 . S
N908 Mn901 2.257 . S
N908 C907 1.326 . S
N908 C912 1.362 . S
C909 C910 1.258 . S
C909 C912 1.431 . S
C909 C929 1.449 . S
C910 C909 1.258 . S
C910 C911 1.477 . S
C910 H930 0.931 . S
C911 C907 1.460 . S
C911 C910 1.477 . S
C911 H931 0.930 . S
C912 N908 1.362 . S
C912 C909 1.431 . S
C912 C922 1.476 1_554 S
H913 C907 0.929 . S
C914 O905 1.250 . S
C914 O906 1.258 . S
O915 Mn900 2.162 . S
O915 C903 1.281 . S
O916 Mn900 2.297 . S
O916 C903 1.236 . S
N917 Mn901 2.282 1_556 S
N917 C918 1.328 . S
N917 C922 1.318 . S
C918 N917 1.328 . S
C918 C919 1.457 . S
C918 H923 0.929 . S
C919 C918 1.457 . S
C919 C920 1.291 . S
C919 H932 0.931 . S
C920 C919 1.291 . S
C920 C921 1.373 . S
C920 H933 0.929 . S
C921 C920 1.373 . S
C921 C922 1.396 . S
C921 C928 1.403 . S
C922 C912 1.476 1_556 S
C922 N917 1.318 . S
C922 C921 1.396 . S
H923 C918 0.929 . S
O924 Mn900 2.385 . S
O924 C902 1.234 . S
O925 Mn900 2.209 . S
O925 Mn901 2.215 1_556 S
O925 C902 1.283 . S
O926 Mn900 2.094 . S
O926 C904 1.240 . S
O927 Mn901 2.117 1_556 S
O927 C904 1.264 . S
C928 C921 1.403 . S
C928 C929 1.399 1_556 S
C928 H934 0.929 . S
C929 C909 1.449 . S
C929 C928 1.399 1_554 S
C929 H935 0.930 . S
H930 C910 0.931 . S
H931 C911 0.930 . S
H932 C919 0.931 . S
H933 C920 0.929 . S
H934 C928 0.929 . S
H935 C929 0.930 . S
Mn936 O941 2.095 . S
Mn936 O951 2.162 . S
Mn936 O952 2.297 . S
Mn936 O960 2.385 . S
Mn936 O961 2.209 . S
Mn936 O962 2.094 . S
Mn937 O942 2.121 . S
Mn937 N944 2.257 . S
Mn937 N953 2.282 . S
Mn937 O961 2.215 . S
Mn937 O963 2.117 . S
C938 O960 1.234 . S
C938 O961 1.283 . S
C939 O951 1.281 . S
C939 O952 1.236 . S
C940 O962 1.240 . S
C940 O963 1.264 . S
O941 Mn936 2.095 . S
O941 C950 1.250 . S
O942 Mn937 2.121 . S
O942 C950 1.258 . S
C943 N944 1.326 . S
C943 C947 1.460 . S
C943 H949 0.929 . S
N944 Mn937 2.257 . S
N944 C943 1.326 . S
N944 C948 1.362 . S
C945 C946 1.258 . S
C945 C948 1.431 . S
C945 C965 1.449 . S
C946 C945 1.258 . S
C946 C947 1.477 . S
C946 H966 0.931 . S
C947 C943 1.460 . S
C947 C946 1.477 . S
C947 H967 0.930 . S
C948 N944 1.362 . S
C948 C945 1.431 . S
C948 C958 1.476 . S
H949 C943 0.929 . S
C950 O941 1.250 . S
C950 O942 1.258 . S
O951 Mn936 2.162 . S
O951 C939 1.281 . S
O952 Mn936 2.297 . S
O952 C939 1.236 . S
N953 Mn937 2.282 . S
N953 C954 1.328 . S
N953 C958 1.318 . S
C954 N953 1.328 . S
C954 C955 1.457 . S
C954 H959 0.929 . S
C955 C954 1.457 . S
C955 C956 1.291 . S
C955 H968 0.931 . S
C956 C955 1.291 . S
C956 C957 1.373 . S
C956 H969 0.929 . S
C957 C956 1.373 . S
C957 C958 1.396 . S
C957 C964 1.403 . S
C958 C948 1.476 . S
C958 N953 1.318 . S
C958 C957 1.396 . S
H959 C954 0.929 . S
O960 Mn936 2.385 . S
O960 C938 1.234 . S
O961 Mn936 2.209 . S
O961 Mn937 2.215 . S
O961 C938 1.283 . S
O962 Mn936 2.094 . S
O962 C940 1.240 . S
O963 Mn937 2.117 . S
O963 C940 1.264 . S
C964 C957 1.403 . S
C964 C965 1.399 . S
C964 H970 0.929 . S
C965 C945 1.449 . S
C965 C964 1.399 . S
C965 H971 0.930 . S
H966 C946 0.931 . S
H967 C947 0.930 . S
H968 C955 0.931 . S
H969 C956 0.929 . S
H970 C964 0.929 . S
H971 C965 0.930 . S
Mn972 O977 2.095 . S
Mn972 O987 2.162 . S
Mn972 O988 2.297 . S
Mn972 O996 2.385 . S
Mn972 O997 2.209 . S
Mn972 O998 2.094 . S
Mn973 O978 2.121 1_455 S
Mn973 N980 2.257 . S
Mn973 N989 2.282 . S
Mn973 O997 2.215 1_455 S
Mn973 O999 2.117 1_455 S
C974 O996 1.234 . S
C974 O997 1.283 . S
C975 O987 1.281 . S
C975 O988 1.236 . S
C976 O998 1.240 . S
C976 O999 1.264 . S
O977 Mn972 2.095 . S
O977 C986 1.250 . S
O978 Mn973 2.121 1_655 S
O978 C986 1.258 . S
C979 N980 1.326 . S
C979 C983 1.460 . S
C979 H985 0.929 . S
N980 Mn973 2.257 . S
N980 C979 1.326 . S
N980 C984 1.362 . S
C981 C982 1.258 . S
C981 C984 1.431 . S
C981 C1001 1.449 . S
C982 C981 1.258 . S
C982 C983 1.477 . S
C982 H1002 0.931 . S
C983 C979 1.460 . S
C983 C982 1.477 . S
C983 H1003 0.930 . S
C984 N980 1.362 . S
C984 C981 1.431 . S
C984 C994 1.476 . S
H985 C979 0.929 . S
C986 O977 1.250 . S
C986 O978 1.258 . S
O987 Mn972 2.162 . S
O987 C975 1.281 . S
O988 Mn972 2.297 . S
O988 C975 1.236 . S
N989 Mn973 2.282 . S
N989 C990 1.328 . S
N989 C994 1.318 . S
C990 N989 1.328 . S
C990 C991 1.457 . S
C990 H995 0.929 . S
C991 C990 1.457 . S
C991 C992 1.291 . S
C991 H1004 0.931 . S
C992 C991 1.291 . S
C992 C993 1.373 . S
C992 H1005 0.929 . S
C993 C992 1.373 . S
C993 C994 1.396 . S
C993 C1000 1.403 . S
C994 C984 1.476 . S
C994 N989 1.318 . S
C994 C993 1.396 . S
H995 C990 0.929 . S
O996 Mn972 2.385 . S
O996 C974 1.234 . S
O997 Mn972 2.209 . S
O997 Mn973 2.215 1_655 S
O997 C974 1.283 . S
O998 Mn972 2.094 . S
O998 C976 1.240 . S
O999 Mn973 2.117 1_655 S
O999 C976 1.264 . S
C1000 C993 1.403 . S
C1000 C1001 1.399 . S
C1000 H1006 0.929 . S
C1001 C981 1.449 . S
C1001 C1000 1.399 . S
C1001 H1007 0.930 . S
H1002 C982 0.931 . S
H1003 C983 0.930 . S
H1004 C991 0.931 . S
H1005 C992 0.929 . S
H1006 C1000 0.929 . S
H1007 C1001 0.930 . S
Mn1008 O1013 2.095 . S
Mn1008 O1023 2.162 . S
Mn1008 O1024 2.297 . S
Mn1008 O1032 2.385 . S
Mn1008 O1033 2.209 . S
Mn1008 O1034 2.094 . S
Mn1009 O1014 2.121 . S
Mn1009 N1016 2.257 . S
Mn1009 N1025 2.282 . S
Mn1009 O1033 2.215 . S
Mn1009 O1035 2.117 . S
C1010 O1032 1.234 . S
C1010 O1033 1.283 . S
C1011 O1023 1.281 . S
C1011 O1024 1.236 . S
C1012 O1034 1.240 . S
C1012 O1035 1.264 . S
O1013 Mn1008 2.095 . S
O1013 C1022 1.250 . S
O1014 Mn1009 2.121 . S
O1014 C1022 1.258 . S
C1015 N1016 1.326 . S
C1015 C1019 1.460 . S
C1015 H1021 0.929 . S
N1016 Mn1009 2.257 . S
N1016 C1015 1.326 . S
N1016 C1020 1.362 . S
C1017 C1018 1.258 . S
C1017 C1020 1.431 . S
C1017 C1037 1.449 . S
C1018 C1017 1.258 . S
C1018 C1019 1.477 . S
C1018 H1038 0.931 . S
C1019 C1015 1.460 . S
C1019 C1018 1.477 . S
C1019 H1039 0.930 . S
C1020 N1016 1.362 . S
C1020 C1017 1.431 . S
C1020 C1030 1.476 . S
H1021 C1015 0.929 . S
C1022 O1013 1.250 . S
C1022 O1014 1.258 . S
O1023 Mn1008 2.162 . S
O1023 C1011 1.281 . S
O1024 Mn1008 2.297 . S
O1024 C1011 1.236 . S
N1025 Mn1009 2.282 . S
N1025 C1026 1.328 . S
N1025 C1030 1.318 . S
C1026 N1025 1.328 . S
C1026 C1027 1.457 . S
C1026 H1031 0.929 . S
C1027 C1026 1.457 . S
C1027 C1028 1.291 . S
C1027 H1040 0.931 . S
C1028 C1027 1.291 . S
C1028 C1029 1.373 . S
C1028 H1041 0.929 . S
C1029 C1028 1.373 . S
C1029 C1030 1.396 . S
C1029 C1036 1.403 . S
C1030 C1020 1.476 . S
C1030 N1025 1.318 . S
C1030 C1029 1.396 . S
H1031 C1026 0.929 . S
O1032 Mn1008 2.385 . S
O1032 C1010 1.234 . S
O1033 Mn1008 2.209 . S
O1033 Mn1009 2.215 . S
O1033 C1010 1.283 . S
O1034 Mn1008 2.094 . S
O1034 C1012 1.240 . S
O1035 Mn1009 2.117 . S
O1035 C1012 1.264 . S
C1036 C1029 1.403 . S
C1036 C1037 1.399 . S
C1036 H1042 0.929 . S
C1037 C1017 1.449 . S
C1037 C1036 1.399 . S
C1037 H1043 0.930 . S
H1038 C1018 0.931 . S
H1039 C1019 0.930 . S
H1040 C1027 0.931 . S
H1041 C1028 0.929 . S
H1042 C1036 0.929 . S
H1043 C1037 0.930 . S
Mn1044 O1049 2.095 1_554 S
Mn1044 O1059 2.162 . S
Mn1044 O1060 2.297 . S
Mn1044 O1068 2.385 . S
Mn1044 O1069 2.209 . S
Mn1044 O1070 2.094 . S
Mn1045 O1050 2.121 1_455 S
Mn1045 N1052 2.257 . S
Mn1045 N1061 2.282 1_556 S
Mn1045 O1069 2.215 1_456 S
Mn1045 O1071 2.117 1_456 S
C1046 O1068 1.234 . S
C1046 O1069 1.283 . S
C1047 O1059 1.281 . S
C1047 O1060 1.236 . S
C1048 O1070 1.240 . S
C1048 O1071 1.264 . S
O1049 Mn1044 2.095 1_556 S
O1049 C1058 1.250 . S
O1050 Mn1045 2.121 1_655 S
O1050 C1058 1.258 . S
C1051 N1052 1.326 . S
C1051 C1055 1.460 . S
C1051 H1057 0.929 . S
N1052 Mn1045 2.257 . S
N1052 C1051 1.326 . S
N1052 C1056 1.362 . S
C1053 C1054 1.258 . S
C1053 C1056 1.431 . S
C1053 C1073 1.449 . S
C1054 C1053 1.258 . S
C1054 C1055 1.477 . S
C1054 H1074 0.931 . S
C1055 C1051 1.460 . S
C1055 C1054 1.477 . S
C1055 H1075 0.930 . S
C1056 N1052 1.362 . S
C1056 C1053 1.431 . S
C1056 C1066 1.476 1_556 S
H1057 C1051 0.929 . S
C1058 O1049 1.250 . S
C1058 O1050 1.258 . S
O1059 Mn1044 2.162 . S
O1059 C1047 1.281 . S
O1060 Mn1044 2.297 . S
O1060 C1047 1.236 . S
N1061 Mn1045 2.282 1_554 S
N1061 C1062 1.328 . S
N1061 C1066 1.318 . S
C1062 N1061 1.328 . S
C1062 C1063 1.457 . S
C1062 H1067 0.929 . S
C1063 C1062 1.457 . S
C1063 C1064 1.291 . S
C1063 H1076 0.931 . S
C1064 C1063 1.291 . S
C1064 C1065 1.373 . S
C1064 H1077 0.929 . S
C1065 C1064 1.373 . S
C1065 C1066 1.396 . S
C1065 C1072 1.403 . S
C1066 C1056 1.476 1_554 S
C1066 N1061 1.318 . S
C1066 C1065 1.396 . S
H1067 C1062 0.929 . S
O1068 Mn1044 2.385 . S
O1068 C1046 1.234 . S
O1069 Mn1044 2.209 . S
O1069 Mn1045 2.215 1_654 S
O1069 C1046 1.283 . S
O1070 Mn1044 2.094 . S
O1070 C1048 1.240 . S
O1071 Mn1045 2.117 1_654 S
O1071 C1048 1.264 . S
C1072 C1065 1.403 . S
C1072 C1073 1.399 1_554 S
C1072 H1078 0.929 . S
C1073 C1053 1.449 . S
C1073 C1072 1.399 1_556 S
C1073 H1079 0.930 . S
H1074 C1054 0.931 . S
H1075 C1055 0.930 . S
H1076 C1063 0.931 . S
H1077 C1064 0.929 . S
H1078 C1072 0.929 . S
H1079 C1073 0.930 . S
Mn1080 O1085 2.095 . S
Mn1080 O1095 2.162 . S
Mn1080 O1096 2.297 . S
Mn1080 O1104 2.385 . S
Mn1080 O1105 2.209 . S
Mn1080 O1106 2.094 . S
Mn1081 O1086 2.121 . S
Mn1081 N1088 2.257 . S
Mn1081 N1097 2.282 . S
Mn1081 O1105 2.215 . S
Mn1081 O1107 2.117 . S
C1082 O1104 1.234 . S
C1082 O1105 1.283 . S
C1083 O1095 1.281 . S
C1083 O1096 1.236 . S
C1084 O1106 1.240 . S
C1084 O1107 1.264 . S
O1085 Mn1080 2.095 . S
O1085 C1094 1.250 . S
O1086 Mn1081 2.121 . S
O1086 C1094 1.258 . S
C1087 N1088 1.326 . S
C1087 C1091 1.460 . S
C1087 H1093 0.929 . S
N1088 Mn1081 2.257 . S
N1088 C1087 1.326 . S
N1088 C1092 1.362 . S
C1089 C1090 1.258 . S
C1089 C1092 1.431 . S
C1089 C1109 1.449 . S
C1090 C1089 1.258 . S
C1090 C1091 1.477 . S
C1090 H1110 0.931 . S
C1091 C1087 1.460 . S
C1091 C1090 1.477 . S
C1091 H1111 0.930 . S
C1092 N1088 1.362 . S
C1092 C1089 1.431 . S
C1092 C1102 1.476 . S
H1093 C1087 0.929 . S
C1094 O1085 1.250 . S
C1094 O1086 1.258 . S
O1095 Mn1080 2.162 . S
O1095 C1083 1.281 . S
O1096 Mn1080 2.297 . S
O1096 C1083 1.236 . S
N1097 Mn1081 2.282 . S
N1097 C1098 1.328 . S
N1097 C1102 1.318 . S
C1098 N1097 1.328 . S
C1098 C1099 1.457 . S
C1098 H1103 0.929 . S
C1099 C1098 1.457 . S
C1099 C1100 1.291 . S
C1099 H1112 0.931 . S
C1100 C1099 1.291 . S
C1100 C1101 1.373 . S
C1100 H1113 0.929 . S
C1101 C1100 1.373 . S
C1101 C1102 1.396 . S
C1101 C1108 1.403 . S
C1102 C1092 1.476 . S
C1102 N1097 1.318 . S
C1102 C1101 1.396 . S
H1103 C1098 0.929 . S
O1104 Mn1080 2.385 . S
O1104 C1082 1.234 . S
O1105 Mn1080 2.209 . S
O1105 Mn1081 2.215 . S
O1105 C1082 1.283 . S
O1106 Mn1080 2.094 . S
O1106 C1084 1.240 . S
O1107 Mn1081 2.117 . S
O1107 C1084 1.264 . S
C1108 C1101 1.403 . S
C1108 C1109 1.399 . S
C1108 H1114 0.929 . S
C1109 C1089 1.449 . S
C1109 C1108 1.399 . S
C1109 H1115 0.930 . S
H1110 C1090 0.931 . S
H1111 C1091 0.930 . S
H1112 C1099 0.931 . S
H1113 C1100 0.929 . S
H1114 C1108 0.929 . S
H1115 C1109 0.930 . S
Mn1116 O1121 2.095 . S
Mn1116 O1131 2.162 . S
Mn1116 O1132 2.297 . S
Mn1116 O1140 2.385 . S
Mn1116 O1141 2.209 . S
Mn1116 O1142 2.094 . S
Mn1117 O1122 2.121 . S
Mn1117 N1124 2.257 . S
Mn1117 N1133 2.282 . S
Mn1117 O1141 2.215 . S
Mn1117 O1143 2.117 . S
C1118 O1140 1.234 . S
C1118 O1141 1.283 . S
C1119 O1131 1.281 . S
C1119 O1132 1.236 . S
C1120 O1142 1.240 . S
C1120 O1143 1.264 . S
O1121 Mn1116 2.095 . S
O1121 C1130 1.250 . S
O1122 Mn1117 2.121 . S
O1122 C1130 1.258 . S
C1123 N1124 1.326 . S
C1123 C1127 1.460 . S
C1123 H1129 0.929 . S
N1124 Mn1117 2.257 . S
N1124 C1123 1.326 . S
N1124 C1128 1.362 . S
C1125 C1126 1.258 . S
C1125 C1128 1.431 . S
C1125 C1145 1.449 . S
C1126 C1125 1.258 . S
C1126 C1127 1.477 . S
C1126 H1146 0.931 . S
C1127 C1123 1.460 . S
C1127 C1126 1.477 . S
C1127 H1147 0.930 . S
C1128 N1124 1.362 . S
C1128 C1125 1.431 . S
C1128 C1138 1.476 . S
H1129 C1123 0.929 . S
C1130 O1121 1.250 . S
C1130 O1122 1.258 . S
O1131 Mn1116 2.162 . S
O1131 C1119 1.281 . S
O1132 Mn1116 2.297 . S
O1132 C1119 1.236 . S
N1133 Mn1117 2.282 . S
N1133 C1134 1.328 . S
N1133 C1138 1.318 . S
C1134 N1133 1.328 . S
C1134 C1135 1.457 . S
C1134 H1139 0.929 . S
C1135 C1134 1.457 . S
C1135 C1136 1.291 . S
C1135 H1148 0.931 . S
C1136 C1135 1.291 . S
C1136 C1137 1.373 . S
C1136 H1149 0.929 . S
C1137 C1136 1.373 . S
C1137 C1138 1.396 . S
C1137 C1144 1.403 . S
C1138 C1128 1.476 . S
C1138 N1133 1.318 . S
C1138 C1137 1.396 . S
H1139 C1134 0.929 . S
O1140 Mn1116 2.385 . S
O1140 C1118 1.234 . S
O1141 Mn1116 2.209 . S
O1141 Mn1117 2.215 . S
O1141 C1118 1.283 . S
O1142 Mn1116 2.094 . S
O1142 C1120 1.240 . S
O1143 Mn1117 2.117 . S
O1143 C1120 1.264 . S
C1144 C1137 1.403 . S
C1144 C1145 1.399 . S
C1144 H1150 0.929 . S
C1145 C1125 1.449 . S
C1145 C1144 1.399 . S
C1145 H1151 0.930 . S
H1146 C1126 0.931 . S
H1147 C1127 0.930 . S
H1148 C1135 0.931 . S
H1149 C1136 0.929 . S
H1150 C1144 0.929 . S
H1151 C1145 0.930 . S
C1152 C1153 1.363 . S
C1152 C1158 1.379 . S
C1152 N1160 1.356 . S
C1153 C1152 1.363 . S
C1153 C1159 1.363 . S
C1154 C1155 1.363 . S
C1154 C1159 1.379 . S
C1154 N1161 1.356 . S
C1155 C1154 1.363 . S
C1155 C1158 1.363 . S
N1156 C1158 1.356 . S
N1156 H1168 0.984 . S
N1156 H1169 0.985 . S
N1157 C1159 1.356 . S
N1157 H1162 0.984 . S
N1157 H1163 0.985 . S
C1158 C1152 1.379 . S
C1158 C1155 1.363 . S
C1158 N1156 1.356 . S
C1159 C1153 1.363 . S
C1159 C1154 1.379 . S
C1159 N1157 1.356 . S
N1160 C1152 1.356 . S
N1160 H1166 0.984 . S
N1160 H1167 0.984 . S
N1161 C1154 1.356 . S
N1161 H1164 0.984 . S
N1161 H1165 0.985 . S
H1162 N1157 0.984 . S
H1163 N1157 0.985 . S
H1164 N1161 0.984 . S
H1165 N1161 0.985 . S
H1166 N1160 0.984 . S
H1167 N1160 0.984 . S
H1168 N1156 0.984 . S
H1169 N1156 0.985 . S
C1170 C1171 1.363 . S
C1170 C1176 1.379 . S
C1170 N1178 1.356 . S
C1171 C1170 1.363 . S
C1171 C1177 1.363 . S
C1172 C1173 1.363 . S
C1172 C1177 1.379 . S
C1172 N1179 1.356 . S
C1173 C1172 1.363 . S
C1173 C1176 1.363 . S
N1174 C1176 1.356 . S
N1174 H1186 0.984 . S
N1174 H1187 0.985 . S
N1175 C1177 1.356 . S
N1175 H1180 0.984 . S
N1175 H1181 0.985 . S
C1176 C1170 1.379 . S
C1176 C1173 1.363 . S
C1176 N1174 1.356 . S
C1177 C1171 1.363 . S
C1177 C1172 1.379 . S
C1177 N1175 1.356 . S
N1178 C1170 1.356 . S
N1178 H1184 0.984 . S
N1178 H1185 0.984 . S
N1179 C1172 1.356 . S
N1179 H1182 0.984 . S
N1179 H1183 0.985 . S
H1180 N1175 0.984 . S
H1181 N1175 0.985 . S
H1182 N1179 0.984 . S
H1183 N1179 0.985 . S
H1184 N1178 0.984 . S
H1185 N1178 0.984 . S
H1186 N1174 0.984 . S
H1187 N1174 0.985 . S
C1188 C1189 1.363 . S
C1188 C1194 1.379 . S
C1188 N1196 1.356 . S
C1189 C1188 1.363 . S
C1189 C1195 1.363 . S
C1190 C1191 1.363 . S
C1190 C1195 1.379 . S
C1190 N1197 1.356 . S
C1191 C1190 1.363 . S
C1191 C1194 1.363 . S
N1192 C1194 1.356 . S
N1192 H1204 0.984 . S
N1192 H1205 0.985 . S
N1193 C1195 1.356 . S
N1193 H1198 0.984 . S
N1193 H1199 0.985 . S
C1194 C1188 1.379 . S
C1194 C1191 1.363 . S
C1194 N1192 1.356 . S
C1195 C1189 1.363 . S
C1195 C1190 1.379 . S
C1195 N1193 1.356 . S
N1196 C1188 1.356 . S
N1196 H1202 0.984 . S
N1196 H1203 0.984 . S
N1197 C1190 1.356 . S
N1197 H1200 0.984 . S
N1197 H1201 0.985 . S
H1198 N1193 0.984 . S
H1199 N1193 0.985 . S
H1200 N1197 0.984 . S
H1201 N1197 0.985 . S
H1202 N1196 0.984 . S
H1203 N1196 0.984 . S
H1204 N1192 0.984 . S
H1205 N1192 0.985 . S
C1206 C1207 1.363 . S
C1206 C1212 1.379 . S
C1206 N1214 1.356 . S
C1207 C1206 1.363 . S
C1207 C1213 1.363 . S
C1208 C1209 1.363 . S
C1208 C1213 1.379 . S
C1208 N1215 1.356 . S
C1209 C1208 1.363 . S
C1209 C1212 1.363 . S
N1210 C1212 1.356 . S
N1210 H1222 0.984 . S
N1210 H1223 0.985 . S
N1211 C1213 1.356 . S
N1211 H1216 0.984 . S
N1211 H1217 0.985 . S
C1212 C1206 1.379 . S
C1212 C1209 1.363 . S
C1212 N1210 1.356 . S
C1213 C1207 1.363 . S
C1213 C1208 1.379 . S
C1213 N1211 1.356 . S
N1214 C1206 1.356 . S
N1214 H1220 0.984 . S
N1214 H1221 0.984 . S
N1215 C1208 1.356 . S
N1215 H1218 0.984 . S
N1215 H1219 0.985 . S
H1216 N1211 0.984 . S
H1217 N1211 0.985 . S
H1218 N1215 0.984 . S
H1219 N1215 0.985 . S
H1220 N1214 0.984 . S
H1221 N1214 0.984 . S
H1222 N1210 0.984 . S
H1223 N1210 0.985 . S
C1224 C1225 1.363 . S
C1224 C1230 1.379 . S
C1224 N1232 1.356 . S
C1225 C1224 1.363 . S
C1225 C1231 1.363 . S
C1226 C1227 1.363 . S
C1226 C1231 1.379 . S
C1226 N1233 1.356 . S
C1227 C1226 1.363 . S
C1227 C1230 1.363 . S
N1228 C1230 1.356 . S
N1228 H1240 0.984 . S
N1228 H1241 0.985 . S
N1229 C1231 1.356 . S
N1229 H1234 0.984 . S
N1229 H1235 0.985 . S
C1230 C1224 1.379 . S
C1230 C1227 1.363 . S
C1230 N1228 1.356 . S
C1231 C1225 1.363 . S
C1231 C1226 1.379 . S
C1231 N1229 1.356 . S
N1232 C1224 1.356 . S
N1232 H1238 0.984 . S
N1232 H1239 0.984 . S
N1233 C1226 1.356 . S
N1233 H1236 0.984 . S
N1233 H1237 0.985 . S
H1234 N1229 0.984 . S
H1235 N1229 0.985 . S
H1236 N1233 0.984 . S
H1237 N1233 0.985 . S
H1238 N1232 0.984 . S
H1239 N1232 0.984 . S
H1240 N1228 0.984 . S
H1241 N1228 0.985 . S
C1242 C1243 1.363 . S
C1242 C1248 1.379 . S
C1242 N1250 1.356 . S
C1243 C1242 1.363 . S
C1243 C1249 1.363 . S
C1244 C1245 1.363 . S
C1244 C1249 1.379 . S
C1244 N1251 1.356 . S
C1245 C1244 1.363 . S
C1245 C1248 1.363 . S
N1246 C1248 1.356 . S
N1246 H1258 0.984 . S
N1246 H1259 0.985 . S
N1247 C1249 1.356 . S
N1247 H1252 0.984 . S
N1247 H1253 0.985 . S
C1248 C1242 1.379 . S
C1248 C1245 1.363 . S
C1248 N1246 1.356 . S
C1249 C1243 1.363 . S
C1249 C1244 1.379 . S
C1249 N1247 1.356 . S
N1250 C1242 1.356 . S
N1250 H1256 0.984 . S
N1250 H1257 0.984 . S
N1251 C1244 1.356 . S
N1251 H1254 0.984 . S
N1251 H1255 0.985 . S
H1252 N1247 0.984 . S
H1253 N1247 0.985 . S
H1254 N1251 0.984 . S
H1255 N1251 0.985 . S
H1256 N1250 0.984 . S
H1257 N1250 0.984 . S
H1258 N1246 0.984 . S
H1259 N1246 0.985 . S
C1260 C1261 1.363 . S
C1260 C1266 1.379 . S
C1260 N1268 1.356 . S
C1261 C1260 1.363 . S
C1261 C1267 1.363 . S
C1262 C1263 1.363 . S
C1262 C1267 1.379 . S
C1262 N1269 1.356 . S
C1263 C1262 1.363 . S
C1263 C1266 1.363 . S
N1264 C1266 1.356 . S
N1264 H1276 0.984 . S
N1264 H1277 0.985 . S
N1265 C1267 1.356 . S
N1265 H1270 0.984 . S
N1265 H1271 0.985 . S
C1266 C1260 1.379 . S
C1266 C1263 1.363 . S
C1266 N1264 1.356 . S
C1267 C1261 1.363 . S
C1267 C1262 1.379 . S
C1267 N1265 1.356 . S
N1268 C1260 1.356 . S
N1268 H1274 0.984 . S
N1268 H1275 0.984 . S
N1269 C1262 1.356 . S
N1269 H1272 0.984 . S
N1269 H1273 0.985 . S
H1270 N1265 0.984 . S
H1271 N1265 0.985 . S
H1272 N1269 0.984 . S
H1273 N1269 0.985 . S
H1274 N1268 0.984 . S
H1275 N1268 0.984 . S
H1276 N1264 0.984 . S
H1277 N1264 0.985 . S
C1278 C1279 1.363 . S
C1278 C1284 1.379 . S
C1278 N1286 1.356 . S
C1279 C1278 1.363 . S
C1279 C1285 1.363 . S
C1280 C1281 1.363 . S
C1280 C1285 1.379 . S
C1280 N1287 1.356 . S
C1281 C1280 1.363 . S
C1281 C1284 1.363 . S
N1282 C1284 1.356 . S
N1282 H1294 0.984 1_556 S
N1282 H1295 0.985 . S
N1283 C1285 1.356 . S
N1283 H1288 0.984 . S
N1283 H1289 0.985 . S
C1284 C1278 1.379 . S
C1284 C1281 1.363 . S
C1284 N1282 1.356 . S
C1285 C1279 1.363 . S
C1285 C1280 1.379 . S
C1285 N1283 1.356 . S
N1286 C1278 1.356 . S
N1286 H1292 0.984 . S
N1286 H1293 0.984 . S
N1287 C1280 1.356 . S
N1287 H1290 0.984 1_455 S
N1287 H1291 0.985 1_455 S
H1288 N1283 0.984 . S
H1289 N1283 0.985 . S
H1290 N1287 0.984 1_655 S
H1291 N1287 0.985 1_655 S
H1292 N1286 0.984 . S
H1293 N1286 0.984 . S
H1294 N1282 0.984 1_554 S
H1295 N1282 0.985 . S
C1296 C1297 1.363 . S
C1296 C1302 1.379 . S
C1296 N1304 1.356 . S
C1297 C1296 1.363 . S
C1297 C1303 1.363 . S
C1298 C1299 1.363 . S
C1298 C1303 1.379 . S
C1298 N1305 1.356 . S
C1299 C1298 1.363 . S
C1299 C1302 1.363 . S
N1300 C1302 1.356 . S
N1300 H1312 0.984 . S
N1300 H1313 0.985 . S
N1301 C1303 1.356 . S
N1301 H1306 0.984 . S
N1301 H1307 0.985 . S
C1302 C1296 1.379 . S
C1302 C1299 1.363 . S
C1302 N1300 1.356 . S
C1303 C1297 1.363 . S
C1303 C1298 1.379 . S
C1303 N1301 1.356 . S
N1304 C1296 1.356 . S
N1304 H1310 0.984 . S
N1304 H1311 0.984 . S
N1305 C1298 1.356 . S
N1305 H1308 0.984 . S
N1305 H1309 0.985 . S
H1306 N1301 0.984 . S
H1307 N1301 0.985 . S
H1308 N1305 0.984 . S
H1309 N1305 0.985 . S
H1310 N1304 0.984 . S
H1311 N1304 0.984 . S
H1312 N1300 0.984 . S
H1313 N1300 0.985 . S
C1314 C1315 1.363 . S
C1314 C1320 1.379 . S
C1314 N1322 1.356 . S
C1315 C1314 1.363 . S
C1315 C1321 1.363 . S
C1316 C1317 1.363 . S
C1316 C1321 1.379 . S
C1316 N1323 1.356 . S
C1317 C1316 1.363 . S
C1317 C1320 1.363 . S
N1318 C1320 1.356 . S
N1318 H1330 0.984 . S
N1318 H1331 0.985 . S
N1319 C1321 1.356 . S
N1319 H1324 0.984 . S
N1319 H1325 0.985 . S
C1320 C1314 1.379 . S
C1320 C1317 1.363 . S
C1320 N1318 1.356 . S
C1321 C1315 1.363 . S
C1321 C1316 1.379 . S
C1321 N1319 1.356 . S
N1322 C1314 1.356 . S
N1322 H1328 0.984 . S
N1322 H1329 0.984 1_655 S
N1323 C1316 1.356 . S
N1323 H1326 0.984 . S
N1323 H1327 0.985 . S
H1324 N1319 0.984 . S
H1325 N1319 0.985 . S
H1326 N1323 0.984 . S
H1327 N1323 0.985 . S
H1328 N1322 0.984 . S
H1329 N1322 0.984 1_455 S
H1330 N1318 0.984 . S
H1331 N1318 0.985 . S
C1332 C1333 1.363 . S
C1332 C1338 1.379 . S
C1332 N1340 1.356 . S
C1333 C1332 1.363 . S
C1333 C1339 1.363 . S
C1334 C1335 1.363 . S
C1334 C1339 1.379 . S
C1334 N1341 1.356 . S
C1335 C1334 1.363 . S
C1335 C1338 1.363 . S
N1336 C1338 1.356 . S
N1336 H1348 0.984 . S
N1336 H1349 0.985 . S
N1337 C1339 1.356 . S
N1337 H1342 0.984 . S
N1337 H1343 0.985 . S
C1338 C1332 1.379 . S
C1338 C1335 1.363 . S
C1338 N1336 1.356 . S
C1339 C1333 1.363 . S
C1339 C1334 1.379 . S
C1339 N1337 1.356 . S
N1340 C1332 1.356 . S
N1340 H1346 0.984 . S
N1340 H1347 0.984 . S
N1341 C1334 1.356 . S
N1341 H1344 0.984 . S
N1341 H1345 0.985 . S
H1342 N1337 0.984 . S
H1343 N1337 0.985 . S
H1344 N1341 0.984 . S
H1345 N1341 0.985 . S
H1346 N1340 0.984 . S
H1347 N1340 0.984 . S
H1348 N1336 0.984 . S
H1349 N1336 0.985 . S
C1350 C1351 1.363 . S
C1350 C1356 1.379 . S
C1350 N1358 1.356 . S
C1351 C1350 1.363 . S
C1351 C1357 1.363 . S
C1352 C1353 1.363 . S
C1352 C1357 1.379 . S
C1352 N1359 1.356 . S
C1353 C1352 1.363 . S
C1353 C1356 1.363 . S
N1354 C1356 1.356 . S
N1354 H1366 0.984 . S
N1354 H1367 0.985 . S
N1355 C1357 1.356 . S
N1355 H1360 0.984 . S
N1355 H1361 0.985 . S
C1356 C1350 1.379 . S
C1356 C1353 1.363 . S
C1356 N1354 1.356 . S
C1357 C1351 1.363 . S
C1357 C1352 1.379 . S
C1357 N1355 1.356 . S
N1358 C1350 1.356 . S
N1358 H1364 0.984 . S
N1358 H1365 0.984 . S
N1359 C1352 1.356 . S
N1359 H1362 0.984 . S
N1359 H1363 0.985 . S
H1360 N1355 0.984 . S
H1361 N1355 0.985 . S
H1362 N1359 0.984 . S
H1363 N1359 0.985 . S
H1364 N1358 0.984 . S
H1365 N1358 0.984 . S
H1366 N1354 0.984 . S
H1367 N1354 0.985 . S
C1368 C1369 1.363 . S
C1368 C1374 1.379 . S
C1368 N1376 1.356 . S
C1369 C1368 1.363 . S
C1369 C1375 1.363 . S
C1370 C1371 1.363 . S
C1370 C1375 1.379 . S
C1370 N1377 1.356 . S
C1371 C1370 1.363 . S
C1371 C1374 1.363 . S
N1372 C1374 1.356 . S
N1372 H1384 0.984 . S
N1372 H1385 0.985 . S
N1373 C1375 1.356 . S
N1373 H1378 0.984 . S
N1373 H1379 0.985 . S
C1374 C1368 1.379 . S
C1374 C1371 1.363 . S
C1374 N1372 1.356 . S
C1375 C1369 1.363 . S
C1375 C1370 1.379 . S
C1375 N1373 1.356 . S
N1376 C1368 1.356 . S
N1376 H1382 0.984 . S
N1376 H1383 0.984 . S
N1377 C1370 1.356 . S
N1377 H1380 0.984 . S
N1377 H1381 0.985 . S
H1378 N1373 0.984 . S
H1379 N1373 0.985 . S
H1380 N1377 0.984 . S
H1381 N1377 0.985 . S
H1382 N1376 0.984 . S
H1383 N1376 0.984 . S
H1384 N1372 0.984 . S
H1385 N1372 0.985 . S
C1386 C1387 1.363 . S
C1386 C1392 1.379 . S
C1386 N1394 1.356 . S
C1387 C1386 1.363 . S
C1387 C1393 1.363 . S
C1388 C1389 1.363 . S
C1388 C1393 1.379 . S
C1388 N1395 1.356 . S
C1389 C1388 1.363 . S
C1389 C1392 1.363 . S
N1390 C1392 1.356 . S
N1390 H1402 0.984 . S
N1390 H1403 0.985 . S
N1391 C1393 1.356 . S
N1391 H1396 0.984 . S
N1391 H1397 0.985 . S
C1392 C1386 1.379 . S
C1392 C1389 1.363 . S
C1392 N1390 1.356 . S
C1393 C1387 1.363 . S
C1393 C1388 1.379 . S
C1393 N1391 1.356 . S
N1394 C1386 1.356 . S
N1394 H1400 0.984 . S
N1394 H1401 0.984 . S
N1395 C1388 1.356 . S
N1395 H1398 0.984 . S
N1395 H1399 0.985 . S
H1396 N1391 0.984 . S
H1397 N1391 0.985 . S
H1398 N1395 0.984 . S
H1399 N1395 0.985 . S
H1400 N1394 0.984 . S
H1401 N1394 0.984 . S
H1402 N1390 0.984 . S
H1403 N1390 0.985 . S
C1404 C1405 1.363 . S
C1404 C1410 1.379 . S
C1404 N1412 1.356 . S
C1405 C1404 1.363 . S
C1405 C1411 1.363 . S
C1406 C1407 1.363 . S
C1406 C1411 1.379 . S
C1406 N1413 1.356 . S
C1407 C1406 1.363 . S
C1407 C1410 1.363 . S
N1408 C1410 1.356 . S
N1408 H1420 0.984 . S
N1408 H1421 0.985 . S
N1409 C1411 1.356 . S
N1409 H1414 0.984 . S
N1409 H1415 0.985 . S
C1410 C1404 1.379 . S
C1410 C1407 1.363 . S
C1410 N1408 1.356 . S
C1411 C1405 1.363 . S
C1411 C1406 1.379 . S
C1411 N1409 1.356 . S
N1412 C1404 1.356 . S
N1412 H1418 0.984 . S
N1412 H1419 0.984 . S
N1413 C1406 1.356 . S
N1413 H1416 0.984 . S
N1413 H1417 0.985 . S
H1414 N1409 0.984 . S
H1415 N1409 0.985 . S
H1416 N1413 0.984 . S
H1417 N1413 0.985 . S
H1418 N1412 0.984 . S
H1419 N1412 0.984 . S
H1420 N1408 0.984 . S
H1421 N1408 0.985 . S
C1422 C1423 1.363 . S
C1422 C1428 1.379 . S
C1422 N1430 1.356 . S
C1423 C1422 1.363 . S
C1423 C1429 1.363 . S
C1424 C1425 1.363 . S
C1424 C1429 1.379 . S
C1424 N1431 1.356 . S
C1425 C1424 1.363 . S
C1425 C1428 1.363 . S
N1426 C1428 1.356 1_455 S
N1426 H1438 0.984 . S
N1426 H1439 0.985 . S
N1427 C1429 1.356 . S
N1427 H1432 0.984 . S
N1427 H1433 0.985 . S
C1428 C1422 1.379 . S
C1428 C1425 1.363 . S
C1428 N1426 1.356 1_655 S
C1429 C1423 1.363 . S
C1429 C1424 1.379 . S
C1429 N1427 1.356 . S
N1430 C1422 1.356 . S
N1430 H1436 0.984 . S
N1430 H1437 0.984 . S
N1431 C1424 1.356 . S
N1431 H1434 0.984 . S
N1431 H1435 0.985 . S
H1432 N1427 0.984 . S
H1433 N1427 0.985 . S
H1434 N1431 0.984 . S
H1435 N1431 0.985 . S
H1436 N1430 0.984 . S
H1437 N1430 0.984 . S
H1438 N1426 0.984 . S
H1439 N1426 0.985 . S
C1440 C1441 1.363 . S
C1440 C1446 1.379 . S
C1440 N1448 1.356 . S
C1441 C1440 1.363 . S
C1441 C1447 1.363 . S
C1442 C1443 1.363 . S
C1442 C1447 1.379 . S
C1442 N1449 1.356 . S
C1443 C1442 1.363 . S
C1443 C1446 1.363 . S
N1444 C1446 1.356 . S
N1444 H1456 0.984 . S
N1444 H1457 0.985 . S
N1445 C1447 1.356 . S
N1445 H1450 0.984 . S
N1445 H1451 0.985 . S
C1446 C1440 1.379 . S
C1446 C1443 1.363 . S
C1446 N1444 1.356 . S
C1447 C1441 1.363 . S
C1447 C1442 1.379 . S
C1447 N1445 1.356 . S
N1448 C1440 1.356 . S
N1448 H1454 0.984 . S
N1448 H1455 0.984 . S
N1449 C1442 1.356 . S
N1449 H1452 0.984 . S
N1449 H1453 0.985 . S
H1450 N1445 0.984 . S
H1451 N1445 0.985 . S
H1452 N1449 0.984 . S
H1453 N1449 0.985 . S
H1454 N1448 0.984 . S
H1455 N1448 0.984 . S
H1456 N1444 0.984 . S
H1457 N1444 0.985 . S
C1458 C1459 1.363 . S
C1458 C1464 1.379 . S
C1458 N1466 1.356 . S
C1459 C1458 1.363 . S
C1459 C1465 1.363 . S
C1460 C1461 1.363 . S
C1460 C1465 1.379 . S
C1460 N1467 1.356 . S
C1461 C1460 1.363 . S
C1461 C1464 1.363 . S
N1462 C1464 1.356 . S
N1462 H1474 0.984 . S
N1462 H1475 0.985 . S
N1463 C1465 1.356 . S
N1463 H1468 0.984 . S
N1463 H1469 0.985 . S
C1464 C1458 1.379 . S
C1464 C1461 1.363 . S
C1464 N1462 1.356 . S
C1465 C1459 1.363 . S
C1465 C1460 1.379 . S
C1465 N1463 1.356 . S
N1466 C1458 1.356 . S
N1466 H1472 0.984 . S
N1466 H1473 0.984 . S
N1467 C1460 1.356 . S
N1467 H1470 0.984 . S
N1467 H1471 0.985 . S
H1468 N1463 0.984 . S
H1469 N1463 0.985 . S
H1470 N1467 0.984 . S
H1471 N1467 0.985 . S
H1472 N1466 0.984 . S
H1473 N1466 0.984 . S
H1474 N1462 0.984 . S
H1475 N1462 0.985 . S
C1476 C1477 1.363 . S
C1476 C1482 1.379 . S
C1476 N1484 1.356 . S
C1477 C1476 1.363 . S
C1477 C1483 1.363 . S
C1478 C1479 1.363 . S
C1478 C1483 1.379 . S
C1478 N1485 1.356 . S
C1479 C1478 1.363 . S
C1479 C1482 1.363 . S
N1480 C1482 1.356 . S
N1480 H1492 0.984 . S
N1480 H1493 0.985 . S
N1481 C1483 1.356 . S
N1481 H1486 0.984 . S
N1481 H1487 0.985 . S
C1482 C1476 1.379 . S
C1482 C1479 1.363 . S
C1482 N1480 1.356 . S
C1483 C1477 1.363 . S
C1483 C1478 1.379 . S
C1483 N1481 1.356 . S
N1484 C1476 1.356 . S
N1484 H1490 0.984 . S
N1484 H1491 0.984 . S
N1485 C1478 1.356 . S
N1485 H1488 0.984 . S
N1485 H1489 0.985 . S
H1486 N1481 0.984 . S
H1487 N1481 0.985 . S
H1488 N1485 0.984 . S
H1489 N1485 0.985 . S
H1490 N1484 0.984 . S
H1491 N1484 0.984 . S
H1492 N1480 0.984 . S
H1493 N1480 0.985 . S
C1494 C1495 1.363 . S
C1494 C1500 1.379 . S
C1494 N1502 1.356 . S
C1495 C1494 1.363 . S
C1495 C1501 1.363 . S
C1496 C1497 1.363 . S
C1496 C1501 1.379 . S
C1496 N1503 1.356 . S
C1497 C1496 1.363 . S
C1497 C1500 1.363 . S
N1498 C1500 1.356 . S
N1498 H1510 0.984 . S
N1498 H1511 1.006 . S
N1499 C1501 1.356 . S
N1499 H1504 0.984 . S
N1499 H1505 0.985 . S
C1500 C1494 1.379 . S
C1500 C1497 1.363 . S
C1500 N1498 1.356 . S
C1501 C1495 1.363 . S
C1501 C1496 1.379 . S
C1501 N1499 1.356 . S
N1502 C1494 1.356 . S
N1502 H1508 0.984 . S
N1502 H1509 0.984 . S
N1503 C1496 1.356 . S
N1503 H1506 0.984 . S
N1503 H1507 0.985 . S
H1504 N1499 0.984 . S
H1505 N1499 0.985 . S
H1506 N1503 0.984 . S
H1507 N1503 0.985 . S
H1508 N1502 0.984 . S
H1509 N1502 0.984 . S
H1510 N1498 0.984 . S
H1511 N1498 1.006 . S
C1512 C1513 1.363 . S
C1512 C1518 1.379 . S
C1512 N1520 1.356 . S
C1513 C1512 1.363 . S
C1513 C1519 1.363 . S
C1514 C1515 1.363 . S
C1514 C1519 1.379 . S
C1514 N1521 1.356 . S
C1515 C1514 1.363 . S
C1515 C1518 1.363 . S
N1516 C1518 1.356 . S
N1516 H1528 0.984 . S
N1516 H1529 0.985 . S
N1517 C1519 1.356 . S
N1517 H1522 0.984 . S
N1517 H1523 0.985 . S
C1518 C1512 1.379 . S
C1518 C1515 1.363 . S
C1518 N1516 1.356 . S
C1519 C1513 1.363 . S
C1519 C1514 1.379 . S
C1519 N1517 1.356 . S
N1520 C1512 1.356 . S
N1520 H1526 0.984 . S
N1520 H1527 0.984 . S
N1521 C1514 1.356 . S
N1521 H1524 0.984 . S
N1521 H1525 0.985 . S
H1522 N1517 0.984 . S
H1523 N1517 0.985 . S
H1524 N1521 0.984 . S
H1525 N1521 0.985 . S
H1526 N1520 0.984 . S
H1527 N1520 0.984 . S
H1528 N1516 0.984 . S
H1529 N1516 0.985 . S
C1530 C1531 1.363 . S
C1530 C1536 1.379 . S
C1530 N1538 1.356 . S
C1531 C1530 1.363 . S
C1531 C1537 1.363 . S
C1532 C1533 1.363 . S
C1532 C1537 1.379 . S
C1532 N1539 1.356 . S
C1533 C1532 1.363 . S
C1533 C1536 1.363 . S
N1534 C1536 1.356 . S
N1534 H1546 0.984 . S
N1534 H1547 0.985 . S
N1535 C1537 1.356 . S
N1535 H1540 0.984 . S
N1535 H1541 0.985 . S
C1536 C1530 1.379 . S
C1536 C1533 1.363 . S
C1536 N1534 1.356 . S
C1537 C1531 1.363 . S
C1537 C1532 1.379 . S
C1537 N1535 1.356 . S
N1538 C1530 1.356 . S
N1538 H1544 0.984 . S
N1538 H1545 0.984 1_655 S
N1539 C1532 1.356 . S
N1539 H1542 0.984 . S
N1539 H1543 0.985 . S
H1540 N1535 0.984 . S
H1541 N1535 0.985 . S
H1542 N1539 0.984 . S
H1543 N1539 0.985 . S
H1544 N1538 0.984 . S
H1545 N1538 0.984 1_455 S
H1546 N1534 0.984 . S
H1547 N1534 0.985 . S
C1548 C1549 1.363 . S
C1548 C1554 1.379 . S
C1548 N1556 1.356 . S
C1549 C1548 1.363 . S
C1549 C1555 1.363 . S
C1550 C1551 1.363 . S
C1550 C1555 1.379 . S
C1550 N1557 1.356 . S
C1551 C1550 1.363 . S
C1551 C1554 1.363 . S
N1552 C1554 1.356 . S
N1552 H1564 0.984 . S
N1552 H1565 0.985 . S
N1553 C1555 1.356 . S
N1553 H1558 0.984 . S
N1553 H1559 0.985 . S
C1554 C1548 1.379 . S
C1554 C1551 1.363 . S
C1554 N1552 1.356 . S
C1555 C1549 1.363 . S
C1555 C1550 1.379 . S
C1555 N1553 1.356 . S
N1556 C1548 1.356 . S
N1556 H1562 0.984 . S
N1556 H1563 0.984 . S
N1557 C1550 1.356 . S
N1557 H1560 0.984 . S
N1557 H1561 0.985 . S
H1558 N1553 0.984 . S
H1559 N1553 0.985 . S
H1560 N1557 0.984 . S
H1561 N1557 0.985 . S
H1562 N1556 0.984 . S
H1563 N1556 0.984 . S
H1564 N1552 0.984 . S
H1565 N1552 0.985 . S
C1566 C1567 1.363 . S
C1566 C1572 1.379 . S
C1566 N1574 1.356 . S
C1567 C1566 1.363 . S
C1567 C1573 1.363 . S
C1568 C1569 1.363 . S
C1568 C1573 1.379 . S
C1568 N1575 1.356 . S
C1569 C1568 1.363 . S
C1569 C1572 1.363 . S
N1570 C1572 1.356 . S
N1570 H1582 0.984 . S
N1570 H1583 0.985 . S
N1571 C1573 1.356 . S
N1571 H1576 0.984 . S
N1571 H1577 0.985 . S
C1572 C1566 1.379 . S
C1572 C1569 1.363 . S
C1572 N1570 1.356 . S
C1573 C1567 1.363 . S
C1573 C1568 1.379 . S
C1573 N1571 1.356 . S
N1574 C1566 1.356 . S
N1574 H1580 0.984 . S
N1574 H1581 0.984 . S
N1575 C1568 1.356 . S
N1575 H1578 0.984 . S
N1575 H1579 0.985 . S
H1576 N1571 0.984 . S
H1577 N1571 0.985 . S
H1578 N1575 0.984 . S
H1579 N1575 0.985 . S
H1580 N1574 0.984 . S
H1581 N1574 0.984 . S
H1582 N1570 0.984 . S
H1583 N1570 0.985 . S
C1584 C1585 1.363 . S
C1584 C1590 1.379 . S
C1584 N1592 1.356 . S
C1585 C1584 1.363 . S
C1585 C1591 1.363 . S
C1586 C1587 1.363 . S
C1586 C1591 1.379 . S
C1586 N1593 1.356 . S
C1587 C1586 1.363 . S
C1587 C1590 1.363 . S
N1588 C1590 1.356 . S
N1588 H1600 0.984 . S
N1588 H1601 0.985 . S
N1589 C1591 1.356 . S
N1589 H1594 0.984 . S
N1589 H1595 0.985 . S
C1590 C1584 1.379 . S
C1590 C1587 1.363 . S
C1590 N1588 1.356 . S
C1591 C1585 1.363 . S
C1591 C1586 1.379 . S
C1591 N1589 1.356 . S
N1592 C1584 1.356 . S
N1592 H1598 0.984 . S
N1592 H1599 0.984 . S
N1593 C1586 1.356 . S
N1593 H1596 0.984 . S
N1593 H1597 0.985 . S
H1594 N1589 0.984 . S
H1595 N1589 0.985 . S
H1596 N1593 0.984 . S
H1597 N1593 0.985 . S
H1598 N1592 0.984 . S
H1599 N1592 0.984 . S
H1600 N1588 0.984 . S
H1601 N1588 0.985 . S
C1602 C1603 1.363 . S
C1602 C1608 1.379 . S
C1602 N1610 1.356 . S
C1603 C1602 1.363 . S
C1603 C1609 1.363 . S
C1604 C1605 1.363 . S
C1604 C1609 1.379 . S
C1604 N1611 1.356 . S
C1605 C1604 1.363 . S
C1605 C1608 1.363 . S
N1606 C1608 1.356 . S
N1606 H1618 0.984 . S
N1606 H1619 0.985 . S
N1607 C1609 1.356 . S
N1607 H1612 0.984 . S
N1607 H1613 0.985 . S
C1608 C1602 1.379 . S
C1608 C1605 1.363 . S
C1608 N1606 1.356 . S
C1609 C1603 1.363 . S
C1609 C1604 1.379 . S
C1609 N1607 1.356 . S
N1610 C1602 1.356 . S
N1610 H1616 0.984 . S
N1610 H1617 0.984 . S
N1611 C1604 1.356 . S
N1611 H1614 0.984 . S
N1611 H1615 0.985 . S
H1612 N1607 0.984 . S
H1613 N1607 0.985 . S
H1614 N1611 0.984 . S
H1615 N1611 0.985 . S
H1616 N1610 0.984 . S
H1617 N1610 0.984 . S
H1618 N1606 0.984 . S
H1619 N1606 0.985 . S
C1620 C1621 1.363 . S
C1620 C1626 1.379 . S
C1620 N1628 1.356 . S
C1621 C1620 1.363 . S
C1621 C1627 1.363 . S
C1622 C1623 1.363 . S
C1622 C1627 1.379 . S
C1622 N1629 1.356 . S
C1623 C1622 1.363 . S
C1623 C1626 1.363 . S
N1624 C1626 1.356 . S
N1624 H1636 0.984 . S
N1624 H1637 0.985 . S
N1625 C1627 1.356 . S
N1625 H1630 0.984 . S
N1625 H1631 0.985 . S
C1626 C1620 1.379 . S
C1626 C1623 1.363 . S
C1626 N1624 1.356 . S
C1627 C1621 1.363 . S
C1627 C1622 1.379 . S
C1627 N1625 1.356 . S
N1628 C1620 1.356 . S
N1628 H1634 0.984 . S
N1628 H1635 0.984 . S
N1629 C1622 1.356 . S
N1629 H1632 0.984 . S
N1629 H1633 0.985 . S
H1630 N1625 0.984 . S
H1631 N1625 0.985 . S
H1632 N1629 0.984 . S
H1633 N1629 0.985 . S
H1634 N1628 0.984 . S
H1635 N1628 0.984 . S
H1636 N1624 0.984 . S
H1637 N1624 0.985 . S
C1638 C1639 1.363 . S
C1638 C1644 1.379 . S
C1638 N1646 1.389 . S
C1639 C1638 1.363 . S
C1639 C1645 1.363 . S
C1640 C1641 1.363 . S
C1640 C1645 1.379 . S
C1640 N1647 1.356 . S
C1641 C1640 1.363 . S
C1641 C1644 1.363 . S
N1642 C1644 1.356 . S
N1642 H1654 0.984 . S
N1642 H1655 0.985 . S
N1643 C1645 1.356 . S
N1643 H1648 0.984 . S
N1643 H1649 0.985 . S
C1644 C1638 1.379 . S
C1644 C1641 1.363 . S
C1644 N1642 1.356 . S
C1645 C1639 1.363 . S
C1645 C1640 1.379 . S
C1645 N1643 1.356 . S
N1646 C1638 1.389 . S
N1646 H1652 0.980 1_455 S
N1646 H1653 0.958 1_455 S
N1647 C1640 1.356 . S
N1647 H1650 0.984 . S
N1647 H1651 0.985 . S
H1648 N1643 0.984 . S
H1649 N1643 0.985 . S
H1650 N1647 0.984 . S
H1651 N1647 0.985 . S
H1652 N1646 0.980 1_655 S
H1653 N1646 0.958 1_655 S
H1654 N1642 0.984 . S
H1655 N1642 0.985 . S
C1656 C1657 1.363 . S
C1656 C1662 1.379 . S
C1656 N1664 1.356 . S
C1657 C1656 1.363 . S
C1657 C1663 1.363 . S
C1658 C1659 1.363 . S
C1658 C1663 1.379 . S
C1658 N1665 1.356 . S
C1659 C1658 1.363 . S
C1659 C1662 1.363 . S
N1660 C1662 1.356 . S
N1660 H1672 0.984 . S
N1660 H1673 0.985 . S
N1661 C1663 1.356 . S
N1661 H1666 0.984 . S
N1661 H1667 0.985 . S
C1662 C1656 1.379 . S
C1662 C1659 1.363 . S
C1662 N1660 1.356 . S
C1663 C1657 1.363 . S
C1663 C1658 1.379 . S
C1663 N1661 1.356 . S
N1664 C1656 1.356 . S
N1664 H1670 0.984 . S
N1664 H1671 0.984 . S
N1665 C1658 1.356 . S
N1665 H1668 0.984 . S
N1665 H1669 0.985 . S
H1666 N1661 0.984 . S
H1667 N1661 0.985 . S
H1668 N1665 0.984 . S
H1669 N1665 0.985 . S
H1670 N1664 0.984 . S
H1671 N1664 0.984 . S
H1672 N1660 0.984 . S
H1673 N1660 0.985 . S
C1674 C1675 1.363 . S
C1674 C1680 1.379 . S
C1674 N1682 1.356 . S
C1675 C1674 1.363 . S
C1675 C1681 1.363 . S
C1676 C1677 1.363 . S
C1676 C1681 1.379 . S
C1676 N1683 1.356 . S
C1677 C1676 1.363 . S
C1677 C1680 1.363 . S
N1678 C1680 1.356 . S
N1678 H1690 0.984 . S
N1678 H1691 0.985 . S
N1679 C1681 1.356 . S
N1679 H1684 0.984 1_455 S
N1679 H1685 0.985 . S
C1680 C1674 1.379 . S
C1680 C1677 1.363 . S
C1680 N1678 1.356 . S
C1681 C1675 1.363 . S
C1681 C1676 1.379 . S
C1681 N1679 1.356 . S
N1682 C1674 1.356 . S
N1682 H1688 0.984 . S
N1682 H1689 0.984 . S
N1683 C1676 1.356 . S
N1683 H1686 0.984 . S
N1683 H1687 0.985 . S
H1684 N1679 0.984 1_655 S
H1685 N1679 0.985 . S
H1686 N1683 0.984 . S
H1687 N1683 0.985 . S
H1688 N1682 0.984 . S
H1689 N1682 0.984 . S
H1690 N1678 0.984 . S
H1691 N1678 0.985 . S
C1692 C1693 1.363 . S
C1692 C1698 1.379 . S
C1692 N1700 1.356 . S
C1693 C1692 1.363 . S
C1693 C1699 1.363 . S
C1694 C1695 1.363 . S
C1694 C1699 1.379 . S
C1694 N1701 1.356 . S
C1695 C1694 1.363 . S
C1695 C1698 1.363 . S
N1696 C1698 1.356 . S
N1696 H1708 0.984 . S
N1696 H1709 0.985 . S
N1697 C1699 1.356 . S
N1697 H1702 0.984 . S
N1697 H1703 0.985 . S
C1698 C1692 1.379 . S
C1698 C1695 1.363 . S
C1698 N1696 1.356 . S
C1699 C1693 1.363 . S
C1699 C1694 1.379 . S
C1699 N1697 1.356 . S
N1700 C1692 1.356 . S
N1700 H1706 0.984 . S
N1700 H1707 0.984 . S
N1701 C1694 1.356 . S
N1701 H1704 0.984 . S
N1701 H1705 0.985 . S
H1702 N1697 0.984 . S
H1703 N1697 0.985 . S
H1704 N1701 0.984 . S
H1705 N1701 0.985 . S
H1706 N1700 0.984 . S
H1707 N1700 0.984 . S
H1708 N1696 0.984 . S
H1709 N1696 0.985 . S
C1710 C1711 1.363 . S
C1710 C1716 1.379 . S
C1710 N1718 1.356 . S
C1711 C1710 1.363 . S
C1711 C1717 1.363 . S
C1712 C1713 1.363 . S
C1712 C1717 1.379 . S
C1712 N1719 1.356 . S
C1713 C1712 1.363 . S
C1713 C1716 1.363 . S
N1714 C1716 1.356 . S
N1714 H1726 0.984 . S
N1714 H1727 0.985 . S
N1715 C1717 1.356 . S
N1715 H1720 0.984 . S
N1715 H1721 0.985 . S
C1716 C1710 1.379 . S
C1716 C1713 1.363 . S
C1716 N1714 1.356 . S
C1717 C1711 1.363 . S
C1717 C1712 1.379 . S
C1717 N1715 1.356 . S
N1718 C1710 1.356 . S
N1718 H1724 0.984 . S
N1718 H1725 0.984 . S
N1719 C1712 1.356 . S
N1719 H1722 0.984 . S
N1719 H1723 0.985 . S
H1720 N1715 0.984 . S
H1721 N1715 0.985 . S
H1722 N1719 0.984 . S
H1723 N1719 0.985 . S
H1724 N1718 0.984 . S
H1725 N1718 0.984 . S
H1726 N1714 0.984 . S
H1727 N1714 0.985 . S
C1728 C1729 1.363 . S
C1728 C1734 1.379 . S
C1728 N1736 1.356 . S
C1729 C1728 1.363 . S
C1729 C1735 1.363 . S
C1730 C1731 1.363 . S
C1730 C1735 1.379 . S
C1730 N1737 1.356 . S
C1731 C1730 1.363 . S
C1731 C1734 1.363 . S
N1732 C1734 1.356 . S
N1732 H1744 0.984 . S
N1732 H1745 0.985 . S
N1733 C1735 1.356 . S
N1733 H1738 0.984 . S
N1733 H1739 0.985 . S
C1734 C1728 1.379 . S
C1734 C1731 1.363 . S
C1734 N1732 1.356 . S
C1735 C1729 1.363 . S
C1735 C1730 1.379 . S
C1735 N1733 1.356 . S
N1736 C1728 1.356 . S
N1736 H1742 0.984 . S
N1736 H1743 0.984 . S
N1737 C1730 1.356 . S
N1737 H1740 0.984 . S
N1737 H1741 0.985 . S
H1738 N1733 0.984 . S
H1739 N1733 0.985 . S
H1740 N1737 0.984 . S
H1741 N1737 0.985 . S
H1742 N1736 0.984 . S
H1743 N1736 0.984 . S
H1744 N1732 0.984 . S
H1745 N1732 0.985 . S
C1746 C1747 1.363 1_545 S
C1746 C1752 1.379 1_655 S
C1746 N1754 1.356 . S
C1747 C1746 1.363 1_565 S
C1747 C1753 1.363 1_655 S
C1748 C1749 1.363 1_565 S
C1748 C1753 1.379 . S
C1748 N1755 1.356 . S
C1749 C1748 1.363 1_545 S
C1749 C1752 1.363 . S
N1750 C1752 1.356 . S
N1750 H1762 0.984 . S
N1750 H1763 0.985 . S
N1751 C1753 1.356 1_655 S
N1751 H1756 0.984 . S
N1751 H1757 0.979 1_655 S
C1752 C1746 1.379 1_455 S
C1752 C1749 1.363 . S
C1752 N1750 1.356 . S
C1753 C1747 1.363 1_455 S
C1753 C1748 1.379 . S
C1753 N1751 1.356 1_455 S
N1754 C1746 1.356 . S
N1754 H1760 0.984 . S
N1754 H1761 0.984 1_545 S
N1755 C1748 1.356 . S
N1755 H1758 0.984 1_565 S
N1755 H1759 0.985 . S
H1756 N1751 0.984 . S
H1757 N1751 0.979 1_455 S
H1758 N1755 0.984 1_545 S
H1759 N1755 0.985 . S
H1760 N1754 0.984 . S
H1761 N1754 0.984 1_565 S
H1762 N1750 0.984 . S
H1763 N1750 0.985 . S
C1764 C1765 1.363 . S
C1764 C1770 1.379 . S
C1764 N1772 1.356 . S
C1765 C1764 1.363 . S
C1765 C1771 1.363 . S
C1766 C1767 1.363 . S
C1766 C1771 1.379 . S
C1766 N1773 1.356 . S
C1767 C1766 1.363 . S
C1767 C1770 1.363 . S
N1768 C1770 1.356 . S
N1768 H1780 0.984 . S
N1768 H1781 0.985 . S
N1769 C1771 1.356 . S
N1769 H1774 0.984 . S
N1769 H1775 0.985 . S
C1770 C1764 1.379 . S
C1770 C1767 1.363 . S
C1770 N1768 1.356 . S
C1771 C1765 1.363 . S
C1771 C1766 1.379 . S
C1771 N1769 1.356 . S
N1772 C1764 1.356 . S
N1772 H1778 0.984 . S
N1772 H1779 0.984 . S
N1773 C1766 1.356 . S
N1773 H1776 0.984 . S
N1773 H1777 0.985 . S
H1774 N1769 0.984 . S
H1775 N1769 0.985 . S
H1776 N1773 0.984 . S
H1777 N1773 0.985 . S
H1778 N1772 0.984 . S
H1779 N1772 0.984 . S
H1780 N1768 0.984 . S
H1781 N1768 0.985 . S
C1782 C1783 1.363 1_565 S
C1782 C1788 1.379 1_554 S
C1782 N1790 1.356 . S
C1783 C1782 1.363 1_545 S
C1783 C1789 1.363 1_554 S
C1784 C1785 1.363 1_545 S
C1784 C1789 1.379 . S
C1784 N1791 1.356 . S
C1785 C1784 1.363 1_565 S
C1785 C1788 1.363 . S
N1786 C1788 1.356 . S
N1786 H1798 0.980 1_556 S
N1786 H1799 0.985 . S
N1787 C1789 1.356 . S
N1787 H1792 0.984 1_556 S
N1787 H1793 0.985 . S
C1788 C1782 1.379 1_556 S
C1788 C1785 1.363 . S
C1788 N1786 1.356 . S
C1789 C1783 1.363 1_556 S
C1789 C1784 1.379 . S
C1789 N1787 1.356 . S
N1790 C1782 1.356 . S
N1790 H1796 0.984 . S
N1790 H1797 0.984 1_565 S
N1791 C1784 1.356 . S
N1791 H1794 0.984 1_545 S
N1791 H1795 0.985 . S
H1792 N1787 0.984 1_554 S
H1793 N1787 0.985 . S
H1794 N1791 0.984 1_565 S
H1795 N1791 0.985 . S
H1796 N1790 0.984 . S
H1797 N1790 0.984 1_545 S
H1798 N1786 0.980 1_554 S
H1799 N1786 0.985 . S
C1800 C1801 1.363 . S
C1800 C1806 1.379 . S
C1800 N1808 1.356 . S
C1801 C1800 1.363 . S
C1801 C1807 1.363 . S
C1802 C1803 1.363 . S
C1802 C1807 1.379 . S
C1802 N1809 1.356 . S
C1803 C1802 1.363 . S
C1803 C1806 1.363 . S
N1804 C1806 1.356 . S
N1804 H1816 0.984 . S
N1804 H1817 0.985 . S
N1805 C1807 1.356 . S
N1805 H1810 0.984 . S
N1805 H1811 0.985 . S
C1806 C1800 1.379 . S
C1806 C1803 1.363 . S
C1806 N1804 1.356 . S
C1807 C1801 1.363 . S
C1807 C1802 1.379 . S
C1807 N1805 1.356 . S
N1808 C1800 1.356 . S
N1808 H1814 0.984 . S
N1808 H1815 0.984 . S
N1809 C1802 1.356 . S
N1809 H1812 0.984 . S
N1809 H1813 0.985 . S
H1810 N1805 0.984 . S
H1811 N1805 0.985 . S
H1812 N1809 0.984 . S
H1813 N1809 0.985 . S
H1814 N1808 0.984 . S
H1815 N1808 0.984 . S
H1816 N1804 0.984 . S
H1817 N1804 0.985 . S
C1818 C1819 1.363 1_545 S
C1818 C1824 1.379 . S
C1818 N1826 1.356 . S
C1819 C1818 1.363 1_565 S
C1819 C1825 1.363 . S
C1820 C1821 1.363 1_565 S
C1820 C1825 1.379 . S
C1820 N1827 1.356 . S
C1821 C1820 1.363 1_545 S
C1821 C1824 1.363 . S
N1822 C1824 1.356 . S
N1822 H1834 0.984 . S
N1822 H1835 0.985 . S
N1823 C1825 1.356 . S
N1823 H1828 0.984 . S
N1823 H1829 0.985 . S
C1824 C1818 1.379 . S
C1824 C1821 1.363 . S
C1824 N1822 1.356 . S
C1825 C1819 1.363 . S
C1825 C1820 1.379 . S
C1825 N1823 1.356 . S
N1826 C1818 1.356 . S
N1826 H1832 0.984 . S
N1826 H1833 0.984 1_545 S
N1827 C1820 1.356 . S
N1827 H1830 0.984 1_565 S
N1827 H1831 0.985 . S
H1828 N1823 0.984 . S
H1829 N1823 0.985 . S
H1830 N1827 0.984 1_545 S
H1831 N1827 0.985 . S
H1832 N1826 0.984 . S
H1833 N1826 0.984 1_565 S
H1834 N1822 0.984 . S
H1835 N1822 0.985 . S
C1836 C1837 1.363 . S
C1836 C1842 1.379 . S
C1836 N1844 1.356 . S
C1837 C1836 1.363 . S
C1837 C1843 1.363 . S
C1838 C1839 1.363 . S
C1838 C1843 1.379 . S
C1838 N1845 1.356 . S
C1839 C1838 1.363 . S
C1839 C1842 1.363 . S
N1840 C1842 1.356 . S
N1840 H1852 0.984 . S
N1840 H1853 0.985 . S
N1841 C1843 1.356 . S
N1841 H1846 0.984 . S
N1841 H1847 0.985 . S
C1842 C1836 1.379 . S
C1842 C1839 1.363 . S
C1842 N1840 1.356 . S
C1843 C1837 1.363 . S
C1843 C1838 1.379 . S
C1843 N1841 1.356 . S
N1844 C1836 1.356 . S
N1844 H1850 0.984 . S
N1844 H1851 0.984 . S
N1845 C1838 1.356 . S
N1845 H1848 0.984 . S
N1845 H1849 0.985 . S
H1846 N1841 0.984 . S
H1847 N1841 0.985 . S
H1848 N1845 0.984 . S
H1849 N1845 0.985 . S
H1850 N1844 0.984 . S
H1851 N1844 0.984 . S
H1852 N1840 0.984 . S
H1853 N1840 0.985 . S
C1854 C1855 1.363 1_554 S
C1854 C1860 1.379 1_645 S
C1854 N1862 1.356 . S
C1855 C1854 1.363 1_556 S
C1855 C1861 1.363 1_655 S
C1856 C1857 1.363 1_556 S
C1856 C1861 1.379 1_565 S
C1856 N1863 1.356 . S
C1857 C1856 1.363 1_554 S
C1857 C1860 1.363 . S
N1858 C1860 1.356 . S
N1858 H1870 0.984 1_455 S
N1858 H1871 0.985 . S
N1859 C1861 1.356 . S
N1859 H1864 0.984 1_455 S
N1859 H1865 0.985 . S
C1860 C1854 1.379 1_465 S
C1860 C1857 1.363 . S
C1860 N1858 1.356 . S
C1861 C1855 1.363 1_455 S
C1861 C1856 1.379 1_545 S
C1861 N1859 1.356 . S
N1862 C1854 1.356 . S
N1862 H1868 0.984 . S
N1862 H1869 0.984 . S
N1863 C1856 1.356 . S
N1863 H1866 0.984 . S
N1863 H1867 0.985 . S
H1864 N1859 0.984 1_655 S
H1865 N1859 0.985 . S
H1866 N1863 0.984 . S
H1867 N1863 0.985 . S
H1868 N1862 0.984 . S
H1869 N1862 0.984 . S
H1870 N1858 0.984 1_655 S
H1871 N1858 0.985 . S
C1872 C1873 1.363 . S
C1872 C1878 1.379 . S
C1872 N1880 1.356 . S
C1873 C1872 1.363 . S
C1873 C1879 1.363 . S
C1874 C1875 1.363 . S
C1874 C1879 1.379 . S
C1874 N1881 1.356 . S
C1875 C1874 1.363 . S
C1875 C1878 1.363 . S
N1876 C1878 1.356 . S
N1876 H1888 0.984 . S
N1876 H1889 0.985 . S
N1877 C1879 1.356 . S
N1877 H1882 0.984 . S
N1877 H1883 0.985 . S
C1878 C1872 1.379 . S
C1878 C1875 1.363 . S
C1878 N1876 1.356 . S
C1879 C1873 1.363 . S
C1879 C1874 1.379 . S
C1879 N1877 1.356 . S
N1880 C1872 1.356 . S
N1880 H1886 0.984 . S
N1880 H1887 0.984 . S
N1881 C1874 1.356 . S
N1881 H1884 0.984 . S
N1881 H1885 0.985 . S
H1882 N1877 0.984 . S
H1883 N1877 0.985 . S
H1884 N1881 0.984 . S
H1885 N1881 0.985 . S
H1886 N1880 0.984 . S
H1887 N1880 0.984 . S
H1888 N1876 0.984 . S
H1889 N1876 0.985 . S
C1890 C1891 1.363 . S
C1890 C1896 1.379 . S
C1890 N1898 1.356 . S
C1891 C1890 1.363 . S
C1891 C1897 1.363 . S
C1892 C1893 1.363 . S
C1892 C1897 1.379 . S
C1892 N1899 1.356 . S
C1893 C1892 1.363 . S
C1893 C1896 1.363 . S
N1894 C1896 1.356 . S
N1894 H1906 0.984 . S
N1894 H1907 0.985 . S
N1895 C1897 1.356 . S
N1895 H1900 0.984 . S
N1895 H1901 0.985 . S
C1896 C1890 1.379 . S
C1896 C1893 1.363 . S
C1896 N1894 1.356 . S
C1897 C1891 1.363 . S
C1897 C1892 1.379 . S
C1897 N1895 1.356 . S
N1898 C1890 1.356 . S
N1898 H1904 0.984 . S
N1898 H1905 0.984 . S
N1899 C1892 1.356 . S
N1899 H1902 0.984 . S
N1899 H1903 0.985 . S
H1900 N1895 0.984 . S
H1901 N1895 0.985 . S
H1902 N1899 0.984 . S
H1903 N1899 0.985 . S
H1904 N1898 0.984 . S
H1905 N1898 0.984 . S
H1906 N1894 0.984 . S
H1907 N1894 0.985 . S
C1908 C1909 1.363 . S
C1908 C1914 1.379 . S
C1908 N1916 1.356 . S
C1909 C1908 1.363 . S
C1909 C1915 1.363 . S
C1910 C1911 1.363 . S
C1910 C1915 1.379 . S
C1910 N1917 1.356 . S
C1911 C1910 1.363 . S
C1911 C1914 1.363 . S
N1912 C1914 1.356 . S
N1912 H1924 0.984 . S
N1912 H1925 0.985 . S
N1913 C1915 1.356 . S
N1913 H1918 0.984 . S
N1913 H1919 0.985 . S
C1914 C1908 1.379 . S
C1914 C1911 1.363 . S
C1914 N1912 1.356 . S
C1915 C1909 1.363 . S
C1915 C1910 1.379 . S
C1915 N1913 1.356 . S
N1916 C1908 1.356 . S
N1916 H1922 0.984 . S
N1916 H1923 0.984 . S
N1917 C1910 1.356 . S
N1917 H1920 0.984 . S
N1917 H1921 0.985 . S
H1918 N1913 0.984 . S
H1919 N1913 0.985 . S
H1920 N1917 0.984 . S
H1921 N1917 0.985 . S
H1922 N1916 0.984 . S
H1923 N1916 0.984 . S
H1924 N1912 0.984 . S
H1925 N1912 0.985 . S
C1926 C1927 1.363 . S
C1926 C1932 1.379 . S
C1926 N1934 1.356 . S
C1927 C1926 1.363 . S
C1927 C1933 1.363 . S
C1928 C1929 1.363 . S
C1928 C1933 1.379 . S
C1928 N1935 1.356 . S
C1929 C1928 1.363 . S
C1929 C1932 1.363 . S
N1930 C1932 1.356 . S
N1930 H1942 0.984 . S
N1930 H1943 0.985 . S
N1931 C1933 1.356 . S
N1931 H1936 0.984 . S
N1931 H1937 0.985 . S
C1932 C1926 1.379 . S
C1932 C1929 1.363 . S
C1932 N1930 1.356 . S
C1933 C1927 1.363 . S
C1933 C1928 1.379 . S
C1933 N1931 1.356 . S
N1934 C1926 1.356 . S
N1934 H1940 0.984 . S
N1934 H1941 0.984 . S
N1935 C1928 1.356 . S
N1935 H1938 0.984 . S
N1935 H1939 0.985 . S
H1936 N1931 0.984 . S
H1937 N1931 0.985 . S
H1938 N1935 0.984 . S
H1939 N1935 0.985 . S
H1940 N1934 0.984 . S
H1941 N1934 0.984 . S
H1942 N1930 0.984 . S
H1943 N1930 0.985 . S
C1944 C1945 1.363 1_556 S
C1944 C1950 1.379 . S
C1944 N1952 1.356 . S
C1945 C1944 1.363 1_554 S
C1945 C1951 1.363 . S
C1946 C1947 1.363 1_554 S
C1946 C1951 1.379 . S
C1946 N1953 1.356 . S
C1947 C1946 1.363 1_556 S
C1947 C1950 1.363 . S
N1948 C1950 1.356 . S
N1948 H1960 0.984 . S
N1948 H1961 0.985 . S
N1949 C1951 1.356 . S
N1949 H1954 0.984 . S
N1949 H1955 0.985 . S
C1950 C1944 1.379 . S
C1950 C1947 1.363 . S
C1950 N1948 1.356 . S
C1951 C1945 1.363 . S
C1951 C1946 1.379 . S
C1951 N1949 1.356 . S
N1952 C1944 1.356 . S
N1952 H1958 0.984 . S
N1952 H1959 0.984 . S
N1953 C1946 1.356 . S
N1953 H1956 0.984 . S
N1953 H1957 0.985 . S
H1954 N1949 0.984 . S
H1955 N1949 0.985 . S
H1956 N1953 0.984 . S
H1957 N1953 0.985 . S
H1958 N1952 0.984 . S
H1959 N1952 0.984 . S
H1960 N1948 0.984 . S
H1961 N1948 0.985 . S
C1962 C1963 1.363 . S
C1962 C1968 1.379 . S
C1962 N1970 1.356 . S
C1963 C1962 1.363 . S
C1963 C1969 1.363 1_655 S
C1964 C1965 1.363 . S
C1964 C1969 1.379 . S
C1964 N1971 1.356 . S
C1965 C1964 1.363 . S
C1965 C1968 1.363 1_455 S
N1966 C1968 1.356 . S
N1966 H1978 0.984 . S
N1966 H1979 0.985 1_655 S
N1967 C1969 1.356 . S
N1967 H1972 0.984 1_455 S
N1967 H1973 0.985 . S
C1968 C1962 1.379 . S
C1968 C1965 1.363 1_655 S
C1968 N1966 1.356 . S
C1969 C1963 1.363 1_455 S
C1969 C1964 1.379 . S
C1969 N1967 1.356 . S
N1970 C1962 1.356 . S
N1970 H1976 0.984 . S
N1970 H1977 0.984 . S
N1971 C1964 1.356 . S
N1971 H1974 0.984 . S
N1971 H1975 0.985 . S
H1972 N1967 0.984 1_655 S
H1973 N1967 0.985 . S
H1974 N1971 0.984 . S
H1975 N1971 0.985 . S
H1976 N1970 0.984 . S
H1977 N1970 0.984 . S
H1978 N1966 0.984 . S
H1979 N1966 0.985 1_455 S
C1980 C1981 1.363 . S
C1980 C1986 1.379 1_455 S
C1980 N1988 1.356 . S
C1981 C1980 1.363 . S
C1981 C1987 1.363 1_456 S
C1982 C1983 1.363 . S
C1982 C1987 1.379 . S
C1982 N1989 1.356 . S
C1983 C1982 1.363 . S
C1983 C1986 1.363 1_554 S
N1984 C1986 1.356 . S
N1984 H1996 0.984 . S
N1984 H1997 0.985 . S
N1985 C1987 1.356 1_455 S
N1985 H1990 0.984 . S
N1985 H1991 0.985 1_455 S
C1986 C1980 1.379 1_655 S
C1986 C1983 1.363 1_556 S
C1986 N1984 1.356 . S
C1987 C1981 1.363 1_654 S
C1987 C1982 1.379 . S
C1987 N1985 1.356 1_655 S
N1988 C1980 1.356 . S
N1988 H1994 0.984 . S
N1988 H1995 0.984 . S
N1989 C1982 1.356 . S
N1989 H1992 0.984 . S
N1989 H1993 0.985 . S
H1990 N1985 0.984 . S
H1991 N1985 0.985 1_655 S
H1992 N1989 0.984 . S
H1993 N1989 0.985 . S
H1994 N1988 0.984 . S
H1995 N1988 0.984 . S
H1996 N1984 0.984 . S
H1997 N1984 0.985 . S
C1998 C1999 1.363 . S
C1998 C2004 1.379 . S
C1998 N2006 1.356 . S
C1999 C1998 1.363 . S
C1999 C2005 1.363 . S
C2000 C2001 1.363 . S
C2000 C2005 1.379 . S
C2000 N2007 1.356 . S
C2001 C2000 1.363 . S
C2001 C2004 1.363 . S
N2002 C2004 1.356 . S
N2002 H2014 0.984 . S
N2002 H2015 0.985 . S
N2003 C2005 1.356 . S
N2003 H2008 0.984 . S
N2003 H2009 0.985 . S
C2004 C1998 1.379 . S
C2004 C2001 1.363 . S
C2004 N2002 1.356 . S
C2005 C1999 1.363 . S
C2005 C2000 1.379 . S
C2005 N2003 1.356 . S
N2006 C1998 1.356 . S
N2006 H2012 0.984 . S
N2006 H2013 0.984 . S
N2007 C2000 1.356 . S
N2007 H2010 0.984 . S
N2007 H2011 0.985 . S
H2008 N2003 0.984 . S
H2009 N2003 0.985 . S
H2010 N2007 0.984 . S
H2011 N2007 0.985 . S
H2012 N2006 0.984 . S
H2013 N2006 0.984 . S
H2014 N2002 0.984 . S
H2015 N2002 0.985 . S
C2016 C2017 1.363 . S
C2016 C2022 1.379 . S
C2016 N2024 1.356 . S
C2017 C2016 1.363 . S
C2017 C2023 1.363 . S
C2018 C2019 1.363 . S
C2018 C2023 1.379 . S
C2018 N2025 1.356 . S
C2019 C2018 1.363 . S
C2019 C2022 1.363 . S
N2020 C2022 1.356 . S
N2020 H2032 0.984 . S
N2020 H2033 0.985 . S
N2021 C2023 1.356 . S
N2021 H2026 0.984 . S
N2021 H2027 0.985 . S
C2022 C2016 1.379 . S
C2022 C2019 1.363 . S
C2022 N2020 1.356 . S
C2023 C2017 1.363 . S
C2023 C2018 1.379 . S
C2023 N2021 1.356 . S
N2024 C2016 1.356 . S
N2024 H2030 0.984 . S
N2024 H2031 0.984 . S
N2025 C2018 1.356 . S
N2025 H2028 0.984 . S
N2025 H2029 0.985 . S
H2026 N2021 0.984 . S
H2027 N2021 0.985 . S
H2028 N2025 0.984 . S
H2029 N2025 0.985 . S
H2030 N2024 0.984 . S
H2031 N2024 0.984 . S
H2032 N2020 0.984 . S
H2033 N2020 0.985 . S
C2034 C2035 1.363 . S
C2034 C2040 1.379 . S
C2034 N2042 1.356 . S
C2035 C2034 1.363 . S
C2035 C2041 1.363 . S
C2036 C2037 1.363 . S
C2036 C2041 1.379 . S
C2036 N2043 1.356 . S
C2037 C2036 1.363 . S
C2037 C2040 1.363 . S
N2038 C2040 1.356 . S
N2038 H2050 0.984 . S
N2038 H2051 0.985 . S
N2039 C2041 1.356 . S
N2039 H2044 0.984 . S
N2039 H2045 0.985 . S
C2040 C2034 1.379 . S
C2040 C2037 1.363 . S
C2040 N2038 1.356 . S
C2041 C2035 1.363 . S
C2041 C2036 1.379 . S
C2041 N2039 1.356 . S
N2042 C2034 1.356 . S
N2042 H2048 0.984 . S
N2042 H2049 0.984 . S
N2043 C2036 1.356 . S
N2043 H2046 0.984 . S
N2043 H2047 0.985 . S
H2044 N2039 0.984 . S
H2045 N2039 0.985 . S
H2046 N2043 0.984 . S
H2047 N2043 0.985 . S
H2048 N2042 0.984 . S
H2049 N2042 0.984 . S
H2050 N2038 0.984 . S
H2051 N2038 0.985 . S
C2052 C2053 1.363 . S
C2052 C2058 1.379 . S
C2052 N2060 1.356 . S
C2053 C2052 1.363 . S
C2053 C2059 1.363 . S
C2054 C2055 1.363 . S
C2054 C2059 1.379 . S
C2054 N2061 1.356 . S
C2055 C2054 1.363 . S
C2055 C2058 1.363 . S
N2056 C2058 1.356 . S
N2056 H2068 0.984 . S
N2056 H2069 0.985 . S
N2057 C2059 1.356 . S
N2057 H2062 0.984 . S
N2057 H2063 0.985 . S
C2058 C2052 1.379 . S
C2058 C2055 1.363 . S
C2058 N2056 1.356 . S
C2059 C2053 1.363 . S
C2059 C2054 1.379 . S
C2059 N2057 1.356 . S
N2060 C2052 1.356 . S
N2060 H2066 0.984 . S
N2060 H2067 0.984 . S
N2061 C2054 1.356 . S
N2061 H2064 0.984 . S
N2061 H2065 0.985 . S
H2062 N2057 0.984 . S
H2063 N2057 0.985 . S
H2064 N2061 0.984 . S
H2065 N2061 0.985 . S
H2066 N2060 0.984 . S
H2067 N2060 0.984 . S
H2068 N2056 0.984 . S
H2069 N2056 0.985 . S
C2070 C2071 1.363 . S
C2070 C2076 1.379 . S
C2070 N2078 1.356 . S
C2071 C2070 1.363 . S
C2071 C2077 1.363 . S
C2072 C2073 1.363 . S
C2072 C2077 1.379 . S
C2072 N2079 1.356 . S
C2073 C2072 1.363 . S
C2073 C2076 1.363 . S
N2074 C2076 1.356 . S
N2074 H2086 0.984 . S
N2074 H2087 0.985 . S
N2075 C2077 1.356 . S
N2075 H2080 0.984 . S
N2075 H2081 0.985 . S
C2076 C2070 1.379 . S
C2076 C2073 1.363 . S
C2076 N2074 1.356 . S
C2077 C2071 1.363 . S
C2077 C2072 1.379 . S
C2077 N2075 1.356 . S
N2078 C2070 1.356 . S
N2078 H2084 0.984 . S
N2078 H2085 0.984 . S
N2079 C2072 1.356 . S
N2079 H2082 0.984 . S
N2079 H2083 0.985 . S
H2080 N2075 0.984 . S
H2081 N2075 0.985 . S
H2082 N2079 0.984 . S
H2083 N2079 0.985 . S
H2084 N2078 0.984 . S
H2085 N2078 0.984 . S
H2086 N2074 0.984 . S
H2087 N2074 0.985 . S
C2088 C2089 1.363 . S
C2088 C2094 1.379 . S
C2088 N2096 1.356 . S
C2089 C2088 1.363 . S
C2089 C2095 1.363 . S
C2090 C2091 1.363 . S
C2090 C2095 1.379 . S
C2090 N2097 1.356 . S
C2091 C2090 1.363 . S
C2091 C2094 1.363 . S
N2092 C2094 1.356 . S
N2092 H2104 0.984 . S
N2092 H2105 0.985 . S
N2093 C2095 1.356 . S
N2093 H2098 0.984 . S
N2093 H2099 0.985 . S
C2094 C2088 1.379 . S
C2094 C2091 1.363 . S
C2094 N2092 1.356 . S
C2095 C2089 1.363 . S
C2095 C2090 1.379 . S
C2095 N2093 1.356 . S
N2096 C2088 1.356 . S
N2096 H2102 0.984 . S
N2096 H2103 0.984 . S
N2097 C2090 1.356 . S
N2097 H2100 0.984 . S
N2097 H2101 0.985 . S
H2098 N2093 0.984 . S
H2099 N2093 0.985 . S
H2100 N2097 0.984 . S
H2101 N2097 0.985 . S
H2102 N2096 0.984 . S
H2103 N2096 0.984 . S
H2104 N2092 0.984 . S
H2105 N2092 0.985 . S
C2106 C2107 1.363 . S
C2106 C2112 1.379 . S
C2106 N2114 1.356 . S
C2107 C2106 1.363 . S
C2107 C2113 1.363 . S
C2108 C2109 1.363 . S
C2108 C2113 1.379 . S
C2108 N2115 1.356 . S
C2109 C2108 1.363 . S
C2109 C2112 1.363 . S
N2110 C2112 1.356 . S
N2110 H2122 0.984 . S
N2110 H2123 0.985 . S
N2111 C2113 1.356 . S
N2111 H2116 0.984 . S
N2111 H2117 0.985 . S
C2112 C2106 1.379 . S
C2112 C2109 1.363 . S
C2112 N2110 1.356 . S
C2113 C2107 1.363 . S
C2113 C2108 1.379 . S
C2113 N2111 1.356 . S
N2114 C2106 1.356 . S
N2114 H2120 0.984 . S
N2114 H2121 0.984 . S
N2115 C2108 1.356 . S
N2115 H2118 0.984 . S
N2115 H2119 0.985 . S
H2116 N2111 0.984 . S
H2117 N2111 0.985 . S
H2118 N2115 0.984 . S
H2119 N2115 0.985 . S
H2120 N2114 0.984 . S
H2121 N2114 0.984 . S
H2122 N2110 0.984 . S
H2123 N2110 0.985 . S
C2124 C2125 1.363 . S
C2124 C2130 1.379 . S
C2124 N2132 1.356 . S
C2125 C2124 1.363 . S
C2125 C2131 1.363 . S
C2126 C2127 1.363 . S
C2126 C2131 1.379 . S
C2126 N2133 1.356 . S
C2127 C2126 1.363 . S
C2127 C2130 1.363 . S
N2128 C2130 1.356 . S
N2128 H2140 0.984 . S
N2128 H2141 0.985 . S
N2129 C2131 1.356 . S
N2129 H2134 0.984 . S
N2129 H2135 0.985 . S
C2130 C2124 1.379 . S
C2130 C2127 1.363 . S
C2130 N2128 1.356 . S
C2131 C2125 1.363 . S
C2131 C2126 1.379 . S
C2131 N2129 1.356 . S
N2132 C2124 1.356 . S
N2132 H2138 0.984 . S
N2132 H2139 0.984 . S
N2133 C2126 1.356 . S
N2133 H2136 0.984 . S
N2133 H2137 0.985 . S
H2134 N2129 0.984 . S
H2135 N2129 0.985 . S
H2136 N2133 0.984 . S
H2137 N2133 0.985 . S
H2138 N2132 0.984 . S
H2139 N2132 0.984 . S
H2140 N2128 0.984 . S
H2141 N2128 0.985 . S
C2142 C2143 1.363 . S
C2142 C2148 1.379 . S
C2142 N2150 1.356 . S
C2143 C2142 1.363 . S
C2143 C2149 1.363 . S
C2144 C2145 1.363 . S
C2144 C2149 1.379 . S
C2144 N2151 1.356 . S
C2145 C2144 1.363 . S
C2145 C2148 1.363 . S
N2146 C2148 1.356 . S
N2146 H2158 0.984 . S
N2146 H2159 0.985 . S
N2147 C2149 1.356 . S
N2147 H2152 0.984 . S
N2147 H2153 0.985 . S
C2148 C2142 1.379 . S
C2148 C2145 1.363 . S
C2148 N2146 1.356 . S
C2149 C2143 1.363 . S
C2149 C2144 1.379 . S
C2149 N2147 1.356 . S
N2150 C2142 1.356 . S
N2150 H2156 0.984 . S
N2150 H2157 0.984 . S
N2151 C2144 1.356 . S
N2151 H2154 0.984 . S
N2151 H2155 0.985 . S
H2152 N2147 0.984 . S
H2153 N2147 0.985 . S
H2154 N2151 0.984 . S
H2155 N2151 0.985 . S
H2156 N2150 0.984 . S
H2157 N2150 0.984 . S
H2158 N2146 0.984 . S
H2159 N2146 0.985 . S
C2160 C2161 1.363 . S
C2160 C2166 1.379 . S
C2160 N2168 1.356 . S
C2161 C2160 1.363 . S
C2161 C2167 1.363 . S
C2162 C2163 1.363 . S
C2162 C2167 1.379 . S
C2162 N2169 1.356 . S
C2163 C2162 1.363 . S
C2163 C2166 1.363 . S
N2164 C2166 1.356 . S
N2164 H2176 0.984 . S
N2164 H2177 0.985 . S
N2165 C2167 1.356 . S
N2165 H2170 0.984 . S
N2165 H2171 0.985 . S
C2166 C2160 1.379 . S
C2166 C2163 1.363 . S
C2166 N2164 1.356 . S
C2167 C2161 1.363 . S
C2167 C2162 1.379 . S
C2167 N2165 1.356 . S
N2168 C2160 1.356 . S
N2168 H2174 0.984 . S
N2168 H2175 0.984 . S
N2169 C2162 1.356 . S
N2169 H2172 0.984 . S
N2169 H2173 0.985 . S
H2170 N2165 0.984 . S
H2171 N2165 0.985 . S
H2172 N2169 0.984 . S
H2173 N2169 0.985 . S
H2174 N2168 0.984 . S
H2175 N2168 0.984 . S
H2176 N2164 0.984 . S
H2177 N2164 0.985 . S
C2178 C2179 1.363 . S
C2178 C2184 1.379 . S
C2178 N2186 1.356 . S
C2179 C2178 1.363 . S
C2179 C2185 1.363 . S
C2180 C2181 1.363 . S
C2180 C2185 1.379 . S
C2180 N2187 1.356 . S
C2181 C2180 1.363 . S
C2181 C2184 1.363 . S
N2182 C2184 1.356 . S
N2182 H2194 0.984 . S
N2182 H2195 0.985 . S
N2183 C2185 1.356 . S
N2183 H2188 0.984 . S
N2183 H2189 0.985 . S
C2184 C2178 1.379 . S
C2184 C2181 1.363 . S
C2184 N2182 1.356 . S
C2185 C2179 1.363 . S
C2185 C2180 1.379 . S
C2185 N2183 1.356 . S
N2186 C2178 1.356 . S
N2186 H2192 0.984 . S
N2186 H2193 0.984 . S
N2187 C2180 1.356 . S
N2187 H2190 0.984 . S
N2187 H2191 0.985 . S
H2188 N2183 0.984 . S
H2189 N2183 0.985 . S
H2190 N2187 0.984 . S
H2191 N2187 0.985 . S
H2192 N2186 0.984 . S
H2193 N2186 0.984 . S
H2194 N2182 0.984 . S
H2195 N2182 0.985 . S
C2196 C2197 1.363 . S
C2196 C2202 1.379 . S
C2196 N2204 1.356 . S
C2197 C2196 1.363 . S
C2197 C2203 1.363 . S
C2198 C2199 1.363 . S
C2198 C2203 1.379 . S
C2198 N2205 1.356 . S
C2199 C2198 1.363 . S
C2199 C2202 1.363 . S
N2200 C2202 1.356 . S
N2200 H2212 0.984 . S
N2200 H2213 0.985 . S
N2201 C2203 1.356 . S
N2201 H2206 0.984 . S
N2201 H2207 0.985 . S
C2202 C2196 1.379 . S
C2202 C2199 1.363 . S
C2202 N2200 1.356 . S
C2203 C2197 1.363 . S
C2203 C2198 1.379 . S
C2203 N2201 1.356 . S
N2204 C2196 1.356 . S
N2204 H2210 0.984 . S
N2204 H2211 0.984 . S
N2205 C2198 1.356 . S
N2205 H2208 0.984 . S
N2205 H2209 0.985 . S
H2206 N2201 0.984 . S
H2207 N2201 0.985 . S
H2208 N2205 0.984 . S
H2209 N2205 0.985 . S
H2210 N2204 0.984 . S
H2211 N2204 0.984 . S
H2212 N2200 0.984 . S
H2213 N2200 0.985 . S
C2214 C2215 1.363 . S
C2214 C2220 1.379 . S
C2214 N2222 1.356 . S
C2215 C2214 1.363 . S
C2215 C2221 1.363 . S
C2216 C2217 1.363 . S
C2216 C2221 1.379 . S
C2216 N2223 1.356 . S
C2217 C2216 1.363 . S
C2217 C2220 1.363 . S
N2218 C2220 1.356 . S
N2218 H2230 0.984 . S
N2218 H2231 0.985 . S
N2219 C2221 1.356 . S
N2219 H2224 0.984 . S
N2219 H2225 0.985 . S
C2220 C2214 1.379 . S
C2220 C2217 1.363 . S
C2220 N2218 1.356 . S
C2221 C2215 1.363 . S
C2221 C2216 1.379 . S
C2221 N2219 1.356 . S
N2222 C2214 1.356 . S
N2222 H2228 0.984 . S
N2222 H2229 0.984 . S
N2223 C2216 1.356 . S
N2223 H2226 0.984 . S
N2223 H2227 0.985 . S
H2224 N2219 0.984 . S
H2225 N2219 0.985 . S
H2226 N2223 0.984 . S
H2227 N2223 0.985 . S
H2228 N2222 0.984 . S
H2229 N2222 0.984 . S
H2230 N2218 0.984 . S
H2231 N2218 0.985 . S
C2232 C2233 1.363 . S
C2232 C2238 1.379 . S
C2232 N2240 1.356 . S
C2233 C2232 1.363 . S
C2233 C2239 1.363 . S
C2234 C2235 1.363 . S
C2234 C2239 1.379 . S
C2234 N2241 1.356 . S
C2235 C2234 1.363 . S
C2235 C2238 1.363 . S
N2236 C2238 1.356 . S
N2236 H2248 0.984 . S
N2236 H2249 0.985 . S
N2237 C2239 1.356 . S
N2237 H2242 0.984 . S
N2237 H2243 0.985 . S
C2238 C2232 1.379 . S
C2238 C2235 1.363 . S
C2238 N2236 1.356 . S
C2239 C2233 1.363 . S
C2239 C2234 1.379 . S
C2239 N2237 1.356 . S
N2240 C2232 1.356 . S
N2240 H2246 0.984 . S
N2240 H2247 0.984 . S
N2241 C2234 1.356 . S
N2241 H2244 0.984 . S
N2241 H2245 0.985 . S
H2242 N2237 0.984 . S
H2243 N2237 0.985 . S
H2244 N2241 0.984 . S
H2245 N2241 0.985 . S
H2246 N2240 0.984 . S
H2247 N2240 0.984 . S
H2248 N2236 0.984 . S
H2249 N2236 0.985 . S
C2250 C2251 1.363 . S
C2250 C2256 1.379 . S
C2250 N2258 1.356 . S
C2251 C2250 1.363 . S
C2251 C2257 1.363 . S
C2252 C2253 1.363 . S
C2252 C2257 1.379 . S
C2252 N2259 1.356 . S
C2253 C2252 1.363 . S
C2253 C2256 1.363 . S
N2254 C2256 1.356 . S
N2254 H2266 0.984 . S
N2254 H2267 0.985 . S
N2255 C2257 1.356 . S
N2255 H2260 0.984 . S
N2255 H2261 0.985 . S
C2256 C2250 1.379 . S
C2256 C2253 1.363 . S
C2256 N2254 1.356 . S
C2257 C2251 1.363 . S
C2257 C2252 1.379 . S
C2257 N2255 1.356 . S
N2258 C2250 1.356 . S
N2258 H2264 0.984 . S
N2258 H2265 0.984 . S
N2259 C2252 1.356 . S
N2259 H2262 0.984 . S
N2259 H2263 0.985 . S
H2260 N2255 0.984 . S
H2261 N2255 0.985 . S
H2262 N2259 0.984 . S
H2263 N2259 0.985 . S
H2264 N2258 0.984 . S
H2265 N2258 0.984 . S
H2266 N2254 0.984 . S
H2267 N2254 0.985 . S
C2268 C2269 1.363 . S
C2268 C2274 1.379 . S
C2268 N2276 1.356 . S
C2269 C2268 1.363 . S
C2269 C2275 1.363 . S
C2270 C2271 1.363 . S
C2270 C2275 1.379 . S
C2270 N2277 1.356 . S
C2271 C2270 1.363 . S
C2271 C2274 1.363 . S
N2272 C2274 1.356 . S
N2272 H2284 0.984 . S
N2272 H2285 0.985 . S
N2273 C2275 1.356 . S
N2273 H2278 0.984 . S
N2273 H2279 0.985 . S
C2274 C2268 1.379 . S
C2274 C2271 1.363 . S
C2274 N2272 1.356 . S
C2275 C2269 1.363 . S
C2275 C2270 1.379 . S
C2275 N2273 1.356 . S
N2276 C2268 1.356 . S
N2276 H2282 0.984 . S
N2276 H2283 0.984 . S
N2277 C2270 1.356 . S
N2277 H2280 0.984 . S
N2277 H2281 0.985 . S
H2278 N2273 0.984 . S
H2279 N2273 0.985 . S
H2280 N2277 0.984 . S
H2281 N2277 0.985 . S
H2282 N2276 0.984 . S
H2283 N2276 0.984 . S
H2284 N2272 0.984 . S
H2285 N2272 0.985 . S
C2286 C2287 1.363 . S
C2286 C2292 1.379 . S
C2286 N2294 1.356 . S
C2287 C2286 1.363 . S
C2287 C2293 1.363 . S
C2288 C2289 1.363 . S
C2288 C2293 1.379 . S
C2288 N2295 1.356 . S
C2289 C2288 1.363 . S
C2289 C2292 1.363 . S
N2290 C2292 1.356 . S
N2290 H2302 0.984 . S
N2290 H2303 0.985 . S
N2291 C2293 1.356 . S
N2291 H2296 0.984 . S
N2291 H2297 0.985 . S
C2292 C2286 1.379 . S
C2292 C2289 1.363 . S
C2292 N2290 1.356 . S
C2293 C2287 1.363 . S
C2293 C2288 1.379 . S
C2293 N2291 1.356 . S
N2294 C2286 1.356 . S
N2294 H2300 0.984 . S
N2294 H2301 0.984 . S
N2295 C2288 1.356 . S
N2295 H2298 0.984 . S
N2295 H2299 0.985 . S
H2296 N2291 0.984 . S
H2297 N2291 0.985 . S
H2298 N2295 0.984 . S
H2299 N2295 0.985 . S
H2300 N2294 0.984 . S
H2301 N2294 0.984 . S
H2302 N2290 0.984 . S
H2303 N2290 0.985 . S
C1153 C327 1.328 . S
C1155 C2 1.367 . S
C1171 C38 1.387 . S
C1173 C938 1.272 . S
C1189 C399 1.328 . S
C1191 C74 1.367 . S
C1207 C866 1.272 . S
C1209 C110 1.387 . S
C1225 C146 1.367 . S
C1227 C543 1.328 . S
C1243 C1010 1.272 . S
C1245 C182 1.387 . S
C1261 C218 1.367 . S
C1263 C471 1.328 . S
C1279 C1082 1.272 . S
C1281 C254 1.387 . S
C1297 C39 1.187 . S
C1299 C291 1.232 . S
C1315 C326 1.308 1_655 S
C1317 C651 1.266 . S
C1333 C111 1.187 . S
C1335 C363 1.232 . S
C1351 C398 1.308 . S
C1353 C579 1.266 . S
C1369 C435 1.232 . S
C1371 C255 1.187 . S
C1387 C723 1.266 . S
C1389 C470 1.308 . S
C1405 C507 1.232 . S
C1407 C183 1.187 . S
C1423 C795 1.266 . S
C1425 C542 1.308 1_655 S
C1441 C903 1.328 . S
C1443 C578 1.367 . S
C1459 C362 1.272 . S
C1461 C614 1.387 . S
C1477 C650 1.367 . S
C1479 C975 1.328 . S
C1495 C290 1.272 . S
C1497 C686 1.387 . S
C1513 C1119 1.328 . S
C1515 C722 1.367 . S
C1531 C758 1.387 . S
C1533 C434 1.272 . S
C1549 C1047 1.328 . S
C1551 C794 1.367 . S
C1567 C506 1.272 . S
C1569 C830 1.387 . S
C1585 C615 1.187 . S
C1587 C867 1.232 . S
C1603 C902 1.308 . S
C1605 C75 1.266 . S
C1621 C939 1.232 . S
C1623 C687 1.187 . S
C1639 C974 1.308 1_455 S
C1641 C3 1.266 . S
C1657 C831 1.187 . S
C1659 C1011 1.232 . S
C1675 C1046 1.308 1_455 S
C1677 C147 1.266 . S
C1693 C1083 1.232 . S
C1695 C759 1.187 . S
C1711 C1118 1.308 . S
C1713 C219 1.266 . S
C1729 C878 1.703 . S
C1731 C4 1.563 . S
C1747 C40 1.469 . S
C1749 C328 1.463 . S
C1765 C76 1.563 . S
C1767 C950 1.703 . S
C1783 C112 1.469 . S
C1785 C400 1.463 . S
C1801 C148 1.563 . S
C1803 C1022 1.703 . S
C1819 C184 1.469 . S
C1821 C472 1.463 . S
C1837 C1094 1.703 . S
C1839 C220 1.563 . S
C1855 C256 1.469 . S
C1857 C544 1.463 . S
C1873 C302 1.703 . S
C1875 C580 1.563 . S
C1891 C374 1.703 . S
C1893 C652 1.563 . S
C1909 C724 1.563 . S
C1911 C446 1.703 . S
C1927 C796 1.563 . S
C1929 C518 1.703 . S
C1945 C616 1.469 . S
C1947 C904 1.463 . S
C1963 C976 1.463 . S
C1965 C688 1.469 . S
C1981 C760 1.469 . S
C1983 C1048 1.463 . S
C1999 C1120 1.463 . S
C2001 C832 1.469 . S
C2017 C770 1.662 . S
C2019 C14 1.656 . S
C2035 C806 1.656 . S
C2037 C50 1.662 . S
C2053 C86 1.656 . S
C2055 C842 1.662 . S
C2071 C734 1.656 . S
C2073 C122 1.662 . S
C2089 C698 1.662 . S
C2091 C158 1.656 . S
C2107 C590 1.656 . S
C2109 C194 1.662 . S
C2125 C230 1.656 . S
C2127 C626 1.662 . S
C2143 C662 1.656 . S
C2145 C266 1.662 . S
C2161 C1058 1.607 . S
C2163 C292 1.623 . S
C2179 C1084 1.623 . S
C2181 C338 1.607 . S
C2197 C1130 1.607 . S
C2199 C364 1.623 . S
C2215 C410 1.607 . S
C2217 C1012 1.623 . S
C2233 C986 1.607 . S
C2235 C436 1.623 . S
C2251 C868 1.623 . S
C2253 C482 1.607 . S
C2269 C914 1.607 . S
C2271 C508 1.623 . S
C2287 C940 1.623 . S
C2289 C554 1.607 . S
