# Generated by pormake.
# Topology mmt, (4)-cn, num edge types: 1
# Building blocks:
#     Node 0, Type 0, BuildingBlock: GALJAG_clean_sbu_0, # of connection points: 4
#     Node 1, Type 0, BuildingBlock: GALJAG_clean_sbu_0, # of connection points: 4
#     Node 2, Type 0, BuildingBlock: GALJAG_clean_sbu_0, # of connection points: 4
#     Node 3, Type 0, BuildingBlock: GALJAG_clean_sbu_0, # of connection points: 4
#     Node 4, Type 0, BuildingBlock: GALJAG_clean_sbu_0, # of connection points: 4
#     Node 5, Type 0, BuildingBlock: GALJAG_clean_sbu_0, # of connection points: 4
#     Node 6, Type 0, BuildingBlock: GALJAG_clean_sbu_0, # of connection points: 4
#     Node 7, Type 0, BuildingBlock: GALJAG_clean_sbu_0, # of connection points: 4
#     Edge 8, Type (0, 0), BuildingBlock: CIFDUS_clean_linker_0, # of connection points: 2
#     Edge 9, Type (0, 0), BuildingBlock: CIFDUS_clean_linker_0, # of connection points: 2
#     Edge 10, Type (0, 0), BuildingBlock: CIFDUS_clean_linker_0, # of connection points: 2
#     Edge 11, Type (0, 0), BuildingBlock: CIFDUS_clean_linker_0, # of connection points: 2
#     Edge 12, Type (0, 0), BuildingBlock: CIFDUS_clean_linker_0, # of connection points: 2
#     Edge 13, Type (0, 0), BuildingBlock: CIFDUS_clean_linker_0, # of connection points: 2
#     Edge 14, Type (0, 0), BuildingBlock: CIFDUS_clean_linker_0, # of connection points: 2
#     Edge 15, Type (0, 0), BuildingBlock: CIFDUS_clean_linker_0, # of connection points: 2
#     Edge 16, Type (0, 0), BuildingBlock: CIFDUS_clean_linker_0, # of connection points: 2
#     Edge 17, Type (0, 0), BuildingBlock: CIFDUS_clean_linker_0, # of connection points: 2
#     Edge 18, Type (0, 0), BuildingBlock: CIFDUS_clean_linker_0, # of connection points: 2
#     Edge 19, Type (0, 0), BuildingBlock: CIFDUS_clean_linker_0, # of connection points: 2
#     Edge 20, Type (0, 0), BuildingBlock: CIFDUS_clean_linker_0, # of connection points: 2
#     Edge 21, Type (0, 0), BuildingBlock: CIFDUS_clean_linker_0, # of connection points: 2
#     Edge 22, Type (0, 0), BuildingBlock: CIFDUS_clean_linker_0, # of connection points: 2
#     Edge 23, Type (0, 0), BuildingBlock: CIFDUS_clean_linker_0, # of connection points: 2
# Relax obj value: 0.016
# Max RMSD: 0.061
# Mean RMSD: 0.061
data_MOF--net-mmt--node1-GALJAG_clean_sbu_0--edge1-CIFDUS_clean_linker_0
_symmetry_space_group_name_H-M    P1
_symmetry_Int_Tables_number       1
_symmetry_cell_setting            triclinic
loop_
_symmetry_equiv_pos_as_xyz
'x, y, z'
_cell_length_a     21.680647
_cell_length_b     32.265592
_cell_length_c     35.862987
_cell_angle_alpha  89.94418
_cell_angle_beta   90.097999
_cell_angle_gamma 90.161049
loop_
_atom_site_label
_atom_site_type_symbol
_atom_site_fract_x
_atom_site_fract_y
_atom_site_fract_z
_atom_type_partial_charge
In0 In 0.12626 0.55476 0.34276 0.0
O1 O 0.22966 0.54732 0.33773 0.0
O2 O 0.17348 0.49778 0.31789 0.0
C3 C 0.07801 0.5204 0.40541 0.0
C4 C 0.16916 0.63322 0.34988 0.0
C5 C 0.03685 0.55112 0.28992 0.0
O6 O 0.12788 0.50802 0.39131 0.0
O7 O 0.05328 0.55003 0.38823 0.0
O8 O 0.03049 0.57022 0.32026 0.0
O9 O 0.08894 0.53466 0.28565 0.0
C10 C 0.22723 0.51246 0.32183 0.0
O11 O 0.16001 0.61627 0.31868 0.0
O12 O 0.15517 0.61106 0.37761 0.0
In13 In 0.3956 0.92557 0.33678 0.0
O14 O 0.31032 0.96789 0.33457 0.0
O15 O 0.32855 0.9276 0.28889 0.0
C16 C 0.43844 0.94428 0.4056 0.0
C17 C 0.35488 0.8466 0.33875 0.0
C18 C 0.48862 0.95419 0.29371 0.0
O19 O 0.39922 0.96661 0.38901 0.0
O20 O 0.45464 0.91244 0.38783 0.0
O21 O 0.48882 0.91817 0.30743 0.0
O22 O 0.44202 0.97551 0.30185 0.0
C23 C 0.29376 0.95466 0.30286 0.0
O24 O 0.39496 0.85909 0.31578 0.0
O25 O 0.33696 0.87362 0.36177 0.0
In26 In 0.62697 0.44587 0.16312 0.0
O27 O 0.64999 0.38125 0.18585 0.0
O28 O 0.68257 0.39721 0.13193 0.0
C29 C 0.53359 0.4638 0.20951 0.0
C30 C 0.72244 0.48794 0.19325 0.0
C31 C 0.56834 0.46668 0.09925 0.0
O32 O 0.54377 0.427 0.199 0.0
O33 O 0.56967 0.49074 0.19622 0.0
O34 O 0.61064 0.48887 0.11312 0.0
O35 O 0.55683 0.43392 0.11717 0.0
C36 C 0.68047 0.37047 0.15753 0.0
O37 O 0.71864 0.48194 0.1585 0.0
O38 O 0.67887 0.47286 0.21205 0.0
In39 In 0.89425 0.0745 0.16956 0.0
O40 O 0.79196 0.05691 0.17118 0.0
O41 O 0.85288 0.02422 0.20684 0.0
C42 C 0.92757 0.05418 0.09934 0.0
C43 C 0.85295 0.15311 0.176 0.0
C44 C 0.99711 0.05661 0.20892 0.0
O45 O 0.88249 0.03764 0.11595 0.0
O46 O 0.95471 0.08223 0.11765 0.0
O47 O 0.97203 0.09185 0.21069 0.0
O48 O 0.97056 0.03136 0.18746 0.0
C49 C 0.79824 0.02949 0.19593 0.0
O50 O 0.86175 0.12984 0.20379 0.0
O51 O 0.86743 0.13732 0.14505 0.0
In52 In 0.86543 0.44341 0.66195 0.0
O53 O 0.86841 0.37227 0.66635 0.0
O54 O 0.78472 0.40082 0.64929 0.0
C55 C 0.96858 0.46806 0.69841 0.0
C56 C 0.77771 0.48398 0.70038 0.0
C57 C 0.89646 0.45813 0.5903 0.0
O58 O 0.94309 0.43362 0.7053 0.0
O59 O 0.94147 0.48959 0.67416 0.0
O60 O 0.85284 0.47674 0.60641 0.0
O61 O 0.9229 0.43093 0.60991 0.0
C62 C 0.81252 0.36768 0.65702 0.0
O63 O 0.79541 0.49572 0.66854 0.0
O64 O 0.80578 0.45286 0.71324 0.0
In65 In 0.63228 0.0593 0.65932 0.0
O66 O 0.72129 0.02221 0.65255 0.0
O67 O 0.69342 0.03884 0.70747 0.0
C68 C 0.57927 0.03906 0.59312 0.0
C69 C 0.68586 0.13507 0.65546 0.0
C70 C 0.5406 0.03955 0.70746 0.0
O71 O 0.61187 0.01406 0.61156 0.0
O72 O 0.57429 0.07438 0.60768 0.0
O73 O 0.54781 0.07592 0.6951 0.0
O74 O 0.57954 0.0137 0.69577 0.0
C75 C 0.73302 0.02134 0.68708 0.0
O76 O 0.63634 0.12888 0.67314 0.0
O77 O 0.70707 0.10359 0.63928 0.0
In78 In 0.36818 0.56886 0.84493 0.0
O79 O 0.28079 0.52844 0.8495 0.0
O80 O 0.30706 0.55064 0.79611 0.0
C81 C 0.41353 0.55738 0.91429 0.0
C82 C 0.32576 0.6474 0.84084 0.0
C83 C 0.46898 0.54036 0.80908 0.0
O84 O 0.37286 0.53398 0.90024 0.0
O85 O 0.4294 0.58749 0.89392 0.0
O86 O 0.45518 0.57832 0.80972 0.0
O87 O 0.43124 0.51694 0.82559 0.0
C88 C 0.26863 0.53029 0.8151 0.0
O89 O 0.35977 0.63161 0.81617 0.0
O90 O 0.3143 0.62393 0.86818 0.0
In91 In 0.13135 0.95018 0.84716 0.0
O92 O 0.23485 0.95772 0.83897 0.0
O93 O 0.17701 0.00333 0.8145 0.0
C94 C 0.09839 0.9859 0.91244 0.0
C95 C 0.16966 0.87069 0.85266 0.0
C96 C 0.02411 0.95344 0.80788 0.0
O97 O 0.13195 0.00463 0.88906 0.0
O98 O 0.08407 0.94947 0.90335 0.0
O99 O 0.0273 0.94457 0.84193 0.0
O100 O 0.07572 0.95956 0.79261 0.0
C101 C 0.23122 0.98995 0.81916 0.0
O102 O 0.15191 0.88623 0.82215 0.0
O103 O 0.1674 0.89497 0.88011 0.0
H104 H 0.34001 0.54685 0.31548 0.0
H105 H 0.23738 0.43592 0.28925 0.0
H106 H 0.32565 0.40904 0.25424 0.0
H107 H 0.42939 0.42001 0.22689 0.0
H108 H 0.52697 0.53381 0.25045 0.0
H109 H 0.44338 0.55659 0.2907 0.0
C110 C 0.33717 0.51649 0.30258 0.0
C111 C 0.28234 0.4934 0.30492 0.0
C112 C 0.38707 0.50196 0.28166 0.0
C113 C 0.27923 0.45427 0.28783 0.0
C114 C 0.32955 0.43899 0.26769 0.0
C115 C 0.43239 0.44956 0.24118 0.0
C116 C 0.48399 0.47531 0.23557 0.0
C117 C 0.3833 0.46299 0.26374 0.0
C118 C 0.48741 0.51362 0.25406 0.0
C119 C 0.43972 0.52666 0.27715 0.0
H120 H 0.0641 0.98742 0.2002 0.0
H121 H 0.05442 0.09929 0.26559 0.0
H122 H 0.14486 0.07723 0.30174 0.0
H123 H 0.22685 0.02538 0.31452 0.0
H124 H 0.23581 0.91525 0.24649 0.0
H125 H 0.1452 0.93729 0.21178 0.0
C126 C 0.08169 0.00707 0.22236 0.0
C127 C 0.05262 0.04483 0.23032 0.0
C128 C 0.13348 0.99437 0.24264 0.0
C129 C 0.0762 0.07006 0.25893 0.0
C130 C 0.12774 0.0574 0.27963 0.0
C131 C 0.20863 0.00627 0.2922 0.0
C132 C 0.23786 0.96873 0.28311 0.0
C133 C 0.15672 0.01949 0.27178 0.0
C134 C 0.21427 0.94434 0.25393 0.0
C135 C 0.16242 0.95688 0.23405 0.0
H136 H 0.84221 0.49123 0.17067 0.0
H137 H 0.7186 0.53134 0.25744 0.0
H138 H 0.80522 0.55925 0.29303 0.0
H139 H 0.91628 0.56591 0.3025 0.0
H140 H 0.04179 0.52046 0.21893 0.0
H141 H 0.9546 0.50138 0.17889 0.0
C142 C 0.83443 0.5068 0.19703 0.0
C143 C 0.77441 0.50929 0.21152 0.0
C144 C 0.88482 0.52147 0.21804 0.0
C145 C 0.76462 0.52897 0.2459 0.0
C146 C 0.81406 0.54487 0.26627 0.0
C147 C 0.92459 0.55245 0.27526 0.0
C148 C 0.98523 0.5445 0.26368 0.0
C149 C 0.87442 0.54034 0.25307 0.0
C150 C 0.99536 0.52675 0.22846 0.0
C151 C 0.94556 0.51575 0.20562 0.0
H152 H 0.67815 0.05183 0.19359 0.0
H153 H 0.80084 0.95845 0.23699 0.0
H154 H 0.71469 0.925 0.26926 0.0
H155 H 0.6054 0.92465 0.2879 0.0
H156 H 0.48481 0.02112 0.24787 0.0
H157 H 0.56903 0.05099 0.21146 0.0
C158 C 0.68582 0.02388 0.20976 0.0
C159 C 0.74554 0.00752 0.21287 0.0
C160 C 0.63651 0.00557 0.22904 0.0
C161 C 0.75513 0.9716 0.23426 0.0
C162 C 0.70596 0.95252 0.25274 0.0
C163 C 0.59758 0.952 0.27095 0.0
C164 C 0.53915 0.97071 0.27054 0.0
C165 C 0.64661 0.96958 0.25076 0.0
C166 C 0.52958 0.00632 0.24873 0.0
C167 C 0.57765 0.02338 0.22789 0.0
H168 H 0.54558 0.5805 0.76089 0.0
H169 H 0.5206 0.46468 0.8193 0.0
H170 H 0.61628 0.43828 0.79277 0.0
H171 H 0.70593 0.44743 0.75222 0.0
H172 H 0.72831 0.56096 0.69013 0.0
H173 H 0.6351 0.58918 0.71906 0.0
C174 C 0.5612 0.54951 0.76775 0.0
C175 C 0.52615 0.52456 0.79198 0.0
C176 C 0.61588 0.53424 0.75191 0.0
C177 C 0.54663 0.48439 0.80054 0.0
C178 C 0.60144 0.46932 0.78551 0.0
C179 C 0.69075 0.47853 0.74534 0.0
C180 C 0.72408 0.5023 0.71942 0.0
C181 C 0.63635 0.49393 0.76115 0.0
C182 C 0.70338 0.54221 0.71017 0.0
C183 C 0.65009 0.55827 0.72662 0.0
H184 H 0.75342 0.99644 0.75792 0.0
H185 H 0.84154 0.00733 0.6507 0.0
H186 H 0.93981 0.98534 0.67804 0.0
H187 H 1.00211 0.96746 0.73372 0.0
H188 H 0.91126 0.95446 0.84013 0.0
H189 H 0.81283 0.97243 0.81181 0.0
C190 C 0.79406 0.99364 0.7405 0.0
C191 C 0.79052 0.00381 0.70251 0.0
C192 C 0.85003 0.98072 0.75631 0.0
C193 C 0.84323 0.99962 0.68009 0.0
C194 C 0.89945 0.98722 0.69573 0.0
C195 C 0.9606 0.96816 0.75054 0.0
C196 C 0.96417 0.96 0.78902 0.0
C197 C 0.90366 0.97835 0.73399 0.0
C198 C 0.90993 0.96071 0.81046 0.0
C199 C 0.85352 0.97112 0.79433 0.0
H200 H 0.21901 0.5499 0.74858 0.0
H201 H 0.19142 0.47107 0.84425 0.0
H202 H 0.09683 0.44312 0.81606 0.0
H203 H 0.02067 0.44242 0.76418 0.0
H204 H 0.04722 0.52548 0.67114 0.0
H205 H 0.1434 0.55038 0.69826 0.0
C206 C 0.19253 0.5264 0.76319 0.0
C207 C 0.21229 0.51235 0.79828 0.0
C208 C 0.13782 0.51134 0.74728 0.0
C209 C 0.17707 0.48233 0.81713 0.0
C210 C 0.12305 0.46637 0.80103 0.0
C211 C 0.04776 0.46585 0.74991 0.0
C212 C 0.02693 0.48206 0.7157 0.0
C213 C 0.10276 0.48081 0.76613 0.0
C214 C 0.0621 0.51266 0.69759 0.0
C215 C 0.11721 0.52688 0.71301 0.0
H216 H 0.34476 0.95615 0.81344 0.0
H217 H 0.23948 0.06377 0.78163 0.0
H218 H 0.32764 0.09034 0.74612 0.0
H219 H 0.43314 0.0808 0.72123 0.0
H220 H 0.53454 0.97055 0.75048 0.0
H221 H 0.44966 0.9473 0.78992 0.0
C222 C 0.34127 0.98567 0.79909 0.0
C223 C 0.28572 0.00801 0.80025 0.0
C224 C 0.39145 1.00015 0.77805 0.0
C225 C 0.28178 0.046 0.78119 0.0
C226 C 0.33214 0.06114 0.76083 0.0
C227 C 0.43673 0.0519 0.73654 0.0
C228 C 0.49002 0.0274 0.73292 0.0
C229 C 0.38697 0.03819 0.75862 0.0
C230 C 0.49392 0.98986 0.75266 0.0
C231 C 0.44541 0.97654 0.77525 0.0
H232 H 0.96894 0.54045 0.43719 0.0
H233 H 0.12528 0.45915 0.44968 0.0
H234 H 0.08073 0.43056 0.50688 0.0
H235 H 0.99934 0.43094 0.55473 0.0
H236 H 0.84411 0.51329 0.54234 0.0
H237 H 0.88593 0.53887 0.48345 0.0
C238 C 0.99322 0.51639 0.45237 0.0
C239 C 0.0505 0.50211 0.43937 0.0
C240 C 0.96743 0.50022 0.48518 0.0
C241 C 0.08121 0.47076 0.45921 0.0
C242 C 0.05575 0.4544 0.49189 0.0
C243 C 0.97434 0.45413 0.53891 0.0
C244 C 0.91873 0.47023 0.55289 0.0
C245 C 0.99912 0.46915 0.5053 0.0
C246 C 0.887 0.50041 0.53218 0.0
C247 C 0.91098 0.51516 0.49857 0.0
H248 H 0.42897 0.01735 0.44314 0.0
H249 H 0.51055 0.89572 0.44959 0.0
H250 H 0.56102 0.91416 0.50817 0.0
H251 H 0.58386 0.96521 0.557 0.0
H252 H 0.50431 0.0874 0.5502 0.0
H253 H 0.45153 0.06848 0.49236 0.0
C254 C 0.45745 0.99483 0.45754 0.0
C255 C 0.4659 0.95522 0.44208 0.0
C256 C 0.48709 0.00583 0.49103 0.0
C257 C 0.50331 0.92644 0.46089 0.0
C258 C 0.53229 0.93697 0.49438 0.0
C259 C 0.55501 0.9877 0.54284 0.0
C260 C 0.54813 0.02765 0.55783 0.0
C261 C 0.5249 0.97665 0.50957 0.0
C262 C 0.51051 0.05645 0.53918 0.0
C263 C 0.4802 0.04564 0.50614 0.0
H264 H 0.57923 0.53747 0.05823 0.0
H265 H 0.47867 0.42205 0.06436 0.0
H266 H 0.41972 0.44085 0.0089 0.0
H267 H 0.39797 0.48934 0.95786 0.0
H268 H 0.49899 0.60446 0.95093 0.0
H269 H 0.55594 0.58675 0.00761 0.0
C270 C 0.54446 0.51644 0.04737 0.0
C271 C 0.53357 0.47835 0.06531 0.0
C272 C 0.51053 0.5275 0.01542 0.0
C273 C 0.48814 0.45151 0.05103 0.0
C274 C 0.45428 0.46226 0.01933 0.0
C275 C 0.43205 0.51073 0.96894 0.0
C276 C 0.44414 0.54818 0.95025 0.0
C277 C 0.46515 0.50011 1.00125 0.0
C278 C 0.48872 0.57546 0.96484 0.0
C279 C 0.52147 0.56528 0.99718 0.0
H280 H 1.00182 0.95932 0.95302 0.0
H281 H 0.13885 0.05626 0.948 0.0
H282 H 0.09676 0.08713 0.00507 0.0
H283 H 0.02202 0.08516 0.05724 0.0
H284 H 0.88349 0.9888 0.05977 0.0
H285 H 0.92482 0.95933 1.00253 0.0
C286 C 0.02267 0.98715 0.96445 0.0
C287 C 0.07382 0.00524 0.94666 0.0
C288 C 0.99769 0.00492 0.99668 0.0
C289 C 0.09964 0.04168 0.96139 0.0
C290 C 0.07554 0.05931 0.99395 0.0
C291 C 1.00065 0.05792 0.04505 0.0
C292 C 0.94986 0.03912 0.06283 0.0
C293 C 0.02467 0.04107 0.01193 0.0
C294 C 0.92255 0.0039 0.04667 0.0
C295 C 0.9463 0.9869 0.014 0.0
H296 H 0.24279 0.67142 0.29978 0.0
H297 H 0.16259 0.68637 0.40884 0.0
H298 H 0.21368 0.75382 0.41545 0.0
H299 H 0.28099 0.80866 0.38983 0.0
H300 H 0.36574 0.79108 0.28223 0.0
H301 H 0.31365 0.72435 0.27559 0.0
C302 C 0.23622 0.68961 0.32488 0.0
C303 C 0.19847 0.67434 0.3536 0.0
C304 C 0.26699 0.72768 0.32886 0.0
C305 C 0.19125 0.69772 0.3863 0.0
C306 C 0.22051 0.73618 0.3901 0.0
C307 C 0.28828 0.79006 0.36506 0.0
C308 C 0.32705 0.80481 0.33654 0.0
C309 C 0.25858 0.75146 0.36156 0.0
C310 C 0.33634 0.78034 0.30466 0.0
C311 C 0.30632 0.74227 0.30074 0.0
H312 H 0.82993 0.20816 0.12037 0.0
H313 H 0.80764 0.18959 0.23875 0.0
H314 H 0.75082 0.25467 0.24342 0.0
H315 H 0.7057 0.31635 0.21363 0.0
H316 H 0.73022 0.33556 0.09551 0.0
H317 H 0.78744 0.27066 0.09094 0.0
C318 C 0.81301 0.21851 0.14723 0.0
C319 C 0.82301 0.19409 0.17915 0.0
C320 C 0.78027 0.25591 0.14971 0.0
C321 C 0.80075 0.20789 0.21376 0.0
C322 C 0.768 0.24502 0.21644 0.0
C323 C 0.72334 0.30618 0.18689 0.0
C324 C 0.7134 0.33053 0.15492 0.0
C325 C 0.75704 0.26912 0.18455 0.0
C326 C 0.73714 0.31727 0.12052 0.0
C327 C 0.76996 0.28021 0.11788 0.0
H328 H 0.63638 0.21171 0.66432 0.0
H329 H 0.80813 0.14845 0.64463 0.0
H330 H 0.86336 0.21462 0.64435 0.0
H331 H 0.86287 0.29084 0.6498 0.0
H332 H 0.68976 0.35421 0.66451 0.0
H333 H 0.63513 0.28797 0.66655 0.0
C334 C 0.68588 0.21253 0.66001 0.0
C335 C 0.71822 0.17539 0.6547 0.0
C336 C 0.71711 0.25077 0.65893 0.0
C337 C 0.78224 0.17676 0.64868 0.0
C338 C 0.81388 0.21455 0.6486 0.0
C339 C 0.81322 0.29001 0.65343 0.0
C340 C 0.78041 0.32724 0.65714 0.0
C341 C 0.78182 0.25179 0.6537 0.0
C342 C 0.716 0.32589 0.66145 0.0
C343 C 0.68471 0.28804 0.66273 0.0
H344 H 0.27099 0.69353 0.8947 0.0
H345 H 0.32104 0.69523 0.77835 0.0
H346 H 0.27426 0.76359 0.77114 0.0
H347 H 0.2195 0.82325 0.79804 0.0
H348 H 0.17536 0.82336 0.91523 0.0
H349 H 0.21894 0.75395 0.92197 0.0
C350 C 0.27166 0.70892 0.8678 0.0
C351 C 0.29931 0.68937 0.83711 0.0
C352 C 0.24545 0.74849 0.86398 0.0
C353 C 0.30024 0.70974 0.80245 0.0
C354 C 0.2733 0.74876 0.79827 0.0
C355 C 0.21907 0.80787 0.82495 0.0
C356 C 0.19388 0.82814 0.85603 0.0
C357 C 0.2457 0.76842 0.82882 0.0
C358 C 0.19445 0.80826 0.89089 0.0
C359 C 0.21941 0.76862 0.89478 0.0
loop_
_geom_bond_atom_site_label_1
_geom_bond_atom_site_label_2
_geom_bond_distance
_geom_bond_site_symmetry_2
_ccdc_geom_bond_type
In0 O1 2.294 . S
In0 O2 2.326 . S
In0 O6 2.266 . S
In0 O7 2.326 . S
In0 O8 2.266 . S
In0 O9 2.326 . S
In0 O11 2.294 . S
In0 O12 2.326 . S
O1 In0 2.294 . S
O1 C10 1.240 . S
O2 In0 2.326 . S
O2 C10 1.252 . S
C3 O6 1.252 . S
C3 O7 1.260 . S
C4 O11 1.240 . S
C4 O12 1.252 . S
C5 O8 1.252 . S
C5 O9 1.260 . S
O6 In0 2.266 . S
O6 C3 1.252 . S
O7 In0 2.326 . S
O7 C3 1.260 . S
O8 In0 2.266 . S
O8 C5 1.252 . S
O9 In0 2.326 . S
O9 C5 1.260 . S
C10 O1 1.240 . S
C10 O2 1.252 . S
O11 In0 2.294 . S
O11 C4 1.240 . S
O12 In0 2.326 . S
O12 C4 1.252 . S
In13 O14 2.294 . S
In13 O15 2.326 . S
In13 O19 2.266 . S
In13 O20 2.326 . S
In13 O21 2.266 . S
In13 O22 2.326 . S
In13 O24 2.294 . S
In13 O25 2.326 . S
O14 In13 2.294 . S
O14 C23 1.240 . S
O15 In13 2.326 . S
O15 C23 1.252 . S
C16 O19 1.252 . S
C16 O20 1.260 . S
C17 O24 1.240 . S
C17 O25 1.252 . S
C18 O21 1.252 . S
C18 O22 1.260 . S
O19 In13 2.266 . S
O19 C16 1.252 . S
O20 In13 2.326 . S
O20 C16 1.260 . S
O21 In13 2.266 . S
O21 C18 1.252 . S
O22 In13 2.326 . S
O22 C18 1.260 . S
C23 O14 1.240 . S
C23 O15 1.252 . S
O24 In13 2.294 . S
O24 C17 1.240 . S
O25 In13 2.326 . S
O25 C17 1.252 . S
In26 O27 2.294 . S
In26 O28 2.326 . S
In26 O32 2.266 . S
In26 O33 2.326 . S
In26 O34 2.266 . S
In26 O35 2.326 . S
In26 O37 2.294 . S
In26 O38 2.326 . S
O27 In26 2.294 . S
O27 C36 1.240 . S
O28 In26 2.326 . S
O28 C36 1.252 . S
C29 O32 1.252 . S
C29 O33 1.260 . S
C30 O37 1.240 . S
C30 O38 1.252 . S
C31 O34 1.252 . S
C31 O35 1.260 . S
O32 In26 2.266 . S
O32 C29 1.252 . S
O33 In26 2.326 . S
O33 C29 1.260 . S
O34 In26 2.266 . S
O34 C31 1.252 . S
O35 In26 2.326 . S
O35 C31 1.260 . S
C36 O27 1.240 . S
C36 O28 1.252 . S
O37 In26 2.294 . S
O37 C30 1.240 . S
O38 In26 2.326 . S
O38 C30 1.252 . S
In39 O40 2.294 . S
In39 O41 2.326 . S
In39 O45 2.266 . S
In39 O46 2.326 . S
In39 O47 2.266 . S
In39 O48 2.326 . S
In39 O50 2.294 . S
In39 O51 2.326 . S
O40 In39 2.294 . S
O40 C49 1.240 . S
O41 In39 2.326 . S
O41 C49 1.252 . S
C42 O45 1.252 . S
C42 O46 1.260 . S
C43 O50 1.240 . S
C43 O51 1.252 . S
C44 O47 1.252 . S
C44 O48 1.260 . S
O45 In39 2.266 . S
O45 C42 1.252 . S
O46 In39 2.326 . S
O46 C42 1.260 . S
O47 In39 2.266 . S
O47 C44 1.252 . S
O48 In39 2.326 . S
O48 C44 1.260 . S
C49 O40 1.240 . S
C49 O41 1.252 . S
O50 In39 2.294 . S
O50 C43 1.240 . S
O51 In39 2.326 . S
O51 C43 1.252 . S
In52 O53 2.294 . S
In52 O54 2.326 . S
In52 O58 2.266 . S
In52 O59 2.326 . S
In52 O60 2.266 . S
In52 O61 2.326 . S
In52 O63 2.294 . S
In52 O64 2.326 . S
O53 In52 2.294 . S
O53 C62 1.240 . S
O54 In52 2.326 . S
O54 C62 1.252 . S
C55 O58 1.252 . S
C55 O59 1.260 . S
C56 O63 1.240 . S
C56 O64 1.252 . S
C57 O60 1.252 . S
C57 O61 1.260 . S
O58 In52 2.266 . S
O58 C55 1.252 . S
O59 In52 2.326 . S
O59 C55 1.260 . S
O60 In52 2.266 . S
O60 C57 1.252 . S
O61 In52 2.326 . S
O61 C57 1.260 . S
C62 O53 1.240 . S
C62 O54 1.252 . S
O63 In52 2.294 . S
O63 C56 1.240 . S
O64 In52 2.326 . S
O64 C56 1.252 . S
In65 O66 2.294 . S
In65 O67 2.326 . S
In65 O71 2.266 . S
In65 O72 2.326 . S
In65 O73 2.266 . S
In65 O74 2.326 . S
In65 O76 2.294 . S
In65 O77 2.326 . S
O66 In65 2.294 . S
O66 C75 1.240 . S
O67 In65 2.326 . S
O67 C75 1.252 . S
C68 O71 1.252 . S
C68 O72 1.260 . S
C69 O76 1.240 . S
C69 O77 1.252 . S
C70 O73 1.252 . S
C70 O74 1.260 . S
O71 In65 2.266 . S
O71 C68 1.252 . S
O72 In65 2.326 . S
O72 C68 1.260 . S
O73 In65 2.266 . S
O73 C70 1.252 . S
O74 In65 2.326 . S
O74 C70 1.260 . S
C75 O66 1.240 . S
C75 O67 1.252 . S
O76 In65 2.294 . S
O76 C69 1.240 . S
O77 In65 2.326 . S
O77 C69 1.252 . S
In78 O79 2.294 . S
In78 O80 2.326 . S
In78 O84 2.266 . S
In78 O85 2.326 . S
In78 O86 2.266 . S
In78 O87 2.326 . S
In78 O89 2.294 . S
In78 O90 2.326 . S
O79 In78 2.294 . S
O79 C88 1.240 . S
O80 In78 2.326 . S
O80 C88 1.252 . S
C81 O84 1.252 . S
C81 O85 1.260 . S
C82 O89 1.240 . S
C82 O90 1.252 . S
C83 O86 1.252 . S
C83 O87 1.260 . S
O84 In78 2.266 . S
O84 C81 1.252 . S
O85 In78 2.326 . S
O85 C81 1.260 . S
O86 In78 2.266 . S
O86 C83 1.252 . S
O87 In78 2.326 . S
O87 C83 1.260 . S
C88 O79 1.240 . S
C88 O80 1.252 . S
O89 In78 2.294 . S
O89 C82 1.240 . S
O90 In78 2.326 . S
O90 C82 1.252 . S
In91 O92 2.294 . S
In91 O93 2.326 . S
In91 O97 2.266 . S
In91 O98 2.326 . S
In91 O99 2.266 . S
In91 O100 2.326 . S
In91 O102 2.294 . S
In91 O103 2.326 . S
O92 In91 2.294 . S
O92 C101 1.240 . S
O93 In91 2.326 . S
O93 C101 1.252 . S
C94 O97 1.252 . S
C94 O98 1.260 . S
C95 O102 1.240 . S
C95 O103 1.252 . S
C96 O99 1.252 . S
C96 O100 1.260 . S
O97 In91 2.266 . S
O97 C94 1.252 . S
O98 In91 2.326 . S
O98 C94 1.260 . S
O99 In91 2.266 . S
O99 C96 1.252 . S
O100 In91 2.326 . S
O100 C96 1.260 . S
C101 O92 1.240 . S
C101 O93 1.252 . S
O102 In91 2.294 . S
O102 C95 1.240 . S
O103 In91 2.326 . S
O103 C95 1.252 . S
H104 C110 0.930 . S
H105 C113 0.930 . S
H106 C114 0.930 . S
H107 C115 0.930 . S
H108 C118 0.930 . S
H109 C119 0.930 . S
C110 H104 0.930 . S
C110 C111 1.355 . S
C110 C112 1.415 . S
C111 C110 1.355 . S
C111 C113 1.419 . S
C112 C110 1.415 . S
C112 C117 1.425 . S
C112 C119 1.409 . S
C113 H105 0.930 . S
C113 C111 1.419 . S
C113 C114 1.362 . S
C114 H106 0.930 . S
C114 C113 1.362 . S
C114 C117 1.409 . S
C115 H107 0.930 . S
C115 C116 1.355 . S
C115 C117 1.415 . S
C116 C115 1.355 . S
C116 C118 1.419 . S
C117 C112 1.425 . S
C117 C114 1.409 . S
C117 C115 1.415 . S
C118 H108 0.930 . S
C118 C116 1.419 . S
C118 C119 1.362 . S
C119 H109 0.930 . S
C119 C112 1.409 . S
C119 C118 1.362 . S
H120 C126 0.930 . S
H121 C129 0.930 . S
H122 C130 0.930 . S
H123 C131 0.930 . S
H124 C134 0.930 . S
H125 C135 0.930 . S
C126 H120 0.930 . S
C126 C127 1.355 1_565 S
C126 C128 1.415 . S
C127 C126 1.355 1_545 S
C127 C129 1.419 . S
C128 C126 1.415 . S
C128 C133 1.425 1_565 S
C128 C135 1.409 . S
C129 H121 0.930 . S
C129 C127 1.419 . S
C129 C130 1.362 . S
C130 H122 0.930 . S
C130 C129 1.362 . S
C130 C133 1.409 . S
C131 H123 0.930 . S
C131 C132 1.355 1_545 S
C131 C133 1.415 . S
C132 C131 1.355 1_565 S
C132 C134 1.419 . S
C133 C128 1.425 1_545 S
C133 C130 1.409 . S
C133 C131 1.415 . S
C134 H124 0.930 . S
C134 C132 1.419 . S
C134 C135 1.362 . S
C135 H125 0.930 . S
C135 C128 1.409 . S
C135 C134 1.362 . S
H136 C142 0.930 . S
H137 C145 0.930 . S
H138 C146 0.930 . S
H139 C147 0.930 . S
H140 C150 0.930 1_455 S
H141 C151 0.930 . S
C142 H136 0.930 . S
C142 C143 1.355 . S
C142 C144 1.415 . S
C143 C142 1.355 . S
C143 C145 1.419 . S
C144 C142 1.415 . S
C144 C149 1.425 . S
C144 C151 1.409 . S
C145 H137 0.930 . S
C145 C143 1.419 . S
C145 C146 1.362 . S
C146 H138 0.930 . S
C146 C145 1.362 . S
C146 C149 1.409 . S
C147 H139 0.930 . S
C147 C148 1.355 . S
C147 C149 1.415 . S
C148 C147 1.355 . S
C148 C150 1.419 . S
C149 C144 1.425 . S
C149 C146 1.409 . S
C149 C147 1.415 . S
C150 H140 0.930 1_655 S
C150 C148 1.419 . S
C150 C151 1.362 . S
C151 H141 0.930 . S
C151 C144 1.409 . S
C151 C150 1.362 . S
H152 C158 0.930 . S
H153 C161 0.930 . S
H154 C162 0.930 . S
H155 C163 0.930 . S
H156 C166 0.930 . S
H157 C167 0.930 . S
C158 H152 0.930 . S
C158 C159 1.355 . S
C158 C160 1.415 . S
C159 C158 1.355 . S
C159 C161 1.419 . S
C160 C158 1.415 . S
C160 C165 1.425 . S
C160 C167 1.409 1_545 S
C161 H153 0.930 . S
C161 C159 1.419 . S
C161 C162 1.362 . S
C162 H154 0.930 . S
C162 C161 1.362 . S
C162 C165 1.409 . S
C163 H155 0.930 . S
C163 C164 1.355 . S
C163 C165 1.415 1_565 S
C164 C163 1.355 . S
C164 C166 1.419 . S
C165 C160 1.425 . S
C165 C162 1.409 . S
C165 C163 1.415 1_545 S
C166 H156 0.930 . S
C166 C164 1.419 . S
C166 C167 1.362 . S
C167 H157 0.930 . S
C167 C160 1.409 1_565 S
C167 C166 1.362 . S
H168 C174 0.930 . S
H169 C177 0.930 . S
H170 C178 0.930 . S
H171 C179 0.930 . S
H172 C182 0.930 . S
H173 C183 0.930 . S
C174 H168 0.930 . S
C174 C175 1.355 . S
C174 C176 1.415 . S
C175 C174 1.355 . S
C175 C177 1.419 . S
C176 C174 1.415 . S
C176 C181 1.425 . S
C176 C183 1.409 . S
C177 H169 0.930 . S
C177 C175 1.419 . S
C177 C178 1.362 . S
C178 H170 0.930 . S
C178 C177 1.362 . S
C178 C181 1.409 . S
C179 H171 0.930 . S
C179 C180 1.355 . S
C179 C181 1.415 . S
C180 C179 1.355 . S
C180 C182 1.419 . S
C181 C176 1.425 . S
C181 C178 1.409 . S
C181 C179 1.415 . S
C182 H172 0.930 . S
C182 C180 1.419 . S
C182 C183 1.362 . S
C183 H173 0.930 . S
C183 C176 1.409 . S
C183 C182 1.362 . S
H184 C190 0.930 1_565 S
H185 C193 0.930 . S
H186 C194 0.930 . S
H187 C195 0.933 . S
H188 C198 0.930 . S
H189 C199 0.930 . S
C190 H184 0.930 1_545 S
C190 C191 1.355 . S
C190 C192 1.415 1_545 S
C191 C190 1.355 . S
C191 C193 1.419 . S
C192 C190 1.415 1_565 S
C192 C197 1.425 1_565 S
C192 C199 1.409 . S
C193 H185 0.930 . S
C193 C191 1.419 . S
C193 C194 1.362 . S
C194 H186 0.930 . S
C194 C193 1.362 . S
C194 C197 1.409 . S
C195 H187 0.933 . S
C195 C196 1.348 1_545 S
C195 C197 1.418 . S
C196 C195 1.348 1_565 S
C196 C198 1.419 . S
C197 C192 1.425 1_545 S
C197 C194 1.409 . S
C197 C195 1.418 . S
C198 H188 0.930 . S
C198 C196 1.419 . S
C198 C199 1.362 . S
C199 H189 0.930 . S
C199 C192 1.409 . S
C199 C198 1.362 . S
H200 C206 0.930 . S
H201 C209 0.930 . S
H202 C210 0.930 . S
H203 C211 0.930 . S
H204 C214 0.930 . S
H205 C215 0.930 . S
C206 H200 0.930 . S
C206 C207 1.355 . S
C206 C208 1.415 . S
C207 C206 1.355 . S
C207 C209 1.419 . S
C208 C206 1.415 . S
C208 C213 1.425 . S
C208 C215 1.409 . S
C209 H201 0.930 . S
C209 C207 1.419 . S
C209 C210 1.362 . S
C210 H202 0.930 . S
C210 C209 1.362 . S
C210 C213 1.409 . S
C211 H203 0.930 . S
C211 C212 1.355 . S
C211 C213 1.415 . S
C212 C211 1.355 . S
C212 C214 1.419 . S
C213 C208 1.425 . S
C213 C210 1.409 . S
C213 C211 1.415 . S
C214 H204 0.930 . S
C214 C212 1.419 . S
C214 C215 1.362 . S
C215 H205 0.930 . S
C215 C208 1.409 . S
C215 C214 1.362 . S
H216 C222 0.930 . S
H217 C225 0.930 . S
H218 C226 0.930 . S
H219 C227 0.930 . S
H220 C230 0.930 . S
H221 C231 0.930 . S
C222 H216 0.930 . S
C222 C223 1.355 . S
C222 C224 1.415 . S
C223 C222 1.355 . S
C223 C225 1.419 . S
C224 C222 1.415 . S
C224 C229 1.425 1_565 S
C224 C231 1.409 . S
C225 H217 0.930 . S
C225 C223 1.419 . S
C225 C226 1.362 1_565 S
C226 H218 0.930 . S
C226 C225 1.362 1_545 S
C226 C229 1.409 . S
C227 H219 0.930 . S
C227 C228 1.355 . S
C227 C229 1.415 . S
C228 C227 1.355 . S
C228 C230 1.419 1_545 S
C229 C224 1.425 1_545 S
C229 C226 1.409 . S
C229 C227 1.415 . S
C230 H220 0.930 . S
C230 C228 1.419 1_565 S
C230 C231 1.362 . S
C231 H221 0.930 . S
C231 C224 1.409 . S
C231 C230 1.362 . S
H232 C238 0.930 1_655 S
H233 C241 0.930 . S
H234 C242 0.930 . S
H235 C243 0.930 1_455 S
H236 C246 0.930 . S
H237 C247 0.930 . S
C238 H232 0.930 1_455 S
C238 C239 1.355 . S
C238 C240 1.415 1_455 S
C239 C238 1.355 . S
C239 C241 1.419 . S
C240 C238 1.415 1_655 S
C240 C245 1.425 1_655 S
C240 C247 1.409 . S
C241 H233 0.930 . S
C241 C239 1.419 . S
C241 C242 1.362 . S
C242 H234 0.930 . S
C242 C241 1.362 . S
C242 C245 1.409 . S
C243 H235 0.930 1_655 S
C243 C244 1.355 . S
C243 C245 1.415 1_655 S
C244 C243 1.355 . S
C244 C246 1.419 . S
C245 C240 1.425 1_455 S
C245 C242 1.409 . S
C245 C243 1.415 1_455 S
C246 H236 0.930 . S
C246 C244 1.419 . S
C246 C247 1.362 . S
C247 H237 0.930 . S
C247 C240 1.409 . S
C247 C246 1.362 . S
H248 C254 0.930 . S
H249 C257 0.930 . S
H250 C258 0.930 . S
H251 C259 0.930 . S
H252 C262 0.930 . S
H253 C263 0.930 . S
C254 H248 0.930 . S
C254 C255 1.355 1_545 S
C254 C256 1.415 . S
C255 C254 1.355 1_565 S
C255 C257 1.419 . S
C256 C254 1.415 . S
C256 C261 1.425 1_545 S
C256 C263 1.409 . S
C257 H249 0.930 . S
C257 C255 1.419 . S
C257 C258 1.362 . S
C258 H250 0.930 . S
C258 C257 1.362 . S
C258 C261 1.409 . S
C259 H251 0.930 . S
C259 C260 1.355 1_565 S
C259 C261 1.415 . S
C260 C259 1.355 1_545 S
C260 C262 1.419 . S
C261 C256 1.425 1_565 S
C261 C258 1.409 . S
C261 C259 1.415 . S
C262 H252 0.930 . S
C262 C260 1.419 . S
C262 C263 1.362 . S
C263 H253 0.930 . S
C263 C256 1.409 . S
C263 C262 1.362 . S
H264 C270 0.930 . S
H265 C273 0.930 . S
H266 C274 0.930 . S
H267 C275 0.930 . S
H268 C278 0.930 . S
H269 C279 0.930 . S
C270 H264 0.930 . S
C270 C271 1.355 . S
C270 C272 1.415 1_554 S
C271 C270 1.355 . S
C271 C273 1.419 . S
C272 C270 1.415 1_556 S
C272 C277 1.425 1_556 S
C272 C279 1.409 . S
C273 H265 0.930 . S
C273 C271 1.419 . S
C273 C274 1.362 . S
C274 H266 0.930 . S
C274 C273 1.362 . S
C274 C277 1.409 . S
C275 H267 0.930 . S
C275 C276 1.355 . S
C275 C277 1.415 1_556 S
C276 C275 1.355 . S
C276 C278 1.419 . S
C277 C272 1.425 1_554 S
C277 C274 1.409 . S
C277 C275 1.415 1_554 S
C278 H268 0.930 . S
C278 C276 1.419 . S
C278 C279 1.362 . S
C279 H269 0.930 . S
C279 C272 1.409 . S
C279 C278 1.362 . S
H280 C286 0.930 . S
H281 C289 0.930 . S
H282 C290 0.930 . S
H283 C291 0.930 . S
H284 C294 0.930 . S
H285 C295 0.930 . S
C286 H280 0.930 . S
C286 C287 1.355 1_655 S
C286 C288 1.415 1_565 S
C287 C286 1.355 1_455 S
C287 C289 1.419 . S
C288 C286 1.415 1_545 S
C288 C293 1.425 1_646 S
C288 C295 1.409 . S
C289 H281 0.930 . S
C289 C287 1.419 . S
C289 C290 1.362 1_556 S
C290 H282 0.930 . S
C290 C289 1.362 1_554 S
C290 C293 1.409 . S
C291 H283 0.930 . S
C291 C292 1.355 1_455 S
C291 C293 1.415 1_545 S
C292 C291 1.355 1_655 S
C292 C294 1.419 . S
C293 C288 1.425 1_464 S
C293 C290 1.409 . S
C293 C291 1.415 1_565 S
C294 H284 0.930 . S
C294 C292 1.419 . S
C294 C295 1.362 1_554 S
C295 H285 0.930 . S
C295 C288 1.409 . S
C295 C294 1.362 1_556 S
H296 C302 0.930 . S
H297 C305 0.930 . S
H298 C306 0.930 . S
H299 C307 0.930 . S
H300 C310 0.930 . S
H301 C311 0.930 . S
C302 H296 0.930 . S
C302 C303 1.355 . S
C302 C304 1.415 . S
C303 C302 1.355 . S
C303 C305 1.419 . S
C304 C302 1.415 . S
C304 C309 1.425 . S
C304 C311 1.409 . S
C305 H297 0.930 . S
C305 C303 1.419 . S
C305 C306 1.362 . S
C306 H298 0.930 . S
C306 C305 1.362 . S
C306 C309 1.409 . S
C307 H299 0.930 . S
C307 C308 1.355 . S
C307 C309 1.415 . S
C308 C307 1.355 . S
C308 C310 1.419 . S
C309 C304 1.425 . S
C309 C306 1.409 . S
C309 C307 1.415 . S
C310 H300 0.930 . S
C310 C308 1.419 . S
C310 C311 1.362 . S
C311 H301 0.930 . S
C311 C304 1.409 . S
C311 C310 1.362 . S
H312 C318 0.930 . S
H313 C321 0.930 . S
H314 C322 0.930 . S
H315 C323 0.930 . S
H316 C326 0.930 . S
H317 C327 0.930 . S
C318 H312 0.930 . S
C318 C319 1.355 . S
C318 C320 1.415 . S
C319 C318 1.355 . S
C319 C321 1.419 . S
C320 C318 1.415 . S
C320 C325 1.425 . S
C320 C327 1.409 . S
C321 H313 0.930 . S
C321 C319 1.419 . S
C321 C322 1.362 . S
C322 H314 0.930 . S
C322 C321 1.362 . S
C322 C325 1.409 . S
C323 H315 0.930 . S
C323 C324 1.355 . S
C323 C325 1.415 . S
C324 C323 1.355 . S
C324 C326 1.419 . S
C325 C320 1.425 . S
C325 C322 1.409 . S
C325 C323 1.415 . S
C326 H316 0.930 . S
C326 C324 1.419 . S
C326 C327 1.362 . S
C327 H317 0.930 . S
C327 C320 1.409 . S
C327 C326 1.362 . S
H328 C334 0.930 . S
H329 C337 0.930 . S
H330 C338 0.930 . S
H331 C339 0.930 . S
H332 C342 0.930 . S
H333 C343 0.930 . S
C334 H328 0.930 . S
C334 C335 1.355 . S
C334 C336 1.415 . S
C335 C334 1.355 . S
C335 C337 1.419 . S
C336 C334 1.415 . S
C336 C341 1.425 . S
C336 C343 1.409 . S
C337 H329 0.930 . S
C337 C335 1.419 . S
C337 C338 1.362 . S
C338 H330 0.930 . S
C338 C337 1.362 . S
C338 C341 1.409 . S
C339 H331 0.930 . S
C339 C340 1.355 . S
C339 C341 1.415 . S
C340 C339 1.355 . S
C340 C342 1.419 . S
C341 C336 1.425 . S
C341 C338 1.409 . S
C341 C339 1.415 . S
C342 H332 0.930 . S
C342 C340 1.419 . S
C342 C343 1.362 . S
C343 H333 0.930 . S
C343 C336 1.409 . S
C343 C342 1.362 . S
H344 C350 0.930 . S
H345 C353 0.930 . S
H346 C354 0.930 . S
H347 C355 0.930 . S
H348 C358 0.930 . S
H349 C359 0.930 . S
C350 H344 0.930 . S
C350 C351 1.355 . S
C350 C352 1.415 . S
C351 C350 1.355 . S
C351 C353 1.419 . S
C352 C350 1.415 . S
C352 C357 1.425 . S
C352 C359 1.409 . S
C353 H345 0.930 . S
C353 C351 1.419 . S
C353 C354 1.362 . S
C354 H346 0.930 . S
C354 C353 1.362 . S
C354 C357 1.409 . S
C355 H347 0.930 . S
C355 C356 1.355 . S
C355 C357 1.415 . S
C356 C355 1.355 . S
C356 C358 1.419 . S
C357 C352 1.425 . S
C357 C354 1.409 . S
C357 C355 1.415 . S
C358 H348 0.930 . S
C358 C356 1.419 . S
C358 C359 1.362 . S
C359 H349 0.930 . S
C359 C352 1.409 . S
C359 C358 1.362 . S
C111 C10 1.547 . S
C116 C29 1.544 . S
C127 C44 1.541 1_455 S
C132 C23 1.541 . S
C143 C30 1.546 . S
C148 C5 1.544 1_655 S
C159 C49 1.544 . S
C164 C18 1.542 . S
C175 C83 1.548 . S
C180 C56 1.550 . S
C191 C75 1.538 . S
C196 C96 1.542 1_655 S
C207 C88 1.544 . S
C212 C55 1.547 1_455 S
C223 C101 1.549 . S
C228 C70 1.547 . S
C239 C3 1.508 . S
C244 C57 1.508 . S
C255 C16 1.519 . S
C260 C68 1.519 . S
C271 C31 1.507 . S
C276 C81 1.507 . S
C287 C94 1.513 . S
C292 C42 1.513 . S
C303 C4 1.522 . S
C308 C17 1.508 . S
C319 C43 1.506 . S
C324 C36 1.523 . S
C335 C69 1.518 . S
C340 C62 1.512 . S
C351 C82 1.512 . S
C356 C95 1.518 . S
