# Generated by pormake.
# Topology uky, (4)-cn, num edge types: 1
# Building blocks:
#     Node 0, Type 0, BuildingBlock: CEKHIL_clean_sbu_0, # of connection points: 4
#     Node 1, Type 0, BuildingBlock: CEKHIL_clean_sbu_0, # of connection points: 4
#     Node 2, Type 0, BuildingBlock: CEKHIL_clean_sbu_0, # of connection points: 4
#     Node 3, Type 0, BuildingBlock: CEKHIL_clean_sbu_0, # of connection points: 4
#     Node 4, Type 0, BuildingBlock: CEKHIL_clean_sbu_0, # of connection points: 4
#     Node 5, Type 0, BuildingBlock: CEKHIL_clean_sbu_0, # of connection points: 4
#     Node 6, Type 0, BuildingBlock: CEKHIL_clean_sbu_0, # of connection points: 4
#     Node 7, Type 0, BuildingBlock: CEKHIL_clean_sbu_0, # of connection points: 4
#     Node 8, Type 0, BuildingBlock: CEKHIL_clean_sbu_0, # of connection points: 4
#     Node 9, Type 0, BuildingBlock: CEKHIL_clean_sbu_0, # of connection points: 4
#     Node 10, Type 0, BuildingBlock: CEKHIL_clean_sbu_0, # of connection points: 4
#     Node 11, Type 0, BuildingBlock: CEKHIL_clean_sbu_0, # of connection points: 4
#     Node 12, Type 0, BuildingBlock: CEKHIL_clean_sbu_0, # of connection points: 4
#     Node 13, Type 0, BuildingBlock: CEKHIL_clean_sbu_0, # of connection points: 4
#     Node 14, Type 0, BuildingBlock: CEKHIL_clean_sbu_0, # of connection points: 4
#     Node 15, Type 0, BuildingBlock: CEKHIL_clean_sbu_0, # of connection points: 4
#     Node 16, Type 0, BuildingBlock: CEKHIL_clean_sbu_0, # of connection points: 4
#     Node 17, Type 0, BuildingBlock: CEKHIL_clean_sbu_0, # of connection points: 4
#     Node 18, Type 0, BuildingBlock: CEKHIL_clean_sbu_0, # of connection points: 4
#     Node 19, Type 0, BuildingBlock: CEKHIL_clean_sbu_0, # of connection points: 4
#     Node 20, Type 0, BuildingBlock: CEKHIL_clean_sbu_0, # of connection points: 4
#     Node 21, Type 0, BuildingBlock: CEKHIL_clean_sbu_0, # of connection points: 4
#     Node 22, Type 0, BuildingBlock: CEKHIL_clean_sbu_0, # of connection points: 4
#     Node 23, Type 0, BuildingBlock: CEKHIL_clean_sbu_0, # of connection points: 4
#     Node 24, Type 0, BuildingBlock: CEKHIL_clean_sbu_0, # of connection points: 4
#     Node 25, Type 0, BuildingBlock: CEKHIL_clean_sbu_0, # of connection points: 4
#     Node 26, Type 0, BuildingBlock: CEKHIL_clean_sbu_0, # of connection points: 4
#     Node 27, Type 0, BuildingBlock: CEKHIL_clean_sbu_0, # of connection points: 4
#     Node 28, Type 0, BuildingBlock: CEKHIL_clean_sbu_0, # of connection points: 4
#     Node 29, Type 0, BuildingBlock: CEKHIL_clean_sbu_0, # of connection points: 4
#     Node 30, Type 0, BuildingBlock: CEKHIL_clean_sbu_0, # of connection points: 4
#     Node 31, Type 0, BuildingBlock: CEKHIL_clean_sbu_0, # of connection points: 4
#     Node 32, Type 0, BuildingBlock: CEKHIL_clean_sbu_0, # of connection points: 4
#     Node 33, Type 0, BuildingBlock: CEKHIL_clean_sbu_0, # of connection points: 4
#     Node 34, Type 0, BuildingBlock: CEKHIL_clean_sbu_0, # of connection points: 4
#     Node 35, Type 0, BuildingBlock: CEKHIL_clean_sbu_0, # of connection points: 4
#     Node 36, Type 0, BuildingBlock: CEKHIL_clean_sbu_0, # of connection points: 4
#     Node 37, Type 0, BuildingBlock: CEKHIL_clean_sbu_0, # of connection points: 4
#     Node 38, Type 0, BuildingBlock: CEKHIL_clean_sbu_0, # of connection points: 4
#     Node 39, Type 0, BuildingBlock: CEKHIL_clean_sbu_0, # of connection points: 4
#     Node 40, Type 0, BuildingBlock: CEKHIL_clean_sbu_0, # of connection points: 4
#     Node 41, Type 0, BuildingBlock: CEKHIL_clean_sbu_0, # of connection points: 4
#     Node 42, Type 0, BuildingBlock: CEKHIL_clean_sbu_0, # of connection points: 4
#     Node 43, Type 0, BuildingBlock: CEKHIL_clean_sbu_0, # of connection points: 4
#     Node 44, Type 0, BuildingBlock: CEKHIL_clean_sbu_0, # of connection points: 4
#     Node 45, Type 0, BuildingBlock: CEKHIL_clean_sbu_0, # of connection points: 4
#     Node 46, Type 0, BuildingBlock: CEKHIL_clean_sbu_0, # of connection points: 4
#     Node 47, Type 0, BuildingBlock: CEKHIL_clean_sbu_0, # of connection points: 4
#     Edge 48, Type (0, 0), BuildingBlock: AJUNOK_clean_linker_0, # of connection points: 2
#     Edge 49, Type (0, 0), BuildingBlock: AJUNOK_clean_linker_0, # of connection points: 2
#     Edge 50, Type (0, 0), BuildingBlock: AJUNOK_clean_linker_0, # of connection points: 2
#     Edge 51, Type (0, 0), BuildingBlock: AJUNOK_clean_linker_0, # of connection points: 2
#     Edge 52, Type (0, 0), BuildingBlock: AJUNOK_clean_linker_0, # of connection points: 2
#     Edge 53, Type (0, 0), BuildingBlock: AJUNOK_clean_linker_0, # of connection points: 2
#     Edge 54, Type (0, 0), BuildingBlock: AJUNOK_clean_linker_0, # of connection points: 2
#     Edge 55, Type (0, 0), BuildingBlock: AJUNOK_clean_linker_0, # of connection points: 2
#     Edge 56, Type (0, 0), BuildingBlock: AJUNOK_clean_linker_0, # of connection points: 2
#     Edge 57, Type (0, 0), BuildingBlock: AJUNOK_clean_linker_0, # of connection points: 2
#     Edge 58, Type (0, 0), BuildingBlock: AJUNOK_clean_linker_0, # of connection points: 2
#     Edge 59, Type (0, 0), BuildingBlock: AJUNOK_clean_linker_0, # of connection points: 2
#     Edge 60, Type (0, 0), BuildingBlock: AJUNOK_clean_linker_0, # of connection points: 2
#     Edge 61, Type (0, 0), BuildingBlock: AJUNOK_clean_linker_0, # of connection points: 2
#     Edge 62, Type (0, 0), BuildingBlock: AJUNOK_clean_linker_0, # of connection points: 2
#     Edge 63, Type (0, 0), BuildingBlock: AJUNOK_clean_linker_0, # of connection points: 2
#     Edge 64, Type (0, 0), BuildingBlock: AJUNOK_clean_linker_0, # of connection points: 2
#     Edge 65, Type (0, 0), BuildingBlock: AJUNOK_clean_linker_0, # of connection points: 2
#     Edge 66, Type (0, 0), BuildingBlock: AJUNOK_clean_linker_0, # of connection points: 2
#     Edge 67, Type (0, 0), BuildingBlock: AJUNOK_clean_linker_0, # of connection points: 2
#     Edge 68, Type (0, 0), BuildingBlock: AJUNOK_clean_linker_0, # of connection points: 2
#     Edge 69, Type (0, 0), BuildingBlock: AJUNOK_clean_linker_0, # of connection points: 2
#     Edge 70, Type (0, 0), BuildingBlock: AJUNOK_clean_linker_0, # of connection points: 2
#     Edge 71, Type (0, 0), BuildingBlock: AJUNOK_clean_linker_0, # of connection points: 2
#     Edge 72, Type (0, 0), BuildingBlock: AJUNOK_clean_linker_0, # of connection points: 2
#     Edge 73, Type (0, 0), BuildingBlock: AJUNOK_clean_linker_0, # of connection points: 2
#     Edge 74, Type (0, 0), BuildingBlock: AJUNOK_clean_linker_0, # of connection points: 2
#     Edge 75, Type (0, 0), BuildingBlock: AJUNOK_clean_linker_0, # of connection points: 2
#     Edge 76, Type (0, 0), BuildingBlock: AJUNOK_clean_linker_0, # of connection points: 2
#     Edge 77, Type (0, 0), BuildingBlock: AJUNOK_clean_linker_0, # of connection points: 2
#     Edge 78, Type (0, 0), BuildingBlock: AJUNOK_clean_linker_0, # of connection points: 2
#     Edge 79, Type (0, 0), BuildingBlock: AJUNOK_clean_linker_0, # of connection points: 2
#     Edge 80, Type (0, 0), BuildingBlock: AJUNOK_clean_linker_0, # of connection points: 2
#     Edge 81, Type (0, 0), BuildingBlock: AJUNOK_clean_linker_0, # of connection points: 2
#     Edge 82, Type (0, 0), BuildingBlock: AJUNOK_clean_linker_0, # of connection points: 2
#     Edge 83, Type (0, 0), BuildingBlock: AJUNOK_clean_linker_0, # of connection points: 2
#     Edge 84, Type (0, 0), BuildingBlock: AJUNOK_clean_linker_0, # of connection points: 2
#     Edge 85, Type (0, 0), BuildingBlock: AJUNOK_clean_linker_0, # of connection points: 2
#     Edge 86, Type (0, 0), BuildingBlock: AJUNOK_clean_linker_0, # of connection points: 2
#     Edge 87, Type (0, 0), BuildingBlock: AJUNOK_clean_linker_0, # of connection points: 2
#     Edge 88, Type (0, 0), BuildingBlock: AJUNOK_clean_linker_0, # of connection points: 2
#     Edge 89, Type (0, 0), BuildingBlock: AJUNOK_clean_linker_0, # of connection points: 2
#     Edge 90, Type (0, 0), BuildingBlock: AJUNOK_clean_linker_0, # of connection points: 2
#     Edge 91, Type (0, 0), BuildingBlock: AJUNOK_clean_linker_0, # of connection points: 2
#     Edge 92, Type (0, 0), BuildingBlock: AJUNOK_clean_linker_0, # of connection points: 2
#     Edge 93, Type (0, 0), BuildingBlock: AJUNOK_clean_linker_0, # of connection points: 2
#     Edge 94, Type (0, 0), BuildingBlock: AJUNOK_clean_linker_0, # of connection points: 2
#     Edge 95, Type (0, 0), BuildingBlock: AJUNOK_clean_linker_0, # of connection points: 2
#     Edge 96, Type (0, 0), BuildingBlock: AJUNOK_clean_linker_0, # of connection points: 2
#     Edge 97, Type (0, 0), BuildingBlock: AJUNOK_clean_linker_0, # of connection points: 2
#     Edge 98, Type (0, 0), BuildingBlock: AJUNOK_clean_linker_0, # of connection points: 2
#     Edge 99, Type (0, 0), BuildingBlock: AJUNOK_clean_linker_0, # of connection points: 2
#     Edge 100, Type (0, 0), BuildingBlock: AJUNOK_clean_linker_0, # of connection points: 2
#     Edge 101, Type (0, 0), BuildingBlock: AJUNOK_clean_linker_0, # of connection points: 2
#     Edge 102, Type (0, 0), BuildingBlock: AJUNOK_clean_linker_0, # of connection points: 2
#     Edge 103, Type (0, 0), BuildingBlock: AJUNOK_clean_linker_0, # of connection points: 2
#     Edge 104, Type (0, 0), BuildingBlock: AJUNOK_clean_linker_0, # of connection points: 2
#     Edge 105, Type (0, 0), BuildingBlock: AJUNOK_clean_linker_0, # of connection points: 2
#     Edge 106, Type (0, 0), BuildingBlock: AJUNOK_clean_linker_0, # of connection points: 2
#     Edge 107, Type (0, 0), BuildingBlock: AJUNOK_clean_linker_0, # of connection points: 2
#     Edge 108, Type (0, 0), BuildingBlock: AJUNOK_clean_linker_0, # of connection points: 2
#     Edge 109, Type (0, 0), BuildingBlock: AJUNOK_clean_linker_0, # of connection points: 2
#     Edge 110, Type (0, 0), BuildingBlock: AJUNOK_clean_linker_0, # of connection points: 2
#     Edge 111, Type (0, 0), BuildingBlock: AJUNOK_clean_linker_0, # of connection points: 2
#     Edge 112, Type (0, 0), BuildingBlock: AJUNOK_clean_linker_0, # of connection points: 2
#     Edge 113, Type (0, 0), BuildingBlock: AJUNOK_clean_linker_0, # of connection points: 2
#     Edge 114, Type (0, 0), BuildingBlock: AJUNOK_clean_linker_0, # of connection points: 2
#     Edge 115, Type (0, 0), BuildingBlock: AJUNOK_clean_linker_0, # of connection points: 2
#     Edge 116, Type (0, 0), BuildingBlock: AJUNOK_clean_linker_0, # of connection points: 2
#     Edge 117, Type (0, 0), BuildingBlock: AJUNOK_clean_linker_0, # of connection points: 2
#     Edge 118, Type (0, 0), BuildingBlock: AJUNOK_clean_linker_0, # of connection points: 2
#     Edge 119, Type (0, 0), BuildingBlock: AJUNOK_clean_linker_0, # of connection points: 2
#     Edge 120, Type (0, 0), BuildingBlock: AJUNOK_clean_linker_0, # of connection points: 2
#     Edge 121, Type (0, 0), BuildingBlock: AJUNOK_clean_linker_0, # of connection points: 2
#     Edge 122, Type (0, 0), BuildingBlock: AJUNOK_clean_linker_0, # of connection points: 2
#     Edge 123, Type (0, 0), BuildingBlock: AJUNOK_clean_linker_0, # of connection points: 2
#     Edge 124, Type (0, 0), BuildingBlock: AJUNOK_clean_linker_0, # of connection points: 2
#     Edge 125, Type (0, 0), BuildingBlock: AJUNOK_clean_linker_0, # of connection points: 2
#     Edge 126, Type (0, 0), BuildingBlock: AJUNOK_clean_linker_0, # of connection points: 2
#     Edge 127, Type (0, 0), BuildingBlock: AJUNOK_clean_linker_0, # of connection points: 2
#     Edge 128, Type (0, 0), BuildingBlock: AJUNOK_clean_linker_0, # of connection points: 2
#     Edge 129, Type (0, 0), BuildingBlock: AJUNOK_clean_linker_0, # of connection points: 2
#     Edge 130, Type (0, 0), BuildingBlock: AJUNOK_clean_linker_0, # of connection points: 2
#     Edge 131, Type (0, 0), BuildingBlock: AJUNOK_clean_linker_0, # of connection points: 2
#     Edge 132, Type (0, 0), BuildingBlock: AJUNOK_clean_linker_0, # of connection points: 2
#     Edge 133, Type (0, 0), BuildingBlock: AJUNOK_clean_linker_0, # of connection points: 2
#     Edge 134, Type (0, 0), BuildingBlock: AJUNOK_clean_linker_0, # of connection points: 2
#     Edge 135, Type (0, 0), BuildingBlock: AJUNOK_clean_linker_0, # of connection points: 2
#     Edge 136, Type (0, 0), BuildingBlock: AJUNOK_clean_linker_0, # of connection points: 2
#     Edge 137, Type (0, 0), BuildingBlock: AJUNOK_clean_linker_0, # of connection points: 2
#     Edge 138, Type (0, 0), BuildingBlock: AJUNOK_clean_linker_0, # of connection points: 2
#     Edge 139, Type (0, 0), BuildingBlock: AJUNOK_clean_linker_0, # of connection points: 2
#     Edge 140, Type (0, 0), BuildingBlock: AJUNOK_clean_linker_0, # of connection points: 2
#     Edge 141, Type (0, 0), BuildingBlock: AJUNOK_clean_linker_0, # of connection points: 2
#     Edge 142, Type (0, 0), BuildingBlock: AJUNOK_clean_linker_0, # of connection points: 2
#     Edge 143, Type (0, 0), BuildingBlock: AJUNOK_clean_linker_0, # of connection points: 2
# Relax obj value: 0.315
# Max RMSD: 0.251
# Mean RMSD: 0.251
data_MOF--net-uky--node1-CEKHIL_clean_sbu_0--edge1-AJUNOK_clean_linker_0
_symmetry_space_group_name_H-M    P1
_symmetry_Int_Tables_number       1
_symmetry_cell_setting            triclinic
loop_
_symmetry_equiv_pos_as_xyz
'x, y, z'
_cell_length_a     45.001218
_cell_length_b     44.929483
_cell_length_c     44.839658
_cell_angle_alpha  89.869175
_cell_angle_beta   89.828226
_cell_angle_gamma 89.948898
loop_
_atom_site_label
_atom_site_type_symbol
_atom_site_fract_x
_atom_site_fract_y
_atom_site_fract_z
_atom_type_partial_charge
Co0 Co 0.22182 0.22674 0.37229 0.0
O1 O 0.18203 0.23537 0.38568 0.0
O2 O 0.19937 0.19054 0.37434 0.0
C3 C 0.22682 0.26336 0.3382 0.0
O4 O 0.26049 0.20873 0.35715 0.0
Co5 Co 0.27283 0.27137 0.38459 0.0
O6 O 0.29778 0.24121 0.36461 0.0
C7 C 0.24911 0.23624 0.43388 0.0
C8 C 0.17763 0.20678 0.3843 0.0
C9 C 0.28795 0.2163 0.35552 0.0
O10 O 0.23385 0.22096 0.41525 0.0
O11 O 0.26467 0.25885 0.42652 0.0
O12 O 0.21247 0.2391 0.33177 0.0
O13 O 0.23424 0.2663 0.3659 0.0
Co14 Co 0.98725 0.96879 0.64054 0.0
O15 O 0.96916 0.93587 0.66149 0.0
O16 O 0.01704 0.93988 0.6499 0.0
C17 C 0.95355 0.9728 0.60388 0.0
O18 O 0.01421 -0.00253 0.61803 0.0
Co19 Co 0.95582 0.02998 0.63486 0.0
O20 O 0.98875 0.03918 0.60696 0.0
C21 C 0.97854 0.01018 0.69305 0.0
C22 C -0.00427 0.92449 0.66193 0.0
C23 C 0.01169 0.0227 0.60478 0.0
O24 O -0.00639 0.98962 0.67992 0.0
O25 O 0.96008 0.0269 0.67923 0.0
O26 O 0.97437 0.95278 0.60242 0.0
O27 O 0.95205 0.98744 0.62862 0.0
Co28 Co 0.25443 0.78673 0.8715 0.0
O29 O 0.2957 0.7904 0.88174 0.0
O30 O 0.26682 0.82709 0.86535 0.0
C31 C 0.25666 0.74395 0.84528 0.0
O32 O 0.21183 0.79179 0.85755 0.0
Co33 Co 0.2162 0.73509 0.89632 0.0
O34 O 0.18486 0.75164 0.87049 0.0
C35 C 0.23446 0.78259 0.93633 0.0
C36 C 0.29226 0.8186 0.87604 0.0
C37 C 0.18763 0.77667 0.85746 0.0
O38 O 0.24394 0.7976 0.9139 0.0
O39 O 0.22452 0.75607 0.93442 0.0
O40 O 0.26422 0.76913 0.83299 0.0
O41 O 0.2518 0.74502 0.8737 0.0
Co42 Co 0.49808 0.01731 0.15454 0.0
O43 O 0.51731 0.04784 0.17814 0.0
O44 O 0.47034 0.04811 0.16295 0.0
C45 C 0.53392 0.01183 0.11996 0.0
O46 O 0.47 0.99293 0.12901 0.0
Co47 Co 0.5225 0.95349 0.14665 0.0
O48 O 0.49029 0.94885 0.11704 0.0
C49 C 0.49686 0.97134 0.2044 0.0
C50 C 0.4918 0.06145 0.17671 0.0
C51 C 0.46979 0.96824 0.11479 0.0
O52 O 0.48676 -0.00469 0.19229 0.0
O53 O 0.51346 0.95287 0.19042 0.0
O54 O 0.5152 0.03381 0.11829 0.0
O55 O 0.53217 -0.00439 0.14378 0.0
Co56 Co 0.21041 0.75934 0.1091 0.0
O57 O 0.17912 0.75053 0.08146 0.0
O58 O 0.17843 0.78736 0.1143 0.0
C59 C 0.21884 0.71241 0.12444 0.0
O60 O 0.2378 0.77463 0.1417 0.0
Co61 Co 0.2743 0.73494 0.09856 0.0
O62 O 0.2805 0.7484 0.14003 0.0
C63 C 0.24945 0.78075 0.05883 0.0
C64 C 0.16549 0.77352 0.09245 0.0
C65 C 0.26292 0.76664 0.15273 0.0
O66 O 0.22894 0.78596 0.07813 0.0
O67 O 0.2685 0.75979 0.06178 0.0
O68 O 0.19716 0.72777 0.13601 0.0
O69 O 0.23247 0.72489 0.10236 0.0
Co70 Co 0.48848 0.92727 0.39258 0.0
O71 O 0.48754 0.88576 0.38177 0.0
O72 O 0.44813 0.91347 0.39238 0.0
C73 C 0.52594 0.9258 0.42562 0.0
O74 O 0.48001 0.96954 0.40614 0.0
Co75 Co 0.54329 0.96748 0.37944 0.0
O76 O 0.52155 -0.0027 0.40364 0.0
C77 C 0.50248 0.95236 0.33071 0.0
C78 C 0.4588 0.88787 0.38418 0.0
C79 C 0.49439 -0.00625 0.41086 0.0
O80 O 0.48493 0.939 0.34907 0.0
O81 O 0.52751 0.9635 0.33805 0.0
O82 O 0.49933 0.91763 0.43358 0.0
O83 O 0.52964 0.93064 0.39748 0.0
Co84 Co 0.27875 0.23298 0.6178 0.0
O85 O 0.31593 0.23917 0.59722 0.0
O86 O 0.3014 0.19696 0.61863 0.0
C87 C 0.27747 0.27485 0.6452 0.0
O88 O 0.24367 0.21746 0.64167 0.0
Co89 Co 0.22394 0.27432 0.60917 0.0
O90 O 0.20528 0.24956 0.64057 0.0
C91 C 0.2435 0.23517 0.56061 0.0
C92 C 0.32108 0.2112 0.60295 0.0
C93 C 0.21761 0.22577 0.64981 0.0
O94 O 0.26063 0.22102 0.57861 0.0
O95 O 0.22883 0.25844 0.56787 0.0
O96 O 0.29342 0.25225 0.65389 0.0
O97 O 0.26599 0.2725 0.61897 0.0
Co98 Co 0.00261 0.01889 0.88389 0.0
O99 O 0.01197 0.0602 0.87833 0.0
O100 O 0.0449 0.0234 0.87811 0.0
C101 C 0.97147 0.02312 0.92282 0.0
O102 O 0.00125 0.97416 0.891 0.0
Co103 Co 0.93809 -0.00347 0.87398 0.0
O104 O 0.95321 0.96125 0.89602 0.0
C105 C 0.97456 0.01268 0.82236 0.0
C106 C 0.0394 0.05171 0.8754 0.0
C107 C 0.98084 0.95566 0.89898 0.0
O108 O -0.00248 0.01398 0.83934 0.0
O109 O 0.94816 0.00892 0.83228 0.0
O110 O 5e-05 0.02397 0.92707 0.0
O111 O 0.96314 0.02439 0.89531 0.0
Co112 Co 0.41531 0.19953 0.25156 0.0
O113 O 0.44684 0.17123 0.2586 0.0
O114 O 0.43016 0.1853 0.21428 0.0
C115 C 0.38387 0.18102 0.28583 0.0
O116 O 0.38298 0.22596 0.23443 0.0
Co117 Co 0.39065 0.24322 0.29869 0.0
O118 O 0.35578 0.24549 0.27148 0.0
C119 C 0.44922 0.25427 0.27055 0.0
C120 C 0.44797 0.16858 0.22975 0.0
C121 C 0.35944 0.2389 0.2441 0.0
O122 O 0.44461 0.23325 0.25167 0.0
O123 O 0.43153 0.26013 0.2922 0.0
O124 O 0.38542 0.16886 0.25957 0.0
O125 O 0.40228 0.20239 0.29081 0.0
Co126 Co 0.0563 0.12489 0.48573 0.0
O127 O 0.09262 0.14744 0.48391 0.0
O128 O 0.06664 0.13202 0.44477 0.0
C129 C 0.07049 0.0918 0.5208 0.0
O130 O 0.019 0.10127 0.47752 0.0
Co131 Co 0.01721 0.11816 0.54264 0.0
O132 O -0.00344 0.08647 0.51979 0.0
C133 C 0.02037 0.17563 0.51025 0.0
C134 C 0.0893 0.14648 0.45511 0.0
C135 C -0.00055 0.0859 0.49155 0.0
O136 O 0.0332 0.16314 0.48784 0.0
O137 O 0.01466 0.16199 0.53472 0.0
O138 O 0.07793 0.08746 0.49304 0.0
O139 O 0.05706 0.11647 0.52625 0.0
Co140 Co 0.05941 0.78095 0.74287 0.0
O141 O 0.03042 0.81225 0.74695 0.0
O142 O 0.0499 0.79661 0.70427 0.0
C143 C 0.08915 0.79649 0.7798 0.0
O144 O 0.0905 0.75104 0.72923 0.0
Co145 Co 0.07416 0.73574 0.79306 0.0
O146 O 0.11131 0.73014 0.76959 0.0
C147 C 0.0185 0.72971 0.75845 0.0
C148 C 0.03254 0.81511 0.71817 0.0
C149 C 0.11141 0.73628 0.74187 0.0
O150 O 0.02695 0.75035 0.74035 0.0
O151 O 0.03324 0.72221 0.7817 0.0
O152 O 0.09115 0.80859 0.75349 0.0
O153 O 0.06816 0.77727 0.78322 0.0
Co154 Co 0.40832 0.89135 0.98293 0.0
O155 O 0.36764 0.88018 0.97669 0.0
O156 O 0.39972 0.8927 0.94101 0.0
C157 C 0.40044 0.92126 0.0226 0.0
O158 O 0.45101 0.90516 0.97994 0.0
Co159 Co 0.44268 0.87805 0.04171 0.0
O160 O 0.4725 0.90636 0.02513 0.0
C161 C 0.42781 0.82978 -0.00027 0.0
C162 C 0.37336 0.8835 0.94843 0.0
C163 C 0.47236 0.91235 -0.00265 0.0
O164 O 0.4208 0.84849 0.97922 0.0
O165 O 0.43414 0.83707 0.02653 0.0
O166 O 0.39655 0.93165 -0.00429 0.0
O167 O 0.40654 0.89339 0.02417 0.0
Co168 Co 0.37488 0.78148 0.27569 0.0
O169 O 0.38602 0.81967 0.2906 0.0
O170 O 0.38464 0.77811 0.31757 0.0
C171 C 0.33504 0.79691 0.24979 0.0
O172 O 0.36296 0.7386 0.26794 0.0
Co173 Co 0.37548 0.76983 0.20722 0.0
O174 O 0.35757 0.73103 0.21857 0.0
C175 C 0.43167 0.77346 0.24006 0.0
C176 C 0.39021 0.8065 0.316 0.0
C177 C 0.35578 0.72224 0.24557 0.0
O178 O 0.41754 0.77252 0.265 0.0
O179 O 0.41885 0.7758 0.21474 0.0
O180 O 0.33258 0.79183 0.27827 0.0
O181 O 0.36154 0.79532 0.23904 0.0
Co182 Co 0.45109 0.12424 0.51753 0.0
O183 O 0.41357 0.14416 0.51266 0.0
O184 O 0.43291 0.12974 0.55588 0.0
C185 C 0.44684 0.09062 0.4806 0.0
O186 O 0.48836 0.10311 0.53173 0.0
Co187 Co 0.49932 0.12578 0.46755 0.0
O188 O 0.51886 0.0953 0.49262 0.0
C189 C 0.48953 0.17853 0.50505 0.0
C190 C 0.41177 0.14334 0.54162 0.0
C191 C 0.51152 0.09143 0.51978 0.0
O192 O 0.47087 0.16409 0.52121 0.0
O193 O 0.50209 0.16789 0.48177 0.0
O194 O 0.43412 0.08583 0.50629 0.0
O195 O 0.45832 0.11671 0.47724 0.0
Co196 Co 0.11554 0.17419 0.77813 0.0
O197 O 0.10449 0.13331 0.78357 0.0
O198 O 0.11646 0.16436 0.82004 0.0
C199 C 0.14649 0.16784 0.73906 0.0
O200 O 0.12925 0.2173 0.78079 0.0
Co201 Co 0.10009 0.20712 0.71856 0.0
O202 O 0.12342 0.23994 0.73621 0.0
C203 C 0.05363 0.19722 0.76378 0.0
C204 C 0.1075 0.13806 0.81195 0.0
C205 C 0.13201 0.23986 0.76326 0.0
O206 O 0.07263 0.18685 0.78246 0.0
O207 O 0.05978 0.20425 0.73683 0.0
O208 O 0.15591 0.1628 0.76604 0.0
O209 O 0.11843 0.17277 0.73678 0.0
Co210 Co 0.0107 0.83426 0.02622 0.0
O211 O 0.04793 0.81625 0.01531 0.0
O212 O 0.03659 0.83323 0.06027 0.0
C213 C 0.00669 0.86432 0.98609 0.0
O214 O 0.97559 0.85545 0.04594 0.0
Co215 Co 0.95444 0.82478 0.98794 0.0
O216 O 0.93557 0.85272 0.01605 0.0
C217 C 0.97837 0.77524 0.02294 0.0
C218 C 0.0557 0.82011 0.04291 0.0
C219 C 0.94842 0.86167 0.03962 0.0
O220 O -0.0048 0.7935 0.037 0.0
O221 O 0.96198 0.78292 0.001 0.0
O222 O 0.02303 0.87199 0.00867 0.0
O223 O -0.00437 0.8378 0.98731 0.0
Co224 Co 0.24817 0.33884 0.16893 0.0
O225 O 0.23841 0.3427 0.12716 0.0
O226 O 0.20638 0.34652 0.16452 0.0
C227 C 0.27691 0.29783 0.16709 0.0
O228 O 0.24861 0.33457 0.21397 0.0
Co229 Co 0.31292 0.34428 0.19225 0.0
O230 O 0.29548 0.32874 0.23002 0.0
C231 C 0.28091 0.39802 0.17356 0.0
C232 C 0.2112 0.34722 0.13595 0.0
C233 C 0.26749 0.32835 0.23452 0.0
O234 O 0.25652 0.3831 0.17178 0.0
O235 O 0.30621 0.38599 0.17836 0.0
O236 O 0.24811 0.29532 0.16644 0.0
O237 O 0.28688 0.32459 0.16423 0.0
Co238 Co 0.73547 0.1306 0.81247 0.0
O239 O 0.72975 0.1152 0.8522 0.0
O240 O 0.69522 0.11702 0.81703 0.0
C241 C 0.76058 0.17233 0.82413 0.0
O242 O 0.73189 0.14586 0.76996 0.0
Co243 Co 0.79838 0.13741 0.78498 0.0
O244 O 0.77708 0.15588 0.75084 0.0
C245 C 0.77265 0.07783 0.79097 0.0
C246 C 0.70281 0.10906 0.84382 0.0
C247 C 0.74882 0.15579 0.74909 0.0
O248 O 0.74757 0.08967 0.79818 0.0
O249 O 0.79649 0.09298 0.78768 0.0
O250 O 0.73171 0.17185 0.82618 0.0
O251 O 0.77298 0.14705 0.81867 0.0
Co252 Co 0.10772 0.43859 0.02932 0.0
O253 O 0.11631 0.42616 0.06927 0.0
O254 O 0.1225 0.39815 0.02906 0.0
C255 C 0.06391 0.46086 0.03866 0.0
O256 O 0.10012 0.44384 0.98484 0.0
Co257 Co 0.10371 0.50641 0.01546 0.0
O258 O 0.09309 0.49256 0.97481 0.0
C259 C 0.16152 0.47926 0.02728 0.0
C260 C 0.12567 0.40139 0.05774 0.0
C261 C 0.09425 0.46536 0.96678 0.0
O262 O 0.1498 0.45333 0.02468 0.0
O263 O 0.14631 0.50331 0.02773 0.0
O264 O 0.06484 0.43212 0.03499 0.0
O265 O 0.08927 0.47395 0.03991 0.0
Co266 Co 0.7625 0.87841 0.27453 0.0
O267 O 0.76081 0.89332 0.31471 0.0
O268 O 0.80212 0.88144 0.29033 0.0
C269 C 0.72535 0.84509 0.27812 0.0
O270 O 0.77312 0.8607 0.23392 0.0
Co271 Co 0.70935 0.8868 0.23099 0.0
O272 O 0.73232 0.85982 0.20491 0.0
C273 C 0.74741 0.93777 0.24508 0.0
C274 C 0.78965 0.89181 0.31436 0.0
C275 C 0.75939 0.85326 0.20991 0.0
O276 O 0.76551 0.92066 0.25918 0.0
O277 O 0.72289 0.92893 0.23387 0.0
O278 O 0.75168 0.83843 0.28809 0.0
O279 O 0.72183 0.87237 0.26981 0.0
Co280 Co 0.83458 0.97817 0.04463 0.0
O281 O 0.80535 0.98442 0.07563 0.0
O282 O 0.82596 0.0198 0.04797 0.0
C283 C 0.86376 0.94601 0.06983 0.0
O284 O 0.86554 0.98213 0.01208 0.0
Co285 Co 0.8483 0.91743 0.01499 0.0
O286 O 0.88496 0.93766 0.00036 0.0
C287 C 0.79279 0.94961 0.00051 0.0
C288 C 0.80764 0.0126 0.06918 0.0
C289 C 0.88532 0.96599 -0.00064 0.0
O290 O 0.80206 0.9728 0.01449 0.0
O291 O 0.80683 0.92479 0.00022 0.0
O292 O 0.86653 0.97452 0.07416 0.0
O293 O 0.84241 0.93822 0.05245 0.0
Co294 Co 0.22929 0.62337 0.7033 0.0
O295 O 0.23583 0.6068 0.66416 0.0
O296 O 0.27083 0.61486 0.698 0.0
C297 C 0.19852 0.66083 0.6904 0.0
O298 O 0.23261 0.64171 0.7444 0.0
Co299 Co 0.16727 0.62539 0.73384 0.0
O300 O 0.18731 0.65156 0.76321 0.0
C301 C 0.19879 0.56833 0.72833 0.0
C302 C 0.26368 0.60518 0.67173 0.0
C303 C 0.21554 0.65357 0.76404 0.0
O304 O 0.22263 0.58205 0.72019 0.0
O305 O 0.17384 0.58148 0.73205 0.0
O306 O 0.22712 0.66393 0.68701 0.0
O307 O 0.18979 0.6346 0.69803 0.0
Co308 Co 0.14984 0.50497 0.4283 0.0
O309 O 0.17705 0.49087 0.39806 0.0
O310 O 0.15654 0.5357 0.39896 0.0
C311 C 0.12195 0.46343 0.42891 0.0
O312 O 0.12004 0.52766 0.45449 0.0
Co313 Co 0.13945 0.47349 0.48921 0.0
O314 O 0.10194 0.49654 0.4893 0.0
C315 C 0.19424 0.50885 0.4786 0.0
C316 C 0.17374 0.51672 0.38547 0.0
C317 C 0.10065 0.52068 0.4745 0.0
O318 O 0.18465 0.51839 0.45323 0.0
O319 O 0.18021 0.4902 0.49504 0.0
O320 O 0.11693 0.48392 0.40898 0.0
O321 O 0.14381 0.46835 0.44663 0.0
Co322 Co 0.33376 0.49307 0.95653 0.0
O323 O 0.30862 0.49602 0.92207 0.0
O324 O 0.3286 0.45413 0.93935 0.0
C325 C 0.36243 0.53272 0.94617 0.0
O326 O 0.36194 0.48153 0.99007 0.0
Co327 Co 0.33692 0.54327 0.00401 0.0
O328 O 0.37516 0.52348 0.01383 0.0
C329 C 0.28513 0.50289 0.00285 0.0
C330 C 0.312 0.46744 0.91973 0.0
C331 C 0.37915 0.49614 0.00758 0.0
O332 O 0.29794 0.4867 0.98291 0.0
O333 O 0.29628 0.5272 0.01253 0.0
O334 O 0.368 0.50731 0.9334 0.0
O335 O 0.33852 0.53367 0.962 0.0
Co336 Co 0.67886 0.73763 0.86933 0.0
O337 O 0.64794 0.7511 0.89588 0.0
O338 O 0.6474 0.70865 0.87093 0.0
C339 C 0.68558 0.78136 0.84578 0.0
O340 O 0.7056 0.71634 0.83914 0.0
Co341 Co 0.74254 0.76475 0.86908 0.0
O342 O 0.74548 0.74507 0.82976 0.0
C343 C 0.72247 0.7264 0.91896 0.0
C344 C 0.63453 0.7262 0.89005 0.0
C345 C 0.72858 0.72331 0.82345 0.0
O346 O 0.69924 0.71835 0.90438 0.0
O347 O 0.74114 0.74569 0.90939 0.0
O348 O 0.66425 0.76372 0.83732 0.0
O349 O 0.70029 0.7728 0.86878 0.0
Co350 Co 0.49798 0.46478 0.12491 0.0
O351 O 0.50499 0.42505 0.13915 0.0
O352 O 0.5397 0.45968 0.13332 0.0
C353 C 0.46801 0.45285 0.0867 0.0
O354 O 0.49993 0.50714 0.10905 0.0
Co355 Co 0.43458 0.49241 0.12516 0.0
O356 O 0.4537 0.52522 0.10251 0.0
C357 C 0.46715 0.48598 0.18157 0.0
C358 C 0.53273 0.43272 0.14124 0.0
C359 C 0.48182 0.52728 0.0999 0.0
O360 O 0.49091 0.47898 0.16712 0.0
O361 O 0.44187 0.48938 0.169 0.0
O362 O 0.49671 0.45098 0.08353 0.0
O363 O 0.45871 0.45872 0.11323 0.0
Co364 Co 0.80621 0.25135 0.37215 0.0
O365 O 0.84364 0.24826 0.39239 0.0
O366 O 0.81718 0.28978 0.38731 0.0
C367 C 0.81945 0.22413 0.33218 0.0
O368 O 0.76812 0.26407 0.3516 0.0
Co369 Co 0.76727 0.19665 0.35664 0.0
O370 O 0.7486 0.22475 0.32791 0.0
C371 C 0.76957 0.21867 0.41874 0.0
C372 C 0.84082 0.27659 0.3974 0.0
C373 C 0.75029 0.25267 0.33248 0.0
O374 O 0.78423 0.24184 0.41029 0.0
O375 O 0.76253 0.19748 0.40108 0.0
O376 O 0.82654 0.25218 0.33328 0.0
O377 O 0.80685 0.21352 0.35573 0.0
Co378 Co 0.99141 0.5696 0.58652 0.0
O379 O 0.97815 0.60829 0.60015 0.0
O380 O 0.94994 0.56805 0.59631 0.0
C381 C 0.01829 0.58327 0.546 0.0
O382 O -0.00538 0.52727 0.57232 0.0
Co383 Co 0.05742 0.54961 0.58373 0.0
O384 O 0.04179 0.51358 0.56334 0.0
C385 C 0.02706 0.55283 0.64183 0.0
C386 C 0.95217 0.59588 0.60352 0.0
C387 C 0.01392 0.50874 0.56257 0.0
O388 O 0.00195 0.55731 0.62879 0.0
O389 O 0.05188 0.55198 0.62789 0.0
O390 O 0.98941 0.58202 0.54462 0.0
O391 O 0.02921 0.58034 0.5724 0.0
Co392 Co 0.71302 0.23997 0.60005 0.0
O393 O 0.67265 0.24113 0.5856 0.0
O394 O 0.70275 0.28012 0.5892 0.0
C395 C 0.70597 0.21111 0.64076 0.0
O396 O 0.75452 0.24847 0.61551 0.0
Co397 Co 0.74908 0.18107 0.60207 0.0
O398 O 0.77835 0.20534 0.62428 0.0
C399 C 0.73864 0.20991 0.54454 0.0
C400 C 0.67698 0.26951 0.58184 0.0
C401 C 0.77659 0.23359 0.62592 0.0
O402 O 0.72838 0.23291 0.55821 0.0
O403 O 0.74563 0.1858 0.55797 0.0
O404 O 0.69903 0.23923 0.64135 0.0
O405 O 0.71282 0.20084 0.61473 0.0
Co406 Co 0.01548 0.46519 0.81096 0.0
O407 O 0.01883 0.42924 0.78747 0.0
O408 O 0.97668 0.45158 0.79973 0.0
C409 C 0.04678 0.45212 0.84827 0.0
O410 O 0.00197 0.50032 0.83613 0.0
Co411 Co 0.0683 0.50769 0.82154 0.0
O412 O 0.04149 0.52715 0.85056 0.0
C413 C 0.03807 0.5092 0.7636 0.0
C414 C 0.98991 0.42922 0.78709 0.0
C415 C 0.01382 0.52138 0.85134 0.0
O416 O 0.01832 0.49094 0.7737 0.0
O417 O 0.061 0.51661 0.77859 0.0
O418 O 0.01977 0.44203 0.84746 0.0
O419 O 0.0551 0.46671 0.82474 0.0
Co420 Co 0.78738 0.72715 0.09438 0.0
O421 O 0.82257 0.72771 0.07016 0.0
O422 O 0.80351 0.68762 0.09203 0.0
C423 C 0.79653 0.76799 0.12206 0.0
O424 O 0.75213 0.71777 0.12109 0.0
Co425 Co 0.74126 0.77868 0.08978 0.0
O426 O 0.72085 0.75696 0.12228 0.0
C427 C 0.74464 0.73395 0.04219 0.0
C428 C 0.82319 0.69902 0.07405 0.0
C429 C 0.72872 0.73105 0.13068 0.0
O430 O 0.76342 0.71889 0.05751 0.0
O431 O 0.73452 0.75934 0.05017 0.0
O432 O 0.80868 0.74261 0.12906 0.0
O433 O 0.78249 0.76835 0.09701 0.0
Co434 Co 0.4945 0.54087 0.36301 0.0
O435 O 0.49375 0.58016 0.34607 0.0
O436 O 0.53422 0.5524 0.35221 0.0
C437 C 0.46461 0.54951 0.40217 0.0
O438 O 0.50438 0.50074 0.38136 0.0
Co439 Co 0.43691 0.50281 0.36727 0.0
O440 O 0.4619 0.47654 0.39243 0.0
C441 C 0.46653 0.5103 0.3092 0.0
C442 C 0.52232 0.57719 0.34315 0.0
C443 C 0.49006 0.47917 0.39356 0.0
O444 O 0.48872 0.52283 0.32215 0.0
O445 O 0.44269 0.50307 0.32304 0.0
O446 O 0.49247 0.55715 0.40332 0.0
O447 O 0.45536 0.54063 0.37649 0.0
Co448 Co 0.84142 0.67957 0.71118 0.0
O449 O 0.85294 0.64103 0.69644 0.0
O450 O 0.85406 0.68298 0.67033 0.0
C451 C 0.79912 0.66781 0.73541 0.0
O452 O 0.83106 0.72293 0.71782 0.0
Co453 Co 0.83978 0.69233 0.77918 0.0
O454 O 0.82654 0.73278 0.76682 0.0
C455 C 0.89722 0.68841 0.74884 0.0
C456 C 0.86042 0.6548 0.67197 0.0
C457 C 0.82569 0.74074 0.73953 0.0
O458 O 0.88358 0.68717 0.72379 0.0
O459 O 0.88372 0.68755 0.77397 0.0
O460 O 0.79896 0.67118 0.70654 0.0
O461 O 0.8251 0.66703 0.74744 0.0
Co462 Co 0.50085 0.65825 0.98812 0.0
O463 O 0.53545 0.68356 0.98874 0.0
O464 O 0.51561 0.66361 0.94819 0.0
C465 C 0.51302 0.62774 0.02633 0.0
O466 O 0.46669 0.63058 0.97799 0.0
Co467 Co 0.45681 0.65461 0.04188 0.0
O468 O 0.43798 0.62263 0.01847 0.0
C469 C 0.45575 0.70681 0.00196 0.0
C470 C 0.53607 0.6802 0.95994 0.0
C471 C 0.445 0.61766 0.99141 0.0
O472 O 0.47445 0.69443 0.98407 0.0
O473 O 0.44814 0.69554 0.02705 0.0
O474 O 0.52445 0.62358 -3e-05 0.0
O475 O 0.49786 0.65191 0.02928 0.0
Co476 Co 0.62574 0.31751 0.23794 0.0
O477 O 0.6145 0.35862 0.23286 0.0
O478 O 0.61484 0.32448 0.19718 0.0
C479 C 0.66713 0.32307 0.26516 0.0
O480 O 0.63694 0.27398 0.23374 0.0
Co481 Co 0.62583 0.28772 0.3004 0.0
O482 O 0.64317 0.25309 0.27892 0.0
C483 C 0.56909 0.29933 0.27095 0.0
C484 C 0.60889 0.35157 0.20532 0.0
C485 C 0.64426 0.25196 0.25053 0.0
O486 O 0.58325 0.30673 0.24716 0.0
O487 O 0.58205 0.29387 0.29572 0.0
O488 O 0.66797 0.32709 0.2364 0.0
O489 O 0.6409 0.3206 0.2766 0.0
Co490 Co 0.97378 0.35848 0.48194 0.0
O491 O 0.93376 0.34413 0.48689 0.0
O492 O 0.95841 0.3469 0.44391 0.0
C493 C 0.971 0.39943 0.51024 0.0
O494 O 0.01383 0.37353 0.4676 0.0
Co495 Co 0.01678 0.3605 0.53602 0.0
O496 O 0.04355 0.38071 0.50726 0.0
C497 C 0.00098 0.30323 0.51017 0.0
C498 C 0.93439 0.33957 0.45826 0.0
C499 C 0.03813 0.38257 0.47944 0.0
O500 O 0.98949 0.31691 0.48783 0.0
O501 O 0.01031 0.31665 0.53344 0.0
O502 O 0.96025 0.39958 0.48333 0.0
O503 O 0.9788 0.37364 0.52036 0.0
Co504 Co 0.89375 0.28389 0.74553 0.0
O505 O 0.92437 0.30995 0.73028 0.0
O506 O 0.90159 0.31502 0.77388 0.0
C507 C 0.86682 0.28139 0.70335 0.0
O508 O 0.86092 0.26251 0.76867 0.0
Co509 Co 0.88168 0.22116 0.71903 0.0
O510 O 0.84309 0.2258 0.73992 0.0
C511 C 0.93367 0.23083 0.75821 0.0
C512 C 0.92123 0.32478 0.75492 0.0
C513 C 0.84109 0.24291 0.76242 0.0
O514 O 0.92506 0.25758 0.76391 0.0
O515 O 0.92037 0.2137 0.73977 0.0
O516 O 0.86368 0.30394 0.72123 0.0
O517 O 0.88759 0.26289 0.71031 0.0
Co518 Co 0.94443 0.60205 0.9903 0.0
O519 O 0.91477 0.63143 0.98163 0.0
O520 O 0.913 0.5994 0.01928 0.0
C521 C 0.95187 0.5859 0.94347 0.0
O522 O 0.97017 0.56831 0.00598 0.0
Co523 Co 0.00857 0.60816 0.96503 0.0
O524 O 0.01156 0.56593 0.97777 0.0
C525 C 0.98601 0.65045 0.00972 0.0
C526 C 0.90163 0.62245 0.00588 0.0
C527 C -0.00623 0.55493 -0.00302 0.0
O528 O 0.96492 0.63225 0.01602 0.0
O529 O 0.00464 0.64599 0.98855 0.0
O530 O 0.92966 0.57549 0.95903 0.0
O531 O 0.96649 0.60722 0.95571 0.0
Co532 Co 0.60606 0.69952 0.24492 0.0
O533 O 0.58488 0.66257 0.24687 0.0
O534 O 0.5994 0.68907 0.28607 0.0
C535 C 0.63952 0.68646 0.21009 0.0
O536 O 0.62983 0.73734 0.25148 0.0
Co537 Co 0.60704 0.73652 0.18602 0.0
O538 O 0.63749 0.7601 0.20725 0.0
C539 C 0.5541 0.73843 0.22465 0.0
C540 C 0.58609 0.66565 0.27561 0.0
C541 C 0.64203 0.75751 0.23518 0.0
O542 O 0.56744 0.72258 0.2445 0.0
O543 O 0.5653 0.74413 0.19903 0.0
O544 O 0.64353 0.67855 0.23772 0.0
O545 O 0.61401 0.69812 0.20426 0.0
Co546 Co 0.54145 0.36012 0.51111 0.0
O547 O 0.57849 0.34027 0.50253 0.0
O548 O 0.56427 0.3561 0.5472 0.0
C549 C 0.54133 0.39117 0.47157 0.0
O550 O 0.50592 0.38263 0.52854 0.0
Co551 Co 0.4877 0.35575 0.4675 0.0
O552 O 0.46932 0.38532 0.4944 0.0
C553 C 0.50425 0.3043 0.50441 0.0
C554 C 0.58377 0.34218 0.53092 0.0
C555 C 0.48038 0.392 0.51961 0.0
O556 O 0.52264 0.32027 0.51927 0.0
O557 O 0.48978 0.31371 0.48179 0.0
O558 O 0.55668 0.3979 0.49521 0.0
O559 O 0.52948 0.36512 0.47179 0.0
Co560 Co 0.76031 0.90253 0.71888 0.0
O561 O 0.76988 0.92213 0.68176 0.0
O562 O 0.72452 0.91697 0.70094 0.0
C563 C 0.78812 0.86132 0.71324 0.0
O564 O 0.74126 0.88222 0.75453 0.0
Co565 Co 0.8082 0.89337 0.76724 0.0
O566 O 0.7774 0.86796 0.78604 0.0
C567 C 0.78296 0.95256 0.75952 0.0
C568 C 0.74144 0.92669 0.67954 0.0
C569 C 0.75038 0.86801 0.77763 0.0
O570 O 0.76414 0.94133 0.74122 0.0
O571 O 0.80449 0.93764 0.77058 0.0
O572 O 0.76276 0.86397 0.6997 0.0
O573 O 0.79778 0.88534 0.72593 0.0
Co574 Co 0.26636 0.57205 0.24277 0.0
O575 O 0.2671 0.54876 0.27897 0.0
O576 O 0.22639 0.5624 0.25489 0.0
C577 C 0.29813 0.60795 0.25714 0.0
O578 O 0.25643 0.59751 0.20648 0.0
Co579 Co 0.32285 0.57937 0.20352 0.0
O580 O 0.29884 0.6099 0.18282 0.0
C581 C 0.28945 0.52317 0.20113 0.0
C582 C 0.23826 0.54954 0.27796 0.0
C583 C 0.27087 0.61226 0.18649 0.0
O584 O 0.26908 0.53467 0.21777 0.0
O585 O 0.31369 0.53668 0.19489 0.0
O586 O 0.2706 0.60833 0.26577 0.0
O587 O 0.30644 0.58405 0.24331 0.0
Co588 Co 0.65106 0.00339 0.54714 0.0
O589 O 0.67621 0.01144 0.58067 0.0
O590 O 0.66809 0.96667 0.56132 0.0
C591 C 0.61303 0.03209 0.562 0.0
O592 O 0.62545 0.98621 0.5141 0.0
Co593 Co 0.63116 0.05341 0.50374 0.0
O594 O 0.6003 0.02382 0.4926 0.0
C595 C 0.69164 0.02858 0.49879 0.0
C596 C 0.681 0.98296 0.58141 0.0
C597 C 0.60453 -0.00381 0.49738 0.0
O598 O 0.6853 0.00901 0.5188 0.0
O599 O 0.67386 0.04952 0.49118 0.0
O600 O 0.61583 0.0053 0.57267 0.0
O601 O 0.63441 0.04122 0.54509 0.0
Co602 Co 0.22157 0.38807 0.78841 0.0
O603 O 0.21868 0.4057 0.82741 0.0
O604 O 0.26057 0.39898 0.80195 0.0
C605 C 0.19129 0.34893 0.79638 0.0
O606 O 0.23382 0.36904 0.7492 0.0
Co607 Co 0.16663 0.38345 0.74699 0.0
O608 O 0.19294 0.35754 0.72284 0.0
C609 C 0.19566 0.44137 0.75492 0.0
C610 C 0.2474 0.40838 0.82597 0.0
C611 C 0.22089 0.35632 0.72711 0.0
O612 O 0.21694 0.42853 0.76911 0.0
O613 O 0.17228 0.4276 0.7465 0.0
O614 O 0.21864 0.34825 0.80566 0.0
O615 O 0.18243 0.37434 0.78619 0.0
Co616 Co 0.3652 0.51076 0.56161 0.0
O617 O 0.34439 0.51185 0.59915 0.0
O618 O 0.36009 0.55145 0.57384 0.0
C619 C 0.39747 0.47366 0.57173 0.0
O620 O 0.3879 0.51867 0.52327 0.0
Co621 Co 0.36298 0.45475 0.5209 0.0
O622 O 0.39466 0.47567 0.49841 0.0
C623 C 0.31279 0.49692 0.52069 0.0
C624 C 0.34563 0.54064 0.59654 0.0
C625 C 0.39955 0.50331 0.50215 0.0
O626 O 0.32625 0.51353 0.53961 0.0
O627 O 0.32312 0.4721 0.51131 0.0
O628 O 0.40287 0.50054 0.58106 0.0
O629 O 0.37144 0.4697 0.56046 0.0
Co630 Co 0.74301 0.11771 0.19363 0.0
O631 O 0.72729 0.0951 0.16072 0.0
O632 O 0.77352 0.11195 0.1644 0.0
C633 C 0.70544 0.15038 0.19956 0.0
O634 O 0.76763 0.14184 0.22288 0.0
Co635 Co 0.71183 0.11769 0.25552 0.0
O636 O 0.74058 0.14969 0.26442 0.0
C637 C 0.74447 0.06458 0.23607 0.0
C638 C 0.75402 0.09663 0.14968 0.0
C639 C 0.76342 0.15433 0.24825 0.0
O640 O 0.75449 0.0791 0.21346 0.0
O641 O 0.72564 0.0753 0.25458 0.0
O642 O 0.72536 0.15457 0.17885 0.0
O643 O 0.70695 0.12506 0.21316 0.0
Co644 Co 0.6168 -0.00557 0.95051 0.0
O645 O 0.62649 0.00401 0.90979 0.0
O646 O 0.63196 0.0344 0.94829 0.0
C647 C 0.57226 0.97344 0.94424 0.0
O648 O 0.60791 -0.00682 -0.00504 0.0
Co649 Co 0.61132 0.92869 0.97097 0.0
O650 O 0.59407 0.94677 0.00755 0.0
C651 C 0.67051 0.95398 0.96163 0.0
C652 C 0.63493 0.02977 0.91983 0.0
C653 C 0.59689 0.97435 0.01359 0.0
O654 O 0.65829 0.97943 0.95729 0.0
O655 O 0.65548 0.93006 0.96518 0.0
O656 O 0.57492 0.00226 0.94372 0.0
O657 O 0.59691 0.95863 0.94319 0.0
Co658 Co 0.86811 -0.00584 0.4357 0.0
O659 O 0.8575 0.98704 0.39488 0.0
O660 O 0.85591 0.95329 0.43114 0.0
C661 C 0.91049 0.0193 0.42851 0.0
O662 O 0.87897 0.99291 0.47959 0.0
Co663 Co 0.86961 0.05874 0.46018 0.0
O664 O 0.889 0.03947 0.49499 0.0
C665 C 0.81223 0.02915 0.45325 0.0
C666 C 0.85145 0.96003 0.40329 0.0
C667 C 0.88883 0.01137 0.49909 0.0
O668 O 0.8259 0.00517 0.4458 0.0
O669 O 0.8255 0.05396 0.45741 0.0
O670 O 0.91026 0.99042 0.42648 0.0
O671 O 0.88468 0.03186 0.42985 0.0
C672 C 0.27158 0.22574 0.51407 0.0
C673 C 0.24405 0.22728 0.52889 0.0
C674 C 0.27308 0.22699 0.48289 0.0
C675 C 0.24709 0.22884 0.46572 0.0
H676 H 0.29211 0.22607 0.52663 0.0
H677 H 0.2947 0.22784 0.4722 0.0
S678 S 0.16966 0.22968 0.49397 0.0
N679 N 0.19034 0.22838 0.52431 0.0
N680 N 0.19312 0.22939 0.46555 0.0
C681 C 0.21943 0.22783 0.48022 0.0
C682 C 0.21792 0.22739 0.51193 0.0
C683 C 0.95766 0.02832 0.74136 0.0
C684 C 0.98053 0.0133 0.72599 0.0
C685 C 0.95651 0.02872 0.77251 0.0
C686 C 0.97847 0.01463 0.78969 0.0
H687 H 0.93969 0.03894 0.72933 0.0
H688 H 0.93793 0.03974 0.78325 0.0
S689 S 0.0445 0.97438 0.76087 0.0
N690 N 0.0267 0.98534 0.73062 0.0
N691 N 0.02474 0.98671 0.78938 0.0
C692 C 0.00232 0.00084 0.77484 0.0
C693 C 0.00327 -3e-05 0.74296 0.0
C694 C 0.21347 0.79483 0.9857 0.0
C695 C 0.23801 0.79472 0.96637 0.0
C696 C 0.21749 0.79518 0.0166 0.0
C697 C 0.24619 0.79403 0.02894 0.0
H698 H 0.19122 0.79201 0.97697 0.0
H699 H 0.19806 0.79265 0.03067 0.0
S700 S 0.31723 0.80075 0.98743 0.0
N701 N 0.2915 0.79983 0.96125 0.0
N702 N 0.29925 0.79869 0.01958 0.0
C703 C 0.27072 0.79765 0.0098 0.0
C704 C 0.26654 0.79837 0.97832 0.0
C705 C 0.49782 0.93222 0.27945 0.0
C706 C 0.49367 0.95581 0.29941 0.0
C707 C 0.49677 0.93709 0.24856 0.0
C708 C 0.49147 0.96572 0.23665 0.0
H709 H 0.50375 0.91032 0.28769 0.0
H710 H 0.50158 0.91851 0.23396 0.0
S711 S 0.47531 0.03391 0.28053 0.0
N712 N 0.48138 0.00792 0.30589 0.0
N713 N 0.47886 0.01728 0.2479 0.0
C714 C 0.48499 0.98897 0.25669 0.0
C715 C 0.48636 0.98397 0.2881 0.0
C716 C 0.51977 0.29215 0.29547 0.0
C717 C 0.53679 0.2934 0.26912 0.0
C718 C 0.49071 0.28117 0.29534 0.0
C719 C 0.47767 0.27062 0.26893 0.0
H720 H 0.52936 0.29858 0.31663 0.0
H721 H 0.47905 0.27938 0.31645 0.0
S722 S 0.51091 0.27329 0.19318 0.0
N723 N 0.53706 0.28652 0.21522 0.0
N724 N 0.48249 0.26544 0.21518 0.0
C725 C 0.49359 0.27366 0.24209 0.0
C726 C 0.52311 0.28525 0.24212 0.0
C727 C 0.0065 0.25448 0.53582 0.0
C728 C 0.00416 0.27054 0.50902 0.0
C729 C 0.01093 0.22376 0.5358 0.0
C730 C 0.01356 0.20778 0.50895 0.0
H731 H 0.00505 0.26572 0.55713 0.0
H732 H 0.01306 0.21262 0.55714 0.0
S733 S 0.00785 0.23914 0.43256 0.0
N734 N 0.00374 0.26813 0.45476 0.0
N735 N 0.01245 0.21013 0.45475 0.0
C736 C 0.01075 0.22342 0.4819 0.0
C737 C 0.00587 0.25482 0.48193 0.0
C738 C 0.97516 0.70063 0.77756 0.0
C739 C 0.98926 0.71537 0.75365 0.0
C740 C 0.9459 0.69052 0.77524 0.0
C741 C 0.92958 0.69443 0.74883 0.0
H742 H 0.98625 0.69805 0.79882 0.0
H743 H 0.93569 0.68048 0.79472 0.0
S744 S 0.9577 0.72774 0.67824 0.0
N745 N 0.98578 0.73051 0.70164 0.0
N746 N 0.93076 0.71135 0.69714 0.0
C747 C 0.9441 0.7072 0.724 0.0
C748 C 0.97389 0.71776 0.72647 0.0
C749 C 0.45388 0.78705 0.97659 0.0
C750 C 0.42951 0.7981 0.99273 0.0
C751 C 0.46104 0.75666 0.97754 0.0
C752 C 0.44402 0.73671 -0.00519 0.0
H753 H 0.4688 0.80224 0.9652 0.0
H754 H 0.48125 0.74927 0.96664 0.0
S755 S 0.37458 0.75456 0.0361 0.0
N756 N 0.38618 0.78688 0.02291 0.0
N757 N 0.39889 0.72967 0.02423 0.0
C758 C 0.41786 0.74731 0.0085 0.0
C759 C 0.41082 0.77813 0.00764 0.0
C760 C 0.50638 0.7376 0.25382 0.0
C761 C 0.52412 0.75047 0.2313 0.0
C762 C 0.47679 0.74661 0.25805 0.0
C763 C 0.46404 0.76866 0.23982 0.0
H764 H 0.51491 0.71956 0.2674 0.0
H765 H 0.46338 0.73506 0.27451 0.0
S766 S 0.5024 0.81335 0.18185 0.0
N767 N 0.52779 0.78957 0.19363 0.0
N768 N 0.47216 0.80589 0.20138 0.0
C769 C 0.48206 0.78314 0.21878 0.0
C770 C 0.51212 0.7742 0.21457 0.0
C771 C 0.47274 0.25988 0.51265 0.0
C772 C 0.50119 0.2727 0.51188 0.0
C773 C 0.46923 0.22897 0.51297 0.0
C774 C 0.49408 0.2101 0.51153 0.0
H775 H 0.45311 0.27383 0.51163 0.0
H776 H 0.44696 0.21984 0.51218 0.0
S777 S 0.57321 0.23267 0.51234 0.0
N778 N 0.55458 0.26438 0.51278 0.0
N779 N 0.5479 0.20602 0.51199 0.0
C780 C 0.52262 0.22257 0.51246 0.0
C781 C 0.5262 0.25404 0.51304 0.0
C782 C 0.98508 0.24211 0.77498 0.0
C783 C 0.96278 0.22082 0.76975 0.0
C784 C 0.01496 0.23366 0.77656 0.0
C785 C 0.02334 0.20372 0.7736 0.0
H786 H 0.97988 0.26566 0.77493 0.0
H787 H 0.03177 0.2509 0.77751 0.0
S788 S 0.97333 0.13889 0.76664 0.0
N789 N 0.95084 0.16799 0.76691 0.0
N790 N 0.0073 0.15239 0.76999 0.0
C791 C 0.00122 0.18196 0.77196 0.0
C792 C 0.97077 0.19047 0.77009 0.0
C793 C 0.95699 0.69456 0.02558 0.0
C794 C 0.9848 0.68044 0.02295 0.0
C795 C 0.95492 0.72551 0.02829 0.0
C796 C 0.9806 0.7432 0.02948 0.0
H797 H 0.93667 0.68204 0.02263 0.0
H798 H 0.93314 0.7358 0.02744 0.0
S799 S 0.05851 0.71633 0.02991 0.0
N800 N 0.03839 0.68587 0.02593 0.0
N801 N 0.03455 0.74409 0.03241 0.0
C802 C 0.00845 0.72904 0.03049 0.0
C803 C 0.01055 0.69758 0.02686 0.0
C804 C 0.25763 0.44533 0.19092 0.0
C805 C 0.2799 0.43086 0.1744 0.0
C806 C 0.26028 0.47552 0.19846 0.0
C807 C 0.28522 0.49239 0.18956 0.0
H808 H 0.23901 0.43283 0.19981 0.0
H809 H 0.24322 0.48527 0.21246 0.0
S810 S 0.34691 0.46565 0.141 0.0
N811 N 0.32564 0.43616 0.14604 0.0
N812 N 0.33061 0.49285 0.15957 0.0
C813 C 0.30641 0.47857 0.17085 0.0
C814 C 0.30375 0.44784 0.16344 0.0
C815 C 0.80173 0.03069 0.7853 0.0
C816 C 0.77409 0.04543 0.78469 0.0
C817 C 0.80428 0.00061 0.77756 0.0
C818 C 0.77939 0.98412 0.76845 0.0
H819 H 0.8217 0.0425 0.79165 0.0
H820 H 0.8261 0.9904 0.77815 0.0
S821 S 0.70166 0.01166 0.76432 0.0
N822 N 0.72104 0.04078 0.77535 0.0
N823 N 0.72592 0.98435 0.76046 0.0
C824 C 0.75151 -0.00162 0.7682 0.0
C825 C 0.74883 0.02895 0.77648 0.0
C826 C 0.21061 0.46356 0.0069 0.0
C827 C 0.19411 0.48204 0.02602 0.0
C828 C 0.24053 0.46957 0.00068 0.0
C829 C 0.25509 0.49414 0.01355 0.0
H830 H 0.19991 0.44541 -0.00477 0.0
H831 H 0.25185 0.45558 0.98465 0.0
S832 S 0.2228 0.54545 0.07007 0.0
N833 N 0.19516 0.52314 0.06104 0.0
N834 N 0.25151 0.53429 0.05 0.0
C835 C 0.23935 0.51117 0.03479 0.0
C836 C 0.20883 0.50518 0.04083 0.0
C837 C 0.75098 0.01497 0.21285 0.0
C838 C 0.75197 0.03276 0.23858 0.0
C839 C 0.75143 0.9839 0.21498 0.0
C840 C 0.75391 0.9697 0.24279 0.0
H841 H 0.74765 0.02502 0.19112 0.0
H842 H 0.7485 0.97088 0.19489 0.0
S843 S 0.76152 0.00624 0.31632 0.0
N844 N 0.75818 0.03409 0.2924 0.0
N845 N 0.76034 0.97548 0.29623 0.0
C846 C 0.75744 0.98719 0.26842 0.0
C847 C 0.75611 0.01884 0.26636 0.0
C848 C 0.71679 0.92572 0.97408 0.0
C849 C 0.70317 0.95284 0.9662 0.0
C850 C 0.74631 0.92474 0.98369 0.0
C851 C 0.76336 0.95084 0.98602 0.0
H852 H 0.70426 0.90515 0.9741 0.0
H853 H 0.75528 0.90349 0.99078 0.0
S854 S 0.7403 0.02674 0.96297 0.0
N855 N 0.71062 0.00596 0.95744 0.0
N856 N 0.76599 0.00395 0.97599 0.0
C857 C 0.75084 0.97778 0.97623 0.0
C858 C 0.72082 0.9788 0.96613 0.0
C859 C 0.17203 0.48925 0.73965 0.0
C860 C 0.19785 0.47362 0.74787 0.0
C861 C 0.17285 0.51962 0.73304 0.0
C862 C 0.19957 0.53583 0.7341 0.0
H863 H 0.15073 0.47808 0.73861 0.0
H864 H 0.15219 0.53044 0.72704 0.0
S865 S 0.27378 0.50552 0.75357 0.0
N866 N 0.25124 0.47664 0.75621 0.0
N867 N 0.25274 0.53393 0.74353 0.0
C868 C 0.22575 0.52052 0.74179 0.0
C869 C 0.22489 0.48944 0.74883 0.0
C870 C 0.27693 0.50206 0.47886 0.0
C871 C 0.28372 0.50659 0.50912 0.0
C872 C 0.24808 0.5066 0.4681 0.0
C873 C 0.22502 0.5151 0.48746 0.0
H874 H 0.29375 0.49374 0.46367 0.0
H875 H 0.2433 0.50087 0.44515 0.0
S876 S 0.23202 0.53325 0.56773 0.0
N877 N 0.2659 0.52335 0.55747 0.0
N878 N 0.21129 0.5307 0.53748 0.0
C879 C 0.23196 0.52172 0.51725 0.0
C880 C 0.26148 0.51777 0.52805 0.0
C881 C 0.75982 0.71522 0.9925 0.0
C882 C 0.73693 0.7232 0.01229 0.0
C883 C 0.75432 0.7128 0.96189 0.0
C884 C 0.72565 0.71749 0.95037 0.0
H885 H 0.78255 0.71353 0.00027 0.0
H886 H 0.773 0.70957 0.94693 0.0
S887 S 0.65727 0.73244 -0.00587 0.0
N888 N 0.68405 0.73142 0.01922 0.0
N889 N 0.67341 0.7258 0.96168 0.0
C890 C 0.70203 0.72188 0.97045 0.0
C891 C 0.70778 0.72513 0.0015 0.0
C892 C 0.44196 0.49589 0.26156 0.0
C893 C 0.46812 0.50378 0.27675 0.0
C894 C 0.44216 0.48979 0.23105 0.0
C895 C 0.46856 0.49106 0.21421 0.0
H896 H 0.42086 0.4947 0.27319 0.0
H897 H 0.42126 0.48406 0.2206 0.0
S898 S 0.54344 0.5099 0.24311 0.0
N899 N 0.52147 0.51205 0.27258 0.0
N900 N 0.52181 0.50039 0.21502 0.0
C901 C 0.49507 0.49844 0.22905 0.0
C902 C 0.49485 0.50492 0.26029 0.0
C903 C 0.75773 0.24168 0.46828 0.0
C904 C 0.76051 0.21607 0.45046 0.0
C905 C 0.74959 0.23961 0.49844 0.0
C906 C 0.74441 0.21182 0.51204 0.0
H907 H 0.76186 0.26354 0.45889 0.0
H908 H 0.74815 0.25992 0.51135 0.0
S909 S 0.74795 0.13803 0.47504 0.0
N910 N 0.75676 0.16202 0.44857 0.0
N911 N 0.74161 0.15819 0.50508 0.0
C912 C 0.74665 0.18607 0.49435 0.0
C913 C 0.75466 0.18818 0.46364 0.0
C914 C 0.00599 0.52701 0.68676 0.0
C915 C 0.02776 0.54558 0.67404 0.0
C916 C 0.00925 0.51564 0.71582 0.0
C917 C 0.03428 0.52261 0.73333 0.0
H918 H 0.987 0.52009 0.67371 0.0
H919 H -0.00772 0.50076 0.72431 0.0
S920 S 0.09581 0.57356 0.71104 0.0
N921 N 0.07381 0.57255 0.68171 0.0
N922 N 0.08005 0.55169 0.7361 0.0
C923 C 0.05547 0.54248 0.72116 0.0
C924 C 0.05216 0.55383 0.69162 0.0
C925 C 0.76276 0.05335 0.46064 0.0
C926 C 0.78025 0.02739 0.46083 0.0
C927 C 0.73373 0.05324 0.47194 0.0
C928 C 0.72125 0.0273 0.48436 0.0
H929 H 0.77182 0.07412 0.45234 0.0
H930 H 0.72139 0.07395 0.47194 0.0
S931 S 0.75676 0.95274 0.48782 0.0
N932 N 0.78217 0.97444 0.4725 0.0
N933 N 0.72774 0.97437 0.49401 0.0
C934 C 0.73801 0.00086 0.48351 0.0
C935 C 0.76744 0.00086 0.47162 0.0
C936 C 0.22738 0.30395 0.26436 0.0
C937 C 0.25597 0.31667 0.26326 0.0
C938 C 0.21779 0.28775 0.28929 0.0
C939 C 0.23599 0.28438 0.31446 0.0
H940 H 0.21289 0.30484 0.24513 0.0
H941 H 0.19627 0.277 0.28846 0.0
S942 S 0.31103 0.31695 0.32466 0.0
N943 N 0.30136 0.327 0.29062 0.0
N944 N 0.28267 0.29778 0.33801 0.0
C945 C 0.26364 0.29894 0.31464 0.0
C946 C 0.2738 0.31477 0.28889 0.0
C947 C 0.91984 0.00812 0.57743 0.0
C948 C 0.93523 0.98086 0.57779 0.0
C949 C 0.90419 0.01744 0.55215 0.0
C950 C 0.90282 -0.0004 0.52647 0.0
H951 H 0.9205 0.02284 0.59649 0.0
H952 H 0.89337 0.03899 0.55262 0.0
S953 S 0.93806 0.92551 0.51656 0.0
N954 N 0.94735 0.93563 0.55064 0.0
N955 N 0.91745 0.95287 0.50328 0.0
C956 C 0.91723 0.97178 0.5269 0.0
C957 C 0.93358 0.96251 0.5525 0.0
C958 C 0.26076 0.71565 0.79765 0.0
C959 C 0.24951 0.7175 0.82689 0.0
C960 C 0.25122 0.69336 0.77809 0.0
C961 C 0.22912 0.67295 0.78666 0.0
H962 H 0.27648 0.73204 0.78951 0.0
H963 H 0.25988 0.6933 0.75552 0.0
S964 S 0.19615 0.66468 0.86188 0.0
N965 N 0.2187 0.69348 0.86472 0.0
N966 N 0.19885 0.65346 0.82696 0.0
C967 C 0.21893 0.67337 0.81617 0.0
C968 C 0.22963 0.69519 0.83655 0.0
C969 C 0.57759 0.96495 0.06514 0.0
C970 C 0.58458 0.98533 0.04226 0.0
C971 C 0.56236 0.97398 0.09085 0.0
C972 C 0.55303 0.00361 0.09444 0.0
H973 H 0.58328 0.94163 0.06291 0.0
H974 H 0.55687 0.9573 0.10743 0.0
S975 S 0.56782 0.06634 0.04261 0.0
N976 N 0.58286 0.03714 0.02614 0.0
N977 N 0.55363 0.0538 0.0742 0.0
C978 C 0.56088 0.02448 0.07244 0.0
C979 C 0.57687 0.01544 0.04646 0.0
C980 C 0.21867 0.67509 0.16592 0.0
C981 C 0.22981 0.6845 0.1381 0.0
C982 C 0.23101 0.65055 0.1808 0.0
C983 C 0.25501 0.6347 0.16843 0.0
H984 H 0.20101 0.68736 0.17684 0.0
H985 H 0.22262 0.64489 0.20276 0.0
S986 S 0.28947 0.64761 0.09425 0.0
N987 N 0.26408 0.67397 0.09733 0.0
N988 N 0.2874 0.62815 0.12544 0.0
C989 C 0.26524 0.64286 0.13991 0.0
C990 C 0.2526 0.66768 0.1247 0.0
C991 C 0.55492 0.97391 0.48783 0.0
C992 C 0.58552 0.97488 0.48169 0.0
C993 C 0.53592 0.9558 0.47108 0.0
C994 C 0.54688 0.93884 0.44711 0.0
H995 H 0.54551 0.98778 0.50517 0.0
H996 H 0.51229 0.9566 0.47572 0.0
S997 S 0.62548 0.93339 0.42269 0.0
N998 N 0.62622 0.95659 0.45122 0.0
N999 N 0.59035 0.9235 0.41873 0.0
C1000 C 0.57758 0.93911 0.44131 0.0
C1001 C 0.59698 0.95694 0.45887 0.0
C1002 C 0.24539 0.31869 0.65606 0.0
C1003 C 0.26702 0.29826 0.66594 0.0
C1004 C 0.23131 0.33812 0.67587 0.0
C1005 C 0.23881 0.33844 0.70621 0.0
H1006 H 0.23832 0.31899 0.633 0.0
H1007 H 0.21396 0.3526 0.66747 0.0
S1008 S 0.29582 0.29162 0.74313 0.0
N1009 N 0.29658 0.28095 0.70791 0.0
N1010 N 0.27047 0.31815 0.7451 0.0
C1011 C 0.2616 0.3195 0.71618 0.0
C1012 C 0.27566 0.29926 0.69605 0.0
C1013 C 0.89922 0.00269 0.96034 0.0
C1014 C 0.90804 0.98127 0.98139 0.0
C1015 C 0.92019 0.0173 0.94247 0.0
C1016 C 0.95076 0.01173 0.94572 0.0
H1017 H 0.87585 0.00748 0.95701 0.0
H1018 H 0.91237 0.03259 0.92549 0.0
S1019 S 0.98519 0.95997 0.00027 0.0
N1020 N 0.94909 0.9563 0.00582 0.0
N1021 N 0.98887 0.98487 0.97334 0.0
C1022 C 0.95993 0.9915 0.96789 0.0
C1023 C 0.93844 0.9759 0.9854 0.0
C1024 C 0.32921 0.17815 0.29379 0.0
C1025 C 0.35809 0.17767 0.30567 0.0
C1026 C 0.30506 0.18748 0.31138 0.0
C1027 C 0.30947 0.19648 0.34104 0.0
H1028 H 0.32576 0.17462 0.27016 0.0
H1029 H 0.28362 0.19062 0.3009 0.0
S1030 S 0.37934 0.1915 0.38414 0.0
N1031 N 0.38862 0.18099 0.3501 0.0
N1032 N 0.34335 0.19868 0.38299 0.0
C1033 C 0.33744 0.19219 0.35401 0.0
C1034 C 0.36181 0.18263 0.33629 0.0
C1035 C 0.05022 0.06024 0.59428 0.0
C1036 C 0.03615 0.03372 0.5861 0.0
C1037 C 0.06615 0.07686 0.5733 0.0
C1038 C 0.0677 0.06794 0.54324 0.0
H1039 H 0.04681 0.06944 0.61636 0.0
H1040 H 0.07432 0.09855 0.57989 0.0
S1041 S 0.04018 -0.00334 0.51252 0.0
N1042 N 0.02925 -0.0037 0.54776 0.0
N1043 N 0.05854 0.02817 0.50775 0.0
C1044 C 0.05698 0.03958 0.53573 0.0
C1045 C 0.04107 0.02237 0.55734 0.0
C1046 C 0.14237 0.80521 0.79272 0.0
C1047 C 0.11328 0.79814 0.8018 0.0
C1048 C 0.16653 0.8001 0.81175 0.0
C1049 C 0.16217 0.78769 0.84024 0.0
H1050 H 0.14674 0.81281 0.77019 0.0
H1051 H 0.1888 0.80399 0.80337 0.0
S1052 S 0.08997 0.7709 0.87647 0.0
N1053 N 0.08115 0.78242 0.84264 0.0
N1054 N 0.12658 0.77249 0.87815 0.0
C1055 C 0.13305 0.78291 0.85038 0.0
C1056 C 0.10855 0.78828 0.83121 0.0
C1057 C 0.42394 0.96652 0.04466 0.0
C1058 C 0.40807 0.93984 0.04855 0.0
C1059 C 0.4421 0.97752 0.06762 0.0
C1060 C 0.44495 0.96189 0.09467 0.0
H1061 H 0.42477 0.9772 0.023 0.0
H1062 H 0.45592 -0.00322 0.06327 0.0
S1063 S 0.40206 0.89577 0.11841 0.0
N1064 N 0.3914 0.902 0.08374 0.0
N1065 N 0.42647 0.92205 0.12613 0.0
C1066 C 0.4265 0.93745 0.1 0.0
C1067 C 0.40761 0.92669 0.07709 0.0
C1068 C 0.28848 0.77341 0.23188 0.0
C1069 C 0.30972 0.7962 0.22927 0.0
C1070 C 0.27082 0.76551 0.2074 0.0
C1071 C 0.27362 0.78063 0.18007 0.0
H1072 H 0.28761 0.75972 0.25179 0.0
H1073 H 0.25666 0.74608 0.20912 0.0
S1074 S 0.32282 0.84448 0.16344 0.0
N1075 N 0.33025 0.83571 0.19844 0.0
N1076 N 0.29664 0.82113 0.15268 0.0
C1077 C 0.29269 0.80514 0.17816 0.0
C1078 C 0.31084 0.81294 0.20282 0.0
C1079 C 0.46226 0.01274 0.45202 0.0
C1080 C 0.47908 0.01832 0.42616 0.0
C1081 C 0.45044 0.03625 0.46885 0.0
C1082 C 0.45477 0.06605 0.46009 0.0
H1083 H 0.45942 0.99015 0.46006 0.0
H1084 H 0.43894 0.03105 0.48946 0.0
S1085 S 0.493 0.0917 0.39109 0.0
N1086 N 0.4969 0.05516 0.39078 0.0
N1087 N 0.47386 0.09939 0.42159 0.0
C1088 C 0.46978 0.07164 0.43302 0.0
C1089 C 0.48223 0.04775 0.41629 0.0
C1090 C 0.19613 0.18491 0.72037 0.0
C1091 C 0.16656 0.17668 0.71447 0.0
C1092 C 0.21325 0.19966 0.69869 0.0
C1093 C 0.20108 0.20692 0.67078 0.0
H1094 H 0.20558 0.18145 0.74229 0.0
H1095 H 0.23551 0.20684 0.70433 0.0
S1096 S 0.12686 0.18595 0.6425 0.0
N1097 N 0.12756 0.17315 0.67704 0.0
N1098 N 0.15942 0.20199 0.63702 0.0
C1099 C 0.17239 0.1972 0.66396 0.0
C1100 C 0.15522 0.18168 0.68564 0.0
C1101 C 0.02166 0.90784 0.95495 0.0
C1102 C 0.00127 0.88486 0.96085 0.0
C1103 C 0.016 0.92935 0.93301 0.0
C1104 C 0.98942 0.92904 0.91655 0.0
H1105 H 0.04182 0.90974 0.96795 0.0
H1106 H 0.03176 0.94738 0.93037 0.0
S1107 S 0.93039 0.87153 0.92097 0.0
N1108 N 0.95491 0.86132 0.94632 0.0
N1109 N 0.94385 0.90213 0.90565 0.0
C1110 C 0.96965 0.90519 0.92105 0.0
C1111 C 0.97567 0.883 0.94306 0.0
C1112 C 0.32683 0.27665 0.17636 0.0
C1113 C 0.29607 0.27561 0.18195 0.0
C1114 C 0.34712 0.26333 0.19588 0.0
C1115 C 0.33739 0.24919 0.22211 0.0
H1116 H 0.33539 0.2894 0.15768 0.0
H1117 H 0.37066 0.26572 0.19134 0.0
S1118 S 0.25927 0.23591 0.24462 0.0
N1119 N 0.25674 0.25546 0.21346 0.0
N1120 N 0.29515 0.23162 0.25091 0.0
C1121 C 0.30672 0.24618 0.22698 0.0
C1122 C 0.28596 0.25896 0.20659 0.0
C1123 C 0.76786 0.21725 0.7929 0.0
C1124 C 0.77722 0.19961 0.81704 0.0
C1125 C 0.7884 0.2342 0.77651 0.0
C1126 C 0.81849 0.23503 0.78475 0.0
H1127 H 0.74548 0.21516 0.78447 0.0
H1128 H 0.78122 0.24471 0.75598 0.0
S1129 S 0.85257 0.19774 0.84992 0.0
N1130 N 0.81742 0.18718 0.85079 0.0
N1131 N 0.85566 0.22053 0.82111 0.0
C1132 C 0.82716 0.22072 0.81116 0.0
C1133 C 0.80652 0.20268 0.82716 0.0
C1134 C 0.01715 0.52921 0.03951 0.0
C1135 C 0.00303 0.52739 0.01177 0.0
C1136 C 0.03423 0.50544 0.05015 0.0
C1137 C 0.03727 0.47907 0.03356 0.0
H1138 H 0.01722 0.55 0.05173 0.0
H1139 H 0.04721 0.50867 0.0702 0.0
S1140 S 6e-05 0.46189 0.96206 0.0
N1141 N 0.98995 0.49643 0.96959 0.0
N1142 N 0.02129 0.45111 0.99012 0.0
C1143 C 0.02049 0.47587 0.00741 0.0
C1144 C 0.00361 0.50035 -0.00373 0.0
C1145 C 0.65817 0.80953 0.24269 0.0
C1146 C 0.66186 0.77925 0.2492 0.0
C1147 C 0.67804 0.83069 0.25357 0.0
C1148 C 0.70292 0.82227 0.27063 0.0
H1149 H 0.63989 0.81691 0.22882 0.0
H1150 H 0.67423 0.85375 0.24768 0.0
S1151 S 0.72165 0.74543 0.29466 0.0
N1152 N 0.69099 0.74164 0.27485 0.0
N1153 N 0.72929 0.7814 0.29459 0.0
C1154 C 0.70639 0.792 0.27798 0.0
C1155 C 0.68563 0.77047 0.26739 0.0
C1156 C 0.91766 0.93283 0.07005 0.0
C1157 C 0.88794 0.92453 0.07523 0.0
C1158 C 0.93903 0.91132 0.06223 0.0
C1159 C 0.931 0.88124 0.05925 0.0
H1160 H 0.92367 0.95614 0.06865 0.0
H1161 H 0.96093 0.91864 0.05534 0.0
S1162 S 0.85835 0.84764 0.07856 0.0
N1163 N 0.85341 0.88375 0.08338 0.0
N1164 N 0.89331 0.84362 0.06795 0.0
C1165 C 0.90255 0.87242 0.06841 0.0
C1166 C 0.88104 0.89408 0.0767 0.0
C1167 C 0.14764 0.68146 0.69014 0.0
C1168 C 0.1781 0.68601 0.69552 0.0
C1169 C 0.12603 0.6995 0.70351 0.0
C1170 C 0.13423 0.72227 0.72314 0.0
H1171 H 0.14037 0.66247 0.67721 0.0
H1172 H 0.10278 0.69418 0.70023 0.0
S1173 S 0.21065 0.74682 0.74063 0.0
N1174 N 0.21528 0.71796 0.71827 0.0
N1175 N 0.17438 0.7511 0.74448 0.0
C1176 C 0.16447 0.72867 0.72686 0.0
C1177 C 0.18655 0.71078 0.71261 0.0
C1178 C 0.05032 0.42146 0.44168 0.0
C1179 C 0.05981 0.39845 0.46078 0.0
C1180 C 0.07084 0.4415 0.42921 0.0
C1181 C 0.10131 0.43884 0.43546 0.0
H1182 H 0.02682 0.42532 0.43815 0.0
H1183 H 0.06261 0.46024 0.41643 0.0
S1184 S 0.13749 0.37869 0.47918 0.0
N1185 N 0.10159 0.37166 0.48191 0.0
N1186 N 0.14025 0.40873 0.45808 0.0
C1187 C 0.11112 0.41421 0.45221 0.0
C1188 C 0.09031 0.39415 0.46504 0.0
C1189 C 0.39514 0.60407 0.97368 0.0
C1190 C 0.42562 0.59785 0.97439 0.0
C1191 C 0.37516 0.58376 0.96155 0.0
C1192 C 0.38489 0.5562 0.95029 0.0
H1193 H 0.38655 0.62434 0.98355 0.0
H1194 H 0.35167 0.58898 0.9627 0.0
S1195 S 0.46313 0.53068 0.94495 0.0
N1196 N 0.46526 0.56378 0.9608 0.0
N1197 N 0.42746 0.5248 0.93856 0.0
C1198 C 0.41563 0.55053 0.94913 0.0
C1199 C 0.43609 0.57157 0.96119 0.0
C1200 C 0.71663 0.8265 0.84212 0.0
C1201 C 0.69669 0.80683 0.82821 0.0
C1202 C 0.73273 0.84736 0.82568 0.0
C1203 C 0.72922 0.84972 0.79473 0.0
H1204 H 0.72095 0.82488 0.86583 0.0
H1205 H 0.74885 0.86105 0.83718 0.0
S1206 S 0.6778 0.80561 0.74784 0.0
N1207 N 0.67268 0.79249 0.78192 0.0
N1208 N 0.70285 0.8323 0.75083 0.0
C1209 C 0.70788 0.8317 0.78068 0.0
C1210 C 0.69157 0.81011 0.7975 0.0
C1211 C 0.45448 0.48012 0.04057 0.0
C1212 C 0.44792 0.45766 0.06142 0.0
C1213 C 0.43222 0.49171 0.02207 0.0
C1214 C 0.40313 0.4804 0.02317 0.0
H1215 H 0.47621 0.49046 0.04027 0.0
H1216 H 0.43746 0.51043 0.00773 0.0
S1217 S 0.37562 0.4196 0.07173 0.0
N1218 N 0.41093 0.42343 0.08096 0.0
N1219 N 0.36947 0.4441 0.04491 0.0
C1220 C 0.39692 0.45643 0.04225 0.0
C1221 C 0.41929 0.4453 0.06172 0.0
C1222 C 0.81679 0.17578 0.30716 0.0
C1223 C 0.81719 0.20695 0.30439 0.0
C1224 C 0.80196 0.1582 0.2864 0.0
C1225 C 0.78754 0.17121 0.262 0.0
H1226 H 0.82507 0.16517 0.32723 0.0
H1227 H 0.79935 0.13465 0.29101 0.0
S1228 S 0.78995 0.25055 0.23973 0.0
N1229 N 0.80766 0.24941 0.27198 0.0
N1230 N 0.77979 0.21594 0.23252 0.0
C1231 C 0.79146 0.20171 0.25654 0.0
C1232 C 0.80657 0.21977 0.27785 0.0
C1233 C 0.02777 0.55325 0.5002 0.0
C1234 C 0.03731 0.57534 0.52021 0.0
C1235 C 0.04837 0.53687 0.48326 0.0
C1236 C 0.07895 0.54301 0.48481 0.0
H1237 H 0.00471 0.54648 0.49987 0.0
H1238 H 0.04056 0.51807 0.47038 0.0
S1239 S 0.11465 0.602 0.52965 0.0
N1240 N 0.07895 0.6047 0.53793 0.0
N1241 N 0.11739 0.57494 0.50491 0.0
C1242 C 0.08835 0.56716 0.50213 0.0
C1243 C 0.06755 0.5832 0.52003 0.0
C1244 C 0.73395 0.17111 0.66762 0.0
C1245 C 0.71321 0.1946 0.66848 0.0
C1246 C 0.7452 0.15852 0.69386 0.0
C1247 C 0.735 0.16787 0.72189 0.0
H1248 H 0.7426 0.16303 0.64666 0.0
H1249 H 0.76213 0.14143 0.69221 0.0
S1250 S 0.67743 0.22509 0.73651 0.0
N1251 N 0.68112 0.22494 0.69984 0.0
N1252 N 0.70066 0.19955 0.74914 0.0
C1253 C 0.71259 0.18961 0.72314 0.0
C1254 C 0.70202 0.20335 0.69643 0.0
C1255 C 0.06589 0.4363 0.92905 0.0
C1256 C 0.08681 0.45849 0.93553 0.0
C1257 C 0.05412 0.43347 0.90026 0.0
C1258 C 0.06368 0.45199 0.8767 0.0
H1259 H 0.05717 0.42228 0.9467 0.0
H1260 H 0.03661 0.41734 0.89673 0.0
S1261 S 0.12356 0.50866 0.88115 0.0
N1262 N 0.11971 0.49646 0.9157 0.0
N1263 N 0.09948 0.48961 0.8611 0.0
C1264 C 0.08701 0.47205 0.88237 0.0
C1265 C 0.0981 0.4757 0.91194 0.0
C1266 C 0.78877 0.80822 0.19598 0.0
C1267 C 0.77468 0.83483 0.18747 0.0
C1268 C 0.79764 0.78725 0.17451 0.0
C1269 C 0.79284 0.79242 0.14389 0.0
H1270 H 0.79115 0.80269 0.21939 0.0
H1271 H 0.80671 0.76623 0.18208 0.0
S1272 S 0.76198 0.86139 0.11027 0.0
N1273 N 0.75977 0.86696 0.14659 0.0
N1274 N 0.77706 0.82812 0.10619 0.0
C1275 C 0.78109 0.82012 0.13516 0.0
C1276 C 0.77179 0.84119 0.15698 0.0
C1277 C 0.4459 0.52483 0.48071 0.0
C1278 C 0.41539 0.519 0.47844 0.0
C1279 C 0.46162 0.53677 0.4564 0.0
C1280 C 0.44715 0.54297 0.42925 0.0
H1281 H 0.45781 0.51907 0.50089 0.0
H1282 H 0.48543 0.53962 0.45838 0.0
S1283 S 0.36669 0.5339 0.41378 0.0
N1284 N 0.37082 0.52192 0.44836 0.0
N1285 N 0.40008 0.54448 0.40265 0.0
C1286 C 0.41628 0.53851 0.4275 0.0
C1287 C 0.40045 0.52641 0.45214 0.0
C1288 C 0.75513 0.67841 0.80579 0.0
C1289 C 0.7383 0.70381 0.79905 0.0
C1290 C 0.7725 0.66456 0.78382 0.0
C1291 C 0.77332 0.67552 0.75438 0.0
H1292 H 0.75689 0.67074 0.82865 0.0
H1293 H 0.78717 0.64661 0.79045 0.0
S1294 S 0.7295 0.739 0.72491 0.0
N1295 N 0.72092 0.73768 0.76073 0.0
N1296 N 0.75281 0.71117 0.71904 0.0
C1297 C 0.75419 0.69913 0.74681 0.0
C1298 C 0.73695 0.71353 0.76935 0.0
C1299 C 0.51127 0.54963 0.05845 0.0
C1300 C 0.49388 0.55338 0.08424 0.0
C1301 C 0.51899 0.57411 0.04055 0.0
C1302 C 0.50998 0.60313 0.04821 0.0
H1303 H 0.51757 0.52751 0.05122 0.0
H1304 H 0.53088 0.57004 0.01993 0.0
S1305 S 0.46892 0.62472 0.11691 0.0
N1306 N 0.47069 0.58805 0.11848 0.0
N1307 N 0.4865 0.63434 0.08599 0.0
C1308 C 0.49474 0.60722 0.07543 0.0
C1309 C 0.48627 0.58224 0.09314 0.0
C1310 C 0.70764 0.28575 0.26779 0.0
C1311 C 0.69238 0.30964 0.28103 0.0
C1312 C 0.72589 0.26708 0.28482 0.0
C1313 C 0.73099 0.27278 0.31516 0.0
H1314 H 0.70381 0.28012 0.24465 0.0
H1315 H 0.7357 0.24779 0.27427 0.0
S1316 S 0.69779 0.33381 0.35973 0.0
N1317 N 0.68369 0.33828 0.32603 0.0
N1318 N 0.7203 0.30482 0.35749 0.0
C1319 C 0.71717 0.29761 0.32825 0.0
C1320 C 0.6974 0.31572 0.31126 0.0
C1321 C 0.01532 0.45366 0.55699 0.0
C1322 C 0.00269 0.48112 0.54931 0.0
C1323 C 0.00385 0.42712 0.54547 0.0
C1324 C 0.9802 0.42729 0.52494 0.0
H1325 H 0.03379 0.45264 0.57241 0.0
H1326 H 0.01412 0.40649 0.55232 0.0
S1327 S 0.93903 0.49375 0.49846 0.0
N1328 N 0.96443 0.50711 0.52127 0.0
N1329 N 0.94403 0.45733 0.49821 0.0
C1330 C 0.96731 0.4547 0.51728 0.0
C1331 C 0.97833 0.48161 0.52977 0.0
C1332 C 0.85076 0.24895 0.66169 0.0
C1333 C 0.8447 0.27329 0.68046 0.0
C1334 C 0.82895 0.23716 0.64306 0.0
C1335 C 0.80026 0.24943 0.64218 0.0
H1336 H 0.87227 0.2381 0.66215 0.0
H1337 H 0.83439 0.21771 0.62987 0.0
S1338 S 0.77345 0.31458 0.68534 0.0
N1339 N 0.80835 0.31035 0.69581 0.0
N1340 N 0.76724 0.28827 0.66047 0.0
C1341 C 0.79428 0.27481 0.65955 0.0
C1342 C 0.81654 0.28675 0.67877 0.0
C1343 C 0.97241 0.52529 0.88844 0.0
C1344 C -0.0051 0.5391 0.87149 0.0
C1345 C 0.95712 0.541 0.91078 0.0
C1346 C 0.96377 0.571 0.91663 0.0
H1347 H 0.9677 0.50184 0.88552 0.0
H1348 H 0.94115 0.52916 0.92448 0.0
S1349 S 0.01716 0.61841 0.8748 0.0
N1350 N 0.02059 0.58515 0.85961 0.0
N1351 N 0.99165 0.61482 0.90108 0.0
C1352 C 0.98472 0.5855 0.89833 0.0
C1353 C 0.00039 0.56949 0.87589 0.0
C1354 C 0.65737 0.69891 0.15945 0.0
C1355 C 0.66433 0.69105 0.18901 0.0
C1356 C 0.67884 0.71084 0.14041 0.0
C1357 C 0.70816 0.71472 0.15002 0.0
H1358 H 0.63473 0.69744 0.1514 0.0
H1359 H 0.67224 0.71797 0.11829 0.0
S1360 S 0.73893 0.69488 0.22385 0.0
N1361 N 0.70338 0.68594 0.2262 0.0
N1362 N 0.74405 0.70783 0.1897 0.0
C1363 C 0.71614 0.70501 0.17861 0.0
C1364 C 0.69411 0.69316 0.19831 0.0
C1365 C 0.52459 0.46534 0.43462 0.0
C1366 C 0.5067 0.45675 0.41049 0.0
C1367 C 0.53714 0.44394 0.45367 0.0
C1368 C 0.53242 0.41336 0.44886 0.0
H1369 H 0.52762 0.48872 0.43966 0.0
H1370 H 0.54949 0.45144 0.47294 0.0
S1371 S 0.4909 0.37992 0.38568 0.0
N1372 N 0.48708 0.41618 0.38102 0.0
N1373 N 0.5115 0.3758 0.41581 0.0
C1374 C 0.51621 0.40468 0.42345 0.0
C1375 C 0.50306 0.42644 0.40453 0.0
C1376 C 0.78998 0.80709 0.7021 0.0
C1377 C 0.80107 0.8314 0.71842 0.0
C1378 C 0.79868 0.7779 0.7086 0.0
C1379 C 0.81806 0.77179 0.73229 0.0
H1380 H 0.77402 0.81054 0.68438 0.0
H1381 H 0.78948 0.7599 0.69552 0.0
S1382 S 0.85656 0.82718 0.77946 0.0
N1383 N 0.83549 0.84731 0.75705 0.0
N1384 N 0.8503 0.79214 0.77043 0.0
C1385 C 0.83019 0.79574 0.74815 0.0
C1386 C 0.82213 0.82564 0.74088 0.0
C1387 C 0.33814 0.64042 0.23587 0.0
C1388 C 0.31599 0.63557 0.25753 0.0
C1389 C 0.35142 0.66846 0.23249 0.0
C1390 C 0.34374 0.69226 0.25131 0.0
H1391 H 0.34435 0.62296 0.2205 0.0
H1392 H 0.3675 0.67165 0.21474 0.0
S1393 S 0.28944 0.69023 0.31358 0.0
N1394 N 0.2885 0.65636 0.2994 0.0
N1395 N 0.31421 0.70871 0.2936 0.0
C1396 C 0.32302 0.68721 0.27421 0.0
C1397 C 0.309 0.65891 0.27722 0.0
C1398 C 0.53317 0.04634 0.54353 0.0
C1399 C 0.53354 0.07724 0.53895 0.0
C1400 C 0.55828 0.03171 0.55493 0.0
C1401 C 0.58441 0.04768 0.56113 0.0
H1402 H 0.5143 0.03326 0.53632 0.0
H1403 H 0.5582 0.00763 0.55607 0.0
S1404 S 0.59441 0.12941 0.55694 0.0
N1405 N 0.56023 0.1237 0.54495 0.0
N1406 N 0.60771 0.09622 0.56557 0.0
C1407 C 0.5839 0.07883 0.55907 0.0
C1408 C 0.55833 0.09365 0.54799 0.0
C1409 C 0.18716 0.29334 0.7973 0.0
C1410 C 0.17406 0.32127 0.79154 0.0
C1411 C 0.17286 0.2668 0.78927 0.0
C1412 C 0.14523 0.26741 0.77484 0.0
H1413 H 0.20904 0.29192 0.80719 0.0
H1414 H 0.18404 0.2458 0.79318 0.0
S1415 S 0.09961 0.33405 0.75819 0.0
N1416 N 0.13013 0.3474 0.77351 0.0
N1417 N 0.10398 0.29758 0.75749 0.0
C1418 C 0.13128 0.29494 0.77015 0.0
C1419 C 0.14549 0.32188 0.77879 0.0
C1420 C 0.4126 0.42237 0.55811 0.0
C1421 C 0.42115 0.45152 0.56566 0.0
C1422 C 0.43263 0.40255 0.54491 0.0
C1423 C 0.46215 0.41089 0.53925 0.0
H1424 H 0.38971 0.41534 0.56074 0.0
H1425 H 0.42461 0.38096 0.53783 0.0
S1426 S 0.49675 0.48341 0.55701 0.0
N1427 N 0.46193 0.487 0.56827 0.0
N1428 N 0.49979 0.44921 0.54387 0.0
C1429 C 0.47174 0.43906 0.54861 0.0
C1430 C 0.45118 0.45952 0.56182 0.0
C1431 C 0.6745 0.22814 0.21044 0.0
C1432 C 0.6569 0.22517 0.23625 0.0
C1433 C 0.6893 0.20361 0.19812 0.0
C1434 C 0.68669 0.17509 0.21086 0.0
H1435 H 0.67788 0.24981 0.20035 0.0
H1436 H 0.70352 0.20726 0.17893 0.0
S1437 S 0.63971 0.15493 0.27617 0.0
N1438 N 0.6356 0.19129 0.27272 0.0
N1439 N 0.66242 0.14488 0.24901 0.0
C1440 C 0.6677 0.17156 0.23569 0.0
C1441 C 0.65311 0.19668 0.24856 0.0
C1442 C 0.53868 0.92955 0.94846 0.0
C1443 C 0.54505 0.95925 0.95587 0.0
C1444 C 0.51492 0.91444 0.96198 0.0
C1445 C 0.49766 0.9282 0.98415 0.0
H1446 H 0.55223 0.9179 0.93224 0.0
H1447 H 0.51035 0.89169 0.95546 0.0
S1448 S 0.50524 0.00529 0.01191 0.0
N1449 N 0.53159 0.002 0.98642 0.0
N1450 N 0.48818 0.97279 0.01291 0.0
C1451 C 0.50384 0.95769 0.9919 0.0
C1452 C 0.52724 0.97347 0.97743 0.0
C1453 C 0.9732 0.03841 0.48041 0.0
C1454 C 0.97841 0.06848 0.47373 0.0
C1455 C 0.95313 0.02167 0.46353 0.0
C1456 C 0.93651 0.03496 0.44051 0.0
H1457 H 0.98447 0.0279 0.49893 0.0
H1458 H 0.94921 -0.00128 0.46982 0.0
S1459 S 0.94211 0.11302 0.41445 0.0
N1460 N 0.96647 0.1106 0.44184 0.0
N1461 N 0.92692 0.07968 0.41163 0.0
C1462 C 0.94176 0.06491 0.43349 0.0
C1463 C 0.9631 0.08159 0.44981 0.0
C1464 C 0.11733 0.19193 0.44087 0.0
C1465 C 0.10967 0.16226 0.43496 0.0
C1466 C 0.13749 0.20716 0.42254 0.0
C1467 C 0.15153 0.19278 0.39848 0.0
H1468 H 0.1078 0.20337 0.45988 0.0
H1469 H 0.14327 0.22982 0.42825 0.0
S1470 S 0.13662 0.11604 0.37218 0.0
N1471 N 0.11512 0.11993 0.40184 0.0
N1472 N 0.15439 0.14797 0.36825 0.0
C1473 C 0.143 0.1635 0.39161 0.0
C1474 C 0.12174 0.14834 0.40972 0.0
C1475 C 0.02404 0.87727 0.66235 0.0
C1476 C 0.00186 0.89518 0.67513 0.0
C1477 C 0.0324 0.85037 0.67555 0.0
C1478 C 0.01939 0.84077 0.70244 0.0
H1479 H 0.03538 0.88432 0.64218 0.0
H1480 H 0.05024 0.83779 0.6653 0.0
S1481 S 0.9589 0.87891 0.74387 0.0
N1482 N 0.96563 0.90084 0.71501 0.0
N1483 N 0.98197 0.85047 0.74053 0.0
C1484 C -0.00361 0.85799 0.71494 0.0
C1485 C 0.98745 0.88518 0.70107 0.0
C1486 C 0.3631 0.85403 0.90289 0.0
C1487 C 0.35251 0.8725 0.9259 0.0
C1488 C 0.34336 0.83767 0.8852 0.0
C1489 C 0.31257 0.84034 0.88927 0.0
H1490 H 0.38675 0.85048 0.90001 0.0
H1491 H 0.35221 0.82196 0.86916 0.0
S1492 S 0.27383 0.88761 0.94485 0.0
N1493 N 0.30952 0.89355 0.95094 0.0
N1494 N 0.27233 0.86411 0.91663 0.0
C1495 C 0.30175 0.86035 0.91079 0.0
C1496 C 0.3218 0.87614 0.92942 0.0
C1497 C 0.4575 0.13684 0.18574 0.0
C1498 C 0.46503 0.14461 0.2151 0.0
C1499 C 0.46787 0.11053 0.17304 0.0
C1500 C 0.48669 0.09132 0.18889 0.0
H1501 H 0.44192 0.15012 0.173 0.0
H1502 H 0.46007 0.1046 0.15099 0.0
S1503 S 0.51773 0.1041 0.26415 0.0
N1504 N 0.49559 0.1329 0.25833 0.0
N1505 N 0.51586 0.0835 0.23372 0.0
C1506 C 0.4968 0.10004 0.2171 0.0
C1507 C 0.48573 0.12673 0.23042 0.0
C1508 C 0.11907 0.80374 0.09607 0.0
C1509 C 0.13747 0.78466 0.07944 0.0
C1510 C 0.0928 0.81526 0.08397 0.0
C1511 C 0.08421 0.80857 0.05459 0.0
H1512 H 0.12485 0.80964 0.11873 0.0
H1513 H 0.07916 0.82956 0.09781 0.0
S1514 S 0.12562 0.76087 0.00112 0.0
N1515 N 0.14569 0.76001 0.03185 0.0
N1516 N 0.09684 0.78237 0.00877 0.0
C1517 C 0.10273 0.78992 0.0375 0.0
C1518 C 0.1292 0.77775 0.05002 0.0
C1519 C 0.41016 0.87158 0.36389 0.0
C1520 C 0.43892 0.86399 0.37356 0.0
C1521 C 0.39319 0.85162 0.34719 0.0
C1522 C 0.40397 0.82311 0.34045 0.0
H1523 H 0.40154 0.89385 0.36716 0.0
H1524 H 0.37222 0.85914 0.33803 0.0
S1525 S 0.47564 0.79058 0.36449 0.0
N1526 N 0.47602 0.82478 0.37797 0.0
N1527 N 0.44347 0.78693 0.34724 0.0
C1528 C 0.43135 0.81416 0.35235 0.0
C1529 C 0.44903 0.83473 0.36879 0.0
C1530 C 0.37671 0.18609 0.545 0.0
C1531 C 0.38862 0.16006 0.55775 0.0
C1532 C 0.35593 0.20343 0.56049 0.0
C1533 C 0.34592 0.19499 0.58899 0.0
H1534 H 0.38376 0.19334 0.52303 0.0
H1535 H 0.34697 0.22305 0.54966 0.0
S1536 S 0.37051 0.12904 0.6323 0.0
N1537 N 0.38949 0.12709 0.60079 0.0
N1538 N 0.34972 0.15923 0.62958 0.0
C1539 C 0.35776 0.16912 0.60205 0.0
C1540 C 0.37931 0.15177 0.58651 0.0
C1541 C 0.09895 0.08543 0.82697 0.0
C1542 C 0.09645 0.11592 0.83355 0.0
C1543 C 0.0824 0.06418 0.8428 0.0
C1544 C 0.06218 0.07291 0.86507 0.0
H1545 H 0.11257 0.07812 0.8084 0.0
H1546 H 0.08366 0.04112 0.83587 0.0
S1547 S 0.04992 0.14956 0.89293 0.0
N1548 N 0.07472 0.15342 0.86596 0.0
N1549 N 0.04274 0.11356 0.89497 0.0
C1550 C 0.061 0.10306 0.87321 0.0
C1551 C 0.07842 0.12459 0.85763 0.0
C1552 C 0.16063 0.36772 0.12612 0.0
C1553 C 0.1872 0.35551 0.11488 0.0
C1554 C 0.13951 0.38043 0.10709 0.0
C1555 C 0.14384 0.38098 0.07605 0.0
H1556 H 0.15677 0.36905 0.14994 0.0
H1557 H 0.12032 0.39128 0.11691 0.0
S1558 S 0.20754 0.34822 0.03493 0.0
N1559 N 0.2152 0.34198 0.0704 0.0
N1560 N 0.17519 0.36559 0.03461 0.0
C1561 C 0.16908 0.36668 0.06428 0.0
C1562 C 0.19088 0.35407 0.08372 0.0
C1563 C 0.68638 0.09138 0.89404 0.0
C1564 C 0.68286 0.09111 0.86291 0.0
C1565 C 0.66976 0.07232 0.91241 0.0
C1566 C 0.64955 0.05184 0.90022 0.0
H1567 H 0.70242 0.1061 0.90428 0.0
H1568 H 0.67367 0.07286 0.93623 0.0
S1569 S 0.63174 0.0427 0.82003 0.0
N1570 N 0.65699 0.06932 0.8207 0.0
N1571 N 0.62626 0.03305 0.85517 0.0
C1572 C 0.6454 0.05174 0.86916 0.0
C1573 C 0.66192 0.07153 0.85051 0.0
C1574 C 0.83358 0.92061 0.33129 0.0
C1575 C 0.80741 0.90507 0.33849 0.0
C1576 C 0.84835 0.93766 0.35275 0.0
C1577 C 0.83801 0.93889 0.3823 0.0
H1578 H 0.8418 0.92098 0.30856 0.0
H1579 H 0.86764 0.95048 0.34603 0.0
S1580 S 0.77184 0.90042 0.41305 0.0
N1581 N 0.77244 0.89098 0.37745 0.0
N1582 N 0.80105 0.92205 0.41813 0.0
C1583 C 0.81284 0.92217 0.3902 0.0
C1584 C 0.79729 0.9055 0.36816 0.0
C1585 C 0.75283 0.04841 0.12258 0.0
C1586 C 0.76361 0.07768 0.12469 0.0
C1587 C 0.76664 0.0276 0.10383 0.0
C1588 C 0.79126 0.03559 0.08613 0.0
H1589 H 0.73485 0.04098 0.13689 0.0
H1590 H 0.75851 0.00491 0.10386 0.0
S1591 S 0.82516 0.11078 0.08079 0.0
N1592 N 0.79842 0.11442 0.10581 0.0
N1593 N 0.82389 0.07575 0.06984 0.0
C1594 C 0.80079 0.06544 0.0865 0.0
C1595 C 0.78707 0.08639 0.10599 0.0
C1596 C 0.32721 0.55592 0.64671 0.0
C1597 C 0.32718 0.55978 0.61564 0.0
C1598 C 0.30729 0.57175 0.66484 0.0
C1599 C 0.28597 0.59096 0.65232 0.0
H1600 H 0.3425 0.54036 0.65699 0.0
H1601 H 0.30778 0.568 0.68872 0.0
S1602 S 0.27669 0.60839 0.57208 0.0
N1603 N 0.3047 0.58462 0.5731 0.0
N1604 N 0.26622 0.61319 0.6071 0.0
C1605 C 0.2858 0.59503 0.62129 0.0
C1606 C 0.30672 0.57973 0.60295 0.0
C1607 C 0.23172 0.51836 0.32382 0.0
C1608 C 0.22009 0.5393 0.30358 0.0
C1609 C 0.21622 0.51062 0.34992 0.0
C1610 C 0.18892 0.52412 0.3571 0.0
H1611 H 0.25313 0.50812 0.31965 0.0
H1612 H 0.22614 0.4946 0.365 0.0
S1613 S 0.14834 0.57948 0.31113 0.0
N1614 N 0.17896 0.57251 0.29199 0.0
N1615 N 0.15031 0.55854 0.34137 0.0
C1616 C 0.17681 0.54471 0.33685 0.0
C1617 C 0.19225 0.55211 0.30998 0.0
C1618 C 0.30319 0.45651 0.86623 0.0
C1619 C 0.2966 0.45086 0.89632 0.0
C1620 C 0.28762 0.44198 0.84349 0.0
C1621 C 0.26432 0.42224 0.85026 0.0
H1622 H 0.32048 0.47223 0.86027 0.0
H1623 H 0.29326 0.44687 0.82048 0.0
S1624 S 0.2384 0.40048 0.92577 0.0
N1625 N 0.26586 0.42405 0.93188 0.0
N1626 N 0.23549 0.39777 0.88914 0.0
C1627 C 0.25744 0.41661 0.88031 0.0
C1628 C 0.27391 0.43069 0.90341 0.0
C1629 C 0.56975 0.67868 0.91584 0.0
C1630 C 0.55954 0.69371 0.94133 0.0
C1631 C 0.59343 0.68988 0.89887 0.0
C1632 C 0.60743 0.71681 0.90643 0.0
H1633 H 0.56006 0.65756 0.90952 0.0
H1634 H 0.60116 0.67694 0.88002 0.0
S1635 S 0.58592 0.76675 0.96885 0.0
N1636 N 0.56327 0.73802 0.97199 0.0
N1637 N 0.60723 0.75968 0.93966 0.0
C1638 C 0.59628 0.73288 0.93101 0.0
C1639 C 0.5725 0.72115 0.94861 0.0
C1640 C 0.59477 0.40313 0.1897 0.0
C1641 C 0.59263 0.37218 0.18552 0.0
C1642 C 0.57643 0.42286 0.17388 0.0
C1643 C 0.55479 0.41217 0.15406 0.0
H1644 H 0.61023 0.41211 0.20583 0.0
H1645 H 0.57814 0.44648 0.17837 0.0
S1646 S 0.54123 0.33339 0.134 0.0
N1647 N 0.56834 0.33198 0.1587 0.0
N1648 N 0.53326 0.36903 0.12984 0.0
C1649 C 0.55306 0.38142 0.14898 0.0
C1650 C 0.57218 0.36141 0.16447 0.0
C1651 C 0.89399 0.28719 0.4069 0.0
C1652 C 0.864 0.29314 0.41322 0.0
C1653 C 0.91662 0.30292 0.42121 0.0
C1654 C 0.90995 0.3244 0.44295 0.0
H1655 H 0.89999 0.27057 0.39047 0.0
H1656 H 0.93951 0.29779 0.41567 0.0
S1657 S 0.83491 0.34737 0.46818 0.0
N1658 N 0.82867 0.32181 0.44251 0.0
N1659 N 0.87141 0.35054 0.47051 0.0
C1660 C 0.88007 0.33021 0.44985 0.0
C1661 C 0.85699 0.3148 0.43463 0.0
C1662 C 0.88284 0.6092 0.64962 0.0
C1663 C 0.88033 0.64037 0.64995 0.0
C1664 C 0.90541 0.59505 0.63337 0.0
C1665 C 0.92674 0.61156 0.61736 0.0
H1666 H 0.8679 0.59561 0.66286 0.0
H1667 H 0.90695 0.57101 0.63457 0.0
S1668 S 0.92824 0.69353 0.60828 0.0
N1669 N 0.89957 0.68725 0.63048 0.0
N1670 N 0.94247 0.66051 0.60065 0.0
C1671 C 0.92372 0.64263 0.61632 0.0
C1672 C 0.90033 0.65707 0.63237 0.0
C1673 C 0.60364 0.30915 0.57079 0.0
C1674 C 0.60861 0.32566 0.54454 0.0
C1675 C 0.62582 0.29064 0.58261 0.0
C1676 C 0.65391 0.28884 0.56907 0.0
H1677 H 0.58213 0.30976 0.58171 0.0
H1678 H 0.62105 0.27783 0.60256 0.0
S1679 S 0.67831 0.3278 0.50036 0.0
N1680 N 0.64355 0.33871 0.50523 0.0
N1681 N 0.68576 0.30507 0.52839 0.0
C1682 C 0.65939 0.30565 0.54323 0.0
C1683 C 0.63655 0.32377 0.53067 0.0
C1684 C 0.92664 0.37439 0.77883 0.0
C1685 C 0.93894 0.35172 0.76118 0.0
C1686 C 0.94299 0.39989 0.7859 0.0
C1687 C 0.97255 0.40345 0.77617 0.0
H1688 H 0.90414 0.37243 0.78729 0.0
H1689 H 0.93256 0.41651 0.79993 0.0
S1690 S 0.01503 0.35039 0.72914 0.0
N1691 N 0.98219 0.33453 0.73351 0.0
N1692 N 0.01334 0.38218 0.74751 0.0
C1693 C 0.98508 0.38103 0.75821 0.0
C1694 C 0.96816 0.35525 0.75052 0.0
C1695 C 0.84835 0.6503 0.06509 0.0
C1696 C 0.84283 0.67976 0.05604 0.0
C1697 C 0.8662 0.63134 0.04791 0.0
C1698 C 0.87882 0.64098 0.0208 0.0
H1699 H 0.83923 0.64195 0.08587 0.0
H1700 H 0.87069 0.60918 0.05634 0.0
S1701 S 0.86865 0.71534 0.9858 0.0
N1702 N 0.84981 0.71719 0.01736 0.0
N1703 N 0.88285 0.68148 0.98479 0.0
C1704 C 0.87238 0.67004 0.01088 0.0
C1705 C 0.85461 0.68948 0.02862 0.0
C1706 C 0.57744 0.61334 0.29101 0.0
C1707 C 0.57184 0.64379 0.29522 0.0
C1708 C 0.56219 0.59186 0.30773 0.0
C1709 C 0.54017 0.60024 0.32835 0.0
H1710 H 0.59352 0.60611 0.2745 0.0
H1711 H 0.56678 0.56854 0.30361 0.0
S1712 S 0.51738 0.6772 0.3474 0.0
N1713 N 0.54361 0.68141 0.32186 0.0
N1714 N 0.51383 0.64092 0.35243 0.0
C1715 C 0.53454 0.63064 0.33288 0.0
C1716 C 0.55071 0.65251 0.31652 0.0
C1717 C 0.69309 0.97873 0.63506 0.0
C1718 C 0.69842 0.96962 0.60558 0.0
C1719 C 0.70752 0.96487 0.65894 0.0
C1720 C 0.72849 0.94227 0.65394 0.0
H1721 H 0.67685 -0.00407 0.63977 0.0
H1722 H 0.70217 0.97178 0.68147 0.0
S1723 S 0.75183 0.91196 0.58076 0.0
N1724 N 0.72655 0.93736 0.5725 0.0
N1725 N 0.75492 0.91222 0.61749 0.0
C1726 C 0.73496 0.93381 0.62452 0.0
C1727 C 0.71953 0.94726 0.60024 0.0
loop_
_geom_bond_atom_site_label_1
_geom_bond_atom_site_label_2
_geom_bond_distance
_geom_bond_site_symmetry_2
_ccdc_geom_bond_type
Co0 O1 2.216 . S
Co0 O2 2.091 . S
Co0 O4 2.004 . S
Co0 O10 2.021 . S
Co0 O12 2.137 . S
Co0 O13 2.244 . S
O1 Co0 2.216 . S
O1 C8 1.247 . S
O2 Co0 2.091 . S
O2 C8 1.261 . S
C3 O12 1.247 . S
C3 O13 1.272 . S
O4 Co0 2.004 . S
O4 C9 1.259 . S
Co5 O6 2.061 . S
Co5 O11 2.052 . S
Co5 O13 2.135 . S
O6 Co5 2.061 . S
O6 C9 1.235 . S
C7 O10 1.238 . S
C7 O11 1.241 . S
C8 O1 1.247 . S
C8 O2 1.261 . S
C9 O4 1.259 . S
C9 O6 1.235 . S
O10 Co0 2.021 . S
O10 C7 1.238 . S
O11 Co5 2.052 . S
O11 C7 1.241 . S
O12 Co0 2.137 . S
O12 C3 1.247 . S
O13 Co0 2.244 . S
O13 C3 1.272 . S
O13 Co5 2.135 . S
Co14 O15 2.216 . S
Co14 O16 2.091 . S
Co14 O18 1.976 1_565 S
Co14 O24 2.021 . S
Co14 O26 2.137 . S
Co14 O27 2.244 1_455 S
O15 Co14 2.216 . S
O15 C22 1.247 . S
O16 Co14 2.091 . S
O16 C22 1.261 . S
C17 O26 1.247 1_655 S
C17 O27 1.272 . S
O18 Co14 1.976 1_545 S
O18 C23 1.296 . S
Co19 O20 2.061 1_655 S
Co19 O25 2.052 1_655 S
Co19 O27 2.135 1_545 S
O20 Co19 2.061 1_455 S
O20 C23 1.235 . S
C21 O24 1.238 1_545 S
C21 O25 1.241 . S
C22 O15 1.247 . S
C22 O16 1.261 . S
C23 O18 1.296 . S
C23 O20 1.235 . S
O24 Co14 2.021 . S
O24 C21 1.238 1_565 S
O25 Co19 2.052 1_455 S
O25 C21 1.241 . S
O26 Co14 2.137 . S
O26 C17 1.247 1_455 S
O27 Co14 2.244 1_655 S
O27 C17 1.272 . S
O27 Co19 2.135 1_565 S
Co28 O29 2.216 . S
Co28 O30 2.091 . S
Co28 O32 2.004 . S
Co28 O38 2.021 . S
Co28 O40 2.137 . S
Co28 O41 2.244 . S
O29 Co28 2.216 . S
O29 C36 1.247 . S
O30 Co28 2.091 . S
O30 C36 1.261 . S
C31 O40 1.247 . S
C31 O41 1.272 . S
O32 Co28 2.004 . S
O32 C37 1.259 . S
Co33 O34 2.061 . S
Co33 O39 2.052 . S
Co33 O41 2.135 . S
O34 Co33 2.061 . S
O34 C37 1.235 . S
C35 O38 1.238 . S
C35 O39 1.241 . S
C36 O29 1.247 . S
C36 O30 1.261 . S
C37 O32 1.259 . S
C37 O34 1.235 . S
O38 Co28 2.021 . S
O38 C35 1.238 . S
O39 Co33 2.052 . S
O39 C35 1.241 . S
O40 Co28 2.137 . S
O40 C31 1.247 . S
O41 Co28 2.244 . S
O41 C31 1.272 . S
O41 Co33 2.135 . S
Co42 O43 2.216 . S
Co42 O44 2.091 . S
Co42 O46 1.976 1_545 S
Co42 O52 2.021 . S
Co42 O54 2.137 . S
Co42 O55 2.244 . S
O43 Co42 2.216 . S
O43 C50 1.247 . S
O44 Co42 2.091 . S
O44 C50 1.261 . S
C45 O54 1.247 . S
C45 O55 1.272 . S
O46 Co42 1.976 1_565 S
O46 C51 1.296 . S
Co47 O48 2.061 . S
Co47 O53 2.052 . S
Co47 O55 2.135 1_565 S
O48 Co47 2.061 . S
O48 C51 1.235 . S
C49 O52 1.238 1_565 S
C49 O53 1.241 . S
C50 O43 1.247 . S
C50 O44 1.261 . S
C51 O46 1.296 . S
C51 O48 1.235 . S
O52 Co42 2.021 . S
O52 C49 1.238 1_545 S
O53 Co47 2.052 . S
O53 C49 1.241 . S
O54 Co42 2.137 . S
O54 C45 1.247 . S
O55 Co42 2.244 . S
O55 C45 1.272 . S
O55 Co47 2.135 1_545 S
Co56 O57 2.216 . S
Co56 O58 2.091 . S
Co56 O60 2.004 . S
Co56 O66 2.021 . S
Co56 O68 2.137 . S
Co56 O69 2.244 . S
O57 Co56 2.216 . S
O57 C64 1.247 . S
O58 Co56 2.091 . S
O58 C64 1.261 . S
C59 O68 1.247 . S
C59 O69 1.272 . S
O60 Co56 2.004 . S
O60 C65 1.259 . S
Co61 O62 2.061 . S
Co61 O67 2.052 . S
Co61 O69 2.135 . S
O62 Co61 2.061 . S
O62 C65 1.235 . S
C63 O66 1.238 . S
C63 O67 1.241 . S
C64 O57 1.247 . S
C64 O58 1.261 . S
C65 O60 1.259 . S
C65 O62 1.235 . S
O66 Co56 2.021 . S
O66 C63 1.238 . S
O67 Co61 2.052 . S
O67 C63 1.241 . S
O68 Co56 2.137 . S
O68 C59 1.247 . S
O69 Co56 2.244 . S
O69 C59 1.272 . S
O69 Co61 2.135 . S
Co70 O71 2.216 . S
Co70 O72 2.091 . S
Co70 O74 1.976 1_565 S
Co70 O80 2.021 . S
Co70 O82 2.137 . S
Co70 O83 2.244 . S
O71 Co70 2.216 . S
O71 C78 1.247 . S
O72 Co70 2.091 . S
O72 C78 1.261 . S
C73 O82 1.247 . S
C73 O83 1.272 . S
O74 Co70 1.976 1_545 S
O74 C79 1.296 . S
Co75 O76 2.061 . S
Co75 O81 2.052 . S
Co75 O83 2.135 1_545 S
O76 Co75 2.061 . S
O76 C79 1.235 . S
C77 O80 1.238 1_545 S
C77 O81 1.241 . S
C78 O71 1.247 . S
C78 O72 1.261 . S
C79 O74 1.296 . S
C79 O76 1.235 . S
O80 Co70 2.021 . S
O80 C77 1.238 1_565 S
O81 Co75 2.052 . S
O81 C77 1.241 . S
O82 Co70 2.137 . S
O82 C73 1.247 . S
O83 Co70 2.244 . S
O83 C73 1.272 . S
O83 Co75 2.135 1_565 S
Co84 O85 2.216 . S
Co84 O86 2.091 . S
Co84 O88 2.004 . S
Co84 O94 2.021 . S
Co84 O96 2.137 . S
Co84 O97 2.244 . S
O85 Co84 2.216 . S
O85 C92 1.247 . S
O86 Co84 2.091 . S
O86 C92 1.261 . S
C87 O96 1.247 . S
C87 O97 1.272 . S
O88 Co84 2.004 . S
O88 C93 1.259 . S
Co89 O90 2.061 . S
Co89 O95 2.052 . S
Co89 O97 2.135 . S
O90 Co89 2.061 . S
O90 C93 1.235 . S
C91 O94 1.238 . S
C91 O95 1.241 . S
C92 O85 1.247 . S
C92 O86 1.261 . S
C93 O88 1.259 . S
C93 O90 1.235 . S
O94 Co84 2.021 . S
O94 C91 1.238 . S
O95 Co89 2.052 . S
O95 C91 1.241 . S
O96 Co84 2.137 . S
O96 C87 1.247 . S
O97 Co84 2.244 . S
O97 C87 1.272 . S
O97 Co89 2.135 . S
Co98 O99 2.216 . S
Co98 O100 2.091 . S
Co98 O102 1.976 1_545 S
Co98 O108 2.021 . S
Co98 O110 2.137 . S
Co98 O111 2.244 1_455 S
O99 Co98 2.216 . S
O99 C106 1.247 . S
O100 Co98 2.091 . S
O100 C106 1.261 . S
C101 O110 1.247 1_655 S
C101 O111 1.272 . S
O102 Co98 1.976 1_565 S
O102 C107 1.296 . S
Co103 O104 2.061 1_655 S
Co103 O109 2.052 1_655 S
Co103 O111 2.135 1_565 S
O104 Co103 2.061 1_455 S
O104 C107 1.235 . S
C105 O108 1.238 1_565 S
C105 O109 1.241 . S
C106 O99 1.247 . S
C106 O100 1.261 . S
C107 O102 1.296 . S
C107 O104 1.235 . S
O108 Co98 2.021 . S
O108 C105 1.238 1_545 S
O109 Co103 2.052 1_455 S
O109 C105 1.241 . S
O110 Co98 2.137 . S
O110 C101 1.247 1_455 S
O111 Co98 2.244 1_655 S
O111 C101 1.272 . S
O111 Co103 2.135 1_545 S
Co112 O113 2.216 . S
Co112 O114 2.091 . S
Co112 O116 2.004 . S
Co112 O122 2.021 . S
Co112 O124 2.137 . S
Co112 O125 2.244 . S
O113 Co112 2.216 . S
O113 C120 1.247 . S
O114 Co112 2.091 . S
O114 C120 1.261 . S
C115 O124 1.247 . S
C115 O125 1.272 . S
O116 Co112 2.004 . S
O116 C121 1.259 . S
Co117 O118 2.061 . S
Co117 O123 2.052 . S
Co117 O125 2.135 . S
O118 Co117 2.061 . S
O118 C121 1.235 . S
C119 O122 1.238 . S
C119 O123 1.241 . S
C120 O113 1.247 . S
C120 O114 1.261 . S
C121 O116 1.259 . S
C121 O118 1.235 . S
O122 Co112 2.021 . S
O122 C119 1.238 . S
O123 Co117 2.052 . S
O123 C119 1.241 . S
O124 Co112 2.137 . S
O124 C115 1.247 . S
O125 Co112 2.244 . S
O125 C115 1.272 . S
O125 Co117 2.135 . S
Co126 O127 2.216 . S
Co126 O128 2.091 . S
Co126 O130 1.976 1_455 S
Co126 O136 2.021 . S
Co126 O138 2.137 . S
Co126 O139 2.244 . S
O127 Co126 2.216 . S
O127 C134 1.247 . S
O128 Co126 2.091 . S
O128 C134 1.261 . S
C129 O138 1.247 . S
C129 O139 1.272 . S
O130 Co126 1.976 1_655 S
O130 C135 1.296 . S
Co131 O132 2.061 . S
Co131 O137 2.052 . S
Co131 O139 2.135 1_655 S
O132 Co131 2.061 . S
O132 C135 1.235 . S
C133 O136 1.238 1_655 S
C133 O137 1.241 . S
C134 O127 1.247 . S
C134 O128 1.261 . S
C135 O130 1.296 . S
C135 O132 1.235 . S
O136 Co126 2.021 . S
O136 C133 1.238 1_455 S
O137 Co131 2.052 . S
O137 C133 1.241 . S
O138 Co126 2.137 . S
O138 C129 1.247 . S
O139 Co126 2.244 . S
O139 C129 1.272 . S
O139 Co131 2.135 1_455 S
Co140 O141 2.216 . S
Co140 O142 2.091 . S
Co140 O144 2.004 . S
Co140 O150 2.021 . S
Co140 O152 2.137 . S
Co140 O153 2.244 . S
O141 Co140 2.216 . S
O141 C148 1.247 . S
O142 Co140 2.091 . S
O142 C148 1.261 . S
C143 O152 1.247 . S
C143 O153 1.272 . S
O144 Co140 2.004 . S
O144 C149 1.259 . S
Co145 O146 2.061 . S
Co145 O151 2.052 . S
Co145 O153 2.135 . S
O146 Co145 2.061 . S
O146 C149 1.235 . S
C147 O150 1.238 . S
C147 O151 1.241 . S
C148 O141 1.247 . S
C148 O142 1.261 . S
C149 O144 1.259 . S
C149 O146 1.235 . S
O150 Co140 2.021 . S
O150 C147 1.238 . S
O151 Co145 2.052 . S
O151 C147 1.241 . S
O152 Co140 2.137 . S
O152 C143 1.247 . S
O153 Co140 2.244 . S
O153 C143 1.272 . S
O153 Co145 2.135 . S
Co154 O155 2.216 . S
Co154 O156 2.091 . S
Co154 O158 2.004 . S
Co154 O164 2.021 . S
Co154 O166 2.137 . S
Co154 O167 2.244 1_556 S
O155 Co154 2.216 . S
O155 C162 1.247 . S
O156 Co154 2.091 . S
O156 C162 1.261 . S
C157 O166 1.247 1_554 S
C157 O167 1.272 . S
O158 Co154 2.004 . S
O158 C163 1.259 . S
Co159 O160 2.061 1_554 S
Co159 O165 2.052 1_554 S
Co159 O167 2.135 . S
O160 Co159 2.061 1_556 S
O160 C163 1.235 . S
C161 O164 1.238 . S
C161 O165 1.241 . S
C162 O155 1.247 . S
C162 O156 1.261 . S
C163 O158 1.259 . S
C163 O160 1.235 . S
O164 Co154 2.021 . S
O164 C161 1.238 . S
O165 Co159 2.052 1_556 S
O165 C161 1.241 . S
O166 Co154 2.137 . S
O166 C157 1.247 1_556 S
O167 Co154 2.244 1_554 S
O167 C157 1.272 . S
O167 Co159 2.135 . S
Co168 O169 2.216 . S
Co168 O170 2.091 . S
Co168 O172 2.004 . S
Co168 O178 2.021 . S
Co168 O180 2.137 . S
Co168 O181 2.244 . S
O169 Co168 2.216 . S
O169 C176 1.247 . S
O170 Co168 2.091 . S
O170 C176 1.261 . S
C171 O180 1.247 . S
C171 O181 1.272 . S
O172 Co168 2.004 . S
O172 C177 1.259 . S
Co173 O174 2.061 . S
Co173 O179 2.052 . S
Co173 O181 2.135 . S
O174 Co173 2.061 . S
O174 C177 1.235 . S
C175 O178 1.238 . S
C175 O179 1.241 . S
C176 O169 1.247 . S
C176 O170 1.261 . S
C177 O172 1.259 . S
C177 O174 1.235 . S
O178 Co168 2.021 . S
O178 C175 1.238 . S
O179 Co173 2.052 . S
O179 C175 1.241 . S
O180 Co168 2.137 . S
O180 C171 1.247 . S
O181 Co168 2.244 . S
O181 C171 1.272 . S
O181 Co173 2.135 . S
Co182 O183 2.216 . S
Co182 O184 2.091 . S
Co182 O186 2.004 . S
Co182 O192 2.021 . S
Co182 O194 2.137 . S
Co182 O195 2.244 . S
O183 Co182 2.216 . S
O183 C190 1.247 . S
O184 Co182 2.091 . S
O184 C190 1.261 . S
C185 O194 1.247 . S
C185 O195 1.272 . S
O186 Co182 2.004 . S
O186 C191 1.259 . S
Co187 O188 2.061 . S
Co187 O193 2.052 . S
Co187 O195 2.135 . S
O188 Co187 2.061 . S
O188 C191 1.235 . S
C189 O192 1.238 . S
C189 O193 1.241 . S
C190 O183 1.247 . S
C190 O184 1.261 . S
C191 O186 1.259 . S
C191 O188 1.235 . S
O192 Co182 2.021 . S
O192 C189 1.238 . S
O193 Co187 2.052 . S
O193 C189 1.241 . S
O194 Co182 2.137 . S
O194 C185 1.247 . S
O195 Co182 2.244 . S
O195 C185 1.272 . S
O195 Co187 2.135 . S
Co196 O197 2.216 . S
Co196 O198 2.091 . S
Co196 O200 2.004 . S
Co196 O206 2.021 . S
Co196 O208 2.137 . S
Co196 O209 2.244 . S
O197 Co196 2.216 . S
O197 C204 1.247 . S
O198 Co196 2.091 . S
O198 C204 1.261 . S
C199 O208 1.247 . S
C199 O209 1.272 . S
O200 Co196 2.004 . S
O200 C205 1.259 . S
Co201 O202 2.061 . S
Co201 O207 2.052 . S
Co201 O209 2.135 . S
O202 Co201 2.061 . S
O202 C205 1.235 . S
C203 O206 1.238 . S
C203 O207 1.241 . S
C204 O197 1.247 . S
C204 O198 1.261 . S
C205 O200 1.259 . S
C205 O202 1.235 . S
O206 Co196 2.021 . S
O206 C203 1.238 . S
O207 Co201 2.052 . S
O207 C203 1.241 . S
O208 Co196 2.137 . S
O208 C199 1.247 . S
O209 Co196 2.244 . S
O209 C199 1.272 . S
O209 Co201 2.135 . S
Co210 O211 2.216 . S
Co210 O212 2.091 . S
Co210 O214 1.976 1_455 S
Co210 O220 2.021 . S
Co210 O222 2.137 . S
Co210 O223 2.244 1_554 S
O211 Co210 2.216 . S
O211 C218 1.247 . S
O212 Co210 2.091 . S
O212 C218 1.261 . S
C213 O222 1.247 1_556 S
C213 O223 1.272 . S
O214 Co210 1.976 1_655 S
O214 C219 1.296 . S
Co215 O216 2.061 1_556 S
Co215 O221 2.052 1_556 S
Co215 O223 2.135 1_655 S
O216 Co215 2.061 1_554 S
O216 C219 1.235 . S
C217 O220 1.238 1_655 S
C217 O221 1.241 . S
C218 O211 1.247 . S
C218 O212 1.261 . S
C219 O214 1.296 . S
C219 O216 1.235 . S
O220 Co210 2.021 . S
O220 C217 1.238 1_455 S
O221 Co215 2.052 1_554 S
O221 C217 1.241 . S
O222 Co210 2.137 . S
O222 C213 1.247 1_554 S
O223 Co210 2.244 1_556 S
O223 C213 1.272 . S
O223 Co215 2.135 1_455 S
Co224 O225 2.216 . S
Co224 O226 2.091 . S
Co224 O228 2.004 . S
Co224 O234 2.021 . S
Co224 O236 2.137 . S
Co224 O237 2.244 . S
O225 Co224 2.216 . S
O225 C232 1.247 . S
O226 Co224 2.091 . S
O226 C232 1.261 . S
C227 O236 1.247 . S
C227 O237 1.272 . S
O228 Co224 2.004 . S
O228 C233 1.259 . S
Co229 O230 2.061 . S
Co229 O235 2.052 . S
Co229 O237 2.135 . S
O230 Co229 2.061 . S
O230 C233 1.235 . S
C231 O234 1.238 . S
C231 O235 1.241 . S
C232 O225 1.247 . S
C232 O226 1.261 . S
C233 O228 1.259 . S
C233 O230 1.235 . S
O234 Co224 2.021 . S
O234 C231 1.238 . S
O235 Co229 2.052 . S
O235 C231 1.241 . S
O236 Co224 2.137 . S
O236 C227 1.247 . S
O237 Co224 2.244 . S
O237 C227 1.272 . S
O237 Co229 2.135 . S
Co238 O239 2.216 . S
Co238 O240 2.091 . S
Co238 O242 2.004 . S
Co238 O248 2.021 . S
Co238 O250 2.137 . S
Co238 O251 2.244 . S
O239 Co238 2.216 . S
O239 C246 1.247 . S
O240 Co238 2.091 . S
O240 C246 1.261 . S
C241 O250 1.247 . S
C241 O251 1.272 . S
O242 Co238 2.004 . S
O242 C247 1.259 . S
Co243 O244 2.061 . S
Co243 O249 2.052 . S
Co243 O251 2.135 . S
O244 Co243 2.061 . S
O244 C247 1.235 . S
C245 O248 1.238 . S
C245 O249 1.241 . S
C246 O239 1.247 . S
C246 O240 1.261 . S
C247 O242 1.259 . S
C247 O244 1.235 . S
O248 Co238 2.021 . S
O248 C245 1.238 . S
O249 Co243 2.052 . S
O249 C245 1.241 . S
O250 Co238 2.137 . S
O250 C241 1.247 . S
O251 Co238 2.244 . S
O251 C241 1.272 . S
O251 Co243 2.135 . S
Co252 O253 2.216 . S
Co252 O254 2.091 . S
Co252 O256 1.976 1_554 S
Co252 O262 2.021 . S
Co252 O264 2.137 . S
Co252 O265 2.244 . S
O253 Co252 2.216 . S
O253 C260 1.247 . S
O254 Co252 2.091 . S
O254 C260 1.261 . S
C255 O264 1.247 . S
C255 O265 1.272 . S
O256 Co252 1.976 1_556 S
O256 C261 1.296 . S
Co257 O258 2.061 . S
Co257 O263 2.052 . S
Co257 O265 2.135 1_556 S
O258 Co257 2.061 . S
O258 C261 1.235 . S
C259 O262 1.238 1_556 S
C259 O263 1.241 . S
C260 O253 1.247 . S
C260 O254 1.261 . S
C261 O256 1.296 . S
C261 O258 1.235 . S
O262 Co252 2.021 . S
O262 C259 1.238 1_554 S
O263 Co257 2.052 . S
O263 C259 1.241 . S
O264 Co252 2.137 . S
O264 C255 1.247 . S
O265 Co252 2.244 . S
O265 C255 1.272 . S
O265 Co257 2.135 1_554 S
Co266 O267 2.216 . S
Co266 O268 2.091 . S
Co266 O270 2.004 . S
Co266 O276 2.021 . S
Co266 O278 2.137 . S
Co266 O279 2.244 . S
O267 Co266 2.216 . S
O267 C274 1.247 . S
O268 Co266 2.091 . S
O268 C274 1.261 . S
C269 O278 1.247 . S
C269 O279 1.272 . S
O270 Co266 2.004 . S
O270 C275 1.259 . S
Co271 O272 2.061 . S
Co271 O277 2.052 . S
Co271 O279 2.135 . S
O272 Co271 2.061 . S
O272 C275 1.235 . S
C273 O276 1.238 . S
C273 O277 1.241 . S
C274 O267 1.247 . S
C274 O268 1.261 . S
C275 O270 1.259 . S
C275 O272 1.235 . S
O276 Co266 2.021 . S
O276 C273 1.238 . S
O277 Co271 2.052 . S
O277 C273 1.241 . S
O278 Co266 2.137 . S
O278 C269 1.247 . S
O279 Co266 2.244 . S
O279 C269 1.272 . S
O279 Co271 2.135 . S
Co280 O281 2.216 . S
Co280 O282 2.091 . S
Co280 O284 1.976 1_554 S
Co280 O290 2.021 . S
Co280 O292 2.137 . S
Co280 O293 2.244 1_545 S
O281 Co280 2.216 . S
O281 C288 1.247 . S
O282 Co280 2.091 . S
O282 C288 1.261 . S
C283 O292 1.247 1_565 S
C283 O293 1.272 . S
O284 Co280 1.976 1_556 S
O284 C289 1.296 . S
Co285 O286 2.061 1_565 S
Co285 O291 2.052 1_565 S
Co285 O293 2.135 1_556 S
O286 Co285 2.061 1_545 S
O286 C289 1.235 . S
C287 O290 1.238 1_556 S
C287 O291 1.241 . S
C288 O281 1.247 . S
C288 O282 1.261 . S
C289 O284 1.296 . S
C289 O286 1.235 . S
O290 Co280 2.021 . S
O290 C287 1.238 1_554 S
O291 Co285 2.052 1_545 S
O291 C287 1.241 . S
O292 Co280 2.137 . S
O292 C283 1.247 1_545 S
O293 Co280 2.244 1_565 S
O293 C283 1.272 . S
O293 Co285 2.135 1_554 S
Co294 O295 2.216 . S
Co294 O296 2.091 . S
Co294 O298 2.004 . S
Co294 O304 2.021 . S
Co294 O306 2.137 . S
Co294 O307 2.244 . S
O295 Co294 2.216 . S
O295 C302 1.247 . S
O296 Co294 2.091 . S
O296 C302 1.261 . S
C297 O306 1.247 . S
C297 O307 1.272 . S
O298 Co294 2.004 . S
O298 C303 1.259 . S
Co299 O300 2.061 . S
Co299 O305 2.052 . S
Co299 O307 2.135 . S
O300 Co299 2.061 . S
O300 C303 1.235 . S
C301 O304 1.238 . S
C301 O305 1.241 . S
C302 O295 1.247 . S
C302 O296 1.261 . S
C303 O298 1.259 . S
C303 O300 1.235 . S
O304 Co294 2.021 . S
O304 C301 1.238 . S
O305 Co299 2.052 . S
O305 C301 1.241 . S
O306 Co294 2.137 . S
O306 C297 1.247 . S
O307 Co294 2.244 . S
O307 C297 1.272 . S
O307 Co299 2.135 . S
Co308 O309 2.216 . S
Co308 O310 2.091 . S
Co308 O312 2.004 . S
Co308 O318 2.021 . S
Co308 O320 2.137 . S
Co308 O321 2.244 . S
O309 Co308 2.216 . S
O309 C316 1.247 . S
O310 Co308 2.091 . S
O310 C316 1.261 . S
C311 O320 1.247 . S
C311 O321 1.272 . S
O312 Co308 2.004 . S
O312 C317 1.259 . S
Co313 O314 2.061 . S
Co313 O319 2.052 . S
Co313 O321 2.135 . S
O314 Co313 2.061 . S
O314 C317 1.235 . S
C315 O318 1.238 . S
C315 O319 1.241 . S
C316 O309 1.247 . S
C316 O310 1.261 . S
C317 O312 1.259 . S
C317 O314 1.235 . S
O318 Co308 2.021 . S
O318 C315 1.238 . S
O319 Co313 2.052 . S
O319 C315 1.241 . S
O320 Co308 2.137 . S
O320 C311 1.247 . S
O321 Co308 2.244 . S
O321 C311 1.272 . S
O321 Co313 2.135 . S
Co322 O323 2.216 . S
Co322 O324 2.091 . S
Co322 O326 1.976 1_556 S
Co322 O332 2.021 . S
Co322 O334 2.137 . S
Co322 O335 2.244 . S
O323 Co322 2.216 . S
O323 C330 1.247 . S
O324 Co322 2.091 . S
O324 C330 1.261 . S
C325 O334 1.247 . S
C325 O335 1.272 . S
O326 Co322 1.976 1_554 S
O326 C331 1.296 . S
Co327 O328 2.061 . S
Co327 O333 2.052 . S
Co327 O335 2.135 1_554 S
O328 Co327 2.061 . S
O328 C331 1.235 . S
C329 O332 1.238 1_554 S
C329 O333 1.241 . S
C330 O323 1.247 . S
C330 O324 1.261 . S
C331 O326 1.296 . S
C331 O328 1.235 . S
O332 Co322 2.021 . S
O332 C329 1.238 1_556 S
O333 Co327 2.052 . S
O333 C329 1.241 . S
O334 Co322 2.137 . S
O334 C325 1.247 . S
O335 Co322 2.244 . S
O335 C325 1.272 . S
O335 Co327 2.135 1_556 S
Co336 O337 2.216 . S
Co336 O338 2.091 . S
Co336 O340 2.004 . S
Co336 O346 2.021 . S
Co336 O348 2.137 . S
Co336 O349 2.244 . S
O337 Co336 2.216 . S
O337 C344 1.247 . S
O338 Co336 2.091 . S
O338 C344 1.261 . S
C339 O348 1.247 . S
C339 O349 1.272 . S
O340 Co336 2.004 . S
O340 C345 1.259 . S
Co341 O342 2.061 . S
Co341 O347 2.052 . S
Co341 O349 2.135 . S
O342 Co341 2.061 . S
O342 C345 1.235 . S
C343 O346 1.238 . S
C343 O347 1.241 . S
C344 O337 1.247 . S
C344 O338 1.261 . S
C345 O340 1.259 . S
C345 O342 1.235 . S
O346 Co336 2.021 . S
O346 C343 1.238 . S
O347 Co341 2.052 . S
O347 C343 1.241 . S
O348 Co336 2.137 . S
O348 C339 1.247 . S
O349 Co336 2.244 . S
O349 C339 1.272 . S
O349 Co341 2.135 . S
Co350 O351 2.216 . S
Co350 O352 2.091 . S
Co350 O354 2.004 . S
Co350 O360 2.021 . S
Co350 O362 2.137 . S
Co350 O363 2.244 . S
O351 Co350 2.216 . S
O351 C358 1.247 . S
O352 Co350 2.091 . S
O352 C358 1.261 . S
C353 O362 1.247 . S
C353 O363 1.272 . S
O354 Co350 2.004 . S
O354 C359 1.259 . S
Co355 O356 2.061 . S
Co355 O361 2.052 . S
Co355 O363 2.135 . S
O356 Co355 2.061 . S
O356 C359 1.235 . S
C357 O360 1.238 . S
C357 O361 1.241 . S
C358 O351 1.247 . S
C358 O352 1.261 . S
C359 O354 1.259 . S
C359 O356 1.235 . S
O360 Co350 2.021 . S
O360 C357 1.238 . S
O361 Co355 2.052 . S
O361 C357 1.241 . S
O362 Co350 2.137 . S
O362 C353 1.247 . S
O363 Co350 2.244 . S
O363 C353 1.272 . S
O363 Co355 2.135 . S
Co364 O365 2.216 . S
Co364 O366 2.091 . S
Co364 O368 2.004 . S
Co364 O374 2.021 . S
Co364 O376 2.137 . S
Co364 O377 2.244 . S
O365 Co364 2.216 . S
O365 C372 1.247 . S
O366 Co364 2.091 . S
O366 C372 1.261 . S
C367 O376 1.247 . S
C367 O377 1.272 . S
O368 Co364 2.004 . S
O368 C373 1.259 . S
Co369 O370 2.061 . S
Co369 O375 2.052 . S
Co369 O377 2.135 . S
O370 Co369 2.061 . S
O370 C373 1.235 . S
C371 O374 1.238 . S
C371 O375 1.241 . S
C372 O365 1.247 . S
C372 O366 1.261 . S
C373 O368 1.259 . S
C373 O370 1.235 . S
O374 Co364 2.021 . S
O374 C371 1.238 . S
O375 Co369 2.052 . S
O375 C371 1.241 . S
O376 Co364 2.137 . S
O376 C367 1.247 . S
O377 Co364 2.244 . S
O377 C367 1.272 . S
O377 Co369 2.135 . S
Co378 O379 2.216 . S
Co378 O380 2.091 . S
Co378 O382 2.004 . S
Co378 O388 2.021 . S
Co378 O390 2.137 . S
Co378 O391 2.244 1_655 S
O379 Co378 2.216 . S
O379 C386 1.247 . S
O380 Co378 2.091 . S
O380 C386 1.261 . S
C381 O390 1.247 1_455 S
C381 O391 1.272 . S
O382 Co378 2.004 . S
O382 C387 1.259 . S
Co383 O384 2.061 1_455 S
Co383 O389 2.052 1_455 S
Co383 O391 2.135 . S
O384 Co383 2.061 1_655 S
O384 C387 1.235 . S
C385 O388 1.238 . S
C385 O389 1.241 . S
C386 O379 1.247 . S
C386 O380 1.261 . S
C387 O382 1.259 . S
C387 O384 1.235 . S
O388 Co378 2.021 . S
O388 C385 1.238 . S
O389 Co383 2.052 1_655 S
O389 C385 1.241 . S
O390 Co378 2.137 . S
O390 C381 1.247 1_655 S
O391 Co378 2.244 1_455 S
O391 C381 1.272 . S
O391 Co383 2.135 . S
Co392 O393 2.216 . S
Co392 O394 2.091 . S
Co392 O396 2.004 . S
Co392 O402 2.021 . S
Co392 O404 2.137 . S
Co392 O405 2.244 . S
O393 Co392 2.216 . S
O393 C400 1.247 . S
O394 Co392 2.091 . S
O394 C400 1.261 . S
C395 O404 1.247 . S
C395 O405 1.272 . S
O396 Co392 2.004 . S
O396 C401 1.259 . S
Co397 O398 2.061 . S
Co397 O403 2.052 . S
Co397 O405 2.135 . S
O398 Co397 2.061 . S
O398 C401 1.235 . S
C399 O402 1.238 . S
C399 O403 1.241 . S
C400 O393 1.247 . S
C400 O394 1.261 . S
C401 O396 1.259 . S
C401 O398 1.235 . S
O402 Co392 2.021 . S
O402 C399 1.238 . S
O403 Co397 2.052 . S
O403 C399 1.241 . S
O404 Co392 2.137 . S
O404 C395 1.247 . S
O405 Co392 2.244 . S
O405 C395 1.272 . S
O405 Co397 2.135 . S
Co406 O407 2.216 . S
Co406 O408 2.091 . S
Co406 O410 2.004 . S
Co406 O416 2.021 . S
Co406 O418 2.137 . S
Co406 O419 2.244 1_655 S
O407 Co406 2.216 . S
O407 C414 1.247 . S
O408 Co406 2.091 . S
O408 C414 1.261 . S
C409 O418 1.247 1_455 S
C409 O419 1.272 . S
O410 Co406 2.004 . S
O410 C415 1.259 . S
Co411 O412 2.061 1_455 S
Co411 O417 2.052 1_455 S
Co411 O419 2.135 . S
O412 Co411 2.061 1_655 S
O412 C415 1.235 . S
C413 O416 1.238 . S
C413 O417 1.241 . S
C414 O407 1.247 . S
C414 O408 1.261 . S
C415 O410 1.259 . S
C415 O412 1.235 . S
O416 Co406 2.021 . S
O416 C413 1.238 . S
O417 Co411 2.052 1_655 S
O417 C413 1.241 . S
O418 Co406 2.137 . S
O418 C409 1.247 1_655 S
O419 Co406 2.244 1_455 S
O419 C409 1.272 . S
O419 Co411 2.135 . S
Co420 O421 2.216 . S
Co420 O422 2.091 . S
Co420 O424 2.004 . S
Co420 O430 2.021 . S
Co420 O432 2.137 . S
Co420 O433 2.244 . S
O421 Co420 2.216 . S
O421 C428 1.247 . S
O422 Co420 2.091 . S
O422 C428 1.261 . S
C423 O432 1.247 . S
C423 O433 1.272 . S
O424 Co420 2.004 . S
O424 C429 1.259 . S
Co425 O426 2.061 . S
Co425 O431 2.052 . S
Co425 O433 2.135 . S
O426 Co425 2.061 . S
O426 C429 1.235 . S
C427 O430 1.238 . S
C427 O431 1.241 . S
C428 O421 1.247 . S
C428 O422 1.261 . S
C429 O424 1.259 . S
C429 O426 1.235 . S
O430 Co420 2.021 . S
O430 C427 1.238 . S
O431 Co425 2.052 . S
O431 C427 1.241 . S
O432 Co420 2.137 . S
O432 C423 1.247 . S
O433 Co420 2.244 . S
O433 C423 1.272 . S
O433 Co425 2.135 . S
Co434 O435 2.216 . S
Co434 O436 2.091 . S
Co434 O438 2.004 . S
Co434 O444 2.021 . S
Co434 O446 2.137 . S
Co434 O447 2.244 . S
O435 Co434 2.216 . S
O435 C442 1.247 . S
O436 Co434 2.091 . S
O436 C442 1.261 . S
C437 O446 1.247 . S
C437 O447 1.272 . S
O438 Co434 2.004 . S
O438 C443 1.259 . S
Co439 O440 2.061 . S
Co439 O445 2.052 . S
Co439 O447 2.135 . S
O440 Co439 2.061 . S
O440 C443 1.235 . S
C441 O444 1.238 . S
C441 O445 1.241 . S
C442 O435 1.247 . S
C442 O436 1.261 . S
C443 O438 1.259 . S
C443 O440 1.235 . S
O444 Co434 2.021 . S
O444 C441 1.238 . S
O445 Co439 2.052 . S
O445 C441 1.241 . S
O446 Co434 2.137 . S
O446 C437 1.247 . S
O447 Co434 2.244 . S
O447 C437 1.272 . S
O447 Co439 2.135 . S
Co448 O449 2.216 . S
Co448 O450 2.091 . S
Co448 O452 2.004 . S
Co448 O458 2.021 . S
Co448 O460 2.137 . S
Co448 O461 2.244 . S
O449 Co448 2.216 . S
O449 C456 1.247 . S
O450 Co448 2.091 . S
O450 C456 1.261 . S
C451 O460 1.247 . S
C451 O461 1.272 . S
O452 Co448 2.004 . S
O452 C457 1.259 . S
Co453 O454 2.061 . S
Co453 O459 2.052 . S
Co453 O461 2.135 . S
O454 Co453 2.061 . S
O454 C457 1.235 . S
C455 O458 1.238 . S
C455 O459 1.241 . S
C456 O449 1.247 . S
C456 O450 1.261 . S
C457 O452 1.259 . S
C457 O454 1.235 . S
O458 Co448 2.021 . S
O458 C455 1.238 . S
O459 Co453 2.052 . S
O459 C455 1.241 . S
O460 Co448 2.137 . S
O460 C451 1.247 . S
O461 Co448 2.244 . S
O461 C451 1.272 . S
O461 Co453 2.135 . S
Co462 O463 2.216 . S
Co462 O464 2.091 . S
Co462 O466 2.004 . S
Co462 O472 2.021 . S
Co462 O474 2.137 . S
Co462 O475 2.244 1_556 S
O463 Co462 2.216 . S
O463 C470 1.247 . S
O464 Co462 2.091 . S
O464 C470 1.261 . S
C465 O474 1.247 1_554 S
C465 O475 1.272 . S
O466 Co462 2.004 . S
O466 C471 1.259 . S
Co467 O468 2.061 1_554 S
Co467 O473 2.052 1_554 S
Co467 O475 2.135 . S
O468 Co467 2.061 1_556 S
O468 C471 1.235 . S
C469 O472 1.238 . S
C469 O473 1.241 . S
C470 O463 1.247 . S
C470 O464 1.261 . S
C471 O466 1.259 . S
C471 O468 1.235 . S
O472 Co462 2.021 . S
O472 C469 1.238 . S
O473 Co467 2.052 1_556 S
O473 C469 1.241 . S
O474 Co462 2.137 . S
O474 C465 1.247 1_556 S
O475 Co462 2.244 1_554 S
O475 C465 1.272 . S
O475 Co467 2.135 . S
Co476 O477 2.216 . S
Co476 O478 2.091 . S
Co476 O480 2.004 . S
Co476 O486 2.021 . S
Co476 O488 2.137 . S
Co476 O489 2.244 . S
O477 Co476 2.216 . S
O477 C484 1.247 . S
O478 Co476 2.091 . S
O478 C484 1.261 . S
C479 O488 1.247 . S
C479 O489 1.272 . S
O480 Co476 2.004 . S
O480 C485 1.259 . S
Co481 O482 2.061 . S
Co481 O487 2.052 . S
Co481 O489 2.135 . S
O482 Co481 2.061 . S
O482 C485 1.235 . S
C483 O486 1.238 . S
C483 O487 1.241 . S
C484 O477 1.247 . S
C484 O478 1.261 . S
C485 O480 1.259 . S
C485 O482 1.235 . S
O486 Co476 2.021 . S
O486 C483 1.238 . S
O487 Co481 2.052 . S
O487 C483 1.241 . S
O488 Co476 2.137 . S
O488 C479 1.247 . S
O489 Co476 2.244 . S
O489 C479 1.272 . S
O489 Co481 2.135 . S
Co490 O491 2.216 . S
Co490 O492 2.091 . S
Co490 O494 1.976 1_655 S
Co490 O500 2.021 . S
Co490 O502 2.137 . S
Co490 O503 2.244 . S
O491 Co490 2.216 . S
O491 C498 1.247 . S
O492 Co490 2.091 . S
O492 C498 1.261 . S
C493 O502 1.247 . S
C493 O503 1.272 . S
O494 Co490 1.976 1_455 S
O494 C499 1.296 . S
Co495 O496 2.061 . S
Co495 O501 2.052 . S
Co495 O503 2.135 1_455 S
O496 Co495 2.061 . S
O496 C499 1.235 . S
C497 O500 1.238 1_455 S
C497 O501 1.241 . S
C498 O491 1.247 . S
C498 O492 1.261 . S
C499 O494 1.296 . S
C499 O496 1.235 . S
O500 Co490 2.021 . S
O500 C497 1.238 1_655 S
O501 Co495 2.052 . S
O501 C497 1.241 . S
O502 Co490 2.137 . S
O502 C493 1.247 . S
O503 Co490 2.244 . S
O503 C493 1.272 . S
O503 Co495 2.135 1_655 S
Co504 O505 2.216 . S
Co504 O506 2.091 . S
Co504 O508 2.004 . S
Co504 O514 2.021 . S
Co504 O516 2.137 . S
Co504 O517 2.244 . S
O505 Co504 2.216 . S
O505 C512 1.247 . S
O506 Co504 2.091 . S
O506 C512 1.261 . S
C507 O516 1.247 . S
C507 O517 1.272 . S
O508 Co504 2.004 . S
O508 C513 1.259 . S
Co509 O510 2.061 . S
Co509 O515 2.052 . S
Co509 O517 2.135 . S
O510 Co509 2.061 . S
O510 C513 1.235 . S
C511 O514 1.238 . S
C511 O515 1.241 . S
C512 O505 1.247 . S
C512 O506 1.261 . S
C513 O508 1.259 . S
C513 O510 1.235 . S
O514 Co504 2.021 . S
O514 C511 1.238 . S
O515 Co509 2.052 . S
O515 C511 1.241 . S
O516 Co504 2.137 . S
O516 C507 1.247 . S
O517 Co504 2.244 . S
O517 C507 1.272 . S
O517 Co509 2.135 . S
Co518 O519 2.216 . S
Co518 O520 2.091 . S
Co518 O522 1.976 1_655 S
Co518 O528 2.021 . S
Co518 O530 2.137 . S
Co518 O531 2.244 1_554 S
O519 Co518 2.216 . S
O519 C526 1.247 . S
O520 Co518 2.091 . S
O520 C526 1.261 . S
C521 O530 1.247 1_556 S
C521 O531 1.272 . S
O522 Co518 1.976 1_455 S
O522 C527 1.296 . S
Co523 O524 2.061 1_556 S
Co523 O529 2.052 1_556 S
Co523 O531 2.135 1_455 S
O524 Co523 2.061 1_554 S
O524 C527 1.235 . S
C525 O528 1.238 1_455 S
C525 O529 1.241 . S
C526 O519 1.247 . S
C526 O520 1.261 . S
C527 O522 1.296 . S
C527 O524 1.235 . S
O528 Co518 2.021 . S
O528 C525 1.238 1_655 S
O529 Co523 2.052 1_554 S
O529 C525 1.241 . S
O530 Co518 2.137 . S
O530 C521 1.247 1_554 S
O531 Co518 2.244 1_556 S
O531 C521 1.272 . S
O531 Co523 2.135 1_655 S
Co532 O533 2.216 . S
Co532 O534 2.091 . S
Co532 O536 2.004 . S
Co532 O542 2.021 . S
Co532 O544 2.137 . S
Co532 O545 2.244 . S
O533 Co532 2.216 . S
O533 C540 1.247 . S
O534 Co532 2.091 . S
O534 C540 1.261 . S
C535 O544 1.247 . S
C535 O545 1.272 . S
O536 Co532 2.004 . S
O536 C541 1.259 . S
Co537 O538 2.061 . S
Co537 O543 2.052 . S
Co537 O545 2.135 . S
O538 Co537 2.061 . S
O538 C541 1.235 . S
C539 O542 1.238 . S
C539 O543 1.241 . S
C540 O533 1.247 . S
C540 O534 1.261 . S
C541 O536 1.259 . S
C541 O538 1.235 . S
O542 Co532 2.021 . S
O542 C539 1.238 . S
O543 Co537 2.052 . S
O543 C539 1.241 . S
O544 Co532 2.137 . S
O544 C535 1.247 . S
O545 Co532 2.244 . S
O545 C535 1.272 . S
O545 Co537 2.135 . S
Co546 O547 2.216 . S
Co546 O548 2.091 . S
Co546 O550 2.004 . S
Co546 O556 2.021 . S
Co546 O558 2.137 . S
Co546 O559 2.244 . S
O547 Co546 2.216 . S
O547 C554 1.247 . S
O548 Co546 2.091 . S
O548 C554 1.261 . S
C549 O558 1.247 . S
C549 O559 1.272 . S
O550 Co546 2.004 . S
O550 C555 1.259 . S
Co551 O552 2.061 . S
Co551 O557 2.052 . S
Co551 O559 2.135 . S
O552 Co551 2.061 . S
O552 C555 1.235 . S
C553 O556 1.238 . S
C553 O557 1.241 . S
C554 O547 1.247 . S
C554 O548 1.261 . S
C555 O550 1.259 . S
C555 O552 1.235 . S
O556 Co546 2.021 . S
O556 C553 1.238 . S
O557 Co551 2.052 . S
O557 C553 1.241 . S
O558 Co546 2.137 . S
O558 C549 1.247 . S
O559 Co546 2.244 . S
O559 C549 1.272 . S
O559 Co551 2.135 . S
Co560 O561 2.216 . S
Co560 O562 2.091 . S
Co560 O564 2.004 . S
Co560 O570 2.021 . S
Co560 O572 2.137 . S
Co560 O573 2.244 . S
O561 Co560 2.216 . S
O561 C568 1.247 . S
O562 Co560 2.091 . S
O562 C568 1.261 . S
C563 O572 1.247 . S
C563 O573 1.272 . S
O564 Co560 2.004 . S
O564 C569 1.259 . S
Co565 O566 2.061 . S
Co565 O571 2.052 . S
Co565 O573 2.135 . S
O566 Co565 2.061 . S
O566 C569 1.235 . S
C567 O570 1.238 . S
C567 O571 1.241 . S
C568 O561 1.247 . S
C568 O562 1.261 . S
C569 O564 1.259 . S
C569 O566 1.235 . S
O570 Co560 2.021 . S
O570 C567 1.238 . S
O571 Co565 2.052 . S
O571 C567 1.241 . S
O572 Co560 2.137 . S
O572 C563 1.247 . S
O573 Co560 2.244 . S
O573 C563 1.272 . S
O573 Co565 2.135 . S
Co574 O575 2.216 . S
Co574 O576 2.091 . S
Co574 O578 2.004 . S
Co574 O584 2.021 . S
Co574 O586 2.137 . S
Co574 O587 2.244 . S
O575 Co574 2.216 . S
O575 C582 1.247 . S
O576 Co574 2.091 . S
O576 C582 1.261 . S
C577 O586 1.247 . S
C577 O587 1.272 . S
O578 Co574 2.004 . S
O578 C583 1.259 . S
Co579 O580 2.061 . S
Co579 O585 2.052 . S
Co579 O587 2.135 . S
O580 Co579 2.061 . S
O580 C583 1.235 . S
C581 O584 1.238 . S
C581 O585 1.241 . S
C582 O575 1.247 . S
C582 O576 1.261 . S
C583 O578 1.259 . S
C583 O580 1.235 . S
O584 Co574 2.021 . S
O584 C581 1.238 . S
O585 Co579 2.052 . S
O585 C581 1.241 . S
O586 Co574 2.137 . S
O586 C577 1.247 . S
O587 Co574 2.244 . S
O587 C577 1.272 . S
O587 Co579 2.135 . S
Co588 O589 2.216 . S
Co588 O590 2.091 . S
Co588 O592 2.004 . S
Co588 O598 2.021 . S
Co588 O600 2.137 . S
Co588 O601 2.244 1_565 S
O589 Co588 2.216 . S
O589 C596 1.247 . S
O590 Co588 2.091 . S
O590 C596 1.261 . S
C591 O600 1.247 1_545 S
C591 O601 1.272 . S
O592 Co588 2.004 . S
O592 C597 1.259 . S
Co593 O594 2.061 1_545 S
Co593 O599 2.052 1_545 S
Co593 O601 2.135 . S
O594 Co593 2.061 1_565 S
O594 C597 1.235 . S
C595 O598 1.238 . S
C595 O599 1.241 . S
C596 O589 1.247 . S
C596 O590 1.261 . S
C597 O592 1.259 . S
C597 O594 1.235 . S
O598 Co588 2.021 . S
O598 C595 1.238 . S
O599 Co593 2.052 1_565 S
O599 C595 1.241 . S
O600 Co588 2.137 . S
O600 C591 1.247 1_565 S
O601 Co588 2.244 1_545 S
O601 C591 1.272 . S
O601 Co593 2.135 . S
Co602 O603 2.216 . S
Co602 O604 2.091 . S
Co602 O606 2.004 . S
Co602 O612 2.021 . S
Co602 O614 2.137 . S
Co602 O615 2.244 . S
O603 Co602 2.216 . S
O603 C610 1.247 . S
O604 Co602 2.091 . S
O604 C610 1.261 . S
C605 O614 1.247 . S
C605 O615 1.272 . S
O606 Co602 2.004 . S
O606 C611 1.259 . S
Co607 O608 2.061 . S
Co607 O613 2.052 . S
Co607 O615 2.135 . S
O608 Co607 2.061 . S
O608 C611 1.235 . S
C609 O612 1.238 . S
C609 O613 1.241 . S
C610 O603 1.247 . S
C610 O604 1.261 . S
C611 O606 1.259 . S
C611 O608 1.235 . S
O612 Co602 2.021 . S
O612 C609 1.238 . S
O613 Co607 2.052 . S
O613 C609 1.241 . S
O614 Co602 2.137 . S
O614 C605 1.247 . S
O615 Co602 2.244 . S
O615 C605 1.272 . S
O615 Co607 2.135 . S
Co616 O617 2.216 . S
Co616 O618 2.091 . S
Co616 O620 2.004 . S
Co616 O626 2.021 . S
Co616 O628 2.137 . S
Co616 O629 2.244 . S
O617 Co616 2.216 . S
O617 C624 1.247 . S
O618 Co616 2.091 . S
O618 C624 1.261 . S
C619 O628 1.247 . S
C619 O629 1.272 . S
O620 Co616 2.004 . S
O620 C625 1.259 . S
Co621 O622 2.061 . S
Co621 O627 2.052 . S
Co621 O629 2.135 . S
O622 Co621 2.061 . S
O622 C625 1.235 . S
C623 O626 1.238 . S
C623 O627 1.241 . S
C624 O617 1.247 . S
C624 O618 1.261 . S
C625 O620 1.259 . S
C625 O622 1.235 . S
O626 Co616 2.021 . S
O626 C623 1.238 . S
O627 Co621 2.052 . S
O627 C623 1.241 . S
O628 Co616 2.137 . S
O628 C619 1.247 . S
O629 Co616 2.244 . S
O629 C619 1.272 . S
O629 Co621 2.135 . S
Co630 O631 2.216 . S
Co630 O632 2.091 . S
Co630 O634 2.004 . S
Co630 O640 2.021 . S
Co630 O642 2.137 . S
Co630 O643 2.244 . S
O631 Co630 2.216 . S
O631 C638 1.247 . S
O632 Co630 2.091 . S
O632 C638 1.261 . S
C633 O642 1.247 . S
C633 O643 1.272 . S
O634 Co630 2.004 . S
O634 C639 1.259 . S
Co635 O636 2.061 . S
Co635 O641 2.052 . S
Co635 O643 2.135 . S
O636 Co635 2.061 . S
O636 C639 1.235 . S
C637 O640 1.238 . S
C637 O641 1.241 . S
C638 O631 1.247 . S
C638 O632 1.261 . S
C639 O634 1.259 . S
C639 O636 1.235 . S
O640 Co630 2.021 . S
O640 C637 1.238 . S
O641 Co635 2.052 . S
O641 C637 1.241 . S
O642 Co630 2.137 . S
O642 C633 1.247 . S
O643 Co630 2.244 . S
O643 C633 1.272 . S
O643 Co635 2.135 . S
Co644 O645 2.216 . S
Co644 O646 2.091 . S
Co644 O648 1.976 1_556 S
Co644 O654 2.021 . S
Co644 O656 2.137 . S
Co644 O657 2.244 1_545 S
O645 Co644 2.216 . S
O645 C652 1.247 . S
O646 Co644 2.091 . S
O646 C652 1.261 . S
C647 O656 1.247 1_565 S
C647 O657 1.272 . S
O648 Co644 1.976 1_554 S
O648 C653 1.296 . S
Co649 O650 2.061 1_565 S
Co649 O655 2.052 1_565 S
Co649 O657 2.135 1_554 S
O650 Co649 2.061 1_545 S
O650 C653 1.235 . S
C651 O654 1.238 1_554 S
C651 O655 1.241 . S
C652 O645 1.247 . S
C652 O646 1.261 . S
C653 O648 1.296 . S
C653 O650 1.235 . S
O654 Co644 2.021 . S
O654 C651 1.238 1_556 S
O655 Co649 2.052 1_545 S
O655 C651 1.241 . S
O656 Co644 2.137 . S
O656 C647 1.247 1_545 S
O657 Co644 2.244 1_565 S
O657 C647 1.272 . S
O657 Co649 2.135 1_556 S
Co658 O659 2.216 . S
Co658 O660 2.091 . S
Co658 O662 2.004 . S
Co658 O668 2.021 . S
Co658 O670 2.137 . S
Co658 O671 2.244 1_565 S
O659 Co658 2.216 . S
O659 C666 1.247 . S
O660 Co658 2.091 . S
O660 C666 1.261 . S
C661 O670 1.247 1_545 S
C661 O671 1.272 . S
O662 Co658 2.004 . S
O662 C667 1.259 . S
Co663 O664 2.061 1_545 S
Co663 O669 2.052 1_545 S
Co663 O671 2.135 . S
O664 Co663 2.061 1_565 S
O664 C667 1.235 . S
C665 O668 1.238 . S
C665 O669 1.241 . S
C666 O659 1.247 . S
C666 O660 1.261 . S
C667 O662 1.259 . S
C667 O664 1.235 . S
O668 Co658 2.021 . S
O668 C665 1.238 . S
O669 Co663 2.052 1_565 S
O669 C665 1.241 . S
O670 Co658 2.137 . S
O670 C661 1.247 1_565 S
O671 Co658 2.244 1_545 S
O671 C661 1.272 . S
O671 Co663 2.135 . S
C672 C673 1.369 . S
C672 C674 1.419 . S
C672 H676 0.930 . S
C673 C672 1.369 . S
C673 C682 1.429 . S
C674 C672 1.419 . S
C674 C675 1.363 . S
C674 H677 0.929 . S
C675 C674 1.363 . S
C675 C681 1.428 . S
H676 C672 0.930 . S
H677 C674 0.929 . S
S678 N679 1.613 . S
S678 N680 1.610 . S
N679 S678 1.613 . S
N679 C682 1.350 . S
N680 S678 1.610 . S
N680 C681 1.351 . S
C681 C675 1.428 . S
C681 N680 1.351 . S
C681 C682 1.434 . S
C682 C673 1.429 . S
C682 N679 1.350 . S
C682 C681 1.434 . S
C683 C684 1.369 . S
C683 C685 1.419 . S
C683 H687 0.930 . S
C684 C683 1.369 . S
C684 C693 1.429 1_545 S
C685 C683 1.419 . S
C685 C686 1.363 1_545 S
C685 H688 0.929 . S
C686 C685 1.363 1_565 S
C686 C692 1.428 . S
H687 C683 0.930 . S
H688 C685 0.929 . S
S689 N690 1.613 . S
S689 N691 1.610 . S
N690 S689 1.613 . S
N690 C693 1.350 . S
N691 S689 1.610 . S
N691 C692 1.351 . S
C692 C686 1.428 . S
C692 N691 1.351 . S
C692 C693 1.434 . S
C693 C684 1.429 1_565 S
C693 N690 1.350 . S
C693 C692 1.434 . S
C694 C695 1.369 . S
C694 C696 1.419 1_556 S
C694 H698 0.930 . S
C695 C694 1.369 . S
C695 C704 1.429 . S
C696 C694 1.419 1_554 S
C696 C697 1.363 . S
C696 H699 0.929 . S
C697 C696 1.363 . S
C697 C703 1.428 . S
H698 C694 0.930 . S
H699 C696 0.929 . S
S700 N701 1.613 . S
S700 N702 1.610 1_556 S
N701 S700 1.613 . S
N701 C704 1.350 . S
N702 S700 1.610 1_554 S
N702 C703 1.351 . S
C703 C697 1.428 . S
C703 N702 1.351 . S
C703 C704 1.434 1_554 S
C704 C695 1.429 . S
C704 N701 1.350 . S
C704 C703 1.434 1_556 S
C705 C706 1.369 1_565 S
C705 C707 1.419 . S
C705 H709 0.930 . S
C706 C705 1.369 1_545 S
C706 C715 1.429 . S
C707 C705 1.419 . S
C707 C708 1.363 . S
C707 H710 0.929 . S
C708 C707 1.363 . S
C708 C714 1.428 1_565 S
H709 C705 0.930 . S
H710 C707 0.929 . S
S711 N712 1.613 . S
S711 N713 1.610 . S
N712 S711 1.613 . S
N712 C715 1.350 . S
N713 S711 1.610 . S
N713 C714 1.351 . S
C714 C708 1.428 1_545 S
C714 N713 1.351 . S
C714 C715 1.434 . S
C715 C706 1.429 . S
C715 N712 1.350 . S
C715 C714 1.434 . S
C716 C717 1.369 . S
C716 C718 1.419 . S
C716 H720 0.930 . S
C717 C716 1.369 . S
C717 C726 1.429 . S
C718 C716 1.419 . S
C718 C719 1.363 . S
C718 H721 0.929 . S
C719 C718 1.363 . S
C719 C725 1.428 . S
H720 C716 0.930 . S
H721 C718 0.929 . S
S722 N723 1.613 . S
S722 N724 1.610 . S
N723 S722 1.613 . S
N723 C726 1.350 . S
N724 S722 1.610 . S
N724 C725 1.351 . S
C725 C719 1.428 . S
C725 N724 1.351 . S
C725 C726 1.434 . S
C726 C717 1.429 . S
C726 N723 1.350 . S
C726 C725 1.434 . S
C727 C728 1.369 1_655 S
C727 C729 1.419 . S
C727 H731 0.930 . S
C728 C727 1.369 1_455 S
C728 C737 1.429 . S
C729 C727 1.419 . S
C729 C730 1.363 . S
C729 H732 0.929 . S
C730 C729 1.363 . S
C730 C736 1.428 1_655 S
H731 C727 0.930 . S
H732 C729 0.929 . S
S733 N734 1.613 . S
S733 N735 1.610 . S
N734 S733 1.613 . S
N734 C737 1.350 . S
N735 S733 1.610 . S
N735 C736 1.351 . S
C736 C730 1.428 1_455 S
C736 N735 1.351 . S
C736 C737 1.434 . S
C737 C728 1.429 . S
C737 N734 1.350 . S
C737 C736 1.434 . S
C738 C739 1.369 . S
C738 C740 1.419 1_455 S
C738 H742 0.930 . S
C739 C738 1.369 . S
C739 C748 1.429 . S
C740 C738 1.419 1_655 S
C740 C741 1.363 . S
C740 H743 0.929 . S
C741 C740 1.363 . S
C741 C747 1.428 . S
H742 C738 0.930 . S
H743 C740 0.929 . S
S744 N745 1.613 . S
S744 N746 1.610 1_455 S
N745 S744 1.613 . S
N745 C748 1.350 . S
N746 S744 1.610 1_655 S
N746 C747 1.351 . S
C747 C741 1.428 . S
C747 N746 1.351 . S
C747 C748 1.434 1_655 S
C748 C739 1.429 . S
C748 N745 1.350 . S
C748 C747 1.434 1_455 S
C749 C750 1.369 . S
C749 C751 1.419 . S
C749 H753 0.930 . S
C750 C749 1.369 . S
C750 C759 1.429 . S
C751 C749 1.419 . S
C751 C752 1.363 . S
C751 H754 0.929 . S
C752 C751 1.363 . S
C752 C758 1.428 . S
H753 C749 0.930 . S
H754 C751 0.929 . S
S755 N756 1.613 . S
S755 N757 1.610 . S
N756 S755 1.613 . S
N756 C759 1.350 . S
N757 S755 1.610 . S
N757 C758 1.351 . S
C758 C752 1.428 . S
C758 N757 1.351 . S
C758 C759 1.434 . S
C759 C750 1.429 . S
C759 N756 1.350 . S
C759 C758 1.434 . S
C760 C761 1.369 . S
C760 C762 1.419 . S
C760 H764 0.930 . S
C761 C760 1.369 . S
C761 C770 1.429 . S
C762 C760 1.419 . S
C762 C763 1.363 . S
C762 H765 0.929 . S
C763 C762 1.363 . S
C763 C769 1.428 . S
H764 C760 0.930 . S
H765 C762 0.929 . S
S766 N767 1.613 . S
S766 N768 1.610 . S
N767 S766 1.613 . S
N767 C770 1.350 . S
N768 S766 1.610 . S
N768 C769 1.351 . S
C769 C763 1.428 . S
C769 N768 1.351 . S
C769 C770 1.434 . S
C770 C761 1.429 . S
C770 N767 1.350 . S
C770 C769 1.434 . S
C771 C772 1.369 . S
C771 C773 1.419 . S
C771 H775 0.930 . S
C772 C771 1.369 . S
C772 C781 1.429 . S
C773 C771 1.419 . S
C773 C774 1.363 . S
C773 H776 0.929 . S
C774 C773 1.363 . S
C774 C780 1.428 . S
H775 C771 0.930 . S
H776 C773 0.929 . S
S777 N778 1.613 . S
S777 N779 1.610 . S
N778 S777 1.613 . S
N778 C781 1.350 . S
N779 S777 1.610 . S
N779 C780 1.351 . S
C780 C774 1.428 . S
C780 N779 1.351 . S
C780 C781 1.434 . S
C781 C772 1.429 . S
C781 N778 1.350 . S
C781 C780 1.434 . S
C782 C783 1.369 . S
C782 C784 1.419 1_655 S
C782 H786 0.930 . S
C783 C782 1.369 . S
C783 C792 1.429 . S
C784 C782 1.419 1_455 S
C784 C785 1.363 . S
C784 H787 0.929 . S
C785 C784 1.363 . S
C785 C791 1.428 . S
H786 C782 0.930 . S
H787 C784 0.929 . S
S788 N789 1.613 1_455 S
S788 N790 1.610 . S
N789 S788 1.613 1_655 S
N789 C792 1.350 . S
N790 S788 1.610 . S
N790 C791 1.351 . S
C791 C785 1.428 . S
C791 N790 1.351 . S
C791 C792 1.434 1_455 S
C792 C783 1.429 . S
C792 N789 1.350 . S
C792 C791 1.434 1_655 S
C793 C794 1.369 1_655 S
C793 C795 1.419 . S
C793 H797 0.930 . S
C794 C793 1.369 1_455 S
C794 C803 1.429 . S
C795 C793 1.419 . S
C795 C796 1.363 . S
C795 H798 0.929 . S
C796 C795 1.363 . S
C796 C802 1.425 1_655 S
H797 C793 0.930 . S
H798 C795 0.929 . S
S799 N800 1.613 . S
S799 N801 1.610 . S
N800 S799 1.613 . S
N800 C803 1.350 1_556 S
N801 S799 1.610 . S
N801 C802 1.354 1_556 S
C802 C796 1.425 1_455 S
C802 N801 1.354 1_554 S
C802 C803 1.438 . S
C803 C794 1.429 . S
C803 N800 1.350 1_554 S
C803 C802 1.438 . S
C804 C805 1.369 . S
C804 C806 1.419 . S
C804 H808 0.930 . S
C805 C804 1.369 . S
C805 C814 1.429 . S
C806 C804 1.419 . S
C806 C807 1.363 . S
C806 H809 0.929 . S
C807 C806 1.363 . S
C807 C813 1.428 . S
H808 C804 0.930 . S
H809 C806 0.929 . S
S810 N811 1.613 . S
S810 N812 1.610 . S
N811 S810 1.613 . S
N811 C814 1.350 . S
N812 S810 1.610 . S
N812 C813 1.351 . S
C813 C807 1.428 . S
C813 N812 1.351 . S
C813 C814 1.434 . S
C814 C805 1.429 . S
C814 N811 1.350 . S
C814 C813 1.434 . S
C815 C816 1.369 . S
C815 C817 1.419 1_545 S
C815 H819 0.930 . S
C816 C815 1.369 . S
C816 C825 1.429 . S
C817 C815 1.419 1_565 S
C817 C818 1.363 . S
C817 H820 0.929 . S
C818 C817 1.363 . S
C818 C824 1.428 . S
H819 C815 0.930 . S
H820 C817 0.929 . S
S821 N822 1.613 1_565 S
S821 N823 1.610 . S
N822 S821 1.613 1_545 S
N822 C825 1.350 . S
N823 S821 1.610 . S
N823 C824 1.351 . S
C824 C818 1.428 . S
C824 N823 1.351 . S
C824 C825 1.434 1_565 S
C825 C816 1.429 . S
C825 N822 1.350 . S
C825 C824 1.434 1_545 S
C826 C827 1.369 . S
C826 C828 1.419 . S
C826 H830 0.930 . S
C827 C826 1.369 . S
C827 C836 1.429 1_556 S
C828 C826 1.419 . S
C828 C829 1.363 1_556 S
C828 H831 0.929 . S
C829 C828 1.363 1_554 S
C829 C835 1.428 . S
H830 C826 0.930 . S
H831 C828 0.929 . S
S832 N833 1.613 . S
S832 N834 1.610 . S
N833 S832 1.613 . S
N833 C836 1.350 . S
N834 S832 1.610 . S
N834 C835 1.351 . S
C835 C829 1.428 . S
C835 N834 1.351 . S
C835 C836 1.434 . S
C836 C827 1.429 1_554 S
C836 N833 1.350 . S
C836 C835 1.434 . S
C837 C838 1.369 . S
C837 C839 1.419 1_545 S
C837 H841 0.930 . S
C838 C837 1.369 . S
C838 C847 1.429 . S
C839 C837 1.419 1_565 S
C839 C840 1.363 . S
C839 H842 0.929 . S
C840 C839 1.363 . S
C840 C846 1.428 . S
H841 C837 0.930 . S
H842 C839 0.929 . S
S843 N844 1.613 1_565 S
S843 N845 1.610 . S
N844 S843 1.613 1_545 S
N844 C847 1.350 . S
N845 S843 1.610 . S
N845 C846 1.351 . S
C846 C840 1.428 . S
C846 N845 1.351 . S
C846 C847 1.434 1_565 S
C847 C838 1.429 . S
C847 N844 1.350 . S
C847 C846 1.434 1_545 S
C848 C849 1.369 1_556 S
C848 C850 1.419 . S
C848 H852 0.930 1_545 S
C849 C848 1.369 1_554 S
C849 C858 1.429 . S
C850 C848 1.419 . S
C850 C851 1.363 . S
C850 H853 0.929 1_545 S
C851 C850 1.363 . S
C851 C857 1.428 1_556 S
H852 C848 0.930 1_565 S
H853 C850 0.929 1_565 S
S854 N855 1.613 . S
S854 N856 1.610 . S
N855 S854 1.613 . S
N855 C858 1.350 . S
N856 S854 1.610 . S
N856 C857 1.351 . S
C857 C851 1.428 1_554 S
C857 N856 1.351 . S
C857 C858 1.434 . S
C858 C849 1.429 . S
C858 N855 1.350 . S
C858 C857 1.434 . S
C859 C860 1.369 . S
C859 C861 1.419 . S
C859 H863 0.930 . S
C860 C859 1.369 . S
C860 C869 1.429 . S
C861 C859 1.419 . S
C861 C862 1.363 . S
C861 H864 0.929 . S
C862 C861 1.363 . S
C862 C868 1.428 . S
H863 C859 0.930 . S
H864 C861 0.929 . S
S865 N866 1.613 . S
S865 N867 1.610 . S
N866 S865 1.613 . S
N866 C869 1.350 . S
N867 S865 1.610 . S
N867 C868 1.351 . S
C868 C862 1.428 . S
C868 N867 1.351 . S
C868 C869 1.434 . S
C869 C860 1.429 . S
C869 N866 1.350 . S
C869 C868 1.434 . S
C870 C871 1.369 . S
C870 C872 1.419 . S
C870 H874 0.930 . S
C871 C870 1.369 . S
C871 C880 1.429 . S
C872 C870 1.419 . S
C872 C873 1.363 . S
C872 H875 0.929 . S
C873 C872 1.363 . S
C873 C879 1.428 . S
H874 C870 0.930 . S
H875 C872 0.929 . S
S876 N877 1.613 . S
S876 N878 1.610 . S
N877 S876 1.613 . S
N877 C880 1.350 . S
N878 S876 1.610 . S
N878 C879 1.351 . S
C879 C873 1.428 . S
C879 N878 1.351 . S
C879 C880 1.434 . S
C880 C871 1.429 . S
C880 N877 1.350 . S
C880 C879 1.434 . S
C881 C882 1.369 . S
C881 C883 1.419 1_554 S
C881 H885 0.930 . S
C882 C881 1.369 . S
C882 C891 1.429 . S
C883 C881 1.419 1_556 S
C883 C884 1.363 . S
C883 H886 0.929 . S
C884 C883 1.363 . S
C884 C890 1.428 . S
H885 C881 0.930 . S
H886 C883 0.929 . S
S887 N888 1.613 1_556 S
S887 N889 1.610 . S
N888 S887 1.613 1_554 S
N888 C891 1.350 . S
N889 S887 1.610 . S
N889 C890 1.351 . S
C890 C884 1.428 . S
C890 N889 1.351 . S
C890 C891 1.434 1_556 S
C891 C882 1.429 . S
C891 N888 1.350 . S
C891 C890 1.434 1_554 S
C892 C893 1.369 . S
C892 C894 1.419 . S
C892 H896 0.930 . S
C893 C892 1.369 . S
C893 C902 1.429 . S
C894 C892 1.419 . S
C894 C895 1.363 . S
C894 H897 0.929 . S
C895 C894 1.363 . S
C895 C901 1.428 . S
H896 C892 0.930 . S
H897 C894 0.929 . S
S898 N899 1.613 . S
S898 N900 1.610 . S
N899 S898 1.613 . S
N899 C902 1.350 . S
N900 S898 1.610 . S
N900 C901 1.351 . S
C901 C895 1.428 . S
C901 N900 1.351 . S
C901 C902 1.434 . S
C902 C893 1.429 . S
C902 N899 1.350 . S
C902 C901 1.434 . S
C903 C904 1.369 . S
C903 C905 1.419 . S
C903 H907 0.930 . S
C904 C903 1.369 . S
C904 C913 1.429 . S
C905 C903 1.419 . S
C905 C906 1.363 . S
C905 H908 0.929 . S
C906 C905 1.363 . S
C906 C912 1.428 . S
H907 C903 0.930 . S
H908 C905 0.929 . S
S909 N910 1.613 . S
S909 N911 1.610 . S
N910 S909 1.613 . S
N910 C913 1.350 . S
N911 S909 1.610 . S
N911 C912 1.351 . S
C912 C906 1.428 . S
C912 N911 1.351 . S
C912 C913 1.434 . S
C913 C904 1.429 . S
C913 N910 1.350 . S
C913 C912 1.434 . S
C914 C915 1.369 . S
C914 C916 1.419 . S
C914 H918 0.930 . S
C915 C914 1.369 . S
C915 C924 1.429 . S
C916 C914 1.419 . S
C916 C917 1.363 . S
C916 H919 0.929 . S
C917 C916 1.363 . S
C917 C923 1.428 . S
H918 C914 0.930 . S
H919 C916 0.929 . S
S920 N921 1.613 . S
S920 N922 1.610 . S
N921 S920 1.613 . S
N921 C924 1.350 . S
N922 S920 1.610 . S
N922 C923 1.351 . S
C923 C917 1.428 . S
C923 N922 1.351 . S
C923 C924 1.434 . S
C924 C915 1.429 . S
C924 N921 1.350 . S
C924 C923 1.434 . S
C925 C926 1.369 . S
C925 C927 1.419 . S
C925 H929 0.930 . S
C926 C925 1.369 . S
C926 C935 1.429 . S
C927 C925 1.419 . S
C927 C928 1.363 . S
C927 H930 0.929 . S
C928 C927 1.363 . S
C928 C934 1.428 . S
H929 C925 0.930 . S
H930 C927 0.929 . S
S931 N932 1.613 . S
S931 N933 1.610 . S
N932 S931 1.613 . S
N932 C935 1.350 . S
N933 S931 1.610 . S
N933 C934 1.351 . S
C934 C928 1.428 . S
C934 N933 1.351 . S
C934 C935 1.434 . S
C935 C926 1.429 . S
C935 N932 1.350 . S
C935 C934 1.434 . S
C936 C937 1.369 . S
C936 C938 1.419 . S
C936 H940 0.930 . S
C937 C936 1.369 . S
C937 C946 1.429 . S
C938 C936 1.419 . S
C938 C939 1.363 . S
C938 H941 0.929 . S
C939 C938 1.363 . S
C939 C945 1.428 . S
H940 C936 0.930 . S
H941 C938 0.929 . S
S942 N943 1.613 . S
S942 N944 1.610 . S
N943 S942 1.613 . S
N943 C946 1.350 . S
N944 S942 1.610 . S
N944 C945 1.351 . S
C945 C939 1.428 . S
C945 N944 1.351 . S
C945 C946 1.434 . S
C946 C937 1.429 . S
C946 N943 1.350 . S
C946 C945 1.434 . S
C947 C948 1.369 . S
C947 C949 1.419 . S
C947 H951 0.930 . S
C948 C947 1.369 . S
C948 C957 1.429 . S
C949 C947 1.419 . S
C949 C950 1.363 . S
C949 H952 0.929 . S
C950 C949 1.363 . S
C950 C956 1.428 . S
H951 C947 0.930 . S
H952 C949 0.929 . S
S953 N954 1.617 . S
S953 N955 1.610 1_545 S
N954 S953 1.617 . S
N954 C957 1.342 1_545 S
N955 S953 1.610 1_565 S
N955 C956 1.351 . S
C956 C950 1.428 . S
C956 N955 1.351 . S
C956 C957 1.434 . S
C957 C948 1.429 . S
C957 N954 1.342 1_565 S
C957 C956 1.434 . S
C958 C959 1.369 . S
C958 C960 1.419 . S
C958 H962 0.930 . S
C959 C958 1.369 . S
C959 C968 1.429 . S
C960 C958 1.419 . S
C960 C961 1.363 . S
C960 H963 0.929 . S
C961 C960 1.363 . S
C961 C967 1.428 . S
H962 C958 0.930 . S
H963 C960 0.929 . S
S964 N965 1.613 . S
S964 N966 1.610 . S
N965 S964 1.613 . S
N965 C968 1.350 . S
N966 S964 1.610 . S
N966 C967 1.351 . S
C967 C961 1.428 . S
C967 N966 1.351 . S
C967 C968 1.434 . S
C968 C959 1.429 . S
C968 N965 1.350 . S
C968 C967 1.434 . S
C969 C970 1.369 . S
C969 C971 1.419 . S
C969 H973 0.930 . S
C970 C969 1.369 . S
C970 C979 1.429 . S
C971 C969 1.419 . S
C971 C972 1.363 . S
C971 H974 0.929 . S
C972 C971 1.363 . S
C972 C978 1.428 . S
H973 C969 0.930 . S
H974 C971 0.929 . S
S975 N976 1.613 . S
S975 N977 1.610 . S
N976 S975 1.613 . S
N976 C979 1.350 . S
N977 S975 1.610 . S
N977 C978 1.351 . S
C978 C972 1.428 . S
C978 N977 1.351 . S
C978 C979 1.434 . S
C979 C970 1.429 . S
C979 N976 1.350 . S
C979 C978 1.434 . S
C980 C981 1.369 . S
C980 C982 1.419 . S
C980 H984 0.930 . S
C981 C980 1.369 . S
C981 C990 1.429 . S
C982 C980 1.419 . S
C982 C983 1.363 . S
C982 H985 0.929 . S
C983 C982 1.363 . S
C983 C989 1.428 . S
H984 C980 0.930 . S
H985 C982 0.929 . S
S986 N987 1.613 . S
S986 N988 1.610 . S
N987 S986 1.613 . S
N987 C990 1.350 . S
N988 S986 1.610 . S
N988 C989 1.351 . S
C989 C983 1.428 . S
C989 N988 1.351 . S
C989 C990 1.434 . S
C990 C981 1.429 . S
C990 N987 1.350 . S
C990 C989 1.434 . S
C991 C992 1.369 . S
C991 C993 1.419 . S
C991 H995 0.930 . S
C992 C991 1.369 . S
C992 C1001 1.429 . S
C993 C991 1.419 . S
C993 C994 1.363 . S
C993 H996 0.929 . S
C994 C993 1.363 . S
C994 C1000 1.428 . S
H995 C991 0.930 . S
H996 C993 0.929 . S
S997 N998 1.613 1_545 S
S997 N999 1.610 1_545 S
N998 S997 1.613 1_565 S
N998 C1001 1.350 . S
N999 S997 1.610 1_565 S
N999 C1000 1.351 . S
C1000 C994 1.428 . S
C1000 N999 1.351 . S
C1000 C1001 1.434 . S
C1001 C992 1.429 . S
C1001 N998 1.350 . S
C1001 C1000 1.434 . S
C1002 C1003 1.369 . S
C1002 C1004 1.419 . S
C1002 H1006 0.930 . S
C1003 C1002 1.369 . S
C1003 C1012 1.429 . S
C1004 C1002 1.419 . S
C1004 C1005 1.363 . S
C1004 H1007 0.929 . S
C1005 C1004 1.363 . S
C1005 C1011 1.428 . S
H1006 C1002 0.930 . S
H1007 C1004 0.929 . S
S1008 N1009 1.613 . S
S1008 N1010 1.610 . S
N1009 S1008 1.613 . S
N1009 C1012 1.350 . S
N1010 S1008 1.610 . S
N1010 C1011 1.351 . S
C1011 C1005 1.428 . S
C1011 N1010 1.351 . S
C1011 C1012 1.434 . S
C1012 C1003 1.429 . S
C1012 N1009 1.350 . S
C1012 C1011 1.434 . S
C1013 C1014 1.369 . S
C1013 C1015 1.419 . S
C1013 H1017 0.930 . S
C1014 C1013 1.369 . S
C1014 C1023 1.429 . S
C1015 C1013 1.419 . S
C1015 C1016 1.363 . S
C1015 H1018 0.929 . S
C1016 C1015 1.363 . S
C1016 C1022 1.428 . S
H1017 C1013 0.930 . S
H1018 C1015 0.929 . S
S1019 N1020 1.613 . S
S1019 N1021 1.610 . S
N1020 S1019 1.613 . S
N1020 C1023 1.350 . S
N1021 S1019 1.610 . S
N1021 C1022 1.351 . S
C1022 C1016 1.428 . S
C1022 N1021 1.351 . S
C1022 C1023 1.434 . S
C1023 C1014 1.429 . S
C1023 N1020 1.350 . S
C1023 C1022 1.434 . S
C1024 C1025 1.369 . S
C1024 C1026 1.419 . S
C1024 H1028 0.930 . S
C1025 C1024 1.369 . S
C1025 C1034 1.429 . S
C1026 C1024 1.419 . S
C1026 C1027 1.363 . S
C1026 H1029 0.929 . S
C1027 C1026 1.363 . S
C1027 C1033 1.428 . S
H1028 C1024 0.930 . S
H1029 C1026 0.929 . S
S1030 N1031 1.613 . S
S1030 N1032 1.610 . S
N1031 S1030 1.613 . S
N1031 C1034 1.350 . S
N1032 S1030 1.610 . S
N1032 C1033 1.351 . S
C1033 C1027 1.428 . S
C1033 N1032 1.351 . S
C1033 C1034 1.434 . S
C1034 C1025 1.429 . S
C1034 N1031 1.350 . S
C1034 C1033 1.434 . S
C1035 C1036 1.369 . S
C1035 C1037 1.419 . S
C1035 H1039 0.930 . S
C1036 C1035 1.369 . S
C1036 C1045 1.429 . S
C1037 C1035 1.419 . S
C1037 C1038 1.363 . S
C1037 H1040 0.929 . S
C1038 C1037 1.363 . S
C1038 C1044 1.428 . S
H1039 C1035 0.930 . S
H1040 C1037 0.929 . S
S1041 N1042 1.589 1_655 S
S1041 N1043 1.610 . S
N1042 S1041 1.589 1_455 S
N1042 C1045 1.378 . S
N1043 S1041 1.610 . S
N1043 C1044 1.351 1_655 S
C1044 C1038 1.428 . S
C1044 N1043 1.351 1_455 S
C1044 C1045 1.434 . S
C1045 C1036 1.429 . S
C1045 N1042 1.378 . S
C1045 C1044 1.434 . S
C1046 C1047 1.369 . S
C1046 C1048 1.419 . S
C1046 H1050 0.930 . S
C1047 C1046 1.369 . S
C1047 C1056 1.429 . S
C1048 C1046 1.419 . S
C1048 C1049 1.363 . S
C1048 H1051 0.929 . S
C1049 C1048 1.363 . S
C1049 C1055 1.428 . S
H1050 C1046 0.930 . S
H1051 C1048 0.929 . S
S1052 N1053 1.613 . S
S1052 N1054 1.610 . S
N1053 S1052 1.613 . S
N1053 C1056 1.350 . S
N1054 S1052 1.610 . S
N1054 C1055 1.351 . S
C1055 C1049 1.428 . S
C1055 N1054 1.351 . S
C1055 C1056 1.434 . S
C1056 C1047 1.429 . S
C1056 N1053 1.350 . S
C1056 C1055 1.434 . S
C1057 C1058 1.369 . S
C1057 C1059 1.419 . S
C1057 H1061 0.930 . S
C1058 C1057 1.369 . S
C1058 C1067 1.429 . S
C1059 C1057 1.419 . S
C1059 C1060 1.363 . S
C1059 H1062 0.929 . S
C1060 C1059 1.363 . S
C1060 C1066 1.428 . S
H1061 C1057 0.930 . S
H1062 C1059 0.929 . S
S1063 N1064 1.613 . S
S1063 N1065 1.610 . S
N1064 S1063 1.613 . S
N1064 C1067 1.350 . S
N1065 S1063 1.610 . S
N1065 C1066 1.351 . S
C1066 C1060 1.428 . S
C1066 N1065 1.351 . S
C1066 C1067 1.434 . S
C1067 C1058 1.429 . S
C1067 N1064 1.350 . S
C1067 C1066 1.434 . S
C1068 C1069 1.369 . S
C1068 C1070 1.419 . S
C1068 H1072 0.930 . S
C1069 C1068 1.369 . S
C1069 C1078 1.429 . S
C1070 C1068 1.419 . S
C1070 C1071 1.363 . S
C1070 H1073 0.929 . S
C1071 C1070 1.363 . S
C1071 C1077 1.428 . S
H1072 C1068 0.930 . S
H1073 C1070 0.929 . S
S1074 N1075 1.613 . S
S1074 N1076 1.610 . S
N1075 S1074 1.613 . S
N1075 C1078 1.350 . S
N1076 S1074 1.610 . S
N1076 C1077 1.351 . S
C1077 C1071 1.428 . S
C1077 N1076 1.351 . S
C1077 C1078 1.434 . S
C1078 C1069 1.429 . S
C1078 N1075 1.350 . S
C1078 C1077 1.434 . S
C1079 C1080 1.369 . S
C1079 C1081 1.419 . S
C1079 H1083 0.930 . S
C1080 C1079 1.369 . S
C1080 C1089 1.429 . S
C1081 C1079 1.419 . S
C1081 C1082 1.363 . S
C1081 H1084 0.929 . S
C1082 C1081 1.363 . S
C1082 C1088 1.428 . S
H1083 C1079 0.930 . S
H1084 C1081 0.929 . S
S1085 N1086 1.613 . S
S1085 N1087 1.610 . S
N1086 S1085 1.613 . S
N1086 C1089 1.350 . S
N1087 S1085 1.610 . S
N1087 C1088 1.351 . S
C1088 C1082 1.428 . S
C1088 N1087 1.351 . S
C1088 C1089 1.434 . S
C1089 C1080 1.429 . S
C1089 N1086 1.350 . S
C1089 C1088 1.434 . S
C1090 C1091 1.369 . S
C1090 C1092 1.419 . S
C1090 H1094 0.930 . S
C1091 C1090 1.369 . S
C1091 C1100 1.429 . S
C1092 C1090 1.419 . S
C1092 C1093 1.363 . S
C1092 H1095 0.929 . S
C1093 C1092 1.363 . S
C1093 C1099 1.428 . S
H1094 C1090 0.930 . S
H1095 C1092 0.929 . S
S1096 N1097 1.613 . S
S1096 N1098 1.610 . S
N1097 S1096 1.613 . S
N1097 C1100 1.350 . S
N1098 S1096 1.610 . S
N1098 C1099 1.351 . S
C1099 C1093 1.428 . S
C1099 N1098 1.351 . S
C1099 C1100 1.434 . S
C1100 C1091 1.429 . S
C1100 N1097 1.350 . S
C1100 C1099 1.434 . S
C1101 C1102 1.369 . S
C1101 C1103 1.419 . S
C1101 H1105 0.930 . S
C1102 C1101 1.369 . S
C1102 C1111 1.429 . S
C1103 C1101 1.419 . S
C1103 C1104 1.363 . S
C1103 H1106 0.929 . S
C1104 C1103 1.363 . S
C1104 C1110 1.428 . S
H1105 C1101 0.930 . S
H1106 C1103 0.929 . S
S1107 N1108 1.613 . S
S1107 N1109 1.610 . S
N1108 S1107 1.613 . S
N1108 C1111 1.350 . S
N1109 S1107 1.610 . S
N1109 C1110 1.351 . S
C1110 C1104 1.428 . S
C1110 N1109 1.351 . S
C1110 C1111 1.434 . S
C1111 C1102 1.429 . S
C1111 N1108 1.350 . S
C1111 C1110 1.434 . S
C1112 C1113 1.369 . S
C1112 C1114 1.419 . S
C1112 H1116 0.930 . S
C1113 C1112 1.369 . S
C1113 C1122 1.429 . S
C1114 C1112 1.419 . S
C1114 C1115 1.363 . S
C1114 H1117 0.929 . S
C1115 C1114 1.363 . S
C1115 C1121 1.428 . S
H1116 C1112 0.930 . S
H1117 C1114 0.929 . S
S1118 N1119 1.613 . S
S1118 N1120 1.610 . S
N1119 S1118 1.613 . S
N1119 C1122 1.350 . S
N1120 S1118 1.610 . S
N1120 C1121 1.351 . S
C1121 C1115 1.428 . S
C1121 N1120 1.351 . S
C1121 C1122 1.434 . S
C1122 C1113 1.429 . S
C1122 N1119 1.350 . S
C1122 C1121 1.434 . S
C1123 C1124 1.369 . S
C1123 C1125 1.419 . S
C1123 H1127 0.930 . S
C1124 C1123 1.369 . S
C1124 C1133 1.429 . S
C1125 C1123 1.419 . S
C1125 C1126 1.363 . S
C1125 H1128 0.929 . S
C1126 C1125 1.363 . S
C1126 C1132 1.428 . S
H1127 C1123 0.930 . S
H1128 C1125 0.929 . S
S1129 N1130 1.613 . S
S1129 N1131 1.610 . S
N1130 S1129 1.613 . S
N1130 C1133 1.350 . S
N1131 S1129 1.610 . S
N1131 C1132 1.351 . S
C1132 C1126 1.428 . S
C1132 N1131 1.351 . S
C1132 C1133 1.434 . S
C1133 C1124 1.429 . S
C1133 N1130 1.350 . S
C1133 C1132 1.434 . S
C1134 C1135 1.369 . S
C1134 C1136 1.419 . S
C1134 H1138 0.930 . S
C1135 C1134 1.369 . S
C1135 C1144 1.429 . S
C1136 C1134 1.419 . S
C1136 C1137 1.363 . S
C1136 H1139 0.929 . S
C1137 C1136 1.363 . S
C1137 C1143 1.428 . S
H1138 C1134 0.930 . S
H1139 C1136 0.929 . S
S1140 N1141 1.613 . S
S1140 N1142 1.610 . S
N1141 S1140 1.613 . S
N1141 C1144 1.350 . S
N1142 S1140 1.610 . S
N1142 C1143 1.351 . S
C1143 C1137 1.428 . S
C1143 N1142 1.351 . S
C1143 C1144 1.434 . S
C1144 C1135 1.429 . S
C1144 N1141 1.350 . S
C1144 C1143 1.434 . S
C1145 C1146 1.369 . S
C1145 C1147 1.419 . S
C1145 H1149 0.930 . S
C1146 C1145 1.369 . S
C1146 C1155 1.429 . S
C1147 C1145 1.419 . S
C1147 C1148 1.363 . S
C1147 H1150 0.929 . S
C1148 C1147 1.363 . S
C1148 C1154 1.428 . S
H1149 C1145 0.930 . S
H1150 C1147 0.929 . S
S1151 N1152 1.613 . S
S1151 N1153 1.610 . S
N1152 S1151 1.613 . S
N1152 C1155 1.350 . S
N1153 S1151 1.610 . S
N1153 C1154 1.351 . S
C1154 C1148 1.428 . S
C1154 N1153 1.351 . S
C1154 C1155 1.434 . S
C1155 C1146 1.429 . S
C1155 N1152 1.350 . S
C1155 C1154 1.434 . S
C1156 C1157 1.369 . S
C1156 C1158 1.419 . S
C1156 H1160 0.930 . S
C1157 C1156 1.369 . S
C1157 C1166 1.429 . S
C1158 C1156 1.419 . S
C1158 C1159 1.363 . S
C1158 H1161 0.929 . S
C1159 C1158 1.363 . S
C1159 C1165 1.428 . S
H1160 C1156 0.930 . S
H1161 C1158 0.929 . S
S1162 N1163 1.613 . S
S1162 N1164 1.610 . S
N1163 S1162 1.613 . S
N1163 C1166 1.350 . S
N1164 S1162 1.610 . S
N1164 C1165 1.351 . S
C1165 C1159 1.428 . S
C1165 N1164 1.351 . S
C1165 C1166 1.434 . S
C1166 C1157 1.429 . S
C1166 N1163 1.350 . S
C1166 C1165 1.434 . S
C1167 C1168 1.369 . S
C1167 C1169 1.419 . S
C1167 H1171 0.930 . S
C1168 C1167 1.369 . S
C1168 C1177 1.429 . S
C1169 C1167 1.419 . S
C1169 C1170 1.363 . S
C1169 H1172 0.929 . S
C1170 C1169 1.363 . S
C1170 C1176 1.428 . S
H1171 C1167 0.930 . S
H1172 C1169 0.929 . S
S1173 N1174 1.613 . S
S1173 N1175 1.610 . S
N1174 S1173 1.613 . S
N1174 C1177 1.350 . S
N1175 S1173 1.610 . S
N1175 C1176 1.351 . S
C1176 C1170 1.428 . S
C1176 N1175 1.351 . S
C1176 C1177 1.434 . S
C1177 C1168 1.429 . S
C1177 N1174 1.350 . S
C1177 C1176 1.434 . S
C1178 C1179 1.369 . S
C1178 C1180 1.419 . S
C1178 H1182 0.930 . S
C1179 C1178 1.369 . S
C1179 C1188 1.429 . S
C1180 C1178 1.419 . S
C1180 C1181 1.363 . S
C1180 H1183 0.929 . S
C1181 C1180 1.363 . S
C1181 C1187 1.428 . S
H1182 C1178 0.930 . S
H1183 C1180 0.929 . S
S1184 N1185 1.613 . S
S1184 N1186 1.610 . S
N1185 S1184 1.613 . S
N1185 C1188 1.350 . S
N1186 S1184 1.610 . S
N1186 C1187 1.351 . S
C1187 C1181 1.428 . S
C1187 N1186 1.351 . S
C1187 C1188 1.434 . S
C1188 C1179 1.429 . S
C1188 N1185 1.350 . S
C1188 C1187 1.434 . S
C1189 C1190 1.369 . S
C1189 C1191 1.419 . S
C1189 H1193 0.930 . S
C1190 C1189 1.369 . S
C1190 C1199 1.429 . S
C1191 C1189 1.419 . S
C1191 C1192 1.363 . S
C1191 H1194 0.929 . S
C1192 C1191 1.363 . S
C1192 C1198 1.428 . S
H1193 C1189 0.930 . S
H1194 C1191 0.929 . S
S1195 N1196 1.613 . S
S1195 N1197 1.610 . S
N1196 S1195 1.613 . S
N1196 C1199 1.350 . S
N1197 S1195 1.610 . S
N1197 C1198 1.351 . S
C1198 C1192 1.428 . S
C1198 N1197 1.351 . S
C1198 C1199 1.434 . S
C1199 C1190 1.429 . S
C1199 N1196 1.350 . S
C1199 C1198 1.434 . S
C1200 C1201 1.369 . S
C1200 C1202 1.419 . S
C1200 H1204 0.930 . S
C1201 C1200 1.369 . S
C1201 C1210 1.429 . S
C1202 C1200 1.419 . S
C1202 C1203 1.363 . S
C1202 H1205 0.929 . S
C1203 C1202 1.363 . S
C1203 C1209 1.428 . S
H1204 C1200 0.930 . S
H1205 C1202 0.929 . S
S1206 N1207 1.613 . S
S1206 N1208 1.610 . S
N1207 S1206 1.613 . S
N1207 C1210 1.350 . S
N1208 S1206 1.610 . S
N1208 C1209 1.351 . S
C1209 C1203 1.428 . S
C1209 N1208 1.351 . S
C1209 C1210 1.434 . S
C1210 C1201 1.429 . S
C1210 N1207 1.350 . S
C1210 C1209 1.434 . S
C1211 C1212 1.369 . S
C1211 C1213 1.419 . S
C1211 H1215 0.930 . S
C1212 C1211 1.369 . S
C1212 C1221 1.429 . S
C1213 C1211 1.419 . S
C1213 C1214 1.363 . S
C1213 H1216 0.929 . S
C1214 C1213 1.363 . S
C1214 C1220 1.428 . S
H1215 C1211 0.930 . S
H1216 C1213 0.929 . S
S1217 N1218 1.613 . S
S1217 N1219 1.610 . S
N1218 S1217 1.613 . S
N1218 C1221 1.350 . S
N1219 S1217 1.610 . S
N1219 C1220 1.351 . S
C1220 C1214 1.428 . S
C1220 N1219 1.351 . S
C1220 C1221 1.434 . S
C1221 C1212 1.429 . S
C1221 N1218 1.350 . S
C1221 C1220 1.434 . S
C1222 C1223 1.369 . S
C1222 C1224 1.419 . S
C1222 H1226 0.930 . S
C1223 C1222 1.369 . S
C1223 C1232 1.429 . S
C1224 C1222 1.419 . S
C1224 C1225 1.363 . S
C1224 H1227 0.929 . S
C1225 C1224 1.363 . S
C1225 C1231 1.428 . S
H1226 C1222 0.930 . S
H1227 C1224 0.929 . S
S1228 N1229 1.613 . S
S1228 N1230 1.610 . S
N1229 S1228 1.613 . S
N1229 C1232 1.350 . S
N1230 S1228 1.610 . S
N1230 C1231 1.351 . S
C1231 C1225 1.428 . S
C1231 N1230 1.351 . S
C1231 C1232 1.434 . S
C1232 C1223 1.429 . S
C1232 N1229 1.350 . S
C1232 C1231 1.434 . S
C1233 C1234 1.369 . S
C1233 C1235 1.419 . S
C1233 H1237 0.930 . S
C1234 C1233 1.369 . S
C1234 C1243 1.429 . S
C1235 C1233 1.419 . S
C1235 C1236 1.363 . S
C1235 H1238 0.929 . S
C1236 C1235 1.363 . S
C1236 C1242 1.428 . S
H1237 C1233 0.930 . S
H1238 C1235 0.929 . S
S1239 N1240 1.613 . S
S1239 N1241 1.610 . S
N1240 S1239 1.613 . S
N1240 C1243 1.350 . S
N1241 S1239 1.610 . S
N1241 C1242 1.351 . S
C1242 C1236 1.428 . S
C1242 N1241 1.351 . S
C1242 C1243 1.434 . S
C1243 C1234 1.429 . S
C1243 N1240 1.350 . S
C1243 C1242 1.434 . S
C1244 C1245 1.369 . S
C1244 C1246 1.419 . S
C1244 H1248 0.930 . S
C1245 C1244 1.369 . S
C1245 C1254 1.429 . S
C1246 C1244 1.419 . S
C1246 C1247 1.363 . S
C1246 H1249 0.929 . S
C1247 C1246 1.363 . S
C1247 C1253 1.428 . S
H1248 C1244 0.930 . S
H1249 C1246 0.929 . S
S1250 N1251 1.613 . S
S1250 N1252 1.610 . S
N1251 S1250 1.613 . S
N1251 C1254 1.350 . S
N1252 S1250 1.610 . S
N1252 C1253 1.351 . S
C1253 C1247 1.428 . S
C1253 N1252 1.351 . S
C1253 C1254 1.434 . S
C1254 C1245 1.429 . S
C1254 N1251 1.350 . S
C1254 C1253 1.434 . S
C1255 C1256 1.369 . S
C1255 C1257 1.419 . S
C1255 H1259 0.930 . S
C1256 C1255 1.369 . S
C1256 C1265 1.429 . S
C1257 C1255 1.419 . S
C1257 C1258 1.363 . S
C1257 H1260 0.929 . S
C1258 C1257 1.363 . S
C1258 C1264 1.428 . S
H1259 C1255 0.930 . S
H1260 C1257 0.929 . S
S1261 N1262 1.613 . S
S1261 N1263 1.610 . S
N1262 S1261 1.613 . S
N1262 C1265 1.350 . S
N1263 S1261 1.610 . S
N1263 C1264 1.351 . S
C1264 C1258 1.428 . S
C1264 N1263 1.351 . S
C1264 C1265 1.434 . S
C1265 C1256 1.429 . S
C1265 N1262 1.350 . S
C1265 C1264 1.434 . S
C1266 C1267 1.369 . S
C1266 C1268 1.419 . S
C1266 H1270 0.930 . S
C1267 C1266 1.369 . S
C1267 C1276 1.429 . S
C1268 C1266 1.419 . S
C1268 C1269 1.363 . S
C1268 H1271 0.929 . S
C1269 C1268 1.363 . S
C1269 C1275 1.428 . S
H1270 C1266 0.930 . S
H1271 C1268 0.929 . S
S1272 N1273 1.613 . S
S1272 N1274 1.610 . S
N1273 S1272 1.613 . S
N1273 C1276 1.350 . S
N1274 S1272 1.610 . S
N1274 C1275 1.351 . S
C1275 C1269 1.428 . S
C1275 N1274 1.351 . S
C1275 C1276 1.434 . S
C1276 C1267 1.429 . S
C1276 N1273 1.350 . S
C1276 C1275 1.434 . S
C1277 C1278 1.369 . S
C1277 C1279 1.419 . S
C1277 H1281 0.930 . S
C1278 C1277 1.369 . S
C1278 C1287 1.429 . S
C1279 C1277 1.419 . S
C1279 C1280 1.363 . S
C1279 H1282 0.929 . S
C1280 C1279 1.363 . S
C1280 C1286 1.428 . S
H1281 C1277 0.930 . S
H1282 C1279 0.929 . S
S1283 N1284 1.613 . S
S1283 N1285 1.610 . S
N1284 S1283 1.613 . S
N1284 C1287 1.350 . S
N1285 S1283 1.610 . S
N1285 C1286 1.351 . S
C1286 C1280 1.428 . S
C1286 N1285 1.351 . S
C1286 C1287 1.434 . S
C1287 C1278 1.429 . S
C1287 N1284 1.350 . S
C1287 C1286 1.434 . S
C1288 C1289 1.369 . S
C1288 C1290 1.419 . S
C1288 H1292 0.930 . S
C1289 C1288 1.369 . S
C1289 C1298 1.429 . S
C1290 C1288 1.419 . S
C1290 C1291 1.363 . S
C1290 H1293 0.929 . S
C1291 C1290 1.363 . S
C1291 C1297 1.428 . S
H1292 C1288 0.930 . S
H1293 C1290 0.929 . S
S1294 N1295 1.613 . S
S1294 N1296 1.610 . S
N1295 S1294 1.613 . S
N1295 C1298 1.350 . S
N1296 S1294 1.610 . S
N1296 C1297 1.351 . S
C1297 C1291 1.428 . S
C1297 N1296 1.351 . S
C1297 C1298 1.434 . S
C1298 C1289 1.429 . S
C1298 N1295 1.350 . S
C1298 C1297 1.434 . S
C1299 C1300 1.369 . S
C1299 C1301 1.419 . S
C1299 H1303 0.930 . S
C1300 C1299 1.369 . S
C1300 C1309 1.429 . S
C1301 C1299 1.419 . S
C1301 C1302 1.363 . S
C1301 H1304 0.929 . S
C1302 C1301 1.363 . S
C1302 C1308 1.428 . S
H1303 C1299 0.930 . S
H1304 C1301 0.929 . S
S1305 N1306 1.613 . S
S1305 N1307 1.610 . S
N1306 S1305 1.613 . S
N1306 C1309 1.350 . S
N1307 S1305 1.610 . S
N1307 C1308 1.351 . S
C1308 C1302 1.428 . S
C1308 N1307 1.351 . S
C1308 C1309 1.434 . S
C1309 C1300 1.429 . S
C1309 N1306 1.350 . S
C1309 C1308 1.434 . S
C1310 C1311 1.369 . S
C1310 C1312 1.419 . S
C1310 H1314 0.930 . S
C1311 C1310 1.369 . S
C1311 C1320 1.429 . S
C1312 C1310 1.419 . S
C1312 C1313 1.363 . S
C1312 H1315 0.929 . S
C1313 C1312 1.363 . S
C1313 C1319 1.428 . S
H1314 C1310 0.930 . S
H1315 C1312 0.929 . S
S1316 N1317 1.613 . S
S1316 N1318 1.610 . S
N1317 S1316 1.613 . S
N1317 C1320 1.350 . S
N1318 S1316 1.610 . S
N1318 C1319 1.351 . S
C1319 C1313 1.428 . S
C1319 N1318 1.351 . S
C1319 C1320 1.434 . S
C1320 C1311 1.429 . S
C1320 N1317 1.350 . S
C1320 C1319 1.434 . S
C1321 C1322 1.369 . S
C1321 C1323 1.419 . S
C1321 H1325 0.930 . S
C1322 C1321 1.369 . S
C1322 C1331 1.429 . S
C1323 C1321 1.419 . S
C1323 C1324 1.363 . S
C1323 H1326 0.929 . S
C1324 C1323 1.363 . S
C1324 C1330 1.428 . S
H1325 C1321 0.930 . S
H1326 C1323 0.929 . S
S1327 N1328 1.613 . S
S1327 N1329 1.610 . S
N1328 S1327 1.613 . S
N1328 C1331 1.350 1_455 S
N1329 S1327 1.610 . S
N1329 C1330 1.351 1_455 S
C1330 C1324 1.428 . S
C1330 N1329 1.351 1_655 S
C1330 C1331 1.434 . S
C1331 C1322 1.429 . S
C1331 N1328 1.350 1_655 S
C1331 C1330 1.434 . S
C1332 C1333 1.369 . S
C1332 C1334 1.419 . S
C1332 H1336 0.930 . S
C1333 C1332 1.369 . S
C1333 C1342 1.429 . S
C1334 C1332 1.419 . S
C1334 C1335 1.363 . S
C1334 H1337 0.929 . S
C1335 C1334 1.363 . S
C1335 C1341 1.428 . S
H1336 C1332 0.930 . S
H1337 C1334 0.929 . S
S1338 N1339 1.613 . S
S1338 N1340 1.610 . S
N1339 S1338 1.613 . S
N1339 C1342 1.350 . S
N1340 S1338 1.610 . S
N1340 C1341 1.351 . S
C1341 C1335 1.428 . S
C1341 N1340 1.351 . S
C1341 C1342 1.434 . S
C1342 C1333 1.429 . S
C1342 N1339 1.350 . S
C1342 C1341 1.434 . S
C1343 C1344 1.369 . S
C1343 C1345 1.419 . S
C1343 H1347 0.930 . S
C1344 C1343 1.369 . S
C1344 C1353 1.429 . S
C1345 C1343 1.419 . S
C1345 C1346 1.363 . S
C1345 H1348 0.929 . S
C1346 C1345 1.363 . S
C1346 C1352 1.428 . S
H1347 C1343 0.930 . S
H1348 C1345 0.929 . S
S1349 N1350 1.613 . S
S1349 N1351 1.610 . S
N1350 S1349 1.613 . S
N1350 C1353 1.350 . S
N1351 S1349 1.610 . S
N1351 C1352 1.351 . S
C1352 C1346 1.428 . S
C1352 N1351 1.351 . S
C1352 C1353 1.434 . S
C1353 C1344 1.429 . S
C1353 N1350 1.350 . S
C1353 C1352 1.434 . S
C1354 C1355 1.369 . S
C1354 C1356 1.419 . S
C1354 H1358 0.930 . S
C1355 C1354 1.369 . S
C1355 C1364 1.429 . S
C1356 C1354 1.419 . S
C1356 C1357 1.363 . S
C1356 H1359 0.929 . S
C1357 C1356 1.363 . S
C1357 C1363 1.428 . S
H1358 C1354 0.930 . S
H1359 C1356 0.929 . S
S1360 N1361 1.613 . S
S1360 N1362 1.610 . S
N1361 S1360 1.613 . S
N1361 C1364 1.350 . S
N1362 S1360 1.610 . S
N1362 C1363 1.351 . S
C1363 C1357 1.428 . S
C1363 N1362 1.351 . S
C1363 C1364 1.434 . S
C1364 C1355 1.429 . S
C1364 N1361 1.350 . S
C1364 C1363 1.434 . S
C1365 C1366 1.369 . S
C1365 C1367 1.419 . S
C1365 H1369 0.930 . S
C1366 C1365 1.369 . S
C1366 C1375 1.429 . S
C1367 C1365 1.419 . S
C1367 C1368 1.363 . S
C1367 H1370 0.929 . S
C1368 C1367 1.363 . S
C1368 C1374 1.428 . S
H1369 C1365 0.930 . S
H1370 C1367 0.929 . S
S1371 N1372 1.613 . S
S1371 N1373 1.610 . S
N1372 S1371 1.613 . S
N1372 C1375 1.350 . S
N1373 S1371 1.610 . S
N1373 C1374 1.351 . S
C1374 C1368 1.428 . S
C1374 N1373 1.351 . S
C1374 C1375 1.434 . S
C1375 C1366 1.429 . S
C1375 N1372 1.350 . S
C1375 C1374 1.434 . S
C1376 C1377 1.369 . S
C1376 C1378 1.419 . S
C1376 H1380 0.930 . S
C1377 C1376 1.369 . S
C1377 C1386 1.429 . S
C1378 C1376 1.419 . S
C1378 C1379 1.363 . S
C1378 H1381 0.929 . S
C1379 C1378 1.363 . S
C1379 C1385 1.428 . S
H1380 C1376 0.930 . S
H1381 C1378 0.929 . S
S1382 N1383 1.613 . S
S1382 N1384 1.610 . S
N1383 S1382 1.613 . S
N1383 C1386 1.350 . S
N1384 S1382 1.610 . S
N1384 C1385 1.351 . S
C1385 C1379 1.428 . S
C1385 N1384 1.351 . S
C1385 C1386 1.434 . S
C1386 C1377 1.429 . S
C1386 N1383 1.350 . S
C1386 C1385 1.434 . S
C1387 C1388 1.369 . S
C1387 C1389 1.419 . S
C1387 H1391 0.930 . S
C1388 C1387 1.369 . S
C1388 C1397 1.429 . S
C1389 C1387 1.419 . S
C1389 C1390 1.363 . S
C1389 H1392 0.929 . S
C1390 C1389 1.363 . S
C1390 C1396 1.428 . S
H1391 C1387 0.930 . S
H1392 C1389 0.929 . S
S1393 N1394 1.613 . S
S1393 N1395 1.610 . S
N1394 S1393 1.613 . S
N1394 C1397 1.350 . S
N1395 S1393 1.610 . S
N1395 C1396 1.351 . S
C1396 C1390 1.428 . S
C1396 N1395 1.351 . S
C1396 C1397 1.434 . S
C1397 C1388 1.429 . S
C1397 N1394 1.350 . S
C1397 C1396 1.434 . S
C1398 C1399 1.369 . S
C1398 C1400 1.419 . S
C1398 H1402 0.930 . S
C1399 C1398 1.369 . S
C1399 C1408 1.429 . S
C1400 C1398 1.419 . S
C1400 C1401 1.363 . S
C1400 H1403 0.929 . S
C1401 C1400 1.363 . S
C1401 C1407 1.428 . S
H1402 C1398 0.930 . S
H1403 C1400 0.929 . S
S1404 N1405 1.613 . S
S1404 N1406 1.610 . S
N1405 S1404 1.613 . S
N1405 C1408 1.350 . S
N1406 S1404 1.610 . S
N1406 C1407 1.351 . S
C1407 C1401 1.428 . S
C1407 N1406 1.351 . S
C1407 C1408 1.434 . S
C1408 C1399 1.429 . S
C1408 N1405 1.350 . S
C1408 C1407 1.434 . S
C1409 C1410 1.369 . S
C1409 C1411 1.419 . S
C1409 H1413 0.930 . S
C1410 C1409 1.369 . S
C1410 C1419 1.429 . S
C1411 C1409 1.419 . S
C1411 C1412 1.363 . S
C1411 H1414 0.929 . S
C1412 C1411 1.363 . S
C1412 C1418 1.428 . S
H1413 C1409 0.930 . S
H1414 C1411 0.929 . S
S1415 N1416 1.613 . S
S1415 N1417 1.610 . S
N1416 S1415 1.613 . S
N1416 C1419 1.350 . S
N1417 S1415 1.610 . S
N1417 C1418 1.351 . S
C1418 C1412 1.428 . S
C1418 N1417 1.351 . S
C1418 C1419 1.434 . S
C1419 C1410 1.429 . S
C1419 N1416 1.350 . S
C1419 C1418 1.434 . S
C1420 C1421 1.369 . S
C1420 C1422 1.419 . S
C1420 H1424 0.930 . S
C1421 C1420 1.369 . S
C1421 C1430 1.429 . S
C1422 C1420 1.419 . S
C1422 C1423 1.363 . S
C1422 H1425 0.929 . S
C1423 C1422 1.363 . S
C1423 C1429 1.428 . S
H1424 C1420 0.930 . S
H1425 C1422 0.929 . S
S1426 N1427 1.613 . S
S1426 N1428 1.610 . S
N1427 S1426 1.613 . S
N1427 C1430 1.350 . S
N1428 S1426 1.610 . S
N1428 C1429 1.351 . S
C1429 C1423 1.428 . S
C1429 N1428 1.351 . S
C1429 C1430 1.434 . S
C1430 C1421 1.429 . S
C1430 N1427 1.350 . S
C1430 C1429 1.434 . S
C1431 C1432 1.369 . S
C1431 C1433 1.419 . S
C1431 H1435 0.930 . S
C1432 C1431 1.369 . S
C1432 C1441 1.429 . S
C1433 C1431 1.419 . S
C1433 C1434 1.363 . S
C1433 H1436 0.929 . S
C1434 C1433 1.363 . S
C1434 C1440 1.428 . S
H1435 C1431 0.930 . S
H1436 C1433 0.929 . S
S1437 N1438 1.613 . S
S1437 N1439 1.610 . S
N1438 S1437 1.613 . S
N1438 C1441 1.350 . S
N1439 S1437 1.610 . S
N1439 C1440 1.351 . S
C1440 C1434 1.428 . S
C1440 N1439 1.351 . S
C1440 C1441 1.434 . S
C1441 C1432 1.429 . S
C1441 N1438 1.350 . S
C1441 C1440 1.434 . S
C1442 C1443 1.369 . S
C1442 C1444 1.419 . S
C1442 H1446 0.930 . S
C1443 C1442 1.369 . S
C1443 C1452 1.429 . S
C1444 C1442 1.419 . S
C1444 C1445 1.363 . S
C1444 H1447 0.929 . S
C1445 C1444 1.363 . S
C1445 C1451 1.428 . S
H1446 C1442 0.930 . S
H1447 C1444 0.929 . S
S1448 N1449 1.613 . S
S1448 N1450 1.610 1_554 S
N1449 S1448 1.613 . S
N1449 C1452 1.350 1_554 S
N1450 S1448 1.610 1_556 S
N1450 C1451 1.351 . S
C1451 C1445 1.428 . S
C1451 N1450 1.351 . S
C1451 C1452 1.434 . S
C1452 C1443 1.429 . S
C1452 N1449 1.350 1_556 S
C1452 C1451 1.434 . S
C1453 C1454 1.369 . S
C1453 C1455 1.419 . S
C1453 H1457 0.930 . S
C1454 C1453 1.369 . S
C1454 C1463 1.429 . S
C1455 C1453 1.419 . S
C1455 C1456 1.363 . S
C1455 H1458 0.929 . S
C1456 C1455 1.363 . S
C1456 C1462 1.428 . S
H1457 C1453 0.930 . S
H1458 C1455 0.929 . S
S1459 N1460 1.613 . S
S1459 N1461 1.610 . S
N1460 S1459 1.613 . S
N1460 C1463 1.350 . S
N1461 S1459 1.610 . S
N1461 C1462 1.351 . S
C1462 C1456 1.428 . S
C1462 N1461 1.351 . S
C1462 C1463 1.434 . S
C1463 C1454 1.429 . S
C1463 N1460 1.350 . S
C1463 C1462 1.434 . S
C1464 C1465 1.369 . S
C1464 C1466 1.419 . S
C1464 H1468 0.930 . S
C1465 C1464 1.369 . S
C1465 C1474 1.429 . S
C1466 C1464 1.419 . S
C1466 C1467 1.363 . S
C1466 H1469 0.929 . S
C1467 C1466 1.363 . S
C1467 C1473 1.428 . S
H1468 C1464 0.930 . S
H1469 C1466 0.929 . S
S1470 N1471 1.613 . S
S1470 N1472 1.610 . S
N1471 S1470 1.613 . S
N1471 C1474 1.350 . S
N1472 S1470 1.610 . S
N1472 C1473 1.351 . S
C1473 C1467 1.428 . S
C1473 N1472 1.351 . S
C1473 C1474 1.434 . S
C1474 C1465 1.429 . S
C1474 N1471 1.350 . S
C1474 C1473 1.434 . S
C1475 C1476 1.369 . S
C1475 C1477 1.419 . S
C1475 H1479 0.930 . S
C1476 C1475 1.369 . S
C1476 C1485 1.429 . S
C1477 C1475 1.419 . S
C1477 C1478 1.363 . S
C1477 H1480 0.929 . S
C1478 C1477 1.363 . S
C1478 C1484 1.428 . S
H1479 C1475 0.930 . S
H1480 C1477 0.929 . S
S1481 N1482 1.613 . S
S1481 N1483 1.610 . S
N1482 S1481 1.613 . S
N1482 C1485 1.350 . S
N1483 S1481 1.610 . S
N1483 C1484 1.351 . S
C1484 C1478 1.428 . S
C1484 N1483 1.351 . S
C1484 C1485 1.434 . S
C1485 C1476 1.429 . S
C1485 N1482 1.350 . S
C1485 C1484 1.434 . S
C1486 C1487 1.369 . S
C1486 C1488 1.419 . S
C1486 H1490 0.930 . S
C1487 C1486 1.369 . S
C1487 C1496 1.429 . S
C1488 C1486 1.419 . S
C1488 C1489 1.363 . S
C1488 H1491 0.929 . S
C1489 C1488 1.363 . S
C1489 C1495 1.428 . S
H1490 C1486 0.930 . S
H1491 C1488 0.929 . S
S1492 N1493 1.613 . S
S1492 N1494 1.610 . S
N1493 S1492 1.613 . S
N1493 C1496 1.350 . S
N1494 S1492 1.610 . S
N1494 C1495 1.351 . S
C1495 C1489 1.428 . S
C1495 N1494 1.351 . S
C1495 C1496 1.434 . S
C1496 C1487 1.429 . S
C1496 N1493 1.350 . S
C1496 C1495 1.434 . S
C1497 C1498 1.369 . S
C1497 C1499 1.419 . S
C1497 H1501 0.930 . S
C1498 C1497 1.369 . S
C1498 C1507 1.429 . S
C1499 C1497 1.419 . S
C1499 C1500 1.363 . S
C1499 H1502 0.929 . S
C1500 C1499 1.363 . S
C1500 C1506 1.428 . S
H1501 C1497 0.930 . S
H1502 C1499 0.929 . S
S1503 N1504 1.613 . S
S1503 N1505 1.610 . S
N1504 S1503 1.613 . S
N1504 C1507 1.350 . S
N1505 S1503 1.610 . S
N1505 C1506 1.351 . S
C1506 C1500 1.428 . S
C1506 N1505 1.351 . S
C1506 C1507 1.434 . S
C1507 C1498 1.429 . S
C1507 N1504 1.350 . S
C1507 C1506 1.434 . S
C1508 C1509 1.369 . S
C1508 C1510 1.419 . S
C1508 H1512 0.930 . S
C1509 C1508 1.369 . S
C1509 C1518 1.429 . S
C1510 C1508 1.419 . S
C1510 C1511 1.363 . S
C1510 H1513 0.929 . S
C1511 C1510 1.363 . S
C1511 C1517 1.428 . S
H1512 C1508 0.930 . S
H1513 C1510 0.929 . S
S1514 N1515 1.613 . S
S1514 N1516 1.610 . S
N1515 S1514 1.613 . S
N1515 C1518 1.350 . S
N1516 S1514 1.610 . S
N1516 C1517 1.351 . S
C1517 C1511 1.428 . S
C1517 N1516 1.351 . S
C1517 C1518 1.434 . S
C1518 C1509 1.429 . S
C1518 N1515 1.350 . S
C1518 C1517 1.434 . S
C1519 C1520 1.369 . S
C1519 C1521 1.419 . S
C1519 H1523 0.930 . S
C1520 C1519 1.369 . S
C1520 C1529 1.429 . S
C1521 C1519 1.419 . S
C1521 C1522 1.363 . S
C1521 H1524 0.929 . S
C1522 C1521 1.363 . S
C1522 C1528 1.428 . S
H1523 C1519 0.930 . S
H1524 C1521 0.929 . S
S1525 N1526 1.613 . S
S1525 N1527 1.610 . S
N1526 S1525 1.613 . S
N1526 C1529 1.350 . S
N1527 S1525 1.610 . S
N1527 C1528 1.351 . S
C1528 C1522 1.428 . S
C1528 N1527 1.351 . S
C1528 C1529 1.434 . S
C1529 C1520 1.429 . S
C1529 N1526 1.350 . S
C1529 C1528 1.434 . S
C1530 C1531 1.369 . S
C1530 C1532 1.419 . S
C1530 H1534 0.930 . S
C1531 C1530 1.369 . S
C1531 C1540 1.429 . S
C1532 C1530 1.419 . S
C1532 C1533 1.363 . S
C1532 H1535 0.929 . S
C1533 C1532 1.363 . S
C1533 C1539 1.428 . S
H1534 C1530 0.930 . S
H1535 C1532 0.929 . S
S1536 N1537 1.613 . S
S1536 N1538 1.610 . S
N1537 S1536 1.613 . S
N1537 C1540 1.350 . S
N1538 S1536 1.610 . S
N1538 C1539 1.351 . S
C1539 C1533 1.428 . S
C1539 N1538 1.351 . S
C1539 C1540 1.434 . S
C1540 C1531 1.429 . S
C1540 N1537 1.350 . S
C1540 C1539 1.434 . S
C1541 C1542 1.369 . S
C1541 C1543 1.419 . S
C1541 H1545 0.930 . S
C1542 C1541 1.369 . S
C1542 C1551 1.429 . S
C1543 C1541 1.419 . S
C1543 C1544 1.363 . S
C1543 H1546 0.929 . S
C1544 C1543 1.363 . S
C1544 C1550 1.428 . S
H1545 C1541 0.930 . S
H1546 C1543 0.929 . S
S1547 N1548 1.613 . S
S1547 N1549 1.610 . S
N1548 S1547 1.613 . S
N1548 C1551 1.350 . S
N1549 S1547 1.610 . S
N1549 C1550 1.351 . S
C1550 C1544 1.428 . S
C1550 N1549 1.351 . S
C1550 C1551 1.434 . S
C1551 C1542 1.429 . S
C1551 N1548 1.350 . S
C1551 C1550 1.434 . S
C1552 C1553 1.369 . S
C1552 C1554 1.419 . S
C1552 H1556 0.930 . S
C1553 C1552 1.369 . S
C1553 C1562 1.429 . S
C1554 C1552 1.419 . S
C1554 C1555 1.363 . S
C1554 H1557 0.929 . S
C1555 C1554 1.363 . S
C1555 C1561 1.428 . S
H1556 C1552 0.930 . S
H1557 C1554 0.929 . S
S1558 N1559 1.613 . S
S1558 N1560 1.610 . S
N1559 S1558 1.613 . S
N1559 C1562 1.350 . S
N1560 S1558 1.610 . S
N1560 C1561 1.351 . S
C1561 C1555 1.428 . S
C1561 N1560 1.351 . S
C1561 C1562 1.434 . S
C1562 C1553 1.429 . S
C1562 N1559 1.350 . S
C1562 C1561 1.434 . S
C1563 C1564 1.369 . S
C1563 C1565 1.419 . S
C1563 H1567 0.930 . S
C1564 C1563 1.369 . S
C1564 C1573 1.429 . S
C1565 C1563 1.419 . S
C1565 C1566 1.363 . S
C1565 H1568 0.929 . S
C1566 C1565 1.363 . S
C1566 C1572 1.428 . S
H1567 C1563 0.930 . S
H1568 C1565 0.929 . S
S1569 N1570 1.613 . S
S1569 N1571 1.610 . S
N1570 S1569 1.613 . S
N1570 C1573 1.350 . S
N1571 S1569 1.610 . S
N1571 C1572 1.351 . S
C1572 C1566 1.428 . S
C1572 N1571 1.351 . S
C1572 C1573 1.434 . S
C1573 C1564 1.429 . S
C1573 N1570 1.350 . S
C1573 C1572 1.434 . S
C1574 C1575 1.369 . S
C1574 C1576 1.419 . S
C1574 H1578 0.930 . S
C1575 C1574 1.369 . S
C1575 C1584 1.429 . S
C1576 C1574 1.419 . S
C1576 C1577 1.363 . S
C1576 H1579 0.929 . S
C1577 C1576 1.363 . S
C1577 C1583 1.428 . S
H1578 C1574 0.930 . S
H1579 C1576 0.929 . S
S1580 N1581 1.613 . S
S1580 N1582 1.610 . S
N1581 S1580 1.613 . S
N1581 C1584 1.350 . S
N1582 S1580 1.610 . S
N1582 C1583 1.351 . S
C1583 C1577 1.428 . S
C1583 N1582 1.351 . S
C1583 C1584 1.434 . S
C1584 C1575 1.429 . S
C1584 N1581 1.350 . S
C1584 C1583 1.434 . S
C1585 C1586 1.369 . S
C1585 C1587 1.419 . S
C1585 H1589 0.930 . S
C1586 C1585 1.369 . S
C1586 C1595 1.429 . S
C1587 C1585 1.419 . S
C1587 C1588 1.363 . S
C1587 H1590 0.929 . S
C1588 C1587 1.363 . S
C1588 C1594 1.428 . S
H1589 C1585 0.930 . S
H1590 C1587 0.929 . S
S1591 N1592 1.613 . S
S1591 N1593 1.610 . S
N1592 S1591 1.613 . S
N1592 C1595 1.350 . S
N1593 S1591 1.610 . S
N1593 C1594 1.351 . S
C1594 C1588 1.428 . S
C1594 N1593 1.351 . S
C1594 C1595 1.434 . S
C1595 C1586 1.429 . S
C1595 N1592 1.350 . S
C1595 C1594 1.434 . S
C1596 C1597 1.369 . S
C1596 C1598 1.419 . S
C1596 H1600 0.930 . S
C1597 C1596 1.369 . S
C1597 C1606 1.429 . S
C1598 C1596 1.419 . S
C1598 C1599 1.363 . S
C1598 H1601 0.929 . S
C1599 C1598 1.363 . S
C1599 C1605 1.428 . S
H1600 C1596 0.930 . S
H1601 C1598 0.929 . S
S1602 N1603 1.613 . S
S1602 N1604 1.610 . S
N1603 S1602 1.613 . S
N1603 C1606 1.350 . S
N1604 S1602 1.610 . S
N1604 C1605 1.351 . S
C1605 C1599 1.428 . S
C1605 N1604 1.351 . S
C1605 C1606 1.434 . S
C1606 C1597 1.429 . S
C1606 N1603 1.350 . S
C1606 C1605 1.434 . S
C1607 C1608 1.369 . S
C1607 C1609 1.419 . S
C1607 H1611 0.930 . S
C1608 C1607 1.369 . S
C1608 C1617 1.429 . S
C1609 C1607 1.419 . S
C1609 C1610 1.363 . S
C1609 H1612 0.929 . S
C1610 C1609 1.363 . S
C1610 C1616 1.428 . S
H1611 C1607 0.930 . S
H1612 C1609 0.929 . S
S1613 N1614 1.613 . S
S1613 N1615 1.610 . S
N1614 S1613 1.613 . S
N1614 C1617 1.350 . S
N1615 S1613 1.610 . S
N1615 C1616 1.351 . S
C1616 C1610 1.428 . S
C1616 N1615 1.351 . S
C1616 C1617 1.434 . S
C1617 C1608 1.429 . S
C1617 N1614 1.350 . S
C1617 C1616 1.434 . S
C1618 C1619 1.369 . S
C1618 C1620 1.419 . S
C1618 H1622 0.930 . S
C1619 C1618 1.369 . S
C1619 C1628 1.429 . S
C1620 C1618 1.419 . S
C1620 C1621 1.363 . S
C1620 H1623 0.929 . S
C1621 C1620 1.363 . S
C1621 C1627 1.428 . S
H1622 C1618 0.930 . S
H1623 C1620 0.929 . S
S1624 N1625 1.613 . S
S1624 N1626 1.610 . S
N1625 S1624 1.613 . S
N1625 C1628 1.350 . S
N1626 S1624 1.610 . S
N1626 C1627 1.351 . S
C1627 C1621 1.428 . S
C1627 N1626 1.351 . S
C1627 C1628 1.434 . S
C1628 C1619 1.429 . S
C1628 N1625 1.350 . S
C1628 C1627 1.434 . S
C1629 C1630 1.369 . S
C1629 C1631 1.419 . S
C1629 H1633 0.930 . S
C1630 C1629 1.369 . S
C1630 C1639 1.429 . S
C1631 C1629 1.419 . S
C1631 C1632 1.363 . S
C1631 H1634 0.929 . S
C1632 C1631 1.363 . S
C1632 C1638 1.428 . S
H1633 C1629 0.930 . S
H1634 C1631 0.929 . S
S1635 N1636 1.613 . S
S1635 N1637 1.610 . S
N1636 S1635 1.613 . S
N1636 C1639 1.350 . S
N1637 S1635 1.610 . S
N1637 C1638 1.351 . S
C1638 C1632 1.428 . S
C1638 N1637 1.351 . S
C1638 C1639 1.434 . S
C1639 C1630 1.429 . S
C1639 N1636 1.350 . S
C1639 C1638 1.434 . S
C1640 C1641 1.369 . S
C1640 C1642 1.419 . S
C1640 H1644 0.930 . S
C1641 C1640 1.369 . S
C1641 C1650 1.429 . S
C1642 C1640 1.419 . S
C1642 C1643 1.363 . S
C1642 H1645 0.929 . S
C1643 C1642 1.363 . S
C1643 C1649 1.428 . S
H1644 C1640 0.930 . S
H1645 C1642 0.929 . S
S1646 N1647 1.613 . S
S1646 N1648 1.610 . S
N1647 S1646 1.613 . S
N1647 C1650 1.350 . S
N1648 S1646 1.610 . S
N1648 C1649 1.351 . S
C1649 C1643 1.428 . S
C1649 N1648 1.351 . S
C1649 C1650 1.434 . S
C1650 C1641 1.429 . S
C1650 N1647 1.350 . S
C1650 C1649 1.434 . S
C1651 C1652 1.369 . S
C1651 C1653 1.419 . S
C1651 H1655 0.930 . S
C1652 C1651 1.369 . S
C1652 C1661 1.429 . S
C1653 C1651 1.419 . S
C1653 C1654 1.363 . S
C1653 H1656 0.929 . S
C1654 C1653 1.363 . S
C1654 C1660 1.428 . S
H1655 C1651 0.930 . S
H1656 C1653 0.929 . S
S1657 N1658 1.613 . S
S1657 N1659 1.610 . S
N1658 S1657 1.613 . S
N1658 C1661 1.350 . S
N1659 S1657 1.610 . S
N1659 C1660 1.351 . S
C1660 C1654 1.428 . S
C1660 N1659 1.351 . S
C1660 C1661 1.434 . S
C1661 C1652 1.429 . S
C1661 N1658 1.350 . S
C1661 C1660 1.434 . S
C1662 C1663 1.369 . S
C1662 C1664 1.419 . S
C1662 H1666 0.930 . S
C1663 C1662 1.369 . S
C1663 C1672 1.429 . S
C1664 C1662 1.419 . S
C1664 C1665 1.363 . S
C1664 H1667 0.929 . S
C1665 C1664 1.363 . S
C1665 C1671 1.428 . S
H1666 C1662 0.930 . S
H1667 C1664 0.929 . S
S1668 N1669 1.613 . S
S1668 N1670 1.610 . S
N1669 S1668 1.613 . S
N1669 C1672 1.350 . S
N1670 S1668 1.610 . S
N1670 C1671 1.351 . S
C1671 C1665 1.428 . S
C1671 N1670 1.351 . S
C1671 C1672 1.434 . S
C1672 C1663 1.429 . S
C1672 N1669 1.350 . S
C1672 C1671 1.434 . S
C1673 C1674 1.369 . S
C1673 C1675 1.419 . S
C1673 H1677 0.930 . S
C1674 C1673 1.369 . S
C1674 C1683 1.429 . S
C1675 C1673 1.419 . S
C1675 C1676 1.363 . S
C1675 H1678 0.929 . S
C1676 C1675 1.363 . S
C1676 C1682 1.428 . S
H1677 C1673 0.930 . S
H1678 C1675 0.929 . S
S1679 N1680 1.613 . S
S1679 N1681 1.610 . S
N1680 S1679 1.613 . S
N1680 C1683 1.350 . S
N1681 S1679 1.610 . S
N1681 C1682 1.351 . S
C1682 C1676 1.428 . S
C1682 N1681 1.351 . S
C1682 C1683 1.434 . S
C1683 C1674 1.429 . S
C1683 N1680 1.350 . S
C1683 C1682 1.434 . S
C1684 C1685 1.369 . S
C1684 C1686 1.419 . S
C1684 H1688 0.930 . S
C1685 C1684 1.369 . S
C1685 C1694 1.429 . S
C1686 C1684 1.419 . S
C1686 C1687 1.363 . S
C1686 H1689 0.929 . S
C1687 C1686 1.363 . S
C1687 C1693 1.428 . S
H1688 C1684 0.930 . S
H1689 C1686 0.929 . S
S1690 N1691 1.613 . S
S1690 N1692 1.610 . S
N1691 S1690 1.613 . S
N1691 C1694 1.350 . S
N1692 S1690 1.610 . S
N1692 C1693 1.351 . S
C1693 C1687 1.428 . S
C1693 N1692 1.351 . S
C1693 C1694 1.434 . S
C1694 C1685 1.429 . S
C1694 N1691 1.350 . S
C1694 C1693 1.434 . S
C1695 C1696 1.369 . S
C1695 C1697 1.419 . S
C1695 H1699 0.930 . S
C1696 C1695 1.369 . S
C1696 C1705 1.429 . S
C1697 C1695 1.419 . S
C1697 C1698 1.363 . S
C1697 H1700 0.929 . S
C1698 C1697 1.363 . S
C1698 C1704 1.428 . S
H1699 C1695 0.930 . S
H1700 C1697 0.929 . S
S1701 N1702 1.613 . S
S1701 N1703 1.610 . S
N1702 S1701 1.613 . S
N1702 C1705 1.350 . S
N1703 S1701 1.610 . S
N1703 C1704 1.351 . S
C1704 C1698 1.428 . S
C1704 N1703 1.351 . S
C1704 C1705 1.434 . S
C1705 C1696 1.429 . S
C1705 N1702 1.350 . S
C1705 C1704 1.434 . S
C1706 C1707 1.369 . S
C1706 C1708 1.419 . S
C1706 H1710 0.930 . S
C1707 C1706 1.369 . S
C1707 C1716 1.429 . S
C1708 C1706 1.419 . S
C1708 C1709 1.363 . S
C1708 H1711 0.929 . S
C1709 C1708 1.363 . S
C1709 C1715 1.428 . S
H1710 C1706 0.930 . S
H1711 C1708 0.929 . S
S1712 N1713 1.613 . S
S1712 N1714 1.610 . S
N1713 S1712 1.613 . S
N1713 C1716 1.350 . S
N1714 S1712 1.610 . S
N1714 C1715 1.351 . S
C1715 C1709 1.428 . S
C1715 N1714 1.351 . S
C1715 C1716 1.434 . S
C1716 C1707 1.429 . S
C1716 N1713 1.350 . S
C1716 C1715 1.434 . S
C1717 C1718 1.369 . S
C1717 C1719 1.419 . S
C1717 H1721 0.930 . S
C1718 C1717 1.369 . S
C1718 C1727 1.429 . S
C1719 C1717 1.419 . S
C1719 C1720 1.363 . S
C1719 H1722 0.929 . S
C1720 C1719 1.363 . S
C1720 C1726 1.428 . S
H1721 C1717 0.930 . S
H1722 C1719 0.929 . S
S1723 N1724 1.613 . S
S1723 N1725 1.610 . S
N1724 S1723 1.613 . S
N1724 C1727 1.350 . S
N1725 S1723 1.610 . S
N1725 C1726 1.351 . S
C1726 C1720 1.428 . S
C1726 N1725 1.351 . S
C1726 C1727 1.434 . S
C1727 C1718 1.429 . S
C1727 N1724 1.350 . S
C1727 C1726 1.434 . S
C673 C91 1.296 . S
C675 C7 1.294 . S
C684 C21 1.294 . S
C686 C105 1.298 . S
C695 C35 1.294 . S
C697 C63 1.295 . S
C706 C77 1.298 . S
C708 C49 1.294 . S
C717 C483 1.299 . S
C719 C119 1.296 . S
C728 C497 1.298 . S
C730 C133 1.299 . S
C739 C147 1.296 . S
C741 C455 1.299 . S
C750 C161 1.293 . S
C752 C469 1.297 . S
C761 C539 1.296 . S
C763 C175 1.294 . S
C772 C553 1.294 . S
C774 C189 1.294 . S
C783 C511 1.296 . S
C785 C203 1.294 . S
C794 C525 1.295 . S
C796 C217 1.294 . S
C805 C231 1.293 . S
C807 C581 1.296 . S
C816 C245 1.299 . S
C818 C567 1.298 . S
C827 C259 1.295 . S
C829 C329 1.298 . S
C838 C637 1.299 . S
C840 C273 1.298 . S
C849 C651 1.299 . S
C851 C287 1.298 . S
C860 C609 1.293 . S
C862 C301 1.296 . S
C871 C623 1.293 . S
C873 C315 1.296 . S
C882 C427 1.295 . S
C884 C343 1.294 . S
C893 C441 1.297 . S
C895 C357 1.299 . S
C904 C371 1.293 . S
C906 C399 1.295 . S
C915 C385 1.293 . S
C917 C413 1.296 . S
C926 C665 1.295 . S
C928 C595 1.298 . S
C937 C233 1.238 . S
C939 C3 1.325 . S
C948 C17 1.324 . S
C950 C667 1.238 . S
C959 C31 1.325 . S
C961 C303 1.249 . S
C970 C653 1.249 . S
C972 C45 1.324 . S
C981 C59 1.325 . S
C983 C583 1.240 . S
C992 C597 1.238 . S
C994 C73 1.325 . S
C1003 C87 1.323 . S
C1005 C611 1.241 . S
C1014 C289 1.249 . S
C1016 C101 1.325 . S
C1025 C115 1.326 . S
C1027 C9 1.244 . S
C1036 C23 1.237 . S
C1038 C129 1.324 . S
C1047 C143 1.326 . S
C1049 C37 1.249 . S
C1058 C157 1.325 . S
C1060 C51 1.241 . S
C1069 C171 1.326 . S
C1071 C65 1.247 . S
C1080 C79 1.248 . S
C1082 C185 1.326 . S
C1091 C199 1.326 . S
C1093 C93 1.246 . S
C1102 C213 1.326 . S
C1104 C107 1.244 . S
C1113 C227 1.323 . S
C1115 C121 1.241 . S
C1124 C241 1.325 . S
C1126 C513 1.249 . S
C1135 C527 1.242 . S
C1137 C255 1.323 . S
C1146 C541 1.240 . S
C1148 C269 1.323 . S
C1157 C283 1.325 . S
C1159 C219 1.249 . S
C1168 C297 1.323 . S
C1170 C149 1.239 . S
C1179 C499 1.238 . S
C1181 C311 1.325 . S
C1190 C471 1.251 . S
C1192 C325 1.325 . S
C1201 C339 1.323 . S
C1203 C569 1.243 . S
C1212 C353 1.326 . S
C1214 C331 1.245 . S
C1223 C367 1.323 . S
C1225 C639 1.242 . S
C1234 C381 1.326 . S
C1236 C317 1.249 . S
C1245 C395 1.323 . S
C1247 C247 1.238 . S
C1256 C261 1.239 . S
C1258 C409 1.325 . S
C1267 C275 1.237 . S
C1269 C423 1.325 . S
C1278 C625 1.249 . S
C1280 C437 1.326 . S
C1289 C345 1.243 . S
C1291 C451 1.323 . S
C1300 C359 1.245 . S
C1302 C465 1.326 . S
C1311 C479 1.326 . S
C1313 C373 1.248 . S
C1322 C387 1.237 . S
C1324 C493 1.324 . S
C1333 C507 1.324 . S
C1335 C401 1.246 . S
C1344 C415 1.246 . S
C1346 C521 1.326 . S
C1355 C535 1.324 . S
C1357 C429 1.239 . S
C1366 C443 1.243 . S
C1368 C549 1.326 . S
C1377 C563 1.326 . S
C1379 C457 1.247 . S
C1388 C577 1.325 . S
C1390 C177 1.248 . S
C1399 C191 1.250 . S
C1401 C591 1.326 . S
C1410 C605 1.326 . S
C1412 C205 1.246 . S
C1421 C619 1.323 . S
C1423 C555 1.241 . S
C1432 C485 1.237 . S
C1434 C633 1.324 . S
C1443 C647 1.324 . S
C1445 C163 1.238 . S
C1454 C135 1.237 . S
C1456 C661 1.324 . S
C1465 C134 0.935 . S
C1467 C8 0.932 . S
C1476 C22 0.933 . S
C1478 C148 0.932 . S
C1487 C162 0.936 . S
C1489 C36 0.932 . S
C1498 C120 0.932 . S
C1500 C50 0.935 . S
C1509 C64 0.931 . S
C1511 C218 0.934 . S
C1520 C78 0.933 . S
C1522 C176 0.932 . S
C1531 C190 0.934 . S
C1533 C92 0.935 . S
C1542 C204 0.933 . S
C1544 C106 0.935 . S
C1553 C232 0.936 . S
C1555 C260 0.933 . S
C1564 C246 0.931 . S
C1566 C652 0.934 . S
C1575 C274 0.936 . S
C1577 C666 0.933 . S
C1586 C638 0.934 . S
C1588 C288 0.935 . S
C1597 C624 0.932 . S
C1599 C302 0.933 . S
C1608 C582 0.936 . S
C1610 C316 0.934 . S
C1619 C330 0.934 . S
C1621 C610 0.935 . S
C1630 C470 0.931 . S
C1632 C344 0.934 . S
C1641 C484 0.932 . S
C1643 C358 0.935 . S
C1652 C372 0.931 . S
C1654 C498 0.935 . S
C1663 C456 0.931 . S
C1665 C386 0.934 . S
C1674 C554 0.932 . S
C1676 C400 0.932 . S
C1685 C512 0.932 . S
C1687 C414 0.933 . S
C1696 C428 0.931 . S
C1698 C526 0.934 . S
C1707 C540 0.931 . S
C1709 C442 0.935 . S
C1718 C596 0.933 . S
C1720 C568 0.936 . S
