# Generated by pormake.
# Topology wiv, (6)-cn, num edge types: 1
# Building blocks:
#     Node 0, Type 0, BuildingBlock: LEVNOQ01_clean_sbu_1, # of connection points: 6
#     Node 1, Type 0, BuildingBlock: LEVNOQ01_clean_sbu_1, # of connection points: 6
#     Node 2, Type 0, BuildingBlock: LEVNOQ01_clean_sbu_1, # of connection points: 6
#     Node 3, Type 0, BuildingBlock: LEVNOQ01_clean_sbu_1, # of connection points: 6
#     Node 4, Type 0, BuildingBlock: LEVNOQ01_clean_sbu_1, # of connection points: 6
#     Node 5, Type 0, BuildingBlock: LEVNOQ01_clean_sbu_1, # of connection points: 6
#     Node 6, Type 0, BuildingBlock: LEVNOQ01_clean_sbu_1, # of connection points: 6
#     Node 7, Type 0, BuildingBlock: LEVNOQ01_clean_sbu_1, # of connection points: 6
#     Node 8, Type 0, BuildingBlock: LEVNOQ01_clean_sbu_1, # of connection points: 6
#     Node 9, Type 0, BuildingBlock: LEVNOQ01_clean_sbu_1, # of connection points: 6
#     Node 10, Type 0, BuildingBlock: LEVNOQ01_clean_sbu_1, # of connection points: 6
#     Node 11, Type 0, BuildingBlock: LEVNOQ01_clean_sbu_1, # of connection points: 6
#     Node 12, Type 0, BuildingBlock: LEVNOQ01_clean_sbu_1, # of connection points: 6
#     Node 13, Type 0, BuildingBlock: LEVNOQ01_clean_sbu_1, # of connection points: 6
#     Node 14, Type 0, BuildingBlock: LEVNOQ01_clean_sbu_1, # of connection points: 6
#     Node 15, Type 0, BuildingBlock: LEVNOQ01_clean_sbu_1, # of connection points: 6
#     Edge 16, Type (0, 0), None
#     Edge 17, Type (0, 0), None
#     Edge 18, Type (0, 0), None
#     Edge 19, Type (0, 0), None
#     Edge 20, Type (0, 0), None
#     Edge 21, Type (0, 0), None
#     Edge 22, Type (0, 0), None
#     Edge 23, Type (0, 0), None
#     Edge 24, Type (0, 0), None
#     Edge 25, Type (0, 0), None
#     Edge 26, Type (0, 0), None
#     Edge 27, Type (0, 0), None
#     Edge 28, Type (0, 0), None
#     Edge 29, Type (0, 0), None
#     Edge 30, Type (0, 0), None
#     Edge 31, Type (0, 0), None
#     Edge 32, Type (0, 0), None
#     Edge 33, Type (0, 0), None
#     Edge 34, Type (0, 0), None
#     Edge 35, Type (0, 0), None
#     Edge 36, Type (0, 0), None
#     Edge 37, Type (0, 0), None
#     Edge 38, Type (0, 0), None
#     Edge 39, Type (0, 0), None
#     Edge 40, Type (0, 0), None
#     Edge 41, Type (0, 0), None
#     Edge 42, Type (0, 0), None
#     Edge 43, Type (0, 0), None
#     Edge 44, Type (0, 0), None
#     Edge 45, Type (0, 0), None
#     Edge 46, Type (0, 0), None
#     Edge 47, Type (0, 0), None
#     Edge 48, Type (0, 0), None
#     Edge 49, Type (0, 0), None
#     Edge 50, Type (0, 0), None
#     Edge 51, Type (0, 0), None
#     Edge 52, Type (0, 0), None
#     Edge 53, Type (0, 0), None
#     Edge 54, Type (0, 0), None
#     Edge 55, Type (0, 0), None
#     Edge 56, Type (0, 0), None
#     Edge 57, Type (0, 0), None
#     Edge 58, Type (0, 0), None
#     Edge 59, Type (0, 0), None
#     Edge 60, Type (0, 0), None
#     Edge 61, Type (0, 0), None
#     Edge 62, Type (0, 0), None
#     Edge 63, Type (0, 0), None
# Relax obj value: 0.076
# Max RMSD: 0.120
# Mean RMSD: 0.120
data_MOF--net-wiv--node1-LEVNOQ01_clean_sbu_1--edge1-none
_symmetry_space_group_name_H-M    P1
_symmetry_Int_Tables_number       1
_symmetry_cell_setting            triclinic
loop_
_symmetry_equiv_pos_as_xyz
'x, y, z'
_cell_length_a     29.137939
_cell_length_b     29.146067
_cell_length_c     7.5461354
_cell_angle_alpha  89.986844
_cell_angle_beta   90.011114
_cell_angle_gamma 90.005906
loop_
_atom_site_label
_atom_site_type_symbol
_atom_site_fract_x
_atom_site_fract_y
_atom_site_fract_z
_atom_type_partial_charge
O0 O 0.31865 0.14185 0.48192 0.0
Mg1 Mg 0.38455 0.15319 0.39346 0.0
O2 O 0.33553 0.07738 0.34935 0.0
Mg3 Mg 0.35417 0.09346 0.06001 0.0
O4 O 0.37543 0.16811 0.12425 0.0
O5 O 0.40095 0.21932 0.32263 0.0
O6 O 0.35817 0.09818 0.76187 0.0
O7 O 0.282 0.12119 0.93384 0.0
Mg8 Mg 0.2764 0.01921 0.9515 0.0
O9 O 0.34464 0.01752 0.02384 0.0
O10 O 0.30285 0.04533 0.70122 0.0
O11 O 0.23321 0.07385 0.03691 0.0
O12 O 0.29598 -0.02037 0.17957 0.0
C13 C 0.45005 0.08476 0.27671 0.0
C14 C 0.32141 0.09867 0.48475 0.0
C15 C 0.38754 0.20955 0.16432 0.0
C16 C 0.33034 0.07747 0.65498 0.0
C17 C 0.24057 0.10727 0.93476 0.0
C18 C 0.33808 -0.0112 0.14962 0.0
O19 O 0.42258 0.08935 0.40395 0.0
O20 O 0.43272 0.07977 0.12199 0.0
O21 O 0.14198 0.6357 0.46271 0.0
Mg22 Mg 0.15335 0.56982 0.5512 0.0
O23 O 0.0775 0.61879 0.5954 0.0
Mg24 Mg 0.09358 0.60018 0.88474 0.0
O25 O 0.16823 0.57894 0.82042 0.0
O26 O 0.21949 0.55347 0.62221 0.0
O27 O 0.09832 0.59616 0.18285 0.0
O28 O 0.12128 0.67238 0.01092 0.0
Mg29 Mg 0.01925 0.67785 -0.00665 0.0
O30 O 0.01761 0.60964 0.92089 0.0
O31 O 0.04538 0.65136 0.24356 0.0
O32 O 0.07386 0.72109 0.90797 0.0
O33 O -0.02028 0.65831 0.76515 0.0
C34 C 0.08496 0.50431 0.66823 0.0
C35 C 0.09878 0.6329 0.45993 0.0
C36 C 0.20969 0.56686 0.78048 0.0
C37 C 0.07757 0.62394 0.28976 0.0
C38 C 0.10729 0.71377 0.01015 0.0
C39 C -0.0111 0.61622 0.79507 0.0
O40 O 0.08951 0.53176 0.54088 0.0
O41 O 0.07994 0.52165 0.82289 0.0
O42 O 0.63587 0.81243 0.48256 0.0
Mg43 Mg 0.56996 0.80104 0.39421 0.0
O44 O 0.61904 0.87691 0.34974 0.0
Mg45 Mg 0.60042 0.86085 0.06043 0.0
O46 O 0.57915 0.78624 0.12499 0.0
O47 O 0.5536 0.73491 0.32285 0.0
O48 O 0.59638 0.85609 0.76235 0.0
O49 O 0.67264 0.83315 0.93426 0.0
Mg50 Mg 0.67811 0.93517 0.95166 0.0
O51 O 0.60989 0.9368 0.0241 0.0
O52 O 0.65161 0.90901 0.70152 0.0
O53 O 0.72136 0.88057 0.03714 0.0
O54 O 0.65855 0.9747 0.1798 0.0
C55 C 0.50452 0.86948 0.27691 0.0
C56 C 0.63312 0.85561 0.48526 0.0
C57 C 0.56707 0.74477 0.16468 0.0
C58 C 0.62417 0.87682 0.65539 0.0
C59 C 0.71404 0.84715 0.93499 0.0
C60 C 0.61645 0.9655 0.14989 0.0
O61 O 0.53196 0.86489 0.40431 0.0
O62 O 0.52188 0.8745 0.12227 0.0
O63 O 0.81254 0.31859 0.4626 0.0
Mg64 Mg 0.80112 0.38448 0.55084 0.0
O65 O 0.87703 0.33546 0.59533 0.0
Mg66 Mg 0.86097 0.35407 0.88463 0.0
O67 O 0.78634 0.37529 0.82011 0.0
O68 O 0.73497 0.4008 0.62228 0.0
O69 O 0.85621 0.3581 0.18272 0.0
O70 O 0.83324 0.28189 0.01082 0.0
Mg71 Mg 0.93523 0.27639 -0.00665 0.0
O72 O 0.93693 0.3446 0.92096 0.0
O73 O 0.90911 0.30285 0.24353 0.0
O74 O 0.8806 0.23316 0.90781 0.0
O75 O 0.97481 0.29595 0.76529 0.0
C76 C 0.86955 0.44996 0.668 0.0
C77 C 0.85573 0.32136 0.45987 0.0
C78 C 0.74485 0.38735 0.78047 0.0
C79 C 0.87694 0.33031 0.28968 0.0
C80 C 0.84719 0.24049 0.00997 0.0
C81 C 0.96565 0.33804 0.79523 0.0
O82 O 0.86497 0.42251 0.54068 0.0
O83 O 0.87459 0.43261 0.82268 0.0
O84 O 0.31864 0.31248 0.71278 0.0
Mg85 Mg 0.38454 0.30108 0.80131 0.0
O86 O 0.33561 0.37693 0.8454 0.0
Mg87 Mg 0.35422 0.36084 0.13473 0.0
O88 O 0.37544 0.28616 0.07052 0.0
O89 O 0.40093 0.23495 0.87216 0.0
O90 O 0.35823 0.3561 0.43286 0.0
O91 O 0.28199 0.33318 0.26098 0.0
Mg92 Mg 0.27656 0.43517 0.2433 0.0
O93 O 0.34479 0.43682 0.17082 0.0
O94 O 0.30303 0.40905 0.49355 0.0
O95 O 0.23327 0.38058 0.158 0.0
O96 O 0.2961 0.4747 0.01512 0.0
C97 C 0.45012 0.3694 0.91817 0.0
C98 C 0.32148 0.35566 0.70996 0.0
C99 C 0.38753 0.24472 0.03046 0.0
C100 C 0.33045 0.37685 0.53977 0.0
C101 C 0.24059 0.34717 0.2602 0.0
C102 C 0.3382 0.46555 0.04506 0.0
O103 O 0.42266 0.36485 0.79081 0.0
O104 O 0.43278 0.37442 0.07283 0.0
O105 O 0.31253 0.63581 0.23208 0.0
Mg106 Mg 0.30119 0.56993 0.14348 0.0
O107 O 0.37701 0.6189 0.09949 0.0
Mg108 Mg 0.36094 0.60031 0.81016 0.0
O109 O 0.28628 0.57902 0.87429 0.0
O110 O 0.23508 0.55346 0.07267 0.0
O111 O 0.3562 0.59629 0.51207 0.0
O112 O 0.33322 0.67251 0.68388 0.0
Mg113 Mg 0.43522 0.67805 0.70143 0.0
O114 O 0.4369 0.60985 0.77404 0.0
O115 O 0.4091 0.65154 0.45126 0.0
O116 O 0.38059 0.72123 0.787 0.0
O117 O 0.4748 0.65855 0.92952 0.0
C118 C 0.36966 0.50445 0.02692 0.0
C119 C 0.35572 0.63302 0.2349 0.0
C120 C 0.24484 0.56689 0.91437 0.0
C121 C 0.37693 0.62408 0.40511 0.0
C122 C 0.34719 0.71391 0.68473 0.0
C123 C 0.46563 0.61645 0.89977 0.0
O124 O 0.36498 0.53182 0.15443 0.0
O125 O 0.37459 0.52179 0.87219 0.0
O126 O 0.72125 0.57409 0.15755 0.0
Mg127 Mg 0.67784 0.51961 0.24297 0.0
O128 O 0.67249 0.62124 0.26145 0.0
Mg129 Mg 0.60034 0.59358 0.13494 0.0
O130 O 0.60952 0.51753 0.17054 0.0
O131 O 0.6586 0.47954 0.01645 0.0
O132 O 0.5218 0.58008 0.07277 0.0
O133 O 0.61897 0.57748 0.84568 0.0
Mg134 Mg 0.57011 0.65338 0.8012 0.0
O135 O 0.57917 0.66822 0.07048 0.0
O136 O 0.53194 0.58963 0.7905 0.0
O137 O 0.63601 0.64191 0.71296 0.0
O138 O 0.55379 0.71953 0.87224 0.0
C139 C 0.62407 0.57752 0.5401 0.0
C140 C 0.71393 0.60739 0.26018 0.0
C141 C 0.61644 0.48861 0.04571 0.0
C142 C 0.50452 0.58501 0.91794 0.0
C143 C 0.63313 0.59873 0.7102 0.0
C144 C 0.56713 0.70969 0.03058 0.0
O145 O 0.65152 0.54537 0.4938 0.0
O146 O 0.59631 0.59831 0.43315 0.0
O147 O 0.64203 0.31829 0.23234 0.0
Mg148 Mg 0.65347 0.38418 0.14396 0.0
O149 O 0.57757 0.33529 0.09964 0.0
Mg150 Mg 0.59366 0.3539 0.81034 0.0
O151 O 0.6683 0.37515 0.87473 0.0
O152 O 0.71962 0.40057 0.07293 0.0
O153 O 0.59842 0.35792 0.51219 0.0
O154 O 0.62131 0.2817 0.68418 0.0
Mg155 Mg 0.51927 0.2763 0.7017 0.0
O156 O 0.51768 0.34451 0.7741 0.0
O157 O 0.54543 0.30274 0.45147 0.0
O158 O 0.57386 0.23301 0.78707 0.0
O159 O 0.47975 0.29582 0.9299 0.0
C160 C 0.58503 0.44969 0.02727 0.0
C161 C 0.59884 0.32115 0.23512 0.0
C162 C 0.70977 0.38723 0.9146 0.0
C163 C 0.57765 0.33014 0.40528 0.0
C164 C 0.60728 0.24032 0.68494 0.0
C165 C 0.48897 0.3379 0.89987 0.0
O166 O 0.5897 0.42229 0.15473 0.0
O167 O 0.58011 0.43241 0.87245 0.0
O168 O 0.81862 0.64184 -0.0181 0.0
Mg169 Mg 0.88453 0.65319 0.8935 0.0
O170 O 0.83556 0.57738 0.84937 0.0
Mg171 Mg 0.85419 0.59346 0.56002 0.0
O172 O 0.87544 0.6681 0.62427 0.0
O173 O 0.90093 0.71933 0.82262 0.0
O174 O 0.85818 0.59817 0.26186 0.0
O175 O 0.78201 0.62118 0.43389 0.0
Mg176 Mg 0.77643 0.5192 0.4516 0.0
O177 O 0.84468 0.51751 0.52387 0.0
O178 O 0.80284 0.54534 0.2013 0.0
O179 O 0.73319 0.57381 0.5369 0.0
O180 O 0.79597 0.47964 0.67978 0.0
C181 C 0.95003 0.58474 0.77682 0.0
C182 C 0.82141 0.59866 -0.01525 0.0
C183 C 0.88754 0.70955 0.66429 0.0
C184 C 0.83034 0.57747 0.155 0.0
C185 C 0.74059 0.60723 0.43487 0.0
C186 C 0.83806 0.48881 0.64968 0.0
O187 O 0.92262 0.58939 0.90425 0.0
O188 O 0.93272 0.5798 0.62204 0.0
O189 O 0.64194 0.13574 0.96278 0.0
Mg190 Mg 0.65352 0.06965 0.04874 0.0
O191 O 0.57746 0.11881 0.09568 0.0
Mg192 Mg 0.59361 0.10018 0.38492 0.0
O193 O 0.66811 0.0789 0.31695 0.0
O194 O 0.71997 0.05347 0.1221 0.0
O195 O 0.59839 0.09612 0.68316 0.0
O196 O 0.62134 0.17239 0.51097 0.0
Mg197 Mg 0.51922 0.17783 0.49331 0.0
O198 O 0.51759 0.10962 0.42125 0.0
O199 O 0.54541 0.15135 0.74349 0.0
O200 O 0.57383 0.22109 0.408 0.0
O201 O 0.47975 0.15831 0.26494 0.0
C202 C 0.58494 0.00434 0.16816 0.0
C203 C 0.59874 0.13292 0.96013 0.0
C204 C 0.7098 0.06704 0.27963 0.0
C205 C 0.57758 0.1239 0.78992 0.0
C206 C 0.60727 0.21375 0.51008 0.0
C207 C 0.48893 0.11623 0.29522 0.0
O208 O 0.58951 0.03174 0.04058 0.0
O209 O 0.57997 0.02165 0.32294 0.0
O210 O 0.1359 0.31244 -0.01745 0.0
Mg211 Mg 0.07001 0.30105 0.89407 0.0
O212 O 0.11901 0.37691 0.84979 0.0
Mg213 Mg 0.1004 0.36084 0.56044 0.0
O214 O 0.07917 0.28621 0.62495 0.0
O215 O 0.05366 0.23491 0.82295 0.0
O216 O 0.09637 0.35609 0.26236 0.0
O217 O 0.17262 0.33316 0.43431 0.0
Mg218 Mg 0.17809 0.43519 0.45176 0.0
O219 O 0.10986 0.43679 0.52414 0.0
O220 O 0.15161 0.40901 0.2016 0.0
O221 O 0.22138 0.38061 0.53713 0.0
O222 O 0.15856 0.47468 0.68002 0.0
C223 C 0.00453 0.36951 0.77709 0.0
C224 C 0.13312 0.35563 -0.01472 0.0
C225 C 0.0671 0.24474 0.66474 0.0
C226 C 0.12417 0.37683 0.15543 0.0
C227 C 0.21401 0.34719 0.43511 0.0
C228 C 0.11647 0.46547 0.64994 0.0
O229 O 0.03192 0.36485 0.90462 0.0
O230 O 0.02186 0.37447 0.62237 0.0
O231 O 0.31255 0.81856 0.96261 0.0
Mg232 Mg 0.30113 0.88443 0.05102 0.0
O233 O 0.37704 0.8355 0.09528 0.0
Mg234 Mg 0.36096 0.85409 0.38462 0.0
O235 O 0.28633 0.87529 0.32022 0.0
O236 O 0.23499 0.90078 0.12226 0.0
O237 O 0.35621 0.85811 0.68271 0.0
O238 O 0.33325 0.7819 0.51078 0.0
Mg239 Mg 0.43525 0.77641 0.49324 0.0
O240 O 0.43693 0.84464 0.42089 0.0
O241 O 0.40911 0.80285 0.74346 0.0
O242 O 0.38065 0.73314 0.40781 0.0
O243 O 0.4748 0.79594 0.26507 0.0
C244 C 0.36958 0.94994 0.16784 0.0
C245 C 0.35575 0.82137 0.95985 0.0
C246 C 0.24485 0.88735 0.28048 0.0
C247 C 0.37694 0.83031 0.78964 0.0
C248 C 0.34722 0.7405 0.50986 0.0
C249 C 0.46563 0.83802 0.29514 0.0
O250 O 0.36493 0.92255 0.04036 0.0
O251 O 0.37455 0.93262 0.32259 0.0
O252 O 0.81866 0.81247 0.21277 0.0
Mg253 Mg 0.88455 0.80109 0.30139 0.0
O254 O 0.83562 0.87693 0.34538 0.0
Mg255 Mg 0.85423 0.86084 0.63472 0.0
O256 O 0.87544 0.78616 0.57057 0.0
O257 O 0.90096 0.73496 0.37215 0.0
O258 O 0.85824 0.85611 0.93285 0.0
O259 O 0.78201 0.83317 0.76092 0.0
Mg260 Mg 0.77656 0.93518 0.74328 0.0
O261 O 0.84479 0.93683 0.67079 0.0
O262 O 0.80301 0.90903 -0.00648 0.0
O263 O 0.73325 0.88061 0.658 0.0
O264 O 0.7961 0.9747 0.51506 0.0
C265 C 0.95014 0.86941 0.41818 0.0
C266 C 0.82149 0.85565 0.20994 0.0
C267 C 0.88753 0.74471 0.53044 0.0
C268 C 0.83045 0.87685 0.03974 0.0
C269 C 0.74061 0.84718 0.76008 0.0
C270 C 0.83821 0.96555 0.54501 0.0
O271 O 0.92267 0.86486 0.29083 0.0
O272 O 0.93279 0.87443 0.57284 0.0
O273 O 0.81255 0.13579 0.73202 0.0
Mg274 Mg 0.80103 0.06971 0.64593 0.0
O275 O 0.87704 0.11893 0.59921 0.0
Mg276 Mg 0.86091 0.1003 0.30999 0.0
O277 O 0.78639 0.07897 0.37764 0.0
O278 O 0.73461 0.05345 0.57286 0.0
O279 O 0.85614 0.09625 0.01177 0.0
O280 O 0.83315 0.17251 0.18386 0.0
Mg281 Mg 0.93523 0.17806 0.20139 0.0
O282 O 0.93691 0.10986 0.27364 0.0
O283 O 0.90906 0.15154 0.9513 0.0
O284 O 0.8806 0.22123 0.28697 0.0
O285 O 0.97477 0.15852 0.42956 0.0
C286 C 0.86966 0.00445 0.52682 0.0
C287 C 0.85574 0.13302 0.7347 0.0
C288 C 0.74472 0.06707 0.41527 0.0
C289 C 0.87692 0.12405 0.90494 0.0
C290 C 0.84718 0.21389 0.18481 0.0
C291 C 0.9656 0.11643 0.39959 0.0
O292 O 0.86503 0.03183 0.65439 0.0
O293 O 0.87462 0.02178 0.37205 0.0
O294 O 0.22127 0.07407 0.65756 0.0
Mg295 Mg 0.17784 0.0196 0.74297 0.0
O296 O 0.17248 0.12126 0.7614 0.0
Mg297 Mg 0.10033 0.09357 0.63494 0.0
O298 O 0.10953 0.01753 0.67058 0.0
O299 O 0.15859 -0.02044 0.51639 0.0
O300 O 0.02178 0.08007 0.57277 0.0
O301 O 0.11896 0.07748 0.34569 0.0
Mg302 Mg 0.07006 0.1534 0.30095 0.0
O303 O 0.07914 0.16819 0.57031 0.0
O304 O 0.03193 0.08961 0.2905 0.0
O305 O 0.13599 0.14192 0.21296 0.0
O306 O 0.05374 0.21955 0.3723 0.0
C307 C 0.12407 0.07753 0.0401 0.0
C308 C 0.2139 0.10739 0.76006 0.0
C309 C 0.11643 -0.01138 0.54571 0.0
C310 C 0.0045 0.085 0.41791 0.0
C311 C 0.13312 0.09874 0.21022 0.0
C312 C 0.0671 0.20967 0.53059 0.0
O313 O 0.15153 0.04539 -0.00623 0.0
O314 O 0.0963 0.09831 0.93318 0.0
O315 O 0.14204 0.81831 0.73235 0.0
Mg316 Mg 0.15346 0.8842 0.64393 0.0
O317 O 0.07757 0.8353 0.59966 0.0
Mg318 Mg 0.09366 0.85391 0.31033 0.0
O319 O 0.16829 0.87517 0.37469 0.0
O320 O 0.2196 0.9006 0.57289 0.0
O321 O 0.09841 0.85793 0.01219 0.0
O322 O 0.12132 0.78171 0.18423 0.0
Mg323 Mg 0.01926 0.77629 0.20172 0.0
O324 O 0.01768 0.84451 0.2741 0.0
O325 O 0.04544 0.80273 0.95151 0.0
O326 O 0.07384 0.73298 0.28707 0.0
O327 O -0.02024 0.79583 0.42996 0.0
C328 C 0.08502 0.94971 0.52726 0.0
C329 C 0.09885 0.82116 0.73513 0.0
C330 C 0.20976 0.88726 0.41456 0.0
C331 C 0.07766 0.83014 0.9053 0.0
C332 C 0.10728 0.74033 0.18505 0.0
C333 C -0.01102 0.83791 0.39989 0.0
O334 O 0.08968 0.9223 0.65471 0.0
O335 O 0.0801 0.93243 0.37244 0.0
loop_
_geom_bond_atom_site_label_1
_geom_bond_atom_site_label_2
_geom_bond_distance
_geom_bond_site_symmetry_2
_ccdc_geom_bond_type
O0 Mg1 1.990 . S
O0 C14 1.253 . S
Mg1 O0 1.990 . S
Mg1 O4 2.180 . S
Mg1 O5 2.117 . S
Mg1 O19 2.030 . S
O2 Mg3 2.072 . S
O2 C14 1.260 . S
Mg3 O2 2.072 . S
Mg3 O4 2.099 . S
Mg3 O6 2.079 1_554 S
Mg3 O7 2.072 . S
Mg3 O9 2.099 . S
Mg3 O20 2.079 . S
O4 Mg1 2.180 . S
O4 Mg3 2.099 . S
O4 C15 1.279 . S
O5 Mg1 2.117 . S
O5 C15 1.250 . S
O6 Mg3 2.079 1_556 S
O6 C16 1.264 . S
O7 Mg3 2.072 . S
O7 C17 1.260 1_554 S
Mg8 O9 2.180 1_556 S
Mg8 O10 2.030 . S
Mg8 O11 1.990 . S
Mg8 O12 2.117 1_546 S
O9 Mg3 2.099 . S
O9 Mg8 2.180 1_554 S
O9 C18 1.279 . S
O10 Mg8 2.030 . S
O10 C16 1.248 . S
O11 Mg8 1.990 . S
O11 C17 1.253 . S
O12 Mg8 2.117 1_564 S
O12 C18 1.250 1_565 S
C13 O19 1.248 . S
C13 O20 1.264 . S
C14 O0 1.253 . S
C14 O2 1.260 . S
C15 O4 1.279 . S
C15 O5 1.250 . S
C16 O6 1.264 . S
C16 O10 1.248 . S
C17 O7 1.260 1_556 S
C17 O11 1.253 . S
C18 O9 1.279 . S
C18 O12 1.250 1_545 S
O19 Mg1 2.030 . S
O19 C13 1.248 . S
O20 Mg3 2.079 . S
O20 C13 1.264 . S
O21 Mg22 1.990 . S
O21 C35 1.253 . S
Mg22 O21 1.990 . S
Mg22 O25 2.180 . S
Mg22 O26 2.117 . S
Mg22 O40 2.030 . S
O23 Mg24 2.072 . S
O23 C35 1.260 . S
Mg24 O23 2.072 . S
Mg24 O25 2.099 . S
Mg24 O27 2.079 1_556 S
Mg24 O28 2.072 . S
Mg24 O30 2.099 . S
Mg24 O41 2.079 . S
O25 Mg22 2.180 . S
O25 Mg24 2.099 . S
O25 C36 1.279 . S
O26 Mg22 2.117 . S
O26 C36 1.250 . S
O27 Mg24 2.079 1_554 S
O27 C37 1.264 . S
O28 Mg24 2.072 . S
O28 C38 1.260 1_556 S
Mg29 O30 2.180 1_554 S
Mg29 O31 2.030 . S
Mg29 O32 1.990 . S
Mg29 O33 2.117 1_454 S
O30 Mg24 2.099 . S
O30 Mg29 2.180 1_556 S
O30 C39 1.279 . S
O31 Mg29 2.030 . S
O31 C37 1.248 . S
O32 Mg29 1.990 . S
O32 C38 1.253 . S
O33 Mg29 2.117 1_656 S
O33 C39 1.250 1_655 S
C34 O40 1.248 . S
C34 O41 1.264 . S
C35 O21 1.253 . S
C35 O23 1.260 . S
C36 O25 1.279 . S
C36 O26 1.250 . S
C37 O27 1.264 . S
C37 O31 1.248 . S
C38 O28 1.260 1_554 S
C38 O32 1.253 . S
C39 O30 1.279 . S
C39 O33 1.250 1_455 S
O40 Mg22 2.030 . S
O40 C34 1.248 . S
O41 Mg24 2.079 . S
O41 C34 1.264 . S
O42 Mg43 1.990 . S
O42 C56 1.253 . S
Mg43 O42 1.990 . S
Mg43 O46 2.180 . S
Mg43 O47 2.117 . S
Mg43 O61 2.030 . S
O44 Mg45 2.072 . S
O44 C56 1.260 . S
Mg45 O44 2.072 . S
Mg45 O46 2.099 . S
Mg45 O48 2.079 1_554 S
Mg45 O49 2.072 . S
Mg45 O51 2.099 . S
Mg45 O62 2.079 . S
O46 Mg43 2.180 . S
O46 Mg45 2.099 . S
O46 C57 1.279 . S
O47 Mg43 2.117 . S
O47 C57 1.250 . S
O48 Mg45 2.079 1_556 S
O48 C58 1.264 . S
O49 Mg45 2.072 . S
O49 C59 1.260 1_554 S
Mg50 O51 2.180 1_556 S
Mg50 O52 2.030 . S
Mg50 O53 1.990 . S
Mg50 O54 2.117 1_566 S
O51 Mg45 2.099 . S
O51 Mg50 2.180 1_554 S
O51 C60 1.279 . S
O52 Mg50 2.030 . S
O52 C58 1.248 . S
O53 Mg50 1.990 . S
O53 C59 1.253 . S
O54 Mg50 2.117 1_544 S
O54 C60 1.250 1_545 S
C55 O61 1.248 . S
C55 O62 1.264 . S
C56 O42 1.253 . S
C56 O44 1.260 . S
C57 O46 1.279 . S
C57 O47 1.250 . S
C58 O48 1.264 . S
C58 O52 1.248 . S
C59 O49 1.260 1_556 S
C59 O53 1.253 . S
C60 O51 1.279 . S
C60 O54 1.250 1_565 S
O61 Mg43 2.030 . S
O61 C55 1.248 . S
O62 Mg45 2.079 . S
O62 C55 1.264 . S
O63 Mg64 1.990 . S
O63 C77 1.253 . S
Mg64 O63 1.990 . S
Mg64 O67 2.180 . S
Mg64 O68 2.117 . S
Mg64 O82 2.030 . S
O65 Mg66 2.072 . S
O65 C77 1.260 . S
Mg66 O65 2.072 . S
Mg66 O67 2.099 . S
Mg66 O69 2.079 1_556 S
Mg66 O70 2.072 . S
Mg66 O72 2.099 . S
Mg66 O83 2.079 . S
O67 Mg64 2.180 . S
O67 Mg66 2.099 . S
O67 C78 1.279 . S
O68 Mg64 2.117 . S
O68 C78 1.250 . S
O69 Mg66 2.079 1_554 S
O69 C79 1.264 . S
O70 Mg66 2.072 . S
O70 C80 1.260 1_556 S
Mg71 O72 2.180 1_554 S
Mg71 O73 2.030 . S
Mg71 O74 1.990 . S
Mg71 O75 2.117 1_654 S
O72 Mg66 2.099 . S
O72 Mg71 2.180 1_556 S
O72 C81 1.279 . S
O73 Mg71 2.030 . S
O73 C79 1.248 . S
O74 Mg71 1.990 . S
O74 C80 1.253 . S
O75 Mg71 2.117 1_456 S
O75 C81 1.250 1_455 S
C76 O82 1.248 . S
C76 O83 1.264 . S
C77 O63 1.253 . S
C77 O65 1.260 . S
C78 O67 1.279 . S
C78 O68 1.250 . S
C79 O69 1.264 . S
C79 O73 1.248 . S
C80 O70 1.260 1_554 S
C80 O74 1.253 . S
C81 O72 1.279 . S
C81 O75 1.250 1_655 S
O82 Mg64 2.030 . S
O82 C76 1.248 . S
O83 Mg66 2.079 . S
O83 C76 1.264 . S
O84 Mg85 1.990 . S
O84 C98 1.253 . S
Mg85 O84 1.990 . S
Mg85 O88 2.180 1_556 S
Mg85 O89 2.117 . S
Mg85 O103 2.030 . S
O86 Mg87 2.072 1_556 S
O86 C98 1.260 . S
Mg87 O86 2.072 1_554 S
Mg87 O88 2.099 . S
Mg87 O90 2.079 . S
Mg87 O91 2.072 . S
Mg87 O93 2.099 . S
Mg87 O104 2.079 . S
O88 Mg85 2.180 1_554 S
O88 Mg87 2.099 . S
O88 C99 1.279 . S
O89 Mg85 2.117 . S
O89 C99 1.250 1_556 S
O90 Mg87 2.079 . S
O90 C100 1.264 . S
O91 Mg87 2.072 . S
O91 C101 1.260 . S
Mg92 O93 2.180 . S
Mg92 O94 2.030 . S
Mg92 O95 1.990 . S
Mg92 O96 2.117 . S
O93 Mg87 2.099 . S
O93 Mg92 2.180 . S
O93 C102 1.279 . S
O94 Mg92 2.030 . S
O94 C100 1.248 . S
O95 Mg92 1.990 . S
O95 C101 1.253 . S
O96 Mg92 2.117 . S
O96 C102 1.250 . S
C97 O103 1.248 . S
C97 O104 1.264 1_556 S
C98 O84 1.253 . S
C98 O86 1.260 . S
C99 O88 1.279 . S
C99 O89 1.250 1_554 S
C100 O90 1.264 . S
C100 O94 1.248 . S
C101 O91 1.260 . S
C101 O95 1.253 . S
C102 O93 1.279 . S
C102 O96 1.250 . S
O103 Mg85 2.030 . S
O103 C97 1.248 . S
O104 Mg87 2.079 . S
O104 C97 1.264 1_554 S
O105 Mg106 1.990 . S
O105 C119 1.253 . S
Mg106 O105 1.990 . S
Mg106 O109 2.180 1_554 S
Mg106 O110 2.117 . S
Mg106 O124 2.030 . S
O107 Mg108 2.072 1_554 S
O107 C119 1.260 . S
Mg108 O107 2.072 1_556 S
Mg108 O109 2.099 . S
Mg108 O111 2.079 . S
Mg108 O112 2.072 . S
Mg108 O114 2.099 . S
Mg108 O125 2.079 . S
O109 Mg106 2.180 1_556 S
O109 Mg108 2.099 . S
O109 C120 1.279 . S
O110 Mg106 2.117 . S
O110 C120 1.250 1_554 S
O111 Mg108 2.079 . S
O111 C121 1.264 . S
O112 Mg108 2.072 . S
O112 C122 1.260 . S
Mg113 O114 2.180 . S
Mg113 O115 2.030 . S
Mg113 O116 1.990 . S
Mg113 O117 2.117 . S
O114 Mg108 2.099 . S
O114 Mg113 2.180 . S
O114 C123 1.279 . S
O115 Mg113 2.030 . S
O115 C121 1.248 . S
O116 Mg113 1.990 . S
O116 C122 1.253 . S
O117 Mg113 2.117 . S
O117 C123 1.250 . S
C118 O124 1.248 . S
C118 O125 1.264 1_554 S
C119 O105 1.253 . S
C119 O107 1.260 . S
C120 O109 1.279 . S
C120 O110 1.250 1_556 S
C121 O111 1.264 . S
C121 O115 1.248 . S
C122 O112 1.260 . S
C122 O116 1.253 . S
C123 O114 1.279 . S
C123 O117 1.250 . S
O124 Mg106 2.030 . S
O124 C118 1.248 . S
O125 Mg108 2.079 . S
O125 C118 1.264 1_556 S
O126 Mg127 1.990 . S
O126 C140 1.253 . S
Mg127 O126 1.990 . S
Mg127 O130 2.180 . S
Mg127 O131 2.117 . S
Mg127 O145 2.030 . S
O128 Mg129 2.072 . S
O128 C140 1.260 . S
Mg129 O128 2.072 . S
Mg129 O130 2.099 . S
Mg129 O132 2.079 . S
Mg129 O133 2.072 1_554 S
Mg129 O135 2.099 . S
Mg129 O146 2.079 . S
O130 Mg127 2.180 . S
O130 Mg129 2.099 . S
O130 C141 1.279 . S
O131 Mg127 2.117 . S
O131 C141 1.250 . S
O132 Mg129 2.079 . S
O132 C142 1.264 1_554 S
O133 Mg129 2.072 1_556 S
O133 C143 1.260 . S
Mg134 O135 2.180 1_556 S
Mg134 O136 2.030 . S
Mg134 O137 1.990 . S
Mg134 O138 2.117 . S
O135 Mg129 2.099 . S
O135 Mg134 2.180 1_554 S
O135 C144 1.279 . S
O136 Mg134 2.030 . S
O136 C142 1.248 . S
O137 Mg134 1.990 . S
O137 C143 1.253 . S
O138 Mg134 2.117 . S
O138 C144 1.250 1_556 S
C139 O145 1.248 . S
C139 O146 1.264 . S
C140 O126 1.253 . S
C140 O128 1.260 . S
C141 O130 1.279 . S
C141 O131 1.250 . S
C142 O132 1.264 1_556 S
C142 O136 1.248 . S
C143 O133 1.260 . S
C143 O137 1.253 . S
C144 O135 1.279 . S
C144 O138 1.250 1_554 S
O145 Mg127 2.030 . S
O145 C139 1.248 . S
O146 Mg129 2.079 . S
O146 C139 1.264 . S
O147 Mg148 1.990 . S
O147 C161 1.253 . S
Mg148 O147 1.990 . S
Mg148 O151 2.180 1_554 S
Mg148 O152 2.117 . S
Mg148 O166 2.030 . S
O149 Mg150 2.072 1_554 S
O149 C161 1.260 . S
Mg150 O149 2.072 1_556 S
Mg150 O151 2.099 . S
Mg150 O153 2.079 . S
Mg150 O154 2.072 . S
Mg150 O156 2.099 . S
Mg150 O167 2.079 . S
O151 Mg148 2.180 1_556 S
O151 Mg150 2.099 . S
O151 C162 1.279 . S
O152 Mg148 2.117 . S
O152 C162 1.250 1_554 S
O153 Mg150 2.079 . S
O153 C163 1.264 . S
O154 Mg150 2.072 . S
O154 C164 1.260 . S
Mg155 O156 2.180 . S
Mg155 O157 2.030 . S
Mg155 O158 1.990 . S
Mg155 O159 2.117 . S
O156 Mg150 2.099 . S
O156 Mg155 2.180 . S
O156 C165 1.279 . S
O157 Mg155 2.030 . S
O157 C163 1.248 . S
O158 Mg155 1.990 . S
O158 C164 1.253 . S
O159 Mg155 2.117 . S
O159 C165 1.250 . S
C160 O166 1.248 . S
C160 O167 1.264 1_554 S
C161 O147 1.253 . S
C161 O149 1.260 . S
C162 O151 1.279 . S
C162 O152 1.250 1_556 S
C163 O153 1.264 . S
C163 O157 1.248 . S
C164 O154 1.260 . S
C164 O158 1.253 . S
C165 O156 1.279 . S
C165 O159 1.250 . S
O166 Mg148 2.030 . S
O166 C160 1.248 . S
O167 Mg150 2.079 . S
O167 C160 1.264 1_556 S
O168 Mg169 1.990 1_554 S
O168 C182 1.253 . S
Mg169 O168 1.990 1_556 S
Mg169 O172 2.180 . S
Mg169 O173 2.117 . S
Mg169 O187 2.030 . S
O170 Mg171 2.072 . S
O170 C182 1.260 1_556 S
Mg171 O170 2.072 . S
Mg171 O172 2.099 . S
Mg171 O174 2.079 . S
Mg171 O175 2.072 . S
Mg171 O177 2.099 . S
Mg171 O188 2.079 . S
O172 Mg169 2.180 . S
O172 Mg171 2.099 . S
O172 C183 1.279 . S
O173 Mg169 2.117 . S
O173 C183 1.250 . S
O174 Mg171 2.079 . S
O174 C184 1.264 . S
O175 Mg171 2.072 . S
O175 C185 1.260 . S
Mg176 O177 2.180 . S
Mg176 O178 2.030 . S
Mg176 O179 1.990 . S
Mg176 O180 2.117 . S
O177 Mg171 2.099 . S
O177 Mg176 2.180 . S
O177 C186 1.279 . S
O178 Mg176 2.030 . S
O178 C184 1.248 . S
O179 Mg176 1.990 . S
O179 C185 1.253 . S
O180 Mg176 2.117 . S
O180 C186 1.250 . S
C181 O187 1.248 . S
C181 O188 1.264 . S
C182 O168 1.253 . S
C182 O170 1.260 1_554 S
C183 O172 1.279 . S
C183 O173 1.250 . S
C184 O174 1.264 . S
C184 O178 1.248 . S
C185 O175 1.260 . S
C185 O179 1.253 . S
C186 O177 1.279 . S
C186 O180 1.250 . S
O187 Mg169 2.030 . S
O187 C181 1.248 . S
O188 Mg171 2.079 . S
O188 C181 1.264 . S
O189 Mg190 1.990 1_556 S
O189 C203 1.253 . S
Mg190 O189 1.990 1_554 S
Mg190 O193 2.180 . S
Mg190 O194 2.117 . S
Mg190 O208 2.030 . S
O191 Mg192 2.072 . S
O191 C203 1.260 1_554 S
Mg192 O191 2.072 . S
Mg192 O193 2.099 . S
Mg192 O195 2.079 . S
Mg192 O196 2.072 . S
Mg192 O198 2.099 . S
Mg192 O209 2.079 . S
O193 Mg190 2.180 . S
O193 Mg192 2.099 . S
O193 C204 1.279 . S
O194 Mg190 2.117 . S
O194 C204 1.250 . S
O195 Mg192 2.079 . S
O195 C205 1.264 . S
O196 Mg192 2.072 . S
O196 C206 1.260 . S
Mg197 O198 2.180 . S
Mg197 O199 2.030 . S
Mg197 O200 1.990 . S
Mg197 O201 2.117 . S
O198 Mg192 2.099 . S
O198 Mg197 2.180 . S
O198 C207 1.279 . S
O199 Mg197 2.030 . S
O199 C205 1.248 . S
O200 Mg197 1.990 . S
O200 C206 1.253 . S
O201 Mg197 2.117 . S
O201 C207 1.250 . S
C202 O208 1.248 . S
C202 O209 1.264 . S
C203 O189 1.253 . S
C203 O191 1.260 1_556 S
C204 O193 1.279 . S
C204 O194 1.250 . S
C205 O195 1.264 . S
C205 O199 1.248 . S
C206 O196 1.260 . S
C206 O200 1.253 . S
C207 O198 1.279 . S
C207 O201 1.250 . S
O208 Mg190 2.030 . S
O208 C202 1.248 . S
O209 Mg192 2.079 . S
O209 C202 1.264 . S
O210 Mg211 1.990 1_554 S
O210 C224 1.253 . S
Mg211 O210 1.990 1_556 S
Mg211 O214 2.180 . S
Mg211 O215 2.117 . S
Mg211 O229 2.030 . S
O212 Mg213 2.072 . S
O212 C224 1.260 1_556 S
Mg213 O212 2.072 . S
Mg213 O214 2.099 . S
Mg213 O216 2.079 . S
Mg213 O217 2.072 . S
Mg213 O219 2.099 . S
Mg213 O230 2.079 . S
O214 Mg211 2.180 . S
O214 Mg213 2.099 . S
O214 C225 1.279 . S
O215 Mg211 2.117 . S
O215 C225 1.250 . S
O216 Mg213 2.079 . S
O216 C226 1.264 . S
O217 Mg213 2.072 . S
O217 C227 1.260 . S
Mg218 O219 2.180 . S
Mg218 O220 2.030 . S
Mg218 O221 1.990 . S
Mg218 O222 2.117 . S
O219 Mg213 2.099 . S
O219 Mg218 2.180 . S
O219 C228 1.279 . S
O220 Mg218 2.030 . S
O220 C226 1.248 . S
O221 Mg218 1.990 . S
O221 C227 1.253 . S
O222 Mg218 2.117 . S
O222 C228 1.250 . S
C223 O229 1.248 . S
C223 O230 1.264 . S
C224 O210 1.253 . S
C224 O212 1.260 1_554 S
C225 O214 1.279 . S
C225 O215 1.250 . S
C226 O216 1.264 . S
C226 O220 1.248 . S
C227 O217 1.260 . S
C227 O221 1.253 . S
C228 O219 1.279 . S
C228 O222 1.250 . S
O229 Mg211 2.030 . S
O229 C223 1.248 . S
O230 Mg213 2.079 . S
O230 C223 1.264 . S
O231 Mg232 1.990 1_556 S
O231 C245 1.253 . S
Mg232 O231 1.990 1_554 S
Mg232 O235 2.180 . S
Mg232 O236 2.117 . S
Mg232 O250 2.030 . S
O233 Mg234 2.072 . S
O233 C245 1.260 1_554 S
Mg234 O233 2.072 . S
Mg234 O235 2.099 . S
Mg234 O237 2.079 . S
Mg234 O238 2.072 . S
Mg234 O240 2.099 . S
Mg234 O251 2.079 . S
O235 Mg232 2.180 . S
O235 Mg234 2.099 . S
O235 C246 1.279 . S
O236 Mg232 2.117 . S
O236 C246 1.250 . S
O237 Mg234 2.079 . S
O237 C247 1.264 . S
O238 Mg234 2.072 . S
O238 C248 1.260 . S
Mg239 O240 2.180 . S
Mg239 O241 2.030 . S
Mg239 O242 1.990 . S
Mg239 O243 2.117 . S
O240 Mg234 2.099 . S
O240 Mg239 2.180 . S
O240 C249 1.279 . S
O241 Mg239 2.030 . S
O241 C247 1.248 . S
O242 Mg239 1.990 . S
O242 C248 1.253 . S
O243 Mg239 2.117 . S
O243 C249 1.250 . S
C244 O250 1.248 . S
C244 O251 1.264 . S
C245 O231 1.253 . S
C245 O233 1.260 1_556 S
C246 O235 1.279 . S
C246 O236 1.250 . S
C247 O237 1.264 . S
C247 O241 1.248 . S
C248 O238 1.260 . S
C248 O242 1.253 . S
C249 O240 1.279 . S
C249 O243 1.250 . S
O250 Mg232 2.030 . S
O250 C244 1.248 . S
O251 Mg234 2.079 . S
O251 C244 1.264 . S
O252 Mg253 1.990 . S
O252 C266 1.253 . S
Mg253 O252 1.990 . S
Mg253 O256 2.180 . S
Mg253 O257 2.117 . S
Mg253 O271 2.030 . S
O254 Mg255 2.072 . S
O254 C266 1.260 . S
Mg255 O254 2.072 . S
Mg255 O256 2.099 . S
Mg255 O258 2.079 . S
Mg255 O259 2.072 . S
Mg255 O261 2.099 . S
Mg255 O272 2.079 . S
O256 Mg253 2.180 . S
O256 Mg255 2.099 . S
O256 C267 1.279 . S
O257 Mg253 2.117 . S
O257 C267 1.250 . S
O258 Mg255 2.079 . S
O258 C268 1.264 1_556 S
O259 Mg255 2.072 . S
O259 C269 1.260 . S
Mg260 O261 2.180 . S
Mg260 O262 2.030 1_556 S
Mg260 O263 1.990 . S
Mg260 O264 2.117 1_565 S
O261 Mg255 2.099 . S
O261 Mg260 2.180 . S
O261 C270 1.279 . S
O262 Mg260 2.030 1_554 S
O262 C268 1.248 . S
O263 Mg260 1.990 . S
O263 C269 1.253 . S
O264 Mg260 2.117 1_545 S
O264 C270 1.250 1_545 S
C265 O271 1.248 . S
C265 O272 1.264 . S
C266 O252 1.253 . S
C266 O254 1.260 . S
C267 O256 1.279 . S
C267 O257 1.250 . S
C268 O258 1.264 1_554 S
C268 O262 1.248 . S
C269 O259 1.260 . S
C269 O263 1.253 . S
C270 O261 1.279 . S
C270 O264 1.250 1_565 S
O271 Mg253 2.030 . S
O271 C265 1.248 . S
O272 Mg255 2.079 . S
O272 C265 1.264 . S
O273 Mg274 1.990 . S
O273 C287 1.253 . S
Mg274 O273 1.990 . S
Mg274 O277 2.180 . S
Mg274 O278 2.117 . S
Mg274 O292 2.030 . S
O275 Mg276 2.072 . S
O275 C287 1.260 . S
Mg276 O275 2.072 . S
Mg276 O277 2.099 . S
Mg276 O279 2.079 . S
Mg276 O280 2.072 . S
Mg276 O282 2.099 . S
Mg276 O293 2.079 . S
O277 Mg274 2.180 . S
O277 Mg276 2.099 . S
O277 C288 1.279 . S
O278 Mg274 2.117 . S
O278 C288 1.250 . S
O279 Mg276 2.079 . S
O279 C289 1.264 1_554 S
O280 Mg276 2.072 . S
O280 C290 1.260 . S
Mg281 O282 2.180 . S
Mg281 O283 2.030 1_554 S
Mg281 O284 1.990 . S
Mg281 O285 2.117 1_655 S
O282 Mg276 2.099 . S
O282 Mg281 2.180 . S
O282 C291 1.279 . S
O283 Mg281 2.030 1_556 S
O283 C289 1.248 . S
O284 Mg281 1.990 . S
O284 C290 1.253 . S
O285 Mg281 2.117 1_455 S
O285 C291 1.250 1_455 S
C286 O292 1.248 . S
C286 O293 1.264 . S
C287 O273 1.253 . S
C287 O275 1.260 . S
C288 O277 1.279 . S
C288 O278 1.250 . S
C289 O279 1.264 1_556 S
C289 O283 1.248 . S
C290 O280 1.260 . S
C290 O284 1.253 . S
C291 O282 1.279 . S
C291 O285 1.250 1_655 S
O292 Mg274 2.030 . S
O292 C286 1.248 . S
O293 Mg276 2.079 . S
O293 C286 1.264 . S
O294 Mg295 1.990 . S
O294 C308 1.253 . S
Mg295 O294 1.990 . S
Mg295 O298 2.180 . S
Mg295 O299 2.117 1_545 S
Mg295 O313 2.030 1_556 S
O296 Mg297 2.072 . S
O296 C308 1.260 . S
Mg297 O296 2.072 . S
Mg297 O298 2.099 . S
Mg297 O300 2.079 . S
Mg297 O301 2.072 . S
Mg297 O303 2.099 . S
Mg297 O314 2.079 . S
O298 Mg295 2.180 . S
O298 Mg297 2.099 . S
O298 C309 1.279 . S
O299 Mg295 2.117 1_565 S
O299 C309 1.250 1_565 S
O300 Mg297 2.079 . S
O300 C310 1.264 . S
O301 Mg297 2.072 . S
O301 C311 1.260 . S
Mg302 O303 2.180 . S
Mg302 O304 2.030 . S
Mg302 O305 1.990 . S
Mg302 O306 2.117 . S
O303 Mg297 2.099 . S
O303 Mg302 2.180 . S
O303 C312 1.279 . S
O304 Mg302 2.030 . S
O304 C310 1.248 . S
O305 Mg302 1.990 . S
O305 C311 1.253 . S
O306 Mg302 2.117 . S
O306 C312 1.250 . S
C307 O313 1.248 . S
C307 O314 1.264 1_554 S
C308 O294 1.253 . S
C308 O296 1.260 . S
C309 O298 1.279 . S
C309 O299 1.250 1_545 S
C310 O300 1.264 . S
C310 O304 1.248 . S
C311 O301 1.260 . S
C311 O305 1.253 . S
C312 O303 1.279 . S
C312 O306 1.250 . S
O313 Mg295 2.030 1_554 S
O313 C307 1.248 . S
O314 Mg297 2.079 . S
O314 C307 1.264 1_556 S
O315 Mg316 1.990 . S
O315 C329 1.253 . S
Mg316 O315 1.990 . S
Mg316 O319 2.180 . S
Mg316 O320 2.117 . S
Mg316 O334 2.030 . S
O317 Mg318 2.072 . S
O317 C329 1.260 . S
Mg318 O317 2.072 . S
Mg318 O319 2.099 . S
Mg318 O321 2.079 . S
Mg318 O322 2.072 . S
Mg318 O324 2.099 . S
Mg318 O335 2.079 . S
O319 Mg316 2.180 . S
O319 Mg318 2.099 . S
O319 C330 1.279 . S
O320 Mg316 2.117 . S
O320 C330 1.250 . S
O321 Mg318 2.079 . S
O321 C331 1.264 1_554 S
O322 Mg318 2.072 . S
O322 C332 1.260 . S
Mg323 O324 2.180 . S
Mg323 O325 2.030 1_554 S
Mg323 O326 1.990 . S
Mg323 O327 2.117 1_455 S
O324 Mg318 2.099 . S
O324 Mg323 2.180 . S
O324 C333 1.279 . S
O325 Mg323 2.030 1_556 S
O325 C331 1.248 . S
O326 Mg323 1.990 . S
O326 C332 1.253 . S
O327 Mg323 2.117 1_655 S
O327 C333 1.250 1_655 S
C328 O334 1.248 . S
C328 O335 1.264 . S
C329 O315 1.253 . S
C329 O317 1.260 . S
C330 O319 1.279 . S
C330 O320 1.250 . S
C331 O321 1.264 1_556 S
C331 O325 1.248 . S
C332 O322 1.260 . S
C332 O326 1.253 . S
C333 O324 1.279 . S
C333 O327 1.250 1_455 S
O334 Mg316 2.030 . S
O334 C328 1.248 . S
O335 Mg318 2.079 . S
O335 C328 1.264 . S
C244 C18 1.211 1_565 S
C181 C39 1.211 1_655 S
C60 C202 1.211 1_565 S
C81 C223 1.211 1_655 S
C102 C118 1.211 . S
C142 C123 1.211 . S
C141 C160 1.211 . S
C97 C165 1.211 . S
C76 C186 1.211 . S
C207 C13 1.211 . S
C34 C228 1.211 . S
C55 C249 1.211 . S
C270 C286 1.211 1_565 S
C310 C291 1.211 1_455 S
C328 C309 1.211 1_565 S
C333 C265 1.211 1_455 S
C15 C99 0.599 . S
C120 C36 0.599 . S
C57 C144 0.599 . S
C78 C162 0.599 . S
C183 C267 0.599 . S
C288 C204 0.599 . S
C225 C312 0.599 . S
C246 C330 0.599 . S
C308 C17 1.813 . S
C38 C332 1.813 . S
C59 C269 1.813 . S
C80 C290 1.813 . S
C101 C227 1.813 . S
C122 C248 1.813 . S
C140 C185 1.813 . S
C206 C164 1.813 . S
C14 C16 1.118 . S
C35 C37 1.118 . S
C56 C58 1.118 . S
C79 C77 1.118 . S
C100 C98 1.118 . S
C119 C121 1.118 . S
C143 C139 1.118 . S
C163 C161 1.118 . S
C182 C184 1.118 . S
C205 C203 1.118 . S
C226 C224 1.118 . S
C245 C247 1.118 . S
C266 C268 1.118 . S
C289 C287 1.118 . S
C307 C311 1.118 . S
C329 C331 1.118 . S
