# Generated by pormake.
# Topology wkt, (7)-cn, num edge types: 1
# Building blocks:
#     Node 0, Type 0, BuildingBlock: HICVOG_clean_sbu_0, # of connection points: 7
#     Node 1, Type 0, BuildingBlock: HICVOG_clean_sbu_0, # of connection points: 7
#     Node 2, Type 0, BuildingBlock: HICVOG_clean_sbu_0, # of connection points: 7
#     Node 3, Type 0, BuildingBlock: HICVOG_clean_sbu_0, # of connection points: 7
#     Node 4, Type 0, BuildingBlock: HICVOG_clean_sbu_0, # of connection points: 7
#     Node 5, Type 0, BuildingBlock: HICVOG_clean_sbu_0, # of connection points: 7
#     Node 6, Type 0, BuildingBlock: HICVOG_clean_sbu_0, # of connection points: 7
#     Node 7, Type 0, BuildingBlock: HICVOG_clean_sbu_0, # of connection points: 7
#     Node 8, Type 0, BuildingBlock: HICVOG_clean_sbu_0, # of connection points: 7
#     Node 9, Type 0, BuildingBlock: HICVOG_clean_sbu_0, # of connection points: 7
#     Node 10, Type 0, BuildingBlock: HICVOG_clean_sbu_0, # of connection points: 7
#     Node 11, Type 0, BuildingBlock: HICVOG_clean_sbu_0, # of connection points: 7
#     Edge 12, Type (0, 0), BuildingBlock: XIVTED_clean_linker_0, # of connection points: 2
#     Edge 13, Type (0, 0), BuildingBlock: XIVTED_clean_linker_0, # of connection points: 2
#     Edge 14, Type (0, 0), BuildingBlock: XIVTED_clean_linker_0, # of connection points: 2
#     Edge 15, Type (0, 0), BuildingBlock: XIVTED_clean_linker_0, # of connection points: 2
#     Edge 16, Type (0, 0), BuildingBlock: XIVTED_clean_linker_0, # of connection points: 2
#     Edge 17, Type (0, 0), BuildingBlock: XIVTED_clean_linker_0, # of connection points: 2
#     Edge 18, Type (0, 0), BuildingBlock: XIVTED_clean_linker_0, # of connection points: 2
#     Edge 19, Type (0, 0), BuildingBlock: XIVTED_clean_linker_0, # of connection points: 2
#     Edge 20, Type (0, 0), BuildingBlock: XIVTED_clean_linker_0, # of connection points: 2
#     Edge 21, Type (0, 0), BuildingBlock: XIVTED_clean_linker_0, # of connection points: 2
#     Edge 22, Type (0, 0), BuildingBlock: XIVTED_clean_linker_0, # of connection points: 2
#     Edge 23, Type (0, 0), BuildingBlock: XIVTED_clean_linker_0, # of connection points: 2
#     Edge 24, Type (0, 0), BuildingBlock: XIVTED_clean_linker_0, # of connection points: 2
#     Edge 25, Type (0, 0), BuildingBlock: XIVTED_clean_linker_0, # of connection points: 2
#     Edge 26, Type (0, 0), BuildingBlock: XIVTED_clean_linker_0, # of connection points: 2
#     Edge 27, Type (0, 0), BuildingBlock: XIVTED_clean_linker_0, # of connection points: 2
#     Edge 28, Type (0, 0), BuildingBlock: XIVTED_clean_linker_0, # of connection points: 2
#     Edge 29, Type (0, 0), BuildingBlock: XIVTED_clean_linker_0, # of connection points: 2
#     Edge 30, Type (0, 0), BuildingBlock: XIVTED_clean_linker_0, # of connection points: 2
#     Edge 31, Type (0, 0), BuildingBlock: XIVTED_clean_linker_0, # of connection points: 2
#     Edge 32, Type (0, 0), BuildingBlock: XIVTED_clean_linker_0, # of connection points: 2
#     Edge 33, Type (0, 0), BuildingBlock: XIVTED_clean_linker_0, # of connection points: 2
#     Edge 34, Type (0, 0), BuildingBlock: XIVTED_clean_linker_0, # of connection points: 2
#     Edge 35, Type (0, 0), BuildingBlock: XIVTED_clean_linker_0, # of connection points: 2
#     Edge 36, Type (0, 0), BuildingBlock: XIVTED_clean_linker_0, # of connection points: 2
#     Edge 37, Type (0, 0), BuildingBlock: XIVTED_clean_linker_0, # of connection points: 2
#     Edge 38, Type (0, 0), BuildingBlock: XIVTED_clean_linker_0, # of connection points: 2
#     Edge 39, Type (0, 0), BuildingBlock: XIVTED_clean_linker_0, # of connection points: 2
#     Edge 40, Type (0, 0), BuildingBlock: XIVTED_clean_linker_0, # of connection points: 2
#     Edge 41, Type (0, 0), BuildingBlock: XIVTED_clean_linker_0, # of connection points: 2
#     Edge 42, Type (0, 0), BuildingBlock: XIVTED_clean_linker_0, # of connection points: 2
#     Edge 43, Type (0, 0), BuildingBlock: XIVTED_clean_linker_0, # of connection points: 2
#     Edge 44, Type (0, 0), BuildingBlock: XIVTED_clean_linker_0, # of connection points: 2
#     Edge 45, Type (0, 0), BuildingBlock: XIVTED_clean_linker_0, # of connection points: 2
#     Edge 46, Type (0, 0), BuildingBlock: XIVTED_clean_linker_0, # of connection points: 2
#     Edge 47, Type (0, 0), BuildingBlock: XIVTED_clean_linker_0, # of connection points: 2
#     Edge 48, Type (0, 0), BuildingBlock: XIVTED_clean_linker_0, # of connection points: 2
#     Edge 49, Type (0, 0), BuildingBlock: XIVTED_clean_linker_0, # of connection points: 2
#     Edge 50, Type (0, 0), BuildingBlock: XIVTED_clean_linker_0, # of connection points: 2
#     Edge 51, Type (0, 0), BuildingBlock: XIVTED_clean_linker_0, # of connection points: 2
#     Edge 52, Type (0, 0), BuildingBlock: XIVTED_clean_linker_0, # of connection points: 2
#     Edge 53, Type (0, 0), BuildingBlock: XIVTED_clean_linker_0, # of connection points: 2
# Relax obj value: 0.192
# Max RMSD: 0.208
# Mean RMSD: 0.208
data_MOF--net-wkt--node1-HICVOG_clean_sbu_0--edge1-XIVTED_clean_linker_0
_symmetry_space_group_name_H-M    P1
_symmetry_Int_Tables_number       1
_symmetry_cell_setting            triclinic
loop_
_symmetry_equiv_pos_as_xyz
'x, y, z'
_cell_length_a     32.44944
_cell_length_b     32.409442
_cell_length_c     56.041197
_cell_angle_alpha  89.858981
_cell_angle_beta   90.228248
_cell_angle_gamma 119.95937
loop_
_atom_site_label
_atom_site_type_symbol
_atom_site_fract_x
_atom_site_fract_y
_atom_site_fract_z
_atom_type_partial_charge
Zn0 Zn 0.3826 0.45894 0.06894 0.0
C1 C 0.38392 0.34737 0.10257 0.0
N2 N 0.35202 0.34967 0.11688 0.0
C3 C 0.35154 0.38861 0.10888 0.0
N4 N 0.38133 0.40926 0.09024 0.0
N5 N 0.40196 0.38331 0.08637 0.0
C6 C 0.50312 0.36061 0.04413 0.0
O7 O 0.52942 0.40361 0.03537 0.0
O8 O 0.38718 0.51816 0.0867 0.0
Zn9 Zn 0.46265 0.40776 0.07081 0.0
N10 N 0.32275 0.4274 0.05221 0.0
C11 C 0.24856 0.35998 0.04169 0.0
C12 C 0.28825 0.38172 0.05661 0.0
C13 C 0.31972 0.45163 1.03319 0.0
N14 N 0.24532 0.38458 1.02283 0.0
C15 C 0.28002 0.43009 1.0181 0.0
O16 O 0.471 0.4448 0.04016 0.0
C17 C 0.45798 0.4716 1.03004 0.0
O18 O 0.42824 0.48074 0.04006 0.0
H19 H 0.29194 0.36165 0.07097 0.0
H20 H 0.34904 0.48675 1.02946 0.0
C21 C 0.54587 0.44301 0.10014 0.0
C22 C 0.57534 0.46867 0.11949 0.0
C23 C 0.52468 0.50024 0.12754 0.0
C24 C 0.49627 0.47547 0.10811 0.0
N25 N 0.50726 0.44716 0.09492 0.0
N26 N 0.56365 0.49663 0.13262 0.0
H27 H 0.55373 0.42089 0.08884 0.0
C28 C 0.39822 0.55683 0.07551 0.0
O29 O 0.40947 0.55975 0.05285 0.0
O30 O 0.47407 0.35417 0.06087 0.0
H31 H 0.46534 0.47834 0.10378 0.0
H32 H 0.2208 0.32366 0.04489 0.0
H33 H 0.51622 0.52265 0.13831 0.0
Zn34 Zn 0.08104 0.46089 0.24382 0.0
C35 C 0.98921 0.34638 0.28146 0.0
N36 N 0.02926 0.3453 0.28648 0.0
C37 C 0.06188 0.37911 0.27243 0.0
N38 N 0.04271 0.40005 0.259 0.0
N39 N 0.99655 0.37919 0.26426 0.0
C40 C 0.8787 0.41936 0.25365 0.0
O41 O 0.89695 0.44231 0.23363 0.0
O42 O 0.1389 0.46259 0.22871 0.0
Zn43 Zn 0.94829 0.38612 0.24489 0.0
N44 N 0.09594 0.50598 0.2696 0.0
C45 C 0.07282 0.52126 0.30738 0.0
C46 C 0.06329 0.49245 0.28742 0.0
C47 C 0.1376 0.54784 0.27081 0.0
N48 N 0.11409 0.56334 0.30849 0.0
C49 C 0.14697 0.57774 0.29076 0.0
O50 O 0.97354 0.43247 0.21653 0.0
C51 C 1.01143 0.46344 0.20628 0.0
O52 O 0.05194 0.47606 0.2154 0.0
H53 H 0.02998 0.45946 0.28628 0.0
H54 H 0.16208 0.55802 0.25602 0.0
C55 C 0.8867 0.32858 0.20959 0.0
C56 C 0.86592 0.29104 0.19324 0.0
C57 C 0.90312 0.25344 0.21312 0.0
C58 C 0.9242 0.29127 0.22914 0.0
N59 N 0.91522 0.32789 0.2271 0.0
N60 N 0.87471 0.25428 0.19551 0.0
H61 H 0.88218 0.35933 0.20797 0.0
C62 C 0.12588 0.43191 0.21203 0.0
O63 O 0.08007 0.40346 0.20853 0.0
O64 O 0.89639 0.39548 0.26295 0.0
H65 H 0.94836 0.29179 0.24256 0.0
H66 H 0.04724 0.5107 0.3217 0.0
H67 H 0.90987 0.22402 0.2144 0.0
Zn68 Zn 0.57189 0.92463 0.40494 0.0
C69 C 0.68382 0.03526 0.43915 0.0
N70 N 0.67513 1.00297 0.45628 0.0
C71 C 0.63611 0.96376 0.44816 0.0
N72 N 0.62125 0.97165 0.42681 0.0
N73 N 0.65108 0.01699 0.42137 0.0
C74 C 0.70505 0.10619 0.37242 0.0
O75 O 0.68855 0.06155 0.36626 0.0
O76 O 0.51177 0.87035 0.42193 0.0
Zn77 Zn 0.63146 0.05644 0.40443 0.0
N78 N 0.60409 0.89738 0.38799 0.0
C79 C 0.66987 0.88622 0.38029 0.0
C80 C 0.64694 0.90326 0.39487 0.0
C81 C 0.58395 0.87638 0.36695 0.0
N82 N 0.64897 0.86407 0.3595 0.0
C83 C 0.6063 0.85852 0.35234 0.0
O84 O 0.58944 0.02788 0.37546 0.0
C85 C 0.56003 0.98825 0.36609 0.0
O86 O 0.54975 0.94924 0.37643 0.0
H87 H 0.66356 0.92157 0.41126 0.0
H88 H 0.55133 0.87484 0.36151 0.0
C89 C 0.60959 0.1172 0.43248 0.0
C90 C 0.58934 0.12752 0.45219 0.0
C91 C 0.55143 0.04601 0.46354 0.0
C92 C 0.57049 0.03597 0.44371 0.0
N93 N 0.59957 0.07178 0.42876 0.0
N94 N 0.56093 0.09124 0.46718 0.0
H95 H 0.63213 0.1441 0.41979 0.0
C96 C 0.47586 0.84011 0.4098 0.0
O97 O 0.4764 0.8455 0.38655 0.0
O98 O 0.68734 0.11534 0.39048 0.0
H99 H 0.56271 0.99996 0.44049 0.0
H100 H 0.70395 0.8905 0.38544 0.0
H101 H 0.52869 0.01799 0.47577 0.0
Zn102 Zn 0.57769 0.62515 0.57778 0.0
C103 C 0.68004 0.64099 0.62218 0.0
N104 N 0.67874 0.67996 0.62933 0.0
C105 C 0.64812 0.68213 0.61388 0.0
N106 N 0.63283 0.64685 0.59747 0.0
N107 N 0.65307 0.62097 0.60257 0.0
C108 C 0.63252 0.48356 0.59634 0.0
O109 O 0.59097 0.47891 0.59094 0.0
O110 O 0.57078 0.68113 0.56668 0.0
Zn111 Zn 0.66696 0.58371 0.57929 0.0
N112 N 0.52772 0.58169 0.59864 0.0
C113 C 0.5057 0.52161 0.62822 0.0
C114 C 0.53681 0.55058 0.61064 0.0
C115 C 0.48794 0.5842 0.60305 0.0
N116 N 0.46569 0.5236 0.63251 0.0
C117 C 0.45536 0.55382 0.62037 0.0
O118 O 0.62686 0.5622 0.5483 0.0
C119 C 0.59547 0.56827 0.53761 0.0
O120 O 0.57759 0.59101 0.54751 0.0
H121 H 0.56839 0.5487 0.6068 0.0
H122 H 0.48172 0.60866 0.59265 0.0
C123 C 0.75137 0.61557 0.55212 0.0
C124 C 0.79502 0.64908 0.54205 0.0
C125 C 0.79298 0.71042 0.56384 0.0
C126 C 0.74892 0.67735 0.57316 0.0
N127 N 0.72943 0.63029 0.56762 0.0
N128 N 0.81507 0.6956 0.54849 0.0
H129 H 0.73466 0.57814 0.54764 0.0
C130 C 0.54443 0.67582 0.54872 0.0
O131 O 0.51797 0.63295 0.53984 0.0
O132 O 0.6696 0.52457 0.59365 0.0
H133 H 0.73054 0.68976 0.58439 0.0
H134 H 0.5128 0.49711 0.63812 0.0
H135 H 0.8091 0.74773 0.56841 0.0
Zn136 Zn 0.10861 0.65015 0.73671 0.0
C137 C 0.99957 0.65883 0.76743 0.0
N138 N 0.03523 0.69433 0.77971 0.0
C139 C 0.07329 0.69067 0.77349 0.0
N140 N 0.06219 0.65545 0.75748 0.0
N141 N 1.01558 0.63514 0.75386 0.0
C142 C 0.92806 0.60386 0.70955 0.0
O143 O 0.97312 0.63356 0.70491 0.0
O144 O 0.16583 0.65009 0.75384 0.0
Zn145 Zn 0.97722 0.57496 0.7383 0.0
N146 N 0.13483 0.70602 0.71711 0.0
C147 C 0.13801 0.77533 0.70088 0.0
C148 C 0.12211 0.74007 0.71834 0.0
C149 C 0.16183 0.70514 0.69896 0.0
N150 N 0.16511 0.77446 0.68271 0.0
C151 C 0.17746 0.74006 0.68115 0.0
O152 O 1.00498 0.56135 0.70877 0.0
C153 C 0.04465 0.57133 0.69952 0.0
O154 O 0.08365 0.60037 0.70973 0.0
H155 H 0.09863 0.73919 0.73213 0.0
H156 H 0.16903 0.67603 0.69814 0.0
C157 C 0.92074 0.49232 0.76728 0.0
C158 C 0.91263 0.46301 0.78736 0.0
C159 C 0.99388 0.51068 0.79831 0.0
C160 C 1.00174 0.53905 0.77827 0.0
N161 N 0.965 0.5295 0.76327 0.0
N162 N 0.94976 0.47322 0.80228 0.0
H163 H 0.89288 0.48556 0.75461 0.0
C164 C 0.169 0.61248 0.75568 0.0
O165 O 0.13297 0.57189 0.7484 0.0
O166 O 0.91783 0.57213 0.72543 0.0
H167 H 0.03677 0.56892 0.77488 0.0
H168 H 0.12825 0.80272 0.7015 0.0
H169 H 1.02268 0.51801 0.8105 0.0
Zn170 Zn 0.40848 0.96548 0.91104 0.0
C171 C 0.40597 0.06348 0.95276 0.0
N172 N 0.36424 0.02671 0.96007 0.0
C173 C 0.35667 0.99177 0.94472 0.0
N174 N 0.39257 1.0067 0.92867 0.0
N175 N 0.42339 0.05216 0.93352 0.0
C176 C 0.57766 0.16936 0.92435 0.0
O177 O 0.58518 0.14504 0.90793 0.0
O178 O 0.35061 0.91071 0.89511 0.0
Zn179 Zn 0.47676 0.09797 0.91314 0.0
N180 N 0.43717 0.94447 0.93503 0.0
C181 C 0.47581 0.95939 0.97283 0.0
C182 C 0.45882 0.97425 0.9538 0.0
C183 C 0.43282 0.90063 0.93431 0.0
N184 N 0.47181 0.91579 0.97208 0.0
C185 C 0.45086 0.88572 0.95334 0.0
O186 O 0.50163 0.07255 0.88676 0.0
C187 C 0.48675 0.03408 0.87504 0.0
O188 O 0.45254 0.99512 0.88276 0.0
H189 H 0.46262 1.00922 0.95421 0.0
H190 H 0.41652 0.87855 0.9188 0.0
C191 C 0.47688 0.15198 0.87502 0.0
C192 C 0.4582 0.1679 0.85703 0.0
C193 C 0.38276 0.12761 0.87593 0.0
C194 C 0.40161 0.11169 0.89373 0.0
N195 N 0.44837 0.1245 0.89288 0.0
N196 N 0.41137 0.15518 0.85799 0.0
H197 H 0.51332 0.15957 0.87456 0.0
C198 C 0.33473 0.92371 0.87757 0.0
O199 O 0.35349 0.96952 0.87335 0.0
O200 O 0.53474 0.15515 0.93063 0.0
H201 H 0.37891 0.08853 0.90768 0.0
H202 H 0.4927 0.98258 0.98794 0.0
H203 H 0.34562 0.11773 0.87619 0.0
Zn204 Zn 0.56876 0.64232 0.81973 0.0
C205 C 0.68896 0.65552 0.78906 0.0
N206 N 0.6834 0.68468 0.774 0.0
C207 C 0.6415 0.68019 0.78062 0.0
N208 N 0.62214 0.65001 0.79936 0.0
N209 N 0.65182 0.63399 0.80438 0.0
C210 C 0.70799 0.60899 0.85407 0.0
O211 O 0.6889 0.63599 0.85741 0.0
O212 O 0.51028 0.64015 0.80226 0.0
Zn213 Zn 0.63442 0.57561 0.82131 0.0
N214 N 0.59682 0.69765 0.83961 0.0
C215 C 0.66216 0.76683 0.8563 0.0
C216 C 0.64361 0.73158 0.8388 0.0
C217 C 0.568 0.69712 0.85713 0.0
N218 N 0.63325 0.76628 0.87391 0.0
C219 C 0.5864 0.7322 0.87482 0.0
O220 O 0.58941 0.55904 0.84956 0.0
C221 C 0.55666 0.56581 0.85759 0.0
O222 O 0.54466 0.59251 0.8465 0.0
H223 H 0.66656 0.73074 0.82514 0.0
H224 H 0.53153 0.66832 0.8576 0.0
C225 C 0.61101 0.48777 0.79713 0.0
C226 C 0.59348 0.45574 0.77779 0.0
C227 C 0.56971 0.50573 0.75849 0.0
C228 C 0.58624 0.53672 0.77782 0.0
N229 N 0.60697 0.52746 0.79667 0.0
N230 N 0.57329 0.46587 0.759 0.0
H231 H 0.62658 0.48104 0.8127 0.0
C232 C 0.46754 0.6099 0.80809 0.0
O233 O 0.46063 0.57716 0.82395 0.0
O234 O 0.69214 0.57881 0.83715 0.0
H235 H 0.58277 0.56811 0.77761 0.0
H236 H 0.69931 0.79408 0.85607 0.0
H237 H 0.55347 0.51289 0.74333 0.0
Zn238 Zn 0.06561 0.62427 0.99438 0.0
C239 C 0.97037 0.64634 0.96037 0.0
N240 N 1.00865 0.68811 0.95428 0.0
C241 C 0.04401 0.68752 0.96652 0.0
N242 N 0.02768 0.64755 0.97991 0.0
N243 N 0.98107 0.62167 0.97629 0.0
C244 C 0.87425 0.47142 0.978 0.0
O245 O 0.91074 0.46717 0.98483 0.0
O246 O 0.12904 0.68031 1.00408 0.0
Zn247 Zn 0.93444 0.56984 0.99714 0.0
N248 N 0.07143 0.58627 0.9696 0.0
C249 C 0.03651 0.53594 0.93589 0.0
C250 C 0.03302 0.56081 0.95523 0.0
C251 C 0.11309 0.58722 0.96564 0.0
N252 N 0.07788 0.53624 0.93209 0.0
C253 C 0.11653 0.56113 0.94643 0.0
O254 O 0.9602 0.54575 1.02419 0.0
C255 C 0.99952 0.55654 0.03437 0.0
O256 O 0.03899 0.58605 1.02486 0.0
H257 H 0.99987 0.55986 0.95865 0.0
H258 H 0.1423 0.60678 0.97788 0.0
C259 C 0.8809 0.57233 0.03487 0.0
C260 C 0.86575 0.59241 0.05246 0.0
C261 C 0.90609 0.66672 1.03231 0.0
C262 C 0.92148 0.64663 1.01506 0.0
N263 N 0.9082 0.59971 1.01661 0.0
N264 N 0.87879 0.63929 0.05059 0.0
H265 H 0.873 0.53579 0.03602 0.0
C266 C 0.15394 0.67593 1.02041 0.0
O267 O 0.14044 0.63343 1.02915 0.0
O268 O 0.87704 0.51199 0.98021 0.0
H269 H 0.94506 0.66886 1.00119 0.0
H270 H 1.00633 0.51579 0.92424 0.0
H271 H 0.91639 0.70399 1.03141 0.0
Zn272 Zn 0.38959 0.92942 0.15597 0.0
C273 C 0.38449 0.04047 0.12393 0.0
N274 N 0.35912 1.00787 0.10721 0.0
C275 C 0.35974 0.96876 0.11489 0.0
N276 N 0.38494 0.97699 0.13545 0.0
N277 N 0.40077 0.0224 0.141 0.0
C278 C 0.43801 0.10702 0.19477 0.0
O279 O 0.41525 0.06214 0.20141 0.0
O280 O 0.39364 0.87439 0.13793 0.0
Zn281 Zn 0.45991 0.06288 0.15763 0.0
N282 N 0.33248 0.90252 0.17491 0.0
C283 C 0.25672 0.89123 0.18566 0.0
C284 C 0.2948 0.90855 0.16982 0.0
C285 C 0.33425 0.88133 0.19544 0.0
N286 N 0.25796 0.86865 0.20587 0.0
C287 C 0.29586 0.86303 0.21125 0.0
O288 O 0.47827 0.03288 0.18463 0.0
C289 C 0.46913 0.99271 0.19304 0.0
O290 O 0.43931 0.95423 0.18275 0.0
H291 H 0.29446 0.92706 0.15383 0.0
H292 H 0.36596 0.87991 0.19951 0.0
C293 C 0.5456 0.13057 0.13377 0.0
C294 C 0.57655 0.14903 0.11407 0.0
C295 C 0.5259 0.07881 0.09226 0.0
C296 C 0.49629 0.06037 0.11197 0.0
N297 N 0.50633 0.0868 0.13223 0.0
N298 N 0.56539 0.12234 0.09383 0.0
H299 H 0.5527 0.14963 0.15043 0.0
C300 C 0.40027 0.84401 0.14947 0.0
O301 O 0.4074 0.84963 0.17259 0.0
O302 O 0.45938 0.11773 0.17477 0.0
H303 H 0.46522 0.02543 0.11091 0.0
H304 H 0.22637 0.89556 0.18192 0.0
H305 H 0.51802 0.0584 0.07595 0.0
Zn306 Zn 0.42818 0.46148 0.32739 0.0
C307 C 0.40886 0.34441 0.29372 0.0
N308 N 0.36713 0.34009 0.28692 0.0
C309 C 0.36655 0.37611 0.29846 0.0
N310 N 0.40598 0.40065 0.31223 0.0
N311 N 0.43266 0.38053 0.30926 0.0
C312 C 0.58235 0.42381 0.30759 0.0
O313 O 0.58694 0.4655 0.31254 0.0
O314 O 0.37325 0.46927 0.33953 0.0
Zn315 Zn 0.48644 0.38815 0.32932 0.0
N316 N 0.46516 0.50595 0.30251 0.0
C317 C 0.51609 0.52128 0.26918 0.0
C318 C 0.4918 0.49358 0.2888 0.0
C319 C 0.46278 0.54576 0.29771 0.0
N320 N 0.51424 0.56134 0.26449 0.0
C321 C 0.48845 0.57481 0.27822 0.0
O322 O 0.51362 0.44029 0.35492 0.0
C323 C 0.50093 0.46669 0.36568 0.0
O324 O 0.46862 0.47375 0.35709 0.0
H325 H 0.49408 0.46228 0.29295 0.0
H326 H 0.44238 0.55503 0.30949 0.0
C327 C 0.48873 0.33481 0.36727 0.0
C328 C 0.47114 0.30089 0.3856 0.0
C329 C 0.39381 0.26738 0.36862 0.0
C330 C 0.41153 0.30153 0.3506 0.0
N331 N 0.45876 0.33417 0.35019 0.0
N332 N 0.42389 0.26788 0.38566 0.0
H333 H 0.5255 0.36291 0.36686 0.0
C334 C 0.34108 0.43446 0.35126 0.0
O335 O 0.34316 0.39518 0.35339 0.0
O336 O 0.54242 0.38643 0.31174 0.0
H337 H 0.38749 0.30274 0.33765 0.0
H338 H 0.53704 0.51157 0.25801 0.0
H339 H 0.35635 0.24112 0.36929 0.0
Zn340 Zn 0.10631 0.45807 0.4886 0.0
C341 C 0.99467 0.34001 0.45872 0.0
N342 N 0.02659 0.34566 0.44207 0.0
C343 C 0.0655 0.38689 0.44823 0.0
N344 N 0.05792 0.40626 0.46807 0.0
N345 N 1.01282 0.37711 0.47425 0.0
C346 C 0.92772 0.33275 0.52725 0.0
O347 O 0.97276 0.3522 0.53333 0.0
O348 O 0.16023 0.51654 0.47038 0.0
Zn349 Zn 0.97414 0.39808 0.49091 0.0
N350 N 0.1342 0.42743 0.50666 0.0
C351 C 0.1436 0.36142 0.51713 0.0
C352 C 0.12705 0.38336 0.50142 0.0
C353 C 0.15643 0.44994 0.5271 0.0
N354 N 0.1664 0.38436 0.53744 0.0
C355 C 0.17339 0.42834 0.5429 0.0
O356 O 1.00522 0.44349 0.51868 0.0
C357 C 0.04533 0.47387 0.52724 0.0
O358 O 0.08358 0.48319 0.51655 0.0
H359 H 0.1079 0.3649 0.48552 0.0
H360 H 0.1594 0.48377 0.53129 0.0
C361 C 0.94738 0.46389 0.47372 0.0
C362 C 0.93416 0.48683 0.4566 0.0
C363 C 0.9359 0.43631 0.42669 0.0
C364 C 0.94918 0.41377 0.44373 0.0
N365 N 0.95429 0.4277 0.46697 0.0
N366 N 0.92831 0.47206 0.43351 0.0
H367 H 0.95114 0.47378 0.49237 0.0
C368 C 0.18879 0.55416 0.48196 0.0
O369 O 0.18151 0.55583 0.50488 0.0
O370 O 0.91722 0.34428 0.50735 0.0
H371 H 0.95546 0.38565 0.43828 0.0
H372 H 0.13818 0.32635 0.51329 0.0
H373 H 0.93145 0.42536 0.40819 0.0
Zn374 Zn 0.57615 0.97231 0.66218 0.0
C375 C 0.69029 0.07009 0.62698 0.0
N376 N 0.69407 0.03236 0.62013 0.0
C377 C 0.65868 0.99616 0.63213 0.0
N378 N 0.63518 1.01163 0.64617 0.0
N379 N 0.65517 0.0584 0.64298 0.0
C380 C 0.62287 0.17913 0.65213 0.0
O381 O 0.591 0.15516 0.66859 0.0
O382 O 0.57405 0.9119 0.67397 0.0
Zn383 Zn 0.64993 0.10553 0.66351 0.0
N384 N 0.5297 0.96088 0.63777 0.0
C385 C 0.51075 0.99111 0.60329 0.0
C386 C 0.53901 0.99825 0.62329 0.0
C387 C 0.49258 0.9167 0.63337 0.0
N388 N 0.47356 0.94703 0.59885 0.0
C389 C 0.46333 0.90925 0.61329 0.0
O390 O 0.60035 0.07983 0.69049 0.0
C391 C 0.57344 0.04041 0.70097 0.0
O392 O 0.56486 1.00103 0.6918 0.0
H393 H 0.56873 0.03324 0.62701 0.0
H394 H 0.48612 0.88839 0.64566 0.0
C395 C 0.70607 0.15999 0.70104 0.0
C396 C 0.74012 0.17416 0.71926 0.0
C397 C 0.77172 0.13002 0.7009 0.0
C398 C 0.73718 0.11536 0.68309 0.0
N399 N 0.70544 0.13116 0.6834 0.0
N400 N 0.77227 0.15882 0.71858 0.0
H401 H 0.67858 0.16957 0.7013 0.0
C402 C 0.54685 0.88753 0.691 0.0
O403 O 0.51663 0.8994 0.69963 0.0
O404 O 0.65103 0.1641 0.64589 0.0
H405 H 0.73478 0.0902 0.66984 0.0
H406 H 0.51801 0.0204 0.59147 0.0
H407 H 0.79724 0.1178 0.70098 0.0
H408 H 0.38628 0.57107 0.12329 0.0
H409 H 0.39317 0.82077 0.1013 0.0
H410 H 0.40752 0.63712 0.05408 0.0
H411 H 0.40346 0.76967 0.17098 0.0
H412 H 0.39154 0.75058 0.08348 0.0
H413 H 0.38563 0.64018 0.14099 0.0
C414 C 0.39079 0.59995 0.1118 0.0
C415 C 0.39726 0.59807 0.08711 0.0
C416 C 0.39421 0.75482 0.10268 0.0
C417 C 0.3961 0.67748 0.10728 0.0
C418 C 0.39513 0.79497 0.11287 0.0
C419 C 0.39883 0.80169 0.13773 0.0
C420 C 0.39646 0.72062 0.11742 0.0
C421 C 0.4009 0.76653 0.15174 0.0
C422 C 0.39046 0.63952 0.12192 0.0
C423 C 0.40273 0.6368 0.07319 0.0
N424 N 0.39961 0.7278 0.14146 0.0
N425 N 0.40191 0.67456 0.0834 0.0
H426 H 0.8095 0.35462 0.28455 0.0
H427 H 0.66383 0.49515 0.28778 0.0
H428 H 0.84933 0.4837 0.24529 0.0
H429 H 0.5987 0.34731 0.30801 0.0
H430 H 0.73532 0.49353 0.27594 0.0
H431 H 0.73624 0.35352 0.29745 0.0
C432 C 0.80324 0.383 0.27887 0.0
C433 C 0.83597 0.4194 0.26381 0.0
C434 C 0.70543 0.46128 0.28287 0.0
C435 C 0.75202 0.41829 0.27851 0.0
C436 C 0.66438 0.46216 0.28966 0.0
C437 C 0.62473 0.42126 0.29886 0.0
C438 C 0.70782 0.41937 0.28554 0.0
C439 C 0.62808 0.37965 0.30085 0.0
C440 C 0.76118 0.38212 0.28608 0.0
C441 C 0.8254 0.45486 0.25684 0.0
N442 N 0.6689 0.37985 0.29443 0.0
N443 N 0.78479 0.45348 0.26428 0.0
H444 H 0.21494 0.5692 0.43425 0.0
H445 H 0.45758 0.81701 0.45774 0.0
H446 H 0.2595 0.63371 0.50377 0.0
H447 H 0.39888 0.76672 0.38757 0.0
H448 H 0.38826 0.74721 0.47507 0.0
H449 H 0.28498 0.63828 0.41685 0.0
C450 C 0.23928 0.59778 0.44586 0.0
C451 C 0.23087 0.59548 0.47054 0.0
C452 C 0.39055 0.75154 0.45587 0.0
C453 C 0.31162 0.67474 0.45074 0.0
C454 C 0.4302 0.79147 0.44596 0.0
C455 C 0.4342 0.7982 0.42112 0.0
C456 C 0.35465 0.71766 0.44087 0.0
C457 C 0.39748 0.76345 0.40682 0.0
C458 C 0.27933 0.63729 0.43592 0.0
C459 C 0.26408 0.63374 0.48465 0.0
N460 N 0.35955 0.7249 0.41684 0.0
N461 N 0.30276 0.67146 0.47461 0.0
H462 H 0.71094 0.47022 0.60097 0.0
H463 H 0.55513 0.20533 0.65408 0.0
H464 H 0.55897 0.39765 0.61085 0.0
H465 H 0.69716 0.25578 0.62788 0.0
H466 H 0.55963 0.27899 0.64078 0.0
H467 H 0.71059 0.39668 0.61325 0.0
C468 C 0.67758 0.43911 0.60581 0.0
C469 C 0.63489 0.44056 0.60478 0.0
C470 C 0.58992 0.2742 0.63777 0.0
C471 C 0.6343 0.35602 0.61897 0.0
C472 C 0.5874 0.23183 0.64542 0.0
C473 C 0.62575 0.22373 0.64213 0.0
C474 C 0.63143 0.31 0.62686 0.0
C475 C 0.6665 0.26002 0.6307 0.0
C476 C 0.67739 0.39699 0.6127 0.0
C477 C 0.59284 0.39873 0.61122 0.0
N478 N 0.66841 0.30158 0.62365 0.0
N479 N 0.59372 0.35875 0.61803 0.0
H480 H 0.17998 0.53754 0.76935 0.0
H481 H 0.46437 0.68421 0.78475 0.0
H482 H 0.26006 0.69021 0.76125 0.0
H483 H 0.374 0.54094 0.81024 0.0
H484 H 0.39267 0.68701 0.77238 0.0
H485 H 0.25272 0.53814 0.78103 0.0
C486 C 0.21286 0.57136 0.77011 0.0
C487 C 0.2135 0.6139 0.76433 0.0
C488 C 0.38869 0.655 0.78065 0.0
C489 C 0.29812 0.61477 0.77753 0.0
C490 C 0.42964 0.65324 0.78757 0.0
C491 C 0.42547 0.61224 0.7986 0.0
C492 C 0.34319 0.61525 0.78448 0.0
C493 C 0.37932 0.5734 0.8019 0.0
C494 C 0.2546 0.57166 0.7768 0.0
C495 C 0.25761 0.65653 0.76568 0.0
N496 N 0.34038 0.57585 0.79486 0.0
N497 N 0.29812 0.65586 0.77198 0.0
H498 H 0.57946 0.24501 0.94891 0.0
H499 H 0.86423 0.3865 0.96339 0.0
H500 H 0.67167 0.19609 0.92158 0.0
H501 H 0.78242 0.45677 0.97318 0.0
H502 H 0.79195 0.31421 0.9515 0.0
H503 H 0.65051 0.31974 0.96165 0.0
C504 C 0.61445 0.24967 0.94576 0.0
C505 C 0.6193 0.21387 0.9341 0.0
C506 C 0.78956 0.34536 0.95615 0.0
C507 C 0.70087 0.29945 0.94866 0.0
C508 C 0.83106 0.38691 0.96297 0.0
C509 C 0.82985 0.42824 0.96929 0.0
C510 C 0.74566 0.34421 0.95581 0.0
C511 C 0.78534 0.42602 0.96834 0.0
C512 C 0.65503 0.29252 0.95289 0.0
C513 C 0.66578 0.22237 0.9304 0.0
N514 N 0.74508 0.38474 0.9619 0.0
N515 N 0.70433 0.26383 0.93766 0.0
H516 H 0.41014 0.07294 1.0006 0.0
H517 H 0.53133 0.35673 0.99865 0.0
H518 H 0.4547 0.1563 0.9361 0.0
H519 H 0.46995 0.27034 0.06133 0.0
H520 H 0.516 0.28543 0.97652 0.0
H521 H 0.44282 0.14617 1.02389 0.0
C522 C 0.42736 0.10681 0.99132 0.0
C523 C 0.43016 0.10856 0.96633 0.0
C524 C 0.50614 0.2821 0.99516 0.0
C525 C 0.46736 0.19275 0.9929 0.0
C526 C 0.51515 0.32283 1.00787 0.0
C527 C 0.50087 0.31923 1.03178 0.0
C528 C 0.48286 0.23749 1.00647 0.0
C529 C 0.4802 0.27444 0.04278 0.0
C530 C 0.44606 0.14861 1.00464 0.0
C531 C 0.45269 0.15328 0.95526 0.0
N532 N 0.47145 0.23527 1.03001 0.0
N533 N 0.47024 0.19368 0.9686 0.0
H534 H 0.10612 0.3661 0.17743 0.0
H535 H 0.37295 0.47389 0.12965 0.0
H536 H 0.22372 0.49092 0.20907 0.0
H537 H 0.25674 0.33399 0.11322 0.0
H538 H 0.3184 0.48881 0.15398 0.0
H539 H 0.16051 0.36127 0.14957 0.0
C540 C 0.14353 0.39257 0.1786 0.0
C541 C 0.1603 0.42886 0.19578 0.0
C542 C 0.30478 0.45522 0.14467 0.0
C543 C 0.22338 0.42356 0.16351 0.0
C544 C 0.33564 0.44707 0.13051 0.0
C545 C 0.31885 0.40308 0.11904 0.0
C546 C 0.25705 0.41901 0.14724 0.0
C547 C 0.27081 0.36863 0.1215 0.0
C548 C 0.17468 0.3898 0.16257 0.0
C549 C 0.20929 0.46217 0.19621 0.0
N550 N 0.24172 0.3773 0.13528 0.0
N551 N 0.23921 0.45872 0.1803 0.0
H552 H 0.78077 0.10188 0.35574 0.0
H553 H 0.89503 0.32352 0.2725 0.0
H554 H 0.72241 0.19552 0.35986 0.0
H555 H 0.98106 0.29355 0.32037 0.0
H556 H 0.82428 0.26902 0.29572 0.0
H557 H 0.84833 0.16297 0.33324 0.0
C558 C 0.78222 0.13534 0.35182 0.0
C559 C 0.74634 0.14399 0.35971 0.0
C560 C 0.859 0.2752 0.30113 0.0
C561 C 0.82252 0.21314 0.33349 0.0
C562 C 0.89944 0.30674 0.28801 0.0
C563 C 0.94449 0.31434 0.29452 0.0
C564 C 0.86383 0.25012 0.32037 0.0
C565 C 0.94735 0.28914 0.31438 0.0
C566 C 0.82063 0.17003 0.33904 0.0
C567 C 0.74981 0.18793 0.35423 0.0
N568 N 0.9077 0.25791 0.32634 0.0
N569 N 0.78719 0.22097 0.34115 0.0
H570 H 0.58572 0.86915 0.43345 0.0
H571 H 0.59118 0.76952 0.56282 0.0
H572 H 0.63611 0.95743 0.49621 0.0
H573 H 0.50967 0.67806 0.50443 0.0
H574 H 0.60654 0.83878 0.53874 0.0
H575 H 0.55547 0.79844 0.45882 0.0
C576 C 0.58946 0.87378 0.4525 0.0
C577 C 0.61299 0.91941 0.4626 0.0
C578 C 0.58487 0.80353 0.53127 0.0
C579 C 0.58018 0.83867 0.49187 0.0
C580 C 0.57606 0.76395 0.54505 0.0
C581 C 0.54928 0.71786 0.53562 0.0
C582 C 0.56735 0.79712 0.50775 0.0
C583 C 0.53056 0.71289 0.51245 0.0
C584 C 0.57261 0.83333 0.46705 0.0
C585 C 0.61832 0.92298 0.48755 0.0
N586 N 0.5404 0.752 0.49922 0.0
N587 N 0.60244 0.88333 0.50126 0.0
H588 H 0.66745 0.55585 0.63893 0.0
H589 H 0.94051 0.67288 0.67803 0.0
H590 H 0.77344 0.70292 0.62785 0.0
H591 H 0.83111 0.54197 0.70931 0.0
H592 H 0.88032 0.67792 0.65438 0.0
H593 H 0.7279 0.5433 0.65932 0.0
C594 C 0.70369 0.58505 0.64032 0.0
C595 C 0.71598 0.63024 0.63152 0.0
C596 C 0.86933 0.64804 0.6664 0.0
C597 C 0.78435 0.61672 0.65498 0.0
C598 C 0.90374 0.64513 0.67996 0.0
C599 C 0.89083 0.60703 0.69577 0.0
C600 C 0.82142 0.61254 0.66849 0.0
C601 C 0.84253 0.57209 0.69741 0.0
C602 C 0.73788 0.57811 0.65217 0.0
C603 C 0.7628 0.66747 0.63432 0.0
N604 N 0.80943 0.57563 0.68389 0.0
N605 N 0.79526 0.65988 0.64576 0.0
H606 H 0.13574 0.67082 0.79697 0.0
H607 H 0.29329 0.9421 0.83984 0.0
H608 H 0.11637 0.78638 0.77301 0.0
H609 H 0.29527 0.82582 0.87651 0.0
H610 H 0.23708 0.88596 0.81111 0.0
H611 H 0.20415 0.72772 0.82131 0.0
C612 C 0.14704 0.7084 0.79618 0.0
C613 C 0.12105 0.72427 0.78278 0.0
C614 C 0.2497 0.87254 0.82541 0.0
C615 C 0.19769 0.7889 0.8109 0.0
C616 C 0.2818 0.90466 0.84193 0.0
C617 C 0.29887 0.88872 0.86079 0.0
C618 C 0.23428 0.82378 0.82756 0.0
C619 C 0.28276 0.83966 0.86237 0.0
C620 C 0.18547 0.74067 0.81033 0.0
C621 C 0.13588 0.77292 0.78294 0.0
N622 N 0.25127 0.80886 0.84598 0.0
N623 N 0.17299 0.8034 0.79683 0.0
H624 H 0.74984 0.67217 0.89038 0.0
H625 H 0.90814 0.56265 0.93822 0.0
H626 H 0.74774 0.55104 0.85721 0.0
H627 H 0.92771 0.69938 0.95857 0.0
H628 H 0.83949 0.54909 0.91347 0.0
H629 H 0.80656 0.67495 0.91968 0.0
C630 C 0.76142 0.64616 0.88918 0.0
C631 C 0.74418 0.61151 0.87115 0.0
C632 C 0.85829 0.58162 0.92373 0.0
C633 C 0.8093 0.61432 0.90501 0.0
C634 C 0.89684 0.58895 0.93813 0.0
C635 C 0.92292 0.63187 0.95061 0.0
C636 C 0.84608 0.61752 0.922 0.0
C637 C 0.90816 0.66568 0.9493 0.0
C638 C 0.7938 0.64769 0.90603 0.0
C639 C 0.7604 0.57861 0.87069 0.0
N640 N 0.87091 0.65788 0.93519 0.0
N641 N 0.79215 0.58083 0.88738 0.0
H642 H 0.31837 0.87501 0.13032 0.0
H643 H 0.19629 0.76864 1.00522 0.0
H644 H 0.34704 0.96076 0.06705 0.0
H645 H 0.19935 0.6809 0.06249 0.0
H646 H 0.2529 0.83949 1.02734 0.0
H647 H 0.27629 0.80335 0.10597 0.0
C648 C 0.3169 0.87891 0.11132 0.0
C649 C 0.33701 0.92408 0.10081 0.0
C650 C 0.24163 0.80472 0.03496 0.0
C651 C 0.28705 0.84214 0.07273 0.0
C652 C 0.2093 0.76424 1.02231 0.0
C653 C 0.19281 0.71875 1.03205 0.0
C654 C 0.25707 0.79977 0.05772 0.0
C655 C 0.211 0.71525 0.05429 0.0
C656 C 0.29238 0.83788 0.09737 0.0
C657 C 0.33205 0.92665 0.07601 0.0
N658 N 0.24166 0.75522 0.06651 0.0
N659 N 0.30734 0.88638 0.06287 0.0
H660 H 0.36186 0.24921 0.29967 0.0
H661 H 0.48771 0.20475 0.18945 0.0
H662 H 0.48665 0.3636 0.26695 0.0
H663 H 0.39146 0.09333 0.23696 0.0
H664 H 0.48873 0.26409 0.21706 0.0
H665 H 0.3742 0.19174 0.27736 0.0
C666 C 0.39277 0.26204 0.28827 0.0
C667 C 0.4238 0.31093 0.2854 0.0
C668 C 0.46772 0.22663 0.22146 0.0
C669 C 0.43695 0.24563 0.2588 0.0
C670 C 0.46684 0.19276 0.20564 0.0
C671 C 0.43921 0.14394 0.2108 0.0
C672 C 0.44041 0.21148 0.24242 0.0
C673 C 0.41311 0.13048 0.23212 0.0
C674 C 0.39962 0.22931 0.27536 0.0
C675 C 0.46258 0.326 0.26995 0.0
N676 N 0.41413 0.16396 0.247 0.0
N677 N 0.4677 0.29343 0.25687 0.0
H678 H 0.06735 0.37624 0.40082 0.0
H679 H 0.34725 0.50354 0.38163 0.0
H680 H 0.16204 0.44146 0.46059 0.0
H681 H 0.24684 0.37109 0.34826 0.0
H682 H 0.28168 0.50078 0.40524 0.0
H683 H 0.13546 0.39538 0.37564 0.0
C684 C 0.1026 0.39534 0.40867 0.0
C685 C 0.10875 0.40705 0.43304 0.0
C686 C 0.27417 0.47276 0.39252 0.0
C687 C 0.18726 0.42935 0.40396 0.0
C688 C 0.31127 0.47451 0.37895 0.0
C689 C 0.3021 0.43751 0.363 0.0
C690 C 0.22773 0.43446 0.3895 0.0
C691 C 0.25522 0.40025 0.36037 0.0
C692 C 0.14142 0.40619 0.3942 0.0
C693 C 0.15546 0.4323 0.44196 0.0
N694 N 0.21977 0.39981 0.37338 0.0
N695 N 0.1931 0.44239 0.42743 0.0
H696 H 0.78537 0.11664 0.63248 0.0
H697 H 0.83008 0.28685 0.52218 0.0
H698 H 0.67147 0.12991 0.60073 0.0
H699 H 0.94124 0.30102 0.56989 0.0
H700 H 0.77068 0.23003 0.55025 0.0
H701 H 0.84286 0.18645 0.61028 0.0
C702 C 0.77268 0.13537 0.62132 0.0
C703 C 0.72395 0.11834 0.61866 0.0
C704 C 0.80811 0.24602 0.55459 0.0
C705 C 0.78919 0.19672 0.59216 0.0
C706 C 0.84198 0.27813 0.53853 0.0
C707 C 0.89071 0.29841 0.54359 0.0
C708 C 0.82324 0.23394 0.57568 0.0
C709 C 0.90414 0.28607 0.56509 0.0
C710 C 0.80542 0.17496 0.60847 0.0
C711 C 0.709 0.14282 0.60351 0.0
N712 N 0.87067 0.25449 0.58021 0.0
N713 N 0.74156 0.18048 0.59043 0.0
H714 H 0.50734 0.841 0.73294 0.0
H715 H 0.64921 0.69796 0.73335 0.0
H716 H 0.60164 0.84953 0.6766 0.0
H717 H 0.587 0.71893 0.79663 0.0
H718 H 0.62092 0.74294 0.71043 0.0
H719 H 0.52468 0.78547 0.75439 0.0
C720 C 0.53128 0.83083 0.72492 0.0
C721 C 0.55327 0.85022 0.70295 0.0
C722 C 0.61295 0.73732 0.7293 0.0
C723 C 0.57326 0.78672 0.72749 0.0
C724 C 0.62908 0.7116 0.74245 0.0
C725 C 0.61997 0.70405 0.76702 0.0
C726 C 0.58752 0.75601 0.74074 0.0
C727 C 0.59374 0.7226 0.77775 0.0
C728 C 0.5413 0.7993 0.73727 0.0
C729 C 0.584 0.83571 0.6935 0.0
N730 N 0.57851 0.74787 0.76457 0.0
N731 N 0.59315 0.80498 0.70585 0.0
H732 H 0.52307 0.46093 1.00336 0.0
H733 H 0.49252 0.58031 0.88349 0.0
H734 H 0.42957 0.51946 0.99885 0.0
H735 H 0.57784 0.51259 0.88849 0.0
H736 H 0.46887 0.55897 0.92525 0.0
H737 H 0.54436 0.48155 0.96162 0.0
C738 C 0.50713 0.47841 0.99372 0.0
C739 C 0.47434 0.48834 1.00497 0.0
C740 C 0.49248 0.54847 0.91716 0.0
C741 C 0.49869 0.51209 0.95642 0.0
C742 C 0.50585 0.5604 0.89318 0.0
C743 C 0.53718 0.5481 0.88213 0.0
C744 C 0.51061 0.52414 0.93047 0.0
C745 C 0.55349 0.52275 0.89596 0.0
C746 C 0.51928 0.49009 0.96969 0.0
C747 C 0.45514 0.51118 0.99117 0.0
N748 N 0.54023 0.51189 0.91925 0.0
N749 N 0.46749 0.52214 0.96772 0.0
H750 H 0.08514 0.5257 0.17761 0.0
H751 H 0.92276 0.49946 0.06333 0.0
H752 H 0.93212 0.43869 0.17806 0.0
H753 H 0.07623 0.57456 0.06274 0.0
H754 H 0.9245 0.47793 0.10521 0.0
H755 H 0.08149 0.54643 0.13605 0.0
C756 C 0.05063 0.51128 0.16912 0.0
C757 C 1.00888 0.4804 0.18165 0.0
C758 C 0.95778 0.4989 0.09586 0.0
C759 C 1.0045 0.50385 0.13341 0.0
C760 C 0.95685 0.51105 0.07183 0.0
C761 C 0.99944 0.53886 0.05918 0.0
C762 C 1.00161 0.5148 0.10757 0.0
C763 C 0.0424 0.55305 0.07149 0.0
C764 C 0.04861 0.52298 0.14521 0.0
C765 C 0.96532 0.46279 0.16933 0.0
N766 N 0.04233 0.54107 0.09484 0.0
N767 N 0.9643 0.47464 0.14599 0.0
H768 H 0.45011 0.91344 0.21997 0.0
H769 H 0.57569 0.06483 0.33841 0.0
H770 H 0.52674 0.06702 0.22291 0.0
H771 H 0.50695 0.91147 0.33608 0.0
H772 H 0.55594 0.0653 0.29641 0.0
H773 H 0.4702 0.91122 0.262 0.0
C774 C 0.47175 0.94676 0.22925 0.0
C775 C 0.48684 0.99055 0.21756 0.0
C776 C 0.5449 0.03145 0.30504 0.0
C777 C 0.50935 0.9881 0.2662 0.0
C778 C 0.55595 0.03108 0.32921 0.0
C779 C 0.54292 0.988 0.34112 0.0
C780 C 0.52052 0.98843 0.29231 0.0
C781 C 0.51758 0.9456 0.32787 0.0
C782 C 0.48295 0.9454 0.2534 0.0
C783 C 0.5144 0.03237 0.23089 0.0
N784 N 0.50738 0.94691 0.30427 0.0
N785 N 0.52447 0.03006 0.25435 0.0
H786 H 0.56408 0.45231 0.39293 0.0
H787 H 0.53017 0.57592 0.50949 0.0
H788 H 0.48027 0.52191 0.39494 0.0
H789 H 0.62864 0.52309 0.5076 0.0
H790 H 0.51031 0.55355 0.46786 0.0
H791 H 0.58786 0.47623 0.43454 0.0
C792 C 0.55109 0.4731 0.40193 0.0
C793 C 0.52011 0.48515 0.39014 0.0
C794 C 0.53625 0.54671 0.47646 0.0
C795 C 0.54679 0.51206 0.43817 0.0
C796 C 0.54761 0.55941 0.50043 0.0
C797 C 0.58129 0.55154 0.51238 0.0
C798 C 0.55841 0.52559 0.46397 0.0
C799 C 0.60239 0.52983 0.49931 0.0
C800 C 0.56456 0.48654 0.4258 0.0
C801 C 0.50423 0.51175 0.40305 0.0
N802 N 0.59063 0.51765 0.47589 0.0
N803 N 0.51751 0.52399 0.42622 0.0
H804 H 0.96866 0.51128 0.67112 0.0
H805 H 0.1241 0.53123 0.55533 0.0
H806 H 0.12203 0.59279 0.67063 0.0
H807 H 0.97072 0.45881 0.55617 0.0
H808 H 0.12496 0.55385 0.59723 0.0
H809 H 0.96967 0.49001 0.62942 0.0
C810 C 1.00268 0.52436 0.6624 0.0
C811 C 0.04533 0.55382 0.67475 0.0
C812 C 0.09113 0.53328 0.58819 0.0
C813 C 0.04668 0.5298 0.62629 0.0
C814 C 0.09059 0.52055 0.56413 0.0
C815 C 0.04725 0.49312 0.55188 0.0
C816 C 0.04803 0.51841 0.60034 0.0
C817 C 1.00509 0.48007 0.5646 0.0
C818 C 1.0032 0.51236 0.6384 0.0
C819 C 0.08817 0.56975 0.6621 0.0
N820 N 1.00659 0.4926 0.58795 0.0
N821 N 0.08772 0.55768 0.63868 0.0
H822 H 0.54994 0.11272 0.84879 0.0
H823 H 0.50981 0.96398 0.72783 0.0
H824 H 0.46204 0.95994 0.84373 0.0
H825 H 0.60078 0.11646 0.73178 0.0
H826 H 0.4911 0.96276 0.77004 0.0
H827 H 0.56965 0.1154 0.80641 0.0
C828 C 0.53529 0.07961 0.83895 0.0
C829 C 0.50437 0.03595 0.85014 0.0
C830 C 0.51498 0.9966 0.76171 0.0
C831 C 0.52633 0.03899 0.80116 0.0
C832 C 0.52559 0.99737 0.73745 0.0
C833 C 0.557 0.04039 0.72596 0.0
C834 C 0.53589 0.03915 0.77493 0.0
C835 C 0.57614 0.08241 0.73966 0.0
C836 C 0.54634 0.08126 0.81462 0.0
C837 C 0.48618 0.99446 0.83612 0.0
N838 N 0.56548 0.08069 0.76335 0.0
N839 N 0.49726 0.99706 0.81251 0.0
H840 H 0.41338 0.09626 0.08416 0.0
H841 H 0.4052 0.31709 0.14364 0.0
H842 H 0.37555 0.09695 0.15759 0.0
H843 H 0.38468 0.28702 0.06839 0.0
H844 H 0.41166 0.24541 0.14958 0.0
H845 H 0.41982 0.17448 0.07859 0.0
C846 C 0.40767 0.1135 0.0993 0.0
C847 C 0.39571 0.09083 0.12167 0.0
C848 C 0.40656 0.25488 0.1317 0.0
C849 C 0.4023 0.18021 0.11532 0.0
C850 C 0.40328 0.296 0.12826 0.0
C851 C 0.39615 0.30905 0.10534 0.0
C852 C 0.40223 0.22607 0.11209 0.0
C853 C 0.39225 0.27948 0.08619 0.0
C854 C 0.41107 0.15801 0.09606 0.0
C855 C 0.38743 0.11426 0.14046 0.0
N856 N 0.39529 0.23943 0.08999 0.0
N857 N 0.39099 0.15763 0.13691 0.0
H858 H 0.27516 0.30745 0.30052 0.0
H859 H 0.14817 0.46182 0.28177 0.0
H860 H 0.36166 0.45914 0.29093 0.0
H861 H 0.08712 0.31366 0.26355 0.0
H862 H 0.22576 0.46613 0.28847 0.0
H863 H 0.20439 0.31281 0.2924 0.0
C864 C 0.2792 0.34217 0.29697 0.0
C865 C 0.32446 0.38292 0.29671 0.0
C866 C 0.19551 0.43302 0.28256 0.0
C867 C 0.24271 0.38943 0.28683 0.0
C868 C 0.1514 0.4307 0.27847 0.0
C869 C 0.1113 0.38747 0.27165 0.0
C870 C 0.1989 0.39152 0.28033 0.0
C871 C 0.11713 0.34779 0.26853 0.0
C872 C 0.23867 0.3452 0.29216 0.0
C873 C 0.32736 0.42695 0.29182 0.0
N874 N 0.15964 0.35069 0.27305 0.0
N875 N 0.28697 0.42913 0.28709 0.0
H876 H 0.93826 0.27864 0.49402 0.0
H877 H 0.75175 0.0853 0.40568 0.0
H878 H 0.93976 0.30646 0.41888 0.0
H879 H 0.71232 0.09457 0.47777 0.0
H880 H 0.82361 0.16357 0.41026 0.0
H881 H 0.8583 0.20857 0.48947 0.0
C882 C 0.92084 0.27129 0.47683 0.0
C883 C 0.94449 0.3002 0.45716 0.0
C884 C 0.79875 0.14905 0.42494 0.0
C885 C 0.85496 0.21762 0.45123 0.0
C886 C 0.75718 0.10488 0.42209 0.0
C887 C 0.72455 0.08479 0.4408 0.0
C888 C 0.80905 0.17242 0.44713 0.0
C889 C 0.73585 0.10951 0.46262 0.0
C890 C 0.87568 0.23069 0.47408 0.0
C891 C 0.92224 0.28604 0.4347 0.0
N892 N 0.7772 0.1518 0.46525 0.0
N893 N 0.87906 0.24582 0.43233 0.0
H894 H 0.71949 0.77096 0.60663 0.0
H895 H 0.57476 0.9095 0.62532 0.0
H896 H 0.56843 0.69288 0.61894 0.0
H897 H 0.72621 0.97114 0.63325 0.0
H898 H 0.56779 0.83071 0.6191 0.0
H899 H 0.71885 0.8454 0.61066 0.0
C900 C 0.6859 0.7696 0.60979 0.0
C901 C 0.64394 0.7257 0.61218 0.0
C902 C 0.60241 0.86148 0.62245 0.0
C903 C 0.64291 0.81153 0.61755 0.0
C904 C 0.60631 0.90633 0.62629 0.0
C905 C 0.65098 0.94683 0.63051 0.0
C906 C 0.6437 0.8575 0.62227 0.0
C907 C 0.69096 0.94093 0.63042 0.0
C908 C 0.68556 0.81221 0.61231 0.0
C909 C 0.60147 0.72605 0.6166 0.0
N910 N 0.68638 0.8975 0.62637 0.0
N911 N 0.602 0.76839 0.61924 0.0
H912 H 0.77861 0.72825 0.78631 0.0
H913 H 0.9121 0.57627 0.7752 0.0
H914 H 0.70025 0.57507 0.7888 0.0
H915 H 0.97605 0.72704 0.76287 0.0
H916 H 0.83449 0.57195 0.78124 0.0
H917 H 0.85161 0.72613 0.7801 0.0
C918 C 0.77683 0.69397 0.7859 0.0
C919 C 0.73308 0.65184 0.78857 0.0
C920 C 0.86547 0.60582 0.77694 0.0
C921 C 0.81751 0.64883 0.78083 0.0
C922 C 0.90964 0.60816 0.77321 0.0
C923 C 0.95052 0.65195 0.76803 0.0
C924 C 0.8625 0.64775 0.77586 0.0
C925 C 0.94552 0.69245 0.76659 0.0
C926 C 0.81869 0.69272 0.78219 0.0
C927 C 0.73316 0.60847 0.78752 0.0
N928 N 0.90275 0.68937 0.7705 0.0
N929 N 0.77468 0.60801 0.78371 0.0
H930 H 0.06929 0.77735 0.97818 0.0
H931 H 0.34463 0.90009 0.94109 0.0
H932 H 0.12923 0.69336 0.95289 0.0
H933 H 0.26811 0.97468 0.95364 0.0
H934 H 0.27034 0.82392 0.94718 0.0
H935 H 0.14592 0.84938 0.97267 0.0
C936 C 0.09904 0.77411 0.97181 0.0
C937 C 0.09307 0.72926 0.96643 0.0
C938 C 0.26982 0.85701 0.94833 0.0
C939 C 0.18152 0.81238 0.95925 0.0
C940 C 0.3122 0.90055 0.94451 0.0
C941 C 0.3126 0.94404 0.94616 0.0
C942 C 0.22772 0.85708 0.95429 0.0
C943 C 0.26964 0.9422 0.95191 0.0
C944 C 0.14285 0.81537 0.96846 0.0
C945 C 0.13265 0.72725 0.95775 0.0
N946 N 0.22936 0.89983 0.95574 0.0
N947 N 0.17526 0.76826 0.95436 0.0
H948 H 0.85945 0.62339 0.09673 0.0
H949 H 0.60408 0.4033 0.10799 0.0
H950 H 0.80091 0.49595 0.05364 0.0
H951 H 0.65363 0.54038 0.14119 0.0
H952 H 0.6864 0.42341 0.10228 0.0
H953 H 0.79652 0.58039 0.12588 0.0
C954 C 0.834 0.58615 0.09361 0.0
C955 C 0.83475 0.56379 0.07235 0.0
C956 C 0.67916 0.44861 0.11132 0.0
C957 C 0.76263 0.51456 0.10551 0.0
C958 C 0.63209 0.43743 0.11433 0.0
C959 C 0.62198 0.47177 0.12343 0.0
C960 C 0.71598 0.49435 0.11738 0.0
C961 C 0.65971 0.51366 0.13303 0.0
C962 C 0.79831 0.56154 0.11034 0.0
C963 C 0.80172 0.51509 0.06957 0.0
N964 N 0.70519 0.52446 0.12907 0.0
N965 N 0.76634 0.49244 0.0857 0.0
H966 H 0.34453 0.8142 0.21963 0.0
H967 H 0.15155 0.65496 0.31243 0.0
H968 H 0.24324 0.84712 0.25166 0.0
H969 H 0.23625 0.61284 0.27089 0.0
H970 H 0.20812 0.73795 0.30357 0.0
H971 H 0.32851 0.75658 0.25073 0.0
C972 C 0.31996 0.81071 0.23351 0.0
C973 C 0.29434 0.83521 0.23258 0.0
C974 C 0.21489 0.7106 0.29683 0.0
C975 C 0.27479 0.76731 0.26796 0.0
C976 C 0.18264 0.66312 0.3019 0.0
C977 C 0.18776 0.62681 0.2912 0.0
C978 C 0.25218 0.72157 0.28089 0.0
C979 C 0.2294 0.63961 0.27832 0.0
C980 C 0.31067 0.77727 0.25131 0.0
C981 C 0.26276 0.8281 0.25122 0.0
N982 N 0.25946 0.68602 0.27298 0.0
N983 N 0.25305 0.794 0.26787 0.0
H984 H 0.56786 0.33316 0.3834 0.0
H985 H 0.5322 0.14789 0.47951 0.0
H986 H 0.44668 0.26417 0.43046 0.0
H987 H 0.65361 0.21621 0.43256 0.0
H988 H 0.51815 0.21387 0.47343 0.0
H989 H 0.61362 0.31476 0.41122 0.0
C990 C 0.551 0.31535 0.39986 0.0
C991 C 0.50263 0.29902 0.40423 0.0
C992 C 0.54838 0.21484 0.46473 0.0
C993 C 0.555 0.27652 0.43589 0.0
C994 C 0.55655 0.177 0.46819 0.0
C995 C 0.59178 0.17426 0.45494 0.0
C996 C 0.57517 0.24967 0.44766 0.0
C997 C 0.62341 0.21443 0.44158 0.0
C998 C 0.57739 0.30468 0.41579 0.0
C999 C 0.48333 0.27601 0.42595 0.0
N1000 N 0.61336 0.24979 0.43761 0.0
N1001 N 0.50924 0.26448 0.44072 0.0
H1002 H 0.17981 0.38889 0.58481 0.0
H1003 H 0.42305 0.61655 0.60817 0.0
H1004 H 0.22981 0.52501 0.55027 0.0
H1005 H 0.37682 0.47853 0.63982 0.0
H1006 H 0.34043 0.59256 0.60005 0.0
H1007 H 0.23767 0.42899 0.61668 0.0
C1008 C 0.20225 0.42726 0.58415 0.0
C1009 C 0.2007 0.45329 0.5645 0.0
C1010 C 0.34838 0.56789 0.60922 0.0
C1011 C 0.26729 0.49934 0.6007 0.0
C1012 C 0.39577 0.58135 0.6136 0.0
C1013 C 0.40729 0.54807 0.62293 0.0
C1014 C 0.31267 0.52087 0.61403 0.0
C1015 C 0.36996 0.50461 0.63141 0.0
C1016 C 0.23505 0.45022 0.60244 0.0
C1017 C 0.22973 0.50312 0.56488 0.0
N1018 N 0.32434 0.49163 0.62605 0.0
N1019 N 0.26258 0.52434 0.58239 0.0
H1020 H 0.77313 0.17895 0.76454 0.0
H1021 H 0.82162 0.43948 0.77248 0.0
H1022 H 0.71308 0.24254 0.71841 0.0
H1023 H 0.8988 0.38313 0.81052 0.0
H1024 H 0.75666 0.35846 0.76612 0.0
H1025 H 0.79318 0.24247 0.79343 0.0
C1026 C 0.76333 0.2057 0.76067 0.0
C1027 C 0.74271 0.20612 0.7387 0.0
C1028 C 0.78739 0.36395 0.77634 0.0
C1029 C 0.76575 0.27892 0.77155 0.0
C1030 C 0.82482 0.41023 0.77975 0.0
C1031 C 0.86724 0.41785 0.79049 0.0
C1032 C 0.79287 0.32544 0.78358 0.0
C1033 C 0.86769 0.37884 0.80113 0.0
C1034 C 0.77442 0.24172 0.77725 0.0
C1035 C 0.72946 0.2408 0.73493 0.0
N1036 N 0.83169 0.3341 0.79674 0.0
N1037 N 0.74224 0.27644 0.75096 0.0
H1038 H 0.61205 0.76509 0.92025 0.0
H1039 H 0.3923 0.80163 0.92909 0.0
H1040 H 0.49094 0.703 0.87261 0.0
H1041 H 0.5158 0.86844 0.97507 0.0
H1042 H 0.4142 0.74257 0.91786 0.0
H1043 H 0.56505 0.78056 0.94896 0.0
C1044 C 0.57537 0.754 0.916 0.0
C1045 C 0.55582 0.73371 0.89381 0.0
C1046 C 0.43599 0.76963 0.93077 0.0
C1047 C 0.50202 0.75162 0.92637 0.0
C1048 C 0.42377 0.80372 0.93701 0.0
C1049 C 0.45404 0.84188 0.95183 0.0
C1050 C 0.47891 0.77426 0.93924 0.0
C1051 C 0.49242 0.84075 0.96281 0.0
C1052 C 0.54842 0.76249 0.93246 0.0
C1053 C 0.50776 0.71894 0.88942 0.0
N1054 N 0.5046 0.80835 0.95575 0.0
N1055 N 0.48284 0.72913 0.90536 0.0
H1056 H 0.65238 0.42958 0.80119 0.0
H1057 H 0.43156 0.17448 0.81163 0.0
H1058 H 0.52736 0.37393 0.75637 0.0
H1059 H 0.55409 0.23328 0.85835 0.0
H1060 H 0.47815 0.23629 0.78243 0.0
H1061 H 0.6304 0.3484 0.81225 0.0
C1062 C 0.62059 0.40034 0.79346 0.0
C1063 C 0.58998 0.40857 0.77902 0.0
C1064 C 0.49516 0.23489 0.79883 0.0
C1065 C 0.56488 0.31588 0.79148 0.0
C1066 C 0.46845 0.19983 0.81557 0.0
C1067 C 0.4885 0.19927 0.83768 0.0
C1068 C 0.54187 0.27021 0.80453 0.0
C1069 C 0.53681 0.23222 0.84164 0.0
C1070 C 0.60828 0.35392 0.7996 0.0
C1071 C 0.55104 0.36931 0.76831 0.0
N1072 N 0.56151 0.26696 0.82543 0.0
N1073 N 0.53876 0.32459 0.77532 0.0
H1074 H 0.2108 0.62161 0.95909 0.0
H1075 H 0.23126 0.39316 0.9766 0.0
H1076 H 0.11741 0.4846 0.92716 0.0
H1077 H 0.31533 0.52678 1.01353 0.0
H1078 H 0.20938 0.43436 0.94705 0.0
H1079 H 0.26911 0.59653 0.96639 0.0
C1080 C 0.20269 0.58647 0.95335 0.0
C1081 C 0.15786 0.55394 0.94394 0.0
C1082 C 0.23361 0.45483 0.9613 0.0
C1083 C 0.22447 0.52533 0.95205 0.0
C1084 C 0.24582 0.43126 0.97827 0.0
C1085 C 0.27429 0.4562 0.99789 0.0
C1086 C 0.24921 0.50347 0.96429 0.0
C1087 C 0.29311 0.50575 0.99885 0.0
C1088 C 0.23624 0.57232 0.95733 0.0
C1089 C 0.15075 0.5102 0.93537 0.0
N1090 N 0.27941 0.52752 0.98257 0.0
N1091 N 0.18311 0.49656 0.94029 0.0
H1092 H 0.85248 0.25008 0.14951 0.0
H1093 H 0.65418 0.17532 0.08575 0.0
H1094 H 0.80705 0.32966 0.19311 0.0
H1095 H 0.60765 0.22539 0.14559 0.0
H1096 H 0.736 0.23198 0.09599 0.0
H1097 H 0.79105 0.23638 0.12079 0.0
C1098 C 0.8302 0.26561 0.15275 0.0
C1099 C 0.83443 0.29024 0.17395 0.0
C1100 C 0.70799 0.23034 0.10705 0.0
C1101 C 0.76395 0.2755 0.14085 0.0
C1102 C 0.66095 0.1983 0.10102 0.0
C1103 C 0.62383 0.19265 0.11598 0.0
C1104 C 0.71775 0.25602 0.12845 0.0
C1105 C 0.635 0.22542 0.13464 0.0
C1106 C 0.79533 0.25842 0.13609 0.0
C1107 C 0.80521 0.31034 0.17707 0.0
N1108 N 0.6811 0.25473 0.1408 0.0
N1109 N 0.77057 0.30162 0.16093 0.0
H1110 H 0.51032 0.80905 0.34063 0.0
H1111 H 0.56222 0.65124 0.25652 0.0
H1112 H 0.64901 0.84468 0.31375 0.0
H1113 H 0.42774 0.60849 0.29078 0.0
H1114 H 0.58464 0.73407 0.26238 0.0
H1115 H 0.47374 0.75161 0.30892 0.0
C1116 C 0.53344 0.80618 0.32773 0.0
C1117 C 0.58324 0.83124 0.33037 0.0
C1118 C 0.54978 0.70657 0.26817 0.0
C1119 C 0.54073 0.76363 0.29429 0.0
C1120 C 0.53681 0.65907 0.26482 0.0
C1121 C 0.49437 0.62276 0.27471 0.0
C1122 C 0.52029 0.71759 0.28169 0.0
C1123 C 0.46232 0.63529 0.2844 0.0
C1124 C 0.51218 0.77288 0.30956 0.0
C1125 C 0.61053 0.8251 0.3129 0.0
N1126 N 0.47656 0.6818 0.28833 0.0
N1127 N 0.58892 0.79109 0.29593 0.0
H1128 H 0.98006 0.55842 0.48932 0.0
H1129 H 0.75545 0.58575 0.50535 0.0
H1130 H 0.86232 0.4987 0.43971 0.0
H1131 H 0.88978 0.68107 0.53904 0.0
H1132 H 0.79596 0.55763 0.47906 0.0
H1133 H 0.95107 0.60903 0.50555 0.0
C1134 C 0.94834 0.55636 0.48172 0.0
C1135 C 0.92262 0.52349 0.46367 0.0
C1136 C 0.81673 0.58513 0.49199 0.0
C1137 C 0.88942 0.58098 0.48205 0.0
C1138 C 0.79354 0.60072 0.50716 0.0
C1139 C 0.8193 0.63471 0.52475 0.0
C1140 C 0.86581 0.60318 0.49473 0.0
C1141 C 0.86871 0.65426 0.52588 0.0
C1142 C 0.93204 0.58548 0.49084 0.0
C1143 C 0.88271 0.52319 0.45388 0.0
N1144 N 0.89037 0.63753 0.51133 0.0
N1145 N 0.86667 0.55081 0.46356 0.0
H1146 H 0.2377 0.70241 0.6794 0.0
H1147 H 0.38617 0.895 0.58712 0.0
H1148 H 0.18764 0.78075 0.63734 0.0
H1149 H 0.43715 0.81788 0.62941 0.0
H1150 H 0.3055 0.8298 0.59217 0.0
H1151 H 0.29842 0.7199 0.64993 0.0
C1152 C 0.2383 0.72215 0.6637 0.0
C1153 C 0.20809 0.7414 0.6613 0.0
C1154 C 0.3344 0.82669 0.60001 0.0
C1155 C 0.27924 0.76289 0.62775 0.0
C1156 C 0.38073 0.86406 0.59714 0.0
C1157 C 0.41831 0.86381 0.60953 0.0
C1158 C 0.32575 0.78943 0.6157 0.0
C1159 C 0.40899 0.82162 0.6212 0.0
C1160 C 0.27341 0.73226 0.64679 0.0
C1161 C 0.21125 0.76668 0.6404 0.0
N1162 N 0.36337 0.78672 0.62471 0.0
N1163 N 0.24698 0.77768 0.62471 0.0
loop_
_geom_bond_atom_site_label_1
_geom_bond_atom_site_label_2
_geom_bond_distance
_geom_bond_site_symmetry_2
_ccdc_geom_bond_type
Zn0 N4 2.020 . S
Zn0 O8 2.019 . S
Zn0 N10 2.119 . S
Zn0 O18 1.975 . S
C1 N2 1.334 . S
C1 N5 1.336 . S
N2 C1 1.334 . S
N2 C3 1.334 . S
C3 N2 1.334 . S
C3 N4 1.336 . S
N4 Zn0 2.020 . S
N4 C3 1.336 . S
N4 N5 1.354 . S
N5 C1 1.336 . S
N5 N4 1.354 . S
N5 Zn9 2.020 . S
C6 O7 1.244 . S
C6 O30 1.257 . S
O7 C6 1.244 . S
O8 Zn0 2.019 . S
O8 C28 1.257 . S
Zn9 N5 2.020 . S
Zn9 O16 1.975 1_554 S
Zn9 N25 2.119 . S
Zn9 O30 2.019 1_554 S
N10 Zn0 2.119 . S
N10 C12 1.334 1_554 S
N10 C13 1.328 . S
C11 C12 1.391 . S
C11 N14 1.329 . S
C11 H32 0.930 . S
C12 N10 1.334 1_556 S
C12 C11 1.391 . S
C12 H19 0.930 . S
C13 N10 1.328 . S
C13 C15 1.392 1_554 S
C13 H20 0.930 . S
N14 C11 1.329 . S
N14 C15 1.331 . S
C15 C13 1.392 1_556 S
C15 N14 1.331 . S
O16 Zn9 1.975 1_556 S
O16 C17 1.252 . S
C17 O16 1.252 . S
C17 O18 1.252 1_556 S
O18 Zn0 1.975 . S
O18 C17 1.252 1_554 S
H19 C12 0.930 . S
H20 C13 0.930 . S
C21 C22 1.392 . S
C21 N25 1.328 . S
C21 H27 0.930 . S
C22 C21 1.392 . S
C22 N26 1.331 . S
C23 C24 1.391 . S
C23 N26 1.329 . S
C23 H33 0.930 . S
C24 C23 1.391 . S
C24 N25 1.334 . S
C24 H31 0.930 . S
N25 Zn9 2.119 . S
N25 C21 1.328 . S
N25 C24 1.334 . S
N26 C22 1.331 . S
N26 C23 1.329 . S
H27 C21 0.930 . S
C28 O8 1.257 . S
C28 O29 1.244 . S
O29 C28 1.244 . S
O30 C6 1.257 . S
O30 Zn9 2.019 1_556 S
H31 C24 0.930 . S
H32 C11 0.930 . S
H33 C23 0.930 . S
Zn34 N38 2.020 . S
Zn34 O42 2.019 1_655 S
Zn34 N44 2.119 1_655 S
Zn34 O52 1.975 . S
C35 N36 1.334 . S
C35 N39 1.336 . S
N36 C35 1.334 . S
N36 C37 1.334 . S
C37 N36 1.334 . S
C37 N38 1.336 . S
N38 Zn34 2.020 . S
N38 C37 1.336 . S
N38 N39 1.354 . S
N39 C35 1.336 . S
N39 N38 1.354 . S
N39 Zn43 2.020 . S
C40 O41 1.244 . S
C40 O64 1.257 . S
O41 C40 1.244 . S
O42 Zn34 2.019 1_455 S
O42 C62 1.257 . S
Zn43 N39 2.020 . S
Zn43 O50 1.975 . S
Zn43 N59 2.119 . S
Zn43 O64 2.019 . S
N44 Zn34 2.119 1_455 S
N44 C46 1.334 1_455 S
N44 C47 1.328 . S
C45 C46 1.391 1_455 S
C45 N48 1.329 . S
C45 H66 0.930 1_455 S
C46 N44 1.334 1_655 S
C46 C45 1.391 1_655 S
C46 H53 0.930 . S
C47 N44 1.328 . S
C47 C49 1.392 . S
C47 H54 0.930 . S
N48 C45 1.329 . S
N48 C49 1.331 . S
C49 C47 1.392 . S
C49 N48 1.331 . S
O50 Zn43 1.975 . S
O50 C51 1.252 . S
C51 O50 1.252 . S
C51 O52 1.252 . S
O52 Zn34 1.975 . S
O52 C51 1.252 . S
H53 C46 0.930 . S
H54 C47 0.930 . S
C55 C56 1.392 . S
C55 N59 1.328 . S
C55 H61 0.930 . S
C56 C55 1.392 . S
C56 N60 1.331 . S
C57 C58 1.391 . S
C57 N60 1.329 . S
C57 H67 0.930 . S
C58 C57 1.391 . S
C58 N59 1.334 . S
C58 H65 0.930 . S
N59 Zn43 2.119 . S
N59 C55 1.328 . S
N59 C58 1.334 . S
N60 C56 1.331 . S
N60 C57 1.329 . S
H61 C55 0.930 . S
C62 O42 1.257 . S
C62 O63 1.244 . S
O63 C62 1.244 . S
O64 C40 1.257 . S
O64 Zn43 2.019 . S
H65 C58 0.930 . S
H66 C45 0.930 1_655 S
H67 C57 0.930 . S
Zn68 N72 2.020 . S
Zn68 O76 2.019 . S
Zn68 N78 2.119 . S
Zn68 O86 1.975 . S
C69 N70 1.334 . S
C69 N73 1.336 . S
N70 C69 1.334 . S
N70 C71 1.334 . S
C71 N70 1.334 . S
C71 N72 1.336 . S
N72 Zn68 2.020 . S
N72 C71 1.336 . S
N72 N73 1.354 . S
N73 C69 1.336 . S
N73 N72 1.354 . S
N73 Zn77 2.020 . S
C74 O75 1.244 . S
C74 O98 1.257 . S
O75 C74 1.244 . S
O76 Zn68 2.019 . S
O76 C96 1.257 . S
Zn77 N73 2.020 . S
Zn77 O84 1.975 . S
Zn77 N93 2.119 1_565 S
Zn77 O98 2.019 1_565 S
N78 Zn68 2.119 . S
N78 C80 1.334 . S
N78 C81 1.328 . S
C79 C80 1.391 . S
C79 N82 1.329 . S
C79 H100 0.930 . S
C80 N78 1.334 . S
C80 C79 1.391 . S
C80 H87 0.930 . S
C81 N78 1.328 . S
C81 C83 1.392 . S
C81 H88 0.930 . S
N82 C79 1.329 . S
N82 C83 1.331 . S
C83 C81 1.392 . S
C83 N82 1.331 . S
O84 Zn77 1.975 . S
O84 C85 1.252 . S
C85 O84 1.252 . S
C85 O86 1.252 . S
O86 Zn68 1.975 . S
O86 C85 1.252 . S
H87 C80 0.930 . S
H88 C81 0.930 . S
C89 C90 1.392 . S
C89 N93 1.328 . S
C89 H95 0.930 . S
C90 C89 1.392 . S
C90 N94 1.331 . S
C91 C92 1.391 1_545 S
C91 N94 1.329 . S
C91 H101 0.930 1_545 S
C92 C91 1.391 1_565 S
C92 N93 1.334 1_565 S
C92 H99 0.930 . S
N93 Zn77 2.119 1_545 S
N93 C89 1.328 . S
N93 C92 1.334 1_545 S
N94 C90 1.331 . S
N94 C91 1.329 . S
H95 C89 0.930 . S
C96 O76 1.257 . S
C96 O97 1.244 . S
O97 C96 1.244 . S
O98 C74 1.257 . S
O98 Zn77 2.019 1_545 S
H99 C92 0.930 . S
H100 C79 0.930 . S
H101 C91 0.930 1_565 S
Zn102 N106 2.020 . S
Zn102 O110 2.019 . S
Zn102 N112 2.119 . S
Zn102 O120 1.975 . S
C103 N104 1.334 . S
C103 N107 1.336 . S
N104 C103 1.334 . S
N104 C105 1.334 . S
C105 N104 1.334 . S
C105 N106 1.336 . S
N106 Zn102 2.020 . S
N106 C105 1.336 . S
N106 N107 1.354 . S
N107 C103 1.336 . S
N107 N106 1.354 . S
N107 Zn111 2.020 . S
C108 O109 1.244 . S
C108 O132 1.257 . S
O109 C108 1.244 . S
O110 Zn102 2.019 . S
O110 C130 1.257 . S
Zn111 N107 2.020 . S
Zn111 O118 1.975 . S
Zn111 N127 2.119 . S
Zn111 O132 2.019 . S
N112 Zn102 2.119 . S
N112 C114 1.334 . S
N112 C115 1.328 . S
C113 C114 1.391 . S
C113 N116 1.329 . S
C113 H134 0.930 . S
C114 N112 1.334 . S
C114 C113 1.391 . S
C114 H121 0.930 . S
C115 N112 1.328 . S
C115 C117 1.392 . S
C115 H122 0.930 . S
N116 C113 1.329 . S
N116 C117 1.331 . S
C117 C115 1.392 . S
C117 N116 1.331 . S
O118 Zn111 1.975 . S
O118 C119 1.252 . S
C119 O118 1.252 . S
C119 O120 1.252 . S
O120 Zn102 1.975 . S
O120 C119 1.252 . S
H121 C114 0.930 . S
H122 C115 0.930 . S
C123 C124 1.392 . S
C123 N127 1.328 . S
C123 H129 0.930 . S
C124 C123 1.392 . S
C124 N128 1.331 . S
C125 C126 1.391 . S
C125 N128 1.329 . S
C125 H135 0.930 . S
C126 C125 1.391 . S
C126 N127 1.334 . S
C126 H133 0.930 . S
N127 Zn111 2.119 . S
N127 C123 1.328 . S
N127 C126 1.334 . S
N128 C124 1.331 . S
N128 C125 1.329 . S
H129 C123 0.930 . S
C130 O110 1.257 . S
C130 O131 1.244 . S
O131 C130 1.244 . S
O132 C108 1.257 . S
O132 Zn111 2.019 . S
H133 C126 0.930 . S
H134 C113 0.930 . S
H135 C125 0.930 . S
Zn136 N140 2.020 . S
Zn136 O144 2.019 . S
Zn136 N146 2.119 . S
Zn136 O154 1.975 . S
C137 N138 1.334 . S
C137 N141 1.336 . S
N138 C137 1.334 . S
N138 C139 1.334 . S
C139 N138 1.334 . S
C139 N140 1.336 . S
N140 Zn136 2.020 . S
N140 C139 1.336 . S
N140 N141 1.354 . S
N141 C137 1.336 . S
N141 N140 1.354 . S
N141 Zn145 2.020 . S
C142 O143 1.244 . S
C142 O166 1.257 . S
O143 C142 1.244 . S
O144 Zn136 2.019 . S
O144 C164 1.257 . S
Zn145 N141 2.020 . S
Zn145 O152 1.975 . S
Zn145 N161 2.119 1_455 S
Zn145 O166 2.019 1_455 S
N146 Zn136 2.119 . S
N146 C148 1.334 . S
N146 C149 1.328 . S
C147 C148 1.391 . S
C147 N150 1.329 . S
C147 H168 0.930 . S
C148 N146 1.334 . S
C148 C147 1.391 . S
C148 H155 0.930 . S
C149 N146 1.328 . S
C149 C151 1.392 . S
C149 H156 0.930 . S
N150 C147 1.329 . S
N150 C151 1.331 . S
C151 C149 1.392 . S
C151 N150 1.331 . S
O152 Zn145 1.975 . S
O152 C153 1.252 . S
C153 O152 1.252 . S
C153 O154 1.252 . S
O154 Zn136 1.975 . S
O154 C153 1.252 . S
H155 C148 0.930 . S
H156 C149 0.930 . S
C157 C158 1.392 . S
C157 N161 1.328 . S
C157 H163 0.930 . S
C158 C157 1.392 . S
C158 N162 1.331 . S
C159 C160 1.391 1_655 S
C159 N162 1.329 . S
C159 H169 0.930 1_655 S
C160 C159 1.391 1_455 S
C160 N161 1.334 1_455 S
C160 H167 0.930 . S
N161 Zn145 2.119 1_655 S
N161 C157 1.328 . S
N161 C160 1.334 1_655 S
N162 C158 1.331 . S
N162 C159 1.329 . S
H163 C157 0.930 . S
C164 O144 1.257 . S
C164 O165 1.244 . S
O165 C164 1.244 . S
O166 C142 1.257 . S
O166 Zn145 2.019 1_655 S
H167 C160 0.930 . S
H168 C147 0.930 . S
H169 C159 0.930 1_455 S
Zn170 N174 2.020 . S
Zn170 O178 2.019 1_545 S
Zn170 N180 2.119 1_545 S
Zn170 O188 1.975 . S
C171 N172 1.334 . S
C171 N175 1.336 . S
N172 C171 1.334 . S
N172 C173 1.334 . S
C173 N172 1.334 . S
C173 N174 1.336 . S
N174 Zn170 2.020 . S
N174 C173 1.336 . S
N174 N175 1.354 . S
N175 C171 1.336 . S
N175 N174 1.354 . S
N175 Zn179 2.020 . S
C176 O177 1.244 . S
C176 O200 1.257 . S
O177 C176 1.244 . S
O178 Zn170 2.019 1_565 S
O178 C198 1.257 . S
Zn179 N175 2.020 . S
Zn179 O186 1.975 . S
Zn179 N195 2.119 . S
Zn179 O200 2.019 . S
N180 Zn170 2.119 1_565 S
N180 C182 1.334 1_565 S
N180 C183 1.328 . S
C181 C182 1.391 1_565 S
C181 N184 1.329 . S
C181 H202 0.930 1_565 S
C182 N180 1.334 1_545 S
C182 C181 1.391 1_545 S
C182 H189 0.930 . S
C183 N180 1.328 . S
C183 C185 1.392 . S
C183 H190 0.930 . S
N184 C181 1.329 . S
N184 C185 1.331 . S
C185 C183 1.392 . S
C185 N184 1.331 . S
O186 Zn179 1.975 . S
O186 C187 1.252 . S
C187 O186 1.252 . S
C187 O188 1.252 . S
O188 Zn170 1.975 . S
O188 C187 1.252 . S
H189 C182 0.930 . S
H190 C183 0.930 . S
C191 C192 1.392 . S
C191 N195 1.328 . S
C191 H197 0.930 . S
C192 C191 1.392 . S
C192 N196 1.331 . S
C193 C194 1.391 . S
C193 N196 1.329 . S
C193 H203 0.930 . S
C194 C193 1.391 . S
C194 N195 1.334 . S
C194 H201 0.930 . S
N195 Zn179 2.119 . S
N195 C191 1.328 . S
N195 C194 1.334 . S
N196 C192 1.331 . S
N196 C193 1.329 . S
H197 C191 0.930 . S
C198 O178 1.257 . S
C198 O199 1.244 . S
O199 C198 1.244 . S
O200 C176 1.257 . S
O200 Zn179 2.019 . S
H201 C194 0.930 . S
H202 C181 0.930 1_545 S
H203 C193 0.930 . S
Zn204 N208 2.020 . S
Zn204 O212 2.019 . S
Zn204 N214 2.119 . S
Zn204 O222 1.975 . S
C205 N206 1.334 . S
C205 N209 1.336 . S
N206 C205 1.334 . S
N206 C207 1.334 . S
C207 N206 1.334 . S
C207 N208 1.336 . S
N208 Zn204 2.020 . S
N208 C207 1.336 . S
N208 N209 1.354 . S
N209 C205 1.336 . S
N209 N208 1.354 . S
N209 Zn213 2.020 . S
C210 O211 1.244 . S
C210 O234 1.257 . S
O211 C210 1.244 . S
O212 Zn204 2.019 . S
O212 C232 1.257 . S
Zn213 N209 2.020 . S
Zn213 O220 1.975 . S
Zn213 N229 2.119 . S
Zn213 O234 2.019 . S
N214 Zn204 2.119 . S
N214 C216 1.334 . S
N214 C217 1.328 . S
C215 C216 1.391 . S
C215 N218 1.329 . S
C215 H236 0.930 . S
C216 N214 1.334 . S
C216 C215 1.391 . S
C216 H223 0.930 . S
C217 N214 1.328 . S
C217 C219 1.392 . S
C217 H224 0.930 . S
N218 C215 1.329 . S
N218 C219 1.331 . S
C219 C217 1.392 . S
C219 N218 1.331 . S
O220 Zn213 1.975 . S
O220 C221 1.252 . S
C221 O220 1.252 . S
C221 O222 1.252 . S
O222 Zn204 1.975 . S
O222 C221 1.252 . S
H223 C216 0.930 . S
H224 C217 0.930 . S
C225 C226 1.392 . S
C225 N229 1.328 . S
C225 H231 0.930 . S
C226 C225 1.392 . S
C226 N230 1.331 . S
C227 C228 1.391 . S
C227 N230 1.329 . S
C227 H237 0.930 . S
C228 C227 1.391 . S
C228 N229 1.334 . S
C228 H235 0.930 . S
N229 Zn213 2.119 . S
N229 C225 1.328 . S
N229 C228 1.334 . S
N230 C226 1.331 . S
N230 C227 1.329 . S
H231 C225 0.930 . S
C232 O212 1.257 . S
C232 O233 1.244 . S
O233 C232 1.244 . S
O234 C210 1.257 . S
O234 Zn213 2.019 . S
H235 C228 0.930 . S
H236 C215 0.930 . S
H237 C227 0.930 . S
Zn238 N242 2.020 . S
Zn238 O246 2.019 1_656 S
Zn238 N248 2.119 1_655 S
Zn238 O256 1.975 1_556 S
C239 N240 1.334 . S
C239 N243 1.336 . S
N240 C239 1.334 . S
N240 C241 1.334 . S
C241 N240 1.334 . S
C241 N242 1.336 . S
N242 Zn238 2.020 . S
N242 C241 1.336 . S
N242 N243 1.354 . S
N243 C239 1.336 . S
N243 N242 1.354 . S
N243 Zn247 2.020 . S
C244 O245 1.244 . S
C244 O268 1.257 . S
O245 C244 1.244 . S
O246 Zn238 2.019 1_454 S
O246 C266 1.257 . S
Zn247 N243 2.020 . S
Zn247 O254 1.975 . S
Zn247 N263 2.119 . S
Zn247 O268 2.019 . S
N248 Zn238 2.119 1_455 S
N248 C250 1.334 1_455 S
N248 C251 1.328 . S
C249 C250 1.391 1_455 S
C249 N252 1.329 . S
C249 H270 0.930 1_455 S
C250 N248 1.334 1_655 S
C250 C249 1.391 1_655 S
C250 H257 0.930 . S
C251 N248 1.328 . S
C251 C253 1.392 . S
C251 H258 0.930 . S
N252 C249 1.329 . S
N252 C253 1.331 . S
C253 C251 1.392 . S
C253 N252 1.331 . S
O254 Zn247 1.975 . S
O254 C255 1.252 1_556 S
C255 O254 1.252 1_554 S
C255 O256 1.252 . S
O256 Zn238 1.975 1_554 S
O256 C255 1.252 . S
H257 C250 0.930 . S
H258 C251 0.930 . S
C259 C260 1.392 1_556 S
C259 N263 1.328 . S
C259 H265 0.930 . S
C260 C259 1.392 1_554 S
C260 N264 1.331 . S
C261 C262 1.391 . S
C261 N264 1.329 . S
C261 H271 0.930 . S
C262 C261 1.391 . S
C262 N263 1.334 1_554 S
C262 H269 0.930 . S
N263 Zn247 2.119 . S
N263 C259 1.328 . S
N263 C262 1.334 1_556 S
N264 C260 1.331 . S
N264 C261 1.329 . S
H265 C259 0.930 . S
C266 O246 1.257 . S
C266 O267 1.244 . S
O267 C266 1.244 . S
O268 C244 1.257 . S
O268 Zn247 2.019 . S
H269 C262 0.930 . S
H270 C249 0.930 1_655 S
H271 C261 0.930 . S
Zn272 N276 2.020 . S
Zn272 O280 2.019 . S
Zn272 N282 2.119 . S
Zn272 O290 1.975 . S
C273 N274 1.334 . S
C273 N277 1.336 . S
N274 C273 1.334 . S
N274 C275 1.334 . S
C275 N274 1.334 . S
C275 N276 1.336 . S
N276 Zn272 2.020 . S
N276 C275 1.336 . S
N276 N277 1.354 . S
N277 C273 1.336 . S
N277 N276 1.354 . S
N277 Zn281 2.020 . S
C278 O279 1.244 . S
C278 O302 1.257 . S
O279 C278 1.244 . S
O280 Zn272 2.019 . S
O280 C300 1.257 . S
Zn281 N277 2.020 . S
Zn281 O288 1.975 . S
Zn281 N297 2.119 1_565 S
Zn281 O302 2.019 1_565 S
N282 Zn272 2.119 . S
N282 C284 1.334 . S
N282 C285 1.328 . S
C283 C284 1.391 . S
C283 N286 1.329 . S
C283 H304 0.930 . S
C284 N282 1.334 . S
C284 C283 1.391 . S
C284 H291 0.930 . S
C285 N282 1.328 . S
C285 C287 1.392 . S
C285 H292 0.930 . S
N286 C283 1.329 . S
N286 C287 1.331 . S
C287 C285 1.392 . S
C287 N286 1.331 . S
O288 Zn281 1.975 . S
O288 C289 1.252 . S
C289 O288 1.252 . S
C289 O290 1.252 . S
O290 Zn272 1.975 . S
O290 C289 1.252 . S
H291 C284 0.930 . S
H292 C285 0.930 . S
C293 C294 1.392 . S
C293 N297 1.328 . S
C293 H299 0.930 . S
C294 C293 1.392 . S
C294 N298 1.331 . S
C295 C296 1.391 1_545 S
C295 N298 1.329 . S
C295 H305 0.930 1_545 S
C296 C295 1.391 1_565 S
C296 N297 1.334 1_565 S
C296 H303 0.930 . S
N297 Zn281 2.119 1_545 S
N297 C293 1.328 . S
N297 C296 1.334 1_545 S
N298 C294 1.331 . S
N298 C295 1.329 . S
H299 C293 0.930 . S
C300 O280 1.257 . S
C300 O301 1.244 . S
O301 C300 1.244 . S
O302 C278 1.257 . S
O302 Zn281 2.019 1_545 S
H303 C296 0.930 . S
H304 C283 0.930 . S
H305 C295 0.930 1_565 S
Zn306 N310 2.020 . S
Zn306 O314 2.019 . S
Zn306 N316 2.119 . S
Zn306 O324 1.975 . S
C307 N308 1.334 . S
C307 N311 1.336 . S
N308 C307 1.334 . S
N308 C309 1.334 . S
C309 N308 1.334 . S
C309 N310 1.336 . S
N310 Zn306 2.020 . S
N310 C309 1.336 . S
N310 N311 1.354 . S
N311 C307 1.336 . S
N311 N310 1.354 . S
N311 Zn315 2.020 . S
C312 O313 1.244 . S
C312 O336 1.257 . S
O313 C312 1.244 . S
O314 Zn306 2.019 . S
O314 C334 1.257 . S
Zn315 N311 2.020 . S
Zn315 O322 1.975 . S
Zn315 N331 2.119 . S
Zn315 O336 2.019 . S
N316 Zn306 2.119 . S
N316 C318 1.334 . S
N316 C319 1.328 . S
C317 C318 1.391 . S
C317 N320 1.329 . S
C317 H338 0.930 . S
C318 N316 1.334 . S
C318 C317 1.391 . S
C318 H325 0.930 . S
C319 N316 1.328 . S
C319 C321 1.392 . S
C319 H326 0.930 . S
N320 C317 1.329 . S
N320 C321 1.331 . S
C321 C319 1.392 . S
C321 N320 1.331 . S
O322 Zn315 1.975 . S
O322 C323 1.252 . S
C323 O322 1.252 . S
C323 O324 1.252 . S
O324 Zn306 1.975 . S
O324 C323 1.252 . S
H325 C318 0.930 . S
H326 C319 0.930 . S
C327 C328 1.392 . S
C327 N331 1.328 . S
C327 H333 0.930 . S
C328 C327 1.392 . S
C328 N332 1.331 . S
C329 C330 1.391 . S
C329 N332 1.329 . S
C329 H339 0.930 . S
C330 C329 1.391 . S
C330 N331 1.334 . S
C330 H337 0.930 . S
N331 Zn315 2.119 . S
N331 C327 1.328 . S
N331 C330 1.334 . S
N332 C328 1.331 . S
N332 C329 1.329 . S
H333 C327 0.930 . S
C334 O314 1.257 . S
C334 O335 1.244 . S
O335 C334 1.244 . S
O336 C312 1.257 . S
O336 Zn315 2.019 . S
H337 C330 0.930 . S
H338 C317 0.930 . S
H339 C329 0.930 . S
Zn340 N344 2.020 . S
Zn340 O348 2.019 . S
Zn340 N350 2.119 . S
Zn340 O358 1.975 . S
C341 N342 1.334 . S
C341 N345 1.336 . S
N342 C341 1.334 . S
N342 C343 1.334 . S
C343 N342 1.334 . S
C343 N344 1.336 . S
N344 Zn340 2.020 . S
N344 C343 1.336 . S
N344 N345 1.354 . S
N345 C341 1.336 . S
N345 N344 1.354 . S
N345 Zn349 2.020 . S
C346 O347 1.244 . S
C346 O370 1.257 . S
O347 C346 1.244 . S
O348 Zn340 2.019 . S
O348 C368 1.257 . S
Zn349 N345 2.020 . S
Zn349 O356 1.975 . S
Zn349 N365 2.119 1_455 S
Zn349 O370 2.019 1_455 S
N350 Zn340 2.119 . S
N350 C352 1.334 . S
N350 C353 1.328 . S
C351 C352 1.391 . S
C351 N354 1.329 . S
C351 H372 0.930 . S
C352 N350 1.334 . S
C352 C351 1.391 . S
C352 H359 0.930 . S
C353 N350 1.328 . S
C353 C355 1.392 . S
C353 H360 0.930 . S
N354 C351 1.329 . S
N354 C355 1.331 . S
C355 C353 1.392 . S
C355 N354 1.331 . S
O356 Zn349 1.975 . S
O356 C357 1.252 . S
C357 O356 1.252 . S
C357 O358 1.252 . S
O358 Zn340 1.975 . S
O358 C357 1.252 . S
H359 C352 0.930 . S
H360 C353 0.930 . S
C361 C362 1.392 . S
C361 N365 1.328 . S
C361 H367 0.930 . S
C362 C361 1.392 . S
C362 N366 1.331 . S
C363 C364 1.391 1_655 S
C363 N366 1.329 . S
C363 H373 0.930 1_655 S
C364 C363 1.391 1_455 S
C364 N365 1.334 1_455 S
C364 H371 0.930 . S
N365 Zn349 2.119 1_655 S
N365 C361 1.328 . S
N365 C364 1.334 1_655 S
N366 C362 1.331 . S
N366 C363 1.329 . S
H367 C361 0.930 . S
C368 O348 1.257 . S
C368 O369 1.244 . S
O369 C368 1.244 . S
O370 C346 1.257 . S
O370 Zn349 2.019 1_655 S
H371 C364 0.930 . S
H372 C351 0.930 . S
H373 C363 0.930 1_455 S
Zn374 N378 2.020 . S
Zn374 O382 2.019 1_545 S
Zn374 N384 2.119 1_545 S
Zn374 O392 1.975 . S
C375 N376 1.334 . S
C375 N379 1.336 . S
N376 C375 1.334 . S
N376 C377 1.334 . S
C377 N376 1.334 . S
C377 N378 1.336 . S
N378 Zn374 2.020 . S
N378 C377 1.336 . S
N378 N379 1.354 . S
N379 C375 1.336 . S
N379 N378 1.354 . S
N379 Zn383 2.020 . S
C380 O381 1.244 . S
C380 O404 1.257 . S
O381 C380 1.244 . S
O382 Zn374 2.019 1_565 S
O382 C402 1.257 . S
Zn383 N379 2.020 . S
Zn383 O390 1.975 . S
Zn383 N399 2.119 . S
Zn383 O404 2.019 . S
N384 Zn374 2.119 1_565 S
N384 C386 1.334 1_565 S
N384 C387 1.328 . S
C385 C386 1.391 1_565 S
C385 N388 1.329 . S
C385 H406 0.930 1_565 S
C386 N384 1.334 1_545 S
C386 C385 1.391 1_545 S
C386 H393 0.930 . S
C387 N384 1.328 . S
C387 C389 1.392 . S
C387 H394 0.930 . S
N388 C385 1.329 . S
N388 C389 1.331 . S
C389 C387 1.392 . S
C389 N388 1.331 . S
O390 Zn383 1.975 . S
O390 C391 1.252 . S
C391 O390 1.252 . S
C391 O392 1.252 . S
O392 Zn374 1.975 . S
O392 C391 1.252 . S
H393 C386 0.930 . S
H394 C387 0.930 . S
C395 C396 1.392 . S
C395 N399 1.328 . S
C395 H401 0.930 . S
C396 C395 1.392 . S
C396 N400 1.331 . S
C397 C398 1.391 . S
C397 N400 1.329 . S
C397 H407 0.930 . S
C398 C397 1.391 . S
C398 N399 1.334 . S
C398 H405 0.930 . S
N399 Zn383 2.119 . S
N399 C395 1.328 . S
N399 C398 1.334 . S
N400 C396 1.331 . S
N400 C397 1.329 . S
H401 C395 0.930 . S
C402 O382 1.257 . S
C402 O403 1.244 . S
O403 C402 1.244 . S
O404 C380 1.257 . S
O404 Zn383 2.019 . S
H405 C398 0.930 . S
H406 C385 0.930 1_545 S
H407 C397 0.930 . S
H408 C414 0.930 . S
H409 C418 0.930 . S
H410 C423 0.929 . S
H411 C421 0.929 . S
H412 C416 0.929 . S
H413 C422 0.929 . S
C414 H408 0.930 . S
C414 C415 1.367 . S
C414 C422 1.378 . S
C415 C414 1.367 . S
C415 C423 1.433 . S
C416 H412 0.929 . S
C416 C418 1.378 . S
C416 C420 1.350 . S
C417 C420 1.463 . S
C417 C422 1.350 . S
C417 N425 1.427 . S
C418 H409 0.930 . S
C418 C416 1.378 . S
C418 C419 1.367 . S
C419 C418 1.367 . S
C419 C421 1.433 . S
C420 C416 1.350 . S
C420 C417 1.463 . S
C420 N424 1.427 . S
C421 H411 0.929 . S
C421 C419 1.433 . S
C421 N424 1.384 . S
C422 H413 0.929 . S
C422 C414 1.378 . S
C422 C417 1.350 . S
C423 H410 0.929 . S
C423 C415 1.433 . S
C423 N425 1.384 . S
N424 C420 1.427 . S
N424 C421 1.384 . S
N425 C417 1.427 . S
N425 C423 1.384 . S
H426 C432 0.930 . S
H427 C436 0.930 . S
H428 C441 0.929 . S
H429 C439 0.929 . S
H430 C434 0.929 . S
H431 C440 0.929 . S
C432 H426 0.930 . S
C432 C433 1.367 . S
C432 C440 1.378 . S
C433 C432 1.367 . S
C433 C441 1.433 . S
C434 H430 0.929 . S
C434 C436 1.378 . S
C434 C438 1.350 . S
C435 C438 1.463 . S
C435 C440 1.350 . S
C435 N443 1.427 . S
C436 H427 0.930 . S
C436 C434 1.378 . S
C436 C437 1.367 . S
C437 C436 1.367 . S
C437 C439 1.433 . S
C438 C434 1.350 . S
C438 C435 1.463 . S
C438 N442 1.427 . S
C439 H429 0.929 . S
C439 C437 1.433 . S
C439 N442 1.384 . S
C440 H431 0.929 . S
C440 C432 1.378 . S
C440 C435 1.350 . S
C441 H428 0.929 . S
C441 C433 1.433 . S
C441 N443 1.384 . S
N442 C438 1.427 . S
N442 C439 1.384 . S
N443 C435 1.427 . S
N443 C441 1.384 . S
H444 C450 0.930 . S
H445 C454 0.930 . S
H446 C459 0.929 . S
H447 C457 0.929 . S
H448 C452 0.929 . S
H449 C458 0.929 . S
C450 H444 0.930 . S
C450 C451 1.367 . S
C450 C458 1.378 . S
C451 C450 1.367 . S
C451 C459 1.433 . S
C452 H448 0.929 . S
C452 C454 1.378 . S
C452 C456 1.350 . S
C453 C456 1.463 . S
C453 C458 1.350 . S
C453 N461 1.427 . S
C454 H445 0.930 . S
C454 C452 1.378 . S
C454 C455 1.367 . S
C455 C454 1.367 . S
C455 C457 1.433 . S
C456 C452 1.350 . S
C456 C453 1.463 . S
C456 N460 1.427 . S
C457 H447 0.929 . S
C457 C455 1.433 . S
C457 N460 1.384 . S
C458 H449 0.929 . S
C458 C450 1.378 . S
C458 C453 1.350 . S
C459 H446 0.929 . S
C459 C451 1.433 . S
C459 N461 1.384 . S
N460 C456 1.427 . S
N460 C457 1.384 . S
N461 C453 1.427 . S
N461 C459 1.384 . S
H462 C468 0.930 . S
H463 C472 0.930 . S
H464 C477 0.929 . S
H465 C475 0.929 . S
H466 C470 0.929 . S
H467 C476 0.929 . S
C468 H462 0.930 . S
C468 C469 1.367 . S
C468 C476 1.378 . S
C469 C468 1.367 . S
C469 C477 1.433 . S
C470 H466 0.929 . S
C470 C472 1.378 . S
C470 C474 1.350 . S
C471 C474 1.463 . S
C471 C476 1.350 . S
C471 N479 1.427 . S
C472 H463 0.930 . S
C472 C470 1.378 . S
C472 C473 1.367 . S
C473 C472 1.367 . S
C473 C475 1.433 . S
C474 C470 1.350 . S
C474 C471 1.463 . S
C474 N478 1.427 . S
C475 H465 0.929 . S
C475 C473 1.433 . S
C475 N478 1.384 . S
C476 H467 0.929 . S
C476 C468 1.378 . S
C476 C471 1.350 . S
C477 H464 0.929 . S
C477 C469 1.433 . S
C477 N479 1.384 . S
N478 C474 1.427 . S
N478 C475 1.384 . S
N479 C471 1.427 . S
N479 C477 1.384 . S
H480 C486 0.930 . S
H481 C490 0.930 . S
H482 C495 0.929 . S
H483 C493 0.929 . S
H484 C488 0.929 . S
H485 C494 0.929 . S
C486 H480 0.930 . S
C486 C487 1.367 . S
C486 C494 1.378 . S
C487 C486 1.367 . S
C487 C495 1.433 . S
C488 H484 0.929 . S
C488 C490 1.378 . S
C488 C492 1.350 . S
C489 C492 1.463 . S
C489 C494 1.350 . S
C489 N497 1.427 . S
C490 H481 0.930 . S
C490 C488 1.378 . S
C490 C491 1.367 . S
C491 C490 1.367 . S
C491 C493 1.433 . S
C492 C488 1.350 . S
C492 C489 1.463 . S
C492 N496 1.427 . S
C493 H483 0.929 . S
C493 C491 1.433 . S
C493 N496 1.384 . S
C494 H485 0.929 . S
C494 C486 1.378 . S
C494 C489 1.350 . S
C495 H482 0.929 . S
C495 C487 1.433 . S
C495 N497 1.384 . S
N496 C492 1.427 . S
N496 C493 1.384 . S
N497 C489 1.427 . S
N497 C495 1.384 . S
H498 C504 0.930 . S
H499 C508 0.930 . S
H500 C513 0.929 . S
H501 C511 0.929 . S
H502 C506 0.929 . S
H503 C512 0.929 . S
C504 H498 0.930 . S
C504 C505 1.367 . S
C504 C512 1.378 . S
C505 C504 1.367 . S
C505 C513 1.433 . S
C506 H502 0.929 . S
C506 C508 1.378 . S
C506 C510 1.350 . S
C507 C510 1.463 . S
C507 C512 1.350 . S
C507 N515 1.427 . S
C508 H499 0.930 . S
C508 C506 1.378 . S
C508 C509 1.367 . S
C509 C508 1.367 . S
C509 C511 1.433 . S
C510 C506 1.350 . S
C510 C507 1.463 . S
C510 N514 1.427 . S
C511 H501 0.929 . S
C511 C509 1.433 . S
C511 N514 1.384 . S
C512 H503 0.929 . S
C512 C504 1.378 . S
C512 C507 1.350 . S
C513 H500 0.929 . S
C513 C505 1.433 . S
C513 N515 1.384 . S
N514 C510 1.427 . S
N514 C511 1.384 . S
N515 C507 1.427 . S
N515 C513 1.384 . S
H516 C522 0.930 . S
H517 C526 0.930 . S
H518 C531 0.929 . S
H519 C529 0.929 . S
H520 C524 0.929 . S
H521 C530 0.929 . S
C522 H516 0.930 . S
C522 C523 1.367 . S
C522 C530 1.378 . S
C523 C522 1.367 . S
C523 C531 1.433 . S
C524 H520 0.929 . S
C524 C526 1.378 . S
C524 C528 1.350 . S
C525 C528 1.463 . S
C525 C530 1.350 . S
C525 N533 1.427 . S
C526 H517 0.930 . S
C526 C524 1.378 . S
C526 C527 1.367 . S
C527 C526 1.367 . S
C527 C529 1.433 . S
C528 C524 1.350 . S
C528 C525 1.463 . S
C528 N532 1.427 . S
C529 H519 0.929 . S
C529 C527 1.433 . S
C529 N532 1.384 . S
C530 H521 0.929 . S
C530 C522 1.378 . S
C530 C525 1.350 . S
C531 H518 0.929 . S
C531 C523 1.433 . S
C531 N533 1.384 . S
N532 C528 1.427 . S
N532 C529 1.384 . S
N533 C525 1.427 . S
N533 C531 1.384 . S
H534 C540 0.930 . S
H535 C544 0.930 . S
H536 C549 0.929 . S
H537 C547 0.929 . S
H538 C542 0.929 . S
H539 C548 0.929 . S
C540 H534 0.930 . S
C540 C541 1.367 . S
C540 C548 1.378 . S
C541 C540 1.367 . S
C541 C549 1.433 . S
C542 H538 0.929 . S
C542 C544 1.378 . S
C542 C546 1.350 . S
C543 C546 1.463 . S
C543 C548 1.350 . S
C543 N551 1.427 . S
C544 H535 0.930 . S
C544 C542 1.378 . S
C544 C545 1.367 . S
C545 C544 1.367 . S
C545 C547 1.433 . S
C546 C542 1.350 . S
C546 C543 1.463 . S
C546 N550 1.427 . S
C547 H537 0.929 . S
C547 C545 1.433 . S
C547 N550 1.384 . S
C548 H539 0.929 . S
C548 C540 1.378 . S
C548 C543 1.350 . S
C549 H536 0.929 . S
C549 C541 1.433 . S
C549 N551 1.384 . S
N550 C546 1.427 . S
N550 C547 1.384 . S
N551 C543 1.427 . S
N551 C549 1.384 . S
H552 C558 0.930 . S
H553 C562 0.930 . S
H554 C567 0.929 . S
H555 C565 0.929 . S
H556 C560 0.929 . S
H557 C566 0.929 . S
C558 H552 0.930 . S
C558 C559 1.367 . S
C558 C566 1.378 . S
C559 C558 1.367 . S
C559 C567 1.433 . S
C560 H556 0.929 . S
C560 C562 1.378 . S
C560 C564 1.350 . S
C561 C564 1.463 . S
C561 C566 1.350 . S
C561 N569 1.427 . S
C562 H553 0.930 . S
C562 C560 1.378 . S
C562 C563 1.367 . S
C563 C562 1.367 . S
C563 C565 1.433 . S
C564 C560 1.350 . S
C564 C561 1.463 . S
C564 N568 1.427 . S
C565 H555 0.929 . S
C565 C563 1.433 . S
C565 N568 1.384 . S
C566 H557 0.929 . S
C566 C558 1.378 . S
C566 C561 1.350 . S
C567 H554 0.929 . S
C567 C559 1.433 . S
C567 N569 1.384 . S
N568 C564 1.427 . S
N568 C565 1.384 . S
N569 C561 1.427 . S
N569 C567 1.384 . S
H570 C576 0.930 . S
H571 C580 0.930 . S
H572 C585 0.929 . S
H573 C583 0.929 . S
H574 C578 0.929 . S
H575 C584 0.929 . S
C576 H570 0.930 . S
C576 C577 1.367 . S
C576 C584 1.378 . S
C577 C576 1.367 . S
C577 C585 1.433 . S
C578 H574 0.929 . S
C578 C580 1.378 . S
C578 C582 1.350 . S
C579 C582 1.463 . S
C579 C584 1.350 . S
C579 N587 1.427 . S
C580 H571 0.930 . S
C580 C578 1.378 . S
C580 C581 1.367 . S
C581 C580 1.367 . S
C581 C583 1.433 . S
C582 C578 1.350 . S
C582 C579 1.463 . S
C582 N586 1.427 . S
C583 H573 0.929 . S
C583 C581 1.433 . S
C583 N586 1.384 . S
C584 H575 0.929 . S
C584 C576 1.378 . S
C584 C579 1.350 . S
C585 H572 0.929 . S
C585 C577 1.433 . S
C585 N587 1.384 . S
N586 C582 1.427 . S
N586 C583 1.384 . S
N587 C579 1.427 . S
N587 C585 1.384 . S
H588 C594 0.930 . S
H589 C598 0.930 . S
H590 C603 0.929 . S
H591 C601 0.929 . S
H592 C596 0.929 . S
H593 C602 0.929 . S
C594 H588 0.930 . S
C594 C595 1.367 . S
C594 C602 1.378 . S
C595 C594 1.367 . S
C595 C603 1.433 . S
C596 H592 0.929 . S
C596 C598 1.378 . S
C596 C600 1.350 . S
C597 C600 1.463 . S
C597 C602 1.350 . S
C597 N605 1.427 . S
C598 H589 0.930 . S
C598 C596 1.378 . S
C598 C599 1.367 . S
C599 C598 1.367 . S
C599 C601 1.433 . S
C600 C596 1.350 . S
C600 C597 1.463 . S
C600 N604 1.427 . S
C601 H591 0.929 . S
C601 C599 1.433 . S
C601 N604 1.384 . S
C602 H593 0.929 . S
C602 C594 1.378 . S
C602 C597 1.350 . S
C603 H590 0.929 . S
C603 C595 1.433 . S
C603 N605 1.384 . S
N604 C600 1.427 . S
N604 C601 1.384 . S
N605 C597 1.427 . S
N605 C603 1.384 . S
H606 C612 0.930 . S
H607 C616 0.930 . S
H608 C621 0.929 . S
H609 C619 0.929 . S
H610 C614 0.929 . S
H611 C620 0.929 . S
C612 H606 0.930 . S
C612 C613 1.367 . S
C612 C620 1.378 . S
C613 C612 1.367 . S
C613 C621 1.433 . S
C614 H610 0.929 . S
C614 C616 1.378 . S
C614 C618 1.350 . S
C615 C618 1.463 . S
C615 C620 1.350 . S
C615 N623 1.427 . S
C616 H607 0.930 . S
C616 C614 1.378 . S
C616 C617 1.367 . S
C617 C616 1.367 . S
C617 C619 1.433 . S
C618 C614 1.350 . S
C618 C615 1.463 . S
C618 N622 1.427 . S
C619 H609 0.929 . S
C619 C617 1.433 . S
C619 N622 1.384 . S
C620 H611 0.929 . S
C620 C612 1.378 . S
C620 C615 1.350 . S
C621 H608 0.929 . S
C621 C613 1.433 . S
C621 N623 1.384 . S
N622 C618 1.427 . S
N622 C619 1.384 . S
N623 C615 1.427 . S
N623 C621 1.384 . S
H624 C630 0.930 . S
H625 C634 0.930 . S
H626 C639 0.929 . S
H627 C637 0.929 . S
H628 C632 0.929 . S
H629 C638 0.929 . S
C630 H624 0.930 . S
C630 C631 1.367 . S
C630 C638 1.378 . S
C631 C630 1.367 . S
C631 C639 1.433 . S
C632 H628 0.929 . S
C632 C634 1.378 . S
C632 C636 1.350 . S
C633 C636 1.463 . S
C633 C638 1.350 . S
C633 N641 1.427 . S
C634 H625 0.930 . S
C634 C632 1.378 . S
C634 C635 1.367 . S
C635 C634 1.367 . S
C635 C637 1.433 . S
C636 C632 1.350 . S
C636 C633 1.463 . S
C636 N640 1.427 . S
C637 H627 0.929 . S
C637 C635 1.433 . S
C637 N640 1.384 . S
C638 H629 0.929 . S
C638 C630 1.378 . S
C638 C633 1.350 . S
C639 H626 0.929 . S
C639 C631 1.433 . S
C639 N641 1.384 . S
N640 C636 1.427 . S
N640 C637 1.384 . S
N641 C633 1.427 . S
N641 C639 1.384 . S
H642 C648 0.930 . S
H643 C652 0.930 . S
H644 C657 0.929 . S
H645 C655 0.929 . S
H646 C650 0.929 . S
H647 C656 0.929 . S
C648 H642 0.930 . S
C648 C649 1.367 . S
C648 C656 1.378 . S
C649 C648 1.367 . S
C649 C657 1.433 . S
C650 H646 0.929 . S
C650 C652 1.378 . S
C650 C654 1.350 . S
C651 C654 1.463 . S
C651 C656 1.350 . S
C651 N659 1.427 . S
C652 H643 0.930 . S
C652 C650 1.378 . S
C652 C653 1.367 . S
C653 C652 1.367 . S
C653 C655 1.433 . S
C654 C650 1.350 . S
C654 C651 1.463 . S
C654 N658 1.427 . S
C655 H645 0.929 . S
C655 C653 1.433 . S
C655 N658 1.384 . S
C656 H647 0.929 . S
C656 C648 1.378 . S
C656 C651 1.350 . S
C657 H644 0.929 . S
C657 C649 1.433 . S
C657 N659 1.384 . S
N658 C654 1.427 . S
N658 C655 1.384 . S
N659 C651 1.427 . S
N659 C657 1.384 . S
H660 C666 0.930 . S
H661 C670 0.930 . S
H662 C675 0.929 . S
H663 C673 0.929 . S
H664 C668 0.929 . S
H665 C674 0.929 . S
C666 H660 0.930 . S
C666 C667 1.367 . S
C666 C674 1.378 . S
C667 C666 1.367 . S
C667 C675 1.433 . S
C668 H664 0.929 . S
C668 C670 1.378 . S
C668 C672 1.350 . S
C669 C672 1.463 . S
C669 C674 1.350 . S
C669 N677 1.427 . S
C670 H661 0.930 . S
C670 C668 1.378 . S
C670 C671 1.367 . S
C671 C670 1.367 . S
C671 C673 1.433 . S
C672 C668 1.350 . S
C672 C669 1.463 . S
C672 N676 1.427 . S
C673 H663 0.929 . S
C673 C671 1.433 . S
C673 N676 1.384 . S
C674 H665 0.929 . S
C674 C666 1.378 . S
C674 C669 1.350 . S
C675 H662 0.929 . S
C675 C667 1.433 . S
C675 N677 1.384 . S
N676 C672 1.427 . S
N676 C673 1.384 . S
N677 C669 1.427 . S
N677 C675 1.384 . S
H678 C684 0.930 . S
H679 C688 0.930 . S
H680 C693 0.929 . S
H681 C691 0.929 . S
H682 C686 0.929 . S
H683 C692 0.929 . S
C684 H678 0.930 . S
C684 C685 1.367 . S
C684 C692 1.378 . S
C685 C684 1.367 . S
C685 C693 1.433 . S
C686 H682 0.929 . S
C686 C688 1.378 . S
C686 C690 1.350 . S
C687 C690 1.463 . S
C687 C692 1.350 . S
C687 N695 1.427 . S
C688 H679 0.930 . S
C688 C686 1.378 . S
C688 C689 1.367 . S
C689 C688 1.367 . S
C689 C691 1.433 . S
C690 C686 1.350 . S
C690 C687 1.463 . S
C690 N694 1.427 . S
C691 H681 0.929 . S
C691 C689 1.433 . S
C691 N694 1.384 . S
C692 H683 0.929 . S
C692 C684 1.378 . S
C692 C687 1.350 . S
C693 H680 0.929 . S
C693 C685 1.433 . S
C693 N695 1.384 . S
N694 C690 1.427 . S
N694 C691 1.384 . S
N695 C687 1.427 . S
N695 C693 1.384 . S
H696 C702 0.930 . S
H697 C706 0.930 . S
H698 C711 0.929 . S
H699 C709 0.929 . S
H700 C704 0.929 . S
H701 C710 0.929 . S
C702 H696 0.930 . S
C702 C703 1.367 . S
C702 C710 1.378 . S
C703 C702 1.367 . S
C703 C711 1.433 . S
C704 H700 0.929 . S
C704 C706 1.378 . S
C704 C708 1.350 . S
C705 C708 1.463 . S
C705 C710 1.350 . S
C705 N713 1.427 . S
C706 H697 0.930 . S
C706 C704 1.378 . S
C706 C707 1.367 . S
C707 C706 1.367 . S
C707 C709 1.433 . S
C708 C704 1.350 . S
C708 C705 1.463 . S
C708 N712 1.427 . S
C709 H699 0.929 . S
C709 C707 1.433 . S
C709 N712 1.384 . S
C710 H701 0.929 . S
C710 C702 1.378 . S
C710 C705 1.350 . S
C711 H698 0.929 . S
C711 C703 1.433 . S
C711 N713 1.384 . S
N712 C708 1.427 . S
N712 C709 1.384 . S
N713 C705 1.427 . S
N713 C711 1.384 . S
H714 C720 0.930 . S
H715 C724 0.930 . S
H716 C729 0.929 . S
H717 C727 0.929 . S
H718 C722 0.929 . S
H719 C728 0.929 . S
C720 H714 0.930 . S
C720 C721 1.367 . S
C720 C728 1.378 . S
C721 C720 1.367 . S
C721 C729 1.433 . S
C722 H718 0.929 . S
C722 C724 1.378 . S
C722 C726 1.350 . S
C723 C726 1.463 . S
C723 C728 1.350 . S
C723 N731 1.427 . S
C724 H715 0.930 . S
C724 C722 1.378 . S
C724 C725 1.367 . S
C725 C724 1.367 . S
C725 C727 1.433 . S
C726 C722 1.350 . S
C726 C723 1.463 . S
C726 N730 1.427 . S
C727 H717 0.929 . S
C727 C725 1.433 . S
C727 N730 1.384 . S
C728 H719 0.929 . S
C728 C720 1.378 . S
C728 C723 1.350 . S
C729 H716 0.929 . S
C729 C721 1.433 . S
C729 N731 1.384 . S
N730 C726 1.427 . S
N730 C727 1.384 . S
N731 C723 1.427 . S
N731 C729 1.384 . S
H732 C738 0.930 . S
H733 C742 0.930 . S
H734 C747 0.929 . S
H735 C745 0.929 . S
H736 C740 0.929 . S
H737 C746 0.929 . S
C738 H732 0.930 . S
C738 C739 1.367 . S
C738 C746 1.378 . S
C739 C738 1.367 . S
C739 C747 1.433 . S
C740 H736 0.929 . S
C740 C742 1.378 . S
C740 C744 1.350 . S
C741 C744 1.463 . S
C741 C746 1.350 . S
C741 N749 1.427 . S
C742 H733 0.930 . S
C742 C740 1.378 . S
C742 C743 1.367 . S
C743 C742 1.367 . S
C743 C745 1.433 . S
C744 C740 1.350 . S
C744 C741 1.463 . S
C744 N748 1.427 . S
C745 H735 0.929 . S
C745 C743 1.433 . S
C745 N748 1.384 . S
C746 H737 0.929 . S
C746 C738 1.378 . S
C746 C741 1.350 . S
C747 H734 0.929 . S
C747 C739 1.433 . S
C747 N749 1.384 . S
N748 C744 1.427 . S
N748 C745 1.384 . S
N749 C741 1.427 . S
N749 C747 1.384 . S
H750 C756 0.930 . S
H751 C760 0.930 . S
H752 C765 0.929 . S
H753 C763 0.929 . S
H754 C758 0.929 . S
H755 C764 0.929 . S
C756 H750 0.930 . S
C756 C757 1.367 . S
C756 C764 1.378 . S
C757 C756 1.367 . S
C757 C765 1.433 . S
C758 H754 0.929 . S
C758 C760 1.378 . S
C758 C762 1.350 . S
C759 C762 1.463 . S
C759 C764 1.350 . S
C759 N767 1.427 . S
C760 H751 0.930 . S
C760 C758 1.378 . S
C760 C761 1.367 . S
C761 C760 1.367 . S
C761 C763 1.433 . S
C762 C758 1.350 . S
C762 C759 1.463 . S
C762 N766 1.427 . S
C763 H753 0.929 . S
C763 C761 1.433 . S
C763 N766 1.384 . S
C764 H755 0.929 . S
C764 C756 1.378 . S
C764 C759 1.350 . S
C765 H752 0.929 . S
C765 C757 1.433 . S
C765 N767 1.384 . S
N766 C762 1.427 . S
N766 C763 1.384 . S
N767 C759 1.427 . S
N767 C765 1.384 . S
H768 C774 0.930 . S
H769 C778 0.930 . S
H770 C783 0.929 . S
H771 C781 0.929 . S
H772 C776 0.929 . S
H773 C782 0.929 . S
C774 H768 0.930 . S
C774 C775 1.367 . S
C774 C782 1.378 . S
C775 C774 1.367 . S
C775 C783 1.433 . S
C776 H772 0.929 . S
C776 C778 1.378 . S
C776 C780 1.350 . S
C777 C780 1.463 . S
C777 C782 1.350 . S
C777 N785 1.427 . S
C778 H769 0.930 . S
C778 C776 1.378 . S
C778 C779 1.367 . S
C779 C778 1.367 . S
C779 C781 1.433 . S
C780 C776 1.350 . S
C780 C777 1.463 . S
C780 N784 1.427 . S
C781 H771 0.929 . S
C781 C779 1.433 . S
C781 N784 1.384 . S
C782 H773 0.929 . S
C782 C774 1.378 . S
C782 C777 1.350 . S
C783 H770 0.929 . S
C783 C775 1.433 . S
C783 N785 1.384 . S
N784 C780 1.427 . S
N784 C781 1.384 . S
N785 C777 1.427 . S
N785 C783 1.384 . S
H786 C792 0.930 . S
H787 C796 0.930 . S
H788 C801 0.929 . S
H789 C799 0.929 . S
H790 C794 0.929 . S
H791 C800 0.929 . S
C792 H786 0.930 . S
C792 C793 1.367 . S
C792 C800 1.378 . S
C793 C792 1.367 . S
C793 C801 1.433 . S
C794 H790 0.929 . S
C794 C796 1.378 . S
C794 C798 1.350 . S
C795 C798 1.463 . S
C795 C800 1.350 . S
C795 N803 1.427 . S
C796 H787 0.930 . S
C796 C794 1.378 . S
C796 C797 1.367 . S
C797 C796 1.367 . S
C797 C799 1.433 . S
C798 C794 1.350 . S
C798 C795 1.463 . S
C798 N802 1.427 . S
C799 H789 0.929 . S
C799 C797 1.433 . S
C799 N802 1.384 . S
C800 H791 0.929 . S
C800 C792 1.378 . S
C800 C795 1.350 . S
C801 H788 0.929 . S
C801 C793 1.433 . S
C801 N803 1.384 . S
N802 C798 1.427 . S
N802 C799 1.384 . S
N803 C795 1.427 . S
N803 C801 1.384 . S
H804 C810 0.930 . S
H805 C814 0.930 . S
H806 C819 0.929 . S
H807 C817 0.929 . S
H808 C812 0.929 . S
H809 C818 0.929 . S
C810 H804 0.930 . S
C810 C811 1.367 . S
C810 C818 1.378 . S
C811 C810 1.367 . S
C811 C819 1.433 . S
C812 H808 0.929 . S
C812 C814 1.378 . S
C812 C816 1.350 . S
C813 C816 1.463 . S
C813 C818 1.350 . S
C813 N821 1.427 . S
C814 H805 0.930 . S
C814 C812 1.378 . S
C814 C815 1.367 . S
C815 C814 1.367 . S
C815 C817 1.433 . S
C816 C812 1.350 . S
C816 C813 1.463 . S
C816 N820 1.427 . S
C817 H807 0.929 . S
C817 C815 1.433 . S
C817 N820 1.384 . S
C818 H809 0.929 . S
C818 C810 1.378 . S
C818 C813 1.350 . S
C819 H806 0.929 . S
C819 C811 1.433 . S
C819 N821 1.384 . S
N820 C816 1.427 . S
N820 C817 1.384 . S
N821 C813 1.427 . S
N821 C819 1.384 . S
H822 C828 0.930 . S
H823 C832 0.930 . S
H824 C837 0.929 . S
H825 C835 0.929 . S
H826 C830 0.929 . S
H827 C836 0.929 . S
C828 H822 0.930 . S
C828 C829 1.367 . S
C828 C836 1.378 . S
C829 C828 1.367 . S
C829 C837 1.433 . S
C830 H826 0.929 . S
C830 C832 1.378 . S
C830 C834 1.350 . S
C831 C834 1.463 . S
C831 C836 1.350 . S
C831 N839 1.427 . S
C832 H823 0.930 . S
C832 C830 1.378 . S
C832 C833 1.367 . S
C833 C832 1.367 . S
C833 C835 1.433 . S
C834 C830 1.350 . S
C834 C831 1.463 . S
C834 N838 1.427 . S
C835 H825 0.929 . S
C835 C833 1.433 . S
C835 N838 1.384 . S
C836 H827 0.929 . S
C836 C828 1.378 . S
C836 C831 1.350 . S
C837 H824 0.929 . S
C837 C829 1.433 . S
C837 N839 1.384 . S
N838 C834 1.427 . S
N838 C835 1.384 . S
N839 C831 1.427 . S
N839 C837 1.384 . S
H840 C846 0.930 . S
H841 C850 0.930 . S
H842 C855 0.929 . S
H843 C853 0.929 . S
H844 C848 0.929 . S
H845 C854 0.929 . S
C846 H840 0.930 . S
C846 C847 1.367 . S
C846 C854 1.378 . S
C847 C846 1.367 . S
C847 C855 1.433 . S
C848 H844 0.929 . S
C848 C850 1.378 . S
C848 C852 1.350 . S
C849 C852 1.463 . S
C849 C854 1.350 . S
C849 N857 1.427 . S
C850 H841 0.930 . S
C850 C848 1.378 . S
C850 C851 1.367 . S
C851 C850 1.367 . S
C851 C853 1.433 . S
C852 C848 1.350 . S
C852 C849 1.463 . S
C852 N856 1.427 . S
C853 H843 0.929 . S
C853 C851 1.433 . S
C853 N856 1.384 . S
C854 H845 0.929 . S
C854 C846 1.378 . S
C854 C849 1.350 . S
C855 H842 0.929 . S
C855 C847 1.433 . S
C855 N857 1.384 . S
N856 C852 1.427 . S
N856 C853 1.384 . S
N857 C849 1.427 . S
N857 C855 1.384 . S
H858 C864 0.930 . S
H859 C868 0.930 . S
H860 C873 0.929 . S
H861 C871 0.929 . S
H862 C866 0.929 . S
H863 C872 0.929 . S
C864 H858 0.930 . S
C864 C865 1.367 . S
C864 C872 1.378 . S
C865 C864 1.367 . S
C865 C873 1.433 . S
C866 H862 0.929 . S
C866 C868 1.378 . S
C866 C870 1.350 . S
C867 C870 1.463 . S
C867 C872 1.350 . S
C867 N875 1.427 . S
C868 H859 0.930 . S
C868 C866 1.378 . S
C868 C869 1.367 . S
C869 C868 1.367 . S
C869 C871 1.433 . S
C870 C866 1.350 . S
C870 C867 1.463 . S
C870 N874 1.427 . S
C871 H861 0.929 . S
C871 C869 1.433 . S
C871 N874 1.384 . S
C872 H863 0.929 . S
C872 C864 1.378 . S
C872 C867 1.350 . S
C873 H860 0.929 . S
C873 C865 1.433 . S
C873 N875 1.384 . S
N874 C870 1.427 . S
N874 C871 1.384 . S
N875 C867 1.427 . S
N875 C873 1.384 . S
H876 C882 0.930 . S
H877 C886 0.930 . S
H878 C891 0.929 . S
H879 C889 0.929 . S
H880 C884 0.929 . S
H881 C890 0.929 . S
C882 H876 0.930 . S
C882 C883 1.367 . S
C882 C890 1.378 . S
C883 C882 1.367 . S
C883 C891 1.433 . S
C884 H880 0.929 . S
C884 C886 1.378 . S
C884 C888 1.350 . S
C885 C888 1.463 . S
C885 C890 1.350 . S
C885 N893 1.427 . S
C886 H877 0.930 . S
C886 C884 1.378 . S
C886 C887 1.367 . S
C887 C886 1.367 . S
C887 C889 1.433 . S
C888 C884 1.350 . S
C888 C885 1.463 . S
C888 N892 1.427 . S
C889 H879 0.929 . S
C889 C887 1.433 . S
C889 N892 1.384 . S
C890 H881 0.929 . S
C890 C882 1.378 . S
C890 C885 1.350 . S
C891 H878 0.929 . S
C891 C883 1.433 . S
C891 N893 1.384 . S
N892 C888 1.427 . S
N892 C889 1.384 . S
N893 C885 1.427 . S
N893 C891 1.384 . S
H894 C900 0.930 . S
H895 C904 0.930 . S
H896 C909 0.929 . S
H897 C907 0.929 . S
H898 C902 0.929 . S
H899 C908 0.929 . S
C900 H894 0.930 . S
C900 C901 1.367 . S
C900 C908 1.378 . S
C901 C900 1.367 . S
C901 C909 1.433 . S
C902 H898 0.929 . S
C902 C904 1.378 . S
C902 C906 1.350 . S
C903 C906 1.463 . S
C903 C908 1.350 . S
C903 N911 1.427 . S
C904 H895 0.930 . S
C904 C902 1.378 . S
C904 C905 1.367 . S
C905 C904 1.367 . S
C905 C907 1.433 . S
C906 C902 1.350 . S
C906 C903 1.463 . S
C906 N910 1.427 . S
C907 H897 0.929 . S
C907 C905 1.433 . S
C907 N910 1.384 . S
C908 H899 0.929 . S
C908 C900 1.378 . S
C908 C903 1.350 . S
C909 H896 0.929 . S
C909 C901 1.433 . S
C909 N911 1.384 . S
N910 C906 1.427 . S
N910 C907 1.384 . S
N911 C903 1.427 . S
N911 C909 1.384 . S
H912 C918 0.930 . S
H913 C922 0.930 . S
H914 C927 0.929 . S
H915 C925 0.929 . S
H916 C920 0.929 . S
H917 C926 0.929 . S
C918 H912 0.930 . S
C918 C919 1.367 . S
C918 C926 1.378 . S
C919 C918 1.367 . S
C919 C927 1.433 . S
C920 H916 0.929 . S
C920 C922 1.378 . S
C920 C924 1.350 . S
C921 C924 1.463 . S
C921 C926 1.350 . S
C921 N929 1.427 . S
C922 H913 0.930 . S
C922 C920 1.378 . S
C922 C923 1.367 . S
C923 C922 1.367 . S
C923 C925 1.433 . S
C924 C920 1.350 . S
C924 C921 1.463 . S
C924 N928 1.427 . S
C925 H915 0.929 . S
C925 C923 1.433 . S
C925 N928 1.384 . S
C926 H917 0.929 . S
C926 C918 1.378 . S
C926 C921 1.350 . S
C927 H914 0.929 . S
C927 C919 1.433 . S
C927 N929 1.384 . S
N928 C924 1.427 . S
N928 C925 1.384 . S
N929 C921 1.427 . S
N929 C927 1.384 . S
H930 C936 0.930 . S
H931 C940 0.930 . S
H932 C945 0.929 . S
H933 C943 0.929 . S
H934 C938 0.929 . S
H935 C944 0.929 . S
C936 H930 0.930 . S
C936 C937 1.367 . S
C936 C944 1.378 . S
C937 C936 1.367 . S
C937 C945 1.433 . S
C938 H934 0.929 . S
C938 C940 1.378 . S
C938 C942 1.350 . S
C939 C942 1.463 . S
C939 C944 1.350 . S
C939 N947 1.427 . S
C940 H931 0.930 . S
C940 C938 1.378 . S
C940 C941 1.367 . S
C941 C940 1.367 . S
C941 C943 1.433 . S
C942 C938 1.350 . S
C942 C939 1.463 . S
C942 N946 1.427 . S
C943 H933 0.929 . S
C943 C941 1.433 . S
C943 N946 1.384 . S
C944 H935 0.929 . S
C944 C936 1.378 . S
C944 C939 1.350 . S
C945 H932 0.929 . S
C945 C937 1.433 . S
C945 N947 1.384 . S
N946 C942 1.427 . S
N946 C943 1.384 . S
N947 C939 1.427 . S
N947 C945 1.384 . S
H948 C954 0.930 . S
H949 C958 0.930 1_556 S
H950 C963 0.929 . S
H951 C961 0.929 . S
H952 C956 0.929 1_556 S
H953 C962 0.929 . S
C954 H948 0.930 . S
C954 C955 1.367 . S
C954 C962 1.378 . S
C955 C954 1.367 . S
C955 C963 1.433 1_554 S
C956 H952 0.929 1_554 S
C956 C958 1.378 . S
C956 C960 1.350 . S
C957 C960 1.463 . S
C957 C962 1.350 . S
C957 N965 1.427 1_554 S
C958 H949 0.930 1_554 S
C958 C956 1.378 . S
C958 C959 1.367 . S
C959 C958 1.367 . S
C959 C961 1.433 . S
C960 C956 1.350 . S
C960 C957 1.463 . S
C960 N964 1.427 . S
C961 H951 0.929 . S
C961 C959 1.433 . S
C961 N964 1.384 . S
C962 H953 0.929 . S
C962 C954 1.378 . S
C962 C957 1.350 . S
C963 H950 0.929 . S
C963 C955 1.433 1_556 S
C963 N965 1.384 . S
N964 C960 1.427 . S
N964 C961 1.384 . S
N965 C957 1.427 1_556 S
N965 C963 1.384 . S
H966 C972 0.930 . S
H967 C976 0.930 . S
H968 C981 0.929 . S
H969 C979 0.929 . S
H970 C974 0.929 . S
H971 C980 0.929 . S
C972 H966 0.930 . S
C972 C973 1.367 . S
C972 C980 1.378 . S
C973 C972 1.367 . S
C973 C981 1.433 . S
C974 H970 0.929 . S
C974 C976 1.378 . S
C974 C978 1.350 . S
C975 C978 1.463 . S
C975 C980 1.350 . S
C975 N983 1.427 . S
C976 H967 0.930 . S
C976 C974 1.378 . S
C976 C977 1.367 . S
C977 C976 1.367 . S
C977 C979 1.433 . S
C978 C974 1.350 . S
C978 C975 1.463 . S
C978 N982 1.427 . S
C979 H969 0.929 . S
C979 C977 1.433 . S
C979 N982 1.384 . S
C980 H971 0.929 . S
C980 C972 1.378 . S
C980 C975 1.350 . S
C981 H968 0.929 . S
C981 C973 1.433 . S
C981 N983 1.384 . S
N982 C978 1.427 . S
N982 C979 1.384 . S
N983 C975 1.427 . S
N983 C981 1.384 . S
H984 C990 0.930 . S
H985 C994 0.930 . S
H986 C999 0.929 . S
H987 C997 0.929 . S
H988 C992 0.929 . S
H989 C998 0.929 . S
C990 H984 0.930 . S
C990 C991 1.367 . S
C990 C998 1.378 . S
C991 C990 1.367 . S
C991 C999 1.433 . S
C992 H988 0.929 . S
C992 C994 1.378 . S
C992 C996 1.350 . S
C993 C996 1.463 . S
C993 C998 1.350 . S
C993 N1001 1.427 . S
C994 H985 0.930 . S
C994 C992 1.378 . S
C994 C995 1.367 . S
C995 C994 1.367 . S
C995 C997 1.433 . S
C996 C992 1.350 . S
C996 C993 1.463 . S
C996 N1000 1.427 . S
C997 H987 0.929 . S
C997 C995 1.433 . S
C997 N1000 1.384 . S
C998 H989 0.929 . S
C998 C990 1.378 . S
C998 C993 1.350 . S
C999 H986 0.929 . S
C999 C991 1.433 . S
C999 N1001 1.384 . S
N1000 C996 1.427 . S
N1000 C997 1.384 . S
N1001 C993 1.427 . S
N1001 C999 1.384 . S
H1002 C1008 0.930 . S
H1003 C1012 0.930 . S
H1004 C1017 0.929 . S
H1005 C1015 0.929 . S
H1006 C1010 0.929 . S
H1007 C1016 0.929 . S
C1008 H1002 0.930 . S
C1008 C1009 1.367 . S
C1008 C1016 1.378 . S
C1009 C1008 1.367 . S
C1009 C1017 1.433 . S
C1010 H1006 0.929 . S
C1010 C1012 1.378 . S
C1010 C1014 1.350 . S
C1011 C1014 1.463 . S
C1011 C1016 1.350 . S
C1011 N1019 1.427 . S
C1012 H1003 0.930 . S
C1012 C1010 1.378 . S
C1012 C1013 1.367 . S
C1013 C1012 1.367 . S
C1013 C1015 1.433 . S
C1014 C1010 1.350 . S
C1014 C1011 1.463 . S
C1014 N1018 1.427 . S
C1015 H1005 0.929 . S
C1015 C1013 1.433 . S
C1015 N1018 1.384 . S
C1016 H1007 0.929 . S
C1016 C1008 1.378 . S
C1016 C1011 1.350 . S
C1017 H1004 0.929 . S
C1017 C1009 1.433 . S
C1017 N1019 1.384 . S
N1018 C1014 1.427 . S
N1018 C1015 1.384 . S
N1019 C1011 1.427 . S
N1019 C1017 1.384 . S
H1020 C1026 0.930 . S
H1021 C1030 0.930 . S
H1022 C1035 0.929 . S
H1023 C1033 0.929 . S
H1024 C1028 0.929 . S
H1025 C1034 0.929 . S
C1026 H1020 0.930 . S
C1026 C1027 1.367 . S
C1026 C1034 1.378 . S
C1027 C1026 1.367 . S
C1027 C1035 1.433 . S
C1028 H1024 0.929 . S
C1028 C1030 1.378 . S
C1028 C1032 1.350 . S
C1029 C1032 1.463 . S
C1029 C1034 1.350 . S
C1029 N1037 1.427 . S
C1030 H1021 0.930 . S
C1030 C1028 1.378 . S
C1030 C1031 1.367 . S
C1031 C1030 1.367 . S
C1031 C1033 1.433 . S
C1032 C1028 1.350 . S
C1032 C1029 1.463 . S
C1032 N1036 1.427 . S
C1033 H1023 0.929 . S
C1033 C1031 1.433 . S
C1033 N1036 1.384 . S
C1034 H1025 0.929 . S
C1034 C1026 1.378 . S
C1034 C1029 1.350 . S
C1035 H1022 0.929 . S
C1035 C1027 1.433 . S
C1035 N1037 1.384 . S
N1036 C1032 1.427 . S
N1036 C1033 1.384 . S
N1037 C1029 1.427 . S
N1037 C1035 1.384 . S
H1038 C1044 0.930 . S
H1039 C1048 0.930 . S
H1040 C1053 0.929 . S
H1041 C1051 0.929 . S
H1042 C1046 0.929 . S
H1043 C1052 0.929 . S
C1044 H1038 0.930 . S
C1044 C1045 1.367 . S
C1044 C1052 1.378 . S
C1045 C1044 1.367 . S
C1045 C1053 1.433 . S
C1046 H1042 0.929 . S
C1046 C1048 1.378 . S
C1046 C1050 1.350 . S
C1047 C1050 1.463 . S
C1047 C1052 1.350 . S
C1047 N1055 1.427 . S
C1048 H1039 0.930 . S
C1048 C1046 1.378 . S
C1048 C1049 1.367 . S
C1049 C1048 1.367 . S
C1049 C1051 1.433 . S
C1050 C1046 1.350 . S
C1050 C1047 1.463 . S
C1050 N1054 1.427 . S
C1051 H1041 0.929 . S
C1051 C1049 1.433 . S
C1051 N1054 1.384 . S
C1052 H1043 0.929 . S
C1052 C1044 1.378 . S
C1052 C1047 1.350 . S
C1053 H1040 0.929 . S
C1053 C1045 1.433 . S
C1053 N1055 1.384 . S
N1054 C1050 1.427 . S
N1054 C1051 1.384 . S
N1055 C1047 1.427 . S
N1055 C1053 1.384 . S
H1056 C1062 0.930 . S
H1057 C1066 0.930 . S
H1058 C1071 0.929 . S
H1059 C1069 0.929 . S
H1060 C1064 0.929 . S
H1061 C1070 0.929 . S
C1062 H1056 0.930 . S
C1062 C1063 1.367 . S
C1062 C1070 1.378 . S
C1063 C1062 1.367 . S
C1063 C1071 1.433 . S
C1064 H1060 0.929 . S
C1064 C1066 1.378 . S
C1064 C1068 1.350 . S
C1065 C1068 1.463 . S
C1065 C1070 1.350 . S
C1065 N1073 1.427 . S
C1066 H1057 0.930 . S
C1066 C1064 1.378 . S
C1066 C1067 1.367 . S
C1067 C1066 1.367 . S
C1067 C1069 1.433 . S
C1068 C1064 1.350 . S
C1068 C1065 1.463 . S
C1068 N1072 1.427 . S
C1069 H1059 0.929 . S
C1069 C1067 1.433 . S
C1069 N1072 1.384 . S
C1070 H1061 0.929 . S
C1070 C1062 1.378 . S
C1070 C1065 1.350 . S
C1071 H1058 0.929 . S
C1071 C1063 1.433 . S
C1071 N1073 1.384 . S
N1072 C1068 1.427 . S
N1072 C1069 1.384 . S
N1073 C1065 1.427 . S
N1073 C1071 1.384 . S
H1074 C1080 0.930 1_554 S
H1075 C1084 0.930 . S
H1076 C1089 0.929 . S
H1077 C1087 0.929 . S
H1078 C1082 0.929 . S
H1079 C1088 0.888 1_554 S
C1080 H1074 0.930 1_556 S
C1080 C1081 1.367 . S
C1080 C1088 1.386 . S
C1081 C1080 1.367 . S
C1081 C1089 1.433 . S
C1082 H1078 0.929 . S
C1082 C1084 1.378 . S
C1082 C1086 1.350 . S
C1083 C1086 1.463 . S
C1083 C1088 1.385 . S
C1083 N1091 1.427 . S
C1084 H1075 0.930 . S
C1084 C1082 1.378 . S
C1084 C1085 1.367 . S
C1085 C1084 1.367 . S
C1085 C1087 1.433 1_556 S
C1086 C1082 1.350 . S
C1086 C1083 1.463 . S
C1086 N1090 1.427 1_556 S
C1087 H1077 0.929 . S
C1087 C1085 1.433 1_554 S
C1087 N1090 1.384 . S
C1088 H1079 0.888 1_556 S
C1088 C1080 1.386 . S
C1088 C1083 1.385 . S
C1089 H1076 0.929 . S
C1089 C1081 1.433 . S
C1089 N1091 1.384 . S
N1090 C1086 1.427 1_554 S
N1090 C1087 1.384 . S
N1091 C1083 1.427 . S
N1091 C1089 1.384 . S
H1092 C1098 0.930 . S
H1093 C1102 0.930 . S
H1094 C1107 0.929 . S
H1095 C1105 0.929 . S
H1096 C1100 0.929 . S
H1097 C1106 0.929 . S
C1098 H1092 0.930 . S
C1098 C1099 1.367 . S
C1098 C1106 1.378 . S
C1099 C1098 1.367 . S
C1099 C1107 1.433 . S
C1100 H1096 0.929 . S
C1100 C1102 1.378 . S
C1100 C1104 1.350 . S
C1101 C1104 1.463 . S
C1101 C1106 1.350 . S
C1101 N1109 1.427 . S
C1102 H1093 0.930 . S
C1102 C1100 1.378 . S
C1102 C1103 1.367 . S
C1103 C1102 1.367 . S
C1103 C1105 1.433 . S
C1104 C1100 1.350 . S
C1104 C1101 1.463 . S
C1104 N1108 1.427 . S
C1105 H1095 0.929 . S
C1105 C1103 1.433 . S
C1105 N1108 1.384 . S
C1106 H1097 0.929 . S
C1106 C1098 1.378 . S
C1106 C1101 1.350 . S
C1107 H1094 0.929 . S
C1107 C1099 1.433 . S
C1107 N1109 1.384 . S
N1108 C1104 1.427 . S
N1108 C1105 1.384 . S
N1109 C1101 1.427 . S
N1109 C1107 1.384 . S
H1110 C1116 0.930 . S
H1111 C1120 0.930 . S
H1112 C1125 0.929 . S
H1113 C1123 0.929 . S
H1114 C1118 0.929 . S
H1115 C1124 0.929 . S
C1116 H1110 0.930 . S
C1116 C1117 1.367 . S
C1116 C1124 1.378 . S
C1117 C1116 1.367 . S
C1117 C1125 1.433 . S
C1118 H1114 0.929 . S
C1118 C1120 1.378 . S
C1118 C1122 1.350 . S
C1119 C1122 1.463 . S
C1119 C1124 1.350 . S
C1119 N1127 1.427 . S
C1120 H1111 0.930 . S
C1120 C1118 1.378 . S
C1120 C1121 1.367 . S
C1121 C1120 1.367 . S
C1121 C1123 1.433 . S
C1122 C1118 1.350 . S
C1122 C1119 1.463 . S
C1122 N1126 1.427 . S
C1123 H1113 0.929 . S
C1123 C1121 1.433 . S
C1123 N1126 1.384 . S
C1124 H1115 0.929 . S
C1124 C1116 1.378 . S
C1124 C1119 1.350 . S
C1125 H1112 0.929 . S
C1125 C1117 1.433 . S
C1125 N1127 1.384 . S
N1126 C1122 1.427 . S
N1126 C1123 1.384 . S
N1127 C1119 1.427 . S
N1127 C1125 1.384 . S
H1128 C1134 0.930 . S
H1129 C1138 0.930 . S
H1130 C1143 0.929 . S
H1131 C1141 0.929 . S
H1132 C1136 0.929 . S
H1133 C1142 0.929 . S
C1134 H1128 0.930 . S
C1134 C1135 1.367 . S
C1134 C1142 1.378 . S
C1135 C1134 1.367 . S
C1135 C1143 1.433 . S
C1136 H1132 0.929 . S
C1136 C1138 1.378 . S
C1136 C1140 1.350 . S
C1137 C1140 1.463 . S
C1137 C1142 1.350 . S
C1137 N1145 1.427 . S
C1138 H1129 0.930 . S
C1138 C1136 1.378 . S
C1138 C1139 1.367 . S
C1139 C1138 1.367 . S
C1139 C1141 1.433 . S
C1140 C1136 1.350 . S
C1140 C1137 1.463 . S
C1140 N1144 1.427 . S
C1141 H1131 0.929 . S
C1141 C1139 1.433 . S
C1141 N1144 1.384 . S
C1142 H1133 0.929 . S
C1142 C1134 1.378 . S
C1142 C1137 1.350 . S
C1143 H1130 0.929 . S
C1143 C1135 1.433 . S
C1143 N1145 1.384 . S
N1144 C1140 1.427 . S
N1144 C1141 1.384 . S
N1145 C1137 1.427 . S
N1145 C1143 1.384 . S
H1146 C1152 0.930 . S
H1147 C1156 0.930 . S
H1148 C1161 0.929 . S
H1149 C1159 0.929 . S
H1150 C1154 0.929 . S
H1151 C1160 0.929 . S
C1152 H1146 0.930 . S
C1152 C1153 1.367 . S
C1152 C1160 1.378 . S
C1153 C1152 1.367 . S
C1153 C1161 1.433 . S
C1154 H1150 0.929 . S
C1154 C1156 1.378 . S
C1154 C1158 1.350 . S
C1155 C1158 1.463 . S
C1155 C1160 1.350 . S
C1155 N1163 1.427 . S
C1156 H1147 0.930 . S
C1156 C1154 1.378 . S
C1156 C1157 1.367 . S
C1157 C1156 1.367 . S
C1157 C1159 1.433 . S
C1158 C1154 1.350 . S
C1158 C1155 1.463 . S
C1158 N1162 1.427 . S
C1159 H1149 0.929 . S
C1159 C1157 1.433 . S
C1159 N1162 1.384 . S
C1160 H1151 0.929 . S
C1160 C1152 1.378 . S
C1160 C1155 1.350 . S
C1161 H1148 0.929 . S
C1161 C1153 1.433 . S
C1161 N1163 1.384 . S
N1162 C1158 1.427 . S
N1162 C1159 1.384 . S
N1163 C1155 1.427 . S
N1163 C1161 1.384 . S
C415 C28 1.834 . S
C419 C300 1.833 . S
C433 C40 1.832 . S
C437 C312 1.834 . S
C451 C368 1.834 . S
C455 C96 1.833 . S
C469 C108 1.833 . S
C473 C380 1.835 . S
C487 C164 1.835 . S
C491 C232 1.833 . S
C505 C176 1.833 . S
C509 C244 1.834 . S
C523 C171 1.298 . S
C527 C6 1.336 . S
C541 C62 1.338 . S
C545 C3 1.311 . S
C559 C74 1.338 . S
C563 C35 1.310 . S
C577 C71 1.297 . S
C581 C130 1.336 . S
C595 C103 1.309 . S
C599 C142 1.339 . S
C613 C139 1.311 . S
C617 C198 1.339 . S
C631 C210 1.339 . S
C635 C239 1.307 . S
C649 C275 1.306 . S
C653 C266 1.337 . S
C667 C307 1.297 . S
C671 C278 1.335 . S
C685 C343 1.297 . S
C689 C334 1.336 . S
C703 C375 1.297 . S
C707 C346 1.336 . S
C721 C402 1.338 . S
C725 C207 1.303 . S
C739 C17 1.553 . S
C743 C221 1.557 . S
C757 C51 1.554 . S
C761 C255 1.557 . S
C775 C289 1.557 . S
C779 C85 1.554 . S
C793 C323 1.555 . S
C797 C119 1.552 . S
C811 C153 1.552 . S
C815 C357 1.557 . S
C829 C187 1.557 . S
C833 C391 1.553 . S
C847 C273 2.899 1_545 S
C851 C1 2.901 . S
C865 C309 2.899 . S
C869 C37 2.902 1_455 S
C883 C341 2.906 1_655 S
C887 C69 2.905 1_545 S
C901 C105 2.899 . S
C905 C377 2.903 1_565 S
C919 C205 2.902 . S
C923 C137 2.905 1_655 S
C937 C241 2.899 1_455 S
C941 C173 2.901 1_565 S
C955 C260 0.517 . S
C959 C22 0.654 . S
C973 C287 0.541 . S
C977 C49 0.666 . S
C991 C328 0.533 . S
C995 C90 0.652 . S
C1009 C355 0.524 . S
C1013 C117 0.670 . S
C1027 C396 0.528 . S
C1031 C158 0.677 . S
C1045 C219 0.515 . S
C1049 C185 0.647 . S
C1063 C226 0.660 . S
C1067 C192 0.519 . S
C1081 C253 0.679 . S
C1085 C15 0.529 . S
C1099 C56 0.548 . S
C1103 C294 0.692 . S
C1117 C83 0.546 . S
C1121 C321 0.694 . S
C1135 C362 0.638 . S
C1139 C124 0.518 . S
C1153 C151 0.530 . S
C1157 C389 0.649 . S
