# Generated by pormake.
# Topology wjc, (7)-cn, num edge types: 1
# Building blocks:
#     Node 0, Type 0, BuildingBlock: NUHQUE_clean_sbu_2, # of connection points: 7
#     Node 1, Type 0, BuildingBlock: NUHQUE_clean_sbu_2, # of connection points: 7
#     Node 2, Type 0, BuildingBlock: NUHQUE_clean_sbu_2, # of connection points: 7
#     Node 3, Type 0, BuildingBlock: NUHQUE_clean_sbu_2, # of connection points: 7
#     Node 4, Type 0, BuildingBlock: NUHQUE_clean_sbu_2, # of connection points: 7
#     Node 5, Type 0, BuildingBlock: NUHQUE_clean_sbu_2, # of connection points: 7
#     Node 6, Type 0, BuildingBlock: NUHQUE_clean_sbu_2, # of connection points: 7
#     Node 7, Type 0, BuildingBlock: NUHQUE_clean_sbu_2, # of connection points: 7
#     Node 8, Type 0, BuildingBlock: NUHQUE_clean_sbu_2, # of connection points: 7
#     Node 9, Type 0, BuildingBlock: NUHQUE_clean_sbu_2, # of connection points: 7
#     Node 10, Type 0, BuildingBlock: NUHQUE_clean_sbu_2, # of connection points: 7
#     Node 11, Type 0, BuildingBlock: NUHQUE_clean_sbu_2, # of connection points: 7
#     Node 12, Type 0, BuildingBlock: NUHQUE_clean_sbu_2, # of connection points: 7
#     Node 13, Type 0, BuildingBlock: NUHQUE_clean_sbu_2, # of connection points: 7
#     Node 14, Type 0, BuildingBlock: NUHQUE_clean_sbu_2, # of connection points: 7
#     Node 15, Type 0, BuildingBlock: NUHQUE_clean_sbu_2, # of connection points: 7
#     Node 16, Type 0, BuildingBlock: NUHQUE_clean_sbu_2, # of connection points: 7
#     Node 17, Type 0, BuildingBlock: NUHQUE_clean_sbu_2, # of connection points: 7
#     Node 18, Type 0, BuildingBlock: NUHQUE_clean_sbu_2, # of connection points: 7
#     Node 19, Type 0, BuildingBlock: NUHQUE_clean_sbu_2, # of connection points: 7
#     Node 20, Type 0, BuildingBlock: NUHQUE_clean_sbu_2, # of connection points: 7
#     Node 21, Type 0, BuildingBlock: NUHQUE_clean_sbu_2, # of connection points: 7
#     Node 22, Type 0, BuildingBlock: NUHQUE_clean_sbu_2, # of connection points: 7
#     Node 23, Type 0, BuildingBlock: NUHQUE_clean_sbu_2, # of connection points: 7
#     Edge 24, Type (0, 0), BuildingBlock: MIFKUJ_clean_linker_0, # of connection points: 2
#     Edge 25, Type (0, 0), BuildingBlock: MIFKUJ_clean_linker_0, # of connection points: 2
#     Edge 26, Type (0, 0), BuildingBlock: MIFKUJ_clean_linker_0, # of connection points: 2
#     Edge 27, Type (0, 0), BuildingBlock: MIFKUJ_clean_linker_0, # of connection points: 2
#     Edge 28, Type (0, 0), BuildingBlock: MIFKUJ_clean_linker_0, # of connection points: 2
#     Edge 29, Type (0, 0), BuildingBlock: MIFKUJ_clean_linker_0, # of connection points: 2
#     Edge 30, Type (0, 0), BuildingBlock: MIFKUJ_clean_linker_0, # of connection points: 2
#     Edge 31, Type (0, 0), BuildingBlock: MIFKUJ_clean_linker_0, # of connection points: 2
#     Edge 32, Type (0, 0), BuildingBlock: MIFKUJ_clean_linker_0, # of connection points: 2
#     Edge 33, Type (0, 0), BuildingBlock: MIFKUJ_clean_linker_0, # of connection points: 2
#     Edge 34, Type (0, 0), BuildingBlock: MIFKUJ_clean_linker_0, # of connection points: 2
#     Edge 35, Type (0, 0), BuildingBlock: MIFKUJ_clean_linker_0, # of connection points: 2
#     Edge 36, Type (0, 0), BuildingBlock: MIFKUJ_clean_linker_0, # of connection points: 2
#     Edge 37, Type (0, 0), BuildingBlock: MIFKUJ_clean_linker_0, # of connection points: 2
#     Edge 38, Type (0, 0), BuildingBlock: MIFKUJ_clean_linker_0, # of connection points: 2
#     Edge 39, Type (0, 0), BuildingBlock: MIFKUJ_clean_linker_0, # of connection points: 2
#     Edge 40, Type (0, 0), BuildingBlock: MIFKUJ_clean_linker_0, # of connection points: 2
#     Edge 41, Type (0, 0), BuildingBlock: MIFKUJ_clean_linker_0, # of connection points: 2
#     Edge 42, Type (0, 0), BuildingBlock: MIFKUJ_clean_linker_0, # of connection points: 2
#     Edge 43, Type (0, 0), BuildingBlock: MIFKUJ_clean_linker_0, # of connection points: 2
#     Edge 44, Type (0, 0), BuildingBlock: MIFKUJ_clean_linker_0, # of connection points: 2
#     Edge 45, Type (0, 0), BuildingBlock: MIFKUJ_clean_linker_0, # of connection points: 2
#     Edge 46, Type (0, 0), BuildingBlock: MIFKUJ_clean_linker_0, # of connection points: 2
#     Edge 47, Type (0, 0), BuildingBlock: MIFKUJ_clean_linker_0, # of connection points: 2
#     Edge 48, Type (0, 0), BuildingBlock: MIFKUJ_clean_linker_0, # of connection points: 2
#     Edge 49, Type (0, 0), BuildingBlock: MIFKUJ_clean_linker_0, # of connection points: 2
#     Edge 50, Type (0, 0), BuildingBlock: MIFKUJ_clean_linker_0, # of connection points: 2
#     Edge 51, Type (0, 0), BuildingBlock: MIFKUJ_clean_linker_0, # of connection points: 2
#     Edge 52, Type (0, 0), BuildingBlock: MIFKUJ_clean_linker_0, # of connection points: 2
#     Edge 53, Type (0, 0), BuildingBlock: MIFKUJ_clean_linker_0, # of connection points: 2
#     Edge 54, Type (0, 0), BuildingBlock: MIFKUJ_clean_linker_0, # of connection points: 2
#     Edge 55, Type (0, 0), BuildingBlock: MIFKUJ_clean_linker_0, # of connection points: 2
#     Edge 56, Type (0, 0), BuildingBlock: MIFKUJ_clean_linker_0, # of connection points: 2
#     Edge 57, Type (0, 0), BuildingBlock: MIFKUJ_clean_linker_0, # of connection points: 2
#     Edge 58, Type (0, 0), BuildingBlock: MIFKUJ_clean_linker_0, # of connection points: 2
#     Edge 59, Type (0, 0), BuildingBlock: MIFKUJ_clean_linker_0, # of connection points: 2
#     Edge 60, Type (0, 0), BuildingBlock: MIFKUJ_clean_linker_0, # of connection points: 2
#     Edge 61, Type (0, 0), BuildingBlock: MIFKUJ_clean_linker_0, # of connection points: 2
#     Edge 62, Type (0, 0), BuildingBlock: MIFKUJ_clean_linker_0, # of connection points: 2
#     Edge 63, Type (0, 0), BuildingBlock: MIFKUJ_clean_linker_0, # of connection points: 2
#     Edge 64, Type (0, 0), BuildingBlock: MIFKUJ_clean_linker_0, # of connection points: 2
#     Edge 65, Type (0, 0), BuildingBlock: MIFKUJ_clean_linker_0, # of connection points: 2
#     Edge 66, Type (0, 0), BuildingBlock: MIFKUJ_clean_linker_0, # of connection points: 2
#     Edge 67, Type (0, 0), BuildingBlock: MIFKUJ_clean_linker_0, # of connection points: 2
#     Edge 68, Type (0, 0), BuildingBlock: MIFKUJ_clean_linker_0, # of connection points: 2
#     Edge 69, Type (0, 0), BuildingBlock: MIFKUJ_clean_linker_0, # of connection points: 2
#     Edge 70, Type (0, 0), BuildingBlock: MIFKUJ_clean_linker_0, # of connection points: 2
#     Edge 71, Type (0, 0), BuildingBlock: MIFKUJ_clean_linker_0, # of connection points: 2
#     Edge 72, Type (0, 0), BuildingBlock: MIFKUJ_clean_linker_0, # of connection points: 2
#     Edge 73, Type (0, 0), BuildingBlock: MIFKUJ_clean_linker_0, # of connection points: 2
#     Edge 74, Type (0, 0), BuildingBlock: MIFKUJ_clean_linker_0, # of connection points: 2
#     Edge 75, Type (0, 0), BuildingBlock: MIFKUJ_clean_linker_0, # of connection points: 2
#     Edge 76, Type (0, 0), BuildingBlock: MIFKUJ_clean_linker_0, # of connection points: 2
#     Edge 77, Type (0, 0), BuildingBlock: MIFKUJ_clean_linker_0, # of connection points: 2
#     Edge 78, Type (0, 0), BuildingBlock: MIFKUJ_clean_linker_0, # of connection points: 2
#     Edge 79, Type (0, 0), BuildingBlock: MIFKUJ_clean_linker_0, # of connection points: 2
#     Edge 80, Type (0, 0), BuildingBlock: MIFKUJ_clean_linker_0, # of connection points: 2
#     Edge 81, Type (0, 0), BuildingBlock: MIFKUJ_clean_linker_0, # of connection points: 2
#     Edge 82, Type (0, 0), BuildingBlock: MIFKUJ_clean_linker_0, # of connection points: 2
#     Edge 83, Type (0, 0), BuildingBlock: MIFKUJ_clean_linker_0, # of connection points: 2
#     Edge 84, Type (0, 0), BuildingBlock: MIFKUJ_clean_linker_0, # of connection points: 2
#     Edge 85, Type (0, 0), BuildingBlock: MIFKUJ_clean_linker_0, # of connection points: 2
#     Edge 86, Type (0, 0), BuildingBlock: MIFKUJ_clean_linker_0, # of connection points: 2
#     Edge 87, Type (0, 0), BuildingBlock: MIFKUJ_clean_linker_0, # of connection points: 2
#     Edge 88, Type (0, 0), BuildingBlock: MIFKUJ_clean_linker_0, # of connection points: 2
#     Edge 89, Type (0, 0), BuildingBlock: MIFKUJ_clean_linker_0, # of connection points: 2
#     Edge 90, Type (0, 0), BuildingBlock: MIFKUJ_clean_linker_0, # of connection points: 2
#     Edge 91, Type (0, 0), BuildingBlock: MIFKUJ_clean_linker_0, # of connection points: 2
#     Edge 92, Type (0, 0), BuildingBlock: MIFKUJ_clean_linker_0, # of connection points: 2
#     Edge 93, Type (0, 0), BuildingBlock: MIFKUJ_clean_linker_0, # of connection points: 2
#     Edge 94, Type (0, 0), BuildingBlock: MIFKUJ_clean_linker_0, # of connection points: 2
#     Edge 95, Type (0, 0), BuildingBlock: MIFKUJ_clean_linker_0, # of connection points: 2
#     Edge 96, Type (0, 0), BuildingBlock: MIFKUJ_clean_linker_0, # of connection points: 2
#     Edge 97, Type (0, 0), BuildingBlock: MIFKUJ_clean_linker_0, # of connection points: 2
#     Edge 98, Type (0, 0), BuildingBlock: MIFKUJ_clean_linker_0, # of connection points: 2
#     Edge 99, Type (0, 0), BuildingBlock: MIFKUJ_clean_linker_0, # of connection points: 2
#     Edge 100, Type (0, 0), BuildingBlock: MIFKUJ_clean_linker_0, # of connection points: 2
#     Edge 101, Type (0, 0), BuildingBlock: MIFKUJ_clean_linker_0, # of connection points: 2
#     Edge 102, Type (0, 0), BuildingBlock: MIFKUJ_clean_linker_0, # of connection points: 2
#     Edge 103, Type (0, 0), BuildingBlock: MIFKUJ_clean_linker_0, # of connection points: 2
#     Edge 104, Type (0, 0), BuildingBlock: MIFKUJ_clean_linker_0, # of connection points: 2
#     Edge 105, Type (0, 0), BuildingBlock: MIFKUJ_clean_linker_0, # of connection points: 2
#     Edge 106, Type (0, 0), BuildingBlock: MIFKUJ_clean_linker_0, # of connection points: 2
#     Edge 107, Type (0, 0), BuildingBlock: MIFKUJ_clean_linker_0, # of connection points: 2
# Relax obj value: 0.273
# Max RMSD: 0.235
# Mean RMSD: 0.235
data_MOF--net-wjc--node1-NUHQUE_clean_sbu_2--edge1-MIFKUJ_clean_linker_0
_symmetry_space_group_name_H-M    P1
_symmetry_Int_Tables_number       1
_symmetry_cell_setting            triclinic
loop_
_symmetry_equiv_pos_as_xyz
'x, y, z'
_cell_length_a     62.754981
_cell_length_b     62.740341
_cell_length_c     71.75078
_cell_angle_alpha  90.027481
_cell_angle_beta   89.99689
_cell_angle_gamma 120.02171
loop_
_atom_site_label
_atom_site_type_symbol
_atom_site_fract_x
_atom_site_fract_y
_atom_site_fract_z
_atom_type_partial_charge
O0 O 0.44741 0.22046 0.11003 0.0
Tb1 Tb 0.4136 0.18817 0.11858 0.0
Eu2 Eu 0.42916 0.12564 0.12706 0.0
C3 C 0.46781 0.22743 0.11943 0.0
O4 O 0.46786 0.21358 0.13312 0.0
C5 C 0.41378 0.15388 0.1511 0.0
O6 O 0.40247 0.08643 0.11826 0.0
C7 C 0.47402 0.1345 0.13205 0.0
C8 C 0.37875 0.07652 0.12167 0.0
O9 O 0.37074 0.0903 0.12922 0.0
C10 C 0.40958 0.14575 0.09331 0.0
C11 C 0.4961 0.13733 0.12219 0.0
C12 C 0.51767 0.16067 0.12124 0.0
C13 C 0.53952 0.16323 0.11363 0.0
C14 C 0.5397 0.14217 0.10731 0.0
C15 C 0.51878 0.11878 0.10878 0.0
C16 C 0.49687 0.11649 0.1158 0.0
O17 O 0.42101 0.16372 0.13462 0.0
O18 O 0.41494 0.13387 0.15345 0.0
O19 O 0.39786 0.20098 0.13996 0.0
O20 O 0.38193 0.19285 0.11289 0.0
C21 C 0.38093 0.20087 0.12944 0.0
O22 O 0.42915 0.14908 0.10267 0.0
O23 O 0.40074 0.16074 0.09638 0.0
O24 O 0.45453 0.1124 0.13311 0.0
O25 O 0.46844 0.15186 0.12971 0.0
H26 H 0.51767 0.17672 0.12686 0.0
H27 H 0.55672 0.14376 0.1022 0.0
H28 H 0.48092 0.09829 0.11732 0.0
O29 O 0.25709 0.47621 0.12733 0.0
Tb30 Tb 0.25494 0.44104 0.12318 0.0
Eu31 Eu 0.29166 0.41889 0.13448 0.0
C32 C 0.27444 0.49714 0.12044 0.0
O33 O 0.29203 0.49761 0.11023 0.0
C34 C 0.25445 0.41969 0.16205 0.0
O35 O 0.30436 0.39143 0.139 0.0
C36 C 0.32548 0.46428 0.14084 0.0
C37 C 0.29223 0.3697 0.13096 0.0
O38 O 0.27342 0.3649 0.12018 0.0
C39 C 0.2832 0.4287 0.09311 0.0
C40 C 0.34699 0.48511 0.13173 0.0
C41 C 0.34867 0.50837 0.13094 0.0
C42 C 0.36951 0.52867 0.12317 0.0
C43 C 0.3889 0.52559 0.11664 0.0
C44 C 0.38777 0.50269 0.1175 0.0
C45 C 0.36648 0.4824 0.12478 0.0
O46 O 0.25977 0.44007 0.15318 0.0
O47 O 0.26056 0.40437 0.15481 0.0
O48 O 0.22305 0.40359 0.1231 0.0
O49 O 0.21997 0.43284 0.11085 0.0
C50 C 0.20825 0.40946 0.11471 0.0
O51 O 0.28358 0.41216 0.10405 0.0
O52 O 0.27947 0.44609 0.09988 0.0
O53 O 0.32749 0.44516 0.14579 0.0
O54 O 0.30373 0.45815 0.13407 0.0
H55 H 0.3339 0.51069 0.13651 0.0
H56 H 0.40561 0.54158 0.11181 0.0
H57 H 0.36528 0.46457 0.12533 0.0
O58 O 0.79979 0.25625 0.11503 0.0
Tb59 Tb 0.82887 0.24695 0.11504 0.0
Eu60 Eu 0.8923 0.28186 0.1233 0.0
C61 C 0.78637 0.25312 0.12997 0.0
O62 O 0.79152 0.24553 0.14548 0.0
C63 C 0.85378 0.25242 0.15292 0.0
O64 O 0.9322 0.29206 0.12423 0.0
C65 C 0.88676 0.31985 0.12818 0.0
C66 C 0.94809 0.30902 0.11288 0.0
O67 O 0.94029 0.31987 0.10131 0.0
C68 C 0.86973 0.26915 0.0829 0.0
C69 C 0.89079 0.34315 0.11986 0.0
C70 C 0.87013 0.34575 0.11641 0.0
C71 C 0.87299 0.36829 0.11037 0.0
C72 C 0.89672 0.38825 0.10753 0.0
C73 C 0.91749 0.38629 0.1115 0.0
C74 C 0.91459 0.36369 0.11755 0.0
O75 O 0.84055 0.2596 0.14347 0.0
O76 O 0.87321 0.25343 0.14531 0.0
O77 O 0.82857 0.21211 0.11977 0.0
O78 O 0.79699 0.21121 0.10824 0.0
C79 C 0.80616 0.19778 0.11384 0.0
O80 O 0.887 0.26984 0.09362 0.0
O81 O 0.84841 0.26528 0.08944 0.0
O82 O 0.90594 0.31878 0.13432 0.0
O83 O 0.86995 0.29929 0.1204 0.0
H84 H 0.85179 0.33054 0.11922 0.0
H85 H 0.89911 0.40608 0.10379 0.0
H86 H 0.93072 0.3625 0.12117 0.0
O87 O 0.53966 0.79157 0.13119 0.0
Tb88 Tb 0.57888 0.81771 0.13244 0.0
Eu89 Eu 0.60609 0.88095 0.13417 0.0
C90 C 0.52727 0.77868 0.1458 0.0
O91 O 0.53818 0.78368 0.16214 0.0
C92 C 0.6043 0.84929 0.16714 0.0
O93 O 0.63041 0.92198 0.12956 0.0
C94 C 0.56061 0.86934 0.13981 0.0
C95 C 0.64848 0.93569 0.1411 0.0
O96 O 0.65213 0.92522 0.15567 0.0
C97 C 0.59598 0.8519 0.09615 0.0
C98 C 0.54084 0.87207 0.1311 0.0
C99 C 0.51654 0.85227 0.1317 0.0
C100 C 0.49713 0.85471 0.1243 0.0
C101 C 0.50235 0.87731 0.11644 0.0
C102 C 0.52653 0.89734 0.1158 0.0
C103 C 0.54577 0.89443 0.12294 0.0
O104 O 0.5826 0.83387 0.16004 0.0
O105 O 0.62061 0.86769 0.15712 0.0
O106 O 0.57768 0.7824 0.13361 0.0
O107 O 0.61243 0.81492 0.13064 0.0
C108 C 0.60119 0.79097 0.13203 0.0
O109 O 0.61214 0.87149 0.10534 0.0
O110 O 0.57902 0.83188 0.10459 0.0
O111 O 0.57956 0.88934 0.14657 0.0
O112 O 0.56682 0.85475 0.13131 0.0
H113 H 0.51273 0.83505 0.13808 0.0
H114 H 0.48726 0.8797 0.11175 0.0
H115 H 0.56452 0.90969 0.12244 0.0
O116 O 0.7817 0.54198 0.12788 0.0
Tb117 Tb 0.78339 0.57712 0.13212 0.0
Eu118 Eu 0.71562 0.58904 0.1275 0.0
C119 C 0.78831 0.532 0.14114 0.0
O120 O 0.79534 0.54319 0.15732 0.0
C121 C 0.74798 0.5862 0.15779 0.0
O122 O 0.69829 0.61298 0.12507 0.0
C123 C 0.68681 0.54305 0.11925 0.0
C124 C 0.71124 0.63659 0.12905 0.0
O125 O 0.73446 0.64596 0.13377 0.0
C126 C 0.7586 0.59192 0.10196 0.0
C127 C 0.66166 0.52396 0.11447 0.0
C128 C 0.65699 0.49983 0.11157 0.0
C129 C 0.63317 0.4809 0.10738 0.0
C130 C 0.61398 0.48612 0.10647 0.0
C131 C 0.6182 0.50993 0.10988 0.0
C132 C 0.64225 0.52906 0.11354 0.0
O133 O 0.75007 0.57457 0.14337 0.0
O134 O 0.73163 0.59335 0.15639 0.0
O135 O 0.81289 0.59392 0.15286 0.0
O136 O 0.81814 0.61068 0.12625 0.0
C137 C 0.82838 0.6119 0.1423 0.0
O138 O 0.75391 0.60234 0.11609 0.0
O139 O 0.77383 0.58336 0.10435 0.0
O140 O 0.69057 0.55155 0.13641 0.0
O141 O 0.69916 0.56005 0.10663 0.0
H142 H 0.67184 0.49577 0.11264 0.0
H143 H 0.59542 0.47133 0.10363 0.0
H144 H 0.64571 0.54752 0.11629 0.0
O145 O 0.23353 0.7548 0.12436 0.0
Tb146 Tb 0.20448 0.76419 0.12511 0.0
Eu147 Eu 0.14234 0.72612 0.13459 0.0
C148 C 0.24254 0.75017 0.1394 0.0
O149 O 0.23241 0.74899 0.15566 0.0
C150 C 0.17941 0.76494 0.16177 0.0
O151 O 0.10116 0.70914 0.1373 0.0
C152 C 0.15509 0.69368 0.14271 0.0
C153 C 0.08945 0.71954 0.12988 0.0
O154 O 0.10196 0.73991 0.12023 0.0
C155 C 0.16352 0.73711 0.09354 0.0
C156 C 0.15129 0.66985 0.13583 0.0
C157 C 0.17127 0.6656 0.1359 0.0
C158 C 0.16791 0.64255 0.13069 0.0
C159 C 0.14463 0.62409 0.12472 0.0
C160 C 0.12452 0.628 0.12454 0.0
C161 C 0.12784 0.65089 0.13022 0.0
O162 O 0.19453 0.75842 0.15452 0.0
O163 O 0.15858 0.75881 0.15343 0.0
O164 O 0.2373 0.7996 0.11951 0.0
O165 O 0.20283 0.79815 0.12097 0.0
C166 C 0.22644 0.81256 0.11849 0.0
O167 O 0.14517 0.7343 0.1041 0.0
O168 O 0.18525 0.7427 0.10039 0.0
O169 O 0.13595 0.69374 0.15007 0.0
O170 O 0.16868 0.71309 0.13236 0.0
H171 H 0.18916 0.67988 0.14072 0.0
H172 H 0.14194 0.60621 0.12076 0.0
H173 H 0.11221 0.6538 0.13039 0.0
O174 O 0.78891 0.53362 0.36916 0.0
Tb175 Tb 0.81734 0.57205 0.37224 0.0
Eu176 Eu 0.88149 0.59845 0.36731 0.0
C177 C 0.77665 0.52535 0.35345 0.0
O178 O 0.78323 0.54007 0.33895 0.0
C179 C 0.84703 0.60025 0.33731 0.0
O180 O 0.92252 0.62323 0.37103 0.0
C181 C 0.87138 0.55403 0.3592 0.0
C182 C 0.93332 0.64709 0.36801 0.0
O183 O 0.9199 0.65662 0.36252 0.0
C184 C 0.85407 0.58372 0.4062 0.0
C185 C 0.87304 0.53338 0.36752 0.0
C186 C 0.85162 0.51017 0.36862 0.0
C187 C 0.85253 0.49002 0.37611 0.0
C188 C 0.87506 0.4931 0.38234 0.0
C189 C 0.8968 0.51594 0.38092 0.0
C190 C 0.89564 0.53615 0.37363 0.0
O191 O 0.83165 0.57829 0.34398 0.0
O192 O 0.86798 0.61464 0.34573 0.0
O193 O 0.81735 0.60686 0.3763 0.0
O194 O 0.78346 0.57304 0.3765 0.0
C195 C 0.79351 0.59677 0.37789 0.0
O196 O 0.87297 0.60129 0.39722 0.0
O197 O 0.83368 0.5676 0.39768 0.0
O198 O 0.89203 0.57378 0.35436 0.0
O199 O 0.85531 0.55905 0.36672 0.0
H200 H 0.83427 0.50773 0.36351 0.0
H201 H 0.87586 0.47718 0.38727 0.0
H202 H 0.91233 0.55388 0.37257 0.0
O203 O 0.25462 0.79241 0.38558 0.0
Tb204 Tb 0.2453 0.82146 0.38431 0.0
Eu205 Eu 0.28432 0.88439 0.37512 0.0
C206 C 0.2518 0.77832 0.37112 0.0
O207 O 0.24584 0.78357 0.35491 0.0
C208 C 0.24756 0.84689 0.34715 0.0
O209 O 0.30279 0.92594 0.3747 0.0
C210 C 0.31657 0.87085 0.36855 0.0
C211 C 0.29006 0.93707 0.37781 0.0
O212 O 0.26638 0.9236 0.38124 0.0
C213 C 0.26933 0.86254 0.41607 0.0
C214 C 0.34149 0.87683 0.37438 0.0
C215 C 0.3469 0.85771 0.37638 0.0
C216 C 0.37083 0.86299 0.38107 0.0
C217 C 0.3892 0.88759 0.38375 0.0
C218 C 0.38413 0.90674 0.38151 0.0
C219 C 0.36028 0.90142 0.37692 0.0
O220 O 0.25395 0.8321 0.35521 0.0
O221 O 0.25283 0.86775 0.35514 0.0
O222 O 0.21051 0.82208 0.3851 0.0
O223 O 0.21001 0.7884 0.38954 0.0
C224 C 0.19646 0.79859 0.38835 0.0
O225 O 0.27281 0.88074 0.40504 0.0
O226 O 0.26445 0.8408 0.40971 0.0
O227 O 0.31486 0.88763 0.35876 0.0
O228 O 0.29887 0.85985 0.38086 0.0
H229 H 0.33258 0.8388 0.37405 0.0
H230 H 0.40797 0.89207 0.38662 0.0
H231 H 0.35657 0.91639 0.37494 0.0
O232 O 0.4741 0.26195 0.36871 0.0
Tb233 Tb 0.43571 0.25129 0.36477 0.0
Eu234 Eu 0.41243 0.29094 0.3575 0.0
C235 C 0.48853 0.2635 0.35486 0.0
O236 O 0.48035 0.26077 0.33767 0.0
C237 C 0.41296 0.25547 0.32773 0.0
O238 O 0.38841 0.30852 0.35792 0.0
C239 C 0.4586 0.32325 0.35225 0.0
C240 C 0.36474 0.29521 0.36175 0.0
O241 O 0.35542 0.27162 0.36519 0.0
C242 C 0.4197 0.27444 0.39774 0.0
C243 C 0.47952 0.34509 0.36082 0.0
C244 C 0.50318 0.34795 0.35959 0.0
C245 C 0.52364 0.36908 0.36678 0.0
C246 C 0.52035 0.38748 0.37502 0.0
C247 C 0.49699 0.38531 0.37591 0.0
C248 C 0.47651 0.36377 0.36906 0.0
O249 O 0.43384 0.26107 0.33597 0.0
O250 O 0.39796 0.2619 0.33528 0.0
O251 O 0.43385 0.21567 0.36492 0.0
O252 O 0.40091 0.2167 0.36948 0.0
C253 C 0.41038 0.20237 0.36807 0.0
O254 O 0.40469 0.27814 0.3872 0.0
O255 O 0.43634 0.26973 0.39074 0.0
O256 O 0.44037 0.32572 0.34572 0.0
O257 O 0.45125 0.30206 0.36054 0.0
H258 H 0.50573 0.33395 0.35277 0.0
H259 H 0.53642 0.40436 0.37955 0.0
H260 H 0.45837 0.36184 0.3697 0.0
O261 O 0.21795 0.47217 0.38603 0.0
Tb262 Tb 0.19013 0.43417 0.38048 0.0
Eu263 Eu 0.12638 0.41445 0.37314 0.0
C264 C 0.23059 0.48746 0.37249 0.0
O265 O 0.22456 0.48036 0.35513 0.0
C266 C 0.16211 0.41474 0.34411 0.0
O267 O 0.08472 0.39378 0.37291 0.0
C268 C 0.14337 0.4615 0.36966 0.0
C269 C 0.07227 0.37037 0.37761 0.0
O270 O 0.08448 0.35935 0.38264 0.0
C271 C 0.14935 0.41518 0.41331 0.0
C272 C 0.14012 0.48142 0.37749 0.0
C273 C 0.16077 0.50513 0.37925 0.0
C274 C 0.15811 0.52462 0.38608 0.0
C275 C 0.13466 0.52034 0.39092 0.0
C276 C 0.11375 0.49697 0.38888 0.0
C277 C 0.11662 0.47744 0.3823 0.0
O278 O 0.17652 0.43536 0.35294 0.0
O279 O 0.14056 0.39943 0.35121 0.0
O280 O 0.22408 0.4329 0.37737 0.0
O281 O 0.19055 0.39921 0.3806 0.0
C282 C 0.21428 0.40915 0.3782 0.0
O283 O 0.13019 0.40362 0.40218 0.0
O284 O 0.17205 0.4301 0.40739 0.0
O285 O 0.12515 0.44475 0.35963 0.0
O286 O 0.15361 0.45229 0.38052 0.0
H287 H 0.17881 0.50846 0.37513 0.0
H288 H 0.13256 0.53575 0.39527 0.0
H289 H 0.1006 0.45929 0.38067 0.0
O290 O 0.74435 0.22663 0.37266 0.0
Tb291 Tb 0.75745 0.20061 0.37016 0.0
Eu292 Eu 0.7222 0.13736 0.3641 0.0
C293 C 0.74162 0.23743 0.35787 0.0
O294 O 0.74474 0.23061 0.34126 0.0
C295 C 0.75443 0.1734 0.33396 0.0
O296 O 0.70709 0.09624 0.36334 0.0
C297 C 0.68768 0.14846 0.35985 0.0
C298 C 0.71785 0.08727 0.3527 0.0
O299 O 0.73735 0.10263 0.34306 0.0
C300 C 0.74067 0.16238 0.40363 0.0
C301 C 0.6647 0.14466 0.36859 0.0
C302 C 0.66162 0.16514 0.37169 0.0
C303 C 0.6395 0.16202 0.37912 0.0
C304 C 0.62058 0.1382 0.38352 0.0
C305 C 0.62315 0.11761 0.38019 0.0
C306 C 0.64526 0.12087 0.37275 0.0
O307 O 0.7464 0.18692 0.34187 0.0
O308 O 0.7513 0.1536 0.34237 0.0
O309 O 0.79218 0.23547 0.36876 0.0
O310 O 0.79331 0.20258 0.37314 0.0
C311 C 0.8066 0.2264 0.3711 0.0
O312 O 0.73766 0.14405 0.39294 0.0
O313 O 0.74227 0.18276 0.397 0.0
O314 O 0.68725 0.12936 0.35192 0.0
O315 O 0.70823 0.16258 0.36883 0.0
H316 H 0.67628 0.18342 0.368 0.0
H317 H 0.60299 0.13539 0.38838 0.0
H318 H 0.64706 0.10487 0.36994 0.0
O319 O 0.54978 0.78112 0.37217 0.0
Tb320 Tb 0.58399 0.78142 0.36711 0.0
Eu321 Eu 0.59397 0.71286 0.37298 0.0
C322 C 0.52996 0.76791 0.36209 0.0
O323 O 0.53047 0.75389 0.34871 0.0
C324 C 0.59297 0.7456 0.34202 0.0
O325 O 0.61775 0.69577 0.37788 0.0
C326 C 0.54753 0.68582 0.38071 0.0
C327 C 0.64169 0.70919 0.37533 0.0
O328 O 0.65102 0.73237 0.37049 0.0
C329 C 0.59952 0.75774 0.39733 0.0
C330 C 0.52714 0.66188 0.38676 0.0
C331 C 0.50387 0.65957 0.3894 0.0
C332 C 0.48359 0.63684 0.39436 0.0
C333 C 0.4867 0.61639 0.39648 0.0
C334 C 0.50958 0.61818 0.39324 0.0
C335 C 0.53002 0.64117 0.38875 0.0
O336 O 0.58011 0.74756 0.35565 0.0
O337 O 0.59979 0.72904 0.34404 0.0
O338 O 0.6001 0.8103 0.34581 0.0
O339 O 0.61777 0.8161 0.37212 0.0
C340 C 0.61847 0.82601 0.35603 0.0
O341 O 0.60826 0.75193 0.38278 0.0
O342 O 0.59109 0.77304 0.39505 0.0
O343 O 0.5567 0.687 0.36398 0.0
O344 O 0.56416 0.69937 0.39323 0.0
H345 H 0.50144 0.67535 0.38732 0.0
H346 H 0.47086 0.59862 0.39977 0.0
H347 H 0.54772 0.64271 0.38599 0.0
O348 O 0.53495 0.76 0.86068 0.0
Tb349 Tb 0.5702 0.79206 0.86677 0.0
Eu350 Eu 0.58607 0.87137 0.87434 0.0
C351 C 0.51459 0.7567 0.86849 0.0
O352 O 0.51553 0.77351 0.87994 0.0
C353 C 0.58216 0.8389 0.8426 0.0
O354 O 0.61298 0.91202 0.87353 0.0
C355 C 0.54178 0.86034 0.88358 0.0
C356 C 0.6337 0.92174 0.88295 0.0
O357 O 0.63836 0.90763 0.89371 0.0
C358 C 0.58132 0.8279 0.89968 0.0
C359 C 0.52454 0.86973 0.88387 0.0
C360 C 0.49966 0.85333 0.87975 0.0
C361 C 0.48273 0.86166 0.87928 0.0
C362 C 0.49058 0.88622 0.88367 0.0
C363 C 0.51524 0.90271 0.88802 0.0
C364 C 0.53239 0.89457 0.88781 0.0
O365 O 0.57256 0.82579 0.85761 0.0
O366 O 0.58905 0.86219 0.8444 0.0
O367 O 0.59577 0.78182 0.87835 0.0
O368 O 0.59809 0.79043 0.8494 0.0
C369 C 0.60723 0.78345 0.86285 0.0
O370 O 0.59595 0.84456 0.88749 0.0
O371 O 0.57012 0.80429 0.89517 0.0
O372 O 0.54746 0.85558 0.86707 0.0
O373 O 0.56047 0.8702 0.89527 0.0
H374 H 0.49362 0.83426 0.87644 0.0
H375 H 0.47744 0.89267 0.88331 0.0
H376 H 0.55162 0.90742 0.89069 0.0
O377 O 0.73936 0.51941 0.87897 0.0
Tb378 Tb 0.75326 0.55841 0.87449 0.0
Eu379 Eu 0.71914 0.58434 0.86691 0.0
C380 C 0.7289 0.50287 0.8657 0.0
O381 O 0.72578 0.50965 0.8491 0.0
C382 C 0.7489 0.57803 0.83571 0.0
O383 O 0.70439 0.61001 0.86248 0.0
C384 C 0.68446 0.53849 0.86585 0.0
C385 C 0.71883 0.63386 0.86455 0.0
O386 O 0.74187 0.64242 0.86946 0.0
C387 C 0.73587 0.58046 0.90704 0.0
C388 C 0.66565 0.51917 0.8779 0.0
C389 C 0.66534 0.49671 0.87974 0.0
C390 C 0.64654 0.47709 0.88976 0.0
C391 C 0.628 0.48026 0.89799 0.0
C392 C 0.62771 0.50236 0.89592 0.0
C393 C 0.64691 0.52199 0.88622 0.0
O394 O 0.74399 0.55818 0.84516 0.0
O395 O 0.74581 0.59519 0.84339 0.0
O396 O 0.78827 0.5931 0.87704 0.0
O397 O 0.78839 0.55925 0.87603 0.0
C398 C 0.80212 0.58305 0.87726 0.0
O399 O 0.73361 0.59562 0.89573 0.0
O400 O 0.73735 0.56149 0.90078 0.0
O401 O 0.68121 0.5568 0.8608 0.0
O402 O 0.70741 0.54542 0.86974 0.0
H403 H 0.67935 0.49425 0.87289 0.0
H404 H 0.61282 0.46492 0.90508 0.0
H405 H 0.64642 0.53886 0.88423 0.0
O406 O 0.2237 0.79082 0.85657 0.0
Tb407 Tb 0.19141 0.79377 0.86243 0.0
Eu408 Eu 0.11956 0.72075 0.87577 0.0
C409 C 0.22845 0.7754 0.86552 0.0
O410 O 0.21245 0.76007 0.87766 0.0
C411 C 0.14254 0.75158 0.84128 0.0
O412 O 0.07886 0.69936 0.88171 0.0
C413 C 0.14111 0.69568 0.8837 0.0
C414 C 0.06669 0.71084 0.88554 0.0
O415 O 0.07883 0.73499 0.88662 0.0
C416 C 0.16154 0.76667 0.89779 0.0
C417 C 0.13507 0.67058 0.88862 0.0
C418 C 0.15316 0.66379 0.8868 0.0
C419 C 0.14795 0.64001 0.89173 0.0
C420 C 0.12438 0.6231 0.89835 0.0
C421 C 0.10604 0.62959 0.90013 0.0
C422 C 0.11155 0.65348 0.89522 0.0
O423 O 0.15674 0.76171 0.85566 0.0
O424 O 0.12253 0.73077 0.845 0.0
O425 O 0.19874 0.82482 0.84436 0.0
O426 O 0.19862 0.8289 0.87382 0.0
C427 C 0.20216 0.84011 0.85789 0.0
O428 O 0.14204 0.75982 0.8871 0.0
O429 O 0.18379 0.78282 0.89161 0.0
O430 O 0.13602 0.69909 0.86657 0.0
O431 O 0.13557 0.7074 0.89622 0.0
H432 H 0.17129 0.67706 0.88167 0.0
H433 H 0.11998 0.6044 0.90135 0.0
H434 H 0.09767 0.65884 0.89659 0.0
O435 O 0.4711 0.22389 0.88533 0.0
Tb436 Tb 0.43373 0.19926 0.87541 0.0
Eu437 Eu 0.43307 0.14378 0.8573 0.0
C438 C 0.49054 0.22877 0.87521 0.0
O439 O 0.48754 0.21661 0.85965 0.0
C440 C 0.42831 0.18306 0.83418 0.0
O441 O 0.40369 0.10364 0.85754 0.0
C442 C 0.47341 0.15079 0.8418 0.0
C443 C 0.38086 0.09707 0.85311 0.0
O444 O 0.3755 0.11422 0.84891 0.0
C445 C 0.42512 0.15386 0.89924 0.0
C446 C 0.49496 0.14791 0.84547 0.0
C447 C 0.51862 0.16749 0.84118 0.0
C448 C 0.53925 0.16452 0.84292 0.0
C449 C 0.53606 0.14201 0.84933 0.0
C450 C 0.51269 0.12234 0.85357 0.0
C451 C 0.49213 0.12542 0.85192 0.0
O452 O 0.44248 0.20032 0.846 0.0
O453 O 0.41528 0.16017 0.83971 0.0
O454 O 0.40302 0.20385 0.86624 0.0
O455 O 0.42598 0.22644 0.88812 0.0
C456 C 0.40692 0.22135 0.87786 0.0
O457 O 0.43799 0.14768 0.88838 0.0
O458 O 0.41508 0.16643 0.8928 0.0
O459 O 0.45205 0.13056 0.83962 0.0
O460 O 0.47197 0.16796 0.85126 0.0
H461 H 0.52084 0.1847 0.83593 0.0
H462 H 0.55196 0.13969 0.85103 0.0
H463 H 0.47398 0.11009 0.85499 0.0
O464 O 0.23191 0.46239 0.87368 0.0
Tb465 Tb 0.2269 0.42632 0.86739 0.0
Eu466 Eu 0.29109 0.41214 0.87228 0.0
C467 C 0.23935 0.47936 0.86066 0.0
O468 O 0.24502 0.47461 0.84414 0.0
C469 C 0.25723 0.41163 0.84099 0.0
O470 O 0.28364 0.3742 0.87987 0.0
C471 C 0.33825 0.44165 0.8722 0.0
C472 C 0.2845 0.36004 0.86672 0.0
O473 O 0.28591 0.36694 0.84926 0.0
C474 C 0.25346 0.41784 0.89895 0.0
C475 C 0.35713 0.46583 0.87919 0.0
C476 C 0.35392 0.48643 0.8789 0.0
C477 C 0.37252 0.5091 0.8858 0.0
C478 C 0.39442 0.51107 0.89266 0.0
C479 C 0.39802 0.49073 0.89282 0.0
C480 C 0.37892 0.46801 0.88635 0.0
O481 O 0.25807 0.42825 0.8526 0.0
O482 O 0.27251 0.40341 0.84412 0.0
O483 O 0.19368 0.39003 0.8671 0.0
O484 O 0.19471 0.41868 0.85066 0.0
C485 C 0.18117 0.39584 0.85579 0.0
O486 O 0.27121 0.42899 0.88673 0.0
O487 O 0.23257 0.4172 0.89547 0.0
O488 O 0.32676 0.42478 0.885 0.0
O489 O 0.32386 0.44091 0.85856 0.0
H490 H 0.33715 0.4849 0.87331 0.0
H491 H 0.40921 0.52894 0.89697 0.0
H492 H 0.38095 0.45184 0.88673 0.0
O493 O 0.78311 0.22996 0.86151 0.0
Tb494 Tb 0.8149 0.22638 0.86784 0.0
Eu495 Eu 0.87808 0.30716 0.86696 0.0
C496 C 0.78433 0.25101 0.85762 0.0
O497 O 0.80565 0.27152 0.85784 0.0
C498 C 0.85133 0.26495 0.83956 0.0
O499 O 0.91391 0.30731 0.8704 0.0
C500 C 0.88524 0.35148 0.86947 0.0
C501 C 0.92094 0.29531 0.85927 0.0
O502 O 0.90588 0.28089 0.84629 0.0
C503 C 0.8433 0.26578 0.89642 0.0
C504 C 0.87557 0.36668 0.87723 0.0
C505 C 0.85052 0.35988 0.87642 0.0
C506 C 0.84276 0.37553 0.88409 0.0
C507 C 0.86016 0.39807 0.8921 0.0
C508 C 0.88507 0.40501 0.89276 0.0
C509 C 0.89258 0.38911 0.88549 0.0
O510 O 0.84936 0.2543 0.85568 0.0
O511 O 0.86566 0.289 0.8388 0.0
O512 O 0.80699 0.19345 0.85196 0.0
O513 O 0.80604 0.19199 0.88161 0.0
C514 C 0.80282 0.17936 0.86644 0.0
O515 O 0.84414 0.27929 0.88219 0.0
O516 O 0.82807 0.24192 0.8953 0.0
O517 O 0.89382 0.342 0.88162 0.0
O518 O 0.87384 0.33692 0.85526 0.0
H519 H 0.83723 0.34266 0.86998 0.0
H520 H 0.85433 0.41047 0.89756 0.0
H521 H 0.91194 0.39456 0.88574 0.0
O522 O 0.23213 0.45205 0.64364 0.0
Tb523 Tb 0.19851 0.417 0.64056 0.0
Eu524 Eu 0.11916 0.39982 0.63231 0.0
C525 C 0.23332 0.47219 0.6371 0.0
O526 O 0.21367 0.47073 0.62932 0.0
C527 C 0.15238 0.40524 0.66415 0.0
O528 O 0.07845 0.37497 0.62839 0.0
C529 C 0.1355 0.44541 0.62344 0.0
C530 C 0.06896 0.35097 0.62812 0.0
O531 O 0.08375 0.34184 0.62923 0.0
C532 C 0.16184 0.40157 0.60812 0.0
C533 C 0.12928 0.46396 0.61765 0.0
C534 C 0.14734 0.48884 0.61945 0.0
C535 C 0.14217 0.50717 0.61416 0.0
C536 C 0.11916 0.50066 0.60667 0.0
C537 C 0.10092 0.47587 0.60479 0.0
C538 C 0.10595 0.45741 0.61047 0.0
O539 O 0.16602 0.41727 0.64987 0.0
O540 O 0.12865 0.39586 0.66194 0.0
O541 O 0.19878 0.3893 0.6591 0.0
O542 O 0.20434 0.38807 0.62984 0.0
C543 C 0.20262 0.37744 0.64575 0.0
O544 O 0.14596 0.38866 0.62131 0.0
O545 O 0.18552 0.41438 0.61216 0.0
O546 O 0.13019 0.4373 0.64067 0.0
O547 O 0.13164 0.42826 0.6112 0.0
H548 H 0.16516 0.49392 0.6254 0.0
H549 H 0.1151 0.51507 0.6031 0.0
H550 H 0.09188 0.43819 0.60933 0.0
O551 O 0.74697 0.19191 0.61284 0.0
Tb552 Tb 0.75738 0.1698 0.62959 0.0
Eu553 Eu 0.7 0.11227 0.64093 0.0
C554 C 0.7318 0.19881 0.61941 0.0
O555 O 0.71987 0.18892 0.63493 0.0
C556 C 0.73873 0.14916 0.66807 0.0
O557 O 0.68523 0.07143 0.63804 0.0
C558 C 0.66578 0.12184 0.65033 0.0
C559 C 0.70009 0.06264 0.63514 0.0
O560 O 0.7239 0.07802 0.63416 0.0
C561 C 0.72772 0.12842 0.6015 0.0
C562 C 0.64346 0.11971 0.64189 0.0
C563 C 0.63622 0.13694 0.64649 0.0
C564 C 0.61428 0.13436 0.63927 0.0
C565 C 0.6001 0.11498 0.62699 0.0
C566 C 0.60723 0.0978 0.6222 0.0
C567 C 0.62897 0.10022 0.62968 0.0
O568 O 0.73914 0.16498 0.65603 0.0
O569 O 0.72929 0.12606 0.66311 0.0
O570 O 0.79181 0.20492 0.62961 0.0
O571 O 0.79262 0.17267 0.63727 0.0
C572 C 0.80587 0.19639 0.63497 0.0
O573 O 0.70659 0.12005 0.61019 0.0
O574 O 0.74871 0.13971 0.61051 0.0
O575 O 0.66506 0.10108 0.65452 0.0
O576 O 0.6867 0.13825 0.64281 0.0
H577 H 0.64716 0.15179 0.65611 0.0
H578 H 0.58289 0.11274 0.62171 0.0
H579 H 0.63433 0.08672 0.62624 0.0
O580 O 0.52479 0.73953 0.61681 0.0
Tb581 Tb 0.56314 0.75065 0.62122 0.0
Eu582 Eu 0.58805 0.7156 0.63022 0.0
C583 C 0.50713 0.72592 0.62862 0.0
O584 O 0.51225 0.71744 0.64367 0.0
C585 C 0.58223 0.74702 0.66024 0.0
O586 O 0.61384 0.70049 0.63069 0.0
C587 C 0.54237 0.68097 0.63317 0.0
C588 C 0.63402 0.71065 0.6408 0.0
O589 O 0.63887 0.72957 0.65148 0.0
C590 C 0.58253 0.72977 0.58932 0.0
C591 C 0.52246 0.65979 0.62318 0.0
C592 C 0.49985 0.65907 0.62073 0.0
C593 C 0.47999 0.63884 0.6121 0.0
C594 C 0.48297 0.61938 0.60574 0.0
C595 C 0.50501 0.61934 0.60865 0.0
C596 C 0.52485 0.63964 0.61734 0.0
O597 O 0.56225 0.74126 0.65059 0.0
O598 O 0.59937 0.74345 0.65304 0.0
O599 O 0.56494 0.78613 0.61907 0.0
O600 O 0.59844 0.78537 0.61935 0.0
C601 C 0.58878 0.79957 0.6186 0.0
O602 O 0.59808 0.72854 0.60085 0.0
O603 O 0.56448 0.73294 0.59535 0.0
O604 O 0.56087 0.67892 0.63968 0.0
O605 O 0.54911 0.70281 0.6263 0.0
H606 H 0.49746 0.67391 0.626 0.0
H607 H 0.46729 0.60308 0.59997 0.0
H608 H 0.54173 0.63938 0.61993 0.0
O609 O 0.75078 0.52232 0.63609 0.0
Tb610 Tb 0.7843 0.55484 0.6276 0.0
Eu611 Eu 0.86192 0.56212 0.62474 0.0
C612 C 0.74362 0.50095 0.62811 0.0
O613 O 0.75775 0.49913 0.61544 0.0
C614 C 0.82928 0.56623 0.65396 0.0
O615 O 0.90235 0.58751 0.62036 0.0
C616 C 0.84635 0.51554 0.62041 0.0
C617 C 0.91002 0.6098 0.61394 0.0
O618 O 0.89371 0.61587 0.6087 0.0
C619 C 0.82115 0.55995 0.59744 0.0
C620 C 0.85431 0.49792 0.61553 0.0
C621 C 0.83689 0.47266 0.61581 0.0
C622 C 0.84371 0.45527 0.61084 0.0
C623 C 0.86791 0.46348 0.60505 0.0
C624 C 0.88542 0.48863 0.60468 0.0
C625 C 0.8787 0.50592 0.61016 0.0
O626 O 0.81513 0.55378 0.63997 0.0
O627 O 0.85204 0.57088 0.65285 0.0
O628 O 0.7886 0.58882 0.63989 0.0
O629 O 0.77163 0.57675 0.61321 0.0
C630 C 0.77807 0.59355 0.62602 0.0
O631 O 0.83684 0.57335 0.61053 0.0
O632 O 0.79746 0.5514 0.60028 0.0
O633 O 0.85372 0.52685 0.63657 0.0
O634 O 0.84698 0.52992 0.60688 0.0
H635 H 0.81816 0.46655 0.62019 0.0
H636 H 0.87329 0.45016 0.60105 0.0
H637 H 0.89221 0.5254 0.61003 0.0
O638 O 0.21093 0.76388 0.63762 0.0
Tb639 Tb 0.20812 0.79687 0.63651 0.0
Eu640 Eu 0.28844 0.86242 0.63654 0.0
C641 C 0.22457 0.75976 0.62588 0.0
O642 O 0.2372 0.77614 0.61301 0.0
C643 C 0.24638 0.84088 0.66412 0.0
O644 O 0.2938 0.89449 0.61928 0.0
C645 C 0.32863 0.86083 0.64065 0.0
C646 C 0.27537 0.89853 0.6169 0.0
O647 O 0.25358 0.88249 0.62345 0.0
C648 C 0.24552 0.82992 0.6074 0.0
C649 C 0.3494 0.86348 0.62931 0.0
C650 C 0.35458 0.84416 0.62913 0.0
C651 C 0.37496 0.84639 0.61933 0.0
C652 C 0.38992 0.86817 0.60938 0.0
C653 C 0.38533 0.88789 0.60979 0.0
C654 C 0.36482 0.88531 0.61959 0.0
O655 O 0.23953 0.82861 0.64851 0.0
O656 O 0.26892 0.85955 0.66386 0.0
O657 O 0.17621 0.78789 0.65411 0.0
O658 O 0.17407 0.7921 0.6248 0.0
C659 C 0.16202 0.78688 0.64044 0.0
O660 O 0.26098 0.8296 0.61961 0.0
O661 O 0.22181 0.8143 0.60956 0.0
O662 O 0.32722 0.88072 0.64393 0.0
O663 O 0.30722 0.84127 0.63722 0.0
H664 H 0.34325 0.82776 0.63729 0.0
H665 H 0.40598 0.87029 0.60207 0.0
H666 H 0.36132 0.90056 0.62002 0.0
O667 O 0.428 0.19898 0.63193 0.0
Tb668 Tb 0.39456 0.19753 0.62254 0.0
Eu669 Eu 0.39261 0.26846 0.61741 0.0
C670 C 0.44968 0.2188 0.6299 0.0
O671 O 0.45127 0.23841 0.62196 0.0
C672 C 0.40176 0.24059 0.64787 0.0
O673 O 0.36217 0.27356 0.62872 0.0
C674 C 0.42639 0.30651 0.59979 0.0
C675 C 0.34334 0.26896 0.61809 0.0
O676 O 0.34286 0.26175 0.60082 0.0
C677 C 0.39435 0.23016 0.59099 0.0
C678 C 0.44367 0.33296 0.60333 0.0
C679 C 0.46853 0.34078 0.60722 0.0
C680 C 0.48521 0.3655 0.6114 0.0
C681 C 0.47698 0.38251 0.6113 0.0
C682 C 0.4525 0.37523 0.60704 0.0
C683 C 0.43584 0.35048 0.60288 0.0
O684 O 0.3868 0.22369 0.63608 0.0
O685 O 0.40616 0.26309 0.64501 0.0
O686 O 0.36959 0.16615 0.60545 0.0
O687 O 0.36664 0.16281 0.63496 0.0
C688 C 0.3579 0.15142 0.6192 0.0
O689 O 0.37951 0.23243 0.60264 0.0
O690 O 0.4031 0.21562 0.59546 0.0
O691 O 0.4307 0.29101 0.60908 0.0
O692 O 0.4028 0.29917 0.59837 0.0
H693 H 0.47482 0.32754 0.60736 0.0
H694 H 0.48987 0.40179 0.61406 0.0
H695 H 0.41694 0.34498 0.59956 0.0
H696 H 0.32881 0.05093 0.12674 0.0
H697 H 0.30086 0.00662 0.12391 0.0
H698 H 0.36147 0.9969 0.1072 0.0
H699 H 0.38954 0.04137 0.10969 0.0
H700 H 0.32142 0.96786 0.08687 0.0
H701 H 0.33878 0.98511 0.15222 0.0
H702 H 0.34125 0.00568 0.1821 0.0
H703 H 0.26339 0.97826 0.18044 0.0
H704 H 0.26051 0.9578 0.1504 0.0
H705 H 0.27446 0.84223 0.10942 0.0
H706 H 0.29746 0.88712 0.10754 0.0
H707 H 0.23161 0.88937 0.12092 0.0
H708 H 0.20835 0.84412 0.12277 0.0
H709 H 0.27156 0.92219 0.14189 0.0
H710 H 0.25375 0.90288 0.07745 0.0
H711 H 0.25117 0.88155 0.04796 0.0
H712 H 0.32955 0.91201 0.04822 0.0
H713 H 0.33258 0.9334 0.07782 0.0
C714 C 0.33623 0.03943 0.12233 0.0
C715 C 0.36152 0.04977 0.11858 0.0
C716 C 0.32019 0.01402 0.12081 0.0
C717 C 0.32906 0.99825 0.11566 0.0
C718 C 0.35415 0.00861 0.11127 0.0
C719 C 0.37022 0.03408 0.11273 0.0
C720 C 0.31233 0.97097 0.11531 0.0
C721 C 0.31072 0.95788 0.09897 0.0
C722 C 0.29778 0.95786 0.13092 0.0
C723 C 0.29948 0.97016 0.14896 0.0
C724 C 0.32222 0.98364 0.15815 0.0
C725 C 0.32369 0.99525 0.17513 0.0
C726 C 0.30251 0.99334 0.18313 0.0
C727 C 0.27979 0.97976 0.1742 0.0
C728 C 0.27823 0.96815 0.15721 0.0
C729 C 0.26479 0.85225 0.11178 0.0
C730 C 0.23958 0.83967 0.11618 0.0
C731 C 0.27796 0.87794 0.11064 0.0
C732 C 0.26627 0.89169 0.11393 0.0
C733 C 0.24101 0.87916 0.11826 0.0
C734 C 0.22773 0.85334 0.11924 0.0
C735 C 0.28081 0.91913 0.11352 0.0
C736 C 0.28207 0.93222 0.12974 0.0
C737 C 0.29504 0.93222 0.09782 0.0
C738 C 0.29337 0.91958 0.07994 0.0
C739 C 0.27042 0.9049 0.07128 0.0
C740 C 0.26888 0.89282 0.05454 0.0
C741 C 0.29017 0.89533 0.04626 0.0
C742 C 0.31307 0.91005 0.05466 0.0
C743 C 0.31472 0.92221 0.07141 0.0
H744 H 0.28893 0.88592 0.03331 0.0
H745 H 0.30368 0.00233 0.19628 0.0
H746 H 0.3224 0.36856 0.15806 0.0
H747 H 0.33413 0.33715 0.16276 0.0
H748 H 0.29051 0.29709 0.11508 0.0
H749 H 0.27798 0.32786 0.11079 0.0
H750 H 0.28517 0.26583 0.14151 0.0
H751 H 0.35461 0.33712 0.11365 0.0
H752 H 0.38594 0.38119 0.11273 0.0
H753 H 0.41617 0.37405 0.16447 0.0
H754 H 0.38456 0.33004 0.16596 0.0
H755 H 0.34449 0.20146 0.10919 0.0
H756 H 0.32616 0.22741 0.11455 0.0
H757 H 0.36795 0.25468 0.16538 0.0
H758 H 0.38635 0.22876 0.16004 0.0
H759 H 0.37396 0.29185 0.14193 0.0
H760 H 0.30758 0.21965 0.16816 0.0
H761 H 0.27574 0.17581 0.16972 0.0
H762 H 0.24027 0.18429 0.12142 0.0
H763 H 0.27212 0.22815 0.11938 0.0
C764 C 0.31529 0.35303 0.14861 0.0
C765 C 0.29943 0.3508 0.13396 0.0
C766 C 0.32202 0.33508 0.1513 0.0
C767 C 0.31352 0.31489 0.1391 0.0
C768 C 0.29731 0.31245 0.12469 0.0
C769 C 0.29027 0.33015 0.12219 0.0
C770 C 0.32214 0.29675 0.14078 0.0
C771 C 0.30458 0.27152 0.14146 0.0
C772 C 0.34749 0.30413 0.14128 0.0
C773 C 0.36705 0.33036 0.14002 0.0
C774 C 0.36787 0.34497 0.12487 0.0
C775 C 0.38567 0.36995 0.12426 0.0
C776 C 0.40301 0.38044 0.13855 0.0
C777 C 0.40268 0.36592 0.15344 0.0
C778 C 0.38481 0.34097 0.15419 0.0
C779 C 0.34933 0.21257 0.12171 0.0
C780 C 0.36678 0.2131 0.13422 0.0
C781 C 0.33884 0.22738 0.12478 0.0
C782 C 0.3457 0.243 0.14037 0.0
C783 C 0.36242 0.2428 0.15326 0.0
C784 C 0.37278 0.22786 0.15026 0.0
C785 C 0.33698 0.26097 0.14227 0.0
C786 C 0.35454 0.28616 0.14222 0.0
C787 C 0.31167 0.25354 0.14232 0.0
C788 C 0.29237 0.22718 0.14354 0.0
C789 C 0.2931 0.21214 0.15778 0.0
C790 C 0.27504 0.18729 0.15876 0.0
C791 C 0.25603 0.17726 0.14565 0.0
C792 C 0.25502 0.19209 0.13156 0.0
C793 C 0.27306 0.21696 0.1305 0.0
H794 H 0.24205 0.158 0.14644 0.0
H795 H 0.41672 0.3998 0.1381 0.0
H796 H 0.9855 0.34421 0.09195 0.0
H797 H 0.02873 0.35539 0.09199 0.0
H798 H 0.01362 0.30026 0.13385 0.0
H799 H 0.97024 0.28921 0.13412 0.0
H800 H 0.05483 0.34196 0.1421 0.0
H801 H 0.0238 0.29081 0.08858 0.0
H802 H 1.0013 0.27564 0.05893 0.0
H803 H 0.04987 0.34497 0.03291 0.0
H804 H 0.07245 0.3607 0.06249 0.0
H805 H 0.17808 0.36473 0.13098 0.0
H806 H 0.13283 0.3415 0.13022 0.0
H807 H 0.13305 0.39526 0.09263 0.0
H808 H 0.17799 0.41845 0.09344 0.0
H809 H 0.09833 0.34751 0.08296 0.0
H810 H 0.12576 0.39943 0.13813 0.0
H811 H 0.14802 0.41401 0.16794 0.0
H812 H 0.10572 0.34139 0.19094 0.0
H813 H 0.08345 0.32628 0.16113 0.0
C814 C 0.99131 0.33439 0.10115 0.0
C815 C 0.97436 0.31574 0.11299 0.0
C816 C 0.01605 0.34073 0.10109 0.0
C817 C 0.0244 0.3284 0.11271 0.0
C818 C 0.0076 0.30995 0.1247 0.0
C819 C 0.9828 0.30363 0.12482 0.0
C820 C 0.05079 0.33526 0.11249 0.0
C821 C 0.06422 0.34267 0.12922 0.0
C822 C 0.06316 0.33639 0.09568 0.0
C823 C 0.04972 0.32699 0.07781 0.0
C824 C 0.02958 0.30289 0.07657 0.0
C825 C 0.01683 0.29418 0.05977 0.0
C826 C 0.02413 0.30935 0.04406 0.0
C827 C 0.04423 0.33325 0.0451 0.0
C828 C 0.05704 0.34206 0.06188 0.0
C829 C 0.16842 0.37128 0.1223 0.0
C830 C 0.18145 0.3934 0.11231 0.0
C831 C 0.14262 0.3581 0.12195 0.0
C832 C 0.12959 0.3668 0.11151 0.0
C833 C 0.14271 0.38821 0.10079 0.0
C834 C 0.16838 0.40147 0.10128 0.0
C835 C 0.10235 0.3547 0.11245 0.0
C836 C 0.08879 0.34634 0.09587 0.0
C837 C 0.08985 0.35254 0.1294 0.0
C838 C 0.10317 0.36165 0.14733 0.0
C839 C 0.12136 0.38652 0.14949 0.0
C840 C 0.13395 0.39489 0.16639 0.0
C841 C 0.12835 0.37862 0.18131 0.0
C842 C 0.11008 0.35395 0.17936 0.0
C843 C 0.09747 0.34548 0.16246 0.0
H844 H 0.13811 0.38514 0.19439 0.0
H845 H 0.01422 0.30258 0.03106 0.0
H846 H 0.81349 0.16796 0.13762 0.0
H847 H 0.78716 0.12347 0.14176 0.0
H848 H 0.74063 0.12178 0.09675 0.0
H849 H 0.76611 0.16642 0.09347 0.0
H850 H 0.71245 0.09446 0.12128 0.0
H851 H 0.78405 0.09872 0.09415 0.0
H852 H 0.82817 0.11244 0.09071 0.0
H853 H 0.82853 0.08327 0.14476 0.0
H854 H 0.78447 0.06963 0.14862 0.0
H855 H 0.64708 0.96333 0.11193 0.0
H856 H 0.67432 0.00738 0.10634 0.0
H857 H 0.71386 0.01296 0.15695 0.0
H858 H 0.68701 0.96893 0.16247 0.0
H859 H 0.74519 0.03761 0.1289 0.0
H860 H 0.67115 0.03335 0.15431 0.0
H861 H 0.62642 0.01779 0.1546 0.0
H862 H 0.63056 0.04527 0.09913 0.0
H863 H 0.67527 0.06095 0.09851 0.0
C864 C 0.79781 0.15798 0.12848 0.0
C865 C 0.79196 0.17058 0.11511 0.0
C866 C 0.78274 0.13247 0.13079 0.0
C867 C 0.76192 0.11888 0.11939 0.0
C868 C 0.75643 0.1316 0.10581 0.0
C869 C 0.77112 0.15714 0.10383 0.0
C870 C 0.74537 0.09168 0.12194 0.0
C871 C 0.71973 0.08209 0.12266 0.0
C872 C 0.75454 0.07523 0.12401 0.0
C873 C 0.78102 0.08336 0.12174 0.0
C874 C 0.79358 0.09538 0.10535 0.0
C875 C 0.81857 0.10312 0.10332 0.0
C876 C 0.83116 0.09878 0.11752 0.0
C877 C 0.81876 0.08664 0.13377 0.0
C878 C 0.79378 0.07888 0.13588 0.0
C879 C 0.66154 0.97392 0.1219 0.0
C880 C 0.66476 0.96253 0.13769 0.0
C881 C 0.67707 0.99917 0.11871 0.0
C882 C 0.69604 0.01366 0.13133 0.0
C883 C 0.69939 0.00226 0.14701 0.0
C884 C 0.68392 0.97703 0.15018 0.0
C885 C 0.71252 0.04063 0.12822 0.0
C886 C 0.73807 0.05011 0.12746 0.0
C887 C 0.70326 0.05689 0.12567 0.0
C888 C 0.67652 0.04817 0.12632 0.0
C889 C 0.6625 0.03604 0.14218 0.0
C890 C 0.63715 0.02723 0.14241 0.0
C891 C 0.62564 0.03053 0.1269 0.0
C892 C 0.63948 0.04279 0.11116 0.0
C893 C 0.66484 0.05169 0.11088 0.0
H894 H 0.606 0.02359 0.12707 0.0
H895 H 0.8505 0.10479 0.11592 0.0
H896 H 0.66262 0.62247 0.12371 0.0
H897 H 0.64379 0.64844 0.1245 0.0
H898 H 0.71488 0.71227 0.13478 0.0
H899 H 0.73375 0.68637 0.13443 0.0
H900 H 0.68171 0.71346 0.15672 0.0
H901 H 0.68636 0.69973 0.09125 0.0
H902 H 0.67933 0.67469 0.06298 0.0
H903 H 0.60123 0.63987 0.07123 0.0
H904 H 0.6078 0.66443 0.09976 0.0
H905 H 0.65031 0.80559 0.13372 0.0
H906 H 0.66879 0.77905 0.13368 0.0
H907 H 0.5965 0.71484 0.1296 0.0
H908 H 0.57804 0.74117 0.12987 0.0
H909 H 0.62969 0.71362 0.10473 0.0
H910 H 0.62462 0.72695 0.16985 0.0
H911 H 0.63108 0.7512 0.1985 0.0
H912 H 0.70933 0.7864 0.19097 0.0
H913 H 0.70334 0.76255 0.16215 0.0
C914 C 0.67428 0.64205 0.12608 0.0
C915 C 0.69973 0.65233 0.12894 0.0
C916 C 0.66347 0.65691 0.12648 0.0
C917 C 0.67791 0.68242 0.12951 0.0
C918 C 0.70331 0.69267 0.13243 0.0
C919 C 0.7141 0.67782 0.13215 0.0
C920 C 0.66663 0.69846 0.1297 0.0
C921 C 0.67064 0.71373 0.14521 0.0
C922 C 0.65161 0.69843 0.11494 0.0
C923 C 0.64759 0.68375 0.09774 0.0
C924 C 0.66769 0.6866 0.08712 0.0
C925 C 0.66378 0.6725 0.07105 0.0
C926 C 0.63984 0.65564 0.06536 0.0
C927 C 0.61976 0.65289 0.0757 0.0
C928 C 0.62356 0.6669 0.09181 0.0
C929 C 0.63843 0.78582 0.13282 0.0
C930 C 0.61277 0.77543 0.1318 0.0
C931 C 0.64896 0.77068 0.13286 0.0
C932 C 0.634 0.74494 0.13171 0.0
C933 C 0.60839 0.73462 0.13048 0.0
C934 C 0.59788 0.74969 0.13067 0.0
C935 C 0.64498 0.72871 0.13164 0.0
C936 C 0.64084 0.71337 0.11619 0.0
C937 C 0.65984 0.72866 0.14646 0.0
C938 C 0.66352 0.74317 0.16371 0.0
C939 C 0.64321 0.74004 0.1742 0.0
C940 C 0.64678 0.75367 0.1905 0.0
C941 C 0.67059 0.77039 0.19652 0.0
C942 C 0.69089 0.77347 0.18627 0.0
C943 C 0.68742 0.75988 0.16997 0.0
H944 H 0.67332 0.78093 0.20913 0.0
H945 H 0.63686 0.64475 0.05291 0.0
H946 H 0.05917 0.68116 0.15267 0.0
H947 H 0.01515 0.66425 0.15809 0.0
H948 H 0.01477 0.71636 0.11907 0.0
H949 H 0.05891 0.73379 0.11397 0.0
H950 H 0.98894 0.71384 0.14854 0.0
H951 H 0.99252 0.65421 0.10843 0.0
H952 H 0.00479 0.62422 0.0986 0.0
H953 H 0.97071 0.58073 0.14738 0.0
H954 H 0.95862 0.61071 0.15769 0.0
H955 H 0.86179 0.65215 0.12297 0.0
H956 H 0.90671 0.6725 0.12521 0.0
H957 H 0.90009 0.62544 0.17128 0.0
H958 H 0.85509 0.60531 0.16931 0.0
H959 H 0.92918 0.62474 0.1413 0.0
H960 H 0.92455 0.68341 0.18089 0.0
H961 H 0.91163 0.71293 0.19056 0.0
H962 H 0.946 0.75687 0.14203 0.0
H963 H 0.95929 0.72765 0.13211 0.0
C964 C 0.04971 0.68899 0.14519 0.0
C965 C 0.06258 0.7088 0.13283 0.0
C966 C 0.02449 0.67923 0.14826 0.0
C967 C 0.01148 0.6888 0.13883 0.0
C968 C 0.02434 0.70864 0.12654 0.0
C969 C 0.04959 0.71854 0.12357 0.0
C970 C 0.98456 0.67835 0.14183 0.0
C971 C 0.97589 0.69438 0.14675 0.0
C972 C 0.96747 0.65283 0.14006 0.0
C973 C 0.97496 0.63491 0.13396 0.0
C974 C 0.98788 0.6384 0.11717 0.0
C975 C 0.99476 0.62137 0.11149 0.0
C976 C 0.98863 0.60063 0.12239 0.0
C977 C 0.97553 0.59685 0.13898 0.0
C978 C 0.96867 0.61386 0.14475 0.0
C979 C 0.86994 0.6466 0.13388 0.0
C980 C 0.85502 0.62716 0.14594 0.0
C981 C 0.89558 0.65821 0.13514 0.0
C982 C 0.90673 0.6504 0.14835 0.0
C983 C 0.89185 0.63171 0.16096 0.0
C984 C 0.86617 0.62033 0.15989 0.0
C985 C 0.93372 0.66027 0.14778 0.0
C986 C 0.94234 0.64415 0.14325 0.0
C987 C 0.95074 0.68565 0.14984 0.0
C988 C 0.94274 0.70324 0.15568 0.0
C989 C 0.92921 0.69927 0.17221 0.0
C990 C 0.92185 0.71597 0.17775 0.0
C991 C 0.92783 0.73667 0.16686 0.0
C992 C 0.94134 0.7408 0.15045 0.0
C993 C 0.94889 0.72423 0.14489 0.0
H994 H 0.92206 0.74955 0.17116 0.0
H995 H 0.99395 0.58746 0.11796 0.0
H996 H 0.16712 0.75122 0.39911 0.0
H997 H 0.12232 0.72648 0.39716 0.0
H998 H 0.11937 0.78928 0.37593 0.0
H999 H 0.16442 0.81439 0.37836 0.0
H1000 H 0.08208 0.76338 0.39983 0.0
H1001 H 0.1176 0.74459 0.34794 0.0
H1002 H 0.14378 0.73146 0.33178 0.0
H1003 H 0.1044 0.6606 0.35804 0.0
H1004 H 0.07823 0.67344 0.37459 0.0
H1005 H 0.96163 0.69661 0.36151 0.0
H1006 H 0.00593 0.72285 0.36613 0.0
H1007 H 0.01043 0.66027 0.38585 0.0
H1008 H 0.96617 0.63379 0.3809 0.0
H1009 H 0.04695 0.6864 0.3627 0.0
H1010 H 0.01329 0.70509 0.41596 0.0
H1011 H 0.98695 0.71753 0.43273 0.0
H1012 H 0.02259 0.78737 0.40474 0.0
H1013 H 0.04893 0.77521 0.3876 0.0
C1014 C 0.15691 0.75985 0.39422 0.0
C1015 C 0.16924 0.7847 0.38878 0.0
C1016 C 0.13129 0.74564 0.39303 0.0
C1017 C 0.11744 0.75582 0.38603 0.0
C1018 C 0.12965 0.78096 0.38129 0.0
C1019 C 0.15536 0.7953 0.38266 0.0
C1020 C 0.0904 0.73999 0.38308 0.0
C1021 C 0.07442 0.74672 0.3915 0.0
C1022 C 0.0803 0.71787 0.37259 0.0
C1023 C 0.09603 0.71007 0.3626 0.0
C1024 C 0.11458 0.72625 0.35033 0.0
C1025 C 0.12943 0.71886 0.3411 0.0
C1026 C 0.12576 0.69522 0.34388 0.0
C1027 C 0.10723 0.67892 0.3559 0.0
C1028 C 0.09238 0.68625 0.36521 0.0
C1029 C 0.97201 0.6884 0.36686 0.0
C1030 C 0.96027 0.66307 0.37087 0.0
C1031 C 0.99737 0.70349 0.36959 0.0
C1032 C 0.01157 0.69367 0.3766 0.0
C1033 C 0.99992 0.66833 0.38047 0.0
C1034 C 0.97456 0.65321 0.37767 0.0
C1035 C 0.03861 0.70969 0.37953 0.0
C1036 C 0.0546 0.70303 0.37106 0.0
C1037 C 0.04871 0.73175 0.39006 0.0
C1038 C 0.03291 0.73913 0.40036 0.0
C1039 C 0.01538 0.72302 0.41327 0.0
C1040 C 1.00047 0.73004 0.42286 0.0
C1041 C 0.00305 0.7532 0.41977 0.0
C1042 C 0.02059 0.76942 0.4071 0.0
C1043 C 0.03553 0.76248 0.39746 0.0
H1044 H 0.9915 0.7586 0.42721 0.0
H1045 H 0.13727 0.68952 0.33672 0.0
H1046 H 0.36123 0.1711 0.37496 0.0
H1047 H 0.33976 0.12593 0.37685 0.0
H1048 H 0.40818 0.12742 0.36631 0.0
H1049 H 0.42948 0.17227 0.36416 0.0
H1050 H 0.37216 0.09263 0.3458 0.0
H1051 H 0.38304 0.11732 0.41018 0.0
H1052 H 0.37942 0.13893 0.43765 0.0
H1053 H 0.30065 0.09811 0.43297 0.0
H1054 H 0.30382 0.07648 0.4053 0.0
H1055 H 0.33869 0.97065 0.37142 0.0
H1056 H 0.35814 0.01552 0.37012 0.0
H1057 H 0.28816 0.01027 0.38139 0.0
H1058 H 0.26866 0.96544 0.38301 0.0
H1059 H 0.32358 0.04684 0.40122 0.0
H1060 H 0.31259 0.02168 0.33719 0.0
H1061 H 0.31613 1.00039 0.30948 0.0
H1062 H 0.39494 0.04231 0.31329 0.0
H1063 H 0.39187 0.06364 0.34119 0.0
C1064 C 0.37162 0.16172 0.37308 0.0
C1065 C 0.39701 0.17518 0.36947 0.0
C1066 C 0.35938 0.13594 0.37423 0.0
C1067 C 0.37237 0.12321 0.37187 0.0
C1068 C 0.39772 0.13673 0.36816 0.0
C1069 C 0.4099 0.1624 0.36702 0.0
C1070 C 0.35971 0.09582 0.37308 0.0
C1071 C 0.36178 0.08266 0.35802 0.0
C1072 C 0.34564 0.08267 0.38881 0.0
C1073 C 0.34368 0.09547 0.40555 0.0
C1074 C 0.36495 0.11308 0.41493 0.0
C1075 C 0.36298 0.12531 0.43055 0.0
C1076 C 0.33982 0.11996 0.43702 0.0
C1077 C 0.31858 0.10227 0.42792 0.0
C1078 C 0.32045 0.09 0.41228 0.0
C1079 C 0.32742 0.97902 0.37364 0.0
C1080 C 0.30207 0.96438 0.37723 0.0
C1081 C 0.33856 0.00471 0.37282 0.0
C1082 C 0.32458 0.01635 0.37542 0.0
C1083 C 0.29935 0.00178 0.37931 0.0
C1084 C 0.28821 0.9761 0.38017 0.0
C1085 C 0.33621 0.04366 0.37399 0.0
C1086 C 0.33392 0.0568 0.38899 0.0
C1087 C 0.35008 0.05682 0.35819 0.0
C1088 C 0.35199 0.04408 0.34138 0.0
C1089 C 0.33067 0.02623 0.3322 0.0
C1090 C 0.3326 0.01417 0.31645 0.0
C1091 C 0.35574 0.01995 0.30966 0.0
C1092 C 0.37702 0.03784 0.31858 0.0
C1093 C 0.3752 0.04993 0.33436 0.0
H1094 H 0.35719 0.0106 0.29746 0.0
H1095 H 0.33833 0.12947 0.4491 0.0
H1096 H 0.26268 0.4292 0.36963 0.0
H1097 H 0.28643 0.40835 0.36563 0.0
H1098 H 0.2217 0.33865 0.37769 0.0
H1099 H 0.19769 0.35959 0.3817 0.0
H1100 H 0.26259 0.34453 0.39652 0.0
H1101 H 0.24214 0.35227 0.33371 0.0
H1102 H 0.23864 0.37395 0.30624 0.0
H1103 H 0.31713 0.42094 0.30517 0.0
H1104 H 0.3211 0.39979 0.3328 0.0
H1105 H 0.31549 0.27238 0.36952 0.0
H1106 H 0.28908 0.29058 0.37124 0.0
H1107 H 0.35086 0.36165 0.35749 0.0
H1108 H 0.37746 0.34345 0.35552 0.0
H1109 H 0.30989 0.3536 0.33876 0.0
H1110 H 0.3301 0.34734 0.40229 0.0
H1111 H 0.33375 0.32629 0.4301 0.0
H1112 H 0.25563 0.27689 0.42986 0.0
H1113 H 0.25156 0.29743 0.40188 0.0
C1114 C 0.25344 0.40941 0.37142 0.0
C1115 C 0.22829 0.39602 0.37597 0.0
C1116 C 0.26705 0.39749 0.36902 0.0
C1117 C 0.25585 0.37186 0.37114 0.0
C1118 C 0.23074 0.35842 0.37591 0.0
C1119 C 0.21703 0.37038 0.37818 0.0
C1120 C 0.27063 0.35938 0.36873 0.0
C1121 C 0.27257 0.34615 0.38377 0.0
C1122 C 0.28419 0.36198 0.35224 0.0
C1123 C 0.2819 0.37458 0.33547 0.0
C1124 C 0.25865 0.36735 0.32772 0.0
C1125 C 0.25658 0.37953 0.3121 0.0
C1126 C 0.27764 0.39889 0.30403 0.0
C1127 C 0.30083 0.40599 0.31147 0.0
C1128 C 0.303 0.39389 0.3271 0.0
C1129 C 0.32354 0.29189 0.36683 0.0
C1130 C 0.3487 0.30645 0.36247 0.0
C1131 C 0.30837 0.30231 0.36788 0.0
C1132 C 0.31796 0.32759 0.36473 0.0
C1133 C 0.34298 0.34212 0.36002 0.0
C1134 C 0.35821 0.33169 0.35896 0.0
C1135 C 0.30194 0.33883 0.3666 0.0
C1136 C 0.29979 0.35186 0.35147 0.0
C1137 C 0.28818 0.33608 0.38301 0.0
C1138 C 0.29056 0.32376 0.39988 0.0
C1139 C 0.31373 0.33186 0.40808 0.0
C1140 C 0.31587 0.32005 0.42389 0.0
C1141 C 0.29495 0.30022 0.43171 0.0
C1142 C 0.27183 0.29222 0.42377 0.0
C1143 C 0.26959 0.30396 0.40795 0.0
H1144 H 0.29664 0.2911 0.44395 0.0
H1145 H 0.276 0.40838 0.292 0.0
H1146 H 0.04154 0.32226 0.38717 0.0
H1147 H 0.99672 0.2988 0.38548 0.0
H1148 H 0.99589 0.36282 0.36454 0.0
H1149 H 0.0409 0.38663 0.36653 0.0
H1150 H 0.96053 0.34018 0.3893 0.0
H1151 H 0.98642 0.31444 0.33552 0.0
H1152 H 0.00929 0.29863 0.31781 0.0
H1153 H 0.97339 0.23113 0.34887 0.0
H1154 H 0.95053 0.24667 0.36695 0.0
H1155 H 0.83512 0.2741 0.3606 0.0
H1156 H 0.88 0.2992 0.36106 0.0
H1157 H 0.88456 0.23726 0.3823 0.0
H1158 H 0.8395 0.21193 0.38139 0.0
H1159 H 0.91816 0.2599 0.3564 0.0
H1160 H 0.89207 0.28716 0.41027 0.0
H1161 H 0.86969 0.30421 0.42715 0.0
H1162 H 0.90627 0.37031 0.39451 0.0
H1163 H 0.92855 0.35349 0.37722 0.0
C1164 C 0.03188 0.33141 0.38219 0.0
C1165 C 0.0449 0.35633 0.37686 0.0
C1166 C 0.00618 0.31789 0.38114 0.0
C1167 C 0.99283 0.32883 0.37454 0.0
C1168 C 0.00573 0.35387 0.36957 0.0
C1169 C 0.0315 0.36746 0.37068 0.0
C1170 C 0.96544 0.31416 0.373 0.0
C1171 C 0.95127 0.32281 0.38186 0.0
C1172 C 0.95324 0.29124 0.36356 0.0
C1173 C 0.96694 0.28182 0.35271 0.0
C1174 C 0.98354 0.2963 0.33867 0.0
C1175 C 0.99648 0.28738 0.32855 0.0
C1176 C 0.99284 0.26392 0.33224 0.0
C1177 C 0.97621 0.24931 0.34604 0.0
C1178 C 0.96324 0.25816 0.35622 0.0
C1179 C 0.84571 0.2659 0.36546 0.0
C1180 C 0.83383 0.24117 0.37118 0.0
C1181 C 0.87139 0.28029 0.36577 0.0
C1182 C 0.88579 0.27035 0.37209 0.0
C1183 C 0.87392 0.24544 0.37747 0.0
C1184 C 0.84817 0.23097 0.37699 0.0
C1185 C 0.9132 0.28578 0.37289 0.0
C1186 C 0.92738 0.27729 0.36383 0.0
C1187 C 0.92539 0.30896 0.382 0.0
C1188 C 0.9118 0.31895 0.39232 0.0
C1189 C 0.89518 0.30524 0.40658 0.0
C1190 C 0.88255 0.31488 0.41625 0.0
C1191 C 0.88654 0.33831 0.4119 0.0
C1192 C 0.90317 0.35215 0.39786 0.0
C1193 C 0.91581 0.34258 0.38812 0.0
H1194 H 0.87674 0.34574 0.4194 0.0
H1195 H 0.00287 0.25704 0.32439 0.0
H1196 H 0.64921 0.86152 0.37996 0.0
H1197 H 0.66783 0.90585 0.37627 0.0
H1198 H 0.64128 0.89544 0.31959 0.0
H1199 H 0.62141 0.85064 0.32365 0.0
H1200 H 0.70056 0.94051 0.35703 0.0
H1201 H 0.62861 0.94088 0.30804 0.0
H1202 H 0.58559 0.91387 0.29814 0.0
H1203 H 0.56874 0.877 0.35104 0.0
H1204 H 0.61157 0.90414 0.3614 0.0
H1205 H 0.73732 0.06384 0.33294 0.0
H1206 H 0.72207 0.0197 0.33079 0.0
H1207 H 0.66165 0.00544 0.36718 0.0
H1208 H 0.67672 0.04974 0.36931 0.0
H1209 H 0.6465 0.97326 0.33783 0.0
H1210 H 0.71047 0.0034 0.38406 0.0
H1211 H 0.75222 0.03034 0.39646 0.0
H1212 H 0.78251 0.00533 0.35376 0.0
H1213 H 0.74093 0.97847 0.34095 0.0
C1214 C 0.64762 0.86865 0.36661 0.0
C1215 C 0.63365 0.85264 0.35216 0.0
C1216 C 0.65832 0.89408 0.36449 0.0
C1217 C 0.65557 0.90413 0.34779 0.0
C1218 C 0.64314 0.88818 0.3328 0.0
C1219 C 0.632 0.8626 0.33505 0.0
C1220 C 0.66462 0.93109 0.34675 0.0
C1221 C 0.68874 0.9476 0.35268 0.0
C1222 C 0.64923 0.94056 0.34129 0.0
C1223 C 0.62334 0.92436 0.3354 0.0
C1224 C 0.61569 0.92706 0.31758 0.0
C1225 C 0.59136 0.91173 0.31188 0.0
C1226 C 0.57449 0.89364 0.32391 0.0
C1227 C 0.58187 0.89096 0.34171 0.0
C1228 C 0.60616 0.90633 0.34751 0.0
C1229 C 0.72075 0.05137 0.34049 0.0
C1230 C 0.70831 0.06037 0.35139 0.0
C1231 C 0.71208 0.0261 0.33925 0.0
C1232 C 0.69082 0.00924 0.34893 0.0
C1233 C 0.67809 0.01811 0.35957 0.0
C1234 C 0.6868 0.04344 0.36085 0.0
C1235 C 0.68225 0.98244 0.34829 0.0
C1236 C 0.65832 0.96608 0.34199 0.0
C1237 C 0.69762 0.97303 0.35375 0.0
C1238 C 0.72263 0.98914 0.36142 0.0
C1239 C 0.72606 0.0038 0.37722 0.0
C1240 C 0.74968 0.01902 0.38434 0.0
C1241 C 0.77001 0.0196 0.37587 0.0
C1242 C 0.76675 0.0049 0.36029 0.0
C1243 C 0.74316 0.98966 0.3531 0.0
H1244 H 0.78829 0.03139 0.38141 0.0
H1245 H 0.55568 0.88178 0.31944 0.0
H1246 H 0.62856 0.66138 0.38347 0.0
H1247 H 0.65545 0.6436 0.38532 0.0
H1248 H 0.71839 0.71462 0.37321 0.0
H1249 H 0.69164 0.73242 0.37105 0.0
H1250 H 0.72018 0.67999 0.3531 0.0
H1251 H 0.70714 0.69024 0.41753 0.0
H1252 H 0.68265 0.6857 0.44566 0.0
H1253 H 0.64844 0.60704 0.44185 0.0
H1254 H 0.6725 0.61109 0.41353 0.0
H1255 H 0.81048 0.6464 0.37568 0.0
H1256 H 0.78585 0.66694 0.37679 0.0
H1257 H 0.7201 0.59674 0.38521 0.0
H1258 H 0.74451 0.57626 0.38408 0.0
H1259 H 0.7211 0.63234 0.40795 0.0
H1260 H 0.73289 0.62204 0.34306 0.0
H1261 H 0.75734 0.6263 0.31496 0.0
H1262 H 0.79383 0.70503 0.3197 0.0
H1263 H 0.76985 0.70123 0.34803 0.0
C1264 C 0.64813 0.67325 0.38128 0.0
C1265 C 0.65792 0.69835 0.37714 0.0
C1266 C 0.66352 0.66307 0.38241 0.0
C1267 C 0.68904 0.6778 0.37957 0.0
C1268 C 0.6988 0.70286 0.37544 0.0
C1269 C 0.68345 0.71302 0.37428 0.0
C1270 C 0.70553 0.66708 0.38057 0.0
C1271 C 0.72065 0.66991 0.36523 0.0
C1272 C 0.70585 0.65347 0.39622 0.0
C1273 C 0.69146 0.65097 0.41331 0.0
C1274 C 0.69426 0.67197 0.42261 0.0
C1275 C 0.68048 0.66948 0.43861 0.0
C1276 C 0.66395 0.64609 0.44551 0.0
C1277 C 0.66123 0.62514 0.43647 0.0
C1278 C 0.67495 0.62752 0.42046 0.0
C1279 C 0.79081 0.63545 0.37792 0.0
C1280 C 0.7794 0.60976 0.37977 0.0
C1281 C 0.77675 0.64715 0.37849 0.0
C1282 C 0.75107 0.63335 0.38096 0.0
C1283 C 0.73984 0.60778 0.38332 0.0
C1284 C 0.75382 0.5961 0.38263 0.0
C1285 C 0.73568 0.64527 0.38049 0.0
C1286 C 0.72074 0.64259 0.3959 0.0
C1287 C 0.73551 0.65901 0.3649 0.0
C1288 C 0.74978 0.66135 0.34779 0.0
C1289 C 0.74627 0.64026 0.3382 0.0
C1290 C 0.76002 0.64259 0.32222 0.0
C1291 C 0.77718 0.66592 0.31558 0.0
C1292 C 0.78056 0.68697 0.32488 0.0
C1293 C 0.7669 0.68474 0.3409 0.0
H1294 H 0.7878 0.66768 0.30321 0.0
H1295 H 0.6533 0.64421 0.4579 0.0
H1296 H 0.79637 0.14888 0.89541 0.0
H1297 H 0.77059 0.10397 0.89593 0.0
H1298 H 0.75586 0.10407 0.83724 0.0
H1299 H 0.78235 0.14902 0.8365 0.0
H1300 H 0.71296 0.08061 0.86232 0.0
H1301 H 0.78747 0.07993 0.84763 0.0
H1302 H 0.83094 0.09159 0.85203 0.0
H1303 H 0.81446 0.05991 0.90684 0.0
H1304 H 0.77093 0.04836 0.90287 0.0
H1305 H 0.6376 0.95177 0.85417 0.0
H1306 H 0.66885 0.99484 0.84964 0.0
H1307 H 0.70227 0.9945 0.90216 0.0
H1308 H 0.67169 0.95094 0.90626 0.0
H1309 H 0.73666 0.01842 0.87859 0.0
H1310 H 0.66466 0.02143 0.89584 0.0
H1311 H 0.62122 0.01094 0.89417 0.0
H1312 H 0.63254 0.03986 0.83856 0.0
H1313 H 0.67598 0.05022 0.8398 0.0
C1314 C 0.78813 0.13925 0.88253 0.0
C1315 C 0.79116 0.15234 0.86594 0.0
C1316 C 0.77341 0.11365 0.88285 0.0
C1317 C 0.76127 0.10081 0.86665 0.0
C1318 C 0.76508 0.11373 0.84988 0.0
C1319 C 0.78023 0.13933 0.84947 0.0
C1320 C 0.74304 0.07422 0.8677 0.0
C1321 C 0.71809 0.06687 0.86553 0.0
C1322 C 0.74982 0.05663 0.87263 0.0
C1323 C 0.77597 0.06347 0.87501 0.0
C1324 C 0.79315 0.07564 0.86069 0.0
C1325 C 0.81779 0.08219 0.86309 0.0
C1326 C 0.82547 0.07655 0.87972 0.0
C1327 C 0.80849 0.06428 0.89397 0.0
C1328 C 0.78383 0.05771 0.89164 0.0
C1329 C 0.65155 0.96091 0.86479 0.0
C1330 C 0.65213 0.94805 0.88063 0.0
C1331 C 0.66938 0.98558 0.86222 0.0
C1332 C 0.68772 0.99813 0.87571 0.0
C1333 C 0.68833 0.98526 0.89154 0.0
C1334 C 0.67079 0.9604 0.89392 0.0
C1335 C 0.70634 0.0246 0.87325 0.0
C1336 C 0.7314 0.03202 0.87525 0.0
C1337 C 0.69961 0.0424 0.86859 0.0
C1338 C 0.67352 0.03636 0.86784 0.0
C1339 C 0.65784 0.0254 0.88321 0.0
C1340 C 0.63322 0.01949 0.88234 0.0
C1341 C 0.6241 0.02466 0.86625 0.0
C1342 C 0.63962 0.03583 0.85101 0.0
C1343 C 0.66425 0.04173 0.85178 0.0
H1344 H 0.60503 0.02005 0.86561 0.0
H1345 H 0.84455 0.08163 0.88155 0.0
H1346 H 0.62361 0.77345 0.83043 0.0
H1347 H 0.64559 0.75035 0.82751 0.0
H1348 H 0.65128 0.7493 0.88738 0.0
H1349 H 0.62919 0.77195 0.89036 0.0
H1350 H 0.6902 0.75498 0.83921 0.0
H1351 H 0.6342 0.69086 0.90041 0.0
H1352 H 0.59395 0.6756 0.91572 0.0
H1353 H 0.56423 0.68696 0.86524 0.0
H1354 H 0.60417 0.70187 0.84954 0.0
H1355 H 0.74214 0.68348 0.87106 0.0
H1356 H 0.72539 0.71097 0.86723 0.0
H1357 H 0.65714 0.65018 0.84709 0.0
H1358 H 0.67353 0.62249 0.85136 0.0
H1359 H 0.64766 0.67422 0.87149 0.0
H1360 H 0.69891 0.69693 0.8177 0.0
H1361 H 0.7371 0.71029 0.79983 0.0
H1362 H 0.77271 0.77808 0.8306 0.0
H1363 H 0.73483 0.76498 0.84883 0.0
C1364 C 0.63009 0.76875 0.84291 0.0
C1365 C 0.62451 0.77418 0.86063 0.0
C1366 C 0.64261 0.75559 0.84123 0.0
C1367 C 0.64961 0.74773 0.85725 0.0
C1368 C 0.64566 0.75484 0.87486 0.0
C1369 C 0.63311 0.76783 0.87654 0.0
C1370 C 0.65896 0.73028 0.85584 0.0
C1371 C 0.68096 0.73731 0.84624 0.0
C1372 C 0.64648 0.70695 0.8646 0.0
C1373 C 0.62228 0.69774 0.87387 0.0
C1374 C 0.61905 0.69001 0.89256 0.0
C1375 C 0.59629 0.68142 0.90131 0.0
C1376 C 0.57657 0.6804 0.89148 0.0
C1377 C 0.57955 0.68786 0.87286 0.0
C1378 C 0.60225 0.6964 0.86403 0.0
C1379 C 0.72362 0.67599 0.86571 0.0
C1380 C 0.70914 0.65078 0.86156 0.0
C1381 C 0.71412 0.69178 0.8634 0.0
C1382 C 0.69009 0.68273 0.85665 0.0
C1383 C 0.67574 0.65761 0.85229 0.0
C1384 C 0.68514 0.64179 0.85474 0.0
C1385 C 0.67935 0.69907 0.85524 0.0
C1386 C 0.65698 0.69183 0.86437 0.0
C1387 C 0.69125 0.7219 0.84569 0.0
C1388 C 0.71408 0.72987 0.83474 0.0
C1389 C 0.71494 0.7146 0.82075 0.0
C1390 C 0.73653 0.72215 0.81054 0.0
C1391 C 0.75734 0.745 0.8141 0.0
C1392 C 0.75658 0.76038 0.82786 0.0
C1393 C 0.73505 0.75291 0.83813 0.0
H1394 H 0.77403 0.7508 0.80618 0.0
H1395 H 0.55897 0.67377 0.89828 0.0
H1396 H 0.03592 0.72912 0.89216 0.0
H1397 H 0.99096 0.70661 0.89232 0.0
H1398 H 0.9907 0.63862 0.88266 0.0
H1399 H 0.03575 0.66105 0.88231 0.0
H1400 H 0.96007 0.64401 0.85892 0.0
H1401 H 0.97493 0.65058 0.92422 0.0
H1402 H 0.99286 0.67116 0.95413 0.0
H1403 H 0.95746 0.7143 0.94852 0.0
H1404 H 0.93957 0.69414 0.91847 0.0
H1405 H 0.83226 0.56373 0.87428 0.0
H1406 H 0.8772 0.5854 0.87631 0.0
H1407 H 0.87829 0.65397 0.88503 0.0
H1408 H 0.83317 0.63228 0.88295 0.0
H1409 H 0.90837 0.64778 0.90969 0.0
H1410 H 0.8975 0.64502 0.84325 0.0
H1411 H 0.88154 0.62658 0.81239 0.0
H1412 H 0.90949 0.57717 0.82015 0.0
H1413 H 0.9259 0.59557 0.85099 0.0
C1414 C 0.02634 0.70935 0.89023 0.0
C1415 C 0.03946 0.69692 0.88713 0.0
C1416 C 1.0006 0.69648 0.89039 0.0
C1417 C 0.98744 0.67091 0.88755 0.0
C1418 C 1.00048 0.65836 0.88482 0.0
C1419 C 0.02624 0.67122 0.88468 0.0
C1420 C 0.9601 0.6575 0.88653 0.0
C1421 C 0.94876 0.64449 0.87017 0.0
C1422 C 0.94536 0.65873 0.90097 0.0
C1423 C 0.95609 0.67097 0.91902 0.0
C1424 C 0.97113 0.66457 0.92932 0.0
C1425 C 0.98125 0.67614 0.9463 0.0
C1426 C 0.97635 0.69407 0.9532 0.0
C1427 C 0.96126 0.70042 0.94315 0.0
C1428 C 0.9511 0.6889 0.92615 0.0
C1429 C 0.84209 0.58344 0.87659 0.0
C1430 C 0.82927 0.59636 0.87845 0.0
C1431 C 0.86777 0.59582 0.87766 0.0
C1432 C 0.88114 0.62135 0.88067 0.0
C1433 C 0.86834 0.63427 0.88268 0.0
C1434 C 0.84261 0.6219 0.88145 0.0
C1435 C 0.90843 0.63438 0.88207 0.0
C1436 C 0.91973 0.64728 0.89849 0.0
C1437 C 0.9232 0.63316 0.86768 0.0
C1438 C 0.91269 0.62149 0.84947 0.0
C1439 C 0.90004 0.63008 0.83843 0.0
C1440 C 0.89104 0.61972 0.82091 0.0
C1441 C 0.8944 0.60064 0.81435 0.0
C1442 C 0.90687 0.59193 0.82526 0.0
C1443 C 0.91613 0.60239 0.84272 0.0
H1444 H 0.88742 0.59265 0.80077 0.0
H1445 H 0.9842 0.70302 0.96636 0.0
H1446 H 0.33345 0.07769 0.84108 0.0
H1447 H 0.30115 0.03453 0.8405 0.0
H1448 H 0.35145 0.0137 0.86384 0.0
H1449 H 0.38414 0.05693 0.86405 0.0
H1450 H 0.32513 0.98241 0.8374 0.0
H1451 H 0.30746 0.01647 0.89083 0.0
H1452 H 0.29965 0.04576 0.90826 0.0
H1453 H 0.23593 0.02619 0.87454 0.0
H1454 H 0.24356 0.99701 0.85672 0.0
H1455 H 0.21584 0.87373 0.88572 0.0
H1456 H 0.24363 0.91806 0.88338 0.0
H1457 H 0.24435 0.91197 0.82349 0.0
H1458 H 0.21651 0.86735 0.82584 0.0
H1459 H 0.2449 0.95672 0.86793 0.0
H1460 H 0.30362 0.95034 0.80839 0.0
H1461 H 0.31347 0.92008 0.7949 0.0
H1462 H 0.29842 0.88263 0.84748 0.0
H1463 H 0.28888 0.91288 0.86135 0.0
C1464 C 0.3377 0.06396 0.84609 0.0
C1465 C 0.36137 0.07079 0.85272 0.0
C1466 C 0.31915 0.03926 0.8458 0.0
C1467 C 0.32373 0.02085 0.85235 0.0
C1468 C 0.34746 0.02757 0.85871 0.0
C1469 C 0.36611 0.0523 0.8589 0.0
C1470 C 0.30371 0.99466 0.85275 0.0
C1471 C 0.30756 0.97684 0.844 0.0
C1472 C 0.28088 0.98723 0.86164 0.0
C1473 C 0.27623 0.00475 0.87232 0.0
C1474 C 0.29189 0.01856 0.88703 0.0
C1475 C 0.28748 0.03511 0.897 0.0
C1476 C 0.26735 0.03789 0.89248 0.0
C1477 C 0.25154 0.02406 0.878 0.0
C1478 C 0.25589 0.00749 0.86798 0.0
C1479 C 0.22148 0.8819 0.87202 0.0
C1480 C 0.21435 0.8671 0.85597 0.0
C1481 C 0.23739 0.90726 0.8707 0.0
C1482 C 0.24649 0.9183 0.8533 0.0
C1483 C 0.23793 0.90378 0.8371 0.0
C1484 C 0.22198 0.87834 0.83843 0.0
C1485 C 0.26623 0.94455 0.85241 0.0
C1486 C 0.26236 0.96237 0.8611 0.0
C1487 C 0.28929 0.95185 0.84397 0.0
C1488 C 0.29529 0.93373 0.83583 0.0
C1489 C 0.30252 0.93571 0.81708 0.0
C1490 C 0.30807 0.91858 0.80938 0.0
C1491 C 0.30658 0.89946 0.82033 0.0
C1492 C 0.29956 0.89745 0.83902 0.0
C1493 C 0.29406 0.91456 0.8468 0.0
H1494 H 0.31079 0.88616 0.81432 0.0
H1495 H 0.26395 0.05071 0.90021 0.0
H1496 H 0.2996 0.35122 0.90019 0.0
H1497 H 0.31624 0.32385 0.9058 0.0
H1498 H 0.2983 0.29684 0.84942 0.0
H1499 H 0.28176 0.3242 0.84365 0.0
H1500 H 0.29035 0.25983 0.87627 0.0
H1501 H 0.354 0.34231 0.85728 0.0
H1502 H 0.37696 0.38751 0.86077 0.0
H1503 H 0.3978 0.38014 0.91634 0.0
H1504 H 0.37492 0.33493 0.9132 0.0
H1505 H 0.37167 0.21716 0.85367 0.0
H1506 H 0.34743 0.23777 0.85523 0.0
H1507 H 0.38375 0.27303 0.90663 0.0
H1508 H 0.40879 0.25314 0.90465 0.0
H1509 H 0.38075 0.30492 0.88622 0.0
H1510 H 0.32232 0.2236 0.90492 0.0
H1511 H 0.29846 0.17829 0.90328 0.0
H1512 H 0.26613 0.18229 0.85161 0.0
H1513 H 0.29006 0.22765 0.85279 0.0
C1514 C 0.2986 0.339 0.88913 0.0
C1515 C 0.28957 0.34003 0.87141 0.0
C1516 C 0.30823 0.32346 0.89234 0.0
C1517 C 0.3088 0.30859 0.87794 0.0
C1518 C 0.29809 0.30822 0.8607 0.0
C1519 C 0.28869 0.3239 0.85742 0.0
C1520 C 0.32265 0.29531 0.88012 0.0
C1521 C 0.31013 0.26961 0.87836 0.0
C1522 C 0.34833 0.30809 0.88337 0.0
C1523 C 0.36261 0.33528 0.88506 0.0
C1524 C 0.36344 0.35036 0.87026 0.0
C1525 C 0.37648 0.37598 0.87217 0.0
C1526 C 0.38886 0.38672 0.88877 0.0
C1527 C 0.3883 0.37185 0.90347 0.0
C1528 C 0.37533 0.34622 0.90163 0.0
C1529 C 0.37442 0.22926 0.86533 0.0
C1530 C 0.39203 0.23352 0.87907 0.0
C1531 C 0.36042 0.24091 0.86629 0.0
C1532 C 0.36334 0.25663 0.88125 0.0
C1533 C 0.38104 0.26093 0.89499 0.0
C1534 C 0.39531 0.24954 0.89387 0.0
C1535 C 0.34856 0.26922 0.88215 0.0
C1536 C 0.36093 0.29491 0.88441 0.0
C1537 C 0.32266 0.25634 0.87964 0.0
C1538 C 0.30815 0.22904 0.87888 0.0
C1539 C 0.31025 0.21482 0.89314 0.0
C1540 C 0.2967 0.18913 0.8923 0.0
C1541 C 0.28083 0.17742 0.87733 0.0
C1542 C 0.27844 0.19138 0.86319 0.0
C1543 C 0.29198 0.21709 0.86395 0.0
H1544 H 0.27035 0.15752 0.87671 0.0
H1545 H 0.39891 0.40656 0.89025 0.0
H1546 H 0.95846 0.32906 0.88097 0.0
H1547 H 0.00187 0.34116 0.87936 0.0
H1548 H 0.98532 0.28513 0.8379 0.0
H1549 H 0.94182 0.27338 0.83902 0.0
H1550 H 0.02856 0.321 0.88574 0.0
H1551 H 0.03303 0.30609 0.80682 0.0
H1552 H 0.01094 0.30442 0.7779 0.0
H1553 H 0.98734 0.35156 0.80253 0.0
H1554 H 0.00953 0.35375 0.83149 0.0
H1555 H 0.1504 0.34846 0.86675 0.0
H1556 H 0.10531 0.32619 0.86605 0.0
H1557 H 0.10662 0.38765 0.83797 0.0
H1558 H 0.15161 0.40962 0.83819 0.0
H1559 H 0.07067 0.34601 0.82447 0.0
H1560 H 0.09935 0.3803 0.88558 0.0
H1561 H 0.12232 0.38696 0.91493 0.0
H1562 H 0.08082 0.30954 0.92674 0.0
H1563 H 0.05782 0.30238 0.89732 0.0
C1564 C 0.96397 0.31913 0.87161 0.0
C1565 C 0.94668 0.30044 0.85995 0.0
C1566 C 0.98884 0.32604 0.87074 0.0
C1567 C 0.99698 0.31437 0.85828 0.0
C1568 C 0.97957 0.29478 0.84734 0.0
C1569 C 0.95468 0.288 0.84807 0.0
C1570 C 0.02379 0.32356 0.85625 0.0
C1571 C 0.0377 0.32627 0.87231 0.0
C1572 C 0.03589 0.33078 0.83877 0.0
C1573 C 0.02266 0.3298 0.82138 0.0
C1574 C 0.02316 0.31613 0.80604 0.0
C1575 C 0.01062 0.31509 0.78964 0.0
C1576 C 0.99766 0.32779 0.78841 0.0
C1577 C 0.99729 0.34164 0.80354 0.0
C1578 C 0.00983 0.34277 0.81995 0.0
C1579 C 0.14102 0.35698 0.86012 0.0
C1580 C 0.15442 0.38081 0.85265 0.0
C1581 C 0.11529 0.34433 0.85985 0.0
C1582 C 0.10257 0.35547 0.85232 0.0
C1583 C 0.11601 0.37875 0.84396 0.0
C1584 C 0.14172 0.39128 0.84407 0.0
C1585 C 0.07538 0.34358 0.85398 0.0
C1586 C 0.06143 0.34035 0.83785 0.0
C1587 C 0.06333 0.33651 0.87145 0.0
C1588 C 0.07707 0.34077 0.88916 0.0
C1589 C 0.09526 0.36467 0.89438 0.0
C1590 C 0.10826 0.36854 0.91103 0.0
C1591 C 0.10309 0.34867 0.92266 0.0
C1592 C 0.08484 0.3249 0.9177 0.0
C1593 C 0.07181 0.32093 0.90104 0.0
H1594 H 0.11317 0.3517 0.93555 0.0
H1595 H 0.98795 0.32695 0.77571 0.0
H1596 H 0.83908 0.18047 0.63817 0.0
H1597 H 0.88405 0.20584 0.63799 0.0
H1598 H 0.87815 0.27151 0.63664 0.0
H1599 H 0.83335 0.24617 0.63595 0.0
H1600 H 0.90884 0.2755 0.61182 0.0
H1601 H 0.90218 0.25441 0.67771 0.0
H1602 H 0.88898 0.22649 0.70488 0.0
H1603 H 0.92237 0.18746 0.68111 0.0
H1604 H 0.93609 0.21538 0.65397 0.0
H1605 H 0.03341 0.36393 0.6298 0.0
H1606 H 0.98892 0.33666 0.6314 0.0
H1607 H 0.99866 0.27343 0.62756 0.0
H1608 H 0.04331 0.30063 0.62637 0.0
H1609 H 0.96648 0.267 0.65429 0.0
H1610 H 0.97759 0.29259 0.59019 0.0
H1611 H 0.99248 0.32259 0.56441 0.0
H1612 H 0.95041 0.35431 0.58533 0.0
H1613 H 0.9355 0.32468 0.61139 0.0
C1614 C 0.84746 0.20033 0.63804 0.0
C1615 C 0.83283 0.2114 0.63693 0.0
C1616 C 0.87317 0.21485 0.63808 0.0
C1617 C 0.88464 0.24069 0.63743 0.0
C1618 C 0.86985 0.25166 0.63703 0.0
C1619 C 0.84423 0.23717 0.63668 0.0
C1620 C 0.91186 0.25633 0.63572 0.0
C1621 C 0.92139 0.27386 0.62132 0.0
C1622 C 0.92841 0.25376 0.64765 0.0
C1623 C 0.91985 0.23674 0.66375 0.0
C1624 C 0.90652 0.23974 0.67824 0.0
C1625 C 0.89903 0.22399 0.69365 0.0
C1626 C 0.90462 0.20508 0.69463 0.0
C1627 C 0.91796 0.20205 0.6803 0.0
C1628 C 0.9257 0.2179 0.66496 0.0
C1629 C 0.02611 0.34423 0.62916 0.0
C1630 C 0.04192 0.33446 0.62793 0.0
C1631 C 1.00063 0.32865 0.63002 0.0
C1632 C 0.9904 0.30298 0.6294 0.0
C1633 C 0.00614 0.29317 0.62805 0.0
C1634 C 0.03165 0.30875 0.6273 0.0
C1635 C 0.96333 0.2864 0.63064 0.0
C1636 C 0.95387 0.26863 0.64484 0.0
C1637 C 0.94683 0.28886 0.6186 0.0
C1638 C 0.95558 0.30653 0.60282 0.0
C1639 C 0.97163 0.30606 0.58936 0.0
C1640 C 0.98006 0.32298 0.57469 0.0
C1641 C 0.97244 0.34038 0.57326 0.0
C1642 C 0.95631 0.34083 0.58647 0.0
C1643 C 0.94784 0.32396 0.60117 0.0
H1644 H 0.979 0.35347 0.56189 0.0
H1645 H 0.89874 0.19286 0.70654 0.0
H1646 H 0.56909 0.82937 0.61901 0.0
H1647 H 0.59053 0.8742 0.62023 0.0
H1648 H 0.66038 0.87646 0.61906 0.0
H1649 H 0.63878 0.83119 0.61825 0.0
H1650 H 0.66091 0.90761 0.6446 0.0
H1651 H 0.6385 0.89256 0.58044 0.0
H1652 H 0.611 0.87349 0.5535 0.0
H1653 H 0.56626 0.90368 0.5714 0.0
H1654 H 0.59331 0.92266 0.5986 0.0
H1655 H 0.72575 0.03819 0.63075 0.0
H1656 H 0.70914 0.99393 0.62664 0.0
H1657 H 0.63532 0.98196 0.63008 0.0
H1658 H 0.65176 0.02618 0.63407 0.0
H1659 H 0.64007 0.9563 0.6015 0.0
H1660 H 0.6612 0.96887 0.66675 0.0
H1661 H 0.68883 0.98786 0.69364 0.0
H1662 H 0.73653 0.96245 0.67315 0.0
H1663 H 0.70933 0.94357 0.64599 0.0
C1664 C 0.58903 0.83939 0.61888 0.0
C1665 C 0.60228 0.8268 0.61844 0.0
C1666 C 0.60129 0.86507 0.61949 0.0
C1667 C 0.62711 0.87882 0.61943 0.0
C1668 C 0.64045 0.86627 0.61903 0.0
C1669 C 0.62812 0.84045 0.61849 0.0
C1670 C 0.63992 0.90621 0.6204 0.0
C1671 C 0.65671 0.9183 0.63494 0.0
C1672 C 0.63414 0.9202 0.60804 0.0
C1673 C 0.61785 0.90888 0.59165 0.0
C1674 C 0.6227 0.89499 0.57871 0.0
C1675 C 0.60721 0.88422 0.56338 0.0
C1676 C 0.58687 0.88734 0.56076 0.0
C1677 C 0.58201 0.90128 0.57345 0.0
C1678 C 0.59744 0.91207 0.58881 0.0
C1679 C 0.70597 0.02616 0.63066 0.0
C1680 C 0.69009 0.03576 0.63279 0.0
C1681 C 0.69651 1.00082 0.62837 0.0
C1682 C 0.67097 0.98456 0.6282 0.0
C1683 C 0.65509 0.99413 0.63017 0.0
C1684 C 0.66453 0.01944 0.63252 0.0
C1685 C 0.66071 0.95759 0.62584 0.0
C1686 C 0.64443 0.94561 0.61103 0.0
C1687 C 0.66703 0.94374 0.6379 0.0
C1688 C 0.68338 0.95505 0.65423 0.0
C1689 C 0.67769 0.96751 0.66789 0.0
C1690 C 0.69325 0.97822 0.6832 0.0
C1691 C 0.71446 0.97643 0.68507 0.0
C1692 C 0.72012 0.96386 0.67167 0.0
C1693 C 0.70463 0.95314 0.65632 0.0
H1694 H 0.72649 0.98473 0.69694 0.0
H1695 H 0.57489 0.87898 0.54888 0.0
H1696 H 0.67471 0.72332 0.66243 0.0
H1697 H 0.7031 0.70731 0.66028 0.0
H1698 H 0.6614 0.66136 0.614 0.0
H1699 H 0.63269 0.67671 0.6164 0.0
H1700 H 0.67116 0.63583 0.63738 0.0
H1701 H 0.71837 0.71547 0.60867 0.0
H1702 H 0.73857 0.76072 0.60695 0.0
H1703 H 0.78394 0.7673 0.65388 0.0
H1704 H 0.76377 0.72205 0.65603 0.0
H1705 H 0.74833 0.59759 0.60079 0.0
H1706 H 0.72839 0.62225 0.60339 0.0
H1707 H 0.77007 0.65655 0.65312 0.0
H1708 H 0.78964 0.63097 0.65101 0.0
H1709 H 0.76169 0.6886 0.63087 0.0
H1710 H 0.71488 0.60792 0.65788 0.0
H1711 H 0.69484 0.56269 0.65841 0.0
H1712 H 0.64809 0.55803 0.61303 0.0
H1713 H 0.6682 0.60335 0.61207 0.0
C1714 C 0.67162 0.70981 0.65179 0.0
C1715 C 0.6514 0.70123 0.63962 0.0
C1716 C 0.68795 0.70079 0.6505 0.0
C1717 C 0.68455 0.68331 0.63685 0.0
C1718 C 0.6644 0.67481 0.62467 0.0
C1719 C 0.64799 0.68363 0.62606 0.0
C1720 C 0.70135 0.67309 0.63548 0.0
C1721 C 0.69091 0.64741 0.63574 0.0
C1722 C 0.72724 0.68818 0.6339 0.0
C1723 C 0.73936 0.71537 0.63264 0.0
C1724 C 0.7325 0.72656 0.61872 0.0
C1725 C 0.74397 0.75221 0.61765 0.0
C1726 C 0.76247 0.76687 0.63033 0.0
C1727 C 0.76958 0.75592 0.64409 0.0
C1728 C 0.75814 0.73027 0.64523 0.0
C1729 C 0.75353 0.61058 0.61219 0.0
C1730 C 0.77008 0.61199 0.62598 0.0
C1731 C 0.74209 0.62465 0.61364 0.0
C1732 C 0.74709 0.64048 0.62886 0.0
C1733 C 0.76545 0.6438 0.64163 0.0
C1734 C 0.77664 0.62931 0.64039 0.0
C1735 C 0.73131 0.65145 0.63227 0.0
C1736 C 0.74193 0.67714 0.63255 0.0
C1737 C 0.70549 0.63639 0.6342 0.0
C1738 C 0.69323 0.60908 0.63483 0.0
C1739 C 0.70047 0.59729 0.64794 0.0
C1740 C 0.68907 0.57162 0.64832 0.0
C1741 C 0.67022 0.55748 0.63573 0.0
C1742 C 0.66271 0.56901 0.62276 0.0
C1743 C 0.6741 0.59469 0.62231 0.0
H1744 H 0.6614 0.5376 0.63604 0.0
H1745 H 0.77134 0.78673 0.62947 0.0
H1746 H 0.93334 0.65489 0.59711 0.0
H1747 H 0.97582 0.68798 0.60209 0.0
H1748 H 0.98811 0.64113 0.63919 0.0
H1749 H 0.94584 0.60786 0.63412 0.0
H1750 H 0.00192 0.68938 0.65373 0.0
H1751 H 0.01295 0.65059 0.59912 0.0
H1752 H 0.00405 0.63472 0.56692 0.0
H1753 H 0.02367 0.70665 0.54667 0.0
H1754 H 0.03236 0.72287 0.5788 0.0
H1755 H 0.13146 0.75061 0.66396 0.0
H1756 H 0.08699 0.72421 0.66053 0.0
H1757 H 0.08753 0.76922 0.61481 0.0
H1758 H 0.13225 0.79513 0.61788 0.0
H1759 H 0.06567 0.7242 0.60433 0.0
H1760 H 0.05463 0.7641 0.65713 0.0
H1761 H 0.06111 0.78133 0.68889 0.0
H1762 H 0.0407 0.71053 0.71199 0.0
H1763 H 0.03391 0.69283 0.68035 0.0
C1764 C 0.94518 0.65155 0.60616 0.0
C1765 C 0.93628 0.62881 0.61525 0.0
C1766 C 0.9694 0.67046 0.60899 0.0
C1767 C 0.98496 0.66697 0.62108 0.0
C1768 C 0.97627 0.64415 0.62988 0.0
C1769 C 0.9522 0.62514 0.62686 0.0
C1770 C 0.01017 0.68728 0.62489 0.0
C1771 C 0.016 0.6969 0.64301 0.0
C1772 C 0.02811 0.69759 0.6107 0.0
C1773 C 0.02303 0.68788 0.59138 0.0
C1774 C 0.01515 0.66297 0.58782 0.0
C1775 C 0.01019 0.65392 0.56958 0.0
C1776 C 0.01322 0.66965 0.55476 0.0
C1777 C 0.02129 0.69448 0.55816 0.0
C1778 C 0.02625 0.70361 0.57638 0.0
C1779 C 0.12192 0.7553 0.6536 0.0
C1780 C 0.13509 0.77497 0.6413 0.0
C1781 C 0.09648 0.74022 0.65164 0.0
C1782 C 0.08379 0.74478 0.63747 0.0
C1783 C 0.09688 0.76533 0.62584 0.0
C1784 C 0.12236 0.78019 0.62766 0.0
C1785 C 0.05772 0.72644 0.63331 0.0
C1786 C 0.05164 0.71702 0.61509 0.0
C1787 C 0.03945 0.7166 0.64735 0.0
C1788 C 0.04393 0.7272 0.66638 0.0
C1789 C 0.05162 0.75223 0.66898 0.0
C1790 C 0.05519 0.76204 0.68697 0.0
C1791 C 0.05134 0.74704 0.70245 0.0
C1792 C 0.04369 0.72213 0.69999 0.0
C1793 C 0.03986 0.71217 0.68204 0.0
H1794 H 0.0543 0.75471 0.71635 0.0
H1795 H 0.00937 0.66261 0.54065 0.0
H1796 H 0.31986 0.93995 0.61192 0.0
H1797 H 0.32758 0.98165 0.60729 0.0
H1798 H 0.24957 0.95389 0.60166 0.0
H1799 H 0.24163 0.91198 0.60699 0.0
H1800 H 0.32098 0.00827 0.58317 0.0
H1801 H 0.2352 0.99326 0.62337 0.0
H1802 H 0.20548 0.96468 0.64647 0.0
H1803 H 0.26023 0.94919 0.66783 0.0
H1804 H 0.29032 0.97789 0.64502 0.0
H1805 H 0.33527 0.12667 0.5875 0.0
H1806 H 0.3137 0.08205 0.58276 0.0
H1807 H 0.32279 0.07171 0.6411 0.0
H1808 H 0.3434 0.1162 0.64599 0.0
H1809 H 0.28118 0.03544 0.62989 0.0
H1810 H 0.3646 0.07583 0.60687 0.0
H1811 H 0.3995 0.10522 0.58752 0.0
H1812 H 0.35796 0.07134 0.53789 0.0
H1813 H 0.32269 0.04193 0.55698 0.0
C1814 C 0.30433 0.94262 0.60939 0.0
C1815 C 0.28009 0.92276 0.61022 0.0
C1816 C 0.30879 0.96651 0.60668 0.0
C1817 C 0.28913 0.97098 0.60456 0.0
C1818 C 0.265 0.95093 0.60371 0.0
C1819 C 0.26049 0.927 0.60669 0.0
C1820 C 0.29402 0.9967 0.6051 0.0
C1821 C 0.31203 0.01416 0.59321 0.0
C1822 C 0.28269 0.00451 0.61844 0.0
C1823 C 0.26486 0.98744 0.63234 0.0
C1824 C 0.24087 0.98377 0.63303 0.0
C1825 C 0.22398 0.96757 0.64607 0.0
C1826 C 0.23093 0.95505 0.65856 0.0
C1827 C 0.25483 0.95881 0.6581 0.0
C1828 C 0.27181 0.97503 0.64512 0.0
C1829 C 0.3321 0.11478 0.59937 0.0
C1830 C 0.34115 0.12478 0.61707 0.0
C1831 C 0.31991 0.08933 0.59663 0.0
C1832 C 0.31716 0.07355 0.61147 0.0
C1833 C 0.32476 0.08349 0.62941 0.0
C1834 C 0.33657 0.10892 0.63221 0.0
C1835 C 0.30844 0.04708 0.60816 0.0
C1836 C 0.28968 0.02949 0.61952 0.0
C1837 C 0.31977 0.03927 0.59483 0.0
C1838 C 0.34093 0.05691 0.58334 0.0
C1839 C 0.36286 0.07478 0.59183 0.0
C1840 C 0.38271 0.09142 0.58091 0.0
C1841 C 0.38092 0.09021 0.56148 0.0
C1842 C 0.3593 0.0723 0.55294 0.0
C1843 C 0.33938 0.05564 0.56379 0.0
H1844 H 0.39631 0.1031 0.55305 0.0
H1845 H 0.21781 0.94249 0.66862 0.0
H1846 H 0.20814 0.3513 0.6182 0.0
H1847 H 0.22319 0.32244 0.62099 0.0
H1848 H 0.22366 0.32859 0.6809 0.0
H1849 H 0.20747 0.357 0.6781 0.0
H1850 H 0.26973 0.34114 0.66448 0.0
H1851 H 0.18793 0.27416 0.66393 0.0
H1852 H 0.1448 0.24993 0.65353 0.0
H1853 H 0.16874 0.24132 0.59943 0.0
H1854 H 0.21203 0.2658 0.60938 0.0
H1855 H 0.3348 0.27633 0.65421 0.0
H1856 H 0.30339 0.28522 0.66575 0.0
H1857 H 0.27618 0.27989 0.6097 0.0
H1858 H 0.30696 0.27022 0.59819 0.0
H1859 H 0.23895 0.26041 0.63323 0.0
H1860 H 0.31799 0.33595 0.6302 0.0
H1861 H 0.36181 0.36309 0.638 0.0
H1862 H 0.34349 0.35831 0.69609 0.0
H1863 H 0.29957 0.33089 0.68863 0.0
C1864 C 0.21085 0.34606 0.63201 0.0
C1865 C 0.20731 0.35683 0.64798 0.0
C1866 C 0.21932 0.32945 0.63358 0.0
C1867 C 0.22456 0.32342 0.65115 0.0
C1868 C 0.2197 0.33305 0.66722 0.0
C1869 C 0.21067 0.34936 0.66563 0.0
C1870 C 0.2383 0.31001 0.65212 0.0
C1871 C 0.26279 0.3231 0.65823 0.0
C1872 C 0.22934 0.2868 0.6435 0.0
C1873 C 0.20329 0.27189 0.63742 0.0
C1874 C 0.18402 0.26723 0.64978 0.0
C1875 C 0.15953 0.25343 0.64396 0.0
C1876 C 0.15403 0.2441 0.62583 0.0
C1877 C 0.17302 0.24853 0.61348 0.0
C1878 C 0.19755 0.26233 0.61922 0.0
C1879 C 0.32197 0.27685 0.64438 0.0
C1880 C 0.3235 0.27285 0.62526 0.0
C1881 C 0.30405 0.28193 0.65099 0.0
C1882 C 0.28765 0.28356 0.63856 0.0
C1883 C 0.28859 0.27867 0.61957 0.0
C1884 C 0.3063 0.27329 0.61298 0.0
C1885 C 0.27063 0.29203 0.6449 0.0
C1886 C 0.24563 0.27803 0.64011 0.0
C1887 C 0.27921 0.31467 0.6544 0.0
C1888 C 0.30558 0.33111 0.65889 0.0
C1889 C 0.32335 0.34054 0.64465 0.0
C1890 C 0.34818 0.35599 0.649 0.0
C1891 C 0.35544 0.36235 0.66754 0.0
C1892 C 0.33785 0.35332 0.68175 0.0
C1893 C 0.31299 0.33782 0.67747 0.0
H1894 H 0.37467 0.37432 0.67088 0.0
H1895 H 0.13506 0.23342 0.62135 0.0
H1896 H 0.37608 0.14206 0.06725 0.0
H1897 H 0.37515 0.13198 0.03445 0.0
H1898 H 0.43128 0.11264 0.0439 0.0
H1899 H 0.43277 0.12331 0.07685 0.0
H1900 H 0.44497 0.14497 0.01722 0.0
H1901 H 0.3725 0.06938 0.02883 0.0
H1902 H 0.3313 0.04101 0.04147 0.0
H1903 H 0.30067 0.07677 0.00914 0.0
H1904 H 0.34176 0.10564 0.9965 0.0
H1905 H 0.44527 0.13051 0.9186 0.0
H1906 H 0.43909 0.11845 0.95148 0.0
H1907 H 0.3883 0.14547 0.95705 0.0
H1908 H 0.39426 0.1575 0.92429 0.0
H1909 H 0.37243 0.10113 0.97576 0.0
H1910 H 0.44688 0.18105 0.96968 0.0
H1911 H 0.48831 0.20941 0.95732 0.0
H1912 H 0.51496 0.16367 0.97981 0.0
H1913 H 0.47357 0.13486 0.9921 0.0
C1914 C 0.38789 0.13516 0.0625 0.0
C1915 C 0.40492 0.13406 0.07464 0.0
C1916 C 0.38719 0.12919 0.04368 0.0
C1917 C 0.40319 0.12158 0.03662 0.0
C1918 C 0.41886 0.11861 0.049 0.0
C1919 C 0.41964 0.12467 0.06786 0.0
C1920 C 0.40576 0.12007 0.01613 0.0
C1921 C 0.42915 0.13478 0.0082 0.0
C1922 C 0.38513 0.10715 0.00427 0.0
C1923 C 0.3603 0.08978 0.01178 0.0
C1924 C 0.35702 0.07133 0.0245 0.0
C1925 C 0.33367 0.05513 0.03166 0.0
C1926 C 0.31338 0.0571 0.02613 0.0
C1927 C 0.3164 0.07526 0.0134 0.0
C1928 C 0.33972 0.09152 0.00621 0.0
C1929 C 0.43261 0.13369 0.92677 0.0
C1930 C 0.42041 0.14516 0.91883 0.0
C1931 C 0.4291 0.12677 0.94556 0.0
C1932 C 0.41334 0.13119 0.95672 0.0
C1933 C 0.40049 0.14182 0.94867 0.0
C1934 C 0.40407 0.14885 0.92995 0.0
C1935 C 0.41142 0.12644 0.97708 0.0
C1936 C 0.38822 0.11069 0.98489 0.0
C1937 C 0.43221 0.13828 0.98888 0.0
C1938 C 0.45709 0.15566 0.98159 0.0
C1939 C 0.46154 0.17695 0.97186 0.0
C1940 C 0.48501 0.19312 0.96489 0.0
C1941 C 0.50424 0.1883 0.96772 0.0
C1942 C 0.50004 0.16735 0.97759 0.0
C1943 C 0.47658 0.1511 0.98456 0.0
H1944 H 0.5224 0.20084 0.96231 0.0
H1945 H 0.29532 0.04455 0.03169 0.0
H1946 H 0.28085 0.45792 0.06587 0.0
H1947 H 0.28166 0.45276 0.0322 0.0
H1948 H 0.29403 0.39173 0.04062 0.0
H1949 H 0.29288 0.39648 0.07435 0.0
H1950 H 0.3139 0.45332 0.00681 0.0
H1951 H 0.25958 0.34774 0.00813 0.0
H1952 H 0.23123 0.31378 0.02871 0.0
H1953 H 0.20596 0.36001 0.0525 0.0
H1954 H 0.23392 0.39411 0.0319 0.0
H1955 H 0.29602 0.42085 0.91174 0.0
H1956 H 0.30599 0.41707 0.94409 0.0
H1957 H 0.23216 0.39709 0.96057 0.0
H1958 H 0.22186 0.39988 0.9283 0.0
H1959 H 0.24816 0.37364 0.98157 0.0
H1960 H 0.28049 0.45851 0.96039 0.0
H1961 H 0.30575 0.49307 0.93918 0.0
H1962 H 0.37031 0.49036 0.95511 0.0
H1963 H 0.34535 0.45563 0.97631 0.0
C1964 C 0.28403 0.44357 0.06059 0.0
C1965 C 0.28647 0.42741 0.0728 0.0
C1966 C 0.28462 0.44074 0.04133 0.0
C1967 C 0.28763 0.4217 0.03392 0.0
C1968 C 0.29138 0.40635 0.04606 0.0
C1969 C 0.29071 0.40911 0.06534 0.0
C1970 C 0.28475 0.41679 0.01361 0.0
C1971 C 0.29974 0.4358 0.00128 0.0
C1972 C 0.26619 0.39397 0.00639 0.0
C1973 C 0.24905 0.37352 0.01865 0.0
C1974 C 0.24792 0.35061 0.01773 0.0
C1975 C 0.23193 0.33135 0.02939 0.0
C1976 C 0.21688 0.33477 0.04196 0.0
C1977 C 0.2177 0.35742 0.04282 0.0
C1978 C 0.23363 0.37672 0.03117 0.0
C1979 C 0.28174 0.41498 0.92218 0.0
C1980 C 0.25828 0.41104 0.91752 0.0
C1981 C 0.2875 0.41296 0.94068 0.0
C1982 C 0.26999 0.40739 0.95481 0.0
C1983 C 0.24601 0.40154 0.94993 0.0
C1984 C 0.24018 0.40326 0.93145 0.0
C1985 C 0.27701 0.41029 0.97477 0.0
C1986 C 0.26279 0.39092 0.98706 0.0
C1987 C 0.29593 0.43295 0.98197 0.0
C1988 C 0.31105 0.45439 0.96979 0.0
C1989 C 0.30007 0.4653 0.95935 0.0
C1990 C 0.31432 0.48489 0.94733 0.0
C1991 C 0.3396 0.49386 0.94577 0.0
C1992 C 0.35072 0.48337 0.95633 0.0
C1993 C 0.33654 0.46376 0.96836 0.0
H1994 H 0.35058 0.50896 0.9364 0.0
H1995 H 0.20454 0.31984 0.05099 0.0
H1996 H 0.91511 0.29312 0.06635 0.0
H1997 H 0.92449 0.30656 0.0339 0.0
H1998 H 0.84679 0.27289 0.02221 0.0
H1999 H 0.83736 0.26024 0.05464 0.0
H2000 H 0.91633 0.28467 0.00266 0.0
H2001 H 0.83314 0.30218 0.99171 0.0
H2002 H 0.8124 0.32006 0.00968 0.0
H2003 H 0.87677 0.36003 0.04371 0.0
H2004 H 0.89811 0.34277 0.02576 0.0
H2005 H 0.8548 0.24101 0.92153 0.0
H2006 H 0.87483 0.25572 0.95139 0.0
H2007 H 0.88851 0.32877 0.93851 0.0
H2008 H 0.86705 0.31351 0.90868 0.0
H2009 H 0.86883 0.31727 0.97017 0.0
H2010 H 0.93756 0.31758 0.94699 0.0
H2011 H 0.96293 0.305 0.92906 0.0
H2012 H 0.93702 0.24039 0.96303 0.0
H2013 H 0.91111 0.25227 0.98096 0.0
C2014 C 0.90003 0.28856 0.05684 0.0
C2015 C 0.87546 0.27571 0.06306 0.0
C2016 C 0.90545 0.29634 0.03832 0.0
C2017 C 0.8864 0.29129 0.02571 0.0
C2018 C 0.86186 0.27776 0.03181 0.0
C2019 C 0.85645 0.2703 0.05033 0.0
C2020 C 0.89169 0.29898 0.00592 0.0
C2021 C 0.90624 0.2921 0.99554 0.0
C2022 C 0.87988 0.31024 0.99677 0.0
C2023 C 0.86723 0.3211 0.00737 0.0
C2024 C 0.84299 0.31497 0.0029 0.0
C2025 C 0.83109 0.32496 0.01312 0.0
C2026 C 0.84325 0.34115 0.02784 0.0
C2027 C 0.86736 0.34746 0.03233 0.0
C2028 C 0.87936 0.33756 0.02214 0.0
C2029 C 0.8625 0.26033 0.92485 0.0
C2030 C 0.85942 0.27616 0.91278 0.0
C2031 C 0.87431 0.26886 0.94189 0.0
C2032 C 0.88361 0.29351 0.94717 0.0
C2033 C 0.8817 0.30973 0.93468 0.0
C2034 C 0.86964 0.30109 0.91758 0.0
C2035 C 0.8915 0.30067 0.96678 0.0
C2036 C 0.87962 0.31058 0.97724 0.0
C2037 C 0.90667 0.29324 0.97599 0.0
C2038 C 0.92236 0.28589 0.96538 0.0
C2039 C 0.93716 0.30062 0.95061 0.0
C2040 C 0.95165 0.2936 0.94043 0.0
C2041 C 0.95161 0.27192 0.94492 0.0
C2042 C 0.93708 0.25722 0.9596 0.0
C2043 C 0.92253 0.26412 0.96982 0.0
H2044 H 0.96284 0.26652 0.93701 0.0
H2045 H 0.83399 0.34882 0.03575 0.0
H2046 H 0.60648 0.87372 0.91543 0.0
H2047 H 0.60763 0.88414 0.9484 0.0
H2048 H 0.55301 0.80885 0.96041 0.0
H2049 H 0.55163 0.79837 0.92752 0.0
H2050 H 0.54649 0.8422 0.98147 0.0
H2051 H 0.61265 0.82669 0.96442 0.0
H2052 H 0.64902 0.83421 0.94609 0.0
H2053 H 0.68766 0.90936 0.96468 0.0
H2054 H 0.65136 0.90233 0.98294 0.0
H2055 H 0.56522 0.81538 0.07239 0.0
H2056 H 0.56221 0.81769 0.03872 0.0
H2057 H 0.62121 0.89321 0.03942 0.0
H2058 H 0.62461 0.89105 0.07327 0.0
H2059 H 0.62685 0.8674 0.01169 0.0
H2060 H 0.56307 0.88089 0.03321 0.0
H2061 H 0.52695 0.87316 0.05192 0.0
H2062 H 0.48385 0.80293 0.02534 0.0
H2063 H 0.51983 0.81004 0.00668 0.0
C2064 C 0.59443 0.8595 0.92503 0.0
C2065 C 0.57932 0.83515 0.91891 0.0
C2066 C 0.5951 0.86548 0.94386 0.0
C2067 C 0.58069 0.84717 0.95685 0.0
C2068 C 0.56434 0.82324 0.9506 0.0
C2069 C 0.56369 0.81726 0.93179 0.0
C2070 C 0.58428 0.85212 0.97711 0.0
C2071 C 0.56401 0.84768 0.98813 0.0
C2072 C 0.60735 0.85991 0.98567 0.0
C2073 C 0.62923 0.86406 0.97486 0.0
C2074 C 0.62885 0.84485 0.96449 0.0
C2075 C 0.64946 0.84902 0.95413 0.0
C2076 C 0.67062 0.87227 0.95417 0.0
C2077 C 0.67124 0.89137 0.96463 0.0
C2078 C 0.65067 0.88731 0.97499 0.0
C2079 C 0.57763 0.83252 0.06546 0.0
C2080 C 0.5951 0.85307 0.07558 0.0
C2081 C 0.57575 0.83384 0.04619 0.0
C2082 C 0.59116 0.85577 0.03664 0.0
C2083 C 0.60901 0.87618 0.04658 0.0
C2084 C 0.61094 0.87488 0.06592 0.0
C2085 C 0.58889 0.85692 0.01617 0.0
C2086 C 0.60942 0.86246 0.00508 0.0
C2087 C 0.56607 0.85022 0.00758 0.0
C2088 C 0.54424 0.84595 0.01861 0.0
C2089 C 0.54594 0.86372 0.03143 0.0
C2090 C 0.52548 0.85946 0.04203 0.0
C2091 C 0.50313 0.83756 0.03984 0.0
C2092 C 0.50118 0.81989 0.02702 0.0
C2093 C 0.5216 0.82404 0.01641 0.0
H2094 H 0.48731 0.83428 0.04806 0.0
H2095 H 0.68655 0.87546 0.94614 0.0
H2096 H 0.75178 0.55862 0.07531 0.0
H2097 H 0.74127 0.55936 0.04276 0.0
H2098 H 0.72964 0.6203 0.05401 0.0
H2099 H 0.73998 0.61951 0.08702 0.0
H2100 H 0.6964 0.58138 0.02437 0.0
H2101 H 0.7808 0.63909 0.04034 0.0
H2102 H 0.82001 0.65153 0.05648 0.0
H2103 H 0.82672 0.59531 0.02744 0.0
H2104 H 0.78731 0.58226 0.01138 0.0
H2105 H 0.72322 0.61073 0.92572 0.0
H2106 H 0.72203 0.61553 0.95957 0.0
H2107 H 0.74537 0.56221 0.96794 0.0
H2108 H 0.74658 0.55724 0.93435 0.0
H2109 H 0.77256 0.60551 0.98809 0.0
H2110 H 0.68744 0.54579 0.97417 0.0
H2111 H 0.64785 0.53186 0.95815 0.0
H2112 H 0.64229 0.59122 0.98288 0.0
H2113 H 0.68209 0.60576 -0.0012 0.0
C2114 C 0.74644 0.57183 0.071 0.0
C2115 C 0.7472 0.58937 0.08354 0.0
C2116 C 0.74029 0.57211 0.05243 0.0
C2117 C 0.73505 0.59009 0.04602 0.0
C2118 C 0.73363 0.60629 0.05878 0.0
C2119 C 0.73964 0.60589 0.07755 0.0
C2120 C 0.73522 0.59404 0.02574 0.0
C2121 C 0.7131 0.58723 0.01638 0.0
C2122 C 0.75703 0.60146 0.01544 0.0
C2123 C 0.78103 0.60962 0.02475 0.0
C2124 C 0.79056 0.62929 0.03749 0.0
C2125 C 0.81282 0.63645 0.04662 0.0
C2126 C 0.82583 0.6242 0.04301 0.0
C2127 C 0.81663 0.60479 0.03022 0.0
C2128 C 0.79434 0.59752 0.02109 0.0
C2129 C 0.7281 0.60004 0.93479 0.0
C2130 C 0.73503 0.58362 0.92737 0.0
C2131 C 0.72729 0.60273 0.95408 0.0
C2132 C 0.73355 0.58917 0.96617 0.0
C2133 C 0.7405 0.57284 0.95879 0.0
C2134 C 0.74112 0.56999 0.93959 0.0
C2135 C 0.73363 0.59219 0.98658 0.0
C2136 C 0.75592 0.60032 0.996 0.0
C2137 C 0.712 0.58604 0.9968 0.0
C2138 C 0.68789 0.57705 0.98748 0.0
C2139 C 0.67788 0.556 0.97606 0.0
C2140 C 0.65539 0.54797 0.96702 0.0
C2141 C 0.6426 0.56069 0.96944 0.0
C2142 C 0.65224 0.58141 0.98098 0.0
C2143 C 0.67476 0.58956 0.99002 0.0
H2144 H 0.62521 0.55446 0.96241 0.0
H2145 H 0.84306 0.62976 0.0501 0.0
H2146 H 0.19601 0.73845 0.06763 0.0
H2147 H 0.19147 0.73636 0.03387 0.0
H2148 H 0.11814 0.72516 0.03929 0.0
H2149 H 0.12237 0.72708 0.07329 0.0
H2150 H 0.12451 0.69676 0.00943 0.0
H2151 H 0.16 0.78012 0.03267 0.0
H2152 H 0.18945 0.81564 0.0515 0.0
H2153 H 0.24974 0.81818 0.02129 0.0
H2154 H 0.22065 0.78239 0.00249 0.0
H2155 H 0.11971 0.74363 0.91893 0.0
H2156 H 0.11672 0.73184 0.95176 0.0
H2157 H 0.19413 0.75511 0.95211 0.0
H2158 H 0.19735 0.76741 0.91954 0.0
H2159 H 0.18344 0.77597 0.97939 0.0
H2160 H 0.14959 0.69393 0.95567 0.0
H2161 H 0.12139 0.65782 0.93685 0.0
H2162 H 0.05954 0.65214 0.96684 0.0
H2163 H 0.08742 0.68837 0.98581 0.0
C2164 C 0.17876 0.73523 0.06174 0.0
C2165 C 0.15969 0.73333 0.07319 0.0
C2166 C 0.17618 0.73392 0.04243 0.0
C2167 C 0.15457 0.73082 0.03416 0.0
C2168 C 0.13493 0.7275 0.04548 0.0
C2169 C 0.13748 0.7288 0.06488 0.0
C2170 C 0.15384 0.734 0.01382 0.0
C2171 C 0.13714 0.71411 0.00279 0.0
C2172 C 0.17066 0.75654 0.00527 0.0
C2173 C 0.18815 0.77842 0.01629 0.0
C2174 C 0.17954 0.78815 0.03013 0.0
C2175 C 0.19617 0.80834 0.04079 0.0
C2176 C 0.22145 0.81911 0.03763 0.0
C2177 C 0.23015 0.80979 0.02374 0.0
C2178 C 0.2136 0.78956 0.01307 0.0
C2179 C 0.13599 0.7459 0.92596 0.0
C2180 C 0.15883 0.75674 0.91679 0.0
C2181 C 0.13423 0.73903 0.94468 0.0
C2182 C 0.15522 0.74262 0.95437 0.0
C2183 C 0.17775 0.75234 0.94492 0.0
C2184 C 0.17956 0.75939 0.92632 0.0
C2185 C 0.15442 0.7386 0.97474 0.0
C2186 C 0.17077 0.75851 0.98588 0.0
C2187 C 0.13741 0.71603 0.98325 0.0
C2188 C 0.12059 0.69403 0.97205 0.0
C2189 C 0.12997 0.68509 0.95818 0.0
C2190 C 0.11404 0.66458 0.94749 0.0
C2191 C 0.08867 0.65276 0.95058 0.0
C2192 C 0.0792 0.66135 0.96445 0.0
C2193 C 0.09506 0.68183 0.97521 0.0
H2194 H 0.07635 0.63691 0.94226 0.0
H2195 H 0.2343 0.83468 0.04594 0.0
H2196 H 0.86874 0.57674 0.58642 0.0
H2197 H 0.8832 0.5765 0.55485 0.0
H2198 H 0.808 0.53504 0.53582 0.0
H2199 H 0.79344 0.53475 0.56736 0.0
H2200 H 0.83802 0.52189 0.51717 0.0
H2201 H 0.83951 0.59876 0.53557 0.0
H2202 H 0.85413 0.63499 0.55613 0.0
H2203 H 0.92907 0.6566 0.54313 0.0
H2204 H 0.91484 0.62036 0.5226 0.0
H2205 H 0.81745 0.55416 0.4301 0.0
H2206 H 0.82088 0.54736 0.46302 0.0
H2207 H 0.89908 0.59824 0.46102 0.0
H2208 H 0.89575 0.60561 0.42788 0.0
H2209 H 0.87967 0.60639 0.49084 0.0
H2210 H 0.87754 0.53647 0.46508 0.0
H2211 H 0.86369 0.50048 0.44446 0.0
H2212 H 0.79295 0.46514 0.4711 0.0
H2213 H 0.80618 0.50109 0.49167 0.0
C2214 C 0.85529 0.56717 0.5756 0.0
C2215 C 0.82995 0.5562 0.57931 0.0
C2216 C 0.86359 0.567 0.55757 0.0
C2217 C 0.84666 0.55615 0.54295 0.0
C2218 C 0.82138 0.54356 0.54691 0.0
C2219 C 0.81308 0.54356 0.56493 0.0
C2220 C 0.85478 0.56057 0.52327 0.0
C2221 C 0.84723 0.54032 0.51135 0.0
C2222 C 0.86769 0.58469 0.51586 0.0
C2223 C 0.87614 0.60682 0.52771 0.0
C2224 C 0.8591 0.61125 0.53713 0.0
C2225 C 0.86731 0.63175 0.54878 0.0
C2226 C 0.89252 0.64805 0.55097 0.0
C2227 C 0.90956 0.64395 0.54143 0.0
C2228 C 0.90144 0.62345 0.52978 0.0
C2229 C 0.83544 0.56389 0.43658 0.0
C2230 C 0.85634 0.58037 0.42633 0.0
C2231 C 0.8374 0.55981 0.4554 0.0
C2232 C 0.86034 0.57182 0.46437 0.0
C2233 C 0.88125 0.58859 0.4543 0.0
C2234 C 0.87928 0.59284 0.43541 0.0
C2235 C 0.86182 0.56762 0.48452 0.0
C2236 C 0.8712 0.58793 0.49657 0.0
C2237 C 0.85088 0.54354 0.49203 0.0
C2238 C 0.84286 0.52158 0.47991 0.0
C2239 C 0.85898 0.52109 0.4665 0.0
C2240 C 0.85124 0.50068 0.45481 0.0
C2241 C 0.82745 0.48055 0.45646 0.0
C2242 C 0.81138 0.48075 0.46985 0.0
C2243 C 0.81901 0.50113 0.48155 0.0
H2244 H 0.82149 0.46478 0.44738 0.0
H2245 H 0.89884 0.66388 0.56003 0.0
H2246 H 0.28862 0.84647 0.58842 0.0
H2247 H 0.29752 0.8643 0.55712 0.0
H2248 H 0.23081 0.8683 0.55847 0.0
H2249 H 0.22127 0.84923 0.58926 0.0
H2250 H 0.22925 0.84324 0.53051 0.0
H2251 H 0.29018 0.92138 0.55338 0.0
H2252 H 0.32617 0.95074 0.5718 0.0
H2253 H 0.37173 0.92878 0.54252 0.0
H2254 H 0.33603 0.8993 0.52385 0.0
H2255 H 0.27857 0.90418 0.43544 0.0
H2256 H 0.27945 0.90928 0.46939 0.0
H2257 H 0.2669 0.83567 0.47664 0.0
H2258 H 0.26582 0.83026 0.44301 0.0
H2259 H 0.30725 0.90369 0.49983 0.0
H2260 H 0.22049 0.80759 0.50689 0.0
H2261 H 0.18398 0.77954 0.48831 0.0
H2262 H 0.18823 0.8412 0.459 0.0
H2263 H 0.22452 0.86963 0.4776 0.0
C2264 C 0.27625 0.8518 0.58219 0.0
C2265 C 0.25404 0.84607 0.59098 0.0
C2266 C 0.28142 0.86217 0.56435 0.0
C2267 C 0.26474 0.86753 0.55534 0.0
C2268 C 0.2438 0.86407 0.56503 0.0
C2269 C 0.23835 0.85315 0.58259 0.0
C2270 C 0.26668 0.87236 0.53497 0.0
C2271 C 0.24625 0.85679 0.52392 0.0
C2272 C 0.28875 0.89009 0.52624 0.0
C2273 C 0.31037 0.90803 0.53726 0.0
C2274 C 0.30784 0.92273 0.55091 0.0
C2275 C 0.3282 0.9394 0.5614 0.0
C2276 C 0.35118 0.94154 0.55841 0.0
C2277 C 0.35391 0.92711 0.54482 0.0
C2278 C 0.33364 0.91049 0.53422 0.0
C2279 C 0.27623 0.88916 0.44426 0.0
C2280 C 0.27177 0.86667 0.43648 0.0
C2281 C 0.27693 0.89221 0.46363 0.0
C2282 C 0.27307 0.87279 0.47544 0.0
C2283 C 0.26976 0.8508 0.46771 0.0
C2284 C 0.26905 0.84773 0.44845 0.0
C2285 C 0.27004 0.87421 0.49575 0.0
C2286 C 0.2902 0.89069 0.50665 0.0
C2287 C 0.24757 0.85766 0.50448 0.0
C2288 C 0.22533 0.84071 0.49356 0.0
C2289 C 0.21354 0.81517 0.49657 0.0
C2290 C 0.1929 0.7992 0.48601 0.0
C2291 C 0.18383 0.80858 0.47245 0.0
C2292 C 0.19532 0.83395 0.46947 0.0
C2293 C 0.21593 0.85 0.48 0.0
H2294 H 0.16788 0.79618 0.46427 0.0
H2295 H 0.3669 0.95441 0.56658 0.0
H2296 H 0.43063 0.23683 0.56654 0.0
H2297 H 0.43696 0.2538 0.53499 0.0
H2298 H 0.37808 0.26948 0.54313 0.0
H2299 H 0.37182 0.25286 0.57472 0.0
H2300 H 0.3726 0.24002 0.51169 0.0
H2301 H 0.43143 0.31563 0.53894 0.0
H2302 H 0.46663 0.34269 0.55897 0.0
H2303 H 0.51431 0.32776 0.52539 0.0
H2304 H 0.47927 0.30014 0.50538 0.0
H2305 H 0.38761 0.28263 0.41842 0.0
H2306 H 0.38529 0.28399 0.45243 0.0
H2307 H 0.4473 0.2725 0.4574 0.0
H2308 H 0.44999 0.27139 0.4236 0.0
H2309 H 0.44967 0.30575 0.4832 0.0
H2310 H 0.38985 0.22441 0.46078 0.0
H2311 H 0.35451 0.19488 0.44182 0.0
H2312 H 0.30895 0.21989 0.46723 0.0
H2313 H 0.34413 0.24974 0.48621 0.0
C2314 C 0.41935 0.24431 0.56173 0.0
C2315 C 0.40063 0.24338 0.57304 0.0
C2316 C 0.42304 0.25408 0.54375 0.0
C2317 C 0.40795 0.26285 0.5368 0.0
C2318 C 0.3899 0.26281 0.5483 0.0
C2319 C 0.38641 0.25336 0.56635 0.0
C2320 C 0.40943 0.26964 0.51693 0.0
C2321 C 0.38924 0.2548 0.5055 0.0
C2322 C 0.43132 0.28862 0.50894 0.0
C2323 C 0.45263 0.30562 0.52071 0.0
C2324 C 0.44937 0.31794 0.53589 0.0
C2325 C 0.46931 0.33341 0.54725 0.0
C2326 C 0.49269 0.33691 0.54347 0.0
C2327 C 0.49618 0.32501 0.5283 0.0
C2328 C 0.47628 0.30945 0.51693 0.0
C2329 C 0.40089 0.2806 0.42674 0.0
C2330 C 0.4188 0.27661 0.41825 0.0
C2331 C 0.39956 0.28143 0.44617 0.0
C2332 C 0.41603 0.27817 0.45743 0.0
C2333 C 0.43447 0.27514 0.44898 0.0
C2334 C 0.43582 0.2743 0.42962 0.0
C2335 C 0.41295 0.27583 0.47793 0.0
C2336 C 0.43286 0.2914 0.48946 0.0
C2337 C 0.39081 0.25742 0.4861 0.0
C2338 C 0.36966 0.23949 0.47473 0.0
C2339 C 0.37234 0.22373 0.46221 0.0
C2340 C 0.35234 0.20692 0.45149 0.0
C2341 C 0.32952 0.20557 0.45327 0.0
C2342 C 0.32664 0.22099 0.46583 0.0
C2343 C 0.3466 0.23784 0.47658 0.0
H2344 H 0.31405 0.19255 0.44496 0.0
H2345 H 0.5081 0.34888 0.55228 0.0
H2346 H 0.18803 0.43532 0.58138 0.0
H2347 H 0.17587 0.43619 0.54931 0.0
H2348 H 0.10466 0.37262 0.55984 0.0
H2349 H 0.11679 0.37162 0.59224 0.0
H2350 H 0.12689 0.36716 0.52876 0.0
H2351 H 0.10615 0.42506 0.55073 0.0
H2352 H 0.11075 0.46046 0.56882 0.0
H2353 H 0.17571 0.5089 0.53776 0.0
H2354 H 0.17156 0.47371 0.51945 0.0
H2355 H 0.10733 0.3824 0.43196 0.0
H2356 H 0.1005 0.3789 0.46571 0.0
H2357 H 0.17445 0.43876 0.47445 0.0
H2358 H 0.18152 0.44245 0.44091 0.0
H2359 H 0.13929 0.44244 0.49641 0.0
H2360 H 0.1625 0.38134 0.47925 0.0
H2361 H 0.15711 0.34498 0.46195 0.0
H2362 H 0.0847 0.30151 0.48508 0.0
H2363 H 0.08957 0.33775 0.50233 0.0
C2364 C 0.16967 0.42166 0.57698 0.0
C2365 C 0.15341 0.4033 0.58928 0.0
C2366 C 0.16267 0.4223 0.55867 0.0
C2367 C 0.13929 0.40458 0.55225 0.0
C2368 C 0.12274 0.3865 0.56458 0.0
C2369 C 0.12968 0.38599 0.58304 0.0
C2370 C 0.13338 0.40406 0.53222 0.0
C2371 C 0.12887 0.38336 0.52172 0.0
C2372 C 0.13613 0.42525 0.52308 0.0
C2373 C 0.13859 0.44668 0.53376 0.0
C2374 C 0.1215 0.44324 0.5478 0.0
C2375 C 0.12402 0.46328 0.5581 0.0
C2376 C 0.14358 0.48692 0.55453 0.0
C2377 C 0.16056 0.49057 0.54053 0.0
C2378 C 0.15808 0.47058 0.53012 0.0
C2379 C 0.12215 0.39485 0.44106 0.0
C2380 C 0.14505 0.4126 0.4337 0.0
C2381 C 0.11817 0.39283 0.46032 0.0
C2382 C 0.13697 0.4086 0.47253 0.0
C2383 C 0.15967 0.42653 0.46524 0.0
C2384 C 0.16373 0.42844 0.44604 0.0
C2385 C 0.13369 0.40587 0.49299 0.0
C2386 C 0.13655 0.426 0.50352 0.0
C2387 C 0.12913 0.38404 0.50219 0.0
C2388 C 0.12627 0.3623 0.49187 0.0
C2389 C 0.14535 0.36408 0.48051 0.0
C2390 C 0.14241 0.34349 0.47074 0.0
C2391 C 0.12054 0.32097 0.47236 0.0
C2392 C 0.1016 0.31898 0.4838 0.0
C2393 C 0.10444 0.33953 0.49358 0.0
H2394 H 0.11829 0.30505 0.46479 0.0
H2395 H 0.14553 0.50239 0.56259 0.0
H2396 H 0.76008 0.13901 0.42307 0.0
H2397 H 0.75862 0.13248 0.45672 0.0
H2398 H 0.71724 0.17009 0.46334 0.0
H2399 H 0.72026 0.17812 0.4298 0.0
H2400 H 0.74653 0.18284 0.48992 0.0
H2401 H 0.69074 0.10393 0.46452 0.0
H2402 H 0.67685 0.06767 0.44415 0.0
H2403 H 0.73062 0.05287 0.46849 0.0
H2404 H 0.74506 0.08924 0.48884 0.0
H2405 H 0.69249 0.12548 0.5778 0.0
H2406 H 0.69528 0.13005 0.54387 0.0
H2407 H 0.76627 0.13495 0.54482 0.0
H2408 H 0.76402 0.13112 0.5789 0.0
H2409 H 0.72186 0.10006 0.51524 0.0
H2410 H 0.77663 0.18319 0.54057 0.0
H2411 H 0.78509 0.21818 0.56104 0.0
H2412 H 0.7247 0.22211 0.53659 0.0
H2413 H 0.7156 0.18682 0.51624 0.0
C2414 C 0.75078 0.14595 0.43177 0.0
C2415 C 0.74021 0.15898 0.42393 0.0
C2416 C 0.74976 0.14204 0.45098 0.0
C2417 C 0.73727 0.15023 0.4626 0.0
C2418 C 0.72695 0.16354 0.45472 0.0
C2419 C 0.72865 0.16811 0.43557 0.0
C2420 C 0.73514 0.14514 0.48295 0.0
C2421 C 0.74089 0.16464 0.49534 0.0
C2422 C 0.72785 0.12142 0.49022 0.0
C2423 C 0.71914 0.09945 0.47807 0.0
C2424 C 0.69971 0.09304 0.46544 0.0
C2425 C 0.69172 0.07245 0.45391 0.0
C2426 C 0.70289 0.05802 0.45499 0.0
C2427 C 0.72201 0.06409 0.46765 0.0
C2428 C 0.73009 0.08468 0.4792 0.0
C2429 C 0.70854 0.12716 0.57078 0.0
C2430 C 0.72808 0.128 0.58097 0.0
C2431 C 0.71011 0.12985 0.55144 0.0
C2432 C 0.73101 0.13294 0.54201 0.0
C2433 C 0.75004 0.13261 0.55198 0.0
C2434 C 0.74873 0.13046 0.57138 0.0
C2435 C 0.73342 0.13774 0.52182 0.0
C2436 C 0.72759 0.11818 0.50959 0.0
C2437 C 0.73988 0.16116 0.51467 0.0
C2438 C 0.74526 0.18219 0.52705 0.0
C2439 C 0.76495 0.19129 0.53975 0.0
C2440 C 0.76991 0.21123 0.55128 0.0
C2441 C 0.75543 0.22234 0.55012 0.0
C2442 C 0.73589 0.21348 0.53748 0.0
C2443 C 0.73083 0.19352 0.52595 0.0
H2444 H 0.75942 0.23791 0.55891 0.0
H2445 H 0.69668 0.04209 0.44605 0.0
H2446 H 0.62541 0.73673 0.41092 0.0
H2447 H 0.62313 0.72073 0.44261 0.0
H2448 H 0.56459 0.73537 0.45583 0.0
H2449 H 0.56703 0.75162 0.42459 0.0
H2450 H 0.63095 0.74976 0.47505 0.0
H2451 H 0.52406 0.69018 0.48389 0.0
H2452 H 0.48862 0.66127 0.46475 0.0
H2453 H 0.53574 0.64484 0.43185 0.0
H2454 H 0.57139 0.67329 0.45094 0.0
H2455 H 0.55363 0.73078 0.56125 0.0
H2456 H 0.557 0.72516 0.52797 0.0
H2457 H 0.6181 0.71348 0.53837 0.0
H2458 H 0.61513 0.71944 0.57176 0.0
H2459 H 0.55421 0.68781 0.5064 0.0
H2460 H 0.65922 0.74093 0.50244 0.0
H2461 H 0.69522 0.77219 0.51997 0.0
H2462 H 0.6522 0.80276 0.5411 0.0
H2463 H 0.61608 0.77187 0.52352 0.0
C2464 C 0.61185 0.73617 0.42057 0.0
C2465 C 0.59655 0.74559 0.41545 0.0
C2466 C 0.61059 0.72706 0.43858 0.0
C2467 C 0.59359 0.72675 0.45144 0.0
C2468 C 0.57763 0.73519 0.44602 0.0
C2469 C 0.57917 0.74464 0.42822 0.0
C2470 C 0.59378 0.72012 0.47115 0.0
C2471 C 0.61447 0.73566 0.48189 0.0
C2472 C 0.57213 0.70192 0.47996 0.0
C2473 C 0.55048 0.68401 0.46886 0.0
C2474 C 0.52685 0.68024 0.4727 0.0
C2475 C 0.50672 0.66397 0.46181 0.0
C2476 C 0.50995 0.65128 0.44706 0.0
C2477 C 0.53328 0.65474 0.44323 0.0
C2478 C 0.55346 0.67095 0.45408 0.0
C2479 C 0.56777 0.72696 0.55652 0.0
C2480 C 0.58429 0.72586 0.56917 0.0
C2481 C 0.56952 0.72352 0.53748 0.0
C2482 C 0.58784 0.71899 0.5307 0.0
C2483 C 0.60394 0.71715 0.54332 0.0
C2484 C 0.60225 0.72065 0.56238 0.0
C2485 C 0.59108 0.71814 0.51032 0.0
C2486 C 0.571 0.70125 0.49951 0.0
C2487 C 0.61331 0.7351 0.50139 0.0
C2488 C 0.63491 0.75389 0.51189 0.0
C2489 C 0.65749 0.75435 0.51082 0.0
C2490 C 0.6779 0.772 0.52075 0.0
C2491 C 0.67597 0.78938 0.53171 0.0
C2492 C 0.65365 0.78922 0.53268 0.0
C2493 C 0.6332 0.77164 0.52275 0.0
H2494 H 0.69178 0.80302 0.5394 0.0
H2495 H 0.49437 0.63875 0.43863 0.0
H2496 H 0.38016 0.13133 0.17892 0.0
H2497 H 0.3752 0.15078 0.20702 0.0
H2498 H 0.43011 0.222 0.18641 0.0
H2499 H 0.43557 0.20252 0.15883 0.0
H2500 H 0.44113 0.21655 0.21975 0.0
H2501 H 0.36979 0.20791 0.19087 0.0
H2502 H 0.33023 0.18755 0.17399 0.0
H2503 H 0.29673 0.13697 0.2194 0.0
H2504 H 0.33617 0.1569 0.23646 0.0
H2505 H 0.38659 0.26027 0.29908 0.0
H2506 H 0.38249 0.24441 0.26715 0.0
H2507 H 0.42282 0.20815 0.28297 0.0
H2508 H 0.42794 0.22486 0.31438 0.0
H2509 H 0.36366 0.20177 0.24974 0.0
H2510 H 0.46103 0.21168 0.25049 0.0
H2511 H 0.50132 0.23776 0.26549 0.0
H2512 H 0.48452 0.29581 0.27207 0.0
H2513 H 0.4443 0.27022 0.25688 0.0
C2514 C 0.39072 0.15118 0.18027 0.0
C2515 C 0.40779 0.16554 0.1665 0.0
C2516 C 0.38781 0.1623 0.19626 0.0
C2517 C 0.4021 0.18793 0.19876 0.0
C2518 C 0.41878 0.20224 0.18478 0.0
C2519 C 0.42176 0.19112 0.16893 0.0
C2520 C 0.40177 0.19946 0.21677 0.0
C2521 C 0.42417 0.21339 0.22622 0.0
C2522 C 0.37978 0.19597 0.22505 0.0
C2523 C 0.35601 0.18375 0.21485 0.0
C2524 C 0.35404 0.1923 0.19717 0.0
C2525 C 0.33163 0.18088 0.18759 0.0
C2526 C 0.31101 0.16092 0.19559 0.0
C2527 C 0.31273 0.15241 0.21321 0.0
C2528 C 0.3351 0.1638 0.22286 0.0
C2529 C 0.39443 0.2488 0.29569 0.0
C2530 C 0.40799 0.24416 0.30904 0.0
C2531 C 0.39202 0.23969 0.27749 0.0
C2532 C 0.40286 0.22558 0.27253 0.0
C2533 C 0.41493 0.21961 0.28629 0.0
C2534 C 0.41782 0.22912 0.30425 0.0
C2535 C 0.40293 0.21812 0.25286 0.0
C2536 C 0.38057 0.20502 0.24315 0.0
C2537 C 0.42511 0.22317 0.24394 0.0
C2538 C 0.44957 0.23894 0.25267 0.0
C2539 C 0.466 0.23007 0.25503 0.0
C2540 C 0.48881 0.24475 0.26359 0.0
C2541 C 0.49545 0.2684 0.26978 0.0
C2542 C 0.47933 0.27746 0.26732 0.0
C2543 C 0.45652 0.26287 0.25875 0.0
H2544 H 0.51309 0.27971 0.27644 0.0
H2545 H 0.29367 0.15208 0.18816 0.0
H2546 H 0.24089 0.44842 0.18134 0.0
H2547 H 0.22234 0.44098 0.2122 0.0
H2548 H 0.22274 0.37252 0.21573 0.0
H2549 H 0.24175 0.38002 0.18483 0.0
H2550 H 0.17961 0.40525 0.22529 0.0
H2551 H 0.23139 0.36391 0.26287 0.0
H2552 H 0.27059 0.36374 0.26126 0.0
H2553 H 0.30538 0.43496 0.23533 0.0
H2554 H 0.26647 0.43566 0.23699 0.0
H2555 H 0.13428 0.37805 0.31912 0.0
H2556 H 0.14692 0.37183 0.28817 0.0
H2557 H 0.2192 0.43472 0.29686 0.0
H2558 H 0.2069 0.44086 0.32766 0.0
H2559 H 0.22204 0.39741 0.28099 0.0
H2560 H 0.17521 0.43929 0.27275 0.0
H2561 H 0.13831 0.44357 0.27498 0.0
H2562 H 0.09726 0.37783 0.24248 0.0
H2563 H 0.13385 0.37297 0.24031 0.0
C2564 C 0.23709 0.43178 0.18865 0.0
C2565 C 0.24296 0.4149 0.18069 0.0
C2566 C 0.22636 0.42749 0.20626 0.0
C2567 C 0.22129 0.40627 0.21628 0.0
C2568 C 0.22677 0.38915 0.2083 0.0
C2569 C 0.23759 0.39346 0.19064 0.0
C2570 C 0.21061 0.40257 0.2352 0.0
C2571 C 0.18875 0.40327 0.23746 0.0
C2572 C 0.22248 0.3999 0.25106 0.0
C2573 C 0.24593 0.39964 0.24978 0.0
C2574 C 0.2474 0.37949 0.25677 0.0
C2575 C 0.26956 0.37931 0.25587 0.0
C2576 C 0.29043 0.39927 0.2481 0.0
C2577 C 0.28917 0.41946 0.24125 0.0
C2578 C 0.26706 0.41974 0.24214 0.0
C2579 C 0.15289 0.39044 0.31444 0.0
C2580 C 0.16952 0.41013 0.32571 0.0
C2581 C 0.16006 0.38687 0.29679 0.0
C2582 C 0.18393 0.40293 0.29021 0.0
C2583 C 0.2007 0.4221 0.30169 0.0
C2584 C 0.19357 0.4257 0.31924 0.0
C2585 C 0.19145 0.40079 0.27108 0.0
C2586 C 0.21259 0.39881 0.26878 0.0
C2587 C 0.17915 0.40269 0.2552 0.0
C2588 C 0.15714 0.40554 0.25663 0.0
C2589 C 0.15824 0.4256 0.26626 0.0
C2590 C 0.1374 0.42816 0.26748 0.0
C2591 C 0.11542 0.41092 0.25895 0.0
C2592 C 0.11427 0.39112 0.24914 0.0
C2593 C 0.13504 0.38844 0.24792 0.0
H2594 H 0.09932 0.41295 0.25989 0.0
H2595 H 0.30758 0.39912 0.24745 0.0
H2596 H 0.86543 0.22299 0.17324 0.0
H2597 H 0.85314 0.20908 0.20545 0.0
H2598 H 0.81717 0.25223 0.20894 0.0
H2599 H 0.82883 0.26574 0.17672 0.0
H2600 H 0.84846 0.2546 0.24141 0.0
H2601 H 0.78235 0.19813 0.19983 0.0
H2602 H 0.76648 0.1694 0.17323 0.0
H2603 H 0.79082 0.12363 0.19915 0.0
H2604 H 0.80726 0.15238 0.22577 0.0
H2605 H 0.76075 0.21139 0.31184 0.0
H2606 H 0.78193 0.22369 0.28196 0.0
H2607 H 0.79649 0.16343 0.28461 0.0
H2608 H 0.77487 0.15066 0.31448 0.0
H2609 H 0.78175 0.16805 0.25019 0.0
H2610 H 0.84174 0.22001 0.29411 0.0
H2611 H 0.85769 0.248 0.32113 0.0
H2612 H 0.84718 0.30162 0.29171 0.0
H2613 H 0.83072 0.27376 0.26464 0.0
C2614 C 0.85511 0.22967 0.18097 0.0
C2615 C 0.84792 0.24529 0.17255 0.0
C2616 C 0.84817 0.22175 0.19929 0.0
C2617 C 0.83436 0.22975 0.20942 0.0
C2618 C 0.82796 0.24604 0.20127 0.0
C2619 C 0.83445 0.25356 0.18288 0.0
C2620 C 0.82493 0.21981 0.22807 0.0
C2621 C 0.83388 0.23572 0.24342 0.0
C2622 C 0.80647 0.19498 0.23055 0.0
C2623 C 0.79631 0.17755 0.21467 0.0
C2624 C 0.78454 0.18207 0.19977 0.0
C2625 C 0.7754 0.16577 0.18471 0.0
C2626 C 0.7777 0.14474 0.18448 0.0
C2627 C 0.7891 0.13995 0.19933 0.0
C2628 C 0.79833 0.15624 0.21441 0.0
C2629 C 0.76836 0.20068 0.30607 0.0
C2630 C 0.76626 0.18014 0.31553 0.0
C2631 C 0.78056 0.2078 0.28904 0.0
C2632 C 0.79112 0.1947 0.28129 0.0
C2633 C 0.78855 0.17382 0.29046 0.0
C2634 C 0.77623 0.1666 0.3075 0.0
C2635 C 0.8048 0.20301 0.26359 0.0
C2636 C 0.79669 0.18681 0.24836 0.0
C2637 C 0.82427 0.22751 0.26129 0.0
C2638 C 0.83484 0.24469 0.27735 0.0
C2639 C 0.84271 0.23772 0.29342 0.0
C2640 C 0.85184 0.25356 0.30876 0.0
C2641 C 0.85342 0.27656 0.30814 0.0
C2642 C 0.84595 0.28379 0.29216 0.0
C2643 C 0.83674 0.26799 0.27681 0.0
H2644 H 0.86044 0.28877 0.32004 0.0
H2645 H 0.77054 0.1321 0.17284 0.0
H2646 H 0.57115 0.82869 0.19523 0.0
H2647 H 0.57903 0.82111 0.22723 0.0
H2648 H 0.65661 0.85538 0.21524 0.0
H2649 H 0.64894 0.86379 0.18321 0.0
H2650 H 0.63016 0.80342 0.22946 0.0
H2651 H 0.64587 0.88422 0.24397 0.0
H2652 H 0.63843 0.91923 0.245 0.0
H2653 H 0.57151 0.87544 0.27551 0.0
H2654 H 0.57833 0.84006 0.27444 0.0
H2655 H 0.6356 0.76371 0.32199 0.0
H2656 H 0.64686 0.78973 0.29404 0.0
H2657 H 0.5777 0.78888 0.29715 0.0
H2658 H 0.567 0.76378 0.32525 0.0
H2659 H 0.61151 0.83242 0.28825 0.0
H2660 H 0.58937 0.75028 0.268 0.0
H2661 H 0.59268 0.71284 0.26548 0.0
H2662 H 0.66611 0.75569 0.24401 0.0
H2663 H 0.66339 0.79347 0.24673 0.0
C2664 C 0.58993 0.83498 0.19949 0.0
C2665 C 0.60944 0.84673 0.18679 0.0
C2666 C 0.59442 0.8308 0.21778 0.0
C2667 C 0.6184 0.83788 0.22355 0.0
C2668 C 0.63803 0.85004 0.21102 0.0
C2669 C 0.63362 0.85479 0.1928 0.0
C2670 C 0.62214 0.8298 0.24196 0.0
C2671 C 0.62675 0.81014 0.24243 0.0
C2672 C 0.61701 0.83826 0.25867 0.0
C2673 C 0.61255 0.85938 0.25899 0.0
C2674 C 0.62942 0.88194 0.25071 0.0
C2675 C 0.62535 0.9019 0.25136 0.0
C2676 C 0.6045 0.89956 0.26031 0.0
C2677 C 0.58766 0.87725 0.2686 0.0
C2678 C 0.59164 0.85724 0.26799 0.0
C2679 C 0.623 0.76934 0.31671 0.0
C2680 C 0.60055 0.76203 0.32577 0.0
C2681 C 0.62937 0.7841 0.30075 0.0
C2682 C 0.61304 0.79112 0.29338 0.0
C2683 C 0.59071 0.78389 0.30261 0.0
C2684 C 0.58456 0.76952 0.31865 0.0
C2685 C 0.6184 0.80521 0.27573 0.0
C2686 C 0.61554 0.82603 0.27539 0.0
C2687 C 0.62447 0.79738 0.25903 0.0
C2688 C 0.62635 0.77476 0.25792 0.0
C2689 C 0.60635 0.75177 0.263 0.0
C2690 C 0.6081 0.73048 0.26148 0.0
C2691 C 0.62964 0.73191 0.25469 0.0
C2692 C 0.64948 0.75463 0.24937 0.0
C2693 C 0.64786 0.77599 0.25093 0.0
H2694 H 0.63093 0.71539 0.25347 0.0
H2695 H 0.60142 0.91505 0.26083 0.0
H2696 H 0.76125 0.62356 0.18285 0.0
H2697 H 0.78472 0.63028 0.21167 0.0
H2698 H 0.79309 0.56762 0.19877 0.0
H2699 H 0.76833 0.56009 0.17065 0.0
H2700 H 0.77979 0.5641 0.23207 0.0
H2701 H 0.84322 0.6283 0.19727 0.0
H2702 H 0.8626 0.66449 0.17654 0.0
H2703 H 0.85021 0.7073 0.21724 0.0
H2704 H 0.83063 0.67136 0.23819 0.0
H2705 H 0.8794 0.62283 0.30854 0.0
H2706 H 0.86841 0.62531 0.276 0.0
H2707 H 0.79241 0.59472 0.29225 0.0
H2708 H 0.80312 0.59128 0.32436 0.0
H2709 H 0.84631 0.64478 0.25517 0.0
H2710 H 0.75613 0.55018 0.26411 0.0
H2711 H 0.74126 0.51223 0.28269 0.0
H2712 H 0.81548 0.52719 0.28947 0.0
H2713 H 0.83075 0.56502 0.27078 0.0
C2714 C 0.76833 0.61141 0.18614 0.0
C2715 C 0.76359 0.59164 0.17439 0.0
C2716 C 0.78195 0.6154 0.20249 0.0
C2717 C 0.79111 0.59974 0.20723 0.0
C2718 C 0.78642 0.58008 0.19536 0.0
C2719 C 0.77252 0.57592 0.17921 0.0
C2720 C 0.80354 0.60244 0.22538 0.0
C2721 C 0.79444 0.58174 0.23701 0.0
C2722 C 0.82319 0.62526 0.23168 0.0
C2723 C 0.83527 0.64706 0.21925 0.0
C2724 C 0.8445 0.64539 0.20176 0.0
C2725 C 0.85553 0.66586 0.18997 0.0
C2726 C 0.85748 0.68811 0.19552 0.0
C2727 C 0.84862 0.69002 0.21294 0.0
C2728 C 0.83762 0.66963 0.22481 0.0
C2729 C 0.86047 0.61712 0.30512 0.0
C2730 C 0.84197 0.60646 0.31873 0.0
C2731 C 0.85423 0.61857 0.2866 0.0
C2732 C 0.82952 0.60963 0.28168 0.0
C2733 C 0.81149 0.60114 0.29568 0.0
C2734 C 0.81761 0.59921 0.31399 0.0
C2735 C 0.82185 0.60664 0.26189 0.0
C2736 C 0.83183 0.62718 0.25003 0.0
C2737 C 0.80373 0.58341 0.25498 0.0
C2738 C 0.79458 0.56051 0.26612 0.0
C2739 C 0.76926 0.5453 0.26949 0.0
C2740 C 0.76077 0.52382 0.28006 0.0
C2741 C 0.77742 0.5173 0.28723 0.0
C2742 C 0.8026 0.53227 0.28391 0.0
C2743 C 0.81119 0.55375 0.27336 0.0
H2744 H 0.77083 0.50061 0.2953 0.0
H2745 H 0.86594 0.70391 0.18634 0.0
H2746 H 0.15146 0.7795 0.18134 0.0
H2747 H 0.16026 0.79911 0.21201 0.0
H2748 H 0.22806 0.79733 0.21443 0.0
H2749 H 0.21964 0.77814 0.18372 0.0
H2750 H 0.16458 0.78222 0.24454 0.0
H2751 H 0.27112 0.84604 0.23798 0.0
H2752 H 0.3013 0.871 0.21381 0.0
H2753 H 0.24521 0.8766 0.18366 0.0
H2754 H 0.21477 0.852 0.20777 0.0
H2755 H 0.22761 0.80296 0.32901 0.0
H2756 H 0.21192 0.79386 0.29719 0.0
H2757 H 0.22768 0.86871 0.29053 0.0
H2758 H 0.24355 0.87804 0.32249 0.0
H2759 H 0.2451 0.8543 0.26165 0.0
H2760 H 0.16951 0.82467 0.29278 0.0
H2761 H 0.13615 0.80216 0.3155 0.0
H2762 H 0.12663 0.73344 0.29545 0.0
H2763 H 0.16023 0.75554 0.27281 0.0
C2764 C 0.16832 0.78341 0.18836 0.0
C2765 C 0.18483 0.7772 0.18013 0.0
C2766 C 0.1733 0.79461 0.20588 0.0
C2767 C 0.19492 0.79991 0.2154 0.0
C2768 C 0.21147 0.79382 0.20717 0.0
C2769 C 0.20654 0.78268 0.18967 0.0
C2770 C 0.19972 0.81061 0.23437 0.0
C2771 C 0.18212 0.79807 0.24828 0.0
C2772 C 0.22226 0.83182 0.23908 0.0
C2773 C 0.24061 0.84701 0.22466 0.0
C2774 C 0.26524 0.85272 0.22626 0.0
C2775 C 0.2824 0.86678 0.21255 0.0
C2776 C 0.27517 0.87533 0.19719 0.0
C2777 C 0.25077 0.8699 0.19553 0.0
C2778 C 0.23355 0.85587 0.20921 0.0
C2779 C 0.22768 0.81749 0.32083 0.0
C2780 C 0.23699 0.84126 0.3282 0.0
C2781 C 0.21851 0.8122 0.30269 0.0
C2782 C 0.21849 0.83058 0.29157 0.0
C2783 C 0.2275 0.85428 0.29894 0.0
C2784 C 0.23651 0.85954 0.31718 0.0
C2785 C 0.21042 0.82516 0.27192 0.0
C2786 C 0.22743 0.83868 0.25787 0.0
C2787 C 0.18708 0.80523 0.26702 0.0
C2788 C 0.1675 0.79181 0.28113 0.0
C2789 C 0.16053 0.80478 0.29336 0.0
C2790 C 0.14153 0.79208 0.30619 0.0
C2791 C 0.12925 0.7664 0.30686 0.0
C2792 C 0.13612 0.75335 0.29486 0.0
C2793 C 0.15514 0.76595 0.28202 0.0
H2794 H 0.11429 0.75661 0.3166 0.0
H2795 H 0.28847 0.88619 0.18658 0.0
H2796 H 0.62078 0.76137 0.68461 0.0
H2797 H 0.62376 0.77665 0.71651 0.0
H2798 H 0.55086 0.76688 0.7116 0.0
H2799 H 0.54791 0.75212 0.67981 0.0
H2800 H 0.58127 0.81032 0.72583 0.0
H2801 H 0.56208 0.72676 0.73647 0.0
H2802 H 0.5683 0.69103 0.73396 0.0
H2803 H 0.63858 0.73202 0.76087 0.0
H2804 H 0.63293 0.76812 0.76329 0.0
H2805 H 0.5576 0.79124 0.83087 0.0
H2806 H 0.5613 0.77524 0.80065 0.0
H2807 H 0.61858 0.84795 0.78479 0.0
H2808 H 0.61483 0.86401 0.81495 0.0
H2809 H 0.59789 0.77356 0.78124 0.0
H2810 H 0.60907 0.85709 0.73955 0.0
H2811 H 0.59903 0.8903 0.74236 0.0
H2812 H 0.53782 0.84457 0.77783 0.0
H2813 H 0.5473 0.811 0.77502 0.0
C2814 C 0.60537 0.76241 0.69038 0.0
C2815 C 0.58411 0.75553 0.67969 0.0
C2816 C 0.60707 0.77105 0.70861 0.0
C2817 C 0.58747 0.77277 0.71645 0.0
C2818 C 0.56623 0.76577 0.70581 0.0
C2819 C 0.56456 0.75726 0.68764 0.0
C2820 C 0.58906 0.78243 0.73555 0.0
C2821 C 0.58505 0.80234 0.73792 0.0
C2822 C 0.59379 0.7719 0.75134 0.0
C2823 C 0.59721 0.75023 0.74986 0.0
C2824 C 0.57896 0.72822 0.74169 0.0
C2825 C 0.58236 0.70789 0.74032 0.0
C2826 C 0.60385 0.70928 0.74719 0.0
C2827 C 0.62196 0.73099 0.75551 0.0
C2828 C 0.61867 0.75138 0.7569 0.0
C2829 C 0.5713 0.80367 0.82107 0.0
C2830 C 0.586 0.8288 0.82523 0.0
C2831 C 0.57341 0.79453 0.80384 0.0
C2832 C 0.59008 0.81046 0.79045 0.0
C2833 C 0.60543 0.83541 0.79487 0.0
C2834 C 0.60326 0.84455 0.81207 0.0
C2835 C 0.59003 0.80134 0.77142 0.0
C2836 C 0.5944 0.78165 0.76908 0.0
C2837 C 0.58515 0.81173 0.75564 0.0
C2838 C 0.57909 0.83167 0.75725 0.0
C2839 C 0.59343 0.85412 0.74791 0.0
C2840 C 0.58784 0.873 0.7495 0.0
C2841 C 0.56786 0.86958 0.76033 0.0
C2842 C 0.55336 0.84723 0.76952 0.0
C2843 C 0.55885 0.82829 0.76794 0.0
H2844 H 0.56357 0.88423 0.76156 0.0
H2845 H 0.60645 0.69352 0.74612 0.0
H2846 H 0.74687 0.54162 0.81383 0.0
H2847 H 0.7603 0.54475 0.78159 0.0
H2848 H 0.78064 0.6214 0.78062 0.0
H2849 H 0.76661 0.61828 0.81289 0.0
H2850 H 0.75883 0.59857 0.74849 0.0
H2851 H 0.82215 0.60421 0.7885 0.0
H2852 H 0.8379 0.58997 0.81421 0.0
H2853 H 0.82167 0.52513 0.78307 0.0
H2854 H 0.8045 0.53827 0.75757 0.0
H2855 H 0.85772 0.60094 0.67938 0.0
H2856 H 0.84447 0.61016 0.70879 0.0
H2857 H 0.76871 0.55984 0.69445 0.0
H2858 H 0.78192 0.55032 0.665 0.0
H2859 H 0.82186 0.57513 0.73468 0.0
H2860 H 0.73261 0.57734 0.71755 0.0
H2861 H 0.71654 0.59674 0.69612 0.0
H2862 H 0.79031 0.65346 0.68343 0.0
H2863 H 0.80679 0.63424 0.70458 0.0
C2864 C 0.75407 0.55914 0.80676 0.0
C2865 C 0.75592 0.57979 0.81594 0.0
C2866 C 0.76174 0.56087 0.78834 0.0
C2867 C 0.77183 0.5834 0.77887 0.0
C2868 C 0.77296 0.60387 0.78775 0.0
C2869 C 0.76503 0.60208 0.80617 0.0
C2870 C 0.78206 0.58571 0.75995 0.0
C2871 C 0.77259 0.59342 0.74542 0.0
C2872 C 0.80048 0.57959 0.75615 0.0
C2873 C 0.81182 0.57216 0.77114 0.0
C2874 C 0.82176 0.58683 0.78716 0.0
C2875 C 0.8309 0.57892 0.80173 0.0
C2876 C 0.83091 0.55673 0.80024 0.0
C2877 C 0.82166 0.54233 0.78421 0.0
C2878 C 0.8121 0.54994 0.76972 0.0
C2879 C 0.8382 0.59222 0.6823 0.0
C2880 C 0.82082 0.57485 0.66994 0.0
C2881 C 0.83067 0.59756 0.69909 0.0
C2882 C 0.80564 0.58571 0.70379 0.0
C2883 C 0.78811 0.56944 0.69097 0.0
C2884 C 0.79567 0.56399 0.67417 0.0
C2885 C 0.79823 0.5875 0.72304 0.0
C2886 C 0.80816 0.58038 0.7377 0.0
C2887 C 0.78053 0.5945 0.727 0.0
C2888 C 0.77091 0.60427 0.71254 0.0
C2889 C 0.74539 0.59376 0.70997 0.0
C2890 C 0.73621 0.60474 0.69791 0.0
C2891 C 0.75239 0.62636 0.68851 0.0
C2892 C 0.7778 0.63667 0.6907 0.0
C2893 C 0.78708 0.62563 0.7026 0.0
H2894 H 0.7452 0.63527 0.67969 0.0
H2895 H 0.8381 0.55071 0.81152 0.0
H2896 H 0.21193 0.79499 0.67539 0.0
H2897 H 0.18904 0.78359 0.7048 0.0
H2898 H 0.22581 0.86004 0.72116 0.0
H2899 H 0.2482 0.87146 0.69153 0.0
H2900 H 0.22859 0.83263 0.74793 0.0
H2901 H 0.16652 0.83214 0.71235 0.0
H2902 H 0.13819 0.82409 0.68611 0.0
H2903 H 0.10197 0.74658 0.69744 0.0
H2904 H 0.13049 0.75406 0.72355 0.0
H2905 H 0.15719 0.79857 0.83158 0.0
H2906 H 0.17118 0.81753 0.80071 0.0
H2907 H 0.15169 0.74648 0.77773 0.0
H2908 H 0.13882 0.7279 0.80878 0.0
H2909 H 0.13858 0.77672 0.75494 0.0
H2910 H 0.20882 0.78247 0.78978 0.0
H2911 H 0.23622 0.79546 0.81711 0.0
H2912 H 0.2553 0.8706 0.80789 0.0
H2913 H 0.22775 0.85795 0.78059 0.0
C2914 C 0.21433 0.80937 0.68496 0.0
C2915 C 0.2312 0.83409 0.68105 0.0
C2916 C 0.20147 0.80287 0.70182 0.0
C2917 C 0.20553 0.82102 0.71507 0.0
C2918 C 0.22232 0.84578 0.71109 0.0
C2919 C 0.23506 0.85226 0.6942 0.0
C2920 C 0.1937 0.81383 0.73363 0.0
C2921 C 0.20885 0.82078 0.74945 0.0
C2922 C 0.16795 0.79854 0.73566 0.0
C2923 C 0.15086 0.79366 0.71982 0.0
C2924 C 0.15272 0.81333 0.70913 0.0
C2925 C 0.13659 0.80889 0.69432 0.0
C2926 C 0.11832 0.78487 0.69015 0.0
C2927 C 0.11614 0.7652 0.70075 0.0
C2928 C 0.13231 0.76952 0.71555 0.0
C2929 C 0.15663 0.78732 0.81997 0.0
C2930 C 0.14832 0.76224 0.82253 0.0
C2931 C 0.16403 0.79794 0.80235 0.0
C2932 C 0.16278 0.78341 0.78706 0.0
C2933 C 0.15286 0.75797 0.78941 0.0
C2934 C 0.14564 0.74742 0.80708 0.0
C2935 C 0.17359 0.79491 0.76895 0.0
C2936 C 0.15825 0.78877 0.75328 0.0
C2937 C 0.19909 0.81162 0.76711 0.0
C2938 C 0.21607 0.81924 0.78327 0.0
C2939 C 0.21878 0.80174 0.79365 0.0
C2940 C 0.23437 0.80906 0.80914 0.0
C2941 C 0.24752 0.83387 0.8143 0.0
C2942 C 0.24519 0.85141 0.80388 0.0
C2943 C 0.22957 0.84417 0.78841 0.0
H2944 H 0.25952 0.83952 0.82633 0.0
H2945 H 0.10594 0.78155 0.67863 0.0
H2946 H 0.4059 0.15144 0.80497 0.0
H2947 H 0.40741 0.16191 0.77197 0.0
H2948 H 0.45356 0.23887 0.78522 0.0
H2949 H 0.45203 0.22864 0.8182 0.0
H2950 H 0.41599 0.23094 0.76261 0.0
H2951 H 0.47717 0.20696 0.76518 0.0
H2952 H 0.49388 0.17971 0.77219 0.0
H2953 H 0.44191 0.12528 0.73458 0.0
H2954 H 0.42457 0.15203 0.72755 0.0
H2955 H 0.43797 0.2728 0.67112 0.0
H2956 H 0.44939 0.26342 0.7013 0.0
H2957 H 0.40086 0.18588 0.6916 0.0
H2958 H 0.38944 0.19514 0.66136 0.0
H2959 H 0.44296 0.19558 0.71213 0.0
H2960 H 0.3785 0.21639 0.71301 0.0
H2961 H 0.36041 0.24252 0.70614 0.0
H2962 H 0.41759 0.30163 0.73771 0.0
H2963 H 0.43624 0.27594 0.74453 0.0
C2964 C 0.41637 0.1706 0.80087 0.0
C2965 C 0.42882 0.18921 0.81422 0.0
C2966 C 0.41737 0.17652 0.78199 0.0
C2967 C 0.43084 0.20114 0.77613 0.0
C2968 C 0.44315 0.21975 0.78944 0.0
C2969 C 0.44223 0.21385 0.80829 0.0
C2970 C 0.43117 0.20766 0.75624 0.0
C2971 C 0.42231 0.22352 0.75163 0.0
C2972 C 0.43887 0.1975 0.74188 0.0
C2973 C 0.44935 0.18141 0.74601 0.0
C2974 C 0.46909 0.18906 0.75856 0.0
C2975 C 0.47872 0.17372 0.76251 0.0
C2976 C 0.46888 0.15072 0.75392 0.0
C2977 C 0.44946 0.14307 0.74127 0.0
C2978 C 0.43975 0.15834 0.73728 0.0
C2979 C 0.43018 0.25371 0.67519 0.0
C2980 C 0.41253 0.23469 0.66399 0.0
C2981 C 0.43676 0.24839 0.69243 0.0
C2982 C 0.4256 0.224 0.6988 0.0
C2983 C 0.40964 0.20484 0.68694 0.0
C2984 C 0.40309 0.21016 0.66966 0.0
C2985 C 0.42778 0.21879 0.71863 0.0
C2986 C 0.43695 0.20314 0.7232 0.0
C2987 C 0.4202 0.22896 0.73304 0.0
C2988 C 0.40891 0.24435 0.72909 0.0
C2989 C 0.38731 0.23502 0.71836 0.0
C2990 C 0.37695 0.24974 0.71449 0.0
C2991 C 0.38789 0.27375 0.72144 0.0
C2992 C 0.40917 0.28305 0.73231 0.0
C2993 C 0.41964 0.26842 0.73618 0.0
H2994 H 0.37983 0.28511 0.71843 0.0
H2995 H 0.47637 0.13888 0.75698 0.0
H2996 H 0.22964 0.43082 0.82772 0.0
H2997 H 0.20769 0.42178 0.79804 0.0
H2998 H 0.23032 0.36892 0.78517 0.0
H2999 H 0.25114 0.37684 0.81537 0.0
H3000 H 0.2438 0.40873 0.75847 0.0
H3001 H 0.17552 0.34547 0.79025 0.0
H3002 H 0.14286 0.32445 0.8137 0.0
H3003 H 0.11312 0.37093 0.79985 0.0
H3004 H 0.14601 0.39273 0.77662 0.0
H3005 H 0.13384 0.36405 0.68582 0.0
H3006 H 0.15098 0.35909 0.71512 0.0
H3007 H 0.21029 0.43445 0.7111 0.0
H3008 H 0.19442 0.43844 0.68108 0.0
H3009 H 0.15521 0.37713 0.74616 0.0
H3010 H 0.25849 0.44746 0.73609 0.0
H3011 H 0.28948 0.46391 0.71097 0.0
H3012 H 0.2488 0.39652 0.68036 0.0
H3013 H 0.2176 0.37957 0.70552 0.0
C3014 C 0.22905 0.41653 0.81897 0.0
C3015 C 0.24172 0.40425 0.82408 0.0
C3016 C 0.2167 0.41154 0.80193 0.0
C3017 C 0.21734 0.39462 0.78951 0.0
C3018 C 0.22954 0.38194 0.79467 0.0
C3019 C 0.24142 0.38652 0.8119 0.0
C3020 C 0.20755 0.39225 0.77044 0.0
C3021 C 0.2244 0.40167 0.75568 0.0
C3022 C 0.18226 0.38277 0.76692 0.0
C3023 C 0.16342 0.37091 0.78177 0.0
C3024 C 0.16233 0.35157 0.79243 0.0
C3025 C 0.14369 0.33942 0.80563 0.0
C3026 C 0.12587 0.34627 0.80818 0.0
C3027 C 0.1269 0.36559 0.79779 0.0
C3028 C 0.14557 0.37789 0.78464 0.0
C3029 C 0.15082 0.37929 0.6911 0.0
C3030 C 0.163 0.40152 0.68124 0.0
C3031 C 0.16057 0.37654 0.70786 0.0
C3032 C 0.18225 0.39625 0.71533 0.0
C3033 C 0.19416 0.41859 0.70545 0.0
C3034 C 0.18494 0.42099 0.68836 0.0
C3035 C 0.19148 0.39394 0.73395 0.0
C3036 C 0.17459 0.38392 0.74875 0.0
C3037 C 0.21675 0.40252 0.73747 0.0
C3038 C 0.23561 0.41232 0.72253 0.0
C3039 C 0.25621 0.4361 0.72404 0.0
C3040 C 0.27376 0.44553 0.7098 0.0
C3041 C 0.27101 0.43128 0.69405 0.0
C3042 C 0.25077 0.40753 0.69254 0.0
C3043 C 0.23314 0.39803 0.70674 0.0
H3044 H 0.2846 0.43862 0.68303 0.0
H3045 H 0.11119 0.33651 0.81813 0.0
H3046 H 0.82791 0.27778 0.81359 0.0
H3047 H 0.80526 0.25374 0.78599 0.0
H3048 H 0.82117 0.1967 0.80133 0.0
H3049 H 0.84359 0.22051 0.82886 0.0
H3050 H 0.83303 0.22959 0.759 0.0
H3051 H 0.77482 0.16797 0.80582 0.0
H3052 H 0.74716 0.15746 0.833 0.0
H3053 H 0.70975 0.19092 0.80672 0.0
H3054 H 0.73735 0.20185 0.77946 0.0
H3055 H 0.7407 0.12243 0.69782 0.0
H3056 H 0.75701 0.13825 0.72914 0.0
H3057 H 0.77152 0.21041 0.71273 0.0
H3058 H 0.75566 0.19513 0.68177 0.0
H3059 H 0.74424 0.16649 0.75667 0.0
H3060 H 0.82923 0.24994 0.72667 0.0
H3061 H 0.85205 0.26173 0.69694 0.0
H3062 H 0.83423 0.18695 0.68803 0.0
H3063 H 0.8117 0.17477 0.71788 0.0
C3064 C 0.8263 0.26 0.81109 0.0
C3065 C 0.83699 0.25065 0.8234 0.0
C3066 C 0.81335 0.24631 0.79546 0.0
C3067 C 0.81131 0.22337 0.79191 0.0
C3068 C 0.82217 0.21416 0.80411 0.0
C3069 C 0.83482 0.22767 0.81981 0.0
C3070 C 0.79944 0.20981 0.77472 0.0
C3071 C 0.81369 0.21566 0.75848 0.0
C3072 C 0.77424 0.19179 0.77417 0.0
C3073 C 0.75824 0.1859 0.79074 0.0
C3074 C 0.76089 0.17334 0.80596 0.0
C3075 C 0.74517 0.1672 0.82131 0.0
C3076 C 0.72668 0.17343 0.82152 0.0
C3077 C 0.72402 0.18603 0.80647 0.0
C3078 C 0.73968 0.1922 0.79109 0.0
C3079 C 0.74721 0.1416 0.70099 0.0
C3080 C 0.74712 0.15755 0.68728 0.0
C3081 C 0.75635 0.15053 0.71885 0.0
C3082 C 0.76556 0.17548 0.72308 0.0
C3083 C 0.76462 0.19114 0.70964 0.0
C3084 C 0.7556 0.18232 0.69192 0.0
C3085 C 0.7779 0.18599 0.74098 0.0
C3086 C 0.76373 0.17993 0.75727 0.0
C3087 C 0.80321 0.20396 0.74156 0.0
C3088 C 0.81863 0.21143 0.72446 0.0
C3089 C 0.83045 0.23607 0.71849 0.0
C3090 C 0.84324 0.2428 0.70158 0.0
C3091 C 0.84436 0.22505 0.69054 0.0
C3092 C 0.83314 0.20062 0.69654 0.0
C3093 C 0.82042 0.19381 0.71347 0.0
H3094 H 0.85407 0.23025 0.67739 0.0
H3095 H 0.71444 0.16854 0.83338 0.0
H3096 H 0.5531 0.10914 0.12285 0.0
H3097 H 0.55641 0.07242 0.11847 0.0
H3098 H 0.4928 0.0417 0.0824 0.0
H3099 H 0.48895 0.07841 0.08737 0.0
H3100 H 0.48908 0.00834 0.10555 0.0
H3101 H 0.55383 0.06384 0.06512 0.0
H3102 H 0.59086 0.10262 0.05608 0.0
H3103 H 0.63224 0.09262 0.09943 0.0
H3104 H 0.59533 0.05402 0.10893 0.0
H3105 H 0.50541 0.90733 0.0861 0.0
H3106 H 0.50684 0.94621 0.0793 0.0
H3107 H 0.55937 0.98155 0.12365 0.0
H3108 H 0.5575 0.94265 0.13097 0.0
H3109 H 0.56827 0.01191 0.09147 0.0
H3110 H 0.50306 0.96076 0.13429 0.0
H3111 H 0.46684 0.92192 0.14411 0.0
H3112 H 0.42674 0.92413 0.09633 0.0
H3113 H 0.46298 0.96295 0.08611 0.0
C3114 C 0.54002 0.0947 0.11377 0.0
C3115 C 0.52094 0.09668 0.10525 0.0
C3116 C 0.542 0.07375 0.11119 0.0
C3117 C 0.52526 0.05451 0.0997 0.0
C3118 C 0.50608 0.05641 0.09119 0.0
C3119 C 0.50387 0.07731 0.09402 0.0
C3120 C 0.52703 0.03187 0.09767 0.0
C3121 C 0.50626 0.00912 0.10197 0.0
C3122 C 0.54958 0.03283 0.09345 0.0
C3123 C 0.57182 0.05604 0.08774 0.0
C3124 C 0.5708 0.06998 0.07278 0.0
C3125 C 0.59176 0.09194 0.06758 0.0
C3126 C 0.61389 0.10009 0.07717 0.0
C3127 C 0.6151 0.08629 0.09199 0.0
C3128 C 0.59418 0.06435 0.09727 0.0
C3129 C 0.51745 0.92342 0.0943 0.0
C3130 C 0.53101 0.92175 0.10929 0.0
C3131 C 0.51837 0.94564 0.09031 0.0
C3132 C 0.53297 0.9666 0.10114 0.0
C3133 C 0.54801 0.96554 0.11513 0.0
C3134 C 0.54695 0.94327 0.11925 0.0
C3135 C 0.53042 0.98871 0.09939 0.0
C3136 C 0.55102 0.01124 0.09454 0.0
C3137 C 0.50775 0.98761 0.10308 0.0
C3138 C 0.48579 0.96457 0.10933 0.0
C3139 C 0.48657 0.95287 0.12581 0.0
C3140 C 0.46603 0.93086 0.13146 0.0
C3141 C 0.44449 0.92046 0.12081 0.0
C3142 C 0.44344 0.93216 0.10454 0.0
C3143 C 0.46398 0.95418 0.09882 0.0
H3144 H 0.42861 0.90339 0.1252 0.0
H3145 H 0.6301 0.11709 0.07312 0.0
H3146 H 0.61021 0.54251 0.08981 0.0
H3147 H 0.57137 0.54318 0.08776 0.0
H3148 H 0.53933 0.48601 0.12942 0.0
H3149 H 0.5777 0.48515 0.13126 0.0
H3150 H 0.51066 0.47413 0.09954 0.0
H3151 H 0.55689 0.54695 0.13775 0.0
H3152 H 0.59075 0.58874 0.14498 0.0
H3153 H 0.57122 0.61742 0.09777 0.0
H3154 H 0.53773 0.57573 0.08992 0.0
H3155 H 0.40573 0.47588 0.13481 0.0
H3156 H 0.44472 0.47733 0.12894 0.0
H3157 H 0.45978 0.5279 0.08354 0.0
H3158 H 0.42022 0.52572 0.08869 0.0
H3159 H 0.49759 0.54488 0.10988 0.0
H3160 H 0.44907 0.47405 0.0736 0.0
H3161 H 0.41572 0.43272 0.06491 0.0
H3162 H 0.43982 0.40044 0.10663 0.0
H3163 H 0.47272 0.44164 0.11615 0.0
C3164 C 0.59497 0.53053 0.09876 0.0
C3165 C 0.59676 0.51369 0.11061 0.0
C3166 C 0.57282 0.53085 0.09756 0.0
C3167 C 0.5524 0.51453 0.10837 0.0
C3168 C 0.55474 0.49859 0.12082 0.0
C3169 C 0.57666 0.49817 0.12193 0.0
C3170 C 0.52804 0.51273 0.1062 0.0
C3171 C 0.50773 0.48954 0.10202 0.0
C3172 C 0.52447 0.53312 0.10853 0.0
C3173 C 0.545 0.55812 0.11309 0.0
C3174 C 0.56005 0.5621 0.12874 0.0
C3175 C 0.57918 0.58579 0.13296 0.0
C3176 C 0.58324 0.60571 0.12177 0.0
C3177 C 0.5682 0.60197 0.10634 0.0
C3178 C 0.54916 0.57831 0.10199 0.0
C3179 C 0.41688 0.48672 0.12319 0.0
C3180 C 0.40981 0.50084 0.11233 0.0
C3181 C 0.43929 0.48765 0.11994 0.0
C3182 C 0.45517 0.50283 0.10588 0.0
C3183 C 0.44784 0.51621 0.09455 0.0
C3184 C 0.42527 0.51501 0.0976 0.0
C3185 C 0.48013 0.50606 0.10402 0.0
C3186 C 0.50053 0.5295 0.1073 0.0
C3187 C 0.48383 0.48591 0.10082 0.0
C3188 C 0.46326 0.46108 0.09576 0.0
C3189 C 0.447 0.45822 0.08121 0.0
C3190 C 0.42816 0.43477 0.0761 0.0
C3191 C 0.42557 0.41397 0.08528 0.0
C3192 C 0.44174 0.41658 0.09963 0.0
C3193 C 0.46045 0.43999 0.10492 0.0
H3194 H 0.41109 0.39583 0.08121 0.0
H3195 H 0.59793 0.62405 0.12513 0.0
H3196 H 0.93705 0.41614 0.14116 0.0
H3197 H 0.97179 0.45849 0.14119 0.0
H3198 H 0.98558 0.45107 0.08333 0.0
H3199 H 0.95042 0.40867 0.08324 0.0
H3200 H 0.02916 0.47628 0.10667 0.0
H3201 H 0.95525 0.47742 0.09173 0.0
H3202 H 0.9124 0.46771 0.09638 0.0
H3203 H 0.93253 0.50739 0.14814 0.0
H3204 H 0.97542 0.51682 0.14406 0.0
H3205 H 0.1106 0.60126 0.0925 0.0
H3206 H 0.0735 0.56126 0.08764 0.0
H3207 H 0.04687 0.56648 0.14194 0.0
H3208 H 0.08363 0.60698 0.14649 0.0
H3209 H 0.00906 0.54225 0.11854 0.0
H3210 H 0.08089 0.53806 0.13567 0.0
H3211 H 0.12408 0.54823 0.1323 0.0
H3212 H 0.10793 0.51413 0.07829 0.0
H3213 H 0.06473 0.5042 0.08119 0.0
C3214 C 0.94798 0.42339 0.12863 0.0
C3215 C 0.94149 0.40921 0.11228 0.0
C3216 C 0.96761 0.44758 0.1286 0.0
C3217 C 0.98105 0.45796 0.11221 0.0
C3218 C 0.9754 0.44336 0.0961 0.0
C3219 C 0.95552 0.41918 0.09607 0.0
C3220 C 1.00017 0.48439 0.11177 0.0
C3221 C 0.02475 0.49074 0.10896 0.0
C3222 C 0.99438 0.50317 0.11522 0.0
C3223 C 0.96855 0.49758 0.11769 0.0
C3224 C 0.95052 0.48384 0.10422 0.0
C3225 C 0.92621 0.47841 0.10674 0.0
C3226 C 0.91973 0.48687 0.12257 0.0
C3227 C 0.93756 0.5008 0.1359 0.0
C3228 C 0.96188 0.50618 0.1335 0.0
C3229 C 0.09643 0.59415 0.10312 0.0
C3230 C 0.09993 0.60704 0.1199 0.0
C3231 C 0.07534 0.57125 0.10041 0.0
C3232 C 0.05772 0.56052 0.11464 0.0
C3233 C 0.06028 0.57429 0.13081 0.0
C3234 C 0.08123 0.59743 0.13339 0.0
C3235 C 0.03813 0.53419 0.1135 0.0
C3236 C 0.01347 0.52782 0.11609 0.0
C3237 C 0.04384 0.51532 0.1101 0.0
C3238 C 0.06963 0.52059 0.10857 0.0
C3239 C 0.08657 0.53283 0.12304 0.0
C3240 C 0.11106 0.53857 0.12121 0.0
C3241 C 0.11876 0.53187 0.10507 0.0
C3242 C 0.10195 0.51934 0.09077 0.0
C3243 C 0.07746 0.51365 0.0925 0.0
H3244 H 0.13773 0.53637 0.10367 0.0
H3245 H 0.90092 0.48268 0.12445 0.0
H3246 H 0.09933 0.5153 0.41775 0.0
H3247 H 0.06156 0.51737 0.41998 0.0
H3248 H 0.03478 0.47501 0.36935 0.0
H3249 H 0.07268 0.47305 0.36695 0.0
H3250 H 0.04729 0.53982 0.39546 0.0
H3251 H 0.97088 0.44395 0.3702 0.0
H3252 H 0.96066 0.40055 0.37126 0.0
H3253 H 0.00362 0.41492 0.42109 0.0
H3254 H 0.01377 0.4583 0.42051 0.0
H3255 H 0.93966 0.53851 0.36091 0.0
H3256 H 0.97663 0.5355 0.36598 0.0
H3257 H 0.94457 0.49335 0.416 0.0
H3258 H 0.90766 0.49648 0.41111 0.0
H3259 H 0.96119 0.47064 0.39322 0.0
H3260 H 0.99205 0.55179 0.41827 0.0
H3261 H 0.00182 0.59506 0.41811 0.0
H3262 H 0.04985 0.61005 0.37126 0.0
H3263 H 0.04005 0.56675 0.37092 0.0
C3264 C 0.08524 0.50611 0.40723 0.0
C3265 C 0.08905 0.49413 0.39211 0.0
C3266 C 0.06369 0.50734 0.40852 0.0
C3267 C 0.04538 0.49642 0.39482 0.0
C3268 C 0.04855 0.48336 0.3802 0.0
C3269 C 0.07017 0.48214 0.37888 0.0
C3270 C 0.02393 0.50035 0.39509 0.0
C3271 C 0.02845 0.52467 0.39504 0.0
C3272 C 0.99936 0.4806 0.39462 0.0
C3273 C 0.9933 0.45448 0.39518 0.0
C3274 C 0.97808 0.43784 0.38142 0.0
C3275 C 0.97229 0.41323 0.38194 0.0
C3276 C 0.98155 0.405 0.39619 0.0
C3277 C 0.99654 0.42134 0.41 0.0
C3278 C 0.00235 0.44596 0.40957 0.0
C3279 C 0.94075 0.52917 0.37325 0.0
C3280 C 0.92069 0.51764 0.38556 0.0
C3281 C 0.96185 0.52736 0.37609 0.0
C3282 C 0.96332 0.51412 0.39134 0.0
C3283 C 0.94374 0.50348 0.40406 0.0
C3284 C 0.92269 0.50531 0.40126 0.0
C3285 C 0.98457 0.51008 0.39342 0.0
C3286 C 0.98003 0.48576 0.39377 0.0
C3287 C 0.00912 0.52982 0.39424 0.0
C3288 C 0.01511 0.55593 0.39446 0.0
C3289 C 0.00453 0.56425 0.40782 0.0
C3290 C 0.0101 0.5888 0.40784 0.0
C3291 C 0.02638 0.60527 0.39465 0.0
C3292 C 0.0372 0.59725 0.38145 0.0
C3293 C 0.03165 0.57271 0.38135 0.0
H3294 H 0.03067 0.62427 0.39468 0.0
H3295 H 0.97706 0.38595 0.39656 0.0
H3296 H 0.60121 0.08209 0.35379 0.0
H3297 H 0.55995 0.04566 0.35543 0.0
H3298 H 0.55424 0.06162 0.41308 0.0
H3299 H 0.59534 0.0983 0.4114 0.0
H3300 H 0.53363 0.00882 0.40328 0.0
H3301 H 0.53128 0.08215 0.38554 0.0
H3302 H 0.54388 0.11919 0.36638 0.0
H3303 H 0.51722 0.07435 0.31721 0.0
H3304 H 0.50487 0.03706 0.33606 0.0
H3305 H 0.4059 0.93451 0.41221 0.0
H3306 H 0.44629 0.9722 0.41339 0.0
H3307 H 0.45054 0.97189 0.35333 0.0
H3308 H 0.40978 0.93484 0.35223 0.0
H3309 H 0.4723 0.01755 0.36524 0.0
H3310 H 0.47515 0.94476 0.3812 0.0
H3311 H 0.46322 0.90674 0.39891 0.0
H3312 H 0.48987 0.94874 0.44939 0.0
H3313 H 0.50154 0.98698 0.43202 0.0
C3314 C 0.59145 0.07734 0.36695 0.0
C3315 C 0.60135 0.09287 0.38248 0.0
C3316 C 0.56788 0.05668 0.36784 0.0
C3317 C 0.55406 0.05118 0.38432 0.0
C3318 C 0.56467 0.06561 0.40026 0.0
C3319 C 0.58808 0.08648 0.39929 0.0
C3320 C 0.52775 0.032 0.38439 0.0
C3321 C 0.52012 0.01079 0.39516 0.0
C3322 C 0.51034 0.03449 0.37349 0.0
C3323 C 0.51738 0.05685 0.36218 0.0
C3324 C 0.52829 0.08021 0.37063 0.0
C3325 C 0.53536 0.10125 0.35983 0.0
C3326 C 0.5314 0.09913 0.34058 0.0
C3327 C 0.5203 0.07597 0.33211 0.0
C3328 C 0.51325 0.05487 0.34285 0.0
C3329 C 0.41517 0.94313 0.39931 0.0
C3330 C 0.40487 0.93215 0.38213 0.0
C3331 C 0.4383 0.96442 0.39996 0.0
C3332 C 0.45171 0.97452 0.38346 0.0
C3333 C 0.4406 0.96441 0.36623 0.0
C3334 C 0.41732 0.94335 0.36558 0.0
C3335 C 0.47798 0.99416 0.38414 0.0
C3336 C 0.48569 0.01551 0.37346 0.0
C3337 C 0.49553 0.99161 0.39493 0.0
C3338 C 0.489 0.96871 0.40534 0.0
C3339 C 0.47835 0.94588 0.39609 0.0
C3340 C 0.47162 0.92428 0.40607 0.0
C3341 C 0.47574 0.92532 0.42527 0.0
C3342 C 0.48666 0.94796 0.43452 0.0
C3343 C 0.49333 0.9696 0.42462 0.0
H3344 H 0.47052 0.90859 0.43297 0.0
H3345 H 0.53689 0.11544 0.33224 0.0
H3346 H 0.52025 0.41688 0.40508 0.0
H3347 H 0.52324 0.45673 0.41061 0.0
H3348 H 0.47199 0.44254 0.36579 0.0
H3349 H 0.46974 0.40322 0.35966 0.0
H3350 H 0.5121 0.48576 0.36136 0.0
H3351 H 0.45701 0.44366 0.41221 0.0
H3352 H 0.44297 0.41871 0.44087 0.0
H3353 H 0.50708 0.47311 0.46994 0.0
H3354 H 0.52168 0.49825 0.44136 0.0
H3355 H 0.48019 0.57697 0.37359 0.0
H3356 H 0.48026 0.53813 0.37338 0.0
H3357 H 0.54176 0.5685 0.41141 0.0
H3358 H 0.54177 0.60785 0.41166 0.0
H3359 H 0.50105 0.51942 0.42085 0.0
H3360 H 0.55459 0.56252 0.36998 0.0
H3361 H 0.56742 0.58748 0.3413 0.0
H3362 H 0.50494 0.53065 0.31224 0.0
H3363 H 0.49151 0.50549 0.34084 0.0
C3364 C 0.50939 0.42213 0.39654 0.0
C3365 C 0.49491 0.40693 0.38182 0.0
C3366 C 0.51098 0.44485 0.39982 0.0
C3367 C 0.49788 0.45267 0.38859 0.0
C3368 C 0.48234 0.43692 0.37459 0.0
C3369 C 0.48084 0.41428 0.37124 0.0
C3370 C 0.50191 0.47802 0.3903 0.0
C3371 C 0.50939 0.49296 0.37434 0.0
C3372 C 0.49931 0.4878 0.40739 0.0
C3373 C 0.49057 0.47271 0.42458 0.0
C3374 C 0.46823 0.4502 0.42466 0.0
C3375 C 0.46015 0.43604 0.44091 0.0
C3376 C 0.47416 0.44428 0.4572 0.0
C3377 C 0.49626 0.46673 0.4573 0.0
C3378 C 0.50444 0.48095 0.44109 0.0
C3379 C 0.49375 0.57539 0.38191 0.0
C3380 C 0.51095 0.59532 0.39268 0.0
C3381 C 0.4938 0.55324 0.38174 0.0
C3382 C 0.51104 0.5505 0.39234 0.0
C3383 C 0.52831 0.57033 0.40315 0.0
C3384 C 0.52843 0.59275 0.40318 0.0
C3385 C 0.51065 0.52673 0.39183 0.0
C3386 C 0.50395 0.51217 0.40796 0.0
C3387 C 0.51386 0.51718 0.37489 0.0
C3388 C 0.52195 0.53219 0.35761 0.0
C3389 C 0.54347 0.55542 0.35751 0.0
C3390 C 0.55087 0.5696 0.34126 0.0
C3391 C 0.53698 0.56068 0.32497 0.0
C3392 C 0.51568 0.53754 0.32488 0.0
C3393 C 0.50818 0.5233 0.3411 0.0
H3394 H 0.54274 0.57168 0.3124 0.0
H3395 H 0.46787 0.4333 0.46976 0.0
H3396 H 0.48978 0.09367 0.88413 0.0
H3397 H 0.49029 0.05629 0.89385 0.0
H3398 H 0.53106 0.06041 0.84423 0.0
H3399 H 0.53043 0.09736 0.83452 0.0
H3400 H 0.49471 0.01349 0.85153 0.0
H3401 H 0.56041 0.08233 0.88487 0.0
H3402 H 0.57724 0.11804 0.90609 0.0
H3403 H 0.53173 0.07171 0.95046 0.0
H3404 H 0.51435 0.03577 0.9294 0.0
H3405 H 0.54801 0.94229 0.86794 0.0
H3406 H 0.54976 0.98219 0.86662 0.0
H3407 H 0.49972 0.96108 0.91313 0.0
H3408 H 0.49769 0.92107 0.91434 0.0
H3409 H 0.5379 0.01509 0.90998 0.0
H3410 H 0.47256 0.94641 0.87734 0.0
H3411 H 0.45602 0.91014 0.85671 0.0
H3412 H 0.49992 0.95584 0.8115 0.0
H3413 H 0.51714 0.99232 0.83203 0.0
C3414 C 0.49847 0.08627 0.87523 0.0
C3415 C 0.51022 0.09838 0.85867 0.0
C3416 C 0.49892 0.06511 0.88082 0.0
C3417 C 0.51099 0.0558 0.86984 0.0
C3418 C 0.52173 0.06732 0.85292 0.0
C3419 C 0.52143 0.08845 0.84743 0.0
C3420 C 0.51331 0.03453 0.87601 0.0
C3421 C 0.50424 0.01393 0.86427 0.0
C3422 C 0.52531 0.03489 0.89283 0.0
C3423 C 0.53588 0.05643 0.90551 0.0
C3424 C 0.55385 0.0798 0.89911 0.0
C3425 C 0.56351 0.10008 0.91112 0.0
C3426 C 0.55551 0.09716 0.9296 0.0
C3427 C 0.53787 0.07395 0.93613 0.0
C3428 C 0.52812 0.05362 0.92417 0.0
C3429 C 0.5383 0.94665 0.87839 0.0
C3430 C 0.52262 0.92873 0.89116 0.0
C3431 C 0.53923 0.96934 0.87759 0.0
C3432 C 0.52463 0.97433 0.88965 0.0
C3433 C 0.51114 0.95753 0.90377 0.0
C3434 C 0.50997 0.93473 0.90442 0.0
C3435 C 0.51981 0.99452 0.88527 0.0
C3436 C 0.52824 0.01471 0.89734 0.0
C3437 C 0.50707 0.9938 0.86881 0.0
C3438 C 0.49631 0.97204 0.85627 0.0
C3439 C 0.47881 0.94869 0.86304 0.0
C3440 C 0.4693 0.9281 0.85137 0.0
C3441 C 0.47694 0.93068 0.83281 0.0
C3442 C 0.49405 0.95387 0.82589 0.0
C3443 C 0.50369 0.97451 0.83754 0.0
H3444 H 0.46957 0.91471 0.8238 0.0
H3445 H 0.56301 0.11288 0.93887 0.0
H3446 H 0.42137 0.46731 0.8784 0.0
H3447 H 0.46132 0.47285 0.88693 0.0
H3448 H 0.47096 0.52763 0.9275 0.0
H3449 H 0.43007 0.52115 0.91998 0.0
H3450 H 0.51219 0.54022 0.89961 0.0
H3451 H 0.4635 0.48186 0.94625 0.0
H3452 H 0.42788 0.44423 0.95859 0.0
H3453 H 0.44563 0.39984 0.9235 0.0
H3454 H 0.48108 0.43722 0.91067 0.0
H3455 H 0.62506 0.53877 0.91544 0.0
H3456 H 0.58775 0.54081 0.92256 0.0
H3457 H 0.54359 0.47096 0.89496 0.0
H3458 H 0.58035 0.46869 0.88827 0.0
H3459 H 0.52146 0.47188 0.92526 0.0
H3460 H 0.56349 0.52903 0.87402 0.0
H3461 H 0.59809 0.56583 0.85969 0.0
H3462 H 0.59215 0.61166 0.90142 0.0
H3463 H 0.55774 0.57505 0.91617 0.0
C3464 C 0.43152 0.48009 0.8895 0.0
C3465 C 0.4222 0.49363 0.89855 0.0
C3466 C 0.45454 0.48341 0.8942 0.0
C3467 C 0.46898 0.5006 0.90783 0.0
C3468 C 0.46002 0.51431 0.9169 0.0
C3469 C 0.43669 0.51063 0.91248 0.0
C3470 C 0.49361 0.50422 0.91211 0.0
C3471 C 0.51442 0.5256 0.90566 0.0
C3472 C 0.49627 0.48498 0.9198 0.0
C3473 C 0.4749 0.46239 0.92743 0.0
C3474 C 0.45968 0.46409 0.94103 0.0
C3475 C 0.43953 0.4428 0.94814 0.0
C3476 C 0.43449 0.41966 0.94183 0.0
C3477 C 0.44957 0.41777 0.92838 0.0
C3478 C 0.46971 0.43901 0.9212 0.0
C3479 C 0.6073 0.52384 0.91107 0.0
C3480 C 0.60554 0.5035 0.90143 0.0
C3481 C 0.58605 0.52502 0.9151 0.0
C3482 C 0.56284 0.50609 0.90919 0.0
C3483 C 0.5612 0.48568 0.89983 0.0
C3484 C 0.58225 0.48438 0.89602 0.0
C3485 C 0.54006 0.5074 0.9119 0.0
C3486 C 0.5195 0.48689 0.9197 0.0
C3487 C 0.53762 0.52734 0.90522 0.0
C3488 C 0.5583 0.54929 0.89635 0.0
C3489 C 0.56971 0.54693 0.88023 0.0
C3490 C 0.58927 0.56775 0.87202 0.0
C3491 C 0.59739 0.59106 0.87969 0.0
C3492 C 0.58591 0.59359 0.89554 0.0
C3493 C 0.56639 0.57282 0.90384 0.0
H3494 H 0.61252 0.60716 0.8733 0.0
H3495 H 0.41891 0.4032 0.94738 0.0
H3496 H 0.06202 0.62098 0.88563 0.0
H3497 H 0.02138 0.58531 0.89146 0.0
H3498 H 0.05252 0.55928 0.93306 0.0
H3499 H 0.0931 0.59525 0.92773 0.0
H3500 H 0.02873 0.52623 0.90392 0.0
H3501 H 0.01278 0.57433 0.94707 0.0
H3502 H 0.01136 0.611 0.95755 0.0
H3503 H 0.95895 0.59941 0.91463 0.0
H3504 H 0.96026 0.56273 0.90372 0.0
H3505 H 0.92069 0.41555 0.91873 0.0
H3506 H 0.95504 0.45621 0.92692 0.0
H3507 H 0.92622 0.49025 0.89026 0.0
H3508 H 0.89138 0.44962 0.88256 0.0
H3509 H 0.94872 0.51971 0.91988 0.0
H3510 H 0.96799 0.47523 0.87459 0.0
H3511 H 0.97044 0.43968 0.86257 0.0
H3512 H 0.01824 0.44632 0.90778 0.0
H3513 H 0.01574 0.4817 0.92023 0.0
C3514 C 0.06011 0.6081 0.89645 0.0
C3515 C 0.08086 0.61069 0.90598 0.0
C3516 C 0.03687 0.5877 0.89974 0.0
C3517 C 0.03404 0.56962 0.91259 0.0
C3518 C 0.0544 0.57299 0.923 0.0
C3519 C 0.07757 0.59344 0.91984 0.0
C3520 C 0.01073 0.54582 0.91338 0.0
C3521 C 0.0113 0.5247 0.90782 0.0
C3522 C 0.98798 0.5441 0.91786 0.0
C3523 C 0.98672 0.56584 0.92451 0.0
C3524 C 1.00104 0.57966 0.93979 0.0
C3525 C 1.00024 0.60042 0.94582 0.0
C3526 C 0.98506 0.6075 0.93677 0.0
C3527 C 0.97065 0.59384 0.92165 0.0
C3528 C 0.97138 0.57302 0.91555 0.0
C3529 C 0.92149 0.43178 0.91273 0.0
C3530 C 0.90364 0.42953 0.89986 0.0
C3531 C 0.94106 0.45496 0.91741 0.0
C3532 C 0.94347 0.47622 0.90888 0.0
C3533 C 0.92475 0.47411 0.89699 0.0
C3534 C 0.90492 0.45092 0.89255 0.0
C3535 C 0.96679 0.50006 0.91056 0.0
C3536 C 0.9662 0.52119 0.91632 0.0
C3537 C 0.98966 0.50197 0.90606 0.0
C3538 C 0.99147 0.48093 0.89845 0.0
C3539 C 0.9789 0.46901 0.88202 0.0
C3540 C 0.9803 0.4489 0.87514 0.0
C3541 C 0.99443 0.4407 0.88443 0.0
C3542 C 0.00726 0.45266 0.90061 0.0
C3543 C 0.00586 0.47274 0.90759 0.0
H3544 H 0.99549 0.42513 0.87908 0.0
H3545 H 0.98445 0.62353 0.94155 0.0
H3546 H 0.90114 0.47946 0.57209 0.0
H3547 H 0.93986 0.47972 0.56721 0.0
H3548 H 0.96499 0.51242 0.62149 0.0
H3549 H 0.92637 0.51261 0.62621 0.0
H3550 H 0.00343 0.52714 0.59678 0.0
H3551 H 0.93364 0.45209 0.6183 0.0
H3552 H 0.89054 0.41834 0.61679 0.0
H3553 H 0.90432 0.39612 0.56364 0.0
H3554 H 0.94746 0.43002 0.56471 0.0
H3555 H 0.05725 0.44738 0.62242 0.0
H3556 H 0.01941 0.44891 0.61741 0.0
H3557 H 0.05154 0.49407 0.56868 0.0
H3558 H 0.08936 0.4926 0.57366 0.0
H3559 H 0.98462 0.44058 0.59014 0.0
H3560 H 0.04396 0.54478 0.57437 0.0
H3561 H 0.08662 0.57854 0.57913 0.0
H3562 H 0.09343 0.54152 0.62712 0.0
H3563 H 0.05066 0.50789 0.62293 0.0
C3564 C 0.91538 0.4876 0.58262 0.0
C3565 C 0.91089 0.49587 0.59956 0.0
C3566 C 0.93739 0.48763 0.57988 0.0
C3567 C 0.95497 0.49553 0.59419 0.0
C3568 C 0.95157 0.50616 0.61033 0.0
C3569 C 0.92959 0.50634 0.613 0.0
C3570 C 0.97484 0.48938 0.59349 0.0
C3571 C 0.99937 0.50829 0.59513 0.0
C3572 C 0.9694 0.46462 0.59191 0.0
C3573 C 0.9437 0.44373 0.5915 0.0
C3574 C 0.92745 0.44007 0.60626 0.0
C3575 C 0.90301 0.42093 0.60548 0.0
C3576 C 0.89466 0.40515 0.5901 0.0
C3577 C 0.91079 0.40839 0.57553 0.0
C3578 C 0.93525 0.42756 0.57622 0.0
C3579 C 0.0558 0.45674 0.61022 0.0
C3580 C 0.07622 0.47018 0.59857 0.0
C3581 C 0.03425 0.45769 0.6074 0.0
C3582 C 0.033 0.4721 0.59295 0.0
C3583 C 0.05236 0.4832 0.58009 0.0
C3584 C 0.07387 0.4823 0.58291 0.0
C3585 C 0.01325 0.47841 0.59293 0.0
C3586 C 0.98872 0.4595 0.59139 0.0
C3587 C 0.01866 0.5031 0.59513 0.0
C3588 C 0.04419 0.52365 0.59816 0.0
C3589 C 0.05452 0.54392 0.586 0.0
C3590 C 0.07872 0.56304 0.58861 0.0
C3591 C 0.09275 0.56213 0.60338 0.0
C3592 C 0.08256 0.54218 0.61566 0.0
C3593 C 0.05834 0.52309 0.61317 0.0
H3594 H 0.1115 0.57692 0.60535 0.0
H3595 H 0.87571 0.39038 0.5895 0.0
H3596 H 0.58583 0.09616 0.5887 0.0
H3597 H 0.54946 0.06043 0.57552 0.0
H3598 H 0.5525 0.01469 0.61917 0.0
H3599 H 0.58923 0.05007 0.63188 0.0
H3600 H 0.53272 0.98776 0.58926 0.0
H3601 H 0.52232 0.04752 0.62517 0.0
H3602 H 0.53005 0.08949 0.63142 0.0
H3603 H 0.49816 0.08998 0.57858 0.0
H3604 H 0.49065 0.04815 0.57189 0.0
H3605 H 0.40492 0.93203 0.6274 0.0
H3606 H 0.4426 0.9696 0.61919 0.0
H3607 H 0.4466 0.93639 0.56759 0.0
H3608 H 0.40888 0.89833 0.57599 0.0
H3609 H 0.46303 0.00384 0.59361 0.0
H3610 H 0.50647 0.95028 0.56196 0.0
H3611 H 0.4998 0.908 0.56138 0.0
H3612 H 0.4654 0.89386 0.6152 0.0
H3613 H 0.47228 0.93615 0.61622 0.0
C3614 C 0.57918 0.07824 0.59501 0.0
C3615 C 0.59003 0.0758 0.6114 0.0
C3616 C 0.55842 0.0579 0.58753 0.0
C3617 C 0.5479 0.03506 0.59666 0.0
C3618 C 0.56024 0.03214 0.61191 0.0
C3619 C 0.58123 0.05237 0.6192 0.0
C3620 C 0.52234 0.01548 0.59254 0.0
C3621 C 0.51749 0.99133 0.58981 0.0
C3622 C 0.50242 0.02007 0.59369 0.0
C3623 C 0.50616 0.04485 0.59795 0.0
C3624 C 0.51702 0.05662 0.61487 0.0
C3625 C 0.5214 0.08039 0.61848 0.0
C3626 C 0.51465 0.09241 0.60538 0.0
C3627 C 0.50342 0.08066 0.58869 0.0
C3628 C 0.49911 0.05693 0.58498 0.0
C3629 C 0.41331 0.93298 0.614 0.0
C3630 C 0.40418 0.91216 0.60244 0.0
C3631 C 0.4349 0.9545 0.60931 0.0
C3632 C 0.4477 0.95563 0.59296 0.0
C3633 C 0.43725 0.93573 0.58045 0.0
C3634 C 0.41574 0.91405 0.58524 0.0
C3635 C 0.47338 0.97604 0.59065 0.0
C3636 C 0.47825 1.00036 0.59227 0.0
C3637 C 0.4933 0.9715 0.58929 0.0
C3638 C 0.48957 0.94622 0.58901 0.0
C3639 C 0.49756 0.93815 0.57368 0.0
C3640 C 0.49375 0.9142 0.57328 0.0
C3641 C 0.48208 0.89822 0.58821 0.0
C3642 C 0.47436 0.90621 0.60362 0.0
C3643 C 0.47822 0.93017 0.60412 0.0
H3644 H 0.47908 0.87967 0.58785 0.0
H3645 H 0.51806 0.11081 0.60818 0.0
H3646 H 0.43947 0.39194 0.57664 0.0
H3647 H 0.44231 0.43231 0.5741 0.0
H3648 H 0.45461 0.44284 0.63338 0.0
H3649 H 0.45173 0.40261 0.63589 0.0
H3650 H 0.43036 0.46675 0.61887 0.0
H3651 H 0.50053 0.4565 0.60619 0.0
H3652 H 0.51961 0.43622 0.58926 0.0
H3653 H 0.51184 0.46638 0.53769 0.0
H3654 H 0.49132 0.4857 0.55423 0.0
H3655 H 0.51225 0.59174 0.63411 0.0
H3656 H 0.49988 0.54816 0.6309 0.0
H3657 H 0.48386 0.55043 0.57274 0.0
H3658 H 0.49577 0.59397 0.57599 0.0
H3659 H 0.50692 0.51982 0.58326 0.0
H3660 H 0.43852 0.53194 0.5961 0.0
H3661 H 0.41745 0.55038 0.61296 0.0
H3662 H 0.42275 0.51756 0.66397 0.0
H3663 H 0.44429 0.49929 0.64746 0.0
C3664 C 0.44156 0.40241 0.58919 0.0
C3665 C 0.44547 0.3944 0.60644 0.0
C3666 C 0.44331 0.42548 0.58774 0.0
C3667 C 0.44913 0.44072 0.60351 0.0
C3668 C 0.45015 0.43141 0.62105 0.0
C3669 C 0.44851 0.40845 0.62248 0.0
C3670 C 0.45869 0.46751 0.60149 0.0
C3671 C 0.44704 0.47834 0.61107 0.0
C3672 C 0.48044 0.48262 0.59119 0.0
C3673 C 0.49408 0.47226 0.58141 0.0
C3674 C 0.50271 0.45867 0.59122 0.0
C3675 C 0.51371 0.44727 0.58169 0.0
C3676 C 0.51702 0.45006 0.5624 0.0
C3677 C 0.50924 0.46421 0.55262 0.0
C3678 C 0.49776 0.47525 0.56205 0.0
C3679 C 0.50703 0.58318 0.62049 0.0
C3680 C 0.50504 0.59613 0.60527 0.0
C3681 C 0.49976 0.55829 0.61871 0.0
C3682 C 0.49071 0.54613 0.60164 0.0
C3683 C 0.4908 0.55956 0.586 0.0
C3684 C 0.49769 0.58437 0.58785 0.0
C3685 C 0.47866 0.51899 0.60076 0.0
C3686 C 0.48997 0.50817 0.59076 0.0
C3687 C 0.45661 0.5039 0.61065 0.0
C3688 C 0.44326 0.51447 0.62058 0.0
C3689 C 0.4354 0.52883 0.61095 0.0
C3690 C 0.42334 0.53924 0.62043 0.0
C3691 C 0.41885 0.53522 0.63954 0.0
C3692 C 0.42629 0.52069 0.64917 0.0
C3693 C 0.43841 0.5103 0.63976 0.0
H3694 H 0.40955 0.54331 0.64687 0.0
H3695 H 0.52564 0.44129 0.55505 0.0
H3696 H 0.76013 0.25737 0.15863 0.0
H3697 H 0.71989 0.25454 0.15692 0.0
H3698 H 0.72075 0.24888 0.09702 0.0
H3699 H 0.76145 0.25276 0.09861 0.0
H3700 H 0.69795 0.27277 0.1058 0.0
H3701 H 0.69246 0.1971 0.12573 0.0
H3702 H 0.7017 0.1706 0.14552 0.0
H3703 H 0.67276 0.18896 0.19325 0.0
H3704 H 0.66363 0.21584 0.17375 0.0
H3705 H 0.57282 0.18558 0.08561 0.0
H3706 H 0.61657 0.21501 0.08949 0.0
H3707 H 0.60442 0.2229 0.14762 0.0
H3708 H 0.56057 0.1931 0.1438 0.0
H3709 H 0.63363 0.20358 0.14263 0.0
H3710 H 0.64181 0.28214 0.12049 0.0
H3711 H 0.63437 0.30833 0.09874 0.0
H3712 H 0.6566 0.28022 0.05271 0.0
H3713 H 0.66461 0.25431 0.07423 0.0
C3714 C 0.75192 0.25595 0.14508 0.0
C3715 C 0.76379 0.25493 0.12877 0.0
C3716 C 0.72888 0.25426 0.14411 0.0
C3717 C 0.71695 0.25083 0.12688 0.0
C3718 C 0.72948 0.25138 0.11049 0.0
C3719 C 0.75274 0.25352 0.11142 0.0
C3720 C 0.69072 0.24451 0.12599 0.0
C3721 C 0.68389 0.25762 0.11386 0.0
C3722 C 0.67227 0.22491 0.1366 0.0
C3723 C 0.67765 0.20871 0.14834 0.0
C3724 C 0.68823 0.19562 0.14047 0.0
C3725 C 0.69342 0.18052 0.15163 0.0
C3726 C 0.6879 0.17817 0.17064 0.0
C3727 C 0.67708 0.19085 0.17852 0.0
C3728 C 0.67189 0.20601 0.16743 0.0
C3729 C 0.57932 0.1944 0.09903 0.0
C3730 C 0.56335 0.1868 0.11446 0.0
C3731 C 0.60437 0.21142 0.10122 0.0
C3732 C 0.61393 0.2212 0.11887 0.0
C3733 C 0.5975 0.21565 0.13385 0.0
C3734 C 0.57238 0.19867 0.13164 0.0
C3735 C 0.64073 0.23183 0.12246 0.0
C3736 C 0.64772 0.21922 0.13498 0.0
C3737 C 0.65915 0.25142 0.11189 0.0
C3738 C 0.6533 0.266 0.09887 0.0
C3739 C 0.64473 0.28133 0.10569 0.0
C3740 C 0.64059 0.29622 0.09344 0.0
C3741 C 0.64471 0.2957 0.07435 0.0
C3742 C 0.65326 0.2805 0.06748 0.0
C3743 C 0.65774 0.26582 0.0797 0.0
H3744 H 0.64143 0.3072 0.0649 0.0
H3745 H 0.69193 0.16647 0.17926 0.0
H3746 H 0.36274 0.55346 0.15203 0.0
H3747 H 0.37981 0.59816 0.15405 0.0
H3748 H 0.40182 0.60557 0.09642 0.0
H3749 H 0.38457 0.56107 0.09426 0.0
H3750 H 0.44074 0.62814 0.12122 0.0
H3751 H 0.36816 0.62973 0.10584 0.0
H3752 H 0.32595 0.62301 0.10579 0.0
H3753 H 0.3337 0.6453 0.16311 0.0
H3754 H 0.3762 0.65263 0.1634 0.0
H3755 H 0.50542 0.75688 0.11287 0.0
H3756 H 0.47029 0.71558 0.10844 0.0
H3757 H 0.45959 0.70712 0.16788 0.0
H3758 H 0.49513 0.74842 0.17256 0.0
H3759 H 0.41346 0.68611 0.142 0.0
H3760 H 0.48975 0.68563 0.15435 0.0
H3761 H 0.53366 0.69991 0.14877 0.0
H3762 H 0.51788 0.67704 0.09161 0.0
H3763 H 0.47393 0.66307 0.09677 0.0
C3764 C 0.37025 0.56451 0.13959 0.0
C3765 C 0.37277 0.55386 0.12308 0.0
C3766 C 0.38 0.59007 0.14076 0.0
C3767 C 0.39232 0.60523 0.12544 0.0
C3768 C 0.39248 0.59425 0.10843 0.0
C3769 C 0.3827 0.56883 0.10724 0.0
C3770 C 0.40938 0.63202 0.12811 0.0
C3771 C 0.43463 0.64079 0.12556 0.0
C3772 C 0.40157 0.64853 0.13406 0.0
C3773 C 0.37523 0.64138 0.13472 0.0
C3774 C 0.36071 0.63273 0.11854 0.0
C3775 C 0.33681 0.62904 0.11842 0.0
C3776 C 0.32714 0.63367 0.13444 0.0
C3777 C 0.34126 0.64179 0.15069 0.0
C3778 C 0.36527 0.64577 0.15084 0.0
C3779 C 0.49532 0.74653 0.12503 0.0
C3780 C 0.50328 0.75585 0.1431 0.0
C3781 C 0.47522 0.72292 0.12244 0.0
C3782 C 0.46251 0.70831 0.13783 0.0
C3783 C 0.46917 0.71819 0.15584 0.0
C3784 C 0.48954 0.74174 0.15847 0.0
C3785 C 0.44448 0.68186 0.13514 0.0
C3786 C 0.41932 0.67323 0.13779 0.0
C3787 C 0.45222 0.66544 0.12893 0.0
C3788 C 0.4786 0.67356 0.1259 0.0
C3789 C 0.49568 0.68387 0.14055 0.0
C3790 C 0.52057 0.69187 0.13747 0.0
C3791 C 0.52856 0.68943 0.11984 0.0
C3792 C 0.51167 0.67895 0.10525 0.0
C3793 C 0.48677 0.67099 0.10825 0.0
H3794 H 0.54782 0.69559 0.11748 0.0
H3795 H 0.30872 0.63101 0.13426 0.0
H3796 H 0.80129 0.50715 0.1656 0.0
H3797 H 0.80731 0.47237 0.15903 0.0
H3798 H 0.78487 0.47109 0.10204 0.0
H3799 H 0.77853 0.50587 0.10853 0.0
H3800 H 0.767 0.42397 0.11619 0.0
H3801 H 0.84442 0.49915 0.11154 0.0
H3802 H 0.87882 0.5394 0.12141 0.0
H3803 H 0.89186 0.50551 0.16865 0.0
H3804 H 0.85733 0.46509 0.15919 0.0
H3805 H 0.85874 0.38803 0.08246 0.0
H3806 H 0.83314 0.40714 0.08622 0.0
H3807 H 0.81666 0.38034 0.14267 0.0
H3808 H 0.84161 0.36067 0.13885 0.0
H3809 H 0.8515 0.43933 0.12776 0.0
H3810 H 0.77261 0.36318 0.1315 0.0
H3811 H 0.73967 0.32335 0.11956 0.0
H3812 H 0.7309 0.35959 0.07188 0.0
H3813 H 0.76417 0.39961 0.08338 0.0
C3814 C 0.79738 0.49936 0.1517 0.0
C3815 C 0.7897 0.50949 0.13753 0.0
C3816 C 0.80084 0.47947 0.14797 0.0
C3817 C 0.79686 0.46937 0.12999 0.0
C3818 C 0.78808 0.47864 0.11601 0.0
C3819 C 0.78457 0.49859 0.11973 0.0
C3820 C 0.80354 0.45035 0.12559 0.0
C3821 C 0.7855 0.42735 0.1186 0.0
C3822 C 0.82767 0.45475 0.1288 0.0
C3823 C 0.84809 0.47914 0.13477 0.0
C3824 C 0.85444 0.50032 0.12415 0.0
C3825 C 0.87401 0.52316 0.12964 0.0
C3826 C 0.88747 0.52503 0.14568 0.0
C3827 C 0.88137 0.50405 0.15627 0.0
C3828 C 0.86181 0.48117 0.15084 0.0
C3829 C 0.84865 0.38523 0.09534 0.0
C3830 C 0.85207 0.3729 0.11037 0.0
C3831 C 0.834 0.39606 0.09745 0.0
C3832 C 0.82281 0.39485 0.11464 0.0
C3833 C 0.82467 0.38094 0.12917 0.0
C3834 C 0.83895 0.36974 0.12697 0.0
C3835 C 0.81489 0.41286 0.1188 0.0
C3836 C 0.83291 0.43587 0.12553 0.0
C3837 C 0.79089 0.40843 0.11524 0.0
C3838 C 0.7712 0.38435 0.10814 0.0
C3839 C 0.76398 0.36262 0.11831 0.0
C3840 C 0.74515 0.34002 0.11167 0.0
C3841 C 0.73326 0.33893 0.09493 0.0
C3842 C 0.74017 0.36045 0.08482 0.0
C3843 C 0.75902 0.38309 0.09139 0.0
H3844 H 0.71863 0.32143 0.08985 0.0
H3845 H 0.90267 0.54271 0.14987 0.0
H3846 H 0.2707 0.75669 0.10849 0.0
H3847 H 0.31253 0.7637 0.10755 0.0
H3848 H 0.30988 0.75057 0.16674 0.0
H3849 H 0.26807 0.74399 0.16787 0.0
H3850 H 0.34857 0.7927 0.15857 0.0
H3851 H 0.31632 0.71127 0.13479 0.0
H3852 H 0.29137 0.67531 0.11466 0.0
H3853 H 0.32812 0.71812 0.0662 0.0
H3854 H 0.3534 0.75428 0.08602 0.0
H3855 H 0.47386 0.82597 0.15471 0.0
H3856 H 0.4296 0.79782 0.15863 0.0
H3857 H 0.41725 0.81063 0.10163 0.0
H3858 H 0.46145 0.83834 0.09752 0.0
H3859 H 0.38595 0.7625 0.11218 0.0
H3860 H 0.41299 0.84473 0.13582 0.0
H3861 H 0.43813 0.88083 0.1557 0.0
H3862 H 0.40999 0.83591 0.20465 0.0
H3863 H 0.38487 0.79941 0.18502 0.0
C3864 C 0.27877 0.75477 0.12127 0.0
C3865 C 0.2661 0.75006 0.1383 0.0
C3866 C 0.30271 0.75861 0.12068 0.0
C3867 C 0.31442 0.75757 0.13706 0.0
C3868 C 0.30127 0.75149 0.15392 0.0
C3869 C 0.27733 0.74771 0.15453 0.0
C3870 C 0.34122 0.76603 0.13693 0.0
C3871 C 0.35663 0.78556 0.14877 0.0
C3872 C 0.35192 0.7572 0.12388 0.0
C3873 C 0.33664 0.73554 0.11189 0.0
C3874 C 0.31896 0.71306 0.11983 0.0
C3875 C 0.30479 0.69262 0.10848 0.0
C3876 C 0.30805 0.69449 0.08916 0.0
C3877 C 0.3256 0.71672 0.08116 0.0
C3878 C 0.33993 0.73716 0.09245 0.0
C3879 C 0.46179 0.82225 0.14287 0.0
C3880 C 0.47109 0.8346 0.12587 0.0
C3881 C 0.43648 0.80628 0.14516 0.0
C3882 C 0.42008 0.80241 0.1305 0.0
C3883 C 0.42953 0.81337 0.11314 0.0
C3884 C 0.45477 0.82936 0.11086 0.0
C3885 C 0.39305 0.78923 0.13366 0.0
C3886 C 0.37771 0.76905 0.12232 0.0
C3887 C 0.38231 0.7974 0.14717 0.0
C3888 C 0.39731 0.81932 0.15896 0.0
C3889 C 0.41232 0.84252 0.15082 0.0
C3890 C 0.42653 0.86306 0.16203 0.0
C3891 C 0.42573 0.86067 0.18142 0.0
C3892 C 0.41064 0.83773 0.18963 0.0
C3893 C 0.3964 0.81711 0.17847 0.0
H3894 H 0.43676 0.87661 0.19008 0.0
H3895 H 0.29705 0.67873 0.08037 0.0
H3896 H 0.61309 0.45157 0.0772 0.0
H3897 H 0.59216 0.40659 0.07682 0.0
H3898 H 0.61708 0.40685 0.13288 0.0
H3899 H 0.63857 0.45205 0.13311 0.0
H3900 H 0.61053 0.36538 0.11127 0.0
H3901 H 0.56648 0.40634 0.12941 0.0
H3902 H 0.55276 0.43672 0.12598 0.0
H3903 H 0.51661 0.40279 0.0746 0.0
H3904 H 0.53049 0.37242 0.07757 0.0
H3905 H 0.50699 0.25345 0.14253 0.0
H3906 H 0.54043 0.29576 0.13859 0.0
H3907 H 0.51121 0.29914 0.08492 0.0
H3908 H 0.47711 0.25709 0.08913 0.0
H3909 H 0.52174 0.33851 0.10524 0.0
H3910 H 0.56439 0.29426 0.08997 0.0
H3911 H 0.57378 0.26161 0.09805 0.0
H3912 H 0.61049 0.30066 0.14786 0.0
H3913 H 0.60094 0.33334 0.14026 0.0
C3914 C 0.61493 0.44202 0.08912 0.0
C3915 C 0.62721 0.45509 0.10522 0.0
C3916 C 0.60299 0.41638 0.08891 0.0
C3917 C 0.60272 0.40342 0.10495 0.0
C3918 C 0.6171 0.41652 0.12037 0.0
C3919 C 0.62933 0.44229 0.1205 0.0
C3920 C 0.58393 0.37703 0.10676 0.0
C3921 C 0.59113 0.35945 0.10998 0.0
C3922 C 0.55858 0.36936 0.10527 0.0
C3923 C 0.54976 0.38727 0.1036 0.0
C3924 C 0.55575 0.40546 0.11731 0.0
C3925 C 0.54794 0.42267 0.11546 0.0
C3926 C 0.53389 0.42175 0.10005 0.0
C3927 C 0.52754 0.40352 0.08651 0.0
C3928 C 0.53536 0.38629 0.08827 0.0
C3929 C 0.50786 0.26309 0.12978 0.0
C3930 C 0.48946 0.25196 0.11612 0.0
C3931 C 0.52704 0.28727 0.12752 0.0
C3932 C 0.52853 0.30054 0.11135 0.0
C3933 C 0.51045 0.28924 0.0975 0.0
C3934 C 0.49103 0.26519 0.09989 0.0
C3935 C 0.54822 0.32661 0.10923 0.0
C3936 C 0.54114 0.34427 0.10617 0.0
C3937 C 0.57353 0.33424 0.11117 0.0
C3938 C 0.58177 0.31615 0.11462 0.0
C3939 C 0.57456 0.29594 0.10261 0.0
C3940 C 0.57974 0.27734 0.10717 0.0
C3941 C 0.5924 0.2789 0.1236 0.0
C3942 C 0.60048 0.29938 0.13524 0.0
C3943 C 0.59525 0.31799 0.13078 0.0
H3944 H 0.59613 0.26434 0.12721 0.0
H3945 H 0.52788 0.43512 0.09864 0.0
H3946 H 0.21513 0.66821 0.11705 0.0
H3947 H 0.24612 0.65509 0.11751 0.0
H3948 H 0.19635 0.59065 0.14914 0.0
H3949 H 0.16567 0.60361 0.14871 0.0
H3950 H 0.244 0.61054 0.16135 0.0
H3951 H 0.19878 0.58947 0.1021 0.0
H3952 H 0.18647 0.60027 0.07253 0.0
H3953 H 0.26236 0.64354 0.05643 0.0
H3954 H 0.27508 0.63312 0.08604 0.0
H3955 H 0.24198 0.50177 0.14269 0.0
H3956 H 0.2367 0.53726 0.1464 0.0
H3957 H 0.29778 0.57917 0.10931 0.0
H3958 H 0.30317 0.54331 0.10537 0.0
H3959 H 0.2598 0.58431 0.10015 0.0
H3960 H 0.30149 0.59061 0.15611 0.0
H3961 H 0.31215 0.57826 0.18558 0.0
H3962 H 0.24198 0.5605 0.2085 0.0
H3963 H 0.23074 0.57257 0.1791 0.0
C3964 C 0.21111 0.6515 0.12436 0.0
C3965 C 0.18795 0.63672 0.13263 0.0
C3966 C 0.22876 0.64402 0.12461 0.0
C3967 C 0.2235 0.62183 0.1333 0.0
C3968 C 0.20087 0.60787 0.14241 0.0
C3969 C 0.18326 0.61517 0.14202 0.0
C3970 C 0.2401 0.61144 0.13165 0.0
C3971 C 0.24763 0.60485 0.14801 0.0
C3972 C 0.24565 0.60493 0.11418 0.0
C3973 C 0.23791 0.61094 0.09639 0.0
C3974 C 0.21284 0.60147 0.09232 0.0
C3975 C 0.20578 0.60747 0.07555 0.0
C3976 C 0.22363 0.6227 0.06265 0.0
C3977 C 0.24856 0.63184 0.06646 0.0
C3978 C 0.2557 0.62591 0.08323 0.0
C3979 C 0.25457 0.51859 0.13546 0.0
C3980 C 0.27297 0.51966 0.12367 0.0
C3981 C 0.25164 0.539 0.13774 0.0
C3982 C 0.26719 0.56113 0.12847 0.0
C3983 C 0.28583 0.56244 0.11684 0.0
C3984 C 0.28885 0.54192 0.11457 0.0
C3985 C 0.26227 0.58189 0.12996 0.0
C3986 C 0.25705 0.59059 0.11355 0.0
C3987 C 0.25863 0.59009 0.14746 0.0
C3988 C 0.26534 0.58279 0.16531 0.0
C3989 C 0.28831 0.58418 0.1674 0.0
C3990 C 0.29445 0.57715 0.18412 0.0
C3991 C 0.27778 0.56866 0.19893 0.0
C3992 C 0.25493 0.56717 0.19704 0.0
C3993 C 0.24869 0.5742 0.18035 0.0
H3994 H 0.28256 0.56319 0.21186 0.0
H3995 H 0.21813 0.62733 0.04967 0.0
H3996 H 0.8238 0.4652 0.3464 0.0
H3997 H 0.79445 0.421 0.3446 0.0
H3998 H 0.80319 0.41424 0.40361 0.0
H3999 H 0.8331 0.45831 0.40526 0.0
H4000 H 0.81286 0.38453 0.38486 0.0
H4001 H 0.74781 0.40349 0.38314 0.0
H4002 H 0.72623 0.42463 0.37172 0.0
H4003 H 0.71848 0.39206 0.3177 0.0
H4004 H 0.74058 0.37117 0.32866 0.0
H4005 H 0.73867 0.25878 0.39026 0.0
H4006 H 0.74674 0.30086 0.39406 0.0
H4007 H 0.75026 0.31013 0.33441 0.0
H4008 H 0.74206 0.26797 0.3304 0.0
H4009 H 0.7317 0.33789 0.3536 0.0
H4010 H 0.8014 0.32659 0.35243 0.0
H4011 H 0.82524 0.30657 0.36079 0.0
H4012 H 0.82503 0.32559 0.41827 0.0
H4013 H 0.80096 0.34567 0.41019 0.0
C4014 C 0.8188 0.45436 0.35906 0.0
C4015 C 0.83073 0.46501 0.37594 0.0
C4016 C 0.80199 0.42911 0.35805 0.0
C4017 C 0.79658 0.41424 0.37398 0.0
C4018 C 0.80715 0.42531 0.39113 0.0
C4019 C 0.82416 0.45045 0.39208 0.0
C4020 C 0.78289 0.38698 0.37233 0.0
C4021 C 0.79474 0.37435 0.37857 0.0
C4022 C 0.75979 0.37371 0.36323 0.0
C4023 C 0.7461 0.38594 0.35669 0.0
C4024 C 0.7417 0.40098 0.36878 0.0
C4025 C 0.72934 0.41292 0.36239 0.0
C4026 C 0.72103 0.40974 0.34398 0.0
C4027 C 0.72497 0.39453 0.33195 0.0
C4028 C 0.73741 0.38264 0.33825 0.0
C4029 C 0.74047 0.26949 0.37791 0.0
C4030 C 0.74035 0.26024 0.36004 0.0
C4031 C 0.74501 0.29352 0.38012 0.0
C4032 C 0.74955 0.30869 0.36451 0.0
C4033 C 0.74688 0.29871 0.34661 0.0
C4034 C 0.74234 0.27464 0.34438 0.0
C4035 C 0.76119 0.33567 0.36701 0.0
C4036 C 0.74935 0.34818 0.36053 0.0
C4037 C 0.7844 0.34903 0.37575 0.0
C4038 C 0.79912 0.33732 0.38075 0.0
C4039 C 0.80627 0.32633 0.36688 0.0
C4040 C 0.81985 0.315 0.37156 0.0
C4041 C 0.8265 0.31462 0.39008 0.0
C4042 C 0.81977 0.3258 0.40394 0.0
C4043 C 0.80619 0.33721 0.39931 0.0
H4044 H 0.83691 0.3057 0.39367 0.0
H4045 H 0.71151 0.41901 0.33901 0.0
H4046 H 0.48818 0.7492 0.34069 0.0
H4047 H 0.45342 0.75629 0.34456 0.0
H4048 H 0.48717 0.79902 0.39407 0.0
H4049 H 0.52179 0.79196 0.3904 0.0
H4050 H 0.4372 0.7692 0.39816 0.0
H4051 H 0.49439 0.82719 0.35342 0.0
H4052 H 0.5191 0.83898 0.32462 0.0
H4053 H 0.45334 0.79914 0.29198 0.0
H4054 H 0.42824 0.78669 0.32066 0.0
H4055 H 0.39938 0.85713 0.40688 0.0
H4056 H 0.41833 0.83155 0.40413 0.0
H4057 H 0.37726 0.79935 0.35365 0.0
H4058 H 0.35882 0.82568 0.35603 0.0
H4059 H 0.42471 0.81641 0.34813 0.0
H4060 H 0.36732 0.76554 0.39356 0.0
H4061 H 0.34323 0.75439 0.42268 0.0
H4062 H 0.40975 0.782 0.45461 0.0
H4063 H 0.43419 0.7935 0.42566 0.0
C4064 C 0.48806 0.75986 0.35252 0.0
C4065 C 0.50787 0.77022 0.36514 0.0
C4066 C 0.4682 0.76392 0.35469 0.0
C4067 C 0.46783 0.77836 0.36952 0.0
C4068 C 0.48707 0.7878 0.38255 0.0
C4069 C 0.50693 0.78386 0.38036 0.0
C4070 C 0.44841 0.78517 0.37088 0.0
C4071 C 0.43445 0.77959 0.38728 0.0
C4072 C 0.44443 0.79814 0.35644 0.0
C4073 C 0.45947 0.80574 0.33919 0.0
C4074 C 0.48521 0.82077 0.34011 0.0
C4075 C 0.49929 0.8276 0.32381 0.0
C4076 C 0.48781 0.81978 0.30648 0.0
C4077 C 0.46221 0.80514 0.30542 0.0
C4078 C 0.44805 0.79817 0.32169 0.0
C4079 C 0.39403 0.84427 0.39538 0.0
C4080 C 0.37778 0.84358 0.38158 0.0
C4081 C 0.40474 0.82949 0.39389 0.0
C4082 C 0.3992 0.81345 0.37869 0.0
C4083 C 0.38181 0.8116 0.36549 0.0
C4084 C 0.37111 0.82648 0.36695 0.0
C4085 C 0.41368 0.8009 0.37564 0.0
C4086 C 0.4269 0.80552 0.3589 0.0
C4087 C 0.41707 0.78721 0.38986 0.0
C4088 C 0.40254 0.78042 0.4074 0.0
C4089 C 0.37677 0.7693 0.4068 0.0
C4090 C 0.36307 0.76292 0.42327 0.0
C4091 C 0.37496 0.76751 0.4405 0.0
C4092 C 0.40056 0.77844 0.44126 0.0
C4093 C 0.41434 0.78485 0.4248 0.0
H4094 H 0.36433 0.76257 0.45325 0.0
H4095 H 0.49874 0.82511 0.29387 0.0
H4096 H 0.74821 0.502 0.32311 0.0
H4097 H 0.7066 0.46657 0.3229 0.0
H4098 H 0.70983 0.45985 0.38251 0.0
H4099 H 0.75193 0.49476 0.38272 0.0
H4100 H 0.68218 0.41481 0.36658 0.0
H4101 H 0.68631 0.49346 0.36423 0.0
H4102 H 0.70004 0.53491 0.35161 0.0
H4103 H 0.66632 0.50331 0.29902 0.0
H4104 H 0.65267 0.46167 0.31128 0.0
H4105 H 0.55849 0.37908 0.39324 0.0
H4106 H 0.60275 0.39632 0.38811 0.0
H4107 H 0.59056 0.38913 0.32872 0.0
H4108 H 0.54618 0.37137 0.33386 0.0
H4109 H 0.62261 0.43767 0.34164 0.0
H4110 H 0.6118 0.35771 0.34689 0.0
H4111 H 0.59786 0.31688 0.36057 0.0
H4112 H 0.64375 0.35051 0.4084 0.0
H4113 H 0.65741 0.39167 0.39528 0.0
C4114 C 0.74035 0.49262 0.33611 0.0
C4115 C 0.75329 0.50144 0.35296 0.0
C4116 C 0.71648 0.4724 0.33599 0.0
C4117 C 0.70484 0.46093 0.35275 0.0
C4118 C 0.71836 0.4685 0.36941 0.0
C4119 C 0.74242 0.48855 0.36952 0.0
C4120 C 0.67793 0.44314 0.35315 0.0
C4121 C 0.66914 0.41977 0.36116 0.0
C4122 C 0.66086 0.44952 0.34591 0.0
C4123 C 0.66869 0.47449 0.3386 0.0
C4124 C 0.68194 0.49537 0.34994 0.0
C4125 C 0.68971 0.51889 0.34286 0.0
C4126 C 0.68412 0.52174 0.32451 0.0
C4127 C 0.67067 0.50107 0.31322 0.0
C4128 C 0.6629 0.47751 0.32023 0.0
C4129 C 0.56522 0.3804 0.37914 0.0
C4130 C 0.54903 0.37386 0.36394 0.0
C4131 C 0.59045 0.39022 0.37622 0.0
C4132 C 0.59991 0.394 0.35803 0.0
C4133 C 0.58358 0.38623 0.34286 0.0
C4134 C 0.55828 0.37599 0.3458 0.0
C4135 C 0.62682 0.40924 0.35496 0.0
C4136 C 0.63563 0.43238 0.34665 0.0
C4137 C 0.64376 0.40263 0.36207 0.0
C4138 C 0.63543 0.37788 0.37016 0.0
C4139 C 0.61869 0.35647 0.36044 0.0
C4140 C 0.61088 0.33322 0.36809 0.0
C4141 C 0.61991 0.33108 0.38536 0.0
C4142 C 0.63675 0.3522 0.39503 0.0
C4143 C 0.64451 0.37551 0.3875 0.0
H4144 H 0.61389 0.31307 0.39125 0.0
H4145 H 0.69015 0.53997 0.31904 0.0
H4146 H 0.17405 0.5555 0.41584 0.0
H4147 H 0.19936 0.60037 0.41477 0.0
H4148 H 0.21297 0.59667 0.35626 0.0
H4149 H 0.18794 0.5516 0.3574 0.0
H4150 H 0.25232 0.63688 0.37393 0.0
H4151 H 0.165 0.6006 0.36785 0.0
H4152 H 0.12186 0.57304 0.37715 0.0
H4153 H 0.13467 0.61273 0.42854 0.0
H4154 H 0.17808 0.64021 0.41972 0.0
H4155 H 0.25358 0.74816 0.34432 0.0
H4156 H 0.24622 0.70621 0.34846 0.0
H4157 H 0.23977 0.71227 0.40779 0.0
H4158 H 0.24756 0.7543 0.40385 0.0
H4159 H 0.19862 0.67126 0.39017 0.0
H4160 H 0.28637 0.7108 0.39314 0.0
H4161 H 0.32873 0.73747 0.38222 0.0
H4162 H 0.31456 0.69128 0.33429 0.0
H4163 H 0.27163 0.66477 0.34454 0.0
C4164 C 0.18323 0.56424 0.40294 0.0
C4165 C 0.17891 0.55022 0.38666 0.0
C4166 C 0.1976 0.58984 0.40231 0.0
C4167 C 0.20751 0.60185 0.38533 0.0
C4168 C 0.20537 0.58776 0.36948 0.0
C4169 C 0.19113 0.56204 0.37014 0.0
C4170 C 0.21654 0.62859 0.38356 0.0
C4171 C 0.24059 0.64444 0.3773 0.0
C4172 C 0.20114 0.63838 0.38806 0.0
C4173 C 0.17487 0.6223 0.39321 0.0
C4174 C 0.15867 0.60336 0.38119 0.0
C4175 C 0.13417 0.58775 0.38637 0.0
C4176 C 0.12554 0.59109 0.40344 0.0
C4177 C 0.14139 0.61013 0.41534 0.0
C4178 C 0.16595 0.62573 0.41026 0.0
C4179 C 0.25109 0.74074 0.35829 0.0
C4180 C 0.25108 0.75453 0.37375 0.0
C4181 C 0.24693 0.7168 0.36062 0.0
C4182 C 0.24241 0.70615 0.37843 0.0
C4183 C 0.24324 0.72018 0.39394 0.0
C4184 C 0.2478 0.74424 0.39166 0.0
C4185 C 0.23459 0.67974 0.38071 0.0
C4186 C 0.21053 0.66383 0.38691 0.0
C4187 C 0.24986 0.66996 0.37579 0.0
C4188 C 0.27562 0.68597 0.3695 0.0
C4189 C 0.29212 0.7065 0.38012 0.0
C4190 C 0.31631 0.72158 0.37407 0.0
C4191 C 0.32441 0.71612 0.35757 0.0
C4192 C 0.30826 0.69555 0.34705 0.0
C4193 C 0.28396 0.68052 0.35295 0.0
H4194 H 0.34319 0.72781 0.35295 0.0
H4195 H 0.10657 0.57897 0.40744 0.0
H4196 H 0.64951 0.19818 0.3534 0.0
H4197 H 0.63182 0.22523 0.35247 0.0
H4198 H 0.59921 0.19878 0.40652 0.0
H4199 H 0.61725 0.17218 0.40773 0.0
H4200 H 0.56511 0.19068 0.38007 0.0
H4201 H 0.63901 0.25597 0.40233 0.0
H4202 H 0.68333 0.28551 0.40526 0.0
H4203 H 0.68322 0.31591 0.35171 0.0
H4204 H 0.63891 0.28607 0.34819 0.0
H4205 H 0.50576 0.25941 0.38882 0.0
H4206 H 0.5394 0.25147 0.39496 0.0
H4207 H 0.5579 0.26013 0.33657 0.0
H4208 H 0.52388 0.26773 0.33014 0.0
H4209 H 0.60051 0.27955 0.36632 0.0
H4210 H 0.52379 0.20754 0.34548 0.0
H4211 H 0.47887 0.17968 0.34712 0.0
H4212 H 0.48512 0.16426 0.40452 0.0
H4213 H 0.53005 0.19242 0.4033 0.0
C4214 C 0.63938 0.19883 0.36539 0.0
C4215 C 0.63444 0.18275 0.38051 0.0
C4216 C 0.62919 0.21424 0.36481 0.0
C4217 C 0.61394 0.21377 0.37933 0.0
C4218 C 0.61072 0.19926 0.3951 0.0
C4219 C 0.62102 0.18404 0.39575 0.0
C4220 C 0.59862 0.22552 0.37696 0.0
C4221 C 0.57296 0.2102 0.37735 0.0
C4222 C 0.6088 0.25094 0.37323 0.0
C4223 C 0.63564 0.26845 0.37486 0.0
C4224 C 0.64847 0.26862 0.391 0.0
C4225 C 0.67358 0.28548 0.39281 0.0
C4226 C 0.68607 0.3025 0.37867 0.0
C4227 C 0.67351 0.30264 0.36263 0.0
C4228 C 0.64838 0.28573 0.36071 0.0
C4229 C 0.51729 0.26023 0.37729 0.0
C4230 C 0.51185 0.26379 0.35892 0.0
C4231 C 0.53658 0.25577 0.38087 0.0
C4232 C 0.55097 0.25506 0.3662 0.0
C4233 C 0.547 0.26068 0.34807 0.0
C4234 C 0.52746 0.26486 0.34442 0.0
C4235 C 0.56727 0.24468 0.36944 0.0
C4236 C 0.59292 0.26012 0.36912 0.0
C4237 C 0.55719 0.21946 0.37371 0.0
C4238 C 0.53023 0.2023 0.37435 0.0
C4239 C 0.51555 0.1984 0.35849 0.0
C4240 C 0.4901 0.18252 0.35934 0.0
C4241 C 0.47914 0.17025 0.37592 0.0
C4242 C 0.49363 0.17381 0.39169 0.0
C4243 C 0.51908 0.18972 0.39093 0.0
H4244 H 0.45945 0.15792 0.37655 0.0
H4245 H 0.70544 0.31564 0.38027 0.0
H4246 H 0.45201 0.61956 0.42372 0.0
H4247 H 0.40749 0.60293 0.42263 0.0
H4248 H 0.41343 0.62695 0.36557 0.0
H4249 H 0.45819 0.6444 0.3669 0.0
H4250 H 0.37438 0.6268 0.38318 0.0
H4251 H 0.40533 0.5717 0.37408 0.0
H4252 H 0.43024 0.55259 0.38203 0.0
H4253 H 0.38907 0.52392 0.43262 0.0
H4254 H 0.36423 0.5433 0.42514 0.0
H4255 H 0.26143 0.52353 0.34822 0.0
H4256 H 0.30315 0.55728 0.35458 0.0
H4257 H 0.29456 0.53668 0.41258 0.0
H4258 H 0.25289 0.50308 0.40642 0.0
H4259 H 0.33445 0.53706 0.39534 0.0
H4260 H 0.2995 0.58973 0.4004 0.0
H4261 H 0.27569 0.60906 0.38991 0.0
H4262 H 0.32431 0.64117 0.34326 0.0
H4263 H 0.34813 0.62164 0.35322 0.0
C4264 C 0.44389 0.62212 0.41121 0.0
C4265 C 0.4584 0.6331 0.39536 0.0
C4266 C 0.41847 0.61255 0.41055 0.0
C4267 C 0.40707 0.61317 0.39387 0.0
C4268 C 0.42181 0.6262 0.37857 0.0
C4269 C 0.44736 0.63616 0.37933 0.0
C4270 C 0.38004 0.59705 0.39154 0.0
C4271 C 0.36559 0.60717 0.38574 0.0
C4272 C 0.36862 0.57139 0.39482 0.0
C4273 C 0.38309 0.55917 0.39915 0.0
C4274 C 0.40168 0.56143 0.38695 0.0
C4275 C 0.4158 0.55057 0.39137 0.0
C4276 C 0.41128 0.5371 0.40784 0.0
C4277 C 0.39258 0.5344 0.41988 0.0
C4278 C 0.37848 0.54532 0.41556 0.0
C4279 C 0.2682 0.52652 0.36241 0.0
C4280 C 0.2539 0.51042 0.37677 0.0
C4281 C 0.29203 0.54589 0.36603 0.0
C4282 C 0.30196 0.54945 0.38405 0.0
C4283 C 0.28724 0.53425 0.39858 0.0
C4284 C 0.26338 0.51505 0.39501 0.0
C4285 C 0.32854 0.56678 0.3873 0.0
C4286 C 0.34305 0.55675 0.39305 0.0
C4287 C 0.33992 0.59232 0.38352 0.0
C4288 C 0.32548 0.60398 0.37747 0.0
C4289 C 0.30497 0.60068 0.38779 0.0
C4290 C 0.29149 0.61172 0.38196 0.0
C4291 C 0.29846 0.62627 0.36591 0.0
C4292 C 0.31892 0.62985 0.35567 0.0
C4293 C 0.33242 0.6188 0.36141 0.0
H4294 H 0.28804 0.63481 0.36141 0.0
H4295 H 0.42224 0.52871 0.41125 0.0
H4296 H 0.45842 0.86866 0.85101 0.0
H4297 H 0.414 0.84671 0.84567 0.0
H4298 H 0.4041 0.79661 0.8904 0.0
H4299 H 0.44888 0.8184 0.89553 0.0
H4300 H 0.36959 0.77405 0.86093 0.0
H4301 H 0.4006 0.8448 0.9008 0.0
H4302 H 0.42841 0.88814 0.90951 0.0
H4303 H 0.40344 0.912 0.86249 0.0
H4304 H 0.3758 0.86877 0.85328 0.0
H4305 H 0.24682 0.74974 0.88407 0.0
H4306 H 0.2893 0.75786 0.88355 0.0
H4307 H 0.30779 0.81411 0.84198 0.0
H4308 H 0.26584 0.80655 0.8427 0.0
H4309 H 0.33777 0.83133 0.87124 0.0
H4310 H 0.30533 0.75964 0.83197 0.0
H4311 H 0.27803 0.71611 0.82354 0.0
H4312 H 0.30517 0.69347 0.86995 0.0
H4313 H 0.33233 0.73687 0.87888 0.0
C4314 C 0.44678 0.85257 0.85937 0.0
C4315 C 0.45684 0.84532 0.87382 0.0
C4316 C 0.42148 0.84005 0.85631 0.0
C4317 C 0.40578 0.82036 0.86789 0.0
C4318 C 0.41594 0.8118 0.88135 0.0
C4319 C 0.44142 0.82424 0.8843 0.0
C4320 C 0.37899 0.81122 0.86751 0.0
C4321 C 0.3625 0.78642 0.86337 0.0
C4322 C 0.36989 0.82749 0.87063 0.0
C4323 C 0.38624 0.85353 0.87628 0.0
C4324 C 0.40114 0.85928 0.89225 0.0
C4325 C 0.41687 0.88383 0.89728 0.0
C4326 C 0.41764 0.9028 0.88659 0.0
C4327 C 0.40276 0.89727 0.87079 0.0
C4328 C 0.38707 0.87275 0.86565 0.0
C4329 C 0.25985 0.76355 0.8746 0.0
C4330 C 0.25295 0.77759 0.8635 0.0
C4331 C 0.28409 0.76808 0.87426 0.0
C4332 C 0.30171 0.7866 0.86272 0.0
C4333 C 0.29451 0.79977 0.85102 0.0
C4334 C 0.27043 0.79535 0.85141 0.0
C4335 C 0.32816 0.79419 0.86412 0.0
C4336 C 0.34469 0.81882 0.86871 0.0
C4337 C 0.33711 0.77766 0.86153 0.0
C4338 C 0.32065 0.75154 0.85624 0.0
C4339 C 0.30528 0.74539 0.84052 0.0
C4340 C 0.28987 0.72073 0.83562 0.0
C4341 C 0.28979 0.70203 0.84625 0.0
C4342 C 0.30519 0.70797 0.86177 0.0
C4343 C 0.3206 0.7326 0.86675 0.0
H4344 H 0.27786 0.68296 0.84242 0.0
H4345 H 0.42973 0.92178 0.89056 0.0
H4346 H 0.63455 0.44482 0.91883 0.0
H4347 H 0.61946 0.40069 0.91657 0.0
H4348 H 0.63704 0.40866 0.85795 0.0
H4349 H 0.65175 0.45275 0.86006 0.0
H4350 H 0.58938 0.37797 0.86366 0.0
H4351 H 0.66295 0.38386 0.88611 0.0
H4352 H 0.69924 0.39642 0.90615 0.0
H4353 H 0.65228 0.36203 0.95327 0.0
H4354 H 0.61563 0.34904 0.93351 0.0
H4355 H 0.5314 0.24956 0.85309 0.0
H4356 H 0.56797 0.29004 0.85681 0.0
H4357 H 0.54153 0.29831 0.91022 0.0
H4358 H 0.50443 0.2579 0.90648 0.0
H4359 H 0.5985 0.31933 0.90467 0.0
H4360 H 0.52559 0.32042 0.88112 0.0
H4361 H 0.4903 0.30621 0.85971 0.0
H4362 H 0.53922 0.32835 0.81275 0.0
H4363 H 0.57478 0.3423 0.83394 0.0
C4364 C 0.63582 0.43727 0.90557 0.0
C4365 C 0.6439 0.45218 0.88956 0.0
C4366 C 0.6274 0.41205 0.90432 0.0
C4367 C 0.62696 0.4013 0.88705 0.0
C4368 C 0.63717 0.41655 0.87141 0.0
C4369 C 0.64568 0.4418 0.87266 0.0
C4370 C 0.61178 0.37419 0.88476 0.0
C4371 C 0.59185 0.36519 0.87233 0.0
C4372 C 0.61459 0.35744 0.89628 0.0
C4373 C 0.63652 0.36565 0.90836 0.0
C4374 C 0.66034 0.37916 0.90079 0.0
C4375 C 0.68098 0.38631 0.91208 0.0
C4376 C 0.67808 0.3802 0.93098 0.0
C4377 C 0.6545 0.36679 0.93862 0.0
C4378 C 0.63377 0.35943 0.92737 0.0
C4379 C 0.53355 0.25965 0.86586 0.0
C4380 C 0.51476 0.25067 0.87936 0.0
C4381 C 0.55456 0.28276 0.86797 0.0
C4382 C 0.55735 0.29713 0.88374 0.0
C4383 C 0.53971 0.28738 0.898 0.0
C4384 C 0.51846 0.26436 0.89578 0.0
C4385 C 0.57625 0.32357 0.88383 0.0
C4386 C 0.59656 0.33228 0.89584 0.0
C4387 C 0.57405 0.34019 0.8718 0.0
C4388 C 0.55276 0.33207 0.85908 0.0
C4389 C 0.52878 0.32201 0.86623 0.0
C4390 C 0.50874 0.31405 0.85414 0.0
C4391 C 0.51251 0.31628 0.83487 0.0
C4392 C 0.53633 0.32657 0.82767 0.0
C4393 C 0.55643 0.3345 0.83971 0.0
H4394 H 0.49697 0.31012 0.82553 0.0
H4395 H 0.6941 0.38578 0.93969 0.0
H4396 H 0.17726 0.64716 0.86137 0.0
H4397 H 0.20243 0.62805 0.85537 0.0
H4398 H 0.18466 0.595 0.91001 0.0
H4399 H 0.15989 0.61436 0.91619 0.0
H4400 H 0.2326 0.60946 0.89986 0.0
H4401 H 0.15036 0.56361 0.87363 0.0
H4402 H 0.11606 0.55867 0.85381 0.0
H4403 H 0.16231 0.57762 0.80542 0.0
H4404 H 0.19701 0.58301 0.82502 0.0
H4405 H 0.22866 0.49498 0.8931 0.0
H4406 H 0.22269 0.53026 0.89741 0.0
H4407 H 0.24208 0.55087 0.83991 0.0
H4408 H 0.24796 0.51551 0.83543 0.0
H4409 H 0.19937 0.54825 0.84855 0.0
H4410 H 0.27984 0.58749 0.87422 0.0
H4411 H 0.31396 0.59198 0.89402 0.0
H4412 H 0.27192 0.5854 0.9431 0.0
H4413 H 0.23742 0.58058 0.92358 0.0
C4414 C 0.17927 0.63636 0.87228 0.0
C4415 C 0.16637 0.63198 0.88916 0.0
C4416 C 0.19354 0.62536 0.8688 0.0
C4417 C 0.19512 0.60982 0.88215 0.0
C4418 C 0.18366 0.60686 0.8995 0.0
C4419 C 0.16936 0.61777 0.90295 0.0
C4420 C 0.20629 0.5945 0.87748 0.0
C4421 C 0.22537 0.59604 0.88867 0.0
C4422 C 0.19721 0.57739 0.8626 0.0
C4423 C 0.17634 0.574 0.85081 0.0
C4424 C 0.15326 0.5669 0.85878 0.0
C4425 C 0.13375 0.564 0.84759 0.0
C4426 C 0.13703 0.56791 0.82838 0.0
C4427 C 0.15982 0.57466 0.82031 0.0
C4428 C 0.17941 0.57764 0.83145 0.0
C4429 C 0.23204 0.50722 0.88143 0.0
C4430 C 0.23863 0.50232 0.86389 0.0
C4431 C 0.22876 0.52749 0.88395 0.0
C4432 C 0.23207 0.54331 0.869 0.0
C4433 C 0.23946 0.53893 0.85164 0.0
C4434 C 0.24284 0.51871 0.84912 0.0
C4435 C 0.2255 0.56288 0.87111 0.0
C4436 C 0.20711 0.56202 0.85949 0.0
C4437 C 0.23526 0.58058 0.88558 0.0
C4438 C 0.25596 0.58349 0.89741 0.0
C4439 C 0.27779 0.58681 0.88923 0.0
C4440 C 0.29722 0.58946 0.90041 0.0
C4441 C 0.29508 0.58892 0.9198 0.0
C4442 C 0.27354 0.5858 0.92807 0.0
C4443 C 0.25406 0.58316 0.91695 0.0
H4444 H 0.31014 0.59096 0.92844 0.0
H4445 H 0.1219 0.56564 0.81973 0.0
H4446 H 0.74076 0.21187 0.84755 0.0
H4447 H 0.70234 0.2109 0.84033 0.0
H4448 H 0.73713 0.28896 0.85056 0.0
H4449 H 0.77622 0.29024 0.85725 0.0
H4450 H 0.68689 0.24994 0.87087 0.0
H4451 H 0.72591 0.28212 0.81172 0.0
H4452 H 0.75069 0.28335 0.78462 0.0
H4453 H 0.69653 0.20903 0.77067 0.0
H4454 H 0.67164 0.20719 0.79788 0.0
H4455 H 0.56291 0.21344 0.85292 0.0
H4456 H 0.6072 0.24283 0.85005 0.0
H4457 H 0.61628 0.18851 0.81959 0.0
H4458 H 0.57234 0.16002 0.82149 0.0
H4459 H 0.649 0.23085 0.80796 0.0
H4460 H 0.61949 0.19447 0.87035 0.0
H4461 H 0.59519 0.18807 0.89899 0.0
H4462 H 0.63129 0.26624 0.90766 0.0
H4463 H 0.65562 0.27305 0.87897 0.0
C4464 C 0.74037 0.22889 0.84806 0.0
C4465 C 0.76149 0.25111 0.85289 0.0
C4466 C 0.71842 0.2283 0.84394 0.0
C4467 C 0.71701 0.24985 0.8449 0.0
C4468 C 0.73797 0.27217 0.84974 0.0
C4469 C 0.76023 0.27286 0.8535 0.0
C4470 C 0.69302 0.24816 0.84157 0.0
C4471 C 0.67877 0.24662 0.85707 0.0
C4472 C 0.68244 0.24324 0.82361 0.0
C4473 C 0.69695 0.24451 0.80689 0.0
C4474 C 0.71934 0.266 0.80293 0.0
C4475 C 0.73341 0.2668 0.78754 0.0
C4476 C 0.72519 0.24628 0.77594 0.0
C4477 C 0.70284 0.22494 0.77964 0.0
C4478 C 0.68873 0.22402 0.79503 0.0
C4479 C 0.57432 0.2082 0.84507 0.0
C4480 C 0.56438 0.18426 0.83785 0.0
C4481 C 0.59964 0.2249 0.84357 0.0
C4482 C 0.61526 0.21765 0.8351 0.0
C4483 C 0.60479 0.19459 0.82632 0.0
C4484 C 0.57964 0.17816 0.82759 0.0
C4485 C 0.64247 0.23196 0.83736 0.0
C4486 C 0.65734 0.23547 0.82169 0.0
C4487 C 0.65359 0.23837 0.85523 0.0
C4488 C 0.63913 0.23427 0.87248 0.0
C4489 C 0.62215 0.21027 0.87836 0.0
C4490 C 0.60838 0.20657 0.89458 0.0
C4491 C 0.61164 0.22674 0.90511 0.0
C4492 C 0.62874 0.25064 0.89947 0.0
C4493 C 0.64253 0.25443 0.88324 0.0
H4494 H 0.60096 0.22385 0.91766 0.0
H4495 H 0.73614 0.2469 0.76407 0.0
H4496 H 0.3623 0.52737 0.85476 0.0
H4497 H 0.37459 0.57066 0.84981 0.0
H4498 H 0.39277 0.58546 0.90808 0.0
H4499 H 0.38051 0.54232 0.91309 0.0
H4500 H 0.37195 0.61498 0.86931 0.0
H4501 H 0.45403 0.6199 0.9056 0.0
H4502 H 0.47177 0.59351 0.91293 0.0
H4503 H 0.4429 0.55387 0.86175 0.0
H4504 H 0.4253 0.58024 0.85403 0.0
H4505 H 0.47155 0.73881 0.88824 0.0
H4506 H 0.43672 0.69658 0.88777 0.0
H4507 H 0.47094 0.67871 0.84297 0.0
H4508 H 0.50579 0.7206 0.84347 0.0
H4509 H 0.46245 0.64996 0.87279 0.0
H4510 H 0.41751 0.678 0.83623 0.0
H4511 H 0.39921 0.70364 0.8284 0.0
H4512 H 0.35401 0.67807 0.87741 0.0
H4513 H 0.37235 0.65257 0.88572 0.0
C4514 C 0.36764 0.53959 0.86667 0.0
C4515 C 0.37093 0.53174 0.88423 0.0
C4516 C 0.37458 0.56428 0.86384 0.0
C4517 C 0.38483 0.58118 0.87855 0.0
C4518 C 0.38487 0.57262 0.89659 0.0
C4519 C 0.37801 0.54803 0.89941 0.0
C4520 C 0.40135 0.60748 0.8744 0.0
C4521 C 0.39174 0.6228 0.87004 0.0
C4522 C 0.4271 0.61737 0.8751 0.0
C4523 C 0.4382 0.60188 0.87934 0.0
C4524 C 0.4516 0.60562 0.89588 0.0
C4525 C 0.46161 0.59067 0.9001 0.0
C4526 C 0.45847 0.57203 0.88781 0.0
C4527 C 0.44534 0.56833 0.87125 0.0
C4528 C 0.4353 0.58323 0.86697 0.0
C4529 C 0.47137 0.72602 0.87801 0.0
C4530 C 0.49162 0.73288 0.86613 0.0
C4531 C 0.45139 0.70194 0.87769 0.0
C4532 C 0.45132 0.68451 0.86538 0.0
C4533 C 0.4707 0.69187 0.85263 0.0
C4534 C 0.49064 0.71581 0.85298 0.0
C4535 C 0.43329 0.65797 0.86763 0.0
C4536 C 0.44269 0.64243 0.87185 0.0
C4537 C 0.40748 0.6481 0.86661 0.0
C4538 C 0.39654 0.66357 0.86171 0.0
C4539 C 0.40388 0.67804 0.84546 0.0
C4540 C 0.39345 0.69252 0.84091 0.0
C4541 C 0.37552 0.69255 0.85243 0.0
C4542 C 0.36794 0.67807 0.86852 0.0
C4543 C 0.37834 0.66359 0.87315 0.0
H4544 H 0.36744 0.70375 0.84888 0.0
H4545 H 0.46619 0.56045 0.89112 0.0
H4546 H 0.72239 0.47903 0.89876 0.0
H4547 H 0.72647 0.44279 0.90414 0.0
H4548 H 0.73145 0.43466 0.84484 0.0
H4549 H 0.72659 0.47041 0.83936 0.0
H4550 H 0.7126 0.39052 0.86174 0.0
H4551 H 0.7828 0.47172 0.86943 0.0
H4552 H 0.80522 0.51375 0.88242 0.0
H4553 H 0.79624 0.48411 0.93766 0.0
H4554 H 0.77341 0.44188 0.92499 0.0
H4555 H 0.81611 0.37151 0.85301 0.0
H4556 H 0.78075 0.37804 0.85202 0.0
H4557 H 0.7769 0.37508 0.91206 0.0
H4558 H 0.81239 0.36891 0.91303 0.0
H4559 H 0.7894 0.41981 0.89825 0.0
H4560 H 0.72573 0.33671 0.88666 0.0
H4561 H 0.70425 0.2964 0.87104 0.0
H4562 H 0.70462 0.33135 0.8195 0.0
H4563 H 0.72627 0.37197 0.83481 0.0
C4564 C 0.7236 0.46905 0.88686 0.0
C4565 C 0.72489 0.47788 0.86868 0.0
C4566 C 0.72584 0.4483 0.88994 0.0
C4567 C 0.73 0.43648 0.87491 0.0
C4568 C 0.72845 0.44361 0.85665 0.0
C4569 C 0.7258 0.46414 0.85355 0.0
C4570 C 0.74034 0.42011 0.87817 0.0
C4571 C 0.72939 0.39682 0.86971 0.0
C4572 C 0.76218 0.42834 0.88865 0.0
C4573 C 0.77617 0.45368 0.8963 0.0
C4574 C 0.78549 0.47419 0.88436 0.0
C4575 C 0.79827 0.49803 0.89166 0.0
C4576 C 0.80209 0.5016 0.91086 0.0
C4577 C 0.79321 0.48132 0.9228 0.0
C4578 C 0.78035 0.45742 0.91557 0.0
C4579 C 0.80687 0.37098 0.8659 0.0
C4580 C 0.81695 0.36991 0.8831 0.0
C4581 C 0.78664 0.3747 0.86535 0.0
C4582 C 0.7763 0.37725 0.88199 0.0
C4583 C 0.7846 0.37318 0.89907 0.0
C4584 C 0.80483 0.36962 0.89962 0.0
C4585 C 0.76173 0.38997 0.88183 0.0
C4586 C 0.7722 0.41298 0.8907 0.0
C4587 C 0.73994 0.38168 0.87128 0.0
C4588 C 0.72776 0.3574 0.86187 0.0
C4589 C 0.72147 0.33583 0.87195 0.0
C4590 C 0.70915 0.3129 0.86315 0.0
C4591 C 0.70304 0.3113 0.84427 0.0
C4592 C 0.70933 0.33263 0.83413 0.0
C4593 C 0.72158 0.3556 0.84287 0.0
H4594 H 0.69337 0.29358 0.83746 0.0
H4595 H 0.81199 0.52007 0.91649 0.0
H4596 H 0.18238 0.53933 0.594 0.0
H4597 H 0.20505 0.58449 0.59732 0.0
H4598 H 0.16197 0.57813 0.64608 0.0
H4599 H 0.13937 0.53334 0.64266 0.0
H4600 H 0.15793 0.60537 0.61793 0.0
H4601 H 0.22188 0.59857 0.64988 0.0
H4602 H 0.25367 0.58671 0.6532 0.0
H4603 H 0.29303 0.63235 0.60656 0.0
H4604 H 0.26121 0.64413 0.60272 0.0
H4605 H 0.20121 0.72293 0.65122 0.0
H4606 H 0.19525 0.6815 0.64983 0.0
H4607 H 0.23989 0.7006 0.60023 0.0
H4608 H 0.24613 0.74243 0.60153 0.0
H4609 H 0.24615 0.66801 0.62559 0.0
H4610 H 0.18297 0.67459 0.59331 0.0
H4611 H 0.15115 0.68624 0.58906 0.0
H4612 H 0.11012 0.63999 0.63498 0.0
H4613 H 0.14195 0.62841 0.63974 0.0
C4614 C 0.17847 0.54772 0.60573 0.0
C4615 C 0.15939 0.53321 0.61816 0.0
C4616 C 0.19135 0.57337 0.60763 0.0
C4617 C 0.18514 0.58456 0.62195 0.0
C4618 C 0.16705 0.56981 0.63498 0.0
C4619 C 0.15423 0.54432 0.63307 0.0
C4620 C 0.19455 0.61136 0.62192 0.0
C4621 C 0.1772 0.61903 0.61984 0.0
C4622 C 0.21982 0.62911 0.62356 0.0
C4623 C 0.23895 0.62198 0.62585 0.0
C4624 C 0.23714 0.60585 0.64018 0.0
C4625 C 0.25521 0.59919 0.64219 0.0
C4626 C 0.27531 0.60869 0.63006 0.0
C4627 C 0.27742 0.62494 0.61592 0.0
C4628 C 0.25936 0.63162 0.61382 0.0
C4629 C 0.21009 0.71852 0.64014 0.0
C4630 C 0.22378 0.73583 0.62629 0.0
C4631 C 0.20672 0.69484 0.63942 0.0
C4632 C 0.21688 0.68798 0.6248 0.0
C4633 C 0.23191 0.70562 0.61161 0.0
C4634 C 0.23531 0.72942 0.61232 0.0
C4635 C 0.20933 0.66176 0.62232 0.0
C4636 C 0.22694 0.65425 0.62367 0.0
C4637 C 0.18424 0.64395 0.61984 0.0
C4638 C 0.16502 0.65086 0.61702 0.0
C4639 C 0.1673 0.6671 0.60263 0.0
C4640 C 0.14924 0.67366 0.60011 0.0
C4641 C 0.12867 0.66392 0.61178 0.0
C4642 C 0.12609 0.64756 0.62597 0.0
C4643 C 0.14414 0.64099 0.62859 0.0
H4644 H 0.11469 0.66901 0.60979 0.0
H4645 H 0.28929 0.60352 0.63165 0.0
H4646 H 0.45193 0.1835 0.65036 0.0
H4647 H 0.48801 0.17989 0.65705 0.0
H4648 H 0.53418 0.24877 0.62894 0.0
H4649 H 0.49786 0.25241 0.62196 0.0
H4650 H 0.54212 0.21255 0.61665 0.0
H4651 H 0.53916 0.24503 0.67565 0.0
H4652 H 0.5192 0.24891 0.70402 0.0
H4653 H 0.49842 0.175 0.71973 0.0
H4654 H 0.51785 0.17048 0.6913 0.0
H4655 H 0.63611 0.18416 0.63462 0.0
H4656 H 0.61641 0.20932 0.63876 0.0
H4657 H 0.55159 0.14608 0.66068 0.0
H4658 H 0.57106 0.12104 0.65641 0.0
H4659 H 0.56182 0.19065 0.67823 0.0
H4660 H 0.5533 0.15515 0.6165 0.0
H4661 H 0.56974 0.14804 0.58741 0.0
H4662 H 0.60976 0.22586 0.57683 0.0
H4663 H 0.59374 0.2334 0.60605 0.0
C4664 C 0.46977 0.19806 0.64576 0.0
C4665 C 0.47201 0.21816 0.6355 0.0
C4666 C 0.49044 0.19607 0.64974 0.0
C4667 C 0.51384 0.21419 0.64367 0.0
C4668 C 0.51629 0.23465 0.63384 0.0
C4669 C 0.49555 0.23671 0.62989 0.0
C4670 C 0.53511 0.21031 0.6462 0.0
C4671 C 0.54701 0.20857 0.6302 0.0
C4672 C 0.54112 0.20461 0.66384 0.0
C4673 C 0.52994 0.2074 0.68127 0.0
C4674 C 0.53025 0.22955 0.68511 0.0
C4675 C 0.51901 0.23186 0.7012 0.0
C4676 C 0.50752 0.21221 0.71365 0.0
C4677 C 0.50732 0.19022 0.71007 0.0
C4678 C 0.5185 0.18779 0.69398 0.0
C4679 C 0.61796 0.17594 0.64082 0.0
C4680 C 0.60494 0.15074 0.64509 0.0
C4681 C 0.60674 0.19025 0.64316 0.0
C4682 C 0.58251 0.17949 0.64995 0.0
C4683 C 0.57033 0.15477 0.65554 0.0
C4684 C 0.58138 0.14046 0.653 0.0
C4685 C 0.56832 0.19248 0.64866 0.0
C4686 C 0.55763 0.19567 0.66482 0.0
C4687 C 0.56319 0.19933 0.63117 0.0
C4688 C 0.57259 0.19485 0.61353 0.0
C4689 C 0.56573 0.17074 0.60802 0.0
C4690 C 0.57495 0.16663 0.59151 0.0
C4691 C 0.59086 0.1865 0.5803 0.0
C4692 C 0.59749 0.2105 0.58556 0.0
C4693 C 0.58835 0.2147 0.60209 0.0
H4694 H 0.59799 0.1833 0.56752 0.0
H4695 H 0.49882 0.21406 0.72608 0.0
H4696 H 0.44783 0.6253 0.58307 0.0
H4697 H 0.40316 0.60623 0.58572 0.0
H4698 H 0.41056 0.62443 0.64423 0.0
H4699 H 0.4553 0.64364 0.64159 0.0
H4700 H 0.38257 0.56621 0.60746 0.0
H4701 H 0.35441 0.61987 0.65892 0.0
H4702 H 0.36555 0.66279 0.66556 0.0
H4703 H 0.39221 0.6835 0.60961 0.0
H4704 H 0.38085 0.64071 0.60252 0.0
H4705 H 0.27653 0.48203 0.65357 0.0
H4706 H 0.31698 0.51851 0.64935 0.0
H4707 H 0.28475 0.55156 0.61517 0.0
H4708 H 0.24405 0.51525 0.6196 0.0
H4709 H 0.32309 0.58635 0.63657 0.0
H4710 H 0.30832 0.52018 0.59466 0.0
H4711 H 0.29721 0.47773 0.58622 0.0
H4712 H 0.35699 0.48387 0.61941 0.0
H4713 H 0.3681 0.52616 0.62833 0.0
C4714 C 0.43996 0.62611 0.59631 0.0
C4715 C 0.45492 0.63555 0.61218 0.0
C4716 C 0.41446 0.61521 0.59782 0.0
C4717 C 0.40353 0.61361 0.61522 0.0
C4718 C 0.4186 0.62557 0.63064 0.0
C4719 C 0.44419 0.63658 0.62912 0.0
C4720 C 0.37714 0.59532 0.61799 0.0
C4721 C 0.36957 0.57073 0.61369 0.0
C4722 C 0.36018 0.6012 0.62614 0.0
C4723 C 0.36697 0.62704 0.63025 0.0
C4724 C 0.36255 0.63355 0.648 0.0
C4725 C 0.36891 0.65788 0.65185 0.0
C4726 C 0.37961 0.67589 0.63803 0.0
C4727 C 0.38398 0.66959 0.62033 0.0
C4728 C 0.37763 0.64529 0.6164 0.0
C4729 C 0.27795 0.49718 0.64538 0.0
C4730 C 0.25714 0.49555 0.63664 0.0
C4731 C 0.30108 0.51805 0.643 0.0
C4732 C 0.30392 0.53753 0.63164 0.0
C4733 C 0.28298 0.53669 0.62391 0.0
C4734 C 0.25975 0.51585 0.62639 0.0
C4735 C 0.3289 0.55737 0.62631 0.0
C4736 C 0.33617 0.58206 0.63021 0.0
C4737 C 0.34571 0.55176 0.61758 0.0
C4738 C 0.33894 0.52627 0.61226 0.0
C4739 C 0.31896 0.5124 0.60027 0.0
C4740 C 0.31267 0.48836 0.5954 0.0
C4741 C 0.32635 0.47808 0.6023 0.0
C4742 C 0.34638 0.49182 0.61409 0.0
C4743 C 0.35268 0.51582 0.61905 0.0
H4744 H 0.32146 0.45949 0.5985 0.0
H4745 H 0.38447 0.69469 0.64103 0.0
H4746 H 0.76432 0.23121 0.59405 0.0
H4747 H 0.77442 0.27374 0.58951 0.0
H4748 H 0.71355 0.26139 0.62469 0.0
H4749 H 0.70347 0.21878 0.62953 0.0
H4750 H 0.75562 0.3024 0.57862 0.0
H4751 H 0.73533 0.30822 0.65606 0.0
H4752 H 0.73007 0.28557 0.68542 0.0
H4753 H 0.77739 0.25974 0.66481 0.0
H4754 H 0.78319 0.28252 0.63548 0.0
H4755 H 0.79647 0.42963 0.5974 0.0
H4756 H 0.76922 0.38469 0.59702 0.0
H4757 H 0.82456 0.37593 0.62609 0.0
H4758 H 0.85144 0.4205 0.62679 0.0
H4759 H 0.77966 0.34524 0.63971 0.0
H4760 H 0.81928 0.36941 0.57975 0.0
H4761 H 0.83057 0.39244 0.55015 0.0
H4762 H 0.7542 0.35915 0.53532 0.0
H4763 H 0.74245 0.33615 0.56499 0.0
C4764 C 0.75255 0.23725 0.60035 0.0
C4765 C 0.73341 0.22177 0.61248 0.0
C4766 C 0.75834 0.26162 0.59769 0.0
C4767 C 0.74508 0.27088 0.60711 0.0
C4768 C 0.72426 0.2547 0.61755 0.0
C4769 C 0.71853 0.23034 0.62029 0.0
C4770 C 0.75543 0.29788 0.60839 0.0
C4771 C 0.76049 0.31176 0.59198 0.0
C4772 C 0.76239 0.31016 0.6258 0.0
C4773 C 0.75941 0.29679 0.64352 0.0
C4774 C 0.74465 0.29776 0.65784 0.0
C4775 C 0.74158 0.2849 0.67447 0.0
C4776 C 0.75331 0.27114 0.67695 0.0
C4777 C 0.76825 0.27032 0.66285 0.0
C4778 C 0.77142 0.2832 0.64623 0.0
C4779 C 0.80256 0.41805 0.60395 0.0
C4780 C 0.82612 0.42847 0.61197 0.0
C4781 C 0.7871 0.39245 0.60363 0.0
C4782 C 0.79497 0.37699 0.61139 0.0
C4783 C 0.8181 0.38749 0.62002 0.0
C4784 C 0.83351 0.41294 0.62029 0.0
C4785 C 0.77985 0.34982 0.60995 0.0
C4786 C 0.77404 0.33589 0.62637 0.0
C4787 C 0.77296 0.33761 0.59252 0.0
C4788 C 0.77998 0.35131 0.57467 0.0
C4789 C 0.80489 0.36716 0.57025 0.0
C4790 C 0.81137 0.38018 0.55345 0.0
C4791 C 0.7931 0.37733 0.54089 0.0
C4792 C 0.76832 0.36138 0.54508 0.0
C4793 C 0.76174 0.34835 0.56188 0.0
H4794 H 0.79815 0.38742 0.52789 0.0
H4795 H 0.75087 0.26117 0.68981 0.0
H4796 H 0.4908 0.74067 0.59889 0.0
H4797 H 0.45632 0.74808 0.59852 0.0
H4798 H 0.43357 0.71434 0.65269 0.0
H4799 H 0.46854 0.70723 0.65335 0.0
H4800 H 0.40726 0.72725 0.60218 0.0
H4801 H 0.42337 0.75296 0.67907 0.0
H4802 H 0.45437 0.76217 0.70365 0.0
H4803 H 0.51182 0.79119 0.66255 0.0
H4804 H 0.48118 0.78243 0.63781 0.0
H4805 H 0.34478 0.79601 0.61898 0.0
H4806 H 0.35692 0.76466 0.62263 0.0
H4807 H 0.43305 0.82188 0.62638 0.0
H4808 H 0.42108 0.85305 0.62373 0.0
H4809 H 0.42342 0.78847 0.65193 0.0
H4810 H 0.40597 0.78827 0.5855 0.0
H4811 H 0.37904 0.78254 0.55865 0.0
H4812 H 0.32992 0.7079 0.57546 0.0
H4813 H 0.35646 0.7133 0.60253 0.0
C4814 C 0.47816 0.73424 0.61056 0.0
C4815 C 0.48287 0.72414 0.62643 0.0
C4816 C 0.45826 0.7383 0.61024 0.0
C4817 C 0.44275 0.73232 0.62577 0.0
C4818 C 0.44562 0.71948 0.64069 0.0
C4819 C 0.46564 0.71547 0.64105 0.0
C4820 C 0.4271 0.74373 0.62754 0.0
C4821 C 0.4103 0.74019 0.6133 0.0
C4822 C 0.43139 0.76097 0.64184 0.0
C4823 C 0.44999 0.76677 0.65663 0.0
C4824 C 0.44263 0.76137 0.67533 0.0
C4825 C 0.46013 0.76651 0.68927 0.0
C4826 C 0.48504 0.77717 0.68466 0.0
C4827 C 0.49252 0.78286 0.6661 0.0
C4828 C 0.47511 0.77783 0.65212 0.0
C4829 C 0.36408 0.80186 0.62073 0.0
C4830 C 0.38197 0.82706 0.62087 0.0
C4831 C 0.37099 0.78393 0.62269 0.0
C4832 C 0.3959 0.79092 0.62468 0.0
C4833 C 0.4137 0.81603 0.6249 0.0
C4834 C 0.40684 0.83387 0.6231 0.0
C4835 C 0.40401 0.77247 0.6263 0.0
C4836 C 0.41946 0.77474 0.64123 0.0
C4837 C 0.39884 0.75449 0.61241 0.0
C4838 C 0.38298 0.75129 0.59615 0.0
C4839 C 0.38932 0.7707 0.58354 0.0
C4840 C 0.37415 0.7675 0.56828 0.0
C4841 C 0.35273 0.7449 0.56539 0.0
C4842 C 0.34648 0.72542 0.57774 0.0
C4843 C 0.36157 0.72853 0.59304 0.0
H4844 H 0.34101 0.74245 0.55357 0.0
H4845 H 0.49854 0.78107 0.69546 0.0
H4846 H 0.51269 0.39617 0.63947 0.0
H4847 H 0.55677 0.41398 0.6448 0.0
H4848 H 0.56105 0.37187 0.5989 0.0
H4849 H 0.51672 0.35404 0.59332 0.0
H4850 H 0.59028 0.37432 0.6297 0.0
H4851 H 0.58151 0.43075 0.58941 0.0
H4852 H 0.56542 0.45711 0.57822 0.0
H4853 H 0.58452 0.496 0.63035 0.0
H4854 H 0.60135 0.47021 0.64166 0.0
H4855 H 0.71888 0.4573 0.60908 0.0
H4856 H 0.67465 0.42793 0.61028 0.0
H4857 H 0.66684 0.46925 0.65518 0.0
H4858 H 0.71085 0.49869 0.65403 0.0
H4859 H 0.6392 0.46536 0.62493 0.0
H4860 H 0.65485 0.41143 0.66241 0.0
H4861 H 0.67427 0.38684 0.67038 0.0
H4862 H 0.64344 0.34293 0.62121 0.0
H4863 H 0.62411 0.3675 0.61278 0.0
C4864 C 0.52298 0.39062 0.63054 0.0
C4865 C 0.51134 0.37396 0.61582 0.0
C4866 C 0.54813 0.40075 0.63364 0.0
C4867 C 0.56218 0.39448 0.62208 0.0
C4868 C 0.55047 0.37692 0.60795 0.0
C4869 C 0.52519 0.36674 0.60481 0.0
C4870 C 0.58926 0.40754 0.62419 0.0
C4871 C 0.6011 0.39419 0.62848 0.0
C4872 C 0.60325 0.43345 0.62281 0.0
C4873 C 0.59236 0.44838 0.61644 0.0
C4874 C 0.58207 0.44478 0.59854 0.0
C4875 C 0.57295 0.45971 0.59214 0.0
C4876 C 0.57369 0.47806 0.60364 0.0
C4877 C 0.58385 0.48171 0.62149 0.0
C4878 C 0.59333 0.46705 0.62786 0.0
C4879 C 0.70785 0.45977 0.61953 0.0
C4880 C 0.71826 0.48055 0.63123 0.0
C4881 C 0.6826 0.4429 0.62025 0.0
C4882 C 0.6675 0.44651 0.63276 0.0
C4883 C 0.6782 0.4662 0.64539 0.0
C4884 C 0.70335 0.48305 0.64467 0.0
C4885 C 0.6404 0.43229 0.63081 0.0
C4886 C 0.62849 0.44548 0.62638 0.0
C4887 C 0.62662 0.40629 0.63183 0.0
C4888 C 0.63823 0.39149 0.63687 0.0
C4889 C 0.6524 0.39669 0.65319 0.0
C4890 C 0.66335 0.38271 0.65782 0.0
C4891 C 0.66015 0.36338 0.64628 0.0
C4892 C 0.64593 0.35794 0.63012 0.0
C4893 C 0.63495 0.37187 0.62542 0.0
H4894 H 0.66864 0.35258 0.64989 0.0
H4895 H 0.56649 0.48951 0.59867 0.0
loop_
_geom_bond_atom_site_label_1
_geom_bond_atom_site_label_2
_geom_bond_distance
_geom_bond_site_symmetry_2
_ccdc_geom_bond_type
O0 Tb1 2.292 . S
O0 C3 1.255 . S
Tb1 O0 2.292 . S
Tb1 O17 2.326 . S
Tb1 O19 2.500 . S
Tb1 O20 2.473 . S
Tb1 O23 2.324 . S
Eu2 O6 2.292 . S
Eu2 C7 2.852 . S
Eu2 O18 2.324 . S
Eu2 O22 2.326 . S
Eu2 O24 2.500 . S
Eu2 O25 2.473 . S
C3 O0 1.255 . S
C3 O4 1.247 . S
O4 C3 1.247 . S
C5 O17 1.242 . S
C5 O18 1.258 . S
O6 Eu2 2.292 . S
O6 C8 1.255 . S
C7 Eu2 2.852 . S
C7 C11 1.503 . S
C7 O24 1.273 . S
C7 O25 1.257 . S
C8 O6 1.255 . S
C8 O9 1.247 . S
O9 C8 1.247 . S
C10 O22 1.242 . S
C10 O23 1.258 . S
C11 C7 1.503 . S
C11 C12 1.379 . S
C11 C16 1.392 . S
C12 C11 1.379 . S
C12 C13 1.404 . S
C12 H26 0.929 . S
C13 C12 1.404 . S
C13 C14 1.389 . S
C14 C13 1.389 . S
C14 C15 1.399 . S
C14 H27 0.931 . S
C15 C14 1.399 . S
C15 C16 1.390 . S
C16 C11 1.392 . S
C16 C15 1.390 . S
C16 H28 0.929 . S
O17 Tb1 2.326 . S
O17 C5 1.242 . S
O18 Eu2 2.324 . S
O18 C5 1.258 . S
O19 Tb1 2.500 . S
O19 C21 1.273 . S
O20 Tb1 2.473 . S
O20 C21 1.257 . S
C21 O19 1.273 . S
C21 O20 1.257 . S
O22 Eu2 2.326 . S
O22 C10 1.242 . S
O23 Tb1 2.324 . S
O23 C10 1.258 . S
O24 Eu2 2.500 . S
O24 C7 1.273 . S
O25 Eu2 2.473 . S
O25 C7 1.257 . S
H26 C12 0.929 . S
H27 C14 0.931 . S
H28 C16 0.929 . S
O29 Tb30 2.292 . S
O29 C32 1.255 . S
Tb30 O29 2.292 . S
Tb30 O46 2.326 . S
Tb30 O48 2.500 . S
Tb30 O49 2.473 . S
Tb30 O52 2.324 . S
Eu31 O35 2.292 . S
Eu31 C36 2.852 . S
Eu31 O47 2.324 . S
Eu31 O51 2.326 . S
Eu31 O53 2.500 . S
Eu31 O54 2.473 . S
C32 O29 1.255 . S
C32 O33 1.247 . S
O33 C32 1.247 . S
C34 O46 1.242 . S
C34 O47 1.258 . S
O35 Eu31 2.292 . S
O35 C37 1.255 . S
C36 Eu31 2.852 . S
C36 C40 1.503 . S
C36 O53 1.273 . S
C36 O54 1.257 . S
C37 O35 1.255 . S
C37 O38 1.247 . S
O38 C37 1.247 . S
C39 O51 1.242 . S
C39 O52 1.258 . S
C40 C36 1.503 . S
C40 C41 1.379 . S
C40 C45 1.392 . S
C41 C40 1.379 . S
C41 C42 1.404 . S
C41 H55 0.929 . S
C42 C41 1.404 . S
C42 C43 1.389 . S
C43 C42 1.389 . S
C43 C44 1.399 . S
C43 H56 0.931 . S
C44 C43 1.399 . S
C44 C45 1.390 . S
C45 C40 1.392 . S
C45 C44 1.390 . S
C45 H57 0.929 . S
O46 Tb30 2.326 . S
O46 C34 1.242 . S
O47 Eu31 2.324 . S
O47 C34 1.258 . S
O48 Tb30 2.500 . S
O48 C50 1.273 . S
O49 Tb30 2.473 . S
O49 C50 1.257 . S
C50 O48 1.273 . S
C50 O49 1.257 . S
O51 Eu31 2.326 . S
O51 C39 1.242 . S
O52 Tb30 2.324 . S
O52 C39 1.258 . S
O53 Eu31 2.500 . S
O53 C36 1.273 . S
O54 Eu31 2.473 . S
O54 C36 1.257 . S
H55 C41 0.929 . S
H56 C43 0.931 . S
H57 C45 0.929 . S
O58 Tb59 2.292 . S
O58 C61 1.255 . S
Tb59 O58 2.292 . S
Tb59 O75 2.326 . S
Tb59 O77 2.500 . S
Tb59 O78 2.473 . S
Tb59 O81 2.324 . S
Eu60 O64 2.292 . S
Eu60 C65 2.852 . S
Eu60 O76 2.324 . S
Eu60 O80 2.326 . S
Eu60 O82 2.500 . S
Eu60 O83 2.473 . S
C61 O58 1.255 . S
C61 O62 1.247 . S
O62 C61 1.247 . S
C63 O75 1.242 . S
C63 O76 1.258 . S
O64 Eu60 2.292 . S
O64 C66 1.255 . S
C65 Eu60 2.852 . S
C65 C69 1.503 . S
C65 O82 1.273 . S
C65 O83 1.257 . S
C66 O64 1.255 . S
C66 O67 1.247 . S
O67 C66 1.247 . S
C68 O80 1.242 . S
C68 O81 1.258 . S
C69 C65 1.503 . S
C69 C70 1.379 . S
C69 C74 1.392 . S
C70 C69 1.379 . S
C70 C71 1.404 . S
C70 H84 0.929 . S
C71 C70 1.404 . S
C71 C72 1.389 . S
C72 C71 1.389 . S
C72 C73 1.399 . S
C72 H85 0.931 . S
C73 C72 1.399 . S
C73 C74 1.390 . S
C74 C69 1.392 . S
C74 C73 1.390 . S
C74 H86 0.929 . S
O75 Tb59 2.326 . S
O75 C63 1.242 . S
O76 Eu60 2.324 . S
O76 C63 1.258 . S
O77 Tb59 2.500 . S
O77 C79 1.273 . S
O78 Tb59 2.473 . S
O78 C79 1.257 . S
C79 O77 1.273 . S
C79 O78 1.257 . S
O80 Eu60 2.326 . S
O80 C68 1.242 . S
O81 Tb59 2.324 . S
O81 C68 1.258 . S
O82 Eu60 2.500 . S
O82 C65 1.273 . S
O83 Eu60 2.473 . S
O83 C65 1.257 . S
H84 C70 0.929 . S
H85 C72 0.931 . S
H86 C74 0.929 . S
O87 Tb88 2.292 . S
O87 C90 1.255 . S
Tb88 O87 2.292 . S
Tb88 O104 2.326 . S
Tb88 O106 2.500 . S
Tb88 O107 2.473 . S
Tb88 O110 2.324 . S
Eu89 O93 2.292 . S
Eu89 C94 2.852 . S
Eu89 O105 2.324 . S
Eu89 O109 2.326 . S
Eu89 O111 2.500 . S
Eu89 O112 2.473 . S
C90 O87 1.255 . S
C90 O91 1.247 . S
O91 C90 1.247 . S
C92 O104 1.242 . S
C92 O105 1.258 . S
O93 Eu89 2.292 . S
O93 C95 1.255 . S
C94 Eu89 2.852 . S
C94 C98 1.503 . S
C94 O111 1.273 . S
C94 O112 1.257 . S
C95 O93 1.255 . S
C95 O96 1.247 . S
O96 C95 1.247 . S
C97 O109 1.242 . S
C97 O110 1.258 . S
C98 C94 1.503 . S
C98 C99 1.379 . S
C98 C103 1.392 . S
C99 C98 1.379 . S
C99 C100 1.404 . S
C99 H113 0.929 . S
C100 C99 1.404 . S
C100 C101 1.389 . S
C101 C100 1.389 . S
C101 C102 1.399 . S
C101 H114 0.931 . S
C102 C101 1.399 . S
C102 C103 1.390 . S
C103 C98 1.392 . S
C103 C102 1.390 . S
C103 H115 0.929 . S
O104 Tb88 2.326 . S
O104 C92 1.242 . S
O105 Eu89 2.324 . S
O105 C92 1.258 . S
O106 Tb88 2.500 . S
O106 C108 1.273 . S
O107 Tb88 2.473 . S
O107 C108 1.257 . S
C108 O106 1.273 . S
C108 O107 1.257 . S
O109 Eu89 2.326 . S
O109 C97 1.242 . S
O110 Tb88 2.324 . S
O110 C97 1.258 . S
O111 Eu89 2.500 . S
O111 C94 1.273 . S
O112 Eu89 2.473 . S
O112 C94 1.257 . S
H113 C99 0.929 . S
H114 C101 0.931 . S
H115 C103 0.929 . S
O116 Tb117 2.292 . S
O116 C119 1.255 . S
Tb117 O116 2.292 . S
Tb117 O133 2.326 . S
Tb117 O135 2.500 . S
Tb117 O136 2.473 . S
Tb117 O139 2.324 . S
Eu118 O122 2.292 . S
Eu118 C123 2.852 . S
Eu118 O134 2.324 . S
Eu118 O138 2.326 . S
Eu118 O140 2.500 . S
Eu118 O141 2.473 . S
C119 O116 1.255 . S
C119 O120 1.247 . S
O120 C119 1.247 . S
C121 O133 1.242 . S
C121 O134 1.258 . S
O122 Eu118 2.292 . S
O122 C124 1.255 . S
C123 Eu118 2.852 . S
C123 C127 1.503 . S
C123 O140 1.273 . S
C123 O141 1.257 . S
C124 O122 1.255 . S
C124 O125 1.247 . S
O125 C124 1.247 . S
C126 O138 1.242 . S
C126 O139 1.258 . S
C127 C123 1.503 . S
C127 C128 1.379 . S
C127 C132 1.392 . S
C128 C127 1.379 . S
C128 C129 1.404 . S
C128 H142 0.929 . S
C129 C128 1.404 . S
C129 C130 1.389 . S
C130 C129 1.389 . S
C130 C131 1.399 . S
C130 H143 0.931 . S
C131 C130 1.399 . S
C131 C132 1.390 . S
C132 C127 1.392 . S
C132 C131 1.390 . S
C132 H144 0.929 . S
O133 Tb117 2.326 . S
O133 C121 1.242 . S
O134 Eu118 2.324 . S
O134 C121 1.258 . S
O135 Tb117 2.500 . S
O135 C137 1.273 . S
O136 Tb117 2.473 . S
O136 C137 1.257 . S
C137 O135 1.273 . S
C137 O136 1.257 . S
O138 Eu118 2.326 . S
O138 C126 1.242 . S
O139 Tb117 2.324 . S
O139 C126 1.258 . S
O140 Eu118 2.500 . S
O140 C123 1.273 . S
O141 Eu118 2.473 . S
O141 C123 1.257 . S
H142 C128 0.929 . S
H143 C130 0.931 . S
H144 C132 0.929 . S
O145 Tb146 2.292 . S
O145 C148 1.255 . S
Tb146 O145 2.292 . S
Tb146 O162 2.326 . S
Tb146 O164 2.500 . S
Tb146 O165 2.473 . S
Tb146 O168 2.324 . S
Eu147 O151 2.292 . S
Eu147 C152 2.852 . S
Eu147 O163 2.324 . S
Eu147 O167 2.326 . S
Eu147 O169 2.500 . S
Eu147 O170 2.473 . S
C148 O145 1.255 . S
C148 O149 1.247 . S
O149 C148 1.247 . S
C150 O162 1.242 . S
C150 O163 1.258 . S
O151 Eu147 2.292 . S
O151 C153 1.255 . S
C152 Eu147 2.852 . S
C152 C156 1.503 . S
C152 O169 1.273 . S
C152 O170 1.257 . S
C153 O151 1.255 . S
C153 O154 1.247 . S
O154 C153 1.247 . S
C155 O167 1.242 . S
C155 O168 1.258 . S
C156 C152 1.503 . S
C156 C157 1.379 . S
C156 C161 1.392 . S
C157 C156 1.379 . S
C157 C158 1.404 . S
C157 H171 0.929 . S
C158 C157 1.404 . S
C158 C159 1.389 . S
C159 C158 1.389 . S
C159 C160 1.399 . S
C159 H172 0.931 . S
C160 C159 1.399 . S
C160 C161 1.390 . S
C161 C156 1.392 . S
C161 C160 1.390 . S
C161 H173 0.929 . S
O162 Tb146 2.326 . S
O162 C150 1.242 . S
O163 Eu147 2.324 . S
O163 C150 1.258 . S
O164 Tb146 2.500 . S
O164 C166 1.273 . S
O165 Tb146 2.473 . S
O165 C166 1.257 . S
C166 O164 1.273 . S
C166 O165 1.257 . S
O167 Eu147 2.326 . S
O167 C155 1.242 . S
O168 Tb146 2.324 . S
O168 C155 1.258 . S
O169 Eu147 2.500 . S
O169 C152 1.273 . S
O170 Eu147 2.473 . S
O170 C152 1.257 . S
H171 C157 0.929 . S
H172 C159 0.931 . S
H173 C161 0.929 . S
O174 Tb175 2.292 . S
O174 C177 1.255 . S
Tb175 O174 2.292 . S
Tb175 O191 2.326 . S
Tb175 O193 2.500 . S
Tb175 O194 2.473 . S
Tb175 O197 2.324 . S
Eu176 O180 2.292 . S
Eu176 C181 2.852 . S
Eu176 O192 2.324 . S
Eu176 O196 2.326 . S
Eu176 O198 2.500 . S
Eu176 O199 2.473 . S
C177 O174 1.255 . S
C177 O178 1.247 . S
O178 C177 1.247 . S
C179 O191 1.242 . S
C179 O192 1.258 . S
O180 Eu176 2.292 . S
O180 C182 1.255 . S
C181 Eu176 2.852 . S
C181 C185 1.503 . S
C181 O198 1.273 . S
C181 O199 1.257 . S
C182 O180 1.255 . S
C182 O183 1.247 . S
O183 C182 1.247 . S
C184 O196 1.242 . S
C184 O197 1.258 . S
C185 C181 1.503 . S
C185 C186 1.379 . S
C185 C190 1.392 . S
C186 C185 1.379 . S
C186 C187 1.404 . S
C186 H200 0.929 . S
C187 C186 1.404 . S
C187 C188 1.389 . S
C188 C187 1.389 . S
C188 C189 1.399 . S
C188 H201 0.931 . S
C189 C188 1.399 . S
C189 C190 1.390 . S
C190 C185 1.392 . S
C190 C189 1.390 . S
C190 H202 0.929 . S
O191 Tb175 2.326 . S
O191 C179 1.242 . S
O192 Eu176 2.324 . S
O192 C179 1.258 . S
O193 Tb175 2.500 . S
O193 C195 1.273 . S
O194 Tb175 2.473 . S
O194 C195 1.257 . S
C195 O193 1.273 . S
C195 O194 1.257 . S
O196 Eu176 2.326 . S
O196 C184 1.242 . S
O197 Tb175 2.324 . S
O197 C184 1.258 . S
O198 Eu176 2.500 . S
O198 C181 1.273 . S
O199 Eu176 2.473 . S
O199 C181 1.257 . S
H200 C186 0.929 . S
H201 C188 0.931 . S
H202 C190 0.929 . S
O203 Tb204 2.292 . S
O203 C206 1.255 . S
Tb204 O203 2.292 . S
Tb204 O220 2.326 . S
Tb204 O222 2.500 . S
Tb204 O223 2.473 . S
Tb204 O226 2.324 . S
Eu205 O209 2.292 . S
Eu205 C210 2.852 . S
Eu205 O221 2.324 . S
Eu205 O225 2.326 . S
Eu205 O227 2.500 . S
Eu205 O228 2.473 . S
C206 O203 1.255 . S
C206 O207 1.247 . S
O207 C206 1.247 . S
C208 O220 1.242 . S
C208 O221 1.258 . S
O209 Eu205 2.292 . S
O209 C211 1.255 . S
C210 Eu205 2.852 . S
C210 C214 1.503 . S
C210 O227 1.273 . S
C210 O228 1.257 . S
C211 O209 1.255 . S
C211 O212 1.247 . S
O212 C211 1.247 . S
C213 O225 1.242 . S
C213 O226 1.258 . S
C214 C210 1.503 . S
C214 C215 1.379 . S
C214 C219 1.392 . S
C215 C214 1.379 . S
C215 C216 1.404 . S
C215 H229 0.929 . S
C216 C215 1.404 . S
C216 C217 1.389 . S
C217 C216 1.389 . S
C217 C218 1.399 . S
C217 H230 0.931 . S
C218 C217 1.399 . S
C218 C219 1.390 . S
C219 C214 1.392 . S
C219 C218 1.390 . S
C219 H231 0.929 . S
O220 Tb204 2.326 . S
O220 C208 1.242 . S
O221 Eu205 2.324 . S
O221 C208 1.258 . S
O222 Tb204 2.500 . S
O222 C224 1.273 . S
O223 Tb204 2.473 . S
O223 C224 1.257 . S
C224 O222 1.273 . S
C224 O223 1.257 . S
O225 Eu205 2.326 . S
O225 C213 1.242 . S
O226 Tb204 2.324 . S
O226 C213 1.258 . S
O227 Eu205 2.500 . S
O227 C210 1.273 . S
O228 Eu205 2.473 . S
O228 C210 1.257 . S
H229 C215 0.929 . S
H230 C217 0.931 . S
H231 C219 0.929 . S
O232 Tb233 2.292 . S
O232 C235 1.255 . S
Tb233 O232 2.292 . S
Tb233 O249 2.326 . S
Tb233 O251 2.500 . S
Tb233 O252 2.473 . S
Tb233 O255 2.324 . S
Eu234 O238 2.292 . S
Eu234 C239 2.852 . S
Eu234 O250 2.324 . S
Eu234 O254 2.326 . S
Eu234 O256 2.500 . S
Eu234 O257 2.473 . S
C235 O232 1.255 . S
C235 O236 1.247 . S
O236 C235 1.247 . S
C237 O249 1.242 . S
C237 O250 1.258 . S
O238 Eu234 2.292 . S
O238 C240 1.255 . S
C239 Eu234 2.852 . S
C239 C243 1.503 . S
C239 O256 1.273 . S
C239 O257 1.257 . S
C240 O238 1.255 . S
C240 O241 1.247 . S
O241 C240 1.247 . S
C242 O254 1.242 . S
C242 O255 1.258 . S
C243 C239 1.503 . S
C243 C244 1.379 . S
C243 C248 1.392 . S
C244 C243 1.379 . S
C244 C245 1.404 . S
C244 H258 0.929 . S
C245 C244 1.404 . S
C245 C246 1.389 . S
C246 C245 1.389 . S
C246 C247 1.399 . S
C246 H259 0.931 . S
C247 C246 1.399 . S
C247 C248 1.390 . S
C248 C243 1.392 . S
C248 C247 1.390 . S
C248 H260 0.929 . S
O249 Tb233 2.326 . S
O249 C237 1.242 . S
O250 Eu234 2.324 . S
O250 C237 1.258 . S
O251 Tb233 2.500 . S
O251 C253 1.273 . S
O252 Tb233 2.473 . S
O252 C253 1.257 . S
C253 O251 1.273 . S
C253 O252 1.257 . S
O254 Eu234 2.326 . S
O254 C242 1.242 . S
O255 Tb233 2.324 . S
O255 C242 1.258 . S
O256 Eu234 2.500 . S
O256 C239 1.273 . S
O257 Eu234 2.473 . S
O257 C239 1.257 . S
H258 C244 0.929 . S
H259 C246 0.931 . S
H260 C248 0.929 . S
O261 Tb262 2.292 . S
O261 C264 1.255 . S
Tb262 O261 2.292 . S
Tb262 O278 2.326 . S
Tb262 O280 2.500 . S
Tb262 O281 2.473 . S
Tb262 O284 2.324 . S
Eu263 O267 2.292 . S
Eu263 C268 2.852 . S
Eu263 O279 2.324 . S
Eu263 O283 2.326 . S
Eu263 O285 2.500 . S
Eu263 O286 2.473 . S
C264 O261 1.255 . S
C264 O265 1.247 . S
O265 C264 1.247 . S
C266 O278 1.242 . S
C266 O279 1.258 . S
O267 Eu263 2.292 . S
O267 C269 1.255 . S
C268 Eu263 2.852 . S
C268 C272 1.503 . S
C268 O285 1.273 . S
C268 O286 1.257 . S
C269 O267 1.255 . S
C269 O270 1.247 . S
O270 C269 1.247 . S
C271 O283 1.242 . S
C271 O284 1.258 . S
C272 C268 1.503 . S
C272 C273 1.379 . S
C272 C277 1.392 . S
C273 C272 1.379 . S
C273 C274 1.404 . S
C273 H287 0.929 . S
C274 C273 1.404 . S
C274 C275 1.389 . S
C275 C274 1.389 . S
C275 C276 1.399 . S
C275 H288 0.931 . S
C276 C275 1.399 . S
C276 C277 1.390 . S
C277 C272 1.392 . S
C277 C276 1.390 . S
C277 H289 0.929 . S
O278 Tb262 2.326 . S
O278 C266 1.242 . S
O279 Eu263 2.324 . S
O279 C266 1.258 . S
O280 Tb262 2.500 . S
O280 C282 1.273 . S
O281 Tb262 2.473 . S
O281 C282 1.257 . S
C282 O280 1.273 . S
C282 O281 1.257 . S
O283 Eu263 2.326 . S
O283 C271 1.242 . S
O284 Tb262 2.324 . S
O284 C271 1.258 . S
O285 Eu263 2.500 . S
O285 C268 1.273 . S
O286 Eu263 2.473 . S
O286 C268 1.257 . S
H287 C273 0.929 . S
H288 C275 0.931 . S
H289 C277 0.929 . S
O290 Tb291 2.292 . S
O290 C293 1.255 . S
Tb291 O290 2.292 . S
Tb291 O307 2.326 . S
Tb291 O309 2.500 . S
Tb291 O310 2.473 . S
Tb291 O313 2.324 . S
Eu292 O296 2.292 . S
Eu292 C297 2.852 . S
Eu292 O308 2.324 . S
Eu292 O312 2.326 . S
Eu292 O314 2.500 . S
Eu292 O315 2.473 . S
C293 O290 1.255 . S
C293 O294 1.247 . S
O294 C293 1.247 . S
C295 O307 1.242 . S
C295 O308 1.258 . S
O296 Eu292 2.292 . S
O296 C298 1.255 . S
C297 Eu292 2.852 . S
C297 C301 1.503 . S
C297 O314 1.273 . S
C297 O315 1.257 . S
C298 O296 1.255 . S
C298 O299 1.247 . S
O299 C298 1.247 . S
C300 O312 1.242 . S
C300 O313 1.258 . S
C301 C297 1.503 . S
C301 C302 1.379 . S
C301 C306 1.392 . S
C302 C301 1.379 . S
C302 C303 1.404 . S
C302 H316 0.929 . S
C303 C302 1.404 . S
C303 C304 1.389 . S
C304 C303 1.389 . S
C304 C305 1.399 . S
C304 H317 0.931 . S
C305 C304 1.399 . S
C305 C306 1.390 . S
C306 C301 1.392 . S
C306 C305 1.390 . S
C306 H318 0.929 . S
O307 Tb291 2.326 . S
O307 C295 1.242 . S
O308 Eu292 2.324 . S
O308 C295 1.258 . S
O309 Tb291 2.500 . S
O309 C311 1.273 . S
O310 Tb291 2.473 . S
O310 C311 1.257 . S
C311 O309 1.273 . S
C311 O310 1.257 . S
O312 Eu292 2.326 . S
O312 C300 1.242 . S
O313 Tb291 2.324 . S
O313 C300 1.258 . S
O314 Eu292 2.500 . S
O314 C297 1.273 . S
O315 Eu292 2.473 . S
O315 C297 1.257 . S
H316 C302 0.929 . S
H317 C304 0.931 . S
H318 C306 0.929 . S
O319 Tb320 2.292 . S
O319 C322 1.255 . S
Tb320 O319 2.292 . S
Tb320 O336 2.326 . S
Tb320 O338 2.500 . S
Tb320 O339 2.473 . S
Tb320 O342 2.324 . S
Eu321 O325 2.292 . S
Eu321 C326 2.852 . S
Eu321 O337 2.324 . S
Eu321 O341 2.326 . S
Eu321 O343 2.500 . S
Eu321 O344 2.473 . S
C322 O319 1.255 . S
C322 O323 1.247 . S
O323 C322 1.247 . S
C324 O336 1.242 . S
C324 O337 1.258 . S
O325 Eu321 2.292 . S
O325 C327 1.255 . S
C326 Eu321 2.852 . S
C326 C330 1.503 . S
C326 O343 1.273 . S
C326 O344 1.257 . S
C327 O325 1.255 . S
C327 O328 1.247 . S
O328 C327 1.247 . S
C329 O341 1.242 . S
C329 O342 1.258 . S
C330 C326 1.503 . S
C330 C331 1.379 . S
C330 C335 1.392 . S
C331 C330 1.379 . S
C331 C332 1.404 . S
C331 H345 0.929 . S
C332 C331 1.404 . S
C332 C333 1.389 . S
C333 C332 1.389 . S
C333 C334 1.399 . S
C333 H346 0.931 . S
C334 C333 1.399 . S
C334 C335 1.390 . S
C335 C330 1.392 . S
C335 C334 1.390 . S
C335 H347 0.929 . S
O336 Tb320 2.326 . S
O336 C324 1.242 . S
O337 Eu321 2.324 . S
O337 C324 1.258 . S
O338 Tb320 2.500 . S
O338 C340 1.273 . S
O339 Tb320 2.473 . S
O339 C340 1.257 . S
C340 O338 1.273 . S
C340 O339 1.257 . S
O341 Eu321 2.326 . S
O341 C329 1.242 . S
O342 Tb320 2.324 . S
O342 C329 1.258 . S
O343 Eu321 2.500 . S
O343 C326 1.273 . S
O344 Eu321 2.473 . S
O344 C326 1.257 . S
H345 C331 0.929 . S
H346 C333 0.931 . S
H347 C335 0.929 . S
O348 Tb349 2.292 . S
O348 C351 1.255 . S
Tb349 O348 2.292 . S
Tb349 O365 2.326 . S
Tb349 O367 2.500 . S
Tb349 O368 2.473 . S
Tb349 O371 2.324 . S
Eu350 O354 2.292 . S
Eu350 C355 2.852 . S
Eu350 O366 2.324 . S
Eu350 O370 2.326 . S
Eu350 O372 2.500 . S
Eu350 O373 2.473 . S
C351 O348 1.255 . S
C351 O352 1.247 . S
O352 C351 1.247 . S
C353 O365 1.242 . S
C353 O366 1.258 . S
O354 Eu350 2.292 . S
O354 C356 1.255 . S
C355 Eu350 2.852 . S
C355 C359 1.503 . S
C355 O372 1.273 . S
C355 O373 1.257 . S
C356 O354 1.255 . S
C356 O357 1.247 . S
O357 C356 1.247 . S
C358 O370 1.242 . S
C358 O371 1.258 . S
C359 C355 1.503 . S
C359 C360 1.379 . S
C359 C364 1.392 . S
C360 C359 1.379 . S
C360 C361 1.404 . S
C360 H374 0.929 . S
C361 C360 1.404 . S
C361 C362 1.389 . S
C362 C361 1.389 . S
C362 C363 1.399 . S
C362 H375 0.931 . S
C363 C362 1.399 . S
C363 C364 1.390 . S
C364 C359 1.392 . S
C364 C363 1.390 . S
C364 H376 0.929 . S
O365 Tb349 2.326 . S
O365 C353 1.242 . S
O366 Eu350 2.324 . S
O366 C353 1.258 . S
O367 Tb349 2.500 . S
O367 C369 1.273 . S
O368 Tb349 2.473 . S
O368 C369 1.257 . S
C369 O367 1.273 . S
C369 O368 1.257 . S
O370 Eu350 2.326 . S
O370 C358 1.242 . S
O371 Tb349 2.324 . S
O371 C358 1.258 . S
O372 Eu350 2.500 . S
O372 C355 1.273 . S
O373 Eu350 2.473 . S
O373 C355 1.257 . S
H374 C360 0.929 . S
H375 C362 0.931 . S
H376 C364 0.929 . S
O377 Tb378 2.292 . S
O377 C380 1.255 . S
Tb378 O377 2.292 . S
Tb378 O394 2.326 . S
Tb378 O396 2.500 . S
Tb378 O397 2.473 . S
Tb378 O400 2.324 . S
Eu379 O383 2.292 . S
Eu379 C384 2.852 . S
Eu379 O395 2.324 . S
Eu379 O399 2.326 . S
Eu379 O401 2.500 . S
Eu379 O402 2.473 . S
C380 O377 1.255 . S
C380 O381 1.247 . S
O381 C380 1.247 . S
C382 O394 1.242 . S
C382 O395 1.258 . S
O383 Eu379 2.292 . S
O383 C385 1.255 . S
C384 Eu379 2.852 . S
C384 C388 1.503 . S
C384 O401 1.273 . S
C384 O402 1.257 . S
C385 O383 1.255 . S
C385 O386 1.247 . S
O386 C385 1.247 . S
C387 O399 1.242 . S
C387 O400 1.258 . S
C388 C384 1.503 . S
C388 C389 1.379 . S
C388 C393 1.392 . S
C389 C388 1.379 . S
C389 C390 1.404 . S
C389 H403 0.929 . S
C390 C389 1.404 . S
C390 C391 1.389 . S
C391 C390 1.389 . S
C391 C392 1.399 . S
C391 H404 0.931 . S
C392 C391 1.399 . S
C392 C393 1.390 . S
C393 C388 1.392 . S
C393 C392 1.390 . S
C393 H405 0.929 . S
O394 Tb378 2.326 . S
O394 C382 1.242 . S
O395 Eu379 2.324 . S
O395 C382 1.258 . S
O396 Tb378 2.500 . S
O396 C398 1.273 . S
O397 Tb378 2.473 . S
O397 C398 1.257 . S
C398 O396 1.273 . S
C398 O397 1.257 . S
O399 Eu379 2.326 . S
O399 C387 1.242 . S
O400 Tb378 2.324 . S
O400 C387 1.258 . S
O401 Eu379 2.500 . S
O401 C384 1.273 . S
O402 Eu379 2.473 . S
O402 C384 1.257 . S
H403 C389 0.929 . S
H404 C391 0.931 . S
H405 C393 0.929 . S
O406 Tb407 2.292 . S
O406 C409 1.255 . S
Tb407 O406 2.292 . S
Tb407 O423 2.326 . S
Tb407 O425 2.500 . S
Tb407 O426 2.473 . S
Tb407 O429 2.324 . S
Eu408 O412 2.292 . S
Eu408 C413 2.852 . S
Eu408 O424 2.324 . S
Eu408 O428 2.326 . S
Eu408 O430 2.500 . S
Eu408 O431 2.473 . S
C409 O406 1.255 . S
C409 O410 1.247 . S
O410 C409 1.247 . S
C411 O423 1.242 . S
C411 O424 1.258 . S
O412 Eu408 2.292 . S
O412 C414 1.255 . S
C413 Eu408 2.852 . S
C413 C417 1.503 . S
C413 O430 1.273 . S
C413 O431 1.257 . S
C414 O412 1.255 . S
C414 O415 1.247 . S
O415 C414 1.247 . S
C416 O428 1.242 . S
C416 O429 1.258 . S
C417 C413 1.503 . S
C417 C418 1.379 . S
C417 C422 1.392 . S
C418 C417 1.379 . S
C418 C419 1.404 . S
C418 H432 0.929 . S
C419 C418 1.404 . S
C419 C420 1.389 . S
C420 C419 1.389 . S
C420 C421 1.399 . S
C420 H433 0.931 . S
C421 C420 1.399 . S
C421 C422 1.390 . S
C422 C417 1.392 . S
C422 C421 1.390 . S
C422 H434 0.929 . S
O423 Tb407 2.326 . S
O423 C411 1.242 . S
O424 Eu408 2.324 . S
O424 C411 1.258 . S
O425 Tb407 2.500 . S
O425 C427 1.273 . S
O426 Tb407 2.473 . S
O426 C427 1.257 . S
C427 O425 1.273 . S
C427 O426 1.257 . S
O428 Eu408 2.326 . S
O428 C416 1.242 . S
O429 Tb407 2.324 . S
O429 C416 1.258 . S
O430 Eu408 2.500 . S
O430 C413 1.273 . S
O431 Eu408 2.473 . S
O431 C413 1.257 . S
H432 C418 0.929 . S
H433 C420 0.931 . S
H434 C422 0.929 . S
O435 Tb436 2.292 . S
O435 C438 1.255 . S
Tb436 O435 2.292 . S
Tb436 O452 2.326 . S
Tb436 O454 2.500 . S
Tb436 O455 2.473 . S
Tb436 O458 2.324 . S
Eu437 O441 2.292 . S
Eu437 C442 2.852 . S
Eu437 O453 2.324 . S
Eu437 O457 2.326 . S
Eu437 O459 2.500 . S
Eu437 O460 2.473 . S
C438 O435 1.255 . S
C438 O439 1.247 . S
O439 C438 1.247 . S
C440 O452 1.242 . S
C440 O453 1.258 . S
O441 Eu437 2.292 . S
O441 C443 1.255 . S
C442 Eu437 2.852 . S
C442 C446 1.503 . S
C442 O459 1.273 . S
C442 O460 1.257 . S
C443 O441 1.255 . S
C443 O444 1.247 . S
O444 C443 1.247 . S
C445 O457 1.242 . S
C445 O458 1.258 . S
C446 C442 1.503 . S
C446 C447 1.379 . S
C446 C451 1.392 . S
C447 C446 1.379 . S
C447 C448 1.404 . S
C447 H461 0.929 . S
C448 C447 1.404 . S
C448 C449 1.389 . S
C449 C448 1.389 . S
C449 C450 1.399 . S
C449 H462 0.931 . S
C450 C449 1.399 . S
C450 C451 1.390 . S
C451 C446 1.392 . S
C451 C450 1.390 . S
C451 H463 0.929 . S
O452 Tb436 2.326 . S
O452 C440 1.242 . S
O453 Eu437 2.324 . S
O453 C440 1.258 . S
O454 Tb436 2.500 . S
O454 C456 1.273 . S
O455 Tb436 2.473 . S
O455 C456 1.257 . S
C456 O454 1.273 . S
C456 O455 1.257 . S
O457 Eu437 2.326 . S
O457 C445 1.242 . S
O458 Tb436 2.324 . S
O458 C445 1.258 . S
O459 Eu437 2.500 . S
O459 C442 1.273 . S
O460 Eu437 2.473 . S
O460 C442 1.257 . S
H461 C447 0.929 . S
H462 C449 0.931 . S
H463 C451 0.929 . S
O464 Tb465 2.292 . S
O464 C467 1.255 . S
Tb465 O464 2.292 . S
Tb465 O481 2.326 . S
Tb465 O483 2.500 . S
Tb465 O484 2.473 . S
Tb465 O487 2.324 . S
Eu466 O470 2.292 . S
Eu466 C471 2.852 . S
Eu466 O482 2.324 . S
Eu466 O486 2.326 . S
Eu466 O488 2.500 . S
Eu466 O489 2.473 . S
C467 O464 1.255 . S
C467 O468 1.247 . S
O468 C467 1.247 . S
C469 O481 1.242 . S
C469 O482 1.258 . S
O470 Eu466 2.292 . S
O470 C472 1.255 . S
C471 Eu466 2.852 . S
C471 C475 1.503 . S
C471 O488 1.273 . S
C471 O489 1.257 . S
C472 O470 1.255 . S
C472 O473 1.247 . S
O473 C472 1.247 . S
C474 O486 1.242 . S
C474 O487 1.258 . S
C475 C471 1.503 . S
C475 C476 1.379 . S
C475 C480 1.392 . S
C476 C475 1.379 . S
C476 C477 1.404 . S
C476 H490 0.929 . S
C477 C476 1.404 . S
C477 C478 1.389 . S
C478 C477 1.389 . S
C478 C479 1.399 . S
C478 H491 0.931 . S
C479 C478 1.399 . S
C479 C480 1.390 . S
C480 C475 1.392 . S
C480 C479 1.390 . S
C480 H492 0.929 . S
O481 Tb465 2.326 . S
O481 C469 1.242 . S
O482 Eu466 2.324 . S
O482 C469 1.258 . S
O483 Tb465 2.500 . S
O483 C485 1.273 . S
O484 Tb465 2.473 . S
O484 C485 1.257 . S
C485 O483 1.273 . S
C485 O484 1.257 . S
O486 Eu466 2.326 . S
O486 C474 1.242 . S
O487 Tb465 2.324 . S
O487 C474 1.258 . S
O488 Eu466 2.500 . S
O488 C471 1.273 . S
O489 Eu466 2.473 . S
O489 C471 1.257 . S
H490 C476 0.929 . S
H491 C478 0.931 . S
H492 C480 0.929 . S
O493 Tb494 2.292 . S
O493 C496 1.255 . S
Tb494 O493 2.292 . S
Tb494 O510 2.326 . S
Tb494 O512 2.500 . S
Tb494 O513 2.473 . S
Tb494 O516 2.324 . S
Eu495 O499 2.292 . S
Eu495 C500 2.852 . S
Eu495 O511 2.324 . S
Eu495 O515 2.326 . S
Eu495 O517 2.500 . S
Eu495 O518 2.473 . S
C496 O493 1.255 . S
C496 O497 1.247 . S
O497 C496 1.247 . S
C498 O510 1.242 . S
C498 O511 1.258 . S
O499 Eu495 2.292 . S
O499 C501 1.255 . S
C500 Eu495 2.852 . S
C500 C504 1.503 . S
C500 O517 1.273 . S
C500 O518 1.257 . S
C501 O499 1.255 . S
C501 O502 1.247 . S
O502 C501 1.247 . S
C503 O515 1.242 . S
C503 O516 1.258 . S
C504 C500 1.503 . S
C504 C505 1.379 . S
C504 C509 1.392 . S
C505 C504 1.379 . S
C505 C506 1.404 . S
C505 H519 0.929 . S
C506 C505 1.404 . S
C506 C507 1.389 . S
C507 C506 1.389 . S
C507 C508 1.399 . S
C507 H520 0.931 . S
C508 C507 1.399 . S
C508 C509 1.390 . S
C509 C504 1.392 . S
C509 C508 1.390 . S
C509 H521 0.929 . S
O510 Tb494 2.326 . S
O510 C498 1.242 . S
O511 Eu495 2.324 . S
O511 C498 1.258 . S
O512 Tb494 2.500 . S
O512 C514 1.273 . S
O513 Tb494 2.473 . S
O513 C514 1.257 . S
C514 O512 1.273 . S
C514 O513 1.257 . S
O515 Eu495 2.326 . S
O515 C503 1.242 . S
O516 Tb494 2.324 . S
O516 C503 1.258 . S
O517 Eu495 2.500 . S
O517 C500 1.273 . S
O518 Eu495 2.473 . S
O518 C500 1.257 . S
H519 C505 0.929 . S
H520 C507 0.931 . S
H521 C509 0.929 . S
O522 Tb523 2.292 . S
O522 C525 1.255 . S
Tb523 O522 2.292 . S
Tb523 O539 2.326 . S
Tb523 O541 2.500 . S
Tb523 O542 2.473 . S
Tb523 O545 2.324 . S
Eu524 O528 2.292 . S
Eu524 C529 2.852 . S
Eu524 O540 2.324 . S
Eu524 O544 2.326 . S
Eu524 O546 2.500 . S
Eu524 O547 2.473 . S
C525 O522 1.255 . S
C525 O526 1.247 . S
O526 C525 1.247 . S
C527 O539 1.242 . S
C527 O540 1.258 . S
O528 Eu524 2.292 . S
O528 C530 1.255 . S
C529 Eu524 2.852 . S
C529 C533 1.503 . S
C529 O546 1.273 . S
C529 O547 1.257 . S
C530 O528 1.255 . S
C530 O531 1.247 . S
O531 C530 1.247 . S
C532 O544 1.242 . S
C532 O545 1.258 . S
C533 C529 1.503 . S
C533 C534 1.379 . S
C533 C538 1.392 . S
C534 C533 1.379 . S
C534 C535 1.404 . S
C534 H548 0.929 . S
C535 C534 1.404 . S
C535 C536 1.389 . S
C536 C535 1.389 . S
C536 C537 1.399 . S
C536 H549 0.931 . S
C537 C536 1.399 . S
C537 C538 1.390 . S
C538 C533 1.392 . S
C538 C537 1.390 . S
C538 H550 0.929 . S
O539 Tb523 2.326 . S
O539 C527 1.242 . S
O540 Eu524 2.324 . S
O540 C527 1.258 . S
O541 Tb523 2.500 . S
O541 C543 1.273 . S
O542 Tb523 2.473 . S
O542 C543 1.257 . S
C543 O541 1.273 . S
C543 O542 1.257 . S
O544 Eu524 2.326 . S
O544 C532 1.242 . S
O545 Tb523 2.324 . S
O545 C532 1.258 . S
O546 Eu524 2.500 . S
O546 C529 1.273 . S
O547 Eu524 2.473 . S
O547 C529 1.257 . S
H548 C534 0.929 . S
H549 C536 0.931 . S
H550 C538 0.929 . S
O551 Tb552 2.292 . S
O551 C554 1.255 . S
Tb552 O551 2.292 . S
Tb552 O568 2.326 . S
Tb552 O570 2.500 . S
Tb552 O571 2.473 . S
Tb552 O574 2.324 . S
Eu553 O557 2.292 . S
Eu553 C558 2.852 . S
Eu553 O569 2.324 . S
Eu553 O573 2.326 . S
Eu553 O575 2.500 . S
Eu553 O576 2.473 . S
C554 O551 1.255 . S
C554 O555 1.247 . S
O555 C554 1.247 . S
C556 O568 1.242 . S
C556 O569 1.258 . S
O557 Eu553 2.292 . S
O557 C559 1.255 . S
C558 Eu553 2.852 . S
C558 C562 1.503 . S
C558 O575 1.273 . S
C558 O576 1.257 . S
C559 O557 1.255 . S
C559 O560 1.247 . S
O560 C559 1.247 . S
C561 O573 1.242 . S
C561 O574 1.258 . S
C562 C558 1.503 . S
C562 C563 1.379 . S
C562 C567 1.392 . S
C563 C562 1.379 . S
C563 C564 1.404 . S
C563 H577 0.929 . S
C564 C563 1.404 . S
C564 C565 1.389 . S
C565 C564 1.389 . S
C565 C566 1.399 . S
C565 H578 0.931 . S
C566 C565 1.399 . S
C566 C567 1.390 . S
C567 C562 1.392 . S
C567 C566 1.390 . S
C567 H579 0.929 . S
O568 Tb552 2.326 . S
O568 C556 1.242 . S
O569 Eu553 2.324 . S
O569 C556 1.258 . S
O570 Tb552 2.500 . S
O570 C572 1.273 . S
O571 Tb552 2.473 . S
O571 C572 1.257 . S
C572 O570 1.273 . S
C572 O571 1.257 . S
O573 Eu553 2.326 . S
O573 C561 1.242 . S
O574 Tb552 2.324 . S
O574 C561 1.258 . S
O575 Eu553 2.500 . S
O575 C558 1.273 . S
O576 Eu553 2.473 . S
O576 C558 1.257 . S
H577 C563 0.929 . S
H578 C565 0.931 . S
H579 C567 0.929 . S
O580 Tb581 2.292 . S
O580 C583 1.255 . S
Tb581 O580 2.292 . S
Tb581 O597 2.326 . S
Tb581 O599 2.500 . S
Tb581 O600 2.473 . S
Tb581 O603 2.324 . S
Eu582 O586 2.292 . S
Eu582 C587 2.852 . S
Eu582 O598 2.324 . S
Eu582 O602 2.326 . S
Eu582 O604 2.500 . S
Eu582 O605 2.473 . S
C583 O580 1.255 . S
C583 O584 1.247 . S
O584 C583 1.247 . S
C585 O597 1.242 . S
C585 O598 1.258 . S
O586 Eu582 2.292 . S
O586 C588 1.255 . S
C587 Eu582 2.852 . S
C587 C591 1.503 . S
C587 O604 1.273 . S
C587 O605 1.257 . S
C588 O586 1.255 . S
C588 O589 1.247 . S
O589 C588 1.247 . S
C590 O602 1.242 . S
C590 O603 1.258 . S
C591 C587 1.503 . S
C591 C592 1.379 . S
C591 C596 1.392 . S
C592 C591 1.379 . S
C592 C593 1.404 . S
C592 H606 0.929 . S
C593 C592 1.404 . S
C593 C594 1.389 . S
C594 C593 1.389 . S
C594 C595 1.399 . S
C594 H607 0.931 . S
C595 C594 1.399 . S
C595 C596 1.390 . S
C596 C591 1.392 . S
C596 C595 1.390 . S
C596 H608 0.929 . S
O597 Tb581 2.326 . S
O597 C585 1.242 . S
O598 Eu582 2.324 . S
O598 C585 1.258 . S
O599 Tb581 2.500 . S
O599 C601 1.273 . S
O600 Tb581 2.473 . S
O600 C601 1.257 . S
C601 O599 1.273 . S
C601 O600 1.257 . S
O602 Eu582 2.326 . S
O602 C590 1.242 . S
O603 Tb581 2.324 . S
O603 C590 1.258 . S
O604 Eu582 2.500 . S
O604 C587 1.273 . S
O605 Eu582 2.473 . S
O605 C587 1.257 . S
H606 C592 0.929 . S
H607 C594 0.931 . S
H608 C596 0.929 . S
O609 Tb610 2.292 . S
O609 C612 1.255 . S
Tb610 O609 2.292 . S
Tb610 O626 2.326 . S
Tb610 O628 2.500 . S
Tb610 O629 2.473 . S
Tb610 O632 2.324 . S
Eu611 O615 2.292 . S
Eu611 C616 2.852 . S
Eu611 O627 2.324 . S
Eu611 O631 2.326 . S
Eu611 O633 2.500 . S
Eu611 O634 2.473 . S
C612 O609 1.255 . S
C612 O613 1.247 . S
O613 C612 1.247 . S
C614 O626 1.242 . S
C614 O627 1.258 . S
O615 Eu611 2.292 . S
O615 C617 1.255 . S
C616 Eu611 2.852 . S
C616 C620 1.503 . S
C616 O633 1.273 . S
C616 O634 1.257 . S
C617 O615 1.255 . S
C617 O618 1.247 . S
O618 C617 1.247 . S
C619 O631 1.242 . S
C619 O632 1.258 . S
C620 C616 1.503 . S
C620 C621 1.379 . S
C620 C625 1.392 . S
C621 C620 1.379 . S
C621 C622 1.404 . S
C621 H635 0.929 . S
C622 C621 1.404 . S
C622 C623 1.389 . S
C623 C622 1.389 . S
C623 C624 1.399 . S
C623 H636 0.931 . S
C624 C623 1.399 . S
C624 C625 1.390 . S
C625 C620 1.392 . S
C625 C624 1.390 . S
C625 H637 0.929 . S
O626 Tb610 2.326 . S
O626 C614 1.242 . S
O627 Eu611 2.324 . S
O627 C614 1.258 . S
O628 Tb610 2.500 . S
O628 C630 1.273 . S
O629 Tb610 2.473 . S
O629 C630 1.257 . S
C630 O628 1.273 . S
C630 O629 1.257 . S
O631 Eu611 2.326 . S
O631 C619 1.242 . S
O632 Tb610 2.324 . S
O632 C619 1.258 . S
O633 Eu611 2.500 . S
O633 C616 1.273 . S
O634 Eu611 2.473 . S
O634 C616 1.257 . S
H635 C621 0.929 . S
H636 C623 0.931 . S
H637 C625 0.929 . S
O638 Tb639 2.292 . S
O638 C641 1.255 . S
Tb639 O638 2.292 . S
Tb639 O655 2.326 . S
Tb639 O657 2.500 . S
Tb639 O658 2.473 . S
Tb639 O661 2.324 . S
Eu640 O644 2.292 . S
Eu640 C645 2.852 . S
Eu640 O656 2.324 . S
Eu640 O660 2.326 . S
Eu640 O662 2.500 . S
Eu640 O663 2.473 . S
C641 O638 1.255 . S
C641 O642 1.247 . S
O642 C641 1.247 . S
C643 O655 1.242 . S
C643 O656 1.258 . S
O644 Eu640 2.292 . S
O644 C646 1.255 . S
C645 Eu640 2.852 . S
C645 C649 1.503 . S
C645 O662 1.273 . S
C645 O663 1.257 . S
C646 O644 1.255 . S
C646 O647 1.247 . S
O647 C646 1.247 . S
C648 O660 1.242 . S
C648 O661 1.258 . S
C649 C645 1.503 . S
C649 C650 1.379 . S
C649 C654 1.392 . S
C650 C649 1.379 . S
C650 C651 1.404 . S
C650 H664 0.929 . S
C651 C650 1.404 . S
C651 C652 1.389 . S
C652 C651 1.389 . S
C652 C653 1.399 . S
C652 H665 0.931 . S
C653 C652 1.399 . S
C653 C654 1.390 . S
C654 C649 1.392 . S
C654 C653 1.390 . S
C654 H666 0.929 . S
O655 Tb639 2.326 . S
O655 C643 1.242 . S
O656 Eu640 2.324 . S
O656 C643 1.258 . S
O657 Tb639 2.500 . S
O657 C659 1.273 . S
O658 Tb639 2.473 . S
O658 C659 1.257 . S
C659 O657 1.273 . S
C659 O658 1.257 . S
O660 Eu640 2.326 . S
O660 C648 1.242 . S
O661 Tb639 2.324 . S
O661 C648 1.258 . S
O662 Eu640 2.500 . S
O662 C645 1.273 . S
O663 Eu640 2.473 . S
O663 C645 1.257 . S
H664 C650 0.929 . S
H665 C652 0.931 . S
H666 C654 0.929 . S
O667 Tb668 2.292 . S
O667 C670 1.255 . S
Tb668 O667 2.292 . S
Tb668 O684 2.326 . S
Tb668 O686 2.500 . S
Tb668 O687 2.473 . S
Tb668 O690 2.324 . S
Eu669 O673 2.292 . S
Eu669 C674 2.852 . S
Eu669 O685 2.324 . S
Eu669 O689 2.326 . S
Eu669 O691 2.500 . S
Eu669 O692 2.473 . S
C670 O667 1.255 . S
C670 O671 1.247 . S
O671 C670 1.247 . S
C672 O684 1.242 . S
C672 O685 1.258 . S
O673 Eu669 2.292 . S
O673 C675 1.255 . S
C674 Eu669 2.852 . S
C674 C678 1.503 . S
C674 O691 1.273 . S
C674 O692 1.257 . S
C675 O673 1.255 . S
C675 O676 1.247 . S
O676 C675 1.247 . S
C677 O689 1.242 . S
C677 O690 1.258 . S
C678 C674 1.503 . S
C678 C679 1.379 . S
C678 C683 1.392 . S
C679 C678 1.379 . S
C679 C680 1.404 . S
C679 H693 0.929 . S
C680 C679 1.404 . S
C680 C681 1.389 . S
C681 C680 1.389 . S
C681 C682 1.399 . S
C681 H694 0.931 . S
C682 C681 1.399 . S
C682 C683 1.390 . S
C683 C678 1.392 . S
C683 C682 1.390 . S
C683 H695 0.929 . S
O684 Tb668 2.326 . S
O684 C672 1.242 . S
O685 Eu669 2.324 . S
O685 C672 1.258 . S
O686 Tb668 2.500 . S
O686 C688 1.273 . S
O687 Tb668 2.473 . S
O687 C688 1.257 . S
C688 O686 1.273 . S
C688 O687 1.257 . S
O689 Eu669 2.326 . S
O689 C677 1.242 . S
O690 Tb668 2.324 . S
O690 C677 1.258 . S
O691 Eu669 2.500 . S
O691 C674 1.273 . S
O692 Eu669 2.473 . S
O692 C674 1.257 . S
H693 C679 0.929 . S
H694 C681 0.931 . S
H695 C683 0.929 . S
H696 C714 0.951 . S
H697 C716 0.951 . S
H698 C718 0.950 1_565 S
H699 C719 0.950 . S
H700 C721 0.950 . S
H701 C724 0.950 . S
H702 C725 0.950 1_545 S
H703 C727 0.950 . S
H704 C728 0.950 . S
H705 C729 0.951 . S
H706 C731 0.951 . S
H707 C733 0.950 . S
H708 C734 0.950 . S
H709 C736 0.950 . S
H710 C739 0.950 . S
H711 C740 0.950 . S
H712 C742 0.950 . S
H713 C743 0.950 . S
C714 H696 0.951 . S
C714 C715 1.366 . S
C714 C716 1.388 . S
C715 C714 1.366 . S
C715 C719 1.385 . S
C716 H697 0.951 . S
C716 C714 1.388 . S
C716 C717 1.366 1_545 S
C717 C716 1.366 1_565 S
C717 C718 1.414 1_565 S
C717 C720 1.499 . S
C718 H698 0.950 1_545 S
C718 C717 1.414 1_545 S
C718 C719 1.374 . S
C719 H699 0.950 . S
C719 C715 1.385 . S
C719 C718 1.374 . S
C720 C717 1.499 . S
C720 C721 1.373 . S
C720 C722 1.389 . S
C721 H700 0.950 . S
C721 C720 1.373 . S
C721 C737 1.377 . S
C722 C720 1.389 . S
C722 C723 1.524 . S
C722 C736 1.377 . S
C723 C722 1.524 . S
C723 C724 1.397 . S
C723 C728 1.363 . S
C724 H701 0.950 . S
C724 C723 1.397 . S
C724 C725 1.334 . S
C725 H702 0.950 1_565 S
C725 C724 1.334 . S
C725 C726 1.287 . S
C726 C725 1.287 . S
C726 C727 1.524 . S
C726 H745 0.913 1_565 S
C727 H703 0.950 . S
C727 C726 1.524 . S
C727 C728 1.415 . S
C728 H704 0.950 . S
C728 C723 1.363 . S
C728 C727 1.415 . S
C729 H705 0.951 . S
C729 C730 1.366 . S
C729 C731 1.388 . S
C730 C729 1.366 . S
C730 C734 1.385 . S
C731 H706 0.951 . S
C731 C729 1.388 . S
C731 C732 1.366 . S
C732 C731 1.366 . S
C732 C733 1.414 . S
C732 C735 1.499 . S
C733 H707 0.950 . S
C733 C732 1.414 . S
C733 C734 1.374 . S
C734 H708 0.950 . S
C734 C730 1.385 . S
C734 C733 1.374 . S
C735 C732 1.499 . S
C735 C736 1.373 . S
C735 C737 1.389 . S
C736 H709 0.950 . S
C736 C722 1.377 . S
C736 C735 1.373 . S
C737 C721 1.377 . S
C737 C735 1.389 . S
C737 C738 1.524 . S
C738 C737 1.524 . S
C738 C739 1.397 . S
C738 C743 1.363 . S
C739 H710 0.950 . S
C739 C738 1.397 . S
C739 C740 1.334 . S
C740 H711 0.950 . S
C740 C739 1.334 . S
C740 C741 1.287 . S
C741 C740 1.287 . S
C741 C742 1.524 . S
C741 H744 0.999 . S
C742 H712 0.950 . S
C742 C741 1.524 . S
C742 C743 1.415 . S
C743 H713 0.950 . S
C743 C738 1.363 . S
C743 C742 1.415 . S
H744 C741 0.999 . S
H745 C726 0.913 1_545 S
H746 C764 0.951 . S
H747 C766 0.951 . S
H748 C768 0.950 . S
H749 C769 0.950 . S
H750 C771 0.950 . S
H751 C774 0.950 . S
H752 C775 0.950 . S
H753 C777 0.950 . S
H754 C778 0.950 . S
H755 C779 0.951 . S
H756 C781 0.951 . S
H757 C783 0.950 . S
H758 C784 0.950 . S
H759 C786 0.950 . S
H760 C789 0.950 . S
H761 C790 0.950 . S
H762 C792 0.950 . S
H763 C793 0.950 . S
C764 H746 0.951 . S
C764 C765 1.366 . S
C764 C766 1.388 . S
C765 C764 1.366 . S
C765 C769 1.385 . S
C766 H747 0.951 . S
C766 C764 1.388 . S
C766 C767 1.366 . S
C767 C766 1.366 . S
C767 C768 1.414 . S
C767 C770 1.499 . S
C768 H748 0.950 . S
C768 C767 1.414 . S
C768 C769 1.374 . S
C769 H749 0.950 . S
C769 C765 1.385 . S
C769 C768 1.374 . S
C770 C767 1.499 . S
C770 C771 1.373 . S
C770 C772 1.389 . S
C771 H750 0.950 . S
C771 C770 1.373 . S
C771 C787 1.377 . S
C772 C770 1.389 . S
C772 C773 1.524 . S
C772 C786 1.377 . S
C773 C772 1.524 . S
C773 C774 1.397 . S
C773 C778 1.363 . S
C774 H751 0.950 . S
C774 C773 1.397 . S
C774 C775 1.334 . S
C775 H752 0.950 . S
C775 C774 1.334 . S
C775 C776 1.287 . S
C776 C775 1.287 . S
C776 C777 1.524 . S
C776 H795 0.913 . S
C777 H753 0.950 . S
C777 C776 1.524 . S
C777 C778 1.415 . S
C778 H754 0.950 . S
C778 C773 1.363 . S
C778 C777 1.415 . S
C779 H755 0.951 . S
C779 C780 1.366 . S
C779 C781 1.388 . S
C780 C779 1.366 . S
C780 C784 1.385 . S
C781 H756 0.951 . S
C781 C779 1.388 . S
C781 C782 1.366 . S
C782 C781 1.366 . S
C782 C783 1.414 . S
C782 C785 1.499 . S
C783 H757 0.950 . S
C783 C782 1.414 . S
C783 C784 1.374 . S
C784 H758 0.950 . S
C784 C780 1.385 . S
C784 C783 1.374 . S
C785 C782 1.499 . S
C785 C786 1.373 . S
C785 C787 1.389 . S
C786 H759 0.950 . S
C786 C772 1.377 . S
C786 C785 1.373 . S
C787 C771 1.377 . S
C787 C785 1.389 . S
C787 C788 1.524 . S
C788 C787 1.524 . S
C788 C789 1.397 . S
C788 C793 1.363 . S
C789 H760 0.950 . S
C789 C788 1.397 . S
C789 C790 1.334 . S
C790 H761 0.950 . S
C790 C789 1.334 . S
C790 C791 1.287 . S
C791 C790 1.287 . S
C791 C792 1.524 . S
C791 H794 0.999 . S
C792 H762 0.950 . S
C792 C791 1.524 . S
C792 C793 1.415 . S
C793 H763 0.950 . S
C793 C788 1.363 . S
C793 C792 1.415 . S
H794 C791 0.999 . S
H795 C776 0.913 . S
H796 C814 0.951 . S
H797 C816 0.951 1_455 S
H798 C818 0.939 1_455 S
H799 C819 0.950 . S
H800 C821 0.950 . S
H801 C824 0.950 . S
H802 C825 0.950 1_655 S
H803 C827 0.950 . S
H804 C828 0.950 . S
H805 C829 0.951 . S
H806 C831 0.951 . S
H807 C833 0.950 . S
H808 C834 0.950 . S
H809 C836 0.950 . S
H810 C839 0.950 . S
H811 C840 0.950 . S
H812 C842 0.950 . S
H813 C843 0.950 . S
C814 H796 0.951 . S
C814 C815 1.366 . S
C814 C816 1.388 . S
C815 C814 1.366 . S
C815 C819 1.385 . S
C816 H797 0.951 1_655 S
C816 C814 1.388 . S
C816 C817 1.366 1_655 S
C817 C816 1.366 1_455 S
C817 C818 1.414 1_455 S
C817 C820 1.499 . S
C818 H798 0.939 1_655 S
C818 C817 1.414 1_655 S
C818 C819 1.374 . S
C819 H799 0.950 . S
C819 C815 1.385 . S
C819 C818 1.374 . S
C820 C817 1.499 . S
C820 C821 1.373 . S
C820 C822 1.389 . S
C821 H800 0.950 . S
C821 C820 1.373 . S
C821 C837 1.377 . S
C822 C820 1.389 . S
C822 C823 1.524 . S
C822 C836 1.377 . S
C823 C822 1.524 . S
C823 C824 1.397 . S
C823 C828 1.363 . S
C824 H801 0.950 . S
C824 C823 1.397 . S
C824 C825 1.334 . S
C825 H802 0.950 1_455 S
C825 C824 1.334 . S
C825 C826 1.287 . S
C826 C825 1.287 . S
C826 C827 1.524 . S
C826 H845 0.913 . S
C827 H803 0.950 . S
C827 C826 1.524 . S
C827 C828 1.415 . S
C828 H804 0.950 . S
C828 C823 1.363 . S
C828 C827 1.415 . S
C829 H805 0.951 . S
C829 C830 1.366 . S
C829 C831 1.388 . S
C830 C829 1.366 . S
C830 C834 1.385 . S
C831 H806 0.951 . S
C831 C829 1.388 . S
C831 C832 1.366 . S
C832 C831 1.366 . S
C832 C833 1.414 . S
C832 C835 1.499 . S
C833 H807 0.950 . S
C833 C832 1.414 . S
C833 C834 1.374 . S
C834 H808 0.950 . S
C834 C830 1.385 . S
C834 C833 1.374 . S
C835 C832 1.499 . S
C835 C836 1.373 . S
C835 C837 1.389 . S
C836 H809 0.950 . S
C836 C822 1.377 . S
C836 C835 1.373 . S
C837 C821 1.377 . S
C837 C835 1.389 . S
C837 C838 1.524 . S
C838 C837 1.524 . S
C838 C839 1.397 . S
C838 C843 1.363 . S
C839 H810 0.950 . S
C839 C838 1.397 . S
C839 C840 1.334 . S
C840 H811 0.950 . S
C840 C839 1.334 . S
C840 C841 1.287 . S
C841 C840 1.287 . S
C841 C842 1.524 . S
C841 H844 0.999 . S
C842 H812 0.950 . S
C842 C841 1.524 . S
C842 C843 1.415 . S
C843 H813 0.950 . S
C843 C838 1.363 . S
C843 C842 1.415 . S
H844 C841 0.999 . S
H845 C826 0.913 . S
H846 C864 0.951 . S
H847 C866 0.951 . S
H848 C868 0.950 . S
H849 C869 0.950 . S
H850 C871 0.950 . S
H851 C874 0.950 . S
H852 C875 0.950 . S
H853 C877 0.950 . S
H854 C878 0.950 . S
H855 C879 0.951 . S
H856 C881 0.951 1_545 S
H857 C883 0.950 . S
H858 C884 0.950 . S
H859 C886 0.950 . S
H860 C889 0.950 . S
H861 C890 0.950 . S
H862 C892 0.950 . S
H863 C893 0.950 . S
C864 H846 0.951 . S
C864 C865 1.366 . S
C864 C866 1.388 . S
C865 C864 1.366 . S
C865 C869 1.385 . S
C866 H847 0.951 . S
C866 C864 1.388 . S
C866 C867 1.366 . S
C867 C866 1.366 . S
C867 C868 1.414 . S
C867 C870 1.499 . S
C868 H848 0.950 . S
C868 C867 1.414 . S
C868 C869 1.374 . S
C869 H849 0.950 . S
C869 C865 1.385 . S
C869 C868 1.374 . S
C870 C867 1.499 . S
C870 C871 1.373 . S
C870 C872 1.389 . S
C871 H850 0.950 . S
C871 C870 1.373 . S
C871 C887 1.377 . S
C872 C870 1.389 . S
C872 C873 1.524 . S
C872 C886 1.377 . S
C873 C872 1.524 . S
C873 C874 1.397 . S
C873 C878 1.363 . S
C874 H851 0.950 . S
C874 C873 1.397 . S
C874 C875 1.334 . S
C875 H852 0.950 . S
C875 C874 1.334 . S
C875 C876 1.287 . S
C876 C875 1.287 . S
C876 C877 1.524 . S
C876 H895 0.913 . S
C877 H853 0.950 . S
C877 C876 1.524 . S
C877 C878 1.415 . S
C878 H854 0.950 . S
C878 C873 1.363 . S
C878 C877 1.415 . S
C879 H855 0.951 . S
C879 C880 1.366 . S
C879 C881 1.388 . S
C880 C879 1.366 . S
C880 C884 1.385 . S
C881 H856 0.951 1_565 S
C881 C879 1.388 . S
C881 C882 1.366 1_565 S
C882 C881 1.366 1_545 S
C882 C883 1.414 1_545 S
C882 C885 1.499 . S
C883 H857 0.950 . S
C883 C882 1.414 1_565 S
C883 C884 1.374 . S
C884 H858 0.950 . S
C884 C880 1.385 . S
C884 C883 1.374 . S
C885 C882 1.499 . S
C885 C886 1.373 . S
C885 C887 1.389 . S
C886 H859 0.950 . S
C886 C872 1.377 . S
C886 C885 1.373 . S
C887 C871 1.377 . S
C887 C885 1.389 . S
C887 C888 1.524 . S
C888 C887 1.524 . S
C888 C889 1.397 . S
C888 C893 1.363 . S
C889 H860 0.950 . S
C889 C888 1.397 . S
C889 C890 1.334 . S
C890 H861 0.950 . S
C890 C889 1.334 . S
C890 C891 1.287 . S
C891 C890 1.287 . S
C891 C892 1.524 . S
C891 H894 0.999 . S
C892 H862 0.950 . S
C892 C891 1.524 . S
C892 C893 1.415 . S
C893 H863 0.950 . S
C893 C888 1.363 . S
C893 C892 1.415 . S
H894 C891 0.999 . S
H895 C876 0.913 . S
H896 C914 0.951 . S
H897 C916 0.951 . S
H898 C918 0.950 . S
H899 C919 0.950 . S
H900 C921 0.950 . S
H901 C924 0.950 . S
H902 C925 0.950 . S
H903 C927 0.950 . S
H904 C928 0.950 . S
H905 C929 0.951 . S
H906 C931 0.951 . S
H907 C933 0.950 . S
H908 C934 0.950 . S
H909 C936 0.950 . S
H910 C939 0.950 . S
H911 C940 0.950 . S
H912 C942 0.950 . S
H913 C943 0.950 . S
C914 H896 0.951 . S
C914 C915 1.366 . S
C914 C916 1.388 . S
C915 C914 1.366 . S
C915 C919 1.385 . S
C916 H897 0.951 . S
C916 C914 1.388 . S
C916 C917 1.366 . S
C917 C916 1.366 . S
C917 C918 1.414 . S
C917 C920 1.499 . S
C918 H898 0.950 . S
C918 C917 1.414 . S
C918 C919 1.374 . S
C919 H899 0.950 . S
C919 C915 1.385 . S
C919 C918 1.374 . S
C920 C917 1.499 . S
C920 C921 1.373 . S
C920 C922 1.389 . S
C921 H900 0.950 . S
C921 C920 1.373 . S
C921 C937 1.377 . S
C922 C920 1.389 . S
C922 C923 1.524 . S
C922 C936 1.377 . S
C923 C922 1.524 . S
C923 C924 1.397 . S
C923 C928 1.363 . S
C924 H901 0.950 . S
C924 C923 1.397 . S
C924 C925 1.334 . S
C925 H902 0.950 . S
C925 C924 1.334 . S
C925 C926 1.287 . S
C926 C925 1.287 . S
C926 C927 1.524 . S
C926 H945 0.913 . S
C927 H903 0.950 . S
C927 C926 1.524 . S
C927 C928 1.415 . S
C928 H904 0.950 . S
C928 C923 1.363 . S
C928 C927 1.415 . S
C929 H905 0.951 . S
C929 C930 1.366 . S
C929 C931 1.388 . S
C930 C929 1.366 . S
C930 C934 1.385 . S
C931 H906 0.951 . S
C931 C929 1.388 . S
C931 C932 1.366 . S
C932 C931 1.366 . S
C932 C933 1.414 . S
C932 C935 1.499 . S
C933 H907 0.950 . S
C933 C932 1.414 . S
C933 C934 1.374 . S
C934 H908 0.950 . S
C934 C930 1.385 . S
C934 C933 1.374 . S
C935 C932 1.499 . S
C935 C936 1.373 . S
C935 C937 1.389 . S
C936 H909 0.950 . S
C936 C922 1.377 . S
C936 C935 1.373 . S
C937 C921 1.377 . S
C937 C935 1.389 . S
C937 C938 1.524 . S
C938 C937 1.524 . S
C938 C939 1.397 . S
C938 C943 1.363 . S
C939 H910 0.950 . S
C939 C938 1.397 . S
C939 C940 1.334 . S
C940 H911 0.950 . S
C940 C939 1.334 . S
C940 C941 1.287 . S
C941 C940 1.287 . S
C941 C942 1.524 . S
C941 H944 0.999 . S
C942 H912 0.950 . S
C942 C941 1.524 . S
C942 C943 1.415 . S
C943 H913 0.950 . S
C943 C938 1.363 . S
C943 C942 1.415 . S
H944 C941 0.999 . S
H945 C926 0.913 . S
H946 C964 0.951 . S
H947 C966 0.951 1_655 S
H948 C968 0.950 . S
H949 C969 0.950 . S
H950 C971 0.950 . S
H951 C974 0.950 . S
H952 C975 0.950 . S
H953 C977 0.950 . S
H954 C978 0.950 . S
H955 C979 0.951 . S
H956 C981 0.951 . S
H957 C983 0.950 . S
H958 C984 0.950 . S
H959 C986 0.950 . S
H960 C989 0.950 . S
H961 C990 0.950 . S
H962 C992 0.950 . S
H963 C993 0.950 . S
C964 H946 0.951 . S
C964 C965 1.366 . S
C964 C966 1.388 . S
C965 C964 1.366 . S
C965 C969 1.385 . S
C966 H947 0.951 1_455 S
C966 C964 1.388 . S
C966 C967 1.366 1_455 S
C967 C966 1.366 1_655 S
C967 C968 1.414 1_655 S
C967 C970 1.499 . S
C968 H948 0.950 . S
C968 C967 1.414 1_455 S
C968 C969 1.374 . S
C969 H949 0.950 . S
C969 C965 1.385 . S
C969 C968 1.374 . S
C970 C967 1.499 . S
C970 C971 1.373 . S
C970 C972 1.389 . S
C971 H950 0.950 . S
C971 C970 1.373 . S
C971 C987 1.377 . S
C972 C970 1.389 . S
C972 C973 1.524 . S
C972 C986 1.377 . S
C973 C972 1.524 . S
C973 C974 1.397 . S
C973 C978 1.363 . S
C974 H951 0.950 . S
C974 C973 1.397 . S
C974 C975 1.334 . S
C975 H952 0.950 . S
C975 C974 1.334 . S
C975 C976 1.287 . S
C976 C975 1.287 . S
C976 C977 1.524 . S
C976 H995 0.913 . S
C977 H953 0.950 . S
C977 C976 1.524 . S
C977 C978 1.415 . S
C978 H954 0.950 . S
C978 C973 1.363 . S
C978 C977 1.415 . S
C979 H955 0.951 . S
C979 C980 1.366 . S
C979 C981 1.388 . S
C980 C979 1.366 . S
C980 C984 1.385 . S
C981 H956 0.951 . S
C981 C979 1.388 . S
C981 C982 1.366 . S
C982 C981 1.366 . S
C982 C983 1.414 . S
C982 C985 1.499 . S
C983 H957 0.950 . S
C983 C982 1.414 . S
C983 C984 1.374 . S
C984 H958 0.950 . S
C984 C980 1.385 . S
C984 C983 1.374 . S
C985 C982 1.499 . S
C985 C986 1.373 . S
C985 C987 1.389 . S
C986 H959 0.950 . S
C986 C972 1.377 . S
C986 C985 1.373 . S
C987 C971 1.377 . S
C987 C985 1.389 . S
C987 C988 1.524 . S
C988 C987 1.524 . S
C988 C989 1.397 . S
C988 C993 1.363 . S
C989 H960 0.950 . S
C989 C988 1.397 . S
C989 C990 1.334 . S
C990 H961 0.950 . S
C990 C989 1.334 . S
C990 C991 1.287 . S
C991 C990 1.287 . S
C991 C992 1.524 . S
C991 H994 0.999 . S
C992 H962 0.950 . S
C992 C991 1.524 . S
C992 C993 1.415 . S
C993 H963 0.950 . S
C993 C988 1.363 . S
C993 C992 1.415 . S
H994 C991 0.999 . S
H995 C976 0.913 . S
H996 C1014 0.951 . S
H997 C1016 0.951 . S
H998 C1018 0.950 . S
H999 C1019 0.950 . S
H1000 C1021 0.950 . S
H1001 C1024 0.950 . S
H1002 C1025 0.950 . S
H1003 C1027 0.950 . S
H1004 C1028 0.950 . S
H1005 C1029 0.951 . S
H1006 C1031 0.951 . S
H1007 C1033 0.950 1_455 S
H1008 C1034 0.950 . S
H1009 C1036 0.950 . S
H1010 C1039 0.950 . S
H1011 C1040 0.948 1_655 S
H1012 C1042 0.950 . S
H1013 C1043 0.950 . S
C1014 H996 0.951 . S
C1014 C1015 1.366 . S
C1014 C1016 1.388 . S
C1015 C1014 1.366 . S
C1015 C1019 1.385 . S
C1016 H997 0.951 . S
C1016 C1014 1.388 . S
C1016 C1017 1.366 . S
C1017 C1016 1.366 . S
C1017 C1018 1.414 . S
C1017 C1020 1.499 . S
C1018 H998 0.950 . S
C1018 C1017 1.414 . S
C1018 C1019 1.374 . S
C1019 H999 0.950 . S
C1019 C1015 1.385 . S
C1019 C1018 1.374 . S
C1020 C1017 1.499 . S
C1020 C1021 1.373 . S
C1020 C1022 1.389 . S
C1021 H1000 0.950 . S
C1021 C1020 1.373 . S
C1021 C1037 1.377 . S
C1022 C1020 1.389 . S
C1022 C1023 1.524 . S
C1022 C1036 1.377 . S
C1023 C1022 1.524 . S
C1023 C1024 1.397 . S
C1023 C1028 1.363 . S
C1024 H1001 0.950 . S
C1024 C1023 1.397 . S
C1024 C1025 1.334 . S
C1025 H1002 0.950 . S
C1025 C1024 1.334 . S
C1025 C1026 1.287 . S
C1026 C1025 1.287 . S
C1026 C1027 1.524 . S
C1026 H1045 0.913 . S
C1027 H1003 0.950 . S
C1027 C1026 1.524 . S
C1027 C1028 1.415 . S
C1028 H1004 0.950 . S
C1028 C1023 1.363 . S
C1028 C1027 1.415 . S
C1029 H1005 0.951 . S
C1029 C1030 1.366 . S
C1029 C1031 1.388 . S
C1030 C1029 1.366 . S
C1030 C1034 1.385 . S
C1031 H1006 0.951 . S
C1031 C1029 1.388 . S
C1031 C1032 1.366 1_655 S
C1032 C1031 1.366 1_455 S
C1032 C1033 1.414 1_455 S
C1032 C1035 1.499 . S
C1033 H1007 0.950 1_655 S
C1033 C1032 1.414 1_655 S
C1033 C1034 1.374 . S
C1034 H1008 0.950 . S
C1034 C1030 1.385 . S
C1034 C1033 1.374 . S
C1035 C1032 1.499 . S
C1035 C1036 1.373 . S
C1035 C1037 1.389 . S
C1036 H1009 0.950 . S
C1036 C1022 1.377 . S
C1036 C1035 1.373 . S
C1037 C1021 1.377 . S
C1037 C1035 1.389 . S
C1037 C1038 1.524 . S
C1038 C1037 1.524 . S
C1038 C1039 1.397 . S
C1038 C1043 1.363 . S
C1039 H1010 0.950 . S
C1039 C1038 1.397 . S
C1039 C1040 1.334 . S
C1040 H1011 0.948 1_455 S
C1040 C1039 1.334 . S
C1040 C1041 1.287 . S
C1041 C1040 1.287 . S
C1041 C1042 1.524 . S
C1041 H1044 0.999 . S
C1042 H1012 0.950 . S
C1042 C1041 1.524 . S
C1042 C1043 1.415 . S
C1043 H1013 0.950 . S
C1043 C1038 1.363 . S
C1043 C1042 1.415 . S
H1044 C1041 0.999 . S
H1045 C1026 0.913 . S
H1046 C1064 0.951 . S
H1047 C1066 0.951 . S
H1048 C1068 0.950 . S
H1049 C1069 0.950 . S
H1050 C1071 0.950 . S
H1051 C1074 0.950 . S
H1052 C1075 0.950 . S
H1053 C1077 0.950 . S
H1054 C1078 0.950 . S
H1055 C1079 0.951 . S
H1056 C1081 0.951 1_545 S
H1057 C1083 0.950 . S
H1058 C1084 0.950 . S
H1059 C1086 0.950 . S
H1060 C1089 0.950 . S
H1061 C1090 0.950 1_565 S
H1062 C1092 0.950 . S
H1063 C1093 0.950 . S
C1064 H1046 0.951 . S
C1064 C1065 1.366 . S
C1064 C1066 1.388 . S
C1065 C1064 1.366 . S
C1065 C1069 1.385 . S
C1066 H1047 0.951 . S
C1066 C1064 1.388 . S
C1066 C1067 1.366 . S
C1067 C1066 1.366 . S
C1067 C1068 1.414 . S
C1067 C1070 1.499 . S
C1068 H1048 0.950 . S
C1068 C1067 1.414 . S
C1068 C1069 1.374 . S
C1069 H1049 0.950 . S
C1069 C1065 1.385 . S
C1069 C1068 1.374 . S
C1070 C1067 1.499 . S
C1070 C1071 1.373 . S
C1070 C1072 1.389 . S
C1071 H1050 0.950 . S
C1071 C1070 1.373 . S
C1071 C1087 1.377 . S
C1072 C1070 1.389 . S
C1072 C1073 1.524 . S
C1072 C1086 1.377 . S
C1073 C1072 1.524 . S
C1073 C1074 1.397 . S
C1073 C1078 1.363 . S
C1074 H1051 0.950 . S
C1074 C1073 1.397 . S
C1074 C1075 1.334 . S
C1075 H1052 0.950 . S
C1075 C1074 1.334 . S
C1075 C1076 1.287 . S
C1076 C1075 1.287 . S
C1076 C1077 1.524 . S
C1076 H1095 0.913 . S
C1077 H1053 0.950 . S
C1077 C1076 1.524 . S
C1077 C1078 1.415 . S
C1078 H1054 0.950 . S
C1078 C1073 1.363 . S
C1078 C1077 1.415 . S
C1079 H1055 0.951 . S
C1079 C1080 1.366 . S
C1079 C1081 1.388 . S
C1080 C1079 1.366 . S
C1080 C1084 1.385 . S
C1081 H1056 0.951 1_565 S
C1081 C1079 1.388 . S
C1081 C1082 1.366 1_565 S
C1082 C1081 1.366 1_545 S
C1082 C1083 1.414 1_545 S
C1082 C1085 1.499 . S
C1083 H1057 0.950 . S
C1083 C1082 1.414 1_565 S
C1083 C1084 1.374 . S
C1084 H1058 0.950 . S
C1084 C1080 1.385 . S
C1084 C1083 1.374 . S
C1085 C1082 1.499 . S
C1085 C1086 1.373 . S
C1085 C1087 1.389 . S
C1086 H1059 0.950 . S
C1086 C1072 1.377 . S
C1086 C1085 1.373 . S
C1087 C1071 1.377 . S
C1087 C1085 1.389 . S
C1087 C1088 1.524 . S
C1088 C1087 1.524 . S
C1088 C1089 1.397 . S
C1088 C1093 1.363 . S
C1089 H1060 0.950 . S
C1089 C1088 1.397 . S
C1089 C1090 1.334 . S
C1090 H1061 0.950 1_545 S
C1090 C1089 1.334 . S
C1090 C1091 1.287 . S
C1091 C1090 1.287 . S
C1091 C1092 1.524 . S
C1091 H1094 0.999 . S
C1092 H1062 0.950 . S
C1092 C1091 1.524 . S
C1092 C1093 1.415 . S
C1093 H1063 0.950 . S
C1093 C1088 1.363 . S
C1093 C1092 1.415 . S
H1094 C1091 0.999 . S
H1095 C1076 0.913 . S
H1096 C1114 0.951 . S
H1097 C1116 0.951 . S
H1098 C1118 0.950 . S
H1099 C1119 0.950 . S
H1100 C1121 0.950 . S
H1101 C1124 0.950 . S
H1102 C1125 0.950 . S
H1103 C1127 0.950 . S
H1104 C1128 0.950 . S
H1105 C1129 0.951 . S
H1106 C1131 0.951 . S
H1107 C1133 0.950 . S
H1108 C1134 0.950 . S
H1109 C1136 0.950 . S
H1110 C1139 0.950 . S
H1111 C1140 0.950 . S
H1112 C1142 0.950 . S
H1113 C1143 0.950 . S
C1114 H1096 0.951 . S
C1114 C1115 1.366 . S
C1114 C1116 1.388 . S
C1115 C1114 1.366 . S
C1115 C1119 1.385 . S
C1116 H1097 0.951 . S
C1116 C1114 1.388 . S
C1116 C1117 1.366 . S
C1117 C1116 1.366 . S
C1117 C1118 1.414 . S
C1117 C1120 1.499 . S
C1118 H1098 0.950 . S
C1118 C1117 1.414 . S
C1118 C1119 1.374 . S
C1119 H1099 0.950 . S
C1119 C1115 1.385 . S
C1119 C1118 1.374 . S
C1120 C1117 1.499 . S
C1120 C1121 1.373 . S
C1120 C1122 1.389 . S
C1121 H1100 0.950 . S
C1121 C1120 1.373 . S
C1121 C1137 1.377 . S
C1122 C1120 1.389 . S
C1122 C1123 1.524 . S
C1122 C1136 1.377 . S
C1123 C1122 1.524 . S
C1123 C1124 1.397 . S
C1123 C1128 1.363 . S
C1124 H1101 0.950 . S
C1124 C1123 1.397 . S
C1124 C1125 1.334 . S
C1125 H1102 0.950 . S
C1125 C1124 1.334 . S
C1125 C1126 1.287 . S
C1126 C1125 1.287 . S
C1126 C1127 1.524 . S
C1126 H1145 0.913 . S
C1127 H1103 0.950 . S
C1127 C1126 1.524 . S
C1127 C1128 1.415 . S
C1128 H1104 0.950 . S
C1128 C1123 1.363 . S
C1128 C1127 1.415 . S
C1129 H1105 0.951 . S
C1129 C1130 1.366 . S
C1129 C1131 1.388 . S
C1130 C1129 1.366 . S
C1130 C1134 1.385 . S
C1131 H1106 0.951 . S
C1131 C1129 1.388 . S
C1131 C1132 1.366 . S
C1132 C1131 1.366 . S
C1132 C1133 1.414 . S
C1132 C1135 1.499 . S
C1133 H1107 0.950 . S
C1133 C1132 1.414 . S
C1133 C1134 1.374 . S
C1134 H1108 0.950 . S
C1134 C1130 1.385 . S
C1134 C1133 1.374 . S
C1135 C1132 1.499 . S
C1135 C1136 1.373 . S
C1135 C1137 1.389 . S
C1136 H1109 0.950 . S
C1136 C1122 1.377 . S
C1136 C1135 1.373 . S
C1137 C1121 1.377 . S
C1137 C1135 1.389 . S
C1137 C1138 1.524 . S
C1138 C1137 1.524 . S
C1138 C1139 1.397 . S
C1138 C1143 1.363 . S
C1139 H1110 0.950 . S
C1139 C1138 1.397 . S
C1139 C1140 1.334 . S
C1140 H1111 0.950 . S
C1140 C1139 1.334 . S
C1140 C1141 1.287 . S
C1141 C1140 1.287 . S
C1141 C1142 1.524 . S
C1141 H1144 0.999 . S
C1142 H1112 0.950 . S
C1142 C1141 1.524 . S
C1142 C1143 1.415 . S
C1143 H1113 0.950 . S
C1143 C1138 1.363 . S
C1143 C1142 1.415 . S
H1144 C1141 0.999 . S
H1145 C1126 0.913 . S
H1146 C1164 0.951 . S
H1147 C1166 0.949 . S
H1148 C1168 0.950 1_655 S
H1149 C1169 0.950 . S
H1150 C1171 0.950 . S
H1151 C1174 0.950 . S
H1152 C1175 0.950 1_455 S
H1153 C1177 0.950 . S
H1154 C1178 0.950 . S
H1155 C1179 0.951 . S
H1156 C1181 0.951 . S
H1157 C1183 0.950 . S
H1158 C1184 0.950 . S
H1159 C1186 0.950 . S
H1160 C1189 0.950 . S
H1161 C1190 0.950 . S
H1162 C1192 0.950 . S
H1163 C1193 0.950 . S
C1164 H1146 0.951 . S
C1164 C1165 1.366 . S
C1164 C1166 1.388 . S
C1165 C1164 1.366 . S
C1165 C1169 1.385 . S
C1166 H1147 0.949 . S
C1166 C1164 1.388 . S
C1166 C1167 1.366 1_455 S
C1167 C1166 1.366 1_655 S
C1167 C1168 1.414 1_655 S
C1167 C1170 1.499 . S
C1168 H1148 0.950 1_455 S
C1168 C1167 1.414 1_455 S
C1168 C1169 1.374 . S
C1169 H1149 0.950 . S
C1169 C1165 1.385 . S
C1169 C1168 1.374 . S
C1170 C1167 1.499 . S
C1170 C1171 1.373 . S
C1170 C1172 1.389 . S
C1171 H1150 0.950 . S
C1171 C1170 1.373 . S
C1171 C1187 1.377 . S
C1172 C1170 1.389 . S
C1172 C1173 1.524 . S
C1172 C1186 1.377 . S
C1173 C1172 1.524 . S
C1173 C1174 1.397 . S
C1173 C1178 1.363 . S
C1174 H1151 0.950 . S
C1174 C1173 1.397 . S
C1174 C1175 1.335 . S
C1175 H1152 0.950 1_655 S
C1175 C1174 1.335 . S
C1175 C1176 1.286 . S
C1176 C1175 1.286 . S
C1176 C1177 1.524 . S
C1176 H1195 0.913 1_655 S
C1177 H1153 0.950 . S
C1177 C1176 1.524 . S
C1177 C1178 1.415 . S
C1178 H1154 0.950 . S
C1178 C1173 1.363 . S
C1178 C1177 1.415 . S
C1179 H1155 0.951 . S
C1179 C1180 1.366 . S
C1179 C1181 1.388 . S
C1180 C1179 1.366 . S
C1180 C1184 1.385 . S
C1181 H1156 0.951 . S
C1181 C1179 1.388 . S
C1181 C1182 1.366 . S
C1182 C1181 1.366 . S
C1182 C1183 1.414 . S
C1182 C1185 1.499 . S
C1183 H1157 0.950 . S
C1183 C1182 1.414 . S
C1183 C1184 1.374 . S
C1184 H1158 0.950 . S
C1184 C1180 1.385 . S
C1184 C1183 1.374 . S
C1185 C1182 1.499 . S
C1185 C1186 1.373 . S
C1185 C1187 1.389 . S
C1186 H1159 0.950 . S
C1186 C1172 1.377 . S
C1186 C1185 1.373 . S
C1187 C1171 1.377 . S
C1187 C1185 1.389 . S
C1187 C1188 1.524 . S
C1188 C1187 1.524 . S
C1188 C1189 1.397 . S
C1188 C1193 1.363 . S
C1189 H1160 0.950 . S
C1189 C1188 1.397 . S
C1189 C1190 1.334 . S
C1190 H1161 0.950 . S
C1190 C1189 1.334 . S
C1190 C1191 1.287 . S
C1191 C1190 1.287 . S
C1191 C1192 1.524 . S
C1191 H1194 0.999 . S
C1192 H1162 0.950 . S
C1192 C1191 1.524 . S
C1192 C1193 1.415 . S
C1193 H1163 0.950 . S
C1193 C1188 1.363 . S
C1193 C1192 1.415 . S
H1194 C1191 0.999 . S
H1195 C1176 0.913 1_455 S
H1196 C1214 0.951 . S
H1197 C1216 0.951 . S
H1198 C1218 0.950 . S
H1199 C1219 0.950 . S
H1200 C1221 0.950 . S
H1201 C1224 0.950 . S
H1202 C1225 0.950 . S
H1203 C1227 0.950 . S
H1204 C1228 0.950 . S
H1205 C1229 0.951 . S
H1206 C1231 0.951 . S
H1207 C1233 0.950 1_565 S
H1208 C1234 0.950 . S
H1209 C1236 0.950 . S
H1210 C1239 0.950 . S
H1211 C1240 0.950 1_545 S
H1212 C1242 0.950 . S
H1213 C1243 0.950 . S
C1214 H1196 0.951 . S
C1214 C1215 1.366 . S
C1214 C1216 1.388 . S
C1215 C1214 1.366 . S
C1215 C1219 1.385 . S
C1216 H1197 0.951 . S
C1216 C1214 1.388 . S
C1216 C1217 1.366 . S
C1217 C1216 1.366 . S
C1217 C1218 1.414 . S
C1217 C1220 1.499 . S
C1218 H1198 0.950 . S
C1218 C1217 1.414 . S
C1218 C1219 1.374 . S
C1219 H1199 0.950 . S
C1219 C1215 1.385 . S
C1219 C1218 1.374 . S
C1220 C1217 1.499 . S
C1220 C1221 1.373 . S
C1220 C1222 1.389 . S
C1221 H1200 0.950 . S
C1221 C1220 1.373 . S
C1221 C1237 1.377 . S
C1222 C1220 1.389 . S
C1222 C1223 1.524 . S
C1222 C1236 1.377 . S
C1223 C1222 1.524 . S
C1223 C1224 1.397 . S
C1223 C1228 1.363 . S
C1224 H1201 0.950 . S
C1224 C1223 1.397 . S
C1224 C1225 1.334 . S
C1225 H1202 0.950 . S
C1225 C1224 1.334 . S
C1225 C1226 1.287 . S
C1226 C1225 1.287 . S
C1226 C1227 1.524 . S
C1226 H1245 0.913 . S
C1227 H1203 0.950 . S
C1227 C1226 1.524 . S
C1227 C1228 1.415 . S
C1228 H1204 0.950 . S
C1228 C1223 1.363 . S
C1228 C1227 1.415 . S
C1229 H1205 0.951 . S
C1229 C1230 1.366 . S
C1229 C1231 1.388 . S
C1230 C1229 1.366 . S
C1230 C1234 1.385 . S
C1231 H1206 0.951 . S
C1231 C1229 1.388 . S
C1231 C1232 1.366 1_545 S
C1232 C1231 1.366 1_565 S
C1232 C1233 1.414 1_565 S
C1232 C1235 1.499 . S
C1233 H1207 0.950 1_545 S
C1233 C1232 1.414 1_545 S
C1233 C1234 1.374 . S
C1234 H1208 0.950 . S
C1234 C1230 1.385 . S
C1234 C1233 1.374 . S
C1235 C1232 1.499 . S
C1235 C1236 1.373 . S
C1235 C1237 1.389 . S
C1236 H1209 0.950 . S
C1236 C1222 1.377 . S
C1236 C1235 1.373 . S
C1237 C1221 1.377 . S
C1237 C1235 1.389 . S
C1237 C1238 1.524 . S
C1238 C1237 1.524 . S
C1238 C1239 1.397 . S
C1238 C1243 1.363 . S
C1239 H1210 0.950 . S
C1239 C1238 1.397 . S
C1239 C1240 1.334 . S
C1240 H1211 0.950 1_565 S
C1240 C1239 1.334 . S
C1240 C1241 1.287 . S
C1241 C1240 1.287 . S
C1241 C1242 1.524 . S
C1241 H1244 0.999 . S
C1242 H1212 0.950 . S
C1242 C1241 1.524 . S
C1242 C1243 1.415 . S
C1243 H1213 0.950 . S
C1243 C1238 1.363 . S
C1243 C1242 1.415 . S
H1244 C1241 0.999 . S
H1245 C1226 0.913 . S
H1246 C1264 0.951 . S
H1247 C1266 0.951 . S
H1248 C1268 0.950 . S
H1249 C1269 0.950 . S
H1250 C1271 0.950 . S
H1251 C1274 0.950 . S
H1252 C1275 0.950 . S
H1253 C1277 0.950 . S
H1254 C1278 0.950 . S
H1255 C1279 0.951 . S
H1256 C1281 0.951 . S
H1257 C1283 0.950 . S
H1258 C1284 0.950 . S
H1259 C1286 0.950 . S
H1260 C1289 0.950 . S
H1261 C1290 0.950 . S
H1262 C1292 0.950 . S
H1263 C1293 0.950 . S
C1264 H1246 0.951 . S
C1264 C1265 1.366 . S
C1264 C1266 1.388 . S
C1265 C1264 1.366 . S
C1265 C1269 1.385 . S
C1266 H1247 0.951 . S
C1266 C1264 1.388 . S
C1266 C1267 1.366 . S
C1267 C1266 1.366 . S
C1267 C1268 1.414 . S
C1267 C1270 1.499 . S
C1268 H1248 0.950 . S
C1268 C1267 1.414 . S
C1268 C1269 1.374 . S
C1269 H1249 0.950 . S
C1269 C1265 1.385 . S
C1269 C1268 1.374 . S
C1270 C1267 1.499 . S
C1270 C1271 1.373 . S
C1270 C1272 1.389 . S
C1271 H1250 0.950 . S
C1271 C1270 1.373 . S
C1271 C1287 1.377 . S
C1272 C1270 1.389 . S
C1272 C1273 1.524 . S
C1272 C1286 1.377 . S
C1273 C1272 1.524 . S
C1273 C1274 1.397 . S
C1273 C1278 1.363 . S
C1274 H1251 0.950 . S
C1274 C1273 1.397 . S
C1274 C1275 1.334 . S
C1275 H1252 0.950 . S
C1275 C1274 1.334 . S
C1275 C1276 1.287 . S
C1276 C1275 1.287 . S
C1276 C1277 1.524 . S
C1276 H1295 0.913 . S
C1277 H1253 0.950 . S
C1277 C1276 1.524 . S
C1277 C1278 1.415 . S
C1278 H1254 0.950 . S
C1278 C1273 1.363 . S
C1278 C1277 1.415 . S
C1279 H1255 0.951 . S
C1279 C1280 1.366 . S
C1279 C1281 1.388 . S
C1280 C1279 1.366 . S
C1280 C1284 1.385 . S
C1281 H1256 0.951 . S
C1281 C1279 1.388 . S
C1281 C1282 1.366 . S
C1282 C1281 1.366 . S
C1282 C1283 1.414 . S
C1282 C1285 1.499 . S
C1283 H1257 0.950 . S
C1283 C1282 1.414 . S
C1283 C1284 1.374 . S
C1284 H1258 0.950 . S
C1284 C1280 1.385 . S
C1284 C1283 1.374 . S
C1285 C1282 1.499 . S
C1285 C1286 1.373 . S
C1285 C1287 1.389 . S
C1286 H1259 0.950 . S
C1286 C1272 1.377 . S
C1286 C1285 1.373 . S
C1287 C1271 1.377 . S
C1287 C1285 1.389 . S
C1287 C1288 1.524 . S
C1288 C1287 1.524 . S
C1288 C1289 1.397 . S
C1288 C1293 1.363 . S
C1289 H1260 0.950 . S
C1289 C1288 1.397 . S
C1289 C1290 1.334 . S
C1290 H1261 0.950 . S
C1290 C1289 1.334 . S
C1290 C1291 1.287 . S
C1291 C1290 1.287 . S
C1291 C1292 1.524 . S
C1291 H1294 0.999 . S
C1292 H1262 0.950 . S
C1292 C1291 1.524 . S
C1292 C1293 1.415 . S
C1293 H1263 0.950 . S
C1293 C1288 1.363 . S
C1293 C1292 1.415 . S
H1294 C1291 0.999 . S
H1295 C1276 0.913 . S
H1296 C1314 0.951 . S
H1297 C1316 0.951 . S
H1298 C1318 0.950 . S
H1299 C1319 0.950 . S
H1300 C1321 0.950 . S
H1301 C1324 0.950 . S
H1302 C1325 0.950 . S
H1303 C1327 0.950 . S
H1304 C1328 0.950 . S
H1305 C1329 0.951 . S
H1306 C1331 0.951 1_545 S
H1307 C1333 0.950 1_545 S
H1308 C1334 0.950 . S
H1309 C1336 0.950 . S
H1310 C1339 0.950 . S
H1311 C1340 0.950 . S
H1312 C1342 0.950 . S
H1313 C1343 0.950 . S
C1314 H1296 0.951 . S
C1314 C1315 1.366 . S
C1314 C1316 1.388 . S
C1315 C1314 1.366 . S
C1315 C1319 1.385 . S
C1316 H1297 0.951 . S
C1316 C1314 1.388 . S
C1316 C1317 1.366 . S
C1317 C1316 1.366 . S
C1317 C1318 1.414 . S
C1317 C1320 1.499 . S
C1318 H1298 0.950 . S
C1318 C1317 1.414 . S
C1318 C1319 1.374 . S
C1319 H1299 0.950 . S
C1319 C1315 1.385 . S
C1319 C1318 1.374 . S
C1320 C1317 1.499 . S
C1320 C1321 1.373 . S
C1320 C1322 1.389 . S
C1321 H1300 0.950 . S
C1321 C1320 1.373 . S
C1321 C1337 1.377 . S
C1322 C1320 1.389 . S
C1322 C1323 1.524 . S
C1322 C1336 1.377 . S
C1323 C1322 1.524 . S
C1323 C1324 1.397 . S
C1323 C1328 1.363 . S
C1324 H1301 0.950 . S
C1324 C1323 1.397 . S
C1324 C1325 1.334 . S
C1325 H1302 0.950 . S
C1325 C1324 1.334 . S
C1325 C1326 1.287 . S
C1326 C1325 1.287 . S
C1326 C1327 1.524 . S
C1326 H1345 0.913 . S
C1327 H1303 0.950 . S
C1327 C1326 1.524 . S
C1327 C1328 1.415 . S
C1328 H1304 0.950 . S
C1328 C1323 1.363 . S
C1328 C1327 1.415 . S
C1329 H1305 0.951 . S
C1329 C1330 1.366 . S
C1329 C1331 1.388 . S
C1330 C1329 1.366 . S
C1330 C1334 1.385 . S
C1331 H1306 0.951 1_565 S
C1331 C1329 1.388 . S
C1331 C1332 1.366 1_565 S
C1332 C1331 1.366 1_545 S
C1332 C1333 1.414 1_545 S
C1332 C1335 1.499 . S
C1333 H1307 0.950 1_565 S
C1333 C1332 1.414 1_565 S
C1333 C1334 1.374 . S
C1334 H1308 0.950 . S
C1334 C1330 1.385 . S
C1334 C1333 1.374 . S
C1335 C1332 1.499 . S
C1335 C1336 1.373 . S
C1335 C1337 1.389 . S
C1336 H1309 0.950 . S
C1336 C1322 1.377 . S
C1336 C1335 1.373 . S
C1337 C1321 1.377 . S
C1337 C1335 1.389 . S
C1337 C1338 1.524 . S
C1338 C1337 1.524 . S
C1338 C1339 1.397 . S
C1338 C1343 1.363 . S
C1339 H1310 0.950 . S
C1339 C1338 1.397 . S
C1339 C1340 1.334 . S
C1340 H1311 0.950 . S
C1340 C1339 1.334 . S
C1340 C1341 1.287 . S
C1341 C1340 1.287 . S
C1341 C1342 1.524 . S
C1341 H1344 0.999 . S
C1342 H1312 0.950 . S
C1342 C1341 1.524 . S
C1342 C1343 1.415 . S
C1343 H1313 0.950 . S
C1343 C1338 1.363 . S
C1343 C1342 1.415 . S
H1344 C1341 0.999 . S
H1345 C1326 0.913 . S
H1346 C1364 0.951 . S
H1347 C1366 0.951 . S
H1348 C1368 0.950 . S
H1349 C1369 0.950 . S
H1350 C1371 0.950 . S
H1351 C1374 0.950 . S
H1352 C1375 0.950 . S
H1353 C1377 0.950 . S
H1354 C1378 0.950 . S
H1355 C1379 0.951 . S
H1356 C1381 0.951 . S
H1357 C1383 0.950 . S
H1358 C1384 0.950 . S
H1359 C1386 0.950 . S
H1360 C1389 0.950 . S
H1361 C1390 0.950 . S
H1362 C1392 0.950 . S
H1363 C1393 0.950 . S
C1364 H1346 0.951 . S
C1364 C1365 1.366 . S
C1364 C1366 1.388 . S
C1365 C1364 1.366 . S
C1365 C1369 1.385 . S
C1366 H1347 0.951 . S
C1366 C1364 1.388 . S
C1366 C1367 1.366 . S
C1367 C1366 1.366 . S
C1367 C1368 1.414 . S
C1367 C1370 1.499 . S
C1368 H1348 0.950 . S
C1368 C1367 1.414 . S
C1368 C1369 1.374 . S
C1369 H1349 0.950 . S
C1369 C1365 1.385 . S
C1369 C1368 1.374 . S
C1370 C1367 1.499 . S
C1370 C1371 1.373 . S
C1370 C1372 1.389 . S
C1371 H1350 0.950 . S
C1371 C1370 1.373 . S
C1371 C1387 1.377 . S
C1372 C1370 1.389 . S
C1372 C1373 1.524 . S
C1372 C1386 1.377 . S
C1373 C1372 1.524 . S
C1373 C1374 1.397 . S
C1373 C1378 1.363 . S
C1374 H1351 0.950 . S
C1374 C1373 1.397 . S
C1374 C1375 1.334 . S
C1375 H1352 0.950 . S
C1375 C1374 1.334 . S
C1375 C1376 1.287 . S
C1376 C1375 1.287 . S
C1376 C1377 1.524 . S
C1376 H1395 0.913 . S
C1377 H1353 0.950 . S
C1377 C1376 1.524 . S
C1377 C1378 1.415 . S
C1378 H1354 0.950 . S
C1378 C1373 1.363 . S
C1378 C1377 1.415 . S
C1379 H1355 0.951 . S
C1379 C1380 1.366 . S
C1379 C1381 1.388 . S
C1380 C1379 1.366 . S
C1380 C1384 1.385 . S
C1381 H1356 0.951 . S
C1381 C1379 1.388 . S
C1381 C1382 1.366 . S
C1382 C1381 1.366 . S
C1382 C1383 1.414 . S
C1382 C1385 1.499 . S
C1383 H1357 0.950 . S
C1383 C1382 1.414 . S
C1383 C1384 1.374 . S
C1384 H1358 0.950 . S
C1384 C1380 1.385 . S
C1384 C1383 1.374 . S
C1385 C1382 1.499 . S
C1385 C1386 1.373 . S
C1385 C1387 1.389 . S
C1386 H1359 0.950 . S
C1386 C1372 1.377 . S
C1386 C1385 1.373 . S
C1387 C1371 1.377 . S
C1387 C1385 1.389 . S
C1387 C1388 1.524 . S
C1388 C1387 1.524 . S
C1388 C1389 1.397 . S
C1388 C1393 1.363 . S
C1389 H1360 0.950 . S
C1389 C1388 1.397 . S
C1389 C1390 1.334 . S
C1390 H1361 0.950 . S
C1390 C1389 1.334 . S
C1390 C1391 1.287 . S
C1391 C1390 1.287 . S
C1391 C1392 1.524 . S
C1391 H1394 0.999 . S
C1392 H1362 0.950 . S
C1392 C1391 1.524 . S
C1392 C1393 1.415 . S
C1393 H1363 0.950 . S
C1393 C1388 1.363 . S
C1393 C1392 1.415 . S
H1394 C1391 0.999 . S
H1395 C1376 0.913 . S
H1396 C1414 0.951 . S
H1397 C1416 0.951 . S
H1398 C1418 0.950 1_655 S
H1399 C1419 0.950 . S
H1400 C1421 0.950 . S
H1401 C1424 0.950 . S
H1402 C1425 0.950 . S
H1403 C1427 0.950 . S
H1404 C1428 0.950 . S
H1405 C1429 0.951 . S
H1406 C1431 0.951 . S
H1407 C1433 0.950 . S
H1408 C1434 0.950 . S
H1409 C1436 0.950 . S
H1410 C1439 0.950 . S
H1411 C1440 0.950 . S
H1412 C1442 0.950 . S
H1413 C1443 0.950 . S
C1414 H1396 0.951 . S
C1414 C1415 1.366 . S
C1414 C1416 1.388 . S
C1415 C1414 1.366 . S
C1415 C1419 1.385 . S
C1416 H1397 0.951 . S
C1416 C1414 1.388 . S
C1416 C1417 1.366 1_455 S
C1417 C1416 1.366 1_655 S
C1417 C1418 1.414 1_655 S
C1417 C1420 1.499 . S
C1418 H1398 0.950 1_455 S
C1418 C1417 1.414 1_455 S
C1418 C1419 1.374 . S
C1419 H1399 0.950 . S
C1419 C1415 1.385 . S
C1419 C1418 1.374 . S
C1420 C1417 1.499 . S
C1420 C1421 1.373 . S
C1420 C1422 1.389 . S
C1421 H1400 0.950 . S
C1421 C1420 1.373 . S
C1421 C1437 1.377 . S
C1422 C1420 1.389 . S
C1422 C1423 1.524 . S
C1422 C1436 1.377 . S
C1423 C1422 1.524 . S
C1423 C1424 1.397 . S
C1423 C1428 1.363 . S
C1424 H1401 0.950 . S
C1424 C1423 1.397 . S
C1424 C1425 1.334 . S
C1425 H1402 0.950 . S
C1425 C1424 1.334 . S
C1425 C1426 1.287 . S
C1426 C1425 1.287 . S
C1426 C1427 1.524 . S
C1426 H1445 0.913 . S
C1427 H1403 0.950 . S
C1427 C1426 1.524 . S
C1427 C1428 1.415 . S
C1428 H1404 0.950 . S
C1428 C1423 1.363 . S
C1428 C1427 1.415 . S
C1429 H1405 0.951 . S
C1429 C1430 1.366 . S
C1429 C1431 1.388 . S
C1430 C1429 1.366 . S
C1430 C1434 1.385 . S
C1431 H1406 0.951 . S
C1431 C1429 1.388 . S
C1431 C1432 1.366 . S
C1432 C1431 1.366 . S
C1432 C1433 1.414 . S
C1432 C1435 1.499 . S
C1433 H1407 0.950 . S
C1433 C1432 1.414 . S
C1433 C1434 1.374 . S
C1434 H1408 0.950 . S
C1434 C1430 1.385 . S
C1434 C1433 1.374 . S
C1435 C1432 1.499 . S
C1435 C1436 1.373 . S
C1435 C1437 1.389 . S
C1436 H1409 0.950 . S
C1436 C1422 1.377 . S
C1436 C1435 1.373 . S
C1437 C1421 1.377 . S
C1437 C1435 1.389 . S
C1437 C1438 1.524 . S
C1438 C1437 1.524 . S
C1438 C1439 1.397 . S
C1438 C1443 1.363 . S
C1439 H1410 0.950 . S
C1439 C1438 1.397 . S
C1439 C1440 1.334 . S
C1440 H1411 0.950 . S
C1440 C1439 1.334 . S
C1440 C1441 1.287 . S
C1441 C1440 1.287 . S
C1441 C1442 1.524 . S
C1441 H1444 0.999 . S
C1442 H1412 0.950 . S
C1442 C1441 1.524 . S
C1442 C1443 1.415 . S
C1443 H1413 0.950 . S
C1443 C1438 1.363 . S
C1443 C1442 1.415 . S
H1444 C1441 0.999 . S
H1445 C1426 0.913 . S
H1446 C1464 0.951 . S
H1447 C1466 0.951 . S
H1448 C1468 0.950 1_565 S
H1449 C1469 0.950 . S
H1450 C1471 0.950 . S
H1451 C1474 0.950 . S
H1452 C1475 0.950 . S
H1453 C1477 0.950 . S
H1454 C1478 0.950 . S
H1455 C1479 0.951 . S
H1456 C1481 0.951 . S
H1457 C1483 0.950 . S
H1458 C1484 0.950 . S
H1459 C1486 0.950 . S
H1460 C1489 0.950 . S
H1461 C1490 0.950 . S
H1462 C1492 0.950 . S
H1463 C1493 0.950 . S
C1464 H1446 0.951 . S
C1464 C1465 1.366 . S
C1464 C1466 1.388 . S
C1465 C1464 1.366 . S
C1465 C1469 1.385 . S
C1466 H1447 0.951 . S
C1466 C1464 1.388 . S
C1466 C1467 1.366 1_545 S
C1467 C1466 1.366 1_565 S
C1467 C1468 1.414 1_565 S
C1467 C1470 1.499 . S
C1468 H1448 0.950 1_545 S
C1468 C1467 1.414 1_545 S
C1468 C1469 1.374 . S
C1469 H1449 0.950 . S
C1469 C1465 1.385 . S
C1469 C1468 1.374 . S
C1470 C1467 1.499 . S
C1470 C1471 1.373 . S
C1470 C1472 1.389 . S
C1471 H1450 0.950 . S
C1471 C1470 1.373 . S
C1471 C1487 1.377 . S
C1472 C1470 1.389 . S
C1472 C1473 1.524 . S
C1472 C1486 1.377 . S
C1473 C1472 1.524 . S
C1473 C1474 1.397 . S
C1473 C1478 1.363 . S
C1474 H1451 0.950 . S
C1474 C1473 1.397 . S
C1474 C1475 1.334 . S
C1475 H1452 0.950 . S
C1475 C1474 1.334 . S
C1475 C1476 1.287 . S
C1476 C1475 1.287 . S
C1476 C1477 1.524 . S
C1476 H1495 0.913 . S
C1477 H1453 0.950 . S
C1477 C1476 1.524 . S
C1477 C1478 1.415 . S
C1478 H1454 0.950 . S
C1478 C1473 1.363 . S
C1478 C1477 1.415 . S
C1479 H1455 0.951 . S
C1479 C1480 1.366 . S
C1479 C1481 1.388 . S
C1480 C1479 1.366 . S
C1480 C1484 1.385 . S
C1481 H1456 0.951 . S
C1481 C1479 1.388 . S
C1481 C1482 1.366 . S
C1482 C1481 1.366 . S
C1482 C1483 1.414 . S
C1482 C1485 1.499 . S
C1483 H1457 0.950 . S
C1483 C1482 1.414 . S
C1483 C1484 1.374 . S
C1484 H1458 0.950 . S
C1484 C1480 1.385 . S
C1484 C1483 1.374 . S
C1485 C1482 1.499 . S
C1485 C1486 1.373 . S
C1485 C1487 1.389 . S
C1486 H1459 0.950 . S
C1486 C1472 1.377 . S
C1486 C1485 1.373 . S
C1487 C1471 1.377 . S
C1487 C1485 1.389 . S
C1487 C1488 1.524 . S
C1488 C1487 1.524 . S
C1488 C1489 1.397 . S
C1488 C1493 1.363 . S
C1489 H1460 0.950 . S
C1489 C1488 1.397 . S
C1489 C1490 1.334 . S
C1490 H1461 0.950 . S
C1490 C1489 1.334 . S
C1490 C1491 1.287 . S
C1491 C1490 1.287 . S
C1491 C1492 1.524 . S
C1491 H1494 0.999 . S
C1492 H1462 0.950 . S
C1492 C1491 1.524 . S
C1492 C1493 1.415 . S
C1493 H1463 0.950 . S
C1493 C1488 1.363 . S
C1493 C1492 1.415 . S
H1494 C1491 0.999 . S
H1495 C1476 0.913 . S
H1496 C1514 0.951 . S
H1497 C1516 0.951 . S
H1498 C1518 0.950 . S
H1499 C1519 0.950 . S
H1500 C1521 0.950 . S
H1501 C1524 0.950 . S
H1502 C1525 0.950 . S
H1503 C1527 0.950 . S
H1504 C1528 0.950 . S
H1505 C1529 0.951 . S
H1506 C1531 0.951 . S
H1507 C1533 0.950 . S
H1508 C1534 0.950 . S
H1509 C1536 0.950 . S
H1510 C1539 0.950 . S
H1511 C1540 0.950 . S
H1512 C1542 0.950 . S
H1513 C1543 0.950 . S
C1514 H1496 0.951 . S
C1514 C1515 1.366 . S
C1514 C1516 1.388 . S
C1515 C1514 1.366 . S
C1515 C1519 1.385 . S
C1516 H1497 0.951 . S
C1516 C1514 1.388 . S
C1516 C1517 1.366 . S
C1517 C1516 1.366 . S
C1517 C1518 1.414 . S
C1517 C1520 1.499 . S
C1518 H1498 0.950 . S
C1518 C1517 1.414 . S
C1518 C1519 1.374 . S
C1519 H1499 0.950 . S
C1519 C1515 1.385 . S
C1519 C1518 1.374 . S
C1520 C1517 1.499 . S
C1520 C1521 1.373 . S
C1520 C1522 1.389 . S
C1521 H1500 0.950 . S
C1521 C1520 1.373 . S
C1521 C1537 1.377 . S
C1522 C1520 1.389 . S
C1522 C1523 1.524 . S
C1522 C1536 1.377 . S
C1523 C1522 1.524 . S
C1523 C1524 1.397 . S
C1523 C1528 1.363 . S
C1524 H1501 0.950 . S
C1524 C1523 1.397 . S
C1524 C1525 1.334 . S
C1525 H1502 0.950 . S
C1525 C1524 1.334 . S
C1525 C1526 1.287 . S
C1526 C1525 1.287 . S
C1526 C1527 1.524 . S
C1526 H1545 0.913 . S
C1527 H1503 0.950 . S
C1527 C1526 1.524 . S
C1527 C1528 1.415 . S
C1528 H1504 0.950 . S
C1528 C1523 1.363 . S
C1528 C1527 1.415 . S
C1529 H1505 0.951 . S
C1529 C1530 1.366 . S
C1529 C1531 1.388 . S
C1530 C1529 1.366 . S
C1530 C1534 1.385 . S
C1531 H1506 0.951 . S
C1531 C1529 1.388 . S
C1531 C1532 1.366 . S
C1532 C1531 1.366 . S
C1532 C1533 1.414 . S
C1532 C1535 1.499 . S
C1533 H1507 0.950 . S
C1533 C1532 1.414 . S
C1533 C1534 1.374 . S
C1534 H1508 0.950 . S
C1534 C1530 1.385 . S
C1534 C1533 1.374 . S
C1535 C1532 1.499 . S
C1535 C1536 1.373 . S
C1535 C1537 1.389 . S
C1536 H1509 0.950 . S
C1536 C1522 1.377 . S
C1536 C1535 1.373 . S
C1537 C1521 1.377 . S
C1537 C1535 1.389 . S
C1537 C1538 1.524 . S
C1538 C1537 1.524 . S
C1538 C1539 1.397 . S
C1538 C1543 1.363 . S
C1539 H1510 0.950 . S
C1539 C1538 1.397 . S
C1539 C1540 1.334 . S
C1540 H1511 0.950 . S
C1540 C1539 1.334 . S
C1540 C1541 1.287 . S
C1541 C1540 1.287 . S
C1541 C1542 1.524 . S
C1541 H1544 0.999 . S
C1542 H1512 0.950 . S
C1542 C1541 1.524 . S
C1542 C1543 1.415 . S
C1543 H1513 0.950 . S
C1543 C1538 1.363 . S
C1543 C1542 1.415 . S
H1544 C1541 0.999 . S
H1545 C1526 0.913 . S
H1546 C1564 0.951 . S
H1547 C1566 0.951 1_455 S
H1548 C1568 0.950 . S
H1549 C1569 0.950 . S
H1550 C1571 0.950 . S
H1551 C1574 0.950 . S
H1552 C1575 0.950 1_655 S
H1553 C1577 0.950 . S
H1554 C1578 0.950 . S
H1555 C1579 0.951 . S
H1556 C1581 0.951 . S
H1557 C1583 0.950 . S
H1558 C1584 0.950 . S
H1559 C1586 0.950 . S
H1560 C1589 0.950 . S
H1561 C1590 0.950 . S
H1562 C1592 0.950 . S
H1563 C1593 0.950 . S
C1564 H1546 0.951 . S
C1564 C1565 1.366 . S
C1564 C1566 1.388 . S
C1565 C1564 1.366 . S
C1565 C1569 1.385 . S
C1566 H1547 0.951 1_655 S
C1566 C1564 1.388 . S
C1566 C1567 1.366 1_655 S
C1567 C1566 1.366 1_455 S
C1567 C1568 1.414 1_455 S
C1567 C1570 1.499 . S
C1568 H1548 0.950 . S
C1568 C1567 1.414 1_655 S
C1568 C1569 1.374 . S
C1569 H1549 0.950 . S
C1569 C1565 1.385 . S
C1569 C1568 1.374 . S
C1570 C1567 1.499 . S
C1570 C1571 1.373 . S
C1570 C1572 1.389 . S
C1571 H1550 0.950 . S
C1571 C1570 1.373 . S
C1571 C1587 1.377 . S
C1572 C1570 1.389 . S
C1572 C1573 1.524 . S
C1572 C1586 1.377 . S
C1573 C1572 1.524 . S
C1573 C1574 1.397 . S
C1573 C1578 1.363 . S
C1574 H1551 0.950 . S
C1574 C1573 1.397 . S
C1574 C1575 1.334 . S
C1575 H1552 0.950 1_455 S
C1575 C1574 1.334 . S
C1575 C1576 1.287 . S
C1576 C1575 1.287 . S
C1576 C1577 1.524 . S
C1576 H1595 0.913 . S
C1577 H1553 0.950 . S
C1577 C1576 1.524 . S
C1577 C1578 1.415 . S
C1578 H1554 0.950 . S
C1578 C1573 1.363 . S
C1578 C1577 1.415 . S
C1579 H1555 0.951 . S
C1579 C1580 1.366 . S
C1579 C1581 1.388 . S
C1580 C1579 1.366 . S
C1580 C1584 1.385 . S
C1581 H1556 0.951 . S
C1581 C1579 1.388 . S
C1581 C1582 1.366 . S
C1582 C1581 1.366 . S
C1582 C1583 1.414 . S
C1582 C1585 1.499 . S
C1583 H1557 0.950 . S
C1583 C1582 1.414 . S
C1583 C1584 1.374 . S
C1584 H1558 0.950 . S
C1584 C1580 1.385 . S
C1584 C1583 1.374 . S
C1585 C1582 1.499 . S
C1585 C1586 1.373 . S
C1585 C1587 1.389 . S
C1586 H1559 0.950 . S
C1586 C1572 1.377 . S
C1586 C1585 1.373 . S
C1587 C1571 1.377 . S
C1587 C1585 1.389 . S
C1587 C1588 1.524 . S
C1588 C1587 1.524 . S
C1588 C1589 1.397 . S
C1588 C1593 1.363 . S
C1589 H1560 0.950 . S
C1589 C1588 1.397 . S
C1589 C1590 1.334 . S
C1590 H1561 0.950 . S
C1590 C1589 1.334 . S
C1590 C1591 1.287 . S
C1591 C1590 1.287 . S
C1591 C1592 1.524 . S
C1591 H1594 0.999 . S
C1592 H1562 0.950 . S
C1592 C1591 1.524 . S
C1592 C1593 1.415 . S
C1593 H1563 0.950 . S
C1593 C1588 1.363 . S
C1593 C1592 1.415 . S
H1594 C1591 0.999 . S
H1595 C1576 0.913 . S
H1596 C1614 0.951 . S
H1597 C1616 0.951 . S
H1598 C1618 0.950 . S
H1599 C1619 0.950 . S
H1600 C1621 0.950 . S
H1601 C1624 0.950 . S
H1602 C1625 0.950 . S
H1603 C1627 0.950 . S
H1604 C1628 0.950 . S
H1605 C1629 0.951 . S
H1606 C1631 0.951 1_655 S
H1607 C1633 0.950 . S
H1608 C1634 0.950 . S
H1609 C1636 0.950 . S
H1610 C1639 0.950 . S
H1611 C1640 0.950 . S
H1612 C1642 0.950 . S
H1613 C1643 0.950 . S
C1614 H1596 0.951 . S
C1614 C1615 1.366 . S
C1614 C1616 1.388 . S
C1615 C1614 1.366 . S
C1615 C1619 1.385 . S
C1616 H1597 0.951 . S
C1616 C1614 1.388 . S
C1616 C1617 1.366 . S
C1617 C1616 1.366 . S
C1617 C1618 1.414 . S
C1617 C1620 1.499 . S
C1618 H1598 0.950 . S
C1618 C1617 1.414 . S
C1618 C1619 1.374 . S
C1619 H1599 0.950 . S
C1619 C1615 1.385 . S
C1619 C1618 1.374 . S
C1620 C1617 1.499 . S
C1620 C1621 1.373 . S
C1620 C1622 1.389 . S
C1621 H1600 0.950 . S
C1621 C1620 1.373 . S
C1621 C1637 1.377 . S
C1622 C1620 1.389 . S
C1622 C1623 1.524 . S
C1622 C1636 1.377 . S
C1623 C1622 1.524 . S
C1623 C1624 1.397 . S
C1623 C1628 1.363 . S
C1624 H1601 0.950 . S
C1624 C1623 1.397 . S
C1624 C1625 1.334 . S
C1625 H1602 0.950 . S
C1625 C1624 1.334 . S
C1625 C1626 1.287 . S
C1626 C1625 1.287 . S
C1626 C1627 1.524 . S
C1626 H1645 0.913 . S
C1627 H1603 0.950 . S
C1627 C1626 1.524 . S
C1627 C1628 1.415 . S
C1628 H1604 0.950 . S
C1628 C1623 1.363 . S
C1628 C1627 1.415 . S
C1629 H1605 0.951 . S
C1629 C1630 1.366 . S
C1629 C1631 1.388 . S
C1630 C1629 1.366 . S
C1630 C1634 1.385 . S
C1631 H1606 0.951 1_455 S
C1631 C1629 1.388 . S
C1631 C1632 1.366 1_455 S
C1632 C1631 1.366 1_655 S
C1632 C1633 1.414 1_655 S
C1632 C1635 1.499 . S
C1633 H1607 0.950 . S
C1633 C1632 1.414 1_455 S
C1633 C1634 1.374 . S
C1634 H1608 0.950 . S
C1634 C1630 1.385 . S
C1634 C1633 1.374 . S
C1635 C1632 1.499 . S
C1635 C1636 1.373 . S
C1635 C1637 1.389 . S
C1636 H1609 0.950 . S
C1636 C1622 1.377 . S
C1636 C1635 1.373 . S
C1637 C1621 1.377 . S
C1637 C1635 1.389 . S
C1637 C1638 1.524 . S
C1638 C1637 1.524 . S
C1638 C1639 1.397 . S
C1638 C1643 1.363 . S
C1639 H1610 0.950 . S
C1639 C1638 1.397 . S
C1639 C1640 1.334 . S
C1640 H1611 0.950 . S
C1640 C1639 1.334 . S
C1640 C1641 1.287 . S
C1641 C1640 1.287 . S
C1641 C1642 1.524 . S
C1641 H1644 0.999 . S
C1642 H1612 0.950 . S
C1642 C1641 1.524 . S
C1642 C1643 1.415 . S
C1643 H1613 0.950 . S
C1643 C1638 1.363 . S
C1643 C1642 1.415 . S
H1644 C1641 0.999 . S
H1645 C1626 0.913 . S
H1646 C1664 0.951 . S
H1647 C1666 0.951 . S
H1648 C1668 0.950 . S
H1649 C1669 0.950 . S
H1650 C1671 0.950 . S
H1651 C1674 0.950 . S
H1652 C1675 0.950 . S
H1653 C1677 0.950 . S
H1654 C1678 0.950 . S
H1655 C1679 0.951 . S
H1656 C1681 0.951 . S
H1657 C1683 0.950 1_565 S
H1658 C1684 0.950 . S
H1659 C1686 0.950 . S
H1660 C1689 0.950 . S
H1661 C1690 0.950 1_545 S
H1662 C1692 0.950 . S
H1663 C1693 0.950 . S
C1664 H1646 0.951 . S
C1664 C1665 1.366 . S
C1664 C1666 1.388 . S
C1665 C1664 1.366 . S
C1665 C1669 1.385 . S
C1666 H1647 0.951 . S
C1666 C1664 1.388 . S
C1666 C1667 1.366 . S
C1667 C1666 1.366 . S
C1667 C1668 1.414 . S
C1667 C1670 1.499 . S
C1668 H1648 0.950 . S
C1668 C1667 1.414 . S
C1668 C1669 1.374 . S
C1669 H1649 0.950 . S
C1669 C1665 1.385 . S
C1669 C1668 1.374 . S
C1670 C1667 1.499 . S
C1670 C1671 1.373 . S
C1670 C1672 1.389 . S
C1671 H1650 0.950 . S
C1671 C1670 1.373 . S
C1671 C1687 1.377 . S
C1672 C1670 1.389 . S
C1672 C1673 1.524 . S
C1672 C1686 1.377 . S
C1673 C1672 1.524 . S
C1673 C1674 1.397 . S
C1673 C1678 1.363 . S
C1674 H1651 0.950 . S
C1674 C1673 1.397 . S
C1674 C1675 1.334 . S
C1675 H1652 0.950 . S
C1675 C1674 1.334 . S
C1675 C1676 1.287 . S
C1676 C1675 1.287 . S
C1676 C1677 1.524 . S
C1676 H1695 0.913 . S
C1677 H1653 0.950 . S
C1677 C1676 1.524 . S
C1677 C1678 1.415 . S
C1678 H1654 0.950 . S
C1678 C1673 1.363 . S
C1678 C1677 1.415 . S
C1679 H1655 0.951 . S
C1679 C1680 1.366 . S
C1679 C1681 1.388 . S
C1680 C1679 1.366 . S
C1680 C1684 1.385 . S
C1681 H1656 0.951 . S
C1681 C1679 1.388 . S
C1681 C1682 1.366 1_545 S
C1682 C1681 1.366 1_565 S
C1682 C1683 1.414 1_565 S
C1682 C1685 1.499 . S
C1683 H1657 0.950 1_545 S
C1683 C1682 1.414 1_545 S
C1683 C1684 1.374 . S
C1684 H1658 0.950 . S
C1684 C1680 1.385 . S
C1684 C1683 1.374 . S
C1685 C1682 1.499 . S
C1685 C1686 1.373 . S
C1685 C1687 1.389 . S
C1686 H1659 0.950 . S
C1686 C1672 1.377 . S
C1686 C1685 1.373 . S
C1687 C1671 1.377 . S
C1687 C1685 1.389 . S
C1687 C1688 1.524 . S
C1688 C1687 1.524 . S
C1688 C1689 1.397 . S
C1688 C1693 1.363 . S
C1689 H1660 0.950 . S
C1689 C1688 1.397 . S
C1689 C1690 1.334 . S
C1690 H1661 0.950 1_565 S
C1690 C1689 1.334 . S
C1690 C1691 1.287 . S
C1691 C1690 1.287 . S
C1691 C1692 1.524 . S
C1691 H1694 0.999 1_565 S
C1692 H1662 0.950 . S
C1692 C1691 1.524 . S
C1692 C1693 1.415 . S
C1693 H1663 0.950 . S
C1693 C1688 1.363 . S
C1693 C1692 1.415 . S
H1694 C1691 0.999 1_545 S
H1695 C1676 0.913 . S
H1696 C1714 0.951 . S
H1697 C1716 0.951 . S
H1698 C1718 0.950 . S
H1699 C1719 0.950 . S
H1700 C1721 0.950 . S
H1701 C1724 0.950 . S
H1702 C1725 0.950 . S
H1703 C1727 0.950 . S
H1704 C1728 0.950 . S
H1705 C1729 0.951 . S
H1706 C1731 0.951 . S
H1707 C1733 0.950 . S
H1708 C1734 0.950 . S
H1709 C1736 0.950 . S
H1710 C1739 0.950 . S
H1711 C1740 0.950 . S
H1712 C1742 0.950 . S
H1713 C1743 0.950 . S
C1714 H1696 0.951 . S
C1714 C1715 1.366 . S
C1714 C1716 1.388 . S
C1715 C1714 1.366 . S
C1715 C1719 1.385 . S
C1716 H1697 0.951 . S
C1716 C1714 1.388 . S
C1716 C1717 1.366 . S
C1717 C1716 1.366 . S
C1717 C1718 1.414 . S
C1717 C1720 1.499 . S
C1718 H1698 0.950 . S
C1718 C1717 1.414 . S
C1718 C1719 1.374 . S
C1719 H1699 0.950 . S
C1719 C1715 1.385 . S
C1719 C1718 1.374 . S
C1720 C1717 1.499 . S
C1720 C1721 1.373 . S
C1720 C1722 1.389 . S
C1721 H1700 0.950 . S
C1721 C1720 1.373 . S
C1721 C1737 1.377 . S
C1722 C1720 1.389 . S
C1722 C1723 1.524 . S
C1722 C1736 1.377 . S
C1723 C1722 1.524 . S
C1723 C1724 1.397 . S
C1723 C1728 1.363 . S
C1724 H1701 0.950 . S
C1724 C1723 1.397 . S
C1724 C1725 1.334 . S
C1725 H1702 0.950 . S
C1725 C1724 1.334 . S
C1725 C1726 1.287 . S
C1726 C1725 1.287 . S
C1726 C1727 1.524 . S
C1726 H1745 0.913 . S
C1727 H1703 0.950 . S
C1727 C1726 1.524 . S
C1727 C1728 1.415 . S
C1728 H1704 0.950 . S
C1728 C1723 1.363 . S
C1728 C1727 1.415 . S
C1729 H1705 0.951 . S
C1729 C1730 1.366 . S
C1729 C1731 1.388 . S
C1730 C1729 1.366 . S
C1730 C1734 1.385 . S
C1731 H1706 0.951 . S
C1731 C1729 1.388 . S
C1731 C1732 1.366 . S
C1732 C1731 1.366 . S
C1732 C1733 1.414 . S
C1732 C1735 1.499 . S
C1733 H1707 0.950 . S
C1733 C1732 1.414 . S
C1733 C1734 1.374 . S
C1734 H1708 0.950 . S
C1734 C1730 1.385 . S
C1734 C1733 1.374 . S
C1735 C1732 1.499 . S
C1735 C1736 1.373 . S
C1735 C1737 1.389 . S
C1736 H1709 0.950 . S
C1736 C1722 1.377 . S
C1736 C1735 1.373 . S
C1737 C1721 1.377 . S
C1737 C1735 1.389 . S
C1737 C1738 1.524 . S
C1738 C1737 1.524 . S
C1738 C1739 1.397 . S
C1738 C1743 1.363 . S
C1739 H1710 0.950 . S
C1739 C1738 1.397 . S
C1739 C1740 1.334 . S
C1740 H1711 0.950 . S
C1740 C1739 1.334 . S
C1740 C1741 1.287 . S
C1741 C1740 1.287 . S
C1741 C1742 1.524 . S
C1741 H1744 0.999 . S
C1742 H1712 0.950 . S
C1742 C1741 1.524 . S
C1742 C1743 1.415 . S
C1743 H1713 0.950 . S
C1743 C1738 1.363 . S
C1743 C1742 1.415 . S
H1744 C1741 0.999 . S
H1745 C1726 0.913 . S
H1746 C1764 0.951 . S
H1747 C1766 0.951 1_455 S
H1748 C1768 0.950 1_455 S
H1749 C1769 0.950 . S
H1750 C1771 0.950 . S
H1751 C1774 0.950 . S
H1752 C1775 0.950 . S
H1753 C1777 0.950 . S
H1754 C1778 0.950 . S
H1755 C1779 0.951 . S
H1756 C1781 0.951 . S
H1757 C1783 0.950 . S
H1758 C1784 0.950 . S
H1759 C1786 0.950 . S
H1760 C1789 0.950 . S
H1761 C1790 0.950 . S
H1762 C1792 0.950 . S
H1763 C1793 0.950 . S
C1764 H1746 0.951 . S
C1764 C1765 1.366 . S
C1764 C1766 1.388 . S
C1765 C1764 1.366 . S
C1765 C1769 1.385 . S
C1766 H1747 0.951 1_655 S
C1766 C1764 1.388 . S
C1766 C1767 1.366 1_655 S
C1767 C1766 1.366 1_455 S
C1767 C1768 1.414 1_455 S
C1767 C1770 1.499 . S
C1768 H1748 0.950 1_655 S
C1768 C1767 1.414 1_655 S
C1768 C1769 1.374 . S
C1769 H1749 0.950 . S
C1769 C1765 1.385 . S
C1769 C1768 1.374 . S
C1770 C1767 1.499 . S
C1770 C1771 1.373 . S
C1770 C1772 1.389 . S
C1771 H1750 0.950 . S
C1771 C1770 1.373 . S
C1771 C1787 1.377 . S
C1772 C1770 1.389 . S
C1772 C1773 1.524 . S
C1772 C1786 1.377 . S
C1773 C1772 1.524 . S
C1773 C1774 1.397 . S
C1773 C1778 1.363 . S
C1774 H1751 0.950 . S
C1774 C1773 1.397 . S
C1774 C1775 1.334 . S
C1775 H1752 0.950 . S
C1775 C1774 1.334 . S
C1775 C1776 1.287 . S
C1776 C1775 1.287 . S
C1776 C1777 1.524 . S
C1776 H1795 0.913 . S
C1777 H1753 0.950 . S
C1777 C1776 1.524 . S
C1777 C1778 1.415 . S
C1778 H1754 0.950 . S
C1778 C1773 1.363 . S
C1778 C1777 1.415 . S
C1779 H1755 0.951 . S
C1779 C1780 1.366 . S
C1779 C1781 1.388 . S
C1780 C1779 1.366 . S
C1780 C1784 1.385 . S
C1781 H1756 0.951 . S
C1781 C1779 1.388 . S
C1781 C1782 1.366 . S
C1782 C1781 1.366 . S
C1782 C1783 1.414 . S
C1782 C1785 1.499 . S
C1783 H1757 0.950 . S
C1783 C1782 1.414 . S
C1783 C1784 1.374 . S
C1784 H1758 0.950 . S
C1784 C1780 1.385 . S
C1784 C1783 1.374 . S
C1785 C1782 1.499 . S
C1785 C1786 1.373 . S
C1785 C1787 1.389 . S
C1786 H1759 0.950 . S
C1786 C1772 1.377 . S
C1786 C1785 1.373 . S
C1787 C1771 1.377 . S
C1787 C1785 1.389 . S
C1787 C1788 1.524 . S
C1788 C1787 1.524 . S
C1788 C1789 1.397 . S
C1788 C1793 1.363 . S
C1789 H1760 0.950 . S
C1789 C1788 1.397 . S
C1789 C1790 1.334 . S
C1790 H1761 0.950 . S
C1790 C1789 1.334 . S
C1790 C1791 1.287 . S
C1791 C1790 1.287 . S
C1791 C1792 1.524 . S
C1791 H1794 0.999 . S
C1792 H1762 0.950 . S
C1792 C1791 1.524 . S
C1792 C1793 1.415 . S
C1793 H1763 0.950 . S
C1793 C1788 1.363 . S
C1793 C1792 1.415 . S
H1794 C1791 0.999 . S
H1795 C1776 0.913 . S
H1796 C1814 0.951 . S
H1797 C1816 0.951 1_545 S
H1798 C1818 0.950 . S
H1799 C1819 0.950 . S
H1800 C1821 0.950 . S
H1801 C1824 0.950 . S
H1802 C1825 0.950 1_565 S
H1803 C1827 0.950 . S
H1804 C1828 0.950 . S
H1805 C1829 0.951 . S
H1806 C1831 0.951 . S
H1807 C1833 0.950 . S
H1808 C1834 0.950 . S
H1809 C1836 0.950 . S
H1810 C1839 0.950 . S
H1811 C1840 0.950 . S
H1812 C1842 0.950 . S
H1813 C1843 0.950 . S
C1814 H1796 0.951 . S
C1814 C1815 1.366 . S
C1814 C1816 1.388 . S
C1815 C1814 1.366 . S
C1815 C1819 1.385 . S
C1816 H1797 0.951 1_565 S
C1816 C1814 1.388 . S
C1816 C1817 1.366 1_565 S
C1817 C1816 1.366 1_545 S
C1817 C1818 1.414 1_545 S
C1817 C1820 1.499 . S
C1818 H1798 0.950 . S
C1818 C1817 1.414 1_565 S
C1818 C1819 1.374 . S
C1819 H1799 0.950 . S
C1819 C1815 1.385 . S
C1819 C1818 1.374 . S
C1820 C1817 1.499 . S
C1820 C1821 1.373 . S
C1820 C1822 1.389 . S
C1821 H1800 0.950 . S
C1821 C1820 1.373 . S
C1821 C1837 1.377 . S
C1822 C1820 1.389 . S
C1822 C1823 1.524 . S
C1822 C1836 1.377 . S
C1823 C1822 1.524 . S
C1823 C1824 1.397 . S
C1823 C1828 1.363 . S
C1824 H1801 0.950 . S
C1824 C1823 1.397 . S
C1824 C1825 1.334 . S
C1825 H1802 0.950 1_545 S
C1825 C1824 1.334 . S
C1825 C1826 1.287 . S
C1826 C1825 1.287 . S
C1826 C1827 1.524 . S
C1826 H1845 0.913 . S
C1827 H1803 0.950 . S
C1827 C1826 1.524 . S
C1827 C1828 1.415 . S
C1828 H1804 0.950 . S
C1828 C1823 1.363 . S
C1828 C1827 1.415 . S
C1829 H1805 0.951 . S
C1829 C1830 1.366 . S
C1829 C1831 1.388 . S
C1830 C1829 1.366 . S
C1830 C1834 1.385 . S
C1831 H1806 0.951 . S
C1831 C1829 1.388 . S
C1831 C1832 1.366 . S
C1832 C1831 1.366 . S
C1832 C1833 1.414 . S
C1832 C1835 1.499 . S
C1833 H1807 0.950 . S
C1833 C1832 1.414 . S
C1833 C1834 1.374 . S
C1834 H1808 0.950 . S
C1834 C1830 1.385 . S
C1834 C1833 1.374 . S
C1835 C1832 1.499 . S
C1835 C1836 1.373 . S
C1835 C1837 1.389 . S
C1836 H1809 0.950 . S
C1836 C1822 1.377 . S
C1836 C1835 1.373 . S
C1837 C1821 1.377 . S
C1837 C1835 1.389 . S
C1837 C1838 1.524 . S
C1838 C1837 1.524 . S
C1838 C1839 1.397 . S
C1838 C1843 1.363 . S
C1839 H1810 0.950 . S
C1839 C1838 1.397 . S
C1839 C1840 1.334 . S
C1840 H1811 0.950 . S
C1840 C1839 1.334 . S
C1840 C1841 1.287 . S
C1841 C1840 1.287 . S
C1841 C1842 1.524 . S
C1841 H1844 0.999 . S
C1842 H1812 0.950 . S
C1842 C1841 1.524 . S
C1842 C1843 1.415 . S
C1843 H1813 0.950 . S
C1843 C1838 1.363 . S
C1843 C1842 1.415 . S
H1844 C1841 0.999 . S
H1845 C1826 0.913 . S
H1846 C1864 0.951 . S
H1847 C1866 0.951 . S
H1848 C1868 0.950 . S
H1849 C1869 0.950 . S
H1850 C1871 0.950 . S
H1851 C1874 0.950 . S
H1852 C1875 0.950 . S
H1853 C1877 0.950 . S
H1854 C1878 0.950 . S
H1855 C1879 0.951 . S
H1856 C1881 0.951 . S
H1857 C1883 0.950 . S
H1858 C1884 0.950 . S
H1859 C1886 0.950 . S
H1860 C1889 0.950 . S
H1861 C1890 0.950 . S
H1862 C1892 0.950 . S
H1863 C1893 0.950 . S
C1864 H1846 0.951 . S
C1864 C1865 1.366 . S
C1864 C1866 1.388 . S
C1865 C1864 1.366 . S
C1865 C1869 1.385 . S
C1866 H1847 0.951 . S
C1866 C1864 1.388 . S
C1866 C1867 1.366 . S
C1867 C1866 1.366 . S
C1867 C1868 1.414 . S
C1867 C1870 1.499 . S
C1868 H1848 0.950 . S
C1868 C1867 1.414 . S
C1868 C1869 1.374 . S
C1869 H1849 0.950 . S
C1869 C1865 1.385 . S
C1869 C1868 1.374 . S
C1870 C1867 1.499 . S
C1870 C1871 1.373 . S
C1870 C1872 1.389 . S
C1871 H1850 0.950 . S
C1871 C1870 1.373 . S
C1871 C1887 1.377 . S
C1872 C1870 1.389 . S
C1872 C1873 1.524 . S
C1872 C1886 1.377 . S
C1873 C1872 1.524 . S
C1873 C1874 1.397 . S
C1873 C1878 1.363 . S
C1874 H1851 0.950 . S
C1874 C1873 1.397 . S
C1874 C1875 1.334 . S
C1875 H1852 0.950 . S
C1875 C1874 1.334 . S
C1875 C1876 1.287 . S
C1876 C1875 1.287 . S
C1876 C1877 1.524 . S
C1876 H1895 0.913 . S
C1877 H1853 0.950 . S
C1877 C1876 1.524 . S
C1877 C1878 1.415 . S
C1878 H1854 0.950 . S
C1878 C1873 1.363 . S
C1878 C1877 1.415 . S
C1879 H1855 0.951 . S
C1879 C1880 1.366 . S
C1879 C1881 1.388 . S
C1880 C1879 1.366 . S
C1880 C1884 1.385 . S
C1881 H1856 0.951 . S
C1881 C1879 1.388 . S
C1881 C1882 1.366 . S
C1882 C1881 1.366 . S
C1882 C1883 1.414 . S
C1882 C1885 1.499 . S
C1883 H1857 0.950 . S
C1883 C1882 1.414 . S
C1883 C1884 1.374 . S
C1884 H1858 0.950 . S
C1884 C1880 1.385 . S
C1884 C1883 1.374 . S
C1885 C1882 1.499 . S
C1885 C1886 1.373 . S
C1885 C1887 1.389 . S
C1886 H1859 0.950 . S
C1886 C1872 1.377 . S
C1886 C1885 1.373 . S
C1887 C1871 1.377 . S
C1887 C1885 1.389 . S
C1887 C1888 1.524 . S
C1888 C1887 1.524 . S
C1888 C1889 1.397 . S
C1888 C1893 1.363 . S
C1889 H1860 0.950 . S
C1889 C1888 1.397 . S
C1889 C1890 1.334 . S
C1890 H1861 0.950 . S
C1890 C1889 1.334 . S
C1890 C1891 1.287 . S
C1891 C1890 1.287 . S
C1891 C1892 1.524 . S
C1891 H1894 0.999 . S
C1892 H1862 0.950 . S
C1892 C1891 1.524 . S
C1892 C1893 1.415 . S
C1893 H1863 0.950 . S
C1893 C1888 1.363 . S
C1893 C1892 1.415 . S
H1894 C1891 0.999 . S
H1895 C1876 0.913 . S
H1896 C1914 0.951 . S
H1897 C1916 0.951 . S
H1898 C1918 0.950 . S
H1899 C1919 0.950 . S
H1900 C1921 0.950 . S
H1901 C1924 0.950 . S
H1902 C1925 0.950 . S
H1903 C1927 0.950 . S
H1904 C1928 0.950 . S
H1905 C1929 0.951 . S
H1906 C1931 0.951 . S
H1907 C1933 0.950 . S
H1908 C1934 0.950 . S
H1909 C1936 0.950 . S
H1910 C1939 0.950 . S
H1911 C1940 0.950 . S
H1912 C1942 0.950 . S
H1913 C1943 0.950 . S
C1914 H1896 0.951 . S
C1914 C1915 1.366 . S
C1914 C1916 1.388 . S
C1915 C1914 1.366 . S
C1915 C1919 1.385 . S
C1916 H1897 0.951 . S
C1916 C1914 1.388 . S
C1916 C1917 1.366 . S
C1917 C1916 1.366 . S
C1917 C1918 1.414 . S
C1917 C1920 1.499 . S
C1918 H1898 0.950 . S
C1918 C1917 1.414 . S
C1918 C1919 1.374 . S
C1919 H1899 0.950 . S
C1919 C1915 1.385 . S
C1919 C1918 1.374 . S
C1920 C1917 1.499 . S
C1920 C1921 1.373 . S
C1920 C1922 1.389 . S
C1921 H1900 0.950 . S
C1921 C1920 1.373 . S
C1921 C1937 1.377 1_554 S
C1922 C1920 1.389 . S
C1922 C1923 1.524 . S
C1922 C1936 1.377 1_554 S
C1923 C1922 1.524 . S
C1923 C1924 1.397 . S
C1923 C1928 1.363 . S
C1924 H1901 0.950 . S
C1924 C1923 1.397 . S
C1924 C1925 1.334 . S
C1925 H1902 0.950 . S
C1925 C1924 1.334 . S
C1925 C1926 1.287 . S
C1926 C1925 1.287 . S
C1926 C1927 1.524 . S
C1926 H1945 0.913 . S
C1927 H1903 0.950 . S
C1927 C1926 1.524 . S
C1927 C1928 1.415 . S
C1928 H1904 0.950 . S
C1928 C1923 1.363 . S
C1928 C1927 1.415 . S
C1929 H1905 0.951 . S
C1929 C1930 1.366 . S
C1929 C1931 1.388 . S
C1930 C1929 1.366 . S
C1930 C1934 1.385 . S
C1931 H1906 0.951 . S
C1931 C1929 1.388 . S
C1931 C1932 1.366 . S
C1932 C1931 1.366 . S
C1932 C1933 1.414 . S
C1932 C1935 1.499 . S
C1933 H1907 0.950 . S
C1933 C1932 1.414 . S
C1933 C1934 1.374 . S
C1934 H1908 0.950 . S
C1934 C1930 1.385 . S
C1934 C1933 1.374 . S
C1935 C1932 1.499 . S
C1935 C1936 1.373 . S
C1935 C1937 1.389 . S
C1936 H1909 0.950 . S
C1936 C1922 1.377 1_556 S
C1936 C1935 1.373 . S
C1937 C1921 1.377 1_556 S
C1937 C1935 1.389 . S
C1937 C1938 1.524 . S
C1938 C1937 1.524 . S
C1938 C1939 1.397 . S
C1938 C1943 1.363 . S
C1939 H1910 0.950 . S
C1939 C1938 1.397 . S
C1939 C1940 1.334 . S
C1940 H1911 0.950 . S
C1940 C1939 1.334 . S
C1940 C1941 1.287 . S
C1941 C1940 1.287 . S
C1941 C1942 1.524 . S
C1941 H1944 0.999 . S
C1942 H1912 0.950 . S
C1942 C1941 1.524 . S
C1942 C1943 1.415 . S
C1943 H1913 0.950 . S
C1943 C1938 1.363 . S
C1943 C1942 1.415 . S
H1944 C1941 0.999 . S
H1945 C1926 0.913 . S
H1946 C1964 0.951 . S
H1947 C1966 0.951 . S
H1948 C1968 0.950 . S
H1949 C1969 0.950 . S
H1950 C1971 0.950 . S
H1951 C1974 0.950 . S
H1952 C1975 0.950 . S
H1953 C1977 0.950 . S
H1954 C1978 0.950 . S
H1955 C1979 0.951 . S
H1956 C1981 0.951 . S
H1957 C1983 0.950 . S
H1958 C1984 0.950 . S
H1959 C1986 0.950 . S
H1960 C1989 0.950 . S
H1961 C1990 0.950 . S
H1962 C1992 0.950 . S
H1963 C1993 0.950 . S
C1964 H1946 0.951 . S
C1964 C1965 1.366 . S
C1964 C1966 1.388 . S
C1965 C1964 1.366 . S
C1965 C1969 1.385 . S
C1966 H1947 0.951 . S
C1966 C1964 1.388 . S
C1966 C1967 1.366 . S
C1967 C1966 1.366 . S
C1967 C1968 1.414 . S
C1967 C1970 1.499 . S
C1968 H1948 0.950 . S
C1968 C1967 1.414 . S
C1968 C1969 1.374 . S
C1969 H1949 0.950 . S
C1969 C1965 1.385 . S
C1969 C1968 1.374 . S
C1970 C1967 1.499 . S
C1970 C1971 1.373 . S
C1970 C1972 1.389 . S
C1971 H1950 0.950 . S
C1971 C1970 1.373 . S
C1971 C1987 1.377 1_554 S
C1972 C1970 1.389 . S
C1972 C1973 1.524 . S
C1972 C1986 1.377 1_554 S
C1973 C1972 1.524 . S
C1973 C1974 1.397 . S
C1973 C1978 1.363 . S
C1974 H1951 0.950 . S
C1974 C1973 1.397 . S
C1974 C1975 1.334 . S
C1975 H1952 0.950 . S
C1975 C1974 1.334 . S
C1975 C1976 1.287 . S
C1976 C1975 1.287 . S
C1976 C1977 1.524 . S
C1976 H1995 0.913 . S
C1977 H1953 0.950 . S
C1977 C1976 1.524 . S
C1977 C1978 1.415 . S
C1978 H1954 0.950 . S
C1978 C1973 1.363 . S
C1978 C1977 1.415 . S
C1979 H1955 0.951 . S
C1979 C1980 1.366 . S
C1979 C1981 1.388 . S
C1980 C1979 1.366 . S
C1980 C1984 1.385 . S
C1981 H1956 0.951 . S
C1981 C1979 1.388 . S
C1981 C1982 1.366 . S
C1982 C1981 1.366 . S
C1982 C1983 1.414 . S
C1982 C1985 1.499 . S
C1983 H1957 0.950 . S
C1983 C1982 1.414 . S
C1983 C1984 1.374 . S
C1984 H1958 0.950 . S
C1984 C1980 1.385 . S
C1984 C1983 1.374 . S
C1985 C1982 1.499 . S
C1985 C1986 1.373 . S
C1985 C1987 1.389 . S
C1986 H1959 0.950 . S
C1986 C1972 1.377 1_556 S
C1986 C1985 1.373 . S
C1987 C1971 1.377 1_556 S
C1987 C1985 1.389 . S
C1987 C1988 1.524 . S
C1988 C1987 1.524 . S
C1988 C1989 1.397 . S
C1988 C1993 1.363 . S
C1989 H1960 0.950 . S
C1989 C1988 1.397 . S
C1989 C1990 1.334 . S
C1990 H1961 0.950 . S
C1990 C1989 1.334 . S
C1990 C1991 1.287 . S
C1991 C1990 1.287 . S
C1991 C1992 1.524 . S
C1991 H1994 0.999 . S
C1992 H1962 0.950 . S
C1992 C1991 1.524 . S
C1992 C1993 1.415 . S
C1993 H1963 0.950 . S
C1993 C1988 1.363 . S
C1993 C1992 1.415 . S
H1994 C1991 0.999 . S
H1995 C1976 0.913 . S
H1996 C2014 0.951 . S
H1997 C2016 0.951 . S
H1998 C2018 0.950 . S
H1999 C2019 0.950 . S
H2000 C2021 0.950 . S
H2001 C2024 0.950 . S
H2002 C2025 0.950 . S
H2003 C2027 0.950 . S
H2004 C2028 0.950 . S
H2005 C2029 0.951 . S
H2006 C2031 0.951 . S
H2007 C2033 0.950 . S
H2008 C2034 0.950 . S
H2009 C2036 0.950 . S
H2010 C2039 0.950 . S
H2011 C2040 0.950 . S
H2012 C2042 0.950 . S
H2013 C2043 0.950 . S
C2014 H1996 0.951 . S
C2014 C2015 1.366 . S
C2014 C2016 1.388 . S
C2015 C2014 1.366 . S
C2015 C2019 1.385 . S
C2016 H1997 0.951 . S
C2016 C2014 1.388 . S
C2016 C2017 1.366 . S
C2017 C2016 1.366 . S
C2017 C2018 1.414 . S
C2017 C2020 1.499 . S
C2018 H1998 0.950 . S
C2018 C2017 1.414 . S
C2018 C2019 1.374 . S
C2019 H1999 0.950 . S
C2019 C2015 1.385 . S
C2019 C2018 1.374 . S
C2020 C2017 1.499 . S
C2020 C2021 1.373 . S
C2020 C2022 1.389 . S
C2021 H2000 0.950 . S
C2021 C2020 1.373 . S
C2021 C2037 1.377 1_554 S
C2022 C2020 1.389 . S
C2022 C2023 1.524 . S
C2022 C2036 1.377 1_554 S
C2023 C2022 1.524 . S
C2023 C2024 1.397 . S
C2023 C2028 1.363 . S
C2024 H2001 0.950 . S
C2024 C2023 1.397 . S
C2024 C2025 1.334 . S
C2025 H2002 0.950 . S
C2025 C2024 1.334 . S
C2025 C2026 1.287 . S
C2026 C2025 1.287 . S
C2026 C2027 1.524 . S
C2026 H2045 0.913 . S
C2027 H2003 0.950 . S
C2027 C2026 1.524 . S
C2027 C2028 1.415 . S
C2028 H2004 0.950 . S
C2028 C2023 1.363 . S
C2028 C2027 1.415 . S
C2029 H2005 0.951 . S
C2029 C2030 1.366 . S
C2029 C2031 1.388 . S
C2030 C2029 1.366 . S
C2030 C2034 1.385 . S
C2031 H2006 0.951 . S
C2031 C2029 1.388 . S
C2031 C2032 1.366 . S
C2032 C2031 1.366 . S
C2032 C2033 1.414 . S
C2032 C2035 1.499 . S
C2033 H2007 0.950 . S
C2033 C2032 1.414 . S
C2033 C2034 1.374 . S
C2034 H2008 0.950 . S
C2034 C2030 1.385 . S
C2034 C2033 1.374 . S
C2035 C2032 1.499 . S
C2035 C2036 1.373 . S
C2035 C2037 1.389 . S
C2036 H2009 0.950 . S
C2036 C2022 1.377 1_556 S
C2036 C2035 1.373 . S
C2037 C2021 1.377 1_556 S
C2037 C2035 1.389 . S
C2037 C2038 1.524 . S
C2038 C2037 1.524 . S
C2038 C2039 1.397 . S
C2038 C2043 1.363 . S
C2039 H2010 0.950 . S
C2039 C2038 1.397 . S
C2039 C2040 1.334 . S
C2040 H2011 0.950 . S
C2040 C2039 1.334 . S
C2040 C2041 1.287 . S
C2041 C2040 1.287 . S
C2041 C2042 1.524 . S
C2041 H2044 0.999 . S
C2042 H2012 0.950 . S
C2042 C2041 1.524 . S
C2042 C2043 1.415 . S
C2043 H2013 0.950 . S
C2043 C2038 1.363 . S
C2043 C2042 1.415 . S
H2044 C2041 0.999 . S
H2045 C2026 0.913 . S
H2046 C2064 0.951 . S
H2047 C2066 0.951 . S
H2048 C2068 0.950 . S
H2049 C2069 0.950 . S
H2050 C2071 0.950 . S
H2051 C2074 0.950 . S
H2052 C2075 0.950 . S
H2053 C2077 0.950 . S
H2054 C2078 0.950 . S
H2055 C2079 0.951 . S
H2056 C2081 0.951 . S
H2057 C2083 0.950 . S
H2058 C2084 0.950 . S
H2059 C2086 0.950 . S
H2060 C2089 0.950 . S
H2061 C2090 0.950 . S
H2062 C2092 0.950 . S
H2063 C2093 0.950 . S
C2064 H2046 0.951 . S
C2064 C2065 1.366 . S
C2064 C2066 1.388 . S
C2065 C2064 1.366 . S
C2065 C2069 1.385 . S
C2066 H2047 0.951 . S
C2066 C2064 1.388 . S
C2066 C2067 1.366 . S
C2067 C2066 1.366 . S
C2067 C2068 1.414 . S
C2067 C2070 1.499 . S
C2068 H2048 0.950 . S
C2068 C2067 1.414 . S
C2068 C2069 1.374 . S
C2069 H2049 0.950 . S
C2069 C2065 1.385 . S
C2069 C2068 1.374 . S
C2070 C2067 1.499 . S
C2070 C2071 1.373 . S
C2070 C2072 1.389 . S
C2071 H2050 0.950 . S
C2071 C2070 1.373 . S
C2071 C2087 1.377 1_556 S
C2072 C2070 1.389 . S
C2072 C2073 1.524 . S
C2072 C2086 1.377 1_556 S
C2073 C2072 1.524 . S
C2073 C2074 1.397 . S
C2073 C2078 1.363 . S
C2074 H2051 0.950 . S
C2074 C2073 1.397 . S
C2074 C2075 1.334 . S
C2075 H2052 0.950 . S
C2075 C2074 1.334 . S
C2075 C2076 1.287 . S
C2076 C2075 1.287 . S
C2076 C2077 1.524 . S
C2076 H2095 0.913 . S
C2077 H2053 0.950 . S
C2077 C2076 1.524 . S
C2077 C2078 1.415 . S
C2078 H2054 0.950 . S
C2078 C2073 1.363 . S
C2078 C2077 1.415 . S
C2079 H2055 0.951 . S
C2079 C2080 1.366 . S
C2079 C2081 1.388 . S
C2080 C2079 1.366 . S
C2080 C2084 1.385 . S
C2081 H2056 0.951 . S
C2081 C2079 1.388 . S
C2081 C2082 1.366 . S
C2082 C2081 1.366 . S
C2082 C2083 1.414 . S
C2082 C2085 1.499 . S
C2083 H2057 0.950 . S
C2083 C2082 1.414 . S
C2083 C2084 1.374 . S
C2084 H2058 0.950 . S
C2084 C2080 1.385 . S
C2084 C2083 1.374 . S
C2085 C2082 1.499 . S
C2085 C2086 1.373 . S
C2085 C2087 1.389 . S
C2086 H2059 0.950 . S
C2086 C2072 1.377 1_554 S
C2086 C2085 1.373 . S
C2087 C2071 1.377 1_554 S
C2087 C2085 1.389 . S
C2087 C2088 1.524 . S
C2088 C2087 1.524 . S
C2088 C2089 1.397 . S
C2088 C2093 1.363 . S
C2089 H2060 0.950 . S
C2089 C2088 1.397 . S
C2089 C2090 1.334 . S
C2090 H2061 0.950 . S
C2090 C2089 1.334 . S
C2090 C2091 1.287 . S
C2091 C2090 1.287 . S
C2091 C2092 1.524 . S
C2091 H2094 0.999 . S
C2092 H2062 0.950 . S
C2092 C2091 1.524 . S
C2092 C2093 1.415 . S
C2093 H2063 0.950 . S
C2093 C2088 1.363 . S
C2093 C2092 1.415 . S
H2094 C2091 0.999 . S
H2095 C2076 0.913 . S
H2096 C2114 0.951 . S
H2097 C2116 0.951 . S
H2098 C2118 0.950 . S
H2099 C2119 0.950 . S
H2100 C2121 0.950 . S
H2101 C2124 0.950 . S
H2102 C2125 0.950 . S
H2103 C2127 0.950 . S
H2104 C2128 0.950 . S
H2105 C2129 0.951 . S
H2106 C2131 0.951 . S
H2107 C2133 0.950 . S
H2108 C2134 0.950 . S
H2109 C2136 0.950 . S
H2110 C2139 0.950 . S
H2111 C2140 0.950 . S
H2112 C2142 0.950 . S
H2113 C2143 0.950 . S
C2114 H2096 0.951 . S
C2114 C2115 1.366 . S
C2114 C2116 1.388 . S
C2115 C2114 1.366 . S
C2115 C2119 1.385 . S
C2116 H2097 0.951 . S
C2116 C2114 1.388 . S
C2116 C2117 1.366 . S
C2117 C2116 1.366 . S
C2117 C2118 1.414 . S
C2117 C2120 1.499 . S
C2118 H2098 0.950 . S
C2118 C2117 1.414 . S
C2118 C2119 1.374 . S
C2119 H2099 0.950 . S
C2119 C2115 1.385 . S
C2119 C2118 1.374 . S
C2120 C2117 1.499 . S
C2120 C2121 1.373 . S
C2120 C2122 1.389 . S
C2121 H2100 0.950 . S
C2121 C2120 1.373 . S
C2121 C2137 1.377 1_554 S
C2122 C2120 1.389 . S
C2122 C2123 1.524 . S
C2122 C2136 1.377 1_554 S
C2123 C2122 1.524 . S
C2123 C2124 1.397 . S
C2123 C2128 1.363 . S
C2124 H2101 0.950 . S
C2124 C2123 1.397 . S
C2124 C2125 1.334 . S
C2125 H2102 0.950 . S
C2125 C2124 1.334 . S
C2125 C2126 1.287 . S
C2126 C2125 1.287 . S
C2126 C2127 1.524 . S
C2126 H2145 0.913 . S
C2127 H2103 0.950 . S
C2127 C2126 1.524 . S
C2127 C2128 1.415 . S
C2128 H2104 0.950 . S
C2128 C2123 1.363 . S
C2128 C2127 1.415 . S
C2129 H2105 0.951 . S
C2129 C2130 1.366 . S
C2129 C2131 1.388 . S
C2130 C2129 1.366 . S
C2130 C2134 1.385 . S
C2131 H2106 0.951 . S
C2131 C2129 1.388 . S
C2131 C2132 1.366 . S
C2132 C2131 1.366 . S
C2132 C2133 1.414 . S
C2132 C2135 1.499 . S
C2133 H2107 0.950 . S
C2133 C2132 1.414 . S
C2133 C2134 1.374 . S
C2134 H2108 0.950 . S
C2134 C2130 1.385 . S
C2134 C2133 1.374 . S
C2135 C2132 1.499 . S
C2135 C2136 1.373 . S
C2135 C2137 1.389 . S
C2136 H2109 0.950 . S
C2136 C2122 1.377 1_556 S
C2136 C2135 1.373 . S
C2137 C2121 1.377 1_556 S
C2137 C2135 1.389 . S
C2137 C2138 1.524 . S
C2138 C2137 1.524 . S
C2138 C2139 1.397 . S
C2138 C2143 1.363 . S
C2139 H2110 0.950 . S
C2139 C2138 1.397 . S
C2139 C2140 1.334 . S
C2140 H2111 0.950 . S
C2140 C2139 1.334 . S
C2140 C2141 1.287 . S
C2141 C2140 1.287 . S
C2141 C2142 1.524 . S
C2141 H2144 0.999 . S
C2142 H2112 0.950 . S
C2142 C2141 1.524 . S
C2142 C2143 1.415 . S
C2143 H2113 0.950 . S
C2143 C2138 1.363 . S
C2143 C2142 1.415 . S
H2144 C2141 0.999 . S
H2145 C2126 0.913 . S
H2146 C2164 0.951 . S
H2147 C2166 0.951 . S
H2148 C2168 0.950 . S
H2149 C2169 0.950 . S
H2150 C2171 0.950 . S
H2151 C2174 0.950 . S
H2152 C2175 0.950 . S
H2153 C2177 0.950 . S
H2154 C2178 0.950 . S
H2155 C2179 0.951 . S
H2156 C2181 0.951 . S
H2157 C2183 0.950 . S
H2158 C2184 0.950 . S
H2159 C2186 0.950 . S
H2160 C2189 0.950 . S
H2161 C2190 0.950 . S
H2162 C2192 0.950 . S
H2163 C2193 0.950 . S
C2164 H2146 0.951 . S
C2164 C2165 1.366 . S
C2164 C2166 1.388 . S
C2165 C2164 1.366 . S
C2165 C2169 1.385 . S
C2166 H2147 0.951 . S
C2166 C2164 1.388 . S
C2166 C2167 1.366 . S
C2167 C2166 1.366 . S
C2167 C2168 1.414 . S
C2167 C2170 1.499 . S
C2168 H2148 0.950 . S
C2168 C2167 1.414 . S
C2168 C2169 1.374 . S
C2169 H2149 0.950 . S
C2169 C2165 1.385 . S
C2169 C2168 1.374 . S
C2170 C2167 1.499 . S
C2170 C2171 1.373 . S
C2170 C2172 1.389 . S
C2171 H2150 0.950 . S
C2171 C2170 1.373 . S
C2171 C2187 1.377 1_554 S
C2172 C2170 1.389 . S
C2172 C2173 1.524 . S
C2172 C2186 1.377 1_554 S
C2173 C2172 1.524 . S
C2173 C2174 1.397 . S
C2173 C2178 1.363 . S
C2174 H2151 0.950 . S
C2174 C2173 1.397 . S
C2174 C2175 1.334 . S
C2175 H2152 0.950 . S
C2175 C2174 1.334 . S
C2175 C2176 1.287 . S
C2176 C2175 1.287 . S
C2176 C2177 1.524 . S
C2176 H2195 0.913 . S
C2177 H2153 0.950 . S
C2177 C2176 1.524 . S
C2177 C2178 1.415 . S
C2178 H2154 0.950 . S
C2178 C2173 1.363 . S
C2178 C2177 1.415 . S
C2179 H2155 0.951 . S
C2179 C2180 1.366 . S
C2179 C2181 1.388 . S
C2180 C2179 1.366 . S
C2180 C2184 1.385 . S
C2181 H2156 0.951 . S
C2181 C2179 1.388 . S
C2181 C2182 1.366 . S
C2182 C2181 1.366 . S
C2182 C2183 1.414 . S
C2182 C2185 1.499 . S
C2183 H2157 0.950 . S
C2183 C2182 1.414 . S
C2183 C2184 1.374 . S
C2184 H2158 0.950 . S
C2184 C2180 1.385 . S
C2184 C2183 1.374 . S
C2185 C2182 1.499 . S
C2185 C2186 1.373 . S
C2185 C2187 1.389 . S
C2186 H2159 0.950 . S
C2186 C2172 1.377 1_556 S
C2186 C2185 1.373 . S
C2187 C2171 1.377 1_556 S
C2187 C2185 1.389 . S
C2187 C2188 1.524 . S
C2188 C2187 1.524 . S
C2188 C2189 1.397 . S
C2188 C2193 1.363 . S
C2189 H2160 0.950 . S
C2189 C2188 1.397 . S
C2189 C2190 1.334 . S
C2190 H2161 0.950 . S
C2190 C2189 1.334 . S
C2190 C2191 1.287 . S
C2191 C2190 1.287 . S
C2191 C2192 1.524 . S
C2191 H2194 0.999 . S
C2192 H2162 0.950 . S
C2192 C2191 1.524 . S
C2192 C2193 1.415 . S
C2193 H2163 0.950 . S
C2193 C2188 1.363 . S
C2193 C2192 1.415 . S
H2194 C2191 0.999 . S
H2195 C2176 0.913 . S
H2196 C2214 0.951 . S
H2197 C2216 0.951 . S
H2198 C2218 0.950 . S
H2199 C2219 0.950 . S
H2200 C2221 0.950 . S
H2201 C2224 0.950 . S
H2202 C2225 0.950 . S
H2203 C2227 0.950 . S
H2204 C2228 0.950 . S
H2205 C2229 0.951 . S
H2206 C2231 0.951 . S
H2207 C2233 0.950 . S
H2208 C2234 0.950 . S
H2209 C2236 0.950 . S
H2210 C2239 0.950 . S
H2211 C2240 0.950 . S
H2212 C2242 0.950 . S
H2213 C2243 0.950 . S
C2214 H2196 0.951 . S
C2214 C2215 1.366 . S
C2214 C2216 1.388 . S
C2215 C2214 1.366 . S
C2215 C2219 1.385 . S
C2216 H2197 0.951 . S
C2216 C2214 1.388 . S
C2216 C2217 1.366 . S
C2217 C2216 1.366 . S
C2217 C2218 1.414 . S
C2217 C2220 1.499 . S
C2218 H2198 0.950 . S
C2218 C2217 1.414 . S
C2218 C2219 1.374 . S
C2219 H2199 0.950 . S
C2219 C2215 1.385 . S
C2219 C2218 1.374 . S
C2220 C2217 1.499 . S
C2220 C2221 1.373 . S
C2220 C2222 1.389 . S
C2221 H2200 0.950 . S
C2221 C2220 1.373 . S
C2221 C2237 1.377 . S
C2222 C2220 1.389 . S
C2222 C2223 1.524 . S
C2222 C2236 1.377 . S
C2223 C2222 1.524 . S
C2223 C2224 1.397 . S
C2223 C2228 1.363 . S
C2224 H2201 0.950 . S
C2224 C2223 1.397 . S
C2224 C2225 1.334 . S
C2225 H2202 0.950 . S
C2225 C2224 1.334 . S
C2225 C2226 1.287 . S
C2226 C2225 1.287 . S
C2226 C2227 1.524 . S
C2226 H2245 0.913 . S
C2227 H2203 0.950 . S
C2227 C2226 1.524 . S
C2227 C2228 1.415 . S
C2228 H2204 0.950 . S
C2228 C2223 1.363 . S
C2228 C2227 1.415 . S
C2229 H2205 0.951 . S
C2229 C2230 1.366 . S
C2229 C2231 1.388 . S
C2230 C2229 1.366 . S
C2230 C2234 1.385 . S
C2231 H2206 0.951 . S
C2231 C2229 1.388 . S
C2231 C2232 1.366 . S
C2232 C2231 1.366 . S
C2232 C2233 1.414 . S
C2232 C2235 1.499 . S
C2233 H2207 0.950 . S
C2233 C2232 1.414 . S
C2233 C2234 1.374 . S
C2234 H2208 0.950 . S
C2234 C2230 1.385 . S
C2234 C2233 1.374 . S
C2235 C2232 1.499 . S
C2235 C2236 1.373 . S
C2235 C2237 1.389 . S
C2236 H2209 0.950 . S
C2236 C2222 1.377 . S
C2236 C2235 1.373 . S
C2237 C2221 1.377 . S
C2237 C2235 1.389 . S
C2237 C2238 1.524 . S
C2238 C2237 1.524 . S
C2238 C2239 1.397 . S
C2238 C2243 1.363 . S
C2239 H2210 0.950 . S
C2239 C2238 1.397 . S
C2239 C2240 1.334 . S
C2240 H2211 0.950 . S
C2240 C2239 1.334 . S
C2240 C2241 1.287 . S
C2241 C2240 1.287 . S
C2241 C2242 1.524 . S
C2241 H2244 0.999 . S
C2242 H2212 0.950 . S
C2242 C2241 1.524 . S
C2242 C2243 1.415 . S
C2243 H2213 0.950 . S
C2243 C2238 1.363 . S
C2243 C2242 1.415 . S
H2244 C2241 0.999 . S
H2245 C2226 0.913 . S
H2246 C2264 0.951 . S
H2247 C2266 0.951 . S
H2248 C2268 0.950 . S
H2249 C2269 0.950 . S
H2250 C2271 0.950 . S
H2251 C2274 0.950 . S
H2252 C2275 0.950 . S
H2253 C2277 0.950 . S
H2254 C2278 0.950 . S
H2255 C2279 0.951 . S
H2256 C2281 0.951 . S
H2257 C2283 0.950 . S
H2258 C2284 0.950 . S
H2259 C2286 0.950 . S
H2260 C2289 0.950 . S
H2261 C2290 0.950 . S
H2262 C2292 0.950 . S
H2263 C2293 0.950 . S
C2264 H2246 0.951 . S
C2264 C2265 1.366 . S
C2264 C2266 1.388 . S
C2265 C2264 1.366 . S
C2265 C2269 1.385 . S
C2266 H2247 0.951 . S
C2266 C2264 1.388 . S
C2266 C2267 1.366 . S
C2267 C2266 1.366 . S
C2267 C2268 1.414 . S
C2267 C2270 1.499 . S
C2268 H2248 0.950 . S
C2268 C2267 1.414 . S
C2268 C2269 1.374 . S
C2269 H2249 0.950 . S
C2269 C2265 1.385 . S
C2269 C2268 1.374 . S
C2270 C2267 1.499 . S
C2270 C2271 1.373 . S
C2270 C2272 1.389 . S
C2271 H2250 0.950 . S
C2271 C2270 1.373 . S
C2271 C2287 1.377 . S
C2272 C2270 1.389 . S
C2272 C2273 1.524 . S
C2272 C2286 1.377 . S
C2273 C2272 1.524 . S
C2273 C2274 1.397 . S
C2273 C2278 1.363 . S
C2274 H2251 0.950 . S
C2274 C2273 1.397 . S
C2274 C2275 1.334 . S
C2275 H2252 0.950 . S
C2275 C2274 1.334 . S
C2275 C2276 1.287 . S
C2276 C2275 1.287 . S
C2276 C2277 1.524 . S
C2276 H2295 0.913 . S
C2277 H2253 0.950 . S
C2277 C2276 1.524 . S
C2277 C2278 1.415 . S
C2278 H2254 0.950 . S
C2278 C2273 1.363 . S
C2278 C2277 1.415 . S
C2279 H2255 0.951 . S
C2279 C2280 1.366 . S
C2279 C2281 1.388 . S
C2280 C2279 1.366 . S
C2280 C2284 1.385 . S
C2281 H2256 0.951 . S
C2281 C2279 1.388 . S
C2281 C2282 1.366 . S
C2282 C2281 1.366 . S
C2282 C2283 1.414 . S
C2282 C2285 1.499 . S
C2283 H2257 0.950 . S
C2283 C2282 1.414 . S
C2283 C2284 1.374 . S
C2284 H2258 0.950 . S
C2284 C2280 1.385 . S
C2284 C2283 1.374 . S
C2285 C2282 1.499 . S
C2285 C2286 1.373 . S
C2285 C2287 1.389 . S
C2286 H2259 0.950 . S
C2286 C2272 1.377 . S
C2286 C2285 1.373 . S
C2287 C2271 1.377 . S
C2287 C2285 1.389 . S
C2287 C2288 1.524 . S
C2288 C2287 1.524 . S
C2288 C2289 1.397 . S
C2288 C2293 1.363 . S
C2289 H2260 0.950 . S
C2289 C2288 1.397 . S
C2289 C2290 1.334 . S
C2290 H2261 0.950 . S
C2290 C2289 1.334 . S
C2290 C2291 1.287 . S
C2291 C2290 1.287 . S
C2291 C2292 1.524 . S
C2291 H2294 0.999 . S
C2292 H2262 0.950 . S
C2292 C2291 1.524 . S
C2292 C2293 1.415 . S
C2293 H2263 0.950 . S
C2293 C2288 1.363 . S
C2293 C2292 1.415 . S
H2294 C2291 0.999 . S
H2295 C2276 0.913 . S
H2296 C2314 0.951 . S
H2297 C2316 0.951 . S
H2298 C2318 0.950 . S
H2299 C2319 0.950 . S
H2300 C2321 0.950 . S
H2301 C2324 0.950 . S
H2302 C2325 0.950 . S
H2303 C2327 0.950 . S
H2304 C2328 0.950 . S
H2305 C2329 0.951 . S
H2306 C2331 0.951 . S
H2307 C2333 0.950 . S
H2308 C2334 0.950 . S
H2309 C2336 0.950 . S
H2310 C2339 0.950 . S
H2311 C2340 0.950 . S
H2312 C2342 0.950 . S
H2313 C2343 0.950 . S
C2314 H2296 0.951 . S
C2314 C2315 1.366 . S
C2314 C2316 1.388 . S
C2315 C2314 1.366 . S
C2315 C2319 1.385 . S
C2316 H2297 0.951 . S
C2316 C2314 1.388 . S
C2316 C2317 1.366 . S
C2317 C2316 1.366 . S
C2317 C2318 1.414 . S
C2317 C2320 1.499 . S
C2318 H2298 0.950 . S
C2318 C2317 1.414 . S
C2318 C2319 1.374 . S
C2319 H2299 0.950 . S
C2319 C2315 1.385 . S
C2319 C2318 1.374 . S
C2320 C2317 1.499 . S
C2320 C2321 1.373 . S
C2320 C2322 1.389 . S
C2321 H2300 0.950 . S
C2321 C2320 1.373 . S
C2321 C2337 1.377 . S
C2322 C2320 1.389 . S
C2322 C2323 1.524 . S
C2322 C2336 1.377 . S
C2323 C2322 1.524 . S
C2323 C2324 1.397 . S
C2323 C2328 1.363 . S
C2324 H2301 0.950 . S
C2324 C2323 1.397 . S
C2324 C2325 1.334 . S
C2325 H2302 0.950 . S
C2325 C2324 1.334 . S
C2325 C2326 1.287 . S
C2326 C2325 1.287 . S
C2326 C2327 1.524 . S
C2326 H2345 0.913 . S
C2327 H2303 0.950 . S
C2327 C2326 1.524 . S
C2327 C2328 1.415 . S
C2328 H2304 0.950 . S
C2328 C2323 1.363 . S
C2328 C2327 1.415 . S
C2329 H2305 0.951 . S
C2329 C2330 1.366 . S
C2329 C2331 1.388 . S
C2330 C2329 1.366 . S
C2330 C2334 1.385 . S
C2331 H2306 0.951 . S
C2331 C2329 1.388 . S
C2331 C2332 1.366 . S
C2332 C2331 1.366 . S
C2332 C2333 1.414 . S
C2332 C2335 1.499 . S
C2333 H2307 0.950 . S
C2333 C2332 1.414 . S
C2333 C2334 1.374 . S
C2334 H2308 0.950 . S
C2334 C2330 1.385 . S
C2334 C2333 1.374 . S
C2335 C2332 1.499 . S
C2335 C2336 1.373 . S
C2335 C2337 1.389 . S
C2336 H2309 0.950 . S
C2336 C2322 1.377 . S
C2336 C2335 1.373 . S
C2337 C2321 1.377 . S
C2337 C2335 1.389 . S
C2337 C2338 1.524 . S
C2338 C2337 1.524 . S
C2338 C2339 1.397 . S
C2338 C2343 1.363 . S
C2339 H2310 0.950 . S
C2339 C2338 1.397 . S
C2339 C2340 1.334 . S
C2340 H2311 0.950 . S
C2340 C2339 1.334 . S
C2340 C2341 1.287 . S
C2341 C2340 1.287 . S
C2341 C2342 1.524 . S
C2341 H2344 0.999 . S
C2342 H2312 0.950 . S
C2342 C2341 1.524 . S
C2342 C2343 1.415 . S
C2343 H2313 0.950 . S
C2343 C2338 1.363 . S
C2343 C2342 1.415 . S
H2344 C2341 0.999 . S
H2345 C2326 0.913 . S
H2346 C2364 0.951 . S
H2347 C2366 0.951 . S
H2348 C2368 0.950 . S
H2349 C2369 0.950 . S
H2350 C2371 0.950 . S
H2351 C2374 0.950 . S
H2352 C2375 0.950 . S
H2353 C2377 0.950 . S
H2354 C2378 0.950 . S
H2355 C2379 0.951 . S
H2356 C2381 0.951 . S
H2357 C2383 0.950 . S
H2358 C2384 0.950 . S
H2359 C2386 0.950 . S
H2360 C2389 0.950 . S
H2361 C2390 0.950 . S
H2362 C2392 0.950 . S
H2363 C2393 0.950 . S
C2364 H2346 0.951 . S
C2364 C2365 1.366 . S
C2364 C2366 1.388 . S
C2365 C2364 1.366 . S
C2365 C2369 1.385 . S
C2366 H2347 0.951 . S
C2366 C2364 1.388 . S
C2366 C2367 1.366 . S
C2367 C2366 1.366 . S
C2367 C2368 1.414 . S
C2367 C2370 1.499 . S
C2368 H2348 0.950 . S
C2368 C2367 1.414 . S
C2368 C2369 1.374 . S
C2369 H2349 0.950 . S
C2369 C2365 1.385 . S
C2369 C2368 1.374 . S
C2370 C2367 1.499 . S
C2370 C2371 1.373 . S
C2370 C2372 1.389 . S
C2371 H2350 0.950 . S
C2371 C2370 1.373 . S
C2371 C2387 1.377 . S
C2372 C2370 1.389 . S
C2372 C2373 1.524 . S
C2372 C2386 1.377 . S
C2373 C2372 1.524 . S
C2373 C2374 1.397 . S
C2373 C2378 1.363 . S
C2374 H2351 0.950 . S
C2374 C2373 1.397 . S
C2374 C2375 1.334 . S
C2375 H2352 0.950 . S
C2375 C2374 1.334 . S
C2375 C2376 1.287 . S
C2376 C2375 1.287 . S
C2376 C2377 1.524 . S
C2376 H2395 0.913 . S
C2377 H2353 0.950 . S
C2377 C2376 1.524 . S
C2377 C2378 1.415 . S
C2378 H2354 0.950 . S
C2378 C2373 1.363 . S
C2378 C2377 1.415 . S
C2379 H2355 0.951 . S
C2379 C2380 1.366 . S
C2379 C2381 1.388 . S
C2380 C2379 1.366 . S
C2380 C2384 1.385 . S
C2381 H2356 0.951 . S
C2381 C2379 1.388 . S
C2381 C2382 1.366 . S
C2382 C2381 1.366 . S
C2382 C2383 1.414 . S
C2382 C2385 1.499 . S
C2383 H2357 0.950 . S
C2383 C2382 1.414 . S
C2383 C2384 1.374 . S
C2384 H2358 0.950 . S
C2384 C2380 1.385 . S
C2384 C2383 1.374 . S
C2385 C2382 1.499 . S
C2385 C2386 1.373 . S
C2385 C2387 1.389 . S
C2386 H2359 0.950 . S
C2386 C2372 1.377 . S
C2386 C2385 1.373 . S
C2387 C2371 1.377 . S
C2387 C2385 1.389 . S
C2387 C2388 1.524 . S
C2388 C2387 1.524 . S
C2388 C2389 1.397 . S
C2388 C2393 1.363 . S
C2389 H2360 0.950 . S
C2389 C2388 1.397 . S
C2389 C2390 1.334 . S
C2390 H2361 0.950 . S
C2390 C2389 1.334 . S
C2390 C2391 1.287 . S
C2391 C2390 1.287 . S
C2391 C2392 1.524 . S
C2391 H2394 0.999 . S
C2392 H2362 0.950 . S
C2392 C2391 1.524 . S
C2392 C2393 1.415 . S
C2393 H2363 0.950 . S
C2393 C2388 1.363 . S
C2393 C2392 1.415 . S
H2394 C2391 0.999 . S
H2395 C2376 0.913 . S
H2396 C2414 0.951 . S
H2397 C2416 0.951 . S
H2398 C2418 0.950 . S
H2399 C2419 0.950 . S
H2400 C2421 0.950 . S
H2401 C2424 0.950 . S
H2402 C2425 0.950 . S
H2403 C2427 0.950 . S
H2404 C2428 0.950 . S
H2405 C2429 0.951 . S
H2406 C2431 0.951 . S
H2407 C2433 0.950 . S
H2408 C2434 0.950 . S
H2409 C2436 0.950 . S
H2410 C2439 0.950 . S
H2411 C2440 0.950 . S
H2412 C2442 0.950 . S
H2413 C2443 0.950 . S
C2414 H2396 0.951 . S
C2414 C2415 1.366 . S
C2414 C2416 1.388 . S
C2415 C2414 1.366 . S
C2415 C2419 1.385 . S
C2416 H2397 0.951 . S
C2416 C2414 1.388 . S
C2416 C2417 1.366 . S
C2417 C2416 1.366 . S
C2417 C2418 1.414 . S
C2417 C2420 1.499 . S
C2418 H2398 0.950 . S
C2418 C2417 1.414 . S
C2418 C2419 1.374 . S
C2419 H2399 0.950 . S
C2419 C2415 1.385 . S
C2419 C2418 1.374 . S
C2420 C2417 1.499 . S
C2420 C2421 1.373 . S
C2420 C2422 1.389 . S
C2421 H2400 0.950 . S
C2421 C2420 1.373 . S
C2421 C2437 1.377 . S
C2422 C2420 1.389 . S
C2422 C2423 1.524 . S
C2422 C2436 1.377 . S
C2423 C2422 1.524 . S
C2423 C2424 1.397 . S
C2423 C2428 1.363 . S
C2424 H2401 0.950 . S
C2424 C2423 1.397 . S
C2424 C2425 1.334 . S
C2425 H2402 0.950 . S
C2425 C2424 1.334 . S
C2425 C2426 1.287 . S
C2426 C2425 1.287 . S
C2426 C2427 1.524 . S
C2426 H2445 0.913 . S
C2427 H2403 0.950 . S
C2427 C2426 1.524 . S
C2427 C2428 1.415 . S
C2428 H2404 0.950 . S
C2428 C2423 1.363 . S
C2428 C2427 1.415 . S
C2429 H2405 0.951 . S
C2429 C2430 1.366 . S
C2429 C2431 1.388 . S
C2430 C2429 1.366 . S
C2430 C2434 1.385 . S
C2431 H2406 0.951 . S
C2431 C2429 1.388 . S
C2431 C2432 1.366 . S
C2432 C2431 1.366 . S
C2432 C2433 1.414 . S
C2432 C2435 1.499 . S
C2433 H2407 0.950 . S
C2433 C2432 1.414 . S
C2433 C2434 1.374 . S
C2434 H2408 0.950 . S
C2434 C2430 1.385 . S
C2434 C2433 1.374 . S
C2435 C2432 1.499 . S
C2435 C2436 1.373 . S
C2435 C2437 1.389 . S
C2436 H2409 0.950 . S
C2436 C2422 1.377 . S
C2436 C2435 1.373 . S
C2437 C2421 1.377 . S
C2437 C2435 1.389 . S
C2437 C2438 1.524 . S
C2438 C2437 1.524 . S
C2438 C2439 1.397 . S
C2438 C2443 1.363 . S
C2439 H2410 0.950 . S
C2439 C2438 1.397 . S
C2439 C2440 1.334 . S
C2440 H2411 0.950 . S
C2440 C2439 1.334 . S
C2440 C2441 1.287 . S
C2441 C2440 1.287 . S
C2441 C2442 1.524 . S
C2441 H2444 0.999 . S
C2442 H2412 0.950 . S
C2442 C2441 1.524 . S
C2442 C2443 1.415 . S
C2443 H2413 0.950 . S
C2443 C2438 1.363 . S
C2443 C2442 1.415 . S
H2444 C2441 0.999 . S
H2445 C2426 0.913 . S
H2446 C2464 0.951 . S
H2447 C2466 0.951 . S
H2448 C2468 0.950 . S
H2449 C2469 0.950 . S
H2450 C2471 0.950 . S
H2451 C2474 0.950 . S
H2452 C2475 0.950 . S
H2453 C2477 0.950 . S
H2454 C2478 0.950 . S
H2455 C2479 0.951 . S
H2456 C2481 0.951 . S
H2457 C2483 0.950 . S
H2458 C2484 0.950 . S
H2459 C2486 0.950 . S
H2460 C2489 0.950 . S
H2461 C2490 0.950 . S
H2462 C2492 0.950 . S
H2463 C2493 0.950 . S
C2464 H2446 0.951 . S
C2464 C2465 1.366 . S
C2464 C2466 1.388 . S
C2465 C2464 1.366 . S
C2465 C2469 1.385 . S
C2466 H2447 0.951 . S
C2466 C2464 1.388 . S
C2466 C2467 1.366 . S
C2467 C2466 1.366 . S
C2467 C2468 1.414 . S
C2467 C2470 1.499 . S
C2468 H2448 0.950 . S
C2468 C2467 1.414 . S
C2468 C2469 1.374 . S
C2469 H2449 0.950 . S
C2469 C2465 1.385 . S
C2469 C2468 1.374 . S
C2470 C2467 1.499 . S
C2470 C2471 1.373 . S
C2470 C2472 1.389 . S
C2471 H2450 0.950 . S
C2471 C2470 1.373 . S
C2471 C2487 1.377 . S
C2472 C2470 1.389 . S
C2472 C2473 1.524 . S
C2472 C2486 1.377 . S
C2473 C2472 1.524 . S
C2473 C2474 1.397 . S
C2473 C2478 1.363 . S
C2474 H2451 0.950 . S
C2474 C2473 1.397 . S
C2474 C2475 1.334 . S
C2475 H2452 0.950 . S
C2475 C2474 1.334 . S
C2475 C2476 1.287 . S
C2476 C2475 1.287 . S
C2476 C2477 1.524 . S
C2476 H2495 0.913 . S
C2477 H2453 0.950 . S
C2477 C2476 1.524 . S
C2477 C2478 1.415 . S
C2478 H2454 0.950 . S
C2478 C2473 1.363 . S
C2478 C2477 1.415 . S
C2479 H2455 0.951 . S
C2479 C2480 1.366 . S
C2479 C2481 1.388 . S
C2480 C2479 1.366 . S
C2480 C2484 1.385 . S
C2481 H2456 0.951 . S
C2481 C2479 1.388 . S
C2481 C2482 1.366 . S
C2482 C2481 1.366 . S
C2482 C2483 1.414 . S
C2482 C2485 1.499 . S
C2483 H2457 0.950 . S
C2483 C2482 1.414 . S
C2483 C2484 1.374 . S
C2484 H2458 0.950 . S
C2484 C2480 1.385 . S
C2484 C2483 1.374 . S
C2485 C2482 1.499 . S
C2485 C2486 1.373 . S
C2485 C2487 1.389 . S
C2486 H2459 0.950 . S
C2486 C2472 1.377 . S
C2486 C2485 1.373 . S
C2487 C2471 1.377 . S
C2487 C2485 1.389 . S
C2487 C2488 1.524 . S
C2488 C2487 1.524 . S
C2488 C2489 1.397 . S
C2488 C2493 1.363 . S
C2489 H2460 0.950 . S
C2489 C2488 1.397 . S
C2489 C2490 1.334 . S
C2490 H2461 0.950 . S
C2490 C2489 1.334 . S
C2490 C2491 1.287 . S
C2491 C2490 1.287 . S
C2491 C2492 1.524 . S
C2491 H2494 0.999 . S
C2492 H2462 0.950 . S
C2492 C2491 1.524 . S
C2492 C2493 1.415 . S
C2493 H2463 0.950 . S
C2493 C2488 1.363 . S
C2493 C2492 1.415 . S
H2494 C2491 0.999 . S
H2495 C2476 0.913 . S
H2496 C2514 0.951 . S
H2497 C2516 0.951 . S
H2498 C2518 0.950 . S
H2499 C2519 0.950 . S
H2500 C2521 0.950 . S
H2501 C2524 0.950 . S
H2502 C2525 0.950 . S
H2503 C2527 0.950 . S
H2504 C2528 0.950 . S
H2505 C2529 0.951 . S
H2506 C2531 0.951 . S
H2507 C2533 0.950 . S
H2508 C2534 0.950 . S
H2509 C2536 0.950 . S
H2510 C2539 0.950 . S
H2511 C2540 0.950 . S
H2512 C2542 0.950 . S
H2513 C2543 0.950 . S
C2514 H2496 0.951 . S
C2514 C2515 1.366 . S
C2514 C2516 1.388 . S
C2515 C2514 1.366 . S
C2515 C2519 1.385 . S
C2516 H2497 0.951 . S
C2516 C2514 1.388 . S
C2516 C2517 1.366 . S
C2517 C2516 1.366 . S
C2517 C2518 1.414 . S
C2517 C2520 1.499 . S
C2518 H2498 0.950 . S
C2518 C2517 1.414 . S
C2518 C2519 1.374 . S
C2519 H2499 0.950 . S
C2519 C2515 1.385 . S
C2519 C2518 1.374 . S
C2520 C2517 1.499 . S
C2520 C2521 1.373 . S
C2520 C2522 1.389 . S
C2521 H2500 0.950 . S
C2521 C2520 1.373 . S
C2521 C2537 1.377 . S
C2522 C2520 1.389 . S
C2522 C2523 1.524 . S
C2522 C2536 1.377 . S
C2523 C2522 1.524 . S
C2523 C2524 1.397 . S
C2523 C2528 1.363 . S
C2524 H2501 0.950 . S
C2524 C2523 1.397 . S
C2524 C2525 1.334 . S
C2525 H2502 0.950 . S
C2525 C2524 1.334 . S
C2525 C2526 1.287 . S
C2526 C2525 1.287 . S
C2526 C2527 1.524 . S
C2526 H2545 0.913 . S
C2527 H2503 0.950 . S
C2527 C2526 1.524 . S
C2527 C2528 1.415 . S
C2528 H2504 0.950 . S
C2528 C2523 1.363 . S
C2528 C2527 1.415 . S
C2529 H2505 0.951 . S
C2529 C2530 1.366 . S
C2529 C2531 1.388 . S
C2530 C2529 1.366 . S
C2530 C2534 1.385 . S
C2531 H2506 0.951 . S
C2531 C2529 1.388 . S
C2531 C2532 1.366 . S
C2532 C2531 1.366 . S
C2532 C2533 1.414 . S
C2532 C2535 1.499 . S
C2533 H2507 0.950 . S
C2533 C2532 1.414 . S
C2533 C2534 1.374 . S
C2534 H2508 0.950 . S
C2534 C2530 1.385 . S
C2534 C2533 1.374 . S
C2535 C2532 1.499 . S
C2535 C2536 1.373 . S
C2535 C2537 1.389 . S
C2536 H2509 0.950 . S
C2536 C2522 1.377 . S
C2536 C2535 1.373 . S
C2537 C2521 1.377 . S
C2537 C2535 1.389 . S
C2537 C2538 1.524 . S
C2538 C2537 1.524 . S
C2538 C2539 1.397 . S
C2538 C2543 1.363 . S
C2539 H2510 0.950 . S
C2539 C2538 1.397 . S
C2539 C2540 1.334 . S
C2540 H2511 0.950 . S
C2540 C2539 1.334 . S
C2540 C2541 1.287 . S
C2541 C2540 1.287 . S
C2541 C2542 1.524 . S
C2541 H2544 0.999 . S
C2542 H2512 0.950 . S
C2542 C2541 1.524 . S
C2542 C2543 1.415 . S
C2543 H2513 0.950 . S
C2543 C2538 1.363 . S
C2543 C2542 1.415 . S
H2544 C2541 0.999 . S
H2545 C2526 0.913 . S
H2546 C2564 0.951 . S
H2547 C2566 0.951 . S
H2548 C2568 0.950 . S
H2549 C2569 0.950 . S
H2550 C2571 0.950 . S
H2551 C2574 0.950 . S
H2552 C2575 0.950 . S
H2553 C2577 0.950 . S
H2554 C2578 0.950 . S
H2555 C2579 0.951 . S
H2556 C2581 0.951 . S
H2557 C2583 0.950 . S
H2558 C2584 0.950 . S
H2559 C2586 0.950 . S
H2560 C2589 0.950 . S
H2561 C2590 0.950 . S
H2562 C2592 0.950 . S
H2563 C2593 0.950 . S
C2564 H2546 0.951 . S
C2564 C2565 1.366 . S
C2564 C2566 1.388 . S
C2565 C2564 1.366 . S
C2565 C2569 1.385 . S
C2566 H2547 0.951 . S
C2566 C2564 1.388 . S
C2566 C2567 1.366 . S
C2567 C2566 1.366 . S
C2567 C2568 1.414 . S
C2567 C2570 1.499 . S
C2568 H2548 0.950 . S
C2568 C2567 1.414 . S
C2568 C2569 1.374 . S
C2569 H2549 0.950 . S
C2569 C2565 1.385 . S
C2569 C2568 1.374 . S
C2570 C2567 1.499 . S
C2570 C2571 1.373 . S
C2570 C2572 1.389 . S
C2571 H2550 0.950 . S
C2571 C2570 1.373 . S
C2571 C2587 1.377 . S
C2572 C2570 1.389 . S
C2572 C2573 1.524 . S
C2572 C2586 1.377 . S
C2573 C2572 1.524 . S
C2573 C2574 1.397 . S
C2573 C2578 1.363 . S
C2574 H2551 0.950 . S
C2574 C2573 1.397 . S
C2574 C2575 1.334 . S
C2575 H2552 0.950 . S
C2575 C2574 1.334 . S
C2575 C2576 1.287 . S
C2576 C2575 1.287 . S
C2576 C2577 1.524 . S
C2576 H2595 0.913 . S
C2577 H2553 0.950 . S
C2577 C2576 1.524 . S
C2577 C2578 1.415 . S
C2578 H2554 0.950 . S
C2578 C2573 1.363 . S
C2578 C2577 1.415 . S
C2579 H2555 0.951 . S
C2579 C2580 1.366 . S
C2579 C2581 1.388 . S
C2580 C2579 1.366 . S
C2580 C2584 1.385 . S
C2581 H2556 0.951 . S
C2581 C2579 1.388 . S
C2581 C2582 1.366 . S
C2582 C2581 1.366 . S
C2582 C2583 1.414 . S
C2582 C2585 1.499 . S
C2583 H2557 0.950 . S
C2583 C2582 1.414 . S
C2583 C2584 1.374 . S
C2584 H2558 0.950 . S
C2584 C2580 1.385 . S
C2584 C2583 1.374 . S
C2585 C2582 1.499 . S
C2585 C2586 1.373 . S
C2585 C2587 1.389 . S
C2586 H2559 0.950 . S
C2586 C2572 1.377 . S
C2586 C2585 1.373 . S
C2587 C2571 1.377 . S
C2587 C2585 1.389 . S
C2587 C2588 1.524 . S
C2588 C2587 1.524 . S
C2588 C2589 1.397 . S
C2588 C2593 1.363 . S
C2589 H2560 0.950 . S
C2589 C2588 1.397 . S
C2589 C2590 1.334 . S
C2590 H2561 0.950 . S
C2590 C2589 1.334 . S
C2590 C2591 1.287 . S
C2591 C2590 1.287 . S
C2591 C2592 1.524 . S
C2591 H2594 0.999 . S
C2592 H2562 0.950 . S
C2592 C2591 1.524 . S
C2592 C2593 1.415 . S
C2593 H2563 0.950 . S
C2593 C2588 1.363 . S
C2593 C2592 1.415 . S
H2594 C2591 0.999 . S
H2595 C2576 0.913 . S
H2596 C2614 0.951 . S
H2597 C2616 0.951 . S
H2598 C2618 0.950 . S
H2599 C2619 0.950 . S
H2600 C2621 0.950 . S
H2601 C2624 0.950 . S
H2602 C2625 0.950 . S
H2603 C2627 0.950 . S
H2604 C2628 0.950 . S
H2605 C2629 0.951 . S
H2606 C2631 0.951 . S
H2607 C2633 0.950 . S
H2608 C2634 0.950 . S
H2609 C2636 0.950 . S
H2610 C2639 0.950 . S
H2611 C2640 0.950 . S
H2612 C2642 0.950 . S
H2613 C2643 0.950 . S
C2614 H2596 0.951 . S
C2614 C2615 1.366 . S
C2614 C2616 1.388 . S
C2615 C2614 1.366 . S
C2615 C2619 1.385 . S
C2616 H2597 0.951 . S
C2616 C2614 1.388 . S
C2616 C2617 1.366 . S
C2617 C2616 1.366 . S
C2617 C2618 1.414 . S
C2617 C2620 1.499 . S
C2618 H2598 0.950 . S
C2618 C2617 1.414 . S
C2618 C2619 1.374 . S
C2619 H2599 0.950 . S
C2619 C2615 1.385 . S
C2619 C2618 1.374 . S
C2620 C2617 1.499 . S
C2620 C2621 1.373 . S
C2620 C2622 1.389 . S
C2621 H2600 0.950 . S
C2621 C2620 1.373 . S
C2621 C2637 1.377 . S
C2622 C2620 1.389 . S
C2622 C2623 1.524 . S
C2622 C2636 1.377 . S
C2623 C2622 1.524 . S
C2623 C2624 1.397 . S
C2623 C2628 1.363 . S
C2624 H2601 0.950 . S
C2624 C2623 1.397 . S
C2624 C2625 1.334 . S
C2625 H2602 0.950 . S
C2625 C2624 1.334 . S
C2625 C2626 1.287 . S
C2626 C2625 1.287 . S
C2626 C2627 1.524 . S
C2626 H2645 0.913 . S
C2627 H2603 0.950 . S
C2627 C2626 1.524 . S
C2627 C2628 1.415 . S
C2628 H2604 0.950 . S
C2628 C2623 1.363 . S
C2628 C2627 1.415 . S
C2629 H2605 0.951 . S
C2629 C2630 1.366 . S
C2629 C2631 1.388 . S
C2630 C2629 1.366 . S
C2630 C2634 1.385 . S
C2631 H2606 0.951 . S
C2631 C2629 1.388 . S
C2631 C2632 1.366 . S
C2632 C2631 1.366 . S
C2632 C2633 1.414 . S
C2632 C2635 1.499 . S
C2633 H2607 0.950 . S
C2633 C2632 1.414 . S
C2633 C2634 1.374 . S
C2634 H2608 0.950 . S
C2634 C2630 1.385 . S
C2634 C2633 1.374 . S
C2635 C2632 1.499 . S
C2635 C2636 1.373 . S
C2635 C2637 1.389 . S
C2636 H2609 0.950 . S
C2636 C2622 1.377 . S
C2636 C2635 1.373 . S
C2637 C2621 1.377 . S
C2637 C2635 1.389 . S
C2637 C2638 1.524 . S
C2638 C2637 1.524 . S
C2638 C2639 1.397 . S
C2638 C2643 1.363 . S
C2639 H2610 0.950 . S
C2639 C2638 1.397 . S
C2639 C2640 1.334 . S
C2640 H2611 0.950 . S
C2640 C2639 1.334 . S
C2640 C2641 1.287 . S
C2641 C2640 1.287 . S
C2641 C2642 1.524 . S
C2641 H2644 0.999 . S
C2642 H2612 0.950 . S
C2642 C2641 1.524 . S
C2642 C2643 1.415 . S
C2643 H2613 0.950 . S
C2643 C2638 1.363 . S
C2643 C2642 1.415 . S
H2644 C2641 0.999 . S
H2645 C2626 0.913 . S
H2646 C2664 0.951 . S
H2647 C2666 0.951 . S
H2648 C2668 0.950 . S
H2649 C2669 0.950 . S
H2650 C2671 0.950 . S
H2651 C2674 0.950 . S
H2652 C2675 0.950 . S
H2653 C2677 0.950 . S
H2654 C2678 0.950 . S
H2655 C2679 0.951 . S
H2656 C2681 0.951 . S
H2657 C2683 0.950 . S
H2658 C2684 0.950 . S
H2659 C2686 0.950 . S
H2660 C2689 0.950 . S
H2661 C2690 0.950 . S
H2662 C2692 0.950 . S
H2663 C2693 0.950 . S
C2664 H2646 0.951 . S
C2664 C2665 1.366 . S
C2664 C2666 1.388 . S
C2665 C2664 1.366 . S
C2665 C2669 1.385 . S
C2666 H2647 0.951 . S
C2666 C2664 1.388 . S
C2666 C2667 1.366 . S
C2667 C2666 1.366 . S
C2667 C2668 1.414 . S
C2667 C2670 1.499 . S
C2668 H2648 0.950 . S
C2668 C2667 1.414 . S
C2668 C2669 1.374 . S
C2669 H2649 0.950 . S
C2669 C2665 1.385 . S
C2669 C2668 1.374 . S
C2670 C2667 1.499 . S
C2670 C2671 1.373 . S
C2670 C2672 1.389 . S
C2671 H2650 0.950 . S
C2671 C2670 1.373 . S
C2671 C2687 1.377 . S
C2672 C2670 1.389 . S
C2672 C2673 1.524 . S
C2672 C2686 1.377 . S
C2673 C2672 1.524 . S
C2673 C2674 1.397 . S
C2673 C2678 1.363 . S
C2674 H2651 0.950 . S
C2674 C2673 1.397 . S
C2674 C2675 1.334 . S
C2675 H2652 0.950 . S
C2675 C2674 1.334 . S
C2675 C2676 1.287 . S
C2676 C2675 1.287 . S
C2676 C2677 1.524 . S
C2676 H2695 0.913 . S
C2677 H2653 0.950 . S
C2677 C2676 1.524 . S
C2677 C2678 1.415 . S
C2678 H2654 0.950 . S
C2678 C2673 1.363 . S
C2678 C2677 1.415 . S
C2679 H2655 0.951 . S
C2679 C2680 1.366 . S
C2679 C2681 1.388 . S
C2680 C2679 1.366 . S
C2680 C2684 1.385 . S
C2681 H2656 0.951 . S
C2681 C2679 1.388 . S
C2681 C2682 1.366 . S
C2682 C2681 1.366 . S
C2682 C2683 1.414 . S
C2682 C2685 1.499 . S
C2683 H2657 0.950 . S
C2683 C2682 1.414 . S
C2683 C2684 1.374 . S
C2684 H2658 0.950 . S
C2684 C2680 1.385 . S
C2684 C2683 1.374 . S
C2685 C2682 1.499 . S
C2685 C2686 1.373 . S
C2685 C2687 1.389 . S
C2686 H2659 0.950 . S
C2686 C2672 1.377 . S
C2686 C2685 1.373 . S
C2687 C2671 1.377 . S
C2687 C2685 1.389 . S
C2687 C2688 1.524 . S
C2688 C2687 1.524 . S
C2688 C2689 1.397 . S
C2688 C2693 1.363 . S
C2689 H2660 0.950 . S
C2689 C2688 1.397 . S
C2689 C2690 1.334 . S
C2690 H2661 0.950 . S
C2690 C2689 1.334 . S
C2690 C2691 1.287 . S
C2691 C2690 1.287 . S
C2691 C2692 1.524 . S
C2691 H2694 0.999 . S
C2692 H2662 0.950 . S
C2692 C2691 1.524 . S
C2692 C2693 1.415 . S
C2693 H2663 0.950 . S
C2693 C2688 1.363 . S
C2693 C2692 1.415 . S
H2694 C2691 0.999 . S
H2695 C2676 0.913 . S
H2696 C2714 0.951 . S
H2697 C2716 0.951 . S
H2698 C2718 0.950 . S
H2699 C2719 0.950 . S
H2700 C2721 0.950 . S
H2701 C2724 0.950 . S
H2702 C2725 0.950 . S
H2703 C2727 0.950 . S
H2704 C2728 0.950 . S
H2705 C2729 0.951 . S
H2706 C2731 0.951 . S
H2707 C2733 0.950 . S
H2708 C2734 0.950 . S
H2709 C2736 0.950 . S
H2710 C2739 0.950 . S
H2711 C2740 0.950 . S
H2712 C2742 0.950 . S
H2713 C2743 0.950 . S
C2714 H2696 0.951 . S
C2714 C2715 1.366 . S
C2714 C2716 1.388 . S
C2715 C2714 1.366 . S
C2715 C2719 1.385 . S
C2716 H2697 0.951 . S
C2716 C2714 1.388 . S
C2716 C2717 1.366 . S
C2717 C2716 1.366 . S
C2717 C2718 1.414 . S
C2717 C2720 1.499 . S
C2718 H2698 0.950 . S
C2718 C2717 1.414 . S
C2718 C2719 1.374 . S
C2719 H2699 0.950 . S
C2719 C2715 1.385 . S
C2719 C2718 1.374 . S
C2720 C2717 1.499 . S
C2720 C2721 1.373 . S
C2720 C2722 1.389 . S
C2721 H2700 0.950 . S
C2721 C2720 1.373 . S
C2721 C2737 1.377 . S
C2722 C2720 1.389 . S
C2722 C2723 1.524 . S
C2722 C2736 1.377 . S
C2723 C2722 1.524 . S
C2723 C2724 1.397 . S
C2723 C2728 1.363 . S
C2724 H2701 0.950 . S
C2724 C2723 1.397 . S
C2724 C2725 1.334 . S
C2725 H2702 0.950 . S
C2725 C2724 1.334 . S
C2725 C2726 1.287 . S
C2726 C2725 1.287 . S
C2726 C2727 1.524 . S
C2726 H2745 0.913 . S
C2727 H2703 0.950 . S
C2727 C2726 1.524 . S
C2727 C2728 1.415 . S
C2728 H2704 0.950 . S
C2728 C2723 1.363 . S
C2728 C2727 1.415 . S
C2729 H2705 0.951 . S
C2729 C2730 1.366 . S
C2729 C2731 1.388 . S
C2730 C2729 1.366 . S
C2730 C2734 1.385 . S
C2731 H2706 0.951 . S
C2731 C2729 1.388 . S
C2731 C2732 1.366 . S
C2732 C2731 1.366 . S
C2732 C2733 1.414 . S
C2732 C2735 1.499 . S
C2733 H2707 0.950 . S
C2733 C2732 1.414 . S
C2733 C2734 1.374 . S
C2734 H2708 0.950 . S
C2734 C2730 1.385 . S
C2734 C2733 1.374 . S
C2735 C2732 1.499 . S
C2735 C2736 1.373 . S
C2735 C2737 1.389 . S
C2736 H2709 0.950 . S
C2736 C2722 1.377 . S
C2736 C2735 1.373 . S
C2737 C2721 1.377 . S
C2737 C2735 1.389 . S
C2737 C2738 1.524 . S
C2738 C2737 1.524 . S
C2738 C2739 1.397 . S
C2738 C2743 1.363 . S
C2739 H2710 0.950 . S
C2739 C2738 1.397 . S
C2739 C2740 1.334 . S
C2740 H2711 0.950 . S
C2740 C2739 1.334 . S
C2740 C2741 1.287 . S
C2741 C2740 1.287 . S
C2741 C2742 1.524 . S
C2741 H2744 0.999 . S
C2742 H2712 0.950 . S
C2742 C2741 1.524 . S
C2742 C2743 1.415 . S
C2743 H2713 0.950 . S
C2743 C2738 1.363 . S
C2743 C2742 1.415 . S
H2744 C2741 0.999 . S
H2745 C2726 0.913 . S
H2746 C2764 0.951 . S
H2747 C2766 0.951 . S
H2748 C2768 0.950 . S
H2749 C2769 0.950 . S
H2750 C2771 0.950 . S
H2751 C2774 0.950 . S
H2752 C2775 0.950 . S
H2753 C2777 0.950 . S
H2754 C2778 0.950 . S
H2755 C2779 0.951 . S
H2756 C2781 0.951 . S
H2757 C2783 0.950 . S
H2758 C2784 0.950 . S
H2759 C2786 0.950 . S
H2760 C2789 0.950 . S
H2761 C2790 0.950 . S
H2762 C2792 0.950 . S
H2763 C2793 0.950 . S
C2764 H2746 0.951 . S
C2764 C2765 1.366 . S
C2764 C2766 1.388 . S
C2765 C2764 1.366 . S
C2765 C2769 1.385 . S
C2766 H2747 0.951 . S
C2766 C2764 1.388 . S
C2766 C2767 1.366 . S
C2767 C2766 1.366 . S
C2767 C2768 1.414 . S
C2767 C2770 1.499 . S
C2768 H2748 0.950 . S
C2768 C2767 1.414 . S
C2768 C2769 1.374 . S
C2769 H2749 0.950 . S
C2769 C2765 1.385 . S
C2769 C2768 1.374 . S
C2770 C2767 1.499 . S
C2770 C2771 1.373 . S
C2770 C2772 1.389 . S
C2771 H2750 0.950 . S
C2771 C2770 1.373 . S
C2771 C2787 1.377 . S
C2772 C2770 1.389 . S
C2772 C2773 1.524 . S
C2772 C2786 1.377 . S
C2773 C2772 1.524 . S
C2773 C2774 1.397 . S
C2773 C2778 1.363 . S
C2774 H2751 0.950 . S
C2774 C2773 1.397 . S
C2774 C2775 1.334 . S
C2775 H2752 0.950 . S
C2775 C2774 1.334 . S
C2775 C2776 1.287 . S
C2776 C2775 1.287 . S
C2776 C2777 1.524 . S
C2776 H2795 0.913 . S
C2777 H2753 0.950 . S
C2777 C2776 1.524 . S
C2777 C2778 1.415 . S
C2778 H2754 0.950 . S
C2778 C2773 1.363 . S
C2778 C2777 1.415 . S
C2779 H2755 0.951 . S
C2779 C2780 1.366 . S
C2779 C2781 1.388 . S
C2780 C2779 1.366 . S
C2780 C2784 1.385 . S
C2781 H2756 0.951 . S
C2781 C2779 1.388 . S
C2781 C2782 1.366 . S
C2782 C2781 1.366 . S
C2782 C2783 1.414 . S
C2782 C2785 1.499 . S
C2783 H2757 0.950 . S
C2783 C2782 1.414 . S
C2783 C2784 1.374 . S
C2784 H2758 0.950 . S
C2784 C2780 1.385 . S
C2784 C2783 1.374 . S
C2785 C2782 1.499 . S
C2785 C2786 1.373 . S
C2785 C2787 1.389 . S
C2786 H2759 0.950 . S
C2786 C2772 1.377 . S
C2786 C2785 1.373 . S
C2787 C2771 1.377 . S
C2787 C2785 1.389 . S
C2787 C2788 1.524 . S
C2788 C2787 1.524 . S
C2788 C2789 1.397 . S
C2788 C2793 1.363 . S
C2789 H2760 0.950 . S
C2789 C2788 1.397 . S
C2789 C2790 1.334 . S
C2790 H2761 0.950 . S
C2790 C2789 1.334 . S
C2790 C2791 1.287 . S
C2791 C2790 1.287 . S
C2791 C2792 1.524 . S
C2791 H2794 0.999 . S
C2792 H2762 0.950 . S
C2792 C2791 1.524 . S
C2792 C2793 1.415 . S
C2793 H2763 0.950 . S
C2793 C2788 1.363 . S
C2793 C2792 1.415 . S
H2794 C2791 0.999 . S
H2795 C2776 0.913 . S
H2796 C2814 0.951 . S
H2797 C2816 0.951 . S
H2798 C2818 0.950 . S
H2799 C2819 0.950 . S
H2800 C2821 0.950 . S
H2801 C2824 0.950 . S
H2802 C2825 0.950 . S
H2803 C2827 0.950 . S
H2804 C2828 0.950 . S
H2805 C2829 0.951 . S
H2806 C2831 0.951 . S
H2807 C2833 0.950 . S
H2808 C2834 0.950 . S
H2809 C2836 0.950 . S
H2810 C2839 0.950 . S
H2811 C2840 0.950 . S
H2812 C2842 0.950 . S
H2813 C2843 0.950 . S
C2814 H2796 0.951 . S
C2814 C2815 1.366 . S
C2814 C2816 1.388 . S
C2815 C2814 1.366 . S
C2815 C2819 1.385 . S
C2816 H2797 0.951 . S
C2816 C2814 1.388 . S
C2816 C2817 1.366 . S
C2817 C2816 1.366 . S
C2817 C2818 1.414 . S
C2817 C2820 1.499 . S
C2818 H2798 0.950 . S
C2818 C2817 1.414 . S
C2818 C2819 1.374 . S
C2819 H2799 0.950 . S
C2819 C2815 1.385 . S
C2819 C2818 1.374 . S
C2820 C2817 1.499 . S
C2820 C2821 1.373 . S
C2820 C2822 1.389 . S
C2821 H2800 0.950 . S
C2821 C2820 1.373 . S
C2821 C2837 1.377 . S
C2822 C2820 1.389 . S
C2822 C2823 1.524 . S
C2822 C2836 1.377 . S
C2823 C2822 1.524 . S
C2823 C2824 1.397 . S
C2823 C2828 1.363 . S
C2824 H2801 0.950 . S
C2824 C2823 1.397 . S
C2824 C2825 1.334 . S
C2825 H2802 0.950 . S
C2825 C2824 1.334 . S
C2825 C2826 1.287 . S
C2826 C2825 1.287 . S
C2826 C2827 1.524 . S
C2826 H2845 0.913 . S
C2827 H2803 0.950 . S
C2827 C2826 1.524 . S
C2827 C2828 1.415 . S
C2828 H2804 0.950 . S
C2828 C2823 1.363 . S
C2828 C2827 1.415 . S
C2829 H2805 0.951 . S
C2829 C2830 1.366 . S
C2829 C2831 1.388 . S
C2830 C2829 1.366 . S
C2830 C2834 1.385 . S
C2831 H2806 0.951 . S
C2831 C2829 1.388 . S
C2831 C2832 1.366 . S
C2832 C2831 1.366 . S
C2832 C2833 1.414 . S
C2832 C2835 1.499 . S
C2833 H2807 0.950 . S
C2833 C2832 1.414 . S
C2833 C2834 1.374 . S
C2834 H2808 0.950 . S
C2834 C2830 1.385 . S
C2834 C2833 1.374 . S
C2835 C2832 1.499 . S
C2835 C2836 1.373 . S
C2835 C2837 1.389 . S
C2836 H2809 0.950 . S
C2836 C2822 1.377 . S
C2836 C2835 1.373 . S
C2837 C2821 1.377 . S
C2837 C2835 1.389 . S
C2837 C2838 1.524 . S
C2838 C2837 1.524 . S
C2838 C2839 1.397 . S
C2838 C2843 1.363 . S
C2839 H2810 0.950 . S
C2839 C2838 1.397 . S
C2839 C2840 1.334 . S
C2840 H2811 0.950 . S
C2840 C2839 1.334 . S
C2840 C2841 1.287 . S
C2841 C2840 1.287 . S
C2841 C2842 1.524 . S
C2841 H2844 0.999 . S
C2842 H2812 0.950 . S
C2842 C2841 1.524 . S
C2842 C2843 1.415 . S
C2843 H2813 0.950 . S
C2843 C2838 1.363 . S
C2843 C2842 1.415 . S
H2844 C2841 0.999 . S
H2845 C2826 0.913 . S
H2846 C2864 0.951 . S
H2847 C2866 0.951 . S
H2848 C2868 0.950 . S
H2849 C2869 0.950 . S
H2850 C2871 0.950 . S
H2851 C2874 0.950 . S
H2852 C2875 0.950 . S
H2853 C2877 0.950 . S
H2854 C2878 0.950 . S
H2855 C2879 0.951 . S
H2856 C2881 0.951 . S
H2857 C2883 0.950 . S
H2858 C2884 0.950 . S
H2859 C2886 0.950 . S
H2860 C2889 0.950 . S
H2861 C2890 0.950 . S
H2862 C2892 0.950 . S
H2863 C2893 0.950 . S
C2864 H2846 0.951 . S
C2864 C2865 1.366 . S
C2864 C2866 1.388 . S
C2865 C2864 1.366 . S
C2865 C2869 1.385 . S
C2866 H2847 0.951 . S
C2866 C2864 1.388 . S
C2866 C2867 1.366 . S
C2867 C2866 1.366 . S
C2867 C2868 1.414 . S
C2867 C2870 1.499 . S
C2868 H2848 0.950 . S
C2868 C2867 1.414 . S
C2868 C2869 1.374 . S
C2869 H2849 0.950 . S
C2869 C2865 1.385 . S
C2869 C2868 1.374 . S
C2870 C2867 1.499 . S
C2870 C2871 1.373 . S
C2870 C2872 1.389 . S
C2871 H2850 0.950 . S
C2871 C2870 1.373 . S
C2871 C2887 1.377 . S
C2872 C2870 1.389 . S
C2872 C2873 1.524 . S
C2872 C2886 1.377 . S
C2873 C2872 1.524 . S
C2873 C2874 1.397 . S
C2873 C2878 1.363 . S
C2874 H2851 0.950 . S
C2874 C2873 1.397 . S
C2874 C2875 1.334 . S
C2875 H2852 0.950 . S
C2875 C2874 1.334 . S
C2875 C2876 1.287 . S
C2876 C2875 1.287 . S
C2876 C2877 1.524 . S
C2876 H2895 0.913 . S
C2877 H2853 0.950 . S
C2877 C2876 1.524 . S
C2877 C2878 1.415 . S
C2878 H2854 0.950 . S
C2878 C2873 1.363 . S
C2878 C2877 1.415 . S
C2879 H2855 0.951 . S
C2879 C2880 1.366 . S
C2879 C2881 1.388 . S
C2880 C2879 1.366 . S
C2880 C2884 1.385 . S
C2881 H2856 0.951 . S
C2881 C2879 1.388 . S
C2881 C2882 1.366 . S
C2882 C2881 1.366 . S
C2882 C2883 1.414 . S
C2882 C2885 1.499 . S
C2883 H2857 0.950 . S
C2883 C2882 1.414 . S
C2883 C2884 1.374 . S
C2884 H2858 0.950 . S
C2884 C2880 1.385 . S
C2884 C2883 1.374 . S
C2885 C2882 1.499 . S
C2885 C2886 1.373 . S
C2885 C2887 1.389 . S
C2886 H2859 0.950 . S
C2886 C2872 1.377 . S
C2886 C2885 1.373 . S
C2887 C2871 1.377 . S
C2887 C2885 1.389 . S
C2887 C2888 1.524 . S
C2888 C2887 1.524 . S
C2888 C2889 1.397 . S
C2888 C2893 1.363 . S
C2889 H2860 0.950 . S
C2889 C2888 1.397 . S
C2889 C2890 1.334 . S
C2890 H2861 0.950 . S
C2890 C2889 1.334 . S
C2890 C2891 1.287 . S
C2891 C2890 1.287 . S
C2891 C2892 1.524 . S
C2891 H2894 0.999 . S
C2892 H2862 0.950 . S
C2892 C2891 1.524 . S
C2892 C2893 1.415 . S
C2893 H2863 0.950 . S
C2893 C2888 1.363 . S
C2893 C2892 1.415 . S
H2894 C2891 0.999 . S
H2895 C2876 0.913 . S
H2896 C2914 0.951 . S
H2897 C2916 0.951 . S
H2898 C2918 0.950 . S
H2899 C2919 0.950 . S
H2900 C2921 0.950 . S
H2901 C2924 0.950 . S
H2902 C2925 0.950 . S
H2903 C2927 0.950 . S
H2904 C2928 0.950 . S
H2905 C2929 0.951 . S
H2906 C2931 0.951 . S
H2907 C2933 0.950 . S
H2908 C2934 0.950 . S
H2909 C2936 0.950 . S
H2910 C2939 0.950 . S
H2911 C2940 0.950 . S
H2912 C2942 0.950 . S
H2913 C2943 0.950 . S
C2914 H2896 0.951 . S
C2914 C2915 1.366 . S
C2914 C2916 1.388 . S
C2915 C2914 1.366 . S
C2915 C2919 1.385 . S
C2916 H2897 0.951 . S
C2916 C2914 1.388 . S
C2916 C2917 1.366 . S
C2917 C2916 1.366 . S
C2917 C2918 1.414 . S
C2917 C2920 1.499 . S
C2918 H2898 0.950 . S
C2918 C2917 1.414 . S
C2918 C2919 1.374 . S
C2919 H2899 0.950 . S
C2919 C2915 1.385 . S
C2919 C2918 1.374 . S
C2920 C2917 1.499 . S
C2920 C2921 1.373 . S
C2920 C2922 1.389 . S
C2921 H2900 0.950 . S
C2921 C2920 1.373 . S
C2921 C2937 1.377 . S
C2922 C2920 1.389 . S
C2922 C2923 1.524 . S
C2922 C2936 1.377 . S
C2923 C2922 1.524 . S
C2923 C2924 1.397 . S
C2923 C2928 1.363 . S
C2924 H2901 0.950 . S
C2924 C2923 1.397 . S
C2924 C2925 1.334 . S
C2925 H2902 0.950 . S
C2925 C2924 1.334 . S
C2925 C2926 1.287 . S
C2926 C2925 1.287 . S
C2926 C2927 1.524 . S
C2926 H2945 0.913 . S
C2927 H2903 0.950 . S
C2927 C2926 1.524 . S
C2927 C2928 1.415 . S
C2928 H2904 0.950 . S
C2928 C2923 1.363 . S
C2928 C2927 1.415 . S
C2929 H2905 0.951 . S
C2929 C2930 1.366 . S
C2929 C2931 1.388 . S
C2930 C2929 1.366 . S
C2930 C2934 1.385 . S
C2931 H2906 0.951 . S
C2931 C2929 1.388 . S
C2931 C2932 1.366 . S
C2932 C2931 1.366 . S
C2932 C2933 1.414 . S
C2932 C2935 1.499 . S
C2933 H2907 0.950 . S
C2933 C2932 1.414 . S
C2933 C2934 1.374 . S
C2934 H2908 0.950 . S
C2934 C2930 1.385 . S
C2934 C2933 1.374 . S
C2935 C2932 1.499 . S
C2935 C2936 1.373 . S
C2935 C2937 1.389 . S
C2936 H2909 0.950 . S
C2936 C2922 1.377 . S
C2936 C2935 1.373 . S
C2937 C2921 1.377 . S
C2937 C2935 1.389 . S
C2937 C2938 1.524 . S
C2938 C2937 1.524 . S
C2938 C2939 1.397 . S
C2938 C2943 1.363 . S
C2939 H2910 0.950 . S
C2939 C2938 1.397 . S
C2939 C2940 1.334 . S
C2940 H2911 0.950 . S
C2940 C2939 1.334 . S
C2940 C2941 1.287 . S
C2941 C2940 1.287 . S
C2941 C2942 1.524 . S
C2941 H2944 0.999 . S
C2942 H2912 0.950 . S
C2942 C2941 1.524 . S
C2942 C2943 1.415 . S
C2943 H2913 0.950 . S
C2943 C2938 1.363 . S
C2943 C2942 1.415 . S
H2944 C2941 0.999 . S
H2945 C2926 0.913 . S
H2946 C2964 0.951 . S
H2947 C2966 0.951 . S
H2948 C2968 0.950 . S
H2949 C2969 0.950 . S
H2950 C2971 0.950 . S
H2951 C2974 0.950 . S
H2952 C2975 0.950 . S
H2953 C2977 0.950 . S
H2954 C2978 0.950 . S
H2955 C2979 0.951 . S
H2956 C2981 0.951 . S
H2957 C2983 0.950 . S
H2958 C2984 0.950 . S
H2959 C2986 0.950 . S
H2960 C2989 0.950 . S
H2961 C2990 0.950 . S
H2962 C2992 0.950 . S
H2963 C2993 0.950 . S
C2964 H2946 0.951 . S
C2964 C2965 1.366 . S
C2964 C2966 1.388 . S
C2965 C2964 1.366 . S
C2965 C2969 1.385 . S
C2966 H2947 0.951 . S
C2966 C2964 1.388 . S
C2966 C2967 1.366 . S
C2967 C2966 1.366 . S
C2967 C2968 1.414 . S
C2967 C2970 1.499 . S
C2968 H2948 0.950 . S
C2968 C2967 1.414 . S
C2968 C2969 1.374 . S
C2969 H2949 0.950 . S
C2969 C2965 1.385 . S
C2969 C2968 1.374 . S
C2970 C2967 1.499 . S
C2970 C2971 1.373 . S
C2970 C2972 1.389 . S
C2971 H2950 0.950 . S
C2971 C2970 1.373 . S
C2971 C2987 1.377 . S
C2972 C2970 1.389 . S
C2972 C2973 1.524 . S
C2972 C2986 1.377 . S
C2973 C2972 1.524 . S
C2973 C2974 1.397 . S
C2973 C2978 1.363 . S
C2974 H2951 0.950 . S
C2974 C2973 1.397 . S
C2974 C2975 1.334 . S
C2975 H2952 0.950 . S
C2975 C2974 1.334 . S
C2975 C2976 1.287 . S
C2976 C2975 1.287 . S
C2976 C2977 1.524 . S
C2976 H2995 0.913 . S
C2977 H2953 0.950 . S
C2977 C2976 1.524 . S
C2977 C2978 1.415 . S
C2978 H2954 0.950 . S
C2978 C2973 1.363 . S
C2978 C2977 1.415 . S
C2979 H2955 0.951 . S
C2979 C2980 1.366 . S
C2979 C2981 1.388 . S
C2980 C2979 1.366 . S
C2980 C2984 1.385 . S
C2981 H2956 0.951 . S
C2981 C2979 1.388 . S
C2981 C2982 1.366 . S
C2982 C2981 1.366 . S
C2982 C2983 1.414 . S
C2982 C2985 1.499 . S
C2983 H2957 0.950 . S
C2983 C2982 1.414 . S
C2983 C2984 1.374 . S
C2984 H2958 0.950 . S
C2984 C2980 1.385 . S
C2984 C2983 1.374 . S
C2985 C2982 1.499 . S
C2985 C2986 1.373 . S
C2985 C2987 1.389 . S
C2986 H2959 0.950 . S
C2986 C2972 1.377 . S
C2986 C2985 1.373 . S
C2987 C2971 1.377 . S
C2987 C2985 1.389 . S
C2987 C2988 1.524 . S
C2988 C2987 1.524 . S
C2988 C2989 1.397 . S
C2988 C2993 1.363 . S
C2989 H2960 0.950 . S
C2989 C2988 1.397 . S
C2989 C2990 1.334 . S
C2990 H2961 0.950 . S
C2990 C2989 1.334 . S
C2990 C2991 1.287 . S
C2991 C2990 1.287 . S
C2991 C2992 1.524 . S
C2991 H2994 0.999 . S
C2992 H2962 0.950 . S
C2992 C2991 1.524 . S
C2992 C2993 1.415 . S
C2993 H2963 0.950 . S
C2993 C2988 1.363 . S
C2993 C2992 1.415 . S
H2994 C2991 0.999 . S
H2995 C2976 0.913 . S
H2996 C3014 0.951 . S
H2997 C3016 0.951 . S
H2998 C3018 0.950 . S
H2999 C3019 0.950 . S
H3000 C3021 0.950 . S
H3001 C3024 0.950 . S
H3002 C3025 0.950 . S
H3003 C3027 0.950 . S
H3004 C3028 0.950 . S
H3005 C3029 0.951 . S
H3006 C3031 0.951 . S
H3007 C3033 0.950 . S
H3008 C3034 0.950 . S
H3009 C3036 0.950 . S
H3010 C3039 0.950 . S
H3011 C3040 0.950 . S
H3012 C3042 0.950 . S
H3013 C3043 0.950 . S
C3014 H2996 0.951 . S
C3014 C3015 1.366 . S
C3014 C3016 1.388 . S
C3015 C3014 1.366 . S
C3015 C3019 1.385 . S
C3016 H2997 0.951 . S
C3016 C3014 1.388 . S
C3016 C3017 1.366 . S
C3017 C3016 1.366 . S
C3017 C3018 1.414 . S
C3017 C3020 1.499 . S
C3018 H2998 0.950 . S
C3018 C3017 1.414 . S
C3018 C3019 1.374 . S
C3019 H2999 0.950 . S
C3019 C3015 1.385 . S
C3019 C3018 1.374 . S
C3020 C3017 1.499 . S
C3020 C3021 1.373 . S
C3020 C3022 1.389 . S
C3021 H3000 0.950 . S
C3021 C3020 1.373 . S
C3021 C3037 1.377 . S
C3022 C3020 1.389 . S
C3022 C3023 1.524 . S
C3022 C3036 1.377 . S
C3023 C3022 1.524 . S
C3023 C3024 1.397 . S
C3023 C3028 1.363 . S
C3024 H3001 0.950 . S
C3024 C3023 1.397 . S
C3024 C3025 1.334 . S
C3025 H3002 0.950 . S
C3025 C3024 1.334 . S
C3025 C3026 1.287 . S
C3026 C3025 1.287 . S
C3026 C3027 1.524 . S
C3026 H3045 0.913 . S
C3027 H3003 0.950 . S
C3027 C3026 1.524 . S
C3027 C3028 1.415 . S
C3028 H3004 0.950 . S
C3028 C3023 1.363 . S
C3028 C3027 1.415 . S
C3029 H3005 0.951 . S
C3029 C3030 1.366 . S
C3029 C3031 1.388 . S
C3030 C3029 1.366 . S
C3030 C3034 1.385 . S
C3031 H3006 0.951 . S
C3031 C3029 1.388 . S
C3031 C3032 1.366 . S
C3032 C3031 1.366 . S
C3032 C3033 1.414 . S
C3032 C3035 1.499 . S
C3033 H3007 0.950 . S
C3033 C3032 1.414 . S
C3033 C3034 1.374 . S
C3034 H3008 0.950 . S
C3034 C3030 1.385 . S
C3034 C3033 1.374 . S
C3035 C3032 1.499 . S
C3035 C3036 1.373 . S
C3035 C3037 1.389 . S
C3036 H3009 0.950 . S
C3036 C3022 1.377 . S
C3036 C3035 1.373 . S
C3037 C3021 1.377 . S
C3037 C3035 1.389 . S
C3037 C3038 1.524 . S
C3038 C3037 1.524 . S
C3038 C3039 1.397 . S
C3038 C3043 1.363 . S
C3039 H3010 0.950 . S
C3039 C3038 1.397 . S
C3039 C3040 1.334 . S
C3040 H3011 0.950 . S
C3040 C3039 1.334 . S
C3040 C3041 1.287 . S
C3041 C3040 1.287 . S
C3041 C3042 1.524 . S
C3041 H3044 0.999 . S
C3042 H3012 0.950 . S
C3042 C3041 1.524 . S
C3042 C3043 1.415 . S
C3043 H3013 0.950 . S
C3043 C3038 1.363 . S
C3043 C3042 1.415 . S
H3044 C3041 0.999 . S
H3045 C3026 0.913 . S
H3046 C3064 0.951 . S
H3047 C3066 0.951 . S
H3048 C3068 0.950 . S
H3049 C3069 0.950 . S
H3050 C3071 0.950 . S
H3051 C3074 0.950 . S
H3052 C3075 0.950 . S
H3053 C3077 0.950 . S
H3054 C3078 0.950 . S
H3055 C3079 0.951 . S
H3056 C3081 0.951 . S
H3057 C3083 0.950 . S
H3058 C3084 0.950 . S
H3059 C3086 0.950 . S
H3060 C3089 0.950 . S
H3061 C3090 0.950 . S
H3062 C3092 0.950 . S
H3063 C3093 0.950 . S
C3064 H3046 0.951 . S
C3064 C3065 1.366 . S
C3064 C3066 1.388 . S
C3065 C3064 1.366 . S
C3065 C3069 1.385 . S
C3066 H3047 0.951 . S
C3066 C3064 1.388 . S
C3066 C3067 1.366 . S
C3067 C3066 1.366 . S
C3067 C3068 1.414 . S
C3067 C3070 1.499 . S
C3068 H3048 0.950 . S
C3068 C3067 1.414 . S
C3068 C3069 1.374 . S
C3069 H3049 0.950 . S
C3069 C3065 1.385 . S
C3069 C3068 1.374 . S
C3070 C3067 1.499 . S
C3070 C3071 1.373 . S
C3070 C3072 1.389 . S
C3071 H3050 0.950 . S
C3071 C3070 1.373 . S
C3071 C3087 1.377 . S
C3072 C3070 1.389 . S
C3072 C3073 1.524 . S
C3072 C3086 1.377 . S
C3073 C3072 1.524 . S
C3073 C3074 1.397 . S
C3073 C3078 1.363 . S
C3074 H3051 0.950 . S
C3074 C3073 1.397 . S
C3074 C3075 1.334 . S
C3075 H3052 0.950 . S
C3075 C3074 1.334 . S
C3075 C3076 1.287 . S
C3076 C3075 1.287 . S
C3076 C3077 1.524 . S
C3076 H3095 0.913 . S
C3077 H3053 0.950 . S
C3077 C3076 1.524 . S
C3077 C3078 1.415 . S
C3078 H3054 0.950 . S
C3078 C3073 1.363 . S
C3078 C3077 1.415 . S
C3079 H3055 0.951 . S
C3079 C3080 1.366 . S
C3079 C3081 1.388 . S
C3080 C3079 1.366 . S
C3080 C3084 1.385 . S
C3081 H3056 0.951 . S
C3081 C3079 1.388 . S
C3081 C3082 1.366 . S
C3082 C3081 1.366 . S
C3082 C3083 1.414 . S
C3082 C3085 1.499 . S
C3083 H3057 0.950 . S
C3083 C3082 1.414 . S
C3083 C3084 1.374 . S
C3084 H3058 0.950 . S
C3084 C3080 1.385 . S
C3084 C3083 1.374 . S
C3085 C3082 1.499 . S
C3085 C3086 1.373 . S
C3085 C3087 1.389 . S
C3086 H3059 0.950 . S
C3086 C3072 1.377 . S
C3086 C3085 1.373 . S
C3087 C3071 1.377 . S
C3087 C3085 1.389 . S
C3087 C3088 1.524 . S
C3088 C3087 1.524 . S
C3088 C3089 1.397 . S
C3088 C3093 1.363 . S
C3089 H3060 0.950 . S
C3089 C3088 1.397 . S
C3089 C3090 1.334 . S
C3090 H3061 0.950 . S
C3090 C3089 1.334 . S
C3090 C3091 1.287 . S
C3091 C3090 1.287 . S
C3091 C3092 1.524 . S
C3091 H3094 0.999 . S
C3092 H3062 0.950 . S
C3092 C3091 1.524 . S
C3092 C3093 1.415 . S
C3093 H3063 0.950 . S
C3093 C3088 1.363 . S
C3093 C3092 1.415 . S
H3094 C3091 0.999 . S
H3095 C3076 0.913 . S
H3096 C3114 0.951 . S
H3097 C3116 0.951 . S
H3098 C3118 0.950 . S
H3099 C3119 0.950 . S
H3100 C3121 0.950 . S
H3101 C3124 0.950 . S
H3102 C3125 0.950 . S
H3103 C3127 0.950 . S
H3104 C3128 0.950 . S
H3105 C3129 0.951 . S
H3106 C3131 0.951 . S
H3107 C3133 0.950 . S
H3108 C3134 0.950 . S
H3109 C3136 0.950 . S
H3110 C3139 0.950 . S
H3111 C3140 0.950 . S
H3112 C3142 0.950 . S
H3113 C3143 0.950 . S
C3114 H3096 0.951 . S
C3114 C3115 1.366 . S
C3114 C3116 1.388 . S
C3115 C3114 1.366 . S
C3115 C3119 1.385 . S
C3116 H3097 0.951 . S
C3116 C3114 1.388 . S
C3116 C3117 1.366 . S
C3117 C3116 1.366 . S
C3117 C3118 1.414 . S
C3117 C3120 1.499 . S
C3118 H3098 0.950 . S
C3118 C3117 1.414 . S
C3118 C3119 1.374 . S
C3119 H3099 0.950 . S
C3119 C3115 1.385 . S
C3119 C3118 1.374 . S
C3120 C3117 1.499 . S
C3120 C3121 1.373 1_545 S
C3120 C3122 1.389 . S
C3121 H3100 0.950 . S
C3121 C3120 1.373 1_565 S
C3121 C3137 1.377 . S
C3122 C3120 1.389 . S
C3122 C3123 1.524 . S
C3122 C3136 1.377 . S
C3123 C3122 1.524 . S
C3123 C3124 1.397 . S
C3123 C3128 1.363 . S
C3124 H3101 0.950 . S
C3124 C3123 1.397 . S
C3124 C3125 1.334 . S
C3125 H3102 0.950 . S
C3125 C3124 1.334 . S
C3125 C3126 1.287 . S
C3126 C3125 1.287 . S
C3126 C3127 1.524 . S
C3126 H3145 0.913 . S
C3127 H3103 0.950 . S
C3127 C3126 1.524 . S
C3127 C3128 1.415 . S
C3128 H3104 0.950 . S
C3128 C3123 1.363 . S
C3128 C3127 1.415 . S
C3129 H3105 0.951 . S
C3129 C3130 1.366 . S
C3129 C3131 1.388 . S
C3130 C3129 1.366 . S
C3130 C3134 1.385 . S
C3131 H3106 0.951 . S
C3131 C3129 1.388 . S
C3131 C3132 1.366 . S
C3132 C3131 1.366 . S
C3132 C3133 1.414 . S
C3132 C3135 1.499 . S
C3133 H3107 0.950 . S
C3133 C3132 1.414 . S
C3133 C3134 1.374 . S
C3134 H3108 0.950 . S
C3134 C3130 1.385 . S
C3134 C3133 1.374 . S
C3135 C3132 1.499 . S
C3135 C3136 1.373 1_565 S
C3135 C3137 1.389 . S
C3136 H3109 0.950 . S
C3136 C3122 1.377 . S
C3136 C3135 1.373 1_545 S
C3137 C3121 1.377 . S
C3137 C3135 1.389 . S
C3137 C3138 1.524 . S
C3138 C3137 1.524 . S
C3138 C3139 1.397 . S
C3138 C3143 1.363 . S
C3139 H3110 0.950 . S
C3139 C3138 1.397 . S
C3139 C3140 1.334 . S
C3140 H3111 0.950 . S
C3140 C3139 1.334 . S
C3140 C3141 1.287 . S
C3141 C3140 1.287 . S
C3141 C3142 1.524 . S
C3141 H3144 0.999 . S
C3142 H3112 0.950 . S
C3142 C3141 1.524 . S
C3142 C3143 1.415 . S
C3143 H3113 0.950 . S
C3143 C3138 1.363 . S
C3143 C3142 1.415 . S
H3144 C3141 0.999 . S
H3145 C3126 0.913 . S
H3146 C3164 0.951 . S
H3147 C3166 0.951 . S
H3148 C3168 0.950 . S
H3149 C3169 0.950 . S
H3150 C3171 0.950 . S
H3151 C3174 0.950 . S
H3152 C3175 0.950 . S
H3153 C3177 0.950 . S
H3154 C3178 0.950 . S
H3155 C3179 0.951 . S
H3156 C3181 0.951 . S
H3157 C3183 0.950 . S
H3158 C3184 0.950 . S
H3159 C3186 0.950 . S
H3160 C3189 0.950 . S
H3161 C3190 0.950 . S
H3162 C3192 0.950 . S
H3163 C3193 0.950 . S
C3164 H3146 0.951 . S
C3164 C3165 1.366 . S
C3164 C3166 1.388 . S
C3165 C3164 1.366 . S
C3165 C3169 1.385 . S
C3166 H3147 0.951 . S
C3166 C3164 1.388 . S
C3166 C3167 1.366 . S
C3167 C3166 1.366 . S
C3167 C3168 1.414 . S
C3167 C3170 1.499 . S
C3168 H3148 0.950 . S
C3168 C3167 1.414 . S
C3168 C3169 1.374 . S
C3169 H3149 0.950 . S
C3169 C3165 1.385 . S
C3169 C3168 1.374 . S
C3170 C3167 1.499 . S
C3170 C3171 1.373 . S
C3170 C3172 1.389 . S
C3171 H3150 0.950 . S
C3171 C3170 1.373 . S
C3171 C3187 1.377 . S
C3172 C3170 1.389 . S
C3172 C3173 1.524 . S
C3172 C3186 1.377 . S
C3173 C3172 1.524 . S
C3173 C3174 1.397 . S
C3173 C3178 1.363 . S
C3174 H3151 0.950 . S
C3174 C3173 1.397 . S
C3174 C3175 1.334 . S
C3175 H3152 0.950 . S
C3175 C3174 1.334 . S
C3175 C3176 1.287 . S
C3176 C3175 1.287 . S
C3176 C3177 1.524 . S
C3176 H3195 0.913 . S
C3177 H3153 0.950 . S
C3177 C3176 1.524 . S
C3177 C3178 1.415 . S
C3178 H3154 0.950 . S
C3178 C3173 1.363 . S
C3178 C3177 1.415 . S
C3179 H3155 0.951 . S
C3179 C3180 1.366 . S
C3179 C3181 1.388 . S
C3180 C3179 1.366 . S
C3180 C3184 1.385 . S
C3181 H3156 0.951 . S
C3181 C3179 1.388 . S
C3181 C3182 1.366 . S
C3182 C3181 1.366 . S
C3182 C3183 1.414 . S
C3182 C3185 1.499 . S
C3183 H3157 0.950 . S
C3183 C3182 1.414 . S
C3183 C3184 1.374 . S
C3184 H3158 0.950 . S
C3184 C3180 1.385 . S
C3184 C3183 1.374 . S
C3185 C3182 1.499 . S
C3185 C3186 1.373 . S
C3185 C3187 1.389 . S
C3186 H3159 0.950 . S
C3186 C3172 1.377 . S
C3186 C3185 1.373 . S
C3187 C3171 1.377 . S
C3187 C3185 1.389 . S
C3187 C3188 1.524 . S
C3188 C3187 1.524 . S
C3188 C3189 1.397 . S
C3188 C3193 1.363 . S
C3189 H3160 0.950 . S
C3189 C3188 1.397 . S
C3189 C3190 1.334 . S
C3190 H3161 0.950 . S
C3190 C3189 1.334 . S
C3190 C3191 1.287 . S
C3191 C3190 1.287 . S
C3191 C3192 1.524 . S
C3191 H3194 0.999 . S
C3192 H3162 0.950 . S
C3192 C3191 1.524 . S
C3192 C3193 1.415 . S
C3193 H3163 0.950 . S
C3193 C3188 1.363 . S
C3193 C3192 1.415 . S
H3194 C3191 0.999 . S
H3195 C3176 0.913 . S
H3196 C3214 0.951 . S
H3197 C3216 0.951 . S
H3198 C3218 0.950 . S
H3199 C3219 0.950 . S
H3200 C3221 0.950 . S
H3201 C3224 0.950 . S
H3202 C3225 0.950 . S
H3203 C3227 0.950 . S
H3204 C3228 0.950 . S
H3205 C3229 0.951 . S
H3206 C3231 0.951 . S
H3207 C3233 0.950 . S
H3208 C3234 0.950 . S
H3209 C3236 0.950 . S
H3210 C3239 0.950 . S
H3211 C3240 0.950 . S
H3212 C3242 0.950 . S
H3213 C3243 0.950 . S
C3214 H3196 0.951 . S
C3214 C3215 1.366 . S
C3214 C3216 1.388 . S
C3215 C3214 1.366 . S
C3215 C3219 1.385 . S
C3216 H3197 0.951 . S
C3216 C3214 1.388 . S
C3216 C3217 1.366 . S
C3217 C3216 1.366 . S
C3217 C3218 1.414 . S
C3217 C3220 1.499 . S
C3218 H3198 0.950 . S
C3218 C3217 1.414 . S
C3218 C3219 1.374 . S
C3219 H3199 0.950 . S
C3219 C3215 1.385 . S
C3219 C3218 1.374 . S
C3220 C3217 1.499 . S
C3220 C3221 1.373 1_655 S
C3220 C3222 1.389 . S
C3221 H3200 0.950 . S
C3221 C3220 1.373 1_455 S
C3221 C3237 1.377 . S
C3222 C3220 1.389 . S
C3222 C3223 1.524 . S
C3222 C3236 1.377 . S
C3223 C3222 1.524 . S
C3223 C3224 1.397 . S
C3223 C3228 1.363 . S
C3224 H3201 0.950 . S
C3224 C3223 1.397 . S
C3224 C3225 1.334 . S
C3225 H3202 0.950 . S
C3225 C3224 1.334 . S
C3225 C3226 1.287 . S
C3226 C3225 1.287 . S
C3226 C3227 1.524 . S
C3226 H3245 0.913 . S
C3227 H3203 0.950 . S
C3227 C3226 1.524 . S
C3227 C3228 1.415 . S
C3228 H3204 0.950 . S
C3228 C3223 1.363 . S
C3228 C3227 1.415 . S
C3229 H3205 0.951 . S
C3229 C3230 1.366 . S
C3229 C3231 1.388 . S
C3230 C3229 1.366 . S
C3230 C3234 1.385 . S
C3231 H3206 0.951 . S
C3231 C3229 1.388 . S
C3231 C3232 1.366 . S
C3232 C3231 1.366 . S
C3232 C3233 1.414 . S
C3232 C3235 1.499 . S
C3233 H3207 0.950 . S
C3233 C3232 1.414 . S
C3233 C3234 1.374 . S
C3234 H3208 0.950 . S
C3234 C3230 1.385 . S
C3234 C3233 1.374 . S
C3235 C3232 1.499 . S
C3235 C3236 1.373 1_455 S
C3235 C3237 1.389 . S
C3236 H3209 0.950 . S
C3236 C3222 1.377 . S
C3236 C3235 1.373 1_655 S
C3237 C3221 1.377 . S
C3237 C3235 1.389 . S
C3237 C3238 1.524 . S
C3238 C3237 1.524 . S
C3238 C3239 1.397 . S
C3238 C3243 1.363 . S
C3239 H3210 0.950 . S
C3239 C3238 1.397 . S
C3239 C3240 1.334 . S
C3240 H3211 0.950 . S
C3240 C3239 1.334 . S
C3240 C3241 1.287 . S
C3241 C3240 1.287 . S
C3241 C3242 1.524 . S
C3241 H3244 0.999 . S
C3242 H3212 0.950 . S
C3242 C3241 1.524 . S
C3242 C3243 1.415 . S
C3243 H3213 0.950 . S
C3243 C3238 1.363 . S
C3243 C3242 1.415 . S
H3244 C3241 0.999 . S
H3245 C3226 0.913 . S
H3246 C3264 0.951 . S
H3247 C3266 0.951 . S
H3248 C3268 0.950 . S
H3249 C3269 0.950 . S
H3250 C3271 0.950 . S
H3251 C3274 0.950 1_455 S
H3252 C3275 0.950 . S
H3253 C3277 0.950 . S
H3254 C3278 0.950 . S
H3255 C3279 0.951 . S
H3256 C3281 0.951 . S
H3257 C3283 0.950 . S
H3258 C3284 0.950 . S
H3259 C3286 0.950 . S
H3260 C3289 0.950 1_655 S
H3261 C3290 0.950 . S
H3262 C3292 0.950 . S
H3263 C3293 0.950 . S
C3264 H3246 0.951 . S
C3264 C3265 1.366 . S
C3264 C3266 1.388 . S
C3265 C3264 1.366 . S
C3265 C3269 1.385 . S
C3266 H3247 0.951 . S
C3266 C3264 1.388 . S
C3266 C3267 1.366 . S
C3267 C3266 1.366 . S
C3267 C3268 1.414 . S
C3267 C3270 1.499 . S
C3268 H3248 0.950 . S
C3268 C3267 1.414 . S
C3268 C3269 1.374 . S
C3269 H3249 0.950 . S
C3269 C3265 1.385 . S
C3269 C3268 1.374 . S
C3270 C3267 1.499 . S
C3270 C3271 1.373 . S
C3270 C3272 1.389 1_455 S
C3271 H3250 0.950 . S
C3271 C3270 1.373 . S
C3271 C3287 1.377 . S
C3272 C3270 1.389 1_655 S
C3272 C3273 1.524 . S
C3272 C3286 1.377 . S
C3273 C3272 1.524 . S
C3273 C3274 1.397 . S
C3273 C3278 1.363 . S
C3274 H3251 0.950 1_655 S
C3274 C3273 1.397 . S
C3274 C3275 1.334 . S
C3275 H3252 0.950 . S
C3275 C3274 1.334 . S
C3275 C3276 1.287 . S
C3276 C3275 1.287 . S
C3276 C3277 1.524 . S
C3276 H3295 0.913 . S
C3277 H3253 0.950 . S
C3277 C3276 1.524 . S
C3277 C3278 1.415 . S
C3278 H3254 0.950 . S
C3278 C3273 1.363 . S
C3278 C3277 1.415 . S
C3279 H3255 0.951 . S
C3279 C3280 1.366 . S
C3279 C3281 1.388 . S
C3280 C3279 1.366 . S
C3280 C3284 1.385 . S
C3281 H3256 0.951 . S
C3281 C3279 1.388 . S
C3281 C3282 1.366 . S
C3282 C3281 1.366 . S
C3282 C3283 1.414 . S
C3282 C3285 1.499 . S
C3283 H3257 0.950 . S
C3283 C3282 1.414 . S
C3283 C3284 1.374 . S
C3284 H3258 0.950 . S
C3284 C3280 1.385 . S
C3284 C3283 1.374 . S
C3285 C3282 1.499 . S
C3285 C3286 1.373 . S
C3285 C3287 1.389 1_655 S
C3286 H3259 0.950 . S
C3286 C3272 1.377 . S
C3286 C3285 1.373 . S
C3287 C3271 1.377 . S
C3287 C3285 1.389 1_455 S
C3287 C3288 1.524 . S
C3288 C3287 1.524 . S
C3288 C3289 1.397 . S
C3288 C3293 1.363 . S
C3289 H3260 0.950 1_455 S
C3289 C3288 1.397 . S
C3289 C3290 1.334 . S
C3290 H3261 0.950 . S
C3290 C3289 1.334 . S
C3290 C3291 1.287 . S
C3291 C3290 1.287 . S
C3291 C3292 1.524 . S
C3291 H3294 0.999 . S
C3292 H3262 0.950 . S
C3292 C3291 1.524 . S
C3292 C3293 1.415 . S
C3293 H3263 0.950 . S
C3293 C3288 1.363 . S
C3293 C3292 1.415 . S
H3294 C3291 0.999 . S
H3295 C3276 0.913 . S
H3296 C3314 0.951 . S
H3297 C3316 0.951 . S
H3298 C3318 0.950 . S
H3299 C3319 0.950 . S
H3300 C3321 0.950 . S
H3301 C3324 0.950 . S
H3302 C3325 0.950 . S
H3303 C3327 0.968 . S
H3304 C3328 0.950 . S
H3305 C3329 0.951 . S
H3306 C3331 0.951 . S
H3307 C3333 0.950 . S
H3308 C3334 0.950 . S
H3309 C3336 0.950 . S
H3310 C3339 0.950 . S
H3311 C3340 0.950 . S
H3312 C3342 0.968 . S
H3313 C3343 0.950 . S
C3314 H3296 0.951 . S
C3314 C3315 1.366 . S
C3314 C3316 1.388 . S
C3315 C3314 1.366 . S
C3315 C3319 1.385 . S
C3316 H3297 0.951 . S
C3316 C3314 1.388 . S
C3316 C3317 1.366 . S
C3317 C3316 1.366 . S
C3317 C3318 1.414 . S
C3317 C3320 1.499 . S
C3318 H3298 0.950 . S
C3318 C3317 1.414 . S
C3318 C3319 1.374 . S
C3319 H3299 0.950 . S
C3319 C3315 1.385 . S
C3319 C3318 1.374 . S
C3320 C3317 1.499 . S
C3320 C3321 1.373 . S
C3320 C3322 1.389 . S
C3321 H3300 0.950 . S
C3321 C3320 1.373 . S
C3321 C3337 1.377 1_545 S
C3322 C3320 1.389 . S
C3322 C3323 1.524 . S
C3322 C3336 1.377 1_545 S
C3323 C3322 1.524 . S
C3323 C3324 1.397 . S
C3323 C3328 1.363 1_545 S
C3324 H3301 0.950 . S
C3324 C3323 1.397 . S
C3324 C3325 1.334 . S
C3325 H3302 0.950 . S
C3325 C3324 1.334 . S
C3325 C3326 1.287 . S
C3326 C3325 1.287 . S
C3326 C3327 1.502 1_545 S
C3326 H3345 0.913 . S
C3327 H3303 0.968 . S
C3327 C3326 1.502 1_565 S
C3327 C3328 1.416 . S
C3328 H3304 0.950 . S
C3328 C3323 1.363 1_565 S
C3328 C3327 1.416 . S
C3329 H3305 0.951 . S
C3329 C3330 1.366 . S
C3329 C3331 1.388 . S
C3330 C3329 1.366 . S
C3330 C3334 1.385 . S
C3331 H3306 0.951 . S
C3331 C3329 1.388 . S
C3331 C3332 1.366 . S
C3332 C3331 1.366 . S
C3332 C3333 1.414 . S
C3332 C3335 1.499 . S
C3333 H3307 0.950 . S
C3333 C3332 1.414 . S
C3333 C3334 1.374 . S
C3334 H3308 0.950 . S
C3334 C3330 1.385 . S
C3334 C3333 1.374 . S
C3335 C3332 1.499 . S
C3335 C3336 1.373 . S
C3335 C3337 1.389 . S
C3336 H3309 0.950 . S
C3336 C3322 1.377 1_565 S
C3336 C3335 1.373 . S
C3337 C3321 1.377 1_565 S
C3337 C3335 1.389 . S
C3337 C3338 1.524 . S
C3338 C3337 1.524 . S
C3338 C3339 1.397 . S
C3338 C3343 1.363 1_565 S
C3339 H3310 0.950 . S
C3339 C3338 1.397 . S
C3339 C3340 1.334 . S
C3340 H3311 0.950 . S
C3340 C3339 1.334 . S
C3340 C3341 1.287 . S
C3341 C3340 1.287 . S
C3341 C3342 1.502 1_565 S
C3341 H3344 0.999 . S
C3342 H3312 0.968 . S
C3342 C3341 1.502 1_545 S
C3342 C3343 1.416 . S
C3343 H3313 0.950 . S
C3343 C3338 1.363 1_545 S
C3343 C3342 1.416 . S
H3344 C3341 0.999 . S
H3345 C3326 0.913 . S
H3346 C3364 0.951 . S
H3347 C3366 0.951 . S
H3348 C3368 0.950 . S
H3349 C3369 0.950 . S
H3350 C3371 0.950 . S
H3351 C3374 0.950 . S
H3352 C3375 0.950 . S
H3353 C3377 0.950 . S
H3354 C3378 0.950 . S
H3355 C3379 0.951 . S
H3356 C3381 0.951 . S
H3357 C3383 0.950 . S
H3358 C3384 0.950 . S
H3359 C3386 0.950 . S
H3360 C3389 0.950 . S
H3361 C3390 0.950 . S
H3362 C3392 0.950 . S
H3363 C3393 0.950 . S
C3364 H3346 0.951 . S
C3364 C3365 1.366 . S
C3364 C3366 1.388 . S
C3365 C3364 1.366 . S
C3365 C3369 1.385 . S
C3366 H3347 0.951 . S
C3366 C3364 1.388 . S
C3366 C3367 1.366 . S
C3367 C3366 1.366 . S
C3367 C3368 1.414 . S
C3367 C3370 1.499 . S
C3368 H3348 0.950 . S
C3368 C3367 1.414 . S
C3368 C3369 1.374 . S
C3369 H3349 0.950 . S
C3369 C3365 1.385 . S
C3369 C3368 1.374 . S
C3370 C3367 1.499 . S
C3370 C3371 1.373 . S
C3370 C3372 1.389 . S
C3371 H3350 0.950 . S
C3371 C3370 1.373 . S
C3371 C3387 1.377 . S
C3372 C3370 1.389 . S
C3372 C3373 1.524 . S
C3372 C3386 1.377 . S
C3373 C3372 1.524 . S
C3373 C3374 1.397 . S
C3373 C3378 1.363 . S
C3374 H3351 0.950 . S
C3374 C3373 1.397 . S
C3374 C3375 1.334 . S
C3375 H3352 0.950 . S
C3375 C3374 1.334 . S
C3375 C3376 1.287 . S
C3376 C3375 1.287 . S
C3376 C3377 1.524 . S
C3376 H3395 0.913 . S
C3377 H3353 0.950 . S
C3377 C3376 1.524 . S
C3377 C3378 1.415 . S
C3378 H3354 0.950 . S
C3378 C3373 1.363 . S
C3378 C3377 1.415 . S
C3379 H3355 0.951 . S
C3379 C3380 1.366 . S
C3379 C3381 1.388 . S
C3380 C3379 1.366 . S
C3380 C3384 1.385 . S
C3381 H3356 0.951 . S
C3381 C3379 1.388 . S
C3381 C3382 1.366 . S
C3382 C3381 1.366 . S
C3382 C3383 1.414 . S
C3382 C3385 1.499 . S
C3383 H3357 0.950 . S
C3383 C3382 1.414 . S
C3383 C3384 1.374 . S
C3384 H3358 0.950 . S
C3384 C3380 1.385 . S
C3384 C3383 1.374 . S
C3385 C3382 1.499 . S
C3385 C3386 1.373 . S
C3385 C3387 1.389 . S
C3386 H3359 0.950 . S
C3386 C3372 1.377 . S
C3386 C3385 1.373 . S
C3387 C3371 1.377 . S
C3387 C3385 1.389 . S
C3387 C3388 1.524 . S
C3388 C3387 1.524 . S
C3388 C3389 1.397 . S
C3388 C3393 1.363 . S
C3389 H3360 0.950 . S
C3389 C3388 1.397 . S
C3389 C3390 1.334 . S
C3390 H3361 0.950 . S
C3390 C3389 1.334 . S
C3390 C3391 1.287 . S
C3391 C3390 1.287 . S
C3391 C3392 1.524 . S
C3391 H3394 0.999 . S
C3392 H3362 0.950 . S
C3392 C3391 1.524 . S
C3392 C3393 1.415 . S
C3393 H3363 0.950 . S
C3393 C3388 1.363 . S
C3393 C3392 1.415 . S
H3394 C3391 0.999 . S
H3395 C3376 0.913 . S
H3396 C3414 0.951 . S
H3397 C3416 0.951 . S
H3398 C3418 0.950 . S
H3399 C3419 0.950 . S
H3400 C3421 0.950 . S
H3401 C3424 0.950 . S
H3402 C3425 0.950 . S
H3403 C3427 0.950 . S
H3404 C3428 0.950 . S
H3405 C3429 0.951 . S
H3406 C3431 0.951 . S
H3407 C3433 0.950 . S
H3408 C3434 0.950 . S
H3409 C3436 0.950 . S
H3410 C3439 0.950 . S
H3411 C3440 0.950 . S
H3412 C3442 0.950 . S
H3413 C3443 0.950 . S
C3414 H3396 0.951 . S
C3414 C3415 1.366 . S
C3414 C3416 1.388 . S
C3415 C3414 1.366 . S
C3415 C3419 1.385 . S
C3416 H3397 0.951 . S
C3416 C3414 1.388 . S
C3416 C3417 1.366 . S
C3417 C3416 1.366 . S
C3417 C3418 1.414 . S
C3417 C3420 1.499 . S
C3418 H3398 0.950 . S
C3418 C3417 1.414 . S
C3418 C3419 1.374 . S
C3419 H3399 0.950 . S
C3419 C3415 1.385 . S
C3419 C3418 1.374 . S
C3420 C3417 1.499 . S
C3420 C3421 1.373 . S
C3420 C3422 1.389 . S
C3421 H3400 0.950 . S
C3421 C3420 1.373 . S
C3421 C3437 1.377 1_545 S
C3422 C3420 1.389 . S
C3422 C3423 1.524 . S
C3422 C3436 1.377 1_545 S
C3423 C3422 1.524 . S
C3423 C3424 1.397 . S
C3423 C3428 1.363 1_545 S
C3424 H3401 0.950 . S
C3424 C3423 1.397 . S
C3424 C3425 1.334 . S
C3425 H3402 0.950 . S
C3425 C3424 1.334 . S
C3425 C3426 1.287 . S
C3426 C3425 1.287 . S
C3426 C3427 1.524 1_545 S
C3426 H3445 0.913 . S
C3427 H3403 0.950 . S
C3427 C3426 1.524 1_565 S
C3427 C3428 1.415 . S
C3428 H3404 0.950 . S
C3428 C3423 1.363 1_565 S
C3428 C3427 1.415 . S
C3429 H3405 0.951 . S
C3429 C3430 1.366 . S
C3429 C3431 1.388 . S
C3430 C3429 1.366 . S
C3430 C3434 1.385 . S
C3431 H3406 0.951 . S
C3431 C3429 1.388 . S
C3431 C3432 1.366 . S
C3432 C3431 1.366 . S
C3432 C3433 1.414 . S
C3432 C3435 1.499 . S
C3433 H3407 0.950 . S
C3433 C3432 1.414 . S
C3433 C3434 1.374 . S
C3434 H3408 0.950 . S
C3434 C3430 1.385 . S
C3434 C3433 1.374 . S
C3435 C3432 1.499 . S
C3435 C3436 1.373 . S
C3435 C3437 1.389 . S
C3436 H3409 0.950 . S
C3436 C3422 1.377 1_565 S
C3436 C3435 1.373 . S
C3437 C3421 1.377 1_565 S
C3437 C3435 1.389 . S
C3437 C3438 1.524 . S
C3438 C3437 1.524 . S
C3438 C3439 1.397 . S
C3438 C3443 1.363 1_565 S
C3439 H3410 0.950 . S
C3439 C3438 1.397 . S
C3439 C3440 1.334 . S
C3440 H3411 0.950 . S
C3440 C3439 1.334 . S
C3440 C3441 1.287 . S
C3441 C3440 1.287 . S
C3441 C3442 1.524 1_565 S
C3441 H3444 0.999 . S
C3442 H3412 0.950 . S
C3442 C3441 1.524 1_545 S
C3442 C3443 1.415 . S
C3443 H3413 0.950 . S
C3443 C3438 1.363 1_545 S
C3443 C3442 1.415 . S
H3444 C3441 0.999 . S
H3445 C3426 0.913 . S
H3446 C3464 0.951 . S
H3447 C3466 0.951 . S
H3448 C3468 0.950 . S
H3449 C3469 0.950 . S
H3450 C3471 0.950 . S
H3451 C3474 0.950 . S
H3452 C3475 0.950 . S
H3453 C3477 0.950 . S
H3454 C3478 0.950 . S
H3455 C3479 0.951 . S
H3456 C3481 0.951 . S
H3457 C3483 0.950 . S
H3458 C3484 0.950 . S
H3459 C3486 0.950 . S
H3460 C3489 0.950 . S
H3461 C3490 0.950 . S
H3462 C3492 0.950 . S
H3463 C3493 0.950 . S
C3464 H3446 0.951 . S
C3464 C3465 1.366 . S
C3464 C3466 1.388 . S
C3465 C3464 1.366 . S
C3465 C3469 1.385 . S
C3466 H3447 0.951 . S
C3466 C3464 1.388 . S
C3466 C3467 1.366 . S
C3467 C3466 1.366 . S
C3467 C3468 1.414 . S
C3467 C3470 1.499 . S
C3468 H3448 0.950 . S
C3468 C3467 1.414 . S
C3468 C3469 1.374 . S
C3469 H3449 0.950 . S
C3469 C3465 1.385 . S
C3469 C3468 1.374 . S
C3470 C3467 1.499 . S
C3470 C3471 1.373 . S
C3470 C3472 1.389 . S
C3471 H3450 0.950 . S
C3471 C3470 1.373 . S
C3471 C3487 1.377 . S
C3472 C3470 1.389 . S
C3472 C3473 1.524 . S
C3472 C3486 1.377 . S
C3473 C3472 1.524 . S
C3473 C3474 1.397 . S
C3473 C3478 1.363 . S
C3474 H3451 0.950 . S
C3474 C3473 1.397 . S
C3474 C3475 1.334 . S
C3475 H3452 0.950 . S
C3475 C3474 1.334 . S
C3475 C3476 1.287 . S
C3476 C3475 1.287 . S
C3476 C3477 1.524 . S
C3476 H3495 0.913 . S
C3477 H3453 0.950 . S
C3477 C3476 1.524 . S
C3477 C3478 1.415 . S
C3478 H3454 0.950 . S
C3478 C3473 1.363 . S
C3478 C3477 1.415 . S
C3479 H3455 0.951 . S
C3479 C3480 1.366 . S
C3479 C3481 1.388 . S
C3480 C3479 1.366 . S
C3480 C3484 1.385 . S
C3481 H3456 0.951 . S
C3481 C3479 1.388 . S
C3481 C3482 1.366 . S
C3482 C3481 1.366 . S
C3482 C3483 1.414 . S
C3482 C3485 1.499 . S
C3483 H3457 0.950 . S
C3483 C3482 1.414 . S
C3483 C3484 1.374 . S
C3484 H3458 0.950 . S
C3484 C3480 1.385 . S
C3484 C3483 1.374 . S
C3485 C3482 1.499 . S
C3485 C3486 1.373 . S
C3485 C3487 1.389 . S
C3486 H3459 0.950 . S
C3486 C3472 1.377 . S
C3486 C3485 1.373 . S
C3487 C3471 1.377 . S
C3487 C3485 1.389 . S
C3487 C3488 1.524 . S
C3488 C3487 1.524 . S
C3488 C3489 1.397 . S
C3488 C3493 1.363 . S
C3489 H3460 0.950 . S
C3489 C3488 1.397 . S
C3489 C3490 1.334 . S
C3490 H3461 0.950 . S
C3490 C3489 1.334 . S
C3490 C3491 1.287 . S
C3491 C3490 1.287 . S
C3491 C3492 1.524 . S
C3491 H3494 0.999 . S
C3492 H3462 0.950 . S
C3492 C3491 1.524 . S
C3492 C3493 1.415 . S
C3493 H3463 0.950 . S
C3493 C3488 1.363 . S
C3493 C3492 1.415 . S
H3494 C3491 0.999 . S
H3495 C3476 0.913 . S
H3496 C3514 0.951 . S
H3497 C3516 0.951 . S
H3498 C3518 0.950 . S
H3499 C3519 0.950 . S
H3500 C3521 0.950 . S
H3501 C3524 0.950 . S
H3502 C3525 0.950 1_455 S
H3503 C3527 0.950 . S
H3504 C3528 0.950 . S
H3505 C3529 0.951 . S
H3506 C3531 0.951 . S
H3507 C3533 0.950 . S
H3508 C3534 0.950 . S
H3509 C3536 0.950 . S
H3510 C3539 0.950 . S
H3511 C3540 0.950 1_655 S
H3512 C3542 0.950 . S
H3513 C3543 0.950 . S
C3514 H3496 0.951 . S
C3514 C3515 1.366 . S
C3514 C3516 1.388 . S
C3515 C3514 1.366 . S
C3515 C3519 1.385 . S
C3516 H3497 0.951 . S
C3516 C3514 1.388 . S
C3516 C3517 1.366 . S
C3517 C3516 1.366 . S
C3517 C3518 1.414 . S
C3517 C3520 1.499 . S
C3518 H3498 0.950 . S
C3518 C3517 1.414 . S
C3518 C3519 1.374 . S
C3519 H3499 0.950 . S
C3519 C3515 1.385 . S
C3519 C3518 1.374 . S
C3520 C3517 1.499 . S
C3520 C3521 1.373 . S
C3520 C3522 1.389 1_455 S
C3521 H3500 0.950 . S
C3521 C3520 1.373 . S
C3521 C3537 1.377 . S
C3522 C3520 1.389 1_655 S
C3522 C3523 1.524 . S
C3522 C3536 1.377 . S
C3523 C3522 1.524 . S
C3523 C3524 1.397 1_655 S
C3523 C3528 1.363 . S
C3524 H3501 0.950 . S
C3524 C3523 1.397 1_455 S
C3524 C3525 1.334 1_455 S
C3525 H3502 0.950 1_655 S
C3525 C3524 1.334 1_655 S
C3525 C3526 1.287 . S
C3526 C3525 1.287 . S
C3526 C3527 1.524 . S
C3526 H3545 0.913 . S
C3527 H3503 0.950 . S
C3527 C3526 1.524 . S
C3527 C3528 1.415 . S
C3528 H3504 0.950 . S
C3528 C3523 1.363 . S
C3528 C3527 1.415 . S
C3529 H3505 0.951 . S
C3529 C3530 1.366 . S
C3529 C3531 1.388 . S
C3530 C3529 1.366 . S
C3530 C3534 1.385 . S
C3531 H3506 0.951 . S
C3531 C3529 1.388 . S
C3531 C3532 1.366 . S
C3532 C3531 1.366 . S
C3532 C3533 1.414 . S
C3532 C3535 1.499 . S
C3533 H3507 0.950 . S
C3533 C3532 1.414 . S
C3533 C3534 1.374 . S
C3534 H3508 0.950 . S
C3534 C3530 1.385 . S
C3534 C3533 1.374 . S
C3535 C3532 1.499 . S
C3535 C3536 1.373 . S
C3535 C3537 1.389 1_655 S
C3536 H3509 0.950 . S
C3536 C3522 1.377 . S
C3536 C3535 1.373 . S
C3537 C3521 1.377 . S
C3537 C3535 1.389 1_455 S
C3537 C3538 1.524 . S
C3538 C3537 1.524 . S
C3538 C3539 1.397 1_455 S
C3538 C3543 1.363 . S
C3539 H3510 0.950 . S
C3539 C3538 1.397 1_655 S
C3539 C3540 1.334 1_655 S
C3540 H3511 0.950 1_455 S
C3540 C3539 1.334 1_455 S
C3540 C3541 1.287 . S
C3541 C3540 1.287 . S
C3541 C3542 1.524 . S
C3541 H3544 0.999 . S
C3542 H3512 0.950 . S
C3542 C3541 1.524 . S
C3542 C3543 1.415 . S
C3543 H3513 0.950 . S
C3543 C3538 1.363 . S
C3543 C3542 1.415 . S
H3544 C3541 0.999 . S
H3545 C3526 0.913 . S
H3546 C3564 0.951 . S
H3547 C3566 0.951 . S
H3548 C3568 0.950 . S
H3549 C3569 0.950 . S
H3550 C3571 0.950 . S
H3551 C3574 0.950 . S
H3552 C3575 0.950 . S
H3553 C3577 0.950 . S
H3554 C3578 0.950 . S
H3555 C3579 0.951 . S
H3556 C3581 0.951 . S
H3557 C3583 0.950 . S
H3558 C3584 0.950 . S
H3559 C3586 0.950 . S
H3560 C3589 0.950 . S
H3561 C3590 0.950 . S
H3562 C3592 0.950 . S
H3563 C3593 0.950 . S
C3564 H3546 0.951 . S
C3564 C3565 1.366 . S
C3564 C3566 1.388 . S
C3565 C3564 1.366 . S
C3565 C3569 1.385 . S
C3566 H3547 0.951 . S
C3566 C3564 1.388 . S
C3566 C3567 1.366 . S
C3567 C3566 1.366 . S
C3567 C3568 1.414 . S
C3567 C3570 1.499 . S
C3568 H3548 0.950 . S
C3568 C3567 1.414 . S
C3568 C3569 1.374 . S
C3569 H3549 0.950 . S
C3569 C3565 1.385 . S
C3569 C3568 1.374 . S
C3570 C3567 1.499 . S
C3570 C3571 1.373 1_655 S
C3570 C3572 1.389 . S
C3571 H3550 0.950 . S
C3571 C3570 1.373 1_455 S
C3571 C3587 1.377 . S
C3572 C3570 1.389 . S
C3572 C3573 1.524 . S
C3572 C3586 1.377 . S
C3573 C3572 1.524 . S
C3573 C3574 1.397 . S
C3573 C3578 1.363 . S
C3574 H3551 0.950 . S
C3574 C3573 1.397 . S
C3574 C3575 1.334 . S
C3575 H3552 0.950 . S
C3575 C3574 1.334 . S
C3575 C3576 1.287 . S
C3576 C3575 1.287 . S
C3576 C3577 1.524 . S
C3576 H3595 0.913 . S
C3577 H3553 0.950 . S
C3577 C3576 1.524 . S
C3577 C3578 1.415 . S
C3578 H3554 0.950 . S
C3578 C3573 1.363 . S
C3578 C3577 1.415 . S
C3579 H3555 0.951 . S
C3579 C3580 1.366 . S
C3579 C3581 1.388 . S
C3580 C3579 1.366 . S
C3580 C3584 1.385 . S
C3581 H3556 0.951 . S
C3581 C3579 1.388 . S
C3581 C3582 1.366 . S
C3582 C3581 1.366 . S
C3582 C3583 1.414 . S
C3582 C3585 1.499 . S
C3583 H3557 0.950 . S
C3583 C3582 1.414 . S
C3583 C3584 1.374 . S
C3584 H3558 0.950 . S
C3584 C3580 1.385 . S
C3584 C3583 1.374 . S
C3585 C3582 1.499 . S
C3585 C3586 1.373 1_455 S
C3585 C3587 1.389 . S
C3586 H3559 0.950 . S
C3586 C3572 1.377 . S
C3586 C3585 1.373 1_655 S
C3587 C3571 1.377 . S
C3587 C3585 1.389 . S
C3587 C3588 1.524 . S
C3588 C3587 1.524 . S
C3588 C3589 1.397 . S
C3588 C3593 1.363 . S
C3589 H3560 0.950 . S
C3589 C3588 1.397 . S
C3589 C3590 1.334 . S
C3590 H3561 0.950 . S
C3590 C3589 1.334 . S
C3590 C3591 1.287 . S
C3591 C3590 1.287 . S
C3591 C3592 1.524 . S
C3591 H3594 0.999 . S
C3592 H3562 0.950 . S
C3592 C3591 1.524 . S
C3592 C3593 1.415 . S
C3593 H3563 0.950 . S
C3593 C3588 1.363 . S
C3593 C3592 1.415 . S
H3594 C3591 0.999 . S
H3595 C3576 0.913 . S
H3596 C3614 0.951 . S
H3597 C3616 0.951 . S
H3598 C3618 0.950 . S
H3599 C3619 0.950 . S
H3600 C3621 0.950 . S
H3601 C3624 0.950 . S
H3602 C3625 0.950 . S
H3603 C3627 0.950 . S
H3604 C3628 0.950 . S
H3605 C3629 0.951 . S
H3606 C3631 0.951 . S
H3607 C3633 0.950 . S
H3608 C3634 0.950 . S
H3609 C3636 0.950 . S
H3610 C3639 0.950 . S
H3611 C3640 0.950 . S
H3612 C3642 0.950 . S
H3613 C3643 0.950 . S
C3614 H3596 0.951 . S
C3614 C3615 1.366 . S
C3614 C3616 1.388 . S
C3615 C3614 1.366 . S
C3615 C3619 1.385 . S
C3616 H3597 0.951 . S
C3616 C3614 1.388 . S
C3616 C3617 1.366 . S
C3617 C3616 1.366 . S
C3617 C3618 1.414 . S
C3617 C3620 1.499 . S
C3618 H3598 0.950 . S
C3618 C3617 1.414 . S
C3618 C3619 1.374 . S
C3619 H3599 0.950 . S
C3619 C3615 1.385 . S
C3619 C3618 1.374 . S
C3620 C3617 1.499 . S
C3620 C3621 1.373 1_545 S
C3620 C3622 1.389 . S
C3621 H3600 0.950 . S
C3621 C3620 1.373 1_565 S
C3621 C3637 1.377 . S
C3622 C3620 1.389 . S
C3622 C3623 1.524 . S
C3622 C3636 1.377 . S
C3623 C3622 1.524 . S
C3623 C3624 1.397 . S
C3623 C3628 1.363 . S
C3624 H3601 0.950 . S
C3624 C3623 1.397 . S
C3624 C3625 1.334 . S
C3625 H3602 0.950 . S
C3625 C3624 1.334 . S
C3625 C3626 1.287 . S
C3626 C3625 1.287 . S
C3626 C3627 1.524 . S
C3626 H3645 0.913 . S
C3627 H3603 0.950 . S
C3627 C3626 1.524 . S
C3627 C3628 1.415 . S
C3628 H3604 0.950 . S
C3628 C3623 1.363 . S
C3628 C3627 1.415 . S
C3629 H3605 0.951 . S
C3629 C3630 1.366 . S
C3629 C3631 1.388 . S
C3630 C3629 1.366 . S
C3630 C3634 1.385 . S
C3631 H3606 0.951 . S
C3631 C3629 1.388 . S
C3631 C3632 1.366 . S
C3632 C3631 1.366 . S
C3632 C3633 1.414 . S
C3632 C3635 1.499 . S
C3633 H3607 0.950 . S
C3633 C3632 1.414 . S
C3633 C3634 1.374 . S
C3634 H3608 0.950 . S
C3634 C3630 1.385 . S
C3634 C3633 1.374 . S
C3635 C3632 1.499 . S
C3635 C3636 1.373 1_565 S
C3635 C3637 1.389 . S
C3636 H3609 0.950 . S
C3636 C3622 1.377 . S
C3636 C3635 1.373 1_545 S
C3637 C3621 1.377 . S
C3637 C3635 1.389 . S
C3637 C3638 1.524 . S
C3638 C3637 1.524 . S
C3638 C3639 1.397 . S
C3638 C3643 1.363 . S
C3639 H3610 0.950 . S
C3639 C3638 1.397 . S
C3639 C3640 1.334 . S
C3640 H3611 0.950 . S
C3640 C3639 1.334 . S
C3640 C3641 1.287 . S
C3641 C3640 1.287 . S
C3641 C3642 1.524 . S
C3641 H3644 0.999 . S
C3642 H3612 0.950 . S
C3642 C3641 1.524 . S
C3642 C3643 1.415 . S
C3643 H3613 0.950 . S
C3643 C3638 1.363 . S
C3643 C3642 1.415 . S
H3644 C3641 0.999 . S
H3645 C3626 0.913 . S
H3646 C3664 0.951 . S
H3647 C3666 0.951 . S
H3648 C3668 0.950 . S
H3649 C3669 0.950 . S
H3650 C3671 0.950 . S
H3651 C3674 0.950 . S
H3652 C3675 0.950 . S
H3653 C3677 0.950 . S
H3654 C3678 0.950 . S
H3655 C3679 0.951 . S
H3656 C3681 0.951 . S
H3657 C3683 0.950 . S
H3658 C3684 0.950 . S
H3659 C3686 0.950 . S
H3660 C3689 0.950 . S
H3661 C3690 0.950 . S
H3662 C3692 0.950 . S
H3663 C3693 0.950 . S
C3664 H3646 0.951 . S
C3664 C3665 1.366 . S
C3664 C3666 1.388 . S
C3665 C3664 1.366 . S
C3665 C3669 1.385 . S
C3666 H3647 0.951 . S
C3666 C3664 1.388 . S
C3666 C3667 1.366 . S
C3667 C3666 1.366 . S
C3667 C3668 1.414 . S
C3667 C3670 1.499 . S
C3668 H3648 0.950 . S
C3668 C3667 1.414 . S
C3668 C3669 1.374 . S
C3669 H3649 0.950 . S
C3669 C3665 1.385 . S
C3669 C3668 1.374 . S
C3670 C3667 1.499 . S
C3670 C3671 1.373 . S
C3670 C3672 1.389 . S
C3671 H3650 0.950 . S
C3671 C3670 1.373 . S
C3671 C3687 1.377 . S
C3672 C3670 1.389 . S
C3672 C3673 1.524 . S
C3672 C3686 1.377 . S
C3673 C3672 1.524 . S
C3673 C3674 1.397 . S
C3673 C3678 1.363 . S
C3674 H3651 0.950 . S
C3674 C3673 1.397 . S
C3674 C3675 1.334 . S
C3675 H3652 0.950 . S
C3675 C3674 1.334 . S
C3675 C3676 1.287 . S
C3676 C3675 1.287 . S
C3676 C3677 1.524 . S
C3676 H3695 0.913 . S
C3677 H3653 0.950 . S
C3677 C3676 1.524 . S
C3677 C3678 1.415 . S
C3678 H3654 0.950 . S
C3678 C3673 1.363 . S
C3678 C3677 1.415 . S
C3679 H3655 0.951 . S
C3679 C3680 1.366 . S
C3679 C3681 1.388 . S
C3680 C3679 1.366 . S
C3680 C3684 1.385 . S
C3681 H3656 0.951 . S
C3681 C3679 1.388 . S
C3681 C3682 1.366 . S
C3682 C3681 1.366 . S
C3682 C3683 1.414 . S
C3682 C3685 1.499 . S
C3683 H3657 0.950 . S
C3683 C3682 1.414 . S
C3683 C3684 1.374 . S
C3684 H3658 0.950 . S
C3684 C3680 1.385 . S
C3684 C3683 1.374 . S
C3685 C3682 1.499 . S
C3685 C3686 1.373 . S
C3685 C3687 1.389 . S
C3686 H3659 0.950 . S
C3686 C3672 1.377 . S
C3686 C3685 1.373 . S
C3687 C3671 1.377 . S
C3687 C3685 1.389 . S
C3687 C3688 1.524 . S
C3688 C3687 1.524 . S
C3688 C3689 1.397 . S
C3688 C3693 1.363 . S
C3689 H3660 0.950 . S
C3689 C3688 1.397 . S
C3689 C3690 1.334 . S
C3690 H3661 0.950 . S
C3690 C3689 1.334 . S
C3690 C3691 1.287 . S
C3691 C3690 1.287 . S
C3691 C3692 1.524 . S
C3691 H3694 0.999 . S
C3692 H3662 0.950 . S
C3692 C3691 1.524 . S
C3692 C3693 1.415 . S
C3693 H3663 0.950 . S
C3693 C3688 1.363 . S
C3693 C3692 1.415 . S
H3694 C3691 0.999 . S
H3695 C3676 0.913 . S
H3696 C3714 0.951 . S
H3697 C3716 0.951 . S
H3698 C3718 0.950 . S
H3699 C3719 0.950 . S
H3700 C3721 0.950 . S
H3701 C3724 0.950 . S
H3702 C3725 0.950 . S
H3703 C3727 0.950 . S
H3704 C3728 0.950 . S
H3705 C3729 0.951 . S
H3706 C3731 0.951 . S
H3707 C3733 0.950 . S
H3708 C3734 0.950 . S
H3709 C3736 0.950 . S
H3710 C3739 0.950 . S
H3711 C3740 0.950 . S
H3712 C3742 0.950 . S
H3713 C3743 0.950 . S
C3714 H3696 0.951 . S
C3714 C3715 1.366 . S
C3714 C3716 1.388 . S
C3715 C3714 1.366 . S
C3715 C3719 1.385 . S
C3716 H3697 0.951 . S
C3716 C3714 1.388 . S
C3716 C3717 1.366 . S
C3717 C3716 1.366 . S
C3717 C3718 1.414 . S
C3717 C3720 1.499 . S
C3718 H3698 0.950 . S
C3718 C3717 1.414 . S
C3718 C3719 1.374 . S
C3719 H3699 0.950 . S
C3719 C3715 1.385 . S
C3719 C3718 1.374 . S
C3720 C3717 1.499 . S
C3720 C3721 1.373 . S
C3720 C3722 1.389 . S
C3721 H3700 0.950 . S
C3721 C3720 1.373 . S
C3721 C3737 1.377 . S
C3722 C3720 1.389 . S
C3722 C3723 1.524 . S
C3722 C3736 1.377 . S
C3723 C3722 1.524 . S
C3723 C3724 1.397 . S
C3723 C3728 1.363 . S
C3724 H3701 0.950 . S
C3724 C3723 1.397 . S
C3724 C3725 1.334 . S
C3725 H3702 0.950 . S
C3725 C3724 1.334 . S
C3725 C3726 1.287 . S
C3726 C3725 1.287 . S
C3726 C3727 1.524 . S
C3726 H3745 0.913 . S
C3727 H3703 0.950 . S
C3727 C3726 1.524 . S
C3727 C3728 1.415 . S
C3728 H3704 0.950 . S
C3728 C3723 1.363 . S
C3728 C3727 1.415 . S
C3729 H3705 0.951 . S
C3729 C3730 1.366 . S
C3729 C3731 1.388 . S
C3730 C3729 1.366 . S
C3730 C3734 1.385 . S
C3731 H3706 0.951 . S
C3731 C3729 1.388 . S
C3731 C3732 1.366 . S
C3732 C3731 1.366 . S
C3732 C3733 1.414 . S
C3732 C3735 1.499 . S
C3733 H3707 0.950 . S
C3733 C3732 1.414 . S
C3733 C3734 1.374 . S
C3734 H3708 0.950 . S
C3734 C3730 1.385 . S
C3734 C3733 1.374 . S
C3735 C3732 1.499 . S
C3735 C3736 1.373 . S
C3735 C3737 1.389 . S
C3736 H3709 0.950 . S
C3736 C3722 1.377 . S
C3736 C3735 1.373 . S
C3737 C3721 1.377 . S
C3737 C3735 1.389 . S
C3737 C3738 1.524 . S
C3738 C3737 1.524 . S
C3738 C3739 1.397 . S
C3738 C3743 1.363 . S
C3739 H3710 0.950 . S
C3739 C3738 1.397 . S
C3739 C3740 1.334 . S
C3740 H3711 0.950 . S
C3740 C3739 1.334 . S
C3740 C3741 1.287 . S
C3741 C3740 1.287 . S
C3741 C3742 1.524 . S
C3741 H3744 0.999 . S
C3742 H3712 0.950 . S
C3742 C3741 1.524 . S
C3742 C3743 1.415 . S
C3743 H3713 0.950 . S
C3743 C3738 1.363 . S
C3743 C3742 1.415 . S
H3744 C3741 0.999 . S
H3745 C3726 0.913 . S
H3746 C3764 0.951 . S
H3747 C3766 0.951 . S
H3748 C3768 0.950 . S
H3749 C3769 0.950 . S
H3750 C3771 0.950 . S
H3751 C3774 0.950 . S
H3752 C3775 0.950 . S
H3753 C3777 0.950 . S
H3754 C3778 0.950 . S
H3755 C3779 0.951 . S
H3756 C3781 0.951 . S
H3757 C3783 0.950 . S
H3758 C3784 0.950 . S
H3759 C3786 0.950 . S
H3760 C3789 0.950 . S
H3761 C3790 0.950 . S
H3762 C3792 0.950 . S
H3763 C3793 0.950 . S
C3764 H3746 0.951 . S
C3764 C3765 1.366 . S
C3764 C3766 1.388 . S
C3765 C3764 1.366 . S
C3765 C3769 1.385 . S
C3766 H3747 0.951 . S
C3766 C3764 1.388 . S
C3766 C3767 1.366 . S
C3767 C3766 1.366 . S
C3767 C3768 1.414 . S
C3767 C3770 1.499 . S
C3768 H3748 0.950 . S
C3768 C3767 1.414 . S
C3768 C3769 1.374 . S
C3769 H3749 0.950 . S
C3769 C3765 1.385 . S
C3769 C3768 1.374 . S
C3770 C3767 1.499 . S
C3770 C3771 1.373 . S
C3770 C3772 1.389 . S
C3771 H3750 0.950 . S
C3771 C3770 1.373 . S
C3771 C3787 1.377 . S
C3772 C3770 1.389 . S
C3772 C3773 1.524 . S
C3772 C3786 1.377 . S
C3773 C3772 1.524 . S
C3773 C3774 1.397 . S
C3773 C3778 1.363 . S
C3774 H3751 0.950 . S
C3774 C3773 1.397 . S
C3774 C3775 1.334 . S
C3775 H3752 0.950 . S
C3775 C3774 1.334 . S
C3775 C3776 1.287 . S
C3776 C3775 1.287 . S
C3776 C3777 1.524 . S
C3776 H3795 0.913 . S
C3777 H3753 0.950 . S
C3777 C3776 1.524 . S
C3777 C3778 1.415 . S
C3778 H3754 0.950 . S
C3778 C3773 1.363 . S
C3778 C3777 1.415 . S
C3779 H3755 0.951 . S
C3779 C3780 1.366 . S
C3779 C3781 1.388 . S
C3780 C3779 1.366 . S
C3780 C3784 1.385 . S
C3781 H3756 0.951 . S
C3781 C3779 1.388 . S
C3781 C3782 1.366 . S
C3782 C3781 1.366 . S
C3782 C3783 1.414 . S
C3782 C3785 1.499 . S
C3783 H3757 0.950 . S
C3783 C3782 1.414 . S
C3783 C3784 1.374 . S
C3784 H3758 0.950 . S
C3784 C3780 1.385 . S
C3784 C3783 1.374 . S
C3785 C3782 1.499 . S
C3785 C3786 1.373 . S
C3785 C3787 1.389 . S
C3786 H3759 0.950 . S
C3786 C3772 1.377 . S
C3786 C3785 1.373 . S
C3787 C3771 1.377 . S
C3787 C3785 1.389 . S
C3787 C3788 1.524 . S
C3788 C3787 1.524 . S
C3788 C3789 1.397 . S
C3788 C3793 1.363 . S
C3789 H3760 0.950 . S
C3789 C3788 1.397 . S
C3789 C3790 1.334 . S
C3790 H3761 0.950 . S
C3790 C3789 1.334 . S
C3790 C3791 1.287 . S
C3791 C3790 1.287 . S
C3791 C3792 1.524 . S
C3791 H3794 0.999 . S
C3792 H3762 0.950 . S
C3792 C3791 1.524 . S
C3792 C3793 1.415 . S
C3793 H3763 0.950 . S
C3793 C3788 1.363 . S
C3793 C3792 1.415 . S
H3794 C3791 0.999 . S
H3795 C3776 0.913 . S
H3796 C3814 0.951 . S
H3797 C3816 0.951 . S
H3798 C3818 0.950 . S
H3799 C3819 0.950 . S
H3800 C3821 0.950 . S
H3801 C3824 0.950 . S
H3802 C3825 0.950 . S
H3803 C3827 0.950 . S
H3804 C3828 0.950 . S
H3805 C3829 0.951 . S
H3806 C3831 0.951 . S
H3807 C3833 0.950 . S
H3808 C3834 0.950 . S
H3809 C3836 0.950 . S
H3810 C3839 0.950 . S
H3811 C3840 0.950 . S
H3812 C3842 0.950 . S
H3813 C3843 0.950 . S
C3814 H3796 0.951 . S
C3814 C3815 1.366 . S
C3814 C3816 1.388 . S
C3815 C3814 1.366 . S
C3815 C3819 1.385 . S
C3816 H3797 0.951 . S
C3816 C3814 1.388 . S
C3816 C3817 1.366 . S
C3817 C3816 1.366 . S
C3817 C3818 1.414 . S
C3817 C3820 1.499 . S
C3818 H3798 0.950 . S
C3818 C3817 1.414 . S
C3818 C3819 1.374 . S
C3819 H3799 0.950 . S
C3819 C3815 1.385 . S
C3819 C3818 1.374 . S
C3820 C3817 1.499 . S
C3820 C3821 1.373 . S
C3820 C3822 1.389 . S
C3821 H3800 0.950 . S
C3821 C3820 1.373 . S
C3821 C3837 1.377 . S
C3822 C3820 1.389 . S
C3822 C3823 1.524 . S
C3822 C3836 1.377 . S
C3823 C3822 1.524 . S
C3823 C3824 1.397 . S
C3823 C3828 1.363 . S
C3824 H3801 0.950 . S
C3824 C3823 1.397 . S
C3824 C3825 1.334 . S
C3825 H3802 0.950 . S
C3825 C3824 1.334 . S
C3825 C3826 1.287 . S
C3826 C3825 1.287 . S
C3826 C3827 1.524 . S
C3826 H3845 0.913 . S
C3827 H3803 0.950 . S
C3827 C3826 1.524 . S
C3827 C3828 1.415 . S
C3828 H3804 0.950 . S
C3828 C3823 1.363 . S
C3828 C3827 1.415 . S
C3829 H3805 0.951 . S
C3829 C3830 1.366 . S
C3829 C3831 1.388 . S
C3830 C3829 1.366 . S
C3830 C3834 1.385 . S
C3831 H3806 0.951 . S
C3831 C3829 1.388 . S
C3831 C3832 1.366 . S
C3832 C3831 1.366 . S
C3832 C3833 1.414 . S
C3832 C3835 1.499 . S
C3833 H3807 0.950 . S
C3833 C3832 1.414 . S
C3833 C3834 1.374 . S
C3834 H3808 0.950 . S
C3834 C3830 1.385 . S
C3834 C3833 1.374 . S
C3835 C3832 1.499 . S
C3835 C3836 1.373 . S
C3835 C3837 1.389 . S
C3836 H3809 0.950 . S
C3836 C3822 1.377 . S
C3836 C3835 1.373 . S
C3837 C3821 1.377 . S
C3837 C3835 1.389 . S
C3837 C3838 1.524 . S
C3838 C3837 1.524 . S
C3838 C3839 1.397 . S
C3838 C3843 1.363 . S
C3839 H3810 0.950 . S
C3839 C3838 1.397 . S
C3839 C3840 1.334 . S
C3840 H3811 0.950 . S
C3840 C3839 1.334 . S
C3840 C3841 1.287 . S
C3841 C3840 1.287 . S
C3841 C3842 1.524 . S
C3841 H3844 0.999 . S
C3842 H3812 0.950 . S
C3842 C3841 1.524 . S
C3842 C3843 1.415 . S
C3843 H3813 0.950 . S
C3843 C3838 1.363 . S
C3843 C3842 1.415 . S
H3844 C3841 0.999 . S
H3845 C3826 0.913 . S
H3846 C3864 0.951 . S
H3847 C3866 0.951 . S
H3848 C3868 0.950 . S
H3849 C3869 0.950 . S
H3850 C3871 0.950 . S
H3851 C3874 0.950 . S
H3852 C3875 0.950 . S
H3853 C3877 0.950 . S
H3854 C3878 0.950 . S
H3855 C3879 0.951 . S
H3856 C3881 0.951 . S
H3857 C3883 0.950 . S
H3858 C3884 0.950 . S
H3859 C3886 0.950 . S
H3860 C3889 0.950 . S
H3861 C3890 0.950 . S
H3862 C3892 0.950 . S
H3863 C3893 0.950 . S
C3864 H3846 0.951 . S
C3864 C3865 1.366 . S
C3864 C3866 1.388 . S
C3865 C3864 1.366 . S
C3865 C3869 1.385 . S
C3866 H3847 0.951 . S
C3866 C3864 1.388 . S
C3866 C3867 1.366 . S
C3867 C3866 1.366 . S
C3867 C3868 1.414 . S
C3867 C3870 1.499 . S
C3868 H3848 0.950 . S
C3868 C3867 1.414 . S
C3868 C3869 1.374 . S
C3869 H3849 0.950 . S
C3869 C3865 1.385 . S
C3869 C3868 1.374 . S
C3870 C3867 1.499 . S
C3870 C3871 1.373 . S
C3870 C3872 1.389 . S
C3871 H3850 0.950 . S
C3871 C3870 1.373 . S
C3871 C3887 1.377 . S
C3872 C3870 1.389 . S
C3872 C3873 1.524 . S
C3872 C3886 1.377 . S
C3873 C3872 1.524 . S
C3873 C3874 1.397 . S
C3873 C3878 1.363 . S
C3874 H3851 0.950 . S
C3874 C3873 1.397 . S
C3874 C3875 1.334 . S
C3875 H3852 0.950 . S
C3875 C3874 1.334 . S
C3875 C3876 1.287 . S
C3876 C3875 1.287 . S
C3876 C3877 1.524 . S
C3876 H3895 0.913 . S
C3877 H3853 0.950 . S
C3877 C3876 1.524 . S
C3877 C3878 1.415 . S
C3878 H3854 0.950 . S
C3878 C3873 1.363 . S
C3878 C3877 1.415 . S
C3879 H3855 0.951 . S
C3879 C3880 1.366 . S
C3879 C3881 1.388 . S
C3880 C3879 1.366 . S
C3880 C3884 1.385 . S
C3881 H3856 0.951 . S
C3881 C3879 1.388 . S
C3881 C3882 1.366 . S
C3882 C3881 1.366 . S
C3882 C3883 1.414 . S
C3882 C3885 1.499 . S
C3883 H3857 0.950 . S
C3883 C3882 1.414 . S
C3883 C3884 1.374 . S
C3884 H3858 0.950 . S
C3884 C3880 1.385 . S
C3884 C3883 1.374 . S
C3885 C3882 1.499 . S
C3885 C3886 1.373 . S
C3885 C3887 1.389 . S
C3886 H3859 0.950 . S
C3886 C3872 1.377 . S
C3886 C3885 1.373 . S
C3887 C3871 1.377 . S
C3887 C3885 1.389 . S
C3887 C3888 1.524 . S
C3888 C3887 1.524 . S
C3888 C3889 1.397 . S
C3888 C3893 1.363 . S
C3889 H3860 0.950 . S
C3889 C3888 1.397 . S
C3889 C3890 1.334 . S
C3890 H3861 0.950 . S
C3890 C3889 1.334 . S
C3890 C3891 1.287 . S
C3891 C3890 1.287 . S
C3891 C3892 1.524 . S
C3891 H3894 0.999 . S
C3892 H3862 0.950 . S
C3892 C3891 1.524 . S
C3892 C3893 1.415 . S
C3893 H3863 0.950 . S
C3893 C3888 1.363 . S
C3893 C3892 1.415 . S
H3894 C3891 0.999 . S
H3895 C3876 0.913 . S
H3896 C3914 0.951 . S
H3897 C3916 0.951 . S
H3898 C3918 0.950 . S
H3899 C3919 0.950 . S
H3900 C3921 0.950 . S
H3901 C3924 0.950 . S
H3902 C3925 0.950 . S
H3903 C3927 0.950 . S
H3904 C3928 0.950 . S
H3905 C3929 0.951 . S
H3906 C3931 0.951 . S
H3907 C3933 0.950 . S
H3908 C3934 0.950 . S
H3909 C3936 0.950 . S
H3910 C3939 0.950 . S
H3911 C3940 0.950 . S
H3912 C3942 0.950 . S
H3913 C3943 0.950 . S
C3914 H3896 0.951 . S
C3914 C3915 1.366 . S
C3914 C3916 1.388 . S
C3915 C3914 1.366 . S
C3915 C3919 1.385 . S
C3916 H3897 0.951 . S
C3916 C3914 1.388 . S
C3916 C3917 1.366 . S
C3917 C3916 1.366 . S
C3917 C3918 1.414 . S
C3917 C3920 1.499 . S
C3918 H3898 0.950 . S
C3918 C3917 1.414 . S
C3918 C3919 1.374 . S
C3919 H3899 0.950 . S
C3919 C3915 1.385 . S
C3919 C3918 1.374 . S
C3920 C3917 1.499 . S
C3920 C3921 1.373 . S
C3920 C3922 1.389 . S
C3921 H3900 0.950 . S
C3921 C3920 1.373 . S
C3921 C3937 1.377 . S
C3922 C3920 1.389 . S
C3922 C3923 1.524 . S
C3922 C3936 1.377 . S
C3923 C3922 1.524 . S
C3923 C3924 1.397 . S
C3923 C3928 1.363 . S
C3924 H3901 0.950 . S
C3924 C3923 1.397 . S
C3924 C3925 1.334 . S
C3925 H3902 0.950 . S
C3925 C3924 1.334 . S
C3925 C3926 1.287 . S
C3926 C3925 1.287 . S
C3926 C3927 1.524 . S
C3926 H3945 0.913 . S
C3927 H3903 0.950 . S
C3927 C3926 1.524 . S
C3927 C3928 1.415 . S
C3928 H3904 0.950 . S
C3928 C3923 1.363 . S
C3928 C3927 1.415 . S
C3929 H3905 0.951 . S
C3929 C3930 1.366 . S
C3929 C3931 1.388 . S
C3930 C3929 1.366 . S
C3930 C3934 1.385 . S
C3931 H3906 0.951 . S
C3931 C3929 1.388 . S
C3931 C3932 1.366 . S
C3932 C3931 1.366 . S
C3932 C3933 1.414 . S
C3932 C3935 1.499 . S
C3933 H3907 0.950 . S
C3933 C3932 1.414 . S
C3933 C3934 1.374 . S
C3934 H3908 0.950 . S
C3934 C3930 1.385 . S
C3934 C3933 1.374 . S
C3935 C3932 1.499 . S
C3935 C3936 1.373 . S
C3935 C3937 1.389 . S
C3936 H3909 0.950 . S
C3936 C3922 1.377 . S
C3936 C3935 1.373 . S
C3937 C3921 1.377 . S
C3937 C3935 1.389 . S
C3937 C3938 1.524 . S
C3938 C3937 1.524 . S
C3938 C3939 1.397 . S
C3938 C3943 1.363 . S
C3939 H3910 0.950 . S
C3939 C3938 1.397 . S
C3939 C3940 1.334 . S
C3940 H3911 0.950 . S
C3940 C3939 1.334 . S
C3940 C3941 1.287 . S
C3941 C3940 1.287 . S
C3941 C3942 1.524 . S
C3941 H3944 0.999 . S
C3942 H3912 0.950 . S
C3942 C3941 1.524 . S
C3942 C3943 1.415 . S
C3943 H3913 0.950 . S
C3943 C3938 1.363 . S
C3943 C3942 1.415 . S
H3944 C3941 0.999 . S
H3945 C3926 0.913 . S
H3946 C3964 0.951 . S
H3947 C3966 0.951 . S
H3948 C3968 0.950 . S
H3949 C3969 0.950 . S
H3950 C3971 0.950 . S
H3951 C3974 0.950 . S
H3952 C3975 0.950 . S
H3953 C3977 0.950 . S
H3954 C3978 0.950 . S
H3955 C3979 0.951 . S
H3956 C3981 0.951 . S
H3957 C3983 0.950 . S
H3958 C3984 0.950 . S
H3959 C3986 0.950 . S
H3960 C3989 0.950 . S
H3961 C3990 0.950 . S
H3962 C3992 0.950 . S
H3963 C3993 0.950 . S
C3964 H3946 0.951 . S
C3964 C3965 1.366 . S
C3964 C3966 1.388 . S
C3965 C3964 1.366 . S
C3965 C3969 1.385 . S
C3966 H3947 0.951 . S
C3966 C3964 1.388 . S
C3966 C3967 1.366 . S
C3967 C3966 1.366 . S
C3967 C3968 1.414 . S
C3967 C3970 1.499 . S
C3968 H3948 0.950 . S
C3968 C3967 1.414 . S
C3968 C3969 1.374 . S
C3969 H3949 0.950 . S
C3969 C3965 1.385 . S
C3969 C3968 1.374 . S
C3970 C3967 1.499 . S
C3970 C3971 1.373 . S
C3970 C3972 1.389 . S
C3971 H3950 0.950 . S
C3971 C3970 1.373 . S
C3971 C3987 1.377 . S
C3972 C3970 1.389 . S
C3972 C3973 1.524 . S
C3972 C3986 1.377 . S
C3973 C3972 1.524 . S
C3973 C3974 1.397 . S
C3973 C3978 1.363 . S
C3974 H3951 0.950 . S
C3974 C3973 1.397 . S
C3974 C3975 1.334 . S
C3975 H3952 0.950 . S
C3975 C3974 1.334 . S
C3975 C3976 1.287 . S
C3976 C3975 1.287 . S
C3976 C3977 1.524 . S
C3976 H3995 0.913 . S
C3977 H3953 0.950 . S
C3977 C3976 1.524 . S
C3977 C3978 1.415 . S
C3978 H3954 0.950 . S
C3978 C3973 1.363 . S
C3978 C3977 1.415 . S
C3979 H3955 0.951 . S
C3979 C3980 1.366 . S
C3979 C3981 1.388 . S
C3980 C3979 1.366 . S
C3980 C3984 1.385 . S
C3981 H3956 0.951 . S
C3981 C3979 1.388 . S
C3981 C3982 1.366 . S
C3982 C3981 1.366 . S
C3982 C3983 1.414 . S
C3982 C3985 1.499 . S
C3983 H3957 0.950 . S
C3983 C3982 1.414 . S
C3983 C3984 1.374 . S
C3984 H3958 0.950 . S
C3984 C3980 1.385 . S
C3984 C3983 1.374 . S
C3985 C3982 1.499 . S
C3985 C3986 1.373 . S
C3985 C3987 1.389 . S
C3986 H3959 0.950 . S
C3986 C3972 1.377 . S
C3986 C3985 1.373 . S
C3987 C3971 1.377 . S
C3987 C3985 1.389 . S
C3987 C3988 1.524 . S
C3988 C3987 1.524 . S
C3988 C3989 1.397 . S
C3988 C3993 1.363 . S
C3989 H3960 0.950 . S
C3989 C3988 1.397 . S
C3989 C3990 1.334 . S
C3990 H3961 0.950 . S
C3990 C3989 1.334 . S
C3990 C3991 1.287 . S
C3991 C3990 1.287 . S
C3991 C3992 1.524 . S
C3991 H3994 0.999 . S
C3992 H3962 0.950 . S
C3992 C3991 1.524 . S
C3992 C3993 1.415 . S
C3993 H3963 0.950 . S
C3993 C3988 1.363 . S
C3993 C3992 1.415 . S
H3994 C3991 0.999 . S
H3995 C3976 0.913 . S
H3996 C4014 0.951 . S
H3997 C4016 0.951 . S
H3998 C4018 0.950 . S
H3999 C4019 0.950 . S
H4000 C4021 0.950 . S
H4001 C4024 0.950 . S
H4002 C4025 0.950 . S
H4003 C4027 0.950 . S
H4004 C4028 0.950 . S
H4005 C4029 0.951 . S
H4006 C4031 0.951 . S
H4007 C4033 0.950 . S
H4008 C4034 0.950 . S
H4009 C4036 0.950 . S
H4010 C4039 0.950 . S
H4011 C4040 0.950 . S
H4012 C4042 0.950 . S
H4013 C4043 0.950 . S
C4014 H3996 0.951 . S
C4014 C4015 1.366 . S
C4014 C4016 1.388 . S
C4015 C4014 1.366 . S
C4015 C4019 1.385 . S
C4016 H3997 0.951 . S
C4016 C4014 1.388 . S
C4016 C4017 1.366 . S
C4017 C4016 1.366 . S
C4017 C4018 1.414 . S
C4017 C4020 1.499 . S
C4018 H3998 0.950 . S
C4018 C4017 1.414 . S
C4018 C4019 1.374 . S
C4019 H3999 0.950 . S
C4019 C4015 1.385 . S
C4019 C4018 1.374 . S
C4020 C4017 1.499 . S
C4020 C4021 1.373 . S
C4020 C4022 1.389 . S
C4021 H4000 0.950 . S
C4021 C4020 1.373 . S
C4021 C4037 1.377 . S
C4022 C4020 1.389 . S
C4022 C4023 1.524 . S
C4022 C4036 1.377 . S
C4023 C4022 1.524 . S
C4023 C4024 1.397 . S
C4023 C4028 1.363 . S
C4024 H4001 0.950 . S
C4024 C4023 1.397 . S
C4024 C4025 1.334 . S
C4025 H4002 0.950 . S
C4025 C4024 1.334 . S
C4025 C4026 1.287 . S
C4026 C4025 1.287 . S
C4026 C4027 1.524 . S
C4026 H4045 0.913 . S
C4027 H4003 0.950 . S
C4027 C4026 1.524 . S
C4027 C4028 1.415 . S
C4028 H4004 0.950 . S
C4028 C4023 1.363 . S
C4028 C4027 1.415 . S
C4029 H4005 0.951 . S
C4029 C4030 1.366 . S
C4029 C4031 1.388 . S
C4030 C4029 1.366 . S
C4030 C4034 1.385 . S
C4031 H4006 0.951 . S
C4031 C4029 1.388 . S
C4031 C4032 1.366 . S
C4032 C4031 1.366 . S
C4032 C4033 1.414 . S
C4032 C4035 1.499 . S
C4033 H4007 0.950 . S
C4033 C4032 1.414 . S
C4033 C4034 1.374 . S
C4034 H4008 0.950 . S
C4034 C4030 1.385 . S
C4034 C4033 1.374 . S
C4035 C4032 1.499 . S
C4035 C4036 1.373 . S
C4035 C4037 1.389 . S
C4036 H4009 0.950 . S
C4036 C4022 1.377 . S
C4036 C4035 1.373 . S
C4037 C4021 1.377 . S
C4037 C4035 1.389 . S
C4037 C4038 1.524 . S
C4038 C4037 1.524 . S
C4038 C4039 1.397 . S
C4038 C4043 1.363 . S
C4039 H4010 0.950 . S
C4039 C4038 1.397 . S
C4039 C4040 1.334 . S
C4040 H4011 0.950 . S
C4040 C4039 1.334 . S
C4040 C4041 1.287 . S
C4041 C4040 1.287 . S
C4041 C4042 1.524 . S
C4041 H4044 0.999 . S
C4042 H4012 0.950 . S
C4042 C4041 1.524 . S
C4042 C4043 1.415 . S
C4043 H4013 0.950 . S
C4043 C4038 1.363 . S
C4043 C4042 1.415 . S
H4044 C4041 0.999 . S
H4045 C4026 0.913 . S
H4046 C4064 0.951 . S
H4047 C4066 0.951 . S
H4048 C4068 0.950 . S
H4049 C4069 0.950 . S
H4050 C4071 0.950 . S
H4051 C4074 0.950 . S
H4052 C4075 0.950 . S
H4053 C4077 0.950 . S
H4054 C4078 0.950 . S
H4055 C4079 0.951 . S
H4056 C4081 0.951 . S
H4057 C4083 0.950 . S
H4058 C4084 0.950 . S
H4059 C4086 0.950 . S
H4060 C4089 0.950 . S
H4061 C4090 0.950 . S
H4062 C4092 0.950 . S
H4063 C4093 0.950 . S
C4064 H4046 0.951 . S
C4064 C4065 1.366 . S
C4064 C4066 1.388 . S
C4065 C4064 1.366 . S
C4065 C4069 1.385 . S
C4066 H4047 0.951 . S
C4066 C4064 1.388 . S
C4066 C4067 1.366 . S
C4067 C4066 1.366 . S
C4067 C4068 1.414 . S
C4067 C4070 1.499 . S
C4068 H4048 0.950 . S
C4068 C4067 1.414 . S
C4068 C4069 1.374 . S
C4069 H4049 0.950 . S
C4069 C4065 1.385 . S
C4069 C4068 1.374 . S
C4070 C4067 1.499 . S
C4070 C4071 1.373 . S
C4070 C4072 1.389 . S
C4071 H4050 0.950 . S
C4071 C4070 1.373 . S
C4071 C4087 1.377 . S
C4072 C4070 1.389 . S
C4072 C4073 1.524 . S
C4072 C4086 1.377 . S
C4073 C4072 1.524 . S
C4073 C4074 1.397 . S
C4073 C4078 1.363 . S
C4074 H4051 0.950 . S
C4074 C4073 1.397 . S
C4074 C4075 1.334 . S
C4075 H4052 0.950 . S
C4075 C4074 1.334 . S
C4075 C4076 1.287 . S
C4076 C4075 1.287 . S
C4076 C4077 1.524 . S
C4076 H4095 0.913 . S
C4077 H4053 0.950 . S
C4077 C4076 1.524 . S
C4077 C4078 1.415 . S
C4078 H4054 0.950 . S
C4078 C4073 1.363 . S
C4078 C4077 1.415 . S
C4079 H4055 0.951 . S
C4079 C4080 1.366 . S
C4079 C4081 1.388 . S
C4080 C4079 1.366 . S
C4080 C4084 1.385 . S
C4081 H4056 0.951 . S
C4081 C4079 1.388 . S
C4081 C4082 1.366 . S
C4082 C4081 1.366 . S
C4082 C4083 1.414 . S
C4082 C4085 1.499 . S
C4083 H4057 0.950 . S
C4083 C4082 1.414 . S
C4083 C4084 1.374 . S
C4084 H4058 0.950 . S
C4084 C4080 1.385 . S
C4084 C4083 1.374 . S
C4085 C4082 1.499 . S
C4085 C4086 1.373 . S
C4085 C4087 1.389 . S
C4086 H4059 0.950 . S
C4086 C4072 1.377 . S
C4086 C4085 1.373 . S
C4087 C4071 1.377 . S
C4087 C4085 1.389 . S
C4087 C4088 1.524 . S
C4088 C4087 1.524 . S
C4088 C4089 1.397 . S
C4088 C4093 1.363 . S
C4089 H4060 0.950 . S
C4089 C4088 1.397 . S
C4089 C4090 1.334 . S
C4090 H4061 0.950 . S
C4090 C4089 1.334 . S
C4090 C4091 1.287 . S
C4091 C4090 1.287 . S
C4091 C4092 1.524 . S
C4091 H4094 0.999 . S
C4092 H4062 0.950 . S
C4092 C4091 1.524 . S
C4092 C4093 1.415 . S
C4093 H4063 0.950 . S
C4093 C4088 1.363 . S
C4093 C4092 1.415 . S
H4094 C4091 0.999 . S
H4095 C4076 0.913 . S
H4096 C4114 0.951 . S
H4097 C4116 0.951 . S
H4098 C4118 0.950 . S
H4099 C4119 0.950 . S
H4100 C4121 0.950 . S
H4101 C4124 0.950 . S
H4102 C4125 0.950 . S
H4103 C4127 0.950 . S
H4104 C4128 0.950 . S
H4105 C4129 0.951 . S
H4106 C4131 0.951 . S
H4107 C4133 0.950 . S
H4108 C4134 0.950 . S
H4109 C4136 0.950 . S
H4110 C4139 0.950 . S
H4111 C4140 0.950 . S
H4112 C4142 0.950 . S
H4113 C4143 0.950 . S
C4114 H4096 0.951 . S
C4114 C4115 1.366 . S
C4114 C4116 1.388 . S
C4115 C4114 1.366 . S
C4115 C4119 1.385 . S
C4116 H4097 0.951 . S
C4116 C4114 1.388 . S
C4116 C4117 1.366 . S
C4117 C4116 1.366 . S
C4117 C4118 1.414 . S
C4117 C4120 1.499 . S
C4118 H4098 0.950 . S
C4118 C4117 1.414 . S
C4118 C4119 1.374 . S
C4119 H4099 0.950 . S
C4119 C4115 1.385 . S
C4119 C4118 1.374 . S
C4120 C4117 1.499 . S
C4120 C4121 1.373 . S
C4120 C4122 1.389 . S
C4121 H4100 0.950 . S
C4121 C4120 1.373 . S
C4121 C4137 1.377 . S
C4122 C4120 1.389 . S
C4122 C4123 1.524 . S
C4122 C4136 1.377 . S
C4123 C4122 1.524 . S
C4123 C4124 1.397 . S
C4123 C4128 1.363 . S
C4124 H4101 0.950 . S
C4124 C4123 1.397 . S
C4124 C4125 1.334 . S
C4125 H4102 0.950 . S
C4125 C4124 1.334 . S
C4125 C4126 1.287 . S
C4126 C4125 1.287 . S
C4126 C4127 1.524 . S
C4126 H4145 0.913 . S
C4127 H4103 0.950 . S
C4127 C4126 1.524 . S
C4127 C4128 1.415 . S
C4128 H4104 0.950 . S
C4128 C4123 1.363 . S
C4128 C4127 1.415 . S
C4129 H4105 0.951 . S
C4129 C4130 1.366 . S
C4129 C4131 1.388 . S
C4130 C4129 1.366 . S
C4130 C4134 1.385 . S
C4131 H4106 0.951 . S
C4131 C4129 1.388 . S
C4131 C4132 1.366 . S
C4132 C4131 1.366 . S
C4132 C4133 1.414 . S
C4132 C4135 1.499 . S
C4133 H4107 0.950 . S
C4133 C4132 1.414 . S
C4133 C4134 1.374 . S
C4134 H4108 0.950 . S
C4134 C4130 1.385 . S
C4134 C4133 1.374 . S
C4135 C4132 1.499 . S
C4135 C4136 1.373 . S
C4135 C4137 1.389 . S
C4136 H4109 0.950 . S
C4136 C4122 1.377 . S
C4136 C4135 1.373 . S
C4137 C4121 1.377 . S
C4137 C4135 1.389 . S
C4137 C4138 1.524 . S
C4138 C4137 1.524 . S
C4138 C4139 1.397 . S
C4138 C4143 1.363 . S
C4139 H4110 0.950 . S
C4139 C4138 1.397 . S
C4139 C4140 1.334 . S
C4140 H4111 0.950 . S
C4140 C4139 1.334 . S
C4140 C4141 1.287 . S
C4141 C4140 1.287 . S
C4141 C4142 1.524 . S
C4141 H4144 0.999 . S
C4142 H4112 0.950 . S
C4142 C4141 1.524 . S
C4142 C4143 1.415 . S
C4143 H4113 0.950 . S
C4143 C4138 1.363 . S
C4143 C4142 1.415 . S
H4144 C4141 0.999 . S
H4145 C4126 0.913 . S
H4146 C4164 0.951 . S
H4147 C4166 0.951 . S
H4148 C4168 0.950 . S
H4149 C4169 0.950 . S
H4150 C4171 0.950 . S
H4151 C4174 0.950 . S
H4152 C4175 0.950 . S
H4153 C4177 0.950 . S
H4154 C4178 0.950 . S
H4155 C4179 0.951 . S
H4156 C4181 0.951 . S
H4157 C4183 0.950 . S
H4158 C4184 0.950 . S
H4159 C4186 0.950 . S
H4160 C4189 0.950 . S
H4161 C4190 0.950 . S
H4162 C4192 0.950 . S
H4163 C4193 0.950 . S
C4164 H4146 0.951 . S
C4164 C4165 1.366 . S
C4164 C4166 1.388 . S
C4165 C4164 1.366 . S
C4165 C4169 1.385 . S
C4166 H4147 0.951 . S
C4166 C4164 1.388 . S
C4166 C4167 1.366 . S
C4167 C4166 1.366 . S
C4167 C4168 1.414 . S
C4167 C4170 1.499 . S
C4168 H4148 0.950 . S
C4168 C4167 1.414 . S
C4168 C4169 1.374 . S
C4169 H4149 0.950 . S
C4169 C4165 1.385 . S
C4169 C4168 1.374 . S
C4170 C4167 1.499 . S
C4170 C4171 1.373 . S
C4170 C4172 1.389 . S
C4171 H4150 0.950 . S
C4171 C4170 1.373 . S
C4171 C4187 1.377 . S
C4172 C4170 1.389 . S
C4172 C4173 1.524 . S
C4172 C4186 1.377 . S
C4173 C4172 1.524 . S
C4173 C4174 1.397 . S
C4173 C4178 1.363 . S
C4174 H4151 0.950 . S
C4174 C4173 1.397 . S
C4174 C4175 1.334 . S
C4175 H4152 0.950 . S
C4175 C4174 1.334 . S
C4175 C4176 1.287 . S
C4176 C4175 1.287 . S
C4176 C4177 1.524 . S
C4176 H4195 0.913 . S
C4177 H4153 0.950 . S
C4177 C4176 1.524 . S
C4177 C4178 1.415 . S
C4178 H4154 0.950 . S
C4178 C4173 1.363 . S
C4178 C4177 1.415 . S
C4179 H4155 0.951 . S
C4179 C4180 1.366 . S
C4179 C4181 1.388 . S
C4180 C4179 1.366 . S
C4180 C4184 1.385 . S
C4181 H4156 0.951 . S
C4181 C4179 1.388 . S
C4181 C4182 1.366 . S
C4182 C4181 1.366 . S
C4182 C4183 1.414 . S
C4182 C4185 1.499 . S
C4183 H4157 0.950 . S
C4183 C4182 1.414 . S
C4183 C4184 1.374 . S
C4184 H4158 0.950 . S
C4184 C4180 1.385 . S
C4184 C4183 1.374 . S
C4185 C4182 1.499 . S
C4185 C4186 1.373 . S
C4185 C4187 1.389 . S
C4186 H4159 0.950 . S
C4186 C4172 1.377 . S
C4186 C4185 1.373 . S
C4187 C4171 1.377 . S
C4187 C4185 1.389 . S
C4187 C4188 1.524 . S
C4188 C4187 1.524 . S
C4188 C4189 1.397 . S
C4188 C4193 1.363 . S
C4189 H4160 0.950 . S
C4189 C4188 1.397 . S
C4189 C4190 1.334 . S
C4190 H4161 0.950 . S
C4190 C4189 1.334 . S
C4190 C4191 1.287 . S
C4191 C4190 1.287 . S
C4191 C4192 1.524 . S
C4191 H4194 0.999 . S
C4192 H4162 0.950 . S
C4192 C4191 1.524 . S
C4192 C4193 1.415 . S
C4193 H4163 0.950 . S
C4193 C4188 1.363 . S
C4193 C4192 1.415 . S
H4194 C4191 0.999 . S
H4195 C4176 0.913 . S
H4196 C4214 0.951 . S
H4197 C4216 0.951 . S
H4198 C4218 0.950 . S
H4199 C4219 0.950 . S
H4200 C4221 0.950 . S
H4201 C4224 0.950 . S
H4202 C4225 0.950 . S
H4203 C4227 0.950 . S
H4204 C4228 0.950 . S
H4205 C4229 0.951 . S
H4206 C4231 0.951 . S
H4207 C4233 0.950 . S
H4208 C4234 0.950 . S
H4209 C4236 0.950 . S
H4210 C4239 0.950 . S
H4211 C4240 0.950 . S
H4212 C4242 0.950 . S
H4213 C4243 0.950 . S
C4214 H4196 0.951 . S
C4214 C4215 1.366 . S
C4214 C4216 1.388 . S
C4215 C4214 1.366 . S
C4215 C4219 1.385 . S
C4216 H4197 0.951 . S
C4216 C4214 1.388 . S
C4216 C4217 1.366 . S
C4217 C4216 1.366 . S
C4217 C4218 1.414 . S
C4217 C4220 1.499 . S
C4218 H4198 0.950 . S
C4218 C4217 1.414 . S
C4218 C4219 1.374 . S
C4219 H4199 0.950 . S
C4219 C4215 1.385 . S
C4219 C4218 1.374 . S
C4220 C4217 1.499 . S
C4220 C4221 1.373 . S
C4220 C4222 1.389 . S
C4221 H4200 0.950 . S
C4221 C4220 1.373 . S
C4221 C4237 1.377 . S
C4222 C4220 1.389 . S
C4222 C4223 1.524 . S
C4222 C4236 1.377 . S
C4223 C4222 1.524 . S
C4223 C4224 1.397 . S
C4223 C4228 1.363 . S
C4224 H4201 0.950 . S
C4224 C4223 1.397 . S
C4224 C4225 1.334 . S
C4225 H4202 0.950 . S
C4225 C4224 1.334 . S
C4225 C4226 1.287 . S
C4226 C4225 1.287 . S
C4226 C4227 1.524 . S
C4226 H4245 0.913 . S
C4227 H4203 0.950 . S
C4227 C4226 1.524 . S
C4227 C4228 1.415 . S
C4228 H4204 0.950 . S
C4228 C4223 1.363 . S
C4228 C4227 1.415 . S
C4229 H4205 0.951 . S
C4229 C4230 1.366 . S
C4229 C4231 1.388 . S
C4230 C4229 1.366 . S
C4230 C4234 1.385 . S
C4231 H4206 0.951 . S
C4231 C4229 1.388 . S
C4231 C4232 1.366 . S
C4232 C4231 1.366 . S
C4232 C4233 1.414 . S
C4232 C4235 1.499 . S
C4233 H4207 0.950 . S
C4233 C4232 1.414 . S
C4233 C4234 1.374 . S
C4234 H4208 0.950 . S
C4234 C4230 1.385 . S
C4234 C4233 1.374 . S
C4235 C4232 1.499 . S
C4235 C4236 1.373 . S
C4235 C4237 1.389 . S
C4236 H4209 0.950 . S
C4236 C4222 1.377 . S
C4236 C4235 1.373 . S
C4237 C4221 1.377 . S
C4237 C4235 1.389 . S
C4237 C4238 1.524 . S
C4238 C4237 1.524 . S
C4238 C4239 1.397 . S
C4238 C4243 1.363 . S
C4239 H4210 0.950 . S
C4239 C4238 1.397 . S
C4239 C4240 1.334 . S
C4240 H4211 0.950 . S
C4240 C4239 1.334 . S
C4240 C4241 1.287 . S
C4241 C4240 1.287 . S
C4241 C4242 1.524 . S
C4241 H4244 0.999 . S
C4242 H4212 0.950 . S
C4242 C4241 1.524 . S
C4242 C4243 1.415 . S
C4243 H4213 0.950 . S
C4243 C4238 1.363 . S
C4243 C4242 1.415 . S
H4244 C4241 0.999 . S
H4245 C4226 0.913 . S
H4246 C4264 0.951 . S
H4247 C4266 0.951 . S
H4248 C4268 0.950 . S
H4249 C4269 0.950 . S
H4250 C4271 0.950 . S
H4251 C4274 0.950 . S
H4252 C4275 0.950 . S
H4253 C4277 0.950 . S
H4254 C4278 0.950 . S
H4255 C4279 0.951 . S
H4256 C4281 0.951 . S
H4257 C4283 0.950 . S
H4258 C4284 0.950 . S
H4259 C4286 0.950 . S
H4260 C4289 0.950 . S
H4261 C4290 0.950 . S
H4262 C4292 0.950 . S
H4263 C4293 0.950 . S
C4264 H4246 0.951 . S
C4264 C4265 1.366 . S
C4264 C4266 1.388 . S
C4265 C4264 1.366 . S
C4265 C4269 1.385 . S
C4266 H4247 0.951 . S
C4266 C4264 1.388 . S
C4266 C4267 1.366 . S
C4267 C4266 1.366 . S
C4267 C4268 1.414 . S
C4267 C4270 1.499 . S
C4268 H4248 0.950 . S
C4268 C4267 1.414 . S
C4268 C4269 1.374 . S
C4269 H4249 0.950 . S
C4269 C4265 1.385 . S
C4269 C4268 1.374 . S
C4270 C4267 1.499 . S
C4270 C4271 1.373 . S
C4270 C4272 1.389 . S
C4271 H4250 0.950 . S
C4271 C4270 1.373 . S
C4271 C4287 1.377 . S
C4272 C4270 1.389 . S
C4272 C4273 1.524 . S
C4272 C4286 1.377 . S
C4273 C4272 1.524 . S
C4273 C4274 1.397 . S
C4273 C4278 1.363 . S
C4274 H4251 0.950 . S
C4274 C4273 1.397 . S
C4274 C4275 1.334 . S
C4275 H4252 0.950 . S
C4275 C4274 1.334 . S
C4275 C4276 1.287 . S
C4276 C4275 1.287 . S
C4276 C4277 1.524 . S
C4276 H4295 0.913 . S
C4277 H4253 0.950 . S
C4277 C4276 1.524 . S
C4277 C4278 1.415 . S
C4278 H4254 0.950 . S
C4278 C4273 1.363 . S
C4278 C4277 1.415 . S
C4279 H4255 0.951 . S
C4279 C4280 1.366 . S
C4279 C4281 1.388 . S
C4280 C4279 1.366 . S
C4280 C4284 1.385 . S
C4281 H4256 0.951 . S
C4281 C4279 1.388 . S
C4281 C4282 1.366 . S
C4282 C4281 1.366 . S
C4282 C4283 1.414 . S
C4282 C4285 1.499 . S
C4283 H4257 0.950 . S
C4283 C4282 1.414 . S
C4283 C4284 1.374 . S
C4284 H4258 0.950 . S
C4284 C4280 1.385 . S
C4284 C4283 1.374 . S
C4285 C4282 1.499 . S
C4285 C4286 1.373 . S
C4285 C4287 1.389 . S
C4286 H4259 0.950 . S
C4286 C4272 1.377 . S
C4286 C4285 1.373 . S
C4287 C4271 1.377 . S
C4287 C4285 1.389 . S
C4287 C4288 1.524 . S
C4288 C4287 1.524 . S
C4288 C4289 1.397 . S
C4288 C4293 1.363 . S
C4289 H4260 0.950 . S
C4289 C4288 1.397 . S
C4289 C4290 1.334 . S
C4290 H4261 0.950 . S
C4290 C4289 1.334 . S
C4290 C4291 1.287 . S
C4291 C4290 1.287 . S
C4291 C4292 1.524 . S
C4291 H4294 0.999 . S
C4292 H4262 0.950 . S
C4292 C4291 1.524 . S
C4292 C4293 1.415 . S
C4293 H4263 0.950 . S
C4293 C4288 1.363 . S
C4293 C4292 1.415 . S
H4294 C4291 0.999 . S
H4295 C4276 0.913 . S
H4296 C4314 0.951 . S
H4297 C4316 0.951 . S
H4298 C4318 0.950 . S
H4299 C4319 0.950 . S
H4300 C4321 0.950 . S
H4301 C4324 0.950 . S
H4302 C4325 0.950 . S
H4303 C4327 0.950 . S
H4304 C4328 0.950 . S
H4305 C4329 0.951 . S
H4306 C4331 0.951 . S
H4307 C4333 0.950 . S
H4308 C4334 0.950 . S
H4309 C4336 0.950 . S
H4310 C4339 0.950 . S
H4311 C4340 0.950 . S
H4312 C4342 0.950 . S
H4313 C4343 0.950 . S
C4314 H4296 0.951 . S
C4314 C4315 1.366 . S
C4314 C4316 1.388 . S
C4315 C4314 1.366 . S
C4315 C4319 1.385 . S
C4316 H4297 0.951 . S
C4316 C4314 1.388 . S
C4316 C4317 1.366 . S
C4317 C4316 1.366 . S
C4317 C4318 1.414 . S
C4317 C4320 1.499 . S
C4318 H4298 0.950 . S
C4318 C4317 1.414 . S
C4318 C4319 1.374 . S
C4319 H4299 0.950 . S
C4319 C4315 1.385 . S
C4319 C4318 1.374 . S
C4320 C4317 1.499 . S
C4320 C4321 1.373 . S
C4320 C4322 1.389 . S
C4321 H4300 0.950 . S
C4321 C4320 1.373 . S
C4321 C4337 1.377 . S
C4322 C4320 1.389 . S
C4322 C4323 1.524 . S
C4322 C4336 1.377 . S
C4323 C4322 1.524 . S
C4323 C4324 1.397 . S
C4323 C4328 1.363 . S
C4324 H4301 0.950 . S
C4324 C4323 1.397 . S
C4324 C4325 1.334 . S
C4325 H4302 0.950 . S
C4325 C4324 1.334 . S
C4325 C4326 1.287 . S
C4326 C4325 1.287 . S
C4326 C4327 1.524 . S
C4326 H4345 0.913 . S
C4327 H4303 0.950 . S
C4327 C4326 1.524 . S
C4327 C4328 1.415 . S
C4328 H4304 0.950 . S
C4328 C4323 1.363 . S
C4328 C4327 1.415 . S
C4329 H4305 0.951 . S
C4329 C4330 1.366 . S
C4329 C4331 1.388 . S
C4330 C4329 1.366 . S
C4330 C4334 1.385 . S
C4331 H4306 0.951 . S
C4331 C4329 1.388 . S
C4331 C4332 1.366 . S
C4332 C4331 1.366 . S
C4332 C4333 1.414 . S
C4332 C4335 1.499 . S
C4333 H4307 0.950 . S
C4333 C4332 1.414 . S
C4333 C4334 1.374 . S
C4334 H4308 0.950 . S
C4334 C4330 1.385 . S
C4334 C4333 1.374 . S
C4335 C4332 1.499 . S
C4335 C4336 1.373 . S
C4335 C4337 1.389 . S
C4336 H4309 0.950 . S
C4336 C4322 1.377 . S
C4336 C4335 1.373 . S
C4337 C4321 1.377 . S
C4337 C4335 1.389 . S
C4337 C4338 1.524 . S
C4338 C4337 1.524 . S
C4338 C4339 1.397 . S
C4338 C4343 1.363 . S
C4339 H4310 0.950 . S
C4339 C4338 1.397 . S
C4339 C4340 1.334 . S
C4340 H4311 0.950 . S
C4340 C4339 1.334 . S
C4340 C4341 1.287 . S
C4341 C4340 1.287 . S
C4341 C4342 1.524 . S
C4341 H4344 0.999 . S
C4342 H4312 0.950 . S
C4342 C4341 1.524 . S
C4342 C4343 1.415 . S
C4343 H4313 0.950 . S
C4343 C4338 1.363 . S
C4343 C4342 1.415 . S
H4344 C4341 0.999 . S
H4345 C4326 0.913 . S
H4346 C4364 0.951 . S
H4347 C4366 0.951 . S
H4348 C4368 0.950 . S
H4349 C4369 0.950 . S
H4350 C4371 0.950 . S
H4351 C4374 0.950 . S
H4352 C4375 0.950 . S
H4353 C4377 0.950 . S
H4354 C4378 0.950 . S
H4355 C4379 0.951 . S
H4356 C4381 0.951 . S
H4357 C4383 0.950 . S
H4358 C4384 0.950 . S
H4359 C4386 0.950 . S
H4360 C4389 0.950 . S
H4361 C4390 0.950 . S
H4362 C4392 0.950 . S
H4363 C4393 0.950 . S
C4364 H4346 0.951 . S
C4364 C4365 1.366 . S
C4364 C4366 1.388 . S
C4365 C4364 1.366 . S
C4365 C4369 1.385 . S
C4366 H4347 0.951 . S
C4366 C4364 1.388 . S
C4366 C4367 1.366 . S
C4367 C4366 1.366 . S
C4367 C4368 1.414 . S
C4367 C4370 1.499 . S
C4368 H4348 0.950 . S
C4368 C4367 1.414 . S
C4368 C4369 1.374 . S
C4369 H4349 0.950 . S
C4369 C4365 1.385 . S
C4369 C4368 1.374 . S
C4370 C4367 1.499 . S
C4370 C4371 1.373 . S
C4370 C4372 1.389 . S
C4371 H4350 0.950 . S
C4371 C4370 1.373 . S
C4371 C4387 1.377 . S
C4372 C4370 1.389 . S
C4372 C4373 1.524 . S
C4372 C4386 1.377 . S
C4373 C4372 1.524 . S
C4373 C4374 1.397 . S
C4373 C4378 1.363 . S
C4374 H4351 0.950 . S
C4374 C4373 1.397 . S
C4374 C4375 1.334 . S
C4375 H4352 0.950 . S
C4375 C4374 1.334 . S
C4375 C4376 1.287 . S
C4376 C4375 1.287 . S
C4376 C4377 1.524 . S
C4376 H4395 0.913 . S
C4377 H4353 0.950 . S
C4377 C4376 1.524 . S
C4377 C4378 1.415 . S
C4378 H4354 0.950 . S
C4378 C4373 1.363 . S
C4378 C4377 1.415 . S
C4379 H4355 0.951 . S
C4379 C4380 1.366 . S
C4379 C4381 1.388 . S
C4380 C4379 1.366 . S
C4380 C4384 1.385 . S
C4381 H4356 0.951 . S
C4381 C4379 1.388 . S
C4381 C4382 1.366 . S
C4382 C4381 1.366 . S
C4382 C4383 1.414 . S
C4382 C4385 1.499 . S
C4383 H4357 0.950 . S
C4383 C4382 1.414 . S
C4383 C4384 1.374 . S
C4384 H4358 0.950 . S
C4384 C4380 1.385 . S
C4384 C4383 1.374 . S
C4385 C4382 1.499 . S
C4385 C4386 1.373 . S
C4385 C4387 1.389 . S
C4386 H4359 0.950 . S
C4386 C4372 1.377 . S
C4386 C4385 1.373 . S
C4387 C4371 1.377 . S
C4387 C4385 1.389 . S
C4387 C4388 1.524 . S
C4388 C4387 1.524 . S
C4388 C4389 1.397 . S
C4388 C4393 1.363 . S
C4389 H4360 0.950 . S
C4389 C4388 1.397 . S
C4389 C4390 1.334 . S
C4390 H4361 0.950 . S
C4390 C4389 1.334 . S
C4390 C4391 1.287 . S
C4391 C4390 1.287 . S
C4391 C4392 1.524 . S
C4391 H4394 0.999 . S
C4392 H4362 0.950 . S
C4392 C4391 1.524 . S
C4392 C4393 1.415 . S
C4393 H4363 0.950 . S
C4393 C4388 1.363 . S
C4393 C4392 1.415 . S
H4394 C4391 0.999 . S
H4395 C4376 0.913 . S
H4396 C4414 0.951 . S
H4397 C4416 0.951 . S
H4398 C4418 0.950 . S
H4399 C4419 0.950 . S
H4400 C4421 0.950 . S
H4401 C4424 0.950 . S
H4402 C4425 0.950 . S
H4403 C4427 0.950 . S
H4404 C4428 0.950 . S
H4405 C4429 0.951 . S
H4406 C4431 0.951 . S
H4407 C4433 0.950 . S
H4408 C4434 0.950 . S
H4409 C4436 0.950 . S
H4410 C4439 0.950 . S
H4411 C4440 0.950 . S
H4412 C4442 0.950 . S
H4413 C4443 0.950 . S
C4414 H4396 0.951 . S
C4414 C4415 1.366 . S
C4414 C4416 1.388 . S
C4415 C4414 1.366 . S
C4415 C4419 1.385 . S
C4416 H4397 0.951 . S
C4416 C4414 1.388 . S
C4416 C4417 1.366 . S
C4417 C4416 1.366 . S
C4417 C4418 1.414 . S
C4417 C4420 1.499 . S
C4418 H4398 0.950 . S
C4418 C4417 1.414 . S
C4418 C4419 1.374 . S
C4419 H4399 0.950 . S
C4419 C4415 1.385 . S
C4419 C4418 1.374 . S
C4420 C4417 1.499 . S
C4420 C4421 1.373 . S
C4420 C4422 1.389 . S
C4421 H4400 0.950 . S
C4421 C4420 1.373 . S
C4421 C4437 1.377 . S
C4422 C4420 1.389 . S
C4422 C4423 1.524 . S
C4422 C4436 1.377 . S
C4423 C4422 1.524 . S
C4423 C4424 1.397 . S
C4423 C4428 1.363 . S
C4424 H4401 0.950 . S
C4424 C4423 1.397 . S
C4424 C4425 1.334 . S
C4425 H4402 0.950 . S
C4425 C4424 1.334 . S
C4425 C4426 1.287 . S
C4426 C4425 1.287 . S
C4426 C4427 1.524 . S
C4426 H4445 0.913 . S
C4427 H4403 0.950 . S
C4427 C4426 1.524 . S
C4427 C4428 1.415 . S
C4428 H4404 0.950 . S
C4428 C4423 1.363 . S
C4428 C4427 1.415 . S
C4429 H4405 0.951 . S
C4429 C4430 1.366 . S
C4429 C4431 1.388 . S
C4430 C4429 1.366 . S
C4430 C4434 1.385 . S
C4431 H4406 0.951 . S
C4431 C4429 1.388 . S
C4431 C4432 1.366 . S
C4432 C4431 1.366 . S
C4432 C4433 1.414 . S
C4432 C4435 1.499 . S
C4433 H4407 0.950 . S
C4433 C4432 1.414 . S
C4433 C4434 1.374 . S
C4434 H4408 0.950 . S
C4434 C4430 1.385 . S
C4434 C4433 1.374 . S
C4435 C4432 1.499 . S
C4435 C4436 1.373 . S
C4435 C4437 1.389 . S
C4436 H4409 0.950 . S
C4436 C4422 1.377 . S
C4436 C4435 1.373 . S
C4437 C4421 1.377 . S
C4437 C4435 1.389 . S
C4437 C4438 1.524 . S
C4438 C4437 1.524 . S
C4438 C4439 1.397 . S
C4438 C4443 1.363 . S
C4439 H4410 0.950 . S
C4439 C4438 1.397 . S
C4439 C4440 1.334 . S
C4440 H4411 0.950 . S
C4440 C4439 1.334 . S
C4440 C4441 1.287 . S
C4441 C4440 1.287 . S
C4441 C4442 1.524 . S
C4441 H4444 0.999 . S
C4442 H4412 0.950 . S
C4442 C4441 1.524 . S
C4442 C4443 1.415 . S
C4443 H4413 0.950 . S
C4443 C4438 1.363 . S
C4443 C4442 1.415 . S
H4444 C4441 0.999 . S
H4445 C4426 0.913 . S
H4446 C4464 0.951 . S
H4447 C4466 0.951 . S
H4448 C4468 0.950 . S
H4449 C4469 0.950 . S
H4450 C4471 0.950 . S
H4451 C4474 0.950 . S
H4452 C4475 0.950 . S
H4453 C4477 0.950 . S
H4454 C4478 0.950 . S
H4455 C4479 0.951 . S
H4456 C4481 0.951 . S
H4457 C4483 0.950 . S
H4458 C4484 0.950 . S
H4459 C4486 0.950 . S
H4460 C4489 0.950 . S
H4461 C4490 0.950 . S
H4462 C4492 0.950 . S
H4463 C4493 0.950 . S
C4464 H4446 0.951 . S
C4464 C4465 1.366 . S
C4464 C4466 1.388 . S
C4465 C4464 1.366 . S
C4465 C4469 1.385 . S
C4466 H4447 0.951 . S
C4466 C4464 1.388 . S
C4466 C4467 1.366 . S
C4467 C4466 1.366 . S
C4467 C4468 1.414 . S
C4467 C4470 1.499 . S
C4468 H4448 0.950 . S
C4468 C4467 1.414 . S
C4468 C4469 1.374 . S
C4469 H4449 0.950 . S
C4469 C4465 1.385 . S
C4469 C4468 1.374 . S
C4470 C4467 1.499 . S
C4470 C4471 1.373 . S
C4470 C4472 1.389 . S
C4471 H4450 0.950 . S
C4471 C4470 1.373 . S
C4471 C4487 1.377 . S
C4472 C4470 1.389 . S
C4472 C4473 1.524 . S
C4472 C4486 1.377 . S
C4473 C4472 1.524 . S
C4473 C4474 1.397 . S
C4473 C4478 1.363 . S
C4474 H4451 0.950 . S
C4474 C4473 1.397 . S
C4474 C4475 1.334 . S
C4475 H4452 0.950 . S
C4475 C4474 1.334 . S
C4475 C4476 1.287 . S
C4476 C4475 1.287 . S
C4476 C4477 1.524 . S
C4476 H4495 0.913 . S
C4477 H4453 0.950 . S
C4477 C4476 1.524 . S
C4477 C4478 1.415 . S
C4478 H4454 0.950 . S
C4478 C4473 1.363 . S
C4478 C4477 1.415 . S
C4479 H4455 0.951 . S
C4479 C4480 1.366 . S
C4479 C4481 1.388 . S
C4480 C4479 1.366 . S
C4480 C4484 1.385 . S
C4481 H4456 0.951 . S
C4481 C4479 1.388 . S
C4481 C4482 1.366 . S
C4482 C4481 1.366 . S
C4482 C4483 1.414 . S
C4482 C4485 1.499 . S
C4483 H4457 0.950 . S
C4483 C4482 1.414 . S
C4483 C4484 1.374 . S
C4484 H4458 0.950 . S
C4484 C4480 1.385 . S
C4484 C4483 1.374 . S
C4485 C4482 1.499 . S
C4485 C4486 1.373 . S
C4485 C4487 1.389 . S
C4486 H4459 0.950 . S
C4486 C4472 1.377 . S
C4486 C4485 1.373 . S
C4487 C4471 1.377 . S
C4487 C4485 1.389 . S
C4487 C4488 1.524 . S
C4488 C4487 1.524 . S
C4488 C4489 1.397 . S
C4488 C4493 1.363 . S
C4489 H4460 0.950 . S
C4489 C4488 1.397 . S
C4489 C4490 1.334 . S
C4490 H4461 0.950 . S
C4490 C4489 1.334 . S
C4490 C4491 1.287 . S
C4491 C4490 1.287 . S
C4491 C4492 1.524 . S
C4491 H4494 0.999 . S
C4492 H4462 0.950 . S
C4492 C4491 1.524 . S
C4492 C4493 1.415 . S
C4493 H4463 0.950 . S
C4493 C4488 1.363 . S
C4493 C4492 1.415 . S
H4494 C4491 0.999 . S
H4495 C4476 0.913 . S
H4496 C4514 0.951 . S
H4497 C4516 0.951 . S
H4498 C4518 0.950 . S
H4499 C4519 0.950 . S
H4500 C4521 0.950 . S
H4501 C4524 0.950 . S
H4502 C4525 0.950 . S
H4503 C4527 0.950 . S
H4504 C4528 0.950 . S
H4505 C4529 0.951 . S
H4506 C4531 0.951 . S
H4507 C4533 0.950 . S
H4508 C4534 0.950 . S
H4509 C4536 0.950 . S
H4510 C4539 0.950 . S
H4511 C4540 0.950 . S
H4512 C4542 0.950 . S
H4513 C4543 0.950 . S
C4514 H4496 0.951 . S
C4514 C4515 1.366 . S
C4514 C4516 1.388 . S
C4515 C4514 1.366 . S
C4515 C4519 1.385 . S
C4516 H4497 0.951 . S
C4516 C4514 1.388 . S
C4516 C4517 1.366 . S
C4517 C4516 1.366 . S
C4517 C4518 1.414 . S
C4517 C4520 1.499 . S
C4518 H4498 0.950 . S
C4518 C4517 1.414 . S
C4518 C4519 1.374 . S
C4519 H4499 0.950 . S
C4519 C4515 1.385 . S
C4519 C4518 1.374 . S
C4520 C4517 1.499 . S
C4520 C4521 1.373 . S
C4520 C4522 1.389 . S
C4521 H4500 0.950 . S
C4521 C4520 1.373 . S
C4521 C4537 1.377 . S
C4522 C4520 1.389 . S
C4522 C4523 1.524 . S
C4522 C4536 1.377 . S
C4523 C4522 1.524 . S
C4523 C4524 1.397 . S
C4523 C4528 1.363 . S
C4524 H4501 0.950 . S
C4524 C4523 1.397 . S
C4524 C4525 1.334 . S
C4525 H4502 0.950 . S
C4525 C4524 1.334 . S
C4525 C4526 1.287 . S
C4526 C4525 1.287 . S
C4526 C4527 1.524 . S
C4526 H4545 0.913 . S
C4527 H4503 0.950 . S
C4527 C4526 1.524 . S
C4527 C4528 1.415 . S
C4528 H4504 0.950 . S
C4528 C4523 1.363 . S
C4528 C4527 1.415 . S
C4529 H4505 0.951 . S
C4529 C4530 1.366 . S
C4529 C4531 1.388 . S
C4530 C4529 1.366 . S
C4530 C4534 1.385 . S
C4531 H4506 0.951 . S
C4531 C4529 1.388 . S
C4531 C4532 1.366 . S
C4532 C4531 1.366 . S
C4532 C4533 1.414 . S
C4532 C4535 1.499 . S
C4533 H4507 0.950 . S
C4533 C4532 1.414 . S
C4533 C4534 1.374 . S
C4534 H4508 0.950 . S
C4534 C4530 1.385 . S
C4534 C4533 1.374 . S
C4535 C4532 1.499 . S
C4535 C4536 1.373 . S
C4535 C4537 1.389 . S
C4536 H4509 0.950 . S
C4536 C4522 1.377 . S
C4536 C4535 1.373 . S
C4537 C4521 1.377 . S
C4537 C4535 1.389 . S
C4537 C4538 1.524 . S
C4538 C4537 1.524 . S
C4538 C4539 1.397 . S
C4538 C4543 1.363 . S
C4539 H4510 0.950 . S
C4539 C4538 1.397 . S
C4539 C4540 1.334 . S
C4540 H4511 0.950 . S
C4540 C4539 1.334 . S
C4540 C4541 1.287 . S
C4541 C4540 1.287 . S
C4541 C4542 1.524 . S
C4541 H4544 0.999 . S
C4542 H4512 0.950 . S
C4542 C4541 1.524 . S
C4542 C4543 1.415 . S
C4543 H4513 0.950 . S
C4543 C4538 1.363 . S
C4543 C4542 1.415 . S
H4544 C4541 0.999 . S
H4545 C4526 0.913 . S
H4546 C4564 0.951 . S
H4547 C4566 0.951 . S
H4548 C4568 0.950 . S
H4549 C4569 0.950 . S
H4550 C4571 0.950 . S
H4551 C4574 0.950 . S
H4552 C4575 0.950 . S
H4553 C4577 0.950 . S
H4554 C4578 0.950 . S
H4555 C4579 0.951 . S
H4556 C4581 0.951 . S
H4557 C4583 0.950 . S
H4558 C4584 0.950 . S
H4559 C4586 0.950 . S
H4560 C4589 0.950 . S
H4561 C4590 0.950 . S
H4562 C4592 0.950 . S
H4563 C4593 0.950 . S
C4564 H4546 0.951 . S
C4564 C4565 1.366 . S
C4564 C4566 1.388 . S
C4565 C4564 1.366 . S
C4565 C4569 1.385 . S
C4566 H4547 0.951 . S
C4566 C4564 1.388 . S
C4566 C4567 1.366 . S
C4567 C4566 1.366 . S
C4567 C4568 1.414 . S
C4567 C4570 1.499 . S
C4568 H4548 0.950 . S
C4568 C4567 1.414 . S
C4568 C4569 1.374 . S
C4569 H4549 0.950 . S
C4569 C4565 1.385 . S
C4569 C4568 1.374 . S
C4570 C4567 1.499 . S
C4570 C4571 1.373 . S
C4570 C4572 1.389 . S
C4571 H4550 0.950 . S
C4571 C4570 1.373 . S
C4571 C4587 1.377 . S
C4572 C4570 1.389 . S
C4572 C4573 1.524 . S
C4572 C4586 1.377 . S
C4573 C4572 1.524 . S
C4573 C4574 1.397 . S
C4573 C4578 1.363 . S
C4574 H4551 0.950 . S
C4574 C4573 1.397 . S
C4574 C4575 1.334 . S
C4575 H4552 0.950 . S
C4575 C4574 1.334 . S
C4575 C4576 1.287 . S
C4576 C4575 1.287 . S
C4576 C4577 1.524 . S
C4576 H4595 0.913 . S
C4577 H4553 0.950 . S
C4577 C4576 1.524 . S
C4577 C4578 1.415 . S
C4578 H4554 0.950 . S
C4578 C4573 1.363 . S
C4578 C4577 1.415 . S
C4579 H4555 0.951 . S
C4579 C4580 1.366 . S
C4579 C4581 1.388 . S
C4580 C4579 1.366 . S
C4580 C4584 1.385 . S
C4581 H4556 0.951 . S
C4581 C4579 1.388 . S
C4581 C4582 1.366 . S
C4582 C4581 1.366 . S
C4582 C4583 1.414 . S
C4582 C4585 1.499 . S
C4583 H4557 0.950 . S
C4583 C4582 1.414 . S
C4583 C4584 1.374 . S
C4584 H4558 0.950 . S
C4584 C4580 1.385 . S
C4584 C4583 1.374 . S
C4585 C4582 1.499 . S
C4585 C4586 1.373 . S
C4585 C4587 1.389 . S
C4586 H4559 0.950 . S
C4586 C4572 1.377 . S
C4586 C4585 1.373 . S
C4587 C4571 1.377 . S
C4587 C4585 1.389 . S
C4587 C4588 1.524 . S
C4588 C4587 1.524 . S
C4588 C4589 1.397 . S
C4588 C4593 1.363 . S
C4589 H4560 0.950 . S
C4589 C4588 1.397 . S
C4589 C4590 1.334 . S
C4590 H4561 0.950 . S
C4590 C4589 1.334 . S
C4590 C4591 1.287 . S
C4591 C4590 1.287 . S
C4591 C4592 1.524 . S
C4591 H4594 0.999 . S
C4592 H4562 0.950 . S
C4592 C4591 1.524 . S
C4592 C4593 1.415 . S
C4593 H4563 0.950 . S
C4593 C4588 1.363 . S
C4593 C4592 1.415 . S
H4594 C4591 0.999 . S
H4595 C4576 0.913 . S
H4596 C4614 0.951 . S
H4597 C4616 0.951 . S
H4598 C4618 0.950 . S
H4599 C4619 0.950 . S
H4600 C4621 0.950 . S
H4601 C4624 0.950 . S
H4602 C4625 0.950 . S
H4603 C4627 0.950 . S
H4604 C4628 0.950 . S
H4605 C4629 0.951 . S
H4606 C4631 0.951 . S
H4607 C4633 0.950 . S
H4608 C4634 0.950 . S
H4609 C4636 0.950 . S
H4610 C4639 0.950 . S
H4611 C4640 0.950 . S
H4612 C4642 0.950 . S
H4613 C4643 0.950 . S
C4614 H4596 0.951 . S
C4614 C4615 1.366 . S
C4614 C4616 1.388 . S
C4615 C4614 1.366 . S
C4615 C4619 1.385 . S
C4616 H4597 0.951 . S
C4616 C4614 1.388 . S
C4616 C4617 1.366 . S
C4617 C4616 1.366 . S
C4617 C4618 1.414 . S
C4617 C4620 1.499 . S
C4618 H4598 0.950 . S
C4618 C4617 1.414 . S
C4618 C4619 1.374 . S
C4619 H4599 0.950 . S
C4619 C4615 1.385 . S
C4619 C4618 1.374 . S
C4620 C4617 1.499 . S
C4620 C4621 1.373 . S
C4620 C4622 1.389 . S
C4621 H4600 0.950 . S
C4621 C4620 1.373 . S
C4621 C4637 1.377 . S
C4622 C4620 1.389 . S
C4622 C4623 1.524 . S
C4622 C4636 1.377 . S
C4623 C4622 1.524 . S
C4623 C4624 1.397 . S
C4623 C4628 1.363 . S
C4624 H4601 0.950 . S
C4624 C4623 1.397 . S
C4624 C4625 1.334 . S
C4625 H4602 0.950 . S
C4625 C4624 1.334 . S
C4625 C4626 1.287 . S
C4626 C4625 1.287 . S
C4626 C4627 1.524 . S
C4626 H4645 0.913 . S
C4627 H4603 0.950 . S
C4627 C4626 1.524 . S
C4627 C4628 1.415 . S
C4628 H4604 0.950 . S
C4628 C4623 1.363 . S
C4628 C4627 1.415 . S
C4629 H4605 0.951 . S
C4629 C4630 1.366 . S
C4629 C4631 1.388 . S
C4630 C4629 1.366 . S
C4630 C4634 1.385 . S
C4631 H4606 0.951 . S
C4631 C4629 1.388 . S
C4631 C4632 1.366 . S
C4632 C4631 1.366 . S
C4632 C4633 1.414 . S
C4632 C4635 1.499 . S
C4633 H4607 0.950 . S
C4633 C4632 1.414 . S
C4633 C4634 1.374 . S
C4634 H4608 0.950 . S
C4634 C4630 1.385 . S
C4634 C4633 1.374 . S
C4635 C4632 1.499 . S
C4635 C4636 1.373 . S
C4635 C4637 1.389 . S
C4636 H4609 0.950 . S
C4636 C4622 1.377 . S
C4636 C4635 1.373 . S
C4637 C4621 1.377 . S
C4637 C4635 1.389 . S
C4637 C4638 1.524 . S
C4638 C4637 1.524 . S
C4638 C4639 1.397 . S
C4638 C4643 1.363 . S
C4639 H4610 0.950 . S
C4639 C4638 1.397 . S
C4639 C4640 1.334 . S
C4640 H4611 0.950 . S
C4640 C4639 1.334 . S
C4640 C4641 1.287 . S
C4641 C4640 1.287 . S
C4641 C4642 1.524 . S
C4641 H4644 0.999 . S
C4642 H4612 0.950 . S
C4642 C4641 1.524 . S
C4642 C4643 1.415 . S
C4643 H4613 0.950 . S
C4643 C4638 1.363 . S
C4643 C4642 1.415 . S
H4644 C4641 0.999 . S
H4645 C4626 0.913 . S
H4646 C4664 0.951 . S
H4647 C4666 0.951 . S
H4648 C4668 0.950 . S
H4649 C4669 0.950 . S
H4650 C4671 0.950 . S
H4651 C4674 0.950 . S
H4652 C4675 0.950 . S
H4653 C4677 0.950 . S
H4654 C4678 0.950 . S
H4655 C4679 0.951 . S
H4656 C4681 0.951 . S
H4657 C4683 0.950 . S
H4658 C4684 0.950 . S
H4659 C4686 0.950 . S
H4660 C4689 0.950 . S
H4661 C4690 0.950 . S
H4662 C4692 0.950 . S
H4663 C4693 0.950 . S
C4664 H4646 0.951 . S
C4664 C4665 1.366 . S
C4664 C4666 1.388 . S
C4665 C4664 1.366 . S
C4665 C4669 1.385 . S
C4666 H4647 0.951 . S
C4666 C4664 1.388 . S
C4666 C4667 1.366 . S
C4667 C4666 1.366 . S
C4667 C4668 1.414 . S
C4667 C4670 1.499 . S
C4668 H4648 0.950 . S
C4668 C4667 1.414 . S
C4668 C4669 1.374 . S
C4669 H4649 0.950 . S
C4669 C4665 1.385 . S
C4669 C4668 1.374 . S
C4670 C4667 1.499 . S
C4670 C4671 1.373 . S
C4670 C4672 1.389 . S
C4671 H4650 0.950 . S
C4671 C4670 1.373 . S
C4671 C4687 1.377 . S
C4672 C4670 1.389 . S
C4672 C4673 1.524 . S
C4672 C4686 1.377 . S
C4673 C4672 1.524 . S
C4673 C4674 1.397 . S
C4673 C4678 1.363 . S
C4674 H4651 0.950 . S
C4674 C4673 1.397 . S
C4674 C4675 1.334 . S
C4675 H4652 0.950 . S
C4675 C4674 1.334 . S
C4675 C4676 1.287 . S
C4676 C4675 1.287 . S
C4676 C4677 1.524 . S
C4676 H4695 0.913 . S
C4677 H4653 0.950 . S
C4677 C4676 1.524 . S
C4677 C4678 1.415 . S
C4678 H4654 0.950 . S
C4678 C4673 1.363 . S
C4678 C4677 1.415 . S
C4679 H4655 0.951 . S
C4679 C4680 1.366 . S
C4679 C4681 1.388 . S
C4680 C4679 1.366 . S
C4680 C4684 1.385 . S
C4681 H4656 0.951 . S
C4681 C4679 1.388 . S
C4681 C4682 1.366 . S
C4682 C4681 1.366 . S
C4682 C4683 1.414 . S
C4682 C4685 1.499 . S
C4683 H4657 0.950 . S
C4683 C4682 1.414 . S
C4683 C4684 1.374 . S
C4684 H4658 0.950 . S
C4684 C4680 1.385 . S
C4684 C4683 1.374 . S
C4685 C4682 1.499 . S
C4685 C4686 1.373 . S
C4685 C4687 1.389 . S
C4686 H4659 0.950 . S
C4686 C4672 1.377 . S
C4686 C4685 1.373 . S
C4687 C4671 1.377 . S
C4687 C4685 1.389 . S
C4687 C4688 1.524 . S
C4688 C4687 1.524 . S
C4688 C4689 1.397 . S
C4688 C4693 1.363 . S
C4689 H4660 0.950 . S
C4689 C4688 1.397 . S
C4689 C4690 1.334 . S
C4690 H4661 0.950 . S
C4690 C4689 1.334 . S
C4690 C4691 1.287 . S
C4691 C4690 1.287 . S
C4691 C4692 1.524 . S
C4691 H4694 0.999 . S
C4692 H4662 0.950 . S
C4692 C4691 1.524 . S
C4692 C4693 1.415 . S
C4693 H4663 0.950 . S
C4693 C4688 1.363 . S
C4693 C4692 1.415 . S
H4694 C4691 0.999 . S
H4695 C4676 0.913 . S
H4696 C4714 0.951 . S
H4697 C4716 0.951 . S
H4698 C4718 0.950 . S
H4699 C4719 0.950 . S
H4700 C4721 0.950 . S
H4701 C4724 0.950 . S
H4702 C4725 0.950 . S
H4703 C4727 0.950 . S
H4704 C4728 0.950 . S
H4705 C4729 0.951 . S
H4706 C4731 0.951 . S
H4707 C4733 0.950 . S
H4708 C4734 0.950 . S
H4709 C4736 0.950 . S
H4710 C4739 0.950 . S
H4711 C4740 0.950 . S
H4712 C4742 0.950 . S
H4713 C4743 0.950 . S
C4714 H4696 0.951 . S
C4714 C4715 1.366 . S
C4714 C4716 1.388 . S
C4715 C4714 1.366 . S
C4715 C4719 1.385 . S
C4716 H4697 0.951 . S
C4716 C4714 1.388 . S
C4716 C4717 1.366 . S
C4717 C4716 1.366 . S
C4717 C4718 1.414 . S
C4717 C4720 1.499 . S
C4718 H4698 0.950 . S
C4718 C4717 1.414 . S
C4718 C4719 1.374 . S
C4719 H4699 0.950 . S
C4719 C4715 1.385 . S
C4719 C4718 1.374 . S
C4720 C4717 1.499 . S
C4720 C4721 1.373 . S
C4720 C4722 1.389 . S
C4721 H4700 0.950 . S
C4721 C4720 1.373 . S
C4721 C4737 1.377 . S
C4722 C4720 1.389 . S
C4722 C4723 1.524 . S
C4722 C4736 1.377 . S
C4723 C4722 1.524 . S
C4723 C4724 1.397 . S
C4723 C4728 1.363 . S
C4724 H4701 0.950 . S
C4724 C4723 1.397 . S
C4724 C4725 1.334 . S
C4725 H4702 0.950 . S
C4725 C4724 1.334 . S
C4725 C4726 1.287 . S
C4726 C4725 1.287 . S
C4726 C4727 1.524 . S
C4726 H4745 0.913 . S
C4727 H4703 0.950 . S
C4727 C4726 1.524 . S
C4727 C4728 1.415 . S
C4728 H4704 0.950 . S
C4728 C4723 1.363 . S
C4728 C4727 1.415 . S
C4729 H4705 0.951 . S
C4729 C4730 1.366 . S
C4729 C4731 1.388 . S
C4730 C4729 1.366 . S
C4730 C4734 1.385 . S
C4731 H4706 0.951 . S
C4731 C4729 1.388 . S
C4731 C4732 1.366 . S
C4732 C4731 1.366 . S
C4732 C4733 1.414 . S
C4732 C4735 1.499 . S
C4733 H4707 0.950 . S
C4733 C4732 1.414 . S
C4733 C4734 1.374 . S
C4734 H4708 0.950 . S
C4734 C4730 1.385 . S
C4734 C4733 1.374 . S
C4735 C4732 1.499 . S
C4735 C4736 1.373 . S
C4735 C4737 1.389 . S
C4736 H4709 0.950 . S
C4736 C4722 1.377 . S
C4736 C4735 1.373 . S
C4737 C4721 1.377 . S
C4737 C4735 1.389 . S
C4737 C4738 1.524 . S
C4738 C4737 1.524 . S
C4738 C4739 1.397 . S
C4738 C4743 1.363 . S
C4739 H4710 0.950 . S
C4739 C4738 1.397 . S
C4739 C4740 1.334 . S
C4740 H4711 0.950 . S
C4740 C4739 1.334 . S
C4740 C4741 1.287 . S
C4741 C4740 1.287 . S
C4741 C4742 1.524 . S
C4741 H4744 0.999 . S
C4742 H4712 0.950 . S
C4742 C4741 1.524 . S
C4742 C4743 1.415 . S
C4743 H4713 0.950 . S
C4743 C4738 1.363 . S
C4743 C4742 1.415 . S
H4744 C4741 0.999 . S
H4745 C4726 0.913 . S
H4746 C4764 0.951 . S
H4747 C4766 0.951 . S
H4748 C4768 0.950 . S
H4749 C4769 0.950 . S
H4750 C4771 0.950 . S
H4751 C4774 0.950 . S
H4752 C4775 0.950 . S
H4753 C4777 0.950 . S
H4754 C4778 0.950 . S
H4755 C4779 0.951 . S
H4756 C4781 0.951 . S
H4757 C4783 0.950 . S
H4758 C4784 0.950 . S
H4759 C4786 0.950 . S
H4760 C4789 0.950 . S
H4761 C4790 0.950 . S
H4762 C4792 0.950 . S
H4763 C4793 0.950 . S
C4764 H4746 0.951 . S
C4764 C4765 1.366 . S
C4764 C4766 1.388 . S
C4765 C4764 1.366 . S
C4765 C4769 1.385 . S
C4766 H4747 0.951 . S
C4766 C4764 1.388 . S
C4766 C4767 1.366 . S
C4767 C4766 1.366 . S
C4767 C4768 1.414 . S
C4767 C4770 1.499 . S
C4768 H4748 0.950 . S
C4768 C4767 1.414 . S
C4768 C4769 1.374 . S
C4769 H4749 0.950 . S
C4769 C4765 1.385 . S
C4769 C4768 1.374 . S
C4770 C4767 1.499 . S
C4770 C4771 1.373 . S
C4770 C4772 1.389 . S
C4771 H4750 0.950 . S
C4771 C4770 1.373 . S
C4771 C4787 1.377 . S
C4772 C4770 1.389 . S
C4772 C4773 1.524 . S
C4772 C4786 1.377 . S
C4773 C4772 1.524 . S
C4773 C4774 1.397 . S
C4773 C4778 1.363 . S
C4774 H4751 0.950 . S
C4774 C4773 1.397 . S
C4774 C4775 1.334 . S
C4775 H4752 0.950 . S
C4775 C4774 1.334 . S
C4775 C4776 1.287 . S
C4776 C4775 1.287 . S
C4776 C4777 1.524 . S
C4776 H4795 0.913 . S
C4777 H4753 0.950 . S
C4777 C4776 1.524 . S
C4777 C4778 1.415 . S
C4778 H4754 0.950 . S
C4778 C4773 1.363 . S
C4778 C4777 1.415 . S
C4779 H4755 0.951 . S
C4779 C4780 1.366 . S
C4779 C4781 1.388 . S
C4780 C4779 1.366 . S
C4780 C4784 1.385 . S
C4781 H4756 0.951 . S
C4781 C4779 1.388 . S
C4781 C4782 1.366 . S
C4782 C4781 1.366 . S
C4782 C4783 1.414 . S
C4782 C4785 1.499 . S
C4783 H4757 0.950 . S
C4783 C4782 1.414 . S
C4783 C4784 1.374 . S
C4784 H4758 0.950 . S
C4784 C4780 1.385 . S
C4784 C4783 1.374 . S
C4785 C4782 1.499 . S
C4785 C4786 1.373 . S
C4785 C4787 1.389 . S
C4786 H4759 0.950 . S
C4786 C4772 1.377 . S
C4786 C4785 1.373 . S
C4787 C4771 1.377 . S
C4787 C4785 1.389 . S
C4787 C4788 1.524 . S
C4788 C4787 1.524 . S
C4788 C4789 1.397 . S
C4788 C4793 1.363 . S
C4789 H4760 0.950 . S
C4789 C4788 1.397 . S
C4789 C4790 1.334 . S
C4790 H4761 0.950 . S
C4790 C4789 1.334 . S
C4790 C4791 1.287 . S
C4791 C4790 1.287 . S
C4791 C4792 1.524 . S
C4791 H4794 0.999 . S
C4792 H4762 0.950 . S
C4792 C4791 1.524 . S
C4792 C4793 1.415 . S
C4793 H4763 0.950 . S
C4793 C4788 1.363 . S
C4793 C4792 1.415 . S
H4794 C4791 0.999 . S
H4795 C4776 0.913 . S
H4796 C4814 0.951 . S
H4797 C4816 0.951 . S
H4798 C4818 0.950 . S
H4799 C4819 0.950 . S
H4800 C4821 0.950 . S
H4801 C4824 0.950 . S
H4802 C4825 0.950 . S
H4803 C4827 0.950 . S
H4804 C4828 0.950 . S
H4805 C4829 0.951 . S
H4806 C4831 0.951 . S
H4807 C4833 0.950 . S
H4808 C4834 0.950 . S
H4809 C4836 0.950 . S
H4810 C4839 0.950 . S
H4811 C4840 0.950 . S
H4812 C4842 0.950 . S
H4813 C4843 0.950 . S
C4814 H4796 0.951 . S
C4814 C4815 1.366 . S
C4814 C4816 1.388 . S
C4815 C4814 1.366 . S
C4815 C4819 1.385 . S
C4816 H4797 0.951 . S
C4816 C4814 1.388 . S
C4816 C4817 1.366 . S
C4817 C4816 1.366 . S
C4817 C4818 1.414 . S
C4817 C4820 1.499 . S
C4818 H4798 0.950 . S
C4818 C4817 1.414 . S
C4818 C4819 1.374 . S
C4819 H4799 0.950 . S
C4819 C4815 1.385 . S
C4819 C4818 1.374 . S
C4820 C4817 1.499 . S
C4820 C4821 1.373 . S
C4820 C4822 1.389 . S
C4821 H4800 0.950 . S
C4821 C4820 1.373 . S
C4821 C4837 1.377 . S
C4822 C4820 1.389 . S
C4822 C4823 1.524 . S
C4822 C4836 1.377 . S
C4823 C4822 1.524 . S
C4823 C4824 1.397 . S
C4823 C4828 1.363 . S
C4824 H4801 0.950 . S
C4824 C4823 1.397 . S
C4824 C4825 1.334 . S
C4825 H4802 0.950 . S
C4825 C4824 1.334 . S
C4825 C4826 1.287 . S
C4826 C4825 1.287 . S
C4826 C4827 1.524 . S
C4826 H4845 0.913 . S
C4827 H4803 0.950 . S
C4827 C4826 1.524 . S
C4827 C4828 1.415 . S
C4828 H4804 0.950 . S
C4828 C4823 1.363 . S
C4828 C4827 1.415 . S
C4829 H4805 0.951 . S
C4829 C4830 1.366 . S
C4829 C4831 1.388 . S
C4830 C4829 1.366 . S
C4830 C4834 1.385 . S
C4831 H4806 0.951 . S
C4831 C4829 1.388 . S
C4831 C4832 1.366 . S
C4832 C4831 1.366 . S
C4832 C4833 1.414 . S
C4832 C4835 1.499 . S
C4833 H4807 0.950 . S
C4833 C4832 1.414 . S
C4833 C4834 1.374 . S
C4834 H4808 0.950 . S
C4834 C4830 1.385 . S
C4834 C4833 1.374 . S
C4835 C4832 1.499 . S
C4835 C4836 1.373 . S
C4835 C4837 1.389 . S
C4836 H4809 0.950 . S
C4836 C4822 1.377 . S
C4836 C4835 1.373 . S
C4837 C4821 1.377 . S
C4837 C4835 1.389 . S
C4837 C4838 1.524 . S
C4838 C4837 1.524 . S
C4838 C4839 1.397 . S
C4838 C4843 1.363 . S
C4839 H4810 0.950 . S
C4839 C4838 1.397 . S
C4839 C4840 1.334 . S
C4840 H4811 0.950 . S
C4840 C4839 1.334 . S
C4840 C4841 1.287 . S
C4841 C4840 1.287 . S
C4841 C4842 1.524 . S
C4841 H4844 0.999 . S
C4842 H4812 0.950 . S
C4842 C4841 1.524 . S
C4842 C4843 1.415 . S
C4843 H4813 0.950 . S
C4843 C4838 1.363 . S
C4843 C4842 1.415 . S
H4844 C4841 0.999 . S
H4845 C4826 0.913 . S
H4846 C4864 0.951 . S
H4847 C4866 0.951 . S
H4848 C4868 0.950 . S
H4849 C4869 0.950 . S
H4850 C4871 0.950 . S
H4851 C4874 0.950 . S
H4852 C4875 0.950 . S
H4853 C4877 0.950 . S
H4854 C4878 0.950 . S
H4855 C4879 0.951 . S
H4856 C4881 0.951 . S
H4857 C4883 0.950 . S
H4858 C4884 0.950 . S
H4859 C4886 0.950 . S
H4860 C4889 0.950 . S
H4861 C4890 0.950 . S
H4862 C4892 0.950 . S
H4863 C4893 0.950 . S
C4864 H4846 0.951 . S
C4864 C4865 1.366 . S
C4864 C4866 1.388 . S
C4865 C4864 1.366 . S
C4865 C4869 1.385 . S
C4866 H4847 0.951 . S
C4866 C4864 1.388 . S
C4866 C4867 1.366 . S
C4867 C4866 1.366 . S
C4867 C4868 1.414 . S
C4867 C4870 1.499 . S
C4868 H4848 0.950 . S
C4868 C4867 1.414 . S
C4868 C4869 1.374 . S
C4869 H4849 0.950 . S
C4869 C4865 1.385 . S
C4869 C4868 1.374 . S
C4870 C4867 1.499 . S
C4870 C4871 1.373 . S
C4870 C4872 1.389 . S
C4871 H4850 0.950 . S
C4871 C4870 1.373 . S
C4871 C4887 1.377 . S
C4872 C4870 1.389 . S
C4872 C4873 1.524 . S
C4872 C4886 1.377 . S
C4873 C4872 1.524 . S
C4873 C4874 1.397 . S
C4873 C4878 1.363 . S
C4874 H4851 0.950 . S
C4874 C4873 1.397 . S
C4874 C4875 1.334 . S
C4875 H4852 0.950 . S
C4875 C4874 1.334 . S
C4875 C4876 1.287 . S
C4876 C4875 1.287 . S
C4876 C4877 1.524 . S
C4876 H4895 0.913 . S
C4877 H4853 0.950 . S
C4877 C4876 1.524 . S
C4877 C4878 1.415 . S
C4878 H4854 0.950 . S
C4878 C4873 1.363 . S
C4878 C4877 1.415 . S
C4879 H4855 0.951 . S
C4879 C4880 1.366 . S
C4879 C4881 1.388 . S
C4880 C4879 1.366 . S
C4880 C4884 1.385 . S
C4881 H4856 0.951 . S
C4881 C4879 1.388 . S
C4881 C4882 1.366 . S
C4882 C4881 1.366 . S
C4882 C4883 1.414 . S
C4882 C4885 1.499 . S
C4883 H4857 0.950 . S
C4883 C4882 1.414 . S
C4883 C4884 1.374 . S
C4884 H4858 0.950 . S
C4884 C4880 1.385 . S
C4884 C4883 1.374 . S
C4885 C4882 1.499 . S
C4885 C4886 1.373 . S
C4885 C4887 1.389 . S
C4886 H4859 0.950 . S
C4886 C4872 1.377 . S
C4886 C4885 1.373 . S
C4887 C4871 1.377 . S
C4887 C4885 1.389 . S
C4887 C4888 1.524 . S
C4888 C4887 1.524 . S
C4888 C4889 1.397 . S
C4888 C4893 1.363 . S
C4889 H4860 0.950 . S
C4889 C4888 1.397 . S
C4889 C4890 1.334 . S
C4890 H4861 0.950 . S
C4890 C4889 1.334 . S
C4890 C4891 1.287 . S
C4891 C4890 1.287 . S
C4891 C4892 1.524 . S
C4891 H4894 0.999 . S
C4892 H4862 0.950 . S
C4892 C4891 1.524 . S
C4892 C4893 1.415 . S
C4893 H4863 0.950 . S
C4893 C4888 1.363 . S
C4893 C4892 1.415 . S
H4894 C4891 0.999 . S
H4895 C4876 0.913 . S
C715 C8 1.041 . S
C730 C166 0.994 . S
C765 C37 1.040 . S
C780 C21 0.992 . S
C815 C66 1.040 . S
C830 C50 0.994 . S
C865 C79 0.992 . S
C880 C95 1.040 . S
C915 C124 1.040 . S
C930 C108 0.992 . S
C965 C153 1.040 . S
C980 C137 0.992 . S
C1015 C224 0.993 . S
C1030 C182 1.040 . S
C1065 C253 0.994 . S
C1080 C211 1.041 . S
C1115 C282 0.992 . S
C1130 C240 1.040 . S
C1165 C269 1.041 . S
C1180 C311 0.994 . S
C1215 C340 0.993 . S
C1230 C298 1.040 . S
C1265 C327 1.040 . S
C1280 C195 0.993 . S
C1315 C514 0.992 . S
C1330 C356 1.040 . S
C1365 C369 0.994 . S
C1380 C385 1.041 . S
C1415 C414 1.040 . S
C1430 C398 0.992 . S
C1465 C443 1.040 . S
C1480 C427 0.992 . S
C1515 C472 1.041 . S
C1530 C456 0.993 . S
C1565 C501 1.041 . S
C1580 C485 0.994 . S
C1615 C572 0.992 . S
C1630 C530 1.039 . S
C1665 C601 0.994 . S
C1680 C559 1.041 . S
C1715 C588 1.041 . S
C1730 C630 0.994 . S
C1765 C617 1.040 . S
C1780 C659 0.991 . S
C1815 C646 1.041 . S
C1830 C688 0.994 . S
C1865 C543 0.992 . S
C1880 C675 1.041 . S
C1915 C10 1.343 . S
C1930 C445 1.344 . S
C1965 C39 1.342 . S
C1980 C474 1.344 . S
C2015 C68 1.344 . S
C2030 C503 1.343 . S
C2065 C358 1.344 . S
C2080 C97 1.343 . S
C2115 C126 1.344 . S
C2130 C387 1.343 . S
C2165 C155 1.344 . S
C2180 C416 1.343 . S
C2215 C619 1.343 . S
C2230 C184 1.344 . S
C2265 C648 1.342 . S
C2280 C213 1.344 . S
C2315 C677 1.343 . S
C2330 C242 1.344 . S
C2365 C532 1.344 . S
C2380 C271 1.343 . S
C2415 C300 1.343 . S
C2430 C561 1.344 . S
C2465 C329 1.344 . S
C2480 C590 1.343 . S
C2515 C5 1.323 . S
C2530 C237 1.322 . S
C2565 C34 1.323 . S
C2580 C266 1.323 . S
C2615 C63 1.322 . S
C2630 C295 1.322 . S
C2665 C92 1.323 . S
C2680 C324 1.323 . S
C2715 C121 1.323 . S
C2730 C179 1.322 . S
C2765 C150 1.322 . S
C2780 C208 1.322 . S
C2815 C585 1.323 . S
C2830 C353 1.323 . S
C2865 C382 1.322 . S
C2880 C614 1.322 . S
C2915 C643 1.322 . S
C2930 C411 1.322 . S
C2965 C440 1.323 . S
C2980 C672 1.323 . S
C3015 C469 1.322 . S
C3030 C527 1.322 . S
C3065 C498 1.322 . S
C3080 C556 1.322 . S
C3115 C15 1.122 . S
C3130 C102 1.123 . S
C3165 C131 1.122 . S
C3180 C44 1.121 . S
C3215 C73 1.122 . S
C3230 C160 1.122 . S
C3265 C276 1.122 . S
C3280 C189 1.121 . S
C3315 C305 1.123 . S
C3330 C218 1.121 . S
C3365 C247 1.121 . S
C3380 C334 1.123 . S
C3415 C450 1.121 . S
C3430 C363 1.123 . S
C3465 C479 1.121 . S
C3480 C392 1.122 . S
C3515 C421 1.121 . S
C3530 C508 1.122 . S
C3565 C624 1.123 . S
C3580 C537 1.122 . S
C3615 C566 1.123 . S
C3630 C653 1.122 . S
C3665 C682 1.122 . S
C3680 C595 1.123 . S
C3715 C61 2.331 . S
C3730 C13 2.249 . S
C3765 C42 2.249 . S
C3780 C90 2.330 . S
C3815 C119 2.330 . S
C3830 C71 2.248 . S
C3865 C148 2.331 . S
C3880 C100 2.250 . S
C3915 C129 2.250 . S
C3930 C3 2.331 . S
C3965 C158 2.249 . S
C3980 C32 2.330 . S
C4015 C187 2.249 . S
C4030 C293 2.331 . S
C4065 C322 2.330 . S
C4080 C216 2.248 . S
C4115 C177 2.330 . S
C4130 C245 2.249 . S
C4165 C274 2.250 . S
C4180 C206 2.331 . S
C4215 C303 2.248 . S
C4230 C235 2.330 . S
C4265 C332 2.249 . S
C4280 C264 2.331 . S
C4315 C361 2.250 . S
C4330 C409 2.331 . S
C4365 C390 2.249 . S
C4380 C438 2.330 . S
C4415 C419 2.249 . S
C4430 C467 2.331 . S
C4465 C496 2.331 . S
C4480 C448 2.249 . S
C4515 C477 2.249 . S
C4530 C351 2.330 . S
C4565 C380 2.330 . S
C4580 C506 2.248 . S
C4615 C535 2.249 . S
C4630 C641 2.331 . S
C4665 C670 2.330 . S
C4680 C564 2.249 . S
C4715 C593 2.249 . S
C4730 C525 2.331 . S
C4765 C554 2.331 . S
C4780 C622 2.249 . S
C4815 C583 2.330 . S
C4830 C651 2.248 . S
C4865 C680 2.249 . S
C4880 C612 2.330 . S
