# Generated by pormake.
# Topology ths, (3)-cn, num edge types: 1
# Building blocks:
#     Node 0, Type 0, BuildingBlock: WUSLED_clean_sbu_0, # of connection points: 3
#     Node 1, Type 0, BuildingBlock: WUSLED_clean_sbu_0, # of connection points: 3
#     Node 2, Type 0, BuildingBlock: WUSLED_clean_sbu_0, # of connection points: 3
#     Node 3, Type 0, BuildingBlock: WUSLED_clean_sbu_0, # of connection points: 3
#     Node 4, Type 0, BuildingBlock: WUSLED_clean_sbu_0, # of connection points: 3
#     Node 5, Type 0, BuildingBlock: WUSLED_clean_sbu_0, # of connection points: 3
#     Node 6, Type 0, BuildingBlock: WUSLED_clean_sbu_0, # of connection points: 3
#     Node 7, Type 0, BuildingBlock: WUSLED_clean_sbu_0, # of connection points: 3
#     Edge 8, Type (0, 0), BuildingBlock: XIVTED_clean_linker_0, # of connection points: 2
#     Edge 9, Type (0, 0), BuildingBlock: XIVTED_clean_linker_0, # of connection points: 2
#     Edge 10, Type (0, 0), BuildingBlock: XIVTED_clean_linker_0, # of connection points: 2
#     Edge 11, Type (0, 0), BuildingBlock: XIVTED_clean_linker_0, # of connection points: 2
#     Edge 12, Type (0, 0), BuildingBlock: XIVTED_clean_linker_0, # of connection points: 2
#     Edge 13, Type (0, 0), BuildingBlock: XIVTED_clean_linker_0, # of connection points: 2
#     Edge 14, Type (0, 0), BuildingBlock: XIVTED_clean_linker_0, # of connection points: 2
#     Edge 15, Type (0, 0), BuildingBlock: XIVTED_clean_linker_0, # of connection points: 2
#     Edge 16, Type (0, 0), BuildingBlock: XIVTED_clean_linker_0, # of connection points: 2
#     Edge 17, Type (0, 0), BuildingBlock: XIVTED_clean_linker_0, # of connection points: 2
#     Edge 18, Type (0, 0), BuildingBlock: XIVTED_clean_linker_0, # of connection points: 2
#     Edge 19, Type (0, 0), BuildingBlock: XIVTED_clean_linker_0, # of connection points: 2
# Relax obj value: 0.000
# Max RMSD: 0.003
# Mean RMSD: 0.003
data_MOF--net-ths--node1-WUSLED_clean_sbu_0--edge1-XIVTED_clean_linker_0
_symmetry_space_group_name_H-M    P1
_symmetry_Int_Tables_number       1
_symmetry_cell_setting            triclinic
loop_
_symmetry_equiv_pos_as_xyz
'x, y, z'
_cell_length_a     40.18075
_cell_length_b     40.204959
_cell_length_c     135.37711
_cell_angle_alpha  89.121406
_cell_angle_beta   90.768496
_cell_angle_gamma 90.248901
loop_
_atom_site_label
_atom_site_type_symbol
_atom_site_fract_x
_atom_site_fract_y
_atom_site_fract_z
_atom_type_partial_charge
C0 C 0.07217 0.83627 0.04093 0.0
C1 C 0.07297 0.86231 0.04771 0.0
C2 C 0.07276 0.90317 0.03419 0.0
C3 C 0.07323 0.89546 0.04437 0.0
C4 C 0.07193 0.87686 0.02744 0.0
C5 C 0.07163 0.84375 0.03079 0.0
U6 U 0.07432 0.77053 0.06157 0.0
O7 O 0.04689 0.72319 0.06307 0.0
O8 O 0.10145 0.72319 0.06265 0.0
C9 C 0.07407 0.70519 0.06274 0.0
C10 C 0.07209 0.8013 0.04431 0.0
C11 C 0.07308 0.67703 0.05592 0.0
C12 C 0.07673 0.65441 0.0394 0.0
C13 C 0.07697 0.68177 0.0457 0.0
C14 C 0.06839 0.61744 0.05346 0.0
C15 C 0.07262 0.62185 0.04321 0.0
C16 C 0.06864 0.64476 0.05973 0.0
C17 C 0.07958 0.79978 0.08852 0.0
C18 C 0.0697 0.76566 0.1032 0.0
C19 C 0.09628 0.81957 0.10471 0.0
C20 C 0.09395 0.82427 0.09448 0.0
C21 C 0.08421 0.79021 0.10922 0.0
C22 C 0.06753 0.77034 0.09293 0.0
C23 C 0.07746 0.80573 0.07776 0.0
O24 O 0.09988 0.79089 0.04852 0.0
O25 O 0.04537 0.79149 0.04906 0.0
O26 O 0.04929 0.79735 0.07339 0.0
O27 O 0.10384 0.79737 0.07275 0.0
H28 H 0.07351 0.85696 0.05558 0.0
H29 H 0.07428 0.91503 0.04978 0.0
H30 H 0.07107 0.88182 1.01956 0.0
H31 H 0.07093 0.82396 0.02545 0.0
H32 H 0.08038 0.65874 0.03158 0.0
H33 H 0.08046 0.70656 0.04263 0.0
H34 H 0.06459 0.59287 0.05664 0.0
H35 H 0.06546 0.64065 0.06759 0.0
H36 H 0.06048 0.74264 0.10642 0.0
H37 H 0.10716 0.83918 0.10912 0.0
H38 H 0.10332 0.84718 0.09121 0.0
H39 H 0.0565 0.75102 0.08843 0.0
C40 C 0.51248 0.7714 0.29045 0.0
C41 C 0.48616 0.77129 0.29716 0.0
C42 C 0.44579 0.7713 0.28352 0.0
C43 C 0.45311 0.77121 0.29372 0.0
C44 C 0.4724 0.77146 0.27685 0.0
C45 C 0.50539 0.7715 0.28029 0.0
U46 U 0.57748 0.77216 0.31128 0.0
O47 O 0.62425 0.74415 0.31299 0.0
O48 O 0.62533 0.7987 0.3124 0.0
C49 C 0.64281 0.77113 0.31259 0.0
C50 C 0.54735 0.77125 0.29393 0.0
C51 C 0.67099 0.77019 0.30576 0.0
C52 C 0.69363 0.77425 0.28921 0.0
C53 C 0.66631 0.77469 0.29554 0.0
C54 C 0.73046 0.7645 0.30326 0.0
C55 C 0.72609 0.76918 0.293 0.0
C56 C 0.70317 0.76501 0.30956 0.0
C57 C 0.54658 0.7747 0.33812 0.0
C58 C 0.57916 0.76208 0.35298 0.0
C59 C 0.52422 0.78603 0.3543 0.0
C60 C 0.52099 0.78665 0.34401 0.0
C61 C 0.55315 0.77334 0.35894 0.0
C62 C 0.5759 0.76276 0.34265 0.0
C63 C 0.5415 0.7741 0.32732 0.0
O64 O 0.55776 0.79873 0.29813 0.0
O65 O 0.55681 0.74421 0.29875 0.0
O66 O 0.54952 0.74632 0.32296 0.0
O67 O 0.55087 0.8009 0.32241 0.0
H68 H 0.4912 0.77129 0.30504 0.0
H69 H 0.43331 0.7715 0.29907 0.0
H70 H 0.46775 0.77105 0.26895 0.0
H71 H 0.52541 0.77147 0.27501 0.0
H72 H 0.68928 0.77754 0.28134 0.0
H73 H 0.64157 0.7786 0.29246 0.0
H74 H 0.75506 0.761 0.30646 0.0
H75 H 0.70726 0.76158 0.31744 0.0
H76 H 0.60167 0.75193 0.35629 0.0
H77 H 0.50397 0.79549 0.35863 0.0
H78 H 0.49826 0.79615 0.34064 0.0
H79 H 0.59599 0.75348 0.33821 0.0
C80 C 0.57521 0.33499 0.54114 0.0
C81 C 0.57187 0.36108 0.54782 0.0
C82 C 0.57492 0.40176 0.53428 0.0
C83 C 0.57172 0.39417 0.54442 0.0
C84 C 0.57827 0.37539 0.52765 0.0
C85 C 0.57841 0.34236 0.53105 0.0
U86 U 0.57552 0.26933 0.56186 0.0
O87 O 0.54955 0.2212 0.56295 0.0
O88 O 0.60417 0.22283 0.56333 0.0
C89 C 0.57735 0.20405 0.56295 0.0
C90 C 0.57573 0.30009 0.54459 0.0
C91 C 0.57846 0.17589 0.5561 0.0
C92 C 0.56354 0.14985 0.54053 0.0
C93 C 0.56315 0.17748 0.54672 0.0
C94 C 0.59521 0.11904 0.55293 0.0
C95 C 0.57941 0.12015 0.54358 0.0
C96 C 0.59465 0.14658 0.55911 0.0
C97 C 0.57356 0.29793 0.58879 0.0
C98 C 0.57862 0.26043 0.60299 0.0
C99 C 0.56893 0.31916 0.60541 0.0
C100 C 0.56875 0.32448 0.59518 0.0
C101 C 0.57396 0.28709 0.60946 0.0
C102 C 0.57837 0.26581 0.59274 0.0
C103 C 0.5738 0.30441 0.57806 0.0
O104 O 0.603 0.29077 0.54931 0.0
O105 O 0.54844 0.28931 0.54885 0.0
O106 O 0.54695 0.29517 0.57317 0.0
O107 O 0.60152 0.29693 0.57357 0.0
H108 H 0.56936 0.35582 0.55565 0.0
H109 H 0.5687 0.41377 0.54973 0.0
H110 H 0.5813 0.38026 0.51982 0.0
H111 H 0.58118 0.32252 0.5258 0.0
H112 H 0.55083 0.15159 0.53344 0.0
H113 H 0.55056 0.19991 0.54422 0.0
H114 H 0.60823 0.09693 0.55547 0.0
H115 H 0.60677 0.14492 0.5663 0.0
H116 H 0.5822 0.23538 0.60585 0.0
H117 H 0.56578 0.34034 0.61015 0.0
H118 H 0.56509 0.34946 0.59226 0.0
H119 H 0.58201 0.24497 0.58789 0.0
C120 C 1.01373 0.27243 0.79102 0.0
C121 C 0.98763 0.26993 0.79777 0.0
C122 C 0.94688 0.27181 0.78424 0.0
C123 C 0.9545 0.2696 0.79442 0.0
C124 C 0.97326 0.27438 0.77752 0.0
C125 C 1.00634 0.27467 0.78089 0.0
U126 U 0.07946 0.27055 0.81166 0.0
O127 O 0.1268 0.24343 0.81276 0.0
O128 O 0.12684 0.29797 0.81306 0.0
C129 C 0.14483 0.27079 0.81276 0.0
C130 C 0.04869 0.27254 0.79441 0.0
C131 C 0.17287 0.27162 0.80586 0.0
C132 C 0.19526 0.26646 0.78936 0.0
C133 C 0.16802 0.26641 0.79572 0.0
C134 C 0.23232 0.27735 0.8032 0.0
C135 C 0.2278 0.27185 0.79303 0.0
C136 C 0.20512 0.27721 0.80954 0.0
C137 C 0.05027 0.26576 0.83864 0.0
C138 C 0.08352 0.27755 0.85335 0.0
C139 C 0.03119 0.24787 0.85484 0.0
C140 C 0.02655 0.24995 0.8446 0.0
C141 C 0.05971 0.26164 0.85935 0.0
C142 C 0.07891 0.27947 0.84307 0.0
C143 C 0.0443 0.26771 0.82788 0.0
O144 O 0.05847 0.29931 0.7991 0.0
O145 O 0.05908 0.24482 0.79868 0.0
O146 O 0.05261 0.24124 0.82292 0.0
O147 O 0.05264 0.29578 0.82344 0.0
H148 H 0.99291 0.26826 0.80564 0.0
H149 H 0.93486 0.26801 0.79981 0.0
H150 H 0.96839 0.27564 0.76964 0.0
H151 H 0.02619 0.2765 0.77557 0.0
H152 H 0.1908 0.26254 0.78155 0.0
H153 H 0.14323 0.26216 0.79274 0.0
H154 H 0.25699 0.28112 0.80632 0.0
H155 H 0.20933 0.28119 0.81736 0.0
H156 H 0.10591 0.28811 0.85658 0.0
H157 H 1.01215 0.23586 0.85923 0.0
H158 H 1.00426 0.23929 0.84132 0.0
H159 H 0.09766 0.29163 0.8386 0.0
C160 C 0.07664 0.20729 1.00202 0.0
C161 C 0.07645 0.18116 0.99527 0.0
C162 C 0.07607 0.14047 1.00884 0.0
C163 C 0.07617 0.14805 0.99864 0.0
C164 C 0.07631 0.16688 1.01555 0.0
C165 C 0.07659 0.19994 1.01217 0.0
U166 U 0.07832 0.27245 0.98125 0.0
O167 O 0.05086 0.31944 0.97947 0.0
O168 O 0.10543 0.32004 0.98016 0.0
C169 C 0.07801 0.33775 0.97989 0.0
C170 C 0.07683 0.24221 0.99858 0.0
C171 C 0.07717 0.36598 0.98669 0.0
C172 C 0.072 0.38842 1.00318 0.0
C173 C 0.07279 0.3611 0.99687 0.0
C174 C 0.08006 0.42566 0.98917 0.0
C175 C 0.07558 0.42109 0.9994 0.0
C176 C 0.08084 0.39837 0.98289 0.0
C177 C 0.08103 0.2417 0.95442 0.0
C178 C 0.06976 0.27498 0.9396 0.0
C179 C 0.0916 0.21921 0.93822 0.0
C180 C 0.09201 0.21578 0.94851 0.0
C181 C 0.08008 0.24868 0.93361 0.0
C182 C 0.07023 0.27152 0.94992 0.0
C183 C 0.08021 0.23652 0.96521 0.0
O184 O 0.10449 0.25244 0.99442 0.0
O185 O 0.04994 0.25199 0.99375 0.0
O186 O 0.05242 0.24477 0.96954 0.0
O187 O 0.10702 0.24563 0.97015 0.0
H188 H 0.0764 0.1864 0.98739 0.0
H189 H 0.07557 0.12842 0.99325 0.0
H190 H 0.07673 0.16203 0.02344 0.0
H191 H 0.07685 0.21982 1.01749 0.0
H192 H 0.06815 0.38396 1.01099 0.0
H193 H 0.06989 0.33621 0.99993 0.0
H194 H 0.08345 0.45033 0.98601 0.0
H195 H 0.0844 0.40258 0.97505 0.0
H196 H 0.06051 0.29792 0.93631 0.0
H197 H 0.10032 0.1987 0.93387 0.0
H198 H 0.10062 0.19266 0.95185 0.0
H199 H 0.0617 0.29186 0.95438 0.0
C200 C 0.14113 0.76683 0.25187 0.0
C201 C 0.16745 0.76702 0.24517 0.0
C202 C 0.20782 0.76685 0.25881 0.0
C203 C 0.2005 0.76705 0.2486 0.0
C204 C 0.18121 0.76661 0.26548 0.0
C205 C 0.14822 0.76662 0.26203 0.0
U206 U 0.07618 0.76683 0.23103 0.0
O207 O 0.02834 0.7403 0.22981 0.0
O208 O 0.0294 0.79486 0.2294 0.0
C209 C 1.01085 0.76787 0.2297 0.0
C210 C 0.10627 0.76706 0.24839 0.0
C211 C 0.98262 0.76853 0.23651 0.0
C212 C 0.95988 0.76418 0.25305 0.0
C213 C 0.98724 0.7639 0.24673 0.0
C214 C 0.92311 0.77399 0.23899 0.0
C215 C 0.92743 0.76921 0.24925 0.0
C216 C 0.95044 0.77364 0.2327 0.0
C217 C 0.10697 0.76559 0.2042 0.0
C218 C 0.07281 0.77609 0.18951 0.0
C219 C 0.12973 0.75755 0.18788 0.0
C220 C 0.13337 0.75656 0.19816 0.0
C221 C 0.09954 0.76769 0.18341 0.0
C222 C 0.07651 0.77506 0.19983 0.0
C223 C 0.11221 0.76568 0.21498 0.0
O224 O 0.09676 0.79428 0.24367 0.0
O225 O 0.09591 0.73975 0.24408 0.0
O226 O 0.10284 0.73866 0.21979 0.0
O227 O 0.10414 0.79324 0.21946 0.0
H228 H 0.16242 0.76711 0.23728 0.0
H229 H 0.2203 0.76682 0.24325 0.0
H230 H 0.18586 0.76694 0.27337 0.0
H231 H 0.1282 0.76659 0.26732 0.0
H232 H 0.96418 0.76081 0.26091 0.0
H233 H 1.01198 0.76004 0.24982 0.0
H234 H 0.89852 0.77746 0.23578 0.0
H235 H 0.9464 0.77717 0.22482 0.0
H236 H 0.04932 0.78425 0.18633 0.0
H237 H 0.15062 0.75031 0.18344 0.0
H238 H 0.157 0.749 0.20141 0.0
H239 H 0.05579 0.78208 0.20439 0.0
C240 C 0.57728 0.7052 0.50154 0.0
C241 C 0.5799 0.67902 0.49486 0.0
C242 C 0.57628 0.63846 0.50842 0.0
C243 C 0.57942 0.64594 0.49827 0.0
C244 C 0.5735 0.66493 0.51505 0.0
C245 C 0.57401 0.69794 0.51163 0.0
U246 U 0.57711 0.77115 0.48088 0.0
O247 O 0.55091 0.81895 0.47974 0.0
O248 O 0.60553 0.81804 0.47963 0.0
C249 C 0.57862 0.83646 0.47993 0.0
C250 C 0.57793 0.74012 0.49811 0.0
C251 C 0.5798 0.86448 0.48686 0.0
C252 C 0.56355 0.89074 0.50213 0.0
C253 C 0.56324 0.86315 0.49593 0.0
C254 C 0.59765 0.92097 0.4904 0.0
C255 C 0.58057 0.92014 0.49942 0.0
C256 C 0.59718 0.89348 0.48419 0.0
C257 C 0.57285 0.74261 0.45385 0.0
C258 C 0.58572 0.77595 0.43922 0.0
C259 C 0.55507 0.72427 0.43759 0.0
C260 C 0.55676 0.71935 0.44783 0.0
C261 C 0.56952 0.75261 0.43315 0.0
C262 C 0.58725 0.77106 0.4495 0.0
C263 C 0.57431 0.73639 0.46461 0.0
O264 O 0.60503 0.74959 0.4935 0.0
O265 O 0.5505 0.75086 0.49376 0.0
O266 O 0.54778 0.74503 0.46951 0.0
O267 O 0.60237 0.74415 0.46915 0.0
H268 H 0.58246 0.68419 0.48703 0.0
H269 H 0.58201 0.62626 0.49297 0.0
H270 H 0.57051 0.66015 0.52288 0.0
H271 H 0.57179 0.71785 0.51689 0.0
H272 H 0.54983 0.88922 0.50895 0.0
H273 H 0.54972 0.84098 0.49816 0.0
H274 H 0.61157 0.94285 0.48814 0.0
H275 H 0.61026 0.89496 0.47725 0.0
H276 H 0.5968 0.79819 0.43605 0.0
H277 H 0.54281 0.70558 0.43314 0.0
H278 H 0.54556 0.69721 0.45104 0.0
H279 H 0.59964 0.78946 0.45403 0.0
C280 C 0.6432 0.26765 0.75176 0.0
C281 C 0.6694 0.26983 0.74503 0.0
C282 C 0.70996 0.26857 0.75861 0.0
C283 C 0.70248 0.27033 0.74842 0.0
C284 C 0.68349 0.26632 0.76531 0.0
C285 C 0.65046 0.26587 0.7619 0.0
U286 U 0.57787 0.26638 0.73102 0.0
O287 O 0.53056 0.23874 0.72992 0.0
O288 O 0.53051 0.2933 0.72944 0.0
C289 C 0.51252 0.26594 0.72978 0.0
C290 C 0.60829 0.26723 0.74832 0.0
C291 C 0.48429 0.26611 0.73661 0.0
C292 C 0.4616 0.27222 0.75304 0.0
C293 C 0.48898 0.27174 0.74674 0.0
C294 C 0.42473 0.26117 0.73917 0.0
C295 C 0.4291 0.26695 0.74933 0.0
C296 C 0.45206 0.26077 0.73288 0.0
C297 C 0.60722 0.26567 0.70413 0.0
C298 C 0.56961 0.26664 0.68991 0.0
C299 C 0.62921 0.26465 0.68752 0.0
C300 C 0.63432 0.26465 0.69775 0.0
C301 C 0.59679 0.26568 0.68345 0.0
C302 C 0.57479 0.2666 0.70017 0.0
C303 C 0.61343 0.266 0.71487 0.0
O304 O 0.59816 0.29425 0.74362 0.0
O305 O 0.59841 0.23971 0.74404 0.0
O306 O 0.60491 0.23883 0.71974 0.0
O307 O 0.60492 0.29339 0.71935 0.0
H308 H 0.66423 0.27109 0.73715 0.0
H309 H 0.7222 0.27166 0.74305 0.0
H310 H 0.68826 0.26539 0.7732 0.0
H311 H 0.63053 0.26426 0.76721 0.0
H312 H 0.46594 0.27636 0.76084 0.0
H313 H 0.51376 0.2758 0.74975 0.0
H314 H 0.40009 0.2575 0.73602 0.0
H315 H 0.44797 0.25646 0.72508 0.0
H316 H 0.54432 0.26711 0.68704 0.0
H317 H 0.65073 0.26444 0.68279 0.0
H318 H 0.65954 0.26404 0.70069 0.0
H319 H 0.55355 0.26733 0.70501 0.0
H320 H 0.10296 0.427 1.01803 0.0
H321 H 0.04484 0.61597 0.02461 0.0
H322 H 0.04646 0.48205 0.99597 0.0
H323 H 0.10114 0.56068 0.04667 0.0
H324 H 0.04542 0.56736 1.01398 0.0
H325 H 0.10201 0.4755 0.02868 0.0
C326 C 0.09015 0.44917 1.01544 0.0
C327 C 0.0748 0.45032 1.00605 0.0
C328 C 0.05764 0.56585 1.02115 0.0
C329 C 0.07397 0.5063 1.01821 0.0
C330 C 0.0575 0.59371 0.02721 0.0
C331 C 0.07292 0.59252 0.03659 0.0
C332 C 0.07337 0.53648 0.02445 0.0
C333 C 0.08849 0.5627 0.03958 0.0
C334 C 0.08981 0.47699 0.02151 0.0
C335 C 0.05905 0.48006 1.00307 0.0
N336 N 0.08831 0.53596 0.03354 0.0
N337 N 0.05905 0.50678 1.00911 0.0
H338 H 0.91519 0.72843 0.2653 0.0
H339 H 0.73828 0.80985 0.27692 0.0
H340 H 0.87262 0.80993 0.24837 0.0
H341 H 0.78086 0.72841 0.29387 0.0
H342 H 0.787 0.80991 0.26629 0.0
H343 H 0.86643 0.72831 0.27591 0.0
C344 C 0.89573 0.74647 0.26385 0.0
C345 C 0.89812 0.76921 0.2559 0.0
C346 C 0.78569 0.792 0.27233 0.0
C347 C 0.84186 0.76895 0.26799 0.0
C348 C 0.75773 0.7918 0.27837 0.0
C349 C 0.75536 0.7691 0.28633 0.0
C350 C 0.81159 0.7693 0.27422 0.0
C351 C 0.78172 0.74668 0.28792 0.0
C352 C 0.86775 0.74624 0.26988 0.0
C353 C 0.87175 0.79163 0.25431 0.0
N354 N 0.80866 0.74735 0.28194 0.0
N355 N 0.8448 0.79093 0.26029 0.0
H356 H 0.60454 0.45627 0.5428 0.0
H357 H 0.54604 0.58409 0.49999 0.0
H358 H 0.54552 0.4277 0.51741 0.0
H359 H 0.6057 0.61241 0.52527 0.0
H360 H 0.54571 0.52671 0.50621 0.0
H361 H 0.60466 0.51367 0.53659 0.0
C362 C 0.59141 0.46205 0.53595 0.0
C363 C 0.57499 0.43697 0.53063 0.0
C364 C 0.55887 0.54547 0.5104 0.0
C365 C 0.57538 0.50281 0.5234 0.0
C366 C 0.55925 0.57827 0.50682 0.0
C367 C 0.57592 0.60328 0.5121 0.0
C368 C 0.5753 0.53745 0.51935 0.0
C369 C 0.59212 0.59416 0.521 0.0
C370 C 0.59168 0.49485 0.53237 0.0
C371 C 0.55889 0.44602 0.52171 0.0
N372 N 0.59141 0.56207 0.52433 0.0
N373 N 0.55948 0.47813 0.51839 0.0
H374 H 0.89483 0.23369 0.7911 0.0
H375 H 0.76207 0.3065 0.75171 0.0
H376 H 0.91841 0.30868 0.7691 0.0
H377 H 0.73825 0.23214 0.77387 0.0
H378 H 0.81951 0.30729 0.75788 0.0
H379 H 0.83736 0.233 0.78496 0.0
C380 C 0.88792 0.25019 0.78502 0.0
C381 C 0.91164 0.27129 0.78062 0.0
C382 C 0.80173 0.29079 0.7614 0.0
C383 C 0.84573 0.27032 0.77346 0.0
C384 C 0.76892 0.29017 0.75783 0.0
C385 C 0.74515 0.26921 0.76226 0.0
C386 C 0.81102 0.27027 0.76946 0.0
C387 C 0.75551 0.24903 0.77029 0.0
C388 C 0.85509 0.24962 0.78147 0.0
C389 C 0.9012 0.29168 0.77265 0.0
N390 N 0.7876 0.25004 0.77362 0.0
N391 N 0.8691 0.29069 0.76934 0.0
H392 H 0.4173 0.30937 0.76463 0.0
H393 H 0.23946 0.22975 0.77765 0.0
H394 H 0.37384 0.22637 0.74918 0.0
H395 H 0.28294 0.31261 0.79317 0.0
H396 H 0.28816 0.22856 0.76703 0.0
H397 H 0.3685 0.31075 0.77522 0.0
C398 C 0.39763 0.29127 0.7635 0.0
C399 C 0.39978 0.26773 0.75597 0.0
C400 C 0.28705 0.24703 0.77275 0.0
C401 C 0.34349 0.26943 0.76803 0.0
C402 C 0.2591 0.24788 0.77878 0.0
C403 C 0.257 0.27131 0.78634 0.0
C404 C 0.3132 0.26981 0.77425 0.0
C405 C 0.28359 0.2938 0.78754 0.0
C406 C 0.36964 0.29222 0.76951 0.0
C407 C 0.37317 0.24527 0.75478 0.0
N408 N 0.31052 0.29248 0.78157 0.0
N409 N 0.34621 0.24667 0.76073 0.0
H410 H 0.2347 0.73237 0.27467 0.0
H411 H 0.41893 0.80568 0.26763 0.0
H412 H 0.26127 0.80169 0.2514 0.0
H413 H 0.39233 0.73653 0.29095 0.0
H414 H 0.36144 0.80432 0.26154 0.0
H415 H 0.29219 0.73371 0.28076 0.0
C416 C 0.25255 0.74802 0.27086 0.0
C417 C 0.24297 0.767 0.2625 0.0
C418 C 0.36815 0.78945 0.26799 0.0
C419 C 0.30917 0.76839 0.26941 0.0
C420 C 0.40107 0.79006 0.27145 0.0
C421 C 0.41064 0.77113 0.27982 0.0
C422 C 0.34444 0.76973 0.27291 0.0
C423 C 0.38612 0.75185 0.28455 0.0
C424 C 0.28547 0.74863 0.27432 0.0
C425 C 0.26748 0.78633 0.25779 0.0
N426 N 0.35425 0.75161 0.28102 0.0
N427 N 0.29936 0.78656 0.26131 0.0
H428 H 0.57713 0.98615 0.49383 0.0
H429 H 0.57353 0.05422 0.54906 0.0
H430 H 0.58296 0.92244 0.51976 0.0
H431 H 0.58477 0.11782 0.52332 0.0
H432 H 0.57407 1.00578 0.53843 0.0
H433 H 0.57707 0.03459 0.50447 0.0
C434 C 0.57865 0.98226 0.50175 0.0
C435 C 0.58021 0.94996 0.50587 0.0
C436 C 0.57646 0.03033 0.5351 0.0
C437 C 0.57955 1.00565 0.51814 0.0
C438 C 0.57635 0.05809 0.54119 0.0
C439 C 0.57926 0.09035 0.53713 0.0
C440 C 0.57932 0.03468 0.52484 0.0
C441 C 0.58205 0.09358 0.52681 0.0
C442 C 0.57841 1.01002 0.50783 0.0
C443 C 0.58133 0.94671 0.51622 0.0
N444 N 0.58201 0.06615 0.52104 0.0
N445 N 0.58097 0.97414 0.52199 0.0
H446 H 0.03964 0.95675 0.04167 0.0
H447 H 0.10981 0.08701 1.00151 0.0
H448 H 0.10677 0.93019 1.01848 0.0
H449 H 0.04163 0.11337 0.02446 0.0
H450 H 0.10893 0.02949 1.0076 0.0
H451 H 0.04057 1.01431 0.03561 0.0
C452 C 0.05475 0.96301 0.03534 0.0
C453 C 0.07315 0.93844 0.03059 0.0
C454 C 0.09415 0.04785 1.01131 0.0
C455 C 0.07404 1.00447 0.02352 0.0
C456 C 0.09448 0.08072 1.00779 0.0
C457 C 0.07575 0.10523 1.01246 0.0
C458 C 0.07494 0.03923 1.01957 0.0
C459 C 0.05683 0.09553 1.02069 0.0
C460 C 0.0551 0.9959 0.03184 0.0
C461 C 0.09183 0.94809 0.02231 0.0
N462 N 0.05689 0.06337 0.02396 0.0
N463 N 0.09181 0.98027 1.01906 0.0
H464 H 0.04618 0.75055 0.17148 0.0
H465 H 0.13693 0.80558 0.12138 0.0
H466 H 0.14582 0.79082 0.17026 0.0
H467 H 0.03778 0.764 0.12197 0.0
H468 H 0.14038 0.79979 0.13932 0.0
H469 H 0.04219 0.7551 0.15344 0.0
C470 C 0.06717 0.76045 0.16744 0.0
C471 C 0.09644 0.7702 0.17243 0.0
C472 C 0.11784 0.79187 0.13555 0.0
C473 C 0.09212 0.77523 0.15174 0.0
C474 C 0.11579 0.79533 0.12529 0.0
C475 C 0.08693 0.78545 0.12013 0.0
C476 C 0.09081 0.77849 0.14077 0.0
C477 C 0.06061 0.77171 0.12561 0.0
C478 C 0.06494 0.76286 0.15713 0.0
C479 C 0.12295 0.78249 0.16676 0.0
N480 N 0.06312 0.76877 0.13563 0.0
N481 N 0.12013 0.78466 0.15675 0.0
H482 H 0.61832 0.77508 0.42058 0.0
H483 H 0.50435 0.75528 0.37193 0.0
H484 H 0.5162 0.74144 0.42078 0.0
H485 H 0.6074 0.78582 0.37105 0.0
H486 H 0.50819 0.75187 0.38989 0.0
H487 H 0.6147 0.78117 0.40256 0.0
C488 C 0.59507 0.7692 0.41685 0.0
C489 C 0.56757 0.75758 0.42222 0.0
C490 C 0.53 0.75936 0.3858 0.0
C491 C 0.56333 0.76424 0.40158 0.0
C492 C 0.52777 0.76153 0.37551 0.0
C493 C 0.55555 0.77103 0.36993 0.0
C494 C 0.56025 0.76672 0.39062 0.0
C495 C 0.58541 0.77811 0.37503 0.0
C496 C 0.59309 0.77249 0.40656 0.0
C497 C 0.53821 0.74999 0.41696 0.0
N498 N 0.58696 0.77587 0.38507 0.0
N499 N 0.5369 0.75343 0.40696 0.0
H500 H 0.53431 0.31535 0.62341 0.0
H501 H 0.63028 0.23048 0.66949 0.0
H502 H 0.61585 0.24682 0.62049 0.0
H503 H 0.55153 0.30219 0.67243 0.0
H504 H 0.6234 0.23394 0.65155 0.0
H505 H 0.53828 0.30863 0.64135 0.0
C506 C 0.55311 0.29891 0.62653 0.0
C507 C 0.57492 0.28179 0.62039 0.0
C508 C 0.60754 0.24885 0.65611 0.0
C509 C 0.57941 0.27374 0.641 0.0
C510 C 0.61157 0.24702 0.66637 0.0
C511 C 0.59161 0.26624 0.67252 0.0
C512 C 0.58337 0.27008 0.65191 0.0
C513 C 0.56731 0.28669 0.66803 0.0
C514 C 0.55524 0.29496 0.63679 0.0
C515 C 0.59831 0.26032 0.62489 0.0
N516 N 0.564 0.28818 0.65801 0.0
N517 N 0.60003 0.25705 0.6349 0.0
H518 H 0.09481 0.30268 0.92161 0.0
H519 H 0.04725 0.20822 0.87158 0.0
H520 H 0.06045 0.20092 0.9205 0.0
H521 H 0.08276 0.30964 0.87206 0.0
H522 H 0.05268 0.2053 0.88953 0.0
H523 H 0.09091 0.30609 0.90355 0.0
C524 C 0.08634 0.28109 0.91759 0.0
C525 C 0.07806 0.25142 0.92262 0.0
C526 C 0.05935 0.22822 0.88573 0.0
C527 C 0.07379 0.25509 0.90191 0.0
C528 C 0.0561 0.22995 0.87546 0.0
C529 C 0.06436 0.25929 0.87028 0.0
C530 C 0.07089 0.25606 0.89094 0.0
C531 C 0.07632 0.28643 0.87573 0.0
C532 C 0.08431 0.28301 0.90727 0.0
C533 C 0.06762 0.22415 0.91697 0.0
N534 N 0.07909 0.28421 0.88576 0.0
N535 N 0.06576 0.22668 0.90696 0.0
loop_
_geom_bond_atom_site_label_1
_geom_bond_atom_site_label_2
_geom_bond_distance
_geom_bond_site_symmetry_2
_ccdc_geom_bond_type
C0 C1 1.264 . S
C0 C5 1.479 . S
C0 C10 1.465 . S
C1 C0 1.264 . S
C1 C3 1.339 . S
C1 H28 0.931 . S
C2 C3 1.395 . S
C2 C4 1.320 . S
C3 C1 1.339 . S
C3 C2 1.395 . S
C3 H29 0.929 . S
C4 C2 1.320 . S
C4 C5 1.405 . S
C4 H30 0.930 . S
C5 C0 1.479 . S
C5 C4 1.405 . S
C5 H31 0.931 . S
U6 O7 2.454 . S
U6 O8 2.458 . S
U6 C9 2.984 . S
U6 C10 2.847 . S
U6 C23 2.882 . S
U6 O24 2.441 . S
U6 O25 2.420 . S
U6 O26 2.455 . S
U6 O27 2.449 . S
O7 U6 2.454 . S
O7 C9 1.353 . S
O8 U6 2.458 . S
O8 C9 1.286 . S
C9 U6 2.984 . S
C9 O7 1.353 . S
C9 O8 1.286 . S
C9 C11 1.363 . S
C10 C0 1.465 . S
C10 U6 2.847 . S
C10 O24 1.249 . S
C10 O25 1.202 . S
C11 C9 1.363 . S
C11 C13 1.408 . S
C11 C16 1.342 . S
C12 C13 1.310 . S
C12 C15 1.461 . S
C12 H32 0.932 . S
C13 C11 1.408 . S
C13 C12 1.310 . S
C13 H33 0.930 . S
C14 C15 1.474 . S
C14 C16 1.285 . S
C14 H34 0.929 . S
C15 C12 1.461 . S
C15 C14 1.474 . S
C16 C11 1.342 . S
C16 C14 1.285 . S
C16 H35 0.930 . S
C17 C20 1.424 . S
C17 C22 1.245 . S
C17 C23 1.428 . S
C18 C21 1.260 . S
C18 C22 1.477 . S
C18 H36 0.932 . S
C19 C20 1.384 . S
C19 C21 1.479 . S
C19 H37 0.929 . S
C20 C17 1.424 . S
C20 C19 1.384 . S
C20 H38 0.928 . S
C21 C18 1.260 . S
C21 C19 1.479 . S
C22 C17 1.245 . S
C22 C18 1.477 . S
C22 H39 0.932 . S
C23 U6 2.882 . S
C23 C17 1.428 . S
C23 O26 1.301 . S
C23 O27 1.282 . S
O24 U6 2.441 . S
O24 C10 1.249 . S
O25 U6 2.420 . S
O25 C10 1.202 . S
O26 U6 2.455 . S
O26 C23 1.301 . S
O27 U6 2.449 . S
O27 C23 1.282 . S
H28 C1 0.931 . S
H29 C3 0.929 . S
H30 C4 0.930 . S
H31 C5 0.931 . S
H32 C12 0.932 . S
H33 C13 0.930 . S
H34 C14 0.929 . S
H35 C16 0.930 . S
H36 C18 0.932 . S
H37 C19 0.929 . S
H38 C20 0.928 . S
H39 C22 0.932 . S
C40 C41 1.264 . S
C40 C45 1.479 . S
C40 C50 1.465 . S
C41 C40 1.264 . S
C41 C43 1.339 . S
C41 H68 0.931 . S
C42 C43 1.395 . S
C42 C44 1.320 . S
C43 C41 1.339 . S
C43 C42 1.395 . S
C43 H69 0.929 . S
C44 C42 1.320 . S
C44 C45 1.405 . S
C44 H70 0.930 . S
C45 C40 1.479 . S
C45 C44 1.405 . S
C45 H71 0.931 . S
U46 O47 2.454 . S
U46 O48 2.458 . S
U46 C49 2.984 . S
U46 C50 2.847 . S
U46 C63 2.882 . S
U46 O64 2.441 . S
U46 O65 2.420 . S
U46 O66 2.455 . S
U46 O67 2.449 . S
O47 U46 2.454 . S
O47 C49 1.353 . S
O48 U46 2.458 . S
O48 C49 1.286 . S
C49 U46 2.984 . S
C49 O47 1.353 . S
C49 O48 1.286 . S
C49 C51 1.363 . S
C50 C40 1.465 . S
C50 U46 2.847 . S
C50 O64 1.249 . S
C50 O65 1.202 . S
C51 C49 1.363 . S
C51 C53 1.408 . S
C51 C56 1.342 . S
C52 C53 1.310 . S
C52 C55 1.461 . S
C52 H72 0.932 . S
C53 C51 1.408 . S
C53 C52 1.310 . S
C53 H73 0.930 . S
C54 C55 1.474 . S
C54 C56 1.285 . S
C54 H74 0.929 . S
C55 C52 1.461 . S
C55 C54 1.474 . S
C56 C51 1.342 . S
C56 C54 1.285 . S
C56 H75 0.930 . S
C57 C60 1.424 . S
C57 C62 1.245 . S
C57 C63 1.428 . S
C58 C61 1.260 . S
C58 C62 1.477 . S
C58 H76 0.932 . S
C59 C60 1.384 . S
C59 C61 1.479 . S
C59 H77 0.929 . S
C60 C57 1.424 . S
C60 C59 1.384 . S
C60 H78 0.928 . S
C61 C58 1.260 . S
C61 C59 1.479 . S
C62 C57 1.245 . S
C62 C58 1.477 . S
C62 H79 0.932 . S
C63 U46 2.882 . S
C63 C57 1.428 . S
C63 O66 1.301 . S
C63 O67 1.282 . S
O64 U46 2.441 . S
O64 C50 1.249 . S
O65 U46 2.420 . S
O65 C50 1.202 . S
O66 U46 2.455 . S
O66 C63 1.301 . S
O67 U46 2.449 . S
O67 C63 1.282 . S
H68 C41 0.931 . S
H69 C43 0.929 . S
H70 C44 0.930 . S
H71 C45 0.931 . S
H72 C52 0.932 . S
H73 C53 0.930 . S
H74 C54 0.929 . S
H75 C56 0.930 . S
H76 C58 0.932 . S
H77 C59 0.929 . S
H78 C60 0.928 . S
H79 C62 0.932 . S
C80 C81 1.264 . S
C80 C85 1.479 . S
C80 C90 1.465 . S
C81 C80 1.264 . S
C81 C83 1.339 . S
C81 H108 0.931 . S
C82 C83 1.395 . S
C82 C84 1.320 . S
C83 C81 1.339 . S
C83 C82 1.395 . S
C83 H109 0.929 . S
C84 C82 1.320 . S
C84 C85 1.405 . S
C84 H110 0.930 . S
C85 C80 1.479 . S
C85 C84 1.405 . S
C85 H111 0.931 . S
U86 O87 2.454 . S
U86 O88 2.458 . S
U86 C89 2.984 . S
U86 C90 2.847 . S
U86 C103 2.882 . S
U86 O104 2.441 . S
U86 O105 2.420 . S
U86 O106 2.455 . S
U86 O107 2.449 . S
O87 U86 2.454 . S
O87 C89 1.353 . S
O88 U86 2.458 . S
O88 C89 1.286 . S
C89 U86 2.984 . S
C89 O87 1.353 . S
C89 O88 1.286 . S
C89 C91 1.363 . S
C90 C80 1.465 . S
C90 U86 2.847 . S
C90 O104 1.249 . S
C90 O105 1.202 . S
C91 C89 1.363 . S
C91 C93 1.408 . S
C91 C96 1.342 . S
C92 C93 1.310 . S
C92 C95 1.461 . S
C92 H112 0.932 . S
C93 C91 1.408 . S
C93 C92 1.310 . S
C93 H113 0.930 . S
C94 C95 1.474 . S
C94 C96 1.285 . S
C94 H114 0.929 . S
C95 C92 1.461 . S
C95 C94 1.474 . S
C96 C91 1.342 . S
C96 C94 1.285 . S
C96 H115 0.930 . S
C97 C100 1.424 . S
C97 C102 1.245 . S
C97 C103 1.428 . S
C98 C101 1.260 . S
C98 C102 1.477 . S
C98 H116 0.932 . S
C99 C100 1.384 . S
C99 C101 1.479 . S
C99 H117 0.929 . S
C100 C97 1.424 . S
C100 C99 1.384 . S
C100 H118 0.928 . S
C101 C98 1.260 . S
C101 C99 1.479 . S
C102 C97 1.245 . S
C102 C98 1.477 . S
C102 H119 0.932 . S
C103 U86 2.882 . S
C103 C97 1.428 . S
C103 O106 1.301 . S
C103 O107 1.282 . S
O104 U86 2.441 . S
O104 C90 1.249 . S
O105 U86 2.420 . S
O105 C90 1.202 . S
O106 U86 2.455 . S
O106 C103 1.301 . S
O107 U86 2.449 . S
O107 C103 1.282 . S
H108 C81 0.931 . S
H109 C83 0.929 . S
H110 C84 0.930 . S
H111 C85 0.931 . S
H112 C92 0.932 . S
H113 C93 0.930 . S
H114 C94 0.929 . S
H115 C96 0.930 . S
H116 C98 0.932 . S
H117 C99 0.929 . S
H118 C100 0.928 . S
H119 C102 0.932 . S
C120 C121 1.264 . S
C120 C125 1.479 . S
C120 C130 1.465 . S
C121 C120 1.264 . S
C121 C123 1.339 . S
C121 H148 0.931 . S
C122 C123 1.395 . S
C122 C124 1.320 . S
C123 C121 1.339 . S
C123 C122 1.395 . S
C123 H149 0.929 . S
C124 C122 1.320 . S
C124 C125 1.405 . S
C124 H150 0.930 . S
C125 C120 1.479 . S
C125 C124 1.405 . S
C125 H151 0.931 . S
U126 O127 2.454 . S
U126 O128 2.458 . S
U126 C129 2.984 . S
U126 C130 2.847 1_455 S
U126 C143 2.882 . S
U126 O144 2.441 . S
U126 O145 2.421 1_455 S
U126 O146 2.455 . S
U126 O147 2.449 . S
O127 U126 2.454 . S
O127 C129 1.353 . S
O128 U126 2.458 . S
O128 C129 1.286 . S
C129 U126 2.984 . S
C129 O127 1.353 . S
C129 O128 1.286 . S
C129 C131 1.363 . S
C130 C120 1.465 . S
C130 U126 2.847 1_655 S
C130 O144 1.249 1_655 S
C130 O145 1.202 . S
C131 C129 1.363 . S
C131 C133 1.408 . S
C131 C136 1.342 . S
C132 C133 1.310 . S
C132 C135 1.461 . S
C132 H152 0.932 . S
C133 C131 1.408 . S
C133 C132 1.310 . S
C133 H153 0.930 . S
C134 C135 1.474 . S
C134 C136 1.285 . S
C134 H154 0.929 . S
C135 C132 1.461 . S
C135 C134 1.474 . S
C136 C131 1.342 . S
C136 C134 1.285 . S
C136 H155 0.930 . S
C137 C140 1.424 . S
C137 C142 1.245 . S
C137 C143 1.428 . S
C138 C141 1.260 . S
C138 C142 1.477 . S
C138 H156 0.932 . S
C139 C140 1.384 . S
C139 C141 1.479 . S
C139 H157 0.929 . S
C140 C137 1.424 . S
C140 C139 1.384 . S
C140 H158 0.928 . S
C141 C138 1.260 . S
C141 C139 1.479 . S
C142 C137 1.245 . S
C142 C138 1.477 . S
C142 H159 0.932 . S
C143 U126 2.882 . S
C143 C137 1.428 . S
C143 O146 1.301 . S
C143 O147 1.282 . S
O144 U126 2.441 . S
O144 C130 1.249 1_455 S
O145 U126 2.421 1_655 S
O145 C130 1.202 . S
O146 U126 2.455 . S
O146 C143 1.301 . S
O147 U126 2.449 . S
O147 C143 1.282 . S
H148 C121 0.931 . S
H149 C123 0.929 . S
H150 C124 0.930 . S
H151 C125 0.931 . S
H152 C132 0.932 . S
H153 C133 0.930 . S
H154 C134 0.929 . S
H155 C136 0.930 . S
H156 C138 0.932 . S
H157 C139 0.929 . S
H158 C140 0.928 . S
H159 C142 0.932 . S
C160 C161 1.264 . S
C160 C165 1.479 . S
C160 C170 1.465 . S
C161 C160 1.264 . S
C161 C163 1.339 . S
C161 H188 0.931 . S
C162 C163 1.395 . S
C162 C164 1.320 . S
C163 C161 1.339 . S
C163 C162 1.395 . S
C163 H189 0.929 . S
C164 C162 1.320 . S
C164 C165 1.405 . S
C164 H190 0.930 . S
C165 C160 1.479 . S
C165 C164 1.405 . S
C165 H191 0.931 . S
U166 O167 2.454 . S
U166 O168 2.458 . S
U166 C169 2.984 . S
U166 C170 2.847 . S
U166 C183 2.882 . S
U166 O184 2.441 . S
U166 O185 2.420 . S
U166 O186 2.455 . S
U166 O187 2.449 . S
O167 U166 2.454 . S
O167 C169 1.353 . S
O168 U166 2.458 . S
O168 C169 1.286 . S
C169 U166 2.984 . S
C169 O167 1.353 . S
C169 O168 1.286 . S
C169 C171 1.363 . S
C170 C160 1.465 . S
C170 U166 2.847 . S
C170 O184 1.249 . S
C170 O185 1.202 . S
C171 C169 1.363 . S
C171 C173 1.408 . S
C171 C176 1.342 . S
C172 C173 1.310 . S
C172 C175 1.461 . S
C172 H192 0.932 . S
C173 C171 1.408 . S
C173 C172 1.310 . S
C173 H193 0.930 . S
C174 C175 1.474 . S
C174 C176 1.285 . S
C174 H194 0.929 . S
C175 C172 1.461 . S
C175 C174 1.474 . S
C176 C171 1.342 . S
C176 C174 1.285 . S
C176 H195 0.930 . S
C177 C180 1.424 . S
C177 C182 1.245 . S
C177 C183 1.428 . S
C178 C181 1.260 . S
C178 C182 1.477 . S
C178 H196 0.932 . S
C179 C180 1.384 . S
C179 C181 1.479 . S
C179 H197 0.929 . S
C180 C177 1.424 . S
C180 C179 1.384 . S
C180 H198 0.928 . S
C181 C178 1.260 . S
C181 C179 1.479 . S
C182 C177 1.245 . S
C182 C178 1.477 . S
C182 H199 0.932 . S
C183 U166 2.882 . S
C183 C177 1.428 . S
C183 O186 1.301 . S
C183 O187 1.282 . S
O184 U166 2.441 . S
O184 C170 1.249 . S
O185 U166 2.420 . S
O185 C170 1.202 . S
O186 U166 2.455 . S
O186 C183 1.301 . S
O187 U166 2.449 . S
O187 C183 1.282 . S
H188 C161 0.931 . S
H189 C163 0.929 . S
H190 C164 0.930 . S
H191 C165 0.931 . S
H192 C172 0.932 . S
H193 C173 0.930 . S
H194 C174 0.929 . S
H195 C176 0.930 . S
H196 C178 0.932 . S
H197 C179 0.929 . S
H198 C180 0.928 . S
H199 C182 0.932 . S
C200 C201 1.264 . S
C200 C205 1.479 . S
C200 C210 1.465 . S
C201 C200 1.264 . S
C201 C203 1.339 . S
C201 H228 0.931 . S
C202 C203 1.395 . S
C202 C204 1.320 . S
C203 C201 1.339 . S
C203 C202 1.395 . S
C203 H229 0.929 . S
C204 C202 1.320 . S
C204 C205 1.405 . S
C204 H230 0.930 . S
C205 C200 1.479 . S
C205 C204 1.405 . S
C205 H231 0.931 . S
U206 O207 2.454 . S
U206 O208 2.458 1_455 S
U206 C209 2.984 1_455 S
U206 C210 2.847 . S
U206 C223 2.882 . S
U206 O224 2.441 . S
U206 O225 2.420 . S
U206 O226 2.455 . S
U206 O227 2.449 . S
O207 U206 2.454 . S
O207 C209 1.353 1_455 S
O208 U206 2.458 1_655 S
O208 C209 1.286 . S
C209 U206 2.984 1_655 S
C209 O207 1.353 1_655 S
C209 O208 1.286 . S
C209 C211 1.363 . S
C210 C200 1.465 . S
C210 U206 2.847 . S
C210 O224 1.249 . S
C210 O225 1.202 . S
C211 C209 1.363 . S
C211 C213 1.408 . S
C211 C216 1.342 . S
C212 C213 1.310 . S
C212 C215 1.461 . S
C212 H232 0.932 . S
C213 C211 1.408 . S
C213 C212 1.310 . S
C213 H233 0.930 . S
C214 C215 1.474 . S
C214 C216 1.285 . S
C214 H234 0.929 . S
C215 C212 1.461 . S
C215 C214 1.474 . S
C216 C211 1.342 . S
C216 C214 1.285 . S
C216 H235 0.930 . S
C217 C220 1.424 . S
C217 C222 1.245 . S
C217 C223 1.428 . S
C218 C221 1.260 . S
C218 C222 1.477 . S
C218 H236 0.932 . S
C219 C220 1.384 . S
C219 C221 1.479 . S
C219 H237 0.929 . S
C220 C217 1.424 . S
C220 C219 1.384 . S
C220 H238 0.928 . S
C221 C218 1.260 . S
C221 C219 1.479 . S
C222 C217 1.245 . S
C222 C218 1.477 . S
C222 H239 0.932 . S
C223 U206 2.882 . S
C223 C217 1.428 . S
C223 O226 1.301 . S
C223 O227 1.282 . S
O224 U206 2.441 . S
O224 C210 1.249 . S
O225 U206 2.420 . S
O225 C210 1.202 . S
O226 U206 2.455 . S
O226 C223 1.301 . S
O227 U206 2.449 . S
O227 C223 1.282 . S
H228 C201 0.931 . S
H229 C203 0.929 . S
H230 C204 0.930 . S
H231 C205 0.931 . S
H232 C212 0.932 . S
H233 C213 0.930 . S
H234 C214 0.929 . S
H235 C216 0.930 . S
H236 C218 0.932 . S
H237 C219 0.929 . S
H238 C220 0.928 . S
H239 C222 0.932 . S
C240 C241 1.264 . S
C240 C245 1.479 . S
C240 C250 1.465 . S
C241 C240 1.264 . S
C241 C243 1.339 . S
C241 H268 0.931 . S
C242 C243 1.395 . S
C242 C244 1.320 . S
C243 C241 1.339 . S
C243 C242 1.395 . S
C243 H269 0.929 . S
C244 C242 1.320 . S
C244 C245 1.405 . S
C244 H270 0.930 . S
C245 C240 1.479 . S
C245 C244 1.405 . S
C245 H271 0.931 . S
U246 O247 2.454 . S
U246 O248 2.458 . S
U246 C249 2.984 . S
U246 C250 2.847 . S
U246 C263 2.882 . S
U246 O264 2.441 . S
U246 O265 2.420 . S
U246 O266 2.455 . S
U246 O267 2.449 . S
O247 U246 2.454 . S
O247 C249 1.353 . S
O248 U246 2.458 . S
O248 C249 1.286 . S
C249 U246 2.984 . S
C249 O247 1.353 . S
C249 O248 1.286 . S
C249 C251 1.363 . S
C250 C240 1.465 . S
C250 U246 2.847 . S
C250 O264 1.249 . S
C250 O265 1.202 . S
C251 C249 1.363 . S
C251 C253 1.408 . S
C251 C256 1.342 . S
C252 C253 1.310 . S
C252 C255 1.461 . S
C252 H272 0.932 . S
C253 C251 1.408 . S
C253 C252 1.310 . S
C253 H273 0.930 . S
C254 C255 1.474 . S
C254 C256 1.285 . S
C254 H274 0.929 . S
C255 C252 1.461 . S
C255 C254 1.474 . S
C256 C251 1.342 . S
C256 C254 1.285 . S
C256 H275 0.930 . S
C257 C260 1.424 . S
C257 C262 1.245 . S
C257 C263 1.428 . S
C258 C261 1.260 . S
C258 C262 1.477 . S
C258 H276 0.932 . S
C259 C260 1.384 . S
C259 C261 1.479 . S
C259 H277 0.929 . S
C260 C257 1.424 . S
C260 C259 1.384 . S
C260 H278 0.928 . S
C261 C258 1.260 . S
C261 C259 1.479 . S
C262 C257 1.245 . S
C262 C258 1.477 . S
C262 H279 0.932 . S
C263 U246 2.882 . S
C263 C257 1.428 . S
C263 O266 1.301 . S
C263 O267 1.282 . S
O264 U246 2.441 . S
O264 C250 1.249 . S
O265 U246 2.420 . S
O265 C250 1.202 . S
O266 U246 2.455 . S
O266 C263 1.301 . S
O267 U246 2.449 . S
O267 C263 1.282 . S
H268 C241 0.931 . S
H269 C243 0.929 . S
H270 C244 0.930 . S
H271 C245 0.931 . S
H272 C252 0.932 . S
H273 C253 0.930 . S
H274 C254 0.929 . S
H275 C256 0.930 . S
H276 C258 0.932 . S
H277 C259 0.929 . S
H278 C260 0.928 . S
H279 C262 0.932 . S
C280 C281 1.264 . S
C280 C285 1.479 . S
C280 C290 1.465 . S
C281 C280 1.264 . S
C281 C283 1.339 . S
C281 H308 0.931 . S
C282 C283 1.395 . S
C282 C284 1.320 . S
C283 C281 1.339 . S
C283 C282 1.395 . S
C283 H309 0.929 . S
C284 C282 1.320 . S
C284 C285 1.405 . S
C284 H310 0.930 . S
C285 C280 1.479 . S
C285 C284 1.405 . S
C285 H311 0.931 . S
U286 O287 2.454 . S
U286 O288 2.458 . S
U286 C289 2.984 . S
U286 C290 2.847 . S
U286 C303 2.882 . S
U286 O304 2.441 . S
U286 O305 2.420 . S
U286 O306 2.455 . S
U286 O307 2.449 . S
O287 U286 2.454 . S
O287 C289 1.353 . S
O288 U286 2.458 . S
O288 C289 1.286 . S
C289 U286 2.984 . S
C289 O287 1.353 . S
C289 O288 1.286 . S
C289 C291 1.363 . S
C290 C280 1.465 . S
C290 U286 2.847 . S
C290 O304 1.249 . S
C290 O305 1.202 . S
C291 C289 1.363 . S
C291 C293 1.408 . S
C291 C296 1.342 . S
C292 C293 1.310 . S
C292 C295 1.461 . S
C292 H312 0.932 . S
C293 C291 1.408 . S
C293 C292 1.310 . S
C293 H313 0.930 . S
C294 C295 1.474 . S
C294 C296 1.285 . S
C294 H314 0.929 . S
C295 C292 1.461 . S
C295 C294 1.474 . S
C296 C291 1.342 . S
C296 C294 1.285 . S
C296 H315 0.930 . S
C297 C300 1.424 . S
C297 C302 1.245 . S
C297 C303 1.428 . S
C298 C301 1.260 . S
C298 C302 1.477 . S
C298 H316 0.932 . S
C299 C300 1.384 . S
C299 C301 1.479 . S
C299 H317 0.929 . S
C300 C297 1.424 . S
C300 C299 1.384 . S
C300 H318 0.928 . S
C301 C298 1.260 . S
C301 C299 1.479 . S
C302 C297 1.245 . S
C302 C298 1.477 . S
C302 H319 0.932 . S
C303 U286 2.882 . S
C303 C297 1.428 . S
C303 O306 1.301 . S
C303 O307 1.282 . S
O304 U286 2.441 . S
O304 C290 1.249 . S
O305 U286 2.420 . S
O305 C290 1.202 . S
O306 U286 2.455 . S
O306 C303 1.301 . S
O307 U286 2.449 . S
O307 C303 1.282 . S
H308 C281 0.931 . S
H309 C283 0.929 . S
H310 C284 0.930 . S
H311 C285 0.931 . S
H312 C292 0.932 . S
H313 C293 0.930 . S
H314 C294 0.929 . S
H315 C296 0.930 . S
H316 C298 0.932 . S
H317 C299 0.929 . S
H318 C300 0.928 . S
H319 C302 0.932 . S
H320 C326 0.931 . S
H321 C330 0.930 . S
H322 C335 0.929 . S
H323 C333 0.929 . S
H324 C328 0.929 . S
H325 C334 0.929 . S
C326 H320 0.931 . S
C326 C327 1.367 . S
C326 C334 1.378 1_556 S
C327 C326 1.367 . S
C327 C335 1.433 . S
C328 H324 0.929 . S
C328 C330 1.378 1_556 S
C328 C332 1.350 1_556 S
C329 C332 1.463 1_556 S
C329 C334 1.350 1_556 S
C329 N337 1.427 . S
C330 H321 0.930 . S
C330 C328 1.378 1_554 S
C330 C331 1.367 . S
C331 C330 1.367 . S
C331 C333 1.433 . S
C332 C328 1.350 1_554 S
C332 C329 1.463 1_554 S
C332 N336 1.427 . S
C333 H323 0.929 . S
C333 C331 1.433 . S
C333 N336 1.384 . S
C334 H325 0.929 . S
C334 C326 1.378 1_554 S
C334 C329 1.350 1_554 S
C335 H322 0.929 . S
C335 C327 1.433 . S
C335 N337 1.384 . S
N336 C332 1.427 . S
N336 C333 1.384 . S
N337 C329 1.427 . S
N337 C335 1.384 . S
H338 C344 0.930 . S
H339 C348 0.930 . S
H340 C353 0.929 . S
H341 C351 0.929 . S
H342 C346 0.929 . S
H343 C352 0.929 . S
C344 H338 0.930 . S
C344 C345 1.367 . S
C344 C352 1.378 . S
C345 C344 1.367 . S
C345 C353 1.433 . S
C346 H342 0.929 . S
C346 C348 1.378 . S
C346 C350 1.350 . S
C347 C350 1.463 . S
C347 C352 1.350 . S
C347 N355 1.427 . S
C348 H339 0.930 . S
C348 C346 1.378 . S
C348 C349 1.367 . S
C349 C348 1.367 . S
C349 C351 1.433 . S
C350 C346 1.350 . S
C350 C347 1.463 . S
C350 N354 1.427 . S
C351 H341 0.929 . S
C351 C349 1.433 . S
C351 N354 1.384 . S
C352 H343 0.929 . S
C352 C344 1.378 . S
C352 C347 1.350 . S
C353 H340 0.929 . S
C353 C345 1.433 . S
C353 N355 1.384 . S
N354 C350 1.427 . S
N354 C351 1.384 . S
N355 C347 1.427 . S
N355 C353 1.384 . S
H356 C362 0.930 . S
H357 C366 0.930 . S
H358 C371 0.929 . S
H359 C369 0.929 . S
H360 C364 0.929 . S
H361 C370 0.929 . S
C362 H356 0.930 . S
C362 C363 1.367 . S
C362 C370 1.378 . S
C363 C362 1.367 . S
C363 C371 1.433 . S
C364 H360 0.929 . S
C364 C366 1.378 . S
C364 C368 1.350 . S
C365 C368 1.463 . S
C365 C370 1.350 . S
C365 N373 1.427 . S
C366 H357 0.930 . S
C366 C364 1.378 . S
C366 C367 1.367 . S
C367 C366 1.367 . S
C367 C369 1.433 . S
C368 C364 1.350 . S
C368 C365 1.463 . S
C368 N372 1.427 . S
C369 H359 0.929 . S
C369 C367 1.433 . S
C369 N372 1.384 . S
C370 H361 0.929 . S
C370 C362 1.378 . S
C370 C365 1.350 . S
C371 H358 0.929 . S
C371 C363 1.433 . S
C371 N373 1.384 . S
N372 C368 1.427 . S
N372 C369 1.384 . S
N373 C365 1.427 . S
N373 C371 1.384 . S
H374 C380 0.930 . S
H375 C384 0.930 . S
H376 C389 0.929 . S
H377 C387 0.929 . S
H378 C382 0.929 . S
H379 C388 0.929 . S
C380 H374 0.930 . S
C380 C381 1.367 . S
C380 C388 1.378 . S
C381 C380 1.367 . S
C381 C389 1.433 . S
C382 H378 0.929 . S
C382 C384 1.378 . S
C382 C386 1.350 . S
C383 C386 1.463 . S
C383 C388 1.350 . S
C383 N391 1.427 . S
C384 H375 0.930 . S
C384 C382 1.378 . S
C384 C385 1.367 . S
C385 C384 1.367 . S
C385 C387 1.433 . S
C386 C382 1.350 . S
C386 C383 1.463 . S
C386 N390 1.427 . S
C387 H377 0.929 . S
C387 C385 1.433 . S
C387 N390 1.384 . S
C388 H379 0.929 . S
C388 C380 1.378 . S
C388 C383 1.350 . S
C389 H376 0.929 . S
C389 C381 1.433 . S
C389 N391 1.384 . S
N390 C386 1.427 . S
N390 C387 1.384 . S
N391 C383 1.427 . S
N391 C389 1.384 . S
H392 C398 0.930 . S
H393 C402 0.930 . S
H394 C407 0.929 . S
H395 C405 0.929 . S
H396 C400 0.929 . S
H397 C406 0.929 . S
C398 H392 0.930 . S
C398 C399 1.367 . S
C398 C406 1.378 . S
C399 C398 1.367 . S
C399 C407 1.433 . S
C400 H396 0.929 . S
C400 C402 1.378 . S
C400 C404 1.350 . S
C401 C404 1.463 . S
C401 C406 1.350 . S
C401 N409 1.427 . S
C402 H393 0.930 . S
C402 C400 1.378 . S
C402 C403 1.367 . S
C403 C402 1.367 . S
C403 C405 1.433 . S
C404 C400 1.350 . S
C404 C401 1.463 . S
C404 N408 1.427 . S
C405 H395 0.929 . S
C405 C403 1.433 . S
C405 N408 1.384 . S
C406 H397 0.929 . S
C406 C398 1.378 . S
C406 C401 1.350 . S
C407 H394 0.929 . S
C407 C399 1.433 . S
C407 N409 1.384 . S
N408 C404 1.427 . S
N408 C405 1.384 . S
N409 C401 1.427 . S
N409 C407 1.384 . S
H410 C416 0.930 . S
H411 C420 0.930 . S
H412 C425 0.929 . S
H413 C423 0.929 . S
H414 C418 0.929 . S
H415 C424 0.929 . S
C416 H410 0.930 . S
C416 C417 1.367 . S
C416 C424 1.378 . S
C417 C416 1.367 . S
C417 C425 1.433 . S
C418 H414 0.929 . S
C418 C420 1.378 . S
C418 C422 1.350 . S
C419 C422 1.463 . S
C419 C424 1.350 . S
C419 N427 1.427 . S
C420 H411 0.930 . S
C420 C418 1.378 . S
C420 C421 1.367 . S
C421 C420 1.367 . S
C421 C423 1.433 . S
C422 C418 1.350 . S
C422 C419 1.463 . S
C422 N426 1.427 . S
C423 H413 0.929 . S
C423 C421 1.433 . S
C423 N426 1.384 . S
C424 H415 0.929 . S
C424 C416 1.378 . S
C424 C419 1.350 . S
C425 H412 0.929 . S
C425 C417 1.433 . S
C425 N427 1.384 . S
N426 C422 1.427 . S
N426 C423 1.384 . S
N427 C419 1.427 . S
N427 C425 1.384 . S
H428 C434 0.930 . S
H429 C438 0.930 . S
H430 C443 0.929 . S
H431 C441 0.929 . S
H432 C436 0.929 1_565 S
H433 C442 0.929 1_545 S
C434 H428 0.930 . S
C434 C435 1.367 . S
C434 C442 1.378 . S
C435 C434 1.367 . S
C435 C443 1.433 . S
C436 H432 0.929 1_545 S
C436 C438 1.378 . S
C436 C440 1.350 . S
C437 C440 1.463 1_565 S
C437 C442 1.350 . S
C437 N445 1.427 . S
C438 H429 0.930 . S
C438 C436 1.378 . S
C438 C439 1.367 . S
C439 C438 1.367 . S
C439 C441 1.433 . S
C440 C436 1.350 . S
C440 C437 1.463 1_545 S
C440 N444 1.427 . S
C441 H431 0.929 . S
C441 C439 1.433 . S
C441 N444 1.384 . S
C442 H433 0.929 1_565 S
C442 C434 1.378 . S
C442 C437 1.350 . S
C443 H430 0.929 . S
C443 C435 1.433 . S
C443 N445 1.384 . S
N444 C440 1.427 . S
N444 C441 1.384 . S
N445 C437 1.427 . S
N445 C443 1.384 . S
H446 C452 0.930 . S
H447 C456 0.930 . S
H448 C461 0.979 . S
H449 C459 0.980 . S
H450 C454 0.929 . S
H451 C460 0.928 . S
C452 H446 0.930 . S
C452 C453 1.367 . S
C452 C460 1.378 . S
C453 C452 1.367 . S
C453 C461 1.433 . S
C454 H450 0.929 . S
C454 C456 1.378 . S
C454 C458 1.350 . S
C455 C458 1.463 1_564 S
C455 C460 1.350 . S
C455 N463 1.427 1_554 S
C456 H447 0.930 . S
C456 C454 1.378 . S
C456 C457 1.367 . S
C457 C456 1.367 . S
C457 C459 1.433 . S
C458 C454 1.350 . S
C458 C455 1.463 1_546 S
C458 N462 1.427 1_556 S
C459 H449 0.980 . S
C459 C457 1.433 . S
C459 N462 1.384 1_556 S
C460 H451 0.928 . S
C460 C452 1.378 . S
C460 C455 1.350 . S
C461 H448 0.979 . S
C461 C453 1.433 . S
C461 N463 1.384 1_554 S
N462 C458 1.427 1_554 S
N462 C459 1.384 1_554 S
N463 C455 1.427 1_556 S
N463 C461 1.384 1_556 S
H464 C470 0.930 . S
H465 C474 0.930 . S
H466 C479 0.929 . S
H467 C477 0.929 . S
H468 C472 0.929 . S
H469 C478 0.929 . S
C470 H464 0.930 . S
C470 C471 1.367 . S
C470 C478 1.378 . S
C471 C470 1.367 . S
C471 C479 1.433 . S
C472 H468 0.929 . S
C472 C474 1.378 . S
C472 C476 1.350 . S
C473 C476 1.463 . S
C473 C478 1.350 . S
C473 N481 1.427 . S
C474 H465 0.930 . S
C474 C472 1.378 . S
C474 C475 1.367 . S
C475 C474 1.367 . S
C475 C477 1.433 . S
C476 C472 1.350 . S
C476 C473 1.463 . S
C476 N480 1.427 . S
C477 H467 0.929 . S
C477 C475 1.433 . S
C477 N480 1.384 . S
C478 H469 0.929 . S
C478 C470 1.378 . S
C478 C473 1.350 . S
C479 H466 0.929 . S
C479 C471 1.433 . S
C479 N481 1.384 . S
N480 C476 1.427 . S
N480 C477 1.384 . S
N481 C473 1.427 . S
N481 C479 1.384 . S
H482 C488 0.930 . S
H483 C492 0.930 . S
H484 C497 0.929 . S
H485 C495 0.929 . S
H486 C490 0.929 . S
H487 C496 0.929 . S
C488 H482 0.930 . S
C488 C489 1.367 . S
C488 C496 1.378 . S
C489 C488 1.367 . S
C489 C497 1.433 . S
C490 H486 0.929 . S
C490 C492 1.378 . S
C490 C494 1.350 . S
C491 C494 1.463 . S
C491 C496 1.350 . S
C491 N499 1.427 . S
C492 H483 0.930 . S
C492 C490 1.378 . S
C492 C493 1.367 . S
C493 C492 1.367 . S
C493 C495 1.433 . S
C494 C490 1.350 . S
C494 C491 1.463 . S
C494 N498 1.427 . S
C495 H485 0.929 . S
C495 C493 1.433 . S
C495 N498 1.384 . S
C496 H487 0.929 . S
C496 C488 1.378 . S
C496 C491 1.350 . S
C497 H484 0.929 . S
C497 C489 1.433 . S
C497 N499 1.384 . S
N498 C494 1.427 . S
N498 C495 1.384 . S
N499 C491 1.427 . S
N499 C497 1.384 . S
H500 C506 0.930 . S
H501 C510 0.930 . S
H502 C515 0.929 . S
H503 C513 0.929 . S
H504 C508 0.929 . S
H505 C514 0.929 . S
C506 H500 0.930 . S
C506 C507 1.367 . S
C506 C514 1.378 . S
C507 C506 1.367 . S
C507 C515 1.433 . S
C508 H504 0.929 . S
C508 C510 1.378 . S
C508 C512 1.350 . S
C509 C512 1.463 . S
C509 C514 1.350 . S
C509 N517 1.427 . S
C510 H501 0.930 . S
C510 C508 1.378 . S
C510 C511 1.367 . S
C511 C510 1.367 . S
C511 C513 1.433 . S
C512 C508 1.350 . S
C512 C509 1.463 . S
C512 N516 1.427 . S
C513 H503 0.929 . S
C513 C511 1.433 . S
C513 N516 1.384 . S
C514 H505 0.929 . S
C514 C506 1.378 . S
C514 C509 1.350 . S
C515 H502 0.929 . S
C515 C507 1.433 . S
C515 N517 1.384 . S
N516 C512 1.427 . S
N516 C513 1.384 . S
N517 C509 1.427 . S
N517 C515 1.384 . S
H518 C524 0.930 . S
H519 C528 0.930 . S
H520 C533 0.929 . S
H521 C531 0.929 . S
H522 C526 0.929 . S
H523 C532 0.929 . S
C524 H518 0.930 . S
C524 C525 1.367 . S
C524 C532 1.378 . S
C525 C524 1.367 . S
C525 C533 1.433 . S
C526 H522 0.929 . S
C526 C528 1.378 . S
C526 C530 1.350 . S
C527 C530 1.463 . S
C527 C532 1.350 . S
C527 N535 1.427 . S
C528 H519 0.930 . S
C528 C526 1.378 . S
C528 C529 1.367 . S
C529 C528 1.367 . S
C529 C531 1.433 . S
C530 C526 1.350 . S
C530 C527 1.463 . S
C530 N534 1.427 . S
C531 H521 0.929 . S
C531 C529 1.433 . S
C531 N534 1.384 . S
C532 H523 0.929 . S
C532 C524 1.378 . S
C532 C527 1.350 . S
C533 H520 0.929 . S
C533 C525 1.433 . S
C533 N535 1.384 . S
N534 C530 1.427 . S
N534 C531 1.384 . S
N535 C527 1.427 . S
N535 C533 1.384 . S
C327 C175 1.500 . S
C331 C15 1.500 . S
C345 C215 1.499 . S
C349 C55 1.500 . S
C363 C82 1.488 . S
C367 C242 1.492 . S
C381 C122 1.485 . S
C385 C282 1.492 . S
C399 C295 1.500 . S
C403 C135 1.500 . S
C417 C202 1.483 . S
C421 C42 1.487 . S
C435 C255 1.501 . S
C439 C95 1.501 . S
C453 C2 1.486 . S
C457 C162 1.492 . S
C471 C221 1.487 . S
C475 C21 1.490 . S
C489 C261 1.494 . S
C493 C61 1.487 . S
C507 C101 1.484 . S
C511 C301 1.487 . S
C525 C181 1.492 . S
C529 C141 1.484 . S
