# Generated by pormake.
# Topology upd, (4)-cn, num edge types: 1
# Building blocks:
#     Node 0, Type 0, BuildingBlock: KOZSID_clean_sbu_0, # of connection points: 4
#     Node 1, Type 0, BuildingBlock: KOZSID_clean_sbu_0, # of connection points: 4
#     Node 2, Type 0, BuildingBlock: KOZSID_clean_sbu_0, # of connection points: 4
#     Node 3, Type 0, BuildingBlock: KOZSID_clean_sbu_0, # of connection points: 4
#     Node 4, Type 0, BuildingBlock: KOZSID_clean_sbu_0, # of connection points: 4
#     Node 5, Type 0, BuildingBlock: KOZSID_clean_sbu_0, # of connection points: 4
#     Node 6, Type 0, BuildingBlock: KOZSID_clean_sbu_0, # of connection points: 4
#     Node 7, Type 0, BuildingBlock: KOZSID_clean_sbu_0, # of connection points: 4
#     Node 8, Type 0, BuildingBlock: KOZSID_clean_sbu_0, # of connection points: 4
#     Node 9, Type 0, BuildingBlock: KOZSID_clean_sbu_0, # of connection points: 4
#     Node 10, Type 0, BuildingBlock: KOZSID_clean_sbu_0, # of connection points: 4
#     Node 11, Type 0, BuildingBlock: KOZSID_clean_sbu_0, # of connection points: 4
#     Node 12, Type 0, BuildingBlock: KOZSID_clean_sbu_0, # of connection points: 4
#     Node 13, Type 0, BuildingBlock: KOZSID_clean_sbu_0, # of connection points: 4
#     Node 14, Type 0, BuildingBlock: KOZSID_clean_sbu_0, # of connection points: 4
#     Node 15, Type 0, BuildingBlock: KOZSID_clean_sbu_0, # of connection points: 4
#     Node 16, Type 0, BuildingBlock: KOZSID_clean_sbu_0, # of connection points: 4
#     Node 17, Type 0, BuildingBlock: KOZSID_clean_sbu_0, # of connection points: 4
#     Node 18, Type 0, BuildingBlock: KOZSID_clean_sbu_0, # of connection points: 4
#     Node 19, Type 0, BuildingBlock: KOZSID_clean_sbu_0, # of connection points: 4
#     Node 20, Type 0, BuildingBlock: KOZSID_clean_sbu_0, # of connection points: 4
#     Node 21, Type 0, BuildingBlock: KOZSID_clean_sbu_0, # of connection points: 4
#     Node 22, Type 0, BuildingBlock: KOZSID_clean_sbu_0, # of connection points: 4
#     Node 23, Type 0, BuildingBlock: KOZSID_clean_sbu_0, # of connection points: 4
#     Node 24, Type 0, BuildingBlock: KOZSID_clean_sbu_0, # of connection points: 4
#     Node 25, Type 0, BuildingBlock: KOZSID_clean_sbu_0, # of connection points: 4
#     Node 26, Type 0, BuildingBlock: KOZSID_clean_sbu_0, # of connection points: 4
#     Node 27, Type 0, BuildingBlock: KOZSID_clean_sbu_0, # of connection points: 4
#     Node 28, Type 0, BuildingBlock: KOZSID_clean_sbu_0, # of connection points: 4
#     Node 29, Type 0, BuildingBlock: KOZSID_clean_sbu_0, # of connection points: 4
#     Node 30, Type 0, BuildingBlock: KOZSID_clean_sbu_0, # of connection points: 4
#     Node 31, Type 0, BuildingBlock: KOZSID_clean_sbu_0, # of connection points: 4
#     Edge 32, Type (0, 0), BuildingBlock: ZUJKAS_clean_linker_0, # of connection points: 2
#     Edge 33, Type (0, 0), BuildingBlock: ZUJKAS_clean_linker_0, # of connection points: 2
#     Edge 34, Type (0, 0), BuildingBlock: ZUJKAS_clean_linker_0, # of connection points: 2
#     Edge 35, Type (0, 0), BuildingBlock: ZUJKAS_clean_linker_0, # of connection points: 2
#     Edge 36, Type (0, 0), BuildingBlock: ZUJKAS_clean_linker_0, # of connection points: 2
#     Edge 37, Type (0, 0), BuildingBlock: ZUJKAS_clean_linker_0, # of connection points: 2
#     Edge 38, Type (0, 0), BuildingBlock: ZUJKAS_clean_linker_0, # of connection points: 2
#     Edge 39, Type (0, 0), BuildingBlock: ZUJKAS_clean_linker_0, # of connection points: 2
#     Edge 40, Type (0, 0), BuildingBlock: ZUJKAS_clean_linker_0, # of connection points: 2
#     Edge 41, Type (0, 0), BuildingBlock: ZUJKAS_clean_linker_0, # of connection points: 2
#     Edge 42, Type (0, 0), BuildingBlock: ZUJKAS_clean_linker_0, # of connection points: 2
#     Edge 43, Type (0, 0), BuildingBlock: ZUJKAS_clean_linker_0, # of connection points: 2
#     Edge 44, Type (0, 0), BuildingBlock: ZUJKAS_clean_linker_0, # of connection points: 2
#     Edge 45, Type (0, 0), BuildingBlock: ZUJKAS_clean_linker_0, # of connection points: 2
#     Edge 46, Type (0, 0), BuildingBlock: ZUJKAS_clean_linker_0, # of connection points: 2
#     Edge 47, Type (0, 0), BuildingBlock: ZUJKAS_clean_linker_0, # of connection points: 2
#     Edge 48, Type (0, 0), BuildingBlock: ZUJKAS_clean_linker_0, # of connection points: 2
#     Edge 49, Type (0, 0), BuildingBlock: ZUJKAS_clean_linker_0, # of connection points: 2
#     Edge 50, Type (0, 0), BuildingBlock: ZUJKAS_clean_linker_0, # of connection points: 2
#     Edge 51, Type (0, 0), BuildingBlock: ZUJKAS_clean_linker_0, # of connection points: 2
#     Edge 52, Type (0, 0), BuildingBlock: ZUJKAS_clean_linker_0, # of connection points: 2
#     Edge 53, Type (0, 0), BuildingBlock: ZUJKAS_clean_linker_0, # of connection points: 2
#     Edge 54, Type (0, 0), BuildingBlock: ZUJKAS_clean_linker_0, # of connection points: 2
#     Edge 55, Type (0, 0), BuildingBlock: ZUJKAS_clean_linker_0, # of connection points: 2
#     Edge 56, Type (0, 0), BuildingBlock: ZUJKAS_clean_linker_0, # of connection points: 2
#     Edge 57, Type (0, 0), BuildingBlock: ZUJKAS_clean_linker_0, # of connection points: 2
#     Edge 58, Type (0, 0), BuildingBlock: ZUJKAS_clean_linker_0, # of connection points: 2
#     Edge 59, Type (0, 0), BuildingBlock: ZUJKAS_clean_linker_0, # of connection points: 2
#     Edge 60, Type (0, 0), BuildingBlock: ZUJKAS_clean_linker_0, # of connection points: 2
#     Edge 61, Type (0, 0), BuildingBlock: ZUJKAS_clean_linker_0, # of connection points: 2
#     Edge 62, Type (0, 0), BuildingBlock: ZUJKAS_clean_linker_0, # of connection points: 2
#     Edge 63, Type (0, 0), BuildingBlock: ZUJKAS_clean_linker_0, # of connection points: 2
#     Edge 64, Type (0, 0), BuildingBlock: ZUJKAS_clean_linker_0, # of connection points: 2
#     Edge 65, Type (0, 0), BuildingBlock: ZUJKAS_clean_linker_0, # of connection points: 2
#     Edge 66, Type (0, 0), BuildingBlock: ZUJKAS_clean_linker_0, # of connection points: 2
#     Edge 67, Type (0, 0), BuildingBlock: ZUJKAS_clean_linker_0, # of connection points: 2
#     Edge 68, Type (0, 0), BuildingBlock: ZUJKAS_clean_linker_0, # of connection points: 2
#     Edge 69, Type (0, 0), BuildingBlock: ZUJKAS_clean_linker_0, # of connection points: 2
#     Edge 70, Type (0, 0), BuildingBlock: ZUJKAS_clean_linker_0, # of connection points: 2
#     Edge 71, Type (0, 0), BuildingBlock: ZUJKAS_clean_linker_0, # of connection points: 2
#     Edge 72, Type (0, 0), BuildingBlock: ZUJKAS_clean_linker_0, # of connection points: 2
#     Edge 73, Type (0, 0), BuildingBlock: ZUJKAS_clean_linker_0, # of connection points: 2
#     Edge 74, Type (0, 0), BuildingBlock: ZUJKAS_clean_linker_0, # of connection points: 2
#     Edge 75, Type (0, 0), BuildingBlock: ZUJKAS_clean_linker_0, # of connection points: 2
#     Edge 76, Type (0, 0), BuildingBlock: ZUJKAS_clean_linker_0, # of connection points: 2
#     Edge 77, Type (0, 0), BuildingBlock: ZUJKAS_clean_linker_0, # of connection points: 2
#     Edge 78, Type (0, 0), BuildingBlock: ZUJKAS_clean_linker_0, # of connection points: 2
#     Edge 79, Type (0, 0), BuildingBlock: ZUJKAS_clean_linker_0, # of connection points: 2
#     Edge 80, Type (0, 0), BuildingBlock: ZUJKAS_clean_linker_0, # of connection points: 2
#     Edge 81, Type (0, 0), BuildingBlock: ZUJKAS_clean_linker_0, # of connection points: 2
#     Edge 82, Type (0, 0), BuildingBlock: ZUJKAS_clean_linker_0, # of connection points: 2
#     Edge 83, Type (0, 0), BuildingBlock: ZUJKAS_clean_linker_0, # of connection points: 2
#     Edge 84, Type (0, 0), BuildingBlock: ZUJKAS_clean_linker_0, # of connection points: 2
#     Edge 85, Type (0, 0), BuildingBlock: ZUJKAS_clean_linker_0, # of connection points: 2
#     Edge 86, Type (0, 0), BuildingBlock: ZUJKAS_clean_linker_0, # of connection points: 2
#     Edge 87, Type (0, 0), BuildingBlock: ZUJKAS_clean_linker_0, # of connection points: 2
#     Edge 88, Type (0, 0), BuildingBlock: ZUJKAS_clean_linker_0, # of connection points: 2
#     Edge 89, Type (0, 0), BuildingBlock: ZUJKAS_clean_linker_0, # of connection points: 2
#     Edge 90, Type (0, 0), BuildingBlock: ZUJKAS_clean_linker_0, # of connection points: 2
#     Edge 91, Type (0, 0), BuildingBlock: ZUJKAS_clean_linker_0, # of connection points: 2
#     Edge 92, Type (0, 0), BuildingBlock: ZUJKAS_clean_linker_0, # of connection points: 2
#     Edge 93, Type (0, 0), BuildingBlock: ZUJKAS_clean_linker_0, # of connection points: 2
#     Edge 94, Type (0, 0), BuildingBlock: ZUJKAS_clean_linker_0, # of connection points: 2
#     Edge 95, Type (0, 0), BuildingBlock: ZUJKAS_clean_linker_0, # of connection points: 2
# Relax obj value: 0.021
# Max RMSD: 0.113
# Mean RMSD: 0.086
data_MOF--net-upd--node1-KOZSID_clean_sbu_0--edge1-ZUJKAS_clean_linker_0
_symmetry_space_group_name_H-M    P1
_symmetry_Int_Tables_number       1
_symmetry_cell_setting            triclinic
loop_
_symmetry_equiv_pos_as_xyz
'x, y, z'
_cell_length_a     59.347383
_cell_length_b     51.749621
_cell_length_c     131.18209
_cell_angle_alpha  89.998047
_cell_angle_beta   90.000777
_cell_angle_gamma 89.999404
loop_
_atom_site_label
_atom_site_type_symbol
_atom_site_fract_x
_atom_site_fract_y
_atom_site_fract_z
_atom_type_partial_charge
C0 C 0.10206 0.13376 0.32966 0.0
C1 C 0.07869 0.13416 0.32947 0.0
C2 C 0.07265 0.14936 0.32142 0.0
C3 C 0.09261 0.15726 0.31719 0.0
N4 N 0.11104 0.14749 0.32188 0.0
Co5 Co 0.14341 0.15515 0.31875 0.0
N6 N 0.13464 0.1801 0.30773 0.0
C7 C 0.11352 0.18611 0.30462 0.0
C8 C 0.11287 0.20338 0.29671 0.0
C9 C 0.13488 0.20849 0.29453 0.0
C10 C 0.14772 0.19392 0.30127 0.0
N11 N 0.17579 0.16329 0.31581 0.0
C12 C 0.18492 0.17913 0.30869 0.0
C13 C 0.20829 0.17914 0.30916 0.0
C14 C 0.21415 0.16257 0.3168 0.0
C15 C 0.19412 0.15343 0.32055 0.0
N16 N 0.1521 0.12976 0.32964 0.0
C17 C 0.17316 0.12231 0.33226 0.0
C18 C 0.17377 0.10553 0.34034 0.0
C19 C 0.15181 0.10245 0.34318 0.0
C20 C 0.13905 0.11755 0.33661 0.0
N21 N 0.14411 0.12696 0.30843 0.0
C22 C 0.14636 0.08935 0.29285 0.0
C23 C 0.16377 0.09205 0.29994 0.0
C24 C 0.16232 0.11079 0.30758 0.0
C25 C 0.12758 0.10542 0.29386 0.0
C26 C 0.12676 0.12377 0.30165 0.0
N27 N 0.14273 0.1833 0.32902 0.0
C28 C 0.15734 0.20305 0.34437 0.0
C29 C 0.14062 0.22197 0.34406 0.0
C30 C 0.12517 0.22151 0.33606 0.0
C31 C 0.12636 0.20199 0.32873 0.0
C32 C 0.15827 0.18422 0.33675 0.0
H33 H 0.11369 0.20224 0.32299 0.0
H34 H 0.17159 0.1705 0.33732 0.0
H35 H 0.17627 0.11196 0.31264 0.0
H36 H 0.11204 0.13539 0.3019 0.0
C37 C 0.09462 0.17513 0.30926 0.0
C38 C 0.11493 0.12164 0.33781 0.0
C39 C 0.17223 0.19337 0.30103 0.0
C40 C 0.19204 0.13425 0.32798 0.0
H41 H 0.06725 0.12508 0.33481 0.0
H42 H 0.05576 0.15479 0.31917 0.0
H43 H 0.09815 0.21114 0.29292 0.0
H44 H 0.14085 0.22127 0.28858 0.0
H45 H 0.21992 0.1896 0.30433 0.0
H46 H 0.23101 0.15728 0.31916 0.0
H47 H 0.18849 0.09767 0.3441 0.0
H48 H 0.14602 0.09123 0.34962 0.0
H49 H 0.17853 0.07976 0.29963 0.0
H50 H 0.11369 0.10437 0.28852 0.0
H51 H 0.16975 0.20288 0.35043 0.0
H52 H 0.11182 0.23576 0.33561 0.0
C53 C 0.1229 0.83983 0.57952 0.0
C54 C 0.1199 0.81327 0.58023 0.0
C55 C 0.10722 0.8061 0.57204 0.0
C56 C 0.1031 0.82856 0.56685 0.0
N57 N 0.11265 0.84968 0.57113 0.0
Co58 Co 0.10978 0.88646 0.56642 0.0
N59 N 0.08875 0.87626 0.55512 0.0
C60 C 0.08196 0.85205 0.5527 0.0
C61 C 0.06772 0.851 0.5445 0.0
C62 C 0.06516 0.87604 0.54149 0.0
C63 C 0.07797 0.89101 0.5481 0.0
N64 N 0.10684 0.92327 0.56175 0.0
C65 C 0.09426 0.9336 0.55413 0.0
C66 C 0.09681 0.96024 0.5536 0.0
C67 C 0.11166 0.96697 0.56107 0.0
C68 C 0.11724 0.9442 0.56577 0.0
N69 N 0.13072 0.89662 0.57776 0.0
C70 C 0.1387 0.92057 0.57981 0.0
C71 C 0.15217 0.92167 0.58828 0.0
C72 C 0.15257 0.89703 0.59198 0.0
C73 C 0.13921 0.88231 0.58553 0.0
N74 N 0.13589 0.88173 0.55706 0.0
C75 C 0.17042 0.87773 0.54234 0.0
C76 C 0.16973 0.89845 0.54915 0.0
C77 C 0.15253 0.90002 0.55638 0.0
C78 C 0.15409 0.85846 0.54333 0.0
C79 C 0.13725 0.86074 0.55071 0.0
N80 N 0.08376 0.89128 0.57566 0.0
C81 C 0.06446 0.91605 0.58859 0.0
C82 C 0.04717 0.89776 0.58908 0.0
C83 C 0.04842 0.8763 0.58263 0.0
C84 C 0.06673 0.87344 0.57605 0.0
C85 C 0.08239 0.91249 0.58187 0.0
H86 H 0.06681 0.85661 0.57138 0.0
H87 H 0.09508 0.92705 0.58189 0.0
H88 H 0.15297 0.91643 0.56123 0.0
H89 H 0.12534 0.84548 0.55098 0.0
C90 C 0.08901 0.8307 0.55837 0.0
C91 C 0.13457 0.85501 0.58728 0.0
C92 C 0.07948 0.91909 0.54732 0.0
C93 C 0.13183 0.94194 0.57408 0.0
H94 H 0.12574 0.80045 0.58618 0.0
H95 H 0.10107 0.78692 0.57028 0.0
H96 H 0.06008 0.83405 0.54112 0.0
H97 H 0.05503 0.88251 0.53512 0.0
H98 H 0.08868 0.97349 0.54838 0.0
H99 H 0.11755 0.9862 0.56292 0.0
H100 H 0.16017 0.93853 0.59156 0.0
H101 H 0.16131 0.89069 0.59878 0.0
H102 H 0.18235 0.91356 0.5489 0.0
H103 H 0.15384 0.84197 0.53825 0.0
H104 H 0.06447 0.93282 0.59353 0.0
H105 H 0.0353 0.86176 0.58262 0.0
C106 C 0.39525 0.86195 0.82843 0.0
C107 C 0.41849 0.85903 0.8279 0.0
C108 C 0.42272 0.8431 0.81985 0.0
C109 C 0.40194 0.83708 0.81598 0.0
N110 N 0.38466 0.84866 0.82092 0.0
Co111 Co 0.3516 0.84319 0.8185 0.0
N112 N 0.35776 0.81734 0.80743 0.0
C113 C 0.37817 0.81017 0.80379 0.0
C114 C 0.37712 0.79324 0.79579 0.0
C115 C 0.35469 0.7895 0.79413 0.0
C116 C 0.34329 0.8043 0.80131 0.0
N117 N 0.31857 0.83716 0.81634 0.0
C118 C 0.30781 0.82155 0.80962 0.0
C119 C 0.28459 0.82265 0.81083 0.0
C120 C 0.2805 0.83994 0.81846 0.0
C121 C 0.30136 0.84822 0.82151 0.0
N122 N 0.34547 0.86953 0.82937 0.0
C123 C 0.32516 0.8787 0.83234 0.0
C124 C 0.32637 0.89629 0.84014 0.0
C125 C 0.34875 0.89813 0.8424 0.0
C126 C 0.35988 0.88139 0.83586 0.0
N127 N 0.35125 0.87107 0.80802 0.0
C128 C 0.34966 0.90878 0.79242 0.0
C129 C 0.33241 0.90676 0.79964 0.0
C130 C 0.33353 0.88797 0.80728 0.0
C131 C 0.36791 0.89185 0.7933 0.0
C132 C 0.36841 0.87346 0.80109 0.0
N133 N 0.35196 0.81538 0.82894 0.0
C134 C 0.33886 0.79788 0.84499 0.0
C135 C 0.35448 0.77776 0.84443 0.0
C136 C 0.36847 0.77643 0.8359 0.0
C137 C 0.36706 0.79539 0.82834 0.0
C138 C 0.33771 0.81616 0.83716 0.0
H139 H 0.3786 0.79367 0.82216 0.0
H140 H 0.3253 0.83091 0.83798 0.0
H141 H 0.31973 0.88742 0.81245 0.0
H142 H 0.38277 0.86122 0.80124 0.0
C143 C 0.39805 0.81958 0.80809 0.0
C144 C 0.3839 0.87605 0.83656 0.0
C145 C 0.31875 0.80599 0.80178 0.0
C146 C 0.30526 0.86771 0.82867 0.0
H147 H 0.43109 0.86691 0.83298 0.0
H148 H 0.43896 0.836 0.81735 0.0
H149 H 0.39101 0.78483 0.79159 0.0
H150 H 0.34762 0.7775 0.78818 0.0
H151 H 0.27189 0.81234 0.80652 0.0
H152 H 0.26424 0.84616 0.82128 0.0
H153 H 0.31254 0.90561 0.84406 0.0
H154 H 0.35602 0.90971 0.84844 0.0
H155 H 0.31807 0.9197 0.79945 0.0
H156 H 0.38163 0.89232 0.78786 0.0
H157 H 0.32749 0.79944 0.85142 0.0
H158 H 0.38092 0.76121 0.83518 0.0
C159 C 0.37985 0.16084 0.07835 0.0
C160 C 0.38355 0.18731 0.07876 0.0
C161 C 0.39662 0.19338 0.07056 0.0
C162 C 0.40006 0.17039 0.0656 0.0
N163 N 0.38966 0.15004 0.07005 0.0
Co164 Co 0.39062 0.113 0.06558 0.0
N165 N 0.4128 0.12122 0.05449 0.0
C166 C 0.42118 0.14477 0.05206 0.0
C167 C 0.43601 0.14443 0.04407 0.0
C168 C 0.43731 0.11915 0.04122 0.0
C169 C 0.42317 0.10543 0.04771 0.0
N170 N 0.3915 0.07595 0.06107 0.0
C171 C 0.40377 0.06445 0.05361 0.0
C172 C 0.39943 0.03813 0.05306 0.0
C173 C 0.38375 0.03282 0.06037 0.0
C174 C 0.37948 0.05606 0.06499 0.0
N175 N 0.36872 0.10483 0.07682 0.0
C176 C 0.35944 0.08157 0.07897 0.0
C177 C 0.34613 0.08165 0.0875 0.0
C178 C 0.34727 0.10632 0.09114 0.0
C179 C 0.36121 0.11992 0.08456 0.0
N180 N 0.36524 0.11939 0.05596 0.0
C181 C 0.33148 0.12506 0.04096 0.0
C182 C 0.33032 0.10536 0.0482 0.0
C183 C 0.34715 0.10295 0.05556 0.0
C184 C 0.34928 0.14262 0.04164 0.0
C185 C 0.36575 0.13952 0.04916 0.0
N186 N 0.41585 0.10648 0.07508 0.0
C187 C 0.43337 0.08017 0.08807 0.0
C188 C 0.45137 0.09742 0.08881 0.0
C189 C 0.45138 0.11921 0.08252 0.0
C190 C 0.43354 0.12339 0.07578 0.0
C191 C 0.41598 0.08498 0.08118 0.0
H192 H 0.43429 0.14049 0.07126 0.0
H193 H 0.40278 0.07107 0.08093 0.0
H194 H 0.34521 0.08738 0.06074 0.0
H195 H 0.37888 0.15343 0.04916 0.0
C196 C 0.41468 0.1669 0.05739 0.0
C197 C 0.36787 0.14669 0.08627 0.0
C198 C 0.41996 0.07753 0.04701 0.0
C199 C 0.36497 0.05962 0.07327 0.0
H200 H 0.37787 0.2007 0.08456 0.0
H201 H 0.40351 0.21213 0.06865 0.0
H202 H 0.44479 0.16065 0.04069 0.0
H203 H 0.44744 0.11171 0.03502 0.0
H204 H 0.40695 0.02416 0.04795 0.0
H205 H 0.37655 0.01416 0.0622 0.0
H206 H 0.33733 0.06547 0.09089 0.0
H207 H 0.33926 0.11331 0.09802 0.0
H208 H 0.31651 0.09166 0.04818 0.0
H209 H 0.35094 0.15828 0.03622 0.0
H210 H 0.43278 0.06289 0.09272 0.0
H211 H 0.46488 0.13326 0.08293 0.0
C212 C 0.1032 0.86796 0.17181 0.0
C213 C 0.07984 0.86669 0.17222 0.0
C214 C 0.07455 0.85126 0.1803 0.0
C215 C 0.09486 0.84392 0.18432 0.0
N216 N 0.11285 0.85414 0.17943 0.0
Co217 Co 0.14554 0.84709 0.18222 0.0
N218 N 0.13774 0.82145 0.19314 0.0
C219 C 0.11688 0.81437 0.19624 0.0
C220 C 0.1169 0.79657 0.20397 0.0
C221 C 0.1391 0.79219 0.20602 0.0
C222 C 0.15136 0.80773 0.19941 0.0
N223 N 0.17823 0.83999 0.18496 0.0
C224 C 0.18797 0.82444 0.19201 0.0
C225 C 0.21132 0.8256 0.19153 0.0
C226 C 0.21653 0.8426 0.18394 0.0
C227 C 0.19618 0.85087 0.18025 0.0
N228 N 0.15328 0.8727 0.17129 0.0
C229 C 0.17408 0.88056 0.16841 0.0
C230 C 0.17397 0.89762 0.16042 0.0
C231 C 0.1518 0.90043 0.15789 0.0
C232 C 0.13969 0.88478 0.16451 0.0
N233 N 0.146 0.87507 0.19263 0.0
C234 C 0.14762 0.9131 0.20807 0.0
C235 C 0.16431 0.91174 0.20057 0.0
C236 C 0.16319 0.89275 0.19301 0.0
C237 C 0.12996 0.89531 0.2076 0.0
C238 C 0.12943 0.87677 0.19988 0.0
N239 N 0.14506 0.8192 0.17184 0.0
C240 C 0.16052 0.79916 0.15672 0.0
C241 C 0.14262 0.78162 0.15632 0.0
C242 C 0.12634 0.7828 0.16399 0.0
C243 C 0.12786 0.80156 0.1716 0.0
C244 C 0.16143 0.81758 0.1645 0.0
H245 H 0.11476 0.80159 0.17713 0.0
H246 H 0.17534 0.8306 0.16433 0.0
H247 H 0.17653 0.89272 0.18761 0.0
H248 H 0.11556 0.86384 0.20004 0.0
C249 C 0.09759 0.82543 0.19198 0.0
C250 C 0.11552 0.88072 0.16362 0.0
C251 C 0.17585 0.80934 0.19961 0.0
C252 C 0.1934 0.86966 0.17271 0.0
H253 H 0.06782 0.8752 0.16701 0.0
H254 H 0.05791 0.84514 0.18265 0.0
H255 H 0.10249 0.7881 0.20778 0.0
H256 H 0.14555 0.77929 0.21183 0.0
H257 H 0.22336 0.8156 0.19631 0.0
H258 H 0.23318 0.84866 0.18156 0.0
H259 H 0.18833 0.90614 0.15661 0.0
H260 H 0.14528 0.91198 0.15168 0.0
H261 H 0.17819 0.92533 0.20049 0.0
H262 H 0.11673 0.89525 0.21329 0.0
H263 H 0.17349 0.79917 0.15092 0.0
H264 H 0.11238 0.76932 0.16415 0.0
C265 C 0.38104 0.83538 0.42427 0.0
C266 C 0.38282 0.80864 0.42406 0.0
C267 C 0.39496 0.80171 0.43246 0.0
C268 C 0.39975 0.82449 0.43733 0.0
N269 N 0.39113 0.84554 0.43262 0.0
Co270 Co 0.39397 0.88244 0.43707 0.0
N271 N 0.41525 0.87275 0.44833 0.0
C272 C 0.42289 0.84877 0.45059 0.0
C273 C 0.43797 0.84821 0.45849 0.0
C274 C 0.4402 0.87333 0.46145 0.0
C275 C 0.42615 0.88781 0.4552 0.0
N276 N 0.39624 0.91928 0.44173 0.0
C277 C 0.40837 0.92984 0.44943 0.0
C278 C 0.40448 0.9562 0.4503 0.0
C279 C 0.38942 0.96255 0.44285 0.0
C280 C 0.3849 0.9398 0.43791 0.0
N281 N 0.37349 0.89217 0.4255 0.0
C282 C 0.36598 0.91613 0.42315 0.0
C283 C 0.35366 0.91714 0.41432 0.0
C284 C 0.35364 0.89243 0.41069 0.0
C285 C 0.36588 0.8777 0.41759 0.0
N286 N 0.36774 0.87771 0.44636 0.0
C287 C 0.33268 0.87446 0.46086 0.0
C288 C 0.3319 0.89253 0.45297 0.0
C289 C 0.34939 0.89377 0.44587 0.0
C290 C 0.35082 0.85727 0.4611 0.0
C291 C 0.3679 0.85912 0.45381 0.0
N292 N 0.42005 0.88729 0.42789 0.0
C293 C 0.44058 0.91343 0.41579 0.0
C294 C 0.45622 0.89366 0.41428 0.0
C295 C 0.45369 0.8708 0.41982 0.0
C296 C 0.43567 0.86808 0.42658 0.0
C297 C 0.42273 0.90984 0.42256 0.0
H298 H 0.43457 0.85021 0.43061 0.0
H299 H 0.41112 0.92546 0.42326 0.0
H300 H 0.34772 0.90817 0.44015 0.0
H301 H 0.38123 0.84555 0.45453 0.0
C302 C 0.4148 0.82706 0.44544 0.0
C303 C 0.37071 0.85031 0.4161 0.0
C304 C 0.42362 0.91573 0.45614 0.0
C305 C 0.37143 0.9374 0.42923 0.0
H306 H 0.3766 0.79559 0.41826 0.0
H307 H 0.40055 0.78248 0.4345 0.0
H308 H 0.44623 0.8315 0.46176 0.0
H309 H 0.45088 0.8802 0.46757 0.0
H310 H 0.41185 0.96948 0.45573 0.0
H311 H 0.38281 0.98156 0.44114 0.0
H312 H 0.3461 0.93396 0.4108 0.0
H313 H 0.34591 0.88611 0.40365 0.0
H314 H 0.31791 0.90585 0.45228 0.0
H315 H 0.35228 0.8429 0.46706 0.0
H316 H 0.44172 0.93138 0.41157 0.0
H317 H 0.46557 0.85505 0.41897 0.0
C318 C 0.39607 0.13471 0.67307 0.0
C319 C 0.41938 0.1353 0.67378 0.0
C320 C 0.42445 0.15089 0.68185 0.0
C321 C 0.40401 0.15882 0.68559 0.0
N322 N 0.38618 0.14877 0.68053 0.0
Co323 Co 0.35344 0.15601 0.68296 0.0
N324 N 0.36085 0.18218 0.69374 0.0
C325 C 0.3816 0.18943 0.69694 0.0
C326 C 0.38127 0.20757 0.70454 0.0
C327 C 0.35899 0.21202 0.7064 0.0
C328 C 0.34699 0.1962 0.69979 0.0
N329 N 0.32067 0.16319 0.6854 0.0
C330 C 0.31068 0.17896 0.69229 0.0
C331 C 0.28735 0.17779 0.69166 0.0
C332 C 0.2824 0.16045 0.68416 0.0
C333 C 0.30289 0.15206 0.68066 0.0
N334 N 0.34612 0.13 0.6721 0.0
C335 C 0.32543 0.12223 0.66904 0.0
C336 C 0.32583 0.10532 0.661 0.0
C337 C 0.34809 0.10253 0.65863 0.0
C338 C 0.35997 0.11792 0.66542 0.0
N339 N 0.3525 0.12842 0.69356 0.0
C340 C 0.35045 0.09063 0.70912 0.0
C341 C 0.33431 0.09144 0.70136 0.0
C342 C 0.33563 0.11031 0.69374 0.0
C343 C 0.36771 0.10897 0.70887 0.0
C344 C 0.36846 0.12737 0.7011 0.0
N345 N 0.35442 0.18349 0.67239 0.0
C346 C 0.33941 0.20329 0.65711 0.0
C347 C 0.35767 0.22033 0.65658 0.0
C348 C 0.37392 0.219 0.66428 0.0
C349 C 0.37198 0.20064 0.67202 0.0
C350 C 0.3381 0.18522 0.66503 0.0
H351 H 0.38507 0.20049 0.67757 0.0
H352 H 0.32394 0.17256 0.66494 0.0
H353 H 0.32272 0.10989 0.68813 0.0
H354 H 0.38202 0.1407 0.70146 0.0
C355 C 0.40105 0.17786 0.69302 0.0
C356 C 0.38415 0.12218 0.66474 0.0
C357 C 0.32252 0.19443 0.69986 0.0
C358 C 0.30596 0.13316 0.67318 0.0
H359 H 0.43144 0.12617 0.66874 0.0
H360 H 0.44104 0.15675 0.68438 0.0
H361 H 0.39553 0.21612 0.70843 0.0
H362 H 0.3523 0.22507 0.71209 0.0
H363 H 0.27518 0.18806 0.69628 0.0
H364 H 0.26584 0.15433 0.68168 0.0
H365 H 0.3116 0.09697 0.65703 0.0
H366 H 0.35475 0.09121 0.65238 0.0
H367 H 0.32073 0.07747 0.7011 0.0
H368 H 0.38048 0.10954 0.71477 0.0
H369 H 0.32644 0.20339 0.65131 0.0
H370 H 0.38816 0.2321 0.66435 0.0
C371 C 0.11743 0.16823 0.92393 0.0
C372 C 0.11494 0.1949 0.92381 0.0
C373 C 0.10313 0.20128 0.93237 0.0
C374 C 0.09921 0.17827 0.93723 0.0
N375 N 0.10807 0.15759 0.93236 0.0
Co376 Co 0.10633 0.12051 0.93674 0.0
N377 N 0.08553 0.12933 0.94829 0.0
C378 C 0.07786 0.15309 0.95085 0.0
C379 C 0.06348 0.15311 0.95901 0.0
C380 C 0.06166 0.12781 0.9618 0.0
C381 C 0.07508 0.11375 0.95513 0.0
N382 N 0.10508 0.0835 0.94128 0.0
C383 C 0.09329 0.07233 0.94897 0.0
C384 C 0.09737 0.04595 0.94952 0.0
C385 C 0.11234 0.04027 0.94195 0.0
C386 C 0.11651 0.06336 0.93721 0.0
N387 N 0.12639 0.11164 0.9249 0.0
C388 C 0.13432 0.08797 0.92239 0.0
C389 C 0.14627 0.08753 0.91345 0.0
C390 C 0.14561 0.11233 0.90992 0.0
C391 C 0.13336 0.12654 0.91698 0.0
N392 N 0.13302 0.12578 0.94572 0.0
C393 C 0.16897 0.12995 0.95972 0.0
C394 C 0.16935 0.11153 0.95195 0.0
C395 C 0.15144 0.10986 0.94509 0.0
C396 C 0.15075 0.14699 0.96009 0.0
C397 C 0.1332 0.14467 0.95306 0.0
N398 N 0.07984 0.11513 0.92786 0.0
C399 C 0.05942 0.08902 0.91572 0.0
C400 C 0.04319 0.10831 0.91456 0.0
C401 C 0.04532 0.13085 0.92034 0.0
C402 C 0.06359 0.13379 0.92694 0.0
C403 C 0.0775 0.09282 0.92234 0.0
H404 H 0.06438 0.15139 0.93116 0.0
H405 H 0.08956 0.07761 0.92276 0.0
H406 H 0.15285 0.09524 0.93946 0.0
H407 H 0.11984 0.15812 0.95387 0.0
C408 C 0.08498 0.17512 0.94561 0.0
C409 C 0.12791 0.15383 0.91564 0.0
C410 C 0.07761 0.08574 0.95572 0.0
C411 C 0.12951 0.06637 0.9284 0.0
H412 H 0.12055 0.20826 0.91799 0.0
H413 H 0.09726 0.22029 0.93456 0.0
H414 H 0.05538 0.16956 0.96255 0.0
H415 H 0.05168 0.12057 0.96809 0.0
H416 H 0.09001 0.03214 0.95474 0.0
H417 H 0.11894 0.02142 0.93997 0.0
H418 H 0.15402 0.07101 0.9098 0.0
H419 H 0.15291 0.11903 0.90284 0.0
H420 H 0.18338 0.09827 0.95118 0.0
H421 H 0.1496 0.16161 0.96598 0.0
H422 H 0.05858 0.07134 0.91131 0.0
H423 H 0.03296 0.14619 0.91977 0.0
C424 C 0.85257 0.80482 0.68235 0.0
C425 C 0.87 0.78697 0.68276 0.0
C426 C 0.8835 0.79414 0.69069 0.0
C427 C 0.87358 0.81587 0.69463 0.0
N428 N 0.85433 0.8228 0.68983 0.0
Co429 Co 0.83545 0.85422 0.6926 0.0
N430 N 0.85592 0.86548 0.70396 0.0
C431 C 0.87414 0.85265 0.70755 0.0
C432 C 0.88408 0.8642 0.7158 0.0
C433 C 0.87133 0.88558 0.71768 0.0
C434 C 0.85437 0.88596 0.71038 0.0
N435 N 0.81712 0.88619 0.69506 0.0
C436 C 0.81976 0.90528 0.70205 0.0
C437 C 0.8036 0.92446 0.70091 0.0
C438 C 0.79004 0.91703 0.69304 0.0
C439 C 0.79875 0.89395 0.68978 0.0
N440 N 0.81448 0.84238 0.68153 0.0
C441 C 0.79512 0.85394 0.67855 0.0
C442 C 0.78439 0.84146 0.67072 0.0
C443 C 0.79777 0.82079 0.6685 0.0
C444 C 0.81598 0.82188 0.67513 0.0
N445 N 0.81711 0.83491 0.7027 0.0
C446 C 0.79153 0.80909 0.71765 0.0
C447 C 0.78142 0.82663 0.71097 0.0
C448 C 0.7944 0.83916 0.7036 0.0
C449 C 0.81457 0.80438 0.71659 0.0
C450 C 0.8269 0.81734 0.70913 0.0
N451 N 0.85381 0.8734 0.68249 0.0
C452 C 0.85701 0.89512 0.66623 0.0
C453 C 0.88047 0.89487 0.66693 0.0
C454 C 0.89032 0.88494 0.67576 0.0
C455 C 0.8768 0.87434 0.68337 0.0
C456 C 0.84407 0.88467 0.67412 0.0
H457 H 0.88541 0.86634 0.68974 0.0
H458 H 0.82626 0.88539 0.67314 0.0
H459 H 0.78569 0.85232 0.69876 0.0
H460 H 0.84439 0.81299 0.70882 0.0
C461 C 0.88185 0.83011 0.70285 0.0
C462 C 0.835 0.8041 0.67459 0.0
C463 C 0.83689 0.9058 0.71002 0.0
C464 C 0.78896 0.87807 0.68241 0.0
H465 H 0.87276 0.77059 0.67779 0.0
H466 H 0.89883 0.78479 0.69321 0.0
H467 H 0.89877 0.85777 0.71998 0.0
H468 H 0.87412 0.8992 0.72381 0.0
H469 H 0.80161 0.94185 0.7054 0.0
H470 H 0.77527 0.92697 0.6902 0.0
H471 H 0.76917 0.84731 0.66681 0.0
H472 H 0.79482 0.80697 0.66245 0.0
H473 H 0.76352 0.83063 0.71139 0.0
H474 H 0.82323 0.79116 0.72166 0.0
H475 H 0.8487 0.90301 0.65957 0.0
H476 H 0.90847 0.88425 0.6766 0.0
C477 C 0.89133 0.0792 0.42984 0.0
C478 C 0.88169 0.06433 0.42219 0.0
C479 C 0.88439 0.03913 0.42497 0.0
C480 C 0.89563 0.03997 0.43408 0.0
N481 N 0.89998 0.06423 0.43739 0.0
Co482 Co 0.91789 0.0743 0.44978 0.0
N483 N 0.92481 0.03722 0.45303 0.0
C484 C 0.91753 0.01609 0.44792 0.0
C485 C 0.92507 0.99323 0.45193 0.0
C486 C 0.93794 1.00011 0.46011 0.0
C487 C 0.93745 0.0269 0.46062 0.0
N488 N 0.93604 0.08449 0.46205 0.0
C489 C 0.94785 0.06971 0.46871 0.0
C490 C 0.95816 0.0846 0.47618 0.0
C491 C 0.9528 0.10969 0.47415 0.0
C492 C 0.93955 0.10872 0.46561 0.0
N493 N 0.91094 0.11133 0.44655 0.0
C494 C 0.91662 0.13238 0.4521 0.0
C495 C 0.9096 0.15525 0.4479 0.0
C496 C 0.89918 0.14848 0.43903 0.0
C497 C 0.90062 0.12176 0.4383 0.0
N498 N 0.89022 0.07221 0.45834 0.0
C499 C 0.85057 0.06961 0.4702 0.0
C500 C 0.86568 0.0901 0.47129 0.0
C501 C 0.88521 0.09097 0.46536 0.0
C502 C 0.85575 0.05033 0.46314 0.0
C503 C 0.87544 0.052 0.45736 0.0
N504 N 0.94527 0.07644 0.44121 0.0
C505 C 0.97684 0.10095 0.43476 0.0
C506 C 0.98091 0.08234 0.42725 0.0
C507 C 0.96755 0.0601 0.42723 0.0
C508 C 0.95008 0.0575 0.43426 0.0
C509 C 0.95909 0.09762 0.44162 0.0
H510 H 0.94027 0.04032 0.43373 0.0
H511 H 0.9565 0.11267 0.44704 0.0
H512 H 0.89587 0.1071 0.46661 0.0
H513 H 0.87825 0.03662 0.45216 0.0
C514 C 0.90415 0.0184 0.4392 0.0
C515 C 0.89303 0.10735 0.42938 0.0
C516 C 0.9495 0.0416 0.46838 0.0
C517 C 0.93013 0.13019 0.46077 0.0
H518 H 0.87412 0.07085 0.41515 0.0
H519 H 0.8796 0.02218 0.42064 0.0
H520 H 0.92178 0.97387 0.44918 0.0
H521 H 0.94679 0.9869 0.4651 0.0
H522 H 0.96843 0.078 0.48248 0.0
H523 H 0.95792 0.12663 0.4784 0.0
H524 H 0.91241 0.17459 0.45078 0.0
H525 H 0.89189 0.16175 0.43358 0.0
H526 H 0.86234 0.10571 0.47658 0.0
H527 H 0.84478 0.0338 0.46212 0.0
H528 H 0.98707 0.11824 0.43526 0.0
H529 H 0.96988 0.04515 0.42155 0.0
C530 C 0.64735 0.20144 0.18281 0.0
C531 C 0.62937 0.21863 0.1826 0.0
C532 C 0.61205 0.20714 0.18777 0.0
C533 C 0.62038 0.18374 0.1909 0.0
N534 N 0.64205 0.1799 0.1882 0.0
Co535 Co 0.66013 0.14832 0.19108 0.0
N536 N 0.63796 0.13596 0.20136 0.0
C537 C 0.61665 0.14436 0.20248 0.0
C538 C 0.6056 0.13278 0.21045 0.0
C539 C 0.6209 0.11596 0.21459 0.0
C540 C 0.64044 0.11811 0.20883 0.0
N541 N 0.67794 0.11662 0.19392 0.0
C542 C 0.6769 0.10023 0.20195 0.0
C543 C 0.69231 0.08022 0.20088 0.0
C544 C 0.7034 0.08439 0.19186 0.0
C545 C 0.69414 0.10656 0.18793 0.0
N546 N 0.68246 0.16063 0.18082 0.0
C547 C 0.69873 0.14614 0.17649 0.0
C548 C 0.71129 0.15941 0.16945 0.0
C549 C 0.70213 0.18367 0.16917 0.0
C550 C 0.68437 0.18383 0.17606 0.0
N551 N 0.67646 0.16662 0.20178 0.0
C552 C 0.69959 0.19087 0.2177 0.0
C553 C 0.71114 0.17577 0.21055 0.0
C554 C 0.6993 0.16395 0.20263 0.0
C555 C 0.67628 0.1939 0.21663 0.0
C556 C 0.66504 0.18155 0.20865 0.0
N557 N 0.64375 0.12989 0.18038 0.0
C558 C 0.6284 0.12941 0.16345 0.0
C559 C 0.61905 0.105 0.16512 0.0
C560 C 0.62251 0.09304 0.17457 0.0
C561 C 0.63514 0.10572 0.18207 0.0
C562 C 0.64052 0.14149 0.17114 0.0
H563 H 0.6377 0.09609 0.18927 0.0
H564 H 0.64694 0.16044 0.16962 0.0
H565 H 0.70862 0.15243 0.19725 0.0
H566 H 0.64705 0.18381 0.20815 0.0
C567 C 0.60922 0.16624 0.19724 0.0
C568 C 0.66764 0.20474 0.17654 0.0
C569 C 0.66062 0.10215 0.21031 0.0
C570 C 0.70286 0.1209 0.17982 0.0
H571 H 0.62862 0.23715 0.17878 0.0
H572 H 0.59543 0.21502 0.18916 0.0
H573 H 0.58884 0.13698 0.21325 0.0
H574 H 0.61798 0.10372 0.22114 0.0
H575 H 0.69521 0.0643 0.20607 0.0
H576 H 0.71722 0.07321 0.18878 0.0
H577 H 0.72542 0.15232 0.16505 0.0
H578 H 0.70732 0.19915 0.16414 0.0
H579 H 0.72922 0.17319 0.21104 0.0
H580 H 0.66668 0.20523 0.22204 0.0
H581 H 0.62575 0.13959 0.15633 0.0
H582 H 0.61551 0.07412 0.17614 0.0
C583 C 0.61001 0.92323 0.92916 0.0
C584 C 0.62014 0.93834 0.92173 0.0
C585 C 0.61712 0.96346 0.9246 0.0
C586 C 0.60527 0.96225 0.93356 0.0
N587 N 0.60093 0.93785 0.9367 0.0
Co588 Co 0.58215 0.92715 0.94873 0.0
N589 N 0.57531 0.96406 0.95227 0.0
C590 C 0.58342 0.98545 0.9476 0.0
C591 C 0.57606 0.00812 0.95185 0.0
C592 C 0.56252 0.00082 0.95975 0.0
C593 C 0.5624 0.974 0.95985 0.0
N594 N 0.56273 0.9163 0.96049 0.0
C595 C 0.55041 0.93073 0.96707 0.0
C596 C 0.53895 0.9154 0.97404 0.0
C597 C 0.54415 0.89039 0.97178 0.0
C598 C 0.55841 0.89184 0.96359 0.0
N599 N 0.58949 0.89031 0.94537 0.0
C600 C 0.58362 0.86901 0.95072 0.0
C601 C 0.5911 0.84638 0.94648 0.0
C602 C 0.60209 0.85362 0.9378 0.0
C603 C 0.60053 0.88035 0.93724 0.0
N604 N 0.60906 0.92858 0.95778 0.0
C605 C 0.64798 0.92997 0.97017 0.0
C606 C 0.63186 0.91052 0.97134 0.0
C607 C 0.61269 0.91025 0.96515 0.0
C608 C 0.64407 0.94893 0.96281 0.0
C609 C 0.62474 0.94786 0.95677 0.0
N610 N 0.55554 0.92567 0.93963 0.0
C611 C 0.52611 0.90096 0.93143 0.0
C612 C 0.52159 0.92135 0.92473 0.0
C613 C 0.53348 0.94441 0.92605 0.0
C614 C 0.55024 0.94613 0.93346 0.0
C615 C 0.5429 0.9036 0.93883 0.0
H616 H 0.55906 0.96402 0.93389 0.0
H617 H 0.54583 0.88731 0.94364 0.0
H618 H 0.60117 0.89491 0.96647 0.0
H619 H 0.62297 0.96289 0.95133 0.0
C620 C 0.59693 0.98358 0.93889 0.0
C621 C 0.60833 0.89519 0.9285 0.0
C622 C 0.5495 0.95889 0.9672 0.0
C623 C 0.56877 0.87068 0.95894 0.0
H624 H 0.62835 0.93192 0.91481 0.0
H625 H 0.6223 0.98058 0.92048 0.0
H626 H 0.57985 0.02762 0.94941 0.0
H627 H 0.55358 0.01377 0.96481 0.0
H628 H 0.52813 0.92165 0.98021 0.0
H629 H 0.53843 0.87321 0.97571 0.0
H630 H 0.58802 0.82688 0.94912 0.0
H631 H 0.60969 0.84066 0.93231 0.0
H632 H 0.63416 0.89522 0.97688 0.0
H633 H 0.65578 0.96475 0.96173 0.0
H634 H 0.51737 0.88267 0.93076 0.0
H635 H 0.53016 0.96105 0.92127 0.0
C636 C 0.85097 0.19663 0.81819 0.0
C637 C 0.86743 0.21562 0.81766 0.0
C638 C 0.8805 0.20989 0.80941 0.0
C639 C 0.87132 0.18781 0.80541 0.0
N640 N 0.85287 0.17935 0.81047 0.0
Co641 Co 0.83553 0.14671 0.80781 0.0
N642 N 0.85564 0.13732 0.79607 0.0
C643 C 0.87266 0.15171 0.7922 0.0
C644 C 0.88245 0.14122 0.7837 0.0
C645 C 0.87083 0.11894 0.78193 0.0
C646 C 0.85466 0.11699 0.78955 0.0
N647 N 0.81893 0.11345 0.80552 0.0
C648 C 0.82211 0.09476 0.79842 0.0
C649 C 0.80723 0.07433 0.79976 0.0
C650 C 0.79389 0.08056 0.80786 0.0
C651 C 0.80147 0.10422 0.81106 0.0
N652 N 0.8148 0.15671 0.81923 0.0
C653 C 0.7962 0.14386 0.82235 0.0
C654 C 0.78545 0.1553 0.83042 0.0
C655 C 0.79806 0.17661 0.83266 0.0
C656 C 0.81586 0.17689 0.8258 0.0
N657 N 0.81536 0.16485 0.79808 0.0
C658 C 0.78751 0.18925 0.78362 0.0
C659 C 0.77905 0.1698 0.78992 0.0
C660 C 0.79312 0.15809 0.79711 0.0
C661 C 0.80998 0.19655 0.78478 0.0
C662 C 0.82348 0.18418 0.79196 0.0
N663 N 0.8557 0.12882 0.81755 0.0
C664 C 0.86147 0.10859 0.83395 0.0
C665 C 0.88474 0.11201 0.8331 0.0
C666 C 0.89328 0.12195 0.824 0.0
C667 C 0.8786 0.13008 0.81637 0.0
C668 C 0.84733 0.11691 0.82608 0.0
H669 H 0.88619 0.13815 0.80974 0.0
H670 H 0.82968 0.11439 0.82723 0.0
H671 H 0.78562 0.14351 0.80173 0.0
H672 H 0.8405 0.19046 0.7923 0.0
C673 C 0.87952 0.17459 0.79691 0.0
C674 C 0.83424 0.19552 0.8263 0.0
C675 C 0.83837 0.09589 0.79009 0.0
C676 C 0.79118 0.11936 0.81853 0.0
H677 H 0.86988 0.23177 0.82278 0.0
H678 H 0.89514 0.22036 0.80672 0.0
H679 H 0.89631 0.14892 0.77928 0.0
H680 H 0.87382 0.10578 0.77567 0.0
H681 H 0.80587 0.05693 0.79522 0.0
H682 H 0.77992 0.06951 0.81088 0.0
H683 H 0.77085 0.14829 0.83452 0.0
H684 H 0.79496 0.18987 0.83888 0.0
H685 H 0.76163 0.16373 0.78935 0.0
H686 H 0.81734 0.21135 0.77998 0.0
H687 H 0.85409 0.1007 0.84083 0.0
H688 H 0.91126 0.12416 0.82286 0.0
C689 C 0.61324 0.07835 0.57248 0.0
C690 C 0.62403 0.06372 0.57988 0.0
C691 C 0.62134 0.03846 0.57717 0.0
C692 C 0.60901 0.03909 0.56834 0.0
N693 N 0.60401 0.06326 0.56512 0.0
Co694 Co 0.58449 0.07308 0.55322 0.0
N695 N 0.57812 0.03588 0.54996 0.0
C696 C 0.5868 0.01487 0.5547 0.0
C697 C 0.5799 0.99187 0.55058 0.0
C698 C 0.56607 0.99853 0.5427 0.0
C699 C 0.56522 0.02534 0.54251 0.0
N700 N 0.56447 0.08303 0.54154 0.0
C701 C 0.55237 0.06805 0.53507 0.0
C702 C 0.53997 0.08288 0.52824 0.0
C703 C 0.54464 0.10809 0.53039 0.0
C704 C 0.55941 0.10727 0.5384 0.0
N705 N 0.59123 0.11021 0.55634 0.0
C706 C 0.58461 0.13119 0.55097 0.0
C707 C 0.59181 0.15415 0.55502 0.0
C708 C 0.60342 0.14748 0.5636 0.0
C709 C 0.60246 0.12073 0.5643 0.0
N710 N 0.611 0.07197 0.54394 0.0
C711 C 0.64878 0.07048 0.53089 0.0
C712 C 0.63259 0.0899 0.52996 0.0
C713 C 0.61397 0.09021 0.53647 0.0
C714 C 0.64571 0.05177 0.53842 0.0
C715 C 0.62693 0.0529 0.5448 0.0
N716 N 0.55823 0.07422 0.56252 0.0
C717 C 0.52787 0.09803 0.57042 0.0
C718 C 0.52424 0.07805 0.5774 0.0
C719 C 0.53716 0.05562 0.57645 0.0
C720 C 0.55388 0.05411 0.56901 0.0
C721 C 0.54476 0.09569 0.56306 0.0
H722 H 0.5634 0.03668 0.56881 0.0
H723 H 0.54703 0.11173 0.55807 0.0
H724 H 0.60222 0.1054 0.53527 0.0
H725 H 0.62579 0.03812 0.55038 0.0
C726 C 0.60077 0.01738 0.56322 0.0
C727 C 0.61111 0.10639 0.57302 0.0
C728 C 0.55224 0.03986 0.53499 0.0
C729 C 0.56946 0.12886 0.54288 0.0
H730 H 0.63246 0.07053 0.58668 0.0
H731 H 0.62704 0.02161 0.58132 0.0
H732 H 0.58435 0.97256 0.55303 0.0
H733 H 0.55762 0.98514 0.53764 0.0
H734 H 0.52879 0.07618 0.52229 0.0
H735 H 0.53819 0.125 0.52651 0.0
H736 H 0.58819 0.17347 0.55232 0.0
H737 H 0.61105 0.16081 0.56894 0.0
H738 H 0.63409 0.10466 0.52414 0.0
H739 H 0.65795 0.03649 0.53952 0.0
H740 H 0.5183 0.11583 0.57085 0.0
H741 H 0.5346 0.03934 0.58151 0.0
C742 C 0.64673 0.80877 0.31722 0.0
C743 C 0.62958 0.79061 0.31647 0.0
C744 C 0.61721 0.797 0.30808 0.0
C745 C 0.62734 0.8187 0.30424 0.0
N746 N 0.64573 0.82633 0.30954 0.0
Co747 Co 0.66382 0.85866 0.30728 0.0
N748 N 0.64462 0.86907 0.29536 0.0
C749 C 0.62772 0.85514 0.29115 0.0
C750 C 0.61864 0.86618 0.2826 0.0
C751 C 0.63059 0.88839 0.28117 0.0
C752 C 0.64623 0.88976 0.28904 0.0
N753 N 0.6811 0.89165 0.30542 0.0
C754 C 0.67847 0.91094 0.29852 0.0
C755 C 0.69358 0.93097 0.30023 0.0
C756 C 0.7065 0.92385 0.30836 0.0
C757 C 0.69845 0.90012 0.31121 0.0
N758 N 0.68368 0.84764 0.31885 0.0
C759 C 0.70251 0.85968 0.32217 0.0
C760 C 0.71272 0.84749 0.33022 0.0
C761 C 0.69947 0.82656 0.33224 0.0
C762 C 0.68179 0.82733 0.32532 0.0
N763 N 0.68419 0.84043 0.29765 0.0
C764 C 0.71227 0.81594 0.28328 0.0
C765 C 0.72066 0.83533 0.28963 0.0
C766 C 0.70649 0.84709 0.29677 0.0
C767 C 0.68976 0.80873 0.28435 0.0
C768 C 0.67615 0.82114 0.29149 0.0
N769 N 0.64344 0.8766 0.3169 0.0
C770 C 0.63705 0.89559 0.33348 0.0
C771 C 0.61376 0.893 0.33228 0.0
C772 C 0.60562 0.8842 0.32292 0.0
C773 C 0.62061 0.87624 0.31539 0.0
C774 C 0.65151 0.88753 0.3257 0.0
H775 H 0.6133 0.869 0.30855 0.0
H776 H 0.66915 0.88939 0.32711 0.0
H777 H 0.71396 0.86161 0.30142 0.0
H778 H 0.65911 0.8149 0.29174 0.0
C779 C 0.62007 0.83237 0.29568 0.0
C780 C 0.66299 0.8092 0.32557 0.0
C781 C 0.66252 0.91079 0.29004 0.0
C782 C 0.70817 0.88424 0.31861 0.0
H783 H 0.62607 0.77467 0.32156 0.0
H784 H 0.60236 0.78726 0.30522 0.0
H785 H 0.60495 0.85895 0.27795 0.0
H786 H 0.62814 0.90191 0.27498 0.0
H787 H 0.69536 0.9487 0.29593 0.0
H788 H 0.72049 0.93442 0.31163 0.0
H789 H 0.72742 0.85376 0.33443 0.0
H790 H 0.70208 0.81276 0.33833 0.0
H791 H 0.73812 0.84134 0.28912 0.0
H792 H 0.68244 0.79397 0.27952 0.0
H793 H 0.64417 0.90261 0.34057 0.0
H794 H 0.58768 0.88271 0.3215 0.0
C795 C 0.88897 0.92147 0.07203 0.0
C796 C 0.8788 0.93617 0.07959 0.0
C797 C 0.88108 0.9614 0.07676 0.0
C798 C 0.89259 0.9607 0.06771 0.0
N799 N 0.89743 0.93651 0.06447 0.0
Co800 Co 0.91606 0.92666 0.05228 0.0
N801 N 0.92195 0.96384 0.04882 0.0
C802 C 0.91346 0.98486 0.05361 0.0
C803 C 0.92029 0.00785 0.04945 0.0
C804 C 0.93392 0.00116 0.0415 0.0
C805 C 0.9346 0.97435 0.04127 0.0
N806 N 0.93533 0.91668 0.04034 0.0
C807 C 0.94729 0.93163 0.0338 0.0
C808 C 0.95881 0.91681 0.02667 0.0
C809 C 0.95408 0.89161 0.02882 0.0
C810 C 0.94001 0.89244 0.03709 0.0
N811 N 0.90971 0.88954 0.05558 0.0
C812 C 0.91587 0.86855 0.0501 0.0
C813 C 0.90909 0.8456 0.05431 0.0
C814 C 0.89827 0.85229 0.0631 0.0
C815 C 0.89924 0.87904 0.06376 0.0
N816 N 0.88882 0.92747 0.0434 0.0
C817 C 0.84997 0.92846 0.031 0.0
C818 C 0.86626 0.90926 0.0298 0.0
C819 C 0.88541 0.9092 0.03599 0.0
C820 C 0.85348 0.94724 0.03846 0.0
C821 C 0.87279 0.94634 0.04453 0.0
N822 N 0.943 0.92581 0.06117 0.0
C823 C 0.97369 0.90204 0.06881 0.0
C824 C 0.97804 0.92234 0.07557 0.0
C825 C 0.96528 0.94491 0.0746 0.0
C826 C 0.94798 0.94621 0.06742 0.0
C827 C 0.95634 0.90424 0.06167 0.0
H828 H 0.93855 0.96371 0.06722 0.0
H829 H 0.95362 0.88802 0.0568 0.0
H830 H 0.89717 0.89417 0.03458 0.0
H831 H 0.87422 0.96114 0.05009 0.0
C832 C 0.90025 0.98238 0.06238 0.0
C833 C 0.89129 0.89343 0.0726 0.0
C834 C 0.94785 0.95981 0.03386 0.0
C835 C 0.93032 0.87087 0.04175 0.0
H836 H 0.87106 0.92945 0.08657 0.0
H837 H 0.87568 0.97829 0.08097 0.0
H838 H 0.91617 0.02717 0.052 0.0
H839 H 0.94258 0.01452 0.0365 0.0
H840 H 0.9694 0.92352 0.0205 0.0
H841 H 0.96004 0.87469 0.02479 0.0
H842 H 0.9125 0.82626 0.05157 0.0
H843 H 0.89114 0.83896 0.06859 0.0
H844 H 0.86442 0.89447 0.02401 0.0
H845 H 0.84121 0.96239 0.03974 0.0
H846 H 0.98306 0.88411 0.06924 0.0
H847 H 0.96838 0.96147 0.07945 0.0
C848 C 0.60279 0.63244 0.82919 0.0
C849 C 0.57944 0.63281 0.82858 0.0
C850 C 0.57407 0.64832 0.82053 0.0
C851 C 0.59434 0.65653 0.81672 0.0
N852 N 0.61238 0.64679 0.82172 0.0
Co853 Co 0.645 0.65461 0.81914 0.0
N854 N 0.63703 0.68032 0.80828 0.0
C855 C 0.61613 0.6873 0.80519 0.0
C856 C 0.61606 0.70529 0.79753 0.0
C857 C 0.63824 0.70988 0.7955 0.0
C858 C 0.65058 0.69425 0.80205 0.0
N859 N 0.67763 0.66229 0.81653 0.0
C860 C 0.68728 0.67779 0.80944 0.0
C861 C 0.71064 0.67685 0.80993 0.0
C862 C 0.71595 0.66001 0.81756 0.0
C863 C 0.69564 0.6516 0.82125 0.0
N864 N 0.65289 0.62909 0.83009 0.0
C865 C 0.67373 0.62183 0.83313 0.0
C866 C 0.67369 0.60495 0.84118 0.0
C867 C 0.6515 0.60164 0.84358 0.0
C868 C 0.63932 0.61679 0.83682 0.0
N869 N 0.64611 0.62679 0.80867 0.0
C870 C 0.64878 0.58922 0.79307 0.0
C871 C 0.66487 0.59024 0.80085 0.0
C872 C 0.66323 0.609 0.80849 0.0
C873 C 0.63117 0.60711 0.79336 0.0
C874 C 0.63011 0.62541 0.80115 0.0
N875 N 0.64389 0.68239 0.82957 0.0
C876 C 0.65944 0.70355 0.84444 0.0
C877 C 0.6411 0.72048 0.84491 0.0
C878 C 0.62443 0.71825 0.83744 0.0
C879 C 0.62612 0.69927 0.82993 0.0
C880 C 0.6605 0.68483 0.83677 0.0
H881 H 0.61274 0.6985 0.82455 0.0
H882 H 0.67476 0.67234 0.83688 0.0
H883 H 0.67612 0.60879 0.81412 0.0
H884 H 0.61632 0.63843 0.80083 0.0
C885 C 0.59691 0.67551 0.80923 0.0
C886 C 0.61505 0.62011 0.83748 0.0
C887 C 0.67506 0.69255 0.80176 0.0
C888 C 0.69297 0.63292 0.82884 0.0
H889 H 0.56751 0.62363 0.83366 0.0
H890 H 0.55736 0.65395 0.81807 0.0
H891 H 0.60161 0.71361 0.79371 0.0
H892 H 0.64464 0.72288 0.78972 0.0
H893 H 0.72263 0.68684 0.80513 0.0
H894 H 0.73263 0.65413 0.81996 0.0
H895 H 0.68809 0.59684 0.8451 0.0
H896 H 0.64499 0.59006 0.84979 0.0
H897 H 0.67868 0.57656 0.80109 0.0
H898 H 0.6184 0.60746 0.78746 0.0
H899 H 0.67271 0.70429 0.8501 0.0
H900 H 0.61007 0.73118 0.83735 0.0
C901 C 0.62369 0.34212 0.07875 0.0
C902 C 0.62455 0.31532 0.0789 0.0
C903 C 0.61725 0.30709 0.06951 0.0
C904 C 0.61243 0.32926 0.06417 0.0
N905 N 0.61622 0.3508 0.06964 0.0
Co906 Co 0.61167 0.38677 0.06494 0.0
N907 N 0.59111 0.3754 0.05391 0.0
C908 C 0.58959 0.35127 0.05013 0.0
C909 C 0.57403 0.34922 0.04243 0.0
C910 C 0.56544 0.37364 0.04123 0.0
C911 C 0.57636 0.38931 0.04827 0.0
N912 N 0.60726 0.4228 0.06023 0.0
C913 C 0.5912 0.4328 0.05405 0.0
C914 C 0.59472 0.45905 0.05252 0.0
C915 C 0.61377 0.46551 0.05787 0.0
C916 C 0.62084 0.44295 0.06235 0.0
N917 N 0.63234 0.39793 0.07596 0.0
C918 C 0.64335 0.42061 0.07645 0.0
C919 C 0.65607 0.42297 0.08515 0.0
C920 C 0.65288 0.4003 0.09041 0.0
C921 C 0.63843 0.38529 0.08456 0.0
N922 N 0.63724 0.38328 0.05566 0.0
C923 C 0.67374 0.37904 0.04226 0.0
C924 C 0.67518 0.36935 0.05222 0.0
C925 C 0.65677 0.37174 0.05881 0.0
C926 C 0.6536 0.39069 0.03915 0.0
C927 C 0.63562 0.39257 0.04593 0.0
N928 N 0.58613 0.39036 0.07415 0.0
C929 C 0.56597 0.41498 0.08672 0.0
C930 C 0.54981 0.39538 0.08756 0.0
C931 C 0.55213 0.37329 0.08147 0.0
C932 C 0.57035 0.37121 0.0748 0.0
C933 C 0.584 0.41206 0.08001 0.0
H934 H 0.57174 0.35404 0.0702 0.0
H935 H 0.59634 0.4273 0.07962 0.0
H936 H 0.65836 0.36433 0.06646 0.0
H937 H 0.62039 0.40158 0.04325 0.0
C938 C 0.60048 0.33059 0.05497 0.0
C939 C 0.6315 0.3588 0.08706 0.0
C940 C 0.57399 0.41756 0.04869 0.0
C941 C 0.63783 0.44069 0.06973 0.0
H942 H 0.62991 0.30304 0.08512 0.0
H943 H 0.61482 0.28732 0.06705 0.0
H944 H 0.56904 0.33194 0.03837 0.0
H945 H 0.55285 0.37932 0.0357 0.0
H946 H 0.58477 0.47208 0.04789 0.0
H947 H 0.62119 0.48452 0.05861 0.0
H948 H 0.6656 0.43964 0.08764 0.0
H949 H 0.66023 0.39553 0.09771 0.0
H950 H 0.6905 0.36033 0.05495 0.0
H951 H 0.6516 0.39804 0.03147 0.0
H952 H 0.56499 0.43221 0.09139 0.0
H953 H 0.5399 0.35778 0.08182 0.0
C954 C 0.89583 0.36015 0.32814 0.0
C955 C 0.91901 0.35676 0.3276 0.0
C956 C 0.92294 0.34052 0.31961 0.0
C957 C 0.90205 0.3348 0.3158 0.0
N958 N 0.88498 0.34686 0.32071 0.0
Co959 Co 0.85183 0.34202 0.31835 0.0
N960 N 0.85751 0.31596 0.3073 0.0
C961 C 0.87779 0.30827 0.30367 0.0
C962 C 0.87643 0.29137 0.29567 0.0
C963 C 0.85394 0.28825 0.29398 0.0
C964 C 0.84281 0.30336 0.30115 0.0
N965 N 0.8187 0.33662 0.31625 0.0
C966 C 0.80767 0.32136 0.3095 0.0
C967 C 0.78447 0.3229 0.31074 0.0
C968 C 0.78069 0.34013 0.31841 0.0
C969 C 0.80169 0.34796 0.32146 0.0
N970 N 0.84616 0.36861 0.32918 0.0
C971 C 0.82601 0.37815 0.33218 0.0
C972 C 0.82752 0.39587 0.33992 0.0
C973 C 0.84996 0.39743 0.34211 0.0
C974 C 0.8608 0.38039 0.33558 0.0
N975 N 0.85182 0.36978 0.30783 0.0
C976 C 0.85067 0.40727 0.29216 0.0
C977 C 0.83344 0.4057 0.2994 0.0
C978 C 0.83434 0.387 0.30709 0.0
C979 C 0.86868 0.39001 0.29305 0.0
C980 C 0.86897 0.37173 0.30088 0.0
N981 N 0.85186 0.31432 0.32884 0.0
C982 C 0.83879 0.29735 0.34498 0.0
C983 C 0.85403 0.27686 0.3444 0.0
C984 C 0.86779 0.27506 0.33581 0.0
C985 C 0.86656 0.29394 0.32821 0.0
C986 C 0.83779 0.31554 0.33712 0.0
H987 H 0.87794 0.29184 0.32199 0.0
H988 H 0.82567 0.33058 0.33796 0.0
H989 H 0.82057 0.38676 0.31228 0.0
H990 H 0.88315 0.3592 0.30104 0.0
C991 C 0.89784 0.31728 0.30795 0.0
C992 C 0.88477 0.37472 0.33623 0.0
C993 C 0.81832 0.30585 0.30157 0.0
C994 C 0.80592 0.36745 0.32858 0.0
H995 H 0.93177 0.36457 0.33262 0.0
H996 H 0.93906 0.33306 0.3171 0.0
H997 H 0.89016 0.28264 0.29147 0.0
H998 H 0.84664 0.27649 0.28802 0.0
H999 H 0.7716 0.31295 0.3064 0.0
H1000 H 0.76455 0.34669 0.32125 0.0
H1001 H 0.81386 0.4055 0.34385 0.0
H1002 H 0.85745 0.40903 0.34808 0.0
H1003 H 0.81929 0.4189 0.2992 0.0
H1004 H 0.88237 0.39013 0.28759 0.0
H1005 H 0.82761 0.29928 0.35146 0.0
H1006 H 0.87994 0.25954 0.33507 0.0
C1007 C 0.87986 0.65934 0.57847 0.0
C1008 C 0.88323 0.68586 0.57893 0.0
C1009 C 0.89668 0.69215 0.57088 0.0
C1010 C 0.90063 0.66924 0.56595 0.0
N1011 N 0.89023 0.64873 0.57028 0.0
Co1012 Co 0.89152 0.61181 0.56568 0.0
N1013 N 0.91424 0.62036 0.55486 0.0
C1014 C 0.92324 0.64384 0.55284 0.0
C1015 C 0.93886 0.64363 0.54515 0.0
C1016 C 0.93997 0.6185 0.54207 0.0
C1017 C 0.92478 0.60481 0.54806 0.0
N1018 N 0.89244 0.57494 0.56093 0.0
C1019 C 0.90467 0.56381 0.55338 0.0
C1020 C 0.8998 0.53769 0.55242 0.0
C1021 C 0.88395 0.53209 0.55962 0.0
C1022 C 0.88 0.55501 0.56454 0.0
N1023 N 0.86933 0.60322 0.57674 0.0
C1024 C 0.86026 0.5798 0.57879 0.0
C1025 C 0.84684 0.57952 0.58729 0.0
C1026 C 0.84768 0.60412 0.59102 0.0
C1027 C 0.86155 0.61806 0.58451 0.0
N1028 N 0.86654 0.61854 0.55589 0.0
C1029 C 0.83311 0.62487 0.5408 0.0
C1030 C 0.8313 0.60552 0.54816 0.0
C1031 C 0.84796 0.60281 0.55558 0.0
C1032 C 0.85147 0.64167 0.54136 0.0
C1033 C 0.86781 0.63822 0.54891 0.0
N1034 N 0.91637 0.60494 0.57537 0.0
C1035 C 0.93395 0.57741 0.58794 0.0
C1036 C 0.95079 0.59572 0.58966 0.0
C1037 C 0.95032 0.61857 0.58398 0.0
C1038 C 0.93313 0.62271 0.5769 0.0
C1039 C 0.91701 0.5824 0.58084 0.0
H1040 H 0.93363 0.64049 0.57279 0.0
H1041 H 0.90446 0.56786 0.58 0.0
H1042 H 0.84548 0.58761 0.56089 0.0
H1043 H 0.88146 0.65149 0.5488 0.0
C1044 C 0.91611 0.66589 0.55805 0.0
C1045 C 0.86776 0.64495 0.58628 0.0
C1046 C 0.92086 0.57716 0.5469 0.0
C1047 C 0.86558 0.55818 0.57287 0.0
H1048 H 0.87715 0.69914 0.58468 0.0
H1049 H 0.90357 0.71098 0.56909 0.0
H1050 H 0.94821 0.65984 0.5421 0.0
H1051 H 0.95067 0.61111 0.53606 0.0
H1052 H 0.907 0.52409 0.54706 0.0
H1053 H 0.87637 0.51347 0.56116 0.0
H1054 H 0.83803 0.56318 0.59056 0.0
H1055 H 0.83946 0.61086 0.59789 0.0
H1056 H 0.81707 0.59241 0.5482 0.0
H1057 H 0.85363 0.657 0.53582 0.0
H1058 H 0.93348 0.55955 0.59224 0.0
H1059 H 0.9632 0.63319 0.58497 0.0
C1060 C 0.60453 0.36979 0.67095 0.0
C1061 C 0.58116 0.36981 0.67112 0.0
C1062 C 0.57491 0.35507 0.67928 0.0
C1063 C 0.59476 0.34698 0.68357 0.0
N1064 N 0.61332 0.35618 0.67881 0.0
Co1065 Co 0.6456 0.34805 0.68195 0.0
N1066 N 0.63652 0.32284 0.69283 0.0
C1067 C 0.6153 0.31696 0.69584 0.0
C1068 C 0.6144 0.29958 0.7037 0.0
C1069 C 0.63633 0.29416 0.70592 0.0
C1070 C 0.64942 0.30853 0.69922 0.0
N1071 N 0.6779 0.33981 0.68501 0.0
C1072 C 0.68684 0.32374 0.69209 0.0
C1073 C 0.71023 0.32356 0.69168 0.0
C1074 C 0.71629 0.34048 0.6842 0.0
C1075 C 0.69637 0.34988 0.68044 0.0
N1076 N 0.65458 0.37325 0.67105 0.0
C1077 C 0.6757 0.38042 0.6684 0.0
C1078 C 0.67643 0.39694 0.66023 0.0
C1079 C 0.65449 0.40005 0.65735 0.0
C1080 C 0.64167 0.38521 0.66397 0.0
N1081 N 0.64638 0.37616 0.69233 0.0
C1082 C 0.64879 0.41365 0.70798 0.0
C1083 C 0.66578 0.41158 0.70065 0.0
C1084 C 0.66424 0.3929 0.69297 0.0
C1085 C 0.63036 0.39697 0.70719 0.0
C1086 C 0.62946 0.37871 0.69937 0.0
N1087 N 0.64484 0.32002 0.67164 0.0
C1088 C 0.66065 0.29878 0.65685 0.0
C1089 C 0.64259 0.28144 0.65648 0.0
C1090 C 0.62589 0.28357 0.66395 0.0
C1091 C 0.62731 0.30283 0.67136 0.0
C1092 C 0.66146 0.31771 0.66444 0.0
H1093 H 0.61392 0.30355 0.67676 0.0
H1094 H 0.67555 0.33048 0.66427 0.0
H1095 H 0.67785 0.39229 0.68771 0.0
H1096 H 0.61501 0.36666 0.69932 0.0
C1097 C 0.59654 0.32868 0.69135 0.0
C1098 C 0.6176 0.38117 0.66273 0.0
C1099 C 0.67399 0.30889 0.69954 0.0
C1100 C 0.69449 0.36878 0.67288 0.0
H1101 H 0.56988 0.37874 0.66568 0.0
H1102 H 0.55795 0.34984 0.6815 0.0
H1103 H 0.59956 0.29213 0.7075 0.0
H1104 H 0.64198 0.28143 0.71194 0.0
H1105 H 0.72172 0.31258 0.69641 0.0
H1106 H 0.73321 0.34559 0.68187 0.0
H1107 H 0.69121 0.40466 0.65648 0.0
H1108 H 0.64866 0.4111 0.65086 0.0
H1109 H 0.68024 0.42433 0.70079 0.0
H1110 H 0.61683 0.39749 0.71272 0.0
H1111 H 0.67391 0.29815 0.65119 0.0
H1112 H 0.61175 0.27034 0.66413 0.0
C1113 C 0.88392 0.33197 0.92426 0.0
C1114 C 0.88753 0.3055 0.9237 0.0
C1115 C 0.90103 0.29918 0.93173 0.0
C1116 C 0.90479 0.32202 0.93674 0.0
N1117 N 0.8942 0.34253 0.93249 0.0
Co1118 Co 0.89562 0.3795 0.93705 0.0
N1119 N 0.91795 0.37079 0.94802 0.0
C1120 C 0.92627 0.34714 0.95032 0.0
C1121 C 0.94136 0.34722 0.95822 0.0
C1122 C 0.94281 0.37243 0.96117 0.0
C1123 C 0.92842 0.38631 0.95486 0.0
N1124 N 0.89707 0.4165 0.9416 0.0
C1125 C 0.90948 0.42765 0.94908 0.0
C1126 C 0.90543 0.45401 0.94975 0.0
C1127 C 0.88987 0.45975 0.94244 0.0
C1128 C 0.88533 0.43668 0.93774 0.0
N1129 N 0.87342 0.38814 0.926 0.0
C1130 C 0.86427 0.41155 0.92399 0.0
C1131 C 0.85046 0.41172 0.91561 0.0
C1132 C 0.85107 0.38705 0.91195 0.0
C1133 C 0.86523 0.37319 0.91836 0.0
N1134 N 0.8705 0.37332 0.94681 0.0
C1135 C 0.83752 0.36769 0.96214 0.0
C1136 C 0.8365 0.38807 0.95519 0.0
C1137 C 0.85296 0.39043 0.94764 0.0
C1138 C 0.85472 0.34953 0.96101 0.0
C1139 C 0.87079 0.3526 0.95333 0.0
N1140 N 0.92069 0.38579 0.92741 0.0
C1141 C 0.93825 0.41198 0.9144 0.0
C1142 C 0.95617 0.39459 0.91359 0.0
C1143 C 0.95606 0.37278 0.91988 0.0
C1144 C 0.93829 0.36877 0.92667 0.0
C1145 C 0.92086 0.40725 0.92131 0.0
H1146 H 0.93911 0.35176 0.93122 0.0
H1147 H 0.90762 0.42115 0.92152 0.0
H1148 H 0.8513 0.40659 0.94271 0.0
H1149 H 0.88343 0.33814 0.95295 0.0
C1150 C 0.91961 0.32519 0.94491 0.0
C1151 C 0.87143 0.34632 0.91656 0.0
C1152 C 0.92519 0.41413 0.95574 0.0
C1153 C 0.8704 0.4334 0.9296 0.0
H1154 H 0.88148 0.29227 0.91792 0.0
H1155 H 0.9079 0.28034 0.93352 0.0
H1156 H 0.95026 0.3309 0.96145 0.0
H1157 H 0.95324 0.37978 0.96728 0.0
H1158 H 0.91295 0.46766 0.955 0.0
H1159 H 0.88276 0.47852 0.94073 0.0
H1160 H 0.84165 0.42805 0.91234 0.0
H1161 H 0.84256 0.38022 0.90517 0.0
H1162 H 0.8235 0.40269 0.95574 0.0
H1163 H 0.8559 0.33303 0.96606 0.0
H1164 H 0.93737 0.42896 0.90959 0.0
H1165 H 0.9697 0.35888 0.91963 0.0
C1166 C 0.89759 0.63093 0.17213 0.0
C1167 C 0.92094 0.62976 0.17251 0.0
C1168 C 0.92744 0.64472 0.18055 0.0
C1169 C 0.90776 0.65401 0.18462 0.0
N1170 N 0.88905 0.64545 0.17979 0.0
Co1171 Co 0.85697 0.65463 0.18288 0.0
N1172 N 0.86658 0.67987 0.19366 0.0
C1173 C 0.88794 0.68551 0.19654 0.0
C1174 C 0.88924 0.70315 0.2043 0.0
C1175 C 0.86743 0.70905 0.20658 0.0
C1176 C 0.854 0.69466 0.20002 0.0
N1177 N 0.82485 0.66368 0.186 0.0
C1178 C 0.81626 0.67992 0.19311 0.0
C1179 C 0.79288 0.68051 0.1928 0.0
C1180 C 0.78644 0.66367 0.18535 0.0
C1181 C 0.80616 0.6539 0.18153 0.0
N1182 N 0.84746 0.62962 0.17198 0.0
C1183 C 0.82616 0.62339 0.16925 0.0
C1184 C 0.82497 0.607 0.16107 0.0
C1185 C 0.84681 0.60291 0.15825 0.0
C1186 C 0.86009 0.61702 0.16495 0.0
N1187 N 0.85566 0.62664 0.19331 0.0
C1188 C 0.85296 0.58847 0.2087 0.0
C1189 C 0.83641 0.59043 0.20116 0.0
C1190 C 0.83806 0.60948 0.19362 0.0
C1191 C 0.87099 0.60579 0.20831 0.0
C1192 C 0.87205 0.62439 0.20062 0.0
N1193 N 0.85827 0.68253 0.1725 0.0
C1194 C 0.84241 0.70455 0.1579 0.0
C1195 C 0.86117 0.72083 0.15723 0.0
C1196 C 0.87827 0.71778 0.16446 0.0
C1197 C 0.87652 0.69868 0.17194 0.0
C1198 C 0.84129 0.68576 0.16554 0.0
H1199 H 0.89022 0.69722 0.17714 0.0
H1200 H 0.82665 0.67384 0.16559 0.0
H1201 H 0.82479 0.60998 0.18818 0.0
H1202 H 0.88621 0.63688 0.20085 0.0
C1203 C 0.9064 0.67285 0.19221 0.0
C1204 C 0.88442 0.61955 0.16391 0.0
C1205 C 0.82945 0.69467 0.20047 0.0
C1206 C 0.80765 0.63526 0.17386 0.0
H1207 H 0.93209 0.61987 0.16727 0.0
H1208 H 0.9445 0.64923 0.18287 0.0
H1209 H 0.90424 0.71037 0.20803 0.0
H1210 H 0.86207 0.72205 0.21256 0.0
H1211 H 0.78162 0.69175 0.19754 0.0
H1212 H 0.76941 0.65891 0.18307 0.0
H1213 H 0.80999 0.59985 0.1573 0.0
H1214 H 0.85222 0.59158 0.15178 0.0
H1215 H 0.82224 0.57726 0.201 0.0
H1216 H 0.88414 0.60544 0.21404 0.0
H1217 H 0.8288 0.70588 0.15242 0.0
H1218 H 0.89299 0.73015 0.16441 0.0
C1219 C 0.61668 0.67128 0.42413 0.0
C1220 C 0.61221 0.6976 0.42368 0.0
C1221 C 0.60009 0.70356 0.43219 0.0
C1222 C 0.59771 0.68064 0.43729 0.0
N1223 N 0.60791 0.66041 0.43266 0.0
Co1224 Co 0.6069 0.6232 0.43701 0.0
N1225 N 0.58694 0.63157 0.4489 0.0
C1226 C 0.58041 0.65535 0.45201 0.0
C1227 C 0.56726 0.65514 0.46059 0.0
C1228 C 0.56519 0.6297 0.46312 0.0
C1229 C 0.57713 0.61578 0.45585 0.0
N1230 N 0.6052 0.58586 0.44112 0.0
C1231 C 0.59304 0.57427 0.4486 0.0
C1232 C 0.59586 0.54764 0.4485 0.0
C1233 C 0.6104 0.5422 0.44074 0.0
C1234 C 0.61549 0.56568 0.4365 0.0
N1235 N 0.62729 0.61498 0.42525 0.0
C1236 C 0.63642 0.59174 0.42296 0.0
C1237 C 0.6495 0.59202 0.41434 0.0
C1238 C 0.64848 0.61685 0.41086 0.0
C1239 C 0.63469 0.63028 0.41755 0.0
N1240 N 0.63373 0.62824 0.44593 0.0
C1241 C 0.66936 0.63328 0.46007 0.0
C1242 C 0.66723 0.61117 0.45405 0.0
C1243 C 0.64956 0.60915 0.44707 0.0
C1244 C 0.65392 0.65329 0.45857 0.0
C1245 C 0.63647 0.65042 0.45152 0.0
N1246 N 0.58021 0.6181 0.42821 0.0
C1247 C 0.56124 0.5949 0.41475 0.0
C1248 C 0.54271 0.61149 0.41535 0.0
C1249 C 0.54318 0.63124 0.42262 0.0
C1250 C 0.56196 0.6342 0.42891 0.0
C1251 C 0.57962 0.59848 0.42122 0.0
H1252 H 0.56143 0.64971 0.43426 0.0
H1253 H 0.59329 0.58529 0.42035 0.0
H1254 H 0.64892 0.59169 0.44283 0.0
H1255 H 0.62532 0.66636 0.45085 0.0
C1256 C 0.58549 0.67733 0.44629 0.0
C1257 C 0.62848 0.65729 0.41608 0.0
C1258 C 0.57848 0.58762 0.45586 0.0
C1259 C 0.63006 0.56948 0.42826 0.0
H1260 H 0.6168 0.71106 0.41772 0.0
H1261 H 0.59334 0.72226 0.43428 0.0
H1262 H 0.55972 0.67151 0.46444 0.0
H1263 H 0.55578 0.62224 0.46955 0.0
H1264 H 0.58815 0.53355 0.4535 0.0
H1265 H 0.61646 0.52336 0.43843 0.0
H1266 H 0.65798 0.57586 0.41078 0.0
H1267 H 0.65649 0.62412 0.40402 0.0
H1268 H 0.6787 0.59505 0.45492 0.0
H1269 H 0.65518 0.67112 0.46286 0.0
H1270 H 0.56186 0.57954 0.40915 0.0
H1271 H 0.5291 0.64438 0.42348 0.0
C1272 C 0.3552 0.30225 0.18387 0.0
C1273 C 0.37176 0.28338 0.18455 0.0
C1274 C 0.38509 0.28991 0.19262 0.0
C1275 C 0.37595 0.31229 0.19638 0.0
N1276 N 0.3573 0.32021 0.19134 0.0
Co1277 Co 0.33989 0.35294 0.1937 0.0
N1278 N 0.36014 0.36323 0.20529 0.0
C1279 C 0.37743 0.34932 0.20919 0.0
C1280 C 0.3872 0.36032 0.21759 0.0
C1281 C 0.37527 0.38242 0.21927 0.0
C1282 C 0.35894 0.38376 0.2117 0.0
N1283 N 0.32315 0.3862 0.19573 0.0
C1284 C 0.32611 0.40516 0.20273 0.0
C1285 C 0.31111 0.42541 0.20125 0.0
C1286 C 0.2979 0.41877 0.19316 0.0
C1287 C 0.30566 0.39506 0.19011 0.0
N1288 N 0.31901 0.34206 0.18245 0.0
C1289 C 0.30043 0.35474 0.1792 0.0
C1290 C 0.28955 0.34269 0.1713 0.0
C1291 C 0.30204 0.32114 0.16932 0.0
C1292 C 0.31991 0.32132 0.17615 0.0
N1293 N 0.32 0.33538 0.20369 0.0
C1294 C 0.29277 0.31262 0.21881 0.0
C1295 C 0.28381 0.33061 0.21198 0.0
C1296 C 0.29761 0.34163 0.20451 0.0
C1297 C 0.31536 0.30566 0.21773 0.0
C1298 C 0.32851 0.31713 0.2102 0.0
N1299 N 0.35985 0.3703 0.1837 0.0
C1300 C 0.36546 0.38945 0.16707 0.0
C1301 C 0.38878 0.38663 0.168 0.0
C1302 C 0.39737 0.37747 0.17722 0.0
C1303 C 0.38276 0.36954 0.1849 0.0
C1304 C 0.35138 0.38139 0.17502 0.0
H1305 H 0.39047 0.36212 0.19161 0.0
H1306 H 0.3337 0.38354 0.17381 0.0
H1307 H 0.28987 0.35539 0.19959 0.0
H1308 H 0.34558 0.31103 0.20988 0.0
C1309 C 0.38434 0.3262 0.20467 0.0
C1310 C 0.33821 0.30254 0.17585 0.0
C1311 C 0.34223 0.40442 0.21113 0.0
C1312 C 0.29542 0.37948 0.18277 0.0
H1313 H 0.37409 0.26679 0.17964 0.0
H1314 H 0.39983 0.27973 0.19535 0.0
H1315 H 0.4012 0.353 0.22202 0.0
H1316 H 0.37812 0.39582 0.22546 0.0
H1317 H 0.30956 0.44292 0.20571 0.0
H1318 H 0.28384 0.42955 0.19008 0.0
H1319 H 0.2749 0.34941 0.16716 0.0
H1320 H 0.29881 0.30737 0.16329 0.0
H1321 H 0.26638 0.33664 0.21252 0.0
H1322 H 0.32295 0.29132 0.22267 0.0
H1323 H 0.35801 0.39675 0.16011 0.0
H1324 H 0.41537 0.37579 0.17843 0.0
C1325 C 0.39251 0.57914 0.92946 0.0
C1326 C 0.38377 0.56423 0.92159 0.0
C1327 C 0.3867 0.53903 0.92433 0.0
C1328 C 0.39721 0.53992 0.93361 0.0
N1329 N 0.40082 0.56418 0.93709 0.0
Co1330 Co 0.41816 0.57429 0.94964 0.0
N1331 N 0.42484 0.53725 0.95303 0.0
C1332 C 0.41719 0.51611 0.94805 0.0
C1333 C 0.42375 0.49322 0.95238 0.0
C1334 C 0.43623 0.50011 0.96068 0.0
C1335 C 0.43665 0.52693 0.9609 0.0
N1336 N 0.43629 0.58457 0.96191 0.0
C1337 C 0.44771 0.56984 0.96871 0.0
C1338 C 0.45884 0.5849 0.97589 0.0
C1339 C 0.45403 0.61001 0.97362 0.0
C1340 C 0.44046 0.6089 0.96519 0.0
N1341 N 0.41086 0.61123 0.94646 0.0
C1342 C 0.41587 0.63219 0.95218 0.0
C1343 C 0.40833 0.65498 0.9481 0.0
C1344 C 0.3982 0.64823 0.93916 0.0
C1345 C 0.40036 0.62162 0.93825 0.0
N1346 N 0.39037 0.57213 0.95809 0.0
C1347 C 0.35074 0.56943 0.96995 0.0
C1348 C 0.36716 0.58813 0.97188 0.0
C1349 C 0.38662 0.58913 0.96593 0.0
C1350 C 0.35459 0.55197 0.96202 0.0
C1351 C 0.37433 0.55363 0.95626 0.0
N1352 N 0.44568 0.57651 0.94116 0.0
C1353 C 0.4757 0.60202 0.93387 0.0
C1354 C 0.48101 0.58219 0.92705 0.0
C1355 C 0.46917 0.55894 0.92782 0.0
C1356 C 0.45176 0.5565 0.9349 0.0
C1357 C 0.4582 0.59874 0.94086 0.0
H1358 H 0.443 0.53853 0.93495 0.0
H1359 H 0.45468 0.61467 0.94576 0.0
H1360 H 0.39834 0.60385 0.96785 0.0
H1361 H 0.37611 0.53972 0.95036 0.0
C1362 C 0.40481 0.5184 0.93904 0.0
C1363 C 0.39351 0.60735 0.92918 0.0
C1364 C 0.44819 0.54165 0.96882 0.0
C1365 C 0.43015 0.63019 0.9606 0.0
H1366 H 0.37653 0.57076 0.91448 0.0
H1367 H 0.38233 0.52207 0.91992 0.0
H1368 H 0.42002 0.47384 0.94978 0.0
H1369 H 0.44407 0.48687 0.96599 0.0
H1370 H 0.46916 0.5784 0.98219 0.0
H1371 H 0.45947 0.62704 0.97774 0.0
H1372 H 0.41081 0.67431 0.95105 0.0
H1373 H 0.39074 0.66149 0.93374 0.0
H1374 H 0.36516 0.60185 0.97805 0.0
H1375 H 0.34229 0.53728 0.96013 0.0
H1376 H 0.48477 0.62018 0.93371 0.0
H1377 H 0.47262 0.54301 0.9227 0.0
C1378 C 0.15438 0.69855 0.68255 0.0
C1379 C 0.13637 0.71571 0.68212 0.0
C1380 C 0.11871 0.70418 0.68703 0.0
C1381 C 0.12679 0.68071 0.6902 0.0
N1382 N 0.14863 0.67689 0.68778 0.0
Co1383 Co 0.1661 0.64475 0.69051 0.0
N1384 N 0.1434 0.63238 0.70051 0.0
C1385 C 0.12201 0.6407 0.70136 0.0
C1386 C 0.11028 0.62841 0.70897 0.0
C1387 C 0.12523 0.61124 0.71315 0.0
C1388 C 0.14533 0.61413 0.70785 0.0
N1389 N 0.18326 0.61247 0.69321 0.0
C1390 C 0.18184 0.59591 0.70119 0.0
C1391 C 0.19767 0.57628 0.70032 0.0
C1392 C 0.20912 0.58057 0.69141 0.0
C1393 C 0.19982 0.6026 0.68739 0.0
N1394 N 0.18899 0.65711 0.68055 0.0
C1395 C 0.20548 0.6427 0.67635 0.0
C1396 C 0.21889 0.65633 0.66975 0.0
C1397 C 0.21007 0.68075 0.66962 0.0
C1398 C 0.19158 0.6806 0.67611 0.0
N1399 N 0.18227 0.66214 0.7015 0.0
C1400 C 0.20491 0.686 0.71765 0.0
C1401 C 0.21664 0.67076 0.71061 0.0
C1402 C 0.20504 0.65913 0.70256 0.0
C1403 C 0.18166 0.68918 0.7164 0.0
C1404 C 0.17068 0.67703 0.70832 0.0
N1405 N 0.14967 0.62739 0.67955 0.0
C1406 C 0.13166 0.63026 0.66321 0.0
C1407 C 0.12029 0.60704 0.66498 0.0
C1408 C 0.12524 0.59312 0.67386 0.0
C1409 C 0.14008 0.60364 0.68105 0.0
C1410 C 0.1462 0.64003 0.67055 0.0
H1411 H 0.14302 0.59307 0.68802 0.0
H1412 H 0.15382 0.65842 0.66907 0.0
H1413 H 0.21448 0.64758 0.69724 0.0
H1414 H 0.15273 0.67949 0.70767 0.0
C1415 C 0.11504 0.66291 0.6962 0.0
C1416 C 0.17504 0.70173 0.67649 0.0
C1417 C 0.16529 0.59798 0.70946 0.0
C1418 C 0.20919 0.61729 0.67953 0.0
H1419 H 0.13571 0.73423 0.67831 0.0
H1420 H 0.10198 0.712 0.68816 0.0
H1421 H 0.0932 0.63219 0.71145 0.0
H1422 H 0.12174 0.59804 0.71935 0.0
H1423 H 0.20092 0.5607 0.70562 0.0
H1424 H 0.2234 0.56978 0.68854 0.0
H1425 H 0.23343 0.64941 0.66559 0.0
H1426 H 0.21601 0.69662 0.66496 0.0
H1427 H 0.23468 0.66802 0.71125 0.0
H1428 H 0.17191 0.70057 0.72175 0.0
H1429 H 0.12875 0.64132 0.65631 0.0
H1430 H 0.11689 0.57497 0.67548 0.0
C1431 C 0.1102 0.42434 0.42869 0.0
C1432 C 0.11953 0.43992 0.42118 0.0
C1433 C 0.11637 0.46487 0.42422 0.0
C1434 C 0.10514 0.46315 0.43332 0.0
N1435 N 0.10135 0.43858 0.4364 0.0
Co1436 Co 0.08279 0.42725 0.44841 0.0
N1437 N 0.07539 0.4639 0.4521 0.0
C1438 C 0.08356 0.48552 0.44764 0.0
C1439 C 0.07626 0.50795 0.45209 0.0
C1440 C 0.06271 0.50023 0.45992 0.0
C1441 C 0.0624 0.4734 0.45974 0.0
N1442 N 0.06336 0.41571 0.46006 0.0
C1443 C 0.05068 0.4297 0.46665 0.0
C1444 C 0.03871 0.41388 0.47327 0.0
C1445 C 0.04426 0.38905 0.47089 0.0
C1446 C 0.05907 0.39106 0.46292 0.0
N1447 N 0.09089 0.39071 0.44497 0.0
C1448 C 0.08567 0.36924 0.45035 0.0
C1449 C 0.09403 0.34693 0.44618 0.0
C1450 C 0.1049 0.35458 0.43753 0.0
C1451 C 0.1023 0.38119 0.43688 0.0
N1452 N 0.10958 0.42903 0.45752 0.0
C1453 C 0.14809 0.43082 0.47012 0.0
C1454 C 0.1317 0.4118 0.47146 0.0
C1455 C 0.11271 0.41134 0.46518 0.0
C1456 C 0.14478 0.44912 0.46245 0.0
C1457 C 0.12562 0.44786 0.4563 0.0
N1458 N 0.05629 0.42541 0.43927 0.0
C1459 C 0.02769 0.40021 0.43072 0.0
C1460 C 0.02245 0.42099 0.42432 0.0
C1461 C 0.03361 0.44441 0.42595 0.0
C1462 C 0.05033 0.44618 0.43339 0.0
C1463 C 0.04442 0.40288 0.43814 0.0
H1464 H 0.05858 0.46439 0.43407 0.0
H1465 H 0.04794 0.38626 0.44269 0.0
H1466 H 0.10087 0.39644 0.4667 0.0
H1467 H 0.12431 0.46229 0.45058 0.0
C1468 C 0.09686 0.48413 0.43887 0.0
C1469 C 0.10909 0.39621 0.428 0.0
C1470 C 0.04972 0.45786 0.46704 0.0
C1471 C 0.07027 0.3703 0.45838 0.0
H1472 H 0.12728 0.43403 0.41409 0.0
H1473 H 0.12099 0.48222 0.42011 0.0
H1474 H 0.08015 0.52759 0.44985 0.0
H1475 H 0.05403 0.51294 0.46517 0.0
H1476 H 0.02728 0.41968 0.47928 0.0
H1477 H 0.03843 0.37161 0.4746 0.0
H1478 H 0.09152 0.32733 0.44883 0.0
H1479 H 0.11297 0.34191 0.43207 0.0
H1480 H 0.13335 0.39742 0.47742 0.0
H1481 H 0.15712 0.46414 0.46106 0.0
H1482 H 0.01956 0.38162 0.42978 0.0
H1483 H 0.02974 0.4613 0.4214 0.0
C1484 C 0.35338 0.69568 0.31868 0.0
C1485 C 0.3708 0.71353 0.31829 0.0
C1486 C 0.38442 0.70626 0.31042 0.0
C1487 C 0.37458 0.68446 0.30649 0.0
N1488 N 0.35524 0.67762 0.31124 0.0
Co1489 Co 0.3365 0.64602 0.30856 0.0
N1490 N 0.35741 0.63425 0.29745 0.0
C1491 C 0.3758 0.6469 0.29393 0.0
C1492 C 0.38604 0.63498 0.28584 0.0
C1493 C 0.37331 0.61356 0.28399 0.0
C1494 C 0.35606 0.61353 0.29115 0.0
N1495 N 0.31824 0.61396 0.30618 0.0
C1496 C 0.32106 0.59465 0.29931 0.0
C1497 C 0.30479 0.57558 0.30042 0.0
C1498 C 0.29096 0.58333 0.30814 0.0
C1499 C 0.29961 0.60649 0.31134 0.0
N1500 N 0.31516 0.65829 0.31941 0.0
C1501 C 0.29567 0.64693 0.32232 0.0
C1502 C 0.2848 0.65965 0.33005 0.0
C1503 C 0.29828 0.68023 0.33231 0.0
C1504 C 0.31668 0.6788 0.3258 0.0
N1505 N 0.31851 0.66485 0.29819 0.0
C1506 C 0.29344 0.68994 0.28286 0.0
C1507 C 0.28306 0.67291 0.28965 0.0
C1508 C 0.29579 0.66074 0.29721 0.0
C1509 C 0.31649 0.69452 0.28398 0.0
C1510 C 0.32856 0.68193 0.29163 0.0
N1511 N 0.35448 0.62738 0.31896 0.0
C1512 C 0.35698 0.60689 0.33548 0.0
C1513 C 0.38047 0.60811 0.33518 0.0
C1514 C 0.39073 0.6176 0.32637 0.0
C1515 C 0.37753 0.62704 0.31841 0.0
C1516 C 0.34439 0.61625 0.32727 0.0
H1517 H 0.3864 0.6348 0.31207 0.0
H1518 H 0.32654 0.61499 0.32796 0.0
H1519 H 0.28687 0.64796 0.30212 0.0
H1520 H 0.34606 0.68616 0.29198 0.0
C1521 C 0.38322 0.66978 0.29847 0.0
C1522 C 0.33588 0.69625 0.32646 0.0
C1523 C 0.33843 0.59385 0.29143 0.0
C1524 C 0.28957 0.62268 0.31855 0.0
H1525 H 0.37354 0.72988 0.32328 0.0
H1526 H 0.39987 0.71547 0.30797 0.0
H1527 H 0.40087 0.64125 0.28172 0.0
H1528 H 0.3763 0.59973 0.27795 0.0
H1529 H 0.3029 0.55807 0.29599 0.0
H1530 H 0.27603 0.57357 0.3109 0.0
H1531 H 0.26946 0.65398 0.33391 0.0
H1532 H 0.29531 0.69419 0.3383 0.0
H1533 H 0.26516 0.66904 0.28919 0.0
H1534 H 0.32536 0.70734 0.27883 0.0
H1535 H 0.34834 0.59921 0.34209 0.0
H1536 H 0.4089 0.61898 0.3258 0.0
C1537 C 0.11246 0.57981 0.07212 0.0
C1538 C 0.12332 0.5659 0.07971 0.0
C1539 C 0.12094 0.5404 0.07729 0.0
C1540 C 0.10872 0.54019 0.06843 0.0
N1541 N 0.10348 0.56405 0.06492 0.0
Co1542 Co 0.08427 0.57272 0.05278 0.0
N1543 N 0.07823 0.53522 0.04998 0.0
C1544 C 0.08671 0.51469 0.05509 0.0
C1545 C 0.07984 0.49131 0.0513 0.0
C1546 C 0.06622 0.49721 0.04325 0.0
C1547 C 0.0655 0.52398 0.04262 0.0
N1548 N 0.06471 0.58152 0.04078 0.0
C1549 C 0.05301 0.5659 0.03441 0.0
C1550 C 0.04107 0.57999 0.02719 0.0
C1551 C 0.04554 0.60541 0.02901 0.0
C1552 C 0.05979 0.60542 0.03722 0.0
N1553 N 0.09051 0.61016 0.0555 0.0
C1554 C 0.08381 0.63064 0.04986 0.0
C1555 C 0.09054 0.654 0.05373 0.0
C1556 C 0.1019 0.64813 0.06246 0.0
C1557 C 0.1013 0.62142 0.06343 0.0
N1558 N 0.11116 0.57113 0.04372 0.0
C1559 C 0.14945 0.56906 0.03097 0.0
C1560 C 0.13316 0.58827 0.02973 0.0
C1561 C 0.11436 0.58895 0.03612 0.0
C1562 C 0.14617 0.55081 0.03866 0.0
C1563 C 0.1271 0.55217 0.04487 0.0
N1564 N 0.0576 0.57433 0.06182 0.0
C1565 C 0.02546 0.59756 0.06846 0.0
C1566 C 0.02191 0.57859 0.07588 0.0
C1567 C 0.0361 0.55704 0.07589 0.0
C1568 C 0.05359 0.55525 0.06882 0.0
C1569 C 0.04326 0.59507 0.06156 0.0
H1570 H 0.06396 0.53851 0.06931 0.0
H1571 H 0.04532 0.61033 0.05619 0.0
H1572 H 0.10269 0.60406 0.03471 0.0
H1573 H 0.12574 0.53764 0.05054 0.0
C1574 C 0.1006 0.518 0.0636 0.0
C1575 C 0.10999 0.60783 0.07232 0.0
C1576 C 0.05281 0.53775 0.03481 0.0
C1577 C 0.06927 0.6275 0.04158 0.0
H1578 H 0.13158 0.57334 0.08645 0.0
H1579 H 0.12673 0.52396 0.08167 0.0
H1580 H 0.08418 0.47225 0.05407 0.0
H1581 H 0.0578 0.48338 0.03837 0.0
H1582 H 0.03029 0.57264 0.0212 0.0
H1583 H 0.03926 0.62191 0.0248 0.0
H1584 H 0.08684 0.67306 0.05077 0.0
H1585 H 0.10919 0.66195 0.0677 0.0
H1586 H 0.13472 0.60266 0.02377 0.0
H1587 H 0.15843 0.5357 0.04002 0.0
H1588 H 0.01467 0.6144 0.06799 0.0
H1589 H 0.03424 0.5419 0.08153 0.0
C1590 C 0.14459 0.31175 0.81876 0.0
C1591 C 0.12657 0.29467 0.81845 0.0
C1592 C 0.11306 0.30247 0.81062 0.0
C1593 C 0.12355 0.32378 0.80662 0.0
N1594 N 0.1432 0.32981 0.81129 0.0
Co1595 Co 0.16289 0.36056 0.80848 0.0
N1596 N 0.14233 0.37294 0.79734 0.0
C1597 C 0.12346 0.36107 0.79392 0.0
C1598 C 0.11317 0.37368 0.786 0.0
C1599 C 0.12642 0.39467 0.78414 0.0
C1600 C 0.14416 0.39361 0.79103 0.0
N1601 N 0.18202 0.39193 0.806 0.0
C1602 C 0.17977 0.41125 0.79908 0.0
C1603 C 0.19701 0.42926 0.79995 0.0
C1604 C 0.21059 0.42109 0.80769 0.0
C1605 C 0.20098 0.39862 0.81109 0.0
N1606 N 0.18394 0.34755 0.81931 0.0
C1607 C 0.20382 0.35814 0.82212 0.0
C1608 C 0.21444 0.34506 0.82983 0.0
C1609 C 0.20039 0.32506 0.83217 0.0
C1610 C 0.18193 0.32713 0.82572 0.0
N1611 N 0.18019 0.34088 0.79811 0.0
C1612 C 0.2041 0.31521 0.78255 0.0
C1613 C 0.21509 0.33197 0.78925 0.0
C1614 C 0.20293 0.34443 0.79693 0.0
C1615 C 0.18107 0.311 0.78395 0.0
C1616 C 0.16957 0.32388 0.7917 0.0
N1617 N 0.14556 0.38011 0.81885 0.0
C1618 C 0.14366 0.40091 0.83533 0.0
C1619 C 0.12017 0.40141 0.83487 0.0
C1620 C 0.10968 0.39245 0.82603 0.0
C1621 C 0.12258 0.38193 0.81819 0.0
C1622 C 0.15598 0.39059 0.82721 0.0
H1623 H 0.11346 0.37465 0.81183 0.0
H1624 H 0.17386 0.39068 0.828 0.0
H1625 H 0.21228 0.3571 0.80172 0.0
H1626 H 0.15205 0.31991 0.79227 0.0
C1627 C 0.11533 0.33866 0.79857 0.0
C1628 C 0.16225 0.31039 0.82646 0.0
C1629 C 0.16234 0.41262 0.79123 0.0
C1630 C 0.21059 0.38207 0.81828 0.0
H1631 H 0.12339 0.27848 0.82347 0.0
H1632 H 0.09729 0.29389 0.80823 0.0
H1633 H 0.09782 0.3683 0.78209 0.0
H1634 H 0.12336 0.40913 0.77834 0.0
H1635 H 0.19987 0.44622 0.7953 0.0
H1636 H 0.22607 0.42998 0.81029 0.0
H1637 H 0.23002 0.35016 0.83362 0.0
H1638 H 0.20306 0.31105 0.83818 0.0
H1639 H 0.23291 0.33599 0.78845 0.0
H1640 H 0.17187 0.29777 0.77909 0.0
H1641 H 0.15247 0.40806 0.84199 0.0
H1642 H 0.09149 0.39236 0.82536 0.0
C1643 C 0.38931 0.42054 0.5715 0.0
C1644 C 0.3789 0.43485 0.5791 0.0
C1645 C 0.3813 0.46023 0.57649 0.0
C1646 C 0.3931 0.45998 0.5675 0.0
N1647 N 0.39803 0.43595 0.56411 0.0
Co1648 Co 0.41665 0.42665 0.55185 0.0
N1649 N 0.42303 0.46398 0.54882 0.0
C1650 C 0.41509 0.48479 0.55394 0.0
C1651 C 0.42241 0.50794 0.5501 0.0
C1652 C 0.43582 0.50159 0.54203 0.0
C1653 C 0.43586 0.47481 0.54139 0.0
N1654 N 0.43557 0.41723 0.53973 0.0
C1655 C 0.44746 0.43245 0.53326 0.0
C1656 C 0.45839 0.41799 0.52584 0.0
C1657 C 0.45337 0.39273 0.52771 0.0
C1658 C 0.43969 0.39318 0.53612 0.0
N1659 N 0.41015 0.38938 0.55484 0.0
C1660 C 0.41639 0.36862 0.54924 0.0
C1661 C 0.40977 0.34547 0.55334 0.0
C1662 C 0.39901 0.35176 0.56218 0.0
C1663 C 0.39982 0.37849 0.56298 0.0
N1664 N 0.38934 0.42838 0.54303 0.0
C1665 C 0.35012 0.43053 0.53084 0.0
C1666 C 0.36564 0.41042 0.52977 0.0
C1667 C 0.38496 0.40978 0.53585 0.0
C1668 C 0.35473 0.44968 0.53804 0.0
C1669 C 0.37418 0.44822 0.54399 0.0
N1670 N 0.44363 0.42488 0.56068 0.0
C1671 C 0.47483 0.40062 0.56765 0.0
C1672 C 0.47845 0.41955 0.57507 0.0
C1673 C 0.46519 0.44182 0.57478 0.0
C1674 C 0.44807 0.4441 0.56757 0.0
C1675 C 0.4575 0.40371 0.56054 0.0
H1676 H 0.43827 0.46132 0.56787 0.0
H1677 H 0.45519 0.38844 0.55518 0.0
H1678 H 0.39599 0.39396 0.5346 0.0
H1679 H 0.37648 0.46345 0.54929 0.0
C1680 C 0.40141 0.48192 0.56255 0.0
C1681 C 0.39171 0.3925 0.5719 0.0
C1682 C 0.4486 0.4606 0.53371 0.0
C1683 C 0.43032 0.37137 0.54074 0.0
H1684 H 0.37096 0.42777 0.58598 0.0
H1685 H 0.3759 0.4769 0.58083 0.0
H1686 H 0.41865 0.52713 0.5529 0.0
H1687 H 0.4447 0.51515 0.5372 0.0
H1688 H 0.46882 0.42497 0.51965 0.0
H1689 H 0.45896 0.37602 0.52344 0.0
H1690 H 0.41315 0.32626 0.55044 0.0
H1691 H 0.39196 0.33819 0.56759 0.0
H1692 H 0.36278 0.39492 0.52437 0.0
H1693 H 0.34349 0.46597 0.53905 0.0
H1694 H 0.48472 0.38302 0.56755 0.0
H1695 H 0.46775 0.45732 0.58021 0.0
H1696 H 0.07885 0.36838 0.41715 0.0
H1697 H 0.08596 0.34109 0.40225 0.0
H1698 H 0.1552 0.36665 0.40176 0.0
H1699 H 0.14839 0.39256 0.41712 0.0
H1700 H 0.09813 0.34918 0.38354 0.0
H1701 H 0.16466 0.29073 0.40218 0.0
H1702 H 0.14784 0.3138 0.4091 0.0
H1703 H 0.17159 0.32441 0.40164 0.0
C1704 C 0.09554 0.36817 0.4138 0.0
C1705 C 0.11307 0.38254 0.4182 0.0
C1706 C 0.09961 0.35265 0.40529 0.0
C1707 C 0.12125 0.35136 0.40098 0.0
C1708 C 0.13854 0.36672 0.40511 0.0
H1709 H 0.13979 0.27433 0.34188 0.0
H1710 H 0.1364 0.30688 0.35537 0.0
C1711 C 0.13458 0.38185 0.41377 0.0
C1712 C 0.12558 0.3335 0.39232 0.0
H1713 H 0.15854 0.28307 0.38461 0.0
C1714 C 0.11134 0.33471 0.38378 0.0
C1715 C 0.14258 0.3143 0.39269 0.0
C1716 C 0.15738 0.3105 0.40193 0.0
C1717 C 0.11342 0.31715 0.37567 0.0
C1718 C 0.13089 0.2985 0.37589 0.0
C1719 C 0.14529 0.29749 0.38438 0.0
C1720 C 0.13393 0.27904 0.36766 0.0
C1721 C 0.09625 0.31818 0.36719 0.0
C1722 C 0.13476 0.2526 0.37009 0.0
C1723 C 0.13737 0.23409 0.36243 0.0
C1724 C 0.1389 0.24167 0.35218 0.0
C1725 C 0.13835 0.26807 0.34974 0.0
C1726 C 0.13623 0.28663 0.35743 0.0
H1727 H 0.08046 0.32784 0.36968 0.0
H1728 H 0.10323 0.32948 0.36073 0.0
H1729 H 0.09197 0.29852 0.36441 0.0
H1730 H 0.13309 0.24623 0.37792 0.0
H1731 H 0.13767 0.21382 0.36448 0.0
H1732 H 0.02488 0.94217 0.59446 0.0
H1733 H 0.99566 0.94717 0.60748 0.0
H1734 H 0.99703 0.86506 0.61306 0.0
H1735 H 0.02689 0.86001 0.60043 0.0
H1736 H 0.95302 0.92609 0.60925 0.0
H1737 H 0.00753 0.89524 0.6413 0.0
H1738 H 0.01863 0.90313 0.62888 0.0
H1739 H 0.00645 0.87184 0.63122 0.0
C1740 C 0.01912 0.9252 0.59853 0.0
C1741 C 0.0284 0.90071 0.59647 0.0
C1742 C 0.0023 0.92808 0.6059 0.0
C1743 C 0.99451 0.90656 0.61135 0.0
C1744 C 0.00316 0.882 0.60908 0.0
H1745 H 0.87599 0.88091 0.64705 0.0
H1746 H 0.90288 0.8882 0.63325 0.0
C1747 C 0.02003 0.8791 0.60176 0.0
C1748 C 0.97751 0.90969 0.6195 0.0
H1749 H 0.96803 0.89694 0.64463 0.0
C1750 C 0.95632 0.91997 0.61702 0.0
C1751 C 0.98204 0.90223 0.62967 0.0
C1752 C 0.00497 0.89275 0.63297 0.0
C1753 C 0.9392 0.92199 0.62437 0.0
C1754 C 0.94332 0.91301 0.63439 0.0
C1755 C 0.9648 0.90367 0.63693 0.0
C1756 C 0.92547 0.91182 0.64227 0.0
C1757 C 0.91694 0.93378 0.62133 0.0
C1758 C 0.92921 0.92262 0.65195 0.0
C1759 C 0.91401 0.91814 0.65988 0.0
C1760 C 0.89477 0.90289 0.65826 0.0
C1761 C 0.89051 0.89309 0.64846 0.0
C1762 C 0.90583 0.89733 0.64055 0.0
H1763 H 0.91897 0.9473 0.61482 0.0
H1764 H 0.90529 0.9182 0.61889 0.0
H1765 H 0.9091 0.94436 0.62778 0.0
H1766 H 0.94429 0.93379 0.65345 0.0
H1767 H 0.91762 0.926 0.66736 0.0
H1768 H 0.35333 0.61139 0.91907 0.0
H1769 H 0.34524 0.63681 0.90369 0.0
H1770 H 0.41421 0.66332 0.90319 0.0
H1771 H 0.42251 0.63672 0.91816 0.0
H1772 H 0.34593 0.68626 0.9008 0.0
H1773 H 0.40753 0.64364 0.87411 0.0
H1774 H 0.40128 0.62916 0.88629 0.0
H1775 H 0.42129 0.65528 0.88536 0.0
C1776 C 0.36681 0.62219 0.91548 0.0
C1777 C 0.38862 0.62177 0.91962 0.0
C1778 C 0.36219 0.63683 0.90676 0.0
C1779 C 0.37923 0.65159 0.90211 0.0
C1780 C 0.40095 0.65145 0.90638 0.0
H1781 H 0.35828 0.78737 0.86478 0.0
H1782 H 0.36318 0.75602 0.87855 0.0
C1783 C 0.40565 0.63647 0.91499 0.0
C1784 C 0.37401 0.66827 0.89317 0.0
H1785 H 0.39259 0.68515 0.86945 0.0
C1786 C 0.35599 0.68578 0.8939 0.0
C1787 C 0.3868 0.66741 0.88406 0.0
C1788 C 0.40513 0.64765 0.88236 0.0
C1789 C 0.35085 0.70293 0.88593 0.0
C1790 C 0.36464 0.70329 0.87712 0.0
C1791 C 0.38221 0.68522 0.87625 0.0
C1792 C 0.36135 0.72238 0.86876 0.0
C1793 C 0.33048 0.72017 0.88702 0.0
C1794 C 0.35952 0.71408 0.85859 0.0
C1795 C 0.35724 0.73203 0.85068 0.0
C1796 C 0.35654 0.75863 0.8528 0.0
C1797 C 0.35836 0.76695 0.86296 0.0
C1798 C 0.36102 0.74902 0.87084 0.0
H1799 H 0.31779 0.71152 0.89223 0.0
H1800 H 0.33574 0.73894 0.89034 0.0
H1801 H 0.32232 0.72384 0.87954 0.0
H1802 H 0.35984 0.69366 0.85676 0.0
H1803 H 0.35583 0.72512 0.84291 0.0
H1804 H 0.44762 0.08231 0.10868 0.0
H1805 H 0.47796 0.07697 0.12115 0.0
H1806 H 0.52693 0.09667 0.09813 0.0
H1807 H 0.49666 0.10227 0.08564 0.0
H1808 H 0.51639 0.04541 0.12163 0.0
H1809 H 0.53871 0.14962 0.12056 0.0
H1810 H 0.51313 0.13719 0.11499 0.0
H1811 H 0.53949 0.13404 0.10834 0.0
C1812 C 0.46488 0.08526 0.10626 0.0
C1813 C 0.46979 0.09295 0.09622 0.0
C1814 C 0.48216 0.08221 0.11339 0.0
C1815 C 0.50461 0.0868 0.11059 0.0
C1816 C 0.50965 0.09357 0.10049 0.0
H1817 H 0.62806 0.10059 0.14485 0.0
H1818 H 0.60103 0.09103 0.13129 0.0
C1819 C 0.49237 0.09679 0.09337 0.0
C1820 C 0.52265 0.08557 0.11836 0.0
H1821 H 0.56238 0.12241 0.13024 0.0
C1822 C 0.52649 0.0622 0.12352 0.0
C1823 C 0.53564 0.10759 0.12085 0.0
C1824 C 0.53145 0.1336 0.11598 0.0
C1825 C 0.54328 0.06021 0.13104 0.0
C1826 C 0.55633 0.0822 0.13345 0.0
C1827 C 0.55248 0.1055 0.12827 0.0
C1828 C 0.5736 0.08214 0.14156 0.0
C1829 C 0.54712 0.03463 0.13626 0.0
C1830 C 0.56728 0.07941 0.15182 0.0
C1831 C 0.58271 0.08487 0.15959 0.0
C1832 C 0.60455 0.09339 0.15717 0.0
C1833 C 0.61125 0.0943 0.1469 0.0
C1834 C 0.59588 0.08878 0.13917 0.0
H1835 H 0.53958 0.01836 0.13192 0.0
H1836 H 0.5654 0.03091 0.13729 0.0
H1837 H 0.53919 0.03511 0.14392 0.0
H1838 H 0.55005 0.07474 0.15382 0.0
H1839 H 0.57707 0.08428 0.16744 0.0
H1840 H 0.17619 0.75348 0.1471 0.0
H1841 H 0.17251 0.72321 0.13283 0.0
H1842 H 0.10072 0.73597 0.13237 0.0
H1843 H 0.1043 0.7669 0.1463 0.0
H1844 H 0.14772 0.67764 0.13136 0.0
H1845 H 0.11852 0.74936 0.10289 0.0
H1846 H 0.13092 0.75866 0.1149 0.0
H1847 H 0.10179 0.74918 0.11428 0.0
C1848 C 0.15966 0.75007 0.14388 0.0
C1849 C 0.14055 0.76271 0.14783 0.0
C1850 C 0.15757 0.73264 0.13578 0.0
C1851 C 0.13639 0.72766 0.13144 0.0
C1852 C 0.11728 0.73989 0.13547 0.0
H1853 H 0.07961 0.63081 0.08474 0.0
H1854 H 0.08717 0.6588 0.09947 0.0
C1855 C 0.11934 0.75734 0.14353 0.0
C1856 C 0.13412 0.7095 0.12277 0.0
H1857 H 0.1144 0.70497 0.09839 0.0
C1858 C 0.14064 0.68363 0.12411 0.0
C1859 C 0.12497 0.71741 0.11331 0.0
C1860 C 0.11885 0.74522 0.1112 0.0
C1861 C 0.1375 0.66526 0.11635 0.0
C1862 C 0.12779 0.67309 0.10701 0.0
C1863 C 0.12168 0.69902 0.1056 0.0
C1864 C 0.12341 0.65467 0.09861 0.0
C1865 C 0.14396 0.63749 0.11827 0.0
C1866 C 0.1413 0.64308 0.0933 0.0
C1867 C 0.13699 0.62719 0.0849 0.0
C1868 C 0.11474 0.62265 0.08175 0.0
C1869 C 0.09687 0.63394 0.08714 0.0
C1870 C 0.10117 0.64989 0.0955 0.0
H1871 H 0.14721 0.63369 0.12648 0.0
H1872 H 0.13047 0.62426 0.11559 0.0
H1873 H 0.15952 0.63291 0.11395 0.0
H1874 H 0.15858 0.64692 0.09548 0.0
H1875 H 0.15097 0.61893 0.08071 0.0
H1876 H 0.46989 0.85834 0.40017 0.0
H1877 H 0.49849 0.86385 0.38691 0.0
H1878 H 0.51198 0.94102 0.39768 0.0
H1879 H 0.48345 0.93561 0.41106 0.0
H1880 H 0.49676 0.91041 0.37195 0.0
H1881 H 0.57533 0.89969 0.3949 0.0
H1882 H 0.5492 0.8847 0.39879 0.0
H1883 H 0.55244 0.91903 0.39976 0.0
C1884 C 0.47919 0.87633 0.39982 0.0
C1885 C 0.47447 0.89654 0.40665 0.0
C1886 C 0.49541 0.87948 0.39223 0.0
C1887 C 0.50731 0.90277 0.39139 0.0
C1888 C 0.50299 0.92286 0.39828 0.0
H1889 H 0.61451 0.93225 0.34645 0.0
H1890 H 0.58864 0.93837 0.36088 0.0
C1891 C 0.48664 0.91979 0.40585 0.0
C1892 C 0.52343 0.90629 0.38295 0.0
H1893 H 0.57942 0.90419 0.37714 0.0
C1894 C 0.51485 0.90932 0.37307 0.0
C1895 C 0.54694 0.90518 0.38451 0.0
C1896 C 0.55672 0.90191 0.39504 0.0
C1897 C 0.52924 0.91051 0.36462 0.0
C1898 C 0.55275 0.90795 0.3661 0.0
C1899 C 0.56138 0.90607 0.37604 0.0
C1900 C 0.56832 0.9048 0.35739 0.0
C1901 C 0.51912 0.91416 0.35416 0.0
C1902 C 0.56564 0.8837 0.35081 0.0
C1903 C 0.58029 0.88014 0.34264 0.0
C1904 C 0.59807 0.89756 0.3409 0.0
C1905 C 0.60097 0.91853 0.3476 0.0
C1906 C 0.58621 0.92209 0.35581 0.0
H1907 H 0.50247 0.9239 0.35459 0.0
H1908 H 0.5304 0.92571 0.34918 0.0
H1909 H 0.51655 0.89497 0.35057 0.0
H1910 H 0.55233 0.86973 0.35207 0.0
H1911 H 0.57796 0.86339 0.3378 0.0
H1912 H 0.32463 0.2489 0.64715 0.0
H1913 H 0.32891 0.27884 0.6328 0.0
H1914 H 0.40049 0.26461 0.63251 0.0
H1915 H 0.3963 0.23398 0.64652 0.0
H1916 H 0.35412 0.32386 0.63127 0.0
H1917 H 0.3832 0.25162 0.603 0.0
H1918 H 0.3706 0.24253 0.61499 0.0
H1919 H 0.3998 0.25177 0.61443 0.0
C1920 C 0.34125 0.25189 0.64394 0.0
C1921 C 0.36011 0.23893 0.64798 0.0
C1922 C 0.34368 0.26916 0.6358 0.0
C1923 C 0.36497 0.27367 0.63148 0.0
C1924 C 0.38384 0.26106 0.63558 0.0
H1925 H 0.42223 0.36923 0.5842 0.0
H1926 H 0.41484 0.34156 0.59904 0.0
C1927 C 0.38143 0.24379 0.64369 0.0
C1928 C 0.3676 0.29177 0.62278 0.0
H1929 H 0.38757 0.2959 0.59842 0.0
C1930 C 0.36125 0.31773 0.62405 0.0
C1931 C 0.37683 0.28371 0.61336 0.0
C1932 C 0.3828 0.25584 0.6113 0.0
C1933 C 0.36456 0.33599 0.61626 0.0
C1934 C 0.37427 0.328 0.60694 0.0
C1935 C 0.38028 0.302 0.60561 0.0
C1936 C 0.37862 0.34628 0.59846 0.0
C1937 C 0.35824 0.36382 0.61814 0.0
C1938 C 0.36071 0.35813 0.59324 0.0
C1939 C 0.36494 0.37387 0.58477 0.0
C1940 C 0.38712 0.378 0.58144 0.0
C1941 C 0.40502 0.36645 0.58674 0.0
C1942 C 0.40081 0.35066 0.59516 0.0
H1943 H 0.35533 0.3678 0.62635 0.0
H1944 H 0.37163 0.37698 0.6153 0.0
H1945 H 0.3425 0.36833 0.61393 0.0
H1946 H 0.34346 0.35461 0.59554 0.0
H1947 H 0.35091 0.38229 0.58067 0.0
H1948 H 0.01685 0.06576 0.91102 0.0
H1949 H 0.98821 0.0604 0.89767 0.0
H1950 H 0.99961 0.13872 0.88774 0.0
H1951 H 0.02829 0.14422 0.90096 0.0
H1952 H 0.94716 0.09796 0.89332 0.0
H1953 H 0.01084 0.08572 0.86258 0.0
H1954 H 0.01679 0.07855 0.8758 0.0
H1955 H 0.01578 0.11147 0.87153 0.0
C1956 C 0.01319 0.08183 0.906 0.0
C1957 C 0.02481 0.1054 0.90701 0.0
C1958 C 0.9968 0.07877 0.89844 0.0
C1959 C 0.99201 0.09913 0.89175 0.0
C1960 C 0.0032 0.12281 0.89286 0.0
H1961 H 0.91915 0.1424 0.83962 0.0
H1962 H 0.94421 0.13533 0.85406 0.0
C1963 C 0.01945 0.12595 0.90044 0.0
C1964 C 0.97583 0.0957 0.88333 0.0
H1965 H 0.97308 0.09299 0.85741 0.0
C1966 C 0.95269 0.09645 0.88547 0.0
C1967 C 0.98329 0.09367 0.87315 0.0
C1968 C 0.00803 0.09211 0.87057 0.0
C1969 C 0.93673 0.09666 0.87756 0.0
C1970 C 0.94426 0.09568 0.86733 0.0
C1971 C 0.9674 0.09375 0.86526 0.0
C1972 C 0.92874 0.0993 0.85864 0.0
C1973 C 0.91208 0.09933 0.88016 0.0
C1974 C 0.91178 0.08126 0.85641 0.0
C1975 C 0.8974 0.08521 0.84809 0.0
C1976 C 0.89996 0.10714 0.84185 0.0
C1977 C 0.91703 0.12506 0.84415 0.0
C1978 C 0.93128 0.12113 0.85243 0.0
H1979 H 0.90942 0.10413 0.88833 0.0
H1980 H 0.90412 0.11458 0.87541 0.0
H1981 H 0.90335 0.08083 0.87853 0.0
H1982 H 0.9098 0.06408 0.86103 0.0
H1983 H 0.88449 0.071 0.84646 0.0
H1984 H 0.89724 0.65734 0.60129 0.0
H1985 H 0.8897 0.68206 0.6169 0.0
H1986 H 0.81935 0.68668 0.60879 0.0
H1987 H 0.82703 0.6622 0.59309 0.0
H1988 H 0.83792 0.73402 0.61402 0.0
H1989 H 0.85826 0.66033 0.6433 0.0
H1990 H 0.8802 0.66491 0.63405 0.0
H1991 H 0.8534 0.65218 0.63009 0.0
C1992 C 0.88014 0.66333 0.60297 0.0
C1993 C 0.86262 0.65773 0.59614 0.0
C1994 C 0.87582 0.67732 0.61187 0.0
C1995 C 0.85389 0.68585 0.61409 0.0
C1996 C 0.83634 0.68008 0.60727 0.0
H1997 H 0.81266 0.75886 0.67128 0.0
H1998 H 0.81624 0.7298 0.65651 0.0
C1999 C 0.84067 0.66606 0.59836 0.0
C2000 C 0.8496 0.70219 0.62318 0.0
H2001 H 0.85473 0.70387 0.64911 0.0
C2002 C 0.84143 0.72736 0.6217 0.0
C2003 C 0.85398 0.69339 0.6332 0.0
C2004 C 0.86174 0.66614 0.6353 0.0
C2005 C 0.83809 0.74423 0.62995 0.0
C2006 C 0.84337 0.7358 0.63993 0.0
C2007 C 0.85093 0.71038 0.64144 0.0
C2008 C 0.84133 0.75318 0.64887 0.0
C2009 C 0.82882 0.77089 0.62792 0.0
C2010 C 0.85449 0.77569 0.64952 0.0
C2011 C 0.85243 0.79218 0.65791 0.0
C2012 C 0.83726 0.78635 0.66577 0.0
C2013 C 0.82436 0.76368 0.66523 0.0
C2014 C 0.82643 0.74715 0.65684 0.0
H2015 H 0.82018 0.77195 0.62042 0.0
H2016 H 0.81676 0.77675 0.63396 0.0
H2017 H 0.8429 0.785 0.62785 0.0
H2018 H 0.8664 0.78044 0.64355 0.0
H2019 H 0.86262 0.80954 0.65826 0.0
H2020 H 0.09986 0.1575 0.35115 0.0
H2021 H 0.0794 0.15016 0.36718 0.0
H2022 H 0.08445 0.0678 0.36264 0.0
H2023 H 0.10465 0.07517 0.3465 0.0
H2024 H 0.03688 0.11722 0.36804 0.0
H2025 H 0.10716 0.08454 0.39307 0.0
H2026 H 0.11183 0.10475 0.38203 0.0
H2027 H 0.10531 0.07119 0.38041 0.0
C2028 C 0.09672 0.13788 0.35366 0.0
C2029 C 0.10389 0.11685 0.34775 0.0
C2030 C 0.08512 0.13371 0.36277 0.0
C2031 C 0.08071 0.10847 0.36609 0.0
C2032 C 0.08803 0.0874 0.36023 0.0
H2033 H 0.00931 0.04685 0.41844 0.0
H2034 H 0.03386 0.0533 0.40368 0.0
C2035 C 0.0995 0.09158 0.35107 0.0
C2036 C 0.06723 0.10427 0.3754 0.0
H2037 H 0.07059 0.0844 0.40015 0.0
C2038 C 0.04419 0.1101 0.37508 0.0
C2039 C 0.07691 0.09475 0.38448 0.0
C2040 C 0.10169 0.08851 0.38512 0.0
C2041 C 0.03042 0.10648 0.38364 0.0
C2042 C 0.04015 0.0975 0.39283 0.0
C2043 C 0.06322 0.09144 0.39311 0.0
C2044 C 0.02654 0.09408 0.4022 0.0
C2045 C 0.00548 0.11172 0.38266 0.0
C2046 C 0.01484 0.11504 0.40643 0.0
C2047 C 0.00054 0.11136 0.41476 0.0
C2048 C 0.99791 0.08669 0.4191 0.0
C2049 C 0.01058 0.06599 0.41515 0.0
C2050 C 0.02476 0.06967 0.40677 0.0
H2051 H 0.99989 0.11122 0.37458 0.0
H2052 H 0.99545 0.09742 0.38705 0.0
H2053 H 0.00174 0.13126 0.38571 0.0
H2054 H 0.01639 0.13417 0.40316 0.0
H2055 H 0.99094 0.12771 0.41753 0.0
H2056 H 0.67314 0.34697 0.09455 0.0
H2057 H 0.68204 0.32395 0.11042 0.0
H2058 H 0.61117 0.31956 0.11754 0.0
H2059 H 0.60233 0.34299 0.10173 0.0
H2060 H 0.63891 0.33261 0.13453 0.0
H2061 H 0.67022 0.24608 0.11381 0.0
H2062 H 0.68364 0.27598 0.11041 0.0
H2063 H 0.65429 0.27129 0.10761 0.0
C2064 C 0.65956 0.34146 0.09962 0.0
C2065 C 0.6371 0.34699 0.09706 0.0
C2066 C 0.66461 0.32815 0.10862 0.0
C2067 C 0.64725 0.31983 0.11512 0.0
C2068 C 0.62482 0.32584 0.11265 0.0
H2069 H 0.64271 0.19862 0.15943 0.0
H2070 H 0.63929 0.22789 0.14488 0.0
C2071 C 0.61978 0.33918 0.10365 0.0
C2072 C 0.65234 0.30401 0.12429 0.0
H2073 H 0.673 0.24537 0.13175 0.0
C2074 C 0.64649 0.31359 0.13395 0.0
C2075 C 0.66201 0.2791 0.12348 0.0
C2076 C 0.66776 0.26732 0.11328 0.0
C2077 C 0.64993 0.29885 0.14282 0.0
C2078 C 0.65971 0.27399 0.14201 0.0
C2079 C 0.66572 0.26453 0.13236 0.0
C2080 C 0.66217 0.25658 0.15095 0.0
C2081 C 0.64237 0.30958 0.15295 0.0
C2082 C 0.67636 0.26286 0.15918 0.0
C2083 C 0.67833 0.24604 0.16753 0.0
C2084 C 0.66617 0.22279 0.16772 0.0
C2085 C 0.65223 0.21647 0.15945 0.0
C2086 C 0.65028 0.23316 0.15114 0.0
H2087 H 0.63126 0.32671 0.15204 0.0
H2088 H 0.63321 0.29465 0.15741 0.0
H2089 H 0.65737 0.31553 0.15743 0.0
H2090 H 0.68598 0.28064 0.15912 0.0
H2091 H 0.68926 0.25116 0.17383 0.0
H2092 H 0.52572 0.94 0.90532 0.0
H2093 H 0.50002 0.93418 0.89103 0.0
H2094 H 0.45608 0.88836 0.90998 0.0
H2095 H 0.48119 0.8952 0.92452 0.0
H2096 H 0.48851 0.88926 0.88201 0.0
H2097 H 0.41177 0.93769 0.89685 0.0
H2098 H 0.43904 0.94137 0.90277 0.0
H2099 H 0.42252 0.91281 0.90505 0.0
C2100 C 0.51033 0.9292 0.90655 0.0
C2101 C 0.50546 0.91827 0.91613 0.0
C2102 C 0.49575 0.9257 0.89833 0.0
C2103 C 0.47597 0.91115 0.89946 0.0
C2104 C 0.471 0.90014 0.90898 0.0
H2105 H 0.37931 0.85361 0.85512 0.0
H2106 H 0.40102 0.86275 0.87068 0.0
C2107 C 0.48554 0.90377 0.91726 0.0
C2108 C 0.4613 0.90646 0.8905 0.0
H2109 H 0.40778 0.91414 0.88137 0.0
C2110 C 0.47089 0.89482 0.88186 0.0
C2111 C 0.43829 0.91369 0.89033 0.0
C2112 C 0.42731 0.9273 0.8992 0.0
C2113 C 0.45808 0.89005 0.87308 0.0
C2114 C 0.43513 0.89725 0.87292 0.0
C2115 C 0.42542 0.90868 0.88156 0.0
C2116 C 0.42105 0.893 0.86379 0.0
C2117 C 0.46907 0.87706 0.86406 0.0
C2118 C 0.42489 0.9074 0.85489 0.0
C2119 C 0.41248 0.90229 0.84606 0.0
C2120 C 0.39623 0.88262 0.84604 0.0
C2121 C 0.39191 0.86876 0.85502 0.0
C2122 C 0.40423 0.87397 0.86386 0.0
H2123 H 0.48567 0.86851 0.86606 0.0
H2124 H 0.45802 0.8616 0.86097 0.0
H2125 H 0.47174 0.89152 0.85793 0.0
H2126 H 0.43767 0.92234 0.85475 0.0
H2127 H 0.41581 0.91334 0.83921 0.0
H2128 H 0.90011 0.33523 0.90109 0.0
H2129 H 0.89184 0.31156 0.8853 0.0
H2130 H 0.82221 0.30469 0.89438 0.0
H2131 H 0.83063 0.32817 0.91024 0.0
H2132 H 0.84142 0.25813 0.88808 0.0
H2133 H 0.85763 0.33572 0.85984 0.0
H2134 H 0.88033 0.33076 0.86868 0.0
H2135 H 0.85356 0.3422 0.87324 0.0
C2136 C 0.88302 0.3289 0.8996 0.0
C2137 C 0.86591 0.33363 0.90673 0.0
C2138 C 0.87828 0.31553 0.8906 0.0
C2139 C 0.85634 0.30673 0.88859 0.0
C2140 C 0.83921 0.31151 0.89575 0.0
H2141 H 0.81112 0.23945 0.83097 0.0
H2142 H 0.81547 0.26672 0.84622 0.0
C2143 C 0.84396 0.32492 0.90475 0.0
C2144 C 0.85158 0.29132 0.87931 0.0
H2145 H 0.85422 0.29287 0.8533 0.0
C2146 C 0.84406 0.26577 0.88047 0.0
C2147 C 0.85481 0.30142 0.86939 0.0
C2148 C 0.86182 0.3291 0.86767 0.0
C2149 C 0.84028 0.24981 0.87199 0.0
C2150 C 0.84441 0.25958 0.86209 0.0
C2151 C 0.8513 0.28535 0.86091 0.0
C2152 C 0.84184 0.24324 0.85288 0.0
C2153 C 0.83177 0.22268 0.87368 0.0
C2154 C 0.85543 0.22129 0.85152 0.0
C2155 C 0.85294 0.20582 0.84286 0.0
C2156 C 0.83687 0.21214 0.83543 0.0
C2157 C 0.8235 0.23426 0.83668 0.0
C2158 C 0.82601 0.24977 0.84534 0.0
H2159 H 0.82395 0.22044 0.88133 0.0
H2160 H 0.81921 0.21722 0.86779 0.0
H2161 H 0.84612 0.20899 0.87318 0.0
H2162 H 0.86804 0.2162 0.85714 0.0
H2163 H 0.8635 0.18889 0.84195 0.0
H2164 H 0.39833 0.07553 0.65756 0.0
H2165 H 0.42059 0.06733 0.64206 0.0
H2166 H 0.41937 0.14879 0.63504 0.0
H2167 H 0.39732 0.15693 0.65056 0.0
H2168 H 0.41131 0.07923 0.62113 0.0
H2169 H 0.48701 0.13015 0.63589 0.0
H2170 H 0.46392 0.12058 0.64401 0.0
H2171 H 0.46151 0.14885 0.63613 0.0
C2172 C 0.40274 0.09152 0.65262 0.0
C2173 C 0.39628 0.11679 0.65513 0.0
C2174 C 0.41537 0.08689 0.64382 0.0
C2175 C 0.4218 0.10751 0.63749 0.0
C2176 C 0.41483 0.1327 0.63991 0.0
H2177 H 0.4821 0.09998 0.57695 0.0
H2178 H 0.45641 0.10664 0.59134 0.0
C2179 C 0.40223 0.13732 0.6487 0.0
C2180 C 0.43633 0.10278 0.62853 0.0
H2181 H 0.48822 0.11633 0.6187 0.0
C2182 C 0.42813 0.0873 0.62057 0.0
C2183 C 0.45834 0.11312 0.62793 0.0
C2184 C 0.46837 0.12892 0.63647 0.0
C2185 C 0.44135 0.0821 0.61193 0.0
C2186 C 0.46317 0.09293 0.61123 0.0
C2187 C 0.4714 0.10822 0.61924 0.0
C2188 C 0.47811 0.08811 0.6024 0.0
C2189 C 0.43206 0.06467 0.60373 0.0
C2190 C 0.49892 0.07587 0.6039 0.0
C2191 C 0.51369 0.0723 0.59575 0.0
C2192 C 0.50797 0.08099 0.58592 0.0
C2193 C 0.48704 0.09318 0.58443 0.0
C2194 C 0.47225 0.09675 0.59262 0.0
H2195 H 0.41744 0.05321 0.60649 0.0
H2196 H 0.42633 0.07664 0.5972 0.0
H2197 H 0.44521 0.05119 0.60091 0.0
H2198 H 0.50383 0.06925 0.61142 0.0
H2199 H 0.52984 0.06328 0.5972 0.0
H2200 H 0.66883 0.75695 0.32676 0.0
H2201 H 0.66316 0.72905 0.34173 0.0
H2202 H 0.64526 0.79587 0.35966 0.0
H2203 H 0.65051 0.82359 0.34465 0.0
H2204 H 0.68408 0.72972 0.36058 0.0
H2205 H 0.59237 0.74723 0.36473 0.0
H2206 H 0.60782 0.7561 0.3534 0.0
H2207 H 0.60882 0.77634 0.36454 0.0
C2208 C 0.66355 0.76551 0.33391 0.0
C2209 C 0.6598 0.79223 0.3346 0.0
C2210 C 0.66038 0.74966 0.34244 0.0
C2211 C 0.6534 0.76031 0.35177 0.0
C2212 C 0.65014 0.78715 0.35249 0.0
H2213 H 0.66055 0.69383 0.4124 0.0
H2214 H 0.6673 0.71746 0.39645 0.0
C2215 C 0.65325 0.80297 0.34396 0.0
C2216 C 0.64983 0.74344 0.3608 0.0
H2217 H 0.61055 0.72568 0.37849 0.0
C2218 C 0.66798 0.72872 0.36447 0.0
C2219 C 0.62872 0.74183 0.36578 0.0
C2220 C 0.60825 0.75601 0.36186 0.0
C2221 C 0.66573 0.71296 0.37314 0.0
C2222 C 0.64488 0.71222 0.37837 0.0
C2223 C 0.62659 0.72643 0.37454 0.0
C2224 C 0.64166 0.69706 0.38789 0.0
C2225 C 0.68564 0.69702 0.37655 0.0
C2226 C 0.62483 0.678 0.38842 0.0
C2227 C 0.6209 0.6647 0.39754 0.0
C2228 C 0.63361 0.6704 0.40627 0.0
C2229 C 0.65063 0.68916 0.40572 0.0
C2230 C 0.65455 0.7025 0.39661 0.0
H2231 H 0.69787 0.69399 0.37025 0.0
H2232 H 0.69451 0.70731 0.3828 0.0
H2233 H 0.68017 0.67787 0.37947 0.0
H2234 H 0.61463 0.67356 0.3818 0.0
H2235 H 0.60768 0.65028 0.39784 0.0
H2236 H 0.12073 0.85615 0.14555 0.0
H2237 H 0.10114 0.86502 0.12944 0.0
H2238 H 0.06465 0.92718 0.14391 0.0
H2239 H 0.08485 0.91881 0.1599 0.0
H2240 H 0.05671 0.86182 0.12582 0.0
H2241 H 0.08533 0.96171 0.11804 0.0
H2242 H 0.09866 0.94138 0.12745 0.0
H2243 H 0.07309 0.95847 0.13047 0.0
C2244 C 0.1087 0.87188 0.14519 0.0
C2245 C 0.10407 0.88677 0.15388 0.0
C2246 C 0.09754 0.87692 0.13604 0.0
C2247 C 0.08166 0.89699 0.13543 0.0
C2248 C 0.07721 0.91201 0.14413 0.0
H2249 H 0.97497 0.94004 0.09517 0.0
H2250 H 0.00196 0.93422 0.10902 0.0
C2251 C 0.08852 0.90709 0.15326 0.0
C2252 C 0.06871 0.90112 0.12591 0.0
H2253 H 0.05306 0.94711 0.10862 0.0
C2254 C 0.05617 0.88037 0.12198 0.0
C2255 C 0.06806 0.92533 0.12089 0.0
C2256 C 0.0822 0.94791 0.12437 0.0
C2257 C 0.04238 0.88343 0.11338 0.0
C2258 C 0.04119 0.90783 0.1086 0.0
C2259 C 0.05403 0.92845 0.11237 0.0
C2260 C 0.02577 0.91251 0.09997 0.0
C2261 C 0.02859 0.86085 0.10964 0.0
C2262 C 0.03049 0.9025 0.09027 0.0
C2263 C 0.01522 0.90606 0.08227 0.0
C2264 C 0.99496 0.91962 0.08386 0.0
C2265 C 0.99056 0.9299 0.0936 0.0
C2266 C 0.00588 0.92648 0.10155 0.0
H2267 H 0.02957 0.84399 0.11486 0.0
H2268 H 0.01066 0.86661 0.10879 0.0
H2269 H 0.03479 0.85481 0.10202 0.0
H2270 H 0.04589 0.8918 0.08892 0.0
H2271 H 0.01931 0.8982 0.07485 0.0
H2272 H 0.6031 0.73459 0.85531 0.0
H2273 H 0.59953 0.76681 0.8688 0.0
H2274 H 0.67091 0.78183 0.86722 0.0
H2275 H 0.67453 0.75028 0.8534 0.0
H2276 H 0.61988 0.76677 0.8876 0.0
H2277 H 0.64434 0.85443 0.86578 0.0
H2278 H 0.63727 0.82427 0.85965 0.0
H2279 H 0.66452 0.82858 0.86539 0.0
C2280 C 0.61801 0.74504 0.85769 0.0
C2281 C 0.63908 0.73998 0.8532 0.0
C2282 C 0.61595 0.76332 0.86546 0.0
C2283 C 0.63488 0.77701 0.86891 0.0
C2284 C 0.656 0.77188 0.86453 0.0
H2285 H 0.64909 0.88555 0.91961 0.0
H2286 H 0.65646 0.85771 0.90475 0.0
C2287 C 0.65808 0.75359 0.85673 0.0
C2288 C 0.63247 0.79589 0.87735 0.0
H2289 H 0.63849 0.8597 0.88354 0.0
C2290 C 0.62393 0.78709 0.8867 0.0
C2291 C 0.63785 0.82238 0.87617 0.0
C2292 C 0.64633 0.83311 0.86619 0.0
C2293 C 0.62059 0.80403 0.8949 0.0
C2294 C 0.62567 0.83054 0.89368 0.0
C2295 C 0.63459 0.83934 0.88441 0.0
C2296 C 0.62128 0.84935 0.90194 0.0
C2297 C 0.61177 0.79342 0.90485 0.0
C2298 C 0.59907 0.85437 0.90505 0.0
C2299 C 0.5949 0.87026 0.91343 0.0
C2300 C 0.61286 0.88147 0.91879 0.0
C2301 C 0.63504 0.87726 0.91548 0.0
C2302 C 0.63922 0.86138 0.90705 0.0
H2303 H 0.61362 0.77209 0.9053 0.0
H2304 H 0.6207 0.80227 0.91142 0.0
H2305 H 0.5936 0.79814 0.90556 0.0
H2306 H 0.58501 0.84545 0.90113 0.0
H2307 H 0.57769 0.87323 0.91594 0.0
H2308 H 0.53422 0.35829 0.10053 0.0
H2309 H 0.50457 0.36252 0.11339 0.0
H2310 H 0.49381 0.44171 0.10445 0.0
H2311 H 0.52338 0.43763 0.09146 0.0
H2312 H 0.50616 0.40933 0.1294 0.0
H2313 H 0.42936 0.3986 0.10526 0.0
H2314 H 0.4555 0.38295 0.10182 0.0
H2315 H 0.45306 0.41734 0.1008 0.0
C2316 C 0.52531 0.37648 0.10118 0.0
C2317 C 0.5311 0.39763 0.09499 0.0
C2318 C 0.50849 0.37889 0.10855 0.0
C2319 C 0.49705 0.40237 0.10979 0.0
C2320 C 0.50246 0.42342 0.10354 0.0
H2321 H 0.3876 0.42669 0.15418 0.0
H2322 H 0.41356 0.43416 0.13987 0.0
C2323 C 0.5194 0.42109 0.09619 0.0
C2324 C 0.48033 0.40501 0.11802 0.0
H2325 H 0.42406 0.40069 0.12305 0.0
C2326 C 0.48818 0.40776 0.12803 0.0
C2327 C 0.45697 0.40324 0.11613 0.0
C2328 C 0.44801 0.40034 0.10544 0.0
C2329 C 0.47323 0.40791 0.13629 0.0
C2330 C 0.44991 0.40465 0.13447 0.0
C2331 C 0.44196 0.4031 0.12441 0.0
C2332 C 0.43394 0.40037 0.14294 0.0
C2333 C 0.48255 0.41113 0.14692 0.0
C2334 C 0.43658 0.37866 0.14921 0.0
C2335 C 0.42187 0.37433 0.15729 0.0
C2336 C 0.40412 0.3916 0.15928 0.0
C2337 C 0.40113 0.41307 0.15284 0.0
C2338 C 0.41594 0.4174 0.14471 0.0
H2339 H 0.49911 0.42114 0.14683 0.0
H2340 H 0.47077 0.42223 0.15182 0.0
H2341 H 0.48506 0.39178 0.15039 0.0
H2342 H 0.45001 0.36493 0.1478 0.0
H2343 H 0.42426 0.35721 0.16193 0.0
H2344 H 0.85247 0.11242 0.41967 0.0
H2345 H 0.84425 0.1376 0.40425 0.0
H2346 H 0.91383 0.1617 0.40288 0.0
H2347 H 0.92222 0.13528 0.41789 0.0
H2348 H 0.84596 0.18678 0.40112 0.0
H2349 H 0.90521 0.14172 0.37398 0.0
H2350 H 0.8993 0.12773 0.38629 0.0
H2351 H 0.91984 0.15322 0.38503 0.0
C2352 C 0.86604 0.12261 0.41588 0.0
C2353 C 0.88804 0.12156 0.41978 0.0
C2354 C 0.86135 0.13713 0.40714 0.0
C2355 C 0.87851 0.15116 0.40224 0.0
C2356 C 0.90044 0.15039 0.40627 0.0
H2357 H 0.85883 0.28675 0.36468 0.0
H2358 H 0.86364 0.25553 0.3785 0.0
C2359 C 0.9052 0.13551 0.4149 0.0
C2360 C 0.87325 0.16779 0.39329 0.0
H2361 H 0.89107 0.18362 0.36933 0.0
C2362 C 0.85567 0.18585 0.39413 0.0
C2363 C 0.88558 0.16635 0.38406 0.0
C2364 C 0.90335 0.146 0.38224 0.0
C2365 C 0.85054 0.20297 0.38615 0.0
C2366 C 0.86391 0.20275 0.37721 0.0
C2367 C 0.88102 0.18414 0.37624 0.0
C2368 C 0.86067 0.22177 0.36882 0.0
C2369 C 0.83061 0.22082 0.38738 0.0
C2370 C 0.85822 0.21333 0.3587 0.0
C2371 C 0.856 0.23119 0.35076 0.0
C2372 C 0.85597 0.25784 0.3528 0.0
C2373 C 0.85838 0.26629 0.36292 0.0
C2374 C 0.861 0.24845 0.37083 0.0
H2375 H 0.81797 0.21263 0.39273 0.0
H2376 H 0.83643 0.23949 0.3906 0.0
H2377 H 0.8222 0.22461 0.37997 0.0
H2378 H 0.85803 0.19288 0.35693 0.0
H2379 H 0.85413 0.22419 0.34302 0.0
H2380 H 0.11225 0.55872 0.65697 0.0
H2381 H 0.08258 0.54677 0.64469 0.0
H2382 H 0.05804 0.62522 0.64501 0.0
H2383 H 0.0871 0.63708 0.65725 0.0
H2384 H 0.02401 0.58507 0.6469 0.0
H2385 H 0.08256 0.57123 0.61408 0.0
H2386 H 0.08825 0.55442 0.62582 0.0
H2387 H 0.09091 0.5889 0.62533 0.0
C2388 C 0.10038 0.57328 0.65444 0.0
C2389 C 0.10214 0.5989 0.65793 0.0
C2390 C 0.08359 0.56649 0.64742 0.0
C2391 C 0.06834 0.58523 0.64389 0.0
C2392 C 0.06973 0.61054 0.64761 0.0
H2393 H 0.96631 0.63018 0.60372 0.0
H2394 H 0.99437 0.62283 0.61704 0.0
C2395 C 0.08644 0.61732 0.65454 0.0
C2396 C 0.05099 0.5792 0.63618 0.0
H2397 H 0.04381 0.57224 0.61051 0.0
C2398 C 0.02828 0.58174 0.63897 0.0
C2399 C 0.05668 0.5748 0.62586 0.0
C2400 C 0.08089 0.57224 0.6225 0.0
C2401 C 0.01114 0.58131 0.63163 0.0
C2402 C 0.01695 0.57867 0.62123 0.0
C2403 C 0.0395 0.57443 0.61849 0.0
C2404 C 0.00015 0.58277 0.61308 0.0
C2405 C 0.98701 0.58449 0.63501 0.0
C2406 C 0.99461 0.56286 0.60628 0.0
C2407 C 0.97866 0.56705 0.59861 0.0
C2408 C 0.96824 0.59134 0.59756 0.0
C2409 C 0.97419 0.61135 0.60428 0.0
C2410 C 0.99001 0.60709 0.61196 0.0
H2411 H 0.98476 0.57871 0.64311 0.0
H2412 H 0.98212 0.60511 0.6343 0.0
H2413 H 0.97544 0.57285 0.6302 0.0
H2414 H 0.00247 0.54405 0.60698 0.0
H2415 H 0.97458 0.55137 0.59347 0.0
H2416 H 0.58118 0.12921 0.58571 0.0
H2417 H 0.58927 0.15646 0.60058 0.0
H2418 H 0.66044 0.14259 0.5966 0.0
H2419 H 0.6523 0.11585 0.58154 0.0
H2420 H 0.61108 0.14639 0.61876 0.0
H2421 H 0.65683 0.22115 0.59645 0.0
H2422 H 0.64034 0.19608 0.59047 0.0
H2423 H 0.66802 0.18904 0.5953 0.0
C2424 C 0.59851 0.13189 0.5881 0.0
C2425 C 0.61616 0.12052 0.58259 0.0
C2426 C 0.60312 0.14739 0.59656 0.0
C2427 C 0.62547 0.15187 0.5996 0.0
C2428 C 0.64311 0.13979 0.59426 0.0
H2429 H 0.6767 0.25256 0.64804 0.0
H2430 H 0.6737 0.22002 0.63455 0.0
C2431 C 0.63848 0.12436 0.58576 0.0
C2432 C 0.63014 0.16963 0.60822 0.0
H2433 H 0.65493 0.22723 0.61426 0.0
C2434 C 0.62073 0.16401 0.61778 0.0
C2435 C 0.64273 0.19264 0.60693 0.0
C2436 C 0.65242 0.20029 0.59672 0.0
C2437 C 0.62347 0.18086 0.62608 0.0
C2438 C 0.63572 0.20403 0.62473 0.0
C2439 C 0.64558 0.20939 0.61525 0.0
C2440 C 0.63757 0.22355 0.63294 0.0
C2441 C 0.61321 0.17378 0.63623 0.0
C2442 C 0.61829 0.23657 0.63637 0.0
C2443 C 0.61995 0.25536 0.64398 0.0
C2444 C 0.64096 0.2615 0.64833 0.0
C2445 C 0.6603 0.24852 0.6448 0.0
C2446 C 0.65862 0.2298 0.63714 0.0
H2447 H 0.60927 0.15282 0.63669 0.0
H2448 H 0.62472 0.17894 0.64259 0.0
H2449 H 0.59728 0.18468 0.63726 0.0
H2450 H 0.60196 0.23241 0.63307 0.0
H2451 H 0.60479 0.26534 0.64633 0.0
H2452 H 0.08348 0.43326 0.83521 0.0
H2453 H 0.05725 0.43979 0.84938 0.0
H2454 H 0.09897 0.39192 0.8686 0.0
H2455 H 0.12539 0.38578 0.85453 0.0
H2456 H 0.03376 0.40152 0.85762 0.0
H2457 H 0.08298 0.44909 0.8881 0.0
H2458 H 0.09258 0.44777 0.87505 0.0
H2459 H 0.09677 0.42062 0.88343 0.0
C2460 C 0.08727 0.42465 0.84254 0.0
C2461 C 0.10643 0.40903 0.84379 0.0
C2462 C 0.07233 0.42841 0.85062 0.0
C2463 C 0.07624 0.41655 0.86009 0.0
C2464 C 0.09588 0.40182 0.86147 0.0
H2465 H 0.97699 0.35857 0.9016 0.0
H2466 H 0.00631 0.36573 0.88886 0.0
C2467 C 0.11094 0.39826 0.85341 0.0
C2468 C 0.0585 0.41679 0.86804 0.0
H2469 H 0.0491 0.42709 0.89339 0.0
C2470 C 0.03706 0.40747 0.86541 0.0
C2471 C 0.06272 0.42474 0.87818 0.0
C2472 C 0.08495 0.43637 0.88133 0.0
C2473 C 0.01997 0.40502 0.8727 0.0
C2474 C 0.0246 0.41148 0.88296 0.0
C2475 C 0.04573 0.42177 0.88554 0.0
C2476 C 0.00781 0.40712 0.89111 0.0
C2477 C 0.9971 0.39549 0.86935 0.0
C2478 C 0.99956 0.42791 0.89686 0.0
C2479 C 0.98299 0.42384 0.90426 0.0
C2480 C 0.97449 0.39886 0.90607 0.0
C2481 C 0.98327 0.37801 0.90046 0.0
C2482 C 0.99985 0.3821 0.89309 0.0
H2483 H 0.99438 0.39863 0.86106 0.0
H2484 H 0.99587 0.37442 0.87083 0.0
H2485 H 0.9834 0.40533 0.87361 0.0
H2486 H 0.00565 0.44734 0.89549 0.0
H2487 H 0.97686 0.44024 0.90857 0.0
H2488 H 0.92188 0.86991 0.0848 0.0
H2489 H 0.91461 0.84288 0.09981 0.0
H2490 H 0.8434 0.85826 0.09704 0.0
H2491 H 0.85069 0.88471 0.08182 0.0
H2492 H 0.89487 0.85334 0.1183 0.0
H2493 H 0.84522 0.77985 0.09711 0.0
H2494 H 0.86154 0.80446 0.09075 0.0
H2495 H 0.83448 0.81219 0.09612 0.0
C2496 C 0.90473 0.86759 0.08748 0.0
C2497 C 0.88682 0.87933 0.08225 0.0
C2498 C 0.90057 0.8522 0.09602 0.0
C2499 C 0.87843 0.84822 0.09945 0.0
C2500 C 0.86057 0.86064 0.0944 0.0
H2501 H 0.82773 0.75132 0.14911 0.0
H2502 H 0.83108 0.78323 0.13541 0.0
C2503 C 0.86472 0.87593 0.08581 0.0
C2504 C 0.87418 0.83068 0.1082 0.0
H2505 H 0.84812 0.7743 0.11495 0.0
C2506 C 0.88461 0.83609 0.11757 0.0
C2507 C 0.8608 0.80814 0.10724 0.0
C2508 C 0.85002 0.80061 0.09725 0.0
C2509 C 0.88207 0.81957 0.12599 0.0
C2510 C 0.86892 0.79693 0.12498 0.0
C2511 C 0.85814 0.79174 0.11569 0.0
C2512 C 0.86692 0.77784 0.13335 0.0
C2513 C 0.8934 0.82648 0.13592 0.0
C2514 C 0.88591 0.76399 0.13661 0.0
C2515 C 0.88403 0.74554 0.14435 0.0
C2516 C 0.86309 0.74056 0.14899 0.0
C2517 C 0.84406 0.75443 0.14565 0.0
C2518 C 0.84595 0.7728 0.13786 0.0
H2519 H 0.89819 0.84722 0.13619 0.0
H2520 H 0.88222 0.82214 0.14249 0.0
H2521 H 0.90896 0.81479 0.13677 0.0
H2522 H 0.90216 0.76721 0.13307 0.0
H2523 H 0.89895 0.73487 0.14655 0.0
H2524 H 0.51902 0.64999 0.40591 0.0
H2525 H 0.48875 0.64555 0.39345 0.0
H2526 H 0.4934 0.56255 0.3956 0.0
H2527 H 0.52305 0.5668 0.40843 0.0
H2528 H 0.49281 0.62251 0.37495 0.0
H2529 H 0.42571 0.57436 0.39749 0.0
H2530 H 0.44978 0.5897 0.40334 0.0
H2531 H 0.4524 0.55804 0.39782 0.0
C2532 C 0.51326 0.63078 0.40394 0.0
C2533 C 0.52345 0.60875 0.40819 0.0
C2534 C 0.49606 0.62828 0.39675 0.0
C2535 C 0.48867 0.60373 0.39368 0.0
C2536 C 0.49855 0.58168 0.398 0.0
H2537 H 0.41942 0.57993 0.33594 0.0
H2538 H 0.44513 0.57572 0.35046 0.0
C2539 C 0.51571 0.58416 0.40523 0.0
C2540 C 0.4718 0.60137 0.38542 0.0
H2541 H 0.41976 0.57737 0.37959 0.0
C2542 C 0.47682 0.61266 0.37597 0.0
C2543 C 0.45092 0.58866 0.38681 0.0
C2544 C 0.44422 0.57719 0.39694 0.0
C2545 C 0.46154 0.61163 0.36785 0.0
C2546 C 0.44089 0.59839 0.36914 0.0
C2547 C 0.43577 0.58717 0.3786 0.0
C2548 C 0.42399 0.5973 0.36086 0.0
C2549 C 0.46742 0.62537 0.35804 0.0
C2550 C 0.4031 0.6096 0.36209 0.0
C2551 C 0.38833 0.61183 0.35385 0.0
C2552 C 0.39426 0.60182 0.34425 0.0
C2553 C 0.41459 0.58814 0.34322 0.0
C2554 C 0.42927 0.58576 0.35148 0.0
H2555 H 0.48121 0.63963 0.35913 0.0
H2556 H 0.47314 0.61098 0.35233 0.0
H2557 H 0.45252 0.63559 0.35489 0.0
H2558 H 0.39871 0.61858 0.36928 0.0
H2559 H 0.37286 0.62266 0.35484 0.0
H2560 H 0.32776 0.16512 0.09335 0.0
H2561 H 0.32119 0.18984 0.1091 0.0
H2562 H 0.39157 0.18265 0.11683 0.0
H2563 H 0.39803 0.15774 0.10115 0.0
H2564 H 0.36175 0.17411 0.13347 0.0
H2565 H 0.34277 0.26518 0.11271 0.0
H2566 H 0.32597 0.23781 0.10906 0.0
H2567 H 0.35575 0.23767 0.10661 0.0
C2568 C 0.34167 0.16862 0.09852 0.0
C2569 C 0.36333 0.15957 0.09616 0.0
C2570 C 0.33798 0.18284 0.10744 0.0
C2571 C 0.35596 0.18833 0.11406 0.0
C2572 C 0.37749 0.17865 0.11182 0.0
H2573 H 0.36743 0.30738 0.16009 0.0
H2574 H 0.37154 0.27878 0.14525 0.0
C2575 C 0.38117 0.16447 0.1029 0.0
C2576 C 0.35255 0.20477 0.12319 0.0
H2577 H 0.33878 0.26602 0.13063 0.0
C2578 C 0.35666 0.19418 0.13287 0.0
C2579 C 0.34623 0.23105 0.12236 0.0
C2580 C 0.34259 0.24376 0.11213 0.0
C2581 C 0.35446 0.20915 0.14175 0.0
C2582 C 0.34774 0.23529 0.14092 0.0
C2583 C 0.34376 0.24591 0.13125 0.0
C2584 C 0.34536 0.25223 0.14999 0.0
C2585 C 0.35987 0.19704 0.15193 0.0
C2586 C 0.32919 0.24686 0.15752 0.0
C2587 C 0.32688 0.26315 0.16597 0.0
C2588 C 0.34061 0.28508 0.16695 0.0
C2589 C 0.35672 0.29051 0.15943 0.0
C2590 C 0.35902 0.27425 0.15099 0.0
H2591 H 0.36974 0.17893 0.15106 0.0
H2592 H 0.36953 0.21065 0.1568 0.0
H2593 H 0.34392 0.19226 0.15592 0.0
H2594 H 0.31823 0.23023 0.15681 0.0
H2595 H 0.31434 0.25876 0.17171 0.0
H2596 H 0.51292 0.54821 0.92001 0.0
H2597 H 0.53786 0.55375 0.90529 0.0
H2598 H 0.51179 0.63066 0.90069 0.0
H2599 H 0.48639 0.62504 0.91518 0.0
H2600 H 0.51147 0.59992 0.88317 0.0
H2601 H 0.59511 0.59808 0.90219 0.0
H2602 H 0.57692 0.57142 0.90524 0.0
H2603 H 0.56919 0.60354 0.90907 0.0
C2604 C 0.51259 0.56634 0.91589 0.0
C2605 C 0.49771 0.58621 0.91877 0.0
C2606 C 0.52699 0.56956 0.90755 0.0
C2607 C 0.52682 0.59271 0.90199 0.0
C2608 C 0.51227 0.61271 0.90494 0.0
H2609 H 0.61586 0.64859 0.85475 0.0
H2610 H 0.59487 0.64071 0.87061 0.0
C2611 C 0.4979 0.60954 0.91327 0.0
C2612 C 0.54075 0.59561 0.8927 0.0
H2613 H 0.59502 0.59752 0.8841 0.0
C2614 C 0.52974 0.59941 0.88336 0.0
C2615 C 0.56456 0.59509 0.89302 0.0
C2616 C 0.57722 0.59204 0.90292 0.0
C2617 C 0.5419 0.60264 0.87429 0.0
C2618 C 0.5657 0.60164 0.87457 0.0
C2619 C 0.57675 0.598 0.88392 0.0
C2620 C 0.57937 0.60535 0.86526 0.0
C2621 C 0.5292 0.60765 0.86452 0.0
C2622 C 0.57791 0.58778 0.85712 0.0
C2623 C 0.58982 0.5923 0.84811 0.0
C2624 C 0.60334 0.61437 0.84716 0.0
C2625 C 0.60539 0.6315 0.85539 0.0
C2626 C 0.59349 0.627 0.8644 0.0
H2627 H 0.5115 0.6136 0.86598 0.0
H2628 H 0.53761 0.62294 0.85995 0.0
H2629 H 0.52887 0.5897 0.85989 0.0
H2630 H 0.56737 0.57076 0.85772 0.0
H2631 H 0.58826 0.57882 0.84183 0.0
H2632 H 0.16711 0.69001 0.65668 0.0
H2633 H 0.16255 0.71958 0.64231 0.0
H2634 H 0.17521 0.78438 0.6622 0.0
H2635 H 0.18022 0.75448 0.67665 0.0
H2636 H 0.13036 0.75763 0.64075 0.0
H2637 H 0.21644 0.79928 0.63771 0.0
H2638 H 0.21057 0.77025 0.64487 0.0
H2639 H 0.2036 0.80131 0.65009 0.0
C2640 C 0.16929 0.71053 0.65794 0.0
C2641 C 0.1742 0.72004 0.66772 0.0
C2642 C 0.1666 0.72742 0.64975 0.0
C2643 C 0.16873 0.75418 0.65114 0.0
C2644 C 0.1739 0.76377 0.6609 0.0
H2645 H 0.11476 0.86216 0.60573 0.0
H2646 H 0.12351 0.84005 0.62184 0.0
C2647 C 0.17669 0.74678 0.66914 0.0
C2648 C 0.16427 0.77179 0.64243 0.0
H2649 H 0.18868 0.81619 0.62661 0.0
C2650 C 0.14308 0.77054 0.63769 0.0
C2651 C 0.18095 0.78843 0.6384 0.0
C2652 C 0.20425 0.78986 0.64295 0.0
C2653 C 0.13817 0.78521 0.62897 0.0
C2654 C 0.15477 0.80202 0.62497 0.0
C2655 C 0.17593 0.80345 0.62975 0.0
C2656 C 0.15074 0.81723 0.61555 0.0
C2657 C 0.1155 0.7819 0.62391 0.0
C2658 C 0.16369 0.81246 0.60678 0.0
C2659 C 0.15879 0.82519 0.59764 0.0
C2660 C 0.1409 0.84286 0.59714 0.0
C2661 C 0.12851 0.84841 0.60598 0.0
C2662 C 0.13344 0.83574 0.61513 0.0
H2663 H 0.10681 0.76405 0.6265 0.0
H2664 H 0.10462 0.79863 0.62585 0.0
H2665 H 0.11727 0.78115 0.61549 0.0
H2666 H 0.17716 0.79835 0.60695 0.0
H2667 H 0.16862 0.82084 0.59089 0.0
H2668 H 0.02592 0.44126 0.40515 0.0
H2669 H 0.00033 0.43543 0.3908 0.0
H2670 H 0.95782 0.3867 0.40928 0.0
H2671 H 0.98281 0.39344 0.42387 0.0
H2672 H 0.99008 0.39032 0.38139 0.0
H2673 H 0.91216 0.43539 0.3966 0.0
H2674 H 0.93935 0.4398 0.40251 0.0
H2675 H 0.92364 0.41058 0.40463 0.0
C2676 C 0.01085 0.4298 0.40626 0.0
C2677 C 0.00635 0.418 0.41571 0.0
C2678 C 0.99634 0.42631 0.39801 0.0
C2679 C 0.97701 0.41093 0.399 0.0
C2680 C 0.97239 0.3991 0.4084 0.0
H2681 H 0.88041 0.3527 0.35487 0.0
H2682 H 0.90232 0.36216 0.37034 0.0
C2683 C 0.98687 0.40269 0.4167 0.0
C2684 C 0.96247 0.40622 0.39 0.0
H2685 H 0.90872 0.41233 0.38098 0.0
C2686 C 0.97232 0.39526 0.38128 0.0
C2687 C 0.93928 0.41263 0.3899 0.0
C2688 C 0.92799 0.42547 0.39887 0.0
C2689 C 0.95959 0.39032 0.3725 0.0
C2690 C 0.93645 0.39671 0.3724 0.0
C2691 C 0.9265 0.4075 0.38112 0.0
C2692 C 0.92237 0.39216 0.36329 0.0
C2693 C 0.97088 0.37793 0.36342 0.0
C2694 C 0.92614 0.40631 0.35431 0.0
C2695 C 0.91363 0.401 0.34554 0.0
C2696 C 0.89732 0.3814 0.34563 0.0
C2697 C 0.89307 0.36778 0.35468 0.0
C2698 C 0.9055 0.37318 0.36347 0.0
H2699 H 0.98752 0.3695 0.36542 0.0
H2700 H 0.96007 0.36247 0.36016 0.0
H2701 H 0.97355 0.39274 0.35742 0.0
H2702 H 0.93891 0.42126 0.35409 0.0
H2703 H 0.9169 0.41186 0.33863 0.0
H2704 H 0.36043 0.68699 0.34349 0.0
H2705 H 0.3648 0.71507 0.35848 0.0
H2706 H 0.32144 0.77185 0.34448 0.0
H2707 H 0.31727 0.74375 0.32946 0.0
H2708 H 0.36103 0.79276 0.35302 0.0
H2709 H 0.31671 0.72878 0.3804 0.0
H2710 H 0.33903 0.71316 0.37351 0.0
H2711 H 0.31465 0.72466 0.36677 0.0
C2712 C 0.35185 0.70547 0.34368 0.0
C2713 C 0.33845 0.71334 0.33545 0.0
C2714 C 0.35423 0.7214 0.35222 0.0
C2715 C 0.34316 0.74537 0.35265 0.0
C2716 C 0.33001 0.75337 0.34433 0.0
H2717 H 0.32971 0.83695 0.40831 0.0
H2718 H 0.32209 0.81323 0.39243 0.0
C2719 C 0.3276 0.7374 0.33579 0.0
C2720 C 0.34562 0.76224 0.36173 0.0
H2721 H 0.33697 0.76422 0.38745 0.0
C2722 C 0.35566 0.78662 0.36055 0.0
C2723 C 0.3383 0.75432 0.3715 0.0
C2724 C 0.32637 0.72891 0.37315 0.0
C2725 C 0.35915 0.803 0.36894 0.0
C2726 C 0.35269 0.79462 0.37878 0.0
C2727 C 0.34208 0.77054 0.37991 0.0
C2728 C 0.35717 0.81025 0.38805 0.0
C2729 C 0.36958 0.82922 0.36718 0.0
C2730 C 0.37938 0.81635 0.39086 0.0
C2731 C 0.38368 0.82994 0.39986 0.0
C2732 C 0.36585 0.83755 0.4062 0.0
C2733 C 0.34364 0.83152 0.40342 0.0
C2734 C 0.33933 0.81793 0.39441 0.0
H2735 H 0.36766 0.83555 0.35914 0.0
H2736 H 0.36191 0.84401 0.37224 0.0
H2737 H 0.38787 0.82821 0.3689 0.0
H2738 H 0.39344 0.8101 0.3862 0.0
H2739 H 0.40094 0.83415 0.40198 0.0
H2740 H 0.9946 0.54128 0.0842 0.0
H2741 H 0.96796 0.54615 0.09831 0.0
H2742 H 0.98243 0.62769 0.09962 0.0
H2743 H 0.00956 0.62299 0.08575 0.0
H2744 H 0.98054 0.56748 0.11828 0.0
H2745 H 0.91184 0.62215 0.09922 0.0
H2746 H 0.93213 0.60303 0.09224 0.0
H2747 H 0.93988 0.63421 0.09712 0.0
C2748 C 0.99214 0.56026 0.08748 0.0
C2749 C 0.00428 0.58174 0.08383 0.0
C2750 C 0.97681 0.56301 0.09549 0.0
C2751 C 0.97311 0.5873 0.0999 0.0
C2752 C 0.98479 0.60886 0.09618 0.0
H2753 H 0.90233 0.6536 0.15054 0.0
H2754 H 0.92306 0.64408 0.1348 0.0
C2755 C 0.00024 0.60613 0.08822 0.0
C2756 C 0.95823 0.58993 0.10887 0.0
H2757 H 0.91029 0.6194 0.11728 0.0
C2758 C 0.96503 0.57857 0.11807 0.0
C2759 C 0.93815 0.60455 0.10852 0.0
C2760 C 0.92988 0.61656 0.09874 0.0
C2761 C 0.95267 0.58223 0.12708 0.0
C2762 C 0.93265 0.59708 0.12677 0.0
C2763 C 0.92562 0.60799 0.11749 0.0
C2764 C 0.91936 0.60257 0.13608 0.0
C2765 C 0.9617 0.57107 0.1369 0.0
C2766 C 0.91015 0.58242 0.14192 0.0
C2767 C 0.89855 0.58785 0.15095 0.0
C2768 C 0.89564 0.61351 0.15411 0.0
C2769 C 0.90438 0.63368 0.14817 0.0
C2770 C 0.91612 0.62825 0.1392 0.0
H2771 H 0.97985 0.56605 0.13628 0.0
H2772 H 0.95951 0.58485 0.14331 0.0
H2773 H 0.95232 0.55313 0.13875 0.0
H2774 H 0.91208 0.5625 0.13954 0.0
H2775 H 0.89202 0.57207 0.1555 0.0
H2776 H 0.13677 0.31887 0.84329 0.0
H2777 H 0.13225 0.29055 0.8582 0.0
H2778 H 0.17704 0.23482 0.84449 0.0
H2779 H 0.18138 0.26315 0.82954 0.0
H2780 H 0.13743 0.21298 0.85276 0.0
H2781 H 0.17987 0.27776 0.88046 0.0
H2782 H 0.15754 0.2929 0.87341 0.0
H2783 H 0.18234 0.28194 0.86684 0.0
C2784 C 0.14563 0.30057 0.84352 0.0
C2785 C 0.15951 0.29309 0.83539 0.0
C2786 C 0.14315 0.2845 0.85202 0.0
C2787 C 0.15458 0.26075 0.85252 0.0
C2788 C 0.16818 0.25311 0.84429 0.0
H2789 H 0.16869 0.16853 0.90798 0.0
H2790 H 0.176 0.1929 0.89222 0.0
C2791 C 0.17069 0.26923 0.83579 0.0
C2792 C 0.1521 0.24378 0.86157 0.0
H2793 H 0.16019 0.24172 0.88734 0.0
C2794 C 0.14251 0.21918 0.86032 0.0
C2795 C 0.15903 0.25176 0.8714 0.0
C2796 C 0.17047 0.27743 0.87314 0.0
C2797 C 0.1391 0.20263 0.86867 0.0
C2798 C 0.1452 0.21105 0.87856 0.0
C2799 C 0.15534 0.23537 0.87977 0.0
C2800 C 0.14091 0.19513 0.88778 0.0
C2801 C 0.12917 0.1762 0.86683 0.0
C2802 C 0.11879 0.1884 0.89053 0.0
C2803 C 0.11468 0.17447 0.89947 0.0
C2804 C 0.13259 0.1671 0.90582 0.0
C2805 C 0.1547 0.17378 0.9031 0.0
C2806 C 0.15883 0.18773 0.89415 0.0
H2807 H 0.13128 0.17004 0.85877 0.0
H2808 H 0.13709 0.16152 0.87186 0.0
H2809 H 0.11086 0.17672 0.86852 0.0
H2810 H 0.10467 0.19441 0.88587 0.0
H2811 H 0.09748 0.16976 0.90153 0.0
H2812 H 0.52112 0.39923 0.57377 0.0
H2813 H 0.54754 0.39119 0.58781 0.0
H2814 H 0.49976 0.42324 0.6091 0.0
H2815 H 0.47314 0.43069 0.59524 0.0
H2816 H 0.56626 0.42698 0.60228 0.0
H2817 H 0.51442 0.35099 0.62072 0.0
H2818 H 0.50975 0.36152 0.60776 0.0
H2819 H 0.49939 0.38046 0.61825 0.0
C2820 C 0.51623 0.40442 0.58146 0.0
C2821 C 0.49503 0.41557 0.5834 0.0
C2822 C 0.53136 0.39996 0.58944 0.0
C2823 C 0.52544 0.40634 0.59949 0.0
C2824 C 0.5045 0.41787 0.60141 0.0
H2825 H 0.60259 0.42632 0.65453 0.0
H2826 H 0.5821 0.43194 0.63839 0.0
C2827 C 0.48941 0.42237 0.59346 0.0
C2828 C 0.54099 0.40092 0.60802 0.0
H2829 H 0.54479 0.36805 0.63049 0.0
C2830 C 0.56172 0.41393 0.60841 0.0
C2831 C 0.53509 0.38362 0.61592 0.0
C2832 C 0.51355 0.36813 0.61563 0.0
C2833 C 0.5764 0.41076 0.61672 0.0
C2834 C 0.56997 0.39441 0.62486 0.0
C2835 C 0.54959 0.38075 0.62428 0.0
C2836 C 0.58382 0.39151 0.63417 0.0
C2837 C 0.59865 0.42485 0.61669 0.0
C2838 C 0.59127 0.36692 0.63719 0.0
C2839 C 0.60275 0.36375 0.64639 0.0
C2840 C 0.6069 0.38511 0.65268 0.0
C2841 C 0.59971 0.40973 0.64966 0.0
C2842 C 0.58818 0.41292 0.64046 0.0
H2843 H 0.60378 0.43043 0.60885 0.0
H2844 H 0.59704 0.44279 0.62127 0.0
H2845 H 0.61216 0.41282 0.62011 0.0
H2846 H 0.58791 0.35015 0.63249 0.0
H2847 H 0.60809 0.34458 0.64869 0.0
H2848 H 0.30532 0.30385 0.23852 0.0
H2849 H 0.28339 0.28322 0.252 0.0
H2850 H 0.22691 0.27567 0.23155 0.0
H2851 H 0.2489 0.29599 0.2179 0.0
H2852 H 0.21651 0.29513 0.25179 0.0
H2853 H 0.26722 0.20492 0.25239 0.0
H2854 H 0.28338 0.2342 0.25329 0.0
H2855 H 0.26786 0.22735 0.24185 0.0
C2856 C 0.2883 0.2976 0.23684 0.0
C2857 C 0.27894 0.30127 0.2271 0.0
C2858 C 0.2758 0.28589 0.24456 0.0
C2859 C 0.25371 0.2776 0.24269 0.0
C2860 C 0.24401 0.28186 0.23309 0.0
H2861 H 0.17675 0.17465 0.28187 0.0
H2862 H 0.19563 0.19537 0.26733 0.0
C2863 C 0.25654 0.29356 0.22533 0.0
C2864 C 0.24087 0.26441 0.25081 0.0
H2865 H 0.24117 0.21081 0.26595 0.0
C2866 C 0.22178 0.27663 0.25486 0.0
C2867 C 0.24771 0.24016 0.25469 0.0
C2868 C 0.26754 0.22571 0.25029 0.0
C2869 C 0.20965 0.2655 0.26293 0.0
C2870 C 0.21701 0.24172 0.26706 0.0
C2871 C 0.23574 0.22918 0.26282 0.0
C2872 C 0.20551 0.22945 0.2758 0.0
C2873 C 0.18898 0.27915 0.26691 0.0
C2874 C 0.20514 0.24165 0.28536 0.0
C2875 C 0.19446 0.22982 0.29362 0.0
C2876 C 0.18417 0.20564 0.29241 0.0
C2877 C 0.18469 0.19332 0.2829 0.0
C2878 C 0.19539 0.20512 0.27464 0.0
H2879 H 0.18249 0.2936 0.26138 0.0
H2880 H 0.17536 0.26511 0.26866 0.0
H2881 H 0.19334 0.28945 0.27407 0.0
H2882 H 0.21321 0.26022 0.28643 0.0
H2883 H 0.19415 0.2395 0.30094 0.0
H2884 H 0.03415 0.92655 0.54665 0.0
H2885 H 0.01215 0.94714 0.53301 0.0
H2886 H 0.07354 0.96309 0.51654 0.0
H2887 H 0.09543 0.94199 0.53009 0.0
H2888 H 0.0139 0.99702 0.52543 0.0
H2889 H 0.03541 0.92605 0.49524 0.0
H2890 H 0.04086 0.92011 0.50857 0.0
H2891 H 0.05948 0.9404 0.50129 0.0
C2892 C 0.04282 0.93451 0.5401 0.0
C2893 C 0.06635 0.93275 0.53933 0.0
C2894 C 0.03032 0.94623 0.53233 0.0
C2895 C 0.04117 0.95625 0.52368 0.0
C2896 C 0.06478 0.95498 0.52304 0.0
H2897 H 0.99507 0.037 0.46944 0.0
H2898 H 0.01734 0.01616 0.48296 0.0
C2899 C 0.07727 0.94318 0.53078 0.0
C2900 C 0.02777 0.96824 0.51538 0.0
H2901 H 0.01563 0.96365 0.48998 0.0
C2902 C 0.01419 0.98967 0.51769 0.0
C2903 C 0.02818 0.95858 0.50528 0.0
C2904 C 0.04159 0.93488 0.50244 0.0
C2905 C 0.0013 0.00198 0.51014 0.0
C2906 C 0.00178 0.99237 0.50005 0.0
C2907 C 0.01535 0.97097 0.49773 0.0
C2908 C 0.9883 0.00433 0.49179 0.0
C2909 C 0.98761 0.02548 0.51297 0.0
C2910 C 0.96465 0.00414 0.4922 0.0
C2911 C 0.95202 0.01592 0.4845 0.0
C2912 C 0.96287 0.02794 0.47627 0.0
C2913 C 0.98647 0.02776 0.47575 0.0
C2914 C 0.99912 0.01592 0.48344 0.0
H2915 H 0.99313 0.03391 0.52035 0.0
H2916 H 0.98886 0.04056 0.50697 0.0
H2917 H 0.96964 0.01989 0.51371 0.0
H2918 H 0.95599 0.99492 0.4985 0.0
H2919 H 0.9338 0.01591 0.485 0.0
H2920 H 0.20045 0.73556 0.72452 0.0
H2921 H 0.21957 0.7557 0.73902 0.0
H2922 H 0.25455 0.68423 0.74506 0.0
H2923 H 0.23578 0.66414 0.73046 0.0
H2924 H 0.21841 0.74327 0.75904 0.0
H2925 H 0.306 0.73511 0.74466 0.0
H2926 H 0.28179 0.72956 0.73663 0.0
H2927 H 0.29159 0.70467 0.74513 0.0
C2928 C 0.21226 0.72418 0.72893 0.0
C2929 C 0.21675 0.69834 0.72633 0.0
C2930 C 0.22318 0.7357 0.7372 0.0
C2931 C 0.23876 0.7216 0.74302 0.0
C2932 C 0.24306 0.69569 0.74051 0.0
H2933 H 0.31217 0.75444 0.79882 0.0
H2934 H 0.29157 0.73362 0.78476 0.0
C2935 C 0.2323 0.68422 0.73218 0.0
C2936 C 0.25004 0.73386 0.75187 0.0
H2937 H 0.30166 0.74785 0.76198 0.0
C2938 C 0.23661 0.74438 0.75965 0.0
C2939 C 0.2738 0.73537 0.75264 0.0
C2940 C 0.28915 0.72581 0.74428 0.0
C2941 C 0.24632 0.75605 0.76825 0.0
C2942 C 0.27001 0.75717 0.76906 0.0
C2943 C 0.28347 0.74671 0.76132 0.0
C2944 C 0.28119 0.76962 0.77782 0.0
C2945 C 0.23133 0.76693 0.77648 0.0
C2946 C 0.28199 0.79665 0.77852 0.0
C2947 C 0.29385 0.80847 0.78645 0.0
C2948 C 0.30497 0.79337 0.79377 0.0
C2949 C 0.3037 0.76633 0.79321 0.0
C2950 C 0.29201 0.75452 0.78523 0.0
H2951 H 0.21335 0.76168 0.77532 0.0
H2952 H 0.23684 0.75985 0.78407 0.0
H2953 H 0.23275 0.78832 0.77652 0.0
H2954 H 0.27385 0.80856 0.77281 0.0
H2955 H 0.29474 0.82937 0.78677 0.0
H2956 H 0.46464 0.06601 0.04692 0.0
H2957 H 0.48629 0.04525 0.03321 0.0
H2958 H 0.42513 0.03525 0.01586 0.0
H2959 H 0.40361 0.05651 0.02949 0.0
H2960 H 0.48275 0.99661 0.02436 0.0
H2961 H 0.46595 0.07382 0.99597 0.0
H2962 H 0.46013 0.0778 0.00938 0.0
H2963 H 0.44103 0.05986 0.00144 0.0
C2964 C 0.45592 0.05916 0.04019 0.0
C2965 C 0.4326 0.06277 0.03917 0.0
C2966 C 0.46822 0.04738 0.03238 0.0
C2967 C 0.45737 0.03914 0.02344 0.0
C2968 C 0.4339 0.04197 0.02259 0.0
H2969 H 0.50413 0.96586 0.96767 0.0
H2970 H 0.48165 0.98541 0.98142 0.0
C2971 C 0.42161 0.05384 0.03039 0.0
C2972 C 0.47069 0.02782 0.01498 0.0
H2973 H 0.48475 0.03638 0.98995 0.0
C2974 C 0.48325 0.00533 0.01684 0.0
C2975 C 0.47134 0.0393 0.00519 0.0
C2976 C 0.45907 0.06416 0.00286 0.0
C2977 C 0.49619 0.99377 0.00913 0.0
C2978 C 0.49679 0.00522 0.99934 0.0
C2979 C 0.4842 0.02765 0.99746 0.0
C2980 C 0.51043 0.99417 0.99095 0.0
C2981 C 0.5088 0.96914 0.01145 0.0
C2982 C 0.53402 0.99314 0.99169 0.0
C2983 C 0.54678 0.98211 0.98386 0.0
C2984 C 0.5361 0.9721 0.97518 0.0
C2985 C 0.51258 0.97359 0.97433 0.0
C2986 C 0.49982 0.98466 0.98214 0.0
H2987 H 0.50244 0.95966 0.01849 0.0
H2988 H 0.50744 0.95528 0.00502 0.0
H2989 H 0.5269 0.97367 0.01259 0.0
H2990 H 0.54253 0.00076 0.99835 0.0
H2991 H 0.56493 0.98108 0.98462 0.0
H2992 H 0.26114 0.6682 0.27069 0.0
H2993 H 0.24098 0.68838 0.2565 0.0
H2994 H 0.27647 0.7598 0.26188 0.0
H2995 H 0.29654 0.7399 0.27615 0.0
H2996 H 0.21327 0.7329 0.25635 0.0
H2997 H 0.28841 0.74415 0.2315 0.0
H2998 H 0.28821 0.72336 0.24255 0.0
H2999 H 0.29142 0.75768 0.24404 0.0
C3000 C 0.26448 0.68829 0.26893 0.0
C3001 C 0.28053 0.70242 0.27451 0.0
C3002 C 0.25305 0.69972 0.26079 0.0
C3003 C 0.25754 0.72541 0.25806 0.0
C3004 C 0.27315 0.73976 0.26375 0.0
H3005 H 0.17853 0.82598 0.21914 0.0
H3006 H 0.19832 0.80522 0.23341 0.0
C3007 C 0.28459 0.72836 0.27189 0.0
C3008 C 0.24579 0.73723 0.24929 0.0
H3009 H 0.25468 0.76432 0.22591 0.0
C3010 C 0.22228 0.73972 0.24968 0.0
C3011 C 0.25763 0.74577 0.24056 0.0
C3012 C 0.28279 0.74244 0.23955 0.0
C3013 C 0.21026 0.751 0.24161 0.0
C3014 C 0.22218 0.76029 0.23302 0.0
C3015 C 0.24565 0.75736 0.23255 0.0
C3016 C 0.21056 0.77305 0.22442 0.0
C3017 C 0.18492 0.75257 0.24229 0.0
C3018 C 0.21143 0.76217 0.21462 0.0
C3019 C 0.20028 0.77407 0.2065 0.0
C3020 C 0.18832 0.79707 0.20809 0.0
C3021 C 0.18769 0.80817 0.21783 0.0
C3022 C 0.19882 0.79628 0.22595 0.0
H3023 H 0.17806 0.73888 0.24803 0.0
H3024 H 0.17999 0.77241 0.2446 0.0
H3025 H 0.17701 0.7484 0.2348 0.0
H3026 H 0.2205 0.74431 0.2133 0.0
H3027 H 0.20084 0.7653 0.19901 0.0
H3028 H 0.46116 0.94532 0.45403 0.0
H3029 H 0.48308 0.96631 0.46762 0.0
H3030 H 0.43559 0.93832 0.48996 0.0
H3031 H 0.41395 0.91705 0.47637 0.0
H3032 H 0.47037 0.00368 0.4818 0.0
H3033 H 0.49588 0.9128 0.50109 0.0
H3034 H 0.48387 0.91326 0.48845 0.0
H3035 H 0.466 0.91628 0.49946 0.0
C3036 C 0.4555 0.94381 0.46186 0.0
C3037 C 0.43609 0.92963 0.46425 0.0
C3038 C 0.46795 0.95572 0.46959 0.0
C3039 C 0.46118 0.95347 0.47981 0.0
C3040 C 0.44139 0.93981 0.48215 0.0
H3041 H 0.51342 0.01242 0.5372 0.0
H3042 H 0.49119 0.99135 0.52373 0.0
C3043 C 0.42898 0.92787 0.47442 0.0
C3044 C 0.47476 0.96552 0.48802 0.0
H3045 H 0.5046 0.95198 0.50964 0.0
C3046 C 0.47794 0.99239 0.48786 0.0
C3047 C 0.48461 0.95071 0.49592 0.0
C3048 C 0.48263 0.92164 0.49623 0.0
C3049 C 0.4904 0.00492 0.4955 0.0
C3050 C 0.5002 0.99011 0.5034 0.0
C3051 C 0.49701 0.96326 0.50357 0.0
C3052 C 0.51392 0.00217 0.51155 0.0
C3053 C 0.49263 0.03396 0.49516 0.0
C3054 C 0.53422 0.01471 0.50916 0.0
C3055 C 0.54687 0.02659 0.51683 0.0
C3056 C 0.53942 0.026 0.52697 0.0
C3057 C 0.51939 0.01301 0.5294 0.0
C3058 C 0.50675 0.00106 0.52174 0.0
H3059 H 0.47978 0.0429 0.49011 0.0
H3060 H 0.49098 0.0424 0.5029 0.0
H3061 H 0.50953 0.0391 0.49216 0.0
H3062 H 0.54024 0.01536 0.50137 0.0
H3063 H 0.56236 0.03647 0.51484 0.0
H3064 H 0.24655 0.29427 0.78279 0.0
H3065 H 0.26675 0.27401 0.76861 0.0
H3066 H 0.20964 0.28702 0.74896 0.0
H3067 H 0.18945 0.30766 0.76301 0.0
H3068 H 0.22787 0.23589 0.74824 0.0
H3069 H 0.29319 0.31191 0.74338 0.0
H3070 H 0.29004 0.29964 0.75613 0.0
H3071 H 0.26737 0.31737 0.75035 0.0
C3072 C 0.23838 0.29308 0.77542 0.0
C3073 C 0.21639 0.30262 0.77403 0.0
C3074 C 0.24993 0.28147 0.76735 0.0
C3075 C 0.23973 0.2793 0.75774 0.0
C3076 C 0.21776 0.28855 0.75633 0.0
H3077 H 0.30144 0.24105 0.69965 0.0
H3078 H 0.28066 0.26157 0.71373 0.0
C3079 C 0.20622 0.3002 0.76439 0.0
C3080 C 0.25182 0.26704 0.74916 0.0
H3081 H 0.29755 0.27374 0.73361 0.0
C3082 C 0.24309 0.24413 0.74502 0.0
C3083 C 0.27151 0.27808 0.74493 0.0
C3084 C 0.28105 0.30322 0.74885 0.0
C3085 C 0.25375 0.23172 0.73683 0.0
C3086 C 0.27374 0.24244 0.73276 0.0
C3087 C 0.28229 0.26553 0.7368 0.0
C3088 C 0.28599 0.22998 0.72428 0.0
C3089 C 0.2434 0.20747 0.73249 0.0
C3090 C 0.29596 0.20562 0.72563 0.0
C3091 C 0.30775 0.19401 0.71763 0.0
C3092 C 0.30973 0.20668 0.70823 0.0
C3093 C 0.29992 0.23106 0.70688 0.0
C3094 C 0.28816 0.2427 0.71488 0.0
H3095 H 0.22554 0.20517 0.73486 0.0
H3096 H 0.24424 0.20754 0.72403 0.0
H3097 H 0.25295 0.19043 0.73528 0.0
H3098 H 0.29478 0.19571 0.73288 0.0
H3099 H 0.31541 0.17523 0.71878 0.0
H3100 H 0.09344 0.06344 0.9731 0.0
H3101 H 0.07161 0.0409 0.98632 0.0
H3102 H 0.01068 0.0539 0.96911 0.0
H3103 H 0.03262 0.07593 0.95583 0.0
H3104 H 0.03698 0.06047 0.99804 0.0
H3105 H 0.00688 0.97698 0.97529 0.0
H3106 H 0.02945 0.99776 0.97106 0.0
H3107 H 0.00059 0.00774 0.96964 0.0
C3108 C 0.07542 0.06109 0.97213 0.0
C3109 C 0.06462 0.07106 0.96347 0.0
C3110 C 0.06298 0.04836 0.97967 0.0
C3111 C 0.03956 0.04537 0.97863 0.0
C3112 C 0.02878 0.05544 0.96996 0.0
H3113 H 0.93262 0.98386 0.01678 0.0
H3114 H 0.95514 0.0054 0.00352 0.0
C3115 C 0.04124 0.0681 0.96242 0.0
C3116 C 0.02629 0.0327 0.98682 0.0
H3117 H 0.98999 0.98291 0.99157 0.0
C3118 C 0.02682 0.04341 0.99665 0.0
C3119 C 0.01301 0.01047 0.98497 0.0
C3120 C 0.01256 0.99739 0.9747 0.0
C3121 C 0.01408 0.0328 0.00464 0.0
C3122 C 0.0007 0.01069 0.00278 0.0
C3123 C 0.00021 0.99993 0.99296 0.0
C3124 C 0.98714 0.99833 0.01093 0.0
C3125 C 0.01465 0.04566 0.01496 0.0
C3126 C 0.99771 0.98714 0.01943 0.0
C3127 C 0.98489 0.97492 0.02697 0.0
C3128 C 0.96136 0.97368 0.02608 0.0
C3129 C 0.95077 0.98483 0.01759 0.0
C3130 C 0.96358 0.99701 0.01005 0.0
H3131 H 0.02126 0.06571 0.01451 0.0
H3132 H 0.99757 0.04619 0.01842 0.0
H3133 H 0.02581 0.03446 0.02011 0.0
H3134 H 0.01588 0.98753 0.02016 0.0
H3135 H 0.99331 0.96619 0.03344 0.0
H3136 H 0.79417 0.75871 0.72387 0.0
H3137 H 0.77368 0.7381 0.73786 0.0
H3138 H 0.73874 0.80957 0.74386 0.0
H3139 H 0.75929 0.83041 0.72994 0.0
H3140 H 0.77393 0.75306 0.75846 0.0
H3141 H 0.6877 0.75586 0.74206 0.0
H3142 H 0.71271 0.76054 0.73444 0.0
H3143 H 0.702 0.78646 0.74216 0.0
C3144 C 0.78214 0.77005 0.72817 0.0
C3145 C 0.77833 0.79619 0.72579 0.0
C3146 C 0.7704 0.75822 0.73613 0.0
C3147 C 0.75455 0.77225 0.7418 0.0
C3148 C 0.75059 0.79828 0.73943 0.0
H3149 H 0.70098 0.73594 0.80168 0.0
H3150 H 0.72078 0.75514 0.78706 0.0
C3151 C 0.76232 0.81014 0.73147 0.0
C3152 C 0.74281 0.75991 0.75047 0.0
H3153 H 0.69075 0.74377 0.75948 0.0
C3154 C 0.75576 0.75092 0.75869 0.0
C3155 C 0.71914 0.75696 0.75066 0.0
C3156 C 0.70454 0.76524 0.74182 0.0
C3157 C 0.74559 0.73941 0.7672 0.0
C3158 C 0.72186 0.73718 0.76753 0.0
C3159 C 0.70894 0.74576 0.75923 0.0
C3160 C 0.71011 0.72569 0.77637 0.0
C3161 C 0.76032 0.72941 0.77571 0.0
C3162 C 0.69726 0.70315 0.77512 0.0
C3163 C 0.68599 0.69231 0.78342 0.0
C3164 C 0.68736 0.70396 0.79305 0.0
C3165 C 0.69998 0.72663 0.7943 0.0
C3166 C 0.71129 0.73746 0.786 0.0
H3167 H 0.77807 0.72686 0.77321 0.0
H3168 H 0.76015 0.74347 0.7821 0.0
H3169 H 0.75394 0.71064 0.77863 0.0
H3170 H 0.69608 0.69388 0.76773 0.0
H3171 H 0.67618 0.67486 0.78234 0.0
H3172 H 0.69526 0.24024 0.22484 0.0
H3173 H 0.71522 0.26012 0.23918 0.0
H3174 H 0.75065 0.1886 0.24454 0.0
H3175 H 0.73103 0.16879 0.23013 0.0
H3176 H 0.71553 0.24728 0.25921 0.0
H3177 H 0.80202 0.23956 0.24352 0.0
H3178 H 0.77725 0.23421 0.23583 0.0
H3179 H 0.78772 0.20906 0.24404 0.0
C3180 C 0.70733 0.2288 0.22908 0.0
C3181 C 0.71174 0.20304 0.22633 0.0
C3182 C 0.71874 0.24018 0.23725 0.0
C3183 C 0.73472 0.22599 0.24282 0.0
C3184 C 0.73887 0.20014 0.24018 0.0
H3185 H 0.81028 0.2547 0.29824 0.0
H3186 H 0.78892 0.23532 0.28409 0.0
C3187 C 0.72762 0.18882 0.23196 0.0
C3188 C 0.74663 0.23806 0.25154 0.0
H3189 H 0.79898 0.25127 0.26104 0.0
C3190 C 0.73377 0.2483 0.25957 0.0
C3191 C 0.77044 0.23946 0.25198 0.0
C3192 C 0.78517 0.23023 0.24334 0.0
C3193 C 0.74412 0.25947 0.26812 0.0
C3194 C 0.76785 0.26036 0.26863 0.0
C3195 C 0.78074 0.25029 0.26061 0.0
C3196 C 0.77967 0.272 0.27739 0.0
C3197 C 0.72976 0.27004 0.27664 0.0
C3198 C 0.78136 0.29895 0.27824 0.0
C3199 C 0.79365 0.30995 0.28622 0.0
C3200 C 0.80432 0.29411 0.29343 0.0
C3201 C 0.80219 0.26717 0.29271 0.0
C3202 C 0.79007 0.25616 0.28467 0.0
H3203 H 0.71161 0.26556 0.27557 0.0
H3204 H 0.73539 0.26196 0.28406 0.0
H3205 H 0.7318 0.29134 0.27702 0.0
H3206 H 0.77351 0.3114 0.27263 0.0
H3207 H 0.79516 0.33078 0.28668 0.0
H3208 H 0.78401 0.24055 0.77913 0.0
H3209 H 0.76311 0.26036 0.76508 0.0
H3210 H 0.73888 0.18525 0.75593 0.0
H3211 H 0.75955 0.16537 0.77005 0.0
H3212 H 0.76952 0.25109 0.74485 0.0
H3213 H 0.68145 0.22767 0.75567 0.0
H3214 H 0.70468 0.22477 0.76448 0.0
H3215 H 0.69965 0.2 0.75513 0.0
C3216 C 0.77406 0.22831 0.77417 0.0
C3217 C 0.77337 0.20144 0.77567 0.0
C3218 C 0.76211 0.23964 0.76617 0.0
C3219 C 0.74926 0.22431 0.75954 0.0
C3220 C 0.74827 0.1975 0.7611 0.0
H3221 H 0.67937 0.25726 0.70272 0.0
H3222 H 0.69821 0.2362 0.71723 0.0
C3223 C 0.7601 0.18617 0.76915 0.0
C3224 C 0.73808 0.23627 0.75062 0.0
H3225 H 0.68712 0.24463 0.739 0.0
C3226 C 0.75149 0.2498 0.7436 0.0
C3227 C 0.71457 0.23445 0.749 0.0
C3228 C 0.69919 0.22115 0.75651 0.0
C3229 C 0.74203 0.26139 0.73494 0.0
C3230 C 0.71857 0.25952 0.73333 0.0
C3231 C 0.70514 0.24589 0.74029 0.0
C3232 C 0.70758 0.27211 0.72454 0.0
C3233 C 0.75719 0.27529 0.72751 0.0
C3234 C 0.70662 0.29915 0.72395 0.0
C3235 C 0.69584 0.31108 0.71575 0.0
C3236 C 0.6859 0.29609 0.70807 0.0
C3237 C 0.68697 0.26905 0.70861 0.0
C3238 C 0.69764 0.2571 0.71685 0.0
H3239 H 0.77523 0.27039 0.72872 0.0
H3240 H 0.75253 0.27049 0.71954 0.0
H3241 H 0.75518 0.29646 0.72853 0.0
H3242 H 0.71399 0.31099 0.72989 0.0
H3243 H 0.69505 0.33198 0.71544 0.0
H3244 H 0.74081 0.83964 0.26988 0.0
H3245 H 0.76164 0.81962 0.25581 0.0
H3246 H 0.73679 0.74471 0.26484 0.0
H3247 H 0.71577 0.76461 0.27882 0.0
H3248 H 0.79449 0.7818 0.25526 0.0
H3249 H 0.71739 0.74896 0.23517 0.0
H3250 H 0.71655 0.77167 0.2456 0.0
H3251 H 0.71916 0.73759 0.24807 0.0
C3252 C 0.74001 0.81888 0.26892 0.0
C3253 C 0.72651 0.80369 0.27537 0.0
C3254 C 0.75182 0.80749 0.26086 0.0
C3255 C 0.75032 0.78078 0.25915 0.0
C3256 C 0.73765 0.76545 0.26586 0.0
H3257 H 0.80797 0.67243 0.21645 0.0
H3258 H 0.78898 0.69418 0.23073 0.0
C3259 C 0.72573 0.77682 0.27385 0.0
C3260 C 0.76178 0.76892 0.25029 0.0
H3261 H 0.75231 0.73286 0.22891 0.0
C3262 C 0.78528 0.77125 0.24946 0.0
C3263 C 0.74966 0.75529 0.2427 0.0
C3264 C 0.72428 0.75341 0.24285 0.0
C3265 C 0.79705 0.7597 0.24138 0.0
C3266 C 0.78495 0.74568 0.23393 0.0
C3267 C 0.76148 0.74355 0.23469 0.0
C3268 C 0.7964 0.73277 0.22534 0.0
C3269 C 0.82237 0.76204 0.24095 0.0
C3270 C 0.80649 0.74738 0.21757 0.0
C3271 C 0.81713 0.73501 0.20941 0.0
C3272 C 0.81785 0.70794 0.20899 0.0
C3273 C 0.80758 0.69335 0.2167 0.0
C3274 C 0.79682 0.70571 0.22481 0.0
H3275 H 0.8295 0.7696 0.24819 0.0
H3276 H 0.83015 0.74299 0.23928 0.0
H3277 H 0.8271 0.77547 0.23471 0.0
H3278 H 0.80602 0.76829 0.21779 0.0
H3279 H 0.82487 0.7465 0.20346 0.0
H3280 H 0.53278 0.44013 0.05118 0.0
H3281 H 0.50982 0.46175 0.03806 0.0
H3282 H 0.56112 0.44563 0.01563 0.0
H3283 H 0.58406 0.42444 0.02876 0.0
H3284 H 0.54574 0.49636 0.01508 0.0
H3285 H 0.47422 0.42701 0.01503 0.0
H3286 H 0.48112 0.44043 0.02727 0.0
H3287 H 0.50097 0.41973 0.02092 0.0
C3288 C 0.53897 0.44122 0.04343 0.0
C3289 C 0.55993 0.43055 0.04087 0.0
C3290 C 0.52588 0.45338 0.03595 0.0
C3291 C 0.53362 0.45492 0.02583 0.0
C3292 C 0.55477 0.44452 0.02336 0.0
H3293 H 0.48817 0.51608 0.96782 0.0
H3294 H 0.50862 0.49504 0.98185 0.0
C3295 C 0.56781 0.43242 0.03082 0.0
C3296 C 0.52004 0.46782 0.01781 0.0
H3297 H 0.47048 0.46411 0.00462 0.0
C3298 C 0.52929 0.48931 0.01279 0.0
C3299 C 0.49856 0.45861 0.01485 0.0
C3300 C 0.48814 0.43505 0.01972 0.0
C3301 C 0.51763 0.50189 0.00492 0.0
C3302 C 0.49629 0.49248 0.00186 0.0
C3303 C 0.48687 0.47123 0.00697 0.0
C3304 C 0.48362 0.50433 0.99331 0.0
C3305 C 0.52811 0.52538 1.00001 0.0
C3306 C 0.46254 0.51582 0.99505 0.0
C3307 C 0.45088 0.52766 0.98705 0.0
C3308 C 0.46007 0.52799 0.9772 0.0
C3309 C 0.48089 0.51603 0.97539 0.0
C3310 C 0.49257 0.50421 0.98339 0.0
H3311 H 0.54148 0.53395 0.00488 0.0
H3312 H 0.5359 0.51969 0.99266 0.0
H3313 H 0.5152 0.54039 0.99843 0.0
H3314 H 0.45531 0.516 0.00263 0.0
H3315 H 0.4348 0.53681 0.98856 0.0
H3316 H 0.05936 0.45966 0.48727 0.0
H3317 H 0.03668 0.47918 0.50092 0.0
H3318 H 0.98798 0.50463 0.47865 0.0
H3319 H 0.0105 0.48464 0.46504 0.0
H3320 H 0.02342 0.53018 0.50359 0.0
H3321 H 0.94906 0.466 0.49932 0.0
H3322 H 0.97593 0.45888 0.49352 0.0
H3323 H 0.95732 0.48213 0.48779 0.0
C3324 C 0.04378 0.46944 0.48535 0.0
C3325 C 0.03647 0.47065 0.4752 0.0
C3326 C 0.03089 0.48055 0.49311 0.0
C3327 C 0.01047 0.49296 0.49081 0.0
C3328 C 0.00343 0.49465 0.48061 0.0
H3329 H 0.91144 0.57631 0.52665 0.0
H3330 H 0.93327 0.55527 0.51305 0.0
C3331 C 0.01631 0.48346 0.47285 0.0
C3332 C 0.99673 0.50441 0.4991 0.0
H3333 H 0.94507 0.50171 0.51054 0.0
C3334 C 0.00633 0.52388 0.50515 0.0
C3335 C 0.97444 0.49612 0.50111 0.0
C3336 C 0.9636 0.47447 0.49516 0.0
C3337 C 0.9941 0.53564 0.51304 0.0
C3338 C 0.9718 0.5274 0.51503 0.0
C3339 C 0.96218 0.50795 0.50899 0.0
C3340 C 0.95813 0.53901 0.52328 0.0
C3341 C 0.00495 0.55714 0.51907 0.0
C3342 C 0.96464 0.53631 0.53352 0.0
C3343 C 0.95217 0.54821 0.54125 0.0
C3344 C 0.93303 0.56284 0.53882 0.0
C3345 C 0.92617 0.56501 0.52863 0.0
C3346 C 0.9386 0.55307 0.5209 0.0
H3347 H 0.02001 0.5651 0.51513 0.0
H3348 H 0.9928 0.5731 0.52043 0.0
H3349 H 0.01039 0.54956 0.52659 0.0
H3350 H 0.97946 0.52519 0.53551 0.0
H3351 H 0.95765 0.54639 0.54909 0.0
H3352 H 0.01214 0.51412 0.03678 0.0
H3353 H 0.99029 0.4922 0.02339 0.0
H3354 H 0.04337 0.50777 0.00176 0.0
H3355 H 0.06522 0.52944 0.01518 0.0
H3356 H 0.97552 0.51449 0.00482 0.0
H3357 H 0.03127 0.43001 0.9981 0.0
H3358 H 0.03324 0.44981 0.0094 0.0
H3359 H 0.04528 0.46076 0.9976 0.0
C3360 C 0.01913 0.51248 0.02918 0.0
C3361 C 0.04027 0.52315 0.02693 0.0
C3362 C 0.0067 0.50011 0.02156 0.0
C3363 C 0.01535 0.49811 0.01162 0.0
C3364 C 0.03659 0.50868 0.00942 0.0
H3365 H 0.96628 0.43681 0.9542 0.0
H3366 H 0.98773 0.45844 0.96779 0.0
C3367 C 0.04899 0.52108 0.01703 0.0
C3368 C 0.00177 0.48598 0.00346 0.0
H3369 H 0.00162 0.43655 0.98623 0.0
C3370 C 0.98113 0.49736 0.00079 0.0
C3371 C 0.00922 0.46372 0.9982 0.0
C3372 C 0.03087 0.45017 0.00101 0.0
C3373 C 0.9679 0.48733 0.99285 0.0
C3374 C 0.97537 0.46507 0.98758 0.0
C3375 C 0.99598 0.45366 0.99027 0.0
C3376 C 0.96197 0.45315 0.97929 0.0
C3377 C 0.94632 0.50098 0.99001 0.0
C3378 C 0.94046 0.44301 0.98128 0.0
C3379 C 0.92827 0.43082 0.97354 0.0
C3380 C 0.93749 0.42851 0.96375 0.0
C3381 C 0.95891 0.43867 0.96172 0.0
C3382 C 0.97111 0.45088 0.96945 0.0
H3383 H 0.94601 0.52117 0.99289 0.0
H3384 H 0.94396 0.50129 0.98161 0.0
H3385 H 0.93186 0.49053 0.99343 0.0
H3386 H 0.9333 0.44408 0.98886 0.0
H3387 H 0.91183 0.42278 0.97522 0.0
H3388 H 0.59453 0.56179 0.47243 0.0
H3389 H 0.57263 0.53908 0.48559 0.0
H3390 H 0.51113 0.5586 0.46981 0.0
H3391 H 0.5331 0.58084 0.45659 0.0
H3392 H 0.54003 0.55975 0.49829 0.0
H3393 H 0.50369 0.4813 0.47462 0.0
H3394 H 0.52705 0.50089 0.47039 0.0
H3395 H 0.49872 0.51309 0.46964 0.0
C3396 C 0.57635 0.56082 0.47175 0.0
C3397 C 0.56539 0.5727 0.46352 0.0
C3398 C 0.56388 0.54799 0.47925 0.0
C3399 C 0.54027 0.54681 0.4786 0.0
C3400 C 0.52934 0.55874 0.47035 0.0
H3401 H 0.43332 0.48749 0.51729 0.0
H3402 H 0.45585 0.50925 0.5041 0.0
C3403 C 0.54182 0.57151 0.46284 0.0
C3404 C 0.52701 0.5341 0.48678 0.0
H3405 H 0.48851 0.48638 0.49129 0.0
C3406 C 0.52887 0.5436 0.49678 0.0
C3407 C 0.51242 0.51308 0.48478 0.0
C3408 C 0.51046 0.5013 0.4743 0.0
C3409 C 0.51621 0.53296 0.50479 0.0
C3410 C 0.50154 0.51204 0.50278 0.0
C3411 C 0.49971 0.50249 0.4928 0.0
C3412 C 0.48799 0.49966 0.51093 0.0
C3413 C 0.51824 0.54459 0.5153 0.0
C3414 C 0.4986 0.487 0.5191 0.0
C3415 C 0.48577 0.47468 0.5266 0.0
C3416 C 0.46217 0.47478 0.52602 0.0
C3417 C 0.45153 0.48742 0.51788 0.0
C3418 C 0.46435 0.49972 0.51037 0.0
H3419 H 0.52571 0.56426 0.51506 0.0
H3420 H 0.50153 0.5457 0.51908 0.0
H3421 H 0.52934 0.53219 0.52004 0.0
H3422 H 0.51681 0.48629 0.51957 0.0
H3423 H 0.49423 0.46479 0.53279 0.0
H3424 H 0.11254 0.05964 0.2847 0.0
H3425 H 0.11478 0.03037 0.2701 0.0
H3426 H 0.18578 0.04619 0.26723 0.0
H3427 H 0.18367 0.07622 0.28161 0.0
H3428 H 0.13535 0.04705 0.24905 0.0
H3429 H 0.17536 0.96305 0.26854 0.0
H3430 H 0.1584 0.9863 0.27538 0.0
H3431 H 0.186 0.99505 0.27106 0.0
C3432 C 0.12863 0.05709 0.28094 0.0
C3433 C 0.14792 0.0704 0.28434 0.0
C3434 C 0.12988 0.04023 0.27264 0.0
C3435 C 0.15044 0.03612 0.26766 0.0
C3436 C 0.1698 0.049 0.27106 0.0
H3437 H 0.18498 0.93024 0.21839 0.0
H3438 H 0.18651 0.96161 0.23231 0.0
C3439 C 0.16856 0.06602 0.27932 0.0
C3440 C 0.15145 0.01894 0.25868 0.0
H3441 H 0.16764 0.95875 0.25102 0.0
C3442 C 0.14243 0.02775 0.24944 0.0
C3443 C 0.16093 0.99397 0.25925 0.0
C3444 C 0.1707 0.9838 0.26908 0.0
C3445 C 0.14258 0.01212 0.2407 0.0
C3446 C 0.15142 0.98675 0.24132 0.0
C3447 C 0.1608 0.97815 0.25056 0.0
C3448 C 0.15057 0.96857 0.23258 0.0
C3449 C 0.13359 0.02311 0.23085 0.0
C3450 C 0.12985 0.96198 0.22813 0.0
C3451 C 0.12894 0.94435 0.22008 0.0
C3452 C 0.14872 0.93262 0.21639 0.0
C3453 C 0.16946 0.9392 0.22091 0.0
C3454 C 0.17036 0.95698 0.22893 0.0
H3455 H 0.13428 0.04457 0.23083 0.0
H3456 H 0.14321 0.01581 0.22418 0.0
H3457 H 0.1157 0.01733 0.22994 0.0
H3458 H 0.11429 0.97022 0.23097 0.0
H3459 H 0.1127 0.93996 0.21674 0.0
H3460 H 0.18643 0.91776 0.5308 0.0
H3461 H 0.21409 0.91595 0.51701 0.0
H3462 H 0.2205 0.83366 0.52119 0.0
H3463 H 0.1932 0.83528 0.53516 0.0
H3464 H 0.25995 0.89581 0.51803 0.0
H3465 H 0.20556 0.84375 0.49025 0.0
H3466 H 0.19427 0.86044 0.50121 0.0
H3467 H 0.20777 0.82965 0.50274 0.0
C3468 C 0.19391 0.89929 0.52889 0.0
C3469 C 0.18758 0.87665 0.5341 0.0
C3470 C 0.20958 0.89829 0.52096 0.0
C3471 C 0.21907 0.87464 0.51803 0.0
C3472 C 0.21303 0.85203 0.52324 0.0
H3473 H 0.31358 0.83236 0.47023 0.0
H3474 H 0.28647 0.83227 0.48428 0.0
C3475 C 0.19741 0.853 0.53121 0.0
C3476 C 0.23554 0.87377 0.50958 0.0
H3477 H 0.2432 0.85172 0.4853 0.0
C3478 C 0.25633 0.88621 0.51087 0.0
C3479 C 0.2307 0.86114 0.50028 0.0
C3480 C 0.20832 0.84811 0.49845 0.0
C3481 C 0.2726 0.88612 0.50311 0.0
C3482 C 0.26767 0.87379 0.49374 0.0
C3483 C 0.2469 0.86119 0.49249 0.0
C3484 C 0.28379 0.87391 0.48512 0.0
C3485 C 0.29507 0.89883 0.5051 0.0
C3486 C 0.29091 0.89734 0.48081 0.0
C3487 C 0.30656 0.89748 0.47287 0.0
C3488 C 0.31522 0.87415 0.46898 0.0
C3489 C 0.30755 0.85068 0.47314 0.0
C3490 C 0.29195 0.85057 0.48113 0.0
H3491 H 0.29848 0.90074 0.51339 0.0
H3492 H 0.30903 0.8877 0.50156 0.0
H3493 H 0.29501 0.91852 0.50175 0.0
H3494 H 0.28445 0.91555 0.48364 0.0
H3495 H 0.31222 0.91591 0.46992 0.0
H3496 H 0.31278 0.07185 0.71884 0.0
H3497 H 0.3112 0.04089 0.73294 0.0
H3498 H 0.38361 0.03482 0.73265 0.0
H3499 H 0.38542 0.06507 0.71837 0.0
H3500 H 0.33174 0.98748 0.73369 0.0
H3501 H 0.36481 0.05601 0.76272 0.0
H3502 H 0.35216 0.06669 0.75092 0.0
H3503 H 0.3803 0.054 0.75095 0.0
C3504 C 0.32838 0.06368 0.72166 0.0
C3505 C 0.34925 0.07114 0.71748 0.0
C3506 C 0.32742 0.04612 0.72977 0.0
C3507 C 0.3473 0.03588 0.7339 0.0
C3508 C 0.3681 0.04285 0.72966 0.0
H3509 H 0.38429 0.937 0.78414 0.0
H3510 H 0.38269 0.96714 0.76984 0.0
C3511 C 0.36908 0.06025 0.72152 0.0
C3512 C 0.34641 0.01789 0.74267 0.0
H3513 H 0.36056 0.01245 0.7678 0.0
C3514 C 0.33788 0.99291 0.74118 0.0
C3515 C 0.35453 0.0251 0.75239 0.0
C3516 C 0.36334 0.05196 0.75443 0.0
C3517 C 0.33785 0.97462 0.7491 0.0
C3518 C 0.34604 0.9818 0.75885 0.0
C3519 C 0.3543 0.00695 0.76034 0.0
C3520 C 0.34674 0.96337 0.76753 0.0
C3521 C 0.32978 0.94756 0.74685 0.0
C3522 C 0.32701 0.95146 0.77111 0.0
C3523 C 0.32791 0.93387 0.7792 0.0
C3524 C 0.34854 0.92806 0.78399 0.0
C3525 C 0.36818 0.94055 0.78053 0.0
C3526 C 0.36728 0.95798 0.7724 0.0
H3527 H 0.33005 0.94333 0.73855 0.0
H3528 H 0.3403 0.93297 0.75083 0.0
H3529 H 0.31215 0.94544 0.74954 0.0
H3530 H 0.31088 0.95575 0.76764 0.0
H3531 H 0.31247 0.92452 0.78159 0.0
H3532 H 0.31185 0.16858 0.0329 0.0
H3533 H 0.28435 0.17091 0.01899 0.0
H3534 H 0.28558 0.0879 0.01626 0.0
H3535 H 0.31323 0.08536 0.03001 0.0
H3536 H 0.28886 0.15148 0.99853 0.0
H3537 H 0.21798 0.10563 0.01944 0.0
H3538 H 0.24245 0.11859 0.02583 0.0
H3539 H 0.24385 0.08761 0.01968 0.0
C3540 C 0.30635 0.15083 0.02931 0.0
C3541 C 0.3146 0.12676 0.03262 0.0
C3542 C 0.29059 0.1522 0.0214 0.0
C3543 C 0.28273 0.12955 0.01673 0.0
C3544 C 0.2911 0.10556 0.01993 0.0
H3545 H 0.18958 0.08901 0.96901 0.0
H3546 H 0.21806 0.09006 0.98243 0.0
C3547 C 0.30685 0.10415 0.0278 0.0
C3548 C 0.26604 0.13091 0.00837 0.0
H3549 H 0.21313 0.11164 0.00163 0.0
C3550 C 0.27222 0.14297 0.99921 0.0
C3551 C 0.24442 0.11971 0.00931 0.0
C3552 C 0.23663 0.10734 0.01912 0.0
C3553 C 0.25751 0.1435 0.99083 0.0
C3554 C 0.23595 0.13208 0.99174 0.0
C3555 C 0.2297 0.1203 0.00095 0.0
C3556 C 0.21963 0.13178 0.98321 0.0
C3557 C 0.26542 0.15556 0.98099 0.0
C3558 C 0.21109 0.15491 0.97918 0.0
C3559 C 0.19495 0.1544 0.97143 0.0
C3560 C 0.18694 0.13071 0.9676 0.0
C3561 C 0.19564 0.10758 0.97164 0.0
C3562 C 0.21179 0.10813 0.97937 0.0
H3563 H 0.28406 0.15752 0.98075 0.0
H3564 H 0.2599 0.14393 0.97432 0.0
H3565 H 0.25802 0.17516 0.98026 0.0
H3566 H 0.21663 0.17337 0.98216 0.0
H3567 H 0.1887 0.17255 0.96844 0.0
H3568 H 0.80583 0.08953 0.77574 0.0
H3569 H 0.80425 0.05682 0.76217 0.0
H3570 H 0.86791 0.02584 0.77235 0.0
H3571 H 0.86914 0.05815 0.78606 0.0
H3572 H 0.83332 0.04838 0.74638 0.0
H3573 H 0.82878 0.96156 0.77105 0.0
H3574 H 0.8244 0.99383 0.77589 0.0
H3575 H 0.85251 0.98189 0.77382 0.0
C3576 C 0.81935 0.07557 0.77507 0.0
C3577 C 0.83757 0.07614 0.78188 0.0
C3578 C 0.81849 0.05699 0.76734 0.0
C3579 C 0.8358 0.03865 0.76634 0.0
C3580 C 0.85413 0.03942 0.77312 0.0
H3581 H 0.86607 0.9458 0.71286 0.0
H3582 H 0.86527 0.97851 0.72642 0.0
C3583 C 0.85493 0.05793 0.78087 0.0
C3584 C 0.83494 0.01916 0.75805 0.0
H3585 H 0.8357 0.95423 0.7534 0.0
C3586 C 0.83374 0.02779 0.74791 0.0
C3587 C 0.83513 0.99229 0.76006 0.0
C3588 C 0.83505 0.98179 0.77079 0.0
C3589 C 0.83319 0.0103 0.73973 0.0
C3590 C 0.83433 0.98346 0.74173 0.0
C3591 C 0.83506 0.97482 0.75187 0.0
C3592 C 0.83473 0.96398 0.73343 0.0
C3593 C 0.83103 0.02074 0.72903 0.0
C3594 C 0.81817 0.94461 0.73299 0.0
C3595 C 0.8188 0.92583 0.72534 0.0
C3596 C 0.83605 0.92608 0.71803 0.0
C3597 C 0.8526 0.9454 0.71843 0.0
C3598 C 0.85204 0.96412 0.72611 0.0
H3599 H 0.8239 0.0406 0.72899 0.0
H3600 H 0.84797 0.0216 0.72547 0.0
H3601 H 0.82015 0.00812 0.72428 0.0
H3602 H 0.80473 0.94407 0.73858 0.0
H3603 H 0.80592 0.911 0.72515 0.0
H3604 H 0.67537 0.11097 0.52503 0.0
H3605 H 0.70893 0.10964 0.51422 0.0
H3606 H 0.70114 0.02725 0.51073 0.0
H3607 H 0.6676 0.02841 0.52158 0.0
H3608 H 0.74445 0.04113 0.51544 0.0
H3609 H 0.71224 0.10063 0.48345 0.0
H3610 H 0.70996 0.1163 0.49561 0.0
H3611 H 0.69402 0.0874 0.49316 0.0
C3612 C 0.68064 0.09263 0.52185 0.0
C3613 C 0.66881 0.06981 0.52413 0.0
C3614 C 0.69979 0.0919 0.51567 0.0
C3615 C 0.70731 0.06841 0.51155 0.0
C3616 C 0.69557 0.04559 0.51382 0.0
H3617 H 0.80859 0.05442 0.46393 0.0
H3618 H 0.774 0.0525 0.47402 0.0
C3619 C 0.67647 0.04627 0.52004 0.0
C3620 C 0.72789 0.06749 0.50517 0.0
H3621 H 0.75169 0.09204 0.48356 0.0
C3622 C 0.746 0.05214 0.50843 0.0
C3623 C 0.72974 0.08158 0.49597 0.0
C3624 C 0.71038 0.09721 0.49177 0.0
C3625 C 0.76615 0.05095 0.50285 0.0
C3626 C 0.76835 0.06593 0.49389 0.0
C3627 C 0.75004 0.08081 0.4905 0.0
C3628 C 0.7895 0.06646 0.4879 0.0
C3629 C 0.78476 0.03342 0.50655 0.0
C3630 C 0.80963 0.07512 0.49234 0.0
C3631 C 0.82948 0.07599 0.48663 0.0
C3632 C 0.82952 0.06844 0.47632 0.0
C3633 C 0.80924 0.05997 0.47188 0.0
C3634 C 0.78942 0.05904 0.47762 0.0
H3635 H 0.77823 0.01811 0.51169 0.0
H3636 H 0.79359 0.02409 0.50005 0.0
H3637 H 0.79724 0.045 0.51088 0.0
H3638 H 0.80997 0.08142 0.50021 0.0
H3639 H 0.84483 0.08241 0.49031 0.0
H3640 H 0.68983 0.10162 0.22631 0.0
H3641 H 0.69244 0.0693 0.24002 0.0
H3642 H 0.63638 0.02785 0.22693 0.0
H3643 H 0.6343 0.05963 0.2131 0.0
H3644 H 0.66201 0.05509 0.25447 0.0
H3645 H 0.68235 0.97097 0.23009 0.0
H3646 H 0.68338 0.00375 0.22543 0.0
H3647 H 0.65691 0.98687 0.2262 0.0
C3648 C 0.67813 0.08555 0.22641 0.0
C3649 C 0.66169 0.08315 0.21879 0.0
C3650 C 0.6796 0.06714 0.23422 0.0
C3651 C 0.66479 0.04594 0.23444 0.0
C3652 C 0.64828 0.04371 0.22682 0.0
H3653 H 0.63132 0.94817 0.28605 0.0
H3654 H 0.63274 0.98151 0.27275 0.0
C3655 C 0.64691 0.06198 0.219 0.0
C3656 C 0.66626 0.02642 0.24273 0.0
H3657 H 0.67101 0.9616 0.24718 0.0
C3658 C 0.66415 0.03466 0.25288 0.0
C3659 C 0.66944 0.9998 0.24068 0.0
C3660 C 0.67339 0.98983 0.23002 0.0
C3661 C 0.66447 0.01697 0.26102 0.0
C3662 C 0.66644 0.99021 0.25892 0.0
C3663 C 0.6692 0.98206 0.24879 0.0
C3664 C 0.66563 0.97031 0.2671 0.0
C3665 C 0.663 0.02718 0.27177 0.0
C3666 C 0.68331 0.95245 0.26818 0.0
C3667 C 0.6823 0.93319 0.27565 0.0
C3668 C 0.6636 0.93145 0.28216 0.0
C3669 C 0.64592 0.94926 0.28111 0.0
C3670 C 0.64684 0.96841 0.27359 0.0
H3671 H 0.66855 0.04766 0.27222 0.0
H3672 H 0.64523 0.0263 0.27437 0.0
H3673 H 0.67344 0.01551 0.27707 0.0
H3674 H 0.69791 0.95342 0.26324 0.0
H3675 H 0.69608 0.91956 0.27634 0.0
H3676 H 0.65249 0.91789 0.99045 0.0
H3677 H 0.68695 0.91799 1.00065 0.0
H3678 H 0.72488 0.94393 0.97455 0.0
H3679 H 0.69076 0.94273 0.96416 0.0
H3680 H 0.7459 0.90488 0.98449 0.0
H3681 H 0.71971 0.98038 0.01203 0.0
H3682 H 0.70038 0.95377 0.01131 0.0
H3683 H 0.70451 0.97419 1.00037 0.0
C3684 C 0.66818 0.92343 0.98685 0.0
C3685 C 0.66881 0.93041 0.97648 0.0
C3686 C 0.68781 0.92382 0.99273 0.0
C3687 C 0.7084 0.93144 0.98841 0.0
C3688 C 0.70913 0.93821 0.97806 0.0
H3689 H 0.83029 0.97022 0.02182 0.0
H3690 H 0.7963 0.97085 0.01126 0.0
C3691 C 0.68955 0.93771 0.97216 0.0
C3692 C 0.72933 0.93166 0.99457 0.0
H3693 H 0.75321 0.95717 0.016 0.0
C3694 C 0.74755 0.91639 0.99136 0.0
C3695 C 0.73155 0.94699 0.00345 0.0
C3696 C 0.71309 0.96497 0.00696 0.0
C3697 C 0.76781 0.9157 0.99686 0.0
C3698 C 0.7697 0.93022 0.00596 0.0
C3699 C 0.75163 0.94583 0.00909 0.0
C3700 C 0.79035 0.92967 0.01231 0.0
C3701 C 0.78711 0.89979 0.99278 0.0
C3702 C 0.79814 0.90636 0.0165 0.0
C3703 C 0.81759 0.90593 0.0225 0.0
C3704 C 0.82944 0.92888 0.02454 0.0
C3705 C 0.82143 0.95226 0.02045 0.0
C3706 C 0.80206 0.95263 0.01439 0.0
H3707 H 0.78526 0.89601 0.98448 0.0
H3708 H 0.80351 0.90957 0.9941 0.0
H3709 H 0.78745 0.88086 0.99675 0.0
H3710 H 0.78905 0.88851 0.01521 0.0
H3711 H 0.82312 0.88771 0.0257 0.0
H3712 H 0.68641 0.42808 0.71878 0.0
H3713 H 0.68848 0.45777 0.73329 0.0
H3714 H 0.61695 0.47106 0.73125 0.0
H3715 H 0.61473 0.44214 0.71656 0.0
H3716 H 0.67071 0.51356 0.73419 0.0
H3717 H 0.6316 0.44453 0.76147 0.0
H3718 H 0.6453 0.43412 0.74988 0.0
H3719 H 0.6178 0.44844 0.74935 0.0
C3720 C 0.67116 0.43762 0.72129 0.0
C3721 C 0.65037 0.43256 0.71651 0.0
C3722 C 0.67237 0.45443 0.72963 0.0
C3723 C 0.65283 0.46629 0.73338 0.0
C3724 C 0.63216 0.46177 0.72853 0.0
H3725 H 0.61442 0.56288 0.78374 0.0
H3726 H 0.61686 0.53342 0.76926 0.0
C3727 C 0.63093 0.44513 0.72016 0.0
C3728 C 0.65387 0.48328 0.74243 0.0
H3729 H 0.6376 0.48717 0.76733 0.0
C3730 C 0.66365 0.50781 0.74147 0.0
C3731 C 0.64456 0.47562 0.75187 0.0
C3732 C 0.63433 0.44918 0.7533 0.0
C3733 C 0.66373 0.52532 0.74966 0.0
C3734 C 0.65428 0.51773 0.75912 0.0
C3735 C 0.64484 0.49296 0.76009 0.0
C3736 C 0.65316 0.5355 0.76799 0.0
C3737 C 0.67316 0.55207 0.74799 0.0
C3738 C 0.67281 0.54617 0.77222 0.0
C3739 C 0.67145 0.56338 0.78042 0.0
C3740 C 0.65042 0.57003 0.78464 0.0
C3741 C 0.63085 0.55866 0.78056 0.0
C3742 C 0.63222 0.54162 0.77233 0.0
H3743 H 0.67418 0.55696 0.73975 0.0
H3744 H 0.66271 0.56689 0.75187 0.0
H3745 H 0.69046 0.55302 0.75118 0.0
H3746 H 0.6892 0.54126 0.76915 0.0
H3747 H 0.68686 0.57185 0.78331 0.0
H3748 H 0.84637 0.35525 0.98198 0.0
H3749 H 0.81992 0.35407 0.99628 0.0
H3750 H 0.76581 0.37616 0.97614 0.0
H3751 H 0.79202 0.37671 0.96174 0.0
H3752 H 0.79393 0.39533 0.00352 0.0
H3753 H 0.74017 0.31321 0.99134 0.0
H3754 H 0.76758 0.31939 0.98587 0.0
H3755 H 0.74354 0.33786 0.98182 0.0
C3756 C 0.82876 0.35939 0.98056 0.0
C3757 C 0.82126 0.36595 0.97072 0.0
C3758 C 0.81372 0.35888 0.98874 0.0
C3759 C 0.79089 0.36472 0.98724 0.0
C3760 C 0.78331 0.37116 0.97743 0.0
H3761 H 0.68947 0.41596 0.02922 0.0
H3762 H 0.71928 0.41162 0.01649 0.0
C3763 C 0.79834 0.37173 0.96924 0.0
C3764 C 0.7752 0.36521 0.996 0.0
H3765 H 0.72636 0.33901 0.00504 0.0
C3766 C 0.77925 0.38289 0.0039 0.0
C3767 C 0.75624 0.34872 0.99653 0.0
C3768 C 0.75167 0.32854 0.98849 0.0
C3769 C 0.76442 0.38509 0.01218 0.0
C3770 C 0.74493 0.36938 0.01249 0.0
C3771 C 0.74126 0.35114 0.00475 0.0
C3772 C 0.72768 0.37226 0.02055 0.0
C3773 C 0.76971 0.40418 0.02054 0.0
C3774 C 0.72238 0.35144 0.02697 0.0
C3775 C 0.70522 0.3538 0.03422 0.0
C3776 C 0.69293 0.37694 0.03507 0.0
C3777 C 0.6985 0.39782 0.02869 0.0
C3778 C 0.71567 0.39547 0.02148 0.0
H3779 H 0.78788 0.40935 0.02064 0.0
H3780 H 0.75993 0.42216 0.01924 0.0
H3781 H 0.76499 0.39635 0.02813 0.0
H3782 H 0.73138 0.33331 0.02631 0.0
H3783 H 0.70114 0.3373 0.03895 0.0
H3784 H 0.81364 0.42344 0.28131 0.0
H3785 H 0.81251 0.45405 0.26709 0.0
H3786 H 0.88438 0.46447 0.2693 0.0
H3787 H 0.88568 0.43461 0.28372 0.0
H3788 H 0.83156 0.50906 0.26695 0.0
H3789 H 0.86935 0.44152 0.23872 0.0
H3790 H 0.85539 0.43041 0.25015 0.0
H3791 H 0.88315 0.444 0.2509 0.0
C3792 C 0.82919 0.43249 0.27889 0.0
C3793 C 0.84978 0.42641 0.28367 0.0
C3794 C 0.8285 0.44985 0.27072 0.0
C3795 C 0.84839 0.46124 0.2671 0.0
C3796 C 0.86889 0.45557 0.27191 0.0
H3797 H 0.88728 0.56078 0.21748 0.0
H3798 H 0.88499 0.53046 0.23169 0.0
C3799 C 0.8696 0.43838 0.28012 0.0
C3800 C 0.84779 0.47909 0.25829 0.0
H3801 H 0.86383 0.48467 0.23341 0.0
C3802 C 0.83847 0.50376 0.25958 0.0
C3803 C 0.8569 0.47204 0.24874 0.0
C3804 C 0.86666 0.4455 0.24695 0.0
C3805 C 0.83859 0.52193 0.25162 0.0
C3806 C 0.84774 0.51491 0.24203 0.0
C3807 C 0.8568 0.49005 0.24074 0.0
C3808 C 0.8488 0.5333 0.23334 0.0
C3809 C 0.82964 0.54874 0.25367 0.0
C3810 C 0.82917 0.54471 0.22941 0.0
C3811 C 0.83045 0.56243 0.22138 0.0
C3812 C 0.85139 0.56886 0.217 0.0
C3813 C 0.87093 0.55677 0.22078 0.0
C3814 C 0.86964 0.53923 0.22886 0.0
H3815 H 0.82908 0.55305 0.26197 0.0
H3816 H 0.84013 0.56364 0.24986 0.0
H3817 H 0.81222 0.55024 0.25067 0.0
H3818 H 0.81283 0.53998 0.23258 0.0
H3819 H 0.81506 0.57144 0.21873 0.0
H3820 H 0.66522 0.65348 0.47924 0.0
H3821 H 0.6936 0.65484 0.49271 0.0
H3822 H 0.74124 0.61707 0.47285 0.0
H3823 H 0.71324 0.61656 0.45918 0.0
H3824 H 0.71413 0.6135 0.50176 0.0
H3825 H 0.77788 0.67745 0.48387 0.0
H3826 H 0.7495 0.67454 0.47905 0.0
H3827 H 0.77017 0.65024 0.47613 0.0
C3828 C 0.68188 0.64597 0.47764 0.0
C3829 C 0.68697 0.63504 0.4681 0.0
C3830 C 0.69802 0.64657 0.48538 0.0
C3831 C 0.71961 0.63635 0.48374 0.0
C3832 C 0.72482 0.62551 0.47422 0.0
H3833 H 0.81415 0.58574 0.52978 0.0
H3834 H 0.78637 0.58911 0.5161 0.0
C3835 C 0.7087 0.62496 0.46646 0.0
C3836 C 0.73622 0.63585 0.49217 0.0
H3837 H 0.78911 0.65528 0.49896 0.0
C3838 C 0.73048 0.62275 0.50117 0.0
C3839 C 0.75743 0.64818 0.49142 0.0
C3840 C 0.76408 0.66361 0.48214 0.0
C3841 C 0.74554 0.62123 0.50939 0.0
C3842 C 0.76707 0.63275 0.5085 0.0
C3843 C 0.77266 0.64629 0.49958 0.0
C3844 C 0.78405 0.63081 0.51673 0.0
C3845 C 0.73816 0.60758 0.51899 0.0
C3846 C 0.79239 0.65319 0.52145 0.0
C3847 C 0.80833 0.65134 0.52927 0.0
C3848 C 0.81623 0.62705 0.53248 0.0
C3849 C 0.80804 0.6047 0.52763 0.0
C3850 C 0.79218 0.60658 0.51981 0.0
H3851 H 0.71951 0.60614 0.51949 0.0
H3852 H 0.7451 0.58767 0.51901 0.0
H3853 H 0.74448 0.61773 0.52588 0.0
H3854 H 0.78638 0.67208 0.51915 0.0
H3855 H 0.81421 0.66889 0.53289 0.0
H3856 H 0.30768 0.58896 0.2762 0.0
H3857 H 0.30654 0.556 0.26272 0.0
H3858 H 0.36662 0.52097 0.27508 0.0
H3859 H 0.36735 0.55355 0.28869 0.0
H3860 H 0.33748 0.54583 0.24802 0.0
H3861 H 0.32532 0.45911 0.27217 0.0
H3862 H 0.32165 0.49151 0.27697 0.0
H3863 H 0.34943 0.47788 0.27581 0.0
C3864 C 0.32046 0.57401 0.27605 0.0
C3865 C 0.33757 0.57358 0.28342 0.0
C3866 C 0.31986 0.55528 0.26837 0.0
C3867 C 0.33632 0.53579 0.26797 0.0
C3868 C 0.35346 0.53545 0.27536 0.0
H3869 H 0.37231 0.44284 0.21527 0.0
H3870 H 0.37035 0.47504 0.229 0.0
C3871 C 0.35399 0.5541 0.28307 0.0
C3872 C 0.33602 0.51643 0.25962 0.0
H3873 H 0.33534 0.45157 0.25481 0.0
C3874 C 0.33688 0.52522 0.2495 0.0
C3875 C 0.3349 0.48955 0.26155 0.0
C3876 C 0.33254 0.47892 0.27221 0.0
C3877 C 0.33716 0.50787 0.24127 0.0
C3878 C 0.33707 0.48097 0.24321 0.0
C3879 C 0.33569 0.47219 0.25332 0.0
C3880 C 0.33832 0.4616 0.23488 0.0
C3881 C 0.3372 0.51855 0.23056 0.0
C3882 C 0.32129 0.44294 0.23379 0.0
C3883 C 0.32258 0.4244 0.22606 0.0
C3884 C 0.34095 0.42418 0.21933 0.0
C3885 C 0.358 0.44276 0.2204 0.0
C3886 C 0.35678 0.46121 0.22817 0.0
H3887 H 0.33067 0.53867 0.23033 0.0
H3888 H 0.35473 0.51882 0.22763 0.0
H3889 H 0.32684 0.50643 0.22538 0.0
H3890 H 0.30696 0.4428 0.2389 0.0
H3891 H 0.30928 0.41018 0.22533 0.0
H3892 H 0.32531 0.60987 0.9769 0.0
H3893 H 0.29109 0.60801 0.98723 0.0
H3894 H 0.29373 0.52474 0.98683 0.0
H3895 H 0.3285 0.52639 0.97685 0.0
H3896 H 0.25014 0.58545 0.98255 0.0
H3897 H 0.28746 0.54062 0.01714 0.0
H3898 H 0.30447 0.55437 0.0071 0.0
H3899 H 0.29216 0.52287 0.00557 0.0
C3900 C 0.31883 0.59115 0.97914 0.0
C3901 C 0.32976 0.56828 0.97611 0.0
C3902 C 0.29917 0.59013 0.98497 0.0
C3903 C 0.29008 0.56626 0.98792 0.0
C3904 C 0.30072 0.54337 0.9848 0.0
H3905 H 0.17018 0.52641 0.02285 0.0
H3906 H 0.20395 0.52517 0.01215 0.0
C3907 C 0.32043 0.54436 0.97899 0.0
C3908 C 0.26919 0.56543 0.99408 0.0
H3909 H 0.24779 0.54567 0.01696 0.0
C3910 C 0.24962 0.57679 0.99008 0.0
C3911 C 0.26859 0.55405 0.00389 0.0
C3912 C 0.28932 0.54248 0.00874 0.0
C3913 C 0.2294 0.57701 0.99562 0.0
C3914 C 0.22886 0.56584 0.00544 0.0
C3915 C 0.24832 0.55418 0.0094 0.0
C3916 C 0.20837 0.56665 0.01185 0.0
C3917 C 0.2087 0.58893 0.99087 0.0
C3918 C 0.19991 0.59037 0.01532 0.0
C3919 C 0.18076 0.59116 0.02149 0.0
C3920 C 0.16975 0.56819 0.02435 0.0
C3921 C 0.17839 0.54443 0.02089 0.0
C3922 C 0.1976 0.54367 0.01473 0.0
H3923 H 0.21043 0.59089 0.98247 0.0
H3924 H 0.19348 0.5772 0.99255 0.0
H3925 H 0.20609 0.60851 0.99411 0.0
H3926 H 0.20829 0.60828 0.01333 0.0
H3927 H 0.17483 0.60974 0.02418 0.0
H3928 H 0.17094 0.40568 0.77105 0.0
H3929 H 0.17164 0.43865 0.75755 0.0
H3930 H 0.15704 0.49766 0.77979 0.0
H3931 H 0.15597 0.46461 0.79329 0.0
H3932 H 0.13141 0.47912 0.75444 0.0
H3933 H 0.21725 0.51845 0.76194 0.0
H3934 H 0.20995 0.48541 0.76496 0.0
H3935 H 0.19894 0.51127 0.77255 0.0
C3936 C 0.16796 0.42572 0.77302 0.0
C3937 C 0.1635 0.43277 0.78316 0.0
C3938 C 0.16835 0.44446 0.76534 0.0
C3939 C 0.16452 0.47053 0.76771 0.0
C3940 C 0.16019 0.47764 0.77785 0.0
H3941 H 0.17125 0.60884 0.72957 0.0
H3942 H 0.17018 0.57849 0.74401 0.0
C3943 C 0.1596 0.45886 0.78552 0.0
C3944 C 0.16447 0.49018 0.75952 0.0
H3945 H 0.19658 0.53731 0.74855 0.0
C3946 C 0.14561 0.49189 0.75313 0.0
C3947 C 0.18294 0.50691 0.75795 0.0
C3948 C 0.20354 0.50556 0.76466 0.0
C3949 C 0.14471 0.51 0.74516 0.0
C3950 C 0.16349 0.5263 0.74337 0.0
C3951 C 0.18224 0.52477 0.74989 0.0
C3952 C 0.16417 0.54469 0.73466 0.0
C3953 C 0.12345 0.51178 0.73888 0.0
C3954 C 0.1614 0.53577 0.72463 0.0
C3955 C 0.1618 0.55306 0.71645 0.0
C3956 C 0.1656 0.57949 0.71813 0.0
C3957 C 0.16856 0.58846 0.72813 0.0
C3958 C 0.16795 0.57117 0.73634 0.0
H3959 H 0.10864 0.50429 0.74313 0.0
H3960 H 0.11995 0.53202 0.73656 0.0
H3961 H 0.12542 0.49989 0.7319 0.0
H3962 H 0.15894 0.51539 0.72311 0.0
H3963 H 0.15913 0.54582 0.70879 0.0
H3964 H 0.17443 0.39008 0.47591 0.0
H3965 H 0.20837 0.39109 0.48647 0.0
H3966 H 0.20213 0.47378 0.48947 0.0
H3967 H 0.16821 0.47294 0.47885 0.0
H3968 H 0.24518 0.45884 0.48496 0.0
H3969 H 0.21181 0.40092 0.51713 0.0
H3970 H 0.20937 0.38487 0.50506 0.0
H3971 H 0.19388 0.41419 0.50733 0.0
C3972 C 0.18014 0.40844 0.47892 0.0
C3973 C 0.16858 0.43142 0.4766 0.0
C3974 C 0.19952 0.40898 0.48496 0.0
C3975 C 0.20755 0.43245 0.4889 0.0
C3976 C 0.19616 0.45545 0.48653 0.0
H3977 H 0.30784 0.44529 0.53686 0.0
H3978 H 0.27362 0.4473 0.52655 0.0
C3979 C 0.17684 0.45495 0.48044 0.0
C3980 C 0.22813 0.43307 0.49528 0.0
H3981 H 0.25139 0.40853 0.51702 0.0
C3982 C 0.24652 0.44795 0.492 0.0
C3983 C 0.22971 0.41916 0.50454 0.0
C3984 C 0.21007 0.40409 0.50879 0.0
C3985 C 0.26664 0.44889 0.49761 0.0
C3986 C 0.26854 0.43409 0.50664 0.0
C3987 C 0.24999 0.41963 0.51004 0.0
C3988 C 0.28954 0.43347 0.51275 0.0
C3989 C 0.2855 0.46604 0.49391 0.0
C3990 C 0.30983 0.42483 0.50844 0.0
C3991 C 0.32951 0.42398 0.51428 0.0
C3992 C 0.32924 0.43148 0.52459 0.0
C3993 C 0.30878 0.43983 0.5289 0.0
C3994 C 0.28915 0.4408 0.52304 0.0
H3995 H 0.27919 0.48139 0.48872 0.0
H3996 H 0.2944 0.47534 0.50039 0.0
H3997 H 0.29785 0.4542 0.48961 0.0
H3998 H 0.31042 0.41856 0.50057 0.0
H3999 H 0.34498 0.41764 0.51068 0.0
loop_
_geom_bond_atom_site_label_1
_geom_bond_atom_site_label_2
_geom_bond_distance
_geom_bond_site_symmetry_2
_ccdc_geom_bond_type
C0 C1 1.443 . S
C0 N4 1.376 . S
C0 C38 1.389 . S
C1 C0 1.443 . S
C1 C2 1.340 . S
C1 H41 0.951 . S
C2 C1 1.340 . S
C2 C3 1.439 . S
C2 H42 0.950 . S
C3 C2 1.439 . S
C3 N4 1.374 . S
C3 C37 1.395 . S
N4 C0 1.376 . S
N4 C3 1.374 . S
N4 Co5 2.008 . S
Co5 N4 2.008 . S
Co5 N6 1.995 . S
Co5 N11 2.008 . S
Co5 N16 1.995 . S
Co5 N21 2.282 . S
Co5 N27 2.282 . S
N6 Co5 1.995 . S
N6 C7 1.376 . S
N6 C10 1.383 . S
C7 N6 1.376 . S
C7 C8 1.446 . S
C7 C37 1.391 . S
C8 C7 1.446 . S
C8 C9 1.339 . S
C8 H43 0.949 . S
C9 C8 1.339 . S
C9 C10 1.439 . S
C9 H44 0.950 . S
C10 N6 1.383 . S
C10 C9 1.439 . S
C10 C39 1.392 . S
N11 Co5 2.008 . S
N11 C12 1.376 . S
N11 C15 1.374 . S
C12 N11 1.376 . S
C12 C13 1.443 . S
C12 C39 1.389 . S
C13 C12 1.443 . S
C13 C14 1.340 . S
C13 H45 0.951 . S
C14 C13 1.340 . S
C14 C15 1.439 . S
C14 H46 0.950 . S
C15 N11 1.374 . S
C15 C14 1.439 . S
C15 C40 1.395 . S
N16 Co5 1.995 . S
N16 C17 1.376 . S
N16 C20 1.383 . S
C17 N16 1.376 . S
C17 C18 1.446 . S
C17 C40 1.391 . S
C18 C17 1.446 . S
C18 C19 1.339 . S
C18 H47 0.949 . S
C19 C18 1.339 . S
C19 C20 1.439 . S
C19 H48 0.950 . S
C20 N16 1.383 . S
C20 C19 1.439 . S
C20 C38 1.392 . S
N21 Co5 2.282 . S
N21 C24 1.332 . S
N21 C26 1.332 . S
C22 C23 1.386 . S
C22 C25 1.388 . S
C23 C22 1.386 . S
C23 C24 1.382 . S
C23 H49 0.950 . S
C24 N21 1.332 . S
C24 C23 1.382 . S
C24 H35 0.952 . S
C25 C22 1.388 . S
C25 C26 1.382 . S
C25 H50 0.950 . S
C26 N21 1.332 . S
C26 C25 1.382 . S
C26 H36 0.948 . S
N27 Co5 2.282 . S
N27 C31 1.332 . S
N27 C32 1.332 . S
C28 C29 1.388 . S
C28 C32 1.382 . S
C28 H51 0.950 . S
C29 C28 1.388 . S
C29 C30 1.386 . S
C30 C29 1.386 . S
C30 C31 1.382 . S
C30 H52 0.950 . S
C31 N27 1.332 . S
C31 C30 1.382 . S
C31 H33 0.952 . S
C32 N27 1.332 . S
C32 C28 1.382 . S
C32 H34 0.948 . S
H33 C31 0.952 . S
H34 C32 0.948 . S
H35 C24 0.952 . S
H36 C26 0.948 . S
C37 C3 1.395 . S
C37 C7 1.391 . S
C38 C0 1.389 . S
C38 C20 1.392 . S
C39 C10 1.392 . S
C39 C12 1.389 . S
C40 C15 1.395 . S
C40 C17 1.391 . S
H41 C1 0.951 . S
H42 C2 0.950 . S
H43 C8 0.949 . S
H44 C9 0.950 . S
H45 C13 0.951 . S
H46 C14 0.950 . S
H47 C18 0.949 . S
H48 C19 0.950 . S
H49 C23 0.950 . S
H50 C25 0.950 . S
H51 C28 0.950 . S
H52 C30 0.950 . S
C53 C54 1.443 . S
C53 N57 1.376 . S
C53 C91 1.389 . S
C54 C53 1.443 . S
C54 C55 1.340 . S
C54 H94 0.951 . S
C55 C54 1.340 . S
C55 C56 1.439 . S
C55 H95 0.950 . S
C56 C55 1.439 . S
C56 N57 1.374 . S
C56 C90 1.395 . S
N57 C53 1.376 . S
N57 C56 1.374 . S
N57 Co58 2.008 . S
Co58 N57 2.008 . S
Co58 N59 1.995 . S
Co58 N64 2.008 . S
Co58 N69 1.995 . S
Co58 N74 2.282 . S
Co58 N80 2.282 . S
N59 Co58 1.995 . S
N59 C60 1.376 . S
N59 C63 1.383 . S
C60 N59 1.376 . S
C60 C61 1.446 . S
C60 C90 1.391 . S
C61 C60 1.446 . S
C61 C62 1.339 . S
C61 H96 0.949 . S
C62 C61 1.339 . S
C62 C63 1.439 . S
C62 H97 0.950 . S
C63 N59 1.383 . S
C63 C62 1.439 . S
C63 C92 1.392 . S
N64 Co58 2.008 . S
N64 C65 1.376 . S
N64 C68 1.374 . S
C65 N64 1.376 . S
C65 C66 1.443 1_565 S
C65 C92 1.389 . S
C66 C65 1.443 1_545 S
C66 C67 1.340 . S
C66 H98 0.951 . S
C67 C66 1.340 . S
C67 C68 1.439 1_545 S
C67 H99 0.950 . S
C68 N64 1.374 . S
C68 C67 1.439 1_565 S
C68 C93 1.395 . S
N69 Co58 1.995 . S
N69 C70 1.376 . S
N69 C73 1.383 . S
C70 N69 1.376 . S
C70 C71 1.446 . S
C70 C93 1.391 . S
C71 C70 1.446 . S
C71 C72 1.339 . S
C71 H100 0.949 . S
C72 C71 1.339 . S
C72 C73 1.439 . S
C72 H101 0.950 . S
C73 N69 1.383 . S
C73 C72 1.439 . S
C73 C91 1.392 . S
N74 Co58 2.282 . S
N74 C77 1.332 . S
N74 C79 1.332 . S
C75 C76 1.386 . S
C75 C78 1.388 . S
C76 C75 1.386 . S
C76 C77 1.382 . S
C76 H102 0.950 . S
C77 N74 1.332 . S
C77 C76 1.382 . S
C77 H88 0.952 . S
C78 C75 1.388 . S
C78 C79 1.382 . S
C78 H103 0.950 . S
C79 N74 1.332 . S
C79 C78 1.382 . S
C79 H89 0.948 . S
N80 Co58 2.282 . S
N80 C84 1.332 . S
N80 C85 1.332 . S
C81 C82 1.388 . S
C81 C85 1.382 . S
C81 H104 0.950 . S
C82 C81 1.388 . S
C82 C83 1.386 . S
C83 C82 1.386 . S
C83 C84 1.382 . S
C83 H105 0.950 . S
C84 N80 1.332 . S
C84 C83 1.382 . S
C84 H86 0.952 . S
C85 N80 1.332 . S
C85 C81 1.382 . S
C85 H87 0.948 . S
H86 C84 0.952 . S
H87 C85 0.948 . S
H88 C77 0.952 . S
H89 C79 0.948 . S
C90 C56 1.395 . S
C90 C60 1.391 . S
C91 C53 1.389 . S
C91 C73 1.392 . S
C92 C63 1.392 . S
C92 C65 1.389 . S
C93 C68 1.395 . S
C93 C70 1.391 . S
H94 C54 0.951 . S
H95 C55 0.950 . S
H96 C61 0.949 . S
H97 C62 0.950 . S
H98 C66 0.951 . S
H99 C67 0.950 . S
H100 C71 0.949 . S
H101 C72 0.950 . S
H102 C76 0.950 . S
H103 C78 0.950 . S
H104 C81 0.950 . S
H105 C83 0.950 . S
C106 C107 1.443 . S
C106 N110 1.376 . S
C106 C144 1.389 . S
C107 C106 1.443 . S
C107 C108 1.340 . S
C107 H147 0.951 . S
C108 C107 1.340 . S
C108 C109 1.439 . S
C108 H148 0.950 . S
C109 C108 1.439 . S
C109 N110 1.374 . S
C109 C143 1.395 . S
N110 C106 1.376 . S
N110 C109 1.374 . S
N110 Co111 2.008 . S
Co111 N110 2.008 . S
Co111 N112 1.995 . S
Co111 N117 2.008 . S
Co111 N122 1.995 . S
Co111 N127 2.282 . S
Co111 N133 2.282 . S
N112 Co111 1.995 . S
N112 C113 1.376 . S
N112 C116 1.383 . S
C113 N112 1.376 . S
C113 C114 1.446 . S
C113 C143 1.391 . S
C114 C113 1.446 . S
C114 C115 1.339 . S
C114 H149 0.949 . S
C115 C114 1.339 . S
C115 C116 1.439 . S
C115 H150 0.950 . S
C116 N112 1.383 . S
C116 C115 1.439 . S
C116 C145 1.392 . S
N117 Co111 2.008 . S
N117 C118 1.376 . S
N117 C121 1.374 . S
C118 N117 1.376 . S
C118 C119 1.443 . S
C118 C145 1.389 . S
C119 C118 1.443 . S
C119 C120 1.340 . S
C119 H151 0.951 . S
C120 C119 1.340 . S
C120 C121 1.439 . S
C120 H152 0.950 . S
C121 N117 1.374 . S
C121 C120 1.439 . S
C121 C146 1.395 . S
N122 Co111 1.995 . S
N122 C123 1.376 . S
N122 C126 1.383 . S
C123 N122 1.376 . S
C123 C124 1.446 . S
C123 C146 1.391 . S
C124 C123 1.446 . S
C124 C125 1.339 . S
C124 H153 0.949 . S
C125 C124 1.339 . S
C125 C126 1.439 . S
C125 H154 0.950 . S
C126 N122 1.383 . S
C126 C125 1.439 . S
C126 C144 1.392 . S
N127 Co111 2.282 . S
N127 C130 1.332 . S
N127 C132 1.332 . S
C128 C129 1.386 . S
C128 C131 1.388 . S
C129 C128 1.386 . S
C129 C130 1.382 . S
C129 H155 0.950 . S
C130 N127 1.332 . S
C130 C129 1.382 . S
C130 H141 0.952 . S
C131 C128 1.388 . S
C131 C132 1.382 . S
C131 H156 0.950 . S
C132 N127 1.332 . S
C132 C131 1.382 . S
C132 H142 0.948 . S
N133 Co111 2.282 . S
N133 C137 1.332 . S
N133 C138 1.332 . S
C134 C135 1.388 . S
C134 C138 1.382 . S
C134 H157 0.950 . S
C135 C134 1.388 . S
C135 C136 1.386 . S
C136 C135 1.386 . S
C136 C137 1.382 . S
C136 H158 0.950 . S
C137 N133 1.332 . S
C137 C136 1.382 . S
C137 H139 0.952 . S
C138 N133 1.332 . S
C138 C134 1.382 . S
C138 H140 0.948 . S
H139 C137 0.952 . S
H140 C138 0.948 . S
H141 C130 0.952 . S
H142 C132 0.948 . S
C143 C109 1.395 . S
C143 C113 1.391 . S
C144 C106 1.389 . S
C144 C126 1.392 . S
C145 C116 1.392 . S
C145 C118 1.389 . S
C146 C121 1.395 . S
C146 C123 1.391 . S
H147 C107 0.951 . S
H148 C108 0.950 . S
H149 C114 0.949 . S
H150 C115 0.950 . S
H151 C119 0.951 . S
H152 C120 0.950 . S
H153 C124 0.949 . S
H154 C125 0.950 . S
H155 C129 0.950 . S
H156 C131 0.950 . S
H157 C134 0.950 . S
H158 C136 0.950 . S
C159 C160 1.443 . S
C159 N163 1.376 . S
C159 C197 1.389 . S
C160 C159 1.443 . S
C160 C161 1.340 . S
C160 H200 0.951 . S
C161 C160 1.340 . S
C161 C162 1.439 . S
C161 H201 0.950 . S
C162 C161 1.439 . S
C162 N163 1.374 . S
C162 C196 1.395 . S
N163 C159 1.376 . S
N163 C162 1.374 . S
N163 Co164 2.008 . S
Co164 N163 2.008 . S
Co164 N165 1.995 . S
Co164 N170 2.008 . S
Co164 N175 1.995 . S
Co164 N180 2.282 . S
Co164 N186 2.282 . S
N165 Co164 1.995 . S
N165 C166 1.376 . S
N165 C169 1.383 . S
C166 N165 1.376 . S
C166 C167 1.446 . S
C166 C196 1.391 . S
C167 C166 1.446 . S
C167 C168 1.339 . S
C167 H202 0.949 . S
C168 C167 1.339 . S
C168 C169 1.439 . S
C168 H203 0.950 . S
C169 N165 1.383 . S
C169 C168 1.439 . S
C169 C198 1.392 . S
N170 Co164 2.008 . S
N170 C171 1.376 . S
N170 C174 1.374 . S
C171 N170 1.376 . S
C171 C172 1.443 1_545 S
C171 C198 1.389 . S
C172 C171 1.443 1_565 S
C172 C173 1.340 . S
C172 H204 0.951 . S
C173 C172 1.340 . S
C173 C174 1.439 1_565 S
C173 H205 0.950 . S
C174 N170 1.374 . S
C174 C173 1.439 1_545 S
C174 C199 1.395 . S
N175 Co164 1.995 . S
N175 C176 1.376 . S
N175 C179 1.383 . S
C176 N175 1.376 . S
C176 C177 1.446 . S
C176 C199 1.391 . S
C177 C176 1.446 . S
C177 C178 1.339 . S
C177 H206 0.949 . S
C178 C177 1.339 . S
C178 C179 1.439 . S
C178 H207 0.950 . S
C179 N175 1.383 . S
C179 C178 1.439 . S
C179 C197 1.392 . S
N180 Co164 2.282 . S
N180 C183 1.332 . S
N180 C185 1.332 . S
C181 C182 1.386 . S
C181 C184 1.388 . S
C182 C181 1.386 . S
C182 C183 1.382 . S
C182 H208 0.950 . S
C183 N180 1.332 . S
C183 C182 1.382 . S
C183 H194 0.952 . S
C184 C181 1.388 . S
C184 C185 1.382 . S
C184 H209 0.950 . S
C185 N180 1.332 . S
C185 C184 1.382 . S
C185 H195 0.948 . S
N186 Co164 2.282 . S
N186 C190 1.332 . S
N186 C191 1.332 . S
C187 C188 1.388 . S
C187 C191 1.382 . S
C187 H210 0.950 . S
C188 C187 1.388 . S
C188 C189 1.386 . S
C189 C188 1.386 . S
C189 C190 1.382 . S
C189 H211 0.950 . S
C190 N186 1.332 . S
C190 C189 1.382 . S
C190 H192 0.952 . S
C191 N186 1.332 . S
C191 C187 1.382 . S
C191 H193 0.948 . S
H192 C190 0.952 . S
H193 C191 0.948 . S
H194 C183 0.952 . S
H195 C185 0.948 . S
C196 C162 1.395 . S
C196 C166 1.391 . S
C197 C159 1.389 . S
C197 C179 1.392 . S
C198 C169 1.392 . S
C198 C171 1.389 . S
C199 C174 1.395 . S
C199 C176 1.391 . S
H200 C160 0.951 . S
H201 C161 0.950 . S
H202 C167 0.949 . S
H203 C168 0.950 . S
H204 C172 0.951 . S
H205 C173 0.950 . S
H206 C177 0.949 . S
H207 C178 0.950 . S
H208 C182 0.950 . S
H209 C184 0.950 . S
H210 C187 0.950 . S
H211 C189 0.950 . S
C212 C213 1.443 . S
C212 N216 1.376 . S
C212 C250 1.389 . S
C213 C212 1.443 . S
C213 C214 1.340 . S
C213 H253 0.951 . S
C214 C213 1.340 . S
C214 C215 1.439 . S
C214 H254 0.950 . S
C215 C214 1.439 . S
C215 N216 1.374 . S
C215 C249 1.395 . S
N216 C212 1.376 . S
N216 C215 1.374 . S
N216 Co217 2.008 . S
Co217 N216 2.008 . S
Co217 N218 1.995 . S
Co217 N223 2.008 . S
Co217 N228 1.995 . S
Co217 N233 2.282 . S
Co217 N239 2.282 . S
N218 Co217 1.995 . S
N218 C219 1.376 . S
N218 C222 1.383 . S
C219 N218 1.376 . S
C219 C220 1.446 . S
C219 C249 1.391 . S
C220 C219 1.446 . S
C220 C221 1.339 . S
C220 H255 0.949 . S
C221 C220 1.339 . S
C221 C222 1.439 . S
C221 H256 0.950 . S
C222 N218 1.383 . S
C222 C221 1.439 . S
C222 C251 1.392 . S
N223 Co217 2.008 . S
N223 C224 1.376 . S
N223 C227 1.374 . S
C224 N223 1.376 . S
C224 C225 1.443 . S
C224 C251 1.389 . S
C225 C224 1.443 . S
C225 C226 1.340 . S
C225 H257 0.951 . S
C226 C225 1.340 . S
C226 C227 1.439 . S
C226 H258 0.950 . S
C227 N223 1.374 . S
C227 C226 1.439 . S
C227 C252 1.395 . S
N228 Co217 1.995 . S
N228 C229 1.376 . S
N228 C232 1.383 . S
C229 N228 1.376 . S
C229 C230 1.446 . S
C229 C252 1.391 . S
C230 C229 1.446 . S
C230 C231 1.339 . S
C230 H259 0.949 . S
C231 C230 1.339 . S
C231 C232 1.439 . S
C231 H260 0.950 . S
C232 N228 1.383 . S
C232 C231 1.439 . S
C232 C250 1.392 . S
N233 Co217 2.282 . S
N233 C236 1.332 . S
N233 C238 1.332 . S
C234 C235 1.386 . S
C234 C237 1.388 . S
C235 C234 1.386 . S
C235 C236 1.382 . S
C235 H261 0.950 . S
C236 N233 1.332 . S
C236 C235 1.382 . S
C236 H247 0.952 . S
C237 C234 1.388 . S
C237 C238 1.382 . S
C237 H262 0.950 . S
C238 N233 1.332 . S
C238 C237 1.382 . S
C238 H248 0.948 . S
N239 Co217 2.282 . S
N239 C243 1.332 . S
N239 C244 1.332 . S
C240 C241 1.388 . S
C240 C244 1.382 . S
C240 H263 0.950 . S
C241 C240 1.388 . S
C241 C242 1.386 . S
C242 C241 1.386 . S
C242 C243 1.382 . S
C242 H264 0.950 . S
C243 N239 1.332 . S
C243 C242 1.382 . S
C243 H245 0.952 . S
C244 N239 1.332 . S
C244 C240 1.382 . S
C244 H246 0.948 . S
H245 C243 0.952 . S
H246 C244 0.948 . S
H247 C236 0.952 . S
H248 C238 0.948 . S
C249 C215 1.395 . S
C249 C219 1.391 . S
C250 C212 1.389 . S
C250 C232 1.392 . S
C251 C222 1.392 . S
C251 C224 1.389 . S
C252 C227 1.395 . S
C252 C229 1.391 . S
H253 C213 0.951 . S
H254 C214 0.950 . S
H255 C220 0.949 . S
H256 C221 0.950 . S
H257 C225 0.951 . S
H258 C226 0.950 . S
H259 C230 0.949 . S
H260 C231 0.950 . S
H261 C235 0.950 . S
H262 C237 0.950 . S
H263 C240 0.950 . S
H264 C242 0.950 . S
C265 C266 1.443 . S
C265 N269 1.376 . S
C265 C303 1.389 . S
C266 C265 1.443 . S
C266 C267 1.340 . S
C266 H306 0.951 . S
C267 C266 1.340 . S
C267 C268 1.439 . S
C267 H307 0.950 . S
C268 C267 1.439 . S
C268 N269 1.374 . S
C268 C302 1.395 . S
N269 C265 1.376 . S
N269 C268 1.374 . S
N269 Co270 2.008 . S
Co270 N269 2.008 . S
Co270 N271 1.995 . S
Co270 N276 2.008 . S
Co270 N281 1.995 . S
Co270 N286 2.282 . S
Co270 N292 2.282 . S
N271 Co270 1.995 . S
N271 C272 1.376 . S
N271 C275 1.383 . S
C272 N271 1.376 . S
C272 C273 1.446 . S
C272 C302 1.391 . S
C273 C272 1.446 . S
C273 C274 1.339 . S
C273 H308 0.949 . S
C274 C273 1.339 . S
C274 C275 1.439 . S
C274 H309 0.950 . S
C275 N271 1.383 . S
C275 C274 1.439 . S
C275 C304 1.392 . S
N276 Co270 2.008 . S
N276 C277 1.376 . S
N276 C280 1.374 . S
C277 N276 1.376 . S
C277 C278 1.443 1_565 S
C277 C304 1.389 . S
C278 C277 1.443 1_545 S
C278 C279 1.340 . S
C278 H310 0.951 . S
C279 C278 1.340 . S
C279 C280 1.439 1_545 S
C279 H311 0.950 . S
C280 N276 1.374 . S
C280 C279 1.439 1_565 S
C280 C305 1.395 . S
N281 Co270 1.995 . S
N281 C282 1.376 . S
N281 C285 1.383 . S
C282 N281 1.376 . S
C282 C283 1.446 . S
C282 C305 1.391 . S
C283 C282 1.446 . S
C283 C284 1.339 . S
C283 H312 0.949 . S
C284 C283 1.339 . S
C284 C285 1.439 . S
C284 H313 0.950 . S
C285 N281 1.383 . S
C285 C284 1.439 . S
C285 C303 1.392 . S
N286 Co270 2.282 . S
N286 C289 1.332 . S
N286 C291 1.332 . S
C287 C288 1.386 . S
C287 C290 1.388 . S
C288 C287 1.386 . S
C288 C289 1.382 . S
C288 H314 0.950 . S
C289 N286 1.332 . S
C289 C288 1.382 . S
C289 H300 0.952 . S
C290 C287 1.388 . S
C290 C291 1.382 . S
C290 H315 0.950 . S
C291 N286 1.332 . S
C291 C290 1.382 . S
C291 H301 0.948 . S
N292 Co270 2.282 . S
N292 C296 1.332 . S
N292 C297 1.332 . S
C293 C294 1.388 . S
C293 C297 1.382 . S
C293 H316 0.950 . S
C294 C293 1.388 . S
C294 C295 1.386 . S
C295 C294 1.386 . S
C295 C296 1.382 . S
C295 H317 0.950 . S
C296 N292 1.332 . S
C296 C295 1.382 . S
C296 H298 0.952 . S
C297 N292 1.332 . S
C297 C293 1.382 . S
C297 H299 0.948 . S
H298 C296 0.952 . S
H299 C297 0.948 . S
H300 C289 0.952 . S
H301 C291 0.948 . S
C302 C268 1.395 . S
C302 C272 1.391 . S
C303 C265 1.389 . S
C303 C285 1.392 . S
C304 C275 1.392 . S
C304 C277 1.389 . S
C305 C280 1.395 . S
C305 C282 1.391 . S
H306 C266 0.951 . S
H307 C267 0.950 . S
H308 C273 0.949 . S
H309 C274 0.950 . S
H310 C278 0.951 . S
H311 C279 0.950 . S
H312 C283 0.949 . S
H313 C284 0.950 . S
H314 C288 0.950 . S
H315 C290 0.950 . S
H316 C293 0.950 . S
H317 C295 0.950 . S
C318 C319 1.443 . S
C318 N322 1.376 . S
C318 C356 1.389 . S
C319 C318 1.443 . S
C319 C320 1.340 . S
C319 H359 0.951 . S
C320 C319 1.340 . S
C320 C321 1.439 . S
C320 H360 0.950 . S
C321 C320 1.439 . S
C321 N322 1.374 . S
C321 C355 1.395 . S
N322 C318 1.376 . S
N322 C321 1.374 . S
N322 Co323 2.008 . S
Co323 N322 2.008 . S
Co323 N324 1.995 . S
Co323 N329 2.008 . S
Co323 N334 1.995 . S
Co323 N339 2.282 . S
Co323 N345 2.282 . S
N324 Co323 1.995 . S
N324 C325 1.376 . S
N324 C328 1.383 . S
C325 N324 1.376 . S
C325 C326 1.446 . S
C325 C355 1.391 . S
C326 C325 1.446 . S
C326 C327 1.339 . S
C326 H361 0.949 . S
C327 C326 1.339 . S
C327 C328 1.439 . S
C327 H362 0.950 . S
C328 N324 1.383 . S
C328 C327 1.439 . S
C328 C357 1.392 . S
N329 Co323 2.008 . S
N329 C330 1.376 . S
N329 C333 1.374 . S
C330 N329 1.376 . S
C330 C331 1.443 . S
C330 C357 1.389 . S
C331 C330 1.443 . S
C331 C332 1.340 . S
C331 H363 0.951 . S
C332 C331 1.340 . S
C332 C333 1.439 . S
C332 H364 0.950 . S
C333 N329 1.374 . S
C333 C332 1.439 . S
C333 C358 1.395 . S
N334 Co323 1.995 . S
N334 C335 1.376 . S
N334 C338 1.383 . S
C335 N334 1.376 . S
C335 C336 1.446 . S
C335 C358 1.391 . S
C336 C335 1.446 . S
C336 C337 1.339 . S
C336 H365 0.949 . S
C337 C336 1.339 . S
C337 C338 1.439 . S
C337 H366 0.950 . S
C338 N334 1.383 . S
C338 C337 1.439 . S
C338 C356 1.392 . S
N339 Co323 2.282 . S
N339 C342 1.332 . S
N339 C344 1.332 . S
C340 C341 1.386 . S
C340 C343 1.388 . S
C341 C340 1.386 . S
C341 C342 1.382 . S
C341 H367 0.950 . S
C342 N339 1.332 . S
C342 C341 1.382 . S
C342 H353 0.952 . S
C343 C340 1.388 . S
C343 C344 1.382 . S
C343 H368 0.950 . S
C344 N339 1.332 . S
C344 C343 1.382 . S
C344 H354 0.948 . S
N345 Co323 2.282 . S
N345 C349 1.332 . S
N345 C350 1.332 . S
C346 C347 1.388 . S
C346 C350 1.382 . S
C346 H369 0.950 . S
C347 C346 1.388 . S
C347 C348 1.386 . S
C348 C347 1.386 . S
C348 C349 1.382 . S
C348 H370 0.950 . S
C349 N345 1.332 . S
C349 C348 1.382 . S
C349 H351 0.952 . S
C350 N345 1.332 . S
C350 C346 1.382 . S
C350 H352 0.948 . S
H351 C349 0.952 . S
H352 C350 0.948 . S
H353 C342 0.952 . S
H354 C344 0.948 . S
C355 C321 1.395 . S
C355 C325 1.391 . S
C356 C318 1.389 . S
C356 C338 1.392 . S
C357 C328 1.392 . S
C357 C330 1.389 . S
C358 C333 1.395 . S
C358 C335 1.391 . S
H359 C319 0.951 . S
H360 C320 0.950 . S
H361 C326 0.949 . S
H362 C327 0.950 . S
H363 C331 0.951 . S
H364 C332 0.950 . S
H365 C336 0.949 . S
H366 C337 0.950 . S
H367 C341 0.950 . S
H368 C343 0.950 . S
H369 C346 0.950 . S
H370 C348 0.950 . S
C371 C372 1.443 . S
C371 N375 1.376 . S
C371 C409 1.389 . S
C372 C371 1.443 . S
C372 C373 1.340 . S
C372 H412 0.951 . S
C373 C372 1.340 . S
C373 C374 1.439 . S
C373 H413 0.950 . S
C374 C373 1.439 . S
C374 N375 1.374 . S
C374 C408 1.395 . S
N375 C371 1.376 . S
N375 C374 1.374 . S
N375 Co376 2.008 . S
Co376 N375 2.008 . S
Co376 N377 1.995 . S
Co376 N382 2.008 . S
Co376 N387 1.995 . S
Co376 N392 2.282 . S
Co376 N398 2.282 . S
N377 Co376 1.995 . S
N377 C378 1.376 . S
N377 C381 1.383 . S
C378 N377 1.376 . S
C378 C379 1.446 . S
C378 C408 1.391 . S
C379 C378 1.446 . S
C379 C380 1.339 . S
C379 H414 0.949 . S
C380 C379 1.339 . S
C380 C381 1.439 . S
C380 H415 0.950 . S
C381 N377 1.383 . S
C381 C380 1.439 . S
C381 C410 1.392 . S
N382 Co376 2.008 . S
N382 C383 1.376 . S
N382 C386 1.374 . S
C383 N382 1.376 . S
C383 C384 1.443 1_545 S
C383 C410 1.389 . S
C384 C383 1.443 1_565 S
C384 C385 1.340 . S
C384 H416 0.951 . S
C385 C384 1.340 . S
C385 C386 1.439 1_565 S
C385 H417 0.950 . S
C386 N382 1.374 . S
C386 C385 1.439 1_545 S
C386 C411 1.395 . S
N387 Co376 1.995 . S
N387 C388 1.376 . S
N387 C391 1.383 . S
C388 N387 1.376 . S
C388 C389 1.446 . S
C388 C411 1.391 . S
C389 C388 1.446 . S
C389 C390 1.339 . S
C389 H418 0.949 . S
C390 C389 1.339 . S
C390 C391 1.439 . S
C390 H419 0.950 . S
C391 N387 1.383 . S
C391 C390 1.439 . S
C391 C409 1.392 . S
N392 Co376 2.282 . S
N392 C395 1.332 . S
N392 C397 1.332 . S
C393 C394 1.386 . S
C393 C396 1.388 . S
C394 C393 1.386 . S
C394 C395 1.382 . S
C394 H420 0.950 . S
C395 N392 1.332 . S
C395 C394 1.382 . S
C395 H406 0.952 . S
C396 C393 1.388 . S
C396 C397 1.382 . S
C396 H421 0.950 . S
C397 N392 1.332 . S
C397 C396 1.382 . S
C397 H407 0.948 . S
N398 Co376 2.282 . S
N398 C402 1.332 . S
N398 C403 1.332 . S
C399 C400 1.388 . S
C399 C403 1.382 . S
C399 H422 0.950 . S
C400 C399 1.388 . S
C400 C401 1.386 . S
C401 C400 1.386 . S
C401 C402 1.382 . S
C401 H423 0.950 . S
C402 N398 1.332 . S
C402 C401 1.382 . S
C402 H404 0.952 . S
C403 N398 1.332 . S
C403 C399 1.382 . S
C403 H405 0.948 . S
H404 C402 0.952 . S
H405 C403 0.948 . S
H406 C395 0.952 . S
H407 C397 0.948 . S
C408 C374 1.395 . S
C408 C378 1.391 . S
C409 C371 1.389 . S
C409 C391 1.392 . S
C410 C381 1.392 . S
C410 C383 1.389 . S
C411 C386 1.395 . S
C411 C388 1.391 . S
H412 C372 0.951 . S
H413 C373 0.950 . S
H414 C379 0.949 . S
H415 C380 0.950 . S
H416 C384 0.951 . S
H417 C385 0.950 . S
H418 C389 0.949 . S
H419 C390 0.950 . S
H420 C394 0.950 . S
H421 C396 0.950 . S
H422 C399 0.950 . S
H423 C401 0.950 . S
C424 C425 1.443 . S
C424 N428 1.376 . S
C424 C462 1.389 . S
C425 C424 1.443 . S
C425 C426 1.340 . S
C425 H465 0.951 . S
C426 C425 1.340 . S
C426 C427 1.439 . S
C426 H466 0.950 . S
C427 C426 1.439 . S
C427 N428 1.374 . S
C427 C461 1.395 . S
N428 C424 1.376 . S
N428 C427 1.374 . S
N428 Co429 2.008 . S
Co429 N428 2.008 . S
Co429 N430 1.995 . S
Co429 N435 2.008 . S
Co429 N440 1.995 . S
Co429 N445 2.282 . S
Co429 N451 2.282 . S
N430 Co429 1.995 . S
N430 C431 1.376 . S
N430 C434 1.383 . S
C431 N430 1.376 . S
C431 C432 1.446 . S
C431 C461 1.391 . S
C432 C431 1.446 . S
C432 C433 1.339 . S
C432 H467 0.949 . S
C433 C432 1.339 . S
C433 C434 1.439 . S
C433 H468 0.950 . S
C434 N430 1.383 . S
C434 C433 1.439 . S
C434 C463 1.392 . S
N435 Co429 2.008 . S
N435 C436 1.376 . S
N435 C439 1.374 . S
C436 N435 1.376 . S
C436 C437 1.443 . S
C436 C463 1.389 . S
C437 C436 1.443 . S
C437 C438 1.340 . S
C437 H469 0.951 . S
C438 C437 1.340 . S
C438 C439 1.439 . S
C438 H470 0.950 . S
C439 N435 1.374 . S
C439 C438 1.439 . S
C439 C464 1.395 . S
N440 Co429 1.995 . S
N440 C441 1.376 . S
N440 C444 1.383 . S
C441 N440 1.376 . S
C441 C442 1.446 . S
C441 C464 1.391 . S
C442 C441 1.446 . S
C442 C443 1.339 . S
C442 H471 0.949 . S
C443 C442 1.339 . S
C443 C444 1.439 . S
C443 H472 0.950 . S
C444 N440 1.383 . S
C444 C443 1.439 . S
C444 C462 1.392 . S
N445 Co429 2.282 . S
N445 C448 1.332 . S
N445 C450 1.332 . S
C446 C447 1.386 . S
C446 C449 1.388 . S
C447 C446 1.386 . S
C447 C448 1.382 . S
C447 H473 0.950 . S
C448 N445 1.332 . S
C448 C447 1.382 . S
C448 H459 0.952 . S
C449 C446 1.388 . S
C449 C450 1.382 . S
C449 H474 0.950 . S
C450 N445 1.332 . S
C450 C449 1.382 . S
C450 H460 0.948 . S
N451 Co429 2.282 . S
N451 C455 1.332 . S
N451 C456 1.332 . S
C452 C453 1.388 . S
C452 C456 1.382 . S
C452 H475 0.950 . S
C453 C452 1.388 . S
C453 C454 1.386 . S
C454 C453 1.386 . S
C454 C455 1.382 . S
C454 H476 0.950 . S
C455 N451 1.332 . S
C455 C454 1.382 . S
C455 H457 0.952 . S
C456 N451 1.332 . S
C456 C452 1.382 . S
C456 H458 0.948 . S
H457 C455 0.952 . S
H458 C456 0.948 . S
H459 C448 0.952 . S
H460 C450 0.948 . S
C461 C427 1.395 . S
C461 C431 1.391 . S
C462 C424 1.389 . S
C462 C444 1.392 . S
C463 C434 1.392 . S
C463 C436 1.389 . S
C464 C439 1.395 . S
C464 C441 1.391 . S
H465 C425 0.951 . S
H466 C426 0.950 . S
H467 C432 0.949 . S
H468 C433 0.950 . S
H469 C437 0.951 . S
H470 C438 0.950 . S
H471 C442 0.949 . S
H472 C443 0.950 . S
H473 C447 0.950 . S
H474 C449 0.950 . S
H475 C452 0.950 . S
H476 C454 0.950 . S
C477 C478 1.443 . S
C477 N481 1.376 . S
C477 C515 1.389 . S
C478 C477 1.443 . S
C478 C479 1.306 1_545 S
C478 H518 0.951 . S
C479 C478 1.306 1_565 S
C479 C480 1.441 . S
C479 H519 0.977 . S
C480 C479 1.441 . S
C480 N481 1.374 1_565 S
C480 C514 1.395 . S
N481 C477 1.376 . S
N481 C480 1.374 1_545 S
N481 Co482 2.008 . S
Co482 N481 2.008 . S
Co482 N483 1.995 1_545 S
Co482 N488 2.008 . S
Co482 N493 1.995 . S
Co482 N498 2.282 . S
Co482 N504 2.282 . S
N483 Co482 1.995 1_565 S
N483 C484 1.376 . S
N483 C487 1.383 . S
C484 N483 1.376 . S
C484 C485 1.446 . S
C484 C514 1.391 . S
C485 C484 1.446 . S
C485 C486 1.339 . S
C485 H520 0.949 . S
C486 C485 1.339 . S
C486 C487 1.439 . S
C486 H521 0.950 . S
C487 N483 1.383 . S
C487 C486 1.439 . S
C487 C516 1.392 . S
N488 Co482 2.008 . S
N488 C489 1.376 . S
N488 C492 1.374 . S
C489 N488 1.376 . S
C489 C490 1.443 . S
C489 C516 1.389 1_545 S
C490 C489 1.443 . S
C490 C491 1.340 . S
C490 H522 0.951 . S
C491 C490 1.340 . S
C491 C492 1.439 . S
C491 H523 0.950 . S
C492 N488 1.374 . S
C492 C491 1.439 . S
C492 C517 1.395 . S
N493 Co482 1.995 . S
N493 C494 1.376 . S
N493 C497 1.383 . S
C494 N493 1.376 . S
C494 C495 1.446 . S
C494 C517 1.391 . S
C495 C494 1.446 . S
C495 C496 1.339 . S
C495 H524 0.949 . S
C496 C495 1.339 . S
C496 C497 1.439 . S
C496 H525 0.950 . S
C497 N493 1.383 . S
C497 C496 1.439 . S
C497 C515 1.392 . S
N498 Co482 2.282 . S
N498 C501 1.332 . S
N498 C503 1.332 . S
C499 C500 1.386 . S
C499 C502 1.388 1_545 S
C500 C499 1.386 . S
C500 C501 1.382 . S
C500 H526 0.950 . S
C501 N498 1.332 . S
C501 C500 1.382 . S
C501 H512 0.952 . S
C502 C499 1.388 1_565 S
C502 C503 1.382 1_565 S
C502 H527 0.950 . S
C503 N498 1.332 . S
C503 C502 1.382 1_545 S
C503 H513 0.948 1_545 S
N504 Co482 2.282 . S
N504 C508 1.332 . S
N504 C509 1.332 . S
C505 C506 1.388 . S
C505 C509 1.382 . S
C505 H528 0.950 . S
C506 C505 1.388 . S
C506 C507 1.386 . S
C507 C506 1.386 . S
C507 C508 1.382 . S
C507 H529 0.950 . S
C508 N504 1.332 . S
C508 C507 1.382 . S
C508 H510 0.952 . S
C509 N504 1.332 . S
C509 C505 1.382 . S
C509 H511 0.948 . S
H510 C508 0.952 . S
H511 C509 0.948 . S
H512 C501 0.952 . S
H513 C503 0.948 1_565 S
C514 C480 1.395 . S
C514 C484 1.391 . S
C515 C477 1.389 . S
C515 C497 1.392 . S
C516 C487 1.392 . S
C516 C489 1.389 1_565 S
C517 C492 1.395 . S
C517 C494 1.391 . S
H518 C478 0.951 . S
H519 C479 0.977 . S
H520 C485 0.949 . S
H521 C486 0.950 . S
H522 C490 0.951 . S
H523 C491 0.950 . S
H524 C495 0.949 . S
H525 C496 0.950 . S
H526 C500 0.950 . S
H527 C502 0.950 . S
H528 C505 0.950 . S
H529 C507 0.950 . S
C530 C531 1.443 . S
C530 N534 1.376 . S
C530 C568 1.389 . S
C531 C530 1.443 . S
C531 C532 1.340 . S
C531 H571 0.951 . S
C532 C531 1.340 . S
C532 C533 1.439 . S
C532 H572 0.950 . S
C533 C532 1.439 . S
C533 N534 1.374 . S
C533 C567 1.395 . S
N534 C530 1.376 . S
N534 C533 1.374 . S
N534 Co535 2.008 . S
Co535 N534 2.008 . S
Co535 N536 1.995 . S
Co535 N541 2.008 . S
Co535 N546 1.995 . S
Co535 N551 2.282 . S
Co535 N557 2.282 . S
N536 Co535 1.995 . S
N536 C537 1.376 . S
N536 C540 1.383 . S
C537 N536 1.376 . S
C537 C538 1.446 . S
C537 C567 1.391 . S
C538 C537 1.446 . S
C538 C539 1.339 . S
C538 H573 0.949 . S
C539 C538 1.339 . S
C539 C540 1.439 . S
C539 H574 0.950 . S
C540 N536 1.383 . S
C540 C539 1.439 . S
C540 C569 1.392 . S
N541 Co535 2.008 . S
N541 C542 1.376 . S
N541 C545 1.374 . S
C542 N541 1.376 . S
C542 C543 1.443 . S
C542 C569 1.389 . S
C543 C542 1.443 . S
C543 C544 1.340 . S
C543 H575 0.951 . S
C544 C543 1.340 . S
C544 C545 1.439 . S
C544 H576 0.950 . S
C545 N541 1.374 . S
C545 C544 1.439 . S
C545 C570 1.395 . S
N546 Co535 1.995 . S
N546 C547 1.376 . S
N546 C550 1.383 . S
C547 N546 1.376 . S
C547 C548 1.446 . S
C547 C570 1.391 . S
C548 C547 1.446 . S
C548 C549 1.339 . S
C548 H577 0.949 . S
C549 C548 1.339 . S
C549 C550 1.439 . S
C549 H578 0.950 . S
C550 N546 1.383 . S
C550 C549 1.439 . S
C550 C568 1.392 . S
N551 Co535 2.282 . S
N551 C554 1.332 . S
N551 C556 1.332 . S
C552 C553 1.386 . S
C552 C555 1.388 . S
C553 C552 1.386 . S
C553 C554 1.382 . S
C553 H579 0.950 . S
C554 N551 1.332 . S
C554 C553 1.382 . S
C554 H565 0.952 . S
C555 C552 1.388 . S
C555 C556 1.382 . S
C555 H580 0.950 . S
C556 N551 1.332 . S
C556 C555 1.382 . S
C556 H566 0.948 . S
N557 Co535 2.282 . S
N557 C561 1.332 . S
N557 C562 1.332 . S
C558 C559 1.388 . S
C558 C562 1.382 . S
C558 H581 0.950 . S
C559 C558 1.388 . S
C559 C560 1.386 . S
C560 C559 1.386 . S
C560 C561 1.382 . S
C560 H582 0.950 . S
C561 N557 1.332 . S
C561 C560 1.382 . S
C561 H563 0.952 . S
C562 N557 1.332 . S
C562 C558 1.382 . S
C562 H564 0.948 . S
H563 C561 0.952 . S
H564 C562 0.948 . S
H565 C554 0.952 . S
H566 C556 0.948 . S
C567 C533 1.395 . S
C567 C537 1.391 . S
C568 C530 1.389 . S
C568 C550 1.392 . S
C569 C540 1.392 . S
C569 C542 1.389 . S
C570 C545 1.395 . S
C570 C547 1.391 . S
H571 C531 0.951 . S
H572 C532 0.950 . S
H573 C538 0.949 . S
H574 C539 0.950 . S
H575 C543 0.951 . S
H576 C544 0.950 . S
H577 C548 0.949 . S
H578 C549 0.950 . S
H579 C553 0.950 . S
H580 C555 0.950 . S
H581 C558 0.950 . S
H582 C560 0.950 . S
C583 C584 1.443 . S
C583 N587 1.376 . S
C583 C621 1.389 . S
C584 C583 1.443 . S
C584 C585 1.306 1_565 S
C584 H624 0.951 . S
C585 C584 1.306 1_545 S
C585 C586 1.441 . S
C585 H625 0.977 . S
C586 C585 1.441 . S
C586 N587 1.374 1_545 S
C586 C620 1.395 . S
N587 C583 1.376 . S
N587 C586 1.374 1_565 S
N587 Co588 2.008 . S
Co588 N587 2.008 . S
Co588 N589 1.995 1_565 S
Co588 N594 2.008 . S
Co588 N599 1.995 . S
Co588 N604 2.282 . S
Co588 N610 2.282 . S
N589 Co588 1.995 1_545 S
N589 C590 1.376 . S
N589 C593 1.383 . S
C590 N589 1.376 . S
C590 C591 1.446 . S
C590 C620 1.391 . S
C591 C590 1.446 . S
C591 C592 1.339 . S
C591 H626 0.949 . S
C592 C591 1.339 . S
C592 C593 1.439 . S
C592 H627 0.950 . S
C593 N589 1.383 . S
C593 C592 1.439 . S
C593 C622 1.392 . S
N594 Co588 2.008 . S
N594 C595 1.376 . S
N594 C598 1.374 . S
C595 N594 1.376 . S
C595 C596 1.443 . S
C595 C622 1.389 1_565 S
C596 C595 1.443 . S
C596 C597 1.340 . S
C596 H628 0.951 . S
C597 C596 1.340 . S
C597 C598 1.439 . S
C597 H629 0.950 . S
C598 N594 1.374 . S
C598 C597 1.439 . S
C598 C623 1.395 . S
N599 Co588 1.995 . S
N599 C600 1.376 . S
N599 C603 1.383 . S
C600 N599 1.376 . S
C600 C601 1.446 . S
C600 C623 1.391 . S
C601 C600 1.446 . S
C601 C602 1.339 . S
C601 H630 0.949 . S
C602 C601 1.339 . S
C602 C603 1.439 . S
C602 H631 0.950 . S
C603 N599 1.383 . S
C603 C602 1.439 . S
C603 C621 1.392 . S
N604 Co588 2.282 . S
N604 C607 1.332 . S
N604 C609 1.332 . S
C605 C606 1.386 . S
C605 C608 1.388 1_565 S
C606 C605 1.386 . S
C606 C607 1.382 . S
C606 H632 0.950 . S
C607 N604 1.332 . S
C607 C606 1.382 . S
C607 H618 0.952 . S
C608 C605 1.388 1_545 S
C608 C609 1.382 1_545 S
C608 H633 0.950 . S
C609 N604 1.332 . S
C609 C608 1.382 1_565 S
C609 H619 0.948 1_565 S
N610 Co588 2.282 . S
N610 C614 1.332 . S
N610 C615 1.332 . S
C611 C612 1.388 . S
C611 C615 1.382 . S
C611 H634 0.950 . S
C612 C611 1.388 . S
C612 C613 1.386 . S
C613 C612 1.386 . S
C613 C614 1.382 . S
C613 H635 0.950 . S
C614 N610 1.332 . S
C614 C613 1.382 . S
C614 H616 0.952 . S
C615 N610 1.332 . S
C615 C611 1.382 . S
C615 H617 0.948 . S
H616 C614 0.952 . S
H617 C615 0.948 . S
H618 C607 0.952 . S
H619 C609 0.948 1_545 S
C620 C586 1.395 . S
C620 C590 1.391 . S
C621 C583 1.389 . S
C621 C603 1.392 . S
C622 C593 1.392 . S
C622 C595 1.389 1_545 S
C623 C598 1.395 . S
C623 C600 1.391 . S
H624 C584 0.951 . S
H625 C585 0.977 . S
H626 C591 0.949 . S
H627 C592 0.950 . S
H628 C596 0.951 . S
H629 C597 0.950 . S
H630 C601 0.949 . S
H631 C602 0.950 . S
H632 C606 0.950 . S
H633 C608 0.950 . S
H634 C611 0.950 . S
H635 C613 0.950 . S
C636 C637 1.443 . S
C636 N640 1.376 . S
C636 C674 1.389 . S
C637 C636 1.443 . S
C637 C638 1.340 . S
C637 H677 0.951 . S
C638 C637 1.340 . S
C638 C639 1.439 . S
C638 H678 0.950 . S
C639 C638 1.439 . S
C639 N640 1.374 . S
C639 C673 1.395 . S
N640 C636 1.376 . S
N640 C639 1.374 . S
N640 Co641 2.008 . S
Co641 N640 2.008 . S
Co641 N642 1.995 . S
Co641 N647 2.008 . S
Co641 N652 1.995 . S
Co641 N657 2.282 . S
Co641 N663 2.282 . S
N642 Co641 1.995 . S
N642 C643 1.376 . S
N642 C646 1.383 . S
C643 N642 1.376 . S
C643 C644 1.446 . S
C643 C673 1.391 . S
C644 C643 1.446 . S
C644 C645 1.339 . S
C644 H679 0.949 . S
C645 C644 1.339 . S
C645 C646 1.439 . S
C645 H680 0.950 . S
C646 N642 1.383 . S
C646 C645 1.439 . S
C646 C675 1.392 . S
N647 Co641 2.008 . S
N647 C648 1.376 . S
N647 C651 1.374 . S
C648 N647 1.376 . S
C648 C649 1.443 . S
C648 C675 1.389 . S
C649 C648 1.443 . S
C649 C650 1.340 . S
C649 H681 0.951 . S
C650 C649 1.340 . S
C650 C651 1.439 . S
C650 H682 0.950 . S
C651 N647 1.374 . S
C651 C650 1.439 . S
C651 C676 1.395 . S
N652 Co641 1.995 . S
N652 C653 1.376 . S
N652 C656 1.383 . S
C653 N652 1.376 . S
C653 C654 1.446 . S
C653 C676 1.391 . S
C654 C653 1.446 . S
C654 C655 1.339 . S
C654 H683 0.949 . S
C655 C654 1.339 . S
C655 C656 1.439 . S
C655 H684 0.950 . S
C656 N652 1.383 . S
C656 C655 1.439 . S
C656 C674 1.392 . S
N657 Co641 2.282 . S
N657 C660 1.332 . S
N657 C662 1.332 . S
C658 C659 1.386 . S
C658 C661 1.388 . S
C659 C658 1.386 . S
C659 C660 1.382 . S
C659 H685 0.950 . S
C660 N657 1.332 . S
C660 C659 1.382 . S
C660 H671 0.952 . S
C661 C658 1.388 . S
C661 C662 1.382 . S
C661 H686 0.950 . S
C662 N657 1.332 . S
C662 C661 1.382 . S
C662 H672 0.948 . S
N663 Co641 2.282 . S
N663 C667 1.332 . S
N663 C668 1.332 . S
C664 C665 1.388 . S
C664 C668 1.382 . S
C664 H687 0.950 . S
C665 C664 1.388 . S
C665 C666 1.386 . S
C666 C665 1.386 . S
C666 C667 1.382 . S
C666 H688 0.950 . S
C667 N663 1.332 . S
C667 C666 1.382 . S
C667 H669 0.952 . S
C668 N663 1.332 . S
C668 C664 1.382 . S
C668 H670 0.948 . S
H669 C667 0.952 . S
H670 C668 0.948 . S
H671 C660 0.952 . S
H672 C662 0.948 . S
C673 C639 1.395 . S
C673 C643 1.391 . S
C674 C636 1.389 . S
C674 C656 1.392 . S
C675 C646 1.392 . S
C675 C648 1.389 . S
C676 C651 1.395 . S
C676 C653 1.391 . S
H677 C637 0.951 . S
H678 C638 0.950 . S
H679 C644 0.949 . S
H680 C645 0.950 . S
H681 C649 0.951 . S
H682 C650 0.950 . S
H683 C654 0.949 . S
H684 C655 0.950 . S
H685 C659 0.950 . S
H686 C661 0.950 . S
H687 C664 0.950 . S
H688 C666 0.950 . S
C689 C690 1.443 . S
C689 N693 1.376 . S
C689 C727 1.389 . S
C690 C689 1.443 . S
C690 C691 1.306 1_545 S
C690 H730 0.951 . S
C691 C690 1.306 1_565 S
C691 C692 1.441 . S
C691 H731 0.977 . S
C692 C691 1.441 . S
C692 N693 1.374 1_565 S
C692 C726 1.395 . S
N693 C689 1.376 . S
N693 C692 1.374 1_545 S
N693 Co694 2.008 . S
Co694 N693 2.008 . S
Co694 N695 1.995 1_545 S
Co694 N700 2.008 . S
Co694 N705 1.995 . S
Co694 N710 2.282 . S
Co694 N716 2.282 . S
N695 Co694 1.995 1_565 S
N695 C696 1.376 . S
N695 C699 1.383 . S
C696 N695 1.376 . S
C696 C697 1.446 . S
C696 C726 1.391 . S
C697 C696 1.446 . S
C697 C698 1.339 . S
C697 H732 0.949 . S
C698 C697 1.339 . S
C698 C699 1.439 . S
C698 H733 0.950 . S
C699 N695 1.383 . S
C699 C698 1.439 . S
C699 C728 1.392 . S
N700 Co694 2.008 . S
N700 C701 1.376 . S
N700 C704 1.374 . S
C701 N700 1.376 . S
C701 C702 1.443 . S
C701 C728 1.389 1_545 S
C702 C701 1.443 . S
C702 C703 1.340 . S
C702 H734 0.951 . S
C703 C702 1.340 . S
C703 C704 1.439 . S
C703 H735 0.950 . S
C704 N700 1.374 . S
C704 C703 1.439 . S
C704 C729 1.395 . S
N705 Co694 1.995 . S
N705 C706 1.376 . S
N705 C709 1.383 . S
C706 N705 1.376 . S
C706 C707 1.446 . S
C706 C729 1.391 . S
C707 C706 1.446 . S
C707 C708 1.339 . S
C707 H736 0.949 . S
C708 C707 1.339 . S
C708 C709 1.439 . S
C708 H737 0.950 . S
C709 N705 1.383 . S
C709 C708 1.439 . S
C709 C727 1.392 . S
N710 Co694 2.282 . S
N710 C713 1.332 . S
N710 C715 1.332 . S
C711 C712 1.386 . S
C711 C714 1.388 1_545 S
C712 C711 1.386 . S
C712 C713 1.382 . S
C712 H738 0.950 . S
C713 N710 1.332 . S
C713 C712 1.382 . S
C713 H724 0.952 . S
C714 C711 1.388 1_565 S
C714 C715 1.382 1_565 S
C714 H739 0.950 . S
C715 N710 1.332 . S
C715 C714 1.382 1_545 S
C715 H725 0.948 1_545 S
N716 Co694 2.282 . S
N716 C720 1.332 . S
N716 C721 1.332 . S
C717 C718 1.388 . S
C717 C721 1.382 . S
C717 H740 0.950 . S
C718 C717 1.388 . S
C718 C719 1.386 . S
C719 C718 1.386 . S
C719 C720 1.382 . S
C719 H741 0.950 . S
C720 N716 1.332 . S
C720 C719 1.382 . S
C720 H722 0.952 . S
C721 N716 1.332 . S
C721 C717 1.382 . S
C721 H723 0.948 . S
H722 C720 0.952 . S
H723 C721 0.948 . S
H724 C713 0.952 . S
H725 C715 0.948 1_565 S
C726 C692 1.395 . S
C726 C696 1.391 . S
C727 C689 1.389 . S
C727 C709 1.392 . S
C728 C699 1.392 . S
C728 C701 1.389 1_565 S
C729 C704 1.395 . S
C729 C706 1.391 . S
H730 C690 0.951 . S
H731 C691 0.977 . S
H732 C697 0.949 . S
H733 C698 0.950 . S
H734 C702 0.951 . S
H735 C703 0.950 . S
H736 C707 0.949 . S
H737 C708 0.950 . S
H738 C712 0.950 . S
H739 C714 0.950 . S
H740 C717 0.950 . S
H741 C719 0.950 . S
C742 C743 1.443 . S
C742 N746 1.376 . S
C742 C780 1.389 . S
C743 C742 1.443 . S
C743 C744 1.340 . S
C743 H783 0.951 . S
C744 C743 1.340 . S
C744 C745 1.439 . S
C744 H784 0.950 . S
C745 C744 1.439 . S
C745 N746 1.374 . S
C745 C779 1.395 . S
N746 C742 1.376 . S
N746 C745 1.374 . S
N746 Co747 2.008 . S
Co747 N746 2.008 . S
Co747 N748 1.995 . S
Co747 N753 2.008 . S
Co747 N758 1.995 . S
Co747 N763 2.282 . S
Co747 N769 2.282 . S
N748 Co747 1.995 . S
N748 C749 1.376 . S
N748 C752 1.383 . S
C749 N748 1.376 . S
C749 C750 1.446 . S
C749 C779 1.391 . S
C750 C749 1.446 . S
C750 C751 1.339 . S
C750 H785 0.949 . S
C751 C750 1.339 . S
C751 C752 1.439 . S
C751 H786 0.950 . S
C752 N748 1.383 . S
C752 C751 1.439 . S
C752 C781 1.392 . S
N753 Co747 2.008 . S
N753 C754 1.376 . S
N753 C757 1.374 . S
C754 N753 1.376 . S
C754 C755 1.443 . S
C754 C781 1.389 . S
C755 C754 1.443 . S
C755 C756 1.340 . S
C755 H787 0.951 . S
C756 C755 1.340 . S
C756 C757 1.439 . S
C756 H788 0.950 . S
C757 N753 1.374 . S
C757 C756 1.439 . S
C757 C782 1.395 . S
N758 Co747 1.995 . S
N758 C759 1.376 . S
N758 C762 1.383 . S
C759 N758 1.376 . S
C759 C760 1.446 . S
C759 C782 1.391 . S
C760 C759 1.446 . S
C760 C761 1.339 . S
C760 H789 0.949 . S
C761 C760 1.339 . S
C761 C762 1.439 . S
C761 H790 0.950 . S
C762 N758 1.383 . S
C762 C761 1.439 . S
C762 C780 1.392 . S
N763 Co747 2.282 . S
N763 C766 1.332 . S
N763 C768 1.332 . S
C764 C765 1.386 . S
C764 C767 1.388 . S
C765 C764 1.386 . S
C765 C766 1.382 . S
C765 H791 0.950 . S
C766 N763 1.332 . S
C766 C765 1.382 . S
C766 H777 0.952 . S
C767 C764 1.388 . S
C767 C768 1.382 . S
C767 H792 0.950 . S
C768 N763 1.332 . S
C768 C767 1.382 . S
C768 H778 0.948 . S
N769 Co747 2.282 . S
N769 C773 1.332 . S
N769 C774 1.332 . S
C770 C771 1.388 . S
C770 C774 1.382 . S
C770 H793 0.950 . S
C771 C770 1.388 . S
C771 C772 1.386 . S
C772 C771 1.386 . S
C772 C773 1.382 . S
C772 H794 0.950 . S
C773 N769 1.332 . S
C773 C772 1.382 . S
C773 H775 0.952 . S
C774 N769 1.332 . S
C774 C770 1.382 . S
C774 H776 0.948 . S
H775 C773 0.952 . S
H776 C774 0.948 . S
H777 C766 0.952 . S
H778 C768 0.948 . S
C779 C745 1.395 . S
C779 C749 1.391 . S
C780 C742 1.389 . S
C780 C762 1.392 . S
C781 C752 1.392 . S
C781 C754 1.389 . S
C782 C757 1.395 . S
C782 C759 1.391 . S
H783 C743 0.951 . S
H784 C744 0.950 . S
H785 C750 0.949 . S
H786 C751 0.950 . S
H787 C755 0.951 . S
H788 C756 0.950 . S
H789 C760 0.949 . S
H790 C761 0.950 . S
H791 C765 0.950 . S
H792 C767 0.950 . S
H793 C770 0.950 . S
H794 C772 0.950 . S
C795 C796 1.443 . S
C795 N799 1.376 . S
C795 C833 1.389 . S
C796 C795 1.443 . S
C796 C797 1.306 1_565 S
C796 H836 0.951 . S
C797 C796 1.306 1_545 S
C797 C798 1.441 . S
C797 H837 0.977 . S
C798 C797 1.441 . S
C798 N799 1.374 1_545 S
C798 C832 1.395 . S
N799 C795 1.376 . S
N799 C798 1.374 1_565 S
N799 Co800 2.008 . S
Co800 N799 2.008 . S
Co800 N801 1.995 1_565 S
Co800 N806 2.008 . S
Co800 N811 1.995 . S
Co800 N816 2.282 . S
Co800 N822 2.282 . S
N801 Co800 1.995 1_545 S
N801 C802 1.376 . S
N801 C805 1.383 . S
C802 N801 1.376 . S
C802 C803 1.446 . S
C802 C832 1.391 . S
C803 C802 1.446 . S
C803 C804 1.339 . S
C803 H838 0.949 . S
C804 C803 1.339 . S
C804 C805 1.439 . S
C804 H839 0.950 . S
C805 N801 1.383 . S
C805 C804 1.439 . S
C805 C834 1.392 . S
N806 Co800 2.008 . S
N806 C807 1.376 . S
N806 C810 1.374 . S
C807 N806 1.376 . S
C807 C808 1.443 . S
C807 C834 1.389 1_565 S
C808 C807 1.443 . S
C808 C809 1.340 . S
C808 H840 0.951 . S
C809 C808 1.340 . S
C809 C810 1.439 . S
C809 H841 0.950 . S
C810 N806 1.374 . S
C810 C809 1.439 . S
C810 C835 1.395 . S
N811 Co800 1.995 . S
N811 C812 1.376 . S
N811 C815 1.383 . S
C812 N811 1.376 . S
C812 C813 1.446 . S
C812 C835 1.391 . S
C813 C812 1.446 . S
C813 C814 1.339 . S
C813 H842 0.949 . S
C814 C813 1.339 . S
C814 C815 1.439 . S
C814 H843 0.950 . S
C815 N811 1.383 . S
C815 C814 1.439 . S
C815 C833 1.392 . S
N816 Co800 2.282 . S
N816 C819 1.332 . S
N816 C821 1.332 . S
C817 C818 1.386 . S
C817 C820 1.388 1_565 S
C818 C817 1.386 . S
C818 C819 1.382 . S
C818 H844 0.950 . S
C819 N816 1.332 . S
C819 C818 1.382 . S
C819 H830 0.952 . S
C820 C817 1.388 1_545 S
C820 C821 1.382 1_545 S
C820 H845 0.950 . S
C821 N816 1.332 . S
C821 C820 1.382 1_565 S
C821 H831 0.948 1_565 S
N822 Co800 2.282 . S
N822 C826 1.332 . S
N822 C827 1.332 . S
C823 C824 1.388 . S
C823 C827 1.382 . S
C823 H846 0.950 . S
C824 C823 1.388 . S
C824 C825 1.386 . S
C825 C824 1.386 . S
C825 C826 1.382 . S
C825 H847 0.950 . S
C826 N822 1.332 . S
C826 C825 1.382 . S
C826 H828 0.952 . S
C827 N822 1.332 . S
C827 C823 1.382 . S
C827 H829 0.948 . S
H828 C826 0.952 . S
H829 C827 0.948 . S
H830 C819 0.952 . S
H831 C821 0.948 1_545 S
C832 C798 1.395 . S
C832 C802 1.391 . S
C833 C795 1.389 . S
C833 C815 1.392 . S
C834 C805 1.392 . S
C834 C807 1.389 1_545 S
C835 C810 1.395 . S
C835 C812 1.391 . S
H836 C796 0.951 . S
H837 C797 0.977 . S
H838 C803 0.949 . S
H839 C804 0.950 . S
H840 C808 0.951 . S
H841 C809 0.950 . S
H842 C813 0.949 . S
H843 C814 0.950 . S
H844 C818 0.950 . S
H845 C820 0.950 . S
H846 C823 0.950 . S
H847 C825 0.950 . S
C848 C849 1.443 . S
C848 N852 1.376 . S
C848 C886 1.389 . S
C849 C848 1.443 . S
C849 C850 1.340 . S
C849 H889 0.951 . S
C850 C849 1.340 . S
C850 C851 1.439 . S
C850 H890 0.950 . S
C851 C850 1.439 . S
C851 N852 1.374 . S
C851 C885 1.395 . S
N852 C848 1.376 . S
N852 C851 1.374 . S
N852 Co853 2.008 . S
Co853 N852 2.008 . S
Co853 N854 1.995 . S
Co853 N859 2.008 . S
Co853 N864 1.995 . S
Co853 N869 2.282 . S
Co853 N875 2.282 . S
N854 Co853 1.995 . S
N854 C855 1.376 . S
N854 C858 1.383 . S
C855 N854 1.376 . S
C855 C856 1.446 . S
C855 C885 1.391 . S
C856 C855 1.446 . S
C856 C857 1.339 . S
C856 H891 0.949 . S
C857 C856 1.339 . S
C857 C858 1.439 . S
C857 H892 0.950 . S
C858 N854 1.383 . S
C858 C857 1.439 . S
C858 C887 1.392 . S
N859 Co853 2.008 . S
N859 C860 1.376 . S
N859 C863 1.374 . S
C860 N859 1.376 . S
C860 C861 1.443 . S
C860 C887 1.389 . S
C861 C860 1.443 . S
C861 C862 1.340 . S
C861 H893 0.951 . S
C862 C861 1.340 . S
C862 C863 1.439 . S
C862 H894 0.950 . S
C863 N859 1.374 . S
C863 C862 1.439 . S
C863 C888 1.395 . S
N864 Co853 1.995 . S
N864 C865 1.376 . S
N864 C868 1.383 . S
C865 N864 1.376 . S
C865 C866 1.446 . S
C865 C888 1.391 . S
C866 C865 1.446 . S
C866 C867 1.339 . S
C866 H895 0.949 . S
C867 C866 1.339 . S
C867 C868 1.439 . S
C867 H896 0.950 . S
C868 N864 1.383 . S
C868 C867 1.439 . S
C868 C886 1.392 . S
N869 Co853 2.282 . S
N869 C872 1.332 . S
N869 C874 1.332 . S
C870 C871 1.386 . S
C870 C873 1.388 . S
C871 C870 1.386 . S
C871 C872 1.382 . S
C871 H897 0.950 . S
C872 N869 1.332 . S
C872 C871 1.382 . S
C872 H883 0.952 . S
C873 C870 1.388 . S
C873 C874 1.382 . S
C873 H898 0.950 . S
C874 N869 1.332 . S
C874 C873 1.382 . S
C874 H884 0.948 . S
N875 Co853 2.282 . S
N875 C879 1.332 . S
N875 C880 1.332 . S
C876 C877 1.388 . S
C876 C880 1.382 . S
C876 H899 0.950 . S
C877 C876 1.388 . S
C877 C878 1.386 . S
C878 C877 1.386 . S
C878 C879 1.382 . S
C878 H900 0.950 . S
C879 N875 1.332 . S
C879 C878 1.382 . S
C879 H881 0.952 . S
C880 N875 1.332 . S
C880 C876 1.382 . S
C880 H882 0.948 . S
H881 C879 0.952 . S
H882 C880 0.948 . S
H883 C872 0.952 . S
H884 C874 0.948 . S
C885 C851 1.395 . S
C885 C855 1.391 . S
C886 C848 1.389 . S
C886 C868 1.392 . S
C887 C858 1.392 . S
C887 C860 1.389 . S
C888 C863 1.395 . S
C888 C865 1.391 . S
H889 C849 0.951 . S
H890 C850 0.950 . S
H891 C856 0.949 . S
H892 C857 0.950 . S
H893 C861 0.951 . S
H894 C862 0.950 . S
H895 C866 0.949 . S
H896 C867 0.950 . S
H897 C871 0.950 . S
H898 C873 0.950 . S
H899 C876 0.950 . S
H900 C878 0.950 . S
C901 C902 1.443 . S
C901 N905 1.376 . S
C901 C939 1.389 . S
C902 C901 1.443 . S
C902 C903 1.340 . S
C902 H942 0.951 . S
C903 C902 1.340 . S
C903 C904 1.439 . S
C903 H943 0.950 . S
C904 C903 1.439 . S
C904 N905 1.374 . S
C904 C938 1.395 . S
N905 C901 1.376 . S
N905 C904 1.374 . S
N905 Co906 2.008 . S
Co906 N905 2.008 . S
Co906 N907 1.995 . S
Co906 N912 2.008 . S
Co906 N917 1.995 . S
Co906 N922 2.282 . S
Co906 N928 2.282 . S
N907 Co906 1.995 . S
N907 C908 1.376 . S
N907 C911 1.383 . S
C908 N907 1.376 . S
C908 C909 1.446 . S
C908 C938 1.391 . S
C909 C908 1.446 . S
C909 C910 1.339 . S
C909 H944 0.949 . S
C910 C909 1.339 . S
C910 C911 1.439 . S
C910 H945 0.950 . S
C911 N907 1.383 . S
C911 C910 1.439 . S
C911 C940 1.392 . S
N912 Co906 2.008 . S
N912 C913 1.376 . S
N912 C916 1.374 . S
C913 N912 1.376 . S
C913 C914 1.443 . S
C913 C940 1.389 . S
C914 C913 1.443 . S
C914 C915 1.340 . S
C914 H946 0.951 . S
C915 C914 1.340 . S
C915 C916 1.439 . S
C915 H947 0.950 . S
C916 N912 1.374 . S
C916 C915 1.439 . S
C916 C941 1.395 . S
N917 Co906 1.995 . S
N917 C918 1.376 . S
N917 C921 1.383 . S
C918 N917 1.376 . S
C918 C919 1.446 . S
C918 C941 1.391 . S
C919 C918 1.446 . S
C919 C920 1.339 . S
C919 H948 0.949 . S
C920 C919 1.339 . S
C920 C921 1.439 . S
C920 H949 0.950 . S
C921 N917 1.383 . S
C921 C920 1.439 . S
C921 C939 1.392 . S
N922 Co906 2.282 . S
N922 C925 1.332 . S
N922 C927 1.332 . S
C923 C924 1.386 . S
C923 C926 1.388 . S
C924 C923 1.386 . S
C924 C925 1.382 . S
C924 H950 0.950 . S
C925 N922 1.332 . S
C925 C924 1.382 . S
C925 H936 0.952 . S
C926 C923 1.388 . S
C926 C927 1.382 . S
C926 H951 0.950 . S
C927 N922 1.332 . S
C927 C926 1.382 . S
C927 H937 0.948 . S
N928 Co906 2.282 . S
N928 C932 1.332 . S
N928 C933 1.332 . S
C929 C930 1.388 . S
C929 C933 1.382 . S
C929 H952 0.950 . S
C930 C929 1.388 . S
C930 C931 1.386 . S
C931 C930 1.386 . S
C931 C932 1.382 . S
C931 H953 0.950 . S
C932 N928 1.332 . S
C932 C931 1.382 . S
C932 H934 0.952 . S
C933 N928 1.332 . S
C933 C929 1.382 . S
C933 H935 0.948 . S
H934 C932 0.952 . S
H935 C933 0.948 . S
H936 C925 0.952 . S
H937 C927 0.948 . S
C938 C904 1.395 . S
C938 C908 1.391 . S
C939 C901 1.389 . S
C939 C921 1.392 . S
C940 C911 1.392 . S
C940 C913 1.389 . S
C941 C916 1.395 . S
C941 C918 1.391 . S
H942 C902 0.951 . S
H943 C903 0.950 . S
H944 C909 0.949 . S
H945 C910 0.950 . S
H946 C914 0.951 . S
H947 C915 0.950 . S
H948 C919 0.949 . S
H949 C920 0.950 . S
H950 C924 0.950 . S
H951 C926 0.950 . S
H952 C929 0.950 . S
H953 C931 0.950 . S
C954 C955 1.443 . S
C954 N958 1.376 . S
C954 C992 1.389 . S
C955 C954 1.443 . S
C955 C956 1.340 . S
C955 H995 0.951 . S
C956 C955 1.340 . S
C956 C957 1.439 . S
C956 H996 0.950 . S
C957 C956 1.439 . S
C957 N958 1.374 . S
C957 C991 1.395 . S
N958 C954 1.376 . S
N958 C957 1.374 . S
N958 Co959 2.008 . S
Co959 N958 2.008 . S
Co959 N960 1.995 . S
Co959 N965 2.008 . S
Co959 N970 1.995 . S
Co959 N975 2.282 . S
Co959 N981 2.282 . S
N960 Co959 1.995 . S
N960 C961 1.376 . S
N960 C964 1.383 . S
C961 N960 1.376 . S
C961 C962 1.446 . S
C961 C991 1.391 . S
C962 C961 1.446 . S
C962 C963 1.339 . S
C962 H997 0.949 . S
C963 C962 1.339 . S
C963 C964 1.439 . S
C963 H998 0.950 . S
C964 N960 1.383 . S
C964 C963 1.439 . S
C964 C993 1.392 . S
N965 Co959 2.008 . S
N965 C966 1.376 . S
N965 C969 1.374 . S
C966 N965 1.376 . S
C966 C967 1.443 . S
C966 C993 1.389 . S
C967 C966 1.443 . S
C967 C968 1.340 . S
C967 H999 0.951 . S
C968 C967 1.340 . S
C968 C969 1.439 . S
C968 H1000 0.950 . S
C969 N965 1.374 . S
C969 C968 1.439 . S
C969 C994 1.395 . S
N970 Co959 1.995 . S
N970 C971 1.376 . S
N970 C974 1.383 . S
C971 N970 1.376 . S
C971 C972 1.446 . S
C971 C994 1.391 . S
C972 C971 1.446 . S
C972 C973 1.339 . S
C972 H1001 0.949 . S
C973 C972 1.339 . S
C973 C974 1.439 . S
C973 H1002 0.950 . S
C974 N970 1.383 . S
C974 C973 1.439 . S
C974 C992 1.392 . S
N975 Co959 2.282 . S
N975 C978 1.332 . S
N975 C980 1.332 . S
C976 C977 1.386 . S
C976 C979 1.388 . S
C977 C976 1.386 . S
C977 C978 1.382 . S
C977 H1003 0.950 . S
C978 N975 1.332 . S
C978 C977 1.382 . S
C978 H989 0.952 . S
C979 C976 1.388 . S
C979 C980 1.382 . S
C979 H1004 0.950 . S
C980 N975 1.332 . S
C980 C979 1.382 . S
C980 H990 0.948 . S
N981 Co959 2.282 . S
N981 C985 1.332 . S
N981 C986 1.332 . S
C982 C983 1.388 . S
C982 C986 1.382 . S
C982 H1005 0.950 . S
C983 C982 1.388 . S
C983 C984 1.386 . S
C984 C983 1.386 . S
C984 C985 1.382 . S
C984 H1006 0.950 . S
C985 N981 1.332 . S
C985 C984 1.382 . S
C985 H987 0.952 . S
C986 N981 1.332 . S
C986 C982 1.382 . S
C986 H988 0.948 . S
H987 C985 0.952 . S
H988 C986 0.948 . S
H989 C978 0.952 . S
H990 C980 0.948 . S
C991 C957 1.395 . S
C991 C961 1.391 . S
C992 C954 1.389 . S
C992 C974 1.392 . S
C993 C964 1.392 . S
C993 C966 1.389 . S
C994 C969 1.395 . S
C994 C971 1.391 . S
H995 C955 0.951 . S
H996 C956 0.950 . S
H997 C962 0.949 . S
H998 C963 0.950 . S
H999 C967 0.951 . S
H1000 C968 0.950 . S
H1001 C972 0.949 . S
H1002 C973 0.950 . S
H1003 C977 0.950 . S
H1004 C979 0.950 . S
H1005 C982 0.950 . S
H1006 C984 0.950 . S
C1007 C1008 1.443 . S
C1007 N1011 1.376 . S
C1007 C1045 1.389 . S
C1008 C1007 1.443 . S
C1008 C1009 1.340 . S
C1008 H1048 0.951 . S
C1009 C1008 1.340 . S
C1009 C1010 1.439 . S
C1009 H1049 0.950 . S
C1010 C1009 1.439 . S
C1010 N1011 1.374 . S
C1010 C1044 1.395 . S
N1011 C1007 1.376 . S
N1011 C1010 1.374 . S
N1011 Co1012 2.008 . S
Co1012 N1011 2.008 . S
Co1012 N1013 1.995 . S
Co1012 N1018 2.008 . S
Co1012 N1023 1.995 . S
Co1012 N1028 2.282 . S
Co1012 N1034 2.282 . S
N1013 Co1012 1.995 . S
N1013 C1014 1.376 . S
N1013 C1017 1.383 . S
C1014 N1013 1.376 . S
C1014 C1015 1.446 . S
C1014 C1044 1.391 . S
C1015 C1014 1.446 . S
C1015 C1016 1.339 . S
C1015 H1050 0.949 . S
C1016 C1015 1.339 . S
C1016 C1017 1.439 . S
C1016 H1051 0.950 . S
C1017 N1013 1.383 . S
C1017 C1016 1.439 . S
C1017 C1046 1.392 . S
N1018 Co1012 2.008 . S
N1018 C1019 1.376 . S
N1018 C1022 1.374 . S
C1019 N1018 1.376 . S
C1019 C1020 1.443 . S
C1019 C1046 1.389 . S
C1020 C1019 1.443 . S
C1020 C1021 1.340 . S
C1020 H1052 0.951 . S
C1021 C1020 1.340 . S
C1021 C1022 1.439 . S
C1021 H1053 0.950 . S
C1022 N1018 1.374 . S
C1022 C1021 1.439 . S
C1022 C1047 1.395 . S
N1023 Co1012 1.995 . S
N1023 C1024 1.376 . S
N1023 C1027 1.383 . S
C1024 N1023 1.376 . S
C1024 C1025 1.446 . S
C1024 C1047 1.391 . S
C1025 C1024 1.446 . S
C1025 C1026 1.339 . S
C1025 H1054 0.949 . S
C1026 C1025 1.339 . S
C1026 C1027 1.439 . S
C1026 H1055 0.950 . S
C1027 N1023 1.383 . S
C1027 C1026 1.439 . S
C1027 C1045 1.392 . S
N1028 Co1012 2.282 . S
N1028 C1031 1.332 . S
N1028 C1033 1.332 . S
C1029 C1030 1.386 . S
C1029 C1032 1.388 . S
C1030 C1029 1.386 . S
C1030 C1031 1.382 . S
C1030 H1056 0.950 . S
C1031 N1028 1.332 . S
C1031 C1030 1.382 . S
C1031 H1042 0.952 . S
C1032 C1029 1.388 . S
C1032 C1033 1.382 . S
C1032 H1057 0.950 . S
C1033 N1028 1.332 . S
C1033 C1032 1.382 . S
C1033 H1043 0.948 . S
N1034 Co1012 2.282 . S
N1034 C1038 1.332 . S
N1034 C1039 1.332 . S
C1035 C1036 1.388 . S
C1035 C1039 1.382 . S
C1035 H1058 0.950 . S
C1036 C1035 1.388 . S
C1036 C1037 1.386 . S
C1037 C1036 1.386 . S
C1037 C1038 1.382 . S
C1037 H1059 0.950 . S
C1038 N1034 1.332 . S
C1038 C1037 1.382 . S
C1038 H1040 0.952 . S
C1039 N1034 1.332 . S
C1039 C1035 1.382 . S
C1039 H1041 0.948 . S
H1040 C1038 0.952 . S
H1041 C1039 0.948 . S
H1042 C1031 0.952 . S
H1043 C1033 0.948 . S
C1044 C1010 1.395 . S
C1044 C1014 1.391 . S
C1045 C1007 1.389 . S
C1045 C1027 1.392 . S
C1046 C1017 1.392 . S
C1046 C1019 1.389 . S
C1047 C1022 1.395 . S
C1047 C1024 1.391 . S
H1048 C1008 0.951 . S
H1049 C1009 0.950 . S
H1050 C1015 0.949 . S
H1051 C1016 0.950 . S
H1052 C1020 0.951 . S
H1053 C1021 0.950 . S
H1054 C1025 0.949 . S
H1055 C1026 0.950 . S
H1056 C1030 0.950 . S
H1057 C1032 0.950 . S
H1058 C1035 0.950 . S
H1059 C1037 0.950 . S
C1060 C1061 1.443 . S
C1060 N1064 1.376 . S
C1060 C1098 1.389 . S
C1061 C1060 1.443 . S
C1061 C1062 1.340 . S
C1061 H1101 0.951 . S
C1062 C1061 1.340 . S
C1062 C1063 1.439 . S
C1062 H1102 0.950 . S
C1063 C1062 1.439 . S
C1063 N1064 1.374 . S
C1063 C1097 1.395 . S
N1064 C1060 1.376 . S
N1064 C1063 1.374 . S
N1064 Co1065 2.008 . S
Co1065 N1064 2.008 . S
Co1065 N1066 1.995 . S
Co1065 N1071 2.008 . S
Co1065 N1076 1.995 . S
Co1065 N1081 2.282 . S
Co1065 N1087 2.282 . S
N1066 Co1065 1.995 . S
N1066 C1067 1.376 . S
N1066 C1070 1.383 . S
C1067 N1066 1.376 . S
C1067 C1068 1.446 . S
C1067 C1097 1.391 . S
C1068 C1067 1.446 . S
C1068 C1069 1.339 . S
C1068 H1103 0.949 . S
C1069 C1068 1.339 . S
C1069 C1070 1.439 . S
C1069 H1104 0.950 . S
C1070 N1066 1.383 . S
C1070 C1069 1.439 . S
C1070 C1099 1.392 . S
N1071 Co1065 2.008 . S
N1071 C1072 1.376 . S
N1071 C1075 1.374 . S
C1072 N1071 1.376 . S
C1072 C1073 1.443 . S
C1072 C1099 1.389 . S
C1073 C1072 1.443 . S
C1073 C1074 1.340 . S
C1073 H1105 0.951 . S
C1074 C1073 1.340 . S
C1074 C1075 1.439 . S
C1074 H1106 0.950 . S
C1075 N1071 1.374 . S
C1075 C1074 1.439 . S
C1075 C1100 1.395 . S
N1076 Co1065 1.995 . S
N1076 C1077 1.376 . S
N1076 C1080 1.383 . S
C1077 N1076 1.376 . S
C1077 C1078 1.446 . S
C1077 C1100 1.391 . S
C1078 C1077 1.446 . S
C1078 C1079 1.339 . S
C1078 H1107 0.949 . S
C1079 C1078 1.339 . S
C1079 C1080 1.439 . S
C1079 H1108 0.950 . S
C1080 N1076 1.383 . S
C1080 C1079 1.439 . S
C1080 C1098 1.392 . S
N1081 Co1065 2.282 . S
N1081 C1084 1.332 . S
N1081 C1086 1.332 . S
C1082 C1083 1.386 . S
C1082 C1085 1.388 . S
C1083 C1082 1.386 . S
C1083 C1084 1.382 . S
C1083 H1109 0.950 . S
C1084 N1081 1.332 . S
C1084 C1083 1.382 . S
C1084 H1095 0.952 . S
C1085 C1082 1.388 . S
C1085 C1086 1.382 . S
C1085 H1110 0.950 . S
C1086 N1081 1.332 . S
C1086 C1085 1.382 . S
C1086 H1096 0.948 . S
N1087 Co1065 2.282 . S
N1087 C1091 1.332 . S
N1087 C1092 1.332 . S
C1088 C1089 1.388 . S
C1088 C1092 1.382 . S
C1088 H1111 0.950 . S
C1089 C1088 1.388 . S
C1089 C1090 1.386 . S
C1090 C1089 1.386 . S
C1090 C1091 1.382 . S
C1090 H1112 0.950 . S
C1091 N1087 1.332 . S
C1091 C1090 1.382 . S
C1091 H1093 0.952 . S
C1092 N1087 1.332 . S
C1092 C1088 1.382 . S
C1092 H1094 0.948 . S
H1093 C1091 0.952 . S
H1094 C1092 0.948 . S
H1095 C1084 0.952 . S
H1096 C1086 0.948 . S
C1097 C1063 1.395 . S
C1097 C1067 1.391 . S
C1098 C1060 1.389 . S
C1098 C1080 1.392 . S
C1099 C1070 1.392 . S
C1099 C1072 1.389 . S
C1100 C1075 1.395 . S
C1100 C1077 1.391 . S
H1101 C1061 0.951 . S
H1102 C1062 0.950 . S
H1103 C1068 0.949 . S
H1104 C1069 0.950 . S
H1105 C1073 0.951 . S
H1106 C1074 0.950 . S
H1107 C1078 0.949 . S
H1108 C1079 0.950 . S
H1109 C1083 0.950 . S
H1110 C1085 0.950 . S
H1111 C1088 0.950 . S
H1112 C1090 0.950 . S
C1113 C1114 1.443 . S
C1113 N1117 1.376 . S
C1113 C1151 1.389 . S
C1114 C1113 1.443 . S
C1114 C1115 1.340 . S
C1114 H1154 0.951 . S
C1115 C1114 1.340 . S
C1115 C1116 1.439 . S
C1115 H1155 0.950 . S
C1116 C1115 1.439 . S
C1116 N1117 1.374 . S
C1116 C1150 1.395 . S
N1117 C1113 1.376 . S
N1117 C1116 1.374 . S
N1117 Co1118 2.008 . S
Co1118 N1117 2.008 . S
Co1118 N1119 1.995 . S
Co1118 N1124 2.008 . S
Co1118 N1129 1.995 . S
Co1118 N1134 2.282 . S
Co1118 N1140 2.282 . S
N1119 Co1118 1.995 . S
N1119 C1120 1.376 . S
N1119 C1123 1.383 . S
C1120 N1119 1.376 . S
C1120 C1121 1.446 . S
C1120 C1150 1.391 . S
C1121 C1120 1.446 . S
C1121 C1122 1.339 . S
C1121 H1156 0.949 . S
C1122 C1121 1.339 . S
C1122 C1123 1.439 . S
C1122 H1157 0.950 . S
C1123 N1119 1.383 . S
C1123 C1122 1.439 . S
C1123 C1152 1.392 . S
N1124 Co1118 2.008 . S
N1124 C1125 1.376 . S
N1124 C1128 1.374 . S
C1125 N1124 1.376 . S
C1125 C1126 1.443 . S
C1125 C1152 1.389 . S
C1126 C1125 1.443 . S
C1126 C1127 1.340 . S
C1126 H1158 0.951 . S
C1127 C1126 1.340 . S
C1127 C1128 1.439 . S
C1127 H1159 0.950 . S
C1128 N1124 1.374 . S
C1128 C1127 1.439 . S
C1128 C1153 1.395 . S
N1129 Co1118 1.995 . S
N1129 C1130 1.376 . S
N1129 C1133 1.383 . S
C1130 N1129 1.376 . S
C1130 C1131 1.446 . S
C1130 C1153 1.391 . S
C1131 C1130 1.446 . S
C1131 C1132 1.339 . S
C1131 H1160 0.949 . S
C1132 C1131 1.339 . S
C1132 C1133 1.439 . S
C1132 H1161 0.950 . S
C1133 N1129 1.383 . S
C1133 C1132 1.439 . S
C1133 C1151 1.392 . S
N1134 Co1118 2.282 . S
N1134 C1137 1.332 . S
N1134 C1139 1.332 . S
C1135 C1136 1.386 . S
C1135 C1138 1.388 . S
C1136 C1135 1.386 . S
C1136 C1137 1.382 . S
C1136 H1162 0.950 . S
C1137 N1134 1.332 . S
C1137 C1136 1.382 . S
C1137 H1148 0.952 . S
C1138 C1135 1.388 . S
C1138 C1139 1.382 . S
C1138 H1163 0.950 . S
C1139 N1134 1.332 . S
C1139 C1138 1.382 . S
C1139 H1149 0.948 . S
N1140 Co1118 2.282 . S
N1140 C1144 1.332 . S
N1140 C1145 1.332 . S
C1141 C1142 1.388 . S
C1141 C1145 1.382 . S
C1141 H1164 0.950 . S
C1142 C1141 1.388 . S
C1142 C1143 1.386 . S
C1143 C1142 1.386 . S
C1143 C1144 1.382 . S
C1143 H1165 0.950 . S
C1144 N1140 1.332 . S
C1144 C1143 1.382 . S
C1144 H1146 0.952 . S
C1145 N1140 1.332 . S
C1145 C1141 1.382 . S
C1145 H1147 0.948 . S
H1146 C1144 0.952 . S
H1147 C1145 0.948 . S
H1148 C1137 0.952 . S
H1149 C1139 0.948 . S
C1150 C1116 1.395 . S
C1150 C1120 1.391 . S
C1151 C1113 1.389 . S
C1151 C1133 1.392 . S
C1152 C1123 1.392 . S
C1152 C1125 1.389 . S
C1153 C1128 1.395 . S
C1153 C1130 1.391 . S
H1154 C1114 0.951 . S
H1155 C1115 0.950 . S
H1156 C1121 0.949 . S
H1157 C1122 0.950 . S
H1158 C1126 0.951 . S
H1159 C1127 0.950 . S
H1160 C1131 0.949 . S
H1161 C1132 0.950 . S
H1162 C1136 0.950 . S
H1163 C1138 0.950 . S
H1164 C1141 0.950 . S
H1165 C1143 0.950 . S
C1166 C1167 1.443 . S
C1166 N1170 1.376 . S
C1166 C1204 1.389 . S
C1167 C1166 1.443 . S
C1167 C1168 1.340 . S
C1167 H1207 0.951 . S
C1168 C1167 1.340 . S
C1168 C1169 1.439 . S
C1168 H1208 0.950 . S
C1169 C1168 1.439 . S
C1169 N1170 1.374 . S
C1169 C1203 1.395 . S
N1170 C1166 1.376 . S
N1170 C1169 1.374 . S
N1170 Co1171 2.008 . S
Co1171 N1170 2.008 . S
Co1171 N1172 1.995 . S
Co1171 N1177 2.008 . S
Co1171 N1182 1.995 . S
Co1171 N1187 2.282 . S
Co1171 N1193 2.282 . S
N1172 Co1171 1.995 . S
N1172 C1173 1.376 . S
N1172 C1176 1.383 . S
C1173 N1172 1.376 . S
C1173 C1174 1.446 . S
C1173 C1203 1.391 . S
C1174 C1173 1.446 . S
C1174 C1175 1.339 . S
C1174 H1209 0.949 . S
C1175 C1174 1.339 . S
C1175 C1176 1.439 . S
C1175 H1210 0.950 . S
C1176 N1172 1.383 . S
C1176 C1175 1.439 . S
C1176 C1205 1.392 . S
N1177 Co1171 2.008 . S
N1177 C1178 1.376 . S
N1177 C1181 1.374 . S
C1178 N1177 1.376 . S
C1178 C1179 1.443 . S
C1178 C1205 1.389 . S
C1179 C1178 1.443 . S
C1179 C1180 1.340 . S
C1179 H1211 0.951 . S
C1180 C1179 1.340 . S
C1180 C1181 1.439 . S
C1180 H1212 0.950 . S
C1181 N1177 1.374 . S
C1181 C1180 1.439 . S
C1181 C1206 1.395 . S
N1182 Co1171 1.995 . S
N1182 C1183 1.376 . S
N1182 C1186 1.383 . S
C1183 N1182 1.376 . S
C1183 C1184 1.446 . S
C1183 C1206 1.391 . S
C1184 C1183 1.446 . S
C1184 C1185 1.339 . S
C1184 H1213 0.949 . S
C1185 C1184 1.339 . S
C1185 C1186 1.439 . S
C1185 H1214 0.950 . S
C1186 N1182 1.383 . S
C1186 C1185 1.439 . S
C1186 C1204 1.392 . S
N1187 Co1171 2.282 . S
N1187 C1190 1.332 . S
N1187 C1192 1.332 . S
C1188 C1189 1.386 . S
C1188 C1191 1.388 . S
C1189 C1188 1.386 . S
C1189 C1190 1.382 . S
C1189 H1215 0.950 . S
C1190 N1187 1.332 . S
C1190 C1189 1.382 . S
C1190 H1201 0.952 . S
C1191 C1188 1.388 . S
C1191 C1192 1.382 . S
C1191 H1216 0.950 . S
C1192 N1187 1.332 . S
C1192 C1191 1.382 . S
C1192 H1202 0.948 . S
N1193 Co1171 2.282 . S
N1193 C1197 1.332 . S
N1193 C1198 1.332 . S
C1194 C1195 1.388 . S
C1194 C1198 1.382 . S
C1194 H1217 0.950 . S
C1195 C1194 1.388 . S
C1195 C1196 1.386 . S
C1196 C1195 1.386 . S
C1196 C1197 1.382 . S
C1196 H1218 0.950 . S
C1197 N1193 1.332 . S
C1197 C1196 1.382 . S
C1197 H1199 0.952 . S
C1198 N1193 1.332 . S
C1198 C1194 1.382 . S
C1198 H1200 0.948 . S
H1199 C1197 0.952 . S
H1200 C1198 0.948 . S
H1201 C1190 0.952 . S
H1202 C1192 0.948 . S
C1203 C1169 1.395 . S
C1203 C1173 1.391 . S
C1204 C1166 1.389 . S
C1204 C1186 1.392 . S
C1205 C1176 1.392 . S
C1205 C1178 1.389 . S
C1206 C1181 1.395 . S
C1206 C1183 1.391 . S
H1207 C1167 0.951 . S
H1208 C1168 0.950 . S
H1209 C1174 0.949 . S
H1210 C1175 0.950 . S
H1211 C1179 0.951 . S
H1212 C1180 0.950 . S
H1213 C1184 0.949 . S
H1214 C1185 0.950 . S
H1215 C1189 0.950 . S
H1216 C1191 0.950 . S
H1217 C1194 0.950 . S
H1218 C1196 0.950 . S
C1219 C1220 1.443 . S
C1219 N1223 1.376 . S
C1219 C1257 1.389 . S
C1220 C1219 1.443 . S
C1220 C1221 1.340 . S
C1220 H1260 0.951 . S
C1221 C1220 1.340 . S
C1221 C1222 1.439 . S
C1221 H1261 0.950 . S
C1222 C1221 1.439 . S
C1222 N1223 1.374 . S
C1222 C1256 1.395 . S
N1223 C1219 1.376 . S
N1223 C1222 1.374 . S
N1223 Co1224 2.008 . S
Co1224 N1223 2.008 . S
Co1224 N1225 1.995 . S
Co1224 N1230 2.008 . S
Co1224 N1235 1.995 . S
Co1224 N1240 2.282 . S
Co1224 N1246 2.282 . S
N1225 Co1224 1.995 . S
N1225 C1226 1.376 . S
N1225 C1229 1.383 . S
C1226 N1225 1.376 . S
C1226 C1227 1.446 . S
C1226 C1256 1.391 . S
C1227 C1226 1.446 . S
C1227 C1228 1.339 . S
C1227 H1262 0.949 . S
C1228 C1227 1.339 . S
C1228 C1229 1.439 . S
C1228 H1263 0.950 . S
C1229 N1225 1.383 . S
C1229 C1228 1.439 . S
C1229 C1258 1.392 . S
N1230 Co1224 2.008 . S
N1230 C1231 1.376 . S
N1230 C1234 1.374 . S
C1231 N1230 1.376 . S
C1231 C1232 1.443 . S
C1231 C1258 1.389 . S
C1232 C1231 1.443 . S
C1232 C1233 1.340 . S
C1232 H1264 0.951 . S
C1233 C1232 1.340 . S
C1233 C1234 1.439 . S
C1233 H1265 0.950 . S
C1234 N1230 1.374 . S
C1234 C1233 1.439 . S
C1234 C1259 1.395 . S
N1235 Co1224 1.995 . S
N1235 C1236 1.376 . S
N1235 C1239 1.383 . S
C1236 N1235 1.376 . S
C1236 C1237 1.446 . S
C1236 C1259 1.391 . S
C1237 C1236 1.446 . S
C1237 C1238 1.339 . S
C1237 H1266 0.949 . S
C1238 C1237 1.339 . S
C1238 C1239 1.439 . S
C1238 H1267 0.950 . S
C1239 N1235 1.383 . S
C1239 C1238 1.439 . S
C1239 C1257 1.392 . S
N1240 Co1224 2.282 . S
N1240 C1243 1.332 . S
N1240 C1245 1.332 . S
C1241 C1242 1.386 . S
C1241 C1244 1.388 . S
C1242 C1241 1.386 . S
C1242 C1243 1.382 . S
C1242 H1268 0.950 . S
C1243 N1240 1.332 . S
C1243 C1242 1.382 . S
C1243 H1254 0.952 . S
C1244 C1241 1.388 . S
C1244 C1245 1.382 . S
C1244 H1269 0.950 . S
C1245 N1240 1.332 . S
C1245 C1244 1.382 . S
C1245 H1255 0.948 . S
N1246 Co1224 2.282 . S
N1246 C1250 1.332 . S
N1246 C1251 1.332 . S
C1247 C1248 1.388 . S
C1247 C1251 1.382 . S
C1247 H1270 0.950 . S
C1248 C1247 1.388 . S
C1248 C1249 1.386 . S
C1249 C1248 1.386 . S
C1249 C1250 1.382 . S
C1249 H1271 0.950 . S
C1250 N1246 1.332 . S
C1250 C1249 1.382 . S
C1250 H1252 0.952 . S
C1251 N1246 1.332 . S
C1251 C1247 1.382 . S
C1251 H1253 0.948 . S
H1252 C1250 0.952 . S
H1253 C1251 0.948 . S
H1254 C1243 0.952 . S
H1255 C1245 0.948 . S
C1256 C1222 1.395 . S
C1256 C1226 1.391 . S
C1257 C1219 1.389 . S
C1257 C1239 1.392 . S
C1258 C1229 1.392 . S
C1258 C1231 1.389 . S
C1259 C1234 1.395 . S
C1259 C1236 1.391 . S
H1260 C1220 0.951 . S
H1261 C1221 0.950 . S
H1262 C1227 0.949 . S
H1263 C1228 0.950 . S
H1264 C1232 0.951 . S
H1265 C1233 0.950 . S
H1266 C1237 0.949 . S
H1267 C1238 0.950 . S
H1268 C1242 0.950 . S
H1269 C1244 0.950 . S
H1270 C1247 0.950 . S
H1271 C1249 0.950 . S
C1272 C1273 1.443 . S
C1272 N1276 1.376 . S
C1272 C1310 1.389 . S
C1273 C1272 1.443 . S
C1273 C1274 1.340 . S
C1273 H1313 0.951 . S
C1274 C1273 1.340 . S
C1274 C1275 1.439 . S
C1274 H1314 0.950 . S
C1275 C1274 1.439 . S
C1275 N1276 1.374 . S
C1275 C1309 1.395 . S
N1276 C1272 1.376 . S
N1276 C1275 1.374 . S
N1276 Co1277 2.008 . S
Co1277 N1276 2.008 . S
Co1277 N1278 1.995 . S
Co1277 N1283 2.008 . S
Co1277 N1288 1.995 . S
Co1277 N1293 2.282 . S
Co1277 N1299 2.282 . S
N1278 Co1277 1.995 . S
N1278 C1279 1.376 . S
N1278 C1282 1.383 . S
C1279 N1278 1.376 . S
C1279 C1280 1.446 . S
C1279 C1309 1.391 . S
C1280 C1279 1.446 . S
C1280 C1281 1.339 . S
C1280 H1315 0.949 . S
C1281 C1280 1.339 . S
C1281 C1282 1.439 . S
C1281 H1316 0.950 . S
C1282 N1278 1.383 . S
C1282 C1281 1.439 . S
C1282 C1311 1.392 . S
N1283 Co1277 2.008 . S
N1283 C1284 1.376 . S
N1283 C1287 1.374 . S
C1284 N1283 1.376 . S
C1284 C1285 1.443 . S
C1284 C1311 1.389 . S
C1285 C1284 1.443 . S
C1285 C1286 1.340 . S
C1285 H1317 0.951 . S
C1286 C1285 1.340 . S
C1286 C1287 1.439 . S
C1286 H1318 0.950 . S
C1287 N1283 1.374 . S
C1287 C1286 1.439 . S
C1287 C1312 1.395 . S
N1288 Co1277 1.995 . S
N1288 C1289 1.376 . S
N1288 C1292 1.383 . S
C1289 N1288 1.376 . S
C1289 C1290 1.446 . S
C1289 C1312 1.391 . S
C1290 C1289 1.446 . S
C1290 C1291 1.339 . S
C1290 H1319 0.949 . S
C1291 C1290 1.339 . S
C1291 C1292 1.439 . S
C1291 H1320 0.950 . S
C1292 N1288 1.383 . S
C1292 C1291 1.439 . S
C1292 C1310 1.392 . S
N1293 Co1277 2.282 . S
N1293 C1296 1.332 . S
N1293 C1298 1.332 . S
C1294 C1295 1.386 . S
C1294 C1297 1.388 . S
C1295 C1294 1.386 . S
C1295 C1296 1.382 . S
C1295 H1321 0.950 . S
C1296 N1293 1.332 . S
C1296 C1295 1.382 . S
C1296 H1307 0.952 . S
C1297 C1294 1.388 . S
C1297 C1298 1.382 . S
C1297 H1322 0.950 . S
C1298 N1293 1.332 . S
C1298 C1297 1.382 . S
C1298 H1308 0.948 . S
N1299 Co1277 2.282 . S
N1299 C1303 1.332 . S
N1299 C1304 1.332 . S
C1300 C1301 1.388 . S
C1300 C1304 1.382 . S
C1300 H1323 0.950 . S
C1301 C1300 1.388 . S
C1301 C1302 1.386 . S
C1302 C1301 1.386 . S
C1302 C1303 1.382 . S
C1302 H1324 0.950 . S
C1303 N1299 1.332 . S
C1303 C1302 1.382 . S
C1303 H1305 0.952 . S
C1304 N1299 1.332 . S
C1304 C1300 1.382 . S
C1304 H1306 0.948 . S
H1305 C1303 0.952 . S
H1306 C1304 0.948 . S
H1307 C1296 0.952 . S
H1308 C1298 0.948 . S
C1309 C1275 1.395 . S
C1309 C1279 1.391 . S
C1310 C1272 1.389 . S
C1310 C1292 1.392 . S
C1311 C1282 1.392 . S
C1311 C1284 1.389 . S
C1312 C1287 1.395 . S
C1312 C1289 1.391 . S
H1313 C1273 0.951 . S
H1314 C1274 0.950 . S
H1315 C1280 0.949 . S
H1316 C1281 0.950 . S
H1317 C1285 0.951 . S
H1318 C1286 0.950 . S
H1319 C1290 0.949 . S
H1320 C1291 0.950 . S
H1321 C1295 0.950 . S
H1322 C1297 0.950 . S
H1323 C1300 0.950 . S
H1324 C1302 0.950 . S
C1325 C1326 1.443 . S
C1325 N1329 1.376 . S
C1325 C1363 1.389 . S
C1326 C1325 1.443 . S
C1326 C1327 1.340 . S
C1326 H1366 0.951 . S
C1327 C1326 1.340 . S
C1327 C1328 1.439 . S
C1327 H1367 0.950 . S
C1328 C1327 1.439 . S
C1328 N1329 1.374 . S
C1328 C1362 1.395 . S
N1329 C1325 1.376 . S
N1329 C1328 1.374 . S
N1329 Co1330 2.008 . S
Co1330 N1329 2.008 . S
Co1330 N1331 1.995 . S
Co1330 N1336 2.008 . S
Co1330 N1341 1.995 . S
Co1330 N1346 2.282 . S
Co1330 N1352 2.282 . S
N1331 Co1330 1.995 . S
N1331 C1332 1.376 . S
N1331 C1335 1.383 . S
C1332 N1331 1.376 . S
C1332 C1333 1.446 . S
C1332 C1362 1.391 . S
C1333 C1332 1.446 . S
C1333 C1334 1.339 . S
C1333 H1368 0.949 . S
C1334 C1333 1.339 . S
C1334 C1335 1.439 . S
C1334 H1369 0.950 . S
C1335 N1331 1.383 . S
C1335 C1334 1.439 . S
C1335 C1364 1.392 . S
N1336 Co1330 2.008 . S
N1336 C1337 1.376 . S
N1336 C1340 1.374 . S
C1337 N1336 1.376 . S
C1337 C1338 1.443 . S
C1337 C1364 1.389 . S
C1338 C1337 1.443 . S
C1338 C1339 1.340 . S
C1338 H1370 0.951 . S
C1339 C1338 1.340 . S
C1339 C1340 1.439 . S
C1339 H1371 0.950 . S
C1340 N1336 1.374 . S
C1340 C1339 1.439 . S
C1340 C1365 1.395 . S
N1341 Co1330 1.995 . S
N1341 C1342 1.376 . S
N1341 C1345 1.383 . S
C1342 N1341 1.376 . S
C1342 C1343 1.446 . S
C1342 C1365 1.391 . S
C1343 C1342 1.446 . S
C1343 C1344 1.339 . S
C1343 H1372 0.949 . S
C1344 C1343 1.339 . S
C1344 C1345 1.439 . S
C1344 H1373 0.950 . S
C1345 N1341 1.383 . S
C1345 C1344 1.439 . S
C1345 C1363 1.392 . S
N1346 Co1330 2.282 . S
N1346 C1349 1.332 . S
N1346 C1351 1.332 . S
C1347 C1348 1.386 . S
C1347 C1350 1.388 . S
C1348 C1347 1.386 . S
C1348 C1349 1.382 . S
C1348 H1374 0.950 . S
C1349 N1346 1.332 . S
C1349 C1348 1.382 . S
C1349 H1360 0.952 . S
C1350 C1347 1.388 . S
C1350 C1351 1.382 . S
C1350 H1375 0.950 . S
C1351 N1346 1.332 . S
C1351 C1350 1.382 . S
C1351 H1361 0.948 . S
N1352 Co1330 2.282 . S
N1352 C1356 1.332 . S
N1352 C1357 1.332 . S
C1353 C1354 1.388 . S
C1353 C1357 1.382 . S
C1353 H1376 0.950 . S
C1354 C1353 1.388 . S
C1354 C1355 1.386 . S
C1355 C1354 1.386 . S
C1355 C1356 1.382 . S
C1355 H1377 0.950 . S
C1356 N1352 1.332 . S
C1356 C1355 1.382 . S
C1356 H1358 0.952 . S
C1357 N1352 1.332 . S
C1357 C1353 1.382 . S
C1357 H1359 0.948 . S
H1358 C1356 0.952 . S
H1359 C1357 0.948 . S
H1360 C1349 0.952 . S
H1361 C1351 0.948 . S
C1362 C1328 1.395 . S
C1362 C1332 1.391 . S
C1363 C1325 1.389 . S
C1363 C1345 1.392 . S
C1364 C1335 1.392 . S
C1364 C1337 1.389 . S
C1365 C1340 1.395 . S
C1365 C1342 1.391 . S
H1366 C1326 0.951 . S
H1367 C1327 0.950 . S
H1368 C1333 0.949 . S
H1369 C1334 0.950 . S
H1370 C1338 0.951 . S
H1371 C1339 0.950 . S
H1372 C1343 0.949 . S
H1373 C1344 0.950 . S
H1374 C1348 0.950 . S
H1375 C1350 0.950 . S
H1376 C1353 0.950 . S
H1377 C1355 0.950 . S
C1378 C1379 1.443 . S
C1378 N1382 1.376 . S
C1378 C1416 1.389 . S
C1379 C1378 1.443 . S
C1379 C1380 1.340 . S
C1379 H1419 0.951 . S
C1380 C1379 1.340 . S
C1380 C1381 1.439 . S
C1380 H1420 0.950 . S
C1381 C1380 1.439 . S
C1381 N1382 1.374 . S
C1381 C1415 1.395 . S
N1382 C1378 1.376 . S
N1382 C1381 1.374 . S
N1382 Co1383 2.008 . S
Co1383 N1382 2.008 . S
Co1383 N1384 1.995 . S
Co1383 N1389 2.008 . S
Co1383 N1394 1.995 . S
Co1383 N1399 2.282 . S
Co1383 N1405 2.282 . S
N1384 Co1383 1.995 . S
N1384 C1385 1.376 . S
N1384 C1388 1.383 . S
C1385 N1384 1.376 . S
C1385 C1386 1.446 . S
C1385 C1415 1.391 . S
C1386 C1385 1.446 . S
C1386 C1387 1.339 . S
C1386 H1421 0.949 . S
C1387 C1386 1.339 . S
C1387 C1388 1.439 . S
C1387 H1422 0.950 . S
C1388 N1384 1.383 . S
C1388 C1387 1.439 . S
C1388 C1417 1.392 . S
N1389 Co1383 2.008 . S
N1389 C1390 1.376 . S
N1389 C1393 1.374 . S
C1390 N1389 1.376 . S
C1390 C1391 1.443 . S
C1390 C1417 1.389 . S
C1391 C1390 1.443 . S
C1391 C1392 1.340 . S
C1391 H1423 0.951 . S
C1392 C1391 1.340 . S
C1392 C1393 1.439 . S
C1392 H1424 0.950 . S
C1393 N1389 1.374 . S
C1393 C1392 1.439 . S
C1393 C1418 1.395 . S
N1394 Co1383 1.995 . S
N1394 C1395 1.376 . S
N1394 C1398 1.383 . S
C1395 N1394 1.376 . S
C1395 C1396 1.446 . S
C1395 C1418 1.391 . S
C1396 C1395 1.446 . S
C1396 C1397 1.339 . S
C1396 H1425 0.949 . S
C1397 C1396 1.339 . S
C1397 C1398 1.439 . S
C1397 H1426 0.950 . S
C1398 N1394 1.383 . S
C1398 C1397 1.439 . S
C1398 C1416 1.392 . S
N1399 Co1383 2.282 . S
N1399 C1402 1.332 . S
N1399 C1404 1.332 . S
C1400 C1401 1.386 . S
C1400 C1403 1.388 . S
C1401 C1400 1.386 . S
C1401 C1402 1.382 . S
C1401 H1427 0.950 . S
C1402 N1399 1.332 . S
C1402 C1401 1.382 . S
C1402 H1413 0.952 . S
C1403 C1400 1.388 . S
C1403 C1404 1.382 . S
C1403 H1428 0.950 . S
C1404 N1399 1.332 . S
C1404 C1403 1.382 . S
C1404 H1414 0.948 . S
N1405 Co1383 2.282 . S
N1405 C1409 1.332 . S
N1405 C1410 1.332 . S
C1406 C1407 1.388 . S
C1406 C1410 1.382 . S
C1406 H1429 0.950 . S
C1407 C1406 1.388 . S
C1407 C1408 1.386 . S
C1408 C1407 1.386 . S
C1408 C1409 1.382 . S
C1408 H1430 0.950 . S
C1409 N1405 1.332 . S
C1409 C1408 1.382 . S
C1409 H1411 0.952 . S
C1410 N1405 1.332 . S
C1410 C1406 1.382 . S
C1410 H1412 0.948 . S
H1411 C1409 0.952 . S
H1412 C1410 0.948 . S
H1413 C1402 0.952 . S
H1414 C1404 0.948 . S
C1415 C1381 1.395 . S
C1415 C1385 1.391 . S
C1416 C1378 1.389 . S
C1416 C1398 1.392 . S
C1417 C1388 1.392 . S
C1417 C1390 1.389 . S
C1418 C1393 1.395 . S
C1418 C1395 1.391 . S
H1419 C1379 0.951 . S
H1420 C1380 0.950 . S
H1421 C1386 0.949 . S
H1422 C1387 0.950 . S
H1423 C1391 0.951 . S
H1424 C1392 0.950 . S
H1425 C1396 0.949 . S
H1426 C1397 0.950 . S
H1427 C1401 0.950 . S
H1428 C1403 0.950 . S
H1429 C1406 0.950 . S
H1430 C1408 0.950 . S
C1431 C1432 1.443 . S
C1431 N1435 1.376 . S
C1431 C1469 1.389 . S
C1432 C1431 1.443 . S
C1432 C1433 1.340 . S
C1432 H1472 0.951 . S
C1433 C1432 1.340 . S
C1433 C1434 1.439 . S
C1433 H1473 0.950 . S
C1434 C1433 1.439 . S
C1434 N1435 1.374 . S
C1434 C1468 1.395 . S
N1435 C1431 1.376 . S
N1435 C1434 1.374 . S
N1435 Co1436 2.008 . S
Co1436 N1435 2.008 . S
Co1436 N1437 1.995 . S
Co1436 N1442 2.008 . S
Co1436 N1447 1.995 . S
Co1436 N1452 2.282 . S
Co1436 N1458 2.282 . S
N1437 Co1436 1.995 . S
N1437 C1438 1.376 . S
N1437 C1441 1.383 . S
C1438 N1437 1.376 . S
C1438 C1439 1.446 . S
C1438 C1468 1.391 . S
C1439 C1438 1.446 . S
C1439 C1440 1.339 . S
C1439 H1474 0.949 . S
C1440 C1439 1.339 . S
C1440 C1441 1.439 . S
C1440 H1475 0.950 . S
C1441 N1437 1.383 . S
C1441 C1440 1.439 . S
C1441 C1470 1.392 . S
N1442 Co1436 2.008 . S
N1442 C1443 1.376 . S
N1442 C1446 1.374 . S
C1443 N1442 1.376 . S
C1443 C1444 1.443 . S
C1443 C1470 1.389 . S
C1444 C1443 1.443 . S
C1444 C1445 1.340 . S
C1444 H1476 0.951 . S
C1445 C1444 1.340 . S
C1445 C1446 1.439 . S
C1445 H1477 0.950 . S
C1446 N1442 1.374 . S
C1446 C1445 1.439 . S
C1446 C1471 1.395 . S
N1447 Co1436 1.995 . S
N1447 C1448 1.376 . S
N1447 C1451 1.383 . S
C1448 N1447 1.376 . S
C1448 C1449 1.446 . S
C1448 C1471 1.391 . S
C1449 C1448 1.446 . S
C1449 C1450 1.339 . S
C1449 H1478 0.949 . S
C1450 C1449 1.339 . S
C1450 C1451 1.439 . S
C1450 H1479 0.950 . S
C1451 N1447 1.383 . S
C1451 C1450 1.439 . S
C1451 C1469 1.392 . S
N1452 Co1436 2.282 . S
N1452 C1455 1.332 . S
N1452 C1457 1.332 . S
C1453 C1454 1.386 . S
C1453 C1456 1.388 . S
C1454 C1453 1.386 . S
C1454 C1455 1.382 . S
C1454 H1480 0.950 . S
C1455 N1452 1.332 . S
C1455 C1454 1.382 . S
C1455 H1466 0.952 . S
C1456 C1453 1.388 . S
C1456 C1457 1.382 . S
C1456 H1481 0.950 . S
C1457 N1452 1.332 . S
C1457 C1456 1.382 . S
C1457 H1467 0.948 . S
N1458 Co1436 2.282 . S
N1458 C1462 1.332 . S
N1458 C1463 1.332 . S
C1459 C1460 1.388 . S
C1459 C1463 1.382 . S
C1459 H1482 0.950 . S
C1460 C1459 1.388 . S
C1460 C1461 1.386 . S
C1461 C1460 1.386 . S
C1461 C1462 1.382 . S
C1461 H1483 0.950 . S
C1462 N1458 1.332 . S
C1462 C1461 1.382 . S
C1462 H1464 0.952 . S
C1463 N1458 1.332 . S
C1463 C1459 1.382 . S
C1463 H1465 0.948 . S
H1464 C1462 0.952 . S
H1465 C1463 0.948 . S
H1466 C1455 0.952 . S
H1467 C1457 0.948 . S
C1468 C1434 1.395 . S
C1468 C1438 1.391 . S
C1469 C1431 1.389 . S
C1469 C1451 1.392 . S
C1470 C1441 1.392 . S
C1470 C1443 1.389 . S
C1471 C1446 1.395 . S
C1471 C1448 1.391 . S
H1472 C1432 0.951 . S
H1473 C1433 0.950 . S
H1474 C1439 0.949 . S
H1475 C1440 0.950 . S
H1476 C1444 0.951 . S
H1477 C1445 0.950 . S
H1478 C1449 0.949 . S
H1479 C1450 0.950 . S
H1480 C1454 0.950 . S
H1481 C1456 0.950 . S
H1482 C1459 0.950 . S
H1483 C1461 0.950 . S
C1484 C1485 1.443 . S
C1484 N1488 1.376 . S
C1484 C1522 1.389 . S
C1485 C1484 1.443 . S
C1485 C1486 1.340 . S
C1485 H1525 0.951 . S
C1486 C1485 1.340 . S
C1486 C1487 1.439 . S
C1486 H1526 0.950 . S
C1487 C1486 1.439 . S
C1487 N1488 1.374 . S
C1487 C1521 1.395 . S
N1488 C1484 1.376 . S
N1488 C1487 1.374 . S
N1488 Co1489 2.008 . S
Co1489 N1488 2.008 . S
Co1489 N1490 1.995 . S
Co1489 N1495 2.008 . S
Co1489 N1500 1.995 . S
Co1489 N1505 2.282 . S
Co1489 N1511 2.282 . S
N1490 Co1489 1.995 . S
N1490 C1491 1.376 . S
N1490 C1494 1.383 . S
C1491 N1490 1.376 . S
C1491 C1492 1.446 . S
C1491 C1521 1.391 . S
C1492 C1491 1.446 . S
C1492 C1493 1.339 . S
C1492 H1527 0.949 . S
C1493 C1492 1.339 . S
C1493 C1494 1.439 . S
C1493 H1528 0.950 . S
C1494 N1490 1.383 . S
C1494 C1493 1.439 . S
C1494 C1523 1.392 . S
N1495 Co1489 2.008 . S
N1495 C1496 1.376 . S
N1495 C1499 1.374 . S
C1496 N1495 1.376 . S
C1496 C1497 1.443 . S
C1496 C1523 1.389 . S
C1497 C1496 1.443 . S
C1497 C1498 1.340 . S
C1497 H1529 0.951 . S
C1498 C1497 1.340 . S
C1498 C1499 1.439 . S
C1498 H1530 0.950 . S
C1499 N1495 1.374 . S
C1499 C1498 1.439 . S
C1499 C1524 1.395 . S
N1500 Co1489 1.995 . S
N1500 C1501 1.376 . S
N1500 C1504 1.383 . S
C1501 N1500 1.376 . S
C1501 C1502 1.446 . S
C1501 C1524 1.391 . S
C1502 C1501 1.446 . S
C1502 C1503 1.339 . S
C1502 H1531 0.949 . S
C1503 C1502 1.339 . S
C1503 C1504 1.439 . S
C1503 H1532 0.950 . S
C1504 N1500 1.383 . S
C1504 C1503 1.439 . S
C1504 C1522 1.392 . S
N1505 Co1489 2.282 . S
N1505 C1508 1.332 . S
N1505 C1510 1.332 . S
C1506 C1507 1.386 . S
C1506 C1509 1.388 . S
C1507 C1506 1.386 . S
C1507 C1508 1.382 . S
C1507 H1533 0.950 . S
C1508 N1505 1.332 . S
C1508 C1507 1.382 . S
C1508 H1519 0.952 . S
C1509 C1506 1.388 . S
C1509 C1510 1.382 . S
C1509 H1534 0.950 . S
C1510 N1505 1.332 . S
C1510 C1509 1.382 . S
C1510 H1520 0.948 . S
N1511 Co1489 2.282 . S
N1511 C1515 1.332 . S
N1511 C1516 1.332 . S
C1512 C1513 1.388 . S
C1512 C1516 1.382 . S
C1512 H1535 0.950 . S
C1513 C1512 1.388 . S
C1513 C1514 1.386 . S
C1514 C1513 1.386 . S
C1514 C1515 1.382 . S
C1514 H1536 0.950 . S
C1515 N1511 1.332 . S
C1515 C1514 1.382 . S
C1515 H1517 0.952 . S
C1516 N1511 1.332 . S
C1516 C1512 1.382 . S
C1516 H1518 0.948 . S
H1517 C1515 0.952 . S
H1518 C1516 0.948 . S
H1519 C1508 0.952 . S
H1520 C1510 0.948 . S
C1521 C1487 1.395 . S
C1521 C1491 1.391 . S
C1522 C1484 1.389 . S
C1522 C1504 1.392 . S
C1523 C1494 1.392 . S
C1523 C1496 1.389 . S
C1524 C1499 1.395 . S
C1524 C1501 1.391 . S
H1525 C1485 0.951 . S
H1526 C1486 0.950 . S
H1527 C1492 0.949 . S
H1528 C1493 0.950 . S
H1529 C1497 0.951 . S
H1530 C1498 0.950 . S
H1531 C1502 0.949 . S
H1532 C1503 0.950 . S
H1533 C1507 0.950 . S
H1534 C1509 0.950 . S
H1535 C1512 0.950 . S
H1536 C1514 0.950 . S
C1537 C1538 1.443 . S
C1537 N1541 1.376 . S
C1537 C1575 1.389 . S
C1538 C1537 1.443 . S
C1538 C1539 1.340 . S
C1538 H1578 0.951 . S
C1539 C1538 1.340 . S
C1539 C1540 1.439 . S
C1539 H1579 0.950 . S
C1540 C1539 1.439 . S
C1540 N1541 1.374 . S
C1540 C1574 1.395 . S
N1541 C1537 1.376 . S
N1541 C1540 1.374 . S
N1541 Co1542 2.008 . S
Co1542 N1541 2.008 . S
Co1542 N1543 1.995 . S
Co1542 N1548 2.008 . S
Co1542 N1553 1.995 . S
Co1542 N1558 2.282 . S
Co1542 N1564 2.282 . S
N1543 Co1542 1.995 . S
N1543 C1544 1.376 . S
N1543 C1547 1.383 . S
C1544 N1543 1.376 . S
C1544 C1545 1.446 . S
C1544 C1574 1.391 . S
C1545 C1544 1.446 . S
C1545 C1546 1.339 . S
C1545 H1580 0.949 . S
C1546 C1545 1.339 . S
C1546 C1547 1.439 . S
C1546 H1581 0.950 . S
C1547 N1543 1.383 . S
C1547 C1546 1.439 . S
C1547 C1576 1.392 . S
N1548 Co1542 2.008 . S
N1548 C1549 1.376 . S
N1548 C1552 1.374 . S
C1549 N1548 1.376 . S
C1549 C1550 1.443 . S
C1549 C1576 1.389 . S
C1550 C1549 1.443 . S
C1550 C1551 1.340 . S
C1550 H1582 0.951 . S
C1551 C1550 1.340 . S
C1551 C1552 1.439 . S
C1551 H1583 0.950 . S
C1552 N1548 1.374 . S
C1552 C1551 1.439 . S
C1552 C1577 1.395 . S
N1553 Co1542 1.995 . S
N1553 C1554 1.376 . S
N1553 C1557 1.383 . S
C1554 N1553 1.376 . S
C1554 C1555 1.446 . S
C1554 C1577 1.391 . S
C1555 C1554 1.446 . S
C1555 C1556 1.339 . S
C1555 H1584 0.949 . S
C1556 C1555 1.339 . S
C1556 C1557 1.439 . S
C1556 H1585 0.950 . S
C1557 N1553 1.383 . S
C1557 C1556 1.439 . S
C1557 C1575 1.392 . S
N1558 Co1542 2.282 . S
N1558 C1561 1.332 . S
N1558 C1563 1.332 . S
C1559 C1560 1.386 . S
C1559 C1562 1.388 . S
C1560 C1559 1.386 . S
C1560 C1561 1.382 . S
C1560 H1586 0.950 . S
C1561 N1558 1.332 . S
C1561 C1560 1.382 . S
C1561 H1572 0.952 . S
C1562 C1559 1.388 . S
C1562 C1563 1.382 . S
C1562 H1587 0.950 . S
C1563 N1558 1.332 . S
C1563 C1562 1.382 . S
C1563 H1573 0.948 . S
N1564 Co1542 2.282 . S
N1564 C1568 1.332 . S
N1564 C1569 1.332 . S
C1565 C1566 1.388 . S
C1565 C1569 1.382 . S
C1565 H1588 0.950 . S
C1566 C1565 1.388 . S
C1566 C1567 1.386 . S
C1567 C1566 1.386 . S
C1567 C1568 1.382 . S
C1567 H1589 0.950 . S
C1568 N1564 1.332 . S
C1568 C1567 1.382 . S
C1568 H1570 0.952 . S
C1569 N1564 1.332 . S
C1569 C1565 1.382 . S
C1569 H1571 0.948 . S
H1570 C1568 0.952 . S
H1571 C1569 0.948 . S
H1572 C1561 0.952 . S
H1573 C1563 0.948 . S
C1574 C1540 1.395 . S
C1574 C1544 1.391 . S
C1575 C1537 1.389 . S
C1575 C1557 1.392 . S
C1576 C1547 1.392 . S
C1576 C1549 1.389 . S
C1577 C1552 1.395 . S
C1577 C1554 1.391 . S
H1578 C1538 0.951 . S
H1579 C1539 0.950 . S
H1580 C1545 0.949 . S
H1581 C1546 0.950 . S
H1582 C1550 0.951 . S
H1583 C1551 0.950 . S
H1584 C1555 0.949 . S
H1585 C1556 0.950 . S
H1586 C1560 0.950 . S
H1587 C1562 0.950 . S
H1588 C1565 0.950 . S
H1589 C1567 0.950 . S
C1590 C1591 1.443 . S
C1590 N1594 1.376 . S
C1590 C1628 1.389 . S
C1591 C1590 1.443 . S
C1591 C1592 1.340 . S
C1591 H1631 0.951 . S
C1592 C1591 1.340 . S
C1592 C1593 1.439 . S
C1592 H1632 0.950 . S
C1593 C1592 1.439 . S
C1593 N1594 1.374 . S
C1593 C1627 1.395 . S
N1594 C1590 1.376 . S
N1594 C1593 1.374 . S
N1594 Co1595 2.008 . S
Co1595 N1594 2.008 . S
Co1595 N1596 1.995 . S
Co1595 N1601 2.008 . S
Co1595 N1606 1.995 . S
Co1595 N1611 2.282 . S
Co1595 N1617 2.282 . S
N1596 Co1595 1.995 . S
N1596 C1597 1.376 . S
N1596 C1600 1.383 . S
C1597 N1596 1.376 . S
C1597 C1598 1.446 . S
C1597 C1627 1.391 . S
C1598 C1597 1.446 . S
C1598 C1599 1.339 . S
C1598 H1633 0.949 . S
C1599 C1598 1.339 . S
C1599 C1600 1.439 . S
C1599 H1634 0.950 . S
C1600 N1596 1.383 . S
C1600 C1599 1.439 . S
C1600 C1629 1.392 . S
N1601 Co1595 2.008 . S
N1601 C1602 1.376 . S
N1601 C1605 1.374 . S
C1602 N1601 1.376 . S
C1602 C1603 1.443 . S
C1602 C1629 1.389 . S
C1603 C1602 1.443 . S
C1603 C1604 1.340 . S
C1603 H1635 0.951 . S
C1604 C1603 1.340 . S
C1604 C1605 1.439 . S
C1604 H1636 0.950 . S
C1605 N1601 1.374 . S
C1605 C1604 1.439 . S
C1605 C1630 1.395 . S
N1606 Co1595 1.995 . S
N1606 C1607 1.376 . S
N1606 C1610 1.383 . S
C1607 N1606 1.376 . S
C1607 C1608 1.446 . S
C1607 C1630 1.391 . S
C1608 C1607 1.446 . S
C1608 C1609 1.339 . S
C1608 H1637 0.949 . S
C1609 C1608 1.339 . S
C1609 C1610 1.439 . S
C1609 H1638 0.950 . S
C1610 N1606 1.383 . S
C1610 C1609 1.439 . S
C1610 C1628 1.392 . S
N1611 Co1595 2.282 . S
N1611 C1614 1.332 . S
N1611 C1616 1.332 . S
C1612 C1613 1.386 . S
C1612 C1615 1.388 . S
C1613 C1612 1.386 . S
C1613 C1614 1.382 . S
C1613 H1639 0.950 . S
C1614 N1611 1.332 . S
C1614 C1613 1.382 . S
C1614 H1625 0.952 . S
C1615 C1612 1.388 . S
C1615 C1616 1.382 . S
C1615 H1640 0.950 . S
C1616 N1611 1.332 . S
C1616 C1615 1.382 . S
C1616 H1626 0.948 . S
N1617 Co1595 2.282 . S
N1617 C1621 1.332 . S
N1617 C1622 1.332 . S
C1618 C1619 1.388 . S
C1618 C1622 1.382 . S
C1618 H1641 0.950 . S
C1619 C1618 1.388 . S
C1619 C1620 1.386 . S
C1620 C1619 1.386 . S
C1620 C1621 1.382 . S
C1620 H1642 0.950 . S
C1621 N1617 1.332 . S
C1621 C1620 1.382 . S
C1621 H1623 0.952 . S
C1622 N1617 1.332 . S
C1622 C1618 1.382 . S
C1622 H1624 0.948 . S
H1623 C1621 0.952 . S
H1624 C1622 0.948 . S
H1625 C1614 0.952 . S
H1626 C1616 0.948 . S
C1627 C1593 1.395 . S
C1627 C1597 1.391 . S
C1628 C1590 1.389 . S
C1628 C1610 1.392 . S
C1629 C1600 1.392 . S
C1629 C1602 1.389 . S
C1630 C1605 1.395 . S
C1630 C1607 1.391 . S
H1631 C1591 0.951 . S
H1632 C1592 0.950 . S
H1633 C1598 0.949 . S
H1634 C1599 0.950 . S
H1635 C1603 0.951 . S
H1636 C1604 0.950 . S
H1637 C1608 0.949 . S
H1638 C1609 0.950 . S
H1639 C1613 0.950 . S
H1640 C1615 0.950 . S
H1641 C1618 0.950 . S
H1642 C1620 0.950 . S
C1643 C1644 1.443 . S
C1643 N1647 1.376 . S
C1643 C1681 1.389 . S
C1644 C1643 1.443 . S
C1644 C1645 1.340 . S
C1644 H1684 0.951 . S
C1645 C1644 1.340 . S
C1645 C1646 1.439 . S
C1645 H1685 0.950 . S
C1646 C1645 1.439 . S
C1646 N1647 1.374 . S
C1646 C1680 1.395 . S
N1647 C1643 1.376 . S
N1647 C1646 1.374 . S
N1647 Co1648 2.008 . S
Co1648 N1647 2.008 . S
Co1648 N1649 1.995 . S
Co1648 N1654 2.008 . S
Co1648 N1659 1.995 . S
Co1648 N1664 2.282 . S
Co1648 N1670 2.282 . S
N1649 Co1648 1.995 . S
N1649 C1650 1.376 . S
N1649 C1653 1.383 . S
C1650 N1649 1.376 . S
C1650 C1651 1.446 . S
C1650 C1680 1.391 . S
C1651 C1650 1.446 . S
C1651 C1652 1.339 . S
C1651 H1686 0.949 . S
C1652 C1651 1.339 . S
C1652 C1653 1.439 . S
C1652 H1687 0.950 . S
C1653 N1649 1.383 . S
C1653 C1652 1.439 . S
C1653 C1682 1.392 . S
N1654 Co1648 2.008 . S
N1654 C1655 1.376 . S
N1654 C1658 1.374 . S
C1655 N1654 1.376 . S
C1655 C1656 1.443 . S
C1655 C1682 1.389 . S
C1656 C1655 1.443 . S
C1656 C1657 1.340 . S
C1656 H1688 0.951 . S
C1657 C1656 1.340 . S
C1657 C1658 1.439 . S
C1657 H1689 0.950 . S
C1658 N1654 1.374 . S
C1658 C1657 1.439 . S
C1658 C1683 1.395 . S
N1659 Co1648 1.995 . S
N1659 C1660 1.376 . S
N1659 C1663 1.383 . S
C1660 N1659 1.376 . S
C1660 C1661 1.446 . S
C1660 C1683 1.391 . S
C1661 C1660 1.446 . S
C1661 C1662 1.339 . S
C1661 H1690 0.949 . S
C1662 C1661 1.339 . S
C1662 C1663 1.439 . S
C1662 H1691 0.950 . S
C1663 N1659 1.383 . S
C1663 C1662 1.439 . S
C1663 C1681 1.392 . S
N1664 Co1648 2.282 . S
N1664 C1667 1.332 . S
N1664 C1669 1.332 . S
C1665 C1666 1.386 . S
C1665 C1668 1.388 . S
C1666 C1665 1.386 . S
C1666 C1667 1.382 . S
C1666 H1692 0.950 . S
C1667 N1664 1.332 . S
C1667 C1666 1.382 . S
C1667 H1678 0.952 . S
C1668 C1665 1.388 . S
C1668 C1669 1.382 . S
C1668 H1693 0.950 . S
C1669 N1664 1.332 . S
C1669 C1668 1.382 . S
C1669 H1679 0.948 . S
N1670 Co1648 2.282 . S
N1670 C1674 1.332 . S
N1670 C1675 1.332 . S
C1671 C1672 1.388 . S
C1671 C1675 1.382 . S
C1671 H1694 0.950 . S
C1672 C1671 1.388 . S
C1672 C1673 1.386 . S
C1673 C1672 1.386 . S
C1673 C1674 1.382 . S
C1673 H1695 0.950 . S
C1674 N1670 1.332 . S
C1674 C1673 1.382 . S
C1674 H1676 0.952 . S
C1675 N1670 1.332 . S
C1675 C1671 1.382 . S
C1675 H1677 0.948 . S
H1676 C1674 0.952 . S
H1677 C1675 0.948 . S
H1678 C1667 0.952 . S
H1679 C1669 0.948 . S
C1680 C1646 1.395 . S
C1680 C1650 1.391 . S
C1681 C1643 1.389 . S
C1681 C1663 1.392 . S
C1682 C1653 1.392 . S
C1682 C1655 1.389 . S
C1683 C1658 1.395 . S
C1683 C1660 1.391 . S
H1684 C1644 0.951 . S
H1685 C1645 0.950 . S
H1686 C1651 0.949 . S
H1687 C1652 0.950 . S
H1688 C1656 0.951 . S
H1689 C1657 0.950 . S
H1690 C1661 0.949 . S
H1691 C1662 0.950 . S
H1692 C1666 0.950 . S
H1693 C1668 0.950 . S
H1694 C1671 0.950 . S
H1695 C1673 0.950 . S
H1696 C1704 0.929 . S
H1697 C1706 0.930 . S
H1698 C1708 0.930 . S
H1699 C1711 0.929 . S
H1700 C1714 0.930 . S
H1701 C1716 0.960 . S
H1702 C1716 0.960 . S
H1703 C1716 0.960 . S
C1704 H1696 0.929 . S
C1704 C1705 1.377 . S
C1704 C1706 1.384 . S
C1705 C1704 1.377 . S
C1705 C1711 1.390 . S
C1706 H1697 0.930 . S
C1706 C1704 1.384 . S
C1706 C1707 1.372 . S
C1707 C1706 1.372 . S
C1707 C1708 1.400 . S
C1707 C1712 1.490 . S
C1708 H1698 0.930 . S
C1708 C1707 1.400 . S
C1708 C1711 1.386 . S
H1709 C1725 0.930 . S
H1710 C1726 0.931 . S
C1711 H1699 0.929 . S
C1711 C1705 1.390 . S
C1711 C1708 1.386 . S
C1712 C1707 1.490 . S
C1712 C1714 1.395 . S
C1712 C1715 1.403 . S
H1713 C1719 0.930 . S
C1714 H1700 0.930 . S
C1714 C1712 1.395 . S
C1714 C1717 1.403 . S
C1715 C1712 1.403 . S
C1715 C1716 1.524 . S
C1715 C1719 1.400 . S
C1716 H1701 0.960 . S
C1716 H1702 0.960 . S
C1716 H1703 0.960 . S
C1716 C1715 1.524 . S
C1717 C1714 1.403 . S
C1717 C1718 1.392 . S
C1717 C1721 1.495 . S
C1718 C1717 1.392 . S
C1718 C1719 1.385 . S
C1718 C1720 1.478 . S
C1719 H1713 0.930 . S
C1719 C1715 1.400 . S
C1719 C1718 1.385 . S
C1720 C1718 1.478 . S
C1720 C1722 1.381 . S
C1720 C1726 1.383 . S
C1721 C1717 1.495 . S
C1721 H1727 0.959 . S
C1721 H1728 0.961 . S
C1721 H1729 0.960 . S
C1722 C1720 1.381 . S
C1722 C1723 1.394 . S
C1722 H1730 0.930 . S
C1723 C1722 1.394 . S
C1723 C1724 1.383 . S
C1723 H1731 0.929 . S
C1724 C1723 1.383 . S
C1724 C1725 1.377 . S
C1725 H1709 0.930 . S
C1725 C1724 1.377 . S
C1725 C1726 1.379 . S
C1726 H1710 0.931 . S
C1726 C1720 1.383 . S
C1726 C1725 1.379 . S
H1727 C1721 0.959 . S
H1728 C1721 0.961 . S
H1729 C1721 0.960 . S
H1730 C1722 0.930 . S
H1731 C1723 0.929 . S
H1732 C1740 0.929 . S
H1733 C1742 0.930 . S
H1734 C1744 0.910 1_655 S
H1735 C1747 0.929 . S
H1736 C1750 0.930 . S
H1737 C1752 0.960 . S
H1738 C1752 0.960 1_455 S
H1739 C1752 0.960 . S
C1740 H1732 0.929 . S
C1740 C1741 1.377 . S
C1740 C1742 1.384 . S
C1741 C1740 1.377 . S
C1741 C1747 1.390 . S
C1742 H1733 0.930 . S
C1742 C1740 1.384 . S
C1742 C1743 1.372 1_455 S
C1743 C1742 1.372 1_655 S
C1743 C1744 1.390 1_655 S
C1743 C1748 1.490 . S
C1744 H1734 0.910 1_455 S
C1744 C1743 1.390 1_455 S
C1744 C1747 1.416 . S
H1745 C1761 0.930 . S
H1746 C1762 0.931 . S
C1747 H1735 0.929 . S
C1747 C1741 1.390 . S
C1747 C1744 1.416 . S
C1748 C1743 1.490 . S
C1748 C1750 1.395 . S
C1748 C1751 1.403 . S
H1749 C1755 0.930 . S
C1750 H1736 0.930 . S
C1750 C1748 1.395 . S
C1750 C1753 1.403 . S
C1751 C1748 1.403 . S
C1751 C1752 1.524 . S
C1751 C1755 1.400 . S
C1752 H1737 0.960 . S
C1752 H1738 0.960 1_655 S
C1752 H1739 0.960 . S
C1752 C1751 1.524 . S
C1753 C1750 1.403 . S
C1753 C1754 1.392 . S
C1753 C1757 1.495 . S
C1754 C1753 1.392 . S
C1754 C1755 1.385 . S
C1754 C1756 1.478 . S
C1755 H1749 0.930 . S
C1755 C1751 1.400 . S
C1755 C1754 1.385 . S
C1756 C1754 1.478 . S
C1756 C1758 1.381 . S
C1756 C1762 1.383 . S
C1757 C1753 1.495 . S
C1757 H1763 0.959 . S
C1757 H1764 0.961 . S
C1757 H1765 0.960 . S
C1758 C1756 1.381 . S
C1758 C1759 1.394 . S
C1758 H1766 0.930 . S
C1759 C1758 1.394 . S
C1759 C1760 1.383 . S
C1759 H1767 0.929 . S
C1760 C1759 1.383 . S
C1760 C1761 1.377 . S
C1761 H1745 0.930 . S
C1761 C1760 1.377 . S
C1761 C1762 1.379 . S
C1762 H1746 0.931 . S
C1762 C1756 1.383 . S
C1762 C1761 1.379 . S
H1763 C1757 0.959 . S
H1764 C1757 0.961 . S
H1765 C1757 0.960 . S
H1766 C1758 0.930 . S
H1767 C1759 0.929 . S
H1768 C1776 0.929 . S
H1769 C1778 0.930 . S
H1770 C1780 0.930 . S
H1771 C1783 0.929 . S
H1772 C1786 0.930 . S
H1773 C1788 0.960 . S
H1774 C1788 0.960 . S
H1775 C1788 0.960 . S
C1776 H1768 0.929 . S
C1776 C1777 1.377 . S
C1776 C1778 1.384 . S
C1777 C1776 1.377 . S
C1777 C1783 1.390 . S
C1778 H1769 0.930 . S
C1778 C1776 1.384 . S
C1778 C1779 1.372 . S
C1779 C1778 1.372 . S
C1779 C1780 1.400 . S
C1779 C1784 1.490 . S
C1780 H1770 0.930 . S
C1780 C1779 1.400 . S
C1780 C1783 1.386 . S
H1781 C1797 0.930 . S
H1782 C1798 0.931 . S
C1783 H1771 0.929 . S
C1783 C1777 1.390 . S
C1783 C1780 1.386 . S
C1784 C1779 1.490 . S
C1784 C1786 1.395 . S
C1784 C1787 1.403 . S
H1785 C1791 0.930 . S
C1786 H1772 0.930 . S
C1786 C1784 1.395 . S
C1786 C1789 1.403 . S
C1787 C1784 1.403 . S
C1787 C1788 1.524 . S
C1787 C1791 1.400 . S
C1788 H1773 0.960 . S
C1788 H1774 0.960 . S
C1788 H1775 0.960 . S
C1788 C1787 1.524 . S
C1789 C1786 1.403 . S
C1789 C1790 1.392 . S
C1789 C1793 1.495 . S
C1790 C1789 1.392 . S
C1790 C1791 1.385 . S
C1790 C1792 1.478 . S
C1791 H1785 0.930 . S
C1791 C1787 1.400 . S
C1791 C1790 1.385 . S
C1792 C1790 1.478 . S
C1792 C1794 1.381 . S
C1792 C1798 1.383 . S
C1793 C1789 1.495 . S
C1793 H1799 0.959 . S
C1793 H1800 0.961 . S
C1793 H1801 0.960 . S
C1794 C1792 1.381 . S
C1794 C1795 1.394 . S
C1794 H1802 0.930 . S
C1795 C1794 1.394 . S
C1795 C1796 1.383 . S
C1795 H1803 0.929 . S
C1796 C1795 1.383 . S
C1796 C1797 1.377 . S
C1797 H1781 0.930 . S
C1797 C1796 1.377 . S
C1797 C1798 1.379 . S
C1798 H1782 0.931 . S
C1798 C1792 1.383 . S
C1798 C1797 1.379 . S
H1799 C1793 0.959 . S
H1800 C1793 0.961 . S
H1801 C1793 0.960 . S
H1802 C1794 0.930 . S
H1803 C1795 0.929 . S
H1804 C1812 0.929 . S
H1805 C1814 0.930 . S
H1806 C1816 0.930 . S
H1807 C1819 0.929 . S
H1808 C1822 0.930 . S
H1809 C1824 0.960 . S
H1810 C1824 0.960 . S
H1811 C1824 0.960 . S
C1812 H1804 0.929 . S
C1812 C1813 1.377 . S
C1812 C1814 1.384 . S
C1813 C1812 1.377 . S
C1813 C1819 1.390 . S
C1814 H1805 0.930 . S
C1814 C1812 1.384 . S
C1814 C1815 1.372 . S
C1815 C1814 1.372 . S
C1815 C1816 1.400 . S
C1815 C1820 1.490 . S
C1816 H1806 0.930 . S
C1816 C1815 1.400 . S
C1816 C1819 1.386 . S
H1817 C1833 0.930 . S
H1818 C1834 0.931 . S
C1819 H1807 0.929 . S
C1819 C1813 1.390 . S
C1819 C1816 1.386 . S
C1820 C1815 1.490 . S
C1820 C1822 1.395 . S
C1820 C1823 1.403 . S
H1821 C1827 0.930 . S
C1822 H1808 0.930 . S
C1822 C1820 1.395 . S
C1822 C1825 1.403 . S
C1823 C1820 1.403 . S
C1823 C1824 1.524 . S
C1823 C1827 1.400 . S
C1824 H1809 0.960 . S
C1824 H1810 0.960 . S
C1824 H1811 0.960 . S
C1824 C1823 1.524 . S
C1825 C1822 1.403 . S
C1825 C1826 1.392 . S
C1825 C1829 1.495 . S
C1826 C1825 1.392 . S
C1826 C1827 1.385 . S
C1826 C1828 1.478 . S
C1827 H1821 0.930 . S
C1827 C1823 1.400 . S
C1827 C1826 1.385 . S
C1828 C1826 1.478 . S
C1828 C1830 1.381 . S
C1828 C1834 1.383 . S
C1829 C1825 1.495 . S
C1829 H1835 0.959 . S
C1829 H1836 0.961 . S
C1829 H1837 0.960 . S
C1830 C1828 1.381 . S
C1830 C1831 1.394 . S
C1830 H1838 0.930 . S
C1831 C1830 1.394 . S
C1831 C1832 1.383 . S
C1831 H1839 0.929 . S
C1832 C1831 1.383 . S
C1832 C1833 1.377 . S
C1833 H1817 0.930 . S
C1833 C1832 1.377 . S
C1833 C1834 1.379 . S
C1834 H1818 0.931 . S
C1834 C1828 1.383 . S
C1834 C1833 1.379 . S
H1835 C1829 0.959 . S
H1836 C1829 0.961 . S
H1837 C1829 0.960 . S
H1838 C1830 0.930 . S
H1839 C1831 0.929 . S
H1840 C1848 0.929 . S
H1841 C1850 0.930 . S
H1842 C1852 0.930 . S
H1843 C1855 0.929 . S
H1844 C1858 0.930 . S
H1845 C1860 0.960 . S
H1846 C1860 0.960 . S
H1847 C1860 0.960 . S
C1848 H1840 0.929 . S
C1848 C1849 1.377 . S
C1848 C1850 1.384 . S
C1849 C1848 1.377 . S
C1849 C1855 1.390 . S
C1850 H1841 0.930 . S
C1850 C1848 1.384 . S
C1850 C1851 1.372 . S
C1851 C1850 1.372 . S
C1851 C1852 1.400 . S
C1851 C1856 1.490 . S
C1852 H1842 0.930 . S
C1852 C1851 1.400 . S
C1852 C1855 1.386 . S
H1853 C1869 0.930 . S
H1854 C1870 0.931 . S
C1855 H1843 0.929 . S
C1855 C1849 1.390 . S
C1855 C1852 1.386 . S
C1856 C1851 1.490 . S
C1856 C1858 1.395 . S
C1856 C1859 1.403 . S
H1857 C1863 0.930 . S
C1858 H1844 0.930 . S
C1858 C1856 1.395 . S
C1858 C1861 1.403 . S
C1859 C1856 1.403 . S
C1859 C1860 1.524 . S
C1859 C1863 1.400 . S
C1860 H1845 0.960 . S
C1860 H1846 0.960 . S
C1860 H1847 0.960 . S
C1860 C1859 1.524 . S
C1861 C1858 1.403 . S
C1861 C1862 1.392 . S
C1861 C1865 1.495 . S
C1862 C1861 1.392 . S
C1862 C1863 1.385 . S
C1862 C1864 1.478 . S
C1863 H1857 0.930 . S
C1863 C1859 1.400 . S
C1863 C1862 1.385 . S
C1864 C1862 1.478 . S
C1864 C1866 1.381 . S
C1864 C1870 1.383 . S
C1865 C1861 1.495 . S
C1865 H1871 0.959 . S
C1865 H1872 0.961 . S
C1865 H1873 0.960 . S
C1866 C1864 1.381 . S
C1866 C1867 1.394 . S
C1866 H1874 0.930 . S
C1867 C1866 1.394 . S
C1867 C1868 1.383 . S
C1867 H1875 0.929 . S
C1868 C1867 1.383 . S
C1868 C1869 1.377 . S
C1869 H1853 0.930 . S
C1869 C1868 1.377 . S
C1869 C1870 1.379 . S
C1870 H1854 0.931 . S
C1870 C1864 1.383 . S
C1870 C1869 1.379 . S
H1871 C1865 0.959 . S
H1872 C1865 0.961 . S
H1873 C1865 0.960 . S
H1874 C1866 0.930 . S
H1875 C1867 0.929 . S
H1876 C1884 0.929 . S
H1877 C1886 0.930 . S
H1878 C1888 0.930 . S
H1879 C1891 0.929 . S
H1880 C1894 0.930 . S
H1881 C1896 0.960 . S
H1882 C1896 0.960 . S
H1883 C1896 0.960 . S
C1884 H1876 0.929 . S
C1884 C1885 1.377 . S
C1884 C1886 1.384 . S
C1885 C1884 1.377 . S
C1885 C1891 1.390 . S
C1886 H1877 0.930 . S
C1886 C1884 1.384 . S
C1886 C1887 1.372 . S
C1887 C1886 1.372 . S
C1887 C1888 1.400 . S
C1887 C1892 1.490 . S
C1888 H1878 0.930 . S
C1888 C1887 1.400 . S
C1888 C1891 1.386 . S
H1889 C1905 0.930 . S
H1890 C1906 0.931 . S
C1891 H1879 0.929 . S
C1891 C1885 1.390 . S
C1891 C1888 1.386 . S
C1892 C1887 1.490 . S
C1892 C1894 1.395 . S
C1892 C1895 1.403 . S
H1893 C1899 0.930 . S
C1894 H1880 0.930 . S
C1894 C1892 1.395 . S
C1894 C1897 1.403 . S
C1895 C1892 1.403 . S
C1895 C1896 1.524 . S
C1895 C1899 1.400 . S
C1896 H1881 0.960 . S
C1896 H1882 0.960 . S
C1896 H1883 0.960 . S
C1896 C1895 1.524 . S
C1897 C1894 1.403 . S
C1897 C1898 1.392 . S
C1897 C1901 1.495 . S
C1898 C1897 1.392 . S
C1898 C1899 1.385 . S
C1898 C1900 1.478 . S
C1899 H1893 0.930 . S
C1899 C1895 1.400 . S
C1899 C1898 1.385 . S
C1900 C1898 1.478 . S
C1900 C1902 1.381 . S
C1900 C1906 1.383 . S
C1901 C1897 1.495 . S
C1901 H1907 0.959 . S
C1901 H1908 0.961 . S
C1901 H1909 0.960 . S
C1902 C1900 1.381 . S
C1902 C1903 1.394 . S
C1902 H1910 0.930 . S
C1903 C1902 1.394 . S
C1903 C1904 1.383 . S
C1903 H1911 0.929 . S
C1904 C1903 1.383 . S
C1904 C1905 1.377 . S
C1905 H1889 0.930 . S
C1905 C1904 1.377 . S
C1905 C1906 1.379 . S
C1906 H1890 0.931 . S
C1906 C1900 1.383 . S
C1906 C1905 1.379 . S
H1907 C1901 0.959 . S
H1908 C1901 0.961 . S
H1909 C1901 0.960 . S
H1910 C1902 0.930 . S
H1911 C1903 0.929 . S
H1912 C1920 0.929 . S
H1913 C1922 0.930 . S
H1914 C1924 0.930 . S
H1915 C1927 0.929 . S
H1916 C1930 0.930 . S
H1917 C1932 0.960 . S
H1918 C1932 0.960 . S
H1919 C1932 0.960 . S
C1920 H1912 0.929 . S
C1920 C1921 1.377 . S
C1920 C1922 1.384 . S
C1921 C1920 1.377 . S
C1921 C1927 1.390 . S
C1922 H1913 0.930 . S
C1922 C1920 1.384 . S
C1922 C1923 1.372 . S
C1923 C1922 1.372 . S
C1923 C1924 1.400 . S
C1923 C1928 1.490 . S
C1924 H1914 0.930 . S
C1924 C1923 1.400 . S
C1924 C1927 1.386 . S
H1925 C1941 0.930 . S
H1926 C1942 0.931 . S
C1927 H1915 0.929 . S
C1927 C1921 1.390 . S
C1927 C1924 1.386 . S
C1928 C1923 1.490 . S
C1928 C1930 1.395 . S
C1928 C1931 1.403 . S
H1929 C1935 0.930 . S
C1930 H1916 0.930 . S
C1930 C1928 1.395 . S
C1930 C1933 1.403 . S
C1931 C1928 1.403 . S
C1931 C1932 1.524 . S
C1931 C1935 1.400 . S
C1932 H1917 0.960 . S
C1932 H1918 0.960 . S
C1932 H1919 0.960 . S
C1932 C1931 1.524 . S
C1933 C1930 1.403 . S
C1933 C1934 1.392 . S
C1933 C1937 1.495 . S
C1934 C1933 1.392 . S
C1934 C1935 1.385 . S
C1934 C1936 1.478 . S
C1935 H1929 0.930 . S
C1935 C1931 1.400 . S
C1935 C1934 1.385 . S
C1936 C1934 1.478 . S
C1936 C1938 1.381 . S
C1936 C1942 1.383 . S
C1937 C1933 1.495 . S
C1937 H1943 0.959 . S
C1937 H1944 0.961 . S
C1937 H1945 0.960 . S
C1938 C1936 1.381 . S
C1938 C1939 1.394 . S
C1938 H1946 0.930 . S
C1939 C1938 1.394 . S
C1939 C1940 1.383 . S
C1939 H1947 0.929 . S
C1940 C1939 1.383 . S
C1940 C1941 1.377 . S
C1941 H1925 0.930 . S
C1941 C1940 1.377 . S
C1941 C1942 1.379 . S
C1942 H1926 0.931 . S
C1942 C1936 1.383 . S
C1942 C1941 1.379 . S
H1943 C1937 0.959 . S
H1944 C1937 0.961 . S
H1945 C1937 0.960 . S
H1946 C1938 0.930 . S
H1947 C1939 0.929 . S
H1948 C1956 0.929 . S
H1949 C1958 0.930 . S
H1950 C1960 0.930 . S
H1951 C1963 0.929 . S
H1952 C1966 0.930 . S
H1953 C1968 0.960 . S
H1954 C1968 0.975 . S
H1955 C1968 0.960 1_455 S
C1956 H1948 0.929 . S
C1956 C1957 1.377 . S
C1956 C1958 1.384 1_455 S
C1957 C1956 1.377 . S
C1957 C1963 1.390 . S
C1958 H1949 0.930 . S
C1958 C1956 1.384 1_655 S
C1958 C1959 1.372 . S
C1959 C1958 1.372 . S
C1959 C1960 1.400 1_655 S
C1959 C1964 1.490 . S
C1960 H1950 0.930 . S
C1960 C1959 1.400 1_455 S
C1960 C1963 1.386 . S
H1961 C1977 0.930 . S
H1962 C1978 0.931 . S
C1963 H1951 0.929 . S
C1963 C1957 1.390 . S
C1963 C1960 1.386 . S
C1964 C1959 1.490 . S
C1964 C1966 1.395 . S
C1964 C1967 1.403 . S
H1965 C1971 0.930 . S
C1966 H1952 0.930 . S
C1966 C1964 1.395 . S
C1966 C1969 1.403 . S
C1967 C1964 1.403 . S
C1967 C1968 1.524 . S
C1967 C1971 1.400 . S
C1968 H1953 0.960 . S
C1968 H1954 0.975 . S
C1968 H1955 0.960 1_655 S
C1968 C1967 1.524 . S
C1969 C1966 1.403 . S
C1969 C1970 1.392 . S
C1969 C1973 1.495 . S
C1970 C1969 1.392 . S
C1970 C1971 1.385 . S
C1970 C1972 1.478 . S
C1971 H1965 0.930 . S
C1971 C1967 1.400 . S
C1971 C1970 1.385 . S
C1972 C1970 1.478 . S
C1972 C1974 1.381 . S
C1972 C1978 1.383 . S
C1973 C1969 1.495 . S
C1973 H1979 0.959 . S
C1973 H1980 0.961 . S
C1973 H1981 0.960 . S
C1974 C1972 1.381 . S
C1974 C1975 1.394 . S
C1974 H1982 0.930 . S
C1975 C1974 1.394 . S
C1975 C1976 1.383 . S
C1975 H1983 0.929 . S
C1976 C1975 1.383 . S
C1976 C1977 1.377 . S
C1977 H1961 0.930 . S
C1977 C1976 1.377 . S
C1977 C1978 1.379 . S
C1978 H1962 0.931 . S
C1978 C1972 1.383 . S
C1978 C1977 1.379 . S
H1979 C1973 0.959 . S
H1980 C1973 0.961 . S
H1981 C1973 0.960 . S
H1982 C1974 0.930 . S
H1983 C1975 0.929 . S
H1984 C1992 0.929 . S
H1985 C1994 0.930 . S
H1986 C1996 0.930 . S
H1987 C1999 0.929 . S
H1988 C2002 0.930 . S
H1989 C2004 0.960 . S
H1990 C2004 0.960 . S
H1991 C2004 0.960 . S
C1992 H1984 0.929 . S
C1992 C1993 1.377 . S
C1992 C1994 1.384 . S
C1993 C1992 1.377 . S
C1993 C1999 1.390 . S
C1994 H1985 0.930 . S
C1994 C1992 1.384 . S
C1994 C1995 1.372 . S
C1995 C1994 1.372 . S
C1995 C1996 1.400 . S
C1995 C2000 1.490 . S
C1996 H1986 0.930 . S
C1996 C1995 1.400 . S
C1996 C1999 1.386 . S
H1997 C2013 0.930 . S
H1998 C2014 0.931 . S
C1999 H1987 0.929 . S
C1999 C1993 1.390 . S
C1999 C1996 1.386 . S
C2000 C1995 1.490 . S
C2000 C2002 1.395 . S
C2000 C2003 1.403 . S
H2001 C2007 0.930 . S
C2002 H1988 0.930 . S
C2002 C2000 1.395 . S
C2002 C2005 1.403 . S
C2003 C2000 1.403 . S
C2003 C2004 1.524 . S
C2003 C2007 1.400 . S
C2004 H1989 0.960 . S
C2004 H1990 0.960 . S
C2004 H1991 0.960 . S
C2004 C2003 1.524 . S
C2005 C2002 1.403 . S
C2005 C2006 1.392 . S
C2005 C2009 1.495 . S
C2006 C2005 1.392 . S
C2006 C2007 1.385 . S
C2006 C2008 1.478 . S
C2007 H2001 0.930 . S
C2007 C2003 1.400 . S
C2007 C2006 1.385 . S
C2008 C2006 1.478 . S
C2008 C2010 1.381 . S
C2008 C2014 1.383 . S
C2009 C2005 1.495 . S
C2009 H2015 0.959 . S
C2009 H2016 0.961 . S
C2009 H2017 0.960 . S
C2010 C2008 1.381 . S
C2010 C2011 1.394 . S
C2010 H2018 0.930 . S
C2011 C2010 1.394 . S
C2011 C2012 1.383 . S
C2011 H2019 0.929 . S
C2012 C2011 1.383 . S
C2012 C2013 1.377 . S
C2013 H1997 0.930 . S
C2013 C2012 1.377 . S
C2013 C2014 1.379 . S
C2014 H1998 0.931 . S
C2014 C2008 1.383 . S
C2014 C2013 1.379 . S
H2015 C2009 0.959 . S
H2016 C2009 0.961 . S
H2017 C2009 0.960 . S
H2018 C2010 0.930 . S
H2019 C2011 0.929 . S
H2020 C2028 0.929 . S
H2021 C2030 0.930 . S
H2022 C2032 0.930 . S
H2023 C2035 0.929 . S
H2024 C2038 0.930 . S
H2025 C2040 0.960 . S
H2026 C2040 0.960 . S
H2027 C2040 0.960 . S
C2028 H2020 0.929 . S
C2028 C2029 1.377 . S
C2028 C2030 1.384 . S
C2029 C2028 1.377 . S
C2029 C2035 1.390 . S
C2030 H2021 0.930 . S
C2030 C2028 1.384 . S
C2030 C2031 1.372 . S
C2031 C2030 1.372 . S
C2031 C2032 1.400 . S
C2031 C2036 1.490 . S
C2032 H2022 0.930 . S
C2032 C2031 1.400 . S
C2032 C2035 1.386 . S
H2033 C2049 0.930 . S
H2034 C2050 0.931 . S
C2035 H2023 0.929 . S
C2035 C2029 1.390 . S
C2035 C2032 1.386 . S
C2036 C2031 1.490 . S
C2036 C2038 1.395 . S
C2036 C2039 1.403 . S
H2037 C2043 0.930 . S
C2038 H2024 0.930 . S
C2038 C2036 1.395 . S
C2038 C2041 1.403 . S
C2039 C2036 1.403 . S
C2039 C2040 1.524 . S
C2039 C2043 1.400 . S
C2040 H2025 0.960 . S
C2040 H2026 0.960 . S
C2040 H2027 0.960 . S
C2040 C2039 1.524 . S
C2041 C2038 1.403 . S
C2041 C2042 1.392 . S
C2041 C2045 1.495 . S
C2042 C2041 1.392 . S
C2042 C2043 1.385 . S
C2042 C2044 1.478 . S
C2043 H2037 0.930 . S
C2043 C2039 1.400 . S
C2043 C2042 1.385 . S
C2044 C2042 1.478 . S
C2044 C2046 1.381 . S
C2044 C2050 1.383 . S
C2045 C2041 1.495 . S
C2045 H2051 0.959 . S
C2045 H2052 0.961 . S
C2045 H2053 0.960 . S
C2046 C2044 1.381 . S
C2046 C2047 1.394 1_455 S
C2046 H2054 0.930 . S
C2047 C2046 1.394 1_655 S
C2047 C2048 1.383 . S
C2047 H2055 0.929 . S
C2048 C2047 1.383 . S
C2048 C2049 1.377 . S
C2049 H2033 0.930 . S
C2049 C2048 1.377 . S
C2049 C2050 1.379 1_655 S
C2050 H2034 0.931 . S
C2050 C2044 1.383 . S
C2050 C2049 1.379 1_455 S
H2051 C2045 0.959 . S
H2052 C2045 0.961 . S
H2053 C2045 0.960 . S
H2054 C2046 0.930 . S
H2055 C2047 0.929 . S
H2056 C2064 0.929 . S
H2057 C2066 0.930 . S
H2058 C2068 0.930 . S
H2059 C2071 0.929 . S
H2060 C2074 0.930 . S
H2061 C2076 0.960 . S
H2062 C2076 0.960 . S
H2063 C2076 0.960 . S
C2064 H2056 0.929 . S
C2064 C2065 1.377 . S
C2064 C2066 1.384 . S
C2065 C2064 1.377 . S
C2065 C2071 1.390 . S
C2066 H2057 0.930 . S
C2066 C2064 1.384 . S
C2066 C2067 1.372 . S
C2067 C2066 1.372 . S
C2067 C2068 1.400 . S
C2067 C2072 1.490 . S
C2068 H2058 0.930 . S
C2068 C2067 1.400 . S
C2068 C2071 1.386 . S
H2069 C2085 0.930 . S
H2070 C2086 0.931 . S
C2071 H2059 0.929 . S
C2071 C2065 1.390 . S
C2071 C2068 1.386 . S
C2072 C2067 1.490 . S
C2072 C2074 1.395 . S
C2072 C2075 1.403 . S
H2073 C2079 0.930 . S
C2074 H2060 0.930 . S
C2074 C2072 1.395 . S
C2074 C2077 1.403 . S
C2075 C2072 1.403 . S
C2075 C2076 1.524 . S
C2075 C2079 1.400 . S
C2076 H2061 0.960 . S
C2076 H2062 0.960 . S
C2076 H2063 0.960 . S
C2076 C2075 1.524 . S
C2077 C2074 1.403 . S
C2077 C2078 1.392 . S
C2077 C2081 1.495 . S
C2078 C2077 1.392 . S
C2078 C2079 1.385 . S
C2078 C2080 1.478 . S
C2079 H2073 0.930 . S
C2079 C2075 1.400 . S
C2079 C2078 1.385 . S
C2080 C2078 1.478 . S
C2080 C2082 1.381 . S
C2080 C2086 1.383 . S
C2081 C2077 1.495 . S
C2081 H2087 0.959 . S
C2081 H2088 0.961 . S
C2081 H2089 0.960 . S
C2082 C2080 1.381 . S
C2082 C2083 1.394 . S
C2082 H2090 0.930 . S
C2083 C2082 1.394 . S
C2083 C2084 1.383 . S
C2083 H2091 0.929 . S
C2084 C2083 1.383 . S
C2084 C2085 1.377 . S
C2085 H2069 0.930 . S
C2085 C2084 1.377 . S
C2085 C2086 1.379 . S
C2086 H2070 0.931 . S
C2086 C2080 1.383 . S
C2086 C2085 1.379 . S
H2087 C2081 0.959 . S
H2088 C2081 0.961 . S
H2089 C2081 0.960 . S
H2090 C2082 0.930 . S
H2091 C2083 0.929 . S
H2092 C2100 0.929 . S
H2093 C2102 0.930 . S
H2094 C2104 0.930 . S
H2095 C2107 0.929 . S
H2096 C2110 0.930 . S
H2097 C2112 0.960 . S
H2098 C2112 0.960 . S
H2099 C2112 0.960 . S
C2100 H2092 0.929 . S
C2100 C2101 1.377 . S
C2100 C2102 1.384 . S
C2101 C2100 1.377 . S
C2101 C2107 1.390 . S
C2102 H2093 0.930 . S
C2102 C2100 1.384 . S
C2102 C2103 1.372 . S
C2103 C2102 1.372 . S
C2103 C2104 1.400 . S
C2103 C2108 1.490 . S
C2104 H2094 0.930 . S
C2104 C2103 1.400 . S
C2104 C2107 1.386 . S
H2105 C2121 0.930 . S
H2106 C2122 0.931 . S
C2107 H2095 0.929 . S
C2107 C2101 1.390 . S
C2107 C2104 1.386 . S
C2108 C2103 1.490 . S
C2108 C2110 1.395 . S
C2108 C2111 1.403 . S
H2109 C2115 0.930 . S
C2110 H2096 0.930 . S
C2110 C2108 1.395 . S
C2110 C2113 1.403 . S
C2111 C2108 1.403 . S
C2111 C2112 1.524 . S
C2111 C2115 1.400 . S
C2112 H2097 0.960 . S
C2112 H2098 0.960 . S
C2112 H2099 0.960 . S
C2112 C2111 1.524 . S
C2113 C2110 1.403 . S
C2113 C2114 1.392 . S
C2113 C2117 1.495 . S
C2114 C2113 1.392 . S
C2114 C2115 1.385 . S
C2114 C2116 1.478 . S
C2115 H2109 0.930 . S
C2115 C2111 1.400 . S
C2115 C2114 1.385 . S
C2116 C2114 1.478 . S
C2116 C2118 1.381 . S
C2116 C2122 1.383 . S
C2117 C2113 1.495 . S
C2117 H2123 0.959 . S
C2117 H2124 0.961 . S
C2117 H2125 0.960 . S
C2118 C2116 1.381 . S
C2118 C2119 1.394 . S
C2118 H2126 0.930 . S
C2119 C2118 1.394 . S
C2119 C2120 1.383 . S
C2119 H2127 0.929 . S
C2120 C2119 1.383 . S
C2120 C2121 1.377 . S
C2121 H2105 0.930 . S
C2121 C2120 1.377 . S
C2121 C2122 1.379 . S
C2122 H2106 0.931 . S
C2122 C2116 1.383 . S
C2122 C2121 1.379 . S
H2123 C2117 0.959 . S
H2124 C2117 0.961 . S
H2125 C2117 0.960 . S
H2126 C2118 0.930 . S
H2127 C2119 0.929 . S
H2128 C2136 0.929 . S
H2129 C2138 0.930 . S
H2130 C2140 0.930 . S
H2131 C2143 0.929 . S
H2132 C2146 0.930 . S
H2133 C2148 0.960 . S
H2134 C2148 0.960 . S
H2135 C2148 0.960 . S
C2136 H2128 0.929 . S
C2136 C2137 1.377 . S
C2136 C2138 1.384 . S
C2137 C2136 1.377 . S
C2137 C2143 1.390 . S
C2138 H2129 0.930 . S
C2138 C2136 1.384 . S
C2138 C2139 1.372 . S
C2139 C2138 1.372 . S
C2139 C2140 1.400 . S
C2139 C2144 1.490 . S
C2140 H2130 0.930 . S
C2140 C2139 1.400 . S
C2140 C2143 1.386 . S
H2141 C2157 0.930 . S
H2142 C2158 0.931 . S
C2143 H2131 0.929 . S
C2143 C2137 1.390 . S
C2143 C2140 1.386 . S
C2144 C2139 1.490 . S
C2144 C2146 1.395 . S
C2144 C2147 1.403 . S
H2145 C2151 0.930 . S
C2146 H2132 0.930 . S
C2146 C2144 1.395 . S
C2146 C2149 1.403 . S
C2147 C2144 1.403 . S
C2147 C2148 1.524 . S
C2147 C2151 1.400 . S
C2148 H2133 0.960 . S
C2148 H2134 0.960 . S
C2148 H2135 0.960 . S
C2148 C2147 1.524 . S
C2149 C2146 1.403 . S
C2149 C2150 1.392 . S
C2149 C2153 1.495 . S
C2150 C2149 1.392 . S
C2150 C2151 1.385 . S
C2150 C2152 1.478 . S
C2151 H2145 0.930 . S
C2151 C2147 1.400 . S
C2151 C2150 1.385 . S
C2152 C2150 1.478 . S
C2152 C2154 1.381 . S
C2152 C2158 1.383 . S
C2153 C2149 1.495 . S
C2153 H2159 0.959 . S
C2153 H2160 0.961 . S
C2153 H2161 0.960 . S
C2154 C2152 1.381 . S
C2154 C2155 1.394 . S
C2154 H2162 0.930 . S
C2155 C2154 1.394 . S
C2155 C2156 1.383 . S
C2155 H2163 0.929 . S
C2156 C2155 1.383 . S
C2156 C2157 1.377 . S
C2157 H2141 0.930 . S
C2157 C2156 1.377 . S
C2157 C2158 1.379 . S
C2158 H2142 0.931 . S
C2158 C2152 1.383 . S
C2158 C2157 1.379 . S
H2159 C2153 0.959 . S
H2160 C2153 0.961 . S
H2161 C2153 0.960 . S
H2162 C2154 0.930 . S
H2163 C2155 0.929 . S
H2164 C2172 0.929 . S
H2165 C2174 0.930 . S
H2166 C2176 0.930 . S
H2167 C2179 0.929 . S
H2168 C2182 0.930 . S
H2169 C2184 0.960 . S
H2170 C2184 0.960 . S
H2171 C2184 0.960 . S
C2172 H2164 0.929 . S
C2172 C2173 1.377 . S
C2172 C2174 1.384 . S
C2173 C2172 1.377 . S
C2173 C2179 1.390 . S
C2174 H2165 0.930 . S
C2174 C2172 1.384 . S
C2174 C2175 1.372 . S
C2175 C2174 1.372 . S
C2175 C2176 1.400 . S
C2175 C2180 1.490 . S
C2176 H2166 0.930 . S
C2176 C2175 1.400 . S
C2176 C2179 1.386 . S
H2177 C2193 0.930 . S
H2178 C2194 0.931 . S
C2179 H2167 0.929 . S
C2179 C2173 1.390 . S
C2179 C2176 1.386 . S
C2180 C2175 1.490 . S
C2180 C2182 1.395 . S
C2180 C2183 1.403 . S
H2181 C2187 0.930 . S
C2182 H2168 0.930 . S
C2182 C2180 1.395 . S
C2182 C2185 1.403 . S
C2183 C2180 1.403 . S
C2183 C2184 1.524 . S
C2183 C2187 1.400 . S
C2184 H2169 0.960 . S
C2184 H2170 0.960 . S
C2184 H2171 0.960 . S
C2184 C2183 1.524 . S
C2185 C2182 1.403 . S
C2185 C2186 1.392 . S
C2185 C2189 1.495 . S
C2186 C2185 1.392 . S
C2186 C2187 1.385 . S
C2186 C2188 1.478 . S
C2187 H2181 0.930 . S
C2187 C2183 1.400 . S
C2187 C2186 1.385 . S
C2188 C2186 1.478 . S
C2188 C2190 1.381 . S
C2188 C2194 1.383 . S
C2189 C2185 1.495 . S
C2189 H2195 0.959 . S
C2189 H2196 0.961 . S
C2189 H2197 0.960 . S
C2190 C2188 1.381 . S
C2190 C2191 1.394 . S
C2190 H2198 0.930 . S
C2191 C2190 1.394 . S
C2191 C2192 1.383 . S
C2191 H2199 0.929 . S
C2192 C2191 1.383 . S
C2192 C2193 1.377 . S
C2193 H2177 0.930 . S
C2193 C2192 1.377 . S
C2193 C2194 1.379 . S
C2194 H2178 0.931 . S
C2194 C2188 1.383 . S
C2194 C2193 1.379 . S
H2195 C2189 0.959 . S
H2196 C2189 0.961 . S
H2197 C2189 0.960 . S
H2198 C2190 0.930 . S
H2199 C2191 0.929 . S
H2200 C2208 0.929 . S
H2201 C2210 0.930 . S
H2202 C2212 0.930 . S
H2203 C2215 0.929 . S
H2204 C2218 0.930 . S
H2205 C2220 0.960 . S
H2206 C2220 0.960 . S
H2207 C2220 0.960 . S
C2208 H2200 0.929 . S
C2208 C2209 1.377 . S
C2208 C2210 1.384 . S
C2209 C2208 1.377 . S
C2209 C2215 1.390 . S
C2210 H2201 0.930 . S
C2210 C2208 1.384 . S
C2210 C2211 1.372 . S
C2211 C2210 1.372 . S
C2211 C2212 1.400 . S
C2211 C2216 1.490 . S
C2212 H2202 0.930 . S
C2212 C2211 1.400 . S
C2212 C2215 1.386 . S
H2213 C2229 0.930 . S
H2214 C2230 0.931 . S
C2215 H2203 0.929 . S
C2215 C2209 1.390 . S
C2215 C2212 1.386 . S
C2216 C2211 1.490 . S
C2216 C2218 1.395 . S
C2216 C2219 1.403 . S
H2217 C2223 0.930 . S
C2218 H2204 0.930 . S
C2218 C2216 1.395 . S
C2218 C2221 1.403 . S
C2219 C2216 1.403 . S
C2219 C2220 1.524 . S
C2219 C2223 1.400 . S
C2220 H2205 0.960 . S
C2220 H2206 0.960 . S
C2220 H2207 0.960 . S
C2220 C2219 1.524 . S
C2221 C2218 1.403 . S
C2221 C2222 1.392 . S
C2221 C2225 1.495 . S
C2222 C2221 1.392 . S
C2222 C2223 1.385 . S
C2222 C2224 1.478 . S
C2223 H2217 0.930 . S
C2223 C2219 1.400 . S
C2223 C2222 1.385 . S
C2224 C2222 1.478 . S
C2224 C2226 1.381 . S
C2224 C2230 1.383 . S
C2225 C2221 1.495 . S
C2225 H2231 0.959 . S
C2225 H2232 0.961 . S
C2225 H2233 0.960 . S
C2226 C2224 1.381 . S
C2226 C2227 1.394 . S
C2226 H2234 0.930 . S
C2227 C2226 1.394 . S
C2227 C2228 1.383 . S
C2227 H2235 0.929 . S
C2228 C2227 1.383 . S
C2228 C2229 1.377 . S
C2229 H2213 0.930 . S
C2229 C2228 1.377 . S
C2229 C2230 1.379 . S
C2230 H2214 0.931 . S
C2230 C2224 1.383 . S
C2230 C2229 1.379 . S
H2231 C2225 0.959 . S
H2232 C2225 0.961 . S
H2233 C2225 0.960 . S
H2234 C2226 0.930 . S
H2235 C2227 0.929 . S
H2236 C2244 0.929 . S
H2237 C2246 0.930 . S
H2238 C2248 0.930 . S
H2239 C2251 0.929 . S
H2240 C2254 0.930 . S
H2241 C2256 0.960 . S
H2242 C2256 0.960 . S
H2243 C2256 0.960 . S
C2244 H2236 0.929 . S
C2244 C2245 1.377 . S
C2244 C2246 1.384 . S
C2245 C2244 1.377 . S
C2245 C2251 1.390 . S
C2246 H2237 0.930 . S
C2246 C2244 1.384 . S
C2246 C2247 1.372 . S
C2247 C2246 1.372 . S
C2247 C2248 1.400 . S
C2247 C2252 1.490 . S
C2248 H2238 0.930 . S
C2248 C2247 1.400 . S
C2248 C2251 1.386 . S
H2249 C2265 0.930 . S
H2250 C2266 0.931 1_655 S
C2251 H2239 0.929 . S
C2251 C2245 1.390 . S
C2251 C2248 1.386 . S
C2252 C2247 1.490 . S
C2252 C2254 1.395 . S
C2252 C2255 1.403 . S
H2253 C2259 0.930 . S
C2254 H2240 0.930 . S
C2254 C2252 1.395 . S
C2254 C2257 1.403 . S
C2255 C2252 1.403 . S
C2255 C2256 1.524 . S
C2255 C2259 1.400 . S
C2256 H2241 0.960 . S
C2256 H2242 0.960 . S
C2256 H2243 0.960 . S
C2256 C2255 1.524 . S
C2257 C2254 1.403 . S
C2257 C2258 1.392 . S
C2257 C2261 1.495 . S
C2258 C2257 1.392 . S
C2258 C2259 1.385 . S
C2258 C2260 1.478 . S
C2259 H2253 0.930 . S
C2259 C2255 1.400 . S
C2259 C2258 1.385 . S
C2260 C2258 1.478 . S
C2260 C2262 1.381 . S
C2260 C2266 1.383 . S
C2261 C2257 1.495 . S
C2261 H2267 0.959 . S
C2261 H2268 0.961 . S
C2261 H2269 0.960 . S
C2262 C2260 1.381 . S
C2262 C2263 1.394 . S
C2262 H2270 0.930 . S
C2263 C2262 1.394 . S
C2263 C2264 1.383 1_455 S
C2263 H2271 0.929 . S
C2264 C2263 1.383 1_655 S
C2264 C2265 1.377 . S
C2265 H2249 0.930 . S
C2265 C2264 1.377 . S
C2265 C2266 1.379 1_655 S
C2266 H2250 0.931 1_455 S
C2266 C2260 1.383 . S
C2266 C2265 1.379 1_455 S
H2267 C2261 0.959 . S
H2268 C2261 0.961 . S
H2269 C2261 0.960 . S
H2270 C2262 0.930 . S
H2271 C2263 0.929 . S
H2272 C2280 0.929 . S
H2273 C2282 0.930 . S
H2274 C2284 0.930 . S
H2275 C2287 0.929 . S
H2276 C2290 0.930 . S
H2277 C2292 0.960 . S
H2278 C2292 0.960 . S
H2279 C2292 0.960 . S
C2280 H2272 0.929 . S
C2280 C2281 1.377 . S
C2280 C2282 1.384 . S
C2281 C2280 1.377 . S
C2281 C2287 1.390 . S
C2282 H2273 0.930 . S
C2282 C2280 1.384 . S
C2282 C2283 1.372 . S
C2283 C2282 1.372 . S
C2283 C2284 1.400 . S
C2283 C2288 1.490 . S
C2284 H2274 0.930 . S
C2284 C2283 1.400 . S
C2284 C2287 1.386 . S
H2285 C2301 0.930 . S
H2286 C2302 0.931 . S
C2287 H2275 0.929 . S
C2287 C2281 1.390 . S
C2287 C2284 1.386 . S
C2288 C2283 1.490 . S
C2288 C2290 1.395 . S
C2288 C2291 1.403 . S
H2289 C2295 0.930 . S
C2290 H2276 0.930 . S
C2290 C2288 1.395 . S
C2290 C2293 1.403 . S
C2291 C2288 1.403 . S
C2291 C2292 1.524 . S
C2291 C2295 1.400 . S
C2292 H2277 0.960 . S
C2292 H2278 0.960 . S
C2292 H2279 0.960 . S
C2292 C2291 1.524 . S
C2293 C2290 1.403 . S
C2293 C2294 1.392 . S
C2293 C2297 1.495 . S
C2294 C2293 1.392 . S
C2294 C2295 1.385 . S
C2294 C2296 1.478 . S
C2295 H2289 0.930 . S
C2295 C2291 1.400 . S
C2295 C2294 1.385 . S
C2296 C2294 1.478 . S
C2296 C2298 1.381 . S
C2296 C2302 1.383 . S
C2297 C2293 1.495 . S
C2297 H2303 0.959 . S
C2297 H2304 0.961 . S
C2297 H2305 0.960 . S
C2298 C2296 1.381 . S
C2298 C2299 1.394 . S
C2298 H2306 0.930 . S
C2299 C2298 1.394 . S
C2299 C2300 1.383 . S
C2299 H2307 0.929 . S
C2300 C2299 1.383 . S
C2300 C2301 1.377 . S
C2301 H2285 0.930 . S
C2301 C2300 1.377 . S
C2301 C2302 1.379 . S
C2302 H2286 0.931 . S
C2302 C2296 1.383 . S
C2302 C2301 1.379 . S
H2303 C2297 0.959 . S
H2304 C2297 0.961 . S
H2305 C2297 0.960 . S
H2306 C2298 0.930 . S
H2307 C2299 0.929 . S
H2308 C2316 0.929 . S
H2309 C2318 0.930 . S
H2310 C2320 0.930 . S
H2311 C2323 0.929 . S
H2312 C2326 0.930 . S
H2313 C2328 0.960 . S
H2314 C2328 0.960 . S
H2315 C2328 0.960 . S
C2316 H2308 0.929 . S
C2316 C2317 1.377 . S
C2316 C2318 1.384 . S
C2317 C2316 1.377 . S
C2317 C2323 1.390 . S
C2318 H2309 0.930 . S
C2318 C2316 1.384 . S
C2318 C2319 1.372 . S
C2319 C2318 1.372 . S
C2319 C2320 1.400 . S
C2319 C2324 1.490 . S
C2320 H2310 0.930 . S
C2320 C2319 1.400 . S
C2320 C2323 1.386 . S
H2321 C2337 0.930 . S
H2322 C2338 0.931 . S
C2323 H2311 0.929 . S
C2323 C2317 1.390 . S
C2323 C2320 1.386 . S
C2324 C2319 1.490 . S
C2324 C2326 1.395 . S
C2324 C2327 1.403 . S
H2325 C2331 0.930 . S
C2326 H2312 0.930 . S
C2326 C2324 1.395 . S
C2326 C2329 1.403 . S
C2327 C2324 1.403 . S
C2327 C2328 1.524 . S
C2327 C2331 1.400 . S
C2328 H2313 0.960 . S
C2328 H2314 0.960 . S
C2328 H2315 0.960 . S
C2328 C2327 1.524 . S
C2329 C2326 1.403 . S
C2329 C2330 1.392 . S
C2329 C2333 1.495 . S
C2330 C2329 1.392 . S
C2330 C2331 1.385 . S
C2330 C2332 1.478 . S
C2331 H2325 0.930 . S
C2331 C2327 1.400 . S
C2331 C2330 1.385 . S
C2332 C2330 1.478 . S
C2332 C2334 1.381 . S
C2332 C2338 1.383 . S
C2333 C2329 1.495 . S
C2333 H2339 0.959 . S
C2333 H2340 0.961 . S
C2333 H2341 0.960 . S
C2334 C2332 1.381 . S
C2334 C2335 1.394 . S
C2334 H2342 0.930 . S
C2335 C2334 1.394 . S
C2335 C2336 1.383 . S
C2335 H2343 0.929 . S
C2336 C2335 1.383 . S
C2336 C2337 1.377 . S
C2337 H2321 0.930 . S
C2337 C2336 1.377 . S
C2337 C2338 1.379 . S
C2338 H2322 0.931 . S
C2338 C2332 1.383 . S
C2338 C2337 1.379 . S
H2339 C2333 0.959 . S
H2340 C2333 0.961 . S
H2341 C2333 0.960 . S
H2342 C2334 0.930 . S
H2343 C2335 0.929 . S
H2344 C2352 0.929 . S
H2345 C2354 0.930 . S
H2346 C2356 0.930 . S
H2347 C2359 0.929 . S
H2348 C2362 0.930 . S
H2349 C2364 0.960 . S
H2350 C2364 0.960 . S
H2351 C2364 0.960 . S
C2352 H2344 0.929 . S
C2352 C2353 1.377 . S
C2352 C2354 1.384 . S
C2353 C2352 1.377 . S
C2353 C2359 1.390 . S
C2354 H2345 0.930 . S
C2354 C2352 1.384 . S
C2354 C2355 1.372 . S
C2355 C2354 1.372 . S
C2355 C2356 1.400 . S
C2355 C2360 1.490 . S
C2356 H2346 0.930 . S
C2356 C2355 1.400 . S
C2356 C2359 1.386 . S
H2357 C2373 0.930 . S
H2358 C2374 0.931 . S
C2359 H2347 0.929 . S
C2359 C2353 1.390 . S
C2359 C2356 1.386 . S
C2360 C2355 1.490 . S
C2360 C2362 1.395 . S
C2360 C2363 1.403 . S
H2361 C2367 0.930 . S
C2362 H2348 0.930 . S
C2362 C2360 1.395 . S
C2362 C2365 1.403 . S
C2363 C2360 1.403 . S
C2363 C2364 1.524 . S
C2363 C2367 1.400 . S
C2364 H2349 0.960 . S
C2364 H2350 0.960 . S
C2364 H2351 0.960 . S
C2364 C2363 1.524 . S
C2365 C2362 1.403 . S
C2365 C2366 1.392 . S
C2365 C2369 1.495 . S
C2366 C2365 1.392 . S
C2366 C2367 1.385 . S
C2366 C2368 1.478 . S
C2367 H2361 0.930 . S
C2367 C2363 1.400 . S
C2367 C2366 1.385 . S
C2368 C2366 1.478 . S
C2368 C2370 1.381 . S
C2368 C2374 1.383 . S
C2369 C2365 1.495 . S
C2369 H2375 0.959 . S
C2369 H2376 0.961 . S
C2369 H2377 0.960 . S
C2370 C2368 1.381 . S
C2370 C2371 1.394 . S
C2370 H2378 0.930 . S
C2371 C2370 1.394 . S
C2371 C2372 1.383 . S
C2371 H2379 0.929 . S
C2372 C2371 1.383 . S
C2372 C2373 1.377 . S
C2373 H2357 0.930 . S
C2373 C2372 1.377 . S
C2373 C2374 1.379 . S
C2374 H2358 0.931 . S
C2374 C2368 1.383 . S
C2374 C2373 1.379 . S
H2375 C2369 0.959 . S
H2376 C2369 0.961 . S
H2377 C2369 0.960 . S
H2378 C2370 0.930 . S
H2379 C2371 0.929 . S
H2380 C2388 0.929 . S
H2381 C2390 0.930 . S
H2382 C2392 0.930 . S
H2383 C2395 0.929 . S
H2384 C2398 0.930 . S
H2385 C2400 0.960 . S
H2386 C2400 0.960 . S
H2387 C2400 0.960 . S
C2388 H2380 0.929 . S
C2388 C2389 1.377 . S
C2388 C2390 1.384 . S
C2389 C2388 1.377 . S
C2389 C2395 1.390 . S
C2390 H2381 0.930 . S
C2390 C2388 1.384 . S
C2390 C2391 1.372 . S
C2391 C2390 1.372 . S
C2391 C2392 1.400 . S
C2391 C2396 1.490 . S
C2392 H2382 0.930 . S
C2392 C2391 1.400 . S
C2392 C2395 1.386 . S
H2393 C2409 0.930 . S
H2394 C2410 0.931 1_455 S
C2395 H2383 0.929 . S
C2395 C2389 1.390 . S
C2395 C2392 1.386 . S
C2396 C2391 1.490 . S
C2396 C2398 1.395 . S
C2396 C2399 1.403 . S
H2397 C2403 0.930 . S
C2398 H2384 0.930 . S
C2398 C2396 1.395 . S
C2398 C2401 1.403 . S
C2399 C2396 1.403 . S
C2399 C2400 1.524 . S
C2399 C2403 1.400 . S
C2400 H2385 0.960 . S
C2400 H2386 0.960 . S
C2400 H2387 0.960 . S
C2400 C2399 1.524 . S
C2401 C2398 1.403 . S
C2401 C2402 1.392 . S
C2401 C2405 1.495 . S
C2402 C2401 1.392 . S
C2402 C2403 1.385 . S
C2402 C2404 1.478 . S
C2403 H2397 0.930 . S
C2403 C2399 1.400 . S
C2403 C2402 1.385 . S
C2404 C2402 1.478 . S
C2404 C2406 1.381 1_455 S
C2404 C2410 1.383 1_455 S
C2405 C2401 1.495 . S
C2405 H2411 0.959 . S
C2405 H2412 0.961 1_455 S
C2405 H2413 0.960 1_455 S
C2406 C2404 1.381 1_655 S
C2406 C2407 1.394 . S
C2406 H2414 0.930 . S
C2407 C2406 1.394 . S
C2407 C2408 1.383 . S
C2407 H2415 0.929 . S
C2408 C2407 1.383 . S
C2408 C2409 1.377 . S
C2409 H2393 0.930 . S
C2409 C2408 1.377 . S
C2409 C2410 1.379 . S
C2410 H2394 0.931 1_655 S
C2410 C2404 1.383 1_655 S
C2410 C2409 1.379 . S
H2411 C2405 0.959 . S
H2412 C2405 0.961 1_655 S
H2413 C2405 0.960 1_655 S
H2414 C2406 0.930 . S
H2415 C2407 0.929 . S
H2416 C2424 0.929 . S
H2417 C2426 0.930 . S
H2418 C2428 0.930 . S
H2419 C2431 0.929 . S
H2420 C2434 0.930 . S
H2421 C2436 0.960 . S
H2422 C2436 0.960 . S
H2423 C2436 0.960 . S
C2424 H2416 0.929 . S
C2424 C2425 1.377 . S
C2424 C2426 1.384 . S
C2425 C2424 1.377 . S
C2425 C2431 1.390 . S
C2426 H2417 0.930 . S
C2426 C2424 1.384 . S
C2426 C2427 1.372 . S
C2427 C2426 1.372 . S
C2427 C2428 1.400 . S
C2427 C2432 1.490 . S
C2428 H2418 0.930 . S
C2428 C2427 1.400 . S
C2428 C2431 1.386 . S
H2429 C2445 0.930 . S
H2430 C2446 0.931 . S
C2431 H2419 0.929 . S
C2431 C2425 1.390 . S
C2431 C2428 1.386 . S
C2432 C2427 1.490 . S
C2432 C2434 1.395 . S
C2432 C2435 1.403 . S
H2433 C2439 0.930 . S
C2434 H2420 0.930 . S
C2434 C2432 1.395 . S
C2434 C2437 1.403 . S
C2435 C2432 1.403 . S
C2435 C2436 1.524 . S
C2435 C2439 1.400 . S
C2436 H2421 0.960 . S
C2436 H2422 0.960 . S
C2436 H2423 0.960 . S
C2436 C2435 1.524 . S
C2437 C2434 1.403 . S
C2437 C2438 1.392 . S
C2437 C2441 1.495 . S
C2438 C2437 1.392 . S
C2438 C2439 1.385 . S
C2438 C2440 1.478 . S
C2439 H2433 0.930 . S
C2439 C2435 1.400 . S
C2439 C2438 1.385 . S
C2440 C2438 1.478 . S
C2440 C2442 1.381 . S
C2440 C2446 1.383 . S
C2441 C2437 1.495 . S
C2441 H2447 0.959 . S
C2441 H2448 0.961 . S
C2441 H2449 0.960 . S
C2442 C2440 1.381 . S
C2442 C2443 1.394 . S
C2442 H2450 0.930 . S
C2443 C2442 1.394 . S
C2443 C2444 1.383 . S
C2443 H2451 0.929 . S
C2444 C2443 1.383 . S
C2444 C2445 1.377 . S
C2445 H2429 0.930 . S
C2445 C2444 1.377 . S
C2445 C2446 1.379 . S
C2446 H2430 0.931 . S
C2446 C2440 1.383 . S
C2446 C2445 1.379 . S
H2447 C2441 0.959 . S
H2448 C2441 0.961 . S
H2449 C2441 0.960 . S
H2450 C2442 0.930 . S
H2451 C2443 0.929 . S
H2452 C2460 0.929 . S
H2453 C2462 0.930 . S
H2454 C2464 0.930 . S
H2455 C2467 0.929 . S
H2456 C2470 0.930 . S
H2457 C2472 0.960 . S
H2458 C2472 0.960 . S
H2459 C2472 0.960 . S
C2460 H2452 0.929 . S
C2460 C2461 1.377 . S
C2460 C2462 1.384 . S
C2461 C2460 1.377 . S
C2461 C2467 1.390 . S
C2462 H2453 0.930 . S
C2462 C2460 1.384 . S
C2462 C2463 1.372 . S
C2463 C2462 1.372 . S
C2463 C2464 1.400 . S
C2463 C2468 1.490 . S
C2464 H2454 0.930 . S
C2464 C2463 1.400 . S
C2464 C2467 1.386 . S
H2465 C2481 0.930 . S
H2466 C2482 0.931 1_455 S
C2467 H2455 0.929 . S
C2467 C2461 1.390 . S
C2467 C2464 1.386 . S
C2468 C2463 1.490 . S
C2468 C2470 1.395 . S
C2468 C2471 1.403 . S
H2469 C2475 0.930 . S
C2470 H2456 0.930 . S
C2470 C2468 1.395 . S
C2470 C2473 1.403 . S
C2471 C2468 1.403 . S
C2471 C2472 1.524 . S
C2471 C2475 1.400 . S
C2472 H2457 0.960 . S
C2472 H2458 0.960 . S
C2472 H2459 0.960 . S
C2472 C2471 1.524 . S
C2473 C2470 1.403 . S
C2473 C2474 1.392 . S
C2473 C2477 1.495 . S
C2474 C2473 1.392 . S
C2474 C2475 1.385 . S
C2474 C2476 1.478 . S
C2475 H2469 0.930 . S
C2475 C2471 1.400 . S
C2475 C2474 1.385 . S
C2476 C2474 1.478 . S
C2476 C2478 1.381 1_455 S
C2476 C2482 1.383 1_455 S
C2477 C2473 1.495 . S
C2477 H2483 0.959 . S
C2477 H2484 0.961 1_455 S
C2477 H2485 0.960 1_455 S
C2478 C2476 1.381 1_655 S
C2478 C2479 1.394 . S
C2478 H2486 0.930 . S
C2479 C2478 1.394 . S
C2479 C2480 1.383 . S
C2479 H2487 0.929 . S
C2480 C2479 1.383 . S
C2480 C2481 1.377 . S
C2481 H2465 0.930 . S
C2481 C2480 1.377 . S
C2481 C2482 1.379 . S
C2482 H2466 0.931 1_655 S
C2482 C2476 1.383 1_655 S
C2482 C2481 1.379 . S
H2483 C2477 0.959 . S
H2484 C2477 0.961 1_655 S
H2485 C2477 0.960 1_655 S
H2486 C2478 0.930 . S
H2487 C2479 0.929 . S
H2488 C2496 0.929 . S
H2489 C2498 0.930 . S
H2490 C2500 0.930 . S
H2491 C2503 0.929 . S
H2492 C2506 0.930 . S
H2493 C2508 0.960 . S
H2494 C2508 0.960 . S
H2495 C2508 0.960 . S
C2496 H2488 0.929 . S
C2496 C2497 1.377 . S
C2496 C2498 1.384 . S
C2497 C2496 1.377 . S
C2497 C2503 1.390 . S
C2498 H2489 0.930 . S
C2498 C2496 1.384 . S
C2498 C2499 1.372 . S
C2499 C2498 1.372 . S
C2499 C2500 1.400 . S
C2499 C2504 1.490 . S
C2500 H2490 0.930 . S
C2500 C2499 1.400 . S
C2500 C2503 1.386 . S
H2501 C2517 0.930 . S
H2502 C2518 0.931 . S
C2503 H2491 0.929 . S
C2503 C2497 1.390 . S
C2503 C2500 1.386 . S
C2504 C2499 1.490 . S
C2504 C2506 1.395 . S
C2504 C2507 1.403 . S
H2505 C2511 0.930 . S
C2506 H2492 0.930 . S
C2506 C2504 1.395 . S
C2506 C2509 1.403 . S
C2507 C2504 1.403 . S
C2507 C2508 1.524 . S
C2507 C2511 1.400 . S
C2508 H2493 0.960 . S
C2508 H2494 0.960 . S
C2508 H2495 0.960 . S
C2508 C2507 1.524 . S
C2509 C2506 1.403 . S
C2509 C2510 1.392 . S
C2509 C2513 1.495 . S
C2510 C2509 1.392 . S
C2510 C2511 1.385 . S
C2510 C2512 1.478 . S
C2511 H2505 0.930 . S
C2511 C2507 1.400 . S
C2511 C2510 1.385 . S
C2512 C2510 1.478 . S
C2512 C2514 1.381 . S
C2512 C2518 1.383 . S
C2513 C2509 1.495 . S
C2513 H2519 0.959 . S
C2513 H2520 0.961 . S
C2513 H2521 0.960 . S
C2514 C2512 1.381 . S
C2514 C2515 1.394 . S
C2514 H2522 0.930 . S
C2515 C2514 1.394 . S
C2515 C2516 1.383 . S
C2515 H2523 0.929 . S
C2516 C2515 1.383 . S
C2516 C2517 1.377 . S
C2517 H2501 0.930 . S
C2517 C2516 1.377 . S
C2517 C2518 1.379 . S
C2518 H2502 0.931 . S
C2518 C2512 1.383 . S
C2518 C2517 1.379 . S
H2519 C2513 0.959 . S
H2520 C2513 0.961 . S
H2521 C2513 0.960 . S
H2522 C2514 0.930 . S
H2523 C2515 0.929 . S
H2524 C2532 0.929 . S
H2525 C2534 0.930 . S
H2526 C2536 0.930 . S
H2527 C2539 0.929 . S
H2528 C2542 0.930 . S
H2529 C2544 0.960 . S
H2530 C2544 0.960 . S
H2531 C2544 0.960 . S
C2532 H2524 0.929 . S
C2532 C2533 1.377 . S
C2532 C2534 1.384 . S
C2533 C2532 1.377 . S
C2533 C2539 1.390 . S
C2534 H2525 0.930 . S
C2534 C2532 1.384 . S
C2534 C2535 1.372 . S
C2535 C2534 1.372 . S
C2535 C2536 1.400 . S
C2535 C2540 1.490 . S
C2536 H2526 0.930 . S
C2536 C2535 1.400 . S
C2536 C2539 1.386 . S
H2537 C2553 0.930 . S
H2538 C2554 0.931 . S
C2539 H2527 0.929 . S
C2539 C2533 1.390 . S
C2539 C2536 1.386 . S
C2540 C2535 1.490 . S
C2540 C2542 1.395 . S
C2540 C2543 1.403 . S
H2541 C2547 0.930 . S
C2542 H2528 0.930 . S
C2542 C2540 1.395 . S
C2542 C2545 1.403 . S
C2543 C2540 1.403 . S
C2543 C2544 1.524 . S
C2543 C2547 1.400 . S
C2544 H2529 0.960 . S
C2544 H2530 0.960 . S
C2544 H2531 0.960 . S
C2544 C2543 1.524 . S
C2545 C2542 1.403 . S
C2545 C2546 1.392 . S
C2545 C2549 1.495 . S
C2546 C2545 1.392 . S
C2546 C2547 1.385 . S
C2546 C2548 1.478 . S
C2547 H2541 0.930 . S
C2547 C2543 1.400 . S
C2547 C2546 1.385 . S
C2548 C2546 1.478 . S
C2548 C2550 1.381 . S
C2548 C2554 1.383 . S
C2549 C2545 1.495 . S
C2549 H2555 0.959 . S
C2549 H2556 0.961 . S
C2549 H2557 0.960 . S
C2550 C2548 1.381 . S
C2550 C2551 1.394 . S
C2550 H2558 0.930 . S
C2551 C2550 1.394 . S
C2551 C2552 1.383 . S
C2551 H2559 0.929 . S
C2552 C2551 1.383 . S
C2552 C2553 1.377 . S
C2553 H2537 0.930 . S
C2553 C2552 1.377 . S
C2553 C2554 1.379 . S
C2554 H2538 0.931 . S
C2554 C2548 1.383 . S
C2554 C2553 1.379 . S
H2555 C2549 0.959 . S
H2556 C2549 0.961 . S
H2557 C2549 0.960 . S
H2558 C2550 0.930 . S
H2559 C2551 0.929 . S
H2560 C2568 0.929 . S
H2561 C2570 0.930 . S
H2562 C2572 0.930 . S
H2563 C2575 0.929 . S
H2564 C2578 0.930 . S
H2565 C2580 0.960 . S
H2566 C2580 0.960 . S
H2567 C2580 0.960 . S
C2568 H2560 0.929 . S
C2568 C2569 1.377 . S
C2568 C2570 1.384 . S
C2569 C2568 1.377 . S
C2569 C2575 1.390 . S
C2570 H2561 0.930 . S
C2570 C2568 1.384 . S
C2570 C2571 1.372 . S
C2571 C2570 1.372 . S
C2571 C2572 1.400 . S
C2571 C2576 1.490 . S
C2572 H2562 0.930 . S
C2572 C2571 1.400 . S
C2572 C2575 1.386 . S
H2573 C2589 0.930 . S
H2574 C2590 0.931 . S
C2575 H2563 0.929 . S
C2575 C2569 1.390 . S
C2575 C2572 1.386 . S
C2576 C2571 1.490 . S
C2576 C2578 1.395 . S
C2576 C2579 1.403 . S
H2577 C2583 0.930 . S
C2578 H2564 0.930 . S
C2578 C2576 1.395 . S
C2578 C2581 1.403 . S
C2579 C2576 1.403 . S
C2579 C2580 1.524 . S
C2579 C2583 1.400 . S
C2580 H2565 0.960 . S
C2580 H2566 0.960 . S
C2580 H2567 0.960 . S
C2580 C2579 1.524 . S
C2581 C2578 1.403 . S
C2581 C2582 1.392 . S
C2581 C2585 1.495 . S
C2582 C2581 1.392 . S
C2582 C2583 1.385 . S
C2582 C2584 1.478 . S
C2583 H2577 0.930 . S
C2583 C2579 1.400 . S
C2583 C2582 1.385 . S
C2584 C2582 1.478 . S
C2584 C2586 1.381 . S
C2584 C2590 1.383 . S
C2585 C2581 1.495 . S
C2585 H2591 0.959 . S
C2585 H2592 0.961 . S
C2585 H2593 0.960 . S
C2586 C2584 1.381 . S
C2586 C2587 1.394 . S
C2586 H2594 0.930 . S
C2587 C2586 1.394 . S
C2587 C2588 1.383 . S
C2587 H2595 0.929 . S
C2588 C2587 1.383 . S
C2588 C2589 1.377 . S
C2589 H2573 0.930 . S
C2589 C2588 1.377 . S
C2589 C2590 1.379 . S
C2590 H2574 0.931 . S
C2590 C2584 1.383 . S
C2590 C2589 1.379 . S
H2591 C2585 0.959 . S
H2592 C2585 0.961 . S
H2593 C2585 0.960 . S
H2594 C2586 0.930 . S
H2595 C2587 0.929 . S
H2596 C2604 0.929 . S
H2597 C2606 0.930 . S
H2598 C2608 0.930 . S
H2599 C2611 0.929 . S
H2600 C2614 0.930 . S
H2601 C2616 0.960 . S
H2602 C2616 0.960 . S
H2603 C2616 0.960 . S
C2604 H2596 0.929 . S
C2604 C2605 1.377 . S
C2604 C2606 1.384 . S
C2605 C2604 1.377 . S
C2605 C2611 1.390 . S
C2606 H2597 0.930 . S
C2606 C2604 1.384 . S
C2606 C2607 1.372 . S
C2607 C2606 1.372 . S
C2607 C2608 1.400 . S
C2607 C2612 1.490 . S
C2608 H2598 0.930 . S
C2608 C2607 1.400 . S
C2608 C2611 1.386 . S
H2609 C2625 0.930 . S
H2610 C2626 0.931 . S
C2611 H2599 0.929 . S
C2611 C2605 1.390 . S
C2611 C2608 1.386 . S
C2612 C2607 1.490 . S
C2612 C2614 1.395 . S
C2612 C2615 1.403 . S
H2613 C2619 0.930 . S
C2614 H2600 0.930 . S
C2614 C2612 1.395 . S
C2614 C2617 1.403 . S
C2615 C2612 1.403 . S
C2615 C2616 1.524 . S
C2615 C2619 1.400 . S
C2616 H2601 0.960 . S
C2616 H2602 0.960 . S
C2616 H2603 0.960 . S
C2616 C2615 1.524 . S
C2617 C2614 1.403 . S
C2617 C2618 1.392 . S
C2617 C2621 1.495 . S
C2618 C2617 1.392 . S
C2618 C2619 1.385 . S
C2618 C2620 1.478 . S
C2619 H2613 0.930 . S
C2619 C2615 1.400 . S
C2619 C2618 1.385 . S
C2620 C2618 1.478 . S
C2620 C2622 1.381 . S
C2620 C2626 1.383 . S
C2621 C2617 1.495 . S
C2621 H2627 0.959 . S
C2621 H2628 0.961 . S
C2621 H2629 0.960 . S
C2622 C2620 1.381 . S
C2622 C2623 1.394 . S
C2622 H2630 0.930 . S
C2623 C2622 1.394 . S
C2623 C2624 1.383 . S
C2623 H2631 0.929 . S
C2624 C2623 1.383 . S
C2624 C2625 1.377 . S
C2625 H2609 0.930 . S
C2625 C2624 1.377 . S
C2625 C2626 1.379 . S
C2626 H2610 0.931 . S
C2626 C2620 1.383 . S
C2626 C2625 1.379 . S
H2627 C2621 0.959 . S
H2628 C2621 0.961 . S
H2629 C2621 0.960 . S
H2630 C2622 0.930 . S
H2631 C2623 0.929 . S
H2632 C2640 0.929 . S
H2633 C2642 0.930 . S
H2634 C2644 0.930 . S
H2635 C2647 0.929 . S
H2636 C2650 0.930 . S
H2637 C2652 0.960 . S
H2638 C2652 0.960 . S
H2639 C2652 0.960 . S
C2640 H2632 0.929 . S
C2640 C2641 1.377 . S
C2640 C2642 1.384 . S
C2641 C2640 1.377 . S
C2641 C2647 1.390 . S
C2642 H2633 0.930 . S
C2642 C2640 1.384 . S
C2642 C2643 1.372 . S
C2643 C2642 1.372 . S
C2643 C2644 1.400 . S
C2643 C2648 1.490 . S
C2644 H2634 0.930 . S
C2644 C2643 1.400 . S
C2644 C2647 1.386 . S
H2645 C2661 0.930 . S
H2646 C2662 0.931 . S
C2647 H2635 0.929 . S
C2647 C2641 1.390 . S
C2647 C2644 1.386 . S
C2648 C2643 1.490 . S
C2648 C2650 1.395 . S
C2648 C2651 1.403 . S
H2649 C2655 0.930 . S
C2650 H2636 0.930 . S
C2650 C2648 1.395 . S
C2650 C2653 1.403 . S
C2651 C2648 1.403 . S
C2651 C2652 1.524 . S
C2651 C2655 1.400 . S
C2652 H2637 0.960 . S
C2652 H2638 0.960 . S
C2652 H2639 0.960 . S
C2652 C2651 1.524 . S
C2653 C2650 1.403 . S
C2653 C2654 1.392 . S
C2653 C2657 1.495 . S
C2654 C2653 1.392 . S
C2654 C2655 1.385 . S
C2654 C2656 1.478 . S
C2655 H2649 0.930 . S
C2655 C2651 1.400 . S
C2655 C2654 1.385 . S
C2656 C2654 1.478 . S
C2656 C2658 1.381 . S
C2656 C2662 1.383 . S
C2657 C2653 1.495 . S
C2657 H2663 0.959 . S
C2657 H2664 0.961 . S
C2657 H2665 0.960 . S
C2658 C2656 1.381 . S
C2658 C2659 1.394 . S
C2658 H2666 0.930 . S
C2659 C2658 1.394 . S
C2659 C2660 1.383 . S
C2659 H2667 0.929 . S
C2660 C2659 1.383 . S
C2660 C2661 1.377 . S
C2661 H2645 0.930 . S
C2661 C2660 1.377 . S
C2661 C2662 1.379 . S
C2662 H2646 0.931 . S
C2662 C2656 1.383 . S
C2662 C2661 1.379 . S
H2663 C2657 0.959 . S
H2664 C2657 0.961 . S
H2665 C2657 0.960 . S
H2666 C2658 0.930 . S
H2667 C2659 0.929 . S
H2668 C2676 0.929 . S
H2669 C2678 0.930 . S
H2670 C2680 0.930 . S
H2671 C2683 0.924 1_455 S
H2672 C2686 0.930 . S
H2673 C2688 0.960 . S
H2674 C2688 0.960 . S
H2675 C2688 0.960 . S
C2676 H2668 0.929 . S
C2676 C2677 1.377 . S
C2676 C2678 1.384 1_455 S
C2677 C2676 1.377 . S
C2677 C2683 1.390 1_455 S
C2678 H2669 0.930 . S
C2678 C2676 1.384 1_655 S
C2678 C2679 1.372 . S
C2679 C2678 1.372 . S
C2679 C2680 1.400 . S
C2679 C2684 1.490 . S
C2680 H2670 0.930 . S
C2680 C2679 1.400 . S
C2680 C2683 1.386 . S
H2681 C2697 0.930 . S
H2682 C2698 0.931 . S
C2683 H2671 0.924 1_655 S
C2683 C2677 1.390 1_655 S
C2683 C2680 1.386 . S
C2684 C2679 1.490 . S
C2684 C2686 1.395 . S
C2684 C2687 1.403 . S
H2685 C2691 0.930 . S
C2686 H2672 0.930 . S
C2686 C2684 1.395 . S
C2686 C2689 1.403 . S
C2687 C2684 1.403 . S
C2687 C2688 1.524 . S
C2687 C2691 1.400 . S
C2688 H2673 0.960 . S
C2688 H2674 0.960 . S
C2688 H2675 0.960 . S
C2688 C2687 1.524 . S
C2689 C2686 1.403 . S
C2689 C2690 1.392 . S
C2689 C2693 1.495 . S
C2690 C2689 1.392 . S
C2690 C2691 1.385 . S
C2690 C2692 1.478 . S
C2691 H2685 0.930 . S
C2691 C2687 1.400 . S
C2691 C2690 1.385 . S
C2692 C2690 1.478 . S
C2692 C2694 1.381 . S
C2692 C2698 1.383 . S
C2693 C2689 1.495 . S
C2693 H2699 0.959 . S
C2693 H2700 0.961 . S
C2693 H2701 0.960 . S
C2694 C2692 1.381 . S
C2694 C2695 1.394 . S
C2694 H2702 0.930 . S
C2695 C2694 1.394 . S
C2695 C2696 1.383 . S
C2695 H2703 0.929 . S
C2696 C2695 1.383 . S
C2696 C2697 1.377 . S
C2697 H2681 0.930 . S
C2697 C2696 1.377 . S
C2697 C2698 1.379 . S
C2698 H2682 0.931 . S
C2698 C2692 1.383 . S
C2698 C2697 1.379 . S
H2699 C2693 0.959 . S
H2700 C2693 0.961 . S
H2701 C2693 0.960 . S
H2702 C2694 0.930 . S
H2703 C2695 0.929 . S
H2704 C2712 0.929 . S
H2705 C2714 0.930 . S
H2706 C2716 0.930 . S
H2707 C2719 0.929 . S
H2708 C2722 0.930 . S
H2709 C2724 0.960 . S
H2710 C2724 0.960 . S
H2711 C2724 0.960 . S
C2712 H2704 0.929 . S
C2712 C2713 1.377 . S
C2712 C2714 1.384 . S
C2713 C2712 1.377 . S
C2713 C2719 1.390 . S
C2714 H2705 0.930 . S
C2714 C2712 1.384 . S
C2714 C2715 1.372 . S
C2715 C2714 1.372 . S
C2715 C2716 1.400 . S
C2715 C2720 1.490 . S
C2716 H2706 0.930 . S
C2716 C2715 1.400 . S
C2716 C2719 1.386 . S
H2717 C2733 0.930 . S
H2718 C2734 0.931 . S
C2719 H2707 0.929 . S
C2719 C2713 1.390 . S
C2719 C2716 1.386 . S
C2720 C2715 1.490 . S
C2720 C2722 1.395 . S
C2720 C2723 1.403 . S
H2721 C2727 0.930 . S
C2722 H2708 0.930 . S
C2722 C2720 1.395 . S
C2722 C2725 1.403 . S
C2723 C2720 1.403 . S
C2723 C2724 1.524 . S
C2723 C2727 1.400 . S
C2724 H2709 0.960 . S
C2724 H2710 0.960 . S
C2724 H2711 0.960 . S
C2724 C2723 1.524 . S
C2725 C2722 1.403 . S
C2725 C2726 1.392 . S
C2725 C2729 1.495 . S
C2726 C2725 1.392 . S
C2726 C2727 1.385 . S
C2726 C2728 1.478 . S
C2727 H2721 0.930 . S
C2727 C2723 1.400 . S
C2727 C2726 1.385 . S
C2728 C2726 1.478 . S
C2728 C2730 1.381 . S
C2728 C2734 1.383 . S
C2729 C2725 1.495 . S
C2729 H2735 0.959 . S
C2729 H2736 0.961 . S
C2729 H2737 0.960 . S
C2730 C2728 1.381 . S
C2730 C2731 1.394 . S
C2730 H2738 0.930 . S
C2731 C2730 1.394 . S
C2731 C2732 1.383 . S
C2731 H2739 0.929 . S
C2732 C2731 1.383 . S
C2732 C2733 1.377 . S
C2733 H2717 0.930 . S
C2733 C2732 1.377 . S
C2733 C2734 1.379 . S
C2734 H2718 0.931 . S
C2734 C2728 1.383 . S
C2734 C2733 1.379 . S
H2735 C2729 0.959 . S
H2736 C2729 0.961 . S
H2737 C2729 0.960 . S
H2738 C2730 0.930 . S
H2739 C2731 0.929 . S
H2740 C2748 0.929 . S
H2741 C2750 0.930 . S
H2742 C2752 0.930 . S
H2743 C2755 0.929 . S
H2744 C2758 0.930 . S
H2745 C2760 0.960 . S
H2746 C2760 0.960 . S
H2747 C2760 0.960 . S
C2748 H2740 0.929 . S
C2748 C2749 1.377 1_655 S
C2748 C2750 1.384 . S
C2749 C2748 1.377 1_455 S
C2749 C2755 1.390 . S
C2750 H2741 0.930 . S
C2750 C2748 1.384 . S
C2750 C2751 1.372 . S
C2751 C2750 1.372 . S
C2751 C2752 1.400 . S
C2751 C2756 1.490 . S
C2752 H2742 0.930 . S
C2752 C2751 1.400 . S
C2752 C2755 1.386 1_655 S
H2753 C2769 0.930 . S
H2754 C2770 0.931 . S
C2755 H2743 0.929 . S
C2755 C2749 1.390 . S
C2755 C2752 1.386 1_455 S
C2756 C2751 1.490 . S
C2756 C2758 1.395 . S
C2756 C2759 1.403 . S
H2757 C2763 0.930 . S
C2758 H2744 0.930 . S
C2758 C2756 1.395 . S
C2758 C2761 1.403 . S
C2759 C2756 1.403 . S
C2759 C2760 1.524 . S
C2759 C2763 1.400 . S
C2760 H2745 0.960 . S
C2760 H2746 0.960 . S
C2760 H2747 0.960 . S
C2760 C2759 1.524 . S
C2761 C2758 1.403 . S
C2761 C2762 1.392 . S
C2761 C2765 1.495 . S
C2762 C2761 1.392 . S
C2762 C2763 1.385 . S
C2762 C2764 1.478 . S
C2763 H2757 0.930 . S
C2763 C2759 1.400 . S
C2763 C2762 1.385 . S
C2764 C2762 1.478 . S
C2764 C2766 1.381 . S
C2764 C2770 1.383 . S
C2765 C2761 1.495 . S
C2765 H2771 0.959 . S
C2765 H2772 0.961 . S
C2765 H2773 0.960 . S
C2766 C2764 1.381 . S
C2766 C2767 1.394 . S
C2766 H2774 0.930 . S
C2767 C2766 1.394 . S
C2767 C2768 1.383 . S
C2767 H2775 0.929 . S
C2768 C2767 1.383 . S
C2768 C2769 1.377 . S
C2769 H2753 0.930 . S
C2769 C2768 1.377 . S
C2769 C2770 1.379 . S
C2770 H2754 0.931 . S
C2770 C2764 1.383 . S
C2770 C2769 1.379 . S
H2771 C2765 0.959 . S
H2772 C2765 0.961 . S
H2773 C2765 0.960 . S
H2774 C2766 0.930 . S
H2775 C2767 0.929 . S
H2776 C2784 0.929 . S
H2777 C2786 0.930 . S
H2778 C2788 0.930 . S
H2779 C2791 0.929 . S
H2780 C2794 0.930 . S
H2781 C2796 0.960 . S
H2782 C2796 0.960 . S
H2783 C2796 0.960 . S
C2784 H2776 0.929 . S
C2784 C2785 1.377 . S
C2784 C2786 1.384 . S
C2785 C2784 1.377 . S
C2785 C2791 1.390 . S
C2786 H2777 0.930 . S
C2786 C2784 1.384 . S
C2786 C2787 1.372 . S
C2787 C2786 1.372 . S
C2787 C2788 1.400 . S
C2787 C2792 1.490 . S
C2788 H2778 0.930 . S
C2788 C2787 1.400 . S
C2788 C2791 1.386 . S
H2789 C2805 0.930 . S
H2790 C2806 0.931 . S
C2791 H2779 0.929 . S
C2791 C2785 1.390 . S
C2791 C2788 1.386 . S
C2792 C2787 1.490 . S
C2792 C2794 1.395 . S
C2792 C2795 1.403 . S
H2793 C2799 0.930 . S
C2794 H2780 0.930 . S
C2794 C2792 1.395 . S
C2794 C2797 1.403 . S
C2795 C2792 1.403 . S
C2795 C2796 1.524 . S
C2795 C2799 1.400 . S
C2796 H2781 0.960 . S
C2796 H2782 0.960 . S
C2796 H2783 0.960 . S
C2796 C2795 1.524 . S
C2797 C2794 1.403 . S
C2797 C2798 1.392 . S
C2797 C2801 1.495 . S
C2798 C2797 1.392 . S
C2798 C2799 1.385 . S
C2798 C2800 1.478 . S
C2799 H2793 0.930 . S
C2799 C2795 1.400 . S
C2799 C2798 1.385 . S
C2800 C2798 1.478 . S
C2800 C2802 1.381 . S
C2800 C2806 1.383 . S
C2801 C2797 1.495 . S
C2801 H2807 0.959 . S
C2801 H2808 0.961 . S
C2801 H2809 0.960 . S
C2802 C2800 1.381 . S
C2802 C2803 1.394 . S
C2802 H2810 0.930 . S
C2803 C2802 1.394 . S
C2803 C2804 1.383 . S
C2803 H2811 0.929 . S
C2804 C2803 1.383 . S
C2804 C2805 1.377 . S
C2805 H2789 0.930 . S
C2805 C2804 1.377 . S
C2805 C2806 1.379 . S
C2806 H2790 0.931 . S
C2806 C2800 1.383 . S
C2806 C2805 1.379 . S
H2807 C2801 0.959 . S
H2808 C2801 0.961 . S
H2809 C2801 0.960 . S
H2810 C2802 0.930 . S
H2811 C2803 0.929 . S
H2812 C2820 0.929 . S
H2813 C2822 0.930 . S
H2814 C2824 0.930 . S
H2815 C2827 0.929 . S
H2816 C2830 0.930 . S
H2817 C2832 0.960 . S
H2818 C2832 0.960 . S
H2819 C2832 0.960 . S
C2820 H2812 0.929 . S
C2820 C2821 1.377 . S
C2820 C2822 1.384 . S
C2821 C2820 1.377 . S
C2821 C2827 1.390 . S
C2822 H2813 0.930 . S
C2822 C2820 1.384 . S
C2822 C2823 1.372 . S
C2823 C2822 1.372 . S
C2823 C2824 1.400 . S
C2823 C2828 1.490 . S
C2824 H2814 0.930 . S
C2824 C2823 1.400 . S
C2824 C2827 1.386 . S
H2825 C2841 0.930 . S
H2826 C2842 0.931 . S
C2827 H2815 0.929 . S
C2827 C2821 1.390 . S
C2827 C2824 1.386 . S
C2828 C2823 1.490 . S
C2828 C2830 1.395 . S
C2828 C2831 1.403 . S
H2829 C2835 0.930 . S
C2830 H2816 0.930 . S
C2830 C2828 1.395 . S
C2830 C2833 1.403 . S
C2831 C2828 1.403 . S
C2831 C2832 1.524 . S
C2831 C2835 1.400 . S
C2832 H2817 0.960 . S
C2832 H2818 0.960 . S
C2832 H2819 0.960 . S
C2832 C2831 1.524 . S
C2833 C2830 1.403 . S
C2833 C2834 1.392 . S
C2833 C2837 1.495 . S
C2834 C2833 1.392 . S
C2834 C2835 1.385 . S
C2834 C2836 1.478 . S
C2835 H2829 0.930 . S
C2835 C2831 1.400 . S
C2835 C2834 1.385 . S
C2836 C2834 1.478 . S
C2836 C2838 1.381 . S
C2836 C2842 1.383 . S
C2837 C2833 1.495 . S
C2837 H2843 0.959 . S
C2837 H2844 0.961 . S
C2837 H2845 0.960 . S
C2838 C2836 1.381 . S
C2838 C2839 1.394 . S
C2838 H2846 0.930 . S
C2839 C2838 1.394 . S
C2839 C2840 1.383 . S
C2839 H2847 0.929 . S
C2840 C2839 1.383 . S
C2840 C2841 1.377 . S
C2841 H2825 0.930 . S
C2841 C2840 1.377 . S
C2841 C2842 1.379 . S
C2842 H2826 0.931 . S
C2842 C2836 1.383 . S
C2842 C2841 1.379 . S
H2843 C2837 0.959 . S
H2844 C2837 0.961 . S
H2845 C2837 0.960 . S
H2846 C2838 0.930 . S
H2847 C2839 0.929 . S
H2848 C2856 0.929 . S
H2849 C2858 0.930 . S
H2850 C2860 0.930 . S
H2851 C2863 0.929 . S
H2852 C2866 0.930 . S
H2853 C2868 0.960 . S
H2854 C2868 0.960 . S
H2855 C2868 0.960 . S
C2856 H2848 0.929 . S
C2856 C2857 1.377 . S
C2856 C2858 1.384 . S
C2857 C2856 1.377 . S
C2857 C2863 1.390 . S
C2858 H2849 0.930 . S
C2858 C2856 1.384 . S
C2858 C2859 1.372 . S
C2859 C2858 1.372 . S
C2859 C2860 1.400 . S
C2859 C2864 1.490 . S
C2860 H2850 0.930 . S
C2860 C2859 1.400 . S
C2860 C2863 1.386 . S
H2861 C2877 0.930 . S
H2862 C2878 0.931 . S
C2863 H2851 0.929 . S
C2863 C2857 1.390 . S
C2863 C2860 1.386 . S
C2864 C2859 1.490 . S
C2864 C2866 1.395 . S
C2864 C2867 1.403 . S
H2865 C2871 0.930 . S
C2866 H2852 0.930 . S
C2866 C2864 1.395 . S
C2866 C2869 1.403 . S
C2867 C2864 1.403 . S
C2867 C2868 1.524 . S
C2867 C2871 1.400 . S
C2868 H2853 0.960 . S
C2868 H2854 0.960 . S
C2868 H2855 0.960 . S
C2868 C2867 1.524 . S
C2869 C2866 1.403 . S
C2869 C2870 1.392 . S
C2869 C2873 1.495 . S
C2870 C2869 1.392 . S
C2870 C2871 1.385 . S
C2870 C2872 1.478 . S
C2871 H2865 0.930 . S
C2871 C2867 1.400 . S
C2871 C2870 1.385 . S
C2872 C2870 1.478 . S
C2872 C2874 1.381 . S
C2872 C2878 1.383 . S
C2873 C2869 1.495 . S
C2873 H2879 0.959 . S
C2873 H2880 0.961 . S
C2873 H2881 0.960 . S
C2874 C2872 1.381 . S
C2874 C2875 1.394 . S
C2874 H2882 0.930 . S
C2875 C2874 1.394 . S
C2875 C2876 1.383 . S
C2875 H2883 0.929 . S
C2876 C2875 1.383 . S
C2876 C2877 1.377 . S
C2877 H2861 0.930 . S
C2877 C2876 1.377 . S
C2877 C2878 1.379 . S
C2878 H2862 0.931 . S
C2878 C2872 1.383 . S
C2878 C2877 1.379 . S
H2879 C2873 0.959 . S
H2880 C2873 0.961 . S
H2881 C2873 0.960 . S
H2882 C2874 0.930 . S
H2883 C2875 0.929 . S
H2884 C2892 0.929 . S
H2885 C2894 0.930 . S
H2886 C2896 0.930 . S
H2887 C2899 0.929 . S
H2888 C2902 0.923 1_645 S
H2889 C2904 0.960 . S
H2890 C2904 0.960 . S
H2891 C2904 0.960 . S
C2892 H2884 0.929 . S
C2892 C2893 1.377 . S
C2892 C2894 1.384 . S
C2893 C2892 1.377 . S
C2893 C2899 1.390 . S
C2894 H2885 0.930 . S
C2894 C2892 1.384 . S
C2894 C2895 1.372 . S
C2895 C2894 1.372 . S
C2895 C2896 1.400 . S
C2895 C2900 1.490 . S
C2896 H2886 0.930 . S
C2896 C2895 1.400 . S
C2896 C2899 1.386 . S
H2897 C2913 0.930 . S
H2898 C2914 0.935 . S
C2899 H2887 0.929 . S
C2899 C2893 1.390 . S
C2899 C2896 1.386 . S
C2900 C2895 1.490 . S
C2900 C2902 1.395 . S
C2900 C2903 1.403 . S
H2901 C2907 0.930 . S
C2902 H2888 0.923 1_465 S
C2902 C2900 1.395 . S
C2902 C2905 1.408 1_455 S
C2903 C2900 1.403 . S
C2903 C2904 1.524 . S
C2903 C2907 1.400 . S
C2904 H2889 0.960 . S
C2904 H2890 0.960 . S
C2904 H2891 0.960 . S
C2904 C2903 1.524 . S
C2905 C2902 1.408 1_655 S
C2905 C2906 1.409 . S
C2905 C2909 1.475 1_565 S
C2906 C2905 1.409 . S
C2906 C2907 1.385 1_655 S
C2906 C2908 1.478 . S
C2907 H2901 0.930 . S
C2907 C2903 1.400 . S
C2907 C2906 1.385 1_455 S
C2908 C2906 1.478 . S
C2908 C2910 1.381 . S
C2908 C2914 1.379 1_565 S
C2909 C2905 1.475 1_545 S
C2909 H2915 0.959 . S
C2909 H2916 0.961 . S
C2909 H2917 0.960 . S
C2910 C2908 1.381 . S
C2910 C2911 1.394 . S
C2910 H2918 0.930 . S
C2911 C2910 1.394 . S
C2911 C2912 1.383 . S
C2911 H2919 0.929 . S
C2912 C2911 1.383 . S
C2912 C2913 1.377 1_565 S
C2913 H2897 0.930 . S
C2913 C2912 1.377 1_545 S
C2913 C2914 1.380 . S
C2914 H2898 0.935 . S
C2914 C2908 1.379 1_545 S
C2914 C2913 1.380 . S
H2915 C2909 0.959 . S
H2916 C2909 0.961 . S
H2917 C2909 0.960 . S
H2918 C2910 0.930 . S
H2919 C2911 0.929 . S
H2920 C2928 0.929 . S
H2921 C2930 0.930 . S
H2922 C2932 0.930 . S
H2923 C2935 0.929 . S
H2924 C2938 0.930 . S
H2925 C2940 0.960 . S
H2926 C2940 0.960 . S
H2927 C2940 0.960 . S
C2928 H2920 0.929 . S
C2928 C2929 1.377 . S
C2928 C2930 1.384 . S
C2929 C2928 1.377 . S
C2929 C2935 1.390 . S
C2930 H2921 0.930 . S
C2930 C2928 1.384 . S
C2930 C2931 1.372 . S
C2931 C2930 1.372 . S
C2931 C2932 1.400 . S
C2931 C2936 1.490 . S
C2932 H2922 0.930 . S
C2932 C2931 1.400 . S
C2932 C2935 1.386 . S
H2933 C2949 0.930 . S
H2934 C2950 0.931 . S
C2935 H2923 0.929 . S
C2935 C2929 1.390 . S
C2935 C2932 1.386 . S
C2936 C2931 1.490 . S
C2936 C2938 1.395 . S
C2936 C2939 1.403 . S
H2937 C2943 0.930 . S
C2938 H2924 0.930 . S
C2938 C2936 1.395 . S
C2938 C2941 1.403 . S
C2939 C2936 1.403 . S
C2939 C2940 1.524 . S
C2939 C2943 1.400 . S
C2940 H2925 0.960 . S
C2940 H2926 0.960 . S
C2940 H2927 0.960 . S
C2940 C2939 1.524 . S
C2941 C2938 1.403 . S
C2941 C2942 1.392 . S
C2941 C2945 1.495 . S
C2942 C2941 1.392 . S
C2942 C2943 1.385 . S
C2942 C2944 1.478 . S
C2943 H2937 0.930 . S
C2943 C2939 1.400 . S
C2943 C2942 1.385 . S
C2944 C2942 1.478 . S
C2944 C2946 1.381 . S
C2944 C2950 1.383 . S
C2945 C2941 1.495 . S
C2945 H2951 0.959 . S
C2945 H2952 0.961 . S
C2945 H2953 0.960 . S
C2946 C2944 1.381 . S
C2946 C2947 1.394 . S
C2946 H2954 0.930 . S
C2947 C2946 1.394 . S
C2947 C2948 1.383 . S
C2947 H2955 0.929 . S
C2948 C2947 1.383 . S
C2948 C2949 1.377 . S
C2949 H2933 0.930 . S
C2949 C2948 1.377 . S
C2949 C2950 1.379 . S
C2950 H2934 0.931 . S
C2950 C2944 1.383 . S
C2950 C2949 1.379 . S
H2951 C2945 0.959 . S
H2952 C2945 0.961 . S
H2953 C2945 0.960 . S
H2954 C2946 0.930 . S
H2955 C2947 0.929 . S
H2956 C2964 0.929 . S
H2957 C2966 0.930 . S
H2958 C2968 0.930 1_565 S
H2959 C2971 0.929 1_565 S
H2960 C2974 0.930 . S
H2961 C2976 1.035 . S
H2962 C2976 0.941 1_554 S
H2963 C2976 0.927 1_554 S
C2964 H2956 0.929 . S
C2964 C2965 1.377 . S
C2964 C2966 1.384 . S
C2965 C2964 1.377 . S
C2965 C2971 1.390 . S
C2966 H2957 0.930 . S
C2966 C2964 1.384 . S
C2966 C2967 1.372 . S
C2967 C2966 1.372 . S
C2967 C2968 1.400 . S
C2967 C2972 1.490 . S
C2968 H2958 0.930 1_545 S
C2968 C2967 1.400 . S
C2968 C2971 1.386 . S
H2969 C2985 0.930 . S
H2970 C2986 0.931 . S
C2971 H2959 0.929 1_545 S
C2971 C2965 1.390 . S
C2971 C2968 1.386 . S
C2972 C2967 1.490 . S
C2972 C2974 1.395 . S
C2972 C2975 1.403 . S
H2973 C2979 0.930 . S
C2974 H2960 0.930 . S
C2974 C2972 1.395 . S
C2974 C2977 1.403 . S
C2975 C2972 1.403 . S
C2975 C2976 1.508 1_554 S
C2975 C2979 1.400 1_554 S
C2976 H2961 1.035 . S
C2976 H2962 0.941 1_556 S
C2976 H2963 0.927 1_556 S
C2976 C2975 1.508 1_556 S
C2977 C2974 1.403 . S
C2977 C2978 1.392 1_554 S
C2977 C2981 1.495 . S
C2978 C2977 1.392 1_556 S
C2978 C2979 1.385 . S
C2978 C2980 1.478 . S
C2979 H2973 0.930 . S
C2979 C2975 1.400 1_556 S
C2979 C2978 1.385 . S
C2980 C2978 1.478 . S
C2980 C2982 1.381 . S
C2980 C2986 1.383 1_545 S
C2981 C2977 1.495 . S
C2981 H2987 0.959 . S
C2981 H2988 0.961 . S
C2981 H2989 0.960 . S
C2982 C2980 1.381 . S
C2982 C2983 1.394 . S
C2982 H2990 0.930 . S
C2983 C2982 1.394 . S
C2983 C2984 1.383 . S
C2983 H2991 0.929 . S
C2984 C2983 1.383 . S
C2984 C2985 1.377 1_545 S
C2985 H2969 0.930 . S
C2985 C2984 1.377 1_565 S
C2985 C2986 1.379 . S
C2986 H2970 0.931 . S
C2986 C2980 1.383 1_565 S
C2986 C2985 1.379 . S
H2987 C2981 0.959 . S
H2988 C2981 0.961 . S
H2989 C2981 0.960 . S
H2990 C2982 0.930 . S
H2991 C2983 0.929 . S
H2992 C3000 0.929 . S
H2993 C3002 0.930 . S
H2994 C3004 0.930 . S
H2995 C3007 0.929 . S
H2996 C3010 0.930 . S
H2997 C3012 0.960 . S
H2998 C3012 0.960 . S
H2999 C3012 0.960 . S
C3000 H2992 0.929 . S
C3000 C3001 1.377 . S
C3000 C3002 1.384 . S
C3001 C3000 1.377 . S
C3001 C3007 1.390 . S
C3002 H2993 0.930 . S
C3002 C3000 1.384 . S
C3002 C3003 1.372 . S
C3003 C3002 1.372 . S
C3003 C3004 1.400 . S
C3003 C3008 1.490 . S
C3004 H2994 0.930 . S
C3004 C3003 1.400 . S
C3004 C3007 1.386 . S
H3005 C3021 0.930 . S
H3006 C3022 0.931 . S
C3007 H2995 0.929 . S
C3007 C3001 1.390 . S
C3007 C3004 1.386 . S
C3008 C3003 1.490 . S
C3008 C3010 1.395 . S
C3008 C3011 1.403 . S
H3009 C3015 0.930 . S
C3010 H2996 0.930 . S
C3010 C3008 1.395 . S
C3010 C3013 1.403 . S
C3011 C3008 1.403 . S
C3011 C3012 1.524 . S
C3011 C3015 1.400 . S
C3012 H2997 0.960 . S
C3012 H2998 0.960 . S
C3012 H2999 0.960 . S
C3012 C3011 1.524 . S
C3013 C3010 1.403 . S
C3013 C3014 1.392 . S
C3013 C3017 1.495 . S
C3014 C3013 1.392 . S
C3014 C3015 1.385 . S
C3014 C3016 1.478 . S
C3015 H3009 0.930 . S
C3015 C3011 1.400 . S
C3015 C3014 1.385 . S
C3016 C3014 1.478 . S
C3016 C3018 1.381 . S
C3016 C3022 1.383 . S
C3017 C3013 1.495 . S
C3017 H3023 0.959 . S
C3017 H3024 0.961 . S
C3017 H3025 0.960 . S
C3018 C3016 1.381 . S
C3018 C3019 1.394 . S
C3018 H3026 0.930 . S
C3019 C3018 1.394 . S
C3019 C3020 1.383 . S
C3019 H3027 0.929 . S
C3020 C3019 1.383 . S
C3020 C3021 1.377 . S
C3021 H3005 0.930 . S
C3021 C3020 1.377 . S
C3021 C3022 1.379 . S
C3022 H3006 0.931 . S
C3022 C3016 1.383 . S
C3022 C3021 1.379 . S
H3023 C3017 0.959 . S
H3024 C3017 0.961 . S
H3025 C3017 0.960 . S
H3026 C3018 0.930 . S
H3027 C3019 0.929 . S
H3028 C3036 0.929 . S
H3029 C3038 0.930 . S
H3030 C3040 0.930 . S
H3031 C3043 0.929 . S
H3032 C3046 0.930 . S
H3033 C3048 0.960 . S
H3034 C3048 0.960 . S
H3035 C3048 0.960 . S
C3036 H3028 0.929 . S
C3036 C3037 1.377 . S
C3036 C3038 1.384 . S
C3037 C3036 1.377 . S
C3037 C3043 1.390 . S
C3038 H3029 0.930 . S
C3038 C3036 1.384 . S
C3038 C3039 1.372 . S
C3039 C3038 1.372 . S
C3039 C3040 1.400 . S
C3039 C3044 1.490 . S
C3040 H3030 0.930 . S
C3040 C3039 1.400 . S
C3040 C3043 1.386 . S
H3041 C3057 0.930 . S
H3042 C3058 0.931 . S
C3043 H3031 0.929 . S
C3043 C3037 1.390 . S
C3043 C3040 1.386 . S
C3044 C3039 1.490 . S
C3044 C3046 1.395 1_565 S
C3044 C3047 1.403 . S
H3045 C3051 0.930 . S
C3046 H3032 0.930 . S
C3046 C3044 1.395 1_545 S
C3046 C3049 1.403 . S
C3047 C3044 1.403 . S
C3047 C3048 1.524 . S
C3047 C3051 1.400 . S
C3048 H3033 0.960 . S
C3048 H3034 0.960 . S
C3048 H3035 0.960 . S
C3048 C3047 1.524 . S
C3049 C3046 1.403 . S
C3049 C3050 1.392 1_545 S
C3049 C3053 1.495 . S
C3050 C3049 1.392 1_565 S
C3050 C3051 1.385 . S
C3050 C3052 1.478 . S
C3051 H3045 0.930 . S
C3051 C3047 1.400 . S
C3051 C3050 1.385 . S
C3052 C3050 1.478 . S
C3052 C3054 1.386 . S
C3052 C3058 1.383 . S
C3053 C3049 1.495 . S
C3053 H3059 0.959 . S
C3053 H3060 0.961 . S
C3053 H3061 0.960 . S
C3054 C3052 1.386 . S
C3054 C3055 1.394 . S
C3054 H3062 0.925 1_565 S
C3055 C3054 1.394 . S
C3055 C3056 1.388 . S
C3055 H3063 0.925 1_565 S
C3056 C3055 1.388 . S
C3056 C3057 1.377 . S
C3057 H3041 0.930 . S
C3057 C3056 1.377 . S
C3057 C3058 1.379 . S
C3058 H3042 0.931 . S
C3058 C3052 1.383 . S
C3058 C3057 1.379 . S
H3059 C3053 0.959 . S
H3060 C3053 0.961 . S
H3061 C3053 0.960 . S
H3062 C3054 0.925 1_545 S
H3063 C3055 0.925 1_545 S
H3064 C3072 0.929 . S
H3065 C3074 0.930 . S
H3066 C3076 0.930 . S
H3067 C3079 0.929 . S
H3068 C3082 0.930 . S
H3069 C3084 0.960 . S
H3070 C3084 0.960 . S
H3071 C3084 0.960 . S
C3072 H3064 0.929 . S
C3072 C3073 1.377 . S
C3072 C3074 1.384 . S
C3073 C3072 1.377 . S
C3073 C3079 1.390 . S
C3074 H3065 0.930 . S
C3074 C3072 1.384 . S
C3074 C3075 1.372 . S
C3075 C3074 1.372 . S
C3075 C3076 1.400 . S
C3075 C3080 1.490 . S
C3076 H3066 0.930 . S
C3076 C3075 1.400 . S
C3076 C3079 1.386 . S
H3077 C3093 0.930 . S
H3078 C3094 0.931 . S
C3079 H3067 0.929 . S
C3079 C3073 1.390 . S
C3079 C3076 1.386 . S
C3080 C3075 1.490 . S
C3080 C3082 1.395 . S
C3080 C3083 1.403 . S
H3081 C3087 0.930 . S
C3082 H3068 0.930 . S
C3082 C3080 1.395 . S
C3082 C3085 1.403 . S
C3083 C3080 1.403 . S
C3083 C3084 1.524 . S
C3083 C3087 1.400 . S
C3084 H3069 0.960 . S
C3084 H3070 0.960 . S
C3084 H3071 0.960 . S
C3084 C3083 1.524 . S
C3085 C3082 1.403 . S
C3085 C3086 1.392 . S
C3085 C3089 1.495 . S
C3086 C3085 1.392 . S
C3086 C3087 1.385 . S
C3086 C3088 1.478 . S
C3087 H3081 0.930 . S
C3087 C3083 1.400 . S
C3087 C3086 1.385 . S
C3088 C3086 1.478 . S
C3088 C3090 1.381 . S
C3088 C3094 1.383 . S
C3089 C3085 1.495 . S
C3089 H3095 0.959 . S
C3089 H3096 0.961 . S
C3089 H3097 0.960 . S
C3090 C3088 1.381 . S
C3090 C3091 1.394 . S
C3090 H3098 0.930 . S
C3091 C3090 1.394 . S
C3091 C3092 1.383 . S
C3091 H3099 0.929 . S
C3092 C3091 1.383 . S
C3092 C3093 1.377 . S
C3093 H3077 0.930 . S
C3093 C3092 1.377 . S
C3093 C3094 1.379 . S
C3094 H3078 0.931 . S
C3094 C3088 1.383 . S
C3094 C3093 1.379 . S
H3095 C3089 0.959 . S
H3096 C3089 0.961 . S
H3097 C3089 0.960 . S
H3098 C3090 0.930 . S
H3099 C3091 0.929 . S
H3100 C3108 0.929 . S
H3101 C3110 0.930 . S
H3102 C3112 0.930 . S
H3103 C3115 0.929 . S
H3104 C3118 0.930 . S
H3105 C3120 0.960 . S
H3106 C3120 0.960 1_455 S
H3107 C3120 0.960 . S
C3108 H3100 0.929 . S
C3108 C3109 1.377 . S
C3108 C3110 1.384 . S
C3109 C3108 1.377 . S
C3109 C3115 1.390 . S
C3110 H3101 0.930 . S
C3110 C3108 1.384 . S
C3110 C3111 1.372 . S
C3111 C3110 1.372 . S
C3111 C3112 1.400 . S
C3111 C3116 1.490 . S
C3112 H3102 0.930 . S
C3112 C3111 1.400 . S
C3112 C3115 1.386 . S
H3113 C3129 0.930 . S
H3114 C3130 0.931 . S
C3115 H3103 0.929 . S
C3115 C3109 1.390 . S
C3115 C3112 1.386 . S
C3116 C3111 1.490 . S
C3116 C3118 1.395 . S
C3116 C3119 1.403 . S
H3117 C3123 0.930 1_565 S
C3118 H3104 0.930 . S
C3118 C3116 1.395 . S
C3118 C3121 1.403 1_556 S
C3119 C3116 1.403 . S
C3119 C3120 1.524 1_445 S
C3119 C3123 1.400 1_455 S
C3120 H3105 0.960 . S
C3120 H3106 0.960 1_655 S
C3120 H3107 0.960 . S
C3120 C3119 1.524 1_665 S
C3121 C3118 1.403 1_554 S
C3121 C3122 1.392 1_455 S
C3121 C3125 1.495 . S
C3122 C3121 1.392 1_655 S
C3122 C3123 1.385 1_554 S
C3122 C3124 1.478 . S
C3123 H3117 0.930 1_545 S
C3123 C3119 1.400 1_655 S
C3123 C3122 1.385 1_556 S
C3124 C3122 1.478 . S
C3124 C3126 1.381 . S
C3124 C3130 1.383 . S
C3125 C3121 1.495 . S
C3125 H3131 0.959 . S
C3125 H3132 0.961 . S
C3125 H3133 0.960 . S
C3126 C3124 1.381 . S
C3126 C3127 1.394 . S
C3126 H3134 0.930 1_645 S
C3127 C3126 1.394 . S
C3127 C3128 1.383 . S
C3127 H3135 0.929 1_545 S
C3128 C3127 1.383 . S
C3128 C3129 1.377 . S
C3129 H3113 0.930 . S
C3129 C3128 1.377 . S
C3129 C3130 1.379 . S
C3130 H3114 0.931 . S
C3130 C3124 1.383 . S
C3130 C3129 1.379 . S
H3131 C3125 0.959 . S
H3132 C3125 0.961 . S
H3133 C3125 0.960 . S
H3134 C3126 0.930 1_465 S
H3135 C3127 0.929 1_565 S
H3136 C3144 0.929 . S
H3137 C3146 0.930 . S
H3138 C3148 0.930 . S
H3139 C3151 0.929 . S
H3140 C3154 0.930 . S
H3141 C3156 0.960 . S
H3142 C3156 0.960 . S
H3143 C3156 0.960 . S
C3144 H3136 0.929 . S
C3144 C3145 1.377 . S
C3144 C3146 1.384 . S
C3145 C3144 1.377 . S
C3145 C3151 1.390 . S
C3146 H3137 0.930 . S
C3146 C3144 1.384 . S
C3146 C3147 1.372 . S
C3147 C3146 1.372 . S
C3147 C3148 1.400 . S
C3147 C3152 1.490 . S
C3148 H3138 0.930 . S
C3148 C3147 1.400 . S
C3148 C3151 1.386 . S
H3149 C3165 0.930 . S
H3150 C3166 0.931 . S
C3151 H3139 0.929 . S
C3151 C3145 1.390 . S
C3151 C3148 1.386 . S
C3152 C3147 1.490 . S
C3152 C3154 1.395 . S
C3152 C3155 1.403 . S
H3153 C3159 0.930 . S
C3154 H3140 0.930 . S
C3154 C3152 1.395 . S
C3154 C3157 1.403 . S
C3155 C3152 1.403 . S
C3155 C3156 1.524 . S
C3155 C3159 1.400 . S
C3156 H3141 0.960 . S
C3156 H3142 0.960 . S
C3156 H3143 0.960 . S
C3156 C3155 1.524 . S
C3157 C3154 1.403 . S
C3157 C3158 1.392 . S
C3157 C3161 1.495 . S
C3158 C3157 1.392 . S
C3158 C3159 1.385 . S
C3158 C3160 1.478 . S
C3159 H3153 0.930 . S
C3159 C3155 1.400 . S
C3159 C3158 1.385 . S
C3160 C3158 1.478 . S
C3160 C3162 1.381 . S
C3160 C3166 1.383 . S
C3161 C3157 1.495 . S
C3161 H3167 0.959 . S
C3161 H3168 0.961 . S
C3161 H3169 0.960 . S
C3162 C3160 1.381 . S
C3162 C3163 1.394 . S
C3162 H3170 0.930 . S
C3163 C3162 1.394 . S
C3163 C3164 1.383 . S
C3163 H3171 0.929 . S
C3164 C3163 1.383 . S
C3164 C3165 1.377 . S
C3165 H3149 0.930 . S
C3165 C3164 1.377 . S
C3165 C3166 1.379 . S
C3166 H3150 0.931 . S
C3166 C3160 1.383 . S
C3166 C3165 1.379 . S
H3167 C3161 0.959 . S
H3168 C3161 0.961 . S
H3169 C3161 0.960 . S
H3170 C3162 0.930 . S
H3171 C3163 0.929 . S
H3172 C3180 0.929 . S
H3173 C3182 0.930 . S
H3174 C3184 0.930 . S
H3175 C3187 0.929 . S
H3176 C3190 0.930 . S
H3177 C3192 0.960 . S
H3178 C3192 0.960 . S
H3179 C3192 0.960 . S
C3180 H3172 0.929 . S
C3180 C3181 1.377 . S
C3180 C3182 1.384 . S
C3181 C3180 1.377 . S
C3181 C3187 1.390 . S
C3182 H3173 0.930 . S
C3182 C3180 1.384 . S
C3182 C3183 1.372 . S
C3183 C3182 1.372 . S
C3183 C3184 1.400 . S
C3183 C3188 1.490 . S
C3184 H3174 0.930 . S
C3184 C3183 1.400 . S
C3184 C3187 1.386 . S
H3185 C3201 0.930 . S
H3186 C3202 0.931 . S
C3187 H3175 0.929 . S
C3187 C3181 1.390 . S
C3187 C3184 1.386 . S
C3188 C3183 1.490 . S
C3188 C3190 1.395 . S
C3188 C3191 1.403 . S
H3189 C3195 0.930 . S
C3190 H3176 0.930 . S
C3190 C3188 1.395 . S
C3190 C3193 1.403 . S
C3191 C3188 1.403 . S
C3191 C3192 1.524 . S
C3191 C3195 1.400 . S
C3192 H3177 0.960 . S
C3192 H3178 0.960 . S
C3192 H3179 0.960 . S
C3192 C3191 1.524 . S
C3193 C3190 1.403 . S
C3193 C3194 1.392 . S
C3193 C3197 1.495 . S
C3194 C3193 1.392 . S
C3194 C3195 1.385 . S
C3194 C3196 1.478 . S
C3195 H3189 0.930 . S
C3195 C3191 1.400 . S
C3195 C3194 1.385 . S
C3196 C3194 1.478 . S
C3196 C3198 1.381 . S
C3196 C3202 1.383 . S
C3197 C3193 1.495 . S
C3197 H3203 0.959 . S
C3197 H3204 0.961 . S
C3197 H3205 0.960 . S
C3198 C3196 1.381 . S
C3198 C3199 1.394 . S
C3198 H3206 0.930 . S
C3199 C3198 1.394 . S
C3199 C3200 1.383 . S
C3199 H3207 0.929 . S
C3200 C3199 1.383 . S
C3200 C3201 1.377 . S
C3201 H3185 0.930 . S
C3201 C3200 1.377 . S
C3201 C3202 1.379 . S
C3202 H3186 0.931 . S
C3202 C3196 1.383 . S
C3202 C3201 1.379 . S
H3203 C3197 0.959 . S
H3204 C3197 0.961 . S
H3205 C3197 0.960 . S
H3206 C3198 0.930 . S
H3207 C3199 0.929 . S
H3208 C3216 0.929 . S
H3209 C3218 0.930 . S
H3210 C3220 0.930 . S
H3211 C3223 0.929 . S
H3212 C3226 0.930 . S
H3213 C3228 0.960 . S
H3214 C3228 0.960 . S
H3215 C3228 0.960 . S
C3216 H3208 0.929 . S
C3216 C3217 1.377 . S
C3216 C3218 1.384 . S
C3217 C3216 1.377 . S
C3217 C3223 1.390 . S
C3218 H3209 0.930 . S
C3218 C3216 1.384 . S
C3218 C3219 1.372 . S
C3219 C3218 1.372 . S
C3219 C3220 1.400 . S
C3219 C3224 1.490 . S
C3220 H3210 0.930 . S
C3220 C3219 1.400 . S
C3220 C3223 1.386 . S
H3221 C3237 0.930 . S
H3222 C3238 0.931 . S
C3223 H3211 0.929 . S
C3223 C3217 1.390 . S
C3223 C3220 1.386 . S
C3224 C3219 1.490 . S
C3224 C3226 1.395 . S
C3224 C3227 1.403 . S
H3225 C3231 0.930 . S
C3226 H3212 0.930 . S
C3226 C3224 1.395 . S
C3226 C3229 1.403 . S
C3227 C3224 1.403 . S
C3227 C3228 1.524 . S
C3227 C3231 1.400 . S
C3228 H3213 0.960 . S
C3228 H3214 0.960 . S
C3228 H3215 0.960 . S
C3228 C3227 1.524 . S
C3229 C3226 1.403 . S
C3229 C3230 1.392 . S
C3229 C3233 1.495 . S
C3230 C3229 1.392 . S
C3230 C3231 1.385 . S
C3230 C3232 1.478 . S
C3231 H3225 0.930 . S
C3231 C3227 1.400 . S
C3231 C3230 1.385 . S
C3232 C3230 1.478 . S
C3232 C3234 1.381 . S
C3232 C3238 1.383 . S
C3233 C3229 1.495 . S
C3233 H3239 0.959 . S
C3233 H3240 0.961 . S
C3233 H3241 0.960 . S
C3234 C3232 1.381 . S
C3234 C3235 1.394 . S
C3234 H3242 0.930 . S
C3235 C3234 1.394 . S
C3235 C3236 1.383 . S
C3235 H3243 0.929 . S
C3236 C3235 1.383 . S
C3236 C3237 1.377 . S
C3237 H3221 0.930 . S
C3237 C3236 1.377 . S
C3237 C3238 1.379 . S
C3238 H3222 0.931 . S
C3238 C3232 1.383 . S
C3238 C3237 1.379 . S
H3239 C3233 0.959 . S
H3240 C3233 0.961 . S
H3241 C3233 0.960 . S
H3242 C3234 0.930 . S
H3243 C3235 0.929 . S
H3244 C3252 0.929 . S
H3245 C3254 0.930 . S
H3246 C3256 0.930 . S
H3247 C3259 0.929 . S
H3248 C3262 0.930 . S
H3249 C3264 0.960 . S
H3250 C3264 0.960 . S
H3251 C3264 0.960 . S
C3252 H3244 0.929 . S
C3252 C3253 1.377 . S
C3252 C3254 1.384 . S
C3253 C3252 1.377 . S
C3253 C3259 1.390 . S
C3254 H3245 0.930 . S
C3254 C3252 1.384 . S
C3254 C3255 1.372 . S
C3255 C3254 1.372 . S
C3255 C3256 1.400 . S
C3255 C3260 1.490 . S
C3256 H3246 0.930 . S
C3256 C3255 1.400 . S
C3256 C3259 1.386 . S
H3257 C3273 0.930 . S
H3258 C3274 0.931 . S
C3259 H3247 0.929 . S
C3259 C3253 1.390 . S
C3259 C3256 1.386 . S
C3260 C3255 1.490 . S
C3260 C3262 1.395 . S
C3260 C3263 1.403 . S
H3261 C3267 0.930 . S
C3262 H3248 0.930 . S
C3262 C3260 1.395 . S
C3262 C3265 1.403 . S
C3263 C3260 1.403 . S
C3263 C3264 1.524 . S
C3263 C3267 1.400 . S
C3264 H3249 0.960 . S
C3264 H3250 0.960 . S
C3264 H3251 0.960 . S
C3264 C3263 1.524 . S
C3265 C3262 1.403 . S
C3265 C3266 1.392 . S
C3265 C3269 1.495 . S
C3266 C3265 1.392 . S
C3266 C3267 1.385 . S
C3266 C3268 1.478 . S
C3267 H3261 0.930 . S
C3267 C3263 1.400 . S
C3267 C3266 1.385 . S
C3268 C3266 1.478 . S
C3268 C3270 1.381 . S
C3268 C3274 1.383 . S
C3269 C3265 1.495 . S
C3269 H3275 0.959 . S
C3269 H3276 0.961 . S
C3269 H3277 0.960 . S
C3270 C3268 1.381 . S
C3270 C3271 1.394 . S
C3270 H3278 0.930 . S
C3271 C3270 1.394 . S
C3271 C3272 1.383 . S
C3271 H3279 0.929 . S
C3272 C3271 1.383 . S
C3272 C3273 1.377 . S
C3273 H3257 0.930 . S
C3273 C3272 1.377 . S
C3273 C3274 1.379 . S
C3274 H3258 0.931 . S
C3274 C3268 1.383 . S
C3274 C3273 1.379 . S
H3275 C3269 0.959 . S
H3276 C3269 0.961 . S
H3277 C3269 0.960 . S
H3278 C3270 0.930 . S
H3279 C3271 0.929 . S
H3280 C3288 0.929 . S
H3281 C3290 0.930 . S
H3282 C3292 0.930 . S
H3283 C3295 0.929 . S
H3284 C3298 0.930 . S
H3285 C3300 0.960 . S
H3286 C3300 0.960 . S
H3287 C3300 0.960 . S
C3288 H3280 0.929 . S
C3288 C3289 1.377 . S
C3288 C3290 1.384 . S
C3289 C3288 1.377 . S
C3289 C3295 1.390 . S
C3290 H3281 0.930 . S
C3290 C3288 1.384 . S
C3290 C3291 1.372 . S
C3291 C3290 1.372 . S
C3291 C3292 1.400 . S
C3291 C3296 1.490 . S
C3292 H3282 0.930 . S
C3292 C3291 1.400 . S
C3292 C3295 1.386 . S
H3293 C3309 0.930 . S
H3294 C3310 0.931 . S
C3295 H3283 0.929 . S
C3295 C3289 1.390 . S
C3295 C3292 1.386 . S
C3296 C3291 1.490 . S
C3296 C3298 1.395 . S
C3296 C3299 1.403 . S
H3297 C3303 0.945 . S
C3298 H3284 0.930 . S
C3298 C3296 1.395 . S
C3298 C3301 1.403 1_554 S
C3299 C3296 1.403 . S
C3299 C3300 1.524 . S
C3299 C3303 1.400 . S
C3300 H3285 0.960 . S
C3300 H3286 0.960 . S
C3300 H3287 0.960 . S
C3300 C3299 1.524 . S
C3301 C3298 1.403 1_556 S
C3301 C3302 1.392 . S
C3301 C3305 1.495 . S
C3302 C3301 1.392 . S
C3302 C3303 1.385 1_556 S
C3302 C3304 1.478 . S
C3303 H3297 0.945 . S
C3303 C3299 1.400 . S
C3303 C3302 1.385 1_554 S
C3304 C3302 1.478 . S
C3304 C3306 1.381 . S
C3304 C3310 1.383 . S
C3305 C3301 1.495 . S
C3305 H3311 0.959 . S
C3305 H3312 0.961 . S
C3305 H3313 0.960 . S
C3306 C3304 1.381 . S
C3306 C3307 1.394 . S
C3306 H3314 0.930 . S
C3307 C3306 1.394 . S
C3307 C3308 1.383 . S
C3307 H3315 0.929 . S
C3308 C3307 1.383 . S
C3308 C3309 1.377 . S
C3309 H3293 0.930 . S
C3309 C3308 1.377 . S
C3309 C3310 1.379 . S
C3310 H3294 0.931 . S
C3310 C3304 1.383 . S
C3310 C3309 1.379 . S
H3311 C3305 0.959 . S
H3312 C3305 0.961 . S
H3313 C3305 0.960 . S
H3314 C3306 0.930 . S
H3315 C3307 0.929 . S
H3316 C3324 0.929 . S
H3317 C3326 0.930 . S
H3318 C3328 0.930 . S
H3319 C3331 0.929 . S
H3320 C3334 0.930 . S
H3321 C3336 0.960 . S
H3322 C3336 0.960 . S
H3323 C3336 0.960 . S
C3324 H3316 0.929 . S
C3324 C3325 1.377 . S
C3324 C3326 1.384 . S
C3325 C3324 1.377 . S
C3325 C3331 1.390 . S
C3326 H3317 0.930 . S
C3326 C3324 1.384 . S
C3326 C3327 1.372 . S
C3327 C3326 1.372 . S
C3327 C3328 1.400 . S
C3327 C3332 1.490 . S
C3328 H3318 0.930 . S
C3328 C3327 1.400 . S
C3328 C3331 1.386 . S
H3329 C3345 0.930 . S
H3330 C3346 0.931 . S
C3331 H3319 0.929 . S
C3331 C3325 1.390 . S
C3331 C3328 1.386 . S
C3332 C3327 1.490 . S
C3332 C3334 1.395 . S
C3332 C3335 1.403 1_455 S
H3333 C3339 0.930 . S
C3334 H3320 0.930 . S
C3334 C3332 1.395 . S
C3334 C3337 1.403 . S
C3335 C3332 1.403 1_655 S
C3335 C3336 1.524 . S
C3335 C3339 1.400 . S
C3336 H3321 0.960 . S
C3336 H3322 0.960 . S
C3336 H3323 0.960 . S
C3336 C3335 1.524 . S
C3337 C3334 1.403 . S
C3337 C3338 1.392 1_455 S
C3337 C3341 1.495 . S
C3338 C3337 1.392 1_655 S
C3338 C3339 1.385 . S
C3338 C3340 1.478 . S
C3339 H3333 0.930 . S
C3339 C3335 1.400 . S
C3339 C3338 1.385 . S
C3340 C3338 1.478 . S
C3340 C3342 1.381 . S
C3340 C3346 1.383 . S
C3341 C3337 1.495 . S
C3341 H3347 0.959 . S
C3341 H3348 0.961 . S
C3341 H3349 0.960 . S
C3342 C3340 1.381 . S
C3342 C3343 1.394 . S
C3342 H3350 0.930 . S
C3343 C3342 1.394 . S
C3343 C3344 1.383 . S
C3343 H3351 0.929 . S
C3344 C3343 1.383 . S
C3344 C3345 1.377 . S
C3345 H3329 0.930 . S
C3345 C3344 1.377 . S
C3345 C3346 1.379 . S
C3346 H3330 0.931 . S
C3346 C3340 1.383 . S
C3346 C3345 1.379 . S
H3347 C3341 0.959 . S
H3348 C3341 0.961 . S
H3349 C3341 0.960 . S
H3350 C3342 0.930 . S
H3351 C3343 0.929 . S
H3352 C3360 0.929 . S
H3353 C3362 0.930 1_655 S
H3354 C3364 0.930 . S
H3355 C3367 0.929 . S
H3356 C3370 0.930 . S
H3357 C3372 1.052 . S
H3358 C3372 0.869 1_554 S
H3359 C3372 0.960 . S
C3360 H3352 0.929 . S
C3360 C3361 1.377 . S
C3360 C3362 1.384 . S
C3361 C3360 1.377 . S
C3361 C3367 1.390 . S
C3362 H3353 0.930 1_455 S
C3362 C3360 1.384 . S
C3362 C3363 1.372 . S
C3363 C3362 1.372 . S
C3363 C3364 1.400 . S
C3363 C3368 1.490 . S
C3364 H3354 0.930 . S
C3364 C3363 1.400 . S
C3364 C3367 1.386 . S
H3365 C3381 0.930 . S
H3366 C3382 0.931 . S
C3367 H3355 0.929 . S
C3367 C3361 1.390 . S
C3367 C3364 1.386 . S
C3368 C3363 1.490 . S
C3368 C3370 1.395 1_455 S
C3368 C3371 1.403 1_554 S
H3369 C3375 0.930 . S
C3370 H3356 0.930 . S
C3370 C3368 1.395 1_655 S
C3370 C3373 1.403 1_554 S
C3371 C3368 1.403 1_556 S
C3371 C3372 1.535 . S
C3371 C3375 1.400 1_455 S
C3372 H3357 1.052 . S
C3372 H3358 0.869 1_556 S
C3372 H3359 0.960 . S
C3372 C3371 1.535 . S
C3373 C3370 1.403 1_556 S
C3373 C3374 1.392 . S
C3373 C3377 1.495 . S
C3374 C3373 1.392 . S
C3374 C3375 1.385 . S
C3374 C3376 1.478 . S
C3375 H3369 0.930 . S
C3375 C3371 1.400 1_655 S
C3375 C3374 1.385 . S
C3376 C3374 1.478 . S
C3376 C3378 1.381 . S
C3376 C3382 1.383 . S
C3377 C3373 1.495 . S
C3377 H3383 0.959 1_556 S
C3377 H3384 0.961 . S
C3377 H3385 0.960 . S
C3378 C3376 1.381 . S
C3378 C3379 1.394 . S
C3378 H3386 0.930 . S
C3379 C3378 1.394 . S
C3379 C3380 1.383 . S
C3379 H3387 0.929 . S
C3380 C3379 1.383 . S
C3380 C3381 1.377 . S
C3381 H3365 0.930 . S
C3381 C3380 1.377 . S
C3381 C3382 1.379 . S
C3382 H3366 0.931 . S
C3382 C3376 1.383 . S
C3382 C3381 1.379 . S
H3383 C3377 0.959 1_554 S
H3384 C3377 0.961 . S
H3385 C3377 0.960 . S
H3386 C3378 0.930 . S
H3387 C3379 0.929 . S
H3388 C3396 0.929 . S
H3389 C3398 0.930 . S
H3390 C3400 0.930 . S
H3391 C3403 0.929 . S
H3392 C3406 0.930 . S
H3393 C3408 0.960 . S
H3394 C3408 0.960 . S
H3395 C3408 0.960 . S
C3396 H3388 0.929 . S
C3396 C3397 1.377 . S
C3396 C3398 1.384 . S
C3397 C3396 1.377 . S
C3397 C3403 1.390 . S
C3398 H3389 0.930 . S
C3398 C3396 1.384 . S
C3398 C3399 1.372 . S
C3399 C3398 1.372 . S
C3399 C3400 1.400 . S
C3399 C3404 1.490 . S
C3400 H3390 0.930 . S
C3400 C3399 1.400 . S
C3400 C3403 1.386 . S
H3401 C3417 0.930 . S
H3402 C3418 0.931 . S
C3403 H3391 0.929 . S
C3403 C3397 1.390 . S
C3403 C3400 1.386 . S
C3404 C3399 1.490 . S
C3404 C3406 1.395 . S
C3404 C3407 1.403 . S
H3405 C3411 0.930 . S
C3406 H3392 0.930 . S
C3406 C3404 1.395 . S
C3406 C3409 1.403 . S
C3407 C3404 1.403 . S
C3407 C3408 1.524 . S
C3407 C3411 1.400 . S
C3408 H3393 0.960 . S
C3408 H3394 0.960 . S
C3408 H3395 0.960 . S
C3408 C3407 1.524 . S
C3409 C3406 1.403 . S
C3409 C3410 1.392 . S
C3409 C3413 1.495 . S
C3410 C3409 1.392 . S
C3410 C3411 1.385 . S
C3410 C3412 1.478 . S
C3411 H3405 0.930 . S
C3411 C3407 1.400 . S
C3411 C3410 1.385 . S
C3412 C3410 1.478 . S
C3412 C3414 1.381 . S
C3412 C3418 1.383 . S
C3413 C3409 1.495 . S
C3413 H3419 0.959 . S
C3413 H3420 0.961 . S
C3413 H3421 0.960 . S
C3414 C3412 1.381 . S
C3414 C3415 1.394 . S
C3414 H3422 0.930 . S
C3415 C3414 1.394 . S
C3415 C3416 1.383 . S
C3415 H3423 0.929 . S
C3416 C3415 1.383 . S
C3416 C3417 1.377 . S
C3417 H3401 0.930 . S
C3417 C3416 1.377 . S
C3417 C3418 1.379 . S
C3418 H3402 0.931 . S
C3418 C3412 1.383 . S
C3418 C3417 1.379 . S
H3419 C3413 0.959 . S
H3420 C3413 0.961 . S
H3421 C3413 0.960 . S
H3422 C3414 0.930 . S
H3423 C3415 0.929 . S
H3424 C3432 0.929 . S
H3425 C3434 0.930 . S
H3426 C3436 0.930 . S
H3427 C3439 0.929 . S
H3428 C3442 0.930 . S
H3429 C3444 0.960 . S
H3430 C3444 0.960 . S
H3431 C3444 0.960 . S
C3432 H3424 0.929 . S
C3432 C3433 1.377 . S
C3432 C3434 1.384 . S
C3433 C3432 1.377 . S
C3433 C3439 1.390 . S
C3434 H3425 0.930 . S
C3434 C3432 1.384 . S
C3434 C3435 1.372 . S
C3435 C3434 1.372 . S
C3435 C3436 1.400 . S
C3435 C3440 1.490 . S
C3436 H3426 0.930 . S
C3436 C3435 1.400 . S
C3436 C3439 1.386 . S
H3437 C3453 0.930 . S
H3438 C3454 0.931 . S
C3439 H3427 0.929 . S
C3439 C3433 1.390 . S
C3439 C3436 1.386 . S
C3440 C3435 1.490 . S
C3440 C3442 1.395 . S
C3440 C3443 1.403 1_545 S
H3441 C3447 0.930 . S
C3442 H3428 0.930 . S
C3442 C3440 1.395 . S
C3442 C3445 1.403 . S
C3443 C3440 1.403 1_565 S
C3443 C3444 1.524 . S
C3443 C3447 1.400 . S
C3444 H3429 0.960 . S
C3444 H3430 0.960 . S
C3444 H3431 0.960 . S
C3444 C3443 1.524 . S
C3445 C3442 1.403 . S
C3445 C3446 1.392 1_545 S
C3445 C3449 1.495 . S
C3446 C3445 1.392 1_565 S
C3446 C3447 1.385 . S
C3446 C3448 1.478 . S
C3447 H3441 0.930 . S
C3447 C3443 1.400 . S
C3447 C3446 1.385 . S
C3448 C3446 1.478 . S
C3448 C3450 1.381 . S
C3448 C3454 1.383 . S
C3449 C3445 1.495 . S
C3449 H3455 0.959 . S
C3449 H3456 0.961 . S
C3449 H3457 0.960 . S
C3450 C3448 1.381 . S
C3450 C3451 1.394 . S
C3450 H3458 0.930 . S
C3451 C3450 1.394 . S
C3451 C3452 1.383 . S
C3451 H3459 0.929 . S
C3452 C3451 1.383 . S
C3452 C3453 1.377 . S
C3453 H3437 0.930 . S
C3453 C3452 1.377 . S
C3453 C3454 1.379 . S
C3454 H3438 0.931 . S
C3454 C3448 1.383 . S
C3454 C3453 1.379 . S
H3455 C3449 0.959 . S
H3456 C3449 0.961 . S
H3457 C3449 0.960 . S
H3458 C3450 0.930 . S
H3459 C3451 0.929 . S
H3460 C3468 0.929 . S
H3461 C3470 0.930 . S
H3462 C3472 0.930 . S
H3463 C3475 0.929 . S
H3464 C3478 0.930 . S
H3465 C3480 0.960 . S
H3466 C3480 0.960 . S
H3467 C3480 0.960 . S
C3468 H3460 0.929 . S
C3468 C3469 1.377 . S
C3468 C3470 1.384 . S
C3469 C3468 1.377 . S
C3469 C3475 1.390 . S
C3470 H3461 0.930 . S
C3470 C3468 1.384 . S
C3470 C3471 1.372 . S
C3471 C3470 1.372 . S
C3471 C3472 1.400 . S
C3471 C3476 1.490 . S
C3472 H3462 0.930 . S
C3472 C3471 1.400 . S
C3472 C3475 1.386 . S
H3473 C3489 0.930 . S
H3474 C3490 0.931 . S
C3475 H3463 0.929 . S
C3475 C3469 1.390 . S
C3475 C3472 1.386 . S
C3476 C3471 1.490 . S
C3476 C3478 1.395 . S
C3476 C3479 1.403 . S
H3477 C3483 0.930 . S
C3478 H3464 0.930 . S
C3478 C3476 1.395 . S
C3478 C3481 1.403 . S
C3479 C3476 1.403 . S
C3479 C3480 1.524 . S
C3479 C3483 1.400 . S
C3480 H3465 0.960 . S
C3480 H3466 0.960 . S
C3480 H3467 0.960 . S
C3480 C3479 1.524 . S
C3481 C3478 1.403 . S
C3481 C3482 1.392 . S
C3481 C3485 1.495 . S
C3482 C3481 1.392 . S
C3482 C3483 1.385 . S
C3482 C3484 1.478 . S
C3483 H3477 0.930 . S
C3483 C3479 1.400 . S
C3483 C3482 1.385 . S
C3484 C3482 1.478 . S
C3484 C3486 1.381 . S
C3484 C3490 1.383 . S
C3485 C3481 1.495 . S
C3485 H3491 0.959 . S
C3485 H3492 0.961 . S
C3485 H3493 0.960 . S
C3486 C3484 1.381 . S
C3486 C3487 1.394 . S
C3486 H3494 0.930 . S
C3487 C3486 1.394 . S
C3487 C3488 1.383 . S
C3487 H3495 0.929 . S
C3488 C3487 1.383 . S
C3488 C3489 1.377 . S
C3489 H3473 0.930 . S
C3489 C3488 1.377 . S
C3489 C3490 1.379 . S
C3490 H3474 0.931 . S
C3490 C3484 1.383 . S
C3490 C3489 1.379 . S
H3491 C3485 0.959 . S
H3492 C3485 0.961 . S
H3493 C3485 0.960 . S
H3494 C3486 0.930 . S
H3495 C3487 0.929 . S
H3496 C3504 0.929 . S
H3497 C3506 0.930 . S
H3498 C3508 0.930 . S
H3499 C3511 0.929 . S
H3500 C3514 0.930 . S
H3501 C3516 0.960 . S
H3502 C3516 0.960 . S
H3503 C3516 0.960 . S
C3504 H3496 0.929 . S
C3504 C3505 1.377 . S
C3504 C3506 1.384 . S
C3505 C3504 1.377 . S
C3505 C3511 1.390 . S
C3506 H3497 0.930 . S
C3506 C3504 1.384 . S
C3506 C3507 1.372 . S
C3507 C3506 1.372 . S
C3507 C3508 1.400 . S
C3507 C3512 1.490 . S
C3508 H3498 0.930 . S
C3508 C3507 1.400 . S
C3508 C3511 1.386 . S
H3509 C3525 0.930 . S
H3510 C3526 0.931 . S
C3511 H3499 0.929 . S
C3511 C3505 1.390 . S
C3511 C3508 1.386 . S
C3512 C3507 1.490 . S
C3512 C3514 1.395 1_545 S
C3512 C3515 1.403 . S
H3513 C3519 0.930 . S
C3514 H3500 0.930 . S
C3514 C3512 1.395 1_565 S
C3514 C3517 1.403 . S
C3515 C3512 1.403 . S
C3515 C3516 1.524 . S
C3515 C3519 1.400 . S
C3516 H3501 0.960 . S
C3516 H3502 0.960 . S
C3516 H3503 0.960 . S
C3516 C3515 1.524 . S
C3517 C3514 1.403 . S
C3517 C3518 1.392 . S
C3517 C3521 1.495 . S
C3518 C3517 1.392 . S
C3518 C3519 1.385 1_565 S
C3518 C3520 1.478 . S
C3519 H3513 0.930 . S
C3519 C3515 1.400 . S
C3519 C3518 1.385 1_545 S
C3520 C3518 1.478 . S
C3520 C3522 1.381 . S
C3520 C3526 1.383 . S
C3521 C3517 1.495 . S
C3521 H3527 0.959 . S
C3521 H3528 0.961 . S
C3521 H3529 0.960 . S
C3522 C3520 1.381 . S
C3522 C3523 1.394 . S
C3522 H3530 0.930 . S
C3523 C3522 1.394 . S
C3523 C3524 1.383 . S
C3523 H3531 0.929 . S
C3524 C3523 1.383 . S
C3524 C3525 1.377 . S
C3525 H3509 0.930 . S
C3525 C3524 1.377 . S
C3525 C3526 1.379 . S
C3526 H3510 0.931 . S
C3526 C3520 1.383 . S
C3526 C3525 1.379 . S
H3527 C3521 0.959 . S
H3528 C3521 0.961 . S
H3529 C3521 0.960 . S
H3530 C3522 0.930 . S
H3531 C3523 0.929 . S
H3532 C3540 0.929 . S
H3533 C3542 0.930 . S
H3534 C3544 0.930 . S
H3535 C3547 0.929 . S
H3536 C3550 0.929 1_554 S
H3537 C3552 0.960 . S
H3538 C3552 0.960 . S
H3539 C3552 0.960 . S
C3540 H3532 0.929 . S
C3540 C3541 1.377 . S
C3540 C3542 1.384 . S
C3541 C3540 1.377 . S
C3541 C3547 1.390 . S
C3542 H3533 0.930 . S
C3542 C3540 1.384 . S
C3542 C3543 1.372 . S
C3543 C3542 1.372 . S
C3543 C3544 1.400 . S
C3543 C3548 1.490 . S
C3544 H3534 0.930 . S
C3544 C3543 1.400 . S
C3544 C3547 1.386 . S
H3545 C3561 0.930 . S
H3546 C3562 0.931 . S
C3547 H3535 0.929 . S
C3547 C3541 1.390 . S
C3547 C3544 1.386 . S
C3548 C3543 1.490 . S
C3548 C3550 1.396 1_554 S
C3548 C3551 1.403 . S
H3549 C3555 0.930 . S
C3550 H3536 0.929 1_556 S
C3550 C3548 1.396 1_556 S
C3550 C3553 1.401 . S
C3551 C3548 1.403 . S
C3551 C3552 1.524 . S
C3551 C3555 1.400 1_554 S
C3552 H3537 0.960 . S
C3552 H3538 0.960 . S
C3552 H3539 0.960 . S
C3552 C3551 1.524 . S
C3553 C3550 1.401 . S
C3553 C3554 1.392 . S
C3553 C3557 1.495 . S
C3554 C3553 1.392 . S
C3554 C3555 1.385 . S
C3554 C3556 1.478 . S
C3555 H3549 0.930 . S
C3555 C3551 1.400 1_556 S
C3555 C3554 1.385 . S
C3556 C3554 1.478 . S
C3556 C3558 1.381 . S
C3556 C3562 1.383 . S
C3557 C3553 1.495 . S
C3557 H3563 0.959 . S
C3557 H3564 0.961 . S
C3557 H3565 0.960 . S
C3558 C3556 1.381 . S
C3558 C3559 1.394 . S
C3558 H3566 0.930 . S
C3559 C3558 1.394 . S
C3559 C3560 1.383 . S
C3559 H3567 0.929 . S
C3560 C3559 1.383 . S
C3560 C3561 1.377 . S
C3561 H3545 0.930 . S
C3561 C3560 1.377 . S
C3561 C3562 1.379 . S
C3562 H3546 0.931 . S
C3562 C3556 1.383 . S
C3562 C3561 1.379 . S
H3563 C3557 0.959 . S
H3564 C3557 0.961 . S
H3565 C3557 0.960 . S
H3566 C3558 0.930 . S
H3567 C3559 0.929 . S
H3568 C3576 0.929 . S
H3569 C3578 0.930 . S
H3570 C3580 0.930 . S
H3571 C3583 0.929 . S
H3572 C3586 0.930 . S
H3573 C3588 0.960 . S
H3574 C3588 0.960 . S
H3575 C3588 0.960 . S
C3576 H3568 0.929 . S
C3576 C3577 1.377 . S
C3576 C3578 1.384 . S
C3577 C3576 1.377 . S
C3577 C3583 1.390 . S
C3578 H3569 0.930 . S
C3578 C3576 1.384 . S
C3578 C3579 1.372 . S
C3579 C3578 1.372 . S
C3579 C3580 1.400 . S
C3579 C3584 1.490 . S
C3580 H3570 0.930 . S
C3580 C3579 1.400 . S
C3580 C3583 1.386 . S
H3581 C3597 0.930 . S
H3582 C3598 0.931 . S
C3583 H3571 0.929 . S
C3583 C3577 1.390 . S
C3583 C3580 1.386 . S
C3584 C3579 1.490 . S
C3584 C3586 1.395 . S
C3584 C3587 1.403 1_545 S
H3585 C3591 0.930 . S
C3586 H3572 0.930 . S
C3586 C3584 1.395 . S
C3586 C3589 1.403 . S
C3587 C3584 1.403 1_565 S
C3587 C3588 1.524 . S
C3587 C3591 1.400 . S
C3588 H3573 0.960 . S
C3588 H3574 0.960 . S
C3588 H3575 0.960 . S
C3588 C3587 1.524 . S
C3589 C3586 1.403 . S
C3589 C3590 1.392 1_545 S
C3589 C3593 1.495 . S
C3590 C3589 1.392 1_565 S
C3590 C3591 1.385 . S
C3590 C3592 1.478 . S
C3591 H3585 0.930 . S
C3591 C3587 1.400 . S
C3591 C3590 1.385 . S
C3592 C3590 1.478 . S
C3592 C3594 1.381 . S
C3592 C3598 1.383 . S
C3593 C3589 1.495 . S
C3593 H3599 0.959 . S
C3593 H3600 0.961 . S
C3593 H3601 0.960 . S
C3594 C3592 1.381 . S
C3594 C3595 1.394 . S
C3594 H3602 0.930 . S
C3595 C3594 1.394 . S
C3595 C3596 1.383 . S
C3595 H3603 0.929 . S
C3596 C3595 1.383 . S
C3596 C3597 1.377 . S
C3597 H3581 0.930 . S
C3597 C3596 1.377 . S
C3597 C3598 1.379 . S
C3598 H3582 0.931 . S
C3598 C3592 1.383 . S
C3598 C3597 1.379 . S
H3599 C3593 0.959 . S
H3600 C3593 0.961 . S
H3601 C3593 0.960 . S
H3602 C3594 0.930 . S
H3603 C3595 0.929 . S
H3604 C3612 0.929 . S
H3605 C3614 0.930 . S
H3606 C3616 0.930 1_565 S
H3607 C3619 0.929 1_565 S
H3608 C3622 0.944 . S
H3609 C3624 0.960 . S
H3610 C3624 0.960 . S
H3611 C3624 0.960 . S
C3612 H3604 0.929 . S
C3612 C3613 1.377 . S
C3612 C3614 1.384 . S
C3613 C3612 1.377 . S
C3613 C3619 1.390 . S
C3614 H3605 0.930 . S
C3614 C3612 1.384 . S
C3614 C3615 1.372 . S
C3615 C3614 1.372 . S
C3615 C3616 1.400 . S
C3615 C3620 1.490 . S
C3616 H3606 0.930 1_545 S
C3616 C3615 1.400 . S
C3616 C3619 1.386 . S
H3617 C3633 0.930 1_565 S
H3618 C3634 0.931 1_565 S
C3619 H3607 0.929 1_545 S
C3619 C3613 1.390 . S
C3619 C3616 1.386 . S
C3620 C3615 1.490 . S
C3620 C3622 1.395 . S
C3620 C3623 1.403 . S
H3621 C3627 0.930 . S
C3622 H3608 0.944 . S
C3622 C3620 1.395 . S
C3622 C3625 1.403 . S
C3623 C3620 1.403 . S
C3623 C3624 1.524 . S
C3623 C3627 1.400 . S
C3624 H3609 0.960 . S
C3624 H3610 0.960 . S
C3624 H3611 0.960 . S
C3624 C3623 1.524 . S
C3625 C3622 1.403 . S
C3625 C3626 1.392 . S
C3625 C3629 1.495 1_545 S
C3626 C3625 1.392 . S
C3626 C3627 1.385 . S
C3626 C3628 1.478 . S
C3627 H3621 0.930 . S
C3627 C3623 1.400 . S
C3627 C3626 1.385 . S
C3628 C3626 1.478 . S
C3628 C3630 1.381 . S
C3628 C3634 1.383 . S
C3629 C3625 1.495 1_565 S
C3629 H3635 0.959 . S
C3629 H3636 0.961 . S
C3629 H3637 0.960 1_565 S
C3630 C3628 1.381 . S
C3630 C3631 1.394 . S
C3630 H3638 0.930 . S
C3631 C3630 1.394 . S
C3631 C3632 1.383 . S
C3631 H3639 0.929 . S
C3632 C3631 1.383 . S
C3632 C3633 1.377 . S
C3633 H3617 0.930 1_545 S
C3633 C3632 1.377 . S
C3633 C3634 1.379 . S
C3634 H3618 0.931 1_545 S
C3634 C3628 1.383 . S
C3634 C3633 1.379 . S
H3635 C3629 0.959 . S
H3636 C3629 0.961 . S
H3637 C3629 0.960 1_545 S
H3638 C3630 0.930 . S
H3639 C3631 0.929 . S
H3640 C3648 0.929 . S
H3641 C3650 0.930 . S
H3642 C3652 0.930 . S
H3643 C3655 0.929 . S
H3644 C3658 0.930 . S
H3645 C3660 0.960 . S
H3646 C3660 0.960 . S
H3647 C3660 0.960 . S
C3648 H3640 0.929 . S
C3648 C3649 1.377 . S
C3648 C3650 1.384 . S
C3649 C3648 1.377 . S
C3649 C3655 1.390 . S
C3650 H3641 0.930 . S
C3650 C3648 1.384 . S
C3650 C3651 1.372 . S
C3651 C3650 1.372 . S
C3651 C3652 1.400 . S
C3651 C3656 1.490 . S
C3652 H3642 0.930 . S
C3652 C3651 1.400 . S
C3652 C3655 1.386 . S
H3653 C3669 0.930 . S
H3654 C3670 0.931 . S
C3655 H3643 0.929 . S
C3655 C3649 1.390 . S
C3655 C3652 1.386 . S
C3656 C3651 1.490 . S
C3656 C3658 1.395 . S
C3656 C3659 1.403 1_545 S
H3657 C3663 0.930 . S
C3658 H3644 0.930 . S
C3658 C3656 1.395 . S
C3658 C3661 1.403 . S
C3659 C3656 1.403 1_565 S
C3659 C3660 1.524 . S
C3659 C3663 1.400 . S
C3660 H3645 0.960 . S
C3660 H3646 0.960 . S
C3660 H3647 0.960 . S
C3660 C3659 1.524 . S
C3661 C3658 1.403 . S
C3661 C3662 1.392 1_545 S
C3661 C3665 1.495 . S
C3662 C3661 1.392 1_565 S
C3662 C3663 1.385 . S
C3662 C3664 1.478 . S
C3663 H3657 0.930 . S
C3663 C3659 1.400 . S
C3663 C3662 1.385 . S
C3664 C3662 1.478 . S
C3664 C3666 1.381 . S
C3664 C3670 1.383 . S
C3665 C3661 1.495 . S
C3665 H3671 0.959 . S
C3665 H3672 0.961 . S
C3665 H3673 0.960 . S
C3666 C3664 1.381 . S
C3666 C3667 1.394 . S
C3666 H3674 0.930 . S
C3667 C3666 1.394 . S
C3667 C3668 1.383 . S
C3667 H3675 0.929 . S
C3668 C3667 1.383 . S
C3668 C3669 1.377 . S
C3669 H3653 0.930 . S
C3669 C3668 1.377 . S
C3669 C3670 1.379 . S
C3670 H3654 0.931 . S
C3670 C3664 1.383 . S
C3670 C3669 1.379 . S
H3671 C3665 0.959 . S
H3672 C3665 0.961 . S
H3673 C3665 0.960 . S
H3674 C3666 0.930 . S
H3675 C3667 0.929 . S
H3676 C3684 0.929 . S
H3677 C3686 0.930 . S
H3678 C3688 0.903 1_545 S
H3679 C3691 0.915 1_545 S
H3680 C3694 0.930 . S
H3681 C3696 0.941 1_554 S
H3682 C3696 0.952 1_554 S
H3683 C3696 0.987 . S
C3684 H3676 0.929 . S
C3684 C3685 1.377 . S
C3684 C3686 1.384 . S
C3685 C3684 1.377 . S
C3685 C3691 1.404 . S
C3686 H3677 0.930 . S
C3686 C3684 1.384 . S
C3686 C3687 1.372 . S
C3687 C3686 1.372 . S
C3687 C3688 1.427 . S
C3687 C3692 1.490 . S
C3688 H3678 0.903 1_565 S
C3688 C3687 1.427 . S
C3688 C3691 1.385 . S
H3689 C3705 0.930 1_545 S
H3690 C3706 0.931 1_545 S
C3691 H3679 0.915 1_565 S
C3691 C3685 1.404 . S
C3691 C3688 1.385 . S
C3692 C3687 1.490 . S
C3692 C3694 1.395 . S
C3692 C3695 1.431 1_565 S
H3693 C3699 0.930 1_545 S
C3694 H3680 0.930 . S
C3694 C3692 1.395 . S
C3694 C3697 1.357 1_556 S
C3695 C3692 1.431 1_545 S
C3695 C3696 1.524 . S
C3695 C3699 1.371 1_546 S
C3696 H3681 0.941 1_556 S
C3696 H3682 0.952 1_556 S
C3696 H3683 0.987 . S
C3696 C3695 1.524 . S
C3697 C3694 1.357 1_554 S
C3697 C3698 1.438 . S
C3697 C3701 1.495 . S
C3698 C3697 1.438 . S
C3698 C3699 1.385 . S
C3698 C3700 1.478 . S
C3699 H3693 0.930 1_565 S
C3699 C3695 1.371 1_564 S
C3699 C3698 1.385 . S
C3700 C3698 1.478 . S
C3700 C3702 1.381 . S
C3700 C3706 1.383 . S
C3701 C3697 1.495 . S
C3701 H3707 0.891 1_554 S
C3701 H3708 0.931 1_554 S
C3701 H3709 1.062 . S
C3702 C3700 1.381 . S
C3702 C3703 1.394 . S
C3702 H3710 0.930 . S
C3703 C3702 1.394 . S
C3703 C3704 1.383 . S
C3703 H3711 0.929 . S
C3704 C3703 1.383 . S
C3704 C3705 1.377 . S
C3705 H3689 0.930 1_565 S
C3705 C3704 1.377 . S
C3705 C3706 1.379 . S
C3706 H3690 0.931 1_565 S
C3706 C3700 1.383 . S
C3706 C3705 1.379 . S
H3707 C3701 0.891 1_556 S
H3708 C3701 0.931 1_556 S
H3709 C3701 1.062 . S
H3710 C3702 0.930 . S
H3711 C3703 0.929 . S
H3712 C3720 0.929 . S
H3713 C3722 0.930 . S
H3714 C3724 0.930 . S
H3715 C3727 0.929 . S
H3716 C3730 0.930 . S
H3717 C3732 0.960 . S
H3718 C3732 0.960 . S
H3719 C3732 0.960 . S
C3720 H3712 0.929 . S
C3720 C3721 1.377 . S
C3720 C3722 1.384 . S
C3721 C3720 1.377 . S
C3721 C3727 1.390 . S
C3722 H3713 0.930 . S
C3722 C3720 1.384 . S
C3722 C3723 1.372 . S
C3723 C3722 1.372 . S
C3723 C3724 1.400 . S
C3723 C3728 1.490 . S
C3724 H3714 0.930 . S
C3724 C3723 1.400 . S
C3724 C3727 1.386 . S
H3725 C3741 0.930 . S
H3726 C3742 0.931 . S
C3727 H3715 0.929 . S
C3727 C3721 1.390 . S
C3727 C3724 1.386 . S
C3728 C3723 1.490 . S
C3728 C3730 1.395 . S
C3728 C3731 1.403 . S
H3729 C3735 0.930 . S
C3730 H3716 0.930 . S
C3730 C3728 1.395 . S
C3730 C3733 1.403 . S
C3731 C3728 1.403 . S
C3731 C3732 1.524 . S
C3731 C3735 1.400 . S
C3732 H3717 0.960 . S
C3732 H3718 0.960 . S
C3732 H3719 0.960 . S
C3732 C3731 1.524 . S
C3733 C3730 1.403 . S
C3733 C3734 1.392 . S
C3733 C3737 1.495 . S
C3734 C3733 1.392 . S
C3734 C3735 1.385 . S
C3734 C3736 1.478 . S
C3735 H3729 0.930 . S
C3735 C3731 1.400 . S
C3735 C3734 1.385 . S
C3736 C3734 1.478 . S
C3736 C3738 1.381 . S
C3736 C3742 1.383 . S
C3737 C3733 1.495 . S
C3737 H3743 0.959 . S
C3737 H3744 0.961 . S
C3737 H3745 0.960 . S
C3738 C3736 1.381 . S
C3738 C3739 1.394 . S
C3738 H3746 0.930 . S
C3739 C3738 1.394 . S
C3739 C3740 1.383 . S
C3739 H3747 0.929 . S
C3740 C3739 1.383 . S
C3740 C3741 1.377 . S
C3741 H3725 0.930 . S
C3741 C3740 1.377 . S
C3741 C3742 1.379 . S
C3742 H3726 0.931 . S
C3742 C3736 1.383 . S
C3742 C3741 1.379 . S
H3743 C3737 0.959 . S
H3744 C3737 0.961 . S
H3745 C3737 0.960 . S
H3746 C3738 0.930 . S
H3747 C3739 0.929 . S
H3748 C3756 0.929 . S
H3749 C3758 0.930 . S
H3750 C3760 0.930 . S
H3751 C3763 0.929 . S
H3752 C3766 0.930 . S
H3753 C3768 0.960 . S
H3754 C3768 0.960 . S
H3755 C3768 0.960 . S
C3756 H3748 0.929 . S
C3756 C3757 1.377 . S
C3756 C3758 1.384 . S
C3757 C3756 1.377 . S
C3757 C3763 1.390 . S
C3758 H3749 0.930 . S
C3758 C3756 1.384 . S
C3758 C3759 1.372 . S
C3759 C3758 1.372 . S
C3759 C3760 1.400 . S
C3759 C3764 1.490 . S
C3760 H3750 0.930 . S
C3760 C3759 1.400 . S
C3760 C3763 1.386 . S
H3761 C3777 0.930 . S
H3762 C3778 0.931 . S
C3763 H3751 0.929 . S
C3763 C3757 1.390 . S
C3763 C3760 1.386 . S
C3764 C3759 1.490 . S
C3764 C3766 1.395 1_556 S
C3764 C3767 1.403 . S
H3765 C3771 0.930 . S
C3766 H3752 0.930 . S
C3766 C3764 1.395 1_554 S
C3766 C3769 1.403 . S
C3767 C3764 1.403 . S
C3767 C3768 1.524 . S
C3767 C3771 1.321 1_556 S
C3768 H3753 0.960 . S
C3768 H3754 0.960 . S
C3768 H3755 0.960 . S
C3768 C3767 1.524 . S
C3769 C3766 1.403 . S
C3769 C3770 1.392 . S
C3769 C3773 1.495 . S
C3770 C3769 1.392 . S
C3770 C3771 1.466 . S
C3770 C3772 1.478 . S
C3771 H3765 0.930 . S
C3771 C3767 1.321 1_554 S
C3771 C3770 1.466 . S
C3772 C3770 1.478 . S
C3772 C3774 1.381 . S
C3772 C3778 1.383 . S
C3773 C3769 1.495 . S
C3773 H3779 0.959 . S
C3773 H3780 0.961 . S
C3773 H3781 0.960 . S
C3774 C3772 1.381 . S
C3774 C3775 1.394 . S
C3774 H3782 0.930 . S
C3775 C3774 1.394 . S
C3775 C3776 1.383 . S
C3775 H3783 0.929 . S
C3776 C3775 1.383 . S
C3776 C3777 1.377 . S
C3777 H3761 0.930 . S
C3777 C3776 1.377 . S
C3777 C3778 1.379 . S
C3778 H3762 0.931 . S
C3778 C3772 1.383 . S
C3778 C3777 1.379 . S
H3779 C3773 0.959 . S
H3780 C3773 0.961 . S
H3781 C3773 0.960 . S
H3782 C3774 0.930 . S
H3783 C3775 0.929 . S
H3784 C3792 0.929 . S
H3785 C3794 0.930 . S
H3786 C3796 0.930 . S
H3787 C3799 0.929 . S
H3788 C3802 0.930 . S
H3789 C3804 0.960 . S
H3790 C3804 0.960 . S
H3791 C3804 0.960 . S
C3792 H3784 0.929 . S
C3792 C3793 1.377 . S
C3792 C3794 1.384 . S
C3793 C3792 1.377 . S
C3793 C3799 1.390 . S
C3794 H3785 0.930 . S
C3794 C3792 1.384 . S
C3794 C3795 1.372 . S
C3795 C3794 1.372 . S
C3795 C3796 1.400 . S
C3795 C3800 1.490 . S
C3796 H3786 0.930 . S
C3796 C3795 1.400 . S
C3796 C3799 1.386 . S
H3797 C3813 0.930 . S
H3798 C3814 0.931 . S
C3799 H3787 0.929 . S
C3799 C3793 1.390 . S
C3799 C3796 1.386 . S
C3800 C3795 1.490 . S
C3800 C3802 1.395 . S
C3800 C3803 1.403 . S
H3801 C3807 0.930 . S
C3802 H3788 0.930 . S
C3802 C3800 1.395 . S
C3802 C3805 1.403 . S
C3803 C3800 1.403 . S
C3803 C3804 1.524 . S
C3803 C3807 1.400 . S
C3804 H3789 0.960 . S
C3804 H3790 0.960 . S
C3804 H3791 0.960 . S
C3804 C3803 1.524 . S
C3805 C3802 1.403 . S
C3805 C3806 1.392 . S
C3805 C3809 1.495 . S
C3806 C3805 1.392 . S
C3806 C3807 1.385 . S
C3806 C3808 1.478 . S
C3807 H3801 0.930 . S
C3807 C3803 1.400 . S
C3807 C3806 1.385 . S
C3808 C3806 1.478 . S
C3808 C3810 1.381 . S
C3808 C3814 1.383 . S
C3809 C3805 1.495 . S
C3809 H3815 0.959 . S
C3809 H3816 0.961 . S
C3809 H3817 0.960 . S
C3810 C3808 1.381 . S
C3810 C3811 1.394 . S
C3810 H3818 0.930 . S
C3811 C3810 1.394 . S
C3811 C3812 1.383 . S
C3811 H3819 0.929 . S
C3812 C3811 1.383 . S
C3812 C3813 1.377 . S
C3813 H3797 0.930 . S
C3813 C3812 1.377 . S
C3813 C3814 1.379 . S
C3814 H3798 0.931 . S
C3814 C3808 1.383 . S
C3814 C3813 1.379 . S
H3815 C3809 0.959 . S
H3816 C3809 0.961 . S
H3817 C3809 0.960 . S
H3818 C3810 0.930 . S
H3819 C3811 0.929 . S
H3820 C3828 0.929 . S
H3821 C3830 0.930 . S
H3822 C3832 0.930 . S
H3823 C3835 0.929 . S
H3824 C3838 0.930 . S
H3825 C3840 0.960 . S
H3826 C3840 0.960 . S
H3827 C3840 0.960 . S
C3828 H3820 0.929 . S
C3828 C3829 1.377 . S
C3828 C3830 1.384 . S
C3829 C3828 1.377 . S
C3829 C3835 1.390 . S
C3830 H3821 0.930 . S
C3830 C3828 1.384 . S
C3830 C3831 1.372 . S
C3831 C3830 1.372 . S
C3831 C3832 1.400 . S
C3831 C3836 1.490 . S
C3832 H3822 0.930 . S
C3832 C3831 1.400 . S
C3832 C3835 1.386 . S
H3833 C3849 0.930 . S
H3834 C3850 0.931 . S
C3835 H3823 0.929 . S
C3835 C3829 1.390 . S
C3835 C3832 1.386 . S
C3836 C3831 1.490 . S
C3836 C3838 1.395 . S
C3836 C3839 1.403 . S
H3837 C3843 0.930 . S
C3838 H3824 0.930 . S
C3838 C3836 1.395 . S
C3838 C3841 1.403 . S
C3839 C3836 1.403 . S
C3839 C3840 1.524 . S
C3839 C3843 1.400 . S
C3840 H3825 0.960 . S
C3840 H3826 0.960 . S
C3840 H3827 0.960 . S
C3840 C3839 1.524 . S
C3841 C3838 1.403 . S
C3841 C3842 1.392 . S
C3841 C3845 1.495 . S
C3842 C3841 1.392 . S
C3842 C3843 1.385 . S
C3842 C3844 1.478 . S
C3843 H3837 0.930 . S
C3843 C3839 1.400 . S
C3843 C3842 1.385 . S
C3844 C3842 1.478 . S
C3844 C3846 1.381 . S
C3844 C3850 1.383 . S
C3845 C3841 1.495 . S
C3845 H3851 0.959 . S
C3845 H3852 0.961 . S
C3845 H3853 0.960 . S
C3846 C3844 1.381 . S
C3846 C3847 1.394 . S
C3846 H3854 0.930 . S
C3847 C3846 1.394 . S
C3847 C3848 1.383 . S
C3847 H3855 0.929 . S
C3848 C3847 1.383 . S
C3848 C3849 1.377 . S
C3849 H3833 0.930 . S
C3849 C3848 1.377 . S
C3849 C3850 1.379 . S
C3850 H3834 0.931 . S
C3850 C3844 1.383 . S
C3850 C3849 1.379 . S
H3851 C3845 0.959 . S
H3852 C3845 0.961 . S
H3853 C3845 0.960 . S
H3854 C3846 0.930 . S
H3855 C3847 0.929 . S
H3856 C3864 0.929 . S
H3857 C3866 0.930 . S
H3858 C3868 0.930 . S
H3859 C3871 0.929 . S
H3860 C3874 0.930 . S
H3861 C3876 0.960 . S
H3862 C3876 0.960 . S
H3863 C3876 0.960 . S
C3864 H3856 0.929 . S
C3864 C3865 1.377 . S
C3864 C3866 1.384 . S
C3865 C3864 1.377 . S
C3865 C3871 1.390 . S
C3866 H3857 0.930 . S
C3866 C3864 1.384 . S
C3866 C3867 1.372 . S
C3867 C3866 1.372 . S
C3867 C3868 1.400 . S
C3867 C3872 1.490 . S
C3868 H3858 0.930 . S
C3868 C3867 1.400 . S
C3868 C3871 1.386 . S
H3869 C3885 0.930 . S
H3870 C3886 0.931 . S
C3871 H3859 0.929 . S
C3871 C3865 1.390 . S
C3871 C3868 1.386 . S
C3872 C3867 1.490 . S
C3872 C3874 1.395 . S
C3872 C3875 1.403 . S
H3873 C3879 0.930 . S
C3874 H3860 0.930 . S
C3874 C3872 1.395 . S
C3874 C3877 1.403 . S
C3875 C3872 1.403 . S
C3875 C3876 1.524 . S
C3875 C3879 1.400 . S
C3876 H3861 0.960 . S
C3876 H3862 0.960 . S
C3876 H3863 0.960 . S
C3876 C3875 1.524 . S
C3877 C3874 1.403 . S
C3877 C3878 1.392 . S
C3877 C3881 1.495 . S
C3878 C3877 1.392 . S
C3878 C3879 1.385 . S
C3878 C3880 1.478 . S
C3879 H3873 0.930 . S
C3879 C3875 1.400 . S
C3879 C3878 1.385 . S
C3880 C3878 1.478 . S
C3880 C3882 1.381 . S
C3880 C3886 1.383 . S
C3881 C3877 1.495 . S
C3881 H3887 0.959 . S
C3881 H3888 0.961 . S
C3881 H3889 0.960 . S
C3882 C3880 1.381 . S
C3882 C3883 1.394 . S
C3882 H3890 0.930 . S
C3883 C3882 1.394 . S
C3883 C3884 1.383 . S
C3883 H3891 0.929 . S
C3884 C3883 1.383 . S
C3884 C3885 1.377 . S
C3885 H3869 0.930 . S
C3885 C3884 1.377 . S
C3885 C3886 1.379 . S
C3886 H3870 0.931 . S
C3886 C3880 1.383 . S
C3886 C3885 1.379 . S
H3887 C3881 0.959 . S
H3888 C3881 0.961 . S
H3889 C3881 0.960 . S
H3890 C3882 0.930 . S
H3891 C3883 0.929 . S
H3892 C3900 0.929 . S
H3893 C3902 0.930 . S
H3894 C3904 0.930 . S
H3895 C3907 0.929 . S
H3896 C3910 0.930 . S
H3897 C3912 0.960 . S
H3898 C3912 0.960 . S
H3899 C3912 0.934 1_556 S
C3900 H3892 0.929 . S
C3900 C3901 1.377 . S
C3900 C3902 1.384 . S
C3901 C3900 1.377 . S
C3901 C3907 1.390 . S
C3902 H3893 0.930 . S
C3902 C3900 1.384 . S
C3902 C3903 1.372 . S
C3903 C3902 1.372 . S
C3903 C3904 1.400 . S
C3903 C3908 1.490 . S
C3904 H3894 0.930 . S
C3904 C3903 1.400 . S
C3904 C3907 1.386 . S
H3905 C3921 0.930 . S
H3906 C3922 0.931 . S
C3907 H3895 0.929 . S
C3907 C3901 1.390 . S
C3907 C3904 1.386 . S
C3908 C3903 1.490 . S
C3908 C3910 1.395 . S
C3908 C3911 1.403 1_556 S
H3909 C3915 0.930 . S
C3910 H3896 0.930 . S
C3910 C3908 1.395 . S
C3910 C3913 1.403 . S
C3911 C3908 1.403 1_554 S
C3911 C3912 1.524 . S
C3911 C3915 1.400 . S
C3912 H3897 0.960 . S
C3912 H3898 0.960 . S
C3912 H3899 0.934 1_554 S
C3912 C3911 1.524 . S
C3913 C3910 1.403 . S
C3913 C3914 1.392 1_556 S
C3913 C3917 1.495 . S
C3914 C3913 1.392 1_554 S
C3914 C3915 1.385 . S
C3914 C3916 1.478 . S
C3915 H3909 0.930 . S
C3915 C3911 1.400 . S
C3915 C3914 1.385 . S
C3916 C3914 1.478 . S
C3916 C3918 1.381 . S
C3916 C3922 1.383 . S
C3917 C3913 1.495 . S
C3917 H3923 0.959 . S
C3917 H3924 0.961 . S
C3917 H3925 0.953 1_556 S
C3918 C3916 1.381 . S
C3918 C3919 1.394 . S
C3918 H3926 0.930 . S
C3919 C3918 1.394 . S
C3919 C3920 1.383 . S
C3919 H3927 0.929 . S
C3920 C3919 1.383 . S
C3920 C3921 1.377 . S
C3921 H3905 0.930 . S
C3921 C3920 1.377 . S
C3921 C3922 1.379 . S
C3922 H3906 0.931 . S
C3922 C3916 1.383 . S
C3922 C3921 1.379 . S
H3923 C3917 0.959 . S
H3924 C3917 0.961 . S
H3925 C3917 0.953 1_554 S
H3926 C3918 0.930 . S
H3927 C3919 0.929 . S
H3928 C3936 0.929 . S
H3929 C3938 0.930 . S
H3930 C3940 0.930 . S
H3931 C3943 0.929 . S
H3932 C3946 0.930 . S
H3933 C3948 0.960 . S
H3934 C3948 0.960 . S
H3935 C3948 0.960 . S
C3936 H3928 0.929 . S
C3936 C3937 1.377 . S
C3936 C3938 1.384 . S
C3937 C3936 1.377 . S
C3937 C3943 1.390 . S
C3938 H3929 0.930 . S
C3938 C3936 1.384 . S
C3938 C3939 1.372 . S
C3939 C3938 1.372 . S
C3939 C3940 1.400 . S
C3939 C3944 1.490 . S
C3940 H3930 0.930 . S
C3940 C3939 1.400 . S
C3940 C3943 1.386 . S
H3941 C3957 0.930 . S
H3942 C3958 0.931 . S
C3943 H3931 0.929 . S
C3943 C3937 1.390 . S
C3943 C3940 1.386 . S
C3944 C3939 1.490 . S
C3944 C3946 1.395 . S
C3944 C3947 1.403 . S
H3945 C3951 0.930 . S
C3946 H3932 0.930 . S
C3946 C3944 1.395 . S
C3946 C3949 1.403 . S
C3947 C3944 1.403 . S
C3947 C3948 1.524 . S
C3947 C3951 1.400 . S
C3948 H3933 0.960 . S
C3948 H3934 0.960 . S
C3948 H3935 0.960 . S
C3948 C3947 1.524 . S
C3949 C3946 1.403 . S
C3949 C3950 1.392 . S
C3949 C3953 1.495 . S
C3950 C3949 1.392 . S
C3950 C3951 1.385 . S
C3950 C3952 1.478 . S
C3951 H3945 0.930 . S
C3951 C3947 1.400 . S
C3951 C3950 1.385 . S
C3952 C3950 1.478 . S
C3952 C3954 1.381 . S
C3952 C3958 1.383 . S
C3953 C3949 1.495 . S
C3953 H3959 0.959 . S
C3953 H3960 0.961 . S
C3953 H3961 0.960 . S
C3954 C3952 1.381 . S
C3954 C3955 1.394 . S
C3954 H3962 0.930 . S
C3955 C3954 1.394 . S
C3955 C3956 1.383 . S
C3955 H3963 0.929 . S
C3956 C3955 1.383 . S
C3956 C3957 1.377 . S
C3957 H3941 0.930 . S
C3957 C3956 1.377 . S
C3957 C3958 1.379 . S
C3958 H3942 0.931 . S
C3958 C3952 1.383 . S
C3958 C3957 1.379 . S
H3959 C3953 0.959 . S
H3960 C3953 0.961 . S
H3961 C3953 0.960 . S
H3962 C3954 0.930 . S
H3963 C3955 0.929 . S
H3964 C3972 0.929 . S
H3965 C3974 0.930 . S
H3966 C3976 0.930 . S
H3967 C3979 0.929 . S
H3968 C3982 0.930 . S
H3969 C3984 0.960 . S
H3970 C3984 0.960 . S
H3971 C3984 0.960 . S
C3972 H3964 0.929 . S
C3972 C3973 1.377 . S
C3972 C3974 1.384 . S
C3973 C3972 1.377 . S
C3973 C3979 1.390 . S
C3974 H3965 0.930 . S
C3974 C3972 1.384 . S
C3974 C3975 1.372 . S
C3975 C3974 1.372 . S
C3975 C3976 1.400 . S
C3975 C3980 1.490 . S
C3976 H3966 0.930 . S
C3976 C3975 1.400 . S
C3976 C3979 1.386 . S
H3977 C3993 0.930 . S
H3978 C3994 0.931 . S
C3979 H3967 0.929 . S
C3979 C3973 1.390 . S
C3979 C3976 1.386 . S
C3980 C3975 1.490 . S
C3980 C3982 1.395 . S
C3980 C3983 1.403 . S
H3981 C3987 0.930 . S
C3982 H3968 0.930 . S
C3982 C3980 1.395 . S
C3982 C3985 1.403 . S
C3983 C3980 1.403 . S
C3983 C3984 1.524 . S
C3983 C3987 1.400 . S
C3984 H3969 0.960 . S
C3984 H3970 0.960 . S
C3984 H3971 0.960 . S
C3984 C3983 1.524 . S
C3985 C3982 1.403 . S
C3985 C3986 1.392 . S
C3985 C3989 1.495 . S
C3986 C3985 1.392 . S
C3986 C3987 1.385 . S
C3986 C3988 1.478 . S
C3987 H3981 0.930 . S
C3987 C3983 1.400 . S
C3987 C3986 1.385 . S
C3988 C3986 1.478 . S
C3988 C3990 1.381 . S
C3988 C3994 1.383 . S
C3989 C3985 1.495 . S
C3989 H3995 0.959 . S
C3989 H3996 0.961 . S
C3989 H3997 0.960 . S
C3990 C3988 1.381 . S
C3990 C3991 1.394 . S
C3990 H3998 0.930 . S
C3991 C3990 1.394 . S
C3991 C3992 1.383 . S
C3991 H3999 0.929 . S
C3992 C3991 1.383 . S
C3992 C3993 1.377 . S
C3993 H3977 0.930 . S
C3993 C3992 1.377 . S
C3993 C3994 1.379 . S
C3994 H3978 0.931 . S
C3994 C3988 1.383 . S
C3994 C3993 1.379 . S
H3995 C3989 0.959 . S
H3996 C3989 0.961 . S
H3997 C3989 0.960 . S
H3998 C3990 0.930 . S
H3999 C3991 0.929 . S
C1705 C1469 1.577 . S
C1724 C29 1.590 . S
C1741 C82 1.205 . S
C1760 C453 1.210 . S
C1777 C1363 1.581 . S
C1796 C135 1.595 . S
C1813 C188 1.203 . S
C1832 C559 1.187 . S
C1849 C241 1.598 . S
C1868 C1575 1.593 . S
C1885 C294 1.201 . S
C1904 C771 1.167 . S
C1921 C347 1.598 . S
C1940 C1681 1.591 . S
C1957 C400 1.203 . S
C1976 C665 1.202 . S
C1993 C1045 1.936 . S
C2012 C462 1.956 . S
C2029 C38 1.379 . S
C2048 C506 1.381 . S
C2065 C939 1.933 . S
C2084 C568 1.953 . S
C2101 C612 1.386 . S
C2120 C144 1.359 . S
C2137 C1151 1.935 . S
C2156 C674 1.959 . S
C2173 C356 1.375 . S
C2192 C718 1.383 . S
C2209 C780 1.959 . S
C2228 C1257 1.939 . S
C2245 C250 1.380 . S
C2264 C824 1.371 . S
C2281 C877 1.594 . S
C2300 C621 1.558 . S
C2317 C930 1.201 . S
C2336 C1301 1.171 . S
C2353 C515 1.581 . S
C2372 C983 1.598 . S
C2389 C1407 1.194 . S
C2408 C1036 1.212 . S
C2425 C727 1.577 . S
C2444 C1089 1.585 . S
C2461 C1619 1.195 . S
C2480 C1142 1.213 . S
C2497 C833 1.575 . S
C2516 C1195 1.585 . S
C2533 C1248 1.200 . S
C2552 C1513 1.169 . S
C2569 C197 1.933 . S
C2588 C1310 1.954 . S
C2605 C1354 1.386 . S
C2624 C886 1.361 . S
C2641 C1416 1.961 . S
C2660 C91 1.917 . S
C2677 C1460 1.386 . S
C2696 C992 1.359 . S
C2713 C1522 1.961 . S
C2732 C303 1.934 . S
C2749 C1566 1.385 . S
C2768 C1204 1.366 . S
C2785 C1628 1.961 . S
C2804 C409 1.939 . S
C2821 C1672 1.383 . S
C2840 C1098 1.386 . S
C2857 C1294 1.544 . S
C2876 C39 1.550 . S
C2893 C92 2.234 . S
C2912 C516 2.207 . S
C2929 C1400 1.550 . S
C2948 C145 1.577 . S
C2965 C198 2.235 . S
C2984 C622 2.220 . S
C3001 C1506 1.550 . S
C3020 C251 1.547 . S
C3037 C304 2.234 . S
C3056 C728 2.197 . S
C3073 C1612 1.553 . S
C3092 C357 1.575 . S
C3109 C410 2.240 . S
C3128 C834 2.220 . S
C3145 C446 1.548 . S
C3164 C887 1.572 . S
C3181 C552 1.551 . S
C3200 C993 1.578 . S
C3217 C658 1.553 . S
C3236 C1099 1.577 . S
C3253 C764 1.548 . S
C3272 C1205 1.542 . S
C3289 C940 2.237 . S
C3308 C1364 2.199 . S
C3325 C1470 2.214 . S
C3344 C1046 2.222 . S
C3361 C1576 2.220 . S
C3380 C1152 2.247 . S
C3397 C1258 2.238 . S
C3416 C1682 2.205 . S
C3433 C22 1.692 . S
C3452 C234 1.689 . S
C3469 C75 1.925 . S
C3488 C287 1.918 . S
C3505 C340 1.690 . S
C3524 C128 1.683 . S
C3541 C181 1.925 . S
C3560 C393 1.921 . S
C3577 C675 2.122 . S
C3596 C463 2.117 . S
C3613 C711 2.000 . S
C3632 C499 2.002 . S
C3649 C569 2.122 . S
C3668 C781 2.119 . S
C3685 C605 2.002 . S
C3704 C817 1.994 . S
C3721 C1082 1.689 . S
C3740 C870 1.684 . S
C3757 C1135 1.923 . S
C3776 C923 1.926 . S
C3793 C976 1.690 . S
C3812 C1188 1.680 . S
C3829 C1241 1.924 . S
C3848 C1029 1.925 . S
C3865 C1523 2.123 . S
C3884 C1311 2.118 . S
C3901 C1347 2.002 . S
C3920 C1559 1.996 . S
C3937 C1629 2.123 . S
C3956 C1417 2.117 . S
C3973 C1453 2.001 . S
C3992 C1665 2.001 . S
