# Generated by pormake.
# Topology fob, (5)-cn, num edge types: 1
# Building blocks:
#     Node 0, Type 0, BuildingBlock: BEQFEK_clean_sbu_0, # of connection points: 5
#     Node 1, Type 0, BuildingBlock: BEQFEK_clean_sbu_0, # of connection points: 5
#     Node 2, Type 0, BuildingBlock: BEQFEK_clean_sbu_0, # of connection points: 5
#     Node 3, Type 0, BuildingBlock: BEQFEK_clean_sbu_0, # of connection points: 5
#     Node 4, Type 0, BuildingBlock: BEQFEK_clean_sbu_0, # of connection points: 5
#     Node 5, Type 0, BuildingBlock: BEQFEK_clean_sbu_0, # of connection points: 5
#     Node 6, Type 0, BuildingBlock: BEQFEK_clean_sbu_0, # of connection points: 5
#     Node 7, Type 0, BuildingBlock: BEQFEK_clean_sbu_0, # of connection points: 5
#     Node 8, Type 0, BuildingBlock: BEQFEK_clean_sbu_0, # of connection points: 5
#     Node 9, Type 0, BuildingBlock: BEQFEK_clean_sbu_0, # of connection points: 5
#     Node 10, Type 0, BuildingBlock: BEQFEK_clean_sbu_0, # of connection points: 5
#     Node 11, Type 0, BuildingBlock: BEQFEK_clean_sbu_0, # of connection points: 5
#     Node 12, Type 0, BuildingBlock: BEQFEK_clean_sbu_0, # of connection points: 5
#     Node 13, Type 0, BuildingBlock: BEQFEK_clean_sbu_0, # of connection points: 5
#     Node 14, Type 0, BuildingBlock: BEQFEK_clean_sbu_0, # of connection points: 5
#     Node 15, Type 0, BuildingBlock: BEQFEK_clean_sbu_0, # of connection points: 5
#     Edge 16, Type (0, 0), BuildingBlock: MIFKUJ_clean_linker_0, # of connection points: 2
#     Edge 17, Type (0, 0), BuildingBlock: MIFKUJ_clean_linker_0, # of connection points: 2
#     Edge 18, Type (0, 0), BuildingBlock: MIFKUJ_clean_linker_0, # of connection points: 2
#     Edge 19, Type (0, 0), BuildingBlock: MIFKUJ_clean_linker_0, # of connection points: 2
#     Edge 20, Type (0, 0), BuildingBlock: MIFKUJ_clean_linker_0, # of connection points: 2
#     Edge 21, Type (0, 0), BuildingBlock: MIFKUJ_clean_linker_0, # of connection points: 2
#     Edge 22, Type (0, 0), BuildingBlock: MIFKUJ_clean_linker_0, # of connection points: 2
#     Edge 23, Type (0, 0), BuildingBlock: MIFKUJ_clean_linker_0, # of connection points: 2
#     Edge 24, Type (0, 0), BuildingBlock: MIFKUJ_clean_linker_0, # of connection points: 2
#     Edge 25, Type (0, 0), BuildingBlock: MIFKUJ_clean_linker_0, # of connection points: 2
#     Edge 26, Type (0, 0), BuildingBlock: MIFKUJ_clean_linker_0, # of connection points: 2
#     Edge 27, Type (0, 0), BuildingBlock: MIFKUJ_clean_linker_0, # of connection points: 2
#     Edge 28, Type (0, 0), BuildingBlock: MIFKUJ_clean_linker_0, # of connection points: 2
#     Edge 29, Type (0, 0), BuildingBlock: MIFKUJ_clean_linker_0, # of connection points: 2
#     Edge 30, Type (0, 0), BuildingBlock: MIFKUJ_clean_linker_0, # of connection points: 2
#     Edge 31, Type (0, 0), BuildingBlock: MIFKUJ_clean_linker_0, # of connection points: 2
#     Edge 32, Type (0, 0), BuildingBlock: MIFKUJ_clean_linker_0, # of connection points: 2
#     Edge 33, Type (0, 0), BuildingBlock: MIFKUJ_clean_linker_0, # of connection points: 2
#     Edge 34, Type (0, 0), BuildingBlock: MIFKUJ_clean_linker_0, # of connection points: 2
#     Edge 35, Type (0, 0), BuildingBlock: MIFKUJ_clean_linker_0, # of connection points: 2
#     Edge 36, Type (0, 0), BuildingBlock: MIFKUJ_clean_linker_0, # of connection points: 2
#     Edge 37, Type (0, 0), BuildingBlock: MIFKUJ_clean_linker_0, # of connection points: 2
#     Edge 38, Type (0, 0), BuildingBlock: MIFKUJ_clean_linker_0, # of connection points: 2
#     Edge 39, Type (0, 0), BuildingBlock: MIFKUJ_clean_linker_0, # of connection points: 2
#     Edge 40, Type (0, 0), BuildingBlock: MIFKUJ_clean_linker_0, # of connection points: 2
#     Edge 41, Type (0, 0), BuildingBlock: MIFKUJ_clean_linker_0, # of connection points: 2
#     Edge 42, Type (0, 0), BuildingBlock: MIFKUJ_clean_linker_0, # of connection points: 2
#     Edge 43, Type (0, 0), BuildingBlock: MIFKUJ_clean_linker_0, # of connection points: 2
#     Edge 44, Type (0, 0), BuildingBlock: MIFKUJ_clean_linker_0, # of connection points: 2
#     Edge 45, Type (0, 0), BuildingBlock: MIFKUJ_clean_linker_0, # of connection points: 2
#     Edge 46, Type (0, 0), BuildingBlock: MIFKUJ_clean_linker_0, # of connection points: 2
#     Edge 47, Type (0, 0), BuildingBlock: MIFKUJ_clean_linker_0, # of connection points: 2
#     Edge 48, Type (0, 0), BuildingBlock: MIFKUJ_clean_linker_0, # of connection points: 2
#     Edge 49, Type (0, 0), BuildingBlock: MIFKUJ_clean_linker_0, # of connection points: 2
#     Edge 50, Type (0, 0), BuildingBlock: MIFKUJ_clean_linker_0, # of connection points: 2
#     Edge 51, Type (0, 0), BuildingBlock: MIFKUJ_clean_linker_0, # of connection points: 2
#     Edge 52, Type (0, 0), BuildingBlock: MIFKUJ_clean_linker_0, # of connection points: 2
#     Edge 53, Type (0, 0), BuildingBlock: MIFKUJ_clean_linker_0, # of connection points: 2
#     Edge 54, Type (0, 0), BuildingBlock: MIFKUJ_clean_linker_0, # of connection points: 2
#     Edge 55, Type (0, 0), BuildingBlock: MIFKUJ_clean_linker_0, # of connection points: 2
# Relax obj value: 0.097
# Max RMSD: 0.164
# Mean RMSD: 0.164
data_MOF--net-fob--node1-BEQFEK_clean_sbu_0--edge1-MIFKUJ_clean_linker_0
_symmetry_space_group_name_H-M    P1
_symmetry_Int_Tables_number       1
_symmetry_cell_setting            triclinic
loop_
_symmetry_equiv_pos_as_xyz
'x, y, z'
_cell_length_a     25.394198
_cell_length_b     91.414499
_cell_length_c     70.439034
_cell_angle_alpha  89.892258
_cell_angle_beta   91.07287
_cell_angle_gamma 89.974459
loop_
_atom_site_label
_atom_site_type_symbol
_atom_site_fract_x
_atom_site_fract_y
_atom_site_fract_z
_atom_type_partial_charge
Co0 Co 0.12698 0.10615 0.46383 0.0
Co1 Co 0.13775 0.14028 0.45738 0.0
C2 C 0.22911 0.11909 0.45316 0.0
O3 O 0.20275 0.1078 0.45786 0.0
O4 O 0.20832 0.13181 0.4528 0.0
C5 C 0.13248 0.07442 0.47255 0.0
O6 O 0.18272 0.07477 0.46845 0.0
C7 C 0.17451 0.17065 0.4649 0.0
C8 C 0.11254 0.18327 0.44972 0.0
C9 C 0.15781 0.18486 0.46082 0.0
N10 N 0.14014 0.16122 0.45678 0.0
N11 N 0.10342 0.16887 0.44766 0.0
C12 C 0.22328 0.16599 0.47553 0.0
H13 H 0.23478 0.15475 0.47147 0.0
H14 H 0.21568 0.166 0.49098 0.0
H15 H 0.25614 0.17365 0.47274 0.0
C16 C 0.08952 0.11662 0.50074 0.0
N17 N 0.10758 0.11927 0.48323 0.0
N18 N 0.10985 0.13349 0.48046 0.0
C19 C 0.09214 0.14035 0.49602 0.0
C20 C 0.07878 0.12989 0.50938 0.0
C21 C 0.0869 0.10169 0.50946 0.0
H22 H 0.12242 0.09534 0.50571 0.0
H23 H 0.0844 0.10219 0.52514 0.0
H24 H 0.05179 0.09588 0.50366 0.0
O25 O 0.08752 0.1102 0.43994 0.0
O26 O 0.09285 0.13421 0.43576 0.0
H27 H 0.05948 0.15945 0.50955 0.0
H28 H 0.12524 0.16154 0.50077 0.0
C29 C 0.08614 0.15658 0.49783 0.0
H30 H 0.07004 0.16121 0.48438 0.0
H31 H 0.07186 0.16426 0.44018 0.0
O32 O 0.10533 0.08608 0.47136 0.0
C33 C 0.07716 0.12167 0.43031 0.0
Co34 Co 0.12143 0.10532 0.75871 0.0
Co35 Co 0.11988 0.13959 0.76325 0.0
C36 C 0.04883 0.11987 0.78577 0.0
O37 O 0.06587 0.10824 0.77793 0.0
O38 O 0.06608 0.13251 0.78122 0.0
C39 C 0.10301 0.07337 0.75438 0.0
O40 O 0.0596 0.07453 0.76412 0.0
C41 C 0.08656 0.17095 0.76303 0.0
C42 C 0.16283 0.18127 0.75644 0.0
C43 C 0.11037 0.18439 0.75956 0.0
N44 N 0.12338 0.16042 0.76165 0.0
N45 N 0.16884 0.16672 0.7579 0.0
C46 C 0.03053 0.16815 0.76815 0.0
H47 H 0.02762 0.15811 0.77688 0.0
H48 H 0.00652 0.16651 0.75501 0.0
H49 H 0.01421 0.17756 0.77605 0.0
C50 C 0.09755 0.11366 0.71884 0.0
N51 N 0.10855 0.11715 0.73704 0.0
N52 N 0.10788 0.13147 0.73887 0.0
C53 C 0.0964 0.13757 0.72186 0.0
C54 C 0.08939 0.12648 0.70863 0.0
C55 C 0.09673 0.09833 0.7114 0.0
H56 H 0.13447 0.09285 0.71521 0.0
H57 H 0.06461 0.09215 0.71826 0.0
H58 H 0.09105 0.098 0.69576 0.0
O59 O 0.18964 0.10985 0.77105 0.0
O60 O 0.18927 0.13393 0.77369 0.0
H61 H 0.12647 0.15941 0.72153 0.0
H62 H 0.07501 0.15612 0.70397 0.0
C63 C 0.0888 0.15363 0.71864 0.0
H64 H 0.05915 0.15778 0.72861 0.0
H65 H 0.20397 0.16102 0.75599 0.0
O66 O 0.13009 0.0847 0.75095 0.0
C67 C 0.21178 0.12167 0.77622 0.0
Co68 Co 0.88311 0.9063 0.52309 0.0
Co69 Co 0.85076 0.87285 0.52089 0.0
C70 C 0.79659 0.89334 0.54683 0.0
O71 O 0.82614 0.90397 0.54197 0.0
O72 O 0.79997 0.8807 0.53926 0.0
C73 C 0.87797 0.93869 0.52065 0.0
O74 O 0.8275 0.93788 0.52428 0.0
C75 C 0.79877 0.84387 0.51331 0.0
C76 C 0.87013 0.83071 0.50818 0.0
C77 C 0.81572 0.82985 0.50847 0.0
N78 N 0.8415 0.85249 0.51552 0.0
N79 N 0.88383 0.84447 0.51261 0.0
C80 C 0.74346 0.84938 0.51442 0.0
H81 H 0.74255 0.86148 0.51312 0.0
H82 H 0.71846 0.84438 0.50308 0.0
H83 H 0.72721 0.84632 0.52839 0.0
C84 C 0.86685 0.90346 0.48162 0.0
N85 N 0.86416 0.898 0.49934 0.0
N86 N 0.85065 0.88411 0.49841 0.0
C87 C 0.84419 0.88031 0.48007 0.0
C88 C 0.85432 0.89241 0.46889 0.0
C89 C 0.88708 0.91841 0.47702 0.0
H90 H 0.92588 0.92007 0.48419 0.0
H91 H 0.85945 0.92671 0.48254 0.0
H92 H 0.89128 0.92004 0.46152 0.0
O93 O 0.94588 0.89655 0.5337 0.0
O94 O 0.92069 0.8734 0.53318 0.0
H95 H 0.86417 0.85774 0.47692 0.0
H96 H 0.82349 0.86495 0.45775 0.0
C97 C 0.83106 0.86522 0.47331 0.0
H98 H 0.79546 0.86128 0.48057 0.0
H99 H 0.92229 0.84847 0.51325 0.0
O100 O 0.90507 0.92703 0.5198 0.0
C101 C 0.95464 0.88313 0.53723 0.0
Co102 Co 0.89661 0.90562 0.21664 0.0
Co103 Co 0.8894 0.87101 0.2152 0.0
C104 C 0.95527 0.88875 0.18793 0.0
O105 O 0.94368 0.90097 0.19553 0.0
O106 O 0.9375 0.87665 0.19429 0.0
C107 C 0.87578 0.93587 0.21048 0.0
O108 O 0.86605 0.93132 0.19308 0.0
C109 C 0.92404 0.83996 0.22043 0.0
C110 C 0.8469 0.8288 0.21937 0.0
C111 C 0.9004 0.82622 0.22158 0.0
N112 N 0.88598 0.85009 0.21783 0.0
N113 N 0.84007 0.84329 0.21719 0.0
C114 C 0.98163 0.84341 0.22071 0.0
H115 H 0.9888 0.85414 0.21384 0.0
H116 H 0.99619 0.84401 0.23562 0.0
H117 H 0.00389 0.83468 0.2134 0.0
C118 C 0.92263 0.89912 0.25637 0.0
N119 N 0.9139 0.89457 0.23848 0.0
N120 N 0.90889 0.88023 0.23836 0.0
C121 C 0.91297 0.87524 0.25635 0.0
C122 C 0.92194 0.88708 0.26831 0.0
C123 C 0.92734 0.91484 0.26202 0.0
H124 H 0.95334 0.92066 0.25203 0.0
H125 H 0.9436 0.91596 0.27668 0.0
H126 H 0.88782 0.92001 0.26123 0.0
O127 O 0.82423 0.9014 0.20825 0.0
O128 O 0.81775 0.87725 0.20765 0.0
H129 H 0.8647 0.85605 0.25406 0.0
H130 H 0.89163 0.85919 0.27761 0.0
C131 C 0.89972 0.85994 0.26222 0.0
H132 H 0.93327 0.85265 0.25904 0.0
H133 H 0.80394 0.84853 0.2153 0.0
O134 O 0.89389 0.92684 0.22271 0.0
C135 C 0.79752 0.88986 0.20535 0.0
Co136 Co 0.13973 0.60741 0.97133 0.0
Co137 Co 0.15667 0.64156 0.96758 0.0
C138 C 0.22973 0.62017 0.9497 0.0
O139 O 0.20369 0.60916 0.95561 0.0
O140 O 0.21674 0.63325 0.95389 0.0
C141 C 0.12376 0.57602 0.96754 0.0
O142 O 0.13499 0.57807 0.94959 0.0
C143 C 0.19941 0.67161 0.97276 0.0
C144 C 0.12661 0.68447 0.96803 0.0
C145 C 0.1796 0.68585 0.97275 0.0
N146 N 0.15958 0.6624 0.96848 0.0
N147 N 0.11645 0.67021 0.96545 0.0
C148 C 0.25377 0.66656 0.97806 0.0
H149 H 0.25367 0.65471 0.98154 0.0
H150 H 0.26944 0.67289 0.99034 0.0
H151 H 0.28002 0.6683 0.96584 0.0
C152 C 0.14033 0.61545 0.0118 0.0
N153 N 0.14518 0.6191 -0.00658 0.0
N154 N 0.15096 0.63337 0.99202 0.0
C155 C 0.14914 0.63929 0.0095 0.0
C156 C 0.14282 0.62811 0.02254 0.0
C157 C 0.1285 0.60031 0.01865 0.0
H158 H 0.09111 0.59652 0.0119 0.0
H159 H 0.1603 0.59278 0.01425 0.0
H160 H 0.12459 0.5998 0.03429 0.0
O161 O 0.07872 0.61349 0.95539 0.0
O162 O 0.09334 0.63727 0.95237 0.0
H163 H 0.12297 0.66129 0.00474 0.0
H164 H 0.14581 0.65773 0.0288 0.0
C165 C 0.15246 0.65532 0.01361 0.0
H166 H 0.19214 0.65933 0.00996 0.0
H167 H 0.07965 0.66575 0.96207 0.0
O168 O 0.12579 0.58681 0.97888 0.0
C169 C 0.06616 0.62595 0.94863 0.0
Co170 Co 0.10297 0.60223 0.27315 0.0
Co171 Co 0.10554 0.63693 0.2741 0.0
C172 C 0.04443 0.61895 0.30228 0.0
O173 O 0.05761 0.60672 0.29504 0.0
O174 O 0.05972 0.63111 0.29534 0.0
C175 C 0.1121 0.57083 0.27917 0.0
O176 O 0.11101 0.57405 0.29733 0.0
C177 C 0.0674 0.66772 0.26916 0.0
C178 C 0.14358 0.67938 0.26887 0.0
C179 C 0.0897 0.68159 0.26752 0.0
N180 N 0.10658 0.65784 0.27121 0.0
N181 N 0.15188 0.66495 0.27106 0.0
C182 C 0.01016 0.66395 0.2699 0.0
H183 H 0.00471 0.65308 0.27663 0.0
H184 H 0.99337 0.6635 0.25527 0.0
H185 H 0.98852 0.67245 0.27784 0.0
C186 C 0.06989 0.60833 0.23377 0.0
N187 N 0.08157 0.61301 0.25143 0.0
N188 N 0.08447 0.62739 0.25139 0.0
C189 C 0.07579 0.6323 0.23355 0.0
C190 C 0.06589 0.62037 0.22188 0.0
C191 C 0.06626 0.59257 0.22822 0.0
H192 H 0.10633 0.58771 0.2285 0.0
H193 H 0.04199 0.58656 0.23859 0.0
H194 H 0.04859 0.59128 0.21379 0.0
O195 O 0.17625 0.60707 0.28017 0.0
O196 O 0.17829 0.63129 0.28094 0.0
H197 H 0.12032 0.65225 0.23484 0.0
H198 H 0.09145 0.64849 0.21179 0.0
C199 C 0.08525 0.64774 0.22731 0.0
H200 H 0.05064 0.65452 0.23084 0.0
H201 H 0.18869 0.65994 0.27241 0.0
O202 O 0.10599 0.58099 0.26698 0.0
C203 C 0.2011 0.61898 0.28279 0.0
Co204 Co 0.87021 0.40906 0.01906 0.0
Co205 Co 0.84735 0.37509 0.02211 0.0
C206 C 0.78613 0.39666 0.04419 0.0
O207 O 0.81401 0.40724 0.03814 0.0
O208 O 0.79229 0.38356 0.0384 0.0
C209 C 0.88771 0.44014 0.02444 0.0
O210 O 0.87789 0.43746 0.04236 0.0
C211 C 0.8025 0.34496 0.01687 0.0
C212 C 0.87446 0.33193 0.02252 0.0
C213 C 0.82151 0.33067 0.01785 0.0
N214 N 0.84277 0.35417 0.02069 0.0
N215 N 0.88548 0.34624 0.02407 0.0
C216 C 0.74685 0.34979 0.01345 0.0
H217 H 0.74107 0.36108 0.01879 0.0
H218 H 0.73781 0.34971 -0.00201 0.0
H219 H 0.71926 0.34216 0.02044 0.0
C220 C 0.85873 0.40221 0.97859 0.0
N221 N 0.85495 0.39819 -0.00314 0.0
N222 N 0.84764 0.38395 -0.00219 0.0
C223 C 0.84753 0.37841 0.98008 0.0
C224 C 0.85453 0.38983 0.96736 0.0
C225 C 0.869 0.41754 0.97215 0.0
H226 H 0.8422 0.42516 0.9795 0.0
H227 H 0.86291 0.41875 0.95658 0.0
H228 H 0.91015 0.42057 0.97599 0.0
O229 O 0.93597 0.40192 0.03085 0.0
O230 O 0.91538 0.37858 0.03508 0.0
H231 H 0.8772 0.3568 0.9853 0.0
H232 H 0.85975 0.36028 0.96078 0.0
C233 C 0.84863 0.3624 0.97567 0.0
H234 H 0.80911 0.3577 0.97804 0.0
H235 H 0.92245 0.35059 0.0274 0.0
O236 O 0.88426 0.4298 0.01243 0.0
C237 C 0.94702 0.38924 0.03715 0.0
Co238 Co 0.87478 0.40593 0.71577 0.0
Co239 Co 0.88299 0.37167 0.71425 0.0
C240 C 0.93747 0.39075 0.68614 0.0
O241 O 0.92128 0.40244 0.69398 0.0
O242 O 0.92579 0.37814 0.6926 0.0
C243 C 0.89597 0.43778 0.72312 0.0
O244 O 0.94695 0.43565 0.72504 0.0
C245 C 0.92427 0.34112 0.71609 0.0
C246 C 0.85135 0.32956 0.72397 0.0
C247 C 0.90411 0.32735 0.72032 0.0
N248 N 0.88506 0.35096 0.71748 0.0
N249 N 0.84166 0.34392 0.72206 0.0
C250 C 0.97903 0.34485 0.71028 0.0
H251 H 0.97902 0.35493 0.70153 0.0
H252 H 0.00378 0.34687 0.72315 0.0
H253 H 0.99659 0.3357 0.70223 0.0
C254 C 0.90767 0.40018 0.7558 0.0
N255 N 0.89865 0.3958 0.73778 0.0
N256 N 0.90293 0.38145 0.73696 0.0
C257 C 0.91522 0.37629 0.75438 0.0
C258 C 0.91875 0.38795 0.76683 0.0
C259 C 0.89847 0.41541 0.76278 0.0
H260 H 0.86224 0.41997 0.75602 0.0
H261 H 0.93224 0.42238 0.7588 0.0
H262 H 0.89467 0.41575 0.77844 0.0
O263 O 0.80299 0.39975 0.70883 0.0
O264 O 0.80878 0.37566 0.70799 0.0
H265 H 0.88099 0.35502 0.75697 0.0
H266 H 0.93248 0.35878 0.77437 0.0
C267 C 0.91967 0.36041 0.75936 0.0
H268 H 0.94878 0.35515 0.75007 0.0
H269 H 0.80533 0.34897 0.7241 0.0
O270 O 0.86536 0.42707 0.71985 0.0
C271 C 0.78192 0.38731 0.70634 0.0
Co272 Co 0.62517 0.10791 0.96456 0.0
Co273 Co 0.63302 0.14225 0.95976 0.0
C274 C 0.71928 0.12183 0.94728 0.0
O275 O 0.6951 0.11038 0.95278 0.0
O276 O 0.70009 0.1346 0.94965 0.0
C277 C 0.6138 0.07622 0.96175 0.0
O278 O 0.62953 0.07774 0.94419 0.0
C279 C 0.66833 0.17297 0.96633 0.0
C280 C 0.5983 0.18496 0.95558 0.0
C281 C 0.6477 0.18699 0.96382 0.0
N282 N 0.6323 0.16321 0.96005 0.0
N283 N 0.59074 0.1705 0.95358 0.0
C284 C 0.72202 0.16885 0.97365 0.0
H285 H 0.7331 0.15783 0.96854 0.0
H286 H 0.72201 0.16856 0.98939 0.0
H287 H 0.75159 0.17702 0.96912 0.0
C288 C 0.60553 0.11681 0.00396 0.0
N289 N 0.61706 0.12018 0.98591 0.0
N290 N 0.61855 0.1345 0.98402 0.0
C291 C 0.60706 0.1407 0.0008 0.0
C292 C 0.59836 0.12969 0.01392 0.0
C293 C 0.60301 0.10154 0.01161 0.0
H294 H 0.63629 0.09502 0.00615 0.0
H295 H 0.60481 0.10136 0.02735 0.0
H296 H 0.56564 0.0964 0.00669 0.0
O297 O 0.5715 0.11238 0.94475 0.0
O298 O 0.57766 0.13645 0.94139 0.0
H299 H 0.57733 0.16161 0.99189 0.0
H300 H 0.58002 0.15911 0.01731 0.0
C301 C 0.60041 0.15679 0.00385 0.0
H302 H 0.63968 0.16206 0.00438 0.0
H303 H 0.55689 0.16557 0.94793 0.0
O304 O 0.61165 0.08739 0.97241 0.0
C305 C 0.5573 0.12425 0.93669 0.0
Co306 Co 0.62226 0.10156 0.26502 0.0
Co307 Co 0.61948 0.13612 0.2684 0.0
C308 C 0.55672 0.11675 0.29411 0.0
O309 O 0.57321 0.10505 0.28629 0.0
O310 O 0.57083 0.12939 0.28835 0.0
C311 C 0.64157 0.07092 0.27003 0.0
O312 O 0.64931 0.07481 0.28781 0.0
C313 C 0.58275 0.16733 0.26677 0.0
C314 C 0.65921 0.17839 0.26293 0.0
C315 C 0.60582 0.18102 0.26446 0.0
N316 N 0.62099 0.1571 0.26639 0.0
N317 N 0.66648 0.16385 0.26418 0.0
C318 C 0.52593 0.16411 0.27017 0.0
H319 H 0.52128 0.15309 0.27651 0.0
H320 H 0.50361 0.16442 0.2565 0.0
H321 H 0.50899 0.17253 0.27961 0.0
C322 C 0.59303 0.10897 0.2254 0.0
N323 N 0.6034 0.11294 0.24348 0.0
N324 N 0.60246 0.12731 0.24472 0.0
C325 C 0.59156 0.13295 0.22741 0.0
C326 C 0.58517 0.12152 0.21462 0.0
C327 C 0.59597 0.09354 0.21845 0.0
H328 H 0.63548 0.089 0.222 0.0
H329 H 0.56638 0.0868 0.22588 0.0
H330 H 0.58909 0.09275 0.2029 0.0
O331 O 0.69395 0.10648 0.27384 0.0
O332 O 0.69168 0.13061 0.27653 0.0
H333 H 0.62559 0.15434 0.22663 0.0
H334 H 0.57615 0.15117 0.20822 0.0
C335 C 0.58741 0.14897 0.22324 0.0
H336 H 0.55707 0.15382 0.23235 0.0
H337 H 0.7027 0.15851 0.26339 0.0
O338 O 0.62629 0.08051 0.25802 0.0
C339 C 0.71627 0.11853 0.27797 0.0
Co340 Co 0.38411 0.90749 0.02006 0.0
Co341 Co 0.38305 0.87314 0.02483 0.0
C342 C 0.28585 0.89141 0.03003 0.0
O343 O 0.30966 0.90343 0.0267 0.0
O344 O 0.30949 0.87911 0.02918 0.0
C345 C 0.39258 0.93926 0.02316 0.0
O346 O 0.37697 0.93755 0.0407 0.0
C347 C 0.3564 0.84213 0.01824 0.0
C348 C 0.42807 0.83121 0.02957 0.0
C349 C 0.37975 0.82847 0.02083 0.0
N350 N 0.38962 0.85237 0.02509 0.0
N351 N 0.43214 0.84575 0.03199 0.0
C352 C 0.30557 0.84563 0.00815 0.0
H353 H 0.30615 0.85701 0.00264 0.0
H354 H 0.29824 0.83788 -0.00372 0.0
H355 H 0.27287 0.84468 0.01831 0.0
C356 C 0.41785 0.89873 0.98184 0.0
N357 N 0.40588 0.89536 -0.00015 0.0
N358 N 0.40785 0.88107 0.00202 0.0
C359 C 0.42253 0.87493 0.98558 0.0
C360 C 0.42926 0.8859 0.97224 0.0
C361 C 0.411 0.91368 0.9734 0.0
H362 H 0.37543 0.91897 0.97918 0.0
H363 H 0.40691 0.91334 0.9577 0.0
H364 H 0.44583 0.92043 0.97728 0.0
O365 O 0.42751 0.90432 0.0434 0.0
O366 O 0.42444 0.88019 0.04657 0.0
H367 H 0.45018 0.85383 -0.00544 0.0
H368 H 0.44972 0.85653 0.96917 0.0
C369 C 0.42831 0.85882 0.98244 0.0
H370 H 0.38874 0.85375 0.9814 0.0
H371 H 0.46437 0.8512 0.03801 0.0
O372 O 0.39572 0.92816 0.0124 0.0
C373 C 0.43894 0.89269 0.05254 0.0
Co374 Co 0.34227 0.90212 0.71702 0.0
Co375 Co 0.37066 0.86871 0.72098 0.0
C376 C 0.44134 0.8892 0.70073 0.0
O377 O 0.40984 0.89988 0.70342 0.0
O378 O 0.43229 0.87638 0.70718 0.0
C379 C 0.3461 0.93442 0.71675 0.0
O380 O 0.39554 0.9336 0.7117 0.0
C381 C 0.41631 0.83914 0.72861 0.0
C382 C 0.3435 0.82744 0.73631 0.0
C383 C 0.39717 0.82557 0.73425 0.0
N384 N 0.37552 0.84852 0.72745 0.0
N385 N 0.33224 0.84141 0.73198 0.0
C386 C 0.47232 0.84347 0.72559 0.0
H387 H 0.47788 0.85526 0.72879 0.0
H388 H 0.49942 0.83683 0.73467 0.0
H389 H 0.48211 0.84164 0.7105 0.0
C390 C 0.34444 0.89969 0.75882 0.0
N391 N 0.34752 0.89374 0.74142 0.0
N392 N 0.35962 0.8798 0.7431 0.0
C393 C 0.3649 0.87644 0.76165 0.0
C394 C 0.35507 0.8889 0.77216 0.0
C395 C 0.33243 0.91545 0.76249 0.0
H396 H 0.29528 0.9185 0.75495 0.0
H397 H 0.36447 0.92233 0.75677 0.0
H398 H 0.32837 0.91768 0.77787 0.0
O399 O 0.28643 0.89275 0.70176 0.0
O400 O 0.30907 0.86942 0.70367 0.0
H401 H 0.35289 0.85376 0.76752 0.0
H402 H 0.39678 0.86269 0.78425 0.0
C403 C 0.38457 0.86204 0.76907 0.0
H404 H 0.41869 0.85841 0.7607 0.0
H405 H 0.29492 0.84618 0.73228 0.0
O406 O 0.31998 0.92277 0.71933 0.0
C407 C 0.27892 0.87945 0.69734 0.0
Co408 Co 0.60605 0.60875 0.46744 0.0
Co409 Co 0.60361 0.64309 0.46163 0.0
C410 C 0.70277 0.62502 0.45723 0.0
O411 O 0.68045 0.61298 0.46158 0.0
O412 O 0.67756 0.63713 0.45701 0.0
C413 C 0.60881 0.57662 0.46653 0.0
O414 O 0.63815 0.57786 0.45145 0.0
C415 C 0.63038 0.6743 0.4675 0.0
C416 C 0.5557 0.68493 0.45861 0.0
C417 C 0.60562 0.68782 0.4659 0.0
N418 N 0.59642 0.66392 0.4615 0.0
N419 N 0.55211 0.67039 0.45602 0.0
C420 C 0.68352 0.67109 0.47603 0.0
H421 H 0.68456 0.65984 0.482 0.0
H422 H 0.69369 0.67913 0.4873 0.0
H423 H 0.71342 0.67183 0.46479 0.0
C424 C 0.57084 0.61764 0.50512 0.0
N425 N 0.58243 0.62097 0.48708 0.0
N426 N 0.58001 0.63523 0.48476 0.0
C427 C 0.56588 0.64143 0.50125 0.0
C428 C 0.55959 0.63048 0.51468 0.0
C429 C 0.5783 0.6027 0.51357 0.0
H430 H 0.61497 0.59774 0.50819 0.0
H431 H 0.58079 0.60297 0.52928 0.0
H432 H 0.54466 0.59568 0.50913 0.0
O433 O 0.56522 0.61168 0.44369 0.0
O434 O 0.5612 0.63578 0.44 0.0
H435 H 0.54228 0.65997 0.51817 0.0
H436 H 0.60057 0.66261 0.50427 0.0
C437 C 0.56091 0.65755 0.5044 0.0
H438 H 0.53666 0.66247 0.49282 0.0
H439 H 0.51886 0.66481 0.45095 0.0
O440 O 0.59377 0.58809 0.47504 0.0
C441 C 0.5505 0.6229 0.4343 0.0
Co442 Co 0.63501 0.60302 0.76842 0.0
Co443 Co 0.62636 0.63731 0.76755 0.0
C444 C 0.54427 0.61853 0.78573 0.0
O445 O 0.56748 0.60671 0.7811 0.0
O446 O 0.5627 0.63107 0.78135 0.0
C447 C 0.6209 0.57125 0.76099 0.0
O448 O 0.57104 0.57339 0.7565 0.0
C449 C 0.58919 0.66783 0.76159 0.0
C450 C 0.66513 0.6787 0.75598 0.0
C451 C 0.61156 0.68126 0.75711 0.0
N452 N 0.628 0.65784 0.76292 0.0
N453 N 0.67322 0.66445 0.7597 0.0
C454 C 0.53197 0.6642 0.76305 0.0
H455 H 0.52493 0.6526 0.75914 0.0
H456 H 0.50775 0.67144 0.75372 0.0
H457 H 0.51971 0.66576 0.77795 0.0
C458 C 0.63901 0.6077 0.72679 0.0
N459 N 0.63725 0.61269 0.74475 0.0
N460 N 0.6321 0.62702 0.7444 0.0
C461 C 0.62956 0.63158 0.72622 0.0
C462 C 0.63409 0.6195 0.71451 0.0
C463 C 0.64507 0.59196 0.72148 0.0
H464 H 0.67575 0.58677 0.73065 0.0
H465 H 0.60723 0.58621 0.72368 0.0
H466 H 0.65618 0.59077 0.7064 0.0
O467 O 0.6915 0.60962 0.78563 0.0
O468 O 0.6877 0.63378 0.7844 0.0
H469 H 0.65154 0.65402 0.7233 0.0
H470 H 0.6066 0.64772 0.70494 0.0
C471 C 0.61699 0.64694 0.72026 0.0
H472 H 0.58329 0.65103 0.72847 0.0
H473 H 0.70964 0.65915 0.75973 0.0
O474 O 0.64982 0.58199 0.76579 0.0
C475 C 0.70851 0.62208 0.79073 0.0
Co476 Co 0.38602 0.4054 0.52006 0.0
Co477 Co 0.37124 0.371 0.52312 0.0
C478 C 0.2844 0.39243 0.53201 0.0
O479 O 0.3119 0.40374 0.52829 0.0
O480 O 0.30292 0.37953 0.53034 0.0
C481 C 0.38915 0.43752 0.52107 0.0
O482 O 0.35489 0.43666 0.53477 0.0
C483 C 0.33005 0.34074 0.51644 0.0
C484 C 0.3993 0.32784 0.52598 0.0
C485 C 0.34865 0.32649 0.51859 0.0
N486 N 0.36838 0.35003 0.52214 0.0
N487 N 0.40948 0.3422 0.52786 0.0
C488 C 0.27596 0.34538 0.51012 0.0
H489 H 0.26757 0.35668 0.51476 0.0
H490 H 0.2729 0.34508 0.49442 0.0
H491 H 0.24603 0.33778 0.51583 0.0
C492 C 0.40445 0.39703 0.48043 0.0
N493 N 0.39754 0.39336 0.49871 0.0
N494 N 0.39343 0.37904 0.50001 0.0
C495 C 0.39892 0.37315 0.48266 0.0
C496 C 0.40552 0.38436 0.46969 0.0
C497 C 0.40513 0.41244 0.47321 0.0
H498 H 0.43957 0.41822 0.47954 0.0
H499 H 0.36901 0.4182 0.47775 0.0
H500 H 0.40781 0.41288 0.45751 0.0
O501 O 0.43164 0.39977 0.54197 0.0
O502 O 0.42166 0.37569 0.54351 0.0
H503 H 0.41326 0.35046 0.48848 0.0
H504 H 0.40345 0.35461 0.46362 0.0
C505 C 0.39076 0.35731 0.47818 0.0
H506 H 0.34838 0.35468 0.4793 0.0
H507 H 0.4447 0.34668 0.53302 0.0
O508 O 0.40531 0.42585 0.5133 0.0
C509 C 0.44177 0.38749 0.54976 0.0
Co510 Co 0.3634 0.4031 0.2226 0.0
Co511 Co 0.39215 0.3697 0.21558 0.0
C512 C 0.46801 0.3935 0.20706 0.0
O513 O 0.43501 0.40334 0.21175 0.0
O514 O 0.45795 0.37988 0.20878 0.0
C515 C 0.3412 0.43409 0.22078 0.0
O516 O 0.35747 0.43284 0.20325 0.0
C517 C 0.43633 0.33936 0.21938 0.0
C518 C 0.36684 0.3267 0.20967 0.0
C519 C 0.41767 0.32509 0.21687 0.0
N520 N 0.39768 0.34877 0.21423 0.0
N521 N 0.35662 0.34107 0.20826 0.0
C522 C 0.49021 0.34408 0.22576 0.0
H523 H 0.49878 0.35525 0.22051 0.0
H524 H 0.49238 0.34429 0.24149 0.0
H525 H 0.5204 0.33634 0.22057 0.0
C526 C 0.34562 0.39148 0.26085 0.0
N527 N 0.3586 0.3895 0.24262 0.0
N528 N 0.36877 0.37556 0.23975 0.0
C529 C 0.36173 0.36818 0.25609 0.0
C530 C 0.34691 0.37802 0.26995 0.0
C531 C 0.33687 0.40619 0.26958 0.0
H532 H 0.29839 0.41057 0.26447 0.0
H533 H 0.36811 0.41383 0.26501 0.0
H534 H 0.33726 0.4057 0.2853 0.0
O535 O 0.31441 0.39785 0.20179 0.0
O536 O 0.34027 0.37512 0.19569 0.0
H537 H 0.34651 0.34629 0.24673 0.0
H538 H 0.3526 0.34811 0.27212 0.0
C539 C 0.36803 0.35199 0.25836 0.0
H540 H 0.41032 0.34913 0.25761 0.0
H541 H 0.32101 0.34566 0.20361 0.0
O542 O 0.34203 0.4229 0.23151 0.0
C543 C 0.31197 0.38626 0.19186 0.0
H544 H 0.21126 0.1918 0.49418 0.0
H545 H 0.24377 0.21574 0.50403 0.0
H546 H 0.18262 0.23464 0.45196 0.0
H547 H 0.15268 0.21055 0.44152 0.0
H548 H 0.27516 0.24586 0.45984 0.0
H549 H 0.11762 0.23753 0.49491 0.0
H550 H 0.05894 0.22399 0.51621 0.0
H551 H 0.17486 0.22675 0.56122 0.0
H552 H 0.23457 0.24013 0.5401 0.0
H553 H 0.28429 0.32007 0.48788 0.0
H554 H 0.24888 0.29616 0.47891 0.0
H555 H 0.32296 0.27687 0.52855 0.0
H556 H 0.35734 0.30086 0.53788 0.0
H557 H 0.2234 0.26602 0.52213 0.0
H558 H 0.38074 0.27432 0.48645 0.0
H559 H 0.43808 0.28811 0.46494 0.0
H560 H 0.3197 0.28569 0.42072 0.0
H561 H 0.26133 0.27206 0.44208 0.0
C562 C 0.20616 0.2009 0.48452 0.0
C563 C 0.18034 0.19914 0.46684 0.0
C564 C 0.22388 0.21469 0.49036 0.0
C565 C 0.21509 0.22706 0.47885 0.0
C566 C 0.18991 0.22529 0.4611 0.0
C567 C 0.17261 0.2115 0.45519 0.0
C568 C 0.23155 0.24188 0.48529 0.0
C569 C 0.26321 0.25032 0.47335 0.0
C570 C 0.2168 0.24765 0.50308 0.0
C571 C 0.18078 0.23971 0.51586 0.0
C572 C 0.13075 0.23516 0.50931 0.0
C573 C 0.09728 0.22753 0.52136 0.0
C574 C 0.11322 0.22447 0.54004 0.0
C575 C 0.1626 0.2291 0.54674 0.0
C576 C 0.19625 0.23672 0.53474 0.0
C577 C 0.2917 0.31086 0.49721 0.0
C578 C 0.32289 0.31241 0.51378 0.0
C579 C 0.27206 0.29714 0.49191 0.0
C580 C 0.28365 0.28472 0.50298 0.0
C581 C 0.31349 0.28631 0.51981 0.0
C582 C 0.33325 0.30001 0.52507 0.0
C583 C 0.26672 0.26995 0.49665 0.0
C584 C 0.23512 0.26153 0.50861 0.0
C585 C 0.28123 0.26422 0.47883 0.0
C586 C 0.31647 0.2723 0.46592 0.0
C587 C 0.36679 0.27682 0.47219 0.0
C588 C 0.3995 0.28459 0.46001 0.0
C589 C 0.38249 0.2878 0.44149 0.0
C590 C 0.33279 0.28321 0.43508 0.0
C591 C 0.2999 0.27545 0.44721 0.0
H592 H 0.40787 0.29382 0.43209 0.0
H593 H 0.08726 0.21855 0.54935 0.0
H594 H 0.83272 0.966 0.5199 0.0
H595 H 0.87545 0.98936 0.51284 0.0
H596 H 0.02331 0.96702 0.50551 0.0
H597 H 0.98125 0.94374 0.51272 0.0
H598 H 0.03708 0.9917 0.52576 0.0
H599 H 0.94928 0.97793 0.46738 0.0
H600 H 0.87349 0.9706 0.44718 0.0
H601 H 0.79375 0.01056 0.46075 0.0
H602 H 0.8688 0.01804 0.48127 0.0
H603 H 0.1767 0.04711 0.47614 0.0
H604 H 0.13306 0.02438 0.48543 0.0
H605 H 0.98694 0.04777 0.49182 0.0
H606 H 0.02992 0.07044 0.48238 0.0
H607 H 0.97111 0.02287 0.47271 0.0
H608 H 0.05967 0.03698 0.53049 0.0
H609 H 0.1354 0.04434 0.5507 0.0
H610 H 0.21364 1.00391 0.53833 0.0
H611 H 0.13864 0.99638 0.51782 0.0
C612 C 0.87435 0.96607 0.51684 0.0
C613 C 0.90346 0.95298 0.51683 0.0
C614 C 0.8987 0.97942 0.51274 0.0
C615 C 0.95253 0.97993 0.50847 0.0
C616 C 0.98178 0.96691 0.50877 0.0
C617 C 0.95754 0.95359 0.51285 0.0
C618 C 0.97847 0.99396 0.50344 0.0
C619 C 0.023 0.99844 0.51403 0.0
C620 C 0.95949 1.00292 0.48839 0.0
C621 C 0.91441 0.99847 0.47602 0.0
C622 C 0.9154 0.9851 0.46618 0.0
C623 C 0.87261 0.98092 0.45465 0.0
C624 C 0.82877 0.99009 0.45272 0.0
C625 C 0.82769 1.00346 0.46228 0.0
C626 C 0.87036 0.00768 0.47386 0.0
C627 C 0.13532 0.04742 0.47957 0.0
C628 C 0.10687 0.06061 0.4785 0.0
C629 C 0.11046 0.03443 0.48495 0.0
C630 C 0.05676 0.03438 0.48947 0.0
C631 C 0.02834 0.04753 0.48838 0.0
C632 C 0.0531 0.0605 0.48302 0.0
C633 C 0.02983 0.02061 0.49499 0.0
C634 C 0.98512 0.01617 0.48448 0.0
C635 C 0.04865 0.0117 0.51012 0.0
C636 C 0.09376 0.01618 0.52247 0.0
C637 C 0.09321 0.02971 0.53196 0.0
C638 C 0.13596 0.0339 0.54349 0.0
C639 C 0.17936 0.02462 0.54576 0.0
C640 C 0.18003 0.0111 0.53653 0.0
C641 C 0.13739 0.00686 0.52497 0.0
H642 H 0.21242 0.02789 0.55469 0.0
H643 H 0.79568 0.98684 0.44379 0.0
H644 H 0.05637 0.04639 0.7581 0.0
H645 H 0.0942 0.02253 0.75027 0.0
H646 H 0.23471 0.04383 0.7306 0.0
H647 H 0.19674 0.06757 0.73774 0.0
H648 H 0.21088 0.02254 0.70772 0.0
H649 H 0.22724 0.02762 0.77557 0.0
H650 H 0.19541 0.03167 0.80801 0.0
H651 H 0.09525 0.99399 0.80296 0.0
H652 H 0.12603 0.98982 0.77038 0.0
H653 H 0.388 0.96191 0.71239 0.0
H654 H 0.34426 0.98541 0.71772 0.0
H655 H 0.20227 0.96278 0.73316 0.0
H656 H 0.24561 0.93936 0.72815 0.0
H657 H 0.22479 0.98438 0.75773 0.0
H658 H 0.2131 0.97905 0.6897 0.0
H659 H 0.24835 0.97518 0.65771 0.0
H660 H 0.34409 0.01366 0.66373 0.0
H661 H 0.30989 0.01766 0.69587 0.0
C662 C 0.09512 0.04598 0.75197 0.0
C663 C 0.12362 0.05889 0.74869 0.0
C664 C 0.11685 0.03233 0.74759 0.0
C665 C 0.16775 0.03136 0.74014 0.0
C666 C 0.19547 0.04427 0.73636 0.0
C667 C 0.17366 0.05786 0.74053 0.0
C668 C 0.193 0.01696 0.73664 0.0
C669 C 0.21434 0.01426 0.71873 0.0
C670 C 0.19693 0.00604 0.75088 0.0
C671 C 0.17851 0.0085 0.77048 0.0
C672 C 0.19814 0.02026 0.78133 0.0
C673 C 0.18034 0.02257 0.79975 0.0
C674 C 0.14322 0.01312 0.80752 0.0
C675 C 0.12393 1.00132 0.79691 0.0
C676 C 0.14157 0.99897 0.77847 0.0
C677 C 0.34746 0.96194 0.7169 0.0
C678 C 0.3203 0.94875 0.71978 0.0
C679 C 0.32244 0.97538 0.71986 0.0
C680 C 0.2698 0.97584 0.72566 0.0
C681 C 0.24285 0.96269 0.72868 0.0
C682 C 0.26774 0.9493 0.72574 0.0
C683 C 0.24273 0.98999 0.72885 0.0
C684 C 0.22111 0.99265 0.74671 0.0
C685 C 0.23899 1.00091 0.71462 0.0
C686 C 0.25929 0.99858 0.69525 0.0
C687 C 0.24195 0.98663 0.68425 0.0
C688 C 0.26169 0.98442 0.66609 0.0
C689 C 0.29853 0.99415 0.65871 0.0
C690 C 0.31559 0.00613 0.66947 0.0
C691 C 0.296 0.00838 0.68765 0.0
H692 H 0.31378 0.99242 0.64465 0.0
H693 H 0.12949 0.01493 0.82178 0.0
H694 H 0.86279 0.30084 0.71189 0.0
H695 H 0.90069 0.27683 0.7188 0.0
H696 H 0.0426 0.29731 0.7403 0.0
H697 H 0.00455 0.32143 0.73373 0.0
H698 H 0.06166 0.27233 0.71821 0.0
H699 H 0.95718 0.28643 0.77096 0.0
H700 H 0.87761 0.29541 0.78673 0.0
H701 H 0.79008 0.25849 0.76564 0.0
H702 H 0.86898 0.24941 0.74948 0.0
H703 H 0.15707 0.21022 0.76834 0.0
H704 H 0.1238 0.23487 0.76193 0.0
H705 H 0.97879 0.21671 0.73957 0.0
H706 H 0.01223 0.19204 0.74546 0.0
H707 H 0.96354 0.24097 0.76304 0.0
H708 H 0.06784 0.22724 0.70967 0.0
H709 H 0.14752 0.21835 0.69388 0.0
H710 H 0.2358 0.25464 0.71639 0.0
H711 H 0.15677 0.26364 0.73256 0.0
C712 C 0.90237 0.30024 0.71786 0.0
C713 C 0.93087 0.31304 0.72207 0.0
C714 C 0.92388 0.28652 0.72182 0.0
C715 C 0.97415 0.28533 0.73024 0.0
C716 C 0.00376 0.29804 0.73373 0.0
C717 C 0.98214 0.31182 0.72979 0.0
C718 C 0.99435 0.27084 0.73624 0.0
C719 C 0.04071 0.26555 0.72822 0.0
C720 C 0.96637 0.26194 0.74907 0.0
C721 C 0.91888 0.26732 0.75886 0.0
C722 C 0.92086 0.28029 0.76955 0.0
C723 C 0.8759 0.28539 0.77859 0.0
C724 C 0.82878 0.27754 0.77716 0.0
C725 C 0.82659 0.26457 0.76672 0.0
C726 C 0.87143 0.25943 0.75763 0.0
C727 C 0.11783 0.21148 0.76226 0.0
C728 C 0.08695 0.19916 0.75774 0.0
C729 C 0.09898 0.22555 0.75857 0.0
C730 C 0.04902 0.22757 0.75018 0.0
C731 C 0.01736 0.21535 0.74618 0.0
C732 C 0.03632 0.20124 0.74977 0.0
C733 C 0.03065 0.24241 0.74491 0.0
C734 C 0.98462 0.24777 0.75308 0.0
C735 C 0.059 0.25138 0.73226 0.0
C736 C 0.10653 0.24602 0.7225 0.0
C737 C 0.10436 0.23326 0.71139 0.0
C738 C 0.14938 0.22821 0.70235 0.0
C739 C 0.19673 0.2359 0.70417 0.0
C740 C 0.19912 0.24868 0.71501 0.0
C741 C 0.15421 0.25376 0.72411 0.0
H742 H 0.23155 0.23198 0.69715 0.0
H743 H 0.79401 0.28151 0.78417 0.0
H744 H 0.8457 0.80863 0.48428 0.0
H745 H 0.80272 0.7855 0.47736 0.0
H746 H 0.67471 0.79724 0.51376 0.0
H747 H 0.71916 0.82031 0.52156 0.0
H748 H 0.70429 0.76996 0.52043 0.0
H749 H 0.65881 0.7967 0.46469 0.0
H750 H 0.67267 0.81259 0.43691 0.0
H751 H 0.77716 0.78073 0.41342 0.0
H752 H 0.76455 0.76473 0.4412 0.0
H753 H 0.55206 0.7092 0.48397 0.0
H754 H 0.58243 0.73396 0.4918 0.0
H755 H 0.73295 0.72443 0.46731 0.0
H756 H 0.70292 0.69959 0.45961 0.0
H757 H 0.68247 0.75137 0.45461 0.0
H758 H 0.73001 0.72554 0.5123 0.0
H759 H 0.71284 0.70991 0.54006 0.0
H760 H 0.59815 0.7407 0.55952 0.0
H761 H 0.61407 0.75641 0.53168 0.0
C762 C 0.8082 0.8064 0.49077 0.0
C763 C 0.78558 0.81649 0.50328 0.0
C764 C 0.7834 0.79317 0.48664 0.0
C765 C 0.73491 0.7897 0.49472 0.0
C766 C 0.71187 0.79975 0.50718 0.0
C767 C 0.73699 0.81304 0.51144 0.0
C768 C 0.71024 0.77526 0.49071 0.0
C769 C 0.69849 0.76603 0.50602 0.0
C770 C 0.70339 0.76999 0.47191 0.0
C771 C 0.71098 0.77955 0.45511 0.0
C772 C 0.68504 0.79312 0.45367 0.0
C773 C 0.69263 0.80214 0.43791 0.0
C774 C 0.72585 0.79768 0.42343 0.0
C775 C 0.75146 0.78417 0.42466 0.0
C776 C 0.74404 0.77511 0.44039 0.0
C777 C 0.59178 0.71237 0.4804 0.0
C778 C 0.62541 0.70245 0.4714 0.0
C779 C 0.60905 0.72648 0.48491 0.0
C780 C 0.65995 0.73097 0.4802 0.0
C781 C 0.69358 0.72112 0.47113 0.0
C782 C 0.6766 0.70691 0.46689 0.0
C783 C 0.67759 0.7461 0.4843 0.0
C784 C 0.68783 0.75542 0.46898 0.0
C785 C 0.68236 0.7515 0.50305 0.0
C786 C 0.67277 0.74206 0.51978 0.0
C787 C 0.70073 0.7289 0.52239 0.0
C788 C 0.69132 0.72005 0.53816 0.0
C789 C 0.6543 0.72428 0.55151 0.0
C790 C 0.62673 0.73741 0.54914 0.0
C791 C 0.63595 0.7463 0.53337 0.0
H792 H 0.64709 0.71742 0.56372 0.0
H793 H 0.73168 0.80468 0.41124 0.0
H794 H 0.85648 0.94519 0.24655 0.0
H795 H 0.81446 0.96807 0.25601 0.0
H796 H 0.81006 0.98244 0.19768 0.0
H797 H 0.85117 0.95942 0.18799 0.0
H798 H 0.84329 1.00441 0.22492 0.0
H799 H 0.70294 0.9708 0.21249 0.0
H800 H 0.65421 0.94756 0.21483 0.0
H801 H 0.6397 0.95368 0.27494 0.0
H802 H 0.68899 0.97689 0.27298 0.0
H803 H 0.65742 0.06182 0.2336 0.0
H804 H 0.6956 0.03864 0.22334 0.0
H805 H 0.70175 0.02355 0.28135 0.0
H806 H 0.66425 0.04683 0.29183 0.0
H807 H 0.66654 1.00189 0.25373 0.0
H808 H 0.80814 0.0359 0.26546 0.0
H809 H 0.85474 0.05939 0.26209 0.0
H810 H 0.86533 0.05253 0.20199 0.0
H811 H 0.81795 0.02909 0.20496 0.0
C812 C 0.8473 0.95329 0.23574 0.0
C813 C 0.8571 0.95048 0.21649 0.0
C814 C 0.82299 0.96632 0.24117 0.0
C815 C 0.80874 0.97686 0.22751 0.0
C816 C 0.82065 0.97441 0.20841 0.0
C817 C 0.84413 0.96126 0.20292 0.0
C818 C 0.77997 0.99024 0.23316 0.0
C819 C 0.80439 1.00388 0.231 0.0
C820 C 0.72951 0.9895 0.24132 0.0
C821 C 0.70022 0.9755 0.24262 0.0
C822 C 0.68987 0.96711 0.22624 0.0
C823 C 0.66202 0.95397 0.22749 0.0
C824 C 0.64402 0.94912 0.24503 0.0
C825 C 0.65376 0.95744 0.26136 0.0
C826 C 0.68161 0.9706 0.26019 0.0
C827 C 0.66614 0.05351 0.24417 0.0
C828 C 0.65805 0.05621 0.26356 0.0
C829 C 0.68813 0.04029 0.23828 0.0
C830 C 0.7019 0.02945 0.25161 0.0
C831 C 0.69143 0.03179 0.27085 0.0
C832 C 0.67011 0.04511 0.27681 0.0
C833 C 0.72997 0.01605 0.24556 0.0
C834 C 0.70543 1.00241 0.24766 0.0
C835 C 0.7802 0.01679 0.23722 0.0
C836 C 0.80897 0.03083 0.2354 0.0
C837 C 0.81996 0.03947 0.2515 0.0
C838 C 0.84659 0.05276 0.24967 0.0
C839 C 0.86285 0.05747 0.23183 0.0
C840 C 0.85263 0.04888 0.2158 0.0
C841 C 0.8259 0.03559 0.21754 0.0
H842 H 0.88349 0.06776 0.23044 0.0
H843 H 0.62239 0.93896 0.24596 0.0
H844 H 0.98515 0.81872 0.24464 0.0
H845 H 0.01703 0.79409 0.25209 0.0
H846 H 0.89889 0.77582 0.21426 0.0
H847 H 0.86676 0.80041 0.20686 0.0
H848 H 0.89986 0.76148 0.24662 0.0
H849 H 0.03157 0.77681 0.20284 0.0
H850 H 0.10002 0.79305 0.19013 0.0
H851 H 0.1923 0.78775 0.24139 0.0
H852 H 0.12404 0.77163 0.25452 0.0
H853 H 0.00326 0.68851 0.24502 0.0
H854 H 0.96967 0.71297 0.23746 0.0
H855 H 0.08755 0.73193 0.27482 0.0
H856 H 0.12149 0.70755 0.28223 0.0
H857 H 0.08622 0.74583 0.24231 0.0
H858 H 0.95387 0.7305 0.28611 0.0
H859 H 0.88527 0.71422 0.29864 0.0
H860 H 0.79409 0.71942 0.24711 0.0
H861 H 0.8625 0.73558 0.23417 0.0
C862 C 0.96693 0.80951 0.2375 0.0
C863 C 0.92402 0.81156 0.22488 0.0
C864 C 0.98496 0.79539 0.24188 0.0
C865 C 0.96068 0.78305 0.23362 0.0
C866 C 0.91825 0.78513 0.22085 0.0
C867 C 0.90006 0.7992 0.21657 0.0
C868 C 0.97808 0.76796 0.23876 0.0
C869 C 0.94052 0.758 0.24543 0.0
C870 C 0.03127 0.76347 0.23762 0.0
C871 C 0.07245 0.77313 0.22973 0.0
C872 C 0.06627 0.7792 0.21146 0.0
C873 C 0.10507 0.78837 0.20417 0.0
C874 C 0.15041 0.79146 0.21497 0.0
C875 C 0.15712 0.78536 0.23306 0.0
C876 C 0.11842 0.7762 0.24042 0.0
C877 C 0.02103 0.69784 0.25203 0.0
C878 C 0.06452 0.69607 0.26446 0.0
C879 C 0.002 0.71186 0.24761 0.0
C880 C 0.02581 0.72435 0.25567 0.0
C881 C 0.06856 0.72252 0.26837 0.0
C882 C 0.08779 0.70856 0.27265 0.0
C883 C 0.00806 0.73936 0.25027 0.0
C884 C 0.04556 0.7493 0.24351 0.0
C885 C 0.9548 0.74382 0.25132 0.0
C886 C 0.91356 0.73414 0.2591 0.0
C887 C 0.91938 0.72809 0.27739 0.0
C888 C 0.8805 0.7189 0.28458 0.0
C889 C 0.83542 0.71576 0.27366 0.0
C890 C 0.82906 0.72184 0.25554 0.0
C891 C 0.86785 0.73103 0.24829 0.0
H892 H 0.80537 0.70864 0.27924 0.0
H893 H 0.1804 0.79856 0.2093 0.0
H894 H 0.2784 0.81789 0.02127 0.0
H895 H 0.24862 0.7933 0.01273 0.0
H896 H 0.40821 0.78105 8e-05 0.0
H897 H 0.43804 0.80576 0.0081 0.0
H898 H 0.338 0.77094 0.97324 0.0
H899 H 0.35604 0.77086 0.04128 0.0
H900 H 0.34081 0.77993 0.07367 0.0
H901 H 0.1745 0.77305 0.06602 0.0
H902 H 0.18868 0.76413 0.03348 0.0
H903 H 0.28369 0.69443 0.96879 0.0
H904 H 0.32248 0.71798 0.97762 0.0
H905 H 0.17089 0.73303 -0.0038 0.0
H906 H 0.13263 0.70937 0.98843 0.0
H907 H 0.24324 0.74119 0.02064 0.0
H908 H 0.22301 0.7427 0.95246 0.0
H909 H 0.23611 0.73412 0.91971 0.0
H910 H 0.4035 0.73875 0.92711 0.0
H911 H 0.39141 0.74718 0.96002 0.0
C912 C 0.30697 0.81009 0.01626 0.0
C913 C 0.36045 0.81383 0.01507 0.0
C914 C 0.29001 0.79597 0.01162 0.0
C915 C 0.3263 0.78532 0.00589 0.0
C916 C 0.37957 0.7891 0.00445 0.0
C917 C 0.39654 0.80319 0.00912 0.0
C918 C 0.30888 0.77017 0.00174 0.0
C919 C 0.31791 0.76434 0.98367 0.0
C920 C 0.28196 0.76167 0.01527 0.0
C921 C 0.27339 0.76694 0.03489 0.0
C922 C 0.31618 0.77138 0.04646 0.0
C923 C 0.30774 0.77648 0.06485 0.0
C924 C 0.25671 0.7771 0.07188 0.0
C925 C 0.21401 0.77258 0.06055 0.0
C926 C 0.22223 0.76749 0.04214 0.0
C927 C 0.25888 0.70258 0.97521 0.0
C928 C 0.20515 0.69987 0.97819 0.0
C929 C 0.28096 0.71616 0.97996 0.0
C930 C 0.24951 0.72734 0.98744 0.0
C931 C 0.19604 0.72459 0.9905 0.0
C932 C 0.17414 0.71105 0.98592 0.0
C933 C 0.27152 0.74199 0.992 0.0
C934 C 0.26353 0.74773 0.0102 0.0
C935 C 0.29902 0.75044 0.97854 0.0
C936 C 0.30633 0.7454 0.95876 0.0
C937 C 0.26263 0.74177 0.94715 0.0
C938 C 0.26987 0.73696 0.92855 0.0
C939 C 0.32061 0.73585 0.92135 0.0
C940 C 0.36422 0.73959 0.93272 0.0
C941 C 0.3572 0.74439 0.95134 0.0
H942 H 0.32613 0.73213 0.90695 0.0
H943 H 0.25026 0.78106 0.08612 0.0
H944 H 0.93262 0.44732 0.99074 0.0
H945 H 0.97288 0.47057 0.98194 0.0
H946 H 0.9295 0.48902 0.03572 0.0
H947 H 0.88954 0.46567 0.04481 0.0
H948 H 0.91043 0.50784 0.00371 0.0
H949 H 0.04886 0.4794 0.03215 0.0
H950 H 0.10384 0.45743 0.03698 0.0
H951 H 0.15629 0.46038 0.9795 0.0
H952 H 0.10088 0.48225 0.97422 0.0
H953 H 0.07875 0.56972 0.00156 0.0
H954 H 0.03902 0.54668 0.01147 0.0
H955 H 0.08309 0.52678 0.95864 0.0
H956 H 0.12269 0.5499 0.94848 0.0
H957 H 0.102 0.50877 0.99088 0.0
H958 H 0.96217 0.53719 0.96255 0.0
H959 H 0.90653 0.55907 0.95794 0.0
H960 H 0.85662 0.55616 0.01574 0.0
H961 H 0.91265 0.53438 0.02077 0.0
C962 C 0.93117 0.45634 0.00067 0.0
C963 C 0.90804 0.45462 0.01853 0.0
C964 C 0.95439 0.46961 -0.00437 0.0
C965 C 0.95456 0.48146 0.00825 0.0
C966 C 0.92984 0.47998 0.0258 0.0
C967 C 0.90715 0.46663 0.03098 0.0
C968 C 0.98197 0.49522 0.00325 0.0
C969 C 0.95243 0.50811 0.00117 0.0
C970 C 0.0366 0.49547 -0.0004 0.0
C971 C 0.07028 0.48238 0.00273 0.0
C972 C 0.07174 0.47529 0.02048 0.0
C973 C 0.10305 0.46286 0.02332 0.0
C974 C 0.13343 0.45749 0.00854 0.0
C975 C 0.13267 0.46455 0.99092 0.0
C976 C 0.10134 0.47697 0.988 0.0
C977 C 0.08046 0.56044 0.99208 0.0
C978 C 0.1037 0.56169 0.97416 0.0
C979 C 0.05753 0.54728 -0.00225 0.0
C980 C 0.05765 0.53508 0.98571 0.0
C981 C 0.08249 0.5361 0.96812 0.0
C982 C 0.10498 0.54932 0.96233 0.0
C983 C 0.03043 0.5214 0.99128 0.0
C984 C 0.06003 0.50852 -0.00654 0.0
C985 C 0.97587 0.52117 -0.00492 0.0
C986 C 0.94207 0.53425 0.9921 0.0
C987 C 0.93972 0.5413 0.97433 0.0
C988 C 0.90804 0.55366 0.97163 0.0
C989 C 0.87818 0.55903 0.98655 0.0
C990 C 0.87985 0.55201 0.0042 0.0
C991 C 0.91154 0.53965 0.00698 0.0
H992 H 0.85365 0.5686 0.98444 0.0
H993 H 0.15766 0.44787 0.01075 0.0
H994 H 0.11245 0.54537 0.29979 0.0
H995 H 0.14669 0.5215 0.29027 0.0
H996 H 0.18524 0.53921 0.23541 0.0
H997 H 0.1488 0.5628 0.24452 0.0
H998 H 0.1514 0.5132 0.23048 0.0
H999 H 0.27884 0.53442 0.27388 0.0
H1000 H 0.30958 0.54532 0.30412 0.0
H1001 H 0.26473 0.50642 0.334 0.0
H1002 H 0.23312 0.49536 0.30395 0.0
H1003 H 0.33832 0.46047 0.20231 0.0
H1004 H 0.29723 0.48318 0.21275 0.0
H1005 H 0.25091 0.46214 0.2647 0.0
H1006 H 0.29301 0.43947 0.25455 0.0
H1007 H 0.28618 0.48909 0.27173 0.0
H1008 H 0.16249 0.46767 0.22712 0.0
H1009 H 0.13485 0.45709 0.19633 0.0
H1010 H 0.17654 0.49697 0.16804 0.0
H1011 H 0.20506 0.50772 0.19864 0.0
C1012 C 0.12768 0.54411 0.28563 0.0
C1013 C 0.12812 0.55601 0.27296 0.0
C1014 C 0.14768 0.53048 0.28024 0.0
C1015 C 0.16987 0.52858 0.26225 0.0
C1016 C 0.1686 0.54035 0.24938 0.0
C1017 C 0.14771 0.55387 0.25463 0.0
C1018 C 0.19541 0.51452 0.25688 0.0
C1019 C 0.18128 0.50804 0.23944 0.0
C1020 C 0.23377 0.50754 0.26866 0.0
C1021 C 0.25315 0.51413 0.2867 0.0
C1022 C 0.27525 0.52823 0.28692 0.0
C1023 C 0.29287 0.53443 0.30402 0.0
C1024 C 0.28899 0.52658 0.32098 0.0
C1025 C 0.26764 0.51249 0.32086 0.0
C1026 C 0.24991 0.50625 0.3038 0.0
C1027 C 0.31961 0.46067 0.216 0.0
C1028 C 0.31871 0.4481 0.22753 0.0
C1029 C 0.29585 0.47366 0.22191 0.0
C1030 C 0.27005 0.47432 0.23937 0.0
C1031 C 0.27033 0.4619 0.25114 0.0
C1032 C 0.29439 0.44893 0.24529 0.0
C1033 C 0.24246 0.4879 0.24529 0.0
C1034 C 0.25618 0.49426 0.26282 0.0
C1035 C 0.2041 0.49485 0.23352 0.0
C1036 C 0.18628 0.48846 0.21515 0.0
C1037 C 0.16603 0.47415 0.21432 0.0
C1038 C 0.15018 0.46813 0.1969 0.0
C1039 C 0.15404 0.47634 0.18023 0.0
C1040 C 0.1736 0.49061 0.18096 0.0
C1041 C 0.18956 0.49669 0.19833 0.0
H1042 H 0.14178 0.47165 0.16676 0.0
H1043 H 0.30263 0.5314 0.3342 0.0
H1044 H 0.63106 0.21272 0.94549 0.0
H1045 H 0.65949 0.23712 0.95515 0.0
H1046 H 0.74209 0.21868 0.00363 0.0
H1047 H 0.7119 0.19427 -0.00555 0.0
H1048 H 0.68619 0.24176 0.01387 0.0
H1049 H 0.80893 0.23195 0.96507 0.0
H1050 H 0.83849 0.22461 0.93334 0.0
H1051 H 0.75136 0.26014 0.90809 0.0
H1052 H 0.72065 0.26758 0.93966 0.0
H1053 H 0.838 0.30509 0.03644 0.0
H1054 H 0.80481 0.28089 0.02785 0.0
H1055 H 0.71331 0.29987 0.98184 0.0
H1056 H 0.74723 0.32416 0.99021 0.0
H1057 H 0.77324 0.27663 0.97047 0.0
H1058 H 0.65256 0.28649 0.02052 0.0
H1059 H 0.62689 0.29366 0.05278 0.0
H1060 H 0.71543 0.25771 0.0763 0.0
H1061 H 0.74225 0.25043 0.04418 0.0
C1062 C 0.65575 0.21383 0.95811 0.0
C1063 C 0.67009 0.20147 0.96896 0.0
C1064 C 0.67221 0.22779 0.96357 0.0
C1065 C 0.7036 0.22974 0.97997 0.0
C1066 C 0.71826 0.21743 0.99082 0.0
C1067 C 0.70165 0.20342 0.98537 0.0
C1068 C 0.71908 0.24471 0.98615 0.0
C1069 C 0.70594 0.24931 0.00447 0.0
C1070 C 0.74375 0.25469 0.97375 0.0
C1071 C 0.76206 0.25023 0.95472 0.0
C1072 C 0.79569 0.23812 0.95274 0.0
C1073 C 0.81273 0.23396 0.93478 0.0
C1074 C 0.7967 0.24188 0.9187 0.0
C1075 C 0.76368 0.25401 0.92056 0.0
C1076 C 0.74649 0.25821 0.93848 0.0
C1077 C 0.81004 0.30415 0.02469 0.0
C1078 C 0.79463 0.31656 0.01417 0.0
C1079 C 0.79099 0.29031 0.01984 0.0
C1080 C 0.75625 0.28857 0.0043 0.0
C1081 C 0.73984 0.30099 -0.00603 0.0
C1082 C 0.75869 0.31489 -0.00108 0.0
C1083 C 0.74013 0.27368 -0.00186 0.0
C1084 C 0.75332 0.26908 0.97983 0.0
C1085 C 0.71601 0.26367 0.01062 0.0
C1086 C 0.69978 0.26799 0.02995 0.0
C1087 C 0.6669 0.28018 0.03258 0.0
C1088 C 0.65208 0.28425 0.05084 0.0
C1089 C 0.66961 0.27617 0.06658 0.0
C1090 C 0.70191 0.26397 0.06409 0.0
C1091 C 0.71689 0.25986 0.04586 0.0
H1092 H 0.65809 0.27933 0.08071 0.0
H1093 H 0.80995 0.23864 0.90481 0.0
H1094 H 0.71474 0.56236 0.77608 0.0
H1095 H 0.76132 0.53958 0.77011 0.0
H1096 H 0.63159 0.52467 0.73479 0.0
H1097 H 0.58393 0.54748 0.74102 0.0
H1098 H 0.67178 0.50282 0.75704 0.0
H1099 H 0.74033 0.53935 0.71504 0.0
H1100 H 0.77878 0.5633 0.70707 0.0
H1101 H 0.91461 0.55364 0.74211 0.0
H1102 H 0.87657 0.52971 0.75053 0.0
H1103 H 0.80187 0.44716 0.70912 0.0
H1104 H 0.75709 0.47007 0.71576 0.0
H1105 H 0.89012 0.48421 0.75003 0.0
H1106 H 0.93614 0.46124 0.74296 0.0
H1107 H 0.84923 0.50648 0.72898 0.0
H1108 H 0.78129 0.46986 0.77075 0.0
H1109 H 0.74287 0.44592 0.77879 0.0
H1110 H 0.60603 0.45576 0.74436 0.0
H1111 H 0.64399 0.47968 0.73588 0.0
C1112 C 0.69582 0.5542 0.76715 0.0
C1113 C 0.64586 0.55676 0.75884 0.0
C1114 C 0.72263 0.5412 0.76371 0.0
C1115 C 0.70044 0.53059 0.75167 0.0
C1116 C 0.64953 0.53279 0.74403 0.0
C1117 C 0.62235 0.5458 0.7476 0.0
C1118 C 0.73124 0.51742 0.74669 0.0
C1119 C 0.71025 0.5036 0.75068 0.0
C1120 C 0.78206 0.51849 0.73883 0.0
C1121 C 0.80539 0.53279 0.73354 0.0
C1122 C 0.77825 0.54237 0.72114 0.0
C1123 C 0.79999 0.55594 0.71653 0.0
C1124 C 0.84906 0.56 0.72411 0.0
C1125 C 0.87658 0.55048 0.73627 0.0
C1126 C 0.85497 0.53691 0.74095 0.0
C1127 C 0.82188 0.45518 0.71796 0.0
C1128 C 0.87229 0.45236 0.72572 0.0
C1129 C 0.79611 0.46825 0.7218 0.0
C1130 C 0.81969 0.47867 0.73378 0.0
C1131 C 0.87109 0.47623 0.74086 0.0
C1132 C 0.89733 0.46315 0.73681 0.0
C1133 C 0.78968 0.49187 0.73926 0.0
C1134 C 0.81081 0.50569 0.73538 0.0
C1135 C 0.739 0.49081 0.74724 0.0
C1136 C 0.71568 0.47652 0.75257 0.0
C1137 C 0.74314 0.46689 0.76481 0.0
C1138 C 0.72143 0.45332 0.76945 0.0
C1139 C 0.67208 0.44931 0.76206 0.0
C1140 C 0.64427 0.45888 0.75006 0.0
C1141 C 0.66583 0.47245 0.74535 0.0
H1142 H 0.65536 0.4388 0.76565 0.0
H1143 H 0.86582 0.57051 0.72054 0.0
H1144 H 0.55899 0.07086 -0.00599 0.0
H1145 H 0.52098 0.04781 0.00437 0.0
H1146 H 0.58589 0.02608 0.95576 0.0
H1147 H 0.62259 0.04934 0.94491 0.0
H1148 H 0.48827 0.01781 0.96013 0.0
H1149 H 0.63849 0.0223 0.0025 0.0
H1150 H 0.69583 0.03475 0.02605 0.0
H1151 H 0.56756 0.03706 0.0648 0.0
H1152 H 0.50924 0.02482 0.04137 0.0
H1153 H 0.44636 0.94516 0.99083 0.0
H1154 H 0.4829 0.96844 0.98071 0.0
H1155 H 0.4177 0.98949 0.02977 0.0
H1156 H 0.38246 0.96598 0.04039 0.0
H1157 H 0.51451 0.99827 0.02536 0.0
H1158 H 0.36431 0.99386 0.98344 0.0
H1159 H 0.30589 0.98167 0.96001 0.0
H1160 H 0.43263 0.97946 0.92062 0.0
H1161 H 0.49202 0.99147 0.9439 0.0
C1162 C 0.56566 0.06117 0.98558 0.0
C1163 C 0.59404 0.06195 0.96864 0.0
C1164 C 0.544 0.04795 0.99158 0.0
C1165 C 0.55114 0.03511 0.98102 0.0
C1166 C 0.57988 0.03582 0.96418 0.0
C1167 C 0.60102 0.04911 0.95802 0.0
C1168 C 0.52719 0.02107 0.98722 0.0
C1169 C 0.49468 0.01343 0.97431 0.0
C1170 C 0.53412 0.01555 0.00592 0.0
C1171 C 0.56939 0.02275 0.02011 0.0
C1172 C 0.62243 0.02554 0.01599 0.0
C1173 C 0.65511 0.03255 0.02933 0.0
C1174 C 0.63532 0.03672 0.04689 0.0
C1175 C 0.58284 0.03383 0.05118 0.0
C1176 C 0.54997 0.02685 0.03789 0.0
C1177 C 0.43929 0.95474 -0.00059 0.0
C1178 C 0.41128 0.95369 0.01641 0.0
C1179 C 0.4601 0.9681 -0.00645 0.0
C1180 C 0.45247 0.98082 0.00431 0.0
C1181 C 0.42407 0.97984 0.0212 0.0
C1182 C 0.40376 0.96641 0.02722 0.0
C1183 C 0.47573 0.99498 -0.00176 0.0
C1184 C 0.50808 1.00265 0.01118 0.0
C1185 C 0.46853 1.00056 0.97959 0.0
C1186 C 0.43273 0.99346 0.96549 0.0
C1187 C 0.37981 0.99069 0.96983 0.0
C1188 C 0.34651 0.98383 0.95656 0.0
C1189 C 0.36557 0.97976 0.93885 0.0
C1190 C 0.41793 0.9826 0.93435 0.0
C1191 C 0.45141 0.98945 0.94756 0.0
H1192 H 0.33973 0.97444 0.92861 0.0
H1193 H 0.66065 0.04217 0.05718 0.0
H1194 H 0.4927 0.31838 0.24477 0.0
H1195 H 0.52563 0.29417 0.2536 0.0
H1196 H 0.42665 0.27467 0.21022 0.0
H1197 H 0.39513 0.29886 0.20069 0.0
H1198 H 0.41798 0.26161 0.24676 0.0
H1199 H 0.55108 0.27613 0.20248 0.0
H1200 H 0.61943 0.29245 0.18988 0.0
H1201 H 0.70874 0.28837 0.24199 0.0
H1202 H 0.64048 0.2722 0.25501 0.0
H1203 H 0.51627 0.18873 0.24446 0.0
H1204 H 0.48357 0.21345 0.23821 0.0
H1205 H 0.60866 0.23119 0.27353 0.0
H1206 H 0.64208 0.20647 0.27941 0.0
H1207 H 0.60419 0.24578 0.24241 0.0
H1208 H 0.47532 0.23102 0.28697 0.0
H1209 H 0.40737 0.21524 0.30087 0.0
H1210 H 0.31044 0.22034 0.25069 0.0
H1211 H 0.37817 0.236 0.23637 0.0
C1212 C 0.47924 0.30909 0.23659 0.0
C1213 C 0.44206 0.31071 0.22166 0.0
C1214 C 0.49761 0.29518 0.24188 0.0
C1215 C 0.47859 0.28264 0.23255 0.0
C1216 C 0.44173 0.28421 0.21764 0.0
C1217 C 0.4239 0.29807 0.2122 0.0
C1218 C 0.49607 0.26782 0.23855 0.0
C1219 C 0.45858 0.25805 0.24565 0.0
C1220 C 0.54928 0.26339 0.23762 0.0
C1221 C 0.59038 0.27309 0.2298 0.0
C1222 C 0.58505 0.27883 0.21132 0.0
C1223 C 0.62382 0.28803 0.20409 0.0
C1224 C 0.66832 0.29148 0.21515 0.0
C1225 C 0.6742 0.28571 0.23345 0.0
C1226 C 0.6355 0.27652 0.24076 0.0
C1227 C 0.53581 0.19785 0.25135 0.0
C1228 C 0.58118 0.19565 0.2627 0.0
C1229 C 0.51725 0.21203 0.24769 0.0
C1230 C 0.54328 0.22425 0.25555 0.0
C1231 C 0.58788 0.22198 0.26727 0.0
C1232 C 0.60679 0.20785 0.27071 0.0
C1233 C 0.52605 0.23941 0.25065 0.0
C1234 C 0.56358 0.24928 0.2437 0.0
C1235 C 0.47294 0.24399 0.25196 0.0
C1236 C 0.43207 0.23458 0.26053 0.0
C1237 C 0.43971 0.22868 0.27884 0.0
C1238 C 0.40119 0.21978 0.2868 0.0
C1239 C 0.35467 0.21676 0.27665 0.0
C1240 C 0.34652 0.22267 0.25853 0.0
C1241 C 0.38494 0.23158 0.25049 0.0
H1242 H 0.3249 0.20986 0.28285 0.0
H1243 H 0.69831 0.2986 0.20952 0.0
H1244 H 0.48024 0.81408 0.71462 0.0
H1245 H 0.51936 0.78976 0.71866 0.0
H1246 H 0.41325 0.78077 0.76436 0.0
H1247 H 0.37523 0.80516 0.76079 0.0
H1248 H 0.50999 0.77067 0.7727 0.0
H1249 H 0.3873 0.7683 0.71998 0.0
H1250 H 0.34916 0.77567 0.68896 0.0
H1251 H 0.49485 0.76541 0.66201 0.0
H1252 H 0.53411 0.75817 0.69294 0.0
H1253 H 0.52792 0.69341 0.77561 0.0
H1254 H 0.49152 0.718 0.77111 0.0
H1255 H 0.60371 0.72634 0.72714 0.0
H1256 H 0.63943 0.70168 0.73128 0.0
H1257 H 0.50553 0.73683 0.71767 0.0
H1258 H 0.62733 0.73883 0.77079 0.0
H1259 H 0.66392 0.73118 0.80193 0.0
H1260 H 0.51775 0.74192 0.82825 0.0
H1261 H 0.48002 0.74944 0.7972 0.0
C1262 C 0.46632 0.80709 0.72587 0.0
C1263 C 0.42511 0.81159 0.73755 0.0
C1264 C 0.48817 0.79312 0.72799 0.0
C1265 C 0.46879 0.78341 0.74169 0.0
C1266 C 0.4288 0.78807 0.75371 0.0
C1267 C 0.407 0.80199 0.7516 0.0
C1268 C 0.4886 0.76819 0.74314 0.0
C1269 C 0.50854 0.76323 0.76072 0.0
C1270 C 0.48739 0.75856 0.72742 0.0
C1271 C 0.46382 0.76285 0.7088 0.0
C1272 C 0.41134 0.76772 0.70747 0.0
C1273 C 0.3895 0.77186 0.6899 0.0
C1274 C 0.41962 0.77105 0.67353 0.0
C1275 C 0.4716 0.76606 0.6747 0.0
C1276 C 0.49366 0.76193 0.69224 0.0
C1277 C 0.54391 0.70034 0.76467 0.0
C1278 C 0.58611 0.69558 0.75365 0.0
C1279 C 0.52352 0.71444 0.76226 0.0
C1280 C 0.54527 0.72402 0.7489 0.0
C1281 C 0.58638 0.71913 0.73752 0.0
C1282 C 0.60686 0.70507 0.73997 0.0
C1283 C 0.52671 0.73933 0.74724 0.0
C1284 C 0.50705 0.7443 0.72963 0.0
C1285 C 0.52796 0.74896 0.76294 0.0
C1286 C 0.5507 0.74456 0.78165 0.0
C1287 C 0.60286 0.73946 0.7832 0.0
C1288 C 0.62383 0.73516 0.80083 0.0
C1289 C 0.59313 0.73603 0.81705 0.0
C1290 C 0.54145 0.74124 0.81567 0.0
C1291 C 0.52027 0.74553 0.79806 0.0
H1292 H 0.60943 0.7327 0.83069 0.0
H1293 H 0.40263 0.77425 0.65994 0.0
H1294 H 0.63846 0.54949 0.45395 0.0
H1295 H 0.6031 0.52573 0.46348 0.0
H1296 H 0.49924 0.54722 0.5024 0.0
H1297 H 0.53526 0.57088 0.49335 0.0
H1298 H 0.53843 0.52374 0.51849 0.0
H1299 H 0.45596 0.53444 0.45806 0.0
H1300 H 0.45378 0.54086 0.42402 0.0
H1301 H 0.54124 0.50199 0.41131 0.0
H1302 H 0.54447 0.49543 0.44531 0.0
H1303 H 0.36099 0.46486 0.53328 0.0
H1304 H 0.39895 0.48837 0.52405 0.0
H1305 H 0.50501 0.46615 0.48663 0.0
H1306 H 0.46666 0.44269 0.49547 0.0
H1307 H 0.46559 0.48984 0.46977 0.0
H1308 H 0.546 0.47911 0.53074 0.0
H1309 H 0.54659 0.47297 0.56486 0.0
H1310 H 0.46059 0.51228 0.57662 0.0
H1311 H 0.45891 0.51856 0.54253 0.0
C1312 C 0.6083 0.54914 0.46461 0.0
C1313 C 0.58961 0.5621 0.47283 0.0
C1314 C 0.58789 0.53555 0.46998 0.0
C1315 C 0.54782 0.53467 0.48345 0.0
C1316 C 0.53004 0.54758 0.49197 0.0
C1317 C 0.5507 0.56113 0.48674 0.0
C1318 C 0.52387 0.52037 0.48859 0.0
C1319 C 0.52197 0.51641 0.50784 0.0
C1320 C 0.50315 0.51065 0.47471 0.0
C1321 C 0.50088 0.51452 0.45424 0.0
C1322 C 0.47501 0.52731 0.44801 0.0
C1323 C 0.47355 0.53097 0.42873 0.0
C1324 C 0.49748 0.52186 0.41552 0.0
C1325 C 0.52278 0.50904 0.42156 0.0
C1326 C 0.52439 0.50534 0.44083 0.0
C1327 C 0.3923 0.46498 0.52305 0.0
C1328 C 0.41085 0.45187 0.51518 0.0
C1329 C 0.41416 0.47843 0.51785 0.0
C1330 C 0.45541 0.47903 0.50484 0.0
C1331 C 0.47331 0.46598 0.49671 0.0
C1332 C 0.45134 0.45255 0.50182 0.0
C1333 C 0.4801 0.49322 0.49967 0.0
C1334 C 0.48213 0.49716 0.48042 0.0
C1335 C 0.50066 0.50296 0.51356 0.0
C1336 C 0.50192 0.49923 0.53407 0.0
C1337 C 0.5269 0.48639 0.54059 0.0
C1338 C 0.52748 0.4829 0.55993 0.0
C1339 C 0.50352 0.49221 0.57289 0.0
C1340 C 0.47907 0.50507 0.56656 0.0
C1341 C 0.47834 0.50861 0.54724 0.0
H1342 H 0.504 0.48948 0.58785 0.0
H1343 H 0.49633 0.52471 0.4006 0.0
H1344 H 0.29668 0.14051 0.4419 0.0
H1345 H 0.36353 0.13794 0.4178 0.0
H1346 H 0.34576 0.09108 0.41924 0.0
H1347 H 0.27805 0.09347 0.4433 0.0
H1348 H 0.45622 0.10419 0.41051 0.0
H1349 H 0.27186 0.10334 0.39065 0.0
H1350 H 0.18111 0.11282 0.39252 0.0
H1351 H 0.23314 0.15493 0.37339 0.0
H1352 H 0.32449 0.14578 0.37185 0.0
H1353 H 0.53332 0.09226 0.31483 0.0
H1354 H 0.48443 0.09101 0.34439 0.0
H1355 H 0.45691 0.13754 0.34167 0.0
H1356 H 0.50534 0.13891 0.3121 0.0
H1357 H 0.36894 0.12281 0.35155 0.0
H1358 H 0.55166 0.12413 0.37078 0.0
H1359 H 0.6443 0.11602 0.3716 0.0
H1360 H 0.59727 0.07392 0.39242 0.0
H1361 H 0.5042 0.08175 0.39158 0.0
C1362 C 0.30815 0.1296 0.43765 0.0
C1363 C 0.28091 0.11721 0.44415 0.0
C1364 C 0.34654 0.12817 0.42389 0.0
C1365 C 0.35864 0.11436 0.41655 0.0
C1366 C 0.33668 0.10183 0.42474 0.0
C1367 C 0.2979 0.10324 0.43848 0.0
C1368 C 0.38548 0.11338 0.39818 0.0
C1369 C 0.43707 0.10801 0.39753 0.0
C1370 C 0.36038 0.11859 0.38139 0.0
C1371 C 0.3051 0.12392 0.38135 0.0
C1372 C 0.26401 0.11465 0.38697 0.0
C1373 C 0.21249 0.11996 0.388 0.0
C1374 C 0.20147 0.1345 0.38323 0.0
C1375 C 0.24183 0.1437 0.3772 0.0
C1376 C 0.29348 0.13845 0.37623 0.0
C1377 C 0.51643 0.10221 0.32041 0.0
C1378 C 0.52341 0.1157 0.31111 0.0
C1379 C 0.48881 0.10149 0.33737 0.0
C1380 C 0.46764 0.11421 0.34534 0.0
C1381 C 0.47308 0.12759 0.33579 0.0
C1382 C 0.50087 0.12835 0.31889 0.0
C1383 C 0.44026 0.11368 0.36373 0.0
C1384 C 0.38821 0.1188 0.36441 0.0
C1385 C 0.46507 0.10824 0.38051 0.0
C1386 C 0.52092 0.10347 0.38092 0.0
C1387 C 0.56102 0.11309 0.37537 0.0
C1388 C 0.61362 0.10856 0.37587 0.0
C1389 C 0.62665 0.09445 0.38199 0.0
C1390 C 0.5871 0.08485 0.38765 0.0
C1391 C 0.53443 0.08933 0.38719 0.0
H1392 H 0.6674 0.09098 0.38243 0.0
H1393 H 0.16158 0.1386 0.38408 0.0
H1394 H 0.77993 0.09479 0.28428 0.0
H1395 H 0.85806 0.0938 0.30496 0.0
H1396 H 0.85084 0.14055 0.31257 0.0
H1397 H 0.7731 0.14173 0.29175 0.0
H1398 H 0.95492 0.12945 0.31326 0.0
H1399 H 0.78434 0.11988 0.34148 0.0
H1400 H 0.70006 0.1066 0.34327 0.0
H1401 H 0.78342 0.06617 0.35176 0.0
H1402 H 0.86827 0.07919 0.3496 0.0
H1403 H 0.04266 0.14368 0.40686 0.0
H1404 H 0.99613 0.14132 0.37642 0.0
H1405 H 0.0026 0.09428 0.38129 0.0
H1406 H 0.04814 0.09653 0.41197 0.0
H1407 H 0.90722 0.10276 0.37193 0.0
H1408 H 0.07791 0.11222 0.34777 0.0
H1409 H 0.16307 0.1249 0.34491 0.0
H1410 H 0.08282 0.16458 0.32914 0.0
H1411 H 0.9971 0.15209 0.33177 0.0
C1412 C 0.79571 0.10492 0.28993 0.0
C1413 C 0.76953 0.1183 0.28677 0.0
C1414 C 0.84045 0.10433 0.30169 0.0
C1415 C 0.85939 0.11707 0.31053 0.0
C1416 C 0.83658 0.1306 0.3059 0.0
C1417 C 0.79192 0.13123 0.2941 0.0
C1418 C 0.89675 0.11607 0.32678 0.0
C1419 C 0.94469 0.12364 0.32611 0.0
C1420 C 0.88358 0.10823 0.34337 0.0
C1421 C 0.83259 0.10048 0.34517 0.0
C1422 C 0.78468 0.10815 0.34362 0.0
C1423 C 0.73682 0.10067 0.3447 0.0
C1424 C 0.73638 0.08554 0.34758 0.0
C1425 C 0.78382 0.07788 0.34948 0.0
C1426 C 0.8318 0.0853 0.34832 0.0
C1427 C 0.03426 0.13283 0.40146 0.0
C1428 C 0.0487 0.12029 0.41192 0.0
C1429 C 0.00818 0.13149 0.38395 0.0
C1430 C 0.99662 0.11762 0.37647 0.0
C1431 C 0.01133 0.10509 0.3868 0.0
C1432 C 0.03715 0.10641 0.40436 0.0
C1433 C 0.9656 0.11624 0.35857 0.0
C1434 C 0.91837 0.10831 0.35898 0.0
C1435 C 0.97971 0.12367 0.34177 0.0
C1436 C 0.03109 0.13124 0.34009 0.0
C1437 C 0.07841 0.12367 0.34378 0.0
C1438 C 0.12678 0.13081 0.34215 0.0
C1439 C 0.12836 0.14556 0.33695 0.0
C1440 C 0.08154 0.15316 0.33319 0.0
C1441 C 0.03305 0.14603 0.33465 0.0
H1442 H 0.16586 0.15108 0.3358 0.0
H1443 H 0.69928 0.07977 0.3484 0.0
H1444 H 0.25807 0.09747 0.792 0.0
H1445 H 0.32544 0.09713 0.81715 0.0
H1446 H 0.34295 0.14389 0.81237 0.0
H1447 H 0.2752 0.14442 0.78724 0.0
H1448 H 0.44009 0.12764 0.82068 0.0
H1449 H 0.26213 0.13395 0.84233 0.0
H1450 H 0.16806 0.12751 0.84405 0.0
H1451 H 0.20904 0.08537 0.86698 0.0
H1452 H 0.30349 0.09149 0.86506 0.0
H1453 H 0.52927 0.14667 0.91289 0.0
H1454 H 0.47645 0.14517 0.88368 0.0
H1455 H 0.4497 0.09924 0.89373 0.0
H1456 H 0.50258 0.10057 0.92306 0.0
H1457 H 0.35987 0.11409 0.88204 0.0
H1458 H 0.53849 0.10861 0.86277 0.0
H1459 H 0.63243 0.11511 0.86074 0.0
H1460 H 0.59108 0.15565 0.83344 0.0
H1461 H 0.49677 0.1495 0.83558 0.0
C1462 C 0.2772 0.10765 0.79589 0.0
C1463 C 0.26062 0.12102 0.78788 0.0
C1464 C 0.31564 0.10741 0.81027 0.0
C1465 C 0.33832 0.12051 0.81672 0.0
C1466 C 0.32561 0.13369 0.80756 0.0
C1467 C 0.28677 0.13397 0.79327 0.0
C1468 C 0.36957 0.12068 0.83455 0.0
C1469 C 0.42266 0.1248 0.83414 0.0
C1470 C 0.3466 0.11676 0.85198 0.0
C1471 C 0.28986 0.11311 0.85333 0.0
C1472 C 0.25109 0.12326 0.84757 0.0
C1473 C 0.19771 0.11968 0.8486 0.0
C1474 C 0.18258 0.10602 0.85556 0.0
C1475 C 0.22082 0.09594 0.86155 0.0
C1476 C 0.27429 0.09945 0.8605 0.0
C1477 C 0.51175 0.13626 0.90904 0.0
C1478 C 0.52038 0.12371 0.92026 0.0
C1479 C 0.4819 0.13542 0.89227 0.0
C1480 C 0.46009 0.12205 0.88645 0.0
C1481 C 0.46664 0.10963 0.89798 0.0
C1482 C 0.49679 0.11043 0.91472 0.0
C1483 C 0.43064 0.12103 0.86825 0.0
C1484 C 0.37764 0.11682 0.86859 0.0
C1485 C 0.45378 0.12489 0.8508 0.0
C1486 C 0.51049 0.12865 0.84951 0.0
C1487 C 0.54938 0.11897 0.8565 0.0
C1488 C 0.60271 0.12258 0.8553 0.0
C1489 C 0.61772 0.1358 0.84701 0.0
C1490 C 0.5794 0.14542 0.83988 0.0
C1491 C 0.52599 0.14188 0.84107 0.0
H1492 H 0.65904 0.13856 0.84607 0.0
H1493 H 0.14122 0.10327 0.85636 0.0
H1494 H 0.01084 0.09496 0.80252 0.0
H1495 H 0.95528 0.09333 0.83049 0.0
H1496 H 0.94822 0.14043 0.83315 0.0
H1497 H 0.00284 0.14218 0.80523 0.0
H1498 H 0.9743 0.10268 0.86598 0.0
H1499 H 0.83132 0.15149 0.8501 0.0
H1500 H 0.78577 0.16292 0.82263 0.0
H1501 H 0.79757 0.12282 0.79136 0.0
H1502 H 0.8424 0.11107 0.81873 0.0
H1503 H 0.77965 0.1436 0.93236 0.0
H1504 H 0.84053 0.14141 0.90617 0.0
H1505 H 0.82388 0.09448 0.90735 0.0
H1506 H 0.76271 0.09652 0.93362 0.0
H1507 H 0.80607 0.12972 0.87195 0.0
H1508 H 0.9395 0.08005 0.88722 0.0
H1509 H 0.98142 0.06726 0.91443 0.0
H1510 H 0.98373 0.10726 0.94629 0.0
H1511 H 0.94252 0.12032 0.9192 0.0
C1512 C 0.99684 0.10497 0.80889 0.0
C1513 C 0.01126 0.11871 0.80156 0.0
C1514 C 0.96533 0.10401 0.82494 0.0
C1515 C 0.94732 0.11675 0.83384 0.0
C1516 C 0.96096 0.13044 0.82636 0.0
C1517 C 0.99239 0.13142 0.81038 0.0
C1518 C 0.91594 0.11589 0.85137 0.0
C1519 C 0.93705 0.10839 0.8672 0.0
C1520 C 0.86761 0.12344 0.85302 0.0
C1521 C 0.84078 0.13045 0.83643 0.0
C1522 C 0.82408 0.1451 0.83739 0.0
C1523 C 0.79837 0.15163 0.82183 0.0
C1524 C 0.78895 0.14362 0.80524 0.0
C1525 C 0.8051 0.12904 0.80419 0.0
C1526 C 0.83075 0.12244 0.81971 0.0
C1527 C 0.78984 0.13276 0.92742 0.0
C1528 C 0.76562 0.12024 0.93495 0.0
C1529 C 0.82456 0.13155 0.91238 0.0
C1530 C 0.83625 0.11781 0.90471 0.0
C1531 C 0.81548 0.10519 0.91312 0.0
C1532 C 0.78053 0.10639 0.92816 0.0
C1533 C 0.86519 0.11691 0.88668 0.0
C1534 C 0.84328 0.12399 0.8707 0.0
C1535 C 0.91225 0.1088 0.88487 0.0
C1536 C 0.93732 0.10111 0.90125 0.0
C1537 C 0.94906 0.08612 0.90002 0.0
C1538 C 0.9727 0.07882 0.91542 0.0
C1539 C 0.98504 0.08643 0.93211 0.0
C1540 C 0.97392 0.10136 0.9334 0.0
C1541 C 0.95031 0.10871 0.91803 0.0
H1542 H 0.00333 0.08076 0.94401 0.0
H1543 H 0.76903 0.1487 0.79322 0.0
H1544 H 0.534 0.87389 0.70057 0.0
H1545 H 0.60594 0.8765 0.67815 0.0
H1546 H 0.5204 0.91121 0.6495 0.0
H1547 H 0.45066 0.90928 0.67254 0.0
H1548 H 0.61131 0.87127 0.64414 0.0
H1549 H 0.59333 0.93384 0.62526 0.0
H1550 H 0.57885 0.95711 0.64202 0.0
H1551 H 0.63232 0.93756 0.69439 0.0
H1552 H 0.64786 0.91423 0.67793 0.0
H1553 H 0.70206 0.88017 0.55278 0.0
H1554 H 0.64959 0.88121 0.5815 0.0
H1555 H 0.76327 0.91062 0.60714 0.0
H1556 H 0.81391 0.91031 0.57798 0.0
H1557 H 0.67483 0.91847 0.61834 0.0
H1558 H 0.76044 0.87301 0.61781 0.0
H1559 H 0.79145 0.84952 0.60501 0.0
H1560 H 0.63172 0.83452 0.59932 0.0
H1561 H 0.59965 0.85801 0.61183 0.0
C1562 C 0.53126 0.88228 0.6897 0.0
C1563 C 0.48695 0.89145 0.68836 0.0
C1564 C 0.57225 0.88373 0.67684 0.0
C1565 C 0.56918 0.89418 0.66217 0.0
C1566 C 0.52488 0.90338 0.66097 0.0
C1567 C 0.48469 0.9022 0.67411 0.0
C1568 C 0.60985 0.89475 0.64722 0.0
C1569 C 0.62547 0.88161 0.63866 0.0
C1570 C 0.63027 0.90816 0.64039 0.0
C1571 C 0.62138 0.92223 0.65035 0.0
C1572 C 0.60228 0.93452 0.64033 0.0
C1573 C 0.59382 0.94772 0.64979 0.0
C1574 C 0.60453 0.9488 0.66927 0.0
C1575 C 0.62386 0.9367 0.67932 0.0
C1576 C 0.63243 0.92347 0.66993 0.0
C1577 C 0.71526 0.88704 0.56445 0.0
C1578 C 0.76186 0.89518 0.56318 0.0
C1579 C 0.68562 0.88752 0.58093 0.0
C1580 C 0.70315 0.89569 0.59673 0.0
C1581 C 0.74888 0.90422 0.59521 0.0
C1582 C 0.77775 0.90405 0.57852 0.0
C1583 C 0.67426 0.89505 0.61489 0.0
C1584 C 0.66108 0.90815 0.62403 0.0
C1585 C 0.65864 0.88157 0.62297 0.0
C1586 C 0.67761 0.86732 0.61565 0.0
C1587 C 0.73189 0.86473 0.61374 0.0
C1588 C 0.74967 0.85141 0.60654 0.0
C1589 C 0.71357 0.84054 0.60133 0.0
C1590 C 0.65963 0.84295 0.60336 0.0
C1591 C 0.64162 0.85626 0.61053 0.0
H1592 H 0.72741 0.83024 0.59574 0.0
H1593 H 0.59792 0.95903 0.67656 0.0
H1594 H 0.25973 0.85281 0.68094 0.0
H1595 H 0.20262 0.84786 0.65339 0.0
H1596 H 0.14962 0.8927 0.65353 0.0
H1597 H 0.20604 0.89776 0.68109 0.0
H1598 H 0.07008 0.87378 0.64419 0.0
H1599 H 0.25247 0.88289 0.62717 0.0
H1600 H 0.34787 0.87777 0.62821 0.0
H1601 H 0.3193 0.83445 0.60693 0.0
H1602 H 0.22359 0.83926 0.60602 0.0
H1603 H 0.02451 0.90133 0.55514 0.0
H1604 H 0.08423 0.89466 0.58121 0.0
H1605 H 0.0495 0.84903 0.57219 0.0
H1606 H 0.9889 0.85553 0.5461 0.0
H1607 H 0.1687 0.86218 0.58583 0.0
H1608 H 0.98304 0.85435 0.6012 0.0
H1609 H 0.88951 0.86151 0.59833 0.0
H1610 H 0.92631 0.90371 0.6217 0.0
H1611 H 0.02025 0.89685 0.62444 0.0
C1612 C 0.23511 0.86155 0.67536 0.0
C1613 C 0.23803 0.87576 0.68299 0.0
C1614 C 0.20262 0.85869 0.65961 0.0
C1615 C 0.17271 0.86998 0.65132 0.0
C1616 C 0.17261 0.88386 0.65974 0.0
C1617 C 0.20507 0.88675 0.67544 0.0
C1618 C 0.14549 0.86792 0.63285 0.0
C1619 C 0.09151 0.87104 0.6315 0.0
C1620 C 0.17346 0.86421 0.61631 0.0
C1621 C 0.23093 0.86136 0.61676 0.0
C1622 C 0.26653 0.87223 0.62286 0.0
C1623 C 0.32064 0.86939 0.6234 0.0
C1624 C 0.33962 0.85577 0.6177 0.0
C1625 C 0.30453 0.84498 0.61139 0.0
C1626 C 0.25036 0.84775 0.61085 0.0
C1627 C 0.03075 0.88984 0.55822 0.0
C1628 C 0.00103 0.87897 0.54889 0.0
C1629 C 0.065 0.88606 0.57309 0.0
C1630 C 0.07036 0.8714 0.57861 0.0
C1631 C 0.0455 0.86039 0.56802 0.0
C1632 C 0.01079 0.86416 0.55322 0.0
C1633 C 0.09385 0.86815 0.59732 0.0
C1634 C 0.14701 0.86425 0.59868 0.0
C1635 C 0.06526 0.87113 0.61389 0.0
C1636 C 0.00863 0.87512 0.6129 0.0
C1637 C 0.97119 0.86518 0.60563 0.0
C1638 C 0.91812 0.86918 0.60403 0.0
C1639 C 0.90198 0.88307 0.60979 0.0
C1640 C 0.93887 0.89296 0.61724 0.0
C1641 C 0.99201 0.88901 0.61884 0.0
H1642 H 0.86089 0.88616 0.60851 0.0
H1643 H 0.38153 0.8536 0.61812 0.0
H1644 H 0.74969 0.91464 0.19197 0.0
H1645 H 0.6728 0.91588 0.17097 0.0
H1646 H 0.64738 0.86955 0.17833 0.0
H1647 H 0.72557 0.8681 0.19894 0.0
H1648 H 0.66087 0.87629 0.14246 0.0
H1649 H 0.55568 0.89566 0.19237 0.0
H1650 H 0.53759 0.9124 0.21887 0.0
H1651 H 0.54449 0.94917 0.18101 0.0
H1652 H 0.56332 0.93268 0.1543 0.0
H1653 H 0.45157 0.87089 0.07849 0.0
H1654 H 0.49832 0.87187 0.10887 0.0
H1655 H 0.53623 0.91724 0.09925 0.0
H1656 H 0.48809 0.9165 0.06871 0.0
H1657 H 0.51128 0.91112 0.13736 0.0
H1658 H 0.62512 0.89307 0.08909 0.0
H1659 H 0.64974 0.87735 0.06226 0.0
H1660 H 0.63253 0.83917 0.0972 0.0
H1661 H 0.60704 0.85466 0.12417 0.0
C1662 C 0.727 0.90477 0.18956 0.0
C1663 C 0.74437 0.89119 0.19675 0.0
C1664 C 0.68269 0.90553 0.17765 0.0
C1665 C 0.65451 0.8928 0.17304 0.0
C1666 C 0.66886 0.87949 0.18166 0.0
C1667 C 0.71356 0.87867 0.19341 0.0
C1668 C 0.61658 0.8929 0.1569 0.0
C1669 C 0.62736 0.88365 0.1416 0.0
C1670 C 0.57445 0.90301 0.15543 0.0
C1671 C 0.56122 0.91292 0.17134 0.0
C1672 C 0.55352 0.90732 0.1897 0.0
C1673 C 0.54313 0.91677 0.20476 0.0
C1674 C 0.54 0.93184 0.20164 0.0
C1675 C 0.54692 0.93749 0.18341 0.0
C1676 C 0.55733 0.9281 0.16829 0.0
C1677 C 0.46966 0.88112 0.08277 0.0
C1678 C 0.46697 0.89357 0.07102 0.0
C1679 C 0.49606 0.88167 0.10021 0.0
C1680 C 0.52108 0.89457 0.10614 0.0
C1681 C 0.517 0.90719 0.09485 0.0
C1682 C 0.49001 0.90671 0.07738 0.0
C1683 C 0.55534 0.89432 0.12326 0.0
C1684 C 0.54427 0.90361 0.13852 0.0
C1685 C 0.59783 0.88437 0.12473 0.0
C1686 C 0.61367 0.87502 0.10859 0.0
C1687 C 0.62621 0.88132 0.09101 0.0
C1688 C 0.64037 0.87245 0.07578 0.0
C1689 C 0.64256 0.85727 0.07801 0.0
C1690 C 0.63074 0.85093 0.09549 0.0
C1691 C 0.61647 0.85975 0.11075 0.0
H1692 H 0.65352 0.85042 0.0662 0.0
H1693 H 0.53219 0.93914 0.21333 0.0
H1694 H 0.98121 0.86526 0.16591 0.0
H1695 H 0.02643 0.86556 0.13564 0.0
H1696 H 0.04482 0.91236 0.13973 0.0
H1697 H -0.00123 0.91224 0.16986 0.0
H1698 H 0.013 0.90455 0.10446 0.0
H1699 H 0.14764 0.8897 0.14924 0.0
H1700 H 0.18732 0.87469 0.17489 0.0
H1701 H 0.17333 0.83638 0.13997 0.0
H1702 H 0.13289 0.85114 0.11419 0.0
H1703 H 0.23371 0.91507 0.04433 0.0
H1704 H 0.16258 0.91419 0.06708 0.0
H1705 H 0.14832 0.86763 0.05868 0.0
H1706 H 0.21976 0.86836 0.03604 0.0
H1707 H 0.17231 0.87427 0.09482 0.0
H1708 H 0.04543 0.89034 0.04847 0.0
H1709 H 0.00862 0.90606 0.02303 0.0
H1710 H 0.01122 0.9429 0.06076 0.0
H1711 H 0.04878 0.92745 0.08637 0.0
C1712 C 0.99518 0.87562 0.16047 0.0
C1713 C 0.98651 0.88873 0.17038 0.0
C1714 C 0.02098 0.87577 0.14314 0.0
C1715 C 0.03915 0.88898 0.13547 0.0
C1716 C 0.03089 0.90206 0.14536 0.0
C1717 C 0.00492 0.90194 0.16266 0.0
C1718 C 0.06732 0.88914 0.11724 0.0
C1719 C 0.04813 0.89804 0.10236 0.0
C1720 C 0.1124 0.88039 0.1144 0.0
C1721 C 0.13669 0.87149 0.12988 0.0
C1722 C 0.15261 0.87805 0.14709 0.0
C1723 C 0.17531 0.86959 0.16164 0.0
C1724 C 0.18268 0.85458 0.15908 0.0
C1725 C 0.1675 0.84801 0.14195 0.0
C1726 C 0.14471 0.85641 0.12736 0.0
C1727 C 0.21419 0.90472 0.04675 0.0
C1728 C 0.23319 0.89173 0.03867 0.0
C1729 C 0.17338 0.90424 0.05978 0.0
C1730 C 0.1506 0.89081 0.06474 0.0
C1731 C 0.16573 0.87808 0.05517 0.0
C1732 C 0.20655 0.87854 0.0422 0.0
C1733 C 0.11809 0.88967 0.08193 0.0
C1734 C 0.13674 0.88064 0.09674 0.0
C1735 C 0.07291 0.8984 0.08469 0.0
C1736 C 0.05035 0.90775 0.06931 0.0
C1737 C 0.0386 0.90182 0.0513 0.0
C1738 C 0.0175 0.91068 0.03686 0.0
C1739 C 0.00769 0.92548 0.04026 0.0
C1740 C 0.01887 0.93144 0.05814 0.0
C1741 C 0.04 0.92263 0.07263 0.0
H1742 H 0.99134 0.93232 0.02906 0.0
H1743 H 0.20028 0.84806 0.17036 0.0
H1744 H 0.25616 0.59469 0.93172 0.0
H1745 H 0.30806 0.59243 0.90299 0.0
H1746 H 0.34583 0.63837 0.90574 0.0
H1747 H 0.29411 0.6408 0.93437 0.0
H1748 H 0.3 0.63026 0.87156 0.0
H1749 H 0.43933 0.61305 0.91396 0.0
H1750 H 0.47849 0.59686 0.93846 0.0
H1751 H 0.44984 0.55955 0.9028 0.0
H1752 H 0.40986 0.5755 0.87819 0.0
H1753 H 0.49707 0.64105 0.80433 0.0
H1754 H 0.43733 0.63915 0.83079 0.0
H1755 H 0.42992 0.59233 0.82344 0.0
H1756 H 0.49121 0.59408 0.79721 0.0
H1757 H 0.4529 0.59828 0.85865 0.0
H1758 H 0.32053 0.61468 0.81529 0.0
H1759 H 0.27906 0.63 0.79034 0.0
H1760 H 0.28957 0.6675 0.82683 0.0
H1761 H 0.33179 0.65245 0.85191 0.0
C1762 C 0.27663 0.60424 0.92651 0.0
C1763 C 0.27041 0.61797 0.93522 0.0
C1764 C 0.30619 0.60292 0.91006 0.0
C1765 C 0.33022 0.61527 0.90217 0.0
C1766 C 0.32708 0.62875 0.91154 0.0
C1767 C 0.29767 0.63009 0.92796 0.0
C1768 C 0.35478 0.61453 0.88333 0.0
C1769 C 0.33384 0.62339 0.86875 0.0
C1770 C 0.39715 0.60504 0.8795 0.0
C1771 C 0.42106 0.59545 0.89433 0.0
C1772 C 0.44092 0.60138 0.91142 0.0
C1773 C 0.46338 0.59225 0.92531 0.0
C1774 C 0.4665 0.57718 0.92222 0.0
C1775 C 0.44731 0.57122 0.9052 0.0
C1776 C 0.42479 0.5803 0.89127 0.0
C1777 C 0.48185 0.63037 0.80801 0.0
C1778 C 0.49944 0.6177 0.79878 0.0
C1779 C 0.44742 0.6293 0.82314 0.0
C1780 C 0.42906 0.61559 0.82912 0.0
C1781 C 0.44384 0.60301 0.81914 0.0
C1782 C 0.4787 0.60405 0.80409 0.0
C1783 C 0.39909 0.61434 0.84691 0.0
C1784 C 0.41874 0.60505 0.86131 0.0
C1785 C 0.35501 0.62331 0.85051 0.0
C1786 C 0.3297 0.63244 0.83545 0.0
C1787 C 0.31439 0.62621 0.81795 0.0
C1788 C 0.29067 0.63485 0.80379 0.0
C1789 C 0.28177 0.64972 0.80699 0.0
C1790 C 0.2965 0.65598 0.82437 0.0
C1791 C 0.32026 0.6474 0.83857 0.0
H1792 H 0.26339 0.65638 0.79601 0.0
H1793 H 0.48392 0.57013 0.93298 0.0
H1794 H 0.7682 0.64578 0.801 0.0
H1795 H 0.82885 0.64763 0.82838 0.0
H1796 H 0.79982 0.6024 0.84218 0.0
H1797 H 0.73998 0.60034 0.81481 0.0
H1798 H 0.78671 0.62305 0.87289 0.0
H1799 H 0.90947 0.60896 0.82479 0.0
H1800 H 0.95329 0.61119 0.79398 0.0
H1801 H 0.00881 0.65402 0.80924 0.0
H1802 H 0.96458 0.65214 0.84005 0.0
H1803 H 0.99364 0.60505 0.93859 0.0
H1804 H 0.92903 0.60634 0.91243 0.0
H1805 H 0.9764 0.65068 0.90061 0.0
H1806 H 0.04062 0.64961 0.92673 0.0
H1807 H 0.97872 0.63237 0.86906 0.0
H1808 H 0.86154 0.64621 0.91773 0.0
H1809 H 0.81754 0.64451 0.94854 0.0
H1810 H 0.75089 0.60308 0.93246 0.0
H1811 H 0.7952 0.60443 0.90163 0.0
C1812 C 0.77529 0.63619 0.80974 0.0
C1813 C 0.74938 0.62292 0.80579 0.0
C1814 C 0.80979 0.63727 0.82533 0.0
C1815 C 0.81827 0.62516 0.83723 0.0
C1816 C 0.79337 0.61185 0.83313 0.0
C1817 C 0.75956 0.61069 0.81742 0.0
C1818 C 0.85209 0.62642 0.85432 0.0
C1819 C 0.8288 0.62494 0.87212 0.0
C1820 C 0.9065 0.62933 0.85313 0.0
C1821 C 0.93315 0.63048 0.83462 0.0
C1822 C 0.93055 0.61892 0.8215 0.0
C1823 C 0.95556 0.6201 0.80405 0.0
C1824 C 0.98367 0.63276 0.79963 0.0
C1825 C 0.98693 0.64424 0.81267 0.0
C1826 C 0.96192 0.64311 0.83013 0.0
C1827 C 0.98971 0.61515 0.93062 0.0
C1828 C 0.02245 0.62718 0.93465 0.0
C1829 C 0.95278 0.61588 0.91573 0.0
C1830 C 0.9483 0.6286 0.90465 0.0
C1831 C 0.97956 0.64078 0.90903 0.0
C1832 C 0.01605 0.64013 0.924 0.0
C1833 C 0.91352 0.62882 0.88769 0.0
C1834 C 0.93658 0.63059 0.86989 0.0
C1835 C 0.85885 0.62625 0.88889 0.0
C1836 C 0.83216 0.62535 0.90743 0.0
C1837 C 0.83794 0.63667 0.92082 0.0
C1838 C 0.81284 0.63578 0.93828 0.0
C1839 C 0.78155 0.62367 0.94247 0.0
C1840 C 0.7752 0.61245 0.9292 0.0
C1841 C 0.80026 0.61327 0.91172 0.0
H1842 H 0.76213 0.62301 0.956 0.0
H1843 H 0.00303 0.63365 0.78612 0.0
H1844 H 0.25949 0.64155 0.2972 0.0
H1845 H 0.33997 0.6396 0.31619 0.0
H1846 H 0.34761 0.59334 0.30435 0.0
H1847 H 0.26576 0.59511 0.28574 0.0
H1848 H 0.34678 0.59744 0.3404 0.0
H1849 H 0.44875 0.61725 0.29141 0.0
H1850 H 0.47255 0.63383 0.26531 0.0
H1851 H 0.47783 0.67005 0.30402 0.0
H1852 H 0.45327 0.65375 0.33031 0.0
H1853 H 0.54401 0.59789 0.4133 0.0
H1854 H 0.50436 0.59493 0.3817 0.0
H1855 H 0.4583 0.64038 0.38149 0.0
H1856 H 0.4992 0.64356 0.41287 0.0
H1857 H 0.49565 0.63224 0.34735 0.0
H1858 H 0.37164 0.61277 0.3934 0.0
H1859 H 0.34677 0.59617 0.4194 0.0
H1860 H 0.384 0.55899 0.38497 0.0
H1861 H 0.40955 0.5754 0.35883 0.0
C1862 C 0.27897 0.63102 0.29817 0.0
C1863 C 0.25567 0.61842 0.29031 0.0
C1864 C 0.32543 0.62994 0.30892 0.0
C1865 C 0.34992 0.61631 0.3117 0.0
C1866 C 0.32924 0.60395 0.30244 0.0
C1867 C 0.28241 0.60498 0.29184 0.0
C1868 C 0.39062 0.61466 0.32687 0.0
C1869 C 0.38032 0.60476 0.3416 0.0
C1870 C 0.43389 0.62434 0.32861 0.0
C1871 C 0.44898 0.63424 0.31286 0.0
C1872 C 0.45465 0.62876 0.29435 0.0
C1873 C 0.46833 0.63812 0.27952 0.0
C1874 C 0.47666 0.65298 0.283 0.0
C1875 C 0.47142 0.65852 0.30134 0.0
C1876 C 0.45772 0.64922 0.31623 0.0
C1877 C 0.52524 0.60725 0.40657 0.0
C1878 C 0.52415 0.62093 0.41566 0.0
C1879 C 0.50287 0.60554 0.38848 0.0
C1880 C 0.47815 0.61741 0.37934 0.0
C1881 C 0.47748 0.6311 0.38829 0.0
C1882 C 0.50039 0.63287 0.40628 0.0
C1883 C 0.45017 0.61547 0.36095 0.0
C1884 C 0.463 0.62467 0.34573 0.0
C1885 C 0.4092 0.60513 0.35867 0.0
C1886 C 0.39304 0.5953 0.37427 0.0
C1887 C 0.37475 0.60106 0.39143 0.0
C1888 C 0.36051 0.59169 0.40618 0.0
C1889 C 0.36397 0.57654 0.40386 0.0
C1890 C 0.38143 0.57073 0.38675 0.0
C1891 C 0.39575 0.58005 0.37197 0.0
H1892 H 0.353 0.5693 0.4153 0.0
H1893 H 0.48723 0.66021 0.2715 0.0
H1894 H 0.7628 0.60094 0.44922 0.0
H1895 H 0.83484 0.60005 0.42679 0.0
H1896 H 0.83378 0.64713 0.42299 0.0
H1897 H 0.76185 0.64818 0.44537 0.0
H1898 H 0.81084 0.63332 0.38906 0.0
H1899 H 0.94134 0.63021 0.43899 0.0
H1900 H 0.98319 0.62024 0.4681 0.0
H1901 H 0.00179 0.57859 0.44097 0.0
H1902 H 0.95933 0.58824 0.41176 0.0
H1903 H 0.00423 0.64278 0.32031 0.0
H1904 H 0.95593 0.6433 0.34985 0.0
H1905 H 0.96522 0.59627 0.3537 0.0
H1906 H 0.01436 0.59561 0.32412 0.0
H1907 H 0.98635 0.60953 0.38816 0.0
H1908 H 0.85302 0.6113 0.33963 0.0
H1909 H 0.80831 0.62005 0.31038 0.0
H1910 H 0.79092 0.66269 0.33498 0.0
H1911 H 0.83624 0.65424 0.3643 0.0
C1912 C 0.77907 0.61115 0.44416 0.0
C1913 C 0.75566 0.62462 0.44875 0.0
C1914 C 0.82039 0.61061 0.43135 0.0
C1915 C 0.83907 0.62352 0.42306 0.0
C1916 C 0.81954 0.63704 0.42914 0.0
C1917 C 0.7784 0.63761 0.44196 0.0
C1918 C 0.87171 0.62284 0.40591 0.0
C1919 C 0.84971 0.62839 0.38896 0.0
C1920 C 0.92123 0.61577 0.40566 0.0
C1921 C 0.94665 0.60992 0.42323 0.0
C1922 C 0.95386 0.61888 0.43928 0.0
C1923 C 0.97782 0.6133 0.45579 0.0
C1924 C 0.99502 0.59878 0.45641 0.0
C1925 C 0.9884 0.58983 0.44049 0.0
C1926 C 0.96444 0.59536 0.42394 0.0
C1927 C 0.99598 0.63251 0.32736 0.0
C1928 C 0.01295 0.61913 0.31976 0.0
C1929 C 0.96834 0.63284 0.34427 0.0
C1930 C 0.95678 0.61982 0.35389 0.0
C1931 C 0.97388 0.60644 0.34648 0.0
C1932 C 0.00155 0.60609 0.3295 0.0
C1933 C 0.92575 0.62028 0.37146 0.0
C1934 C 0.94769 0.61457 0.38837 0.0
C1935 C 0.87568 0.62703 0.37171 0.0
C1936 C 0.84854 0.63218 0.35408 0.0
C1937 C 0.8401 0.62258 0.33874 0.0
C1938 C 0.81456 0.62748 0.32216 0.0
C1939 C 0.79692 0.64193 0.3208 0.0
C1940 C 0.80468 0.6515 0.33604 0.0
C1941 C 0.83027 0.64666 0.35265 0.0
H1942 H 0.77711 0.6457 0.30796 0.0
H1943 H 0.01358 0.59448 0.4692 0.0
H1944 H 0.47568 0.41736 0.18433 0.0
H1945 H 0.5357 0.42033 0.15813 0.0
H1946 H 0.62421 0.38265 0.17755 0.0
H1947 H 0.5615 0.37899 0.2031 0.0
H1948 H 0.62842 0.42442 0.14844 0.0
H1949 H 0.65994 0.36173 0.14175 0.0
H1950 H 0.61536 0.3389 0.15109 0.0
H1951 H 0.4667 0.36131 0.15123 0.0
H1952 H 0.51027 0.3842 0.14164 0.0
H1953 H 0.80872 0.4129 0.07522 0.0
H1954 H 0.75887 0.41445 0.10433 0.0
H1955 H 0.6351 0.3883 0.07859 0.0
H1956 H 0.68782 0.38563 0.05001 0.0
H1957 H 0.64621 0.37901 0.11067 0.0
H1958 H 0.62734 0.42789 0.08877 0.0
H1959 H 0.65439 0.45201 0.07663 0.0
H1960 H 0.74676 0.45943 0.12737 0.0
H1961 H 0.7208 0.43527 0.13973 0.0
C1962 C 0.50876 0.40993 0.18336 0.0
C1963 C 0.5134 0.39778 0.19554 0.0
C1964 C 0.54315 0.41164 0.16831 0.0
C1965 C 0.58345 0.40141 0.16543 0.0
C1966 C 0.59221 0.39037 0.17907 0.0
C1967 C 0.55675 0.38837 0.19379 0.0
C1968 C 0.61177 0.40134 0.14715 0.0
C1969 C 0.63252 0.41449 0.14019 0.0
C1970 C 0.61521 0.38853 0.13594 0.0
C1971 C 0.58849 0.3747 0.14118 0.0
C1972 C 0.61771 0.36175 0.14368 0.0
C1973 C 0.59263 0.34881 0.14903 0.0
C1974 C 0.53828 0.34866 0.15182 0.0
C1975 C 0.50882 0.36144 0.14913 0.0
C1976 C 0.53368 0.3744 0.14373 0.0
C1977 C 0.77045 0.40768 0.07571 0.0
C1978 C 0.7517 0.39926 0.06039 0.0
C1979 C 0.74173 0.40864 0.09235 0.0
C1980 C 0.69249 0.40174 0.0937 0.0
C1981 C 0.67299 0.3937 0.07804 0.0
C1982 C 0.70278 0.39226 0.06164 0.0
C1983 C 0.66304 0.40214 0.11179 0.0
C1984 C 0.6422 0.389 0.11879 0.0
C1985 C 0.65675 0.41516 0.12246 0.0
C1986 C 0.67249 0.42971 0.1151 0.0
C1987 C 0.65371 0.43463 0.09728 0.0
C1988 C 0.66881 0.44831 0.09037 0.0
C1989 C 0.70238 0.45723 0.1012 0.0
C1990 C 0.72081 0.4525 0.11899 0.0
C1991 C 0.70587 0.43882 0.12597 0.0
H1992 H 0.71402 0.46783 0.09582 0.0
H1993 H 0.51897 0.33865 0.15603 0.0
H1994 H 0.96105 0.36957 0.0655 0.0
H1995 H 0.03328 0.36857 0.08855 0.0
H1996 H 0.11449 0.40252 0.05798 0.0
H1997 H 0.03992 0.40427 0.03549 0.0
H1998 H 0.12954 0.3629 0.09071 0.0
H1999 H 0.18171 0.42391 0.08793 0.0
H2000 H 0.14159 0.44733 0.07776 0.0
H2001 H 0.98786 0.43056 0.08986 0.0
H2002 H 0.02715 0.4071 0.10024 0.0
H2003 H 0.33322 0.37263 0.15882 0.0
H2004 H 0.28123 0.37322 0.12936 0.0
H2005 H 0.16392 0.39974 0.15663 0.0
H2006 H 0.21785 0.39996 0.18581 0.0
H2007 H 0.1753 0.40941 0.12323 0.0
H2008 H 0.15118 0.3612 0.14905 0.0
H2009 H 0.17922 0.33719 0.16169 0.0
H2010 H 0.25471 0.32745 0.10915 0.0
H2011 H 0.22766 0.3515 0.09628 0.0
C2012 C 0.99458 0.3767 0.06355 0.0
C2013 C 0.99471 0.38715 0.04893 0.0
C2014 C 0.03601 0.37609 0.0767 0.0
C2015 C 0.07885 0.38569 0.07525 0.0
C2016 C 0.08109 0.39531 0.0597 0.0
C2017 C 0.03874 0.39625 0.04682 0.0
C2018 C 0.1184 0.38628 0.09092 0.0
C2019 C 0.13984 0.37308 0.09774 0.0
C2020 C 0.13122 0.39953 0.10029 0.0
C2021 C 0.10733 0.41373 0.09466 0.0
C2022 C 0.13938 0.42526 0.0885 0.0
C2023 C 0.11679 0.43853 0.08268 0.0
C2024 C 0.06221 0.44041 0.08311 0.0
C2025 C 0.03012 0.42907 0.08948 0.0
C2026 C 0.05251 0.41579 0.09533 0.0
C2027 C 0.29617 0.37852 0.15851 0.0
C2028 C 0.27898 0.3861 0.17457 0.0
C2029 C 0.2665 0.37884 0.1417 0.0
C2030 C 0.21818 0.38628 0.14088 0.0
C2031 C 0.20112 0.39393 0.15693 0.0
C2032 C 0.23162 0.39397 0.1736 0.0
C2033 C 0.18499 0.38597 0.12339 0.0
C2034 C 0.16534 0.39923 0.11612 0.0
C2035 C 0.17182 0.3727 0.11412 0.0
C2036 C 0.1879 0.35821 0.12179 0.0
C2037 C 0.17406 0.35398 0.14024 0.0
C2038 C 0.18973 0.34036 0.14744 0.0
C2039 C 0.21886 0.33082 0.13625 0.0
C2040 C 0.23223 0.33486 0.11781 0.0
C2041 C 0.21672 0.34848 0.11056 0.0
H2042 H 0.23097 0.32029 0.14185 0.0
H2043 H 0.04479 0.45067 0.07853 0.0
H2044 H 0.72505 0.36268 0.69814 0.0
H2045 H 0.64904 0.36137 0.67657 0.0
H2046 H 0.64031 0.40846 0.67512 0.0
H2047 H 0.71611 0.40996 0.69679 0.0
H2048 H 0.53997 0.39343 0.66854 0.0
H2049 H 0.72083 0.39516 0.64656 0.0
H2050 H 0.81299 0.38659 0.64715 0.0
H2051 H 0.76175 0.34345 0.63143 0.0
H2052 H 0.66913 0.35173 0.6311 0.0
H2053 H 0.47005 0.41028 0.57287 0.0
H2054 H 0.51529 0.40882 0.60379 0.0
H2055 H 0.52925 0.36203 0.59774 0.0
H2056 H 0.48423 0.36335 0.56686 0.0
H2057 H 0.62118 0.37511 0.60951 0.0
H2058 H 0.43985 0.37484 0.6264 0.0
H2059 H 0.34804 0.38361 0.62662 0.0
H2060 H 0.39894 0.42407 0.65178 0.0
H2061 H 0.49121 0.41563 0.65145 0.0
C2062 C 0.70588 0.37277 0.69381 0.0
C2063 C 0.7277 0.38644 0.69858 0.0
C2064 C 0.66223 0.37198 0.68159 0.0
C2065 C 0.64019 0.38483 0.67399 0.0
C2066 C 0.65717 0.39844 0.68081 0.0
C2067 C 0.70082 0.39926 0.69306 0.0
C2068 C 0.60925 0.38418 0.65615 0.0
C2069 C 0.55748 0.38947 0.65559 0.0
C2070 C 0.63244 0.37891 0.63939 0.0
C2071 C 0.68812 0.37402 0.63899 0.0
C2072 C 0.72924 0.38383 0.64333 0.0
C2073 C 0.78153 0.37903 0.64362 0.0
C2074 C 0.79321 0.36447 0.63937 0.0
C2075 C 0.75262 0.35471 0.63475 0.0
C2076 C 0.70023 0.35945 0.63451 0.0
C2077 C 0.48322 0.3997 0.57803 0.0
C2078 C 0.47358 0.38693 0.56745 0.0
C2079 C 0.50851 0.39887 0.59576 0.0
C2080 C 0.52467 0.38529 0.60309 0.0
C2081 C 0.51658 0.37259 0.59233 0.0
C2082 C 0.491 0.37338 0.57469 0.0
C2083 C 0.55154 0.38435 0.62177 0.0
C2084 C 0.60303 0.37887 0.62245 0.0
C2085 C 0.52799 0.38951 0.63854 0.0
C2086 C 0.47255 0.39465 0.63872 0.0
C2087 C 0.43155 0.38566 0.63181 0.0
C2088 C 0.3794 0.39056 0.63199 0.0
C2089 C 0.36768 0.4044 0.63916 0.0
C2090 C 0.40809 0.41336 0.64621 0.0
C2091 C 0.46032 0.40852 0.64604 0.0
H2092 H 0.32728 0.40817 0.6393 0.0
H2093 H 0.83371 0.36077 0.63962 0.0
H2094 H 0.96557 0.36855 0.66251 0.0
H2095 H 0.01517 0.37031 0.63331 0.0
H2096 H 0.02958 0.41698 0.64084 0.0
H2097 H 0.97879 0.41539 0.66994 0.0
H2098 H 0.00855 0.41045 0.60421 0.0
H2099 H 0.13201 0.39486 0.65202 0.0
H2100 H 0.16654 0.3797 0.67843 0.0
H2101 H 0.16196 0.34173 0.64264 0.0
H2102 H 0.1267 0.35664 0.61606 0.0
H2103 H 0.2422 0.41734 0.54717 0.0
H2104 H 0.17038 0.41841 0.56977 0.0
H2105 H 0.13965 0.3725 0.56096 0.0
H2106 H 0.21112 0.37129 0.53844 0.0
H2107 H 0.16785 0.37955 0.59791 0.0
H2108 H 0.04779 0.3967 0.54916 0.0
H2109 H 0.01759 0.41304 0.52329 0.0
H2110 H 0.02177 0.44963 0.56142 0.0
H2111 H 0.05276 0.43353 0.58748 0.0
C2112 C 0.97936 0.3792 0.65803 0.0
C2113 C 0.96866 0.39181 0.66867 0.0
C2114 C 0.00768 0.38019 0.64131 0.0
C2115 C 0.02657 0.39376 0.63504 0.0
C2116 C 0.01532 0.40641 0.64544 0.0
C2117 C 0.9866 0.40545 0.66213 0.0
C2118 C 0.05938 0.39459 0.61792 0.0
C2119 C 0.04372 0.40383 0.60287 0.0
C2120 C 0.10498 0.38585 0.61616 0.0
C2121 C 0.1262 0.37684 0.63211 0.0
C2122 C 0.13796 0.38325 0.64982 0.0
C2123 C 0.15774 0.37471 0.66481 0.0
C2124 C 0.1663 0.35975 0.66223 0.0
C2125 C 0.15523 0.35332 0.64463 0.0
C2126 C 0.13539 0.36181 0.62959 0.0
C2127 C 0.21903 0.40758 0.54954 0.0
C2128 C 0.23307 0.39416 0.5413 0.0
C2129 C 0.17794 0.40823 0.56245 0.0
C2130 C 0.15023 0.39549 0.56715 0.0
C2131 C 0.16092 0.38242 0.55759 0.0
C2132 C 0.20184 0.38176 0.54472 0.0
C2133 C 0.11649 0.39516 0.58401 0.0
C2134 C 0.13242 0.3861 0.59915 0.0
C2135 C 0.07183 0.40424 0.58588 0.0
C2136 C 0.05311 0.41392 0.57023 0.0
C2137 C 0.04276 0.40825 0.552 0.0
C2138 C 0.02538 0.41746 0.5373 0.0
C2139 C 0.0179 0.43237 0.5407 0.0
C2140 C 0.02764 0.43808 0.55881 0.0
C2141 C 0.04506 0.42891 0.57355 0.0
H2142 H 0.00444 0.43948 0.5293 0.0
H2143 H 0.18162 0.35316 0.67385 0.0
H2144 H 0.00675 0.11432 0.68925 0.0
H2145 H 0.98558 0.11678 0.65522 0.0
H2146 H 0.12085 0.14478 0.64858 0.0
H2147 H 0.14182 0.14235 0.68253 0.0
H2148 H 0.03474 0.15493 0.6285 0.0
H2149 H 0.12736 0.10889 0.63833 0.0
H2150 H 0.1396 0.08445 0.65264 0.0
H2151 H 0.99028 0.07073 0.62927 0.0
H2152 H 0.97679 0.09519 0.61506 0.0
H2153 H 0.12667 0.14723 0.53567 0.0
H2154 H 0.10758 0.1488 0.56946 0.0
H2155 H 0.97666 0.11919 0.56148 0.0
H2156 H 0.99604 0.11759 0.52753 0.0
H2157 H 0.04027 0.11005 0.58909 0.0
H2158 H 0.95552 0.1549 0.57421 0.0
H2159 H 0.94445 0.17922 0.55949 0.0
H2160 H 0.07754 0.1953 0.59161 0.0
H2161 H 0.08992 0.17102 0.60635 0.0
C2162 C 0.03179 0.12098 0.68044 0.0
C2163 C 0.07602 0.12808 0.6883 0.0
C2164 C 0.01961 0.12243 0.66111 0.0
C2165 C 0.05182 0.13091 0.64941 0.0
C2166 C 0.09535 0.13826 0.6574 0.0
C2167 C 0.10744 0.13682 0.6767 0.0
C2168 C 0.04249 0.13147 0.62864 0.0
C2169 C 0.036 0.14515 0.61982 0.0
C2170 C 0.04243 0.11864 0.61745 0.0
C2171 C 0.05077 0.10391 0.62585 0.0
C2172 C 0.09696 0.1007 0.63637 0.0
C2173 C 0.10414 0.08684 0.64445 0.0
C2174 C 0.06567 0.07606 0.64192 0.0
C2175 C 0.01999 0.0791 0.63125 0.0
C2176 C 0.01255 0.09296 0.62319 0.0
C2177 C 0.09302 0.14137 0.54107 0.0
C2178 C 0.06284 0.13226 0.52915 0.0
C2179 C 0.08202 0.14229 0.56034 0.0
C2180 C 0.04038 0.13421 0.56796 0.0
C2181 C 0.00888 0.12554 0.55587 0.0
C2182 C 0.01997 0.1246 0.53657 0.0
C2183 C 0.03396 0.13357 0.58879 0.0
C2184 C 0.0376 0.11985 0.59768 0.0
C2185 C 0.03135 0.14638 0.59999 0.0
C2186 C 0.02381 0.16108 0.59132 0.0
C2187 C 0.98265 0.16359 0.57806 0.0
C2188 C 0.97611 0.17738 0.56972 0.0
C2189 C 0.01032 0.18879 0.57459 0.0
C2190 C 0.05106 0.18644 0.58786 0.0
C2191 C 0.0578 0.17267 0.59624 0.0
H2192 H 0.00524 0.19945 0.5681 0.0
H2193 H 0.07131 0.06534 0.64817 0.0
H2194 H 0.92532 0.87654 0.44973 0.0
H2195 H 0.93813 0.87604 0.41535 0.0
H2196 H 0.81387 0.90786 0.40764 0.0
H2197 H 0.80125 0.90841 0.44221 0.0
H2198 H 0.80635 0.88299 0.38337 0.0
H2199 H 0.93194 0.9193 0.40311 0.0
H2200 H 0.00544 0.9292 0.42249 0.0
H2201 H 0.10724 0.89533 0.4023 0.0
H2202 H 0.03404 0.88508 0.38302 0.0
H2203 H 0.85036 0.90226 0.28821 0.0
H2204 H 0.84069 0.90293 0.32265 0.0
H2205 H 0.97086 0.87286 0.3294 0.0
H2206 H 0.98104 0.87235 0.2947 0.0
H2207 H 0.97617 0.89652 0.35428 0.0
H2208 H 0.85159 0.86026 0.33437 0.0
H2209 H 0.77833 0.85009 0.31512 0.0
H2210 H 0.67488 0.88339 0.33578 0.0
H2211 H 0.7478 0.89391 0.35493 0.0
C2212 C 0.90092 0.88342 0.44063 0.0
C2213 C 0.86226 0.89248 0.44833 0.0
C2214 C 0.90833 0.88317 0.4211 0.0
C2215 C 0.87705 0.89196 0.40909 0.0
C2216 C 0.83829 0.90102 0.41678 0.0
C2217 C 0.83122 0.90137 0.43639 0.0
C2218 C 0.88449 0.89144 0.38843 0.0
C2219 C 0.84314 0.88615 0.37693 0.0
C2220 C 0.93314 0.89515 0.38027 0.0
C2221 C 0.97734 0.90134 0.39177 0.0
C2222 C 0.96986 0.91388 0.40293 0.0
C2223 C 0.01149 0.91957 0.41388 0.0
C2224 C 0.06095 0.91288 0.41366 0.0
C2225 C 0.06889 0.9005 0.40247 0.0
C2226 C 0.02735 0.89475 0.39152 0.0
C2227 C 0.87715 0.89591 0.29709 0.0
C2228 C 0.91674 0.88736 0.28903 0.0
C2229 C 0.87137 0.8962 0.31668 0.0
C2230 C 0.90485 0.88786 0.32847 0.0
C2231 C 0.94472 0.87936 0.32045 0.0
C2232 C 0.9504 0.87903 0.30077 0.0
C2233 C 0.89792 0.88813 0.34918 0.0
C2234 C 0.93938 0.89335 0.36071 0.0
C2235 C 0.84939 0.8843 0.35738 0.0
C2236 C 0.80532 0.87796 0.34596 0.0
C2237 C 0.81334 0.86549 0.33469 0.0
C2238 C 0.77185 0.85965 0.32382 0.0
C2239 C 0.72201 0.8661 0.3242 0.0
C2240 C 0.71353 0.8784 0.33549 0.0
C2241 C 0.75492 0.88431 0.34637 0.0
H2242 H 0.68993 0.86156 0.31577 0.0
H2243 H 0.09314 0.9173 0.42214 0.0
H2244 H 0.20395 0.6165 0.0505 0.0
H2245 H 0.18601 0.61621 0.08458 0.0
H2246 H 0.04533 0.6418 0.07436 0.0
H2247 H 0.06379 0.64223 0.04025 0.0
H2248 H 0.10036 0.65028 0.10689 0.0
H2249 H 0.03501 0.60595 0.07831 0.0
H2250 H 0.04276 0.58378 0.05867 0.0
H2251 H 0.16396 0.5673 0.09628 0.0
H2252 H 0.15764 0.58951 0.11596 0.0
H2253 H -0.00178 0.6345 0.19779 0.0
H2254 H 0.00375 0.63602 0.16305 0.0
H2255 H 0.14123 0.60818 0.16497 0.0
H2256 H 0.13489 0.60643 0.19947 0.0
H2257 H 0.07919 0.60111 0.13581 0.0
H2258 H 0.15052 0.64554 0.16288 0.0
H2259 H 0.14702 0.66786 0.18244 0.0
H2260 H 0.01887 0.6842 0.14786 0.0
H2261 H 0.021 0.66185 0.12829 0.0
C2262 C 0.1697 0.62221 0.05567 0.0
C2263 C 0.13505 0.62934 0.04303 0.0
C2264 C 0.15941 0.62203 0.07501 0.0
C2265 C 0.11392 0.6288 0.08185 0.0
C2266 C 0.08054 0.63651 0.06929 0.0
C2267 C 0.09101 0.63674 0.04992 0.0
C2268 C 0.0997 0.62705 0.10191 0.0
C2269 C 0.0949 0.63956 0.11319 0.0
C2270 C 0.09333 0.61302 0.11005 0.0
C2271 C 0.09607 0.59944 0.09854 0.0
C2272 C 0.06348 0.59763 0.08235 0.0
C2273 C 0.06763 0.58506 0.0712 0.0
C2274 C 0.10387 0.57415 0.07621 0.0
C2275 C 0.13591 0.57576 0.09241 0.0
C2276 C 0.13204 0.58834 0.10358 0.0
C2277 C 0.02899 0.62857 0.19063 0.0
C2278 C 0.06597 0.6203 0.20105 0.0
C2279 C 0.03231 0.62948 0.17091 0.0
C2280 C 0.07329 0.62234 0.16152 0.0
C2281 C 0.10923 0.61372 0.17195 0.0
C2282 C 0.10559 0.61271 0.1916 0.0
C2283 C 0.0807 0.62434 0.14094 0.0
C2284 C 0.0841 0.61185 0.12951 0.0
C2285 C 0.08618 0.63839 0.13272 0.0
C2286 C 0.08555 0.65196 0.14425 0.0
C2287 C 0.12138 0.65386 0.15952 0.0
C2288 C 0.11965 0.66651 0.1706 0.0
C2289 C 0.08266 0.67742 0.16642 0.0
C2290 C 0.04744 0.67573 0.1511 0.0
C2291 C 0.04889 0.66307 0.14001 0.0
H2292 H 0.08137 0.68721 0.17502 0.0
H2293 H 0.10707 0.56443 0.06755 0.0
H2294 H 0.79328 0.37763 0.93964 0.0
H2295 H 0.81216 0.37627 0.90563 0.0
H2296 H 0.96084 0.39805 0.9158 0.0
H2297 H 0.94182 0.39946 0.94971 0.0
H2298 H 0.90735 0.40988 0.88613 0.0
H2299 H 0.95705 0.36181 0.90717 0.0
H2300 H 0.9443 0.33812 0.92322 0.0
H2301 H 0.8146 0.32833 0.88538 0.0
H2302 H 0.82601 0.35208 0.86929 0.0
H2303 H 0.99135 0.39938 0.79143 0.0
H2304 H 0.98967 0.39847 0.8263 0.0
H2305 H 0.84344 0.37438 0.82325 0.0
H2306 H 0.84633 0.37487 0.78857 0.0
H2307 H 0.90481 0.36335 0.84998 0.0
H2308 H 0.84888 0.41188 0.83099 0.0
H2309 H 0.85897 0.43568 0.81493 0.0
H2310 H 0.99713 0.44471 0.84899 0.0
H2311 H 0.98834 0.42083 0.86504 0.0
C2312 C 0.82997 0.38204 0.93451 0.0
C2313 C 0.86598 0.38874 0.94705 0.0
C2314 C 0.84083 0.38124 0.9152 0.0
C2315 C 0.88808 0.38698 0.90829 0.0
C2316 C 0.92415 0.3936 0.92089 0.0
C2317 C 0.91325 0.39443 0.94016 0.0
C2318 C 0.89924 0.38645 0.88782 0.0
C2319 C 0.90768 0.39969 0.87825 0.0
C2320 C 0.89871 0.37316 0.87759 0.0
C2321 C 0.89215 0.35879 0.88712 0.0
C2322 C 0.92557 0.35466 0.90235 0.0
C2323 C 0.91861 0.34121 0.91145 0.0
C2324 C 0.8786 0.33174 0.90534 0.0
C2325 C 0.84555 0.33568 0.8901 0.0
C2326 C 0.85228 0.34913 0.88097 0.0
C2327 C 0.9593 0.39381 0.79836 0.0
C2328 C 0.91908 0.38715 0.78761 0.0
C2329 C 0.95818 0.39333 0.81816 0.0
C2330 C 0.9161 0.38648 0.82733 0.0
C2331 C 0.87635 0.37965 0.81647 0.0
C2332 C 0.87788 0.37997 0.79674 0.0
C2333 C 0.91202 0.3868 0.84822 0.0
C2334 C 0.90499 0.37352 0.85789 0.0
C2335 C 0.91343 0.40007 0.85853 0.0
C2336 C 0.91827 0.41451 0.84908 0.0
C2337 C 0.8816 0.4189 0.83497 0.0
C2338 C 0.88708 0.43241 0.82587 0.0
C2339 C 0.92874 0.44169 0.83091 0.0
C2340 C 0.96493 0.4375 0.84509 0.0
C2341 C 0.95972 0.42398 0.85419 0.0
H2342 H 0.93292 0.45214 0.82385 0.0
H2343 H 0.87327 0.32133 0.91241 0.0
H2344 H 0.64649 0.13631 0.19013 0.0
H2345 H 0.63433 0.1386 0.15571 0.0
H2346 H 0.49631 0.11116 0.15801 0.0
H2347 H 0.50833 0.10897 0.19265 0.0
H2348 H 0.56323 0.10354 0.12913 0.0
H2349 H 0.47928 0.14651 0.15161 0.0
H2350 H 0.47084 0.16888 0.17081 0.0
H2351 H 0.60298 0.18786 0.14269 0.0
H2352 H 0.61282 0.1655 0.12353 0.0
H2353 H 0.51522 0.11739 0.0316 0.0
H2354 H 0.49809 0.11733 0.06574 0.0
H2355 H 0.63376 0.14496 0.0754 0.0
H2356 H 0.65042 0.14515 0.04123 0.0
H2357 H 0.55265 0.15237 0.09831 0.0
H2358 H 0.64347 0.10817 0.07942 0.0
H2359 H 0.65301 0.08584 0.06019 0.0
H2360 H 0.50782 0.06918 0.0818 0.0
H2361 H 0.49699 0.09155 0.10094 0.0
C2362 C 0.61337 0.13088 0.18326 0.0
C2363 C 0.57799 0.1226 0.19388 0.0
C2364 C 0.60643 0.13219 0.16367 0.0
C2365 C 0.56396 0.12523 0.15441 0.0
C2366 C 0.52912 0.11667 0.16496 0.0
C2367 C 0.53599 0.11541 0.18463 0.0
C2368 C 0.557 0.12677 0.13364 0.0
C2369 C 0.55974 0.11418 0.12237 0.0
C2370 C 0.55317 0.14069 0.12491 0.0
C2371 C 0.54698 0.15427 0.13621 0.0
C2372 C 0.50677 0.15541 0.1496 0.0
C2373 C 0.50171 0.16809 0.16047 0.0
C2374 C 0.5364 0.17977 0.15799 0.0
C2375 C 0.57614 0.1788 0.1446 0.0
C2376 C 0.58144 0.16613 0.13371 0.0
C2377 C 0.54085 0.12358 0.04106 0.0
C2378 C 0.58441 0.13114 0.03401 0.0
C2379 C 0.53108 0.12355 0.06048 0.0
C2380 C 0.56518 0.13095 0.07308 0.0
C2381 C 0.60703 0.13918 0.06589 0.0
C2382 C 0.61658 0.13927 0.04644 0.0
C2383 C 0.56009 0.12918 0.09383 0.0
C2384 C 0.55514 0.14172 0.10508 0.0
C2385 C 0.56194 0.11521 0.10255 0.0
C2386 C 0.56913 0.1016 0.09145 0.0
C2387 C 0.61345 0.09978 0.08 0.0
C2388 C 0.61909 0.08712 0.06912 0.0
C2389 C 0.58096 0.07613 0.06973 0.0
C2390 C 0.53726 0.07773 0.08131 0.0
C2391 C 0.53135 0.09039 0.09219 0.0
H2392 H 0.58531 0.06637 0.06124 0.0
H2393 H 0.53244 0.18958 0.16643 0.0
H2394 H 0.42349 0.90655 0.79124 0.0
H2395 H 0.44084 0.90691 0.82568 0.0
H2396 H 0.31826 0.87489 0.83352 0.0
H2397 H 0.30129 0.87444 0.7991 0.0
H2398 H 0.31908 0.89827 0.86046 0.0
H2399 H 0.43574 0.86309 0.83207 0.0
H2400 H 0.50301 0.85538 0.80938 0.0
H2401 H 0.61169 0.88669 0.83304 0.0
H2402 H 0.54462 0.89479 0.85566 0.0
H2403 H 0.36823 0.86893 0.94936 0.0
H2404 H 0.36361 0.86944 0.9147 0.0
H2405 H 0.49216 0.90027 0.91386 0.0
H2406 H 0.49768 0.89952 0.94873 0.0
H2407 H 0.49245 0.8794 0.8834 0.0
H2408 H 0.37797 0.91394 0.91274 0.0
H2409 H 0.3113 0.92162 0.93566 0.0
H2410 H 0.19913 0.8921 0.91021 0.0
H2411 H 0.26556 0.88402 0.88735 0.0
C2412 C 0.39978 0.89982 0.80044 0.0
C2413 C 0.36111 0.89049 0.7928 0.0
C2414 C 0.4098 0.89998 0.81998 0.0
C2415 C 0.38099 0.89086 0.83199 0.0
C2416 C 0.34075 0.88201 0.8244 0.0
C2417 C 0.33116 0.88173 0.80486 0.0
C2418 C 0.3946 0.88987 0.85236 0.0
C2419 C 0.3568 0.89407 0.8655 0.0
C2420 C 0.44434 0.88468 0.85879 0.0
C2421 C 0.48497 0.87966 0.84541 0.0
C2422 C 0.47382 0.86842 0.83233 0.0
C2423 C 0.51193 0.86397 0.8195 0.0
C2424 C 0.56156 0.87057 0.81973 0.0
C2425 C 0.57321 0.88161 0.83285 0.0
C2426 C 0.53516 0.88613 0.84568 0.0
C2427 C 0.39667 0.87542 0.94176 0.0
C2428 C 0.43324 0.88423 0.95155 0.0
C2429 C 0.39379 0.87577 0.92201 0.0
C2430 C 0.42704 0.88506 0.91185 0.0
C2431 C 0.46618 0.89307 0.92153 0.0
C2432 C 0.46916 0.89268 0.94135 0.0
C2433 C 0.41659 0.8876 0.89147 0.0
C2434 C 0.45493 0.88373 0.87835 0.0
C2435 C 0.36742 0.89318 0.88502 0.0
C2436 C 0.32689 0.89829 0.89842 0.0
C2437 C 0.3392 0.90901 0.9121 0.0
C2438 C 0.30145 0.91344 0.92508 0.0
C2439 C 0.25102 0.90734 0.92441 0.0
C2440 C 0.23822 0.89682 0.91072 0.0
C2441 C 0.2759 0.89231 0.89773 0.0
H2442 H 0.22184 0.91077 0.93448 0.0
H2443 H 0.59103 0.8671 0.80979 0.0
H2444 H 0.49157 0.61704 0.53838 0.0
H2445 H 0.49858 0.61595 0.57312 0.0
H2446 H 0.62841 0.6464 0.57205 0.0
H2447 H 0.62243 0.64712 0.53739 0.0
H2448 H 0.6538 0.62177 0.59067 0.0
H2449 H 0.51001 0.65603 0.59052 0.0
H2450 H 0.42144 0.66525 0.58195 0.0
H2451 H 0.35148 0.62777 0.60828 0.0
H2452 H 0.4397 0.61822 0.61679 0.0
H2453 H 0.68963 0.63497 0.68891 0.0
H2454 H 0.67269 0.63664 0.65462 0.0
H2455 H 0.54672 0.60522 0.65934 0.0
H2456 H 0.56312 0.60376 0.69375 0.0
H2457 H 0.51681 0.6293 0.63897 0.0
H2458 H 0.65925 0.59517 0.6395 0.0
H2459 H 0.74734 0.58558 0.64801 0.0
H2460 H 0.81924 0.62231 0.62064 0.0
H2461 H 0.73153 0.63224 0.6122 0.0
C2462 C 0.52066 0.62374 0.54569 0.0
C2463 C 0.55645 0.63216 0.53539 0.0
C2464 C 0.52457 0.62316 0.56546 0.0
C2465 C 0.56405 0.6311 0.5751 0.0
C2466 C 0.59774 0.64019 0.56483 0.0
C2467 C 0.594 0.64071 0.54509 0.0
C2468 C 0.57408 0.62873 0.59558 0.0
C2469 C 0.6241 0.62365 0.60127 0.0
C2470 C 0.5346 0.63061 0.60924 0.0
C2471 C 0.48151 0.63634 0.60412 0.0
C2472 C 0.47577 0.64968 0.59433 0.0
C2473 C 0.42561 0.65499 0.58952 0.0
C2474 C 0.38086 0.64708 0.59453 0.0
C2475 C 0.38617 0.63388 0.6044 0.0
C2476 C 0.43624 0.62852 0.60923 0.0
C2477 C 0.65878 0.62833 0.68251 0.0
C2478 C 0.62769 0.61923 0.69375 0.0
C2479 C 0.64921 0.62924 0.66301 0.0
C2480 C 0.60861 0.62099 0.6545 0.0
C2481 C 0.5782 0.61165 0.6657 0.0
C2482 C 0.58785 0.61073 0.68523 0.0
C2483 C 0.59678 0.62261 0.63402 0.0
C2484 C 0.54644 0.62744 0.62833 0.0
C2485 C 0.63589 0.62045 0.62031 0.0
C2486 C 0.68876 0.61452 0.62537 0.0
C2487 C 0.69382 0.60127 0.63544 0.0
C2488 C 0.7437 0.59576 0.64022 0.0
C2489 C 0.78886 0.60335 0.63491 0.0
C2490 C 0.78423 0.61645 0.62476 0.0
C2491 C 0.73444 0.62202 0.61996 0.0
H2492 H 0.82744 0.59906 0.63862 0.0
H2493 H 0.34207 0.65121 0.59079 0.0
H2494 H 0.41779 0.36462 0.29327 0.0
H2495 H 0.41544 0.363 0.32787 0.0
H2496 H 0.26315 0.38404 0.32718 0.0
H2497 H 0.26549 0.38561 0.2924 0.0
H2498 H 0.33298 0.39785 0.3499 0.0
H2499 H 0.27431 0.3489 0.34142 0.0
H2500 H 0.27415 0.32383 0.32859 0.0
H2501 H 0.42673 0.31604 0.3539 0.0
H2502 H 0.42822 0.34115 0.36665 0.0
H2503 H 0.31971 0.39379 0.45022 0.0
H2504 H 0.30011 0.39071 0.4163 0.0
H2505 H 0.44984 0.36912 0.40943 0.0
H2506 H 0.46887 0.37197 0.44358 0.0
H2507 H 0.37052 0.35482 0.39101 0.0
H2508 H 0.43248 0.40461 0.39635 0.0
H2509 H 0.43278 0.42971 0.40913 0.0
H2510 H 0.27331 0.43582 0.38933 0.0
H2511 H 0.2718 0.41066 0.37668 0.0
C2512 C 0.38324 0.36852 0.30051 0.0
C2513 C 0.34185 0.37527 0.29038 0.0
C2514 C 0.38186 0.36757 0.32022 0.0
C2515 C 0.33896 0.37332 0.33002 0.0
C2516 C 0.2965 0.37951 0.31981 0.0
C2517 C 0.29787 0.38043 0.30007 0.0
C2518 C 0.34169 0.3744 0.3509 0.0
C2519 C 0.33999 0.3884 0.35896 0.0
C2520 C 0.35217 0.36209 0.36255 0.0
C2521 C 0.35152 0.34697 0.35488 0.0
C2522 C 0.30805 0.34189 0.34412 0.0
C2523 C 0.30768 0.32766 0.33688 0.0
C2524 C 0.35044 0.31836 0.3404 0.0
C2525 C 0.39364 0.32326 0.35118 0.0
C2526 C 0.39423 0.33749 0.35844 0.0
C2527 C 0.34849 0.38853 0.44135 0.0
C2528 C 0.396 0.38327 0.44917 0.0
C2529 C 0.33729 0.38674 0.42208 0.0
C2530 C 0.37379 0.37982 0.41039 0.0
C2531 C 0.42125 0.37449 0.41827 0.0
C2532 C 0.43229 0.3762 0.43762 0.0
C2533 C 0.36262 0.37827 0.38988 0.0
C2534 C 0.36281 0.36421 0.38194 0.0
C2535 C 0.3508 0.39053 0.37829 0.0
C2536 C 0.35186 0.4057 0.38574 0.0
C2537 C 0.39735 0.41127 0.39484 0.0
C2538 C 0.39775 0.42551 0.40205 0.0
C2539 C 0.35305 0.43434 0.40008 0.0
C2540 C 0.30789 0.42896 0.39086 0.0
C2541 C 0.30724 0.41472 0.38366 0.0
H2542 H 0.35344 0.44536 0.40567 0.0
H2543 H 0.35007 0.30734 0.33479 0.0
loop_
_geom_bond_atom_site_label_1
_geom_bond_atom_site_label_2
_geom_bond_distance
_geom_bond_site_symmetry_2
_ccdc_geom_bond_type
Co0 O3 1.970 . S
Co0 N17 1.989 . S
Co0 O25 1.967 . S
Co0 O32 1.920 . S
Co1 O4 1.966 . S
Co1 N10 2.022 . S
Co1 N18 1.993 . S
Co1 O26 1.941 . S
C2 O3 1.258 . S
C2 O4 1.263 . S
O3 Co0 1.970 . S
O3 C2 1.258 . S
O4 Co1 1.966 . S
O4 C2 1.263 . S
C5 O6 1.235 . S
C5 O32 1.289 . S
O6 C5 1.235 . S
C7 C9 1.400 . S
C7 N10 1.351 . S
C7 C12 1.501 . S
C8 C9 1.387 . S
C8 N11 1.341 . S
C9 C7 1.400 . S
C9 C8 1.387 . S
N10 Co1 2.022 . S
N10 C7 1.351 . S
N10 N11 1.365 . S
N11 C8 1.341 . S
N11 N10 1.365 . S
N11 H31 0.862 . S
C12 C7 1.501 . S
C12 H13 0.961 . S
C12 H14 0.961 . S
C12 H15 0.960 . S
H13 C12 0.961 . S
H14 C12 0.961 . S
H15 C12 0.960 . S
C16 N17 1.342 . S
C16 C20 1.401 . S
C16 C21 1.499 . S
N17 Co0 1.989 . S
N17 C16 1.342 . S
N17 N18 1.388 . S
N18 Co1 1.993 . S
N18 N17 1.388 . S
N18 C19 1.346 . S
C19 N18 1.346 . S
C19 C20 1.396 . S
C19 C29 1.510 . S
C20 C16 1.401 . S
C20 C19 1.396 . S
C21 C16 1.499 . S
C21 H22 0.959 . S
C21 H23 0.960 . S
C21 H24 0.961 . S
H22 C21 0.959 . S
H23 C21 0.960 . S
H24 C21 0.961 . S
O25 Co0 1.967 . S
O25 C33 1.258 . S
O26 Co1 1.941 . S
O26 C33 1.266 . S
H27 C29 0.959 . S
H28 C29 0.961 . S
C29 C19 1.510 . S
C29 H27 0.959 . S
C29 H28 0.961 . S
C29 H30 0.960 . S
H30 C29 0.960 . S
H31 N11 0.862 . S
O32 Co0 1.920 . S
O32 C5 1.289 . S
C33 O25 1.258 . S
C33 O26 1.266 . S
Co34 O37 1.970 . S
Co34 N51 1.989 . S
Co34 O59 1.967 . S
Co34 O66 1.920 . S
Co35 O38 1.966 . S
Co35 N44 2.022 . S
Co35 N52 1.993 . S
Co35 O60 1.941 . S
C36 O37 1.258 . S
C36 O38 1.263 . S
O37 Co34 1.970 . S
O37 C36 1.258 . S
O38 Co35 1.966 . S
O38 C36 1.263 . S
C39 O40 1.235 . S
C39 O66 1.289 . S
O40 C39 1.235 . S
C41 C43 1.400 . S
C41 N44 1.351 . S
C41 C46 1.501 . S
C42 C43 1.387 . S
C42 N45 1.341 . S
C43 C41 1.400 . S
C43 C42 1.387 . S
N44 Co35 2.022 . S
N44 C41 1.351 . S
N44 N45 1.365 . S
N45 C42 1.341 . S
N45 N44 1.365 . S
N45 H65 0.862 . S
C46 C41 1.501 . S
C46 H47 0.961 . S
C46 H48 0.961 1_455 S
C46 H49 0.960 1_455 S
H47 C46 0.961 . S
H48 C46 0.961 1_655 S
H49 C46 0.960 1_655 S
C50 N51 1.342 . S
C50 C54 1.401 . S
C50 C55 1.499 . S
N51 Co34 1.989 . S
N51 C50 1.342 . S
N51 N52 1.388 . S
N52 Co35 1.993 . S
N52 N51 1.388 . S
N52 C53 1.346 . S
C53 N52 1.346 . S
C53 C54 1.396 . S
C53 C63 1.510 . S
C54 C50 1.401 . S
C54 C53 1.396 . S
C55 C50 1.499 . S
C55 H56 0.959 . S
C55 H57 0.960 . S
C55 H58 0.961 . S
H56 C55 0.959 . S
H57 C55 0.960 . S
H58 C55 0.961 . S
O59 Co34 1.967 . S
O59 C67 1.258 . S
O60 Co35 1.941 . S
O60 C67 1.266 . S
H61 C63 0.959 . S
H62 C63 0.961 . S
C63 C53 1.510 . S
C63 H61 0.959 . S
C63 H62 0.961 . S
C63 H64 0.960 . S
H64 C63 0.960 . S
H65 N45 0.862 . S
O66 Co34 1.920 . S
O66 C39 1.289 . S
C67 O59 1.258 . S
C67 O60 1.266 . S
Co68 O71 1.970 . S
Co68 N85 1.989 . S
Co68 O93 1.967 . S
Co68 O100 1.920 . S
Co69 O72 1.966 . S
Co69 N78 2.022 . S
Co69 N86 1.993 . S
Co69 O94 1.941 . S
C70 O71 1.258 . S
C70 O72 1.263 . S
O71 Co68 1.970 . S
O71 C70 1.258 . S
O72 Co69 1.966 . S
O72 C70 1.263 . S
C73 O74 1.235 . S
C73 O100 1.289 . S
O74 C73 1.235 . S
C75 C77 1.400 . S
C75 N78 1.351 . S
C75 C80 1.501 . S
C76 C77 1.387 . S
C76 N79 1.341 . S
C77 C75 1.400 . S
C77 C76 1.387 . S
N78 Co69 2.022 . S
N78 C75 1.351 . S
N78 N79 1.365 . S
N79 C76 1.341 . S
N79 N78 1.365 . S
N79 H99 0.862 . S
C80 C75 1.501 . S
C80 H81 0.961 . S
C80 H82 0.961 . S
C80 H83 0.960 . S
H81 C80 0.961 . S
H82 C80 0.961 . S
H83 C80 0.960 . S
C84 N85 1.342 . S
C84 C88 1.401 . S
C84 C89 1.499 . S
N85 Co68 1.989 . S
N85 C84 1.342 . S
N85 N86 1.388 . S
N86 Co69 1.993 . S
N86 N85 1.388 . S
N86 C87 1.346 . S
C87 N86 1.346 . S
C87 C88 1.396 . S
C87 C97 1.510 . S
C88 C84 1.401 . S
C88 C87 1.396 . S
C89 C84 1.499 . S
C89 H90 0.959 . S
C89 H91 0.960 . S
C89 H92 0.961 . S
H90 C89 0.959 . S
H91 C89 0.960 . S
H92 C89 0.961 . S
O93 Co68 1.967 . S
O93 C101 1.258 . S
O94 Co69 1.941 . S
O94 C101 1.266 . S
H95 C97 0.959 . S
H96 C97 0.961 . S
C97 C87 1.510 . S
C97 H95 0.959 . S
C97 H96 0.961 . S
C97 H98 0.960 . S
H98 C97 0.960 . S
H99 N79 0.862 . S
O100 Co68 1.920 . S
O100 C73 1.289 . S
C101 O93 1.258 . S
C101 O94 1.266 . S
Co102 O105 1.970 . S
Co102 N119 1.989 . S
Co102 O127 1.967 . S
Co102 O134 1.920 . S
Co103 O106 1.966 . S
Co103 N112 2.022 . S
Co103 N120 1.993 . S
Co103 O128 1.941 . S
C104 O105 1.258 . S
C104 O106 1.263 . S
O105 Co102 1.970 . S
O105 C104 1.258 . S
O106 Co103 1.966 . S
O106 C104 1.263 . S
C107 O108 1.235 . S
C107 O134 1.289 . S
O108 C107 1.235 . S
C109 C111 1.400 . S
C109 N112 1.351 . S
C109 C114 1.501 . S
C110 C111 1.387 . S
C110 N113 1.341 . S
C111 C109 1.400 . S
C111 C110 1.387 . S
N112 Co103 2.022 . S
N112 C109 1.351 . S
N112 N113 1.365 . S
N113 C110 1.341 . S
N113 N112 1.365 . S
N113 H133 0.862 . S
C114 C109 1.501 . S
C114 H115 0.961 . S
C114 H116 0.961 1_655 S
C114 H117 0.960 1_655 S
H115 C114 0.961 . S
H116 C114 0.961 1_455 S
H117 C114 0.960 1_455 S
C118 N119 1.342 . S
C118 C122 1.401 . S
C118 C123 1.499 . S
N119 Co102 1.989 . S
N119 C118 1.342 . S
N119 N120 1.388 . S
N120 Co103 1.993 . S
N120 N119 1.388 . S
N120 C121 1.346 . S
C121 N120 1.346 . S
C121 C122 1.396 . S
C121 C131 1.510 . S
C122 C118 1.401 . S
C122 C121 1.396 . S
C123 C118 1.499 . S
C123 H124 0.959 . S
C123 H125 0.960 . S
C123 H126 0.961 . S
H124 C123 0.959 . S
H125 C123 0.960 . S
H126 C123 0.961 . S
O127 Co102 1.967 . S
O127 C135 1.258 . S
O128 Co103 1.941 . S
O128 C135 1.266 . S
H129 C131 0.959 . S
H130 C131 0.961 . S
C131 C121 1.510 . S
C131 H129 0.959 . S
C131 H130 0.961 . S
C131 H132 0.960 . S
H132 C131 0.960 . S
H133 N113 0.862 . S
O134 Co102 1.920 . S
O134 C107 1.289 . S
C135 O127 1.258 . S
C135 O128 1.266 . S
Co136 O139 1.970 . S
Co136 N153 2.037 . S
Co136 O161 1.967 . S
Co136 O168 1.920 . S
Co137 O140 1.966 . S
Co137 N146 2.022 . S
Co137 N154 1.993 . S
Co137 O162 1.941 . S
C138 O139 1.258 . S
C138 O140 1.263 . S
O139 Co136 1.970 . S
O139 C138 1.258 . S
O140 Co137 1.966 . S
O140 C138 1.263 . S
C141 O142 1.235 . S
C141 O168 1.289 . S
O142 C141 1.235 . S
C143 C145 1.400 . S
C143 N146 1.351 . S
C143 C148 1.501 . S
C144 C145 1.387 . S
C144 N147 1.341 . S
C145 C143 1.400 . S
C145 C144 1.387 . S
N146 Co137 2.022 . S
N146 C143 1.351 . S
N146 N147 1.365 . S
N147 C144 1.341 . S
N147 N146 1.365 . S
N147 H167 0.862 . S
C148 C143 1.501 . S
C148 H149 0.961 . S
C148 H150 0.961 . S
C148 H151 0.960 . S
H149 C148 0.961 . S
H150 C148 0.961 . S
H151 C148 0.960 . S
C152 N153 1.290 1_554 S
C152 C156 1.401 . S
C152 C157 1.499 . S
N153 Co136 2.037 . S
N153 C152 1.290 1_556 S
N153 N154 1.390 . S
N154 Co137 1.993 . S
N154 N153 1.390 . S
N154 C155 1.346 1_556 S
C155 N154 1.346 1_554 S
C155 C156 1.396 . S
C155 C165 1.510 . S
C156 C152 1.401 . S
C156 C155 1.396 . S
C157 C152 1.499 . S
C157 H158 0.959 . S
C157 H159 0.960 . S
C157 H160 0.961 . S
H158 C157 0.959 . S
H159 C157 0.960 . S
H160 C157 0.961 . S
O161 Co136 1.967 . S
O161 C169 1.258 . S
O162 Co137 1.941 . S
O162 C169 1.266 . S
H163 C165 0.959 . S
H164 C165 0.961 . S
C165 C155 1.510 . S
C165 H163 0.959 . S
C165 H164 0.961 . S
C165 H166 0.960 . S
H166 C165 0.960 . S
H167 N147 0.862 . S
O168 Co136 1.920 . S
O168 C141 1.289 . S
C169 O161 1.258 . S
C169 O162 1.266 . S
Co170 O173 1.970 . S
Co170 N187 1.989 . S
Co170 O195 1.967 . S
Co170 O202 1.920 . S
Co171 O174 1.966 . S
Co171 N180 2.022 . S
Co171 N188 1.993 . S
Co171 O196 1.941 . S
C172 O173 1.258 . S
C172 O174 1.263 . S
O173 Co170 1.970 . S
O173 C172 1.258 . S
O174 Co171 1.966 . S
O174 C172 1.263 . S
C175 O176 1.235 . S
C175 O202 1.289 . S
O176 C175 1.235 . S
C177 C179 1.400 . S
C177 N180 1.351 . S
C177 C182 1.501 . S
C178 C179 1.387 . S
C178 N181 1.341 . S
C179 C177 1.400 . S
C179 C178 1.387 . S
N180 Co171 2.022 . S
N180 C177 1.351 . S
N180 N181 1.365 . S
N181 C178 1.341 . S
N181 N180 1.365 . S
N181 H201 0.862 . S
C182 C177 1.501 . S
C182 H183 0.961 . S
C182 H184 0.961 1_455 S
C182 H185 0.960 1_455 S
H183 C182 0.961 . S
H184 C182 0.961 1_655 S
H185 C182 0.960 1_655 S
C186 N187 1.342 . S
C186 C190 1.401 . S
C186 C191 1.499 . S
N187 Co170 1.989 . S
N187 C186 1.342 . S
N187 N188 1.388 . S
N188 Co171 1.993 . S
N188 N187 1.388 . S
N188 C189 1.346 . S
C189 N188 1.346 . S
C189 C190 1.396 . S
C189 C199 1.510 . S
C190 C186 1.401 . S
C190 C189 1.396 . S
C191 C186 1.499 . S
C191 H192 0.959 . S
C191 H193 0.960 . S
C191 H194 0.961 . S
H192 C191 0.959 . S
H193 C191 0.960 . S
H194 C191 0.961 . S
O195 Co170 1.967 . S
O195 C203 1.258 . S
O196 Co171 1.941 . S
O196 C203 1.266 . S
H197 C199 0.959 . S
H198 C199 0.961 . S
C199 C189 1.510 . S
C199 H197 0.959 . S
C199 H198 0.961 . S
C199 H200 0.960 . S
H200 C199 0.960 . S
H201 N181 0.862 . S
O202 Co170 1.920 . S
O202 C175 1.289 . S
C203 O195 1.258 . S
C203 O196 1.266 . S
Co204 O207 1.970 . S
Co204 N221 2.037 . S
Co204 O229 1.967 . S
Co204 O236 1.920 . S
Co205 O208 1.966 . S
Co205 N214 2.022 . S
Co205 N222 1.993 . S
Co205 O230 1.941 . S
C206 O207 1.258 . S
C206 O208 1.263 . S
O207 Co204 1.970 . S
O207 C206 1.258 . S
O208 Co205 1.966 . S
O208 C206 1.263 . S
C209 O210 1.235 . S
C209 O236 1.289 . S
O210 C209 1.235 . S
C211 C213 1.400 . S
C211 N214 1.351 . S
C211 C216 1.501 . S
C212 C213 1.387 . S
C212 N215 1.341 . S
C213 C211 1.400 . S
C213 C212 1.387 . S
N214 Co205 2.022 . S
N214 C211 1.351 . S
N214 N215 1.365 . S
N215 C212 1.341 . S
N215 N214 1.365 . S
N215 H235 0.862 . S
C216 C211 1.501 . S
C216 H217 0.961 . S
C216 H218 0.961 . S
C216 H219 0.960 . S
H217 C216 0.961 . S
H218 C216 0.961 . S
H219 C216 0.960 . S
C220 N221 1.290 1_556 S
C220 C224 1.401 . S
C220 C225 1.499 . S
N221 Co204 2.037 . S
N221 C220 1.290 1_554 S
N221 N222 1.390 . S
N222 Co205 1.993 . S
N222 N221 1.390 . S
N222 C223 1.346 1_554 S
C223 N222 1.346 1_556 S
C223 C224 1.396 . S
C223 C233 1.510 . S
C224 C220 1.401 . S
C224 C223 1.396 . S
C225 C220 1.499 . S
C225 H226 0.959 . S
C225 H227 0.960 . S
C225 H228 0.961 . S
H226 C225 0.959 . S
H227 C225 0.960 . S
H228 C225 0.961 . S
O229 Co204 1.967 . S
O229 C237 1.258 . S
O230 Co205 1.941 . S
O230 C237 1.266 . S
H231 C233 0.959 . S
H232 C233 0.961 . S
C233 C223 1.510 . S
C233 H231 0.959 . S
C233 H232 0.961 . S
C233 H234 0.960 . S
H234 C233 0.960 . S
H235 N215 0.862 . S
O236 Co204 1.920 . S
O236 C209 1.289 . S
C237 O229 1.258 . S
C237 O230 1.266 . S
Co238 O241 1.970 . S
Co238 N255 1.989 . S
Co238 O263 1.967 . S
Co238 O270 1.920 . S
Co239 O242 1.966 . S
Co239 N248 2.022 . S
Co239 N256 1.993 . S
Co239 O264 1.941 . S
C240 O241 1.258 . S
C240 O242 1.263 . S
O241 Co238 1.970 . S
O241 C240 1.258 . S
O242 Co239 1.966 . S
O242 C240 1.263 . S
C243 O244 1.235 . S
C243 O270 1.289 . S
O244 C243 1.235 . S
C245 C247 1.400 . S
C245 N248 1.351 . S
C245 C250 1.501 . S
C246 C247 1.387 . S
C246 N249 1.341 . S
C247 C245 1.400 . S
C247 C246 1.387 . S
N248 Co239 2.022 . S
N248 C245 1.351 . S
N248 N249 1.365 . S
N249 C246 1.341 . S
N249 N248 1.365 . S
N249 H269 0.862 . S
C250 C245 1.501 . S
C250 H251 0.961 . S
C250 H252 0.961 1_655 S
C250 H253 0.960 1_655 S
H251 C250 0.961 . S
H252 C250 0.961 1_455 S
H253 C250 0.960 1_455 S
C254 N255 1.342 . S
C254 C258 1.401 . S
C254 C259 1.499 . S
N255 Co238 1.989 . S
N255 C254 1.342 . S
N255 N256 1.388 . S
N256 Co239 1.993 . S
N256 N255 1.388 . S
N256 C257 1.346 . S
C257 N256 1.346 . S
C257 C258 1.396 . S
C257 C267 1.510 . S
C258 C254 1.401 . S
C258 C257 1.396 . S
C259 C254 1.499 . S
C259 H260 0.959 . S
C259 H261 0.960 . S
C259 H262 0.961 . S
H260 C259 0.959 . S
H261 C259 0.960 . S
H262 C259 0.961 . S
O263 Co238 1.967 . S
O263 C271 1.258 . S
O264 Co239 1.941 . S
O264 C271 1.266 . S
H265 C267 0.959 . S
H266 C267 0.961 . S
C267 C257 1.510 . S
C267 H265 0.959 . S
C267 H266 0.961 . S
C267 H268 0.960 . S
H268 C267 0.960 . S
H269 N249 0.862 . S
O270 Co238 1.920 . S
O270 C243 1.289 . S
C271 O263 1.258 . S
C271 O264 1.266 . S
Co272 O275 1.970 . S
Co272 N289 2.037 . S
Co272 O297 1.967 . S
Co272 O304 1.920 . S
Co273 O276 1.966 . S
Co273 N282 2.022 . S
Co273 N290 1.993 . S
Co273 O298 1.941 . S
C274 O275 1.258 . S
C274 O276 1.263 . S
O275 Co272 1.970 . S
O275 C274 1.258 . S
O276 Co273 1.966 . S
O276 C274 1.263 . S
C277 O278 1.235 . S
C277 O304 1.289 . S
O278 C277 1.235 . S
C279 C281 1.400 . S
C279 N282 1.351 . S
C279 C284 1.501 . S
C280 C281 1.387 . S
C280 N283 1.341 . S
C281 C279 1.400 . S
C281 C280 1.387 . S
N282 Co273 2.022 . S
N282 C279 1.351 . S
N282 N283 1.365 . S
N283 C280 1.341 . S
N283 N282 1.365 . S
N283 H303 0.862 . S
C284 C279 1.501 . S
C284 H285 0.961 . S
C284 H286 0.961 . S
C284 H287 0.960 . S
H285 C284 0.961 . S
H286 C284 0.961 . S
H287 C284 0.960 . S
C288 N289 1.290 1_554 S
C288 C292 1.401 . S
C288 C293 1.499 . S
N289 Co272 2.037 . S
N289 C288 1.290 1_556 S
N289 N290 1.390 . S
N290 Co273 1.993 . S
N290 N289 1.390 . S
N290 C291 1.346 1_556 S
C291 N290 1.346 1_554 S
C291 C292 1.396 . S
C291 C301 1.510 . S
C292 C288 1.401 . S
C292 C291 1.396 . S
C293 C288 1.499 . S
C293 H294 0.959 . S
C293 H295 0.960 . S
C293 H296 0.961 . S
H294 C293 0.959 . S
H295 C293 0.960 . S
H296 C293 0.961 . S
O297 Co272 1.967 . S
O297 C305 1.258 . S
O298 Co273 1.941 . S
O298 C305 1.266 . S
H299 C301 0.959 . S
H300 C301 0.961 . S
C301 C291 1.510 . S
C301 H299 0.959 . S
C301 H300 0.961 . S
C301 H302 0.960 . S
H302 C301 0.960 . S
H303 N283 0.862 . S
O304 Co272 1.920 . S
O304 C277 1.289 . S
C305 O297 1.258 . S
C305 O298 1.266 . S
Co306 O309 1.970 . S
Co306 N323 1.989 . S
Co306 O331 1.967 . S
Co306 O338 1.920 . S
Co307 O310 1.966 . S
Co307 N316 2.022 . S
Co307 N324 1.993 . S
Co307 O332 1.941 . S
C308 O309 1.258 . S
C308 O310 1.263 . S
O309 Co306 1.970 . S
O309 C308 1.258 . S
O310 Co307 1.966 . S
O310 C308 1.263 . S
C311 O312 1.235 . S
C311 O338 1.289 . S
O312 C311 1.235 . S
C313 C315 1.400 . S
C313 N316 1.351 . S
C313 C318 1.501 . S
C314 C315 1.387 . S
C314 N317 1.341 . S
C315 C313 1.400 . S
C315 C314 1.387 . S
N316 Co307 2.022 . S
N316 C313 1.351 . S
N316 N317 1.365 . S
N317 C314 1.341 . S
N317 N316 1.365 . S
N317 H337 0.862 . S
C318 C313 1.501 . S
C318 H319 0.961 . S
C318 H320 0.961 . S
C318 H321 0.960 . S
H319 C318 0.961 . S
H320 C318 0.961 . S
H321 C318 0.960 . S
C322 N323 1.342 . S
C322 C326 1.401 . S
C322 C327 1.499 . S
N323 Co306 1.989 . S
N323 C322 1.342 . S
N323 N324 1.388 . S
N324 Co307 1.993 . S
N324 N323 1.388 . S
N324 C325 1.346 . S
C325 N324 1.346 . S
C325 C326 1.396 . S
C325 C335 1.510 . S
C326 C322 1.401 . S
C326 C325 1.396 . S
C327 C322 1.499 . S
C327 H328 0.959 . S
C327 H329 0.960 . S
C327 H330 0.961 . S
H328 C327 0.959 . S
H329 C327 0.960 . S
H330 C327 0.961 . S
O331 Co306 1.967 . S
O331 C339 1.258 . S
O332 Co307 1.941 . S
O332 C339 1.266 . S
H333 C335 0.959 . S
H334 C335 0.961 . S
C335 C325 1.510 . S
C335 H333 0.959 . S
C335 H334 0.961 . S
C335 H336 0.960 . S
H336 C335 0.960 . S
H337 N317 0.862 . S
O338 Co306 1.920 . S
O338 C311 1.289 . S
C339 O331 1.258 . S
C339 O332 1.266 . S
Co340 O343 1.970 . S
Co340 N357 2.037 . S
Co340 O365 1.967 . S
Co340 O372 1.920 . S
Co341 O344 1.966 . S
Co341 N350 2.022 . S
Co341 N358 1.993 . S
Co341 O366 1.941 . S
C342 O343 1.258 . S
C342 O344 1.263 . S
O343 Co340 1.970 . S
O343 C342 1.258 . S
O344 Co341 1.966 . S
O344 C342 1.263 . S
C345 O346 1.235 . S
C345 O372 1.289 . S
O346 C345 1.235 . S
C347 C349 1.400 . S
C347 N350 1.351 . S
C347 C352 1.501 . S
C348 C349 1.387 . S
C348 N351 1.341 . S
C349 C347 1.400 . S
C349 C348 1.387 . S
N350 Co341 2.022 . S
N350 C347 1.351 . S
N350 N351 1.365 . S
N351 C348 1.341 . S
N351 N350 1.365 . S
N351 H371 0.862 . S
C352 C347 1.501 . S
C352 H353 0.961 . S
C352 H354 0.961 . S
C352 H355 0.960 . S
H353 C352 0.961 . S
H354 C352 0.961 . S
H355 C352 0.960 . S
C356 N357 1.290 1_556 S
C356 C360 1.401 . S
C356 C361 1.499 . S
N357 Co340 2.037 . S
N357 C356 1.290 1_554 S
N357 N358 1.390 . S
N358 Co341 1.993 . S
N358 N357 1.390 . S
N358 C359 1.346 1_554 S
C359 N358 1.346 1_556 S
C359 C360 1.396 . S
C359 C369 1.510 . S
C360 C356 1.401 . S
C360 C359 1.396 . S
C361 C356 1.499 . S
C361 H362 0.959 . S
C361 H363 0.960 . S
C361 H364 0.961 . S
H362 C361 0.959 . S
H363 C361 0.960 . S
H364 C361 0.961 . S
O365 Co340 1.967 . S
O365 C373 1.258 . S
O366 Co341 1.941 . S
O366 C373 1.266 . S
H367 C369 0.959 . S
H368 C369 0.961 . S
C369 C359 1.510 . S
C369 H367 0.959 . S
C369 H368 0.961 . S
C369 H370 0.960 . S
H370 C369 0.960 . S
H371 N351 0.862 . S
O372 Co340 1.920 . S
O372 C345 1.289 . S
C373 O365 1.258 . S
C373 O366 1.266 . S
Co374 O377 1.970 . S
Co374 N391 1.989 . S
Co374 O399 1.967 . S
Co374 O406 1.920 . S
Co375 O378 1.966 . S
Co375 N384 2.022 . S
Co375 N392 1.993 . S
Co375 O400 1.941 . S
C376 O377 1.258 . S
C376 O378 1.263 . S
O377 Co374 1.970 . S
O377 C376 1.258 . S
O378 Co375 1.966 . S
O378 C376 1.263 . S
C379 O380 1.235 . S
C379 O406 1.289 . S
O380 C379 1.235 . S
C381 C383 1.400 . S
C381 N384 1.351 . S
C381 C386 1.501 . S
C382 C383 1.387 . S
C382 N385 1.341 . S
C383 C381 1.400 . S
C383 C382 1.387 . S
N384 Co375 2.022 . S
N384 C381 1.351 . S
N384 N385 1.365 . S
N385 C382 1.341 . S
N385 N384 1.365 . S
N385 H405 0.862 . S
C386 C381 1.501 . S
C386 H387 0.961 . S
C386 H388 0.961 . S
C386 H389 0.960 . S
H387 C386 0.961 . S
H388 C386 0.961 . S
H389 C386 0.960 . S
C390 N391 1.342 . S
C390 C394 1.401 . S
C390 C395 1.499 . S
N391 Co374 1.989 . S
N391 C390 1.342 . S
N391 N392 1.388 . S
N392 Co375 1.993 . S
N392 N391 1.388 . S
N392 C393 1.346 . S
C393 N392 1.346 . S
C393 C394 1.396 . S
C393 C403 1.510 . S
C394 C390 1.401 . S
C394 C393 1.396 . S
C395 C390 1.499 . S
C395 H396 0.959 . S
C395 H397 0.960 . S
C395 H398 0.961 . S
H396 C395 0.959 . S
H397 C395 0.960 . S
H398 C395 0.961 . S
O399 Co374 1.967 . S
O399 C407 1.258 . S
O400 Co375 1.941 . S
O400 C407 1.266 . S
H401 C403 0.959 . S
H402 C403 0.961 . S
C403 C393 1.510 . S
C403 H401 0.959 . S
C403 H402 0.961 . S
C403 H404 0.960 . S
H404 C403 0.960 . S
H405 N385 0.862 . S
O406 Co374 1.920 . S
O406 C379 1.289 . S
C407 O399 1.258 . S
C407 O400 1.266 . S
Co408 O411 1.970 . S
Co408 N425 1.989 . S
Co408 O433 1.967 . S
Co408 O440 1.920 . S
Co409 O412 1.966 . S
Co409 N418 2.022 . S
Co409 N426 1.993 . S
Co409 O434 1.941 . S
C410 O411 1.258 . S
C410 O412 1.263 . S
O411 Co408 1.970 . S
O411 C410 1.258 . S
O412 Co409 1.966 . S
O412 C410 1.263 . S
C413 O414 1.235 . S
C413 O440 1.289 . S
O414 C413 1.235 . S
C415 C417 1.400 . S
C415 N418 1.351 . S
C415 C420 1.501 . S
C416 C417 1.387 . S
C416 N419 1.341 . S
C417 C415 1.400 . S
C417 C416 1.387 . S
N418 Co409 2.022 . S
N418 C415 1.351 . S
N418 N419 1.365 . S
N419 C416 1.341 . S
N419 N418 1.365 . S
N419 H439 0.862 . S
C420 C415 1.501 . S
C420 H421 0.961 . S
C420 H422 0.961 . S
C420 H423 0.960 . S
H421 C420 0.961 . S
H422 C420 0.961 . S
H423 C420 0.960 . S
C424 N425 1.342 . S
C424 C428 1.401 . S
C424 C429 1.499 . S
N425 Co408 1.989 . S
N425 C424 1.342 . S
N425 N426 1.388 . S
N426 Co409 1.993 . S
N426 N425 1.388 . S
N426 C427 1.346 . S
C427 N426 1.346 . S
C427 C428 1.396 . S
C427 C437 1.510 . S
C428 C424 1.401 . S
C428 C427 1.396 . S
C429 C424 1.499 . S
C429 H430 0.959 . S
C429 H431 0.960 . S
C429 H432 0.961 . S
H430 C429 0.959 . S
H431 C429 0.960 . S
H432 C429 0.961 . S
O433 Co408 1.967 . S
O433 C441 1.258 . S
O434 Co409 1.941 . S
O434 C441 1.266 . S
H435 C437 0.959 . S
H436 C437 0.961 . S
C437 C427 1.510 . S
C437 H435 0.959 . S
C437 H436 0.961 . S
C437 H438 0.960 . S
H438 C437 0.960 . S
H439 N419 0.862 . S
O440 Co408 1.920 . S
O440 C413 1.289 . S
C441 O433 1.258 . S
C441 O434 1.266 . S
Co442 O445 1.970 . S
Co442 N459 1.989 . S
Co442 O467 1.967 . S
Co442 O474 1.920 . S
Co443 O446 1.966 . S
Co443 N452 2.022 . S
Co443 N460 1.993 . S
Co443 O468 1.941 . S
C444 O445 1.258 . S
C444 O446 1.263 . S
O445 Co442 1.970 . S
O445 C444 1.258 . S
O446 Co443 1.966 . S
O446 C444 1.263 . S
C447 O448 1.235 . S
C447 O474 1.289 . S
O448 C447 1.235 . S
C449 C451 1.400 . S
C449 N452 1.351 . S
C449 C454 1.501 . S
C450 C451 1.387 . S
C450 N453 1.341 . S
C451 C449 1.400 . S
C451 C450 1.387 . S
N452 Co443 2.022 . S
N452 C449 1.351 . S
N452 N453 1.365 . S
N453 C450 1.341 . S
N453 N452 1.365 . S
N453 H473 0.862 . S
C454 C449 1.501 . S
C454 H455 0.961 . S
C454 H456 0.961 . S
C454 H457 0.960 . S
H455 C454 0.961 . S
H456 C454 0.961 . S
H457 C454 0.960 . S
C458 N459 1.342 . S
C458 C462 1.401 . S
C458 C463 1.499 . S
N459 Co442 1.989 . S
N459 C458 1.342 . S
N459 N460 1.388 . S
N460 Co443 1.993 . S
N460 N459 1.388 . S
N460 C461 1.346 . S
C461 N460 1.346 . S
C461 C462 1.396 . S
C461 C471 1.510 . S
C462 C458 1.401 . S
C462 C461 1.396 . S
C463 C458 1.499 . S
C463 H464 0.959 . S
C463 H465 0.960 . S
C463 H466 0.961 . S
H464 C463 0.959 . S
H465 C463 0.960 . S
H466 C463 0.961 . S
O467 Co442 1.967 . S
O467 C475 1.258 . S
O468 Co443 1.941 . S
O468 C475 1.266 . S
H469 C471 0.959 . S
H470 C471 0.961 . S
C471 C461 1.510 . S
C471 H469 0.959 . S
C471 H470 0.961 . S
C471 H472 0.960 . S
H472 C471 0.960 . S
H473 N453 0.862 . S
O474 Co442 1.920 . S
O474 C447 1.289 . S
C475 O467 1.258 . S
C475 O468 1.266 . S
Co476 O479 1.970 . S
Co476 N493 1.989 . S
Co476 O501 1.967 . S
Co476 O508 1.920 . S
Co477 O480 1.966 . S
Co477 N486 2.022 . S
Co477 N494 1.993 . S
Co477 O502 1.941 . S
C478 O479 1.258 . S
C478 O480 1.263 . S
O479 Co476 1.970 . S
O479 C478 1.258 . S
O480 Co477 1.966 . S
O480 C478 1.263 . S
C481 O482 1.235 . S
C481 O508 1.289 . S
O482 C481 1.235 . S
C483 C485 1.400 . S
C483 N486 1.351 . S
C483 C488 1.501 . S
C484 C485 1.387 . S
C484 N487 1.341 . S
C485 C483 1.400 . S
C485 C484 1.387 . S
N486 Co477 2.022 . S
N486 C483 1.351 . S
N486 N487 1.365 . S
N487 C484 1.341 . S
N487 N486 1.365 . S
N487 H507 0.862 . S
C488 C483 1.501 . S
C488 H489 0.961 . S
C488 H490 0.961 . S
C488 H491 0.960 . S
H489 C488 0.961 . S
H490 C488 0.961 . S
H491 C488 0.960 . S
C492 N493 1.342 . S
C492 C496 1.401 . S
C492 C497 1.499 . S
N493 Co476 1.989 . S
N493 C492 1.342 . S
N493 N494 1.388 . S
N494 Co477 1.993 . S
N494 N493 1.388 . S
N494 C495 1.346 . S
C495 N494 1.346 . S
C495 C496 1.396 . S
C495 C505 1.510 . S
C496 C492 1.401 . S
C496 C495 1.396 . S
C497 C492 1.499 . S
C497 H498 0.959 . S
C497 H499 0.960 . S
C497 H500 0.961 . S
H498 C497 0.959 . S
H499 C497 0.960 . S
H500 C497 0.961 . S
O501 Co476 1.967 . S
O501 C509 1.258 . S
O502 Co477 1.941 . S
O502 C509 1.266 . S
H503 C505 0.959 . S
H504 C505 0.961 . S
C505 C495 1.510 . S
C505 H503 0.959 . S
C505 H504 0.961 . S
C505 H506 0.960 . S
H506 C505 0.960 . S
H507 N487 0.862 . S
O508 Co476 1.920 . S
O508 C481 1.289 . S
C509 O501 1.258 . S
C509 O502 1.266 . S
Co510 O513 1.970 . S
Co510 N527 1.989 . S
Co510 O535 1.967 . S
Co510 O542 1.920 . S
Co511 O514 1.966 . S
Co511 N520 2.022 . S
Co511 N528 1.993 . S
Co511 O536 1.941 . S
C512 O513 1.258 . S
C512 O514 1.263 . S
O513 Co510 1.970 . S
O513 C512 1.258 . S
O514 Co511 1.966 . S
O514 C512 1.263 . S
C515 O516 1.235 . S
C515 O542 1.289 . S
O516 C515 1.235 . S
C517 C519 1.400 . S
C517 N520 1.351 . S
C517 C522 1.501 . S
C518 C519 1.387 . S
C518 N521 1.341 . S
C519 C517 1.400 . S
C519 C518 1.387 . S
N520 Co511 2.022 . S
N520 C517 1.351 . S
N520 N521 1.365 . S
N521 C518 1.341 . S
N521 N520 1.365 . S
N521 H541 0.862 . S
C522 C517 1.501 . S
C522 H523 0.961 . S
C522 H524 0.961 . S
C522 H525 0.960 . S
H523 C522 0.961 . S
H524 C522 0.961 . S
H525 C522 0.960 . S
C526 N527 1.342 . S
C526 C530 1.401 . S
C526 C531 1.499 . S
N527 Co510 1.989 . S
N527 C526 1.342 . S
N527 N528 1.388 . S
N528 Co511 1.993 . S
N528 N527 1.388 . S
N528 C529 1.346 . S
C529 N528 1.346 . S
C529 C530 1.396 . S
C529 C539 1.510 . S
C530 C526 1.401 . S
C530 C529 1.396 . S
C531 C526 1.499 . S
C531 H532 0.959 . S
C531 H533 0.960 . S
C531 H534 0.961 . S
H532 C531 0.959 . S
H533 C531 0.960 . S
H534 C531 0.961 . S
O535 Co510 1.967 . S
O535 C543 1.258 . S
O536 Co511 1.941 . S
O536 C543 1.266 . S
H537 C539 0.959 . S
H538 C539 0.961 . S
C539 C529 1.510 . S
C539 H537 0.959 . S
C539 H538 0.961 . S
C539 H540 0.960 . S
H540 C539 0.960 . S
H541 N521 0.862 . S
O542 Co510 1.920 . S
O542 C515 1.289 . S
C543 O535 1.258 . S
C543 O536 1.266 . S
H544 C562 0.951 . S
H545 C564 0.951 . S
H546 C566 0.950 . S
H547 C567 0.950 . S
H548 C569 0.950 . S
H549 C572 0.950 . S
H550 C573 0.950 . S
H551 C575 0.950 . S
H552 C576 0.950 . S
H553 C577 0.951 . S
H554 C579 0.951 . S
H555 C581 0.950 . S
H556 C582 0.950 . S
H557 C584 0.950 . S
H558 C587 0.950 . S
H559 C588 0.950 . S
H560 C590 0.950 . S
H561 C591 0.950 . S
C562 H544 0.951 . S
C562 C563 1.366 . S
C562 C564 1.388 . S
C563 C562 1.366 . S
C563 C567 1.385 . S
C564 H545 0.951 . S
C564 C562 1.388 . S
C564 C565 1.366 . S
C565 C564 1.366 . S
C565 C566 1.414 . S
C565 C568 1.499 . S
C566 H546 0.950 . S
C566 C565 1.414 . S
C566 C567 1.374 . S
C567 H547 0.950 . S
C567 C563 1.385 . S
C567 C566 1.374 . S
C568 C565 1.499 . S
C568 C569 1.373 . S
C568 C570 1.389 . S
C569 H548 0.950 . S
C569 C568 1.373 . S
C569 C585 1.377 . S
C570 C568 1.389 . S
C570 C571 1.524 . S
C570 C584 1.377 . S
C571 C570 1.524 . S
C571 C572 1.397 . S
C571 C576 1.363 . S
C572 H549 0.950 . S
C572 C571 1.397 . S
C572 C573 1.334 . S
C573 H550 0.950 . S
C573 C572 1.334 . S
C573 C574 1.287 . S
C574 C573 1.287 . S
C574 C575 1.524 . S
C574 H593 0.913 . S
C575 H551 0.950 . S
C575 C574 1.524 . S
C575 C576 1.415 . S
C576 H552 0.950 . S
C576 C571 1.363 . S
C576 C575 1.415 . S
C577 H553 0.951 . S
C577 C578 1.366 . S
C577 C579 1.388 . S
C578 C577 1.366 . S
C578 C582 1.385 . S
C579 H554 0.951 . S
C579 C577 1.388 . S
C579 C580 1.366 . S
C580 C579 1.366 . S
C580 C581 1.414 . S
C580 C583 1.499 . S
C581 H555 0.950 . S
C581 C580 1.414 . S
C581 C582 1.374 . S
C582 H556 0.950 . S
C582 C578 1.385 . S
C582 C581 1.374 . S
C583 C580 1.499 . S
C583 C584 1.373 . S
C583 C585 1.389 . S
C584 H557 0.950 . S
C584 C570 1.377 . S
C584 C583 1.373 . S
C585 C569 1.377 . S
C585 C583 1.389 . S
C585 C586 1.524 . S
C586 C585 1.524 . S
C586 C587 1.397 . S
C586 C591 1.363 . S
C587 H558 0.950 . S
C587 C586 1.397 . S
C587 C588 1.334 . S
C588 H559 0.950 . S
C588 C587 1.334 . S
C588 C589 1.287 . S
C589 C588 1.287 . S
C589 C590 1.524 . S
C589 H592 0.999 . S
C590 H560 0.950 . S
C590 C589 1.524 . S
C590 C591 1.415 . S
C591 H561 0.950 . S
C591 C586 1.363 . S
C591 C590 1.415 . S
H592 C589 0.999 . S
H593 C574 0.913 . S
H594 C612 0.951 . S
H595 C614 0.951 . S
H596 C616 0.950 1_455 S
H597 C617 0.950 . S
H598 C619 0.950 . S
H599 C622 0.950 . S
H600 C623 0.950 . S
H601 C625 0.924 1_545 S
H602 C626 0.950 . S
H603 C627 0.951 . S
H604 C629 0.951 . S
H605 C631 0.950 1_655 S
H606 C632 0.950 . S
H607 C634 0.950 . S
H608 C637 0.950 . S
H609 C638 0.950 . S
H610 C640 0.924 1_565 S
H611 C641 0.950 . S
C612 H594 0.951 . S
C612 C613 1.366 . S
C612 C614 1.388 . S
C613 C612 1.366 . S
C613 C617 1.385 . S
C614 H595 0.951 . S
C614 C612 1.388 . S
C614 C615 1.366 . S
C615 C614 1.366 . S
C615 C616 1.414 . S
C615 C618 1.499 . S
C616 H596 0.950 1_655 S
C616 C615 1.414 . S
C616 C617 1.374 . S
C617 H597 0.950 . S
C617 C613 1.385 . S
C617 C616 1.374 . S
C618 C615 1.499 . S
C618 C619 1.373 1_655 S
C618 C620 1.389 . S
C619 H598 0.950 . S
C619 C618 1.373 1_455 S
C619 C635 1.377 1_565 S
C620 C618 1.389 . S
C620 C621 1.524 . S
C620 C634 1.377 1_565 S
C621 C620 1.524 . S
C621 C622 1.397 . S
C621 C626 1.363 1_565 S
C622 H599 0.950 . S
C622 C621 1.397 . S
C622 C623 1.334 . S
C623 H600 0.950 . S
C623 C622 1.334 . S
C623 C624 1.287 . S
C624 C623 1.287 . S
C624 C625 1.563 . S
C624 H643 0.913 . S
C625 H601 0.924 1_565 S
C625 C624 1.563 . S
C625 C626 1.407 1_565 S
C626 H602 0.950 . S
C626 C621 1.363 1_545 S
C626 C625 1.407 1_545 S
C627 H603 0.951 . S
C627 C628 1.366 . S
C627 C629 1.388 . S
C628 C627 1.366 . S
C628 C632 1.385 . S
C629 H604 0.951 . S
C629 C627 1.388 . S
C629 C630 1.366 . S
C630 C629 1.366 . S
C630 C631 1.414 . S
C630 C633 1.499 . S
C631 H605 0.950 1_455 S
C631 C630 1.414 . S
C631 C632 1.374 . S
C632 H606 0.950 . S
C632 C628 1.385 . S
C632 C631 1.374 . S
C633 C630 1.499 . S
C633 C634 1.373 1_455 S
C633 C635 1.389 . S
C634 H607 0.950 . S
C634 C620 1.377 1_545 S
C634 C633 1.373 1_655 S
C635 C619 1.377 1_545 S
C635 C633 1.389 . S
C635 C636 1.524 . S
C636 C635 1.524 . S
C636 C637 1.397 . S
C636 C641 1.363 1_545 S
C637 H608 0.950 . S
C637 C636 1.397 . S
C637 C638 1.334 . S
C638 H609 0.950 . S
C638 C637 1.334 . S
C638 C639 1.287 . S
C639 C638 1.287 . S
C639 C640 1.563 . S
C639 H642 0.999 . S
C640 H610 0.924 1_545 S
C640 C639 1.563 . S
C640 C641 1.407 1_545 S
C641 H611 0.950 . S
C641 C636 1.363 1_565 S
C641 C640 1.407 1_565 S
H642 C639 0.999 . S
H643 C624 0.913 . S
H644 C662 0.951 . S
H645 C664 0.951 . S
H646 C666 0.950 . S
H647 C667 0.950 . S
H648 C669 0.950 . S
H649 C672 0.950 . S
H650 C673 0.950 . S
H651 C675 0.950 . S
H652 C676 0.950 . S
H653 C677 0.951 . S
H654 C679 0.951 . S
H655 C681 0.950 . S
H656 C682 0.950 . S
H657 C684 0.950 . S
H658 C687 0.950 . S
H659 C688 0.950 . S
H660 C690 0.950 . S
H661 C691 0.950 . S
C662 H644 0.951 . S
C662 C663 1.366 . S
C662 C664 1.388 . S
C663 C662 1.366 . S
C663 C667 1.385 . S
C664 H645 0.951 . S
C664 C662 1.388 . S
C664 C665 1.366 . S
C665 C664 1.366 . S
C665 C666 1.414 . S
C665 C668 1.499 . S
C666 H646 0.950 . S
C666 C665 1.414 . S
C666 C667 1.374 . S
C667 H647 0.950 . S
C667 C663 1.385 . S
C667 C666 1.374 . S
C668 C665 1.499 . S
C668 C669 1.373 . S
C668 C670 1.389 . S
C669 H648 0.950 . S
C669 C668 1.373 . S
C669 C685 1.377 1_545 S
C670 C668 1.389 . S
C670 C671 1.524 . S
C670 C684 1.377 1_545 S
C671 C670 1.524 . S
C671 C672 1.397 . S
C671 C676 1.363 1_545 S
C672 H649 0.950 . S
C672 C671 1.397 . S
C672 C673 1.334 . S
C673 H650 0.950 . S
C673 C672 1.334 . S
C673 C674 1.287 . S
C674 C673 1.287 . S
C674 C675 1.524 1_545 S
C674 H693 0.913 . S
C675 H651 0.950 . S
C675 C674 1.524 1_565 S
C675 C676 1.415 . S
C676 H652 0.950 . S
C676 C671 1.363 1_565 S
C676 C675 1.415 . S
C677 H653 0.951 . S
C677 C678 1.366 . S
C677 C679 1.388 . S
C678 C677 1.366 . S
C678 C682 1.385 . S
C679 H654 0.951 . S
C679 C677 1.388 . S
C679 C680 1.366 . S
C680 C679 1.366 . S
C680 C681 1.414 . S
C680 C683 1.499 . S
C681 H655 0.950 . S
C681 C680 1.414 . S
C681 C682 1.374 . S
C682 H656 0.950 . S
C682 C678 1.385 . S
C682 C681 1.374 . S
C683 C680 1.499 . S
C683 C684 1.373 . S
C683 C685 1.389 . S
C684 H657 0.950 . S
C684 C670 1.377 1_565 S
C684 C683 1.373 . S
C685 C669 1.377 1_565 S
C685 C683 1.389 . S
C685 C686 1.524 . S
C686 C685 1.524 . S
C686 C687 1.397 . S
C686 C691 1.363 1_565 S
C687 H658 0.950 . S
C687 C686 1.397 . S
C687 C688 1.334 . S
C688 H659 0.950 . S
C688 C687 1.334 . S
C688 C689 1.287 . S
C689 C688 1.287 . S
C689 C690 1.524 1_565 S
C689 H692 0.999 . S
C690 H660 0.950 . S
C690 C689 1.524 1_545 S
C690 C691 1.415 . S
C691 H661 0.950 . S
C691 C686 1.363 1_545 S
C691 C690 1.415 . S
H692 C689 0.999 . S
H693 C674 0.913 . S
H694 C712 0.951 . S
H695 C714 0.951 . S
H696 C716 0.950 . S
H697 C717 0.950 . S
H698 C719 0.950 . S
H699 C722 0.950 . S
H700 C723 0.950 . S
H701 C725 0.950 . S
H702 C726 0.950 . S
H703 C727 0.951 . S
H704 C729 0.951 . S
H705 C731 0.950 . S
H706 C732 0.950 . S
H707 C734 0.950 . S
H708 C737 0.950 . S
H709 C738 0.950 . S
H710 C740 0.950 . S
H711 C741 0.950 . S
C712 H694 0.951 . S
C712 C713 1.366 . S
C712 C714 1.388 . S
C713 C712 1.366 . S
C713 C717 1.385 1_655 S
C714 H695 0.951 . S
C714 C712 1.388 . S
C714 C715 1.366 . S
C715 C714 1.366 . S
C715 C716 1.414 1_655 S
C715 C718 1.499 . S
C716 H696 0.950 . S
C716 C715 1.414 1_455 S
C716 C717 1.374 . S
C717 H697 0.950 . S
C717 C713 1.385 1_455 S
C717 C716 1.374 . S
C718 C715 1.499 . S
C718 C719 1.373 1_655 S
C718 C720 1.389 . S
C719 H698 0.950 . S
C719 C718 1.373 1_455 S
C719 C735 1.377 . S
C720 C718 1.389 . S
C720 C721 1.524 . S
C720 C734 1.377 . S
C721 C720 1.524 . S
C721 C722 1.397 . S
C721 C726 1.363 . S
C722 H699 0.950 . S
C722 C721 1.397 . S
C722 C723 1.334 . S
C723 H700 0.950 . S
C723 C722 1.334 . S
C723 C724 1.287 . S
C724 C723 1.287 . S
C724 C725 1.524 . S
C724 H743 0.913 . S
C725 H701 0.950 . S
C725 C724 1.524 . S
C725 C726 1.415 . S
C726 H702 0.950 . S
C726 C721 1.363 . S
C726 C725 1.415 . S
C727 H703 0.951 . S
C727 C728 1.366 . S
C727 C729 1.388 . S
C728 C727 1.366 . S
C728 C732 1.385 1_455 S
C729 H704 0.951 . S
C729 C727 1.388 . S
C729 C730 1.366 . S
C730 C729 1.366 . S
C730 C731 1.414 1_455 S
C730 C733 1.499 . S
C731 H705 0.950 . S
C731 C730 1.414 1_655 S
C731 C732 1.374 . S
C732 H706 0.950 . S
C732 C728 1.385 1_655 S
C732 C731 1.374 . S
C733 C730 1.499 . S
C733 C734 1.373 1_455 S
C733 C735 1.389 . S
C734 H707 0.950 . S
C734 C720 1.377 . S
C734 C733 1.373 1_655 S
C735 C719 1.377 . S
C735 C733 1.389 . S
C735 C736 1.524 . S
C736 C735 1.524 . S
C736 C737 1.397 . S
C736 C741 1.363 . S
C737 H708 0.950 . S
C737 C736 1.397 . S
C737 C738 1.334 . S
C738 H709 0.950 . S
C738 C737 1.334 . S
C738 C739 1.287 . S
C739 C738 1.287 . S
C739 C740 1.524 . S
C739 H742 0.999 . S
C740 H710 0.950 . S
C740 C739 1.524 . S
C740 C741 1.415 . S
C741 H711 0.950 . S
C741 C736 1.363 . S
C741 C740 1.415 . S
H742 C739 0.999 . S
H743 C724 0.913 . S
H744 C762 0.951 . S
H745 C764 0.951 . S
H746 C766 0.950 . S
H747 C767 0.950 . S
H748 C769 0.950 . S
H749 C772 0.950 . S
H750 C773 0.950 . S
H751 C775 0.950 . S
H752 C776 0.950 . S
H753 C777 0.951 . S
H754 C779 0.951 . S
H755 C781 0.950 . S
H756 C782 0.950 . S
H757 C784 0.950 . S
H758 C787 0.950 . S
H759 C788 0.950 . S
H760 C790 0.950 . S
H761 C791 0.950 . S
C762 H744 0.951 . S
C762 C763 1.366 . S
C762 C764 1.388 . S
C763 C762 1.366 . S
C763 C767 1.385 . S
C764 H745 0.951 . S
C764 C762 1.388 . S
C764 C765 1.366 . S
C765 C764 1.366 . S
C765 C766 1.414 . S
C765 C768 1.499 . S
C766 H746 0.950 . S
C766 C765 1.414 . S
C766 C767 1.374 . S
C767 H747 0.950 . S
C767 C763 1.385 . S
C767 C766 1.374 . S
C768 C765 1.499 . S
C768 C769 1.373 . S
C768 C770 1.389 . S
C769 H748 0.950 . S
C769 C768 1.373 . S
C769 C785 1.377 . S
C770 C768 1.389 . S
C770 C771 1.524 . S
C770 C784 1.377 . S
C771 C770 1.524 . S
C771 C772 1.397 . S
C771 C776 1.363 . S
C772 H749 0.950 . S
C772 C771 1.397 . S
C772 C773 1.334 . S
C773 H750 0.950 . S
C773 C772 1.334 . S
C773 C774 1.287 . S
C774 C773 1.287 . S
C774 C775 1.524 . S
C774 H793 0.913 . S
C775 H751 0.950 . S
C775 C774 1.524 . S
C775 C776 1.415 . S
C776 H752 0.950 . S
C776 C771 1.363 . S
C776 C775 1.415 . S
C777 H753 0.951 . S
C777 C778 1.366 . S
C777 C779 1.388 . S
C778 C777 1.366 . S
C778 C782 1.385 . S
C779 H754 0.951 . S
C779 C777 1.388 . S
C779 C780 1.366 . S
C780 C779 1.366 . S
C780 C781 1.414 . S
C780 C783 1.499 . S
C781 H755 0.950 . S
C781 C780 1.414 . S
C781 C782 1.374 . S
C782 H756 0.950 . S
C782 C778 1.385 . S
C782 C781 1.374 . S
C783 C780 1.499 . S
C783 C784 1.373 . S
C783 C785 1.389 . S
C784 H757 0.950 . S
C784 C770 1.377 . S
C784 C783 1.373 . S
C785 C769 1.377 . S
C785 C783 1.389 . S
C785 C786 1.524 . S
C786 C785 1.524 . S
C786 C787 1.397 . S
C786 C791 1.363 . S
C787 H758 0.950 . S
C787 C786 1.397 . S
C787 C788 1.334 . S
C788 H759 0.950 . S
C788 C787 1.334 . S
C788 C789 1.287 . S
C789 C788 1.287 . S
C789 C790 1.524 . S
C789 H792 0.999 . S
C790 H760 0.950 . S
C790 C789 1.524 . S
C790 C791 1.415 . S
C791 H761 0.950 . S
C791 C786 1.363 . S
C791 C790 1.415 . S
H792 C789 0.999 . S
H793 C774 0.913 . S
H794 C812 0.951 . S
H795 C814 0.951 . S
H796 C816 0.950 . S
H797 C817 0.950 . S
H798 C819 0.950 . S
H799 C822 0.950 . S
H800 C823 0.950 . S
H801 C825 0.950 . S
H802 C826 0.950 . S
H803 C827 0.951 . S
H804 C829 0.951 . S
H805 C831 0.950 . S
H806 C832 0.950 . S
H807 C834 0.950 . S
H808 C837 0.950 . S
H809 C838 0.950 . S
H810 C840 0.950 . S
H811 C841 0.950 . S
C812 H794 0.951 . S
C812 C813 1.366 . S
C812 C814 1.388 . S
C813 C812 1.366 . S
C813 C817 1.385 . S
C814 H795 0.951 . S
C814 C812 1.388 . S
C814 C815 1.366 . S
C815 C814 1.366 . S
C815 C816 1.414 . S
C815 C818 1.499 . S
C816 H796 0.950 . S
C816 C815 1.414 . S
C816 C817 1.374 . S
C817 H797 0.950 . S
C817 C813 1.385 . S
C817 C816 1.374 . S
C818 C815 1.499 . S
C818 C819 1.409 . S
C818 C820 1.389 . S
C819 H798 0.950 . S
C819 C818 1.409 . S
C819 C835 1.340 1_565 S
C820 C818 1.389 . S
C820 C821 1.524 . S
C820 C834 1.340 1_565 S
C821 C820 1.524 . S
C821 C822 1.397 . S
C821 C826 1.363 . S
C822 H799 0.950 . S
C822 C821 1.397 . S
C822 C823 1.334 . S
C823 H800 0.950 . S
C823 C822 1.334 . S
C823 C824 1.287 . S
C824 C823 1.287 . S
C824 C825 1.524 . S
C824 H843 0.913 . S
C825 H801 0.950 . S
C825 C824 1.524 . S
C825 C826 1.415 . S
C826 H802 0.950 . S
C826 C821 1.363 . S
C826 C825 1.415 . S
C827 H803 0.951 . S
C827 C828 1.366 . S
C827 C829 1.388 . S
C828 C827 1.366 . S
C828 C832 1.385 . S
C829 H804 0.951 . S
C829 C827 1.388 . S
C829 C830 1.366 . S
C830 C829 1.366 . S
C830 C831 1.414 . S
C830 C833 1.499 . S
C831 H805 0.950 . S
C831 C830 1.414 . S
C831 C832 1.374 . S
C832 H806 0.950 . S
C832 C828 1.385 . S
C832 C831 1.374 . S
C833 C830 1.499 . S
C833 C834 1.409 . S
C833 C835 1.389 . S
C834 H807 0.950 . S
C834 C820 1.340 1_545 S
C834 C833 1.409 . S
C835 C819 1.340 1_545 S
C835 C833 1.389 . S
C835 C836 1.524 . S
C836 C835 1.524 . S
C836 C837 1.397 . S
C836 C841 1.363 . S
C837 H808 0.950 . S
C837 C836 1.397 . S
C837 C838 1.334 . S
C838 H809 0.950 . S
C838 C837 1.334 . S
C838 C839 1.287 . S
C839 C838 1.287 . S
C839 C840 1.524 . S
C839 H842 0.999 . S
C840 H810 0.950 . S
C840 C839 1.524 . S
C840 C841 1.415 . S
C841 H811 0.950 . S
C841 C836 1.363 . S
C841 C840 1.415 . S
H842 C839 0.999 . S
H843 C824 0.913 . S
H844 C862 0.951 . S
H845 C864 0.951 . S
H846 C866 0.950 . S
H847 C867 0.950 . S
H848 C869 0.950 . S
H849 C872 0.950 . S
H850 C873 0.950 . S
H851 C875 0.950 . S
H852 C876 0.950 . S
H853 C877 0.951 . S
H854 C879 0.951 . S
H855 C881 0.950 . S
H856 C882 0.950 . S
H857 C884 0.950 . S
H858 C887 0.950 . S
H859 C888 0.950 . S
H860 C890 0.950 . S
H861 C891 0.950 . S
C862 H844 0.951 . S
C862 C863 1.366 1_455 S
C862 C864 1.388 . S
C863 C862 1.366 1_655 S
C863 C867 1.385 . S
C864 H845 0.951 . S
C864 C862 1.388 . S
C864 C865 1.366 1_455 S
C865 C864 1.366 1_655 S
C865 C866 1.414 . S
C865 C868 1.499 . S
C866 H846 0.950 . S
C866 C865 1.414 . S
C866 C867 1.374 . S
C867 H847 0.950 . S
C867 C863 1.385 . S
C867 C866 1.374 . S
C868 C865 1.499 . S
C868 C869 1.373 . S
C868 C870 1.389 1_655 S
C869 H848 0.950 . S
C869 C868 1.373 . S
C869 C885 1.377 . S
C870 C868 1.389 1_455 S
C870 C871 1.524 . S
C870 C884 1.377 . S
C871 C870 1.524 . S
C871 C872 1.397 . S
C871 C876 1.363 . S
C872 H849 0.950 . S
C872 C871 1.397 . S
C872 C873 1.334 . S
C873 H850 0.950 . S
C873 C872 1.334 . S
C873 C874 1.287 . S
C874 C873 1.287 . S
C874 C875 1.524 . S
C874 H893 0.913 . S
C875 H851 0.950 . S
C875 C874 1.524 . S
C875 C876 1.415 . S
C876 H852 0.950 . S
C876 C871 1.363 . S
C876 C875 1.415 . S
C877 H853 0.951 . S
C877 C878 1.366 1_655 S
C877 C879 1.388 . S
C878 C877 1.366 1_455 S
C878 C882 1.385 . S
C879 H854 0.951 . S
C879 C877 1.388 . S
C879 C880 1.366 1_655 S
C880 C879 1.366 1_455 S
C880 C881 1.414 . S
C880 C883 1.499 . S
C881 H855 0.950 . S
C881 C880 1.414 . S
C881 C882 1.374 . S
C882 H856 0.950 . S
C882 C878 1.385 . S
C882 C881 1.374 . S
C883 C880 1.499 . S
C883 C884 1.373 . S
C883 C885 1.389 1_455 S
C884 H857 0.950 . S
C884 C870 1.377 . S
C884 C883 1.373 . S
C885 C869 1.377 . S
C885 C883 1.389 1_655 S
C885 C886 1.524 . S
C886 C885 1.524 . S
C886 C887 1.397 . S
C886 C891 1.363 . S
C887 H858 0.950 . S
C887 C886 1.397 . S
C887 C888 1.334 . S
C888 H859 0.950 . S
C888 C887 1.334 . S
C888 C889 1.287 . S
C889 C888 1.287 . S
C889 C890 1.524 . S
C889 H892 0.999 . S
C890 H860 0.950 . S
C890 C889 1.524 . S
C890 C891 1.415 . S
C891 H861 0.950 . S
C891 C886 1.363 . S
C891 C890 1.415 . S
H892 C889 0.999 . S
H893 C874 0.913 . S
H894 C912 0.951 . S
H895 C914 0.951 . S
H896 C916 0.950 . S
H897 C917 0.950 . S
H898 C919 0.950 . S
H899 C922 0.950 . S
H900 C923 0.950 . S
H901 C925 0.950 . S
H902 C926 0.950 . S
H903 C927 0.951 . S
H904 C929 0.951 . S
H905 C931 0.950 . S
H906 C932 0.950 . S
H907 C934 0.950 . S
H908 C937 0.950 . S
H909 C938 0.950 . S
H910 C940 0.950 . S
H911 C941 0.950 . S
C912 H894 0.951 . S
C912 C913 1.366 . S
C912 C914 1.388 . S
C913 C912 1.366 . S
C913 C917 1.385 1_554 S
C914 H895 0.951 . S
C914 C912 1.388 . S
C914 C915 1.366 . S
C915 C914 1.366 . S
C915 C916 1.414 1_554 S
C915 C918 1.499 . S
C916 H896 0.950 . S
C916 C915 1.414 1_556 S
C916 C917 1.374 . S
C917 H897 0.950 . S
C917 C913 1.385 1_556 S
C917 C916 1.374 . S
C918 C915 1.499 . S
C918 C919 1.373 1_554 S
C918 C920 1.389 . S
C919 H898 0.950 . S
C919 C918 1.373 1_556 S
C919 C935 1.377 . S
C920 C918 1.389 . S
C920 C921 1.524 . S
C920 C934 1.377 . S
C921 C920 1.524 . S
C921 C922 1.397 . S
C921 C926 1.363 . S
C922 H899 0.950 . S
C922 C921 1.397 . S
C922 C923 1.334 . S
C923 H900 0.950 . S
C923 C922 1.334 . S
C923 C924 1.287 . S
C924 C923 1.287 . S
C924 C925 1.524 . S
C924 H943 0.913 . S
C925 H901 0.950 . S
C925 C924 1.524 . S
C925 C926 1.415 . S
C926 H902 0.950 . S
C926 C921 1.363 . S
C926 C925 1.415 . S
C927 H903 0.951 . S
C927 C928 1.366 . S
C927 C929 1.388 . S
C928 C927 1.366 . S
C928 C932 1.385 1_556 S
C929 H904 0.951 . S
C929 C927 1.388 . S
C929 C930 1.366 . S
C930 C929 1.366 . S
C930 C931 1.414 1_556 S
C930 C933 1.499 . S
C931 H905 0.950 . S
C931 C930 1.414 1_554 S
C931 C932 1.374 . S
C932 H906 0.950 . S
C932 C928 1.385 1_554 S
C932 C931 1.374 . S
C933 C930 1.499 . S
C933 C934 1.373 1_556 S
C933 C935 1.389 . S
C934 H907 0.950 . S
C934 C920 1.377 . S
C934 C933 1.373 1_554 S
C935 C919 1.377 . S
C935 C933 1.389 . S
C935 C936 1.524 . S
C936 C935 1.524 . S
C936 C937 1.397 . S
C936 C941 1.363 . S
C937 H908 0.950 . S
C937 C936 1.397 . S
C937 C938 1.334 . S
C938 H909 0.950 . S
C938 C937 1.334 . S
C938 C939 1.287 . S
C939 C938 1.287 . S
C939 C940 1.524 . S
C939 H942 0.999 . S
C940 H910 0.950 . S
C940 C939 1.524 . S
C940 C941 1.415 . S
C941 H911 0.950 . S
C941 C936 1.363 . S
C941 C940 1.415 . S
H942 C939 0.999 . S
H943 C924 0.913 . S
H944 C962 0.951 1_556 S
H945 C964 0.951 1_556 S
H946 C966 0.950 . S
H947 C967 0.950 . S
H948 C969 0.950 . S
H949 C972 0.950 . S
H950 C973 0.950 . S
H951 C975 0.950 . S
H952 C976 0.950 1_556 S
H953 C977 0.951 1_554 S
H954 C979 0.951 1_554 S
H955 C981 0.950 . S
H956 C982 0.950 . S
H957 C984 0.950 . S
H958 C987 0.950 . S
H959 C988 0.950 . S
H960 C990 0.950 . S
H961 C991 0.950 1_554 S
C962 H944 0.951 1_554 S
C962 C963 1.366 . S
C962 C964 1.388 . S
C963 C962 1.366 . S
C963 C967 1.385 . S
C964 H945 0.951 1_554 S
C964 C962 1.388 . S
C964 C965 1.366 . S
C965 C964 1.366 . S
C965 C966 1.414 . S
C965 C968 1.499 . S
C966 H946 0.950 . S
C966 C965 1.414 . S
C966 C967 1.374 . S
C967 H947 0.950 . S
C967 C963 1.385 . S
C967 C966 1.374 . S
C968 C965 1.499 . S
C968 C969 1.373 1_554 S
C968 C970 1.389 1_655 S
C969 H948 0.950 . S
C969 C968 1.373 1_556 S
C969 C985 1.377 . S
C970 C968 1.389 1_455 S
C970 C971 1.524 . S
C970 C984 1.377 . S
C971 C970 1.524 . S
C971 C972 1.397 . S
C971 C976 1.363 . S
C972 H949 0.950 . S
C972 C971 1.397 . S
C972 C973 1.334 . S
C973 H950 0.950 . S
C973 C972 1.334 . S
C973 C974 1.287 . S
C974 C973 1.287 . S
C974 C975 1.524 . S
C974 H993 0.913 . S
C975 H951 0.950 . S
C975 C974 1.524 . S
C975 C976 1.415 . S
C976 H952 0.950 1_554 S
C976 C971 1.363 . S
C976 C975 1.415 . S
C977 H953 0.951 1_556 S
C977 C978 1.366 . S
C977 C979 1.388 . S
C978 C977 1.366 . S
C978 C982 1.385 . S
C979 H954 0.951 1_556 S
C979 C977 1.388 . S
C979 C980 1.366 . S
C980 C979 1.366 . S
C980 C981 1.414 . S
C980 C983 1.499 . S
C981 H955 0.950 . S
C981 C980 1.414 . S
C981 C982 1.374 . S
C982 H956 0.950 . S
C982 C978 1.385 . S
C982 C981 1.374 . S
C983 C980 1.499 . S
C983 C984 1.373 1_556 S
C983 C985 1.389 1_455 S
C984 H957 0.950 . S
C984 C970 1.377 . S
C984 C983 1.373 1_554 S
C985 C969 1.377 . S
C985 C983 1.389 1_655 S
C985 C986 1.524 . S
C986 C985 1.524 . S
C986 C987 1.397 . S
C986 C991 1.363 . S
C987 H958 0.950 . S
C987 C986 1.397 . S
C987 C988 1.334 . S
C988 H959 0.950 . S
C988 C987 1.334 . S
C988 C989 1.287 . S
C989 C988 1.287 . S
C989 C990 1.524 . S
C989 H992 0.999 . S
C990 H960 0.950 . S
C990 C989 1.524 . S
C990 C991 1.415 . S
C991 H961 0.950 1_556 S
C991 C986 1.363 . S
C991 C990 1.415 . S
H992 C989 0.999 . S
H993 C974 0.913 . S
H994 C1012 0.951 . S
H995 C1014 0.951 . S
H996 C1016 0.950 . S
H997 C1017 0.950 . S
H998 C1019 0.950 . S
H999 C1022 0.950 . S
H1000 C1023 0.950 . S
H1001 C1025 0.950 . S
H1002 C1026 0.950 . S
H1003 C1027 0.951 . S
H1004 C1029 0.951 . S
H1005 C1031 0.950 . S
H1006 C1032 0.950 . S
H1007 C1034 0.950 . S
H1008 C1037 0.950 . S
H1009 C1038 0.950 . S
H1010 C1040 0.950 . S
H1011 C1041 0.950 . S
C1012 H994 0.951 . S
C1012 C1013 1.366 . S
C1012 C1014 1.388 . S
C1013 C1012 1.366 . S
C1013 C1017 1.385 . S
C1014 H995 0.951 . S
C1014 C1012 1.388 . S
C1014 C1015 1.366 . S
C1015 C1014 1.366 . S
C1015 C1016 1.414 . S
C1015 C1018 1.499 . S
C1016 H996 0.950 . S
C1016 C1015 1.414 . S
C1016 C1017 1.374 . S
C1017 H997 0.950 . S
C1017 C1013 1.385 . S
C1017 C1016 1.374 . S
C1018 C1015 1.499 . S
C1018 C1019 1.373 . S
C1018 C1020 1.389 . S
C1019 H998 0.950 . S
C1019 C1018 1.373 . S
C1019 C1035 1.377 . S
C1020 C1018 1.389 . S
C1020 C1021 1.524 . S
C1020 C1034 1.377 . S
C1021 C1020 1.524 . S
C1021 C1022 1.397 . S
C1021 C1026 1.363 . S
C1022 H999 0.950 . S
C1022 C1021 1.397 . S
C1022 C1023 1.334 . S
C1023 H1000 0.950 . S
C1023 C1022 1.334 . S
C1023 C1024 1.287 . S
C1024 C1023 1.287 . S
C1024 C1025 1.524 . S
C1024 H1043 0.913 . S
C1025 H1001 0.950 . S
C1025 C1024 1.524 . S
C1025 C1026 1.415 . S
C1026 H1002 0.950 . S
C1026 C1021 1.363 . S
C1026 C1025 1.415 . S
C1027 H1003 0.951 . S
C1027 C1028 1.366 . S
C1027 C1029 1.388 . S
C1028 C1027 1.366 . S
C1028 C1032 1.385 . S
C1029 H1004 0.951 . S
C1029 C1027 1.388 . S
C1029 C1030 1.366 . S
C1030 C1029 1.366 . S
C1030 C1031 1.414 . S
C1030 C1033 1.499 . S
C1031 H1005 0.950 . S
C1031 C1030 1.414 . S
C1031 C1032 1.374 . S
C1032 H1006 0.950 . S
C1032 C1028 1.385 . S
C1032 C1031 1.374 . S
C1033 C1030 1.499 . S
C1033 C1034 1.373 . S
C1033 C1035 1.389 . S
C1034 H1007 0.950 . S
C1034 C1020 1.377 . S
C1034 C1033 1.373 . S
C1035 C1019 1.377 . S
C1035 C1033 1.389 . S
C1035 C1036 1.524 . S
C1036 C1035 1.524 . S
C1036 C1037 1.397 . S
C1036 C1041 1.363 . S
C1037 H1008 0.950 . S
C1037 C1036 1.397 . S
C1037 C1038 1.334 . S
C1038 H1009 0.950 . S
C1038 C1037 1.334 . S
C1038 C1039 1.287 . S
C1039 C1038 1.287 . S
C1039 C1040 1.524 . S
C1039 H1042 0.999 . S
C1040 H1010 0.950 . S
C1040 C1039 1.524 . S
C1040 C1041 1.415 . S
C1041 H1011 0.950 . S
C1041 C1036 1.363 . S
C1041 C1040 1.415 . S
H1042 C1039 0.999 . S
H1043 C1024 0.913 . S
H1044 C1062 0.951 . S
H1045 C1064 0.951 . S
H1046 C1066 0.950 . S
H1047 C1067 0.950 . S
H1048 C1069 0.950 . S
H1049 C1072 0.950 . S
H1050 C1073 0.950 . S
H1051 C1075 0.950 . S
H1052 C1076 0.950 . S
H1053 C1077 0.951 . S
H1054 C1079 0.951 . S
H1055 C1081 0.950 . S
H1056 C1082 0.950 . S
H1057 C1084 0.950 . S
H1058 C1087 0.950 . S
H1059 C1088 0.950 . S
H1060 C1090 0.950 . S
H1061 C1091 0.950 . S
C1062 H1044 0.951 . S
C1062 C1063 1.366 . S
C1062 C1064 1.388 . S
C1063 C1062 1.366 . S
C1063 C1067 1.385 1_556 S
C1064 H1045 0.951 . S
C1064 C1062 1.388 . S
C1064 C1065 1.366 . S
C1065 C1064 1.366 . S
C1065 C1066 1.414 1_556 S
C1065 C1068 1.499 . S
C1066 H1046 0.950 . S
C1066 C1065 1.414 1_554 S
C1066 C1067 1.374 . S
C1067 H1047 0.950 . S
C1067 C1063 1.385 1_554 S
C1067 C1066 1.374 . S
C1068 C1065 1.499 . S
C1068 C1069 1.373 1_556 S
C1068 C1070 1.389 . S
C1069 H1048 0.950 . S
C1069 C1068 1.373 1_554 S
C1069 C1085 1.377 . S
C1070 C1068 1.389 . S
C1070 C1071 1.524 . S
C1070 C1084 1.377 . S
C1071 C1070 1.524 . S
C1071 C1072 1.397 . S
C1071 C1076 1.363 . S
C1072 H1049 0.950 . S
C1072 C1071 1.397 . S
C1072 C1073 1.334 . S
C1073 H1050 0.950 . S
C1073 C1072 1.334 . S
C1073 C1074 1.287 . S
C1074 C1073 1.287 . S
C1074 C1075 1.524 . S
C1074 H1093 0.913 . S
C1075 H1051 0.950 . S
C1075 C1074 1.524 . S
C1075 C1076 1.415 . S
C1076 H1052 0.950 . S
C1076 C1071 1.363 . S
C1076 C1075 1.415 . S
C1077 H1053 0.951 . S
C1077 C1078 1.366 . S
C1077 C1079 1.388 . S
C1078 C1077 1.366 . S
C1078 C1082 1.385 1_554 S
C1079 H1054 0.951 . S
C1079 C1077 1.388 . S
C1079 C1080 1.366 . S
C1080 C1079 1.366 . S
C1080 C1081 1.414 1_554 S
C1080 C1083 1.499 . S
C1081 H1055 0.950 . S
C1081 C1080 1.414 1_556 S
C1081 C1082 1.374 . S
C1082 H1056 0.950 . S
C1082 C1078 1.385 1_556 S
C1082 C1081 1.374 . S
C1083 C1080 1.499 . S
C1083 C1084 1.373 1_554 S
C1083 C1085 1.389 . S
C1084 H1057 0.950 . S
C1084 C1070 1.377 . S
C1084 C1083 1.373 1_556 S
C1085 C1069 1.377 . S
C1085 C1083 1.389 . S
C1085 C1086 1.524 . S
C1086 C1085 1.524 . S
C1086 C1087 1.397 . S
C1086 C1091 1.363 . S
C1087 H1058 0.950 . S
C1087 C1086 1.397 . S
C1087 C1088 1.334 . S
C1088 H1059 0.950 . S
C1088 C1087 1.334 . S
C1088 C1089 1.287 . S
C1089 C1088 1.287 . S
C1089 C1090 1.524 . S
C1089 H1092 0.999 . S
C1090 H1060 0.950 . S
C1090 C1089 1.524 . S
C1090 C1091 1.415 . S
C1091 H1061 0.950 . S
C1091 C1086 1.363 . S
C1091 C1090 1.415 . S
H1092 C1089 0.999 . S
H1093 C1074 0.913 . S
H1094 C1112 0.951 . S
H1095 C1114 0.951 . S
H1096 C1116 0.950 . S
H1097 C1117 0.950 . S
H1098 C1119 0.950 . S
H1099 C1122 0.950 . S
H1100 C1123 0.950 . S
H1101 C1125 0.950 . S
H1102 C1126 0.950 . S
H1103 C1127 0.951 . S
H1104 C1129 0.951 . S
H1105 C1131 0.950 . S
H1106 C1132 0.950 . S
H1107 C1134 0.950 . S
H1108 C1137 0.950 . S
H1109 C1138 0.950 . S
H1110 C1140 0.950 . S
H1111 C1141 0.950 . S
C1112 H1094 0.951 . S
C1112 C1113 1.366 . S
C1112 C1114 1.388 . S
C1113 C1112 1.366 . S
C1113 C1117 1.385 . S
C1114 H1095 0.951 . S
C1114 C1112 1.388 . S
C1114 C1115 1.366 . S
C1115 C1114 1.366 . S
C1115 C1116 1.414 . S
C1115 C1118 1.499 . S
C1116 H1096 0.950 . S
C1116 C1115 1.414 . S
C1116 C1117 1.374 . S
C1117 H1097 0.950 . S
C1117 C1113 1.385 . S
C1117 C1116 1.374 . S
C1118 C1115 1.499 . S
C1118 C1119 1.373 . S
C1118 C1120 1.389 . S
C1119 H1098 0.950 . S
C1119 C1118 1.373 . S
C1119 C1135 1.377 . S
C1120 C1118 1.389 . S
C1120 C1121 1.524 . S
C1120 C1134 1.377 . S
C1121 C1120 1.524 . S
C1121 C1122 1.397 . S
C1121 C1126 1.363 . S
C1122 H1099 0.950 . S
C1122 C1121 1.397 . S
C1122 C1123 1.334 . S
C1123 H1100 0.950 . S
C1123 C1122 1.334 . S
C1123 C1124 1.287 . S
C1124 C1123 1.287 . S
C1124 C1125 1.524 . S
C1124 H1143 0.913 . S
C1125 H1101 0.950 . S
C1125 C1124 1.524 . S
C1125 C1126 1.415 . S
C1126 H1102 0.950 . S
C1126 C1121 1.363 . S
C1126 C1125 1.415 . S
C1127 H1103 0.951 . S
C1127 C1128 1.366 . S
C1127 C1129 1.388 . S
C1128 C1127 1.366 . S
C1128 C1132 1.385 . S
C1129 H1104 0.951 . S
C1129 C1127 1.388 . S
C1129 C1130 1.366 . S
C1130 C1129 1.366 . S
C1130 C1131 1.414 . S
C1130 C1133 1.499 . S
C1131 H1105 0.950 . S
C1131 C1130 1.414 . S
C1131 C1132 1.374 . S
C1132 H1106 0.950 . S
C1132 C1128 1.385 . S
C1132 C1131 1.374 . S
C1133 C1130 1.499 . S
C1133 C1134 1.373 . S
C1133 C1135 1.389 . S
C1134 H1107 0.950 . S
C1134 C1120 1.377 . S
C1134 C1133 1.373 . S
C1135 C1119 1.377 . S
C1135 C1133 1.389 . S
C1135 C1136 1.524 . S
C1136 C1135 1.524 . S
C1136 C1137 1.397 . S
C1136 C1141 1.363 . S
C1137 H1108 0.950 . S
C1137 C1136 1.397 . S
C1137 C1138 1.334 . S
C1138 H1109 0.950 . S
C1138 C1137 1.334 . S
C1138 C1139 1.287 . S
C1139 C1138 1.287 . S
C1139 C1140 1.524 . S
C1139 H1142 0.999 . S
C1140 H1110 0.950 . S
C1140 C1139 1.524 . S
C1140 C1141 1.415 . S
C1141 H1111 0.950 . S
C1141 C1136 1.363 . S
C1141 C1140 1.415 . S
H1142 C1139 0.999 . S
H1143 C1124 0.913 . S
H1144 C1162 0.951 1_554 S
H1145 C1164 0.951 . S
H1146 C1166 0.950 . S
H1147 C1167 0.950 . S
H1148 C1169 0.950 . S
H1149 C1172 0.950 . S
H1150 C1173 0.950 . S
H1151 C1175 0.950 . S
H1152 C1176 0.950 . S
H1153 C1177 0.951 1_556 S
H1154 C1179 0.951 . S
H1155 C1181 0.950 . S
H1156 C1182 0.950 . S
H1157 C1184 0.950 . S
H1158 C1187 0.950 . S
H1159 C1188 0.950 . S
H1160 C1190 0.950 . S
H1161 C1191 0.950 . S
C1162 H1144 0.951 1_556 S
C1162 C1163 1.366 . S
C1162 C1164 1.388 1_556 S
C1163 C1162 1.366 . S
C1163 C1167 1.385 . S
C1164 H1145 0.951 . S
C1164 C1162 1.388 1_554 S
C1164 C1165 1.366 1_554 S
C1165 C1164 1.366 1_556 S
C1165 C1166 1.414 . S
C1165 C1168 1.499 . S
C1166 H1146 0.950 . S
C1166 C1165 1.414 . S
C1166 C1167 1.374 . S
C1167 H1147 0.950 . S
C1167 C1163 1.385 . S
C1167 C1166 1.374 . S
C1168 C1165 1.499 . S
C1168 C1169 1.373 . S
C1168 C1170 1.389 1_556 S
C1169 H1148 0.950 . S
C1169 C1168 1.373 . S
C1169 C1185 1.377 1_545 S
C1170 C1168 1.389 1_554 S
C1170 C1171 1.524 . S
C1170 C1184 1.377 1_545 S
C1171 C1170 1.524 . S
C1171 C1172 1.397 . S
C1171 C1176 1.363 . S
C1172 H1149 0.950 . S
C1172 C1171 1.397 . S
C1172 C1173 1.334 . S
C1173 H1150 0.950 . S
C1173 C1172 1.334 . S
C1173 C1174 1.287 . S
C1174 C1173 1.287 . S
C1174 C1175 1.524 . S
C1174 H1193 0.913 . S
C1175 H1151 0.950 . S
C1175 C1174 1.524 . S
C1175 C1176 1.415 . S
C1176 H1152 0.950 . S
C1176 C1171 1.363 . S
C1176 C1175 1.415 . S
C1177 H1153 0.951 1_554 S
C1177 C1178 1.366 . S
C1177 C1179 1.388 1_554 S
C1178 C1177 1.366 . S
C1178 C1182 1.385 . S
C1179 H1154 0.951 . S
C1179 C1177 1.388 1_556 S
C1179 C1180 1.366 1_556 S
C1180 C1179 1.366 1_554 S
C1180 C1181 1.414 . S
C1180 C1183 1.499 . S
C1181 H1155 0.950 . S
C1181 C1180 1.414 . S
C1181 C1182 1.374 . S
C1182 H1156 0.950 . S
C1182 C1178 1.385 . S
C1182 C1181 1.374 . S
C1183 C1180 1.499 . S
C1183 C1184 1.373 . S
C1183 C1185 1.389 1_554 S
C1184 H1157 0.950 . S
C1184 C1170 1.377 1_565 S
C1184 C1183 1.373 . S
C1185 C1169 1.377 1_565 S
C1185 C1183 1.389 1_556 S
C1185 C1186 1.524 . S
C1186 C1185 1.524 . S
C1186 C1187 1.397 . S
C1186 C1191 1.363 . S
C1187 H1158 0.950 . S
C1187 C1186 1.397 . S
C1187 C1188 1.334 . S
C1188 H1159 0.950 . S
C1188 C1187 1.334 . S
C1188 C1189 1.287 . S
C1189 C1188 1.287 . S
C1189 C1190 1.524 . S
C1189 H1192 0.999 . S
C1190 H1160 0.950 . S
C1190 C1189 1.524 . S
C1190 C1191 1.415 . S
C1191 H1161 0.950 . S
C1191 C1186 1.363 . S
C1191 C1190 1.415 . S
H1192 C1189 0.999 . S
H1193 C1174 0.913 . S
H1194 C1212 0.951 . S
H1195 C1214 0.951 . S
H1196 C1216 0.950 . S
H1197 C1217 0.950 . S
H1198 C1219 0.950 . S
H1199 C1222 0.950 . S
H1200 C1223 0.950 . S
H1201 C1225 0.950 . S
H1202 C1226 0.950 . S
H1203 C1227 0.951 . S
H1204 C1229 0.951 . S
H1205 C1231 0.950 . S
H1206 C1232 0.950 . S
H1207 C1234 0.950 . S
H1208 C1237 0.950 . S
H1209 C1238 0.950 . S
H1210 C1240 0.950 . S
H1211 C1241 0.950 . S
C1212 H1194 0.951 . S
C1212 C1213 1.366 . S
C1212 C1214 1.388 . S
C1213 C1212 1.366 . S
C1213 C1217 1.385 . S
C1214 H1195 0.951 . S
C1214 C1212 1.388 . S
C1214 C1215 1.366 . S
C1215 C1214 1.366 . S
C1215 C1216 1.414 . S
C1215 C1218 1.499 . S
C1216 H1196 0.950 . S
C1216 C1215 1.414 . S
C1216 C1217 1.374 . S
C1217 H1197 0.950 . S
C1217 C1213 1.385 . S
C1217 C1216 1.374 . S
C1218 C1215 1.499 . S
C1218 C1219 1.373 . S
C1218 C1220 1.389 . S
C1219 H1198 0.950 . S
C1219 C1218 1.373 . S
C1219 C1235 1.377 . S
C1220 C1218 1.389 . S
C1220 C1221 1.524 . S
C1220 C1234 1.377 . S
C1221 C1220 1.524 . S
C1221 C1222 1.397 . S
C1221 C1226 1.363 . S
C1222 H1199 0.950 . S
C1222 C1221 1.397 . S
C1222 C1223 1.334 . S
C1223 H1200 0.950 . S
C1223 C1222 1.334 . S
C1223 C1224 1.287 . S
C1224 C1223 1.287 . S
C1224 C1225 1.524 . S
C1224 H1243 0.913 . S
C1225 H1201 0.950 . S
C1225 C1224 1.524 . S
C1225 C1226 1.415 . S
C1226 H1202 0.950 . S
C1226 C1221 1.363 . S
C1226 C1225 1.415 . S
C1227 H1203 0.951 . S
C1227 C1228 1.366 . S
C1227 C1229 1.388 . S
C1228 C1227 1.366 . S
C1228 C1232 1.385 . S
C1229 H1204 0.951 . S
C1229 C1227 1.388 . S
C1229 C1230 1.366 . S
C1230 C1229 1.366 . S
C1230 C1231 1.414 . S
C1230 C1233 1.499 . S
C1231 H1205 0.950 . S
C1231 C1230 1.414 . S
C1231 C1232 1.374 . S
C1232 H1206 0.950 . S
C1232 C1228 1.385 . S
C1232 C1231 1.374 . S
C1233 C1230 1.499 . S
C1233 C1234 1.373 . S
C1233 C1235 1.389 . S
C1234 H1207 0.950 . S
C1234 C1220 1.377 . S
C1234 C1233 1.373 . S
C1235 C1219 1.377 . S
C1235 C1233 1.389 . S
C1235 C1236 1.524 . S
C1236 C1235 1.524 . S
C1236 C1237 1.397 . S
C1236 C1241 1.363 . S
C1237 H1208 0.950 . S
C1237 C1236 1.397 . S
C1237 C1238 1.334 . S
C1238 H1209 0.950 . S
C1238 C1237 1.334 . S
C1238 C1239 1.287 . S
C1239 C1238 1.287 . S
C1239 C1240 1.524 . S
C1239 H1242 0.999 . S
C1240 H1210 0.950 . S
C1240 C1239 1.524 . S
C1240 C1241 1.415 . S
C1241 H1211 0.950 . S
C1241 C1236 1.363 . S
C1241 C1240 1.415 . S
H1242 C1239 0.999 . S
H1243 C1224 0.913 . S
H1244 C1262 0.951 . S
H1245 C1264 0.951 . S
H1246 C1266 0.950 . S
H1247 C1267 0.950 . S
H1248 C1269 0.950 . S
H1249 C1272 0.950 . S
H1250 C1273 0.950 . S
H1251 C1275 0.950 . S
H1252 C1276 0.950 . S
H1253 C1277 0.951 . S
H1254 C1279 0.951 . S
H1255 C1281 0.950 . S
H1256 C1282 0.950 . S
H1257 C1284 0.950 . S
H1258 C1287 0.950 . S
H1259 C1288 0.950 . S
H1260 C1290 0.950 . S
H1261 C1291 0.950 . S
C1262 H1244 0.951 . S
C1262 C1263 1.366 . S
C1262 C1264 1.388 . S
C1263 C1262 1.366 . S
C1263 C1267 1.385 . S
C1264 H1245 0.951 . S
C1264 C1262 1.388 . S
C1264 C1265 1.366 . S
C1265 C1264 1.366 . S
C1265 C1266 1.414 . S
C1265 C1268 1.499 . S
C1266 H1246 0.950 . S
C1266 C1265 1.414 . S
C1266 C1267 1.374 . S
C1267 H1247 0.950 . S
C1267 C1263 1.385 . S
C1267 C1266 1.374 . S
C1268 C1265 1.499 . S
C1268 C1269 1.373 . S
C1268 C1270 1.389 . S
C1269 H1248 0.950 . S
C1269 C1268 1.373 . S
C1269 C1285 1.377 . S
C1270 C1268 1.389 . S
C1270 C1271 1.524 . S
C1270 C1284 1.377 . S
C1271 C1270 1.524 . S
C1271 C1272 1.397 . S
C1271 C1276 1.363 . S
C1272 H1249 0.950 . S
C1272 C1271 1.397 . S
C1272 C1273 1.334 . S
C1273 H1250 0.950 . S
C1273 C1272 1.334 . S
C1273 C1274 1.287 . S
C1274 C1273 1.287 . S
C1274 C1275 1.524 . S
C1274 H1293 0.913 . S
C1275 H1251 0.950 . S
C1275 C1274 1.524 . S
C1275 C1276 1.415 . S
C1276 H1252 0.950 . S
C1276 C1271 1.363 . S
C1276 C1275 1.415 . S
C1277 H1253 0.951 . S
C1277 C1278 1.366 . S
C1277 C1279 1.388 . S
C1278 C1277 1.366 . S
C1278 C1282 1.385 . S
C1279 H1254 0.951 . S
C1279 C1277 1.388 . S
C1279 C1280 1.366 . S
C1280 C1279 1.366 . S
C1280 C1281 1.414 . S
C1280 C1283 1.499 . S
C1281 H1255 0.950 . S
C1281 C1280 1.414 . S
C1281 C1282 1.374 . S
C1282 H1256 0.950 . S
C1282 C1278 1.385 . S
C1282 C1281 1.374 . S
C1283 C1280 1.499 . S
C1283 C1284 1.373 . S
C1283 C1285 1.389 . S
C1284 H1257 0.950 . S
C1284 C1270 1.377 . S
C1284 C1283 1.373 . S
C1285 C1269 1.377 . S
C1285 C1283 1.389 . S
C1285 C1286 1.524 . S
C1286 C1285 1.524 . S
C1286 C1287 1.397 . S
C1286 C1291 1.363 . S
C1287 H1258 0.950 . S
C1287 C1286 1.397 . S
C1287 C1288 1.334 . S
C1288 H1259 0.950 . S
C1288 C1287 1.334 . S
C1288 C1289 1.287 . S
C1289 C1288 1.287 . S
C1289 C1290 1.524 . S
C1289 H1292 0.999 . S
C1290 H1260 0.950 . S
C1290 C1289 1.524 . S
C1290 C1291 1.415 . S
C1291 H1261 0.950 . S
C1291 C1286 1.363 . S
C1291 C1290 1.415 . S
H1292 C1289 0.999 . S
H1293 C1274 0.913 . S
H1294 C1312 0.951 . S
H1295 C1314 0.951 . S
H1296 C1316 0.950 . S
H1297 C1317 0.950 . S
H1298 C1319 0.950 . S
H1299 C1322 0.950 . S
H1300 C1323 0.950 . S
H1301 C1325 0.950 . S
H1302 C1326 0.950 . S
H1303 C1327 0.951 . S
H1304 C1329 0.951 . S
H1305 C1331 0.950 . S
H1306 C1332 0.950 . S
H1307 C1334 0.950 . S
H1308 C1337 0.950 . S
H1309 C1338 0.950 . S
H1310 C1340 0.950 . S
H1311 C1341 0.950 . S
C1312 H1294 0.951 . S
C1312 C1313 1.366 . S
C1312 C1314 1.388 . S
C1313 C1312 1.366 . S
C1313 C1317 1.385 . S
C1314 H1295 0.951 . S
C1314 C1312 1.388 . S
C1314 C1315 1.366 . S
C1315 C1314 1.366 . S
C1315 C1316 1.414 . S
C1315 C1318 1.499 . S
C1316 H1296 0.950 . S
C1316 C1315 1.414 . S
C1316 C1317 1.374 . S
C1317 H1297 0.950 . S
C1317 C1313 1.385 . S
C1317 C1316 1.374 . S
C1318 C1315 1.499 . S
C1318 C1319 1.373 . S
C1318 C1320 1.389 . S
C1319 H1298 0.950 . S
C1319 C1318 1.373 . S
C1319 C1335 1.377 . S
C1320 C1318 1.389 . S
C1320 C1321 1.524 . S
C1320 C1334 1.377 . S
C1321 C1320 1.524 . S
C1321 C1322 1.397 . S
C1321 C1326 1.363 . S
C1322 H1299 0.950 . S
C1322 C1321 1.397 . S
C1322 C1323 1.334 . S
C1323 H1300 0.950 . S
C1323 C1322 1.334 . S
C1323 C1324 1.287 . S
C1324 C1323 1.287 . S
C1324 C1325 1.524 . S
C1324 H1343 0.913 . S
C1325 H1301 0.950 . S
C1325 C1324 1.524 . S
C1325 C1326 1.415 . S
C1326 H1302 0.950 . S
C1326 C1321 1.363 . S
C1326 C1325 1.415 . S
C1327 H1303 0.951 . S
C1327 C1328 1.366 . S
C1327 C1329 1.388 . S
C1328 C1327 1.366 . S
C1328 C1332 1.385 . S
C1329 H1304 0.951 . S
C1329 C1327 1.388 . S
C1329 C1330 1.366 . S
C1330 C1329 1.366 . S
C1330 C1331 1.414 . S
C1330 C1333 1.499 . S
C1331 H1305 0.950 . S
C1331 C1330 1.414 . S
C1331 C1332 1.374 . S
C1332 H1306 0.950 . S
C1332 C1328 1.385 . S
C1332 C1331 1.374 . S
C1333 C1330 1.499 . S
C1333 C1334 1.373 . S
C1333 C1335 1.389 . S
C1334 H1307 0.950 . S
C1334 C1320 1.377 . S
C1334 C1333 1.373 . S
C1335 C1319 1.377 . S
C1335 C1333 1.389 . S
C1335 C1336 1.524 . S
C1336 C1335 1.524 . S
C1336 C1337 1.397 . S
C1336 C1341 1.363 . S
C1337 H1308 0.950 . S
C1337 C1336 1.397 . S
C1337 C1338 1.334 . S
C1338 H1309 0.950 . S
C1338 C1337 1.334 . S
C1338 C1339 1.287 . S
C1339 C1338 1.287 . S
C1339 C1340 1.524 . S
C1339 H1342 0.999 . S
C1340 H1310 0.950 . S
C1340 C1339 1.524 . S
C1340 C1341 1.415 . S
C1341 H1311 0.950 . S
C1341 C1336 1.363 . S
C1341 C1340 1.415 . S
H1342 C1339 0.999 . S
H1343 C1324 0.913 . S
H1344 C1362 0.951 . S
H1345 C1364 0.951 . S
H1346 C1366 0.950 . S
H1347 C1367 0.950 . S
H1348 C1369 0.950 . S
H1349 C1372 0.950 . S
H1350 C1373 0.950 . S
H1351 C1375 0.950 . S
H1352 C1376 0.950 . S
H1353 C1377 0.951 . S
H1354 C1379 0.951 . S
H1355 C1381 0.950 . S
H1356 C1382 0.950 . S
H1357 C1384 0.950 . S
H1358 C1387 0.950 . S
H1359 C1388 0.950 . S
H1360 C1390 0.950 . S
H1361 C1391 0.950 . S
C1362 H1344 0.951 . S
C1362 C1363 1.366 . S
C1362 C1364 1.388 . S
C1363 C1362 1.366 . S
C1363 C1367 1.385 . S
C1364 H1345 0.951 . S
C1364 C1362 1.388 . S
C1364 C1365 1.366 . S
C1365 C1364 1.366 . S
C1365 C1366 1.414 . S
C1365 C1368 1.499 . S
C1366 H1346 0.950 . S
C1366 C1365 1.414 . S
C1366 C1367 1.374 . S
C1367 H1347 0.950 . S
C1367 C1363 1.385 . S
C1367 C1366 1.374 . S
C1368 C1365 1.499 . S
C1368 C1369 1.373 . S
C1368 C1370 1.389 . S
C1369 H1348 0.950 . S
C1369 C1368 1.373 . S
C1369 C1385 1.377 . S
C1370 C1368 1.389 . S
C1370 C1371 1.524 . S
C1370 C1384 1.377 . S
C1371 C1370 1.524 . S
C1371 C1372 1.397 . S
C1371 C1376 1.363 . S
C1372 H1349 0.950 . S
C1372 C1371 1.397 . S
C1372 C1373 1.334 . S
C1373 H1350 0.950 . S
C1373 C1372 1.334 . S
C1373 C1374 1.287 . S
C1374 C1373 1.287 . S
C1374 C1375 1.524 . S
C1374 H1393 0.913 . S
C1375 H1351 0.950 . S
C1375 C1374 1.524 . S
C1375 C1376 1.415 . S
C1376 H1352 0.950 . S
C1376 C1371 1.363 . S
C1376 C1375 1.415 . S
C1377 H1353 0.951 . S
C1377 C1378 1.366 . S
C1377 C1379 1.388 . S
C1378 C1377 1.366 . S
C1378 C1382 1.385 . S
C1379 H1354 0.951 . S
C1379 C1377 1.388 . S
C1379 C1380 1.366 . S
C1380 C1379 1.366 . S
C1380 C1381 1.414 . S
C1380 C1383 1.499 . S
C1381 H1355 0.950 . S
C1381 C1380 1.414 . S
C1381 C1382 1.374 . S
C1382 H1356 0.950 . S
C1382 C1378 1.385 . S
C1382 C1381 1.374 . S
C1383 C1380 1.499 . S
C1383 C1384 1.373 . S
C1383 C1385 1.389 . S
C1384 H1357 0.950 . S
C1384 C1370 1.377 . S
C1384 C1383 1.373 . S
C1385 C1369 1.377 . S
C1385 C1383 1.389 . S
C1385 C1386 1.524 . S
C1386 C1385 1.524 . S
C1386 C1387 1.397 . S
C1386 C1391 1.363 . S
C1387 H1358 0.950 . S
C1387 C1386 1.397 . S
C1387 C1388 1.334 . S
C1388 H1359 0.950 . S
C1388 C1387 1.334 . S
C1388 C1389 1.287 . S
C1389 C1388 1.287 . S
C1389 C1390 1.524 . S
C1389 H1392 0.999 . S
C1390 H1360 0.950 . S
C1390 C1389 1.524 . S
C1390 C1391 1.415 . S
C1391 H1361 0.950 . S
C1391 C1386 1.363 . S
C1391 C1390 1.415 . S
H1392 C1389 0.999 . S
H1393 C1374 0.913 . S
H1394 C1412 0.951 . S
H1395 C1414 0.951 . S
H1396 C1416 0.950 . S
H1397 C1417 0.950 . S
H1398 C1419 0.950 . S
H1399 C1422 0.950 . S
H1400 C1423 0.950 . S
H1401 C1425 0.950 . S
H1402 C1426 0.950 . S
H1403 C1427 0.951 . S
H1404 C1429 0.951 . S
H1405 C1431 0.950 . S
H1406 C1432 0.950 . S
H1407 C1434 0.950 . S
H1408 C1437 0.950 . S
H1409 C1438 0.950 . S
H1410 C1440 0.950 . S
H1411 C1441 0.950 . S
C1412 H1394 0.951 . S
C1412 C1413 1.366 . S
C1412 C1414 1.388 . S
C1413 C1412 1.366 . S
C1413 C1417 1.385 . S
C1414 H1395 0.951 . S
C1414 C1412 1.388 . S
C1414 C1415 1.366 . S
C1415 C1414 1.366 . S
C1415 C1416 1.414 . S
C1415 C1418 1.499 . S
C1416 H1396 0.950 . S
C1416 C1415 1.414 . S
C1416 C1417 1.374 . S
C1417 H1397 0.950 . S
C1417 C1413 1.385 . S
C1417 C1416 1.374 . S
C1418 C1415 1.499 . S
C1418 C1419 1.373 . S
C1418 C1420 1.389 . S
C1419 H1398 0.950 . S
C1419 C1418 1.373 . S
C1419 C1435 1.377 . S
C1420 C1418 1.389 . S
C1420 C1421 1.524 . S
C1420 C1434 1.377 . S
C1421 C1420 1.524 . S
C1421 C1422 1.397 . S
C1421 C1426 1.363 . S
C1422 H1399 0.950 . S
C1422 C1421 1.397 . S
C1422 C1423 1.334 . S
C1423 H1400 0.950 . S
C1423 C1422 1.334 . S
C1423 C1424 1.287 . S
C1424 C1423 1.287 . S
C1424 C1425 1.524 . S
C1424 H1443 0.913 . S
C1425 H1401 0.950 . S
C1425 C1424 1.524 . S
C1425 C1426 1.415 . S
C1426 H1402 0.950 . S
C1426 C1421 1.363 . S
C1426 C1425 1.415 . S
C1427 H1403 0.951 . S
C1427 C1428 1.366 1_655 S
C1427 C1429 1.388 . S
C1428 C1427 1.366 1_455 S
C1428 C1432 1.385 . S
C1429 H1404 0.951 . S
C1429 C1427 1.388 . S
C1429 C1430 1.366 . S
C1430 C1429 1.366 . S
C1430 C1431 1.414 1_655 S
C1430 C1433 1.499 . S
C1431 H1405 0.950 . S
C1431 C1430 1.414 1_455 S
C1431 C1432 1.374 . S
C1432 H1406 0.950 . S
C1432 C1428 1.385 . S
C1432 C1431 1.374 . S
C1433 C1430 1.499 . S
C1433 C1434 1.373 . S
C1433 C1435 1.389 . S
C1434 H1407 0.950 . S
C1434 C1420 1.377 . S
C1434 C1433 1.373 . S
C1435 C1419 1.377 . S
C1435 C1433 1.389 . S
C1435 C1436 1.524 . S
C1436 C1435 1.524 . S
C1436 C1437 1.397 . S
C1436 C1441 1.363 . S
C1437 H1408 0.950 . S
C1437 C1436 1.397 . S
C1437 C1438 1.334 . S
C1438 H1409 0.950 . S
C1438 C1437 1.334 . S
C1438 C1439 1.287 . S
C1439 C1438 1.287 . S
C1439 C1440 1.524 . S
C1439 H1442 0.999 . S
C1440 H1410 0.950 . S
C1440 C1439 1.524 . S
C1440 C1441 1.415 . S
C1441 H1411 0.950 . S
C1441 C1436 1.363 . S
C1441 C1440 1.415 . S
H1442 C1439 0.999 . S
H1443 C1424 0.913 . S
H1444 C1462 0.951 . S
H1445 C1464 0.951 . S
H1446 C1466 0.950 . S
H1447 C1467 0.950 . S
H1448 C1469 0.950 . S
H1449 C1472 0.950 . S
H1450 C1473 0.950 . S
H1451 C1475 0.950 . S
H1452 C1476 0.950 . S
H1453 C1477 0.951 . S
H1454 C1479 0.951 . S
H1455 C1481 0.950 . S
H1456 C1482 0.950 . S
H1457 C1484 0.950 . S
H1458 C1487 0.950 . S
H1459 C1488 0.950 . S
H1460 C1490 0.950 . S
H1461 C1491 0.950 . S
C1462 H1444 0.951 . S
C1462 C1463 1.366 . S
C1462 C1464 1.388 . S
C1463 C1462 1.366 . S
C1463 C1467 1.385 . S
C1464 H1445 0.951 . S
C1464 C1462 1.388 . S
C1464 C1465 1.366 . S
C1465 C1464 1.366 . S
C1465 C1466 1.414 . S
C1465 C1468 1.499 . S
C1466 H1446 0.950 . S
C1466 C1465 1.414 . S
C1466 C1467 1.374 . S
C1467 H1447 0.950 . S
C1467 C1463 1.385 . S
C1467 C1466 1.374 . S
C1468 C1465 1.499 . S
C1468 C1469 1.373 . S
C1468 C1470 1.389 . S
C1469 H1448 0.950 . S
C1469 C1468 1.373 . S
C1469 C1485 1.377 . S
C1470 C1468 1.389 . S
C1470 C1471 1.524 . S
C1470 C1484 1.377 . S
C1471 C1470 1.524 . S
C1471 C1472 1.397 . S
C1471 C1476 1.363 . S
C1472 H1449 0.950 . S
C1472 C1471 1.397 . S
C1472 C1473 1.334 . S
C1473 H1450 0.950 . S
C1473 C1472 1.334 . S
C1473 C1474 1.287 . S
C1474 C1473 1.287 . S
C1474 C1475 1.524 . S
C1474 H1493 0.913 . S
C1475 H1451 0.950 . S
C1475 C1474 1.524 . S
C1475 C1476 1.415 . S
C1476 H1452 0.950 . S
C1476 C1471 1.363 . S
C1476 C1475 1.415 . S
C1477 H1453 0.951 . S
C1477 C1478 1.366 . S
C1477 C1479 1.388 . S
C1478 C1477 1.366 . S
C1478 C1482 1.385 . S
C1479 H1454 0.951 . S
C1479 C1477 1.388 . S
C1479 C1480 1.366 . S
C1480 C1479 1.366 . S
C1480 C1481 1.414 . S
C1480 C1483 1.499 . S
C1481 H1455 0.950 . S
C1481 C1480 1.414 . S
C1481 C1482 1.374 . S
C1482 H1456 0.950 . S
C1482 C1478 1.385 . S
C1482 C1481 1.374 . S
C1483 C1480 1.499 . S
C1483 C1484 1.373 . S
C1483 C1485 1.389 . S
C1484 H1457 0.950 . S
C1484 C1470 1.377 . S
C1484 C1483 1.373 . S
C1485 C1469 1.377 . S
C1485 C1483 1.389 . S
C1485 C1486 1.524 . S
C1486 C1485 1.524 . S
C1486 C1487 1.397 . S
C1486 C1491 1.363 . S
C1487 H1458 0.950 . S
C1487 C1486 1.397 . S
C1487 C1488 1.334 . S
C1488 H1459 0.950 . S
C1488 C1487 1.334 . S
C1488 C1489 1.287 . S
C1489 C1488 1.287 . S
C1489 C1490 1.524 . S
C1489 H1492 0.999 . S
C1490 H1460 0.950 . S
C1490 C1489 1.524 . S
C1490 C1491 1.415 . S
C1491 H1461 0.950 . S
C1491 C1486 1.363 . S
C1491 C1490 1.415 . S
H1492 C1489 0.999 . S
H1493 C1474 0.913 . S
H1494 C1512 0.951 . S
H1495 C1514 0.951 . S
H1496 C1516 0.950 1_455 S
H1497 C1517 0.950 . S
H1498 C1519 0.950 . S
H1499 C1522 0.950 . S
H1500 C1523 0.950 . S
H1501 C1525 0.950 . S
H1502 C1526 0.950 . S
H1503 C1527 0.951 . S
H1504 C1529 0.951 . S
H1505 C1531 0.950 . S
H1506 C1532 0.950 . S
H1507 C1534 0.950 . S
H1508 C1537 0.950 . S
H1509 C1538 0.950 . S
H1510 C1540 0.950 1_455 S
H1511 C1541 0.950 . S
C1512 H1494 0.951 . S
C1512 C1513 1.366 1_655 S
C1512 C1514 1.388 . S
C1513 C1512 1.366 1_455 S
C1513 C1517 1.385 . S
C1514 H1495 0.951 . S
C1514 C1512 1.388 . S
C1514 C1515 1.366 . S
C1515 C1514 1.366 . S
C1515 C1516 1.414 . S
C1515 C1518 1.499 . S
C1516 H1496 0.950 1_655 S
C1516 C1515 1.414 . S
C1516 C1517 1.374 1_655 S
C1517 H1497 0.950 . S
C1517 C1513 1.385 . S
C1517 C1516 1.374 1_455 S
C1518 C1515 1.499 . S
C1518 C1519 1.373 . S
C1518 C1520 1.389 . S
C1519 H1498 0.950 . S
C1519 C1518 1.373 . S
C1519 C1535 1.377 . S
C1520 C1518 1.389 . S
C1520 C1521 1.524 . S
C1520 C1534 1.377 . S
C1521 C1520 1.524 . S
C1521 C1522 1.397 . S
C1521 C1526 1.363 . S
C1522 H1499 0.950 . S
C1522 C1521 1.397 . S
C1522 C1523 1.334 . S
C1523 H1500 0.950 . S
C1523 C1522 1.334 . S
C1523 C1524 1.287 . S
C1524 C1523 1.287 . S
C1524 C1525 1.524 . S
C1524 H1543 0.913 . S
C1525 H1501 0.950 . S
C1525 C1524 1.524 . S
C1525 C1526 1.415 . S
C1526 H1502 0.950 . S
C1526 C1521 1.363 . S
C1526 C1525 1.415 . S
C1527 H1503 0.951 . S
C1527 C1528 1.366 . S
C1527 C1529 1.388 . S
C1528 C1527 1.366 . S
C1528 C1532 1.385 . S
C1529 H1504 0.951 . S
C1529 C1527 1.388 . S
C1529 C1530 1.366 . S
C1530 C1529 1.366 . S
C1530 C1531 1.414 . S
C1530 C1533 1.499 . S
C1531 H1505 0.950 . S
C1531 C1530 1.414 . S
C1531 C1532 1.374 . S
C1532 H1506 0.950 . S
C1532 C1528 1.385 . S
C1532 C1531 1.374 . S
C1533 C1530 1.499 . S
C1533 C1534 1.373 . S
C1533 C1535 1.389 . S
C1534 H1507 0.950 . S
C1534 C1520 1.377 . S
C1534 C1533 1.373 . S
C1535 C1519 1.377 . S
C1535 C1533 1.389 . S
C1535 C1536 1.524 . S
C1536 C1535 1.524 . S
C1536 C1537 1.397 . S
C1536 C1541 1.363 . S
C1537 H1508 0.950 . S
C1537 C1536 1.397 . S
C1537 C1538 1.334 . S
C1538 H1509 0.950 . S
C1538 C1537 1.334 . S
C1538 C1539 1.287 . S
C1539 C1538 1.287 . S
C1539 C1540 1.524 . S
C1539 H1542 0.999 . S
C1540 H1510 0.950 1_655 S
C1540 C1539 1.524 . S
C1540 C1541 1.415 . S
C1541 H1511 0.950 . S
C1541 C1536 1.363 . S
C1541 C1540 1.415 . S
H1542 C1539 0.999 . S
H1543 C1524 0.913 . S
H1544 C1562 0.951 . S
H1545 C1564 0.951 . S
H1546 C1566 0.950 . S
H1547 C1567 0.950 . S
H1548 C1569 0.950 . S
H1549 C1572 0.950 . S
H1550 C1573 0.950 . S
H1551 C1575 0.950 . S
H1552 C1576 0.950 . S
H1553 C1577 0.951 . S
H1554 C1579 0.951 . S
H1555 C1581 0.950 . S
H1556 C1582 0.950 . S
H1557 C1584 0.950 . S
H1558 C1587 0.950 . S
H1559 C1588 0.950 . S
H1560 C1590 0.950 . S
H1561 C1591 0.950 . S
C1562 H1544 0.951 . S
C1562 C1563 1.366 . S
C1562 C1564 1.388 . S
C1563 C1562 1.366 . S
C1563 C1567 1.385 . S
C1564 H1545 0.951 . S
C1564 C1562 1.388 . S
C1564 C1565 1.366 . S
C1565 C1564 1.366 . S
C1565 C1566 1.414 . S
C1565 C1568 1.499 . S
C1566 H1546 0.950 . S
C1566 C1565 1.414 . S
C1566 C1567 1.374 . S
C1567 H1547 0.950 . S
C1567 C1563 1.385 . S
C1567 C1566 1.374 . S
C1568 C1565 1.499 . S
C1568 C1569 1.373 . S
C1568 C1570 1.389 . S
C1569 H1548 0.950 . S
C1569 C1568 1.373 . S
C1569 C1585 1.377 . S
C1570 C1568 1.389 . S
C1570 C1571 1.524 . S
C1570 C1584 1.377 . S
C1571 C1570 1.524 . S
C1571 C1572 1.397 . S
C1571 C1576 1.363 . S
C1572 H1549 0.950 . S
C1572 C1571 1.397 . S
C1572 C1573 1.334 . S
C1573 H1550 0.950 . S
C1573 C1572 1.334 . S
C1573 C1574 1.287 . S
C1574 C1573 1.287 . S
C1574 C1575 1.524 . S
C1574 H1593 0.913 . S
C1575 H1551 0.950 . S
C1575 C1574 1.524 . S
C1575 C1576 1.415 . S
C1576 H1552 0.950 . S
C1576 C1571 1.363 . S
C1576 C1575 1.415 . S
C1577 H1553 0.951 . S
C1577 C1578 1.366 . S
C1577 C1579 1.388 . S
C1578 C1577 1.366 . S
C1578 C1582 1.385 . S
C1579 H1554 0.951 . S
C1579 C1577 1.388 . S
C1579 C1580 1.366 . S
C1580 C1579 1.366 . S
C1580 C1581 1.414 . S
C1580 C1583 1.499 . S
C1581 H1555 0.950 . S
C1581 C1580 1.414 . S
C1581 C1582 1.374 . S
C1582 H1556 0.950 . S
C1582 C1578 1.385 . S
C1582 C1581 1.374 . S
C1583 C1580 1.499 . S
C1583 C1584 1.373 . S
C1583 C1585 1.389 . S
C1584 H1557 0.950 . S
C1584 C1570 1.377 . S
C1584 C1583 1.373 . S
C1585 C1569 1.377 . S
C1585 C1583 1.389 . S
C1585 C1586 1.524 . S
C1586 C1585 1.524 . S
C1586 C1587 1.397 . S
C1586 C1591 1.363 . S
C1587 H1558 0.950 . S
C1587 C1586 1.397 . S
C1587 C1588 1.334 . S
C1588 H1559 0.950 . S
C1588 C1587 1.334 . S
C1588 C1589 1.287 . S
C1589 C1588 1.287 . S
C1589 C1590 1.524 . S
C1589 H1592 0.999 . S
C1590 H1560 0.950 . S
C1590 C1589 1.524 . S
C1590 C1591 1.415 . S
C1591 H1561 0.950 . S
C1591 C1586 1.363 . S
C1591 C1590 1.415 . S
H1592 C1589 0.999 . S
H1593 C1574 0.913 . S
H1594 C1612 0.951 . S
H1595 C1614 0.951 . S
H1596 C1616 0.950 . S
H1597 C1617 0.950 . S
H1598 C1619 0.950 . S
H1599 C1622 0.950 . S
H1600 C1623 0.950 . S
H1601 C1625 0.950 . S
H1602 C1626 0.950 . S
H1603 C1627 0.951 . S
H1604 C1629 0.951 . S
H1605 C1631 0.950 . S
H1606 C1632 0.950 . S
H1607 C1634 0.950 . S
H1608 C1637 0.950 . S
H1609 C1638 0.950 . S
H1610 C1640 0.950 . S
H1611 C1641 0.950 . S
C1612 H1594 0.951 . S
C1612 C1613 1.366 . S
C1612 C1614 1.388 . S
C1613 C1612 1.366 . S
C1613 C1617 1.385 . S
C1614 H1595 0.951 . S
C1614 C1612 1.388 . S
C1614 C1615 1.366 . S
C1615 C1614 1.366 . S
C1615 C1616 1.414 . S
C1615 C1618 1.499 . S
C1616 H1596 0.950 . S
C1616 C1615 1.414 . S
C1616 C1617 1.374 . S
C1617 H1597 0.950 . S
C1617 C1613 1.385 . S
C1617 C1616 1.374 . S
C1618 C1615 1.499 . S
C1618 C1619 1.373 . S
C1618 C1620 1.389 . S
C1619 H1598 0.950 . S
C1619 C1618 1.373 . S
C1619 C1635 1.377 . S
C1620 C1618 1.389 . S
C1620 C1621 1.524 . S
C1620 C1634 1.377 . S
C1621 C1620 1.524 . S
C1621 C1622 1.397 . S
C1621 C1626 1.363 . S
C1622 H1599 0.950 . S
C1622 C1621 1.397 . S
C1622 C1623 1.334 . S
C1623 H1600 0.950 . S
C1623 C1622 1.334 . S
C1623 C1624 1.287 . S
C1624 C1623 1.287 . S
C1624 C1625 1.524 . S
C1624 H1643 0.913 . S
C1625 H1601 0.950 . S
C1625 C1624 1.524 . S
C1625 C1626 1.415 . S
C1626 H1602 0.950 . S
C1626 C1621 1.363 . S
C1626 C1625 1.415 . S
C1627 H1603 0.951 . S
C1627 C1628 1.366 1_455 S
C1627 C1629 1.388 . S
C1628 C1627 1.366 1_655 S
C1628 C1632 1.385 . S
C1629 H1604 0.951 . S
C1629 C1627 1.388 . S
C1629 C1630 1.366 . S
C1630 C1629 1.366 . S
C1630 C1631 1.414 . S
C1630 C1633 1.499 . S
C1631 H1605 0.950 . S
C1631 C1630 1.414 . S
C1631 C1632 1.374 1_455 S
C1632 H1606 0.950 . S
C1632 C1628 1.385 . S
C1632 C1631 1.374 1_655 S
C1633 C1630 1.499 . S
C1633 C1634 1.373 . S
C1633 C1635 1.389 . S
C1634 H1607 0.950 . S
C1634 C1620 1.377 . S
C1634 C1633 1.373 . S
C1635 C1619 1.377 . S
C1635 C1633 1.389 . S
C1635 C1636 1.524 . S
C1636 C1635 1.524 . S
C1636 C1637 1.397 1_455 S
C1636 C1641 1.363 . S
C1637 H1608 0.950 . S
C1637 C1636 1.397 1_655 S
C1637 C1638 1.334 . S
C1638 H1609 0.950 . S
C1638 C1637 1.334 . S
C1638 C1639 1.287 . S
C1639 C1638 1.287 . S
C1639 C1640 1.524 1_655 S
C1639 H1642 0.999 . S
C1640 H1610 0.950 . S
C1640 C1639 1.524 1_455 S
C1640 C1641 1.415 . S
C1641 H1611 0.950 . S
C1641 C1636 1.363 . S
C1641 C1640 1.415 . S
H1642 C1639 0.999 . S
H1643 C1624 0.913 . S
H1644 C1662 0.951 . S
H1645 C1664 0.951 . S
H1646 C1666 0.950 . S
H1647 C1667 0.950 . S
H1648 C1669 0.950 . S
H1649 C1672 0.950 . S
H1650 C1673 0.950 . S
H1651 C1675 0.950 . S
H1652 C1676 0.950 . S
H1653 C1677 0.951 . S
H1654 C1679 0.951 . S
H1655 C1681 0.950 . S
H1656 C1682 0.950 . S
H1657 C1684 0.950 . S
H1658 C1687 0.950 . S
H1659 C1688 0.950 . S
H1660 C1690 0.950 . S
H1661 C1691 0.950 . S
C1662 H1644 0.951 . S
C1662 C1663 1.366 . S
C1662 C1664 1.388 . S
C1663 C1662 1.366 . S
C1663 C1667 1.385 . S
C1664 H1645 0.951 . S
C1664 C1662 1.388 . S
C1664 C1665 1.366 . S
C1665 C1664 1.366 . S
C1665 C1666 1.414 . S
C1665 C1668 1.499 . S
C1666 H1646 0.950 . S
C1666 C1665 1.414 . S
C1666 C1667 1.374 . S
C1667 H1647 0.950 . S
C1667 C1663 1.385 . S
C1667 C1666 1.374 . S
C1668 C1665 1.499 . S
C1668 C1669 1.373 . S
C1668 C1670 1.389 . S
C1669 H1648 0.950 . S
C1669 C1668 1.373 . S
C1669 C1685 1.377 . S
C1670 C1668 1.389 . S
C1670 C1671 1.524 . S
C1670 C1684 1.377 . S
C1671 C1670 1.524 . S
C1671 C1672 1.397 . S
C1671 C1676 1.363 . S
C1672 H1649 0.950 . S
C1672 C1671 1.397 . S
C1672 C1673 1.334 . S
C1673 H1650 0.950 . S
C1673 C1672 1.334 . S
C1673 C1674 1.287 . S
C1674 C1673 1.287 . S
C1674 C1675 1.524 . S
C1674 H1693 0.913 . S
C1675 H1651 0.950 . S
C1675 C1674 1.524 . S
C1675 C1676 1.415 . S
C1676 H1652 0.950 . S
C1676 C1671 1.363 . S
C1676 C1675 1.415 . S
C1677 H1653 0.951 . S
C1677 C1678 1.366 . S
C1677 C1679 1.388 . S
C1678 C1677 1.366 . S
C1678 C1682 1.385 . S
C1679 H1654 0.951 . S
C1679 C1677 1.388 . S
C1679 C1680 1.366 . S
C1680 C1679 1.366 . S
C1680 C1681 1.414 . S
C1680 C1683 1.499 . S
C1681 H1655 0.950 . S
C1681 C1680 1.414 . S
C1681 C1682 1.374 . S
C1682 H1656 0.950 . S
C1682 C1678 1.385 . S
C1682 C1681 1.374 . S
C1683 C1680 1.499 . S
C1683 C1684 1.373 . S
C1683 C1685 1.389 . S
C1684 H1657 0.950 . S
C1684 C1670 1.377 . S
C1684 C1683 1.373 . S
C1685 C1669 1.377 . S
C1685 C1683 1.389 . S
C1685 C1686 1.524 . S
C1686 C1685 1.524 . S
C1686 C1687 1.397 . S
C1686 C1691 1.363 . S
C1687 H1658 0.950 . S
C1687 C1686 1.397 . S
C1687 C1688 1.334 . S
C1688 H1659 0.950 . S
C1688 C1687 1.334 . S
C1688 C1689 1.287 . S
C1689 C1688 1.287 . S
C1689 C1690 1.524 . S
C1689 H1692 0.999 . S
C1690 H1660 0.950 . S
C1690 C1689 1.524 . S
C1690 C1691 1.415 . S
C1691 H1661 0.950 . S
C1691 C1686 1.363 . S
C1691 C1690 1.415 . S
H1692 C1689 0.999 . S
H1693 C1674 0.913 . S
H1694 C1712 0.950 1_655 S
H1695 C1714 0.951 . S
H1696 C1716 0.950 . S
H1697 C1717 0.950 . S
H1698 C1719 0.950 . S
H1699 C1722 0.950 . S
H1700 C1723 0.950 . S
H1701 C1725 0.950 . S
H1702 C1726 0.950 . S
H1703 C1727 0.951 . S
H1704 C1729 0.951 . S
H1705 C1731 0.950 . S
H1706 C1732 0.950 . S
H1707 C1734 0.950 . S
H1708 C1737 0.950 . S
H1709 C1738 0.950 . S
H1710 C1740 0.950 . S
H1711 C1741 0.950 . S
C1712 H1694 0.950 1_455 S
C1712 C1713 1.365 1_455 S
C1712 C1714 1.389 . S
C1713 C1712 1.365 1_655 S
C1713 C1717 1.385 1_655 S
C1714 H1695 0.951 . S
C1714 C1712 1.389 . S
C1714 C1715 1.366 . S
C1715 C1714 1.366 . S
C1715 C1716 1.414 . S
C1715 C1718 1.499 . S
C1716 H1696 0.950 . S
C1716 C1715 1.414 . S
C1716 C1717 1.374 . S
C1717 H1697 0.950 . S
C1717 C1713 1.385 1_455 S
C1717 C1716 1.374 . S
C1718 C1715 1.499 . S
C1718 C1719 1.373 . S
C1718 C1720 1.389 . S
C1719 H1698 0.950 . S
C1719 C1718 1.373 . S
C1719 C1735 1.377 . S
C1720 C1718 1.389 . S
C1720 C1721 1.524 . S
C1720 C1734 1.377 . S
C1721 C1720 1.524 . S
C1721 C1722 1.397 . S
C1721 C1726 1.363 . S
C1722 H1699 0.950 . S
C1722 C1721 1.397 . S
C1722 C1723 1.334 . S
C1723 H1700 0.950 . S
C1723 C1722 1.334 . S
C1723 C1724 1.287 . S
C1724 C1723 1.287 . S
C1724 C1725 1.524 . S
C1724 H1743 0.913 . S
C1725 H1701 0.950 . S
C1725 C1724 1.524 . S
C1725 C1726 1.415 . S
C1726 H1702 0.950 . S
C1726 C1721 1.363 . S
C1726 C1725 1.415 . S
C1727 H1703 0.951 . S
C1727 C1728 1.366 . S
C1727 C1729 1.388 . S
C1728 C1727 1.366 . S
C1728 C1732 1.385 . S
C1729 H1704 0.951 . S
C1729 C1727 1.388 . S
C1729 C1730 1.366 . S
C1730 C1729 1.366 . S
C1730 C1731 1.414 . S
C1730 C1733 1.499 . S
C1731 H1705 0.950 . S
C1731 C1730 1.414 . S
C1731 C1732 1.374 . S
C1732 H1706 0.950 . S
C1732 C1728 1.385 . S
C1732 C1731 1.374 . S
C1733 C1730 1.499 . S
C1733 C1734 1.373 . S
C1733 C1735 1.389 . S
C1734 H1707 0.950 . S
C1734 C1720 1.377 . S
C1734 C1733 1.373 . S
C1735 C1719 1.377 . S
C1735 C1733 1.389 . S
C1735 C1736 1.524 . S
C1736 C1735 1.524 . S
C1736 C1737 1.397 . S
C1736 C1741 1.363 . S
C1737 H1708 0.950 . S
C1737 C1736 1.397 . S
C1737 C1738 1.334 . S
C1738 H1709 0.950 . S
C1738 C1737 1.334 . S
C1738 C1739 1.287 . S
C1739 C1738 1.287 . S
C1739 C1740 1.524 . S
C1739 H1742 0.999 . S
C1740 H1710 0.950 . S
C1740 C1739 1.524 . S
C1740 C1741 1.415 . S
C1741 H1711 0.950 . S
C1741 C1736 1.363 . S
C1741 C1740 1.415 . S
H1742 C1739 0.999 . S
H1743 C1724 0.913 . S
H1744 C1762 0.951 . S
H1745 C1764 0.951 . S
H1746 C1766 0.950 . S
H1747 C1767 0.950 . S
H1748 C1769 0.950 . S
H1749 C1772 0.950 . S
H1750 C1773 0.950 . S
H1751 C1775 0.950 . S
H1752 C1776 0.950 . S
H1753 C1777 0.951 . S
H1754 C1779 0.951 . S
H1755 C1781 0.950 . S
H1756 C1782 0.950 . S
H1757 C1784 0.950 . S
H1758 C1787 0.950 . S
H1759 C1788 0.950 . S
H1760 C1790 0.950 . S
H1761 C1791 0.950 . S
C1762 H1744 0.951 . S
C1762 C1763 1.366 . S
C1762 C1764 1.388 . S
C1763 C1762 1.366 . S
C1763 C1767 1.385 . S
C1764 H1745 0.951 . S
C1764 C1762 1.388 . S
C1764 C1765 1.366 . S
C1765 C1764 1.366 . S
C1765 C1766 1.414 . S
C1765 C1768 1.499 . S
C1766 H1746 0.950 . S
C1766 C1765 1.414 . S
C1766 C1767 1.374 . S
C1767 H1747 0.950 . S
C1767 C1763 1.385 . S
C1767 C1766 1.374 . S
C1768 C1765 1.499 . S
C1768 C1769 1.373 . S
C1768 C1770 1.389 . S
C1769 H1748 0.950 . S
C1769 C1768 1.373 . S
C1769 C1785 1.377 . S
C1770 C1768 1.389 . S
C1770 C1771 1.524 . S
C1770 C1784 1.377 . S
C1771 C1770 1.524 . S
C1771 C1772 1.397 . S
C1771 C1776 1.363 . S
C1772 H1749 0.950 . S
C1772 C1771 1.397 . S
C1772 C1773 1.334 . S
C1773 H1750 0.950 . S
C1773 C1772 1.334 . S
C1773 C1774 1.287 . S
C1774 C1773 1.287 . S
C1774 C1775 1.524 . S
C1774 H1793 0.913 . S
C1775 H1751 0.950 . S
C1775 C1774 1.524 . S
C1775 C1776 1.415 . S
C1776 H1752 0.950 . S
C1776 C1771 1.363 . S
C1776 C1775 1.415 . S
C1777 H1753 0.951 . S
C1777 C1778 1.366 . S
C1777 C1779 1.388 . S
C1778 C1777 1.366 . S
C1778 C1782 1.385 . S
C1779 H1754 0.951 . S
C1779 C1777 1.388 . S
C1779 C1780 1.366 . S
C1780 C1779 1.366 . S
C1780 C1781 1.414 . S
C1780 C1783 1.499 . S
C1781 H1755 0.950 . S
C1781 C1780 1.414 . S
C1781 C1782 1.374 . S
C1782 H1756 0.950 . S
C1782 C1778 1.385 . S
C1782 C1781 1.374 . S
C1783 C1780 1.499 . S
C1783 C1784 1.373 . S
C1783 C1785 1.389 . S
C1784 H1757 0.950 . S
C1784 C1770 1.377 . S
C1784 C1783 1.373 . S
C1785 C1769 1.377 . S
C1785 C1783 1.389 . S
C1785 C1786 1.524 . S
C1786 C1785 1.524 . S
C1786 C1787 1.397 . S
C1786 C1791 1.363 . S
C1787 H1758 0.950 . S
C1787 C1786 1.397 . S
C1787 C1788 1.334 . S
C1788 H1759 0.950 . S
C1788 C1787 1.334 . S
C1788 C1789 1.287 . S
C1789 C1788 1.287 . S
C1789 C1790 1.524 . S
C1789 H1792 0.999 . S
C1790 H1760 0.950 . S
C1790 C1789 1.524 . S
C1790 C1791 1.415 . S
C1791 H1761 0.950 . S
C1791 C1786 1.363 . S
C1791 C1790 1.415 . S
H1792 C1789 0.999 . S
H1793 C1774 0.913 . S
H1794 C1812 0.951 . S
H1795 C1814 0.951 . S
H1796 C1816 0.950 . S
H1797 C1817 0.950 . S
H1798 C1819 0.950 . S
H1799 C1822 0.950 . S
H1800 C1823 0.950 . S
H1801 C1825 0.950 . S
H1802 C1826 0.950 . S
H1803 C1827 0.951 . S
H1804 C1829 0.951 . S
H1805 C1831 0.950 . S
H1806 C1832 0.950 . S
H1807 C1834 0.950 . S
H1808 C1837 0.950 . S
H1809 C1838 0.950 . S
H1810 C1840 0.950 . S
H1811 C1841 0.950 . S
C1812 H1794 0.951 . S
C1812 C1813 1.366 . S
C1812 C1814 1.388 . S
C1813 C1812 1.366 . S
C1813 C1817 1.385 . S
C1814 H1795 0.951 . S
C1814 C1812 1.388 . S
C1814 C1815 1.366 . S
C1815 C1814 1.366 . S
C1815 C1816 1.414 . S
C1815 C1818 1.499 . S
C1816 H1796 0.950 . S
C1816 C1815 1.414 . S
C1816 C1817 1.374 . S
C1817 H1797 0.950 . S
C1817 C1813 1.385 . S
C1817 C1816 1.374 . S
C1818 C1815 1.499 . S
C1818 C1819 1.373 . S
C1818 C1820 1.389 . S
C1819 H1798 0.950 . S
C1819 C1818 1.373 . S
C1819 C1835 1.377 . S
C1820 C1818 1.389 . S
C1820 C1821 1.524 . S
C1820 C1834 1.377 . S
C1821 C1820 1.524 . S
C1821 C1822 1.397 . S
C1821 C1826 1.363 . S
C1822 H1799 0.950 . S
C1822 C1821 1.397 . S
C1822 C1823 1.334 . S
C1823 H1800 0.950 . S
C1823 C1822 1.334 . S
C1823 C1824 1.287 . S
C1824 C1823 1.287 . S
C1824 C1825 1.524 . S
C1824 H1843 0.913 . S
C1825 H1801 0.950 . S
C1825 C1824 1.524 . S
C1825 C1826 1.415 . S
C1826 H1802 0.950 . S
C1826 C1821 1.363 . S
C1826 C1825 1.415 . S
C1827 H1803 0.951 . S
C1827 C1828 1.366 1_655 S
C1827 C1829 1.388 . S
C1828 C1827 1.366 1_455 S
C1828 C1832 1.385 . S
C1829 H1804 0.951 . S
C1829 C1827 1.388 . S
C1829 C1830 1.366 . S
C1830 C1829 1.366 . S
C1830 C1831 1.414 1_655 S
C1830 C1833 1.499 . S
C1831 H1805 0.950 . S
C1831 C1830 1.414 1_455 S
C1831 C1832 1.374 . S
C1832 H1806 0.950 . S
C1832 C1828 1.385 . S
C1832 C1831 1.374 . S
C1833 C1830 1.499 . S
C1833 C1834 1.373 . S
C1833 C1835 1.389 . S
C1834 H1807 0.950 . S
C1834 C1820 1.377 . S
C1834 C1833 1.373 . S
C1835 C1819 1.377 . S
C1835 C1833 1.389 . S
C1835 C1836 1.524 . S
C1836 C1835 1.524 . S
C1836 C1837 1.397 . S
C1836 C1841 1.363 . S
C1837 H1808 0.950 . S
C1837 C1836 1.397 . S
C1837 C1838 1.334 . S
C1838 H1809 0.950 . S
C1838 C1837 1.334 . S
C1838 C1839 1.287 . S
C1839 C1838 1.287 . S
C1839 C1840 1.524 . S
C1839 H1842 0.999 . S
C1840 H1810 0.950 . S
C1840 C1839 1.524 . S
C1840 C1841 1.415 . S
C1841 H1811 0.950 . S
C1841 C1836 1.363 . S
C1841 C1840 1.415 . S
H1842 C1839 0.999 . S
H1843 C1824 0.913 . S
H1844 C1862 0.951 . S
H1845 C1864 0.951 . S
H1846 C1866 0.950 . S
H1847 C1867 0.950 . S
H1848 C1869 0.950 . S
H1849 C1872 0.950 . S
H1850 C1873 0.950 . S
H1851 C1875 0.950 . S
H1852 C1876 0.950 . S
H1853 C1877 0.951 . S
H1854 C1879 0.951 . S
H1855 C1881 0.950 . S
H1856 C1882 0.950 . S
H1857 C1884 0.950 . S
H1858 C1887 0.950 . S
H1859 C1888 0.950 . S
H1860 C1890 0.950 . S
H1861 C1891 0.950 . S
C1862 H1844 0.951 . S
C1862 C1863 1.366 . S
C1862 C1864 1.388 . S
C1863 C1862 1.366 . S
C1863 C1867 1.385 . S
C1864 H1845 0.951 . S
C1864 C1862 1.388 . S
C1864 C1865 1.366 . S
C1865 C1864 1.366 . S
C1865 C1866 1.414 . S
C1865 C1868 1.499 . S
C1866 H1846 0.950 . S
C1866 C1865 1.414 . S
C1866 C1867 1.374 . S
C1867 H1847 0.950 . S
C1867 C1863 1.385 . S
C1867 C1866 1.374 . S
C1868 C1865 1.499 . S
C1868 C1869 1.373 . S
C1868 C1870 1.389 . S
C1869 H1848 0.950 . S
C1869 C1868 1.373 . S
C1869 C1885 1.377 . S
C1870 C1868 1.389 . S
C1870 C1871 1.524 . S
C1870 C1884 1.377 . S
C1871 C1870 1.524 . S
C1871 C1872 1.397 . S
C1871 C1876 1.363 . S
C1872 H1849 0.950 . S
C1872 C1871 1.397 . S
C1872 C1873 1.334 . S
C1873 H1850 0.950 . S
C1873 C1872 1.334 . S
C1873 C1874 1.287 . S
C1874 C1873 1.287 . S
C1874 C1875 1.524 . S
C1874 H1893 0.913 . S
C1875 H1851 0.950 . S
C1875 C1874 1.524 . S
C1875 C1876 1.415 . S
C1876 H1852 0.950 . S
C1876 C1871 1.363 . S
C1876 C1875 1.415 . S
C1877 H1853 0.951 . S
C1877 C1878 1.366 . S
C1877 C1879 1.388 . S
C1878 C1877 1.366 . S
C1878 C1882 1.385 . S
C1879 H1854 0.951 . S
C1879 C1877 1.388 . S
C1879 C1880 1.366 . S
C1880 C1879 1.366 . S
C1880 C1881 1.414 . S
C1880 C1883 1.499 . S
C1881 H1855 0.950 . S
C1881 C1880 1.414 . S
C1881 C1882 1.374 . S
C1882 H1856 0.950 . S
C1882 C1878 1.385 . S
C1882 C1881 1.374 . S
C1883 C1880 1.499 . S
C1883 C1884 1.373 . S
C1883 C1885 1.389 . S
C1884 H1857 0.950 . S
C1884 C1870 1.377 . S
C1884 C1883 1.373 . S
C1885 C1869 1.377 . S
C1885 C1883 1.389 . S
C1885 C1886 1.524 . S
C1886 C1885 1.524 . S
C1886 C1887 1.397 . S
C1886 C1891 1.363 . S
C1887 H1858 0.950 . S
C1887 C1886 1.397 . S
C1887 C1888 1.334 . S
C1888 H1859 0.950 . S
C1888 C1887 1.334 . S
C1888 C1889 1.287 . S
C1889 C1888 1.287 . S
C1889 C1890 1.524 . S
C1889 H1892 0.999 . S
C1890 H1860 0.950 . S
C1890 C1889 1.524 . S
C1890 C1891 1.415 . S
C1891 H1861 0.950 . S
C1891 C1886 1.363 . S
C1891 C1890 1.415 . S
H1892 C1889 0.999 . S
H1893 C1874 0.913 . S
H1894 C1912 0.951 . S
H1895 C1914 0.951 . S
H1896 C1916 0.950 . S
H1897 C1917 0.950 . S
H1898 C1919 0.950 . S
H1899 C1922 0.950 . S
H1900 C1923 0.950 . S
H1901 C1925 0.950 1_455 S
H1902 C1926 0.950 . S
H1903 C1927 0.951 . S
H1904 C1929 0.951 . S
H1905 C1931 0.950 . S
H1906 C1932 0.950 . S
H1907 C1934 0.950 . S
H1908 C1937 0.950 . S
H1909 C1938 0.950 . S
H1910 C1940 0.950 . S
H1911 C1941 0.950 . S
C1912 H1894 0.951 . S
C1912 C1913 1.366 . S
C1912 C1914 1.388 . S
C1913 C1912 1.366 . S
C1913 C1917 1.385 . S
C1914 H1895 0.951 . S
C1914 C1912 1.388 . S
C1914 C1915 1.366 . S
C1915 C1914 1.366 . S
C1915 C1916 1.414 . S
C1915 C1918 1.499 . S
C1916 H1896 0.950 . S
C1916 C1915 1.414 . S
C1916 C1917 1.374 . S
C1917 H1897 0.950 . S
C1917 C1913 1.385 . S
C1917 C1916 1.374 . S
C1918 C1915 1.499 . S
C1918 C1919 1.373 . S
C1918 C1920 1.389 . S
C1919 H1898 0.950 . S
C1919 C1918 1.373 . S
C1919 C1935 1.377 . S
C1920 C1918 1.389 . S
C1920 C1921 1.524 . S
C1920 C1934 1.377 . S
C1921 C1920 1.524 . S
C1921 C1922 1.397 . S
C1921 C1926 1.363 . S
C1922 H1899 0.950 . S
C1922 C1921 1.397 . S
C1922 C1923 1.334 . S
C1923 H1900 0.950 . S
C1923 C1922 1.334 . S
C1923 C1924 1.287 . S
C1924 C1923 1.287 . S
C1924 C1925 1.524 . S
C1924 H1943 0.913 . S
C1925 H1901 0.950 1_655 S
C1925 C1924 1.524 . S
C1925 C1926 1.415 . S
C1926 H1902 0.950 . S
C1926 C1921 1.363 . S
C1926 C1925 1.415 . S
C1927 H1903 0.951 . S
C1927 C1928 1.366 1_655 S
C1927 C1929 1.388 . S
C1928 C1927 1.366 1_455 S
C1928 C1932 1.385 . S
C1929 H1904 0.951 . S
C1929 C1927 1.388 . S
C1929 C1930 1.366 . S
C1930 C1929 1.366 . S
C1930 C1931 1.414 . S
C1930 C1933 1.499 . S
C1931 H1905 0.950 . S
C1931 C1930 1.414 . S
C1931 C1932 1.374 1_655 S
C1932 H1906 0.950 . S
C1932 C1928 1.385 . S
C1932 C1931 1.374 1_455 S
C1933 C1930 1.499 . S
C1933 C1934 1.373 . S
C1933 C1935 1.389 . S
C1934 H1907 0.950 . S
C1934 C1920 1.377 . S
C1934 C1933 1.373 . S
C1935 C1919 1.377 . S
C1935 C1933 1.389 . S
C1935 C1936 1.524 . S
C1936 C1935 1.524 . S
C1936 C1937 1.397 . S
C1936 C1941 1.363 . S
C1937 H1908 0.950 . S
C1937 C1936 1.397 . S
C1937 C1938 1.334 . S
C1938 H1909 0.950 . S
C1938 C1937 1.334 . S
C1938 C1939 1.287 . S
C1939 C1938 1.287 . S
C1939 C1940 1.524 . S
C1939 H1942 0.999 . S
C1940 H1910 0.950 . S
C1940 C1939 1.524 . S
C1940 C1941 1.415 . S
C1941 H1911 0.950 . S
C1941 C1936 1.363 . S
C1941 C1940 1.415 . S
H1942 C1939 0.999 . S
H1943 C1924 0.913 . S
H1944 C1962 0.951 . S
H1945 C1964 0.951 . S
H1946 C1966 0.950 . S
H1947 C1967 0.950 . S
H1948 C1969 0.950 . S
H1949 C1972 0.950 . S
H1950 C1973 0.950 . S
H1951 C1975 0.950 . S
H1952 C1976 0.950 . S
H1953 C1977 0.951 . S
H1954 C1979 0.951 . S
H1955 C1981 0.950 . S
H1956 C1982 0.950 . S
H1957 C1984 0.950 . S
H1958 C1987 0.950 . S
H1959 C1988 0.950 . S
H1960 C1990 0.950 . S
H1961 C1991 0.950 . S
C1962 H1944 0.951 . S
C1962 C1963 1.366 . S
C1962 C1964 1.388 . S
C1963 C1962 1.366 . S
C1963 C1967 1.385 . S
C1964 H1945 0.951 . S
C1964 C1962 1.388 . S
C1964 C1965 1.366 . S
C1965 C1964 1.366 . S
C1965 C1966 1.414 . S
C1965 C1968 1.499 . S
C1966 H1946 0.950 . S
C1966 C1965 1.414 . S
C1966 C1967 1.374 . S
C1967 H1947 0.950 . S
C1967 C1963 1.385 . S
C1967 C1966 1.374 . S
C1968 C1965 1.499 . S
C1968 C1969 1.373 . S
C1968 C1970 1.389 . S
C1969 H1948 0.950 . S
C1969 C1968 1.373 . S
C1969 C1985 1.377 . S
C1970 C1968 1.389 . S
C1970 C1971 1.524 . S
C1970 C1984 1.377 . S
C1971 C1970 1.524 . S
C1971 C1972 1.397 . S
C1971 C1976 1.363 . S
C1972 H1949 0.950 . S
C1972 C1971 1.397 . S
C1972 C1973 1.334 . S
C1973 H1950 0.950 . S
C1973 C1972 1.334 . S
C1973 C1974 1.287 . S
C1974 C1973 1.287 . S
C1974 C1975 1.524 . S
C1974 H1993 0.913 . S
C1975 H1951 0.950 . S
C1975 C1974 1.524 . S
C1975 C1976 1.415 . S
C1976 H1952 0.950 . S
C1976 C1971 1.363 . S
C1976 C1975 1.415 . S
C1977 H1953 0.951 . S
C1977 C1978 1.366 . S
C1977 C1979 1.388 . S
C1978 C1977 1.366 . S
C1978 C1982 1.385 . S
C1979 H1954 0.951 . S
C1979 C1977 1.388 . S
C1979 C1980 1.366 . S
C1980 C1979 1.366 . S
C1980 C1981 1.414 . S
C1980 C1983 1.499 . S
C1981 H1955 0.950 . S
C1981 C1980 1.414 . S
C1981 C1982 1.374 . S
C1982 H1956 0.950 . S
C1982 C1978 1.385 . S
C1982 C1981 1.374 . S
C1983 C1980 1.499 . S
C1983 C1984 1.373 . S
C1983 C1985 1.389 . S
C1984 H1957 0.950 . S
C1984 C1970 1.377 . S
C1984 C1983 1.373 . S
C1985 C1969 1.377 . S
C1985 C1983 1.389 . S
C1985 C1986 1.524 . S
C1986 C1985 1.524 . S
C1986 C1987 1.397 . S
C1986 C1991 1.363 . S
C1987 H1958 0.950 . S
C1987 C1986 1.397 . S
C1987 C1988 1.334 . S
C1988 H1959 0.950 . S
C1988 C1987 1.334 . S
C1988 C1989 1.287 . S
C1989 C1988 1.287 . S
C1989 C1990 1.524 . S
C1989 H1992 0.999 . S
C1990 H1960 0.950 . S
C1990 C1989 1.524 . S
C1990 C1991 1.415 . S
C1991 H1961 0.950 . S
C1991 C1986 1.363 . S
C1991 C1990 1.415 . S
H1992 C1989 0.999 . S
H1993 C1974 0.913 . S
H1994 C2012 0.951 . S
H1995 C2014 0.949 1_655 S
H1996 C2016 0.950 . S
H1997 C2017 0.950 . S
H1998 C2019 0.950 . S
H1999 C2022 0.950 . S
H2000 C2023 0.950 . S
H2001 C2025 0.950 . S
H2002 C2026 0.950 . S
H2003 C2027 0.951 . S
H2004 C2029 0.951 . S
H2005 C2031 0.950 . S
H2006 C2032 0.950 . S
H2007 C2034 0.950 . S
H2008 C2037 0.950 . S
H2009 C2038 0.950 . S
H2010 C2040 0.950 . S
H2011 C2041 0.950 . S
C2012 H1994 0.951 . S
C2012 C2013 1.366 . S
C2012 C2014 1.385 1_655 S
C2013 C2012 1.366 . S
C2013 C2017 1.385 1_655 S
C2014 H1995 0.949 1_455 S
C2014 C2012 1.385 1_455 S
C2014 C2015 1.370 . S
C2015 C2014 1.370 . S
C2015 C2016 1.414 . S
C2015 C2018 1.499 . S
C2016 H1996 0.950 . S
C2016 C2015 1.414 . S
C2016 C2017 1.374 . S
C2017 H1997 0.950 . S
C2017 C2013 1.385 1_455 S
C2017 C2016 1.374 . S
C2018 C2015 1.499 . S
C2018 C2019 1.373 . S
C2018 C2020 1.389 . S
C2019 H1998 0.950 . S
C2019 C2018 1.373 . S
C2019 C2035 1.377 . S
C2020 C2018 1.389 . S
C2020 C2021 1.524 . S
C2020 C2034 1.377 . S
C2021 C2020 1.524 . S
C2021 C2022 1.397 . S
C2021 C2026 1.363 . S
C2022 H1999 0.950 . S
C2022 C2021 1.397 . S
C2022 C2023 1.334 . S
C2023 H2000 0.950 . S
C2023 C2022 1.334 . S
C2023 C2024 1.287 . S
C2024 C2023 1.287 . S
C2024 C2025 1.524 1_455 S
C2024 H2043 0.913 1_455 S
C2025 H2001 0.950 . S
C2025 C2024 1.524 1_655 S
C2025 C2026 1.415 1_655 S
C2026 H2002 0.950 . S
C2026 C2021 1.363 . S
C2026 C2025 1.415 1_455 S
C2027 H2003 0.951 . S
C2027 C2028 1.366 . S
C2027 C2029 1.388 . S
C2028 C2027 1.366 . S
C2028 C2032 1.385 . S
C2029 H2004 0.951 . S
C2029 C2027 1.388 . S
C2029 C2030 1.366 . S
C2030 C2029 1.366 . S
C2030 C2031 1.414 . S
C2030 C2033 1.499 . S
C2031 H2005 0.950 . S
C2031 C2030 1.414 . S
C2031 C2032 1.374 . S
C2032 H2006 0.950 . S
C2032 C2028 1.385 . S
C2032 C2031 1.374 . S
C2033 C2030 1.499 . S
C2033 C2034 1.373 . S
C2033 C2035 1.389 . S
C2034 H2007 0.950 . S
C2034 C2020 1.377 . S
C2034 C2033 1.373 . S
C2035 C2019 1.377 . S
C2035 C2033 1.389 . S
C2035 C2036 1.524 . S
C2036 C2035 1.524 . S
C2036 C2037 1.397 . S
C2036 C2041 1.363 . S
C2037 H2008 0.950 . S
C2037 C2036 1.397 . S
C2037 C2038 1.334 . S
C2038 H2009 0.950 . S
C2038 C2037 1.334 . S
C2038 C2039 1.287 . S
C2039 C2038 1.287 . S
C2039 C2040 1.524 . S
C2039 H2042 0.999 . S
C2040 H2010 0.950 . S
C2040 C2039 1.524 . S
C2040 C2041 1.415 . S
C2041 H2011 0.950 . S
C2041 C2036 1.363 . S
C2041 C2040 1.415 . S
H2042 C2039 0.999 . S
H2043 C2024 0.913 1_655 S
H2044 C2062 0.951 . S
H2045 C2064 0.951 . S
H2046 C2066 0.950 . S
H2047 C2067 0.950 . S
H2048 C2069 0.950 . S
H2049 C2072 0.950 . S
H2050 C2073 0.950 . S
H2051 C2075 0.950 . S
H2052 C2076 0.950 . S
H2053 C2077 0.951 . S
H2054 C2079 0.951 . S
H2055 C2081 0.950 . S
H2056 C2082 0.950 . S
H2057 C2084 0.950 . S
H2058 C2087 0.950 . S
H2059 C2088 0.950 . S
H2060 C2090 0.950 . S
H2061 C2091 0.950 . S
C2062 H2044 0.951 . S
C2062 C2063 1.366 . S
C2062 C2064 1.388 . S
C2063 C2062 1.366 . S
C2063 C2067 1.385 . S
C2064 H2045 0.951 . S
C2064 C2062 1.388 . S
C2064 C2065 1.366 . S
C2065 C2064 1.366 . S
C2065 C2066 1.414 . S
C2065 C2068 1.499 . S
C2066 H2046 0.950 . S
C2066 C2065 1.414 . S
C2066 C2067 1.374 . S
C2067 H2047 0.950 . S
C2067 C2063 1.385 . S
C2067 C2066 1.374 . S
C2068 C2065 1.499 . S
C2068 C2069 1.373 . S
C2068 C2070 1.389 . S
C2069 H2048 0.950 . S
C2069 C2068 1.373 . S
C2069 C2085 1.377 . S
C2070 C2068 1.389 . S
C2070 C2071 1.524 . S
C2070 C2084 1.377 . S
C2071 C2070 1.524 . S
C2071 C2072 1.397 . S
C2071 C2076 1.363 . S
C2072 H2049 0.950 . S
C2072 C2071 1.397 . S
C2072 C2073 1.334 . S
C2073 H2050 0.950 . S
C2073 C2072 1.334 . S
C2073 C2074 1.287 . S
C2074 C2073 1.287 . S
C2074 C2075 1.524 . S
C2074 H2093 0.913 . S
C2075 H2051 0.950 . S
C2075 C2074 1.524 . S
C2075 C2076 1.415 . S
C2076 H2052 0.950 . S
C2076 C2071 1.363 . S
C2076 C2075 1.415 . S
C2077 H2053 0.951 . S
C2077 C2078 1.366 . S
C2077 C2079 1.388 . S
C2078 C2077 1.366 . S
C2078 C2082 1.385 . S
C2079 H2054 0.951 . S
C2079 C2077 1.388 . S
C2079 C2080 1.366 . S
C2080 C2079 1.366 . S
C2080 C2081 1.414 . S
C2080 C2083 1.499 . S
C2081 H2055 0.950 . S
C2081 C2080 1.414 . S
C2081 C2082 1.374 . S
C2082 H2056 0.950 . S
C2082 C2078 1.385 . S
C2082 C2081 1.374 . S
C2083 C2080 1.499 . S
C2083 C2084 1.373 . S
C2083 C2085 1.389 . S
C2084 H2057 0.950 . S
C2084 C2070 1.377 . S
C2084 C2083 1.373 . S
C2085 C2069 1.377 . S
C2085 C2083 1.389 . S
C2085 C2086 1.524 . S
C2086 C2085 1.524 . S
C2086 C2087 1.397 . S
C2086 C2091 1.363 . S
C2087 H2058 0.950 . S
C2087 C2086 1.397 . S
C2087 C2088 1.334 . S
C2088 H2059 0.950 . S
C2088 C2087 1.334 . S
C2088 C2089 1.287 . S
C2089 C2088 1.287 . S
C2089 C2090 1.524 . S
C2089 H2092 0.999 . S
C2090 H2060 0.950 . S
C2090 C2089 1.524 . S
C2090 C2091 1.415 . S
C2091 H2061 0.950 . S
C2091 C2086 1.363 . S
C2091 C2090 1.415 . S
H2092 C2089 0.999 . S
H2093 C2074 0.913 . S
H2094 C2112 0.951 . S
H2095 C2114 0.951 . S
H2096 C2116 0.950 . S
H2097 C2117 0.950 . S
H2098 C2119 0.950 . S
H2099 C2122 0.950 . S
H2100 C2123 0.950 . S
H2101 C2125 0.950 . S
H2102 C2126 0.950 . S
H2103 C2127 0.951 . S
H2104 C2129 0.951 . S
H2105 C2131 0.950 . S
H2106 C2132 0.950 . S
H2107 C2134 0.950 . S
H2108 C2137 0.950 . S
H2109 C2138 0.950 . S
H2110 C2140 0.950 . S
H2111 C2141 0.950 . S
C2112 H2094 0.951 . S
C2112 C2113 1.366 . S
C2112 C2114 1.388 1_655 S
C2113 C2112 1.366 . S
C2113 C2117 1.385 1_655 S
C2114 H2095 0.951 . S
C2114 C2112 1.388 1_455 S
C2114 C2115 1.366 . S
C2115 C2114 1.366 . S
C2115 C2116 1.414 . S
C2115 C2118 1.499 . S
C2116 H2096 0.950 . S
C2116 C2115 1.414 . S
C2116 C2117 1.374 . S
C2117 H2097 0.950 . S
C2117 C2113 1.385 1_455 S
C2117 C2116 1.374 . S
C2118 C2115 1.499 . S
C2118 C2119 1.373 . S
C2118 C2120 1.389 . S
C2119 H2098 0.950 . S
C2119 C2118 1.373 . S
C2119 C2135 1.377 . S
C2120 C2118 1.389 . S
C2120 C2121 1.524 . S
C2120 C2134 1.377 . S
C2121 C2120 1.524 . S
C2121 C2122 1.397 . S
C2121 C2126 1.363 . S
C2122 H2099 0.950 . S
C2122 C2121 1.397 . S
C2122 C2123 1.334 . S
C2123 H2100 0.950 . S
C2123 C2122 1.334 . S
C2123 C2124 1.287 . S
C2124 C2123 1.287 . S
C2124 C2125 1.524 . S
C2124 H2143 0.913 . S
C2125 H2101 0.950 . S
C2125 C2124 1.524 . S
C2125 C2126 1.415 . S
C2126 H2102 0.950 . S
C2126 C2121 1.363 . S
C2126 C2125 1.415 . S
C2127 H2103 0.951 . S
C2127 C2128 1.366 . S
C2127 C2129 1.388 . S
C2128 C2127 1.366 . S
C2128 C2132 1.385 . S
C2129 H2104 0.951 . S
C2129 C2127 1.388 . S
C2129 C2130 1.366 . S
C2130 C2129 1.366 . S
C2130 C2131 1.414 . S
C2130 C2133 1.499 . S
C2131 H2105 0.950 . S
C2131 C2130 1.414 . S
C2131 C2132 1.374 . S
C2132 H2106 0.950 . S
C2132 C2128 1.385 . S
C2132 C2131 1.374 . S
C2133 C2130 1.499 . S
C2133 C2134 1.373 . S
C2133 C2135 1.389 . S
C2134 H2107 0.950 . S
C2134 C2120 1.377 . S
C2134 C2133 1.373 . S
C2135 C2119 1.377 . S
C2135 C2133 1.389 . S
C2135 C2136 1.524 . S
C2136 C2135 1.524 . S
C2136 C2137 1.397 . S
C2136 C2141 1.363 . S
C2137 H2108 0.950 . S
C2137 C2136 1.397 . S
C2137 C2138 1.334 . S
C2138 H2109 0.950 . S
C2138 C2137 1.334 . S
C2138 C2139 1.287 . S
C2139 C2138 1.287 . S
C2139 C2140 1.524 . S
C2139 H2142 0.999 . S
C2140 H2110 0.950 . S
C2140 C2139 1.524 . S
C2140 C2141 1.415 . S
C2141 H2111 0.950 . S
C2141 C2136 1.363 . S
C2141 C2140 1.415 . S
H2142 C2139 0.999 . S
H2143 C2124 0.913 . S
H2144 C2162 0.951 . S
H2145 C2164 0.951 . S
H2146 C2166 0.950 . S
H2147 C2167 0.950 . S
H2148 C2169 0.950 . S
H2149 C2172 0.950 . S
H2150 C2173 0.950 . S
H2151 C2175 0.950 . S
H2152 C2176 0.950 . S
H2153 C2177 0.951 . S
H2154 C2179 0.951 . S
H2155 C2181 0.950 . S
H2156 C2182 0.950 . S
H2157 C2184 0.950 . S
H2158 C2187 0.950 . S
H2159 C2188 0.950 1_655 S
H2160 C2190 0.950 . S
H2161 C2191 0.950 . S
C2162 H2144 0.951 . S
C2162 C2163 1.366 . S
C2162 C2164 1.388 . S
C2163 C2162 1.366 . S
C2163 C2167 1.385 . S
C2164 H2145 0.951 . S
C2164 C2162 1.388 . S
C2164 C2165 1.366 . S
C2165 C2164 1.366 . S
C2165 C2166 1.414 . S
C2165 C2168 1.499 . S
C2166 H2146 0.950 . S
C2166 C2165 1.414 . S
C2166 C2167 1.374 . S
C2167 H2147 0.950 . S
C2167 C2163 1.385 . S
C2167 C2166 1.374 . S
C2168 C2165 1.499 . S
C2168 C2169 1.373 . S
C2168 C2170 1.389 . S
C2169 H2148 0.950 . S
C2169 C2168 1.373 . S
C2169 C2185 1.377 . S
C2170 C2168 1.389 . S
C2170 C2171 1.524 . S
C2170 C2184 1.377 . S
C2171 C2170 1.524 . S
C2171 C2172 1.397 . S
C2171 C2176 1.363 . S
C2172 H2149 0.950 . S
C2172 C2171 1.397 . S
C2172 C2173 1.334 . S
C2173 H2150 0.950 . S
C2173 C2172 1.334 . S
C2173 C2174 1.287 . S
C2174 C2173 1.287 . S
C2174 C2175 1.524 . S
C2174 H2193 0.913 . S
C2175 H2151 0.950 . S
C2175 C2174 1.524 . S
C2175 C2176 1.415 . S
C2176 H2152 0.950 . S
C2176 C2171 1.363 . S
C2176 C2175 1.415 . S
C2177 H2153 0.951 . S
C2177 C2178 1.366 . S
C2177 C2179 1.388 . S
C2178 C2177 1.366 . S
C2178 C2182 1.385 . S
C2179 H2154 0.951 . S
C2179 C2177 1.388 . S
C2179 C2180 1.366 . S
C2180 C2179 1.366 . S
C2180 C2181 1.414 . S
C2180 C2183 1.499 . S
C2181 H2155 0.950 . S
C2181 C2180 1.414 . S
C2181 C2182 1.374 . S
C2182 H2156 0.950 . S
C2182 C2178 1.385 . S
C2182 C2181 1.374 . S
C2183 C2180 1.499 . S
C2183 C2184 1.373 . S
C2183 C2185 1.389 . S
C2184 H2157 0.950 . S
C2184 C2170 1.377 . S
C2184 C2183 1.373 . S
C2185 C2169 1.377 . S
C2185 C2183 1.389 . S
C2185 C2186 1.524 . S
C2186 C2185 1.524 . S
C2186 C2187 1.397 . S
C2186 C2191 1.363 . S
C2187 H2158 0.950 . S
C2187 C2186 1.397 . S
C2187 C2188 1.334 . S
C2188 H2159 0.950 1_455 S
C2188 C2187 1.334 . S
C2188 C2189 1.287 . S
C2189 C2188 1.287 . S
C2189 C2190 1.524 . S
C2189 H2192 0.999 . S
C2190 H2160 0.950 . S
C2190 C2189 1.524 . S
C2190 C2191 1.415 . S
C2191 H2161 0.950 . S
C2191 C2186 1.363 . S
C2191 C2190 1.415 . S
H2192 C2189 0.999 . S
H2193 C2174 0.913 . S
H2194 C2212 0.951 . S
H2195 C2214 0.951 . S
H2196 C2216 0.950 . S
H2197 C2217 0.950 . S
H2198 C2219 0.950 . S
H2199 C2222 0.950 . S
H2200 C2223 0.950 . S
H2201 C2225 0.950 . S
H2202 C2226 0.950 . S
H2203 C2227 0.951 . S
H2204 C2229 0.951 . S
H2205 C2231 0.950 . S
H2206 C2232 0.950 . S
H2207 C2234 0.950 . S
H2208 C2237 0.950 . S
H2209 C2238 0.950 . S
H2210 C2240 0.950 . S
H2211 C2241 0.950 . S
C2212 H2194 0.951 . S
C2212 C2213 1.366 . S
C2212 C2214 1.388 . S
C2213 C2212 1.366 . S
C2213 C2217 1.385 . S
C2214 H2195 0.951 . S
C2214 C2212 1.388 . S
C2214 C2215 1.366 . S
C2215 C2214 1.366 . S
C2215 C2216 1.414 . S
C2215 C2218 1.499 . S
C2216 H2196 0.950 . S
C2216 C2215 1.414 . S
C2216 C2217 1.374 . S
C2217 H2197 0.950 . S
C2217 C2213 1.385 . S
C2217 C2216 1.374 . S
C2218 C2215 1.499 . S
C2218 C2219 1.373 . S
C2218 C2220 1.389 . S
C2219 H2198 0.950 . S
C2219 C2218 1.373 . S
C2219 C2235 1.377 . S
C2220 C2218 1.389 . S
C2220 C2221 1.524 . S
C2220 C2234 1.377 . S
C2221 C2220 1.524 . S
C2221 C2222 1.397 . S
C2221 C2226 1.363 1_655 S
C2222 H2199 0.950 . S
C2222 C2221 1.397 . S
C2222 C2223 1.334 1_655 S
C2223 H2200 0.950 . S
C2223 C2222 1.334 1_455 S
C2223 C2224 1.287 . S
C2224 C2223 1.287 . S
C2224 C2225 1.524 . S
C2224 H2243 0.913 . S
C2225 H2201 0.950 . S
C2225 C2224 1.524 . S
C2225 C2226 1.415 . S
C2226 H2202 0.950 . S
C2226 C2221 1.363 1_455 S
C2226 C2225 1.415 . S
C2227 H2203 0.951 . S
C2227 C2228 1.366 . S
C2227 C2229 1.388 . S
C2228 C2227 1.366 . S
C2228 C2232 1.385 . S
C2229 H2204 0.951 . S
C2229 C2227 1.388 . S
C2229 C2230 1.366 . S
C2230 C2229 1.366 . S
C2230 C2231 1.414 . S
C2230 C2233 1.499 . S
C2231 H2205 0.950 . S
C2231 C2230 1.414 . S
C2231 C2232 1.374 . S
C2232 H2206 0.950 . S
C2232 C2228 1.385 . S
C2232 C2231 1.374 . S
C2233 C2230 1.499 . S
C2233 C2234 1.373 . S
C2233 C2235 1.389 . S
C2234 H2207 0.950 . S
C2234 C2220 1.377 . S
C2234 C2233 1.373 . S
C2235 C2219 1.377 . S
C2235 C2233 1.389 . S
C2235 C2236 1.524 . S
C2236 C2235 1.524 . S
C2236 C2237 1.397 . S
C2236 C2241 1.363 . S
C2237 H2208 0.950 . S
C2237 C2236 1.397 . S
C2237 C2238 1.334 . S
C2238 H2209 0.950 . S
C2238 C2237 1.334 . S
C2238 C2239 1.287 . S
C2239 C2238 1.287 . S
C2239 C2240 1.524 . S
C2239 H2242 0.999 . S
C2240 H2210 0.950 . S
C2240 C2239 1.524 . S
C2240 C2241 1.415 . S
C2241 H2211 0.950 . S
C2241 C2236 1.363 . S
C2241 C2240 1.415 . S
H2242 C2239 0.999 . S
H2243 C2224 0.913 . S
H2244 C2262 0.951 . S
H2245 C2264 0.951 . S
H2246 C2266 0.950 . S
H2247 C2267 0.950 . S
H2248 C2269 0.950 . S
H2249 C2272 0.950 . S
H2250 C2273 0.950 . S
H2251 C2275 0.950 . S
H2252 C2276 0.950 . S
H2253 C2277 0.951 . S
H2254 C2279 0.951 . S
H2255 C2281 0.950 . S
H2256 C2282 0.950 . S
H2257 C2284 0.950 . S
H2258 C2287 0.950 . S
H2259 C2288 0.950 . S
H2260 C2290 0.950 1_655 S
H2261 C2291 0.950 . S
C2262 H2244 0.951 . S
C2262 C2263 1.366 . S
C2262 C2264 1.388 . S
C2263 C2262 1.366 . S
C2263 C2267 1.385 . S
C2264 H2245 0.951 . S
C2264 C2262 1.388 . S
C2264 C2265 1.366 . S
C2265 C2264 1.366 . S
C2265 C2266 1.414 . S
C2265 C2268 1.499 . S
C2266 H2246 0.950 . S
C2266 C2265 1.414 . S
C2266 C2267 1.374 . S
C2267 H2247 0.950 . S
C2267 C2263 1.385 . S
C2267 C2266 1.374 . S
C2268 C2265 1.499 . S
C2268 C2269 1.373 . S
C2268 C2270 1.389 . S
C2269 H2248 0.950 . S
C2269 C2268 1.373 . S
C2269 C2285 1.377 . S
C2270 C2268 1.389 . S
C2270 C2271 1.524 . S
C2270 C2284 1.377 . S
C2271 C2270 1.524 . S
C2271 C2272 1.397 . S
C2271 C2276 1.363 . S
C2272 H2249 0.950 . S
C2272 C2271 1.397 . S
C2272 C2273 1.334 . S
C2273 H2250 0.950 . S
C2273 C2272 1.334 . S
C2273 C2274 1.287 . S
C2274 C2273 1.287 . S
C2274 C2275 1.524 . S
C2274 H2293 0.913 . S
C2275 H2251 0.950 . S
C2275 C2274 1.524 . S
C2275 C2276 1.415 . S
C2276 H2252 0.950 . S
C2276 C2271 1.363 . S
C2276 C2275 1.415 . S
C2277 H2253 0.951 . S
C2277 C2278 1.366 . S
C2277 C2279 1.388 . S
C2278 C2277 1.366 . S
C2278 C2282 1.385 . S
C2279 H2254 0.951 . S
C2279 C2277 1.388 . S
C2279 C2280 1.366 . S
C2280 C2279 1.366 . S
C2280 C2281 1.414 . S
C2280 C2283 1.499 . S
C2281 H2255 0.950 . S
C2281 C2280 1.414 . S
C2281 C2282 1.374 . S
C2282 H2256 0.950 . S
C2282 C2278 1.385 . S
C2282 C2281 1.374 . S
C2283 C2280 1.499 . S
C2283 C2284 1.373 . S
C2283 C2285 1.389 . S
C2284 H2257 0.950 . S
C2284 C2270 1.377 . S
C2284 C2283 1.373 . S
C2285 C2269 1.377 . S
C2285 C2283 1.389 . S
C2285 C2286 1.524 . S
C2286 C2285 1.524 . S
C2286 C2287 1.397 . S
C2286 C2291 1.363 . S
C2287 H2258 0.950 . S
C2287 C2286 1.397 . S
C2287 C2288 1.334 . S
C2288 H2259 0.950 . S
C2288 C2287 1.334 . S
C2288 C2289 1.287 . S
C2289 C2288 1.287 . S
C2289 C2290 1.524 . S
C2289 H2292 0.999 . S
C2290 H2260 0.950 1_455 S
C2290 C2289 1.524 . S
C2290 C2291 1.415 . S
C2291 H2261 0.950 . S
C2291 C2286 1.363 . S
C2291 C2290 1.415 . S
H2292 C2289 0.999 . S
H2293 C2274 0.913 . S
H2294 C2312 0.951 . S
H2295 C2314 0.951 . S
H2296 C2316 0.950 . S
H2297 C2317 0.950 . S
H2298 C2319 0.950 . S
H2299 C2322 0.950 . S
H2300 C2323 0.950 . S
H2301 C2325 0.950 . S
H2302 C2326 0.950 . S
H2303 C2327 0.951 . S
H2304 C2329 0.951 . S
H2305 C2331 0.950 . S
H2306 C2332 0.950 . S
H2307 C2334 0.950 . S
H2308 C2337 0.950 . S
H2309 C2338 0.950 . S
H2310 C2340 0.950 1_455 S
H2311 C2341 0.950 . S
C2312 H2294 0.951 . S
C2312 C2313 1.366 . S
C2312 C2314 1.388 . S
C2313 C2312 1.366 . S
C2313 C2317 1.385 . S
C2314 H2295 0.951 . S
C2314 C2312 1.388 . S
C2314 C2315 1.366 . S
C2315 C2314 1.366 . S
C2315 C2316 1.414 . S
C2315 C2318 1.499 . S
C2316 H2296 0.950 . S
C2316 C2315 1.414 . S
C2316 C2317 1.374 . S
C2317 H2297 0.950 . S
C2317 C2313 1.385 . S
C2317 C2316 1.374 . S
C2318 C2315 1.499 . S
C2318 C2319 1.373 . S
C2318 C2320 1.389 . S
C2319 H2298 0.950 . S
C2319 C2318 1.373 . S
C2319 C2335 1.377 . S
C2320 C2318 1.389 . S
C2320 C2321 1.524 . S
C2320 C2334 1.377 . S
C2321 C2320 1.524 . S
C2321 C2322 1.397 . S
C2321 C2326 1.363 . S
C2322 H2299 0.950 . S
C2322 C2321 1.397 . S
C2322 C2323 1.334 . S
C2323 H2300 0.950 . S
C2323 C2322 1.334 . S
C2323 C2324 1.287 . S
C2324 C2323 1.287 . S
C2324 C2325 1.524 . S
C2324 H2343 0.913 . S
C2325 H2301 0.950 . S
C2325 C2324 1.524 . S
C2325 C2326 1.415 . S
C2326 H2302 0.950 . S
C2326 C2321 1.363 . S
C2326 C2325 1.415 . S
C2327 H2303 0.951 . S
C2327 C2328 1.366 . S
C2327 C2329 1.388 . S
C2328 C2327 1.366 . S
C2328 C2332 1.385 . S
C2329 H2304 0.951 . S
C2329 C2327 1.388 . S
C2329 C2330 1.366 . S
C2330 C2329 1.366 . S
C2330 C2331 1.414 . S
C2330 C2333 1.499 . S
C2331 H2305 0.950 . S
C2331 C2330 1.414 . S
C2331 C2332 1.374 . S
C2332 H2306 0.950 . S
C2332 C2328 1.385 . S
C2332 C2331 1.374 . S
C2333 C2330 1.499 . S
C2333 C2334 1.373 . S
C2333 C2335 1.389 . S
C2334 H2307 0.950 . S
C2334 C2320 1.377 . S
C2334 C2333 1.373 . S
C2335 C2319 1.377 . S
C2335 C2333 1.389 . S
C2335 C2336 1.524 . S
C2336 C2335 1.524 . S
C2336 C2337 1.397 . S
C2336 C2341 1.363 . S
C2337 H2308 0.950 . S
C2337 C2336 1.397 . S
C2337 C2338 1.334 . S
C2338 H2309 0.950 . S
C2338 C2337 1.334 . S
C2338 C2339 1.287 . S
C2339 C2338 1.287 . S
C2339 C2340 1.524 . S
C2339 H2342 0.999 . S
C2340 H2310 0.950 1_655 S
C2340 C2339 1.524 . S
C2340 C2341 1.415 . S
C2341 H2311 0.950 . S
C2341 C2336 1.363 . S
C2341 C2340 1.415 . S
H2342 C2339 0.999 . S
H2343 C2324 0.913 . S
H2344 C2362 0.951 . S
H2345 C2364 0.951 . S
H2346 C2366 0.950 . S
H2347 C2367 0.950 . S
H2348 C2369 0.950 . S
H2349 C2372 0.950 . S
H2350 C2373 0.950 . S
H2351 C2375 0.950 . S
H2352 C2376 0.950 . S
H2353 C2377 0.951 . S
H2354 C2379 0.951 . S
H2355 C2381 0.950 . S
H2356 C2382 0.950 . S
H2357 C2384 0.950 . S
H2358 C2387 0.950 . S
H2359 C2388 0.950 . S
H2360 C2390 0.950 . S
H2361 C2391 0.950 . S
C2362 H2344 0.951 . S
C2362 C2363 1.366 . S
C2362 C2364 1.388 . S
C2363 C2362 1.366 . S
C2363 C2367 1.385 . S
C2364 H2345 0.951 . S
C2364 C2362 1.388 . S
C2364 C2365 1.366 . S
C2365 C2364 1.366 . S
C2365 C2366 1.414 . S
C2365 C2368 1.499 . S
C2366 H2346 0.950 . S
C2366 C2365 1.414 . S
C2366 C2367 1.374 . S
C2367 H2347 0.950 . S
C2367 C2363 1.385 . S
C2367 C2366 1.374 . S
C2368 C2365 1.499 . S
C2368 C2369 1.373 . S
C2368 C2370 1.389 . S
C2369 H2348 0.950 . S
C2369 C2368 1.373 . S
C2369 C2385 1.377 . S
C2370 C2368 1.389 . S
C2370 C2371 1.524 . S
C2370 C2384 1.377 . S
C2371 C2370 1.524 . S
C2371 C2372 1.397 . S
C2371 C2376 1.363 . S
C2372 H2349 0.950 . S
C2372 C2371 1.397 . S
C2372 C2373 1.334 . S
C2373 H2350 0.950 . S
C2373 C2372 1.334 . S
C2373 C2374 1.287 . S
C2374 C2373 1.287 . S
C2374 C2375 1.524 . S
C2374 H2393 0.913 . S
C2375 H2351 0.950 . S
C2375 C2374 1.524 . S
C2375 C2376 1.415 . S
C2376 H2352 0.950 . S
C2376 C2371 1.363 . S
C2376 C2375 1.415 . S
C2377 H2353 0.951 . S
C2377 C2378 1.366 . S
C2377 C2379 1.388 . S
C2378 C2377 1.366 . S
C2378 C2382 1.385 . S
C2379 H2354 0.951 . S
C2379 C2377 1.388 . S
C2379 C2380 1.366 . S
C2380 C2379 1.366 . S
C2380 C2381 1.414 . S
C2380 C2383 1.499 . S
C2381 H2355 0.950 . S
C2381 C2380 1.414 . S
C2381 C2382 1.374 . S
C2382 H2356 0.950 . S
C2382 C2378 1.385 . S
C2382 C2381 1.374 . S
C2383 C2380 1.499 . S
C2383 C2384 1.373 . S
C2383 C2385 1.389 . S
C2384 H2357 0.950 . S
C2384 C2370 1.377 . S
C2384 C2383 1.373 . S
C2385 C2369 1.377 . S
C2385 C2383 1.389 . S
C2385 C2386 1.524 . S
C2386 C2385 1.524 . S
C2386 C2387 1.397 . S
C2386 C2391 1.363 . S
C2387 H2358 0.950 . S
C2387 C2386 1.397 . S
C2387 C2388 1.334 . S
C2388 H2359 0.950 . S
C2388 C2387 1.334 . S
C2388 C2389 1.287 . S
C2389 C2388 1.287 . S
C2389 C2390 1.524 . S
C2389 H2392 0.999 . S
C2390 H2360 0.950 . S
C2390 C2389 1.524 . S
C2390 C2391 1.415 . S
C2391 H2361 0.950 . S
C2391 C2386 1.363 . S
C2391 C2390 1.415 . S
H2392 C2389 0.999 . S
H2393 C2374 0.913 . S
H2394 C2412 0.951 . S
H2395 C2414 0.951 . S
H2396 C2416 0.950 . S
H2397 C2417 0.950 . S
H2398 C2419 0.950 . S
H2399 C2422 0.950 . S
H2400 C2423 0.950 . S
H2401 C2425 0.950 . S
H2402 C2426 0.950 . S
H2403 C2427 0.951 . S
H2404 C2429 0.951 . S
H2405 C2431 0.950 . S
H2406 C2432 0.950 . S
H2407 C2434 0.950 . S
H2408 C2437 0.950 . S
H2409 C2438 0.950 . S
H2410 C2440 0.950 . S
H2411 C2441 0.950 . S
C2412 H2394 0.951 . S
C2412 C2413 1.366 . S
C2412 C2414 1.388 . S
C2413 C2412 1.366 . S
C2413 C2417 1.385 . S
C2414 H2395 0.951 . S
C2414 C2412 1.388 . S
C2414 C2415 1.366 . S
C2415 C2414 1.366 . S
C2415 C2416 1.414 . S
C2415 C2418 1.499 . S
C2416 H2396 0.950 . S
C2416 C2415 1.414 . S
C2416 C2417 1.374 . S
C2417 H2397 0.950 . S
C2417 C2413 1.385 . S
C2417 C2416 1.374 . S
C2418 C2415 1.499 . S
C2418 C2419 1.373 . S
C2418 C2420 1.389 . S
C2419 H2398 0.950 . S
C2419 C2418 1.373 . S
C2419 C2435 1.377 . S
C2420 C2418 1.389 . S
C2420 C2421 1.524 . S
C2420 C2434 1.377 . S
C2421 C2420 1.524 . S
C2421 C2422 1.397 . S
C2421 C2426 1.363 . S
C2422 H2399 0.950 . S
C2422 C2421 1.397 . S
C2422 C2423 1.334 . S
C2423 H2400 0.950 . S
C2423 C2422 1.334 . S
C2423 C2424 1.287 . S
C2424 C2423 1.287 . S
C2424 C2425 1.524 . S
C2424 H2443 0.913 . S
C2425 H2401 0.950 . S
C2425 C2424 1.524 . S
C2425 C2426 1.415 . S
C2426 H2402 0.950 . S
C2426 C2421 1.363 . S
C2426 C2425 1.415 . S
C2427 H2403 0.951 . S
C2427 C2428 1.366 . S
C2427 C2429 1.388 . S
C2428 C2427 1.366 . S
C2428 C2432 1.385 . S
C2429 H2404 0.951 . S
C2429 C2427 1.388 . S
C2429 C2430 1.366 . S
C2430 C2429 1.366 . S
C2430 C2431 1.414 . S
C2430 C2433 1.499 . S
C2431 H2405 0.950 . S
C2431 C2430 1.414 . S
C2431 C2432 1.374 . S
C2432 H2406 0.950 . S
C2432 C2428 1.385 . S
C2432 C2431 1.374 . S
C2433 C2430 1.499 . S
C2433 C2434 1.373 . S
C2433 C2435 1.389 . S
C2434 H2407 0.950 . S
C2434 C2420 1.377 . S
C2434 C2433 1.373 . S
C2435 C2419 1.377 . S
C2435 C2433 1.389 . S
C2435 C2436 1.524 . S
C2436 C2435 1.524 . S
C2436 C2437 1.397 . S
C2436 C2441 1.363 . S
C2437 H2408 0.950 . S
C2437 C2436 1.397 . S
C2437 C2438 1.334 . S
C2438 H2409 0.950 . S
C2438 C2437 1.334 . S
C2438 C2439 1.287 . S
C2439 C2438 1.287 . S
C2439 C2440 1.524 . S
C2439 H2442 0.999 . S
C2440 H2410 0.950 . S
C2440 C2439 1.524 . S
C2440 C2441 1.415 . S
C2441 H2411 0.950 . S
C2441 C2436 1.363 . S
C2441 C2440 1.415 . S
H2442 C2439 0.999 . S
H2443 C2424 0.913 . S
H2444 C2462 0.951 . S
H2445 C2464 0.951 . S
H2446 C2466 0.950 . S
H2447 C2467 0.950 . S
H2448 C2469 0.950 . S
H2449 C2472 0.950 . S
H2450 C2473 0.950 . S
H2451 C2475 0.950 . S
H2452 C2476 0.950 . S
H2453 C2477 0.951 . S
H2454 C2479 0.951 . S
H2455 C2481 0.950 . S
H2456 C2482 0.950 . S
H2457 C2484 0.950 . S
H2458 C2487 0.950 . S
H2459 C2488 0.950 . S
H2460 C2490 0.950 . S
H2461 C2491 0.950 . S
C2462 H2444 0.951 . S
C2462 C2463 1.366 . S
C2462 C2464 1.388 . S
C2463 C2462 1.366 . S
C2463 C2467 1.385 . S
C2464 H2445 0.951 . S
C2464 C2462 1.388 . S
C2464 C2465 1.366 . S
C2465 C2464 1.366 . S
C2465 C2466 1.414 . S
C2465 C2468 1.499 . S
C2466 H2446 0.950 . S
C2466 C2465 1.414 . S
C2466 C2467 1.374 . S
C2467 H2447 0.950 . S
C2467 C2463 1.385 . S
C2467 C2466 1.374 . S
C2468 C2465 1.499 . S
C2468 C2469 1.373 . S
C2468 C2470 1.389 . S
C2469 H2448 0.950 . S
C2469 C2468 1.373 . S
C2469 C2485 1.377 . S
C2470 C2468 1.389 . S
C2470 C2471 1.524 . S
C2470 C2484 1.377 . S
C2471 C2470 1.524 . S
C2471 C2472 1.397 . S
C2471 C2476 1.363 . S
C2472 H2449 0.950 . S
C2472 C2471 1.397 . S
C2472 C2473 1.334 . S
C2473 H2450 0.950 . S
C2473 C2472 1.334 . S
C2473 C2474 1.287 . S
C2474 C2473 1.287 . S
C2474 C2475 1.524 . S
C2474 H2493 0.913 . S
C2475 H2451 0.950 . S
C2475 C2474 1.524 . S
C2475 C2476 1.415 . S
C2476 H2452 0.950 . S
C2476 C2471 1.363 . S
C2476 C2475 1.415 . S
C2477 H2453 0.951 . S
C2477 C2478 1.366 . S
C2477 C2479 1.388 . S
C2478 C2477 1.366 . S
C2478 C2482 1.385 . S
C2479 H2454 0.951 . S
C2479 C2477 1.388 . S
C2479 C2480 1.366 . S
C2480 C2479 1.366 . S
C2480 C2481 1.414 . S
C2480 C2483 1.499 . S
C2481 H2455 0.950 . S
C2481 C2480 1.414 . S
C2481 C2482 1.374 . S
C2482 H2456 0.950 . S
C2482 C2478 1.385 . S
C2482 C2481 1.374 . S
C2483 C2480 1.499 . S
C2483 C2484 1.373 . S
C2483 C2485 1.389 . S
C2484 H2457 0.950 . S
C2484 C2470 1.377 . S
C2484 C2483 1.373 . S
C2485 C2469 1.377 . S
C2485 C2483 1.389 . S
C2485 C2486 1.524 . S
C2486 C2485 1.524 . S
C2486 C2487 1.397 . S
C2486 C2491 1.363 . S
C2487 H2458 0.950 . S
C2487 C2486 1.397 . S
C2487 C2488 1.334 . S
C2488 H2459 0.950 . S
C2488 C2487 1.334 . S
C2488 C2489 1.287 . S
C2489 C2488 1.287 . S
C2489 C2490 1.524 . S
C2489 H2492 0.999 . S
C2490 H2460 0.950 . S
C2490 C2489 1.524 . S
C2490 C2491 1.415 . S
C2491 H2461 0.950 . S
C2491 C2486 1.363 . S
C2491 C2490 1.415 . S
H2492 C2489 0.999 . S
H2493 C2474 0.913 . S
H2494 C2512 0.951 . S
H2495 C2514 0.951 . S
H2496 C2516 0.950 . S
H2497 C2517 0.950 . S
H2498 C2519 0.950 . S
H2499 C2522 0.950 . S
H2500 C2523 0.950 . S
H2501 C2525 0.950 . S
H2502 C2526 0.950 . S
H2503 C2527 0.951 . S
H2504 C2529 0.951 . S
H2505 C2531 0.950 . S
H2506 C2532 0.950 . S
H2507 C2534 0.950 . S
H2508 C2537 0.950 . S
H2509 C2538 0.950 . S
H2510 C2540 0.950 . S
H2511 C2541 0.950 . S
C2512 H2494 0.951 . S
C2512 C2513 1.366 . S
C2512 C2514 1.388 . S
C2513 C2512 1.366 . S
C2513 C2517 1.385 . S
C2514 H2495 0.951 . S
C2514 C2512 1.388 . S
C2514 C2515 1.366 . S
C2515 C2514 1.366 . S
C2515 C2516 1.414 . S
C2515 C2518 1.499 . S
C2516 H2496 0.950 . S
C2516 C2515 1.414 . S
C2516 C2517 1.374 . S
C2517 H2497 0.950 . S
C2517 C2513 1.385 . S
C2517 C2516 1.374 . S
C2518 C2515 1.499 . S
C2518 C2519 1.373 . S
C2518 C2520 1.389 . S
C2519 H2498 0.950 . S
C2519 C2518 1.373 . S
C2519 C2535 1.377 . S
C2520 C2518 1.389 . S
C2520 C2521 1.524 . S
C2520 C2534 1.377 . S
C2521 C2520 1.524 . S
C2521 C2522 1.397 . S
C2521 C2526 1.363 . S
C2522 H2499 0.950 . S
C2522 C2521 1.397 . S
C2522 C2523 1.334 . S
C2523 H2500 0.950 . S
C2523 C2522 1.334 . S
C2523 C2524 1.287 . S
C2524 C2523 1.287 . S
C2524 C2525 1.524 . S
C2524 H2543 0.913 . S
C2525 H2501 0.950 . S
C2525 C2524 1.524 . S
C2525 C2526 1.415 . S
C2526 H2502 0.950 . S
C2526 C2521 1.363 . S
C2526 C2525 1.415 . S
C2527 H2503 0.951 . S
C2527 C2528 1.366 . S
C2527 C2529 1.388 . S
C2528 C2527 1.366 . S
C2528 C2532 1.385 . S
C2529 H2504 0.951 . S
C2529 C2527 1.388 . S
C2529 C2530 1.366 . S
C2530 C2529 1.366 . S
C2530 C2531 1.414 . S
C2530 C2533 1.499 . S
C2531 H2505 0.950 . S
C2531 C2530 1.414 . S
C2531 C2532 1.374 . S
C2532 H2506 0.950 . S
C2532 C2528 1.385 . S
C2532 C2531 1.374 . S
C2533 C2530 1.499 . S
C2533 C2534 1.373 . S
C2533 C2535 1.389 . S
C2534 H2507 0.950 . S
C2534 C2520 1.377 . S
C2534 C2533 1.373 . S
C2535 C2519 1.377 . S
C2535 C2533 1.389 . S
C2535 C2536 1.524 . S
C2536 C2535 1.524 . S
C2536 C2537 1.397 . S
C2536 C2541 1.363 . S
C2537 H2508 0.950 . S
C2537 C2536 1.397 . S
C2537 C2538 1.334 . S
C2538 H2509 0.950 . S
C2538 C2537 1.334 . S
C2538 C2539 1.287 . S
C2539 C2538 1.287 . S
C2539 C2540 1.524 . S
C2539 H2542 0.999 . S
C2540 H2510 0.950 . S
C2540 C2539 1.524 . S
C2540 C2541 1.415 . S
C2541 H2511 0.950 . S
C2541 C2536 1.363 . S
C2541 C2540 1.415 . S
H2542 C2539 0.999 . S
H2543 C2524 0.913 . S
C563 C9 1.451 . S
C578 C485 1.451 . S
C613 C73 1.787 . S
C628 C5 1.787 . S
C663 C39 1.786 . S
C678 C379 1.786 . S
C713 C247 1.451 . S
C728 C43 1.451 . S
C763 C77 1.451 . S
C778 C417 1.451 . S
C813 C107 1.787 . S
C828 C311 1.787 . S
C863 C111 1.450 . S
C878 C179 1.450 . S
C913 C349 1.451 . S
C928 C145 1.451 . S
C963 C209 1.787 . S
C978 C141 1.787 . S
C1013 C175 1.786 . S
C1028 C515 1.786 . S
C1063 C281 1.451 . S
C1078 C213 1.451 . S
C1113 C447 1.787 . S
C1128 C243 1.787 . S
C1163 C277 1.787 . S
C1178 C345 1.787 . S
C1213 C519 1.451 . S
C1228 C315 1.451 . S
C1263 C383 1.452 . S
C1278 C451 1.452 . S
C1313 C413 1.786 . S
C1328 C481 1.786 . S
C1363 C2 1.269 . S
C1378 C308 1.269 . S
C1413 C339 1.222 . S
C1428 C33 1.222 . S
C1463 C67 1.223 . S
C1478 C305 1.223 . S
C1513 C36 1.269 . S
C1528 C274 1.269 . S
C1563 C376 1.269 . S
C1578 C70 1.269 . S
C1613 C407 1.223 . S
C1628 C101 1.223 . S
C1663 C135 1.222 . S
C1678 C373 1.222 . S
C1713 C104 1.269 . S
C1728 C342 1.269 . S
C1763 C138 1.269 . S
C1778 C444 1.269 . S
C1813 C475 1.222 . S
C1828 C169 1.222 . S
C1863 C203 1.222 . S
C1878 C441 1.222 . S
C1913 C410 1.269 . S
C1928 C172 1.269 . S
C1963 C512 1.269 . S
C1978 C206 1.269 . S
C2013 C237 1.223 . S
C2028 C543 1.223 . S
C2063 C271 1.223 . S
C2078 C509 1.223 . S
C2113 C240 1.269 . S
C2128 C478 1.269 . S
C2163 C54 0.979 . S
C2178 C20 0.979 . S
C2213 C88 0.979 . S
C2228 C122 0.979 . S
C2263 C156 0.980 . S
C2278 C190 0.979 . S
C2313 C224 0.979 . S
C2328 C258 0.980 . S
C2363 C326 0.979 . S
C2378 C292 0.980 . S
C2413 C394 0.980 . S
C2428 C360 0.980 . S
C2463 C428 0.979 . S
C2478 C462 0.979 . S
C2513 C530 0.979 . S
C2528 C496 0.980 . S
