# Generated by pormake.
# Topology kag, (6)-cn, num edge types: 1
# Building blocks:
#     Node 0, Type 0, BuildingBlock: JUFBIX_clean_sbu_0, # of connection points: 6
#     Node 1, Type 0, BuildingBlock: JUFBIX_clean_sbu_0, # of connection points: 6
#     Node 2, Type 0, BuildingBlock: JUFBIX_clean_sbu_0, # of connection points: 6
#     Edge 3, Type (0, 0), BuildingBlock: FUNLAD_clean_linker_0, # of connection points: 2
#     Edge 4, Type (0, 0), BuildingBlock: FUNLAD_clean_linker_0, # of connection points: 2
#     Edge 5, Type (0, 0), BuildingBlock: FUNLAD_clean_linker_0, # of connection points: 2
#     Edge 6, Type (0, 0), BuildingBlock: FUNLAD_clean_linker_0, # of connection points: 2
#     Edge 7, Type (0, 0), BuildingBlock: FUNLAD_clean_linker_0, # of connection points: 2
#     Edge 8, Type (0, 0), BuildingBlock: FUNLAD_clean_linker_0, # of connection points: 2
#     Edge 9, Type (0, 0), BuildingBlock: FUNLAD_clean_linker_0, # of connection points: 2
#     Edge 10, Type (0, 0), BuildingBlock: FUNLAD_clean_linker_0, # of connection points: 2
#     Edge 11, Type (0, 0), BuildingBlock: FUNLAD_clean_linker_0, # of connection points: 2
# Relax obj value: 0.239
# Max RMSD: 0.220
# Mean RMSD: 0.152
data_MOF--net-kag--node1-JUFBIX_clean_sbu_0--edge1-FUNLAD_clean_linker_0
_symmetry_space_group_name_H-M    P1
_symmetry_Int_Tables_number       1
_symmetry_cell_setting            triclinic
loop_
_symmetry_equiv_pos_as_xyz
'x, y, z'
_cell_length_a     34.932462
_cell_length_b     42.564545
_cell_length_c     17.49254
_cell_angle_alpha  90.214322
_cell_angle_beta   93.06785
_cell_angle_gamma 120.37188
loop_
_atom_site_label
_atom_site_type_symbol
_atom_site_fract_x
_atom_site_fract_y
_atom_site_fract_z
_atom_type_partial_charge
Co0 Co 0.98296 0.46593 0.99691 0.0
C1 C 0.99712 0.4953 0.85068 0.0
Co2 Co 0.01869 0.52593 0.9957 0.0
C3 C 0.92005 0.39008 0.02415 0.0
C4 C 0.96852 0.39701 0.94559 0.0
N5 N 0.95653 0.41576 0.9913 0.0
N6 N 0.90859 0.35615 0.99968 0.0
C7 C 0.93901 0.3604 0.95036 0.0
H8 H 0.90102 0.39619 0.06216 0.0
H9 H 0.99608 0.40926 0.90897 0.0
C10 C 0.00452 0.49661 0.1419 0.0
N11 N 0.04449 0.57604 0.0012 0.0
C12 C 0.0806 0.60231 0.96857 0.0
C13 C 0.02951 0.59409 0.04222 0.0
N14 N 0.08837 0.63596 0.98732 0.0
C15 C 0.05624 0.63079 0.03362 0.0
C16 C 0.92541 0.49165 0.99447 0.0
O17 O 0.98578 0.46597 0.10568 0.0
O18 O 0.02076 0.52562 0.10441 0.0
O19 O 0.96188 0.5216 0.99339 0.0
O20 O 0.9261 0.46211 0.99638 0.0
O21 O 0.01654 0.52594 0.88694 0.0
H22 H 0.00121 0.58135 0.07716 0.0
H23 H 0.10072 0.59684 0.93189 0.0
O24 O 0.98023 0.46628 0.88815 0.0
O25 O 0.03993 0.47019 0.99738 0.0
O26 O 0.07542 0.52986 0.99742 0.0
C27 C 0.07633 0.50039 0.99711 0.0
H28 H 0.93924 0.33858 0.91874 0.0
H29 H 0.05311 0.6521 0.06133 0.0
Co30 Co 0.51854 0.98667 0.99699 0.0
C31 C 0.49629 0.003 0.85288 0.0
Co32 Co 0.47371 0.00924 0.99818 0.0
C33 C 0.54716 0.93451 0.01841 0.0
C34 C 0.59413 0.98083 0.95921 0.0
N35 N 0.55541 0.96719 0.99326 0.0
N36 N 0.57879 0.92687 0.00052 0.0
C37 C 0.60857 0.95614 0.96354 0.0
H38 H 0.51739 0.91595 0.04631 0.0
H39 H 0.61012 0.00656 0.93099 0.0
C40 C 0.49592 0.99292 0.14232 0.0
N41 N 0.43598 0.02805 0.00288 0.0
C42 C 0.44335 0.06147 0.98501 0.0
C43 C 0.3954 0.01114 0.03114 0.0
N44 N 0.40911 0.06614 0.00161 0.0
C45 C 0.3788 0.03428 0.03011 0.0
C46 C 0.42915 0.93405 0.97956 0.0
O47 O 0.51799 0.98254 0.1048 0.0
O48 O 0.47393 0.00525 0.10648 0.0
O49 O 0.42381 0.9613 0.98539 0.0
O50 O 0.46824 0.93915 0.98382 0.0
O51 O 0.47389 0.0131 0.89033 0.0
H52 H 0.37923 0.98396 0.05304 0.0
H53 H 0.47395 0.0824 0.96287 0.0
O54 O 0.51863 0.99096 0.88875 0.0
O55 O 0.56867 0.03454 0.01002 0.0
O56 O 0.52407 0.0568 0.0099 0.0
C57 C 0.56322 0.06185 0.01391 0.0
H58 H 0.63833 0.95933 0.94008 0.0
H59 H 0.34693 0.02804 0.04972 0.0
Co60 Co 0.48261 0.47091 0.0006 0.0
C61 C 0.50136 0.49978 0.15086 0.0
Co62 Co 0.52668 0.53095 0.01159 0.0
C63 C 0.45376 0.39472 0.97268 0.0
C64 C 0.40434 0.40197 0.02379 0.0
N65 N 0.44493 0.42061 0.99585 0.0
N66 N 0.42065 0.36073 0.9862 0.0
C67 C 0.38934 0.36527 0.01784 0.0
H68 H 0.48493 0.40075 0.95016 0.0
H69 H 0.38745 0.41426 0.0499 0.0
C70 C 0.50798 0.50214 0.86134 0.0
N71 N 0.56507 0.58154 0.01592 0.0
C72 C 0.556 0.60851 0.02792 0.0
C73 C 0.6082 0.59911 0.9993 0.0
N74 N 0.59158 0.64196 0.01871 0.0
C75 C 0.62452 0.63597 0.00138 0.0
C76 C 0.57153 0.49203 0.01798 0.0
O77 O 0.48489 0.47168 0.89235 0.0
O78 O 0.52871 0.53108 0.90342 0.0
O79 O 0.57638 0.52367 0.02094 0.0
O80 O 0.53261 0.46459 0.00945 0.0
O81 O 0.52426 0.53026 0.11979 0.0
H82 H 0.62658 0.58615 0.98369 0.0
H83 H 0.52343 0.60368 0.03979 0.0
O84 O 0.48082 0.47079 0.10885 0.0
O85 O 0.43291 0.47772 0.99196 0.0
O86 O 0.47613 0.53703 0.00248 0.0
C87 C 0.43729 0.50921 0.99482 0.0
H88 H 0.35827 0.34371 0.03731 0.0
H89 H 0.65796 0.65666 0.98951 0.0
C90 C 0.01442 0.52458 0.72303 0.0
C91 C 0.99434 0.49298 0.76593 0.0
C92 C 0.01214 0.52201 0.64294 0.0
C93 C 0.98985 0.48768 0.60414 0.0
C94 C 0.96919 0.45624 0.64717 0.0
C95 C 0.97157 0.45879 0.72704 0.0
C96 C 0.9863 0.48337 0.51917 0.0
C97 C 0.01536 0.50858 0.47339 0.0
C98 C 0.01178 0.50425 0.38844 0.0
C99 C 0.03219 0.5357 0.34538 0.0
C100 C 0.0298 0.53313 0.26551 0.0
C101 C 0.00728 0.49893 0.22665 0.0
H102 H 0.97479 0.44494 0.38064 0.0
C103 C 0.98745 0.46734 0.26959 0.0
C104 C 0.98972 0.46992 0.34968 0.0
H105 H 0.97016 0.44058 0.24139 0.0
H106 H 0.03189 0.55133 0.75125 0.0
H107 H 0.02726 0.54699 0.61204 0.0
H108 H 0.95146 0.42949 0.6189 0.0
H109 H 0.95554 0.43387 0.75826 0.0
H110 H 0.95894 0.45805 0.49407 0.0
H111 H 0.04271 0.53391 0.49846 0.0
H112 H 0.04974 0.56246 0.37361 0.0
H113 H 0.04565 0.55806 0.23426 0.0
C114 C 0.47596 0.00646 0.26878 0.0
C115 C 0.4974 0.99224 0.22699 0.0
C116 C 0.47926 0.00767 0.34884 0.0
C117 C 0.50382 0.99432 0.38906 0.0
C118 C 0.52503 0.97996 0.3471 0.0
C119 C 0.52178 0.97882 0.26704 0.0
C120 C 0.50968 0.9961 0.47423 0.0
C121 C 0.48247 -0.00037 0.52095 0.0
C122 C 0.48832 0.00144 0.60613 0.0
C123 C 0.46687 0.01559 0.64802 0.0
C124 C 0.47012 0.01679 0.72808 0.0
C125 C 0.49478 0.00363 0.76821 0.0
H126 H 0.52916 0.97619 0.61699 0.0
C127 C 0.51646 0.98962 0.72649 0.0
C128 C 0.51315 0.98835 0.64643 0.0
H129 H 0.53538 0.97892 0.75564 0.0
H130 H 0.45726 0.01736 0.23968 0.0
H131 H 0.46346 0.02 0.37835 0.0
H132 H 0.54436 0.96968 0.37638 0.0
H133 H 0.53883 0.96778 0.23662 0.0
H134 H 0.5376 0.9942 0.49865 0.0
H135 H 0.45454 0.0015 0.49648 0.0
H136 H 0.44733 0.02568 0.61869 0.0
H137 H 0.45288 0.02766 0.75844 0.0
C138 C 0.48716 0.47279 0.72933 0.0
C139 C 0.51079 0.50423 0.7772 0.0
C140 C 0.48974 0.47506 0.64982 0.0
C141 C 0.51591 0.50895 0.61649 0.0
C142 C 0.54001 0.54019 0.66458 0.0
C143 C 0.53736 0.53794 0.74392 0.0
C144 C 0.52004 0.51288 0.53238 0.0
C145 C 0.48923 0.48905 0.47981 0.0
C146 C 0.49337 0.49298 0.3957 0.0
C147 C 0.46929 0.46174 0.34761 0.0
C148 C 0.47197 0.46399 0.26828 0.0
C149 C 0.49853 0.4977 0.23499 0.0
H150 H 0.53745 0.55183 0.39698 0.0
C151 C 0.52213 0.52914 0.28286 0.0
C152 C 0.51953 0.52687 0.36237 0.0
H153 H 0.54256 0.55558 0.25896 0.0
H154 H 0.46673 0.44635 0.75323 0.0
H155 H 0.4718 0.4501 0.61521 0.0
H156 H 0.56074 0.56658 0.64066 0.0
H157 H 0.55621 0.5627 0.77911 0.0
H158 H 0.54945 0.53676 0.51373 0.0
H159 H 0.45982 0.46517 0.49845 0.0
H160 H 0.44856 0.43535 0.37153 0.0
H161 H 0.45313 0.43922 0.23309 0.0
C162 C 0.15978 0.53349 0.9953 0.0
C163 C 0.11877 0.50064 0.9937 0.0
C164 C 0.19949 0.53319 0.98965 0.0
C165 C 0.19883 0.49994 0.98219 0.0
C166 C 0.15778 0.46728 0.98035 0.0
C167 C 0.11832 0.46757 0.98642 0.0
C168 C 0.23954 0.49761 0.97418 0.0
C169 C 0.28107 0.52397 0.99776 0.0
C170 C 0.32066 0.51955 0.99392 0.0
C171 C 0.36327 0.55073 0.99555 0.0
C172 C 0.40125 0.54756 0.9946 0.0
C173 C 0.39739 0.51305 0.99243 0.0
H174 H 0.28517 0.46021 0.99395 0.0
C175 C 0.35481 0.48187 0.99094 0.0
C176 C 0.31697 0.48503 0.99219 0.0
H177 H 0.35061 0.45485 0.99029 0.0
H178 H 0.16121 0.55945 0.00024 0.0
H179 H 0.23025 0.55902 0.98948 0.0
H180 H 0.15616 0.44128 0.97436 0.0
H181 H 0.08735 0.44173 0.98457 0.0
H182 H 0.23436 0.47226 0.94937 0.0
H183 H 0.28664 0.54964 0.02147 0.0
H184 H 0.36722 0.57767 0.99771 0.0
H185 H 0.4336 0.57215 0.99625 0.0
C186 C 0.64413 0.1057 0.04545 0.0
C187 C 0.60192 0.0992 0.0193 0.0
C188 C 0.68113 0.1409 0.0462 0.0
C189 C 0.67657 0.17005 0.01957 0.0
C190 C 0.63437 0.16357 0.99416 0.0
C191 C 0.59726 0.12859 0.99502 0.0
C192 C 0.71575 0.20656 0.0106 0.0
C193 C 0.75206 0.22135 0.05943 0.0
C194 C 0.79211 0.25642 0.04402 0.0
C195 C 0.81623 0.2821 0.10399 0.0
C196 C 0.85418 0.31527 0.08942 0.0
C197 C 0.86922 0.3226 0.01514 0.0
H198 H 0.78974 0.24428 0.9227 0.0
C199 C 0.84549 0.29658 0.95561 0.0
C200 C 0.80717 0.26392 0.96974 0.0
H201 H 0.85636 0.30173 0.89784 0.0
H202 H 0.64864 0.08352 0.06445 0.0
H203 H 0.71347 0.14496 0.06459 0.0
H204 H 0.63018 0.18558 0.97272 0.0
H205 H 0.56517 0.12436 0.97415 0.0
H206 H 0.71439 0.22201 0.96219 0.0
H207 H 0.75219 0.20794 0.11211 0.0
H208 H 0.80538 0.27668 0.1618 0.0
H209 H 0.87226 0.33492 0.13617 0.0
C210 C 0.60012 0.88201 0.96243 0.0
C211 C 0.57825 0.89304 0.01168 0.0
C212 C 0.59796 0.84853 0.97082 0.0
C213 C 0.57417 0.82527 0.0293 0.0
C214 C 0.5522 0.83621 0.07835 0.0
C215 C 0.55437 0.86975 0.06996 0.0
C216 C 0.56993 0.78886 0.03834 0.0
C217 C 0.6005 0.78107 0.01507 0.0
C218 C 0.59675 0.74462 0.01859 0.0
C219 C 0.62643 0.73903 0.97774 0.0
C220 C 0.62467 0.70557 0.97791 0.0
C221 C 0.59327 0.6766 0.01948 0.0
H222 H 0.54227 0.71879 0.0943 0.0
C223 C 0.56357 0.68207 0.06089 0.0
C224 C 0.5653 0.71571 0.06068 0.0
H225 H 0.53935 0.66052 0.0943 0.0
H226 H 0.61787 0.89872 0.91574 0.0
H227 H 0.61393 0.84064 0.92976 0.0
H228 H 0.53335 0.81878 0.12352 0.0
H229 H 0.53738 0.87743 0.10929 0.0
H230 H 0.5408 0.76832 0.06518 0.0
H231 H 0.63004 0.80248 0.99057 0.0
H232 H 0.65097 0.76061 0.94464 0.0
H233 H 0.6476 0.70236 0.94415 0.0
C234 C 0.84225 0.45988 0.00139 0.0
C235 C 0.88322 0.49198 0.99393 0.0
C236 C 0.80286 0.46104 0.00201 0.0
C237 C 0.80383 0.49444 0.99518 0.0
C238 C 0.84476 0.52626 0.9867 0.0
C239 C 0.88392 0.52512 0.98641 0.0
C240 C 0.76345 0.49781 0.99512 0.0
C241 C 0.72443 0.47282 0.02195 0.0
C242 C 0.68566 0.47836 0.02299 0.0
C243 C 0.64253 0.44789 0.01809 0.0
C244 C 0.60541 0.45225 0.01719 0.0
C245 C 0.61072 0.48725 0.02207 0.0
H246 H 0.72361 0.53746 0.03717 0.0
C247 C 0.6539 0.5177 0.02938 0.0
C248 C 0.69095 0.51333 0.03013 0.0
H249 H 0.65919 0.54501 0.03425 0.0
H250 H 0.84062 0.43389 0.00689 0.0
H251 H 0.77196 0.43571 0.0068 0.0
H252 H 0.8466 0.55232 0.98088 0.0
H253 H 0.91482 0.55041 0.98027 0.0
H254 H 0.76665 0.52277 0.97291 0.0
H255 H 0.72006 0.44731 0.04271 0.0
H256 H 0.63749 0.42064 0.01357 0.0
H257 H 0.57257 0.42817 0.01198 0.0
C258 C 0.16713 0.67521 0.95926 0.0
C259 C 0.12489 0.67063 0.96785 0.0
C260 C 0.20375 0.70994 0.95029 0.0
C261 C 0.19859 0.74074 0.94897 0.0
C262 C 0.15589 0.73569 0.95402 0.0
C263 C 0.11949 0.7011 0.96327 0.0
C264 C 0.2367 0.77874 0.94905 0.0
C265 C 0.27828 0.78798 0.9326 0.0
C266 C 0.31646 0.82593 0.94172 0.0
C267 C 0.35948 0.83141 0.95406 0.0
C268 C 0.39611 0.8665 0.96641 0.0
C269 C 0.39046 0.89693 0.96636 0.0
H270 H 0.27878 0.85378 0.92702 0.0
C271 C 0.3476 0.89161 0.95214 0.0
C272 C 0.31102 0.85654 0.93938 0.0
H273 H 0.34227 0.91456 0.95036 0.0
H274 H 0.17229 0.65223 0.96336 0.0
H275 H 0.23598 0.71238 0.94799 0.0
H276 H 0.15078 0.75877 0.95287 0.0
H277 H 0.08717 0.69828 0.96847 0.0
H278 H 0.23004 0.79987 0.96682 0.0
H279 H 0.28555 0.76711 0.91581 0.0
H280 H 0.36472 0.8084 0.95549 0.0
H281 H 0.42879 0.86972 0.97659 0.0
C282 C 0.39744 0.29835 0.02671 0.0
C283 C 0.42123 0.32721 0.97807 0.0
C284 C 0.39934 0.26644 0.02152 0.0
C285 C 0.42477 0.26232 0.96679 0.0
C286 C 0.44876 0.29123 0.91842 0.0
C287 C 0.44693 0.32328 0.92378 0.0
C288 C 0.42868 0.2291 0.96145 0.0
C289 C 0.39754 0.19642 0.98554 0.0
C290 C 0.40177 0.16334 0.98724 0.0
C291 C 0.37528 0.13563 0.03612 0.0
C292 C 0.37778 0.10402 0.04081 0.0
C293 C 0.40658 0.09893 0.99592 0.0
H294 H 0.4507 0.17859 0.90183 0.0
C295 C 0.43289 0.12652 0.9462 0.0
C296 C 0.43053 0.15838 0.94178 0.0
H297 H 0.45492 0.12335 0.90987 0.0
H298 H 0.37833 0.30075 0.07064 0.0
H299 H 0.38185 0.24566 0.06228 0.0
H300 H 0.46897 0.28902 0.87625 0.0
H301 H 0.46556 0.34493 0.88527 0.0
H302 H 0.45835 0.23209 0.93766 0.0
H303 H 0.36763 0.19366 0.00785 0.0
H304 H 0.35283 0.13863 0.07186 0.0
H305 H 0.35751 0.08387 0.08075 0.0
loop_
_geom_bond_atom_site_label_1
_geom_bond_atom_site_label_2
_geom_bond_distance
_geom_bond_site_symmetry_2
_ccdc_geom_bond_type
Co0 N5 2.057 1_554 S
Co0 O17 2.021 . S
Co0 O20 2.062 . S
Co0 O24 2.117 1_554 S
Co0 O25 2.020 1_655 S
C1 O21 1.259 . S
C1 O24 1.258 1_455 S
Co2 N11 2.057 1_556 S
Co2 O18 2.117 1_556 S
Co2 O19 2.020 1_455 S
Co2 O21 2.021 . S
Co2 O26 2.062 . S
C3 N5 1.316 1_554 S
C3 N6 1.347 1_554 S
C3 H8 0.931 . S
C4 N5 1.375 . S
C4 C7 1.350 . S
C4 H9 0.930 . S
N5 Co0 2.057 1_556 S
N5 C3 1.316 1_556 S
N5 C4 1.375 . S
N6 C3 1.347 1_556 S
N6 C7 1.373 . S
C7 C4 1.350 . S
C7 N6 1.373 . S
C7 H28 0.931 . S
H8 C3 0.931 . S
H9 C4 0.930 . S
C10 O17 1.259 . S
C10 O18 1.258 1_655 S
N11 Co2 2.057 1_554 S
N11 C12 1.316 1_554 S
N11 C13 1.375 . S
C12 N11 1.316 1_556 S
C12 N14 1.347 1_556 S
C12 H23 0.931 . S
C13 N11 1.375 . S
C13 C15 1.350 . S
C13 H22 0.930 . S
N14 C12 1.347 1_554 S
N14 C15 1.373 . S
C15 C13 1.350 . S
C15 N14 1.373 . S
C15 H29 0.931 . S
C16 O19 1.256 1_554 S
C16 O20 1.255 . S
O17 Co0 2.021 . S
O17 C10 1.259 . S
O18 Co2 2.117 1_554 S
O18 C10 1.258 1_455 S
O19 Co2 2.020 1_655 S
O19 C16 1.256 1_556 S
O20 Co0 2.062 . S
O20 C16 1.255 . S
O21 C1 1.259 . S
O21 Co2 2.021 . S
H22 C13 0.930 . S
H23 C12 0.931 . S
O24 Co0 2.117 1_556 S
O24 C1 1.258 1_655 S
O25 Co0 2.020 1_455 S
O25 C27 1.256 1_554 S
O26 Co2 2.062 . S
O26 C27 1.255 . S
C27 O25 1.256 1_556 S
C27 O26 1.255 . S
H28 C7 0.931 . S
H29 C15 0.931 . S
Co30 N35 2.057 1_554 S
Co30 O47 2.021 . S
Co30 O50 2.062 . S
Co30 O54 2.117 1_554 S
Co30 O55 2.020 1_565 S
C31 O51 1.259 . S
C31 O54 1.258 1_545 S
Co32 N41 2.057 1_556 S
Co32 O48 2.117 1_556 S
Co32 O49 2.020 1_545 S
Co32 O51 2.021 . S
Co32 O56 2.062 . S
C33 N35 1.316 1_554 S
C33 N36 1.347 1_554 S
C33 H38 0.931 . S
C34 N35 1.375 . S
C34 C37 1.350 . S
C34 H39 0.930 . S
N35 Co30 2.057 1_556 S
N35 C33 1.316 1_556 S
N35 C34 1.375 . S
N36 C33 1.347 1_556 S
N36 C37 1.373 . S
C37 C34 1.350 . S
C37 N36 1.373 . S
C37 H58 0.931 . S
H38 C33 0.931 . S
H39 C34 0.930 . S
C40 O47 1.259 . S
C40 O48 1.258 1_565 S
N41 Co32 2.057 1_554 S
N41 C42 1.316 1_554 S
N41 C43 1.375 . S
C42 N41 1.316 1_556 S
C42 N44 1.347 1_556 S
C42 H53 0.931 . S
C43 N41 1.375 . S
C43 C45 1.350 . S
C43 H52 0.930 . S
N44 C42 1.347 1_554 S
N44 C45 1.373 . S
C45 C43 1.350 . S
C45 N44 1.373 . S
C45 H59 0.931 . S
C46 O49 1.256 . S
C46 O50 1.254 1_556 S
O47 Co30 2.021 . S
O47 C40 1.259 . S
O48 Co32 2.117 1_554 S
O48 C40 1.258 1_545 S
O49 Co32 2.020 1_565 S
O49 C46 1.256 . S
O50 Co30 2.062 . S
O50 C46 1.254 1_554 S
O51 C31 1.259 . S
O51 Co32 2.021 . S
H52 C43 0.930 . S
H53 C42 0.931 . S
O54 Co30 2.117 1_556 S
O54 C31 1.258 1_565 S
O55 Co30 2.020 1_545 S
O55 C57 1.257 . S
O56 Co32 2.062 . S
O56 C57 1.254 1_556 S
C57 O55 1.257 . S
C57 O56 1.254 1_554 S
H58 C37 0.931 . S
H59 C45 0.931 . S
Co60 N65 2.057 1_556 S
Co60 O77 2.021 . S
Co60 O80 2.062 . S
Co60 O84 2.117 1_556 S
Co60 O85 2.020 . S
C61 O81 1.259 . S
C61 O84 1.258 . S
Co62 N71 2.057 1_554 S
Co62 O78 2.117 1_554 S
Co62 O79 2.020 . S
Co62 O81 2.021 . S
Co62 O86 2.062 . S
C63 N65 1.316 1_556 S
C63 N66 1.347 1_556 S
C63 H68 0.931 . S
C64 N65 1.375 . S
C64 C67 1.350 . S
C64 H69 0.930 . S
N65 Co60 2.057 1_554 S
N65 C63 1.316 1_554 S
N65 C64 1.375 . S
N66 C63 1.347 1_554 S
N66 C67 1.373 . S
C67 C64 1.350 . S
C67 N66 1.373 . S
C67 H88 0.931 . S
H68 C63 0.931 . S
H69 C64 0.930 . S
C70 O77 1.259 . S
C70 O78 1.258 . S
N71 Co62 2.057 1_556 S
N71 C72 1.316 1_556 S
N71 C73 1.375 . S
C72 N71 1.316 1_554 S
C72 N74 1.347 1_554 S
C72 H83 0.931 . S
C73 N71 1.375 . S
C73 C75 1.350 . S
C73 H82 0.930 . S
N74 C72 1.347 1_556 S
N74 C75 1.373 . S
C75 C73 1.350 . S
C75 N74 1.373 . S
C75 H89 0.931 . S
C76 O79 1.256 . S
C76 O80 1.254 1_554 S
O77 Co60 2.021 . S
O77 C70 1.259 . S
O78 Co62 2.117 1_556 S
O78 C70 1.258 . S
O79 Co62 2.020 . S
O79 C76 1.256 . S
O80 Co60 2.062 . S
O80 C76 1.254 1_556 S
O81 C61 1.259 . S
O81 Co62 2.021 . S
H82 C73 0.930 . S
H83 C72 0.931 . S
O84 Co60 2.117 1_554 S
O84 C61 1.258 . S
O85 Co60 2.020 . S
O85 C87 1.256 . S
O86 Co62 2.062 . S
O86 C87 1.255 1_554 S
C87 O85 1.256 . S
C87 O86 1.255 1_556 S
H88 C67 0.931 . S
H89 C75 0.931 . S
C90 C91 1.386 . S
C90 C92 1.383 . S
C90 H106 0.951 . S
C91 C90 1.386 . S
C91 C95 1.383 1_455 S
C92 C90 1.383 . S
C92 C93 1.401 1_455 S
C92 H107 0.951 . S
C93 C92 1.401 1_655 S
C93 C94 1.377 . S
C93 C96 1.480 . S
C94 C93 1.377 . S
C94 C95 1.367 . S
C94 H108 0.951 . S
C95 C91 1.383 1_655 S
C95 C94 1.367 . S
C95 H109 0.950 . S
C96 C93 1.480 . S
C96 C97 1.297 1_655 S
C96 H110 0.950 . S
C97 C96 1.297 1_455 S
C97 C98 1.479 . S
C97 H111 0.950 . S
C98 C97 1.479 . S
C98 C99 1.375 . S
C98 C104 1.404 1_455 S
C99 C98 1.375 . S
C99 C100 1.369 . S
C99 H112 0.950 . S
C100 C99 1.369 . S
C100 C101 1.392 . S
C100 H113 0.951 . S
C101 C100 1.392 . S
C101 C103 1.384 1_455 S
H102 C104 0.949 . S
C103 C101 1.384 1_655 S
C103 C104 1.385 . S
C103 H105 0.950 . S
C104 C98 1.404 1_655 S
C104 H102 0.949 . S
C104 C103 1.385 . S
H105 C103 0.950 . S
H106 C90 0.951 . S
H107 C92 0.951 . S
H108 C94 0.951 . S
H109 C95 0.950 . S
H110 C96 0.950 . S
H111 C97 0.950 . S
H112 C99 0.950 . S
H113 C100 0.951 . S
C114 C115 1.386 1_545 S
C114 C116 1.383 . S
C114 H130 0.951 . S
C115 C114 1.386 1_565 S
C115 C119 1.383 . S
C116 C114 1.383 . S
C116 C117 1.402 1_545 S
C116 H131 0.951 . S
C117 C116 1.402 1_565 S
C117 C118 1.375 . S
C117 C120 1.481 . S
C118 C117 1.375 . S
C118 C119 1.367 . S
C118 H132 0.951 . S
C119 C115 1.383 . S
C119 C118 1.367 . S
C119 H133 0.950 . S
C120 C117 1.481 . S
C120 C121 1.297 . S
C120 H134 0.950 . S
C121 C120 1.297 . S
C121 C122 1.479 . S
C121 H135 0.950 1_565 S
C122 C121 1.479 . S
C122 C123 1.375 1_565 S
C122 C128 1.404 . S
C123 C122 1.375 1_545 S
C123 C124 1.369 . S
C123 H136 0.950 . S
C124 C123 1.369 . S
C124 C125 1.392 1_545 S
C124 H137 0.951 . S
C125 C124 1.392 1_565 S
C125 C127 1.384 . S
H126 C128 0.949 . S
C127 C125 1.384 . S
C127 C128 1.385 . S
C127 H129 0.950 . S
C128 C122 1.404 . S
C128 H126 0.949 . S
C128 C127 1.385 . S
H129 C127 0.950 . S
H130 C114 0.951 . S
H131 C116 0.951 . S
H132 C118 0.951 . S
H133 C119 0.950 . S
H134 C120 0.950 . S
H135 C121 0.950 1_545 S
H136 C123 0.950 . S
H137 C124 0.951 . S
C138 C139 1.386 . S
C138 C140 1.383 . S
C138 H154 0.951 . S
C139 C138 1.386 . S
C139 C143 1.383 . S
C140 C138 1.383 . S
C140 C141 1.402 . S
C140 H155 0.951 . S
C141 C140 1.402 . S
C141 C142 1.375 . S
C141 C144 1.481 . S
C142 C141 1.375 . S
C142 C143 1.367 . S
C142 H156 0.951 . S
C143 C139 1.383 . S
C143 C142 1.367 . S
C143 H157 0.950 . S
C144 C141 1.481 . S
C144 C145 1.297 . S
C144 H158 0.950 . S
C145 C144 1.297 . S
C145 C146 1.479 . S
C145 H159 0.950 . S
C146 C145 1.479 . S
C146 C147 1.375 . S
C146 C152 1.404 . S
C147 C146 1.375 . S
C147 C148 1.369 . S
C147 H160 0.950 . S
C148 C147 1.369 . S
C148 C149 1.392 . S
C148 H161 0.951 . S
C149 C148 1.392 . S
C149 C151 1.384 . S
H150 C152 0.949 . S
C151 C149 1.384 . S
C151 C152 1.385 . S
C151 H153 0.950 . S
C152 C146 1.404 . S
C152 H150 0.949 . S
C152 C151 1.385 . S
H153 C151 0.950 . S
H154 C138 0.951 . S
H155 C140 0.951 . S
H156 C142 0.951 . S
H157 C143 0.950 . S
H158 C144 0.950 . S
H159 C145 0.950 . S
H160 C147 0.950 . S
H161 C148 0.951 . S
C162 C163 1.386 1_554 S
C162 C164 1.383 . S
C162 H178 0.951 . S
C163 C162 1.386 1_556 S
C163 C167 1.383 . S
C164 C162 1.383 . S
C164 C165 1.402 1_554 S
C164 H179 0.951 . S
C165 C164 1.402 1_556 S
C165 C166 1.375 . S
C165 C168 1.481 . S
C166 C165 1.375 . S
C166 C167 1.367 . S
C166 H180 0.951 . S
C167 C163 1.383 . S
C167 C166 1.367 . S
C167 H181 0.950 . S
C168 C165 1.481 . S
C168 C169 1.297 1_556 S
C168 H182 0.950 . S
C169 C168 1.297 1_554 S
C169 C170 1.479 . S
C169 H183 0.950 . S
C170 C169 1.479 . S
C170 C171 1.375 . S
C170 C176 1.404 1_554 S
C171 C170 1.375 . S
C171 C172 1.369 . S
C171 H184 0.950 . S
C172 C171 1.369 . S
C172 C173 1.392 . S
C172 H185 0.951 . S
C173 C172 1.392 . S
C173 C175 1.384 1_554 S
H174 C176 0.949 . S
C175 C173 1.384 1_556 S
C175 C176 1.385 . S
C175 H177 0.950 . S
C176 C170 1.404 1_556 S
C176 H174 0.949 . S
C176 C175 1.385 . S
H177 C175 0.950 . S
H178 C162 0.951 . S
H179 C164 0.951 . S
H180 C166 0.951 . S
H181 C167 0.950 . S
H182 C168 0.950 . S
H183 C169 0.950 . S
H184 C171 0.950 . S
H185 C172 0.951 . S
C186 C187 1.386 1_554 S
C186 C188 1.383 . S
C186 H202 0.951 . S
C187 C186 1.386 1_556 S
C187 C191 1.383 . S
C188 C186 1.383 . S
C188 C189 1.402 1_554 S
C188 H203 0.951 . S
C189 C188 1.402 1_556 S
C189 C190 1.375 . S
C189 C192 1.481 . S
C190 C189 1.375 . S
C190 C191 1.367 . S
C190 H204 0.951 . S
C191 C187 1.383 . S
C191 C190 1.367 . S
C191 H205 0.950 . S
C192 C189 1.481 . S
C192 C193 1.297 1_556 S
C192 H206 0.950 . S
C193 C192 1.297 1_554 S
C193 C194 1.479 . S
C193 H207 0.950 . S
C194 C193 1.479 . S
C194 C195 1.375 . S
C194 C200 1.404 1_554 S
C195 C194 1.375 . S
C195 C196 1.369 . S
C195 H208 0.950 . S
C196 C195 1.369 . S
C196 C197 1.394 . S
C196 H209 0.951 . S
C197 C196 1.394 . S
C197 C199 1.383 1_554 S
H198 C200 0.949 . S
C199 C197 1.383 1_556 S
C199 C200 1.385 . S
C199 H201 0.950 . S
C200 C194 1.404 1_556 S
C200 H198 0.949 . S
C200 C199 1.385 . S
H201 C199 0.950 . S
H202 C186 0.951 . S
H203 C188 0.951 . S
H204 C190 0.951 . S
H205 C191 0.950 . S
H206 C192 0.950 . S
H207 C193 0.950 . S
H208 C195 0.950 . S
H209 C196 0.951 . S
C210 C211 1.386 1_556 S
C210 C212 1.383 . S
C210 H226 0.951 . S
C211 C210 1.386 1_554 S
C211 C215 1.383 . S
C212 C210 1.383 . S
C212 C213 1.402 1_556 S
C212 H227 0.951 . S
C213 C212 1.402 1_554 S
C213 C214 1.375 . S
C213 C216 1.481 . S
C214 C213 1.375 . S
C214 C215 1.367 . S
C214 H228 0.951 . S
C215 C211 1.383 . S
C215 C214 1.367 . S
C215 H229 0.950 . S
C216 C213 1.481 . S
C216 C217 1.297 1_554 S
C216 H230 0.950 . S
C217 C216 1.297 1_556 S
C217 C218 1.479 . S
C217 H231 0.950 . S
C218 C217 1.479 . S
C218 C219 1.375 . S
C218 C224 1.404 1_556 S
C219 C218 1.375 . S
C219 C220 1.369 . S
C219 H232 0.950 . S
C220 C219 1.369 . S
C220 C221 1.392 1_556 S
C220 H233 0.951 . S
C221 C220 1.392 1_554 S
C221 C223 1.384 . S
H222 C224 0.949 . S
C223 C221 1.384 . S
C223 C224 1.385 . S
C223 H225 0.950 . S
C224 C218 1.404 1_554 S
C224 H222 0.949 . S
C224 C223 1.385 . S
H225 C223 0.950 . S
H226 C210 0.951 . S
H227 C212 0.951 . S
H228 C214 0.951 . S
H229 C215 0.950 . S
H230 C216 0.950 . S
H231 C217 0.950 . S
H232 C219 0.950 . S
H233 C220 0.951 . S
C234 C235 1.386 1_554 S
C234 C236 1.383 . S
C234 H250 0.951 . S
C235 C234 1.386 1_556 S
C235 C239 1.383 . S
C236 C234 1.383 . S
C236 C237 1.402 1_554 S
C236 H251 0.951 . S
C237 C236 1.402 1_556 S
C237 C238 1.375 . S
C237 C240 1.481 . S
C238 C237 1.375 . S
C238 C239 1.367 . S
C238 H252 0.951 . S
C239 C235 1.383 . S
C239 C238 1.367 . S
C239 H253 0.950 . S
C240 C237 1.481 . S
C240 C241 1.297 1_556 S
C240 H254 0.950 . S
C241 C240 1.297 1_554 S
C241 C242 1.479 . S
C241 H255 0.950 . S
C242 C241 1.479 . S
C242 C243 1.375 . S
C242 C248 1.404 1_554 S
C243 C242 1.375 . S
C243 C244 1.369 . S
C243 H256 0.950 . S
C244 C243 1.369 . S
C244 C245 1.392 . S
C244 H257 0.951 . S
C245 C244 1.392 . S
C245 C247 1.384 1_554 S
H246 C248 0.949 . S
C247 C245 1.384 1_556 S
C247 C248 1.385 . S
C247 H249 0.950 . S
C248 C242 1.404 1_556 S
C248 H246 0.949 . S
C248 C247 1.385 . S
H249 C247 0.950 . S
H250 C234 0.951 . S
H251 C236 0.951 . S
H252 C238 0.951 . S
H253 C239 0.950 . S
H254 C240 0.950 . S
H255 C241 0.950 . S
H256 C243 0.950 . S
H257 C244 0.951 . S
C258 C259 1.386 . S
C258 C260 1.383 . S
C258 H274 0.951 . S
C259 C258 1.386 . S
C259 C263 1.383 . S
C260 C258 1.383 . S
C260 C261 1.402 . S
C260 H275 0.951 . S
C261 C260 1.402 . S
C261 C262 1.375 . S
C261 C264 1.481 . S
C262 C261 1.375 . S
C262 C263 1.367 . S
C262 H276 0.951 . S
C263 C259 1.383 . S
C263 C262 1.367 . S
C263 H277 0.950 . S
C264 C261 1.481 . S
C264 C265 1.297 . S
C264 H278 0.950 . S
C265 C264 1.297 . S
C265 C266 1.479 . S
C265 H279 0.950 . S
C266 C265 1.479 . S
C266 C267 1.375 . S
C266 C272 1.404 . S
C267 C266 1.375 . S
C267 C268 1.369 . S
C267 H280 0.950 . S
C268 C267 1.369 . S
C268 C269 1.392 . S
C268 H281 0.951 . S
C269 C268 1.392 . S
C269 C271 1.384 . S
H270 C272 0.949 . S
C271 C269 1.384 . S
C271 C272 1.385 . S
C271 H273 0.950 . S
C272 C266 1.404 . S
C272 H270 0.949 . S
C272 C271 1.385 . S
H273 C271 0.950 . S
H274 C258 0.951 . S
H275 C260 0.951 . S
H276 C262 0.951 . S
H277 C263 0.950 . S
H278 C264 0.950 . S
H279 C265 0.950 . S
H280 C267 0.950 . S
H281 C268 0.951 . S
C282 C283 1.386 1_554 S
C282 C284 1.383 . S
C282 H298 0.951 . S
C283 C282 1.386 1_556 S
C283 C287 1.383 . S
C284 C282 1.383 . S
C284 C285 1.402 1_554 S
C284 H299 0.951 . S
C285 C284 1.402 1_556 S
C285 C286 1.375 . S
C285 C288 1.481 . S
C286 C285 1.375 . S
C286 C287 1.367 . S
C286 H300 0.951 . S
C287 C283 1.383 . S
C287 C286 1.367 . S
C287 H301 0.950 . S
C288 C285 1.481 . S
C288 C289 1.297 1_556 S
C288 H302 0.950 . S
C289 C288 1.297 1_554 S
C289 C290 1.479 . S
C289 H303 0.950 . S
C290 C289 1.479 . S
C290 C291 1.375 . S
C290 C296 1.404 1_554 S
C291 C290 1.375 . S
C291 C292 1.369 . S
C291 H304 0.950 . S
C292 C291 1.369 . S
C292 C293 1.392 1_554 S
C292 H305 0.951 . S
C293 C292 1.392 1_556 S
C293 C295 1.384 . S
H294 C296 0.949 . S
C295 C293 1.384 . S
C295 C296 1.385 . S
C295 H297 0.950 . S
C296 C290 1.404 1_556 S
C296 H294 0.949 . S
C296 C295 1.385 . S
H297 C295 0.950 . S
H298 C282 0.951 . S
H299 C284 0.951 . S
H300 C286 0.951 . S
H301 C287 0.950 . S
H302 C288 0.950 . S
H303 C289 0.950 . S
H304 C291 0.950 . S
H305 C292 0.951 . S
C91 C1 1.500 . S
C101 C10 1.480 1_455 S
C115 C40 1.495 . S
C125 C31 1.481 1_565 S
C139 C70 1.501 . S
C149 C61 1.488 . S
C163 C27 1.549 . S
C173 C87 1.543 1_554 S
C187 C57 1.073 1_556 S
C197 N6 1.027 1_554 S
C211 N36 0.733 1_554 S
C221 N74 0.662 1_554 S
C235 C16 1.550 1_556 S
C245 C76 1.553 . S
C259 N14 1.066 1_556 S
C269 C46 1.061 . S
C283 N66 0.714 1_556 S
C293 N44 0.677 1_556 S
