# Generated by pormake.
# Topology rob, (6)-cn, num edge types: 1
# Building blocks:
#     Node 0, Type 0, BuildingBlock: KUMJIN_clean_sbu_1, # of connection points: 6
#     Node 1, Type 0, BuildingBlock: KUMJIN_clean_sbu_1, # of connection points: 6
#     Node 2, Type 0, BuildingBlock: KUMJIN_clean_sbu_1, # of connection points: 6
#     Node 3, Type 0, BuildingBlock: KUMJIN_clean_sbu_1, # of connection points: 6
#     Edge 4, Type (0, 0), BuildingBlock: FUNLAD_clean_linker_1, # of connection points: 2
#     Edge 5, Type (0, 0), BuildingBlock: FUNLAD_clean_linker_1, # of connection points: 2
#     Edge 6, Type (0, 0), BuildingBlock: FUNLAD_clean_linker_1, # of connection points: 2
#     Edge 7, Type (0, 0), BuildingBlock: FUNLAD_clean_linker_1, # of connection points: 2
#     Edge 8, Type (0, 0), BuildingBlock: FUNLAD_clean_linker_1, # of connection points: 2
#     Edge 9, Type (0, 0), BuildingBlock: FUNLAD_clean_linker_1, # of connection points: 2
#     Edge 10, Type (0, 0), BuildingBlock: FUNLAD_clean_linker_1, # of connection points: 2
#     Edge 11, Type (0, 0), BuildingBlock: FUNLAD_clean_linker_1, # of connection points: 2
#     Edge 12, Type (0, 0), BuildingBlock: FUNLAD_clean_linker_1, # of connection points: 2
#     Edge 13, Type (0, 0), BuildingBlock: FUNLAD_clean_linker_1, # of connection points: 2
#     Edge 14, Type (0, 0), BuildingBlock: FUNLAD_clean_linker_1, # of connection points: 2
#     Edge 15, Type (0, 0), BuildingBlock: FUNLAD_clean_linker_1, # of connection points: 2
# Relax obj value: 0.019
# Max RMSD: 0.109
# Mean RMSD: 0.109
data_MOF--net-rob--node1-KUMJIN_clean_sbu_1--edge1-FUNLAD_clean_linker_1
_symmetry_space_group_name_H-M    P1
_symmetry_Int_Tables_number       1
_symmetry_cell_setting            triclinic
loop_
_symmetry_equiv_pos_as_xyz
'x, y, z'
_cell_length_a     19.374005
_cell_length_b     24.176377
_cell_length_c     35.402816
_cell_angle_alpha  109.11939
_cell_angle_beta   90.1843
_cell_angle_gamma 89.88319
loop_
_atom_site_label
_atom_site_type_symbol
_atom_site_fract_x
_atom_site_fract_y
_atom_site_fract_z
_atom_type_partial_charge
Eu0 Eu 0.31466 0.19316 0.9539 0.0
C1 C 0.12511 0.41265 0.05676 0.0
N2 N 0.18811 0.39471 0.06524 0.0
C3 C 0.22481 0.49452 0.09363 0.0
C4 C 0.10928 0.47274 0.06702 0.0
C5 C 0.23766 0.43449 0.08373 0.0
C6 C 0.16031 0.51377 0.0853 0.0
C7 C 0.0088 0.38793 0.03103 0.0
C8 C 0.07552 0.37075 0.03875 0.0
C9 C 0.99271 0.44773 0.04161 0.0
C10 C 0.04287 0.48999 0.05941 0.0
Eu11 Eu 0.2033 0.29268 0.04966 0.0
N12 N 0.09194 0.31311 0.03006 0.0
C13 C 0.95974 0.34444 0.01385 0.0
C14 C 0.04358 0.27068 0.01476 0.0
C15 C 0.97716 0.28559 1.00582 0.0
H16 H 0.28664 0.41999 0.09177 0.0
H17 H 0.93917 0.25173 0.99326 0.0
H18 H 0.25497 0.05681 0.93738 0.0
H19 H 0.57049 0.28578 1.00486 0.0
H20 H 0.05596 0.22535 0.00956 0.0
H21 H 0.90798 0.35587 0.00733 0.0
H22 H 0.45081 0.28741 0.98327 0.0
H23 H 0.2643 0.52591 0.10825 0.0
H24 H 0.94152 0.46182 0.03631 0.0
H25 H 0.02971 0.53596 0.06729 0.0
H26 H 0.30057 0.96046 0.93543 0.0
H27 H 0.15014 0.56032 0.09356 0.0
H28 H 0.62235 0.19315 1.00625 0.0
N29 N 0.34996 0.10112 0.95646 0.0
C30 C 0.41744 0.09679 0.96592 0.0
C31 C 0.33378 0.9985 0.94433 0.0
C32 C 0.44585 0.04231 0.96437 0.0
C33 C 0.30791 0.05322 0.94588 0.0
C34 C 0.40312 0.99292 0.95339 0.0
N35 N 0.42983 0.19922 0.97815 0.0
C36 C 0.47016 0.24795 0.98661 0.0
C37 C 0.52826 0.14342 0.9875 0.0
C38 C 0.45815 0.14712 0.97743 0.0
C39 C 0.56839 0.19422 0.99834 0.0
C40 C 0.53923 0.24664 0.99777 0.0
H41 H 0.42318 0.95031 0.95173 0.0
H42 H 0.539 0.99693 0.97133 0.0
H43 H 0.6105 0.08551 0.99287 0.0
O44 O 0.36396 0.21131 0.90319 0.0
O45 O 0.31879 0.17259 0.01244 0.0
O46 O 0.31213 0.26471 0.05697 0.0
O47 O 0.32737 0.12477 0.89637 0.0
O48 O 0.32726 0.2929 0.97312 0.0
O49 O 0.31123 0.32122 0.04112 0.0
O50 O 0.15332 0.25488 0.09102 0.0
O51 O 0.17819 0.30615 0.99045 0.0
O52 O 0.21062 0.22306 0.93808 0.0
O53 O 0.19923 0.34062 0.1137 0.0
O54 O 0.17794 0.19507 0.02436 0.0
O55 O 0.20593 0.1602 0.95663 0.0
C56 C 0.32937 0.2097 0.04836 0.0
C57 C 0.32551 0.15231 0.83863 0.0
C58 C 0.34279 0.14036 0.76787 0.0
C59 C 0.27163 0.13041 0.76146 0.0
C60 C 0.25459 0.14245 0.83132 0.0
C61 C 0.22789 0.13191 0.793 0.0
C62 C 0.36961 0.15148 0.80684 0.0
C63 C 0.33199 0.3323 0.00909 0.0
C64 C 0.35421 0.15856 0.87849 0.0
C65 C 0.51587 0.03865 0.97348 0.0
C66 C 0.55669 0.08909 0.98553 0.0
C67 C 0.17548 0.27219 0.95289 0.0
C68 C 0.10235 0.32324 0.14813 0.0
C69 C 0.04132 0.33746 0.21093 0.0
C70 C 0.99005 0.3693 0.1985 0.0
C71 C 0.04985 0.35391 0.13619 0.0
C72 C 0.09798 0.31519 0.18561 0.0
C73 C 0.99426 0.37696 0.16125 0.0
C74 C 0.17128 0.15715 0.98791 0.0
C75 C 0.16266 0.30129 0.12225 0.0
H76 H 0.24967 0.12163 0.73188 0.0
H77 H 0.22005 0.14171 0.85514 0.0
H78 H 0.17319 0.12409 0.78758 0.0
H79 H 0.42456 0.15747 0.81233 0.0
H80 H 0.94718 0.38937 0.21759 0.0
H81 H 0.05209 0.36077 0.1078 0.0
H82 H 0.13847 0.29149 0.19499 0.0
H83 H 0.95459 0.40135 0.1519 0.0
Eu84 Eu 0.82552 0.68522 0.96211 0.0
C85 C 0.61586 0.89083 0.04582 0.0
N86 N 0.68143 0.88375 0.05733 0.0
C87 C 0.70447 0.98566 0.07035 0.0
C88 C 0.5918 0.94631 0.04677 0.0
C89 C 0.72552 0.93012 0.06997 0.0
C90 C 0.63736 0.99373 0.0586 0.0
C91 C 0.50434 0.84847 0.02093 0.0
C92 C 0.57286 0.84213 0.03257 0.0
C93 C 0.47986 0.90397 0.02272 0.0
C94 C 0.52329 0.95277 0.03591 0.0
Eu95 Eu 0.71239 0.78854 0.05559 0.0
N96 N 0.59769 0.78892 0.03173 0.0
C97 C 0.46181 0.79908 0.00876 0.0
C98 C 0.55502 0.74153 0.02201 0.0
C99 C 0.48712 0.7455 0.00966 0.0
H100 H 0.77672 0.92445 0.08025 0.0
H101 H 0.4539 0.70744 1.00164 0.0
H102 H 0.76318 0.54949 0.94382 0.0
H103 H 0.08378 0.7724 0.0123 0.0
H104 H 0.57185 0.70102 0.02491 0.0
H105 H 0.40891 0.80216 0.99961 0.0
H106 H 0.96378 0.7769 0.99186 0.0
H107 H 0.73982 0.02225 0.07998 0.0
H108 H 0.42715 0.90973 0.01435 0.0
H109 H 0.50321 0.99544 0.03788 0.0
H110 H 0.80672 0.45162 0.93962 0.0
H111 H 0.62118 0.03657 0.0586 0.0
H112 H 0.13376 0.6782 0.01203 0.0
N113 N 0.85939 0.59174 0.9626 0.0
C114 C 0.92688 0.58571 0.97116 0.0
C115 C 0.8408 0.48904 0.94895 0.0
C116 C 0.95388 0.53048 0.96893 0.0
C117 C 0.81615 0.54462 0.95174 0.0
C118 C 0.90998 0.48186 0.95747 0.0
N119 N 0.9419 0.68777 0.98391 0.0
C120 C 0.98289 0.73624 0.99348 0.0
C121 C 0.0389 0.62999 0.99246 0.0
C122 C 0.96905 0.63503 0.98249 0.0
C123 C 0.08001 0.68025 1.00402 0.0
C124 C 0.05191 0.73353 1.00436 0.0
H125 H 0.92902 0.43863 0.95502 0.0
H126 H 0.04561 0.48313 0.97562 0.0
H127 H 0.11949 0.57031 0.99733 0.0
O128 O 0.87564 0.7007 0.91023 0.0
O129 O 0.83635 0.6706 0.02202 0.0
O130 O 0.82061 0.7623 0.06814 0.0
O131 O 0.82123 0.61892 0.9036 0.0
O132 O 0.84145 0.78427 0.97966 0.0
O133 O 0.81999 0.8201 0.04782 0.0
O134 O 0.66237 0.76577 0.10391 0.0
O135 O 0.70033 0.80512 0.99591 0.0
O136 O 0.71816 0.71345 0.95151 0.0
O137 O 0.70958 0.85042 0.11668 0.0
O138 O 0.6956 0.68922 0.0365 0.0
O139 O 0.71719 0.65523 0.96853 0.0
C140 C 0.84845 0.70972 0.05706 0.0
C141 C 0.87178 0.62607 0.8432 0.0
C142 C 0.9241 0.63565 0.78303 0.0
C143 C 0.89676 0.5807 0.7607 0.0
C144 C 0.84481 0.57138 0.8202 0.0
C145 C 0.85744 0.54892 0.77928 0.0
C146 C 0.91214 0.65779 0.82447 0.0
C147 C 0.84538 0.82595 0.01483 0.0
C148 C 0.85654 0.64937 0.88637 0.0
C149 C 0.02369 0.52537 0.97792 0.0
C150 C 0.06587 0.57501 0.99009 0.0
C151 C 0.69759 0.76755 0.95949 0.0
C152 C 0.61388 0.8438 0.15636 0.0
C153 C 0.55336 0.86897 0.22039 0.0
C154 C 0.5 0.89407 0.20427 0.0
C155 C 0.55964 0.8685 0.141 0.0
C156 C 0.61087 0.84463 0.19631 0.0
C157 C 0.5033 0.8937 0.16485 0.0
C158 C 0.68945 0.64926 1.00079 0.0
C159 C 0.67317 0.81662 0.13086 0.0
H160 H 0.90692 0.5615 0.72902 0.0
H161 H 0.81383 0.54577 0.8338 0.0
H162 H 0.83687 0.50659 0.76191 0.0
H163 H 0.93359 0.69981 0.84191 0.0
H164 H 0.45609 0.91481 0.22222 0.0
H165 H 0.56078 0.86852 0.11067 0.0
H166 H 0.65258 0.82552 0.20841 0.0
H167 H 0.46201 0.91309 0.15272 0.0
Eu168 Eu 0.33142 0.82965 0.56613 0.0
C169 C 0.13358 0.61063 0.47184 0.0
N170 N 0.19825 0.6231 0.46208 0.0
C171 C 0.22695 0.52098 0.43956 0.0
C172 C 0.11348 0.55238 0.46614 0.0
C173 C 0.2448 0.57937 0.44586 0.0
C174 C 0.16122 0.50743 0.44994 0.0
C175 C 0.01951 0.64457 0.49756 0.0
C176 C 0.08693 0.6562 0.48723 0.0
C177 C 0.99963 0.58665 0.49217 0.0
C178 C 0.04639 0.54069 0.47633 0.0
Eu179 Eu 0.22168 0.72274 0.4719 0.0
N180 N 0.10787 0.71203 0.49268 0.0
C181 C 0.97389 0.69153 0.51281 0.0
C182 C 0.06283 0.75764 0.5062 0.0
C183 C 0.99555 0.74825 0.51692 0.0
H184 H 0.29508 0.5894 0.43672 0.0
H185 H 0.96033 0.78474 0.52814 0.0
H186 H 0.26493 0.96597 0.59332 0.0
H187 H 0.58364 0.74817 0.50297 0.0
H188 H 0.0786 0.80126 0.50889 0.0
H189 H 0.92169 0.6844 0.5211 0.0
H190 H 0.46445 0.73994 0.52442 0.0
H191 H 0.26341 0.48626 0.42621 0.0
H192 H 0.94807 0.57689 0.49995 0.0
H193 H 0.03005 0.49617 0.47188 0.0
H194 H 0.30451 0.06589 0.60011 0.0
H195 H 0.1476 0.46212 0.44492 0.0
H196 H 0.63205 0.84562 0.50984 0.0
N197 N 0.36051 0.92592 0.57013 0.0
C198 C 0.42652 0.93369 0.55989 0.0
C199 C 0.33924 0.02906 0.58874 0.0
C200 C 0.4519 0.99023 0.56474 0.0
C201 C 0.31672 0.97235 0.58435 0.0
C202 C 0.40721 0.03808 0.57912 0.0
N203 N 0.44382 0.83081 0.5409 0.0
C204 C 0.48412 0.78225 0.52652 0.0
C205 C 0.53806 0.89197 0.53435 0.0
C206 C 0.46939 0.88496 0.54507 0.0
C207 C 0.57918 0.84206 0.51866 0.0
C208 C 0.55201 0.78697 0.51467 0.0
H209 H 0.42465 0.08208 0.58287 0.0
H210 H 0.54147 0.04049 0.55934 0.0
H211 H 0.61664 0.95465 0.5324 0.0
O212 O 0.38905 0.80591 0.61195 0.0
O213 O 0.34705 0.83806 0.50404 0.0
O214 O 0.33259 0.74316 0.46436 0.0
O215 O 0.33697 0.88942 0.62769 0.0
O216 O 0.33718 0.73072 0.55222 0.0
O217 O 0.3265 0.68843 0.48368 0.0
O218 O 0.18036 0.75785 0.42663 0.0
O219 O 0.1929 0.71971 0.53307 0.0
O220 O 0.22461 0.80671 0.58207 0.0
O221 O 0.20566 0.66601 0.41039 0.0
O222 O 0.20275 0.8217 0.49076 0.0
O223 O 0.22526 0.86337 0.55882 0.0
C224 C 0.35337 0.79635 0.46934 0.0
C225 C 0.43427 0.88285 0.66697 0.0
C226 C 0.49686 0.89808 0.72978 0.0
C227 C 0.54316 0.9351 0.71894 0.0
C228 C 0.4813 0.91958 0.65676 0.0
C229 C 0.53524 0.94565 0.68266 0.0
C230 C 0.44196 0.87267 0.70371 0.0
C231 C 0.34722 0.68701 0.51892 0.0
C232 C 0.37648 0.85529 0.64015 0.0
C233 C 0.52094 0.99733 0.55535 0.0
C234 C 0.56375 0.94839 0.53999 0.0
C235 C 0.19016 0.75714 0.56951 0.0
C236 C 0.20756 0.70769 0.35858 0.0
C237 C 0.18002 0.71033 0.29169 0.0
C238 C 0.2505 0.70212 0.28176 0.0
C239 C 0.27733 0.6987 0.34796 0.0
C240 C 0.15935 0.71401 0.33051 0.0
C241 C 0.29867 0.6965 0.30982 0.0
C242 C 0.19409 0.86306 0.52568 0.0
C243 C 0.1831 0.70769 0.39791 0.0
H244 H 0.58474 0.95683 0.73869 0.0
H245 H 0.47623 0.92854 0.62904 0.0
H246 H 0.57091 0.97437 0.67466 0.0
H247 H 0.40557 0.84447 0.71183 0.0
H248 H 0.2688 0.70082 0.25263 0.0
H249 H 0.315 0.69283 0.36898 0.0
H250 H 0.10529 0.72053 0.33867 0.0
H251 H 0.35271 0.69009 0.30189 0.0
Eu252 Eu 0.79233 0.29159 0.54613 0.0
C253 C 0.56752 0.09311 0.47031 0.0
N254 N 0.63437 0.09531 0.45925 0.0
C255 C 0.64658 0.99204 0.44607 0.0
C256 C 0.53747 0.03959 0.46931 0.0
C257 C 0.67417 0.04602 0.44727 0.0
C258 C 0.57782 0.98872 0.45683 0.0
C259 C 0.45921 0.14328 0.49402 0.0
C260 C 0.52892 0.14466 0.48293 0.0
C261 C 0.42929 0.08997 0.49297 0.0
C262 C 0.46839 0.03844 0.48081 0.0
Eu263 Eu 0.67196 0.1871 0.45786 0.0
N264 N 0.55954 0.19608 0.48457 0.0
C265 C 0.42151 0.19558 0.50577 0.0
C266 C 0.52314 0.2471 0.49617 0.0
C267 C 0.45378 0.24776 0.50709 0.0
H268 H 0.72663 0.04786 0.43758 0.0
H269 H 0.42511 0.28845 0.51619 0.0
H270 H 0.72549 0.42703 0.58471 0.0
H271 H 0.04783 0.22175 0.48365 0.0
H272 H 0.54685 0.28711 0.49634 0.0
H273 H 0.36775 0.19622 0.51426 0.0
H274 H 0.92852 0.20852 0.50319 0.0
H275 H 0.67808 0.95291 0.43634 0.0
H276 H 0.37599 0.08815 0.5017 0.0
H277 H 0.4449 0.99792 0.4808 0.0
H278 H 0.76263 0.52953 0.5979 0.0
H279 H 0.55642 0.94671 0.45544 0.0
H280 H 0.09278 0.32147 0.49439 0.0
N281 N 0.82045 0.39079 0.55776 0.0
C282 C 0.88556 0.4015 0.54773 0.0
C283 C 0.79726 0.49384 0.58332 0.0
C284 C 0.9089 0.45933 0.55502 0.0
C285 C 0.77629 0.43581 0.57552 0.0
C286 C 0.8637 0.50568 0.57289 0.0
N287 N 0.90519 0.2992 0.52322 0.0
C288 C 0.94723 0.25196 0.50752 0.0
C289 C 0.99756 0.36427 0.52017 0.0
C290 C 0.92943 0.35451 0.5305 0.0
C291 C 0.04023 0.31582 0.50284 0.0
C292 C 0.01499 0.25945 0.49661 0.0
H293 H 0.87984 0.5507 0.57916 0.0
H294 H 0.99544 0.51332 0.55034 0.0
H295 H 0.07293 0.43015 0.51959 0.0
O296 O 0.84075 0.25388 0.58794 0.0
O297 O 0.81865 0.29135 0.48333 0.0
O298 O 0.77986 0.20264 0.4395 0.0
O299 O 0.80983 0.34482 0.6085 0.0
O300 O 0.80246 0.19201 0.52957 0.0
O301 O 0.7763 0.14814 0.46245 0.0
O302 O 0.61384 0.20913 0.41163 0.0
O303 O 0.65872 0.18375 0.52137 0.0
O304 O 0.68052 0.27892 0.55844 0.0
O305 O 0.65723 0.12263 0.3985 0.0
O306 O 0.67341 0.28511 0.46796 0.0
O307 O 0.68985 0.3307 0.53565 0.0
C308 C 0.81557 0.25128 0.44763 0.0
C309 C 0.81472 0.29592 0.65655 0.0
C310 C 0.84641 0.28465 0.72053 0.0
C311 C 0.77579 0.28367 0.72967 0.0
C312 C 0.74478 0.29578 0.6664 0.0
C313 C 0.72548 0.28918 0.70268 0.0
C314 C 0.86518 0.28995 0.68352 0.0
C315 C 0.8101 0.14978 0.49507 0.0
C316 C 0.83655 0.30199 0.61835 0.0
C317 C 0.97662 0.46917 0.54473 0.0
C318 C 0.02081 0.4218 0.52734 0.0
C319 C 0.65466 0.22766 0.5551 0.0
C320 C 0.65461 0.16348 0.34626 0.0
C321 C 0.63773 0.1835 0.28351 0.0
C322 C 0.70955 0.18189 0.27811 0.0
C323 C 0.72612 0.16019 0.33951 0.0
C324 C 0.61031 0.17436 0.31785 0.0
C325 C 0.75335 0.1696 0.30571 0.0
C326 C 0.66875 0.33117 0.50032 0.0
C327 C 0.62671 0.15934 0.38396 0.0
H328 H 0.75912 0.27771 0.75722 0.0
H329 H 0.70539 0.30085 0.6461 0.0
H330 H 0.67132 0.28826 0.70989 0.0
H331 H 0.91933 0.29002 0.67581 0.0
H332 H 0.73176 0.1894 0.25216 0.0
H333 H 0.76105 0.15106 0.36064 0.0
H334 H 0.55512 0.17747 0.32308 0.0
H335 H 0.80864 0.16782 0.30105 0.0
H336 H 0.63335 0.57087 0.9642 0.0
C337 C 0.64241 0.5989 0.9948 0.0
H338 H 0.6158 0.61578 0.05531 0.0
H339 H 0.32505 0.48996 0.01561 0.0
H340 H 0.29278 0.59017 0.0519 0.0
H341 H 0.38081 0.66803 0.07231 0.0
H342 H 0.50143 0.64608 0.05672 0.0
C343 C 0.60908 0.58727 0.02464 0.0
C344 C 0.55712 0.53888 0.01589 0.0
C345 C 0.48679 0.55213 0.02626 0.0
C346 C 0.43605 0.50698 0.01512 0.0
C347 C 0.36596 0.52205 0.02445 0.0
C348 C 0.3466 0.57955 0.04497 0.0
C349 C 0.39612 0.62339 0.05639 0.0
C350 C 0.46534 0.61015 0.04714 0.0
H351 H 0.38638 0.41162 0.04606 0.0
C352 C 0.37517 0.38508 0.01537 0.0
H353 H 0.39557 0.3727 0.95462 0.0
H354 H 0.68841 0.49588 0.998 0.0
H355 H 0.72033 0.39553 0.96156 0.0
H356 H 0.63152 0.31917 0.93732 0.0
H357 H 0.51053 0.34218 0.95048 0.0
C358 C 0.40417 0.39972 0.98549 0.0
C359 C 0.45572 0.44834 0.9942 0.0
C360 C 0.52591 0.43522 0.98355 0.0
C361 C 0.57688 0.48002 0.99558 0.0
C362 C 0.64722 0.46434 0.98775 0.0
C363 C 0.66639 0.40681 0.96713 0.0
C364 C 0.61642 0.36372 0.95368 0.0
C365 C 0.54703 0.37749 0.96171 0.0
H366 H 0.38965 0.63124 0.55151 0.0
C367 C 0.38837 0.63731 0.52241 0.0
H368 H 0.42903 0.60937 0.46398 0.0
H369 H 0.64171 0.50818 0.57747 0.0
H370 H 0.66614 0.61025 0.61357 0.0
H371 H 0.60503 0.6888 0.59682 0.0
H372 H 0.51872 0.66569 0.54442 0.0
C373 C 0.42894 0.60347 0.49311 0.0
C374 C 0.47347 0.55652 0.49965 0.0
C375 C 0.52545 0.57059 0.52975 0.0
C376 C 0.56264 0.5252 0.53841 0.0
C377 C 0.6129 0.54078 0.56921 0.0
C378 C 0.62739 0.59922 0.59019 0.0
C379 C 0.59283 0.64343 0.58087 0.0
C380 C 0.54271 0.62954 0.55096 0.0
H381 H 0.63372 0.38742 0.46626 0.0
C382 C 0.63267 0.38255 0.49571 0.0
H383 H 0.58967 0.41375 0.55349 0.0
H384 H 0.38536 0.51433 0.43637 0.0
H385 H 0.36187 0.41236 0.39956 0.0
H386 H 0.42122 0.33367 0.41699 0.0
H387 H 0.50526 0.35649 0.47041 0.0
C388 C 0.59218 0.41847 0.52404 0.0
C389 C 0.55017 0.46567 0.51597 0.0
C390 C 0.49886 0.45166 0.48543 0.0
C391 C 0.46206 0.4971 0.47661 0.0
C392 C 0.41324 0.48167 0.44505 0.0
C393 C 0.39939 0.42329 0.42359 0.0
C394 C 0.43301 0.37901 0.43327 0.0
C395 C 0.48186 0.39277 0.46386 0.0
H396 H 0.12165 0.07452 0.95153 0.0
C397 C 0.12447 0.1064 0.98142 0.0
H398 H 0.08789 0.12946 0.04076 0.0
H399 H 0.8212 0.9699 1.0005 0.0
H400 H 0.77025 0.06662 0.01722 0.0
H401 H 0.84339 0.1539 0.02796 0.0
H402 H 0.968 0.14503 0.02201 0.0
C403 C 0.08752 0.0972 0.01099 0.0
C404 C 0.04343 0.04397 1.00403 0.0
C405 C 0.97063 0.04985 0.00809 0.0
C406 C 0.92836 0.99945 1.0022 0.0
C407 C 0.8558 0.00668 1.00546 0.0
C408 C 0.82582 0.06195 0.01481 0.0
C409 C 0.86701 0.11109 0.02083 0.0
C410 C 0.93852 0.10538 0.01744 0.0
H411 H 0.89202 0.91158 0.0482 0.0
C412 C 0.8857 0.87965 0.01856 0.0
H413 H 0.91154 0.85791 0.95744 0.0
H414 H 0.18157 0.01697 0.99867 0.0
H415 H 0.23195 0.92013 0.98119 0.0
H416 H 0.15826 0.83259 0.96685 0.0
H417 H 0.03373 0.84163 0.97093 0.0
C418 C 0.9153 0.89005 0.98716 0.0
C419 C 0.95889 0.9431 0.99244 0.0
C420 C 0.03153 0.93713 0.98774 0.0
C421 C 0.07395 0.98757 0.99445 0.0
C422 C 0.14661 0.98025 0.99234 0.0
C423 C 0.17635 0.92485 0.98256 0.0
C424 C 0.13489 0.87558 0.97466 0.0
C425 C 0.0634 0.8814 0.97723 0.0
H426 H 0.86458 0.06782 0.46286 0.0
C427 C 0.85905 0.10143 0.49191 0.0
H428 H 0.89524 0.13273 0.55147 0.0
H429 H 0.9987 0.8523 0.47932 0.0
H430 H 0.87724 0.82737 0.47357 0.0
H431 H 0.78813 0.90459 0.4889 0.0
H432 H 0.82013 0.00696 0.50976 0.0
C433 C 0.89826 0.09839 0.52263 0.0
C434 C 0.95148 0.05148 0.51704 0.0
C435 C 0.93187 0.99169 0.50578 0.0
C436 C 0.9833 0.94719 0.49819 0.0
C437 C 0.96205 0.8879 0.48618 0.0
C438 C 0.89238 0.87295 0.48266 0.0
C439 C 0.84224 0.91639 0.49118 0.0
C440 C 0.86141 0.97508 0.50277 0.0
H441 H 0.13819 0.94421 0.55816 0.0
C442 C 0.14504 0.91142 0.52888 0.0
H443 H 0.1117 0.88206 0.46871 0.0
H444 H 1.00718 0.16162 0.54 0.0
H445 H 0.12867 0.18646 0.54622 0.0
H446 H 0.21771 0.10927 0.53211 0.0
H447 H 0.18562 0.00691 0.51174 0.0
C448 C 0.10746 0.91554 0.49787 0.0
C449 C 0.05426 0.96245 0.50343 0.0
C450 C 0.07389 0.02224 0.51484 0.0
C451 C 0.02248 0.06674 0.52214 0.0
C452 C 0.04379 0.126 0.53371 0.0
C453 C 0.11348 0.14091 0.53745 0.0
C454 C 0.16359 0.09748 0.52958 0.0
C455 C 0.14436 0.03882 0.51824 0.0
H456 H 0.61381 0.22736 0.23928 0.0
C457 C 0.59354 0.19701 0.25336 0.0
H458 H 0.51361 0.13747 0.25264 0.0
H459 H 0.28954 0.24532 0.16685 0.0
H460 H 0.23611 0.25817 0.23102 0.0
H461 H 0.30029 0.23619 0.28465 0.0
H462 H 0.4181 0.20063 0.27442 0.0
C463 C 0.5341 0.16881 0.23952 0.0
C464 C 0.49463 0.1799 0.20625 0.0
C465 C 0.4258 0.20095 0.21274 0.0
C466 C 0.38922 0.21484 0.18202 0.0
C467 C 0.32022 0.23508 0.18929 0.0
C468 C 0.28878 0.24251 0.22595 0.0
C469 C 0.32489 0.23004 0.25614 0.0
C470 C 0.39254 0.20953 0.24981 0.0
H471 H 0.38218 0.14432 0.06986 0.0
C472 C 0.36731 0.19011 0.07802 0.0
H473 H 0.36791 0.27296 0.12295 0.0
H474 H 0.62015 0.12879 0.18016 0.0
H475 H 0.67732 0.12383 0.11848 0.0
H476 H 0.61951 0.15906 0.06863 0.0
H477 H 0.50347 0.19851 0.07978 0.0
C478 C 0.3844 0.22752 0.1143 0.0
C479 C 0.42177 0.20861 0.14497 0.0
C480 C 0.49067 0.18758 0.13844 0.0
C481 C 0.52603 0.17103 0.16845 0.0
C482 C 0.59267 0.14591 0.15977 0.0
C483 C 0.62583 0.14208 0.1242 0.0
C484 C 0.59309 0.16165 0.09603 0.0
C485 C 0.5262 0.18383 0.10275 0.0
H486 H 0.59771 0.87364 0.2794 0.0
C487 C 0.54999 0.86907 0.26243 0.0
H488 H 0.44229 0.85676 0.26227 0.0
H489 H 0.52636 0.78968 0.42402 0.0
H490 H 0.60616 0.71754 0.38274 0.0
H491 H 0.62674 0.7104 0.31255 0.0
H492 H 0.57001 0.77647 0.28373 0.0
C493 C 0.48983 0.86233 0.27947 0.0
C494 C 0.48259 0.86709 0.32244 0.0
C495 C 0.51385 0.82583 0.33796 0.0
C496 C 0.4982 0.82704 0.37753 0.0
C497 C 0.53367 0.78835 0.39344 0.0
C498 C 0.57991 0.74711 0.37019 0.0
C499 C 0.59174 0.74329 0.33074 0.0
C500 C 0.55912 0.78193 0.31462 0.0
H501 H 0.38701 0.77162 0.40698 0.0
C502 C 0.38747 0.80718 0.43529 0.0
H503 H 0.41824 0.89432 0.46496 0.0
H504 H 0.42399 0.95915 0.30524 0.0
H505 H 0.34233 0.02945 0.3463 0.0
H506 H 0.305 0.02385 0.41152 0.0
H507 H 0.35011 0.94886 0.43642 0.0
C508 C 0.41825 0.85775 0.43721 0.0
C509 C 0.44684 0.86571 0.40014 0.0
C510 C 0.41805 0.90856 0.38539 0.0
C511 C 0.43733 0.91017 0.347 0.0
C512 C 0.40957 0.95481 0.33365 0.0
C513 C 0.36284 0.99557 0.35696 0.0
C514 C 0.34192 0.99249 0.3937 0.0
C515 C 0.36853 0.94929 0.40773 0.0
H516 H 0.6769 0.75488 0.89621 0.0
C517 C 0.66798 0.78446 0.92637 0.0
H518 H 0.62221 0.86366 0.96148 0.0
H519 H 0.61382 0.98298 0.82767 0.0
H520 H 0.67681 0.05344 0.88143 0.0
H521 H 0.70972 0.03074 0.94208 0.0
H522 H 0.67813 0.93845 0.95001 0.0
C523 C 0.63071 0.83342 0.93162 0.0
C524 C 0.60493 0.84945 0.89664 0.0
C525 C 0.62477 0.90348 0.89229 0.0
C526 C 0.60792 0.91573 0.85662 0.0
C527 C 0.62684 0.97071 0.8536 0.0
C528 C 0.66283 0.01167 0.88429 0.0
C529 C 0.68124 0.99894 0.91847 0.0
C530 C 0.66267 0.94561 0.9226 0.0
H531 H 0.4572 0.8777 0.78252 0.0
C532 C 0.50381 0.88652 0.76846 0.0
H533 H 0.61255 0.89148 0.77141 0.0
H534 H 0.53992 0.75093 0.90032 0.0
H535 H 0.47988 0.6787 0.84605 0.0
H536 H 0.4667 0.69239 0.78034 0.0
H537 H 0.5107 0.77918 0.76903 0.0
C538 C 0.56552 0.88367 0.78547 0.0
C539 C 0.57335 0.87324 0.82468 0.0
C540 C 0.55129 0.82003 0.82968 0.0
C541 C 0.56409 0.80964 0.86645 0.0
C542 C 0.53577 0.75896 0.87208 0.0
C543 C 0.50059 0.71747 0.84133 0.0
C544 C 0.49282 0.72535 0.80443 0.0
C545 C 0.51786 0.77583 0.79847 0.0
H546 H 0.59976 0.26241 0.6124 0.0
C547 C 0.61339 0.22228 0.58872 0.0
H548 H 0.60956 0.13002 0.56954 0.0
H549 H 0.55834 0.11707 0.74333 0.0
H550 H 0.67501 0.07909 0.73027 0.0
H551 H 0.73811 0.08209 0.67055 0.0
H552 H 0.68464 0.12232 0.62318 0.0
C553 C 0.59359 0.17074 0.59187 0.0
C554 C 0.55466 0.16829 0.62773 0.0
C555 C 0.58651 0.14463 0.65518 0.0
C556 C 0.55055 0.14397 0.6901 0.0
C557 C 0.58358 0.1195 0.7167 0.0
C558 C 0.6505 0.09745 0.70952 0.0
C559 C 0.68598 0.09903 0.67586 0.0
C560 C 0.65462 0.12218 0.64887 0.0
H561 H 0.36635 0.11288 0.70325 0.0
C562 C 0.38661 0.13719 0.73272 0.0
H563 H 0.46752 0.19257 0.76352 0.0
H564 H 0.47619 0.21207 0.57998 0.0
H565 H 0.36129 0.25345 0.59383 0.0
H566 H 0.30223 0.25927 0.65663 0.0
H567 H 0.35708 0.22291 0.70529 0.0
C568 C 0.44576 0.16717 0.7348 0.0
C569 C 0.48283 0.16737 0.6978 0.0
C570 C 0.45125 0.19176 0.67053 0.0
C571 C 0.48659 0.191 0.63515 0.0
C572 C 0.45244 0.21299 0.60766 0.0
C573 C 0.38641 0.23674 0.61524 0.0
C574 C 0.35311 0.23983 0.65051 0.0
C575 C 0.38505 0.21812 0.67805 0.0
H576 H 0.93653 0.65934 0.06869 0.0
C577 C 0.90197 0.69581 0.08244 0.0
H578 H 0.87506 0.76341 0.13511 0.0
H579 H 0.08571 0.58925 0.19759 0.0
H580 H 1.00628 0.50981 0.16646 0.0
H581 H 0.90577 0.52501 0.12807 0.0
H582 H 0.88521 0.61899 0.11951 0.0
C583 C 0.90933 0.72667 0.12145 0.0
C584 C 0.96787 0.7166 0.14614 0.0
C585 C 0.97734 0.66172 0.1522 0.0
C586 C 0.03357 0.6536 0.17595 0.0
C587 C 0.04326 0.59799 0.18042 0.0
C588 C 0.99795 0.55206 0.16283 0.0
C589 C 0.94147 0.5606 0.14112 0.0
C590 C 0.93079 0.61472 0.13598 0.0
H591 H 0.07969 0.74 0.27489 0.0
C592 C 0.12704 0.71677 0.2628 0.0
H593 H 0.17745 0.66653 0.2095 0.0
H594 H 0.96794 0.82633 0.13908 0.0
H595 H 0.04698 0.90535 0.17096 0.0
H596 H 0.14123 0.89199 0.21417 0.0
H597 H 0.15714 0.79925 0.22558 0.0
C598 C 0.13336 0.69359 0.22278 0.0
C599 C 0.07782 0.70105 0.1955 0.0
C600 C 0.06868 0.75565 0.18934 0.0
C601 C 0.01402 0.76336 0.16453 0.0
C602 C 1.00752 0.8181 0.15819 0.0
C603 C 0.05285 0.86388 0.17615 0.0
C604 C 0.10591 0.85636 0.20047 0.0
C605 C 0.11418 0.80295 0.20695 0.0
H606 H 0.84241 0.2315 0.38443 0.0
C607 C 0.8554 0.25941 0.41446 0.0
H608 H 0.91809 0.32832 0.44914 0.0
H609 H 0.01664 0.22045 0.25459 0.0
H610 H 0.03535 0.12792 0.26594 0.0
H611 H 0.01511 0.11859 0.33238 0.0
H612 H 0.97403 0.20152 0.38756 0.0
C613 C 0.90535 0.29966 0.41946 0.0
C614 C 0.93871 0.30951 0.38426 0.0
C615 C 0.96772 0.26195 0.35325 0.0
C616 C 0.98315 0.26827 0.31564 0.0
C617 C 1.00625 0.2187 0.28416 0.0
C618 C 0.01713 0.16526 0.29025 0.0
C619 C 1.00549 0.15993 0.32761 0.0
C620 C 0.98127 0.20762 0.35888 0.0
H621 H 0.08537 0.3201 0.26403 0.0
C622 C 0.0377 0.32845 0.2505 0.0
H623 H 0.92897 0.33533 0.2564 0.0
H624 H 0.89812 0.41319 0.4403 0.0
H625 H 0.89247 0.50796 0.43123 0.0
H626 H 0.92551 0.51996 0.36715 0.0
H627 H 0.96341 0.43654 0.31136 0.0
C628 C 0.97761 0.32863 0.26952 0.0
C629 C 0.97382 0.32324 0.31009 0.0
C630 C 0.95348 0.37253 0.34272 0.0
C631 C 0.93562 0.36572 0.37989 0.0
C632 C 0.91298 0.4155 0.41147 0.0
C633 C 0.90953 0.4704 0.40671 0.0
C634 C 0.92802 0.47714 0.37061 0.0
C635 C 0.94947 0.42891 0.33882 0.0
H636 H 0.95189 0.26233 0.73522 0.0
C637 C 0.90178 0.27818 0.74807 0.0
H638 H 0.84663 0.31268 0.80237 0.0
H639 H 0.0866 0.15834 0.85671 0.0
H640 H 0.02376 0.07383 0.8151 0.0
H641 H 0.92677 0.08507 0.77289 0.0
H642 H 0.89208 0.18106 0.77215 0.0
C643 C 0.89404 0.2927 0.78793 0.0
C644 C 0.95202 0.28585 0.81389 0.0
C645 C 0.97187 0.22937 0.81394 0.0
C646 C 0.02795 0.22294 0.83826 0.0
C647 C 0.04538 0.16599 0.83835 0.0
C648 C 0.00943 0.11696 0.81474 0.0
C649 C 0.95487 0.12329 0.79097 0.0
C650 C 0.93578 0.1787 0.79064 0.0
H651 H 0.0811 0.31646 0.94233 0.0
C652 C 0.12269 0.28717 0.92755 0.0
H653 H 0.16501 0.2359 0.87264 0.0
H654 H 0.92466 0.40032 0.82248 0.0
H655 H 0.99 0.48509 0.86219 0.0
H656 H 0.09274 0.47348 0.90022 0.0
H657 H 0.12873 0.37764 0.90055 0.0
C658 C 0.12346 0.26491 0.88745 0.0
C659 C 0.06456 0.27296 0.86238 0.0
C660 C 0.04511 0.32947 0.86195 0.0
C661 C 0.98772 0.33594 0.83845 0.0
C662 C 0.96831 0.39288 0.83935 0.0
C663 C 1.00547 0.44189 0.86191 0.0
C664 C 0.06308 0.43539 0.88351 0.0
C665 C 0.0829 0.38003 0.88367 0.0
H666 H 0.09862 0.71395 0.583 0.0
C667 C 0.14141 0.74278 0.59651 0.0
H668 H 0.19581 0.78521 0.64988 0.0
H669 H 0.94294 0.77869 0.76207 0.0
H670 H 0.96274 0.88299 0.77881 0.0
H671 H 0.04849 0.92051 0.74192 0.0
H672 H 0.11494 0.85395 0.68805 0.0
C673 C 0.15267 0.75719 0.63595 0.0
C674 C 0.10686 0.73421 0.66112 0.0
C675 C 0.06949 0.77373 0.69307 0.0
C676 C 0.02051 0.75208 0.71463 0.0
C677 C 0.982 0.79261 0.74538 0.0
C678 C 0.9925 0.85266 0.75512 0.0
C679 C 0.04073 0.87378 0.73432 0.0
C680 C 0.07864 0.83504 0.70349 0.0
H681 H 0.01072 0.69431 0.78094 0.0
C682 C 0.96815 0.66878 0.76381 0.0
H683 H 0.91475 0.64286 0.70865 0.0
H684 H 0.18048 0.64547 0.60746 0.0
H685 H 0.15872 0.54152 0.58967 0.0
H686 H 0.06846 0.50438 0.62405 0.0
H687 H 1.00017 0.57103 0.67667 0.0
C688 C 0.95785 0.66721 0.72589 0.0
C689 C 0.00952 0.69092 0.70434 0.0
C690 C 0.04777 0.65133 0.67287 0.0
C691 C 0.0979 0.67284 0.65201 0.0
C692 C 0.13878 0.63196 0.62267 0.0
C693 C 0.12759 0.57197 0.61254 0.0
C694 C 0.07692 0.55106 0.63195 0.0
C695 C 0.03784 0.58996 0.66204 0.0
loop_
_geom_bond_atom_site_label_1
_geom_bond_atom_site_label_2
_geom_bond_distance
_geom_bond_site_symmetry_2
_ccdc_geom_bond_type
Eu0 N29 2.600 . S
Eu0 N35 2.562 . S
Eu0 O44 2.462 . S
Eu0 O45 2.373 1_556 S
Eu0 O47 2.432 . S
Eu0 O48 2.291 . S
Eu0 O52 2.335 . S
Eu0 O55 2.372 . S
Eu0 C64 2.787 . S
C1 N2 1.365 . S
C1 C4 1.405 . S
C1 C8 1.448 . S
N2 C1 1.365 . S
N2 C5 1.319 . S
N2 Eu11 2.600 . S
C3 C5 1.397 . S
C3 C6 1.367 . S
C3 H23 0.931 . S
C4 C1 1.405 . S
C4 C6 1.403 . S
C4 C10 1.439 1_455 S
C5 N2 1.319 . S
C5 C3 1.397 . S
C5 H16 0.930 . S
C6 C3 1.367 . S
C6 C4 1.403 . S
C6 H27 0.929 . S
C7 C8 1.430 1_655 S
C7 C9 1.387 . S
C7 C13 1.404 1_554 S
C8 C1 1.448 . S
C8 C7 1.430 1_455 S
C8 N12 1.351 . S
C9 C7 1.387 . S
C9 C10 1.374 . S
C9 H24 0.931 1_554 S
C10 C4 1.439 1_655 S
C10 C9 1.374 . S
C10 H25 0.931 . S
Eu11 N2 2.600 . S
Eu11 N12 2.562 . S
Eu11 O46 2.335 . S
Eu11 O49 2.372 . S
Eu11 O50 2.462 . S
Eu11 O51 2.373 1_554 S
Eu11 O53 2.432 . S
Eu11 O54 2.291 . S
Eu11 C75 2.787 . S
N12 C8 1.351 . S
N12 Eu11 2.562 . S
N12 C14 1.325 . S
C13 C7 1.404 1_556 S
C13 C15 1.367 1_556 S
C13 H21 0.930 . S
C14 N12 1.325 . S
C14 C15 1.415 1_455 S
C14 H20 0.929 . S
C15 C13 1.367 1_554 S
C15 C14 1.415 1_655 S
C15 H17 0.930 1_554 S
H16 C5 0.930 . S
H17 C15 0.930 1_556 S
H18 C33 0.930 . S
H19 C40 0.930 . S
H20 C14 0.929 . S
H21 C13 0.930 . S
H22 C36 0.929 . S
H23 C3 0.931 . S
H24 C9 0.931 1_556 S
H25 C10 0.931 . S
H26 C31 0.931 . S
H27 C6 0.929 . S
H28 C39 0.930 . S
N29 Eu0 2.600 . S
N29 C30 1.365 . S
N29 C33 1.319 . S
C30 N29 1.365 . S
C30 C32 1.405 . S
C30 C38 1.448 . S
C31 H26 0.931 . S
C31 C33 1.397 1_565 S
C31 C34 1.367 . S
C32 C30 1.405 . S
C32 C34 1.403 1_545 S
C32 C65 1.439 . S
C33 H18 0.930 . S
C33 N29 1.319 . S
C33 C31 1.397 1_545 S
C34 C31 1.367 . S
C34 C32 1.403 1_565 S
C34 H41 0.929 . S
N35 Eu0 2.562 . S
N35 C36 1.325 . S
N35 C38 1.351 . S
C36 H22 0.929 . S
C36 N35 1.325 . S
C36 C40 1.416 1_556 S
C37 C38 1.430 . S
C37 C39 1.404 1_556 S
C37 C66 1.379 1_556 S
C38 C30 1.448 . S
C38 N35 1.351 . S
C38 C37 1.430 . S
C39 H28 0.930 . S
C39 C37 1.404 1_554 S
C39 C40 1.366 . S
C40 H19 0.930 . S
C40 C36 1.416 1_554 S
C40 C39 1.366 . S
H41 C34 0.929 . S
H42 C65 0.931 . S
H43 C66 0.937 . S
O44 Eu0 2.462 . S
O44 C64 1.252 . S
O45 Eu0 2.373 1_554 S
O45 C56 1.249 . S
O46 Eu11 2.335 . S
O46 C56 1.264 . S
O47 Eu0 2.432 . S
O47 C64 1.268 . S
O48 Eu0 2.291 . S
O48 C63 1.255 1_556 S
O49 Eu11 2.372 . S
O49 C63 1.257 . S
O50 Eu11 2.462 . S
O50 C75 1.252 . S
O51 Eu11 2.373 1_556 S
O51 C67 1.249 . S
O52 Eu0 2.335 . S
O52 C67 1.264 . S
O53 Eu11 2.432 . S
O53 C75 1.268 . S
O54 Eu11 2.291 . S
O54 C74 1.255 1_554 S
O55 Eu0 2.372 . S
O55 C74 1.257 . S
C56 O45 1.249 . S
C56 O46 1.264 . S
C57 C60 1.382 . S
C57 C62 1.390 . S
C57 C64 1.506 . S
C58 C59 1.398 . S
C58 C62 1.392 . S
C59 C58 1.398 . S
C59 C61 1.372 . S
C59 H76 0.931 . S
C60 C57 1.382 . S
C60 C61 1.390 . S
C60 H77 0.931 . S
C61 C59 1.372 . S
C61 C60 1.390 . S
C61 H78 0.929 . S
C62 C57 1.390 . S
C62 C58 1.392 . S
C62 H79 0.930 . S
C63 O48 1.255 1_554 S
C63 O49 1.257 . S
C64 Eu0 2.787 . S
C64 O44 1.252 . S
C64 O47 1.268 . S
C64 C57 1.506 . S
C65 C32 1.439 . S
C65 H42 0.931 . S
C65 C66 1.376 1_556 S
C66 C37 1.379 1_554 S
C66 H43 0.937 . S
C66 C65 1.376 1_554 S
C67 O51 1.249 . S
C67 O52 1.264 . S
C68 C71 1.382 . S
C68 C72 1.390 . S
C68 C75 1.506 . S
C69 C70 1.398 . S
C69 C72 1.392 . S
C70 C69 1.398 . S
C70 C73 1.372 . S
C70 H80 0.931 . S
C71 C68 1.382 . S
C71 C73 1.390 . S
C71 H81 0.931 . S
C72 C68 1.390 . S
C72 C69 1.392 . S
C72 H82 0.930 . S
C73 C70 1.372 . S
C73 C71 1.390 . S
C73 H83 0.929 . S
C74 O54 1.255 1_556 S
C74 O55 1.257 . S
C75 Eu11 2.787 . S
C75 O50 1.252 . S
C75 O53 1.268 . S
C75 C68 1.506 . S
H76 C59 0.931 . S
H77 C60 0.931 . S
H78 C61 0.929 . S
H79 C62 0.930 . S
H80 C70 0.931 . S
H81 C71 0.931 . S
H82 C72 0.930 . S
H83 C73 0.929 . S
Eu84 N113 2.600 . S
Eu84 N119 2.562 . S
Eu84 O128 2.462 . S
Eu84 O129 2.373 1_556 S
Eu84 O131 2.432 . S
Eu84 O132 2.291 . S
Eu84 O136 2.335 . S
Eu84 O139 2.372 . S
Eu84 C148 2.787 . S
C85 N86 1.365 . S
C85 C88 1.405 . S
C85 C92 1.448 . S
N86 C85 1.365 . S
N86 C89 1.319 . S
N86 Eu95 2.600 . S
C87 C89 1.397 1_545 S
C87 C90 1.367 . S
C87 H107 0.931 . S
C88 C85 1.405 . S
C88 C90 1.403 1_565 S
C88 C94 1.439 . S
C89 N86 1.319 . S
C89 C87 1.397 1_565 S
C89 H100 0.930 . S
C90 C87 1.367 . S
C90 C88 1.403 1_545 S
C90 H111 0.929 . S
C91 C92 1.430 . S
C91 C93 1.387 . S
C91 C97 1.404 1_554 S
C92 C85 1.448 . S
C92 C91 1.430 . S
C92 N96 1.351 . S
C93 C91 1.387 . S
C93 C94 1.374 . S
C93 H108 0.931 1_554 S
C94 C88 1.439 . S
C94 C93 1.374 . S
C94 H109 0.931 . S
Eu95 N86 2.600 . S
Eu95 N96 2.562 . S
Eu95 O130 2.335 . S
Eu95 O133 2.372 . S
Eu95 O134 2.462 . S
Eu95 O135 2.373 1_554 S
Eu95 O137 2.432 . S
Eu95 O138 2.291 . S
Eu95 C159 2.787 . S
N96 C92 1.351 . S
N96 Eu95 2.562 . S
N96 C98 1.325 . S
C97 C91 1.404 1_556 S
C97 C99 1.367 1_556 S
C97 H105 0.930 . S
C98 N96 1.325 . S
C98 C99 1.415 . S
C98 H104 0.929 . S
C99 C97 1.367 1_554 S
C99 C98 1.415 . S
C99 H101 0.930 1_554 S
H100 C89 0.930 . S
H101 C99 0.930 1_556 S
H102 C117 0.930 . S
H103 C124 0.930 . S
H104 C98 0.929 . S
H105 C97 0.930 . S
H106 C120 0.929 . S
H107 C87 0.931 . S
H108 C93 0.931 1_556 S
H109 C94 0.931 . S
H110 C115 0.931 . S
H111 C90 0.929 . S
H112 C123 0.930 . S
N113 Eu84 2.600 . S
N113 C114 1.365 . S
N113 C117 1.319 . S
C114 N113 1.365 . S
C114 C116 1.405 . S
C114 C122 1.448 . S
C115 H110 0.931 . S
C115 C117 1.397 . S
C115 C118 1.367 . S
C116 C114 1.405 . S
C116 C118 1.403 . S
C116 C149 1.439 1_655 S
C117 H102 0.930 . S
C117 N113 1.319 . S
C117 C115 1.397 . S
C118 C115 1.367 . S
C118 C116 1.403 . S
C118 H125 0.929 . S
N119 Eu84 2.562 . S
N119 C120 1.325 . S
N119 C122 1.351 . S
C120 H106 0.929 . S
C120 N119 1.325 . S
C120 C124 1.416 1_656 S
C121 C122 1.430 1_455 S
C121 C123 1.404 1_556 S
C121 C150 1.379 1_556 S
C122 C114 1.448 . S
C122 N119 1.351 . S
C122 C121 1.430 1_655 S
C123 H112 0.930 . S
C123 C121 1.404 1_554 S
C123 C124 1.366 . S
C124 H103 0.930 . S
C124 C120 1.416 1_454 S
C124 C123 1.366 . S
H125 C118 0.929 . S
H126 C149 0.931 . S
H127 C150 0.937 . S
O128 Eu84 2.462 . S
O128 C148 1.252 . S
O129 Eu84 2.373 1_554 S
O129 C140 1.249 . S
O130 Eu95 2.335 . S
O130 C140 1.264 . S
O131 Eu84 2.432 . S
O131 C148 1.268 . S
O132 Eu84 2.291 . S
O132 C147 1.255 1_556 S
O133 Eu95 2.372 . S
O133 C147 1.257 . S
O134 Eu95 2.462 . S
O134 C159 1.252 . S
O135 Eu95 2.373 1_556 S
O135 C151 1.249 . S
O136 Eu84 2.335 . S
O136 C151 1.264 . S
O137 Eu95 2.432 . S
O137 C159 1.268 . S
O138 Eu95 2.291 . S
O138 C158 1.255 1_554 S
O139 Eu84 2.372 . S
O139 C158 1.257 . S
C140 O129 1.249 . S
C140 O130 1.264 . S
C141 C144 1.382 . S
C141 C146 1.390 . S
C141 C148 1.506 . S
C142 C143 1.398 . S
C142 C146 1.392 . S
C143 C142 1.398 . S
C143 C145 1.372 . S
C143 H160 0.931 . S
C144 C141 1.382 . S
C144 C145 1.390 . S
C144 H161 0.931 . S
C145 C143 1.372 . S
C145 C144 1.390 . S
C145 H162 0.929 . S
C146 C141 1.390 . S
C146 C142 1.392 . S
C146 H163 0.930 . S
C147 O132 1.255 1_554 S
C147 O133 1.257 . S
C148 Eu84 2.787 . S
C148 O128 1.252 . S
C148 O131 1.268 . S
C148 C141 1.506 . S
C149 C116 1.439 1_455 S
C149 H126 0.931 . S
C149 C150 1.376 1_556 S
C150 C121 1.379 1_554 S
C150 H127 0.937 . S
C150 C149 1.376 1_554 S
C151 O135 1.249 . S
C151 O136 1.264 . S
C152 C155 1.382 . S
C152 C156 1.390 . S
C152 C159 1.506 . S
C153 C154 1.398 . S
C153 C156 1.392 . S
C154 C153 1.398 . S
C154 C157 1.372 . S
C154 H164 0.931 . S
C155 C152 1.382 . S
C155 C157 1.390 . S
C155 H165 0.931 . S
C156 C152 1.390 . S
C156 C153 1.392 . S
C156 H166 0.930 . S
C157 C154 1.372 . S
C157 C155 1.390 . S
C157 H167 0.929 . S
C158 O138 1.255 1_556 S
C158 O139 1.257 . S
C159 Eu95 2.787 . S
C159 O134 1.252 . S
C159 O137 1.268 . S
C159 C152 1.506 . S
H160 C143 0.931 . S
H161 C144 0.931 . S
H162 C145 0.929 . S
H163 C146 0.930 . S
H164 C154 0.931 . S
H165 C155 0.931 . S
H166 C156 0.930 . S
H167 C157 0.929 . S
Eu168 N197 2.600 . S
Eu168 N203 2.562 . S
Eu168 O212 2.462 . S
Eu168 O213 2.373 . S
Eu168 O215 2.432 . S
Eu168 O216 2.291 . S
Eu168 O220 2.335 . S
Eu168 O223 2.372 . S
Eu168 C232 2.787 . S
C169 N170 1.365 . S
C169 C172 1.405 . S
C169 C176 1.448 . S
N170 C169 1.365 . S
N170 C173 1.319 . S
N170 Eu179 2.600 . S
C171 C173 1.397 . S
C171 C174 1.367 . S
C171 H191 0.931 . S
C172 C169 1.405 . S
C172 C174 1.403 . S
C172 C178 1.439 1_455 S
C173 N170 1.319 . S
C173 C171 1.397 . S
C173 H184 0.930 . S
C174 C171 1.367 . S
C174 C172 1.403 . S
C174 H195 0.929 . S
C175 C176 1.430 1_655 S
C175 C177 1.387 . S
C175 C181 1.404 . S
C176 C169 1.448 . S
C176 C175 1.430 1_455 S
C176 N180 1.351 . S
C177 C175 1.387 . S
C177 C178 1.374 . S
C177 H192 0.931 . S
C178 C172 1.439 1_655 S
C178 C177 1.374 . S
C178 H193 0.931 . S
Eu179 N170 2.600 . S
Eu179 N180 2.562 . S
Eu179 O214 2.335 . S
Eu179 O217 2.372 . S
Eu179 O218 2.462 . S
Eu179 O219 2.373 . S
Eu179 O221 2.432 . S
Eu179 O222 2.291 . S
Eu179 C243 2.787 . S
N180 C176 1.351 . S
N180 Eu179 2.562 . S
N180 C182 1.325 . S
C181 C175 1.404 . S
C181 C183 1.366 . S
C181 H189 0.930 . S
C182 N180 1.325 . S
C182 C183 1.416 1_455 S
C182 H188 0.929 . S
C183 C181 1.366 . S
C183 C182 1.416 1_655 S
C183 H185 0.930 . S
H184 C173 0.930 . S
H185 C183 0.930 . S
H186 C201 0.930 . S
H187 C208 0.930 . S
H188 C182 0.929 . S
H189 C181 0.930 . S
H190 C204 0.929 . S
H191 C171 0.931 . S
H192 C177 0.931 . S
H193 C178 0.931 . S
H194 C199 0.931 . S
H195 C174 0.929 . S
H196 C207 0.930 . S
N197 Eu168 2.600 . S
N197 C198 1.365 . S
N197 C201 1.319 . S
C198 N197 1.365 . S
C198 C200 1.405 . S
C198 C206 1.448 . S
C199 H194 0.931 . S
C199 C201 1.397 1_545 S
C199 C202 1.367 . S
C200 C198 1.405 . S
C200 C202 1.403 1_565 S
C200 C233 1.439 . S
C201 H186 0.930 . S
C201 N197 1.319 . S
C201 C199 1.397 1_565 S
C202 C199 1.367 . S
C202 C200 1.403 1_545 S
C202 H209 0.929 . S
N203 Eu168 2.562 . S
N203 C204 1.325 . S
N203 C206 1.351 . S
C204 H190 0.929 . S
C204 N203 1.325 . S
C204 C208 1.416 . S
C205 C206 1.430 . S
C205 C207 1.404 . S
C205 C234 1.387 . S
C206 C198 1.448 . S
C206 N203 1.351 . S
C206 C205 1.430 . S
C207 H196 0.930 . S
C207 C205 1.404 . S
C207 C208 1.366 . S
C208 H187 0.930 . S
C208 C204 1.416 . S
C208 C207 1.366 . S
H209 C202 0.929 . S
H210 C233 0.931 . S
H211 C234 0.931 . S
O212 Eu168 2.462 . S
O212 C232 1.252 . S
O213 Eu168 2.373 . S
O213 C224 1.249 . S
O214 Eu179 2.335 . S
O214 C224 1.264 . S
O215 Eu168 2.432 . S
O215 C232 1.268 . S
O216 Eu168 2.291 . S
O216 C231 1.255 . S
O217 Eu179 2.372 . S
O217 C231 1.257 . S
O218 Eu179 2.462 . S
O218 C243 1.252 . S
O219 Eu179 2.373 . S
O219 C235 1.249 . S
O220 Eu168 2.335 . S
O220 C235 1.264 . S
O221 Eu179 2.432 . S
O221 C243 1.268 . S
O222 Eu179 2.291 . S
O222 C242 1.255 . S
O223 Eu168 2.372 . S
O223 C242 1.257 . S
C224 O213 1.249 . S
C224 O214 1.264 . S
C225 C228 1.382 . S
C225 C230 1.390 . S
C225 C232 1.506 . S
C226 C227 1.398 . S
C226 C230 1.392 . S
C227 C226 1.398 . S
C227 C229 1.372 . S
C227 H244 0.931 . S
C228 C225 1.382 . S
C228 C229 1.390 . S
C228 H245 0.931 . S
C229 C227 1.372 . S
C229 C228 1.390 . S
C229 H246 0.929 . S
C230 C225 1.390 . S
C230 C226 1.392 . S
C230 H247 0.930 . S
C231 O216 1.255 . S
C231 O217 1.257 . S
C232 Eu168 2.787 . S
C232 O212 1.252 . S
C232 O215 1.268 . S
C232 C225 1.506 . S
C233 C200 1.439 . S
C233 H210 0.931 . S
C233 C234 1.374 . S
C234 C205 1.387 . S
C234 H211 0.931 . S
C234 C233 1.374 . S
C235 O219 1.249 . S
C235 O220 1.264 . S
C236 C239 1.382 . S
C236 C240 1.390 . S
C236 C243 1.506 . S
C237 C238 1.398 . S
C237 C240 1.392 . S
C238 C237 1.398 . S
C238 C241 1.372 . S
C238 H248 0.931 . S
C239 C236 1.382 . S
C239 C241 1.390 . S
C239 H249 0.931 . S
C240 C236 1.390 . S
C240 C237 1.392 . S
C240 H250 0.930 . S
C241 C238 1.372 . S
C241 C239 1.390 . S
C241 H251 0.929 . S
C242 O222 1.255 . S
C242 O223 1.257 . S
C243 Eu179 2.787 . S
C243 O218 1.252 . S
C243 O221 1.268 . S
C243 C236 1.506 . S
H244 C227 0.931 . S
H245 C228 0.931 . S
H246 C229 0.929 . S
H247 C230 0.930 . S
H248 C238 0.931 . S
H249 C239 0.931 . S
H250 C240 0.930 . S
H251 C241 0.929 . S
Eu252 N281 2.600 . S
Eu252 N287 2.562 . S
Eu252 O296 2.462 . S
Eu252 O297 2.373 . S
Eu252 O299 2.432 . S
Eu252 O300 2.291 . S
Eu252 O304 2.335 . S
Eu252 O307 2.372 . S
Eu252 C316 2.787 . S
C253 N254 1.365 . S
C253 C256 1.405 . S
C253 C260 1.448 . S
N254 C253 1.365 . S
N254 C257 1.319 . S
N254 Eu263 2.600 . S
C255 C257 1.397 1_565 S
C255 C258 1.367 . S
C255 H275 0.931 . S
C256 C253 1.405 . S
C256 C258 1.403 1_545 S
C256 C262 1.439 . S
C257 N254 1.319 . S
C257 C255 1.397 1_545 S
C257 H268 0.930 . S
C258 C255 1.367 . S
C258 C256 1.403 1_565 S
C258 H279 0.929 . S
C259 C260 1.430 . S
C259 C261 1.387 . S
C259 C265 1.404 . S
C260 C253 1.448 . S
C260 C259 1.430 . S
C260 N264 1.351 . S
C261 C259 1.387 . S
C261 C262 1.374 . S
C261 H276 0.931 . S
C262 C256 1.439 . S
C262 C261 1.374 . S
C262 H277 0.931 . S
Eu263 N254 2.600 . S
Eu263 N264 2.562 . S
Eu263 O298 2.335 . S
Eu263 O301 2.372 . S
Eu263 O302 2.462 . S
Eu263 O303 2.373 . S
Eu263 O305 2.432 . S
Eu263 O306 2.291 . S
Eu263 C327 2.787 . S
N264 C260 1.351 . S
N264 Eu263 2.562 . S
N264 C266 1.325 . S
C265 C259 1.404 . S
C265 C267 1.366 . S
C265 H273 0.930 . S
C266 N264 1.325 . S
C266 C267 1.416 . S
C266 H272 0.929 . S
C267 C265 1.366 . S
C267 C266 1.416 . S
C267 H269 0.930 . S
H268 C257 0.930 . S
H269 C267 0.930 . S
H270 C285 0.930 . S
H271 C292 0.930 . S
H272 C266 0.929 . S
H273 C265 0.930 . S
H274 C288 0.929 . S
H275 C255 0.931 . S
H276 C261 0.931 . S
H277 C262 0.931 . S
H278 C283 0.931 . S
H279 C258 0.929 . S
H280 C291 0.930 . S
N281 Eu252 2.600 . S
N281 C282 1.365 . S
N281 C285 1.319 . S
C282 N281 1.365 . S
C282 C284 1.405 . S
C282 C290 1.448 . S
C283 H278 0.931 . S
C283 C285 1.397 . S
C283 C286 1.367 . S
C284 C282 1.405 . S
C284 C286 1.403 . S
C284 C317 1.439 1_655 S
C285 H270 0.930 . S
C285 N281 1.319 . S
C285 C283 1.397 . S
C286 C283 1.367 . S
C286 C284 1.403 . S
C286 H293 0.929 . S
N287 Eu252 2.562 . S
N287 C288 1.325 . S
N287 C290 1.351 . S
C288 H274 0.929 . S
C288 N287 1.325 . S
C288 C292 1.416 1_655 S
C289 C290 1.430 1_455 S
C289 C291 1.404 . S
C289 C318 1.387 . S
C290 C282 1.448 . S
C290 N287 1.351 . S
C290 C289 1.430 1_655 S
C291 H280 0.930 . S
C291 C289 1.404 . S
C291 C292 1.366 . S
C292 H271 0.930 . S
C292 C288 1.416 1_455 S
C292 C291 1.366 . S
H293 C286 0.929 . S
H294 C317 0.931 . S
H295 C318 0.931 . S
O296 Eu252 2.462 . S
O296 C316 1.252 . S
O297 Eu252 2.373 . S
O297 C308 1.249 . S
O298 Eu263 2.335 . S
O298 C308 1.264 . S
O299 Eu252 2.432 . S
O299 C316 1.268 . S
O300 Eu252 2.291 . S
O300 C315 1.255 . S
O301 Eu263 2.372 . S
O301 C315 1.257 . S
O302 Eu263 2.462 . S
O302 C327 1.252 . S
O303 Eu263 2.373 . S
O303 C319 1.249 . S
O304 Eu252 2.335 . S
O304 C319 1.264 . S
O305 Eu263 2.432 . S
O305 C327 1.268 . S
O306 Eu263 2.291 . S
O306 C326 1.255 . S
O307 Eu252 2.372 . S
O307 C326 1.257 . S
C308 O297 1.249 . S
C308 O298 1.264 . S
C309 C312 1.382 . S
C309 C314 1.390 . S
C309 C316 1.506 . S
C310 C311 1.398 . S
C310 C314 1.392 . S
C311 C310 1.398 . S
C311 C313 1.372 . S
C311 H328 0.931 . S
C312 C309 1.382 . S
C312 C313 1.390 . S
C312 H329 0.931 . S
C313 C311 1.372 . S
C313 C312 1.390 . S
C313 H330 0.929 . S
C314 C309 1.390 . S
C314 C310 1.392 . S
C314 H331 0.930 . S
C315 O300 1.255 . S
C315 O301 1.257 . S
C316 Eu252 2.787 . S
C316 O296 1.252 . S
C316 O299 1.268 . S
C316 C309 1.506 . S
C317 C284 1.439 1_455 S
C317 H294 0.931 . S
C317 C318 1.374 . S
C318 C289 1.387 . S
C318 H295 0.931 . S
C318 C317 1.374 . S
C319 O303 1.249 . S
C319 O304 1.264 . S
C320 C323 1.382 . S
C320 C324 1.390 . S
C320 C327 1.506 . S
C321 C322 1.398 . S
C321 C324 1.392 . S
C322 C321 1.398 . S
C322 C325 1.372 . S
C322 H332 0.931 . S
C323 C320 1.382 . S
C323 C325 1.390 . S
C323 H333 0.931 . S
C324 C320 1.390 . S
C324 C321 1.392 . S
C324 H334 0.930 . S
C325 C322 1.372 . S
C325 C323 1.390 . S
C325 H335 0.929 . S
C326 O306 1.255 . S
C326 O307 1.257 . S
C327 Eu263 2.787 . S
C327 O302 1.252 . S
C327 O305 1.268 . S
C327 C320 1.506 . S
H328 C311 0.931 . S
H329 C312 0.931 . S
H330 C313 0.929 . S
H331 C314 0.930 . S
H332 C322 0.931 . S
H333 C323 0.931 . S
H334 C324 0.930 . S
H335 C325 0.929 . S
H336 C337 0.951 . S
C337 H336 0.951 . S
C337 C343 1.265 1_556 S
H338 C343 0.950 . S
H339 C347 0.949 . S
H340 C348 0.950 . S
H341 C349 0.951 . S
H342 C350 0.951 . S
C343 C337 1.265 1_554 S
C343 H338 0.950 . S
C343 C344 1.478 . S
C344 C343 1.478 . S
C344 C345 1.397 . S
C344 C361 1.394 1_554 S
C345 C344 1.397 . S
C345 C346 1.438 . S
C345 C350 1.429 . S
C346 C345 1.438 . S
C346 C347 1.428 . S
C346 C359 1.394 1_554 S
C347 H339 0.949 . S
C347 C346 1.428 . S
C347 C348 1.345 . S
C348 H340 0.950 . S
C348 C347 1.345 . S
C348 C349 1.424 . S
C349 H341 0.951 . S
C349 C348 1.424 . S
C349 C350 1.347 . S
C350 H342 0.951 . S
C350 C345 1.429 . S
C350 C349 1.347 . S
H351 C352 0.951 . S
C352 H351 0.951 . S
C352 C358 1.265 1_554 S
H353 C358 0.950 . S
H354 C362 0.949 . S
H355 C363 0.950 . S
H356 C364 0.951 . S
H357 C365 0.951 . S
C358 C352 1.265 1_556 S
C358 H353 0.950 . S
C358 C359 1.478 . S
C359 C346 1.394 1_556 S
C359 C358 1.478 . S
C359 C360 1.397 . S
C360 C359 1.397 . S
C360 C361 1.438 . S
C360 C365 1.429 . S
C361 C344 1.394 1_556 S
C361 C360 1.438 . S
C361 C362 1.428 . S
C362 H354 0.949 . S
C362 C361 1.428 . S
C362 C363 1.345 . S
C363 H355 0.950 . S
C363 C362 1.345 . S
C363 C364 1.424 . S
C364 H356 0.951 . S
C364 C363 1.424 . S
C364 C365 1.347 . S
C365 H357 0.951 . S
C365 C360 1.429 . S
C365 C364 1.347 . S
H366 C367 0.951 . S
C367 H366 0.951 . S
C367 C373 1.265 . S
H368 C373 0.950 . S
H369 C377 0.949 . S
H370 C378 0.950 . S
H371 C379 0.951 . S
H372 C380 0.951 . S
C373 C367 1.265 . S
C373 H368 0.950 . S
C373 C374 1.478 . S
C374 C373 1.478 . S
C374 C375 1.397 . S
C374 C391 1.394 . S
C375 C374 1.397 . S
C375 C376 1.438 . S
C375 C380 1.429 . S
C376 C375 1.438 . S
C376 C377 1.428 . S
C376 C389 1.394 . S
C377 H369 0.949 . S
C377 C376 1.428 . S
C377 C378 1.345 . S
C378 H370 0.950 . S
C378 C377 1.345 . S
C378 C379 1.424 . S
C379 H371 0.951 . S
C379 C378 1.424 . S
C379 C380 1.347 . S
C380 H372 0.951 . S
C380 C375 1.429 . S
C380 C379 1.347 . S
H381 C382 0.951 . S
C382 H381 0.951 . S
C382 C388 1.265 . S
H383 C388 0.950 . S
H384 C392 0.949 . S
H385 C393 0.950 . S
H386 C394 0.951 . S
H387 C395 0.951 . S
C388 C382 1.265 . S
C388 H383 0.950 . S
C388 C389 1.478 . S
C389 C376 1.394 . S
C389 C388 1.478 . S
C389 C390 1.397 . S
C390 C389 1.397 . S
C390 C391 1.438 . S
C390 C395 1.429 . S
C391 C374 1.394 . S
C391 C390 1.438 . S
C391 C392 1.428 . S
C392 H384 0.949 . S
C392 C391 1.428 . S
C392 C393 1.345 . S
C393 H385 0.950 . S
C393 C392 1.345 . S
C393 C394 1.424 . S
C394 H386 0.951 . S
C394 C393 1.424 . S
C394 C395 1.347 . S
C395 H387 0.951 . S
C395 C390 1.429 . S
C395 C394 1.347 . S
H396 C397 0.951 . S
C397 H396 0.951 . S
C397 C403 1.265 1_556 S
H398 C403 0.950 . S
H399 C407 0.949 . S
H400 C408 0.950 . S
H401 C409 0.951 . S
H402 C410 0.951 . S
C403 C397 1.265 1_554 S
C403 H398 0.950 . S
C403 C404 1.478 . S
C404 C403 1.478 . S
C404 C405 1.397 . S
C404 C421 1.394 1_554 S
C405 C404 1.397 . S
C405 C406 1.438 1_445 S
C405 C410 1.429 . S
C406 C405 1.438 1_665 S
C406 C407 1.428 . S
C406 C419 1.394 1_554 S
C407 H399 0.949 . S
C407 C406 1.428 . S
C407 C408 1.345 1_565 S
C408 H400 0.950 . S
C408 C407 1.345 1_545 S
C408 C409 1.424 1_655 S
C409 H401 0.951 . S
C409 C408 1.424 1_455 S
C409 C410 1.347 . S
C410 H402 0.951 . S
C410 C405 1.429 . S
C410 C409 1.347 . S
H411 C412 0.951 . S
C412 H411 0.951 . S
C412 C418 1.265 1_554 S
H413 C418 0.950 . S
H414 C422 0.949 . S
H415 C423 0.950 . S
H416 C424 0.951 . S
H417 C425 0.951 . S
C418 C412 1.265 1_556 S
C418 H413 0.950 . S
C418 C419 1.478 . S
C419 C406 1.394 1_556 S
C419 C418 1.478 . S
C419 C420 1.397 . S
C420 C419 1.397 . S
C420 C421 1.438 1_665 S
C420 C425 1.429 . S
C421 C404 1.394 1_556 S
C421 C420 1.438 1_445 S
C421 C422 1.428 . S
C422 H414 0.949 . S
C422 C421 1.428 . S
C422 C423 1.345 1_545 S
C423 H415 0.950 . S
C423 C422 1.345 1_565 S
C423 C424 1.424 1_455 S
C424 H416 0.951 . S
C424 C423 1.424 1_655 S
C424 C425 1.347 . S
C425 H417 0.951 . S
C425 C420 1.429 . S
C425 C424 1.347 . S
H426 C427 0.951 . S
C427 H426 0.951 . S
C427 C433 1.265 . S
H428 C433 0.950 . S
H429 C437 0.949 1_455 S
H430 C438 0.950 . S
H431 C439 0.951 . S
H432 C440 0.951 . S
C433 C427 1.265 . S
C433 H428 0.950 . S
C433 C434 1.478 . S
C434 C433 1.478 . S
C434 C435 1.397 1_545 S
C434 C451 1.394 1_655 S
C435 C434 1.397 1_565 S
C435 C436 1.438 . S
C435 C440 1.429 . S
C436 C435 1.438 . S
C436 C437 1.428 . S
C436 C449 1.394 1_655 S
C437 H429 0.949 1_655 S
C437 C436 1.428 . S
C437 C438 1.345 . S
C438 H430 0.950 . S
C438 C437 1.345 . S
C438 C439 1.424 . S
C439 H431 0.951 . S
C439 C438 1.424 . S
C439 C440 1.347 . S
C440 H432 0.951 . S
C440 C435 1.429 . S
C440 C439 1.347 . S
H441 C442 0.951 . S
C442 H441 0.951 . S
C442 C448 1.265 . S
H443 C448 0.950 . S
H444 C452 0.949 1_655 S
H445 C453 0.950 . S
H446 C454 0.951 . S
H447 C455 0.951 . S
C448 C442 1.265 . S
C448 H443 0.950 . S
C448 C449 1.478 . S
C449 C436 1.394 1_455 S
C449 C448 1.478 . S
C449 C450 1.397 1_565 S
C450 C449 1.397 1_545 S
C450 C451 1.438 . S
C450 C455 1.429 . S
C451 C434 1.394 1_455 S
C451 C450 1.438 . S
C451 C452 1.428 . S
C452 H444 0.949 1_455 S
C452 C451 1.428 . S
C452 C453 1.345 . S
C453 H445 0.950 . S
C453 C452 1.345 . S
C453 C454 1.424 . S
C454 H446 0.951 . S
C454 C453 1.424 . S
C454 C455 1.347 . S
C455 H447 0.951 . S
C455 C450 1.429 . S
C455 C454 1.347 . S
H456 C457 0.951 . S
C457 H456 0.951 . S
C457 C463 1.265 . S
H458 C463 0.950 . S
H459 C467 0.949 . S
H460 C468 0.950 . S
H461 C469 0.951 . S
H462 C470 0.951 . S
C463 C457 1.265 . S
C463 H458 0.950 . S
C463 C464 1.478 . S
C464 C463 1.478 . S
C464 C465 1.397 . S
C464 C481 1.394 . S
C465 C464 1.397 . S
C465 C466 1.438 . S
C465 C470 1.429 . S
C466 C465 1.438 . S
C466 C467 1.428 . S
C466 C479 1.394 . S
C467 H459 0.949 . S
C467 C466 1.428 . S
C467 C468 1.345 . S
C468 H460 0.950 . S
C468 C467 1.345 . S
C468 C469 1.424 . S
C469 H461 0.951 . S
C469 C468 1.424 . S
C469 C470 1.347 . S
C470 H462 0.951 . S
C470 C465 1.429 . S
C470 C469 1.347 . S
H471 C472 0.951 . S
C472 H471 0.951 . S
C472 C478 1.265 . S
H473 C478 0.950 . S
H474 C482 0.949 . S
H475 C483 0.950 . S
H476 C484 0.951 . S
H477 C485 0.951 . S
C478 C472 1.265 . S
C478 H473 0.950 . S
C478 C479 1.478 . S
C479 C466 1.394 . S
C479 C478 1.478 . S
C479 C480 1.397 . S
C480 C479 1.397 . S
C480 C481 1.438 . S
C480 C485 1.429 . S
C481 C464 1.394 . S
C481 C480 1.438 . S
C481 C482 1.428 . S
C482 H474 0.949 . S
C482 C481 1.428 . S
C482 C483 1.345 . S
C483 H475 0.950 . S
C483 C482 1.345 . S
C483 C484 1.424 . S
C484 H476 0.951 . S
C484 C483 1.424 . S
C484 C485 1.347 . S
C485 H477 0.951 . S
C485 C480 1.429 . S
C485 C484 1.347 . S
H486 C487 0.951 . S
C487 H486 0.951 . S
C487 C493 1.265 . S
H488 C493 0.950 . S
H489 C497 0.949 . S
H490 C498 0.950 . S
H491 C499 0.951 . S
H492 C500 0.951 . S
C493 C487 1.265 . S
C493 H488 0.950 . S
C493 C494 1.478 . S
C494 C493 1.478 . S
C494 C495 1.397 . S
C494 C511 1.394 . S
C495 C494 1.397 . S
C495 C496 1.438 . S
C495 C500 1.429 . S
C496 C495 1.438 . S
C496 C497 1.428 . S
C496 C509 1.394 . S
C497 H489 0.949 . S
C497 C496 1.428 . S
C497 C498 1.345 . S
C498 H490 0.950 . S
C498 C497 1.345 . S
C498 C499 1.424 . S
C499 H491 0.951 . S
C499 C498 1.424 . S
C499 C500 1.347 . S
C500 H492 0.951 . S
C500 C495 1.429 . S
C500 C499 1.347 . S
H501 C502 0.951 . S
C502 H501 0.951 . S
C502 C508 1.265 . S
H503 C508 0.950 . S
H504 C512 0.949 . S
H505 C513 0.950 . S
H506 C514 0.951 . S
H507 C515 0.951 . S
C508 C502 1.265 . S
C508 H503 0.950 . S
C508 C509 1.478 . S
C509 C496 1.394 . S
C509 C508 1.478 . S
C509 C510 1.397 . S
C510 C509 1.397 . S
C510 C511 1.438 . S
C510 C515 1.429 . S
C511 C494 1.394 . S
C511 C510 1.438 . S
C511 C512 1.428 . S
C512 H504 0.949 . S
C512 C511 1.428 . S
C512 C513 1.345 . S
C513 H505 0.950 . S
C513 C512 1.345 . S
C513 C514 1.424 . S
C514 H506 0.951 . S
C514 C513 1.424 . S
C514 C515 1.347 . S
C515 H507 0.951 . S
C515 C510 1.429 . S
C515 C514 1.347 . S
H516 C517 0.951 . S
C517 H516 0.951 . S
C517 C523 1.265 . S
H518 C523 0.950 . S
H519 C527 0.949 . S
H520 C528 0.950 . S
H521 C529 0.951 . S
H522 C530 0.951 . S
C523 C517 1.265 . S
C523 H518 0.950 . S
C523 C524 1.478 . S
C524 C523 1.478 . S
C524 C525 1.397 . S
C524 C541 1.394 . S
C525 C524 1.397 . S
C525 C526 1.438 . S
C525 C530 1.429 . S
C526 C525 1.438 . S
C526 C527 1.428 . S
C526 C539 1.394 . S
C527 H519 0.949 . S
C527 C526 1.428 . S
C527 C528 1.345 . S
C528 H520 0.950 . S
C528 C527 1.345 . S
C528 C529 1.424 . S
C529 H521 0.951 . S
C529 C528 1.424 . S
C529 C530 1.347 . S
C530 H522 0.951 . S
C530 C525 1.429 . S
C530 C529 1.347 . S
H531 C532 0.951 . S
C532 H531 0.951 . S
C532 C538 1.265 . S
H533 C538 0.950 . S
H534 C542 0.949 . S
H535 C543 0.950 . S
H536 C544 0.951 . S
H537 C545 0.951 . S
C538 C532 1.265 . S
C538 H533 0.950 . S
C538 C539 1.478 . S
C539 C526 1.394 . S
C539 C538 1.478 . S
C539 C540 1.397 . S
C540 C539 1.397 . S
C540 C541 1.438 . S
C540 C545 1.429 . S
C541 C524 1.394 . S
C541 C540 1.438 . S
C541 C542 1.428 . S
C542 H534 0.949 . S
C542 C541 1.428 . S
C542 C543 1.345 . S
C543 H535 0.950 . S
C543 C542 1.345 . S
C543 C544 1.424 . S
C544 H536 0.951 . S
C544 C543 1.424 . S
C544 C545 1.347 . S
C545 H537 0.951 . S
C545 C540 1.429 . S
C545 C544 1.347 . S
H546 C547 0.951 . S
C547 H546 0.951 . S
C547 C553 1.265 . S
H548 C553 0.950 . S
H549 C557 0.949 . S
H550 C558 0.950 . S
H551 C559 0.951 . S
H552 C560 0.951 . S
C553 C547 1.265 . S
C553 H548 0.950 . S
C553 C554 1.478 . S
C554 C553 1.478 . S
C554 C555 1.397 . S
C554 C571 1.394 . S
C555 C554 1.397 . S
C555 C556 1.438 . S
C555 C560 1.429 . S
C556 C555 1.438 . S
C556 C557 1.428 . S
C556 C569 1.394 . S
C557 H549 0.949 . S
C557 C556 1.428 . S
C557 C558 1.345 . S
C558 H550 0.950 . S
C558 C557 1.345 . S
C558 C559 1.424 . S
C559 H551 0.951 . S
C559 C558 1.424 . S
C559 C560 1.347 . S
C560 H552 0.951 . S
C560 C555 1.429 . S
C560 C559 1.347 . S
H561 C562 0.951 . S
C562 H561 0.951 . S
C562 C568 1.265 . S
H563 C568 0.950 . S
H564 C572 0.949 . S
H565 C573 0.950 . S
H566 C574 0.951 . S
H567 C575 0.951 . S
C568 C562 1.265 . S
C568 H563 0.950 . S
C568 C569 1.478 . S
C569 C556 1.394 . S
C569 C568 1.478 . S
C569 C570 1.397 . S
C570 C569 1.397 . S
C570 C571 1.438 . S
C570 C575 1.429 . S
C571 C554 1.394 . S
C571 C570 1.438 . S
C571 C572 1.428 . S
C572 H564 0.949 . S
C572 C571 1.428 . S
C572 C573 1.345 . S
C573 H565 0.950 . S
C573 C572 1.345 . S
C573 C574 1.424 . S
C574 H566 0.951 . S
C574 C573 1.424 . S
C574 C575 1.347 . S
C575 H567 0.951 . S
C575 C570 1.429 . S
C575 C574 1.347 . S
H576 C577 0.951 . S
C577 H576 0.951 . S
C577 C583 1.265 . S
H578 C583 0.950 . S
H579 C587 0.949 . S
H580 C588 0.950 . S
H581 C589 0.951 . S
H582 C590 0.951 . S
C583 C577 1.265 . S
C583 H578 0.950 . S
C583 C584 1.478 . S
C584 C583 1.478 . S
C584 C585 1.397 . S
C584 C601 1.394 . S
C585 C584 1.397 . S
C585 C586 1.438 . S
C585 C590 1.429 . S
C586 C585 1.438 . S
C586 C587 1.428 . S
C586 C599 1.394 . S
C587 H579 0.949 . S
C587 C586 1.428 . S
C587 C588 1.345 . S
C588 H580 0.950 . S
C588 C587 1.345 . S
C588 C589 1.424 . S
C589 H581 0.951 . S
C589 C588 1.424 . S
C589 C590 1.347 . S
C590 H582 0.951 . S
C590 C585 1.429 . S
C590 C589 1.347 . S
H591 C592 0.936 1_655 S
C592 H591 0.936 1_455 S
C592 C598 1.269 . S
H593 C598 0.950 . S
H594 C602 0.949 . S
H595 C603 0.950 . S
H596 C604 0.951 1_455 S
H597 C605 0.951 1_455 S
C598 C592 1.269 . S
C598 H593 0.950 . S
C598 C599 1.478 1_455 S
C599 C586 1.394 . S
C599 C598 1.478 1_655 S
C599 C600 1.397 . S
C600 C599 1.397 . S
C600 C601 1.438 . S
C600 C605 1.429 . S
C601 C584 1.394 . S
C601 C600 1.438 . S
C601 C602 1.428 . S
C602 H594 0.949 . S
C602 C601 1.428 . S
C602 C603 1.345 . S
C603 H595 0.950 . S
C603 C602 1.345 . S
C603 C604 1.424 . S
C604 H596 0.951 1_655 S
C604 C603 1.424 . S
C604 C605 1.347 . S
C605 H597 0.951 1_655 S
C605 C600 1.429 . S
C605 C604 1.347 . S
H606 C607 0.951 . S
C607 H606 0.951 . S
C607 C613 1.265 . S
H608 C613 0.950 . S
H609 C617 0.949 1_455 S
H610 C618 0.950 . S
H611 C619 0.951 1_455 S
H612 C620 0.951 . S
C613 C607 1.265 . S
C613 H608 0.950 . S
C613 C614 1.478 . S
C614 C613 1.478 . S
C614 C615 1.397 . S
C614 C631 1.394 . S
C615 C614 1.397 . S
C615 C616 1.438 . S
C615 C620 1.429 . S
C616 C615 1.438 . S
C616 C617 1.428 . S
C616 C629 1.394 . S
C617 H609 0.949 1_655 S
C617 C616 1.428 . S
C617 C618 1.345 1_655 S
C618 H610 0.950 . S
C618 C617 1.345 1_455 S
C618 C619 1.424 1_455 S
C619 H611 0.951 1_655 S
C619 C618 1.424 1_655 S
C619 C620 1.347 . S
C620 H612 0.951 . S
C620 C615 1.429 . S
C620 C619 1.347 . S
H621 C622 0.951 . S
C622 H621 0.951 . S
C622 C628 1.265 1_455 S
H623 C628 0.950 . S
H624 C632 0.949 . S
H625 C633 0.950 . S
H626 C634 0.951 . S
H627 C635 0.951 . S
C628 C622 1.265 1_655 S
C628 H623 0.950 . S
C628 C629 1.478 . S
C629 C616 1.394 . S
C629 C628 1.478 . S
C629 C630 1.397 . S
C630 C629 1.397 . S
C630 C631 1.438 . S
C630 C635 1.429 . S
C631 C614 1.394 . S
C631 C630 1.438 . S
C631 C632 1.428 . S
C632 H624 0.949 . S
C632 C631 1.428 . S
C632 C633 1.345 . S
C633 H625 0.950 . S
C633 C632 1.345 . S
C633 C634 1.424 . S
C634 H626 0.951 . S
C634 C633 1.424 . S
C634 C635 1.347 . S
C635 H627 0.951 . S
C635 C630 1.429 . S
C635 C634 1.347 . S
H636 C637 0.934 1_455 S
C637 H636 0.934 1_655 S
C637 C643 1.269 . S
H638 C643 0.950 . S
H639 C647 0.949 . S
H640 C648 0.950 . S
H641 C649 0.948 1_655 S
H642 C650 0.951 1_655 S
C643 C637 1.269 . S
C643 H638 0.950 . S
C643 C644 1.478 1_655 S
C644 C643 1.478 1_455 S
C644 C645 1.397 . S
C644 C661 1.394 . S
C645 C644 1.397 . S
C645 C646 1.438 . S
C645 C650 1.429 . S
C646 C645 1.438 . S
C646 C647 1.428 . S
C646 C659 1.394 . S
C647 H639 0.949 . S
C647 C646 1.428 . S
C647 C648 1.345 . S
C648 H640 0.950 . S
C648 C647 1.345 . S
C648 C649 1.424 . S
C649 H641 0.948 1_455 S
C649 C648 1.424 . S
C649 C650 1.347 . S
C650 H642 0.951 1_455 S
C650 C645 1.429 . S
C650 C649 1.347 . S
H651 C652 0.951 . S
C652 H651 0.951 . S
C652 C658 1.265 . S
H653 C658 0.950 . S
H654 C662 0.949 . S
H655 C663 0.950 . S
H656 C664 0.951 . S
H657 C665 0.951 . S
C658 C652 1.265 . S
C658 H653 0.950 . S
C658 C659 1.478 . S
C659 C646 1.394 . S
C659 C658 1.478 . S
C659 C660 1.397 . S
C660 C659 1.397 . S
C660 C661 1.438 . S
C660 C665 1.429 . S
C661 C644 1.394 . S
C661 C660 1.438 . S
C661 C662 1.428 . S
C662 H654 0.949 . S
C662 C661 1.428 . S
C662 C663 1.345 . S
C663 H655 0.950 . S
C663 C662 1.345 . S
C663 C664 1.424 . S
C664 H656 0.951 . S
C664 C663 1.424 . S
C664 C665 1.347 . S
C665 H657 0.951 . S
C665 C660 1.429 . S
C665 C664 1.347 . S
H666 C667 0.951 . S
C667 H666 0.951 . S
C667 C673 1.265 . S
H668 C673 0.950 . S
H669 C677 0.949 . S
H670 C678 0.950 . S
H671 C679 0.951 . S
H672 C680 0.951 . S
C673 C667 1.265 . S
C673 H668 0.950 . S
C673 C674 1.478 . S
C674 C673 1.478 . S
C674 C675 1.397 . S
C674 C691 1.394 . S
C675 C674 1.397 . S
C675 C676 1.438 . S
C675 C680 1.429 . S
C676 C675 1.438 . S
C676 C677 1.428 . S
C676 C689 1.394 . S
C677 H669 0.949 . S
C677 C676 1.428 . S
C677 C678 1.345 . S
C678 H670 0.950 . S
C678 C677 1.345 . S
C678 C679 1.424 . S
C679 H671 0.951 . S
C679 C678 1.424 . S
C679 C680 1.347 . S
C680 H672 0.951 . S
C680 C675 1.429 . S
C680 C679 1.347 . S
H681 C682 0.951 1_455 S
C682 H681 0.951 1_655 S
C682 C688 1.265 . S
H683 C688 0.950 . S
H684 C692 0.949 . S
H685 C693 0.950 . S
H686 C694 0.951 . S
H687 C695 0.951 . S
C688 C682 1.265 . S
C688 H683 0.950 . S
C688 C689 1.478 1_655 S
C689 C676 1.394 . S
C689 C688 1.478 1_455 S
C689 C690 1.397 . S
C690 C689 1.397 . S
C690 C691 1.438 . S
C690 C695 1.429 1_455 S
C691 C674 1.394 . S
C691 C690 1.438 . S
C691 C692 1.428 . S
C692 H684 0.949 . S
C692 C691 1.428 . S
C692 C693 1.345 1_455 S
C693 H685 0.950 . S
C693 C692 1.345 1_655 S
C693 C694 1.424 . S
C694 H686 0.951 . S
C694 C693 1.424 . S
C694 C695 1.347 . S
C695 H687 0.951 . S
C695 C690 1.429 1_655 S
C695 C694 1.347 . S
C337 C158 1.481 . S
C352 C63 1.481 . S
C367 C231 1.510 . S
C382 C326 1.510 . S
C397 C74 1.476 . S
C412 C147 1.476 . S
C427 C315 1.472 . S
C442 C242 1.472 . S
C457 C321 1.198 . S
C472 C56 1.277 . S
C487 C153 1.187 . S
C502 C224 1.279 . S
C517 C151 1.280 . S
C532 C226 1.184 . S
C547 C319 1.312 . S
C562 C58 1.158 . S
C577 C140 1.320 . S
C592 C237 1.248 . S
C607 C308 1.277 . S
C622 C69 1.200 . S
C637 C310 1.244 . S
C652 C67 1.320 . S
C667 C235 1.321 . S
C682 C142 1.226 . S
