# Generated by pormake.
# Topology bcu-k, (6)-cn, num edge types: 1
# Building blocks:
#     Node 0, Type 0, BuildingBlock: IZENUY_clean_sbu_0, # of connection points: 6
#     Node 1, Type 0, BuildingBlock: IZENUY_clean_sbu_0, # of connection points: 6
#     Node 2, Type 0, BuildingBlock: IZENUY_clean_sbu_0, # of connection points: 6
#     Node 3, Type 0, BuildingBlock: IZENUY_clean_sbu_0, # of connection points: 6
#     Node 4, Type 0, BuildingBlock: IZENUY_clean_sbu_0, # of connection points: 6
#     Node 5, Type 0, BuildingBlock: IZENUY_clean_sbu_0, # of connection points: 6
#     Node 6, Type 0, BuildingBlock: IZENUY_clean_sbu_0, # of connection points: 6
#     Node 7, Type 0, BuildingBlock: IZENUY_clean_sbu_0, # of connection points: 6
#     Node 8, Type 0, BuildingBlock: IZENUY_clean_sbu_0, # of connection points: 6
#     Node 9, Type 0, BuildingBlock: IZENUY_clean_sbu_0, # of connection points: 6
#     Node 10, Type 0, BuildingBlock: IZENUY_clean_sbu_0, # of connection points: 6
#     Node 11, Type 0, BuildingBlock: IZENUY_clean_sbu_0, # of connection points: 6
#     Node 12, Type 0, BuildingBlock: IZENUY_clean_sbu_0, # of connection points: 6
#     Node 13, Type 0, BuildingBlock: IZENUY_clean_sbu_0, # of connection points: 6
#     Node 14, Type 0, BuildingBlock: IZENUY_clean_sbu_0, # of connection points: 6
#     Node 15, Type 0, BuildingBlock: IZENUY_clean_sbu_0, # of connection points: 6
#     Node 16, Type 0, BuildingBlock: IZENUY_clean_sbu_0, # of connection points: 6
#     Node 17, Type 0, BuildingBlock: IZENUY_clean_sbu_0, # of connection points: 6
#     Node 18, Type 0, BuildingBlock: IZENUY_clean_sbu_0, # of connection points: 6
#     Node 19, Type 0, BuildingBlock: IZENUY_clean_sbu_0, # of connection points: 6
#     Node 20, Type 0, BuildingBlock: IZENUY_clean_sbu_0, # of connection points: 6
#     Node 21, Type 0, BuildingBlock: IZENUY_clean_sbu_0, # of connection points: 6
#     Node 22, Type 0, BuildingBlock: IZENUY_clean_sbu_0, # of connection points: 6
#     Node 23, Type 0, BuildingBlock: IZENUY_clean_sbu_0, # of connection points: 6
#     Node 24, Type 0, BuildingBlock: IZENUY_clean_sbu_0, # of connection points: 6
#     Node 25, Type 0, BuildingBlock: IZENUY_clean_sbu_0, # of connection points: 6
#     Node 26, Type 0, BuildingBlock: IZENUY_clean_sbu_0, # of connection points: 6
#     Node 27, Type 0, BuildingBlock: IZENUY_clean_sbu_0, # of connection points: 6
#     Node 28, Type 0, BuildingBlock: IZENUY_clean_sbu_0, # of connection points: 6
#     Node 29, Type 0, BuildingBlock: IZENUY_clean_sbu_0, # of connection points: 6
#     Node 30, Type 0, BuildingBlock: IZENUY_clean_sbu_0, # of connection points: 6
#     Node 31, Type 0, BuildingBlock: IZENUY_clean_sbu_0, # of connection points: 6
#     Node 32, Type 0, BuildingBlock: IZENUY_clean_sbu_0, # of connection points: 6
#     Node 33, Type 0, BuildingBlock: IZENUY_clean_sbu_0, # of connection points: 6
#     Node 34, Type 0, BuildingBlock: IZENUY_clean_sbu_0, # of connection points: 6
#     Node 35, Type 0, BuildingBlock: IZENUY_clean_sbu_0, # of connection points: 6
#     Node 36, Type 0, BuildingBlock: IZENUY_clean_sbu_0, # of connection points: 6
#     Node 37, Type 0, BuildingBlock: IZENUY_clean_sbu_0, # of connection points: 6
#     Node 38, Type 0, BuildingBlock: IZENUY_clean_sbu_0, # of connection points: 6
#     Node 39, Type 0, BuildingBlock: IZENUY_clean_sbu_0, # of connection points: 6
#     Node 40, Type 0, BuildingBlock: IZENUY_clean_sbu_0, # of connection points: 6
#     Node 41, Type 0, BuildingBlock: IZENUY_clean_sbu_0, # of connection points: 6
#     Node 42, Type 0, BuildingBlock: IZENUY_clean_sbu_0, # of connection points: 6
#     Node 43, Type 0, BuildingBlock: IZENUY_clean_sbu_0, # of connection points: 6
#     Node 44, Type 0, BuildingBlock: IZENUY_clean_sbu_0, # of connection points: 6
#     Node 45, Type 0, BuildingBlock: IZENUY_clean_sbu_0, # of connection points: 6
#     Node 46, Type 0, BuildingBlock: IZENUY_clean_sbu_0, # of connection points: 6
#     Node 47, Type 0, BuildingBlock: IZENUY_clean_sbu_0, # of connection points: 6
#     Edge 48, Type (0, 0), None
#     Edge 49, Type (0, 0), None
#     Edge 50, Type (0, 0), None
#     Edge 51, Type (0, 0), None
#     Edge 52, Type (0, 0), None
#     Edge 53, Type (0, 0), None
#     Edge 54, Type (0, 0), None
#     Edge 55, Type (0, 0), None
#     Edge 56, Type (0, 0), None
#     Edge 57, Type (0, 0), None
#     Edge 58, Type (0, 0), None
#     Edge 59, Type (0, 0), None
#     Edge 60, Type (0, 0), None
#     Edge 61, Type (0, 0), None
#     Edge 62, Type (0, 0), None
#     Edge 63, Type (0, 0), None
#     Edge 64, Type (0, 0), None
#     Edge 65, Type (0, 0), None
#     Edge 66, Type (0, 0), None
#     Edge 67, Type (0, 0), None
#     Edge 68, Type (0, 0), None
#     Edge 69, Type (0, 0), None
#     Edge 70, Type (0, 0), None
#     Edge 71, Type (0, 0), None
#     Edge 72, Type (0, 0), None
#     Edge 73, Type (0, 0), None
#     Edge 74, Type (0, 0), None
#     Edge 75, Type (0, 0), None
#     Edge 76, Type (0, 0), None
#     Edge 77, Type (0, 0), None
#     Edge 78, Type (0, 0), None
#     Edge 79, Type (0, 0), None
#     Edge 80, Type (0, 0), None
#     Edge 81, Type (0, 0), None
#     Edge 82, Type (0, 0), None
#     Edge 83, Type (0, 0), None
#     Edge 84, Type (0, 0), None
#     Edge 85, Type (0, 0), None
#     Edge 86, Type (0, 0), None
#     Edge 87, Type (0, 0), None
#     Edge 88, Type (0, 0), None
#     Edge 89, Type (0, 0), None
#     Edge 90, Type (0, 0), None
#     Edge 91, Type (0, 0), None
#     Edge 92, Type (0, 0), None
#     Edge 93, Type (0, 0), None
#     Edge 94, Type (0, 0), None
#     Edge 95, Type (0, 0), None
#     Edge 96, Type (0, 0), None
#     Edge 97, Type (0, 0), None
#     Edge 98, Type (0, 0), None
#     Edge 99, Type (0, 0), None
#     Edge 100, Type (0, 0), None
#     Edge 101, Type (0, 0), None
#     Edge 102, Type (0, 0), None
#     Edge 103, Type (0, 0), None
#     Edge 104, Type (0, 0), None
#     Edge 105, Type (0, 0), None
#     Edge 106, Type (0, 0), None
#     Edge 107, Type (0, 0), None
#     Edge 108, Type (0, 0), None
#     Edge 109, Type (0, 0), None
#     Edge 110, Type (0, 0), None
#     Edge 111, Type (0, 0), None
#     Edge 112, Type (0, 0), None
#     Edge 113, Type (0, 0), None
#     Edge 114, Type (0, 0), None
#     Edge 115, Type (0, 0), None
#     Edge 116, Type (0, 0), None
#     Edge 117, Type (0, 0), None
#     Edge 118, Type (0, 0), None
#     Edge 119, Type (0, 0), None
#     Edge 120, Type (0, 0), None
#     Edge 121, Type (0, 0), None
#     Edge 122, Type (0, 0), None
#     Edge 123, Type (0, 0), None
#     Edge 124, Type (0, 0), None
#     Edge 125, Type (0, 0), None
#     Edge 126, Type (0, 0), None
#     Edge 127, Type (0, 0), None
#     Edge 128, Type (0, 0), None
#     Edge 129, Type (0, 0), None
#     Edge 130, Type (0, 0), None
#     Edge 131, Type (0, 0), None
#     Edge 132, Type (0, 0), None
#     Edge 133, Type (0, 0), None
#     Edge 134, Type (0, 0), None
#     Edge 135, Type (0, 0), None
#     Edge 136, Type (0, 0), None
#     Edge 137, Type (0, 0), None
#     Edge 138, Type (0, 0), None
#     Edge 139, Type (0, 0), None
#     Edge 140, Type (0, 0), None
#     Edge 141, Type (0, 0), None
#     Edge 142, Type (0, 0), None
#     Edge 143, Type (0, 0), None
#     Edge 144, Type (0, 0), None
#     Edge 145, Type (0, 0), None
#     Edge 146, Type (0, 0), None
#     Edge 147, Type (0, 0), None
#     Edge 148, Type (0, 0), None
#     Edge 149, Type (0, 0), None
#     Edge 150, Type (0, 0), None
#     Edge 151, Type (0, 0), None
#     Edge 152, Type (0, 0), None
#     Edge 153, Type (0, 0), None
#     Edge 154, Type (0, 0), None
#     Edge 155, Type (0, 0), None
#     Edge 156, Type (0, 0), None
#     Edge 157, Type (0, 0), None
#     Edge 158, Type (0, 0), None
#     Edge 159, Type (0, 0), None
#     Edge 160, Type (0, 0), None
#     Edge 161, Type (0, 0), None
#     Edge 162, Type (0, 0), None
#     Edge 163, Type (0, 0), None
#     Edge 164, Type (0, 0), None
#     Edge 165, Type (0, 0), None
#     Edge 166, Type (0, 0), None
#     Edge 167, Type (0, 0), None
#     Edge 168, Type (0, 0), None
#     Edge 169, Type (0, 0), None
#     Edge 170, Type (0, 0), None
#     Edge 171, Type (0, 0), None
#     Edge 172, Type (0, 0), None
#     Edge 173, Type (0, 0), None
#     Edge 174, Type (0, 0), None
#     Edge 175, Type (0, 0), None
#     Edge 176, Type (0, 0), None
#     Edge 177, Type (0, 0), None
#     Edge 178, Type (0, 0), None
#     Edge 179, Type (0, 0), None
#     Edge 180, Type (0, 0), None
#     Edge 181, Type (0, 0), None
#     Edge 182, Type (0, 0), None
#     Edge 183, Type (0, 0), None
#     Edge 184, Type (0, 0), None
#     Edge 185, Type (0, 0), None
#     Edge 186, Type (0, 0), None
#     Edge 187, Type (0, 0), None
#     Edge 188, Type (0, 0), None
#     Edge 189, Type (0, 0), None
#     Edge 190, Type (0, 0), None
#     Edge 191, Type (0, 0), None
# Relax obj value: 0.433
# Max RMSD: 0.168
# Mean RMSD: 0.166
data_MOF--net-bcu-k--node1-IZENUY_clean_sbu_0--edge1-none
_symmetry_space_group_name_H-M    P1
_symmetry_Int_Tables_number       1
_symmetry_cell_setting            triclinic
loop_
_symmetry_equiv_pos_as_xyz
'x, y, z'
_cell_length_a     27.362029
_cell_length_b     27.401788
_cell_length_c     27.401782
_cell_angle_alpha  90.165129
_cell_angle_beta   90.152321
_cell_angle_gamma 90.153059
loop_
_atom_site_label
_atom_site_type_symbol
_atom_site_fract_x
_atom_site_fract_y
_atom_site_fract_z
_atom_type_partial_charge
Fe0 Fe 0.1242 0.12605 0.289 0.0
Fe1 Fe 0.20023 0.19761 0.31999 0.0
O2 O 0.15595 0.15542 0.33655 0.0
Fe3 Fe 0.14731 0.14412 0.39956 0.0
O4 O 0.13904 0.07717 0.39193 0.0
O5 O 0.14261 0.06862 0.31141 0.0
O6 O 0.17747 0.12182 0.24842 0.0
C7 C 0.2228 0.12366 0.25844 0.0
C8 C 0.05122 0.13805 0.36185 0.0
O9 O 0.23694 0.14722 0.29629 0.0
C10 C 0.1488 0.24941 0.386 0.0
O11 O 0.10277 0.18464 0.26281 0.0
O12 O 0.17734 0.20912 0.2605 0.0
O13 O 0.07945 0.15386 0.39579 0.0
O14 O 0.06796 0.12289 0.32189 0.0
C15 C 0.24889 0.16075 0.39804 0.0
O16 O 0.15966 0.24446 0.34167 0.0
O17 O 0.15338 0.21209 0.41462 0.0
C18 C 0.13368 0.21694 0.25165 0.0
O19 O 0.23347 0.19818 0.37768 0.0
O20 O 0.21557 0.12962 0.40718 0.0
C21 C 0.14336 0.05097 0.35377 0.0
Fe22 Fe 0.85543 0.19463 0.31162 0.0
Fe23 Fe 0.90252 0.14583 0.39828 0.0
O24 O 0.89531 0.15127 0.33403 0.0
Fe25 Fe 0.92339 0.11206 0.29221 0.0
O26 O 0.95281 0.16314 0.25939 0.0
O27 O 0.88295 0.20038 0.25154 0.0
O28 O 0.89692 0.24206 0.33276 0.0
C29 C 0.90357 0.24979 0.3779 0.0
C30 C 0.82738 0.11907 0.25439 0.0
O31 O 0.89664 0.2142 0.40794 0.0
C32 C 0.90071 0.04728 0.36428 0.0
O33 O 0.81968 0.19952 0.36725 0.0
O34 O 0.83444 0.13319 0.40543 0.0
O35 O 0.87227 0.10997 0.24766 0.0
O36 O 0.81571 0.1451 0.29089 0.0
C37 C 0.99674 0.13382 0.36384 0.0
O38 O 0.91173 0.07805 0.39752 0.0
O39 O 0.89454 0.061 0.32098 0.0
C40 C 0.80312 0.16421 0.39087 0.0
O41 O 0.9694 0.15647 0.39375 0.0
O42 O 0.97835 0.10726 0.33019 0.0
C43 C 0.92633 0.19451 0.23809 0.0
Fe44 Fe 0.92846 0.92366 0.29469 0.0
Fe45 Fe 0.8538 0.84952 0.32135 0.0
O46 O 0.89671 0.89205 0.34015 0.0
Fe47 Fe 0.90628 0.90017 0.40365 0.0
O48 O 0.89409 0.96642 0.39965 0.0
O49 O 0.93379 0.97869 0.33059 0.0
O50 O 0.87038 0.94798 0.26775 0.0
C51 C 0.83717 0.91836 0.25423 0.0
C52 C 1.00156 0.90281 0.36098 0.0
O53 O 0.84331 0.87425 0.26222 0.0
C54 C 0.88963 0.80046 0.40002 0.0
O55 O 0.9311 0.8721 0.25175 0.0
O56 O 0.90378 0.81221 0.29717 0.0
O57 O 0.97379 0.90978 0.39773 0.0
O58 O 0.98487 0.90122 0.31807 0.0
C59 C 0.80142 0.8999 0.38786 0.0
O60 O 0.85268 0.81596 0.37851 0.0
O61 O 0.92109 0.83285 0.41076 0.0
C62 C 0.92783 0.82665 0.25987 0.0
O63 O 0.80716 0.89031 0.34331 0.0
O64 O 0.83805 0.89352 0.4172 0.0
C65 C 0.9117 0.99482 0.36759 0.0
Fe66 Fe 0.14978 0.90401 0.39841 0.0
Fe67 Fe 0.12652 0.92344 0.28854 0.0
O68 O 0.15833 0.89335 0.33505 0.0
Fe69 Fe 0.20165 0.85102 0.31737 0.0
O70 O 0.16119 0.80415 0.33983 0.0
O71 O 0.15684 0.83623 0.41313 0.0
O72 O 0.08329 0.89189 0.39466 0.0
C73 C 0.05506 0.90882 0.36197 0.0
C74 C 0.24989 0.88868 0.39586 0.0
O75 O 0.07132 0.92794 0.32348 0.0
C76 C 0.22406 0.92413 0.25424 0.0
O77 O 0.13972 0.97092 0.39123 0.0
O78 O 0.14761 0.9801 0.3112 0.0
O79 O 0.23491 0.85124 0.3748 0.0
O80 O 0.21709 0.91971 0.40578 0.0
C81 C 0.1333 0.83221 0.25062 0.0
O82 O 0.17844 0.92668 0.24597 0.0
O83 O 0.23872 0.90102 0.2922 0.0
C84 C 0.14539 0.99762 0.35364 0.0
O85 O 0.1031 0.86502 0.26253 0.0
O86 O 0.17729 0.8395 0.25848 0.0
C87 C 0.15124 0.79902 0.38435 0.0
Fe88 Fe 0.12441 0.92935 0.7641 0.0
Fe89 Fe 0.16652 0.83547 0.74089 0.0
O90 O 0.15147 0.89128 0.71998 0.0
Fe91 Fe 0.15396 0.90172 0.65625 0.0
O92 O 0.15956 0.96884 0.66053 0.0
O93 O 0.11984 0.98229 0.72744 0.0
O94 O 0.18418 0.94574 0.78513 0.0
C95 C 0.21444 0.9118 0.79474 0.0
C96 C 0.05412 0.90553 0.69455 0.0
O97 O 0.20534 0.86599 0.78725 0.0
C98 C 0.13544 0.79914 0.65699 0.0
O99 O 0.12074 0.88768 0.81819 0.0
O100 O 0.11024 0.82812 0.77505 0.0
O101 O 0.0841 0.90399 0.65724 0.0
O102 O 0.06766 0.91061 0.73935 0.0
C103 C 0.24762 0.86815 0.68124 0.0
O104 O 0.12369 0.80801 0.69899 0.0
O105 O 0.15491 0.83523 0.63588 0.0
C106 C 0.10735 0.84424 0.8166 0.0
O107 O 0.22505 0.83445 0.70495 0.0
O108 O 0.22244 0.90027 0.65818 0.0
C109 C 0.13968 0.99774 0.6899 0.0
Fe110 Fe 0.12687 0.12436 0.75686 0.0
Fe111 Fe 0.20101 0.19862 0.72886 0.0
O112 O 0.15777 0.15599 0.71077 0.0
Fe113 Fe 0.14873 0.14618 0.64747 0.0
O114 O 0.08206 0.15742 0.65225 0.0
O115 O 0.07146 0.11894 0.7223 0.0
O116 O 0.10306 0.18246 0.78385 0.0
C117 C 0.13301 0.21576 0.79626 0.0
C118 C 0.14662 0.05107 0.6905 0.0
O119 O 0.17706 0.20911 0.78818 0.0
C120 C 0.24881 0.16273 0.64969 0.0
O121 O 0.17879 0.12163 0.79883 0.0
O122 O 0.23826 0.14835 0.7525 0.0
O123 O 0.13941 0.07871 0.65371 0.0
O124 O 0.14885 0.06788 0.73332 0.0
C125 C 0.15042 0.25154 0.66308 0.0
O126 O 0.23373 0.1997 0.67126 0.0
O127 O 0.21609 0.13147 0.63946 0.0
C128 C 0.22407 0.12427 0.78986 0.0
O129 O 0.16044 0.24569 0.70748 0.0
O130 O 0.15524 0.21459 0.63373 0.0
C131 C 0.05443 0.13932 0.68488 0.0
Fe132 Fe 0.92843 0.12546 0.75508 0.0
Fe133 Fe 0.85414 0.19941 0.72752 0.0
O134 O 0.89647 0.15613 0.70915 0.0
Fe135 Fe 0.90523 0.14649 0.64558 0.0
O136 O 0.89398 0.0793 0.64998 0.0
O137 O 0.93181 0.06954 0.72059 0.0
O138 O 0.87056 0.10224 0.78312 0.0
C139 C 0.83768 0.13227 0.79573 0.0
C140 C 1.00097 0.14503 0.68714 0.0
O141 O 0.84429 0.17607 0.78702 0.0
C142 C 0.88929 0.24677 0.64788 0.0
O143 O 0.93251 0.17805 0.79718 0.0
O144 O 0.90453 0.23725 0.75127 0.0
O145 O 0.97262 0.13765 0.65084 0.0
O146 O 0.98512 0.14656 0.7304 0.0
C147 C 0.80057 0.14735 0.66241 0.0
O148 O 0.85245 0.2317 0.66973 0.0
O149 O 0.9201 0.21394 0.63725 0.0
C150 C 0.92849 0.22349 0.78908 0.0
O151 O 0.80685 0.15835 0.70661 0.0
O152 O 0.83688 0.15263 0.63264 0.0
C153 C 0.91197 0.05173 0.68279 0.0
Fe154 Fe 0.92469 0.92452 0.7568 0.0
Fe155 Fe 0.90617 0.90121 0.64663 0.0
O156 O 0.89499 0.89286 0.70996 0.0
Fe157 Fe 0.85255 0.8493 0.72732 0.0
O158 O 0.84117 0.87244 0.78685 0.0
O159 O 0.8664 0.94677 0.78366 0.0
O160 O 0.92791 0.9802 0.72283 0.0
C161 C 0.91108 0.99704 0.68344 0.0
C162 C 0.92638 0.82663 0.78902 0.0
O163 O 0.89567 0.96874 0.64963 0.0
C164 C 0.8895 0.80029 0.6495 0.0
O165 O 0.9814 0.90447 0.73391 0.0
O166 O 0.97392 0.90978 0.65367 0.0
O167 O 0.90253 0.8122 0.75143 0.0
O168 O 0.92881 0.87201 0.79821 0.0
C169 C 0.80095 0.90111 0.66141 0.0
O170 O 0.92068 0.83324 0.63965 0.0
O171 O 0.85197 0.81595 0.66973 0.0
C172 C 1.00001 0.90424 0.69191 0.0
O173 O 0.83784 0.89516 0.6323 0.0
O174 O 0.80626 0.89051 0.70573 0.0
C175 C 0.83429 0.9161 0.79633 0.0
Fe176 Fe 0.40194 0.14554 0.14463 0.0
Fe177 Fe 0.2913 0.12315 0.12589 0.0
O178 O 0.33868 0.15458 0.1556 0.0
Fe179 Fe 0.32187 0.19869 0.19772 0.0
O180 O 0.37961 0.23175 0.19792 0.0
O181 O 0.40952 0.21337 0.12951 0.0
O182 O 0.3945 0.13643 0.07766 0.0
C183 C 0.35648 0.1417 0.05133 0.0
C184 C 0.38814 0.14754 0.24971 0.0
O185 O 0.31408 0.14222 0.06894 0.0
C186 C 0.25332 0.13198 0.21644 0.0
O187 O 0.3982 0.078 0.15532 0.0
O188 O 0.32488 0.06719 0.12277 0.0
O189 O 0.34368 0.15808 0.24452 0.0
O190 O 0.4169 0.15229 0.21251 0.0
C191 C 0.25974 0.22162 0.12404 0.0
O192 O 0.26474 0.10128 0.18407 0.0
O193 O 0.26242 0.17564 0.20915 0.0
C194 C 0.36434 0.05 0.1392 0.0
O195 O 0.25009 0.17624 0.12178 0.0
O196 O 0.29777 0.23558 0.14751 0.0
C197 C 0.39995 0.24678 0.16031 0.0
Fe198 Fe 0.92733 0.28451 0.11929 0.0
Fe199 Fe 0.88523 0.30776 0.21319 0.0
O200 O 0.90029 0.32864 0.15737 0.0
Fe201 Fe 0.89779 0.39237 0.1469 0.0
O202 O 0.8922 0.38809 0.07979 0.0
O203 O 0.93188 0.32115 0.06634 0.0
O204 O 0.86755 0.26348 0.10294 0.0
C205 C 0.8373 0.25389 0.13688 0.0
C206 C 0.99763 0.35406 0.14309 0.0
O207 O 0.8464 0.26139 0.18268 0.0
C208 C 0.91632 0.39167 0.24948 0.0
O209 O 0.93102 0.23043 0.16096 0.0
O210 O 0.94149 0.27357 0.22059 0.0
O211 O 0.96765 0.39137 0.14463 0.0
O212 O 0.98408 0.30927 0.138 0.0
C213 C 0.80414 0.3674 0.18048 0.0
O214 O 0.92807 0.34967 0.24062 0.0
O215 O 0.89684 0.41276 0.21338 0.0
C216 C 0.94439 0.23206 0.20439 0.0
O217 O 0.8267 0.3437 0.21419 0.0
O218 O 0.82931 0.39044 0.14835 0.0
C219 C 0.91205 0.35871 0.05089 0.0
Fe220 Fe 0.64953 0.90663 0.14831 0.0
Fe221 Fe 0.75928 0.92915 0.12675 0.0
O222 O 0.71307 0.89756 0.15777 0.0
Fe223 Fe 0.73105 0.85494 0.20102 0.0
O224 O 0.70944 0.8076 0.16013 0.0
O225 O 0.63576 0.83844 0.15472 0.0
O226 O 0.65372 0.89474 0.08121 0.0
C227 C 0.68684 0.91168 0.0533 0.0
C228 C 0.65204 0.89079 0.24861 0.0
O229 O 0.72468 0.93197 0.07073 0.0
C230 C 0.79337 0.92875 0.22516 0.0
O231 O 0.65541 0.97394 0.13896 0.0
O232 O 0.73518 0.98681 0.14673 0.0
O233 O 0.67327 0.85376 0.23336 0.0
O234 O 0.64168 0.92178 0.21584 0.0
C235 C 0.79881 0.83791 0.13388 0.0
O236 O 0.80144 0.93313 0.17966 0.0
O237 O 0.75533 0.90506 0.23885 0.0
C238 C 0.69183 1.0026 0.14502 0.0
O239 O 0.78678 0.87096 0.10392 0.0
O240 O 0.79048 0.84478 0.17767 0.0
C241 C 0.66499 0.80169 0.14943 0.0
Fe242 Fe 0.14546 0.64499 0.14846 0.0
Fe243 Fe 0.12329 0.75396 0.12497 0.0
O244 O 0.15503 0.70849 0.15659 0.0
Fe245 Fe 0.19796 0.72728 0.19911 0.0
O246 O 0.24458 0.70532 0.1583 0.0
O247 O 0.21369 0.63144 0.1551 0.0
O248 O 0.15765 0.64899 0.08221 0.0
C249 C 0.14007 0.68106 0.0538 0.0
C250 C 0.16213 0.64861 0.24816 0.0
O251 O 0.11797 0.71806 0.06993 0.0
C252 C 0.12389 0.78872 0.22198 0.0
O253 O 0.07795 0.65091 0.13885 0.0
O254 O 0.06686 0.73057 0.14739 0.0
O255 O 0.19908 0.67012 0.23267 0.0
O256 O 0.13066 0.63787 0.21579 0.0
C257 C 0.21459 0.7944 0.13028 0.0
O258 O 0.12064 0.79689 0.17653 0.0
O259 O 0.14799 0.75147 0.23645 0.0
C260 C 0.05018 0.68767 0.14581 0.0
O261 O 0.18137 0.78089 0.10065 0.0
O262 O 0.20844 0.78642 0.17439 0.0
C263 C 0.25032 0.66077 0.14872 0.0
Fe264 Fe 0.4015 0.90405 0.89919 0.0
Fe265 Fe 0.29279 0.92832 0.91955 0.0
O266 O 0.33806 0.89513 0.88891 0.0
Fe267 Fe 0.31891 0.85253 0.84586 0.0
O268 O 0.34282 0.80452 0.88349 0.0
O269 O 0.41605 0.83689 0.88915 0.0
O270 O 0.39453 0.89029 0.96508 0.0
C271 C 0.36311 0.91059 0.9926 0.0
C272 C 0.39499 0.89428 0.79886 0.0
O273 O 0.32849 0.93526 0.97494 0.0
C274 C 0.25697 0.92277 0.82297 0.0
O275 O 0.39551 0.97121 0.91052 0.0
O276 O 0.3172 0.98378 0.8949 0.0
O277 O 0.37291 0.85602 0.81048 0.0
O278 O 0.41223 0.91986 0.83353 0.0
C279 C 0.25277 0.83738 0.91736 0.0
O280 O 0.24944 0.92857 0.86823 0.0
O281 O 0.29446 0.90069 0.80887 0.0
C282 C 0.36027 0.9998 0.89987 0.0
O283 O 0.26575 0.87175 0.94569 0.0
O284 O 0.26104 0.84081 0.8729 0.0
C285 C 0.38765 0.79937 0.89177 0.0
Fe286 Fe 0.14651 0.40302 0.90212 0.0
Fe287 Fe 0.12331 0.29351 0.92315 0.0
O288 O 0.15527 0.33944 0.89248 0.0
Fe289 Fe 0.19761 0.32108 0.8492 0.0
O290 O 0.24489 0.342 0.89027 0.0
O291 O 0.21485 0.41596 0.89599 0.0
O292 O 0.15775 0.39862 0.96932 0.0
C293 C 0.13977 0.3658 0.99688 0.0
C294 C 0.16247 0.40073 0.80184 0.0
O295 O 0.11994 0.328 0.97908 0.0
C296 C 0.12323 0.25957 0.82513 0.0
O297 O 0.07913 0.39775 0.91096 0.0
O298 O 0.06662 0.3182 0.90207 0.0
O299 O 0.1993 0.37888 0.81692 0.0
O300 O 0.13165 0.41135 0.83467 0.0
C301 C 0.21407 0.25288 0.91633 0.0
O302 O 0.11923 0.25142 0.87056 0.0
O303 O 0.14724 0.29734 0.81133 0.0
C304 C 0.05076 0.36146 0.90361 0.0
O305 O 0.18118 0.26548 0.94636 0.0
O306 O 0.20745 0.26158 0.87253 0.0
C307 C 0.25117 0.3862 0.90127 0.0
Fe308 Fe 0.76144 0.1245 0.92334 0.0
Fe309 Fe 0.73181 0.1966 0.84809 0.0
O310 O 0.71455 0.15467 0.89192 0.0
Fe311 Fe 0.65125 0.14447 0.90138 0.0
O312 O 0.65636 0.15723 0.96762 0.0
O313 O 0.72739 0.12054 0.97924 0.0
O314 O 0.78792 0.18282 0.94601 0.0
C315 C 0.79872 0.21568 0.9156 0.0
C316 C 0.69558 0.05067 0.90552 0.0
O317 O 0.79094 0.20779 0.87178 0.0
C318 C 0.65252 0.15912 0.80117 0.0
O319 O 0.80337 0.1207 0.87081 0.0
O320 O 0.75629 0.14615 0.81111 0.0
O321 O 0.65817 0.07757 0.91174 0.0
O322 O 0.73815 0.06794 0.90293 0.0
C323 C 0.66571 0.24939 0.89889 0.0
O324 O 0.67388 0.19655 0.81567 0.0
O325 O 0.64284 0.12835 0.83428 0.0
C326 C 0.79444 0.12302 0.82534 0.0
O327 O 0.71008 0.24397 0.88831 0.0
O328 O 0.63666 0.21227 0.89405 0.0
C329 C 0.68951 0.14073 0.99567 0.0
Fe330 Fe 0.90446 0.64904 0.90451 0.0
Fe331 Fe 0.92756 0.75961 0.92258 0.0
O332 O 0.89581 0.71206 0.89321 0.0
Fe333 Fe 0.85154 0.72861 0.851 0.0
O334 O 0.8183 0.67092 0.85044 0.0
O335 O 0.83619 0.64143 0.919 0.0
O336 O 0.91272 0.65668 0.97146 0.0
C337 C 0.90838 0.69484 0.99765 0.0
C338 C 0.90298 0.6626 0.79922 0.0
O339 O 0.90913 0.7372 0.98001 0.0
C340 C 0.91809 0.79695 0.8317 0.0
O341 O 0.97232 0.65283 0.89478 0.0
O342 O 0.98379 0.72672 0.92575 0.0
O343 O 0.89212 0.70693 0.80417 0.0
O344 O 0.89839 0.63398 0.83653 0.0
C345 C 0.82895 0.79017 0.92494 0.0
O346 O 0.949 0.7858 0.864 0.0
O347 O 0.87442 0.78809 0.8395 0.0
C348 C 1.00054 0.68677 0.91059 0.0
O349 O 0.87429 0.80019 0.9268 0.0
O350 O 0.81482 0.75232 0.90139 0.0
C351 C 0.80287 0.65056 0.88787 0.0
Fe352 Fe 0.19921 0.3213 0.19932 0.0
Fe353 Fe 0.12705 0.2918 0.12411 0.0
O354 O 0.15676 0.33865 0.15576 0.0
Fe355 Fe 0.14558 0.40197 0.14741 0.0
O356 O 0.21391 0.41631 0.15345 0.0
O357 O 0.24548 0.34288 0.15809 0.0
O358 O 0.21058 0.26177 0.17619 0.0
C359 C 0.21745 0.25228 0.13253 0.0
C360 C 0.16226 0.39913 0.24833 0.0
O361 O 0.18534 0.26494 0.10186 0.0
C362 C 0.05174 0.3567 0.14438 0.0
O363 O 0.14925 0.29718 0.23646 0.0
O364 O 0.12293 0.25039 0.17662 0.0
O365 O 0.13107 0.40897 0.21537 0.0
O366 O 0.19979 0.3789 0.23266 0.0
C367 C 0.14066 0.36515 0.05158 0.0
O368 O 0.07034 0.3147 0.14415 0.0
O369 O 0.07783 0.39493 0.13884 0.0
C370 C 0.12536 0.25964 0.22199 0.0
O371 O 0.12384 0.32577 0.06842 0.0
O372 O 0.15607 0.39897 0.07987 0.0
C373 C 0.2508 0.3872 0.14749 0.0
Fe374 Fe 0.14925 0.65034 0.90281 0.0
Fe375 Fe 0.12837 0.75642 0.93656 0.0
O376 O 0.15646 0.71459 0.89736 0.0
Fe377 Fe 0.19632 0.73698 0.85397 0.0
O378 O 0.1548 0.71582 0.80656 0.0
O379 O 0.15511 0.64065 0.83444 0.0
O380 O 0.08236 0.65486 0.89218 0.0
C381 C 0.05503 0.68478 0.91482 0.0
C382 C 0.24864 0.65774 0.88441 0.0
O383 O 0.07341 0.71845 0.94137 0.0
C384 C 0.22438 0.7942 0.92953 0.0
O385 O 0.14004 0.65111 0.9706 0.0
O386 O 0.15723 0.72766 0.98763 0.0
O387 O 0.23207 0.68134 0.84909 0.0
O388 O 0.21732 0.64319 0.91544 0.0
C389 C 0.12542 0.81051 0.8541 0.0
O390 O 0.1795 0.80097 0.93863 0.0
O391 O 0.23609 0.75775 0.90345 0.0
C392 C 0.15108 0.68437 1.00134 0.0
O393 O 0.09895 0.78923 0.88549 0.0
O394 O 0.1688 0.79706 0.8482 0.0
C395 C 0.14816 0.67068 0.79884 0.0
Fe396 Fe 0.29033 0.1253 0.92415 0.0
Fe397 Fe 0.31995 0.20054 0.85203 0.0
O398 O 0.33721 0.15672 0.89396 0.0
Fe399 Fe 0.40052 0.14725 0.90416 0.0
O400 O 0.3954 0.081 0.8914 0.0
O401 O 0.32438 0.0694 0.92812 0.0
O402 O 0.26384 0.10261 0.86584 0.0
C403 C 0.25304 0.13303 0.83298 0.0
C404 C 0.3562 0.14313 0.99795 0.0
O405 O 0.26083 0.17684 0.84085 0.0
C406 C 0.39924 0.24746 0.8895 0.0
O407 O 0.2484 0.17782 0.92793 0.0
O408 O 0.29547 0.23752 0.90247 0.0
O409 O 0.39361 0.13689 0.97105 0.0
O410 O 0.31363 0.14573 0.98069 0.0
C411 C 0.38605 0.14973 0.79923 0.0
O412 O 0.37788 0.23296 0.85207 0.0
O413 O 0.40893 0.21435 0.92027 0.0
C414 C 0.25732 0.22329 0.9256 0.0
O415 O 0.34168 0.16031 0.80466 0.0
O416 O 0.4151 0.15458 0.83635 0.0
C417 C 0.36225 0.05296 0.90792 0.0
Fe418 Fe 0.92486 0.29175 0.92427 0.0
Fe419 Fe 0.85073 0.31976 0.84999 0.0
O420 O 0.89395 0.33785 0.89264 0.0
Fe421 Fe 0.90301 0.40114 0.90245 0.0
O422 O 0.96968 0.39635 0.89121 0.0
O423 O 0.98027 0.32631 0.92969 0.0
O424 O 0.94867 0.26476 0.86618 0.0
C425 C 0.91872 0.25235 0.83288 0.0
C426 C 0.90512 0.35811 0.99756 0.0
O427 O 0.87467 0.26044 0.83952 0.0
C428 C 0.80293 0.39895 0.88588 0.0
O429 O 0.87293 0.24979 0.927 0.0
O430 O 0.81344 0.29613 0.90024 0.0
O431 O 0.91233 0.3949 0.96992 0.0
O432 O 0.90288 0.31529 0.98075 0.0
C433 C 0.90135 0.38554 0.79708 0.0
O434 O 0.81801 0.37737 0.84891 0.0
O435 O 0.83565 0.40916 0.91714 0.0
C436 C 0.82767 0.25881 0.92438 0.0
O437 O 0.89131 0.34114 0.80294 0.0
O438 O 0.89652 0.41488 0.83403 0.0
C439 C 0.99731 0.36373 0.90931 0.0
Fe440 Fe 0.7299 0.8509 0.84991 0.0
Fe441 Fe 0.64984 0.904 0.90307 0.0
O442 O 0.7131 0.89303 0.89402 0.0
Fe443 Fe 0.76049 0.92274 0.92545 0.0
O444 O 0.8017 0.92685 0.87236 0.0
O445 O 0.754 0.90109 0.81299 0.0
O446 O 0.67216 0.8507 0.81686 0.0
C447 C 0.65182 0.88832 0.80183 0.0
C448 C 0.79845 0.83218 0.91661 0.0
O449 O 0.64226 0.91912 0.83524 0.0
C450 C 0.68745 0.90942 0.9986 0.0
O451 O 0.70809 0.80411 0.89053 0.0
O452 O 0.63488 0.83611 0.89631 0.0
O453 O 0.78705 0.86455 0.94731 0.0
O454 O 0.78936 0.83948 0.87296 0.0
C455 C 0.6953 0.9973 0.90692 0.0
O456 O 0.65359 0.8933 0.9706 0.0
O457 O 0.72691 0.92585 0.98142 0.0
C458 C 0.66364 0.79891 0.90107 0.0
O459 O 0.65729 0.97096 0.91219 0.0
O460 O 0.73771 0.97969 0.90638 0.0
C461 C 0.79199 0.92461 0.82699 0.0
Fe462 Fe 0.90196 0.65021 0.14461 0.0
Fe463 Fe 0.92522 0.76008 0.12517 0.0
O464 O 0.8934 0.71357 0.15527 0.0
Fe465 Fe 0.85009 0.73125 0.19761 0.0
O466 O 0.89056 0.70878 0.24447 0.0
O467 O 0.89491 0.63548 0.2124 0.0
O468 O 0.96845 0.65398 0.15674 0.0
C469 C 0.99668 0.68667 0.1398 0.0
C470 C 0.80185 0.65274 0.15995 0.0
O471 O 0.98042 0.72514 0.12067 0.0
C472 C 0.82769 0.79433 0.12448 0.0
O473 O 0.91202 0.65738 0.07771 0.0
O474 O 0.90412 0.73741 0.06852 0.0
O475 O 0.81683 0.67381 0.19739 0.0
O476 O 0.83465 0.64283 0.12893 0.0
C477 C 0.91844 0.798 0.21639 0.0
O478 O 0.87329 0.80265 0.12193 0.0
O479 O 0.81299 0.75642 0.14763 0.0
C480 C 0.90635 0.69497 0.05101 0.0
O481 O 0.94864 0.7861 0.18359 0.0
O482 O 0.87445 0.79013 0.20911 0.0
C483 C 0.90051 0.66427 0.2496 0.0
Fe484 Fe 0.32072 0.84759 0.19368 0.0
Fe485 Fe 0.40225 0.9003 0.14198 0.0
O486 O 0.33871 0.89084 0.15106 0.0
Fe487 Fe 0.2925 0.92186 0.11946 0.0
O488 O 0.265 0.9447 0.17765 0.0
O489 O 0.2613 0.87095 0.20383 0.0
O490 O 0.34233 0.88849 0.24102 0.0
C491 C 0.38678 0.89918 0.24693 0.0
C492 C 0.25839 0.82346 0.11988 0.0
O493 O 0.41602 0.89388 0.21018 0.0
C494 C 0.35994 0.90355 0.04602 0.0
O495 O 0.3785 0.81525 0.19486 0.0
O496 O 0.41009 0.83277 0.12683 0.0
O497 O 0.25033 0.86896 0.11549 0.0
O498 O 0.29643 0.80976 0.14356 0.0
C499 C 0.36495 0.9953 0.13693 0.0
O500 O 0.39637 0.90965 0.07468 0.0
O501 O 0.31659 0.90186 0.0618 0.0
C502 C 0.39972 0.8 0.15783 0.0
O503 O 0.39806 0.9674 0.15388 0.0
O504 O 0.32712 0.97788 0.11662 0.0
C505 C 0.25296 0.91474 0.21068 0.0
Fe506 Fe 0.65024 0.14942 0.14458 0.0
Fe507 Fe 0.75895 0.12909 0.1203 0.0
O508 O 0.71368 0.15971 0.1535 0.0
Fe509 Fe 0.73281 0.20273 0.19612 0.0
O510 O 0.7089 0.16508 0.24411 0.0
O511 O 0.63568 0.15944 0.21174 0.0
O512 O 0.65722 0.08352 0.15831 0.0
C513 C 0.68865 0.05602 0.138 0.0
C514 C 0.65674 0.24975 0.15438 0.0
O515 O 0.72326 0.0737 0.11333 0.0
C516 C 0.79476 0.22567 0.12591 0.0
O517 O 0.65624 0.13811 0.07741 0.0
O518 O 0.73454 0.15377 0.06485 0.0
O519 O 0.6788 0.23811 0.19264 0.0
O520 O 0.6395 0.21509 0.12879 0.0
C521 C 0.79896 0.13123 0.21124 0.0
O522 O 0.80229 0.18042 0.12008 0.0
O523 O 0.75727 0.23976 0.148 0.0
C524 C 0.69147 0.1488 0.04884 0.0
O525 O 0.78599 0.10292 0.17685 0.0
O526 O 0.79068 0.17569 0.20784 0.0
C527 C 0.66407 0.1568 0.24926 0.0
Fe528 Fe 0.70024 0.69761 0.81996 0.0
Fe529 Fe 0.6473 0.64412 0.89957 0.0
O530 O 0.65595 0.65541 0.83654 0.0
Fe531 Fe 0.6242 0.62603 0.789 0.0
O532 O 0.67746 0.6218 0.74841 0.0
O533 O 0.73693 0.6472 0.79627 0.0
O534 O 0.73349 0.69818 0.87763 0.0
C535 C 0.74888 0.66074 0.898 0.0
C536 C 0.63366 0.71691 0.75163 0.0
O537 O 0.71556 0.62963 0.90721 0.0
C538 C 0.55122 0.63805 0.86185 0.0
O539 O 0.65968 0.74447 0.84163 0.0
O540 O 0.65338 0.7121 0.91462 0.0
O541 O 0.60276 0.68462 0.76281 0.0
O542 O 0.67733 0.7091 0.76048 0.0
C543 C 0.64337 0.55097 0.85379 0.0
O544 O 0.57944 0.65386 0.89578 0.0
O545 O 0.56796 0.62288 0.8219 0.0
C546 C 0.64877 0.74938 0.88596 0.0
O547 O 0.63903 0.57717 0.89194 0.0
O548 O 0.64262 0.56861 0.81142 0.0
C549 C 0.72279 0.62364 0.75842 0.0
Fe550 Fe 0.35542 0.69463 0.8116 0.0
Fe551 Fe 0.40251 0.64583 0.89828 0.0
O552 O 0.3953 0.65127 0.83402 0.0
Fe553 Fe 0.42339 0.61206 0.7922 0.0
O554 O 0.45281 0.66314 0.75938 0.0
O555 O 0.38293 0.70037 0.75151 0.0
O556 O 0.3969 0.74208 0.83272 0.0
C557 C 0.40359 0.74977 0.87787 0.0
C558 C 0.32738 0.61906 0.75437 0.0
O559 O 0.39664 0.7142 0.90794 0.0
C560 C 0.40071 0.54728 0.86428 0.0
O561 O 0.31967 0.69952 0.86723 0.0
O562 O 0.33444 0.6332 0.90544 0.0
O563 O 0.37226 0.60996 0.74765 0.0
O564 O 0.3157 0.64509 0.79087 0.0
C565 C 0.49674 0.63382 0.86383 0.0
O566 O 0.41173 0.57805 0.89752 0.0
O567 O 0.39454 0.56099 0.82098 0.0
C568 C 0.30312 0.66419 0.89084 0.0
O569 O 0.4694 0.65647 0.89375 0.0
O570 O 0.47835 0.60727 0.83018 0.0
C571 C 0.42632 0.6945 0.73807 0.0
Fe572 Fe 0.42847 0.42366 0.79469 0.0
Fe573 Fe 0.35381 0.34952 0.82132 0.0
O574 O 0.39672 0.39205 0.84015 0.0
Fe575 Fe 0.40628 0.40017 0.90365 0.0
O576 O 0.3941 0.46642 0.89965 0.0
O577 O 0.43381 0.47869 0.8306 0.0
O578 O 0.37041 0.448 0.76775 0.0
C579 C 0.3372 0.41837 0.75421 0.0
C580 C 0.50157 0.40281 0.86099 0.0
O581 O 0.34334 0.37426 0.76219 0.0
C582 C 0.38964 0.30048 0.89998 0.0
O583 O 0.43112 0.37211 0.75174 0.0
O584 O 0.4038 0.31222 0.79715 0.0
O585 O 0.4738 0.40978 0.89774 0.0
O586 O 0.48489 0.40121 0.81808 0.0
C587 C 0.30146 0.39992 0.88782 0.0
O588 O 0.35268 0.31595 0.87847 0.0
O589 O 0.42108 0.33285 0.91078 0.0
C590 C 0.42785 0.32665 0.75985 0.0
O591 O 0.30716 0.3903 0.84327 0.0
O592 O 0.33806 0.39353 0.91719 0.0
C593 C 0.41171 0.49482 0.86759 0.0
Fe594 Fe 0.64978 0.40401 0.89842 0.0
Fe595 Fe 0.62652 0.42345 0.78856 0.0
O596 O 0.65834 0.39335 0.83505 0.0
Fe597 Fe 0.70165 0.35102 0.81734 0.0
O598 O 0.66121 0.30414 0.8398 0.0
O599 O 0.65684 0.33622 0.91313 0.0
O600 O 0.5833 0.39188 0.89467 0.0
C601 C 0.55506 0.40882 0.86198 0.0
C602 C 0.74989 0.38868 0.89582 0.0
O603 O 0.57132 0.42795 0.82351 0.0
C604 C 0.72405 0.42415 0.75423 0.0
O605 O 0.63973 0.47091 0.89125 0.0
O606 O 0.64762 0.4801 0.81123 0.0
O607 O 0.73493 0.35123 0.87476 0.0
O608 O 0.71709 0.41969 0.9058 0.0
C609 C 0.63328 0.33224 0.7506 0.0
O610 O 0.67843 0.42669 0.74597 0.0
O611 O 0.73871 0.40104 0.79218 0.0
C612 C 0.6454 0.49761 0.85366 0.0
O613 O 0.60309 0.36503 0.76254 0.0
O614 O 0.67728 0.33952 0.75845 0.0
C615 C 0.65122 0.29905 0.88431 0.0
Fe616 Fe 0.62441 0.42935 0.26408 0.0
Fe617 Fe 0.66653 0.33547 0.2409 0.0
O618 O 0.65147 0.39127 0.21997 0.0
Fe619 Fe 0.65397 0.40171 0.15623 0.0
O620 O 0.65959 0.46882 0.16052 0.0
O621 O 0.61981 0.48227 0.2274 0.0
O622 O 0.68418 0.44576 0.2851 0.0
C623 C 0.71444 0.41183 0.29472 0.0
C624 C 0.55412 0.40552 0.19454 0.0
O625 O 0.70535 0.36602 0.28725 0.0
C626 C 0.63544 0.29916 0.15702 0.0
O627 O 0.62076 0.3877 0.31818 0.0
O628 O 0.61025 0.32813 0.27507 0.0
O629 O 0.58411 0.404 0.15723 0.0
O630 O 0.56767 0.41059 0.23933 0.0
C631 C 0.74762 0.36813 0.18122 0.0
O632 O 0.62371 0.30795 0.19903 0.0
O633 O 0.65489 0.33522 0.13585 0.0
C634 C 0.60736 0.34426 0.31661 0.0
O635 O 0.72506 0.33444 0.20496 0.0
O636 O 0.72245 0.40024 0.15816 0.0
C637 C 0.63969 0.49773 0.18987 0.0
Fe638 Fe 0.62687 0.62433 0.25685 0.0
Fe639 Fe 0.70101 0.6986 0.22889 0.0
O640 O 0.65778 0.65597 0.21077 0.0
Fe641 Fe 0.64873 0.64617 0.14747 0.0
O642 O 0.58207 0.65742 0.15225 0.0
O643 O 0.57146 0.61891 0.22228 0.0
O644 O 0.60305 0.68242 0.28385 0.0
C645 C 0.633 0.71572 0.29628 0.0
C646 C 0.64664 0.55106 0.19048 0.0
O647 O 0.67705 0.70908 0.28821 0.0
C648 C 0.74881 0.66272 0.14972 0.0
O649 O 0.67879 0.6216 0.29883 0.0
O650 O 0.73826 0.64833 0.25252 0.0
O651 O 0.63942 0.5787 0.1537 0.0
O652 O 0.64887 0.56786 0.2333 0.0
C653 C 0.6504 0.7515 0.16312 0.0
O654 O 0.73375 0.6997 0.1713 0.0
O655 O 0.7161 0.63147 0.13944 0.0
C656 C 0.72406 0.62424 0.28988 0.0
O657 O 0.66047 0.74569 0.20752 0.0
O658 O 0.65524 0.71458 0.13374 0.0
C659 C 0.55444 0.63931 0.18487 0.0
Fe660 Fe 0.42845 0.62545 0.25509 0.0
Fe661 Fe 0.35415 0.69941 0.22756 0.0
O662 O 0.39648 0.65613 0.20917 0.0
Fe663 Fe 0.40523 0.64649 0.14558 0.0
O664 O 0.39398 0.5793 0.14999 0.0
O665 O 0.43183 0.56954 0.22059 0.0
O666 O 0.37058 0.60223 0.28313 0.0
C667 C 0.33771 0.63226 0.29576 0.0
C668 C 0.50098 0.64503 0.18714 0.0
O669 O 0.34432 0.67607 0.28706 0.0
C670 C 0.38931 0.74676 0.14794 0.0
O671 O 0.43253 0.67804 0.2972 0.0
O672 O 0.40455 0.73725 0.2513 0.0
O673 O 0.47262 0.63765 0.15084 0.0
O674 O 0.48514 0.64656 0.2304 0.0
C675 C 0.30061 0.64733 0.16246 0.0
O676 O 0.35246 0.73171 0.16978 0.0
O677 O 0.4201 0.71393 0.13724 0.0
C678 C 0.42851 0.72348 0.28911 0.0
O679 O 0.30685 0.65837 0.20666 0.0
O680 O 0.33689 0.65263 0.13266 0.0
C681 C 0.41198 0.55173 0.1828 0.0
Fe682 Fe 0.35256 0.34929 0.22735 0.0
Fe683 Fe 0.42471 0.42452 0.2568 0.0
O684 O 0.395 0.39286 0.20996 0.0
Fe685 Fe 0.40617 0.40121 0.14663 0.0
O686 O 0.33784 0.39517 0.13231 0.0
O687 O 0.30625 0.39048 0.20577 0.0
O688 O 0.3412 0.37245 0.28689 0.0
C689 C 0.33432 0.41611 0.29635 0.0
C690 C 0.38951 0.3003 0.14954 0.0
O691 O 0.36642 0.44678 0.28366 0.0
C692 C 0.50001 0.40423 0.1919 0.0
O693 O 0.40256 0.3122 0.25146 0.0
O694 O 0.42883 0.37202 0.29822 0.0
O695 O 0.42068 0.33325 0.13962 0.0
O696 O 0.35197 0.31594 0.16977 0.0
C697 C 0.41109 0.49704 0.18344 0.0
O698 O 0.48141 0.40446 0.2339 0.0
O699 O 0.47392 0.40977 0.15366 0.0
C700 C 0.4264 0.32664 0.28904 0.0
O701 O 0.42793 0.4802 0.22282 0.0
O702 O 0.39567 0.46874 0.14963 0.0
C703 C 0.30099 0.40114 0.16145 0.0
Fe704 Fe 0.82184 0.69869 0.69771 0.0
Fe705 Fe 0.90195 0.64554 0.64463 0.0
O706 O 0.83868 0.65458 0.6556 0.0
Fe707 Fe 0.79131 0.62314 0.62587 0.0
O708 O 0.75008 0.67623 0.62176 0.0
O709 O 0.79775 0.73557 0.64749 0.0
O710 O 0.87956 0.73177 0.69793 0.0
C711 C 0.8999 0.74677 0.6603 0.0
C712 C 0.7533 0.63197 0.71642 0.0
O713 O 0.90954 0.71337 0.62952 0.0
C714 C 0.86434 0.55 0.63919 0.0
O715 O 0.84364 0.6581 0.74453 0.0
O716 O 0.91689 0.65229 0.71252 0.0
O717 O 0.76473 0.60127 0.68405 0.0
O718 O 0.76239 0.67563 0.70912 0.0
C719 C 0.8565 0.64171 0.55133 0.0
O720 O 0.8982 0.578 0.65532 0.0
O721 O 0.82489 0.56719 0.62275 0.0
C722 C 0.88809 0.64751 0.74968 0.0
O723 O 0.89451 0.63643 0.57766 0.0
O724 O 0.81409 0.64223 0.56893 0.0
C725 C 0.75972 0.72161 0.62402 0.0
Fe726 Fe 0.42732 0.78453 0.61929 0.0
Fe727 Fe 0.38522 0.80774 0.71319 0.0
O728 O 0.40028 0.82865 0.65738 0.0
Fe729 Fe 0.39779 0.89239 0.64692 0.0
O730 O 0.39217 0.8881 0.5798 0.0
O731 O 0.4319 0.8212 0.56635 0.0
O732 O 0.36755 0.76352 0.60291 0.0
C733 C 0.33729 0.75391 0.63685 0.0
C734 C 0.49763 0.85408 0.6431 0.0
O735 O 0.34639 0.76139 0.68266 0.0
C736 C 0.41632 0.89164 0.74946 0.0
O737 O 0.43101 0.73043 0.66094 0.0
O738 O 0.44148 0.77355 0.72059 0.0
O739 O 0.46765 0.89139 0.64463 0.0
O740 O 0.48408 0.80928 0.63802 0.0
C741 C 0.30413 0.86741 0.6805 0.0
O742 O 0.42805 0.84963 0.74068 0.0
O743 O 0.39686 0.91279 0.71339 0.0
C744 C 0.44438 0.73205 0.70437 0.0
O745 O 0.3267 0.8437 0.7142 0.0
O746 O 0.32931 0.89046 0.64838 0.0
C747 C 0.41205 0.85874 0.5509 0.0
Fe748 Fe 0.14953 0.40664 0.64831 0.0
Fe749 Fe 0.25929 0.42916 0.62674 0.0
O750 O 0.21308 0.39756 0.65777 0.0
Fe751 Fe 0.23108 0.35495 0.70102 0.0
O752 O 0.20948 0.30759 0.66015 0.0
O753 O 0.13576 0.33845 0.65472 0.0
O754 O 0.15373 0.39475 0.58121 0.0
C755 C 0.18684 0.41169 0.5533 0.0
C756 C 0.15209 0.39081 0.7486 0.0
O757 O 0.22467 0.43198 0.57072 0.0
C758 C 0.2934 0.42877 0.72515 0.0
O759 O 0.15541 0.47394 0.63896 0.0
O760 O 0.23519 0.48682 0.64672 0.0
O761 O 0.17332 0.35376 0.73337 0.0
O762 O 0.14167 0.42179 0.71584 0.0
C763 C 0.29883 0.33793 0.63387 0.0
O764 O 0.30146 0.43315 0.67964 0.0
O765 O 0.25536 0.40508 0.73885 0.0
C766 C 0.19183 0.5026 0.64502 0.0
O767 O 0.28678 0.37097 0.60391 0.0
O768 O 0.29051 0.3448 0.67766 0.0
C769 C 0.16503 0.30173 0.64941 0.0
Fe770 Fe 0.64546 0.14499 0.64846 0.0
Fe771 Fe 0.62327 0.25395 0.62497 0.0
O772 O 0.65503 0.20849 0.65659 0.0
Fe773 Fe 0.69794 0.22731 0.69911 0.0
O774 O 0.74458 0.20536 0.65832 0.0
O775 O 0.71368 0.13145 0.65509 0.0
O776 O 0.65764 0.14899 0.58221 0.0
C777 C 0.64006 0.18106 0.5538 0.0
C778 C 0.66212 0.14865 0.74815 0.0
O779 O 0.61795 0.21805 0.56993 0.0
C780 C 0.62387 0.28874 0.72197 0.0
O781 O 0.57795 0.1509 0.63886 0.0
O782 O 0.56685 0.23056 0.6474 0.0
O783 O 0.69908 0.17016 0.73268 0.0
O784 O 0.63067 0.13785 0.71578 0.0
C785 C 0.71455 0.29442 0.63027 0.0
O786 O 0.62061 0.2969 0.67652 0.0
O787 O 0.64797 0.25149 0.73645 0.0
C788 C 0.55017 0.18765 0.64581 0.0
O789 O 0.68134 0.2809 0.60064 0.0
O790 O 0.70841 0.28645 0.67437 0.0
C791 C 0.75028 0.16082 0.64869 0.0
Fe792 Fe 0.9015 0.40405 0.39919 0.0
Fe793 Fe 0.7928 0.42834 0.41954 0.0
O794 O 0.83806 0.39514 0.38891 0.0
Fe795 Fe 0.8189 0.35254 0.34585 0.0
O796 O 0.84279 0.30452 0.38347 0.0
O797 O 0.91604 0.3369 0.38916 0.0
O798 O 0.89453 0.3903 0.46508 0.0
C799 C 0.86311 0.4106 0.4926 0.0
C800 C 0.89501 0.39425 0.29888 0.0
O801 O 0.8285 0.43527 0.47493 0.0
C802 C 0.75698 0.4228 0.32296 0.0
O803 O 0.89552 0.47121 0.41052 0.0
O804 O 0.81722 0.48379 0.39489 0.0
O805 O 0.8729 0.356 0.31046 0.0
O806 O 0.91224 0.41985 0.33353 0.0
C807 C 0.75276 0.3374 0.41736 0.0
O808 O 0.74944 0.42859 0.36822 0.0
O809 O 0.79446 0.40071 0.30886 0.0
C810 C 0.86029 0.4998 0.39986 0.0
O811 O 0.76575 0.37178 0.44569 0.0
O812 O 0.76102 0.34084 0.3729 0.0
C813 C 0.88762 0.2994 0.3918 0.0
Fe814 Fe 0.64651 0.90301 0.40212 0.0
Fe815 Fe 0.62329 0.7935 0.42316 0.0
O816 O 0.65526 0.83943 0.39247 0.0
Fe817 Fe 0.6976 0.82104 0.3492 0.0
O818 O 0.74489 0.84195 0.39025 0.0
O819 O 0.71485 0.91594 0.39599 0.0
O820 O 0.65775 0.89861 0.46932 0.0
C821 C 0.63976 0.86579 0.49688 0.0
C822 C 0.66245 0.90067 0.30185 0.0
O823 O 0.61993 0.82799 0.47908 0.0
C824 C 0.62321 0.75954 0.32514 0.0
O825 O 0.57912 0.89775 0.41096 0.0
O826 O 0.5666 0.8182 0.40206 0.0
O827 O 0.6993 0.87883 0.3169 0.0
O828 O 0.63165 0.91136 0.33468 0.0
C829 C 0.71405 0.75286 0.41634 0.0
O830 O 0.6192 0.7514 0.37057 0.0
O831 O 0.64722 0.7973 0.31133 0.0
C832 C 0.55075 0.86146 0.40361 0.0
O833 O 0.68116 0.76547 0.44637 0.0
O834 O 0.70743 0.76154 0.37254 0.0
C835 C 0.75112 0.88615 0.4013 0.0
Fe836 Fe 0.26143 0.62449 0.42335 0.0
Fe837 Fe 0.23184 0.69659 0.34809 0.0
O838 O 0.21455 0.65467 0.39191 0.0
Fe839 Fe 0.15124 0.64447 0.40138 0.0
O840 O 0.15635 0.65723 0.46762 0.0
O841 O 0.22737 0.62052 0.47924 0.0
O842 O 0.28792 0.6828 0.44603 0.0
C843 C 0.29873 0.71566 0.41562 0.0
C844 C 0.19556 0.55068 0.40551 0.0
O845 O 0.29096 0.70777 0.3718 0.0
C846 C 0.15256 0.65912 0.30118 0.0
O847 O 0.30337 0.62069 0.37083 0.0
O848 O 0.25631 0.64614 0.31112 0.0
O849 O 0.15815 0.57758 0.41173 0.0
O850 O 0.23813 0.56794 0.40292 0.0
C851 C 0.16575 0.74936 0.39891 0.0
O852 O 0.17392 0.69656 0.31565 0.0
O853 O 0.14282 0.62836 0.33428 0.0
C854 C 0.29446 0.623 0.32536 0.0
O855 O 0.21011 0.74398 0.38829 0.0
O856 O 0.13666 0.71228 0.39405 0.0
C857 C 0.1895 0.64073 0.49567 0.0
Fe858 Fe 0.40446 0.14904 0.4045 0.0
Fe859 Fe 0.42756 0.2596 0.4226 0.0
O860 O 0.39581 0.21206 0.39321 0.0
Fe861 Fe 0.35153 0.22864 0.35101 0.0
O862 O 0.31828 0.17097 0.35043 0.0
O863 O 0.3362 0.1414 0.41898 0.0
O864 O 0.41272 0.15666 0.47145 0.0
C865 C 0.40837 0.19482 0.49766 0.0
C866 C 0.403 0.16265 0.29925 0.0
O867 O 0.40912 0.23718 0.48001 0.0
C868 C 0.4181 0.29697 0.33173 0.0
O869 O 0.47232 0.15283 0.39477 0.0
O870 O 0.48379 0.22671 0.42577 0.0
O871 O 0.3921 0.20697 0.30415 0.0
O872 O 0.3984 0.13399 0.33653 0.0
C873 C 0.32896 0.29019 0.42496 0.0
O874 O 0.44901 0.2858 0.36402 0.0
O875 O 0.37444 0.28812 0.33953 0.0
C876 C 0.50054 0.18677 0.4106 0.0
O877 O 0.3743 0.30019 0.42682 0.0
O878 O 0.31482 0.25234 0.40141 0.0
C879 C 0.30289 0.15061 0.38787 0.0
Fe880 Fe 0.64558 0.90198 0.64741 0.0
Fe881 Fe 0.6992 0.82127 0.69933 0.0
O882 O 0.65675 0.83864 0.65577 0.0
Fe883 Fe 0.62703 0.7918 0.6241 0.0
O884 O 0.62382 0.82577 0.56842 0.0
O885 O 0.65607 0.89897 0.57987 0.0
O886 O 0.71391 0.9163 0.65344 0.0
C887 C 0.75076 0.88716 0.64747 0.0
C888 C 0.55173 0.85671 0.64439 0.0
O889 O 0.74549 0.84284 0.65812 0.0
C890 C 0.62533 0.75962 0.72198 0.0
O891 O 0.63108 0.90899 0.71537 0.0
O892 O 0.69979 0.87886 0.73267 0.0
O893 O 0.57033 0.81471 0.64416 0.0
O894 O 0.57783 0.89494 0.63885 0.0
C895 C 0.71742 0.75226 0.63252 0.0
O896 O 0.64923 0.79716 0.73646 0.0
O897 O 0.62291 0.75038 0.67661 0.0
C898 C 0.66226 0.89908 0.74831 0.0
O899 O 0.71055 0.76173 0.67618 0.0
O900 O 0.68532 0.76494 0.60185 0.0
C901 C 0.64065 0.86515 0.55158 0.0
Fe902 Fe 0.64925 0.15034 0.40281 0.0
Fe903 Fe 0.62838 0.25643 0.43656 0.0
O904 O 0.65647 0.2146 0.39736 0.0
Fe905 Fe 0.69633 0.237 0.35397 0.0
O906 O 0.65482 0.21586 0.30655 0.0
O907 O 0.65511 0.14066 0.33444 0.0
O908 O 0.58237 0.15487 0.39217 0.0
C909 C 0.55503 0.18479 0.41482 0.0
C910 C 0.74863 0.15778 0.38443 0.0
O911 O 0.57341 0.21845 0.44136 0.0
C912 C 0.72438 0.29421 0.42954 0.0
O913 O 0.64004 0.15111 0.47059 0.0
O914 O 0.65723 0.22767 0.48763 0.0
O915 O 0.73207 0.18137 0.34909 0.0
O916 O 0.71732 0.14318 0.41543 0.0
C917 C 0.62543 0.31054 0.35411 0.0
O918 O 0.67951 0.30098 0.43864 0.0
O919 O 0.73609 0.25776 0.40346 0.0
C920 C 0.65107 0.18437 0.50134 0.0
O921 O 0.59896 0.28924 0.38549 0.0
O922 O 0.66882 0.29709 0.34821 0.0
C923 C 0.64813 0.17072 0.29887 0.0
Fe924 Fe 0.81993 0.70054 0.35203 0.0
Fe925 Fe 0.90053 0.64725 0.40415 0.0
O926 O 0.83722 0.65672 0.39396 0.0
Fe927 Fe 0.79034 0.62529 0.42416 0.0
O928 O 0.76384 0.60259 0.36585 0.0
O929 O 0.76081 0.67683 0.34087 0.0
O930 O 0.84165 0.66033 0.30465 0.0
C931 C 0.88601 0.64971 0.29926 0.0
C932 C 0.7573 0.72327 0.42562 0.0
O933 O 0.9151 0.65458 0.33634 0.0
C934 C 0.85622 0.64314 0.49795 0.0
O935 O 0.87784 0.73297 0.35207 0.0
O936 O 0.90895 0.71435 0.42026 0.0
O937 O 0.7484 0.6778 0.42795 0.0
O938 O 0.79545 0.73751 0.40248 0.0
C939 C 0.86227 0.55297 0.40792 0.0
O940 O 0.89362 0.63689 0.47105 0.0
O941 O 0.81365 0.64574 0.48069 0.0
C942 C 0.8992 0.74745 0.3895 0.0
O943 O 0.89541 0.58101 0.39139 0.0
O944 O 0.8244 0.5694 0.42814 0.0
C945 C 0.75302 0.63301 0.333 0.0
Fe946 Fe 0.42486 0.79176 0.4243 0.0
Fe947 Fe 0.35072 0.81973 0.35001 0.0
O948 O 0.39395 0.83784 0.39266 0.0
Fe949 Fe 0.40301 0.90115 0.40245 0.0
O950 O 0.46967 0.89635 0.39122 0.0
O951 O 0.48027 0.82632 0.42972 0.0
O952 O 0.44868 0.76476 0.36621 0.0
C953 C 0.41873 0.75234 0.33292 0.0
C954 C 0.4051 0.85813 0.49757 0.0
O955 O 0.37468 0.76042 0.33955 0.0
C956 C 0.30294 0.89891 0.38589 0.0
O957 O 0.37294 0.74978 0.42704 0.0
O958 O 0.31344 0.79611 0.40026 0.0
O959 O 0.41232 0.89492 0.46993 0.0
O960 O 0.40287 0.81531 0.48077 0.0
C961 C 0.40137 0.8855 0.29712 0.0
O962 O 0.31799 0.87733 0.34891 0.0
O963 O 0.33564 0.90919 0.41714 0.0
C964 C 0.32767 0.7588 0.42441 0.0
O965 O 0.39129 0.8411 0.30294 0.0
O966 O 0.39651 0.91488 0.33404 0.0
C967 C 0.4973 0.86373 0.40933 0.0
Fe968 Fe 0.22993 0.35091 0.3499 0.0
Fe969 Fe 0.14984 0.40399 0.40307 0.0
O970 O 0.21311 0.39303 0.39401 0.0
Fe971 Fe 0.26048 0.42275 0.42545 0.0
O972 O 0.3017 0.42687 0.37237 0.0
O973 O 0.25403 0.40111 0.313 0.0
O974 O 0.1722 0.3507 0.31684 0.0
C975 C 0.15186 0.38832 0.30184 0.0
C976 C 0.29847 0.3322 0.41663 0.0
O977 O 0.14223 0.41911 0.33525 0.0
C978 C 0.18745 0.40943 0.4986 0.0
O979 O 0.20813 0.3041 0.39051 0.0
O980 O 0.13489 0.33611 0.39632 0.0
O981 O 0.28705 0.36457 0.44732 0.0
O982 O 0.28939 0.3395 0.37297 0.0
C983 C 0.19528 0.4973 0.40691 0.0
O984 O 0.15359 0.3933 0.47061 0.0
O985 O 0.2269 0.42587 0.48142 0.0
C986 C 0.16368 0.29895 0.40109 0.0
O987 O 0.15727 0.47096 0.41218 0.0
O988 O 0.23769 0.4797 0.40638 0.0
C989 C 0.29201 0.42464 0.327 0.0
Fe990 Fe 0.35008 0.23127 0.69761 0.0
Fe991 Fe 0.40196 0.1502 0.64462 0.0
O992 O 0.39339 0.21357 0.65527 0.0
Fe993 Fe 0.42522 0.26006 0.62516 0.0
O994 O 0.44865 0.28609 0.68357 0.0
O995 O 0.37446 0.29016 0.70909 0.0
O996 O 0.39054 0.20882 0.74448 0.0
C997 C 0.40053 0.16431 0.74957 0.0
C998 C 0.3277 0.29435 0.62446 0.0
O999 O 0.39491 0.13548 0.7124 0.0
C1000 C 0.40634 0.19495 0.55101 0.0
O1001 O 0.31681 0.17385 0.6974 0.0
O1002 O 0.33465 0.14281 0.62894 0.0
O1003 O 0.3733 0.30265 0.62191 0.0
O1004 O 0.313 0.25644 0.64761 0.0
C1005 C 0.49668 0.18665 0.6398 0.0
O1006 O 0.41201 0.15736 0.57771 0.0
O1007 O 0.4041 0.23739 0.56852 0.0
C1008 C 0.30185 0.15278 0.65995 0.0
O1009 O 0.46844 0.15397 0.65674 0.0
O1010 O 0.48041 0.22512 0.62066 0.0
C1011 C 0.41845 0.29801 0.71637 0.0
Fe1012 Fe 0.90224 0.4003 0.64198 0.0
Fe1013 Fe 0.79249 0.42187 0.61945 0.0
O1014 O 0.8387 0.39084 0.65105 0.0
Fe1015 Fe 0.82069 0.34759 0.69367 0.0
O1016 O 0.84229 0.38847 0.74102 0.0
O1017 O 0.91601 0.39388 0.71017 0.0
O1018 O 0.89806 0.4674 0.65387 0.0
C1019 C 0.86495 0.49531 0.63692 0.0
C1020 C 0.89967 0.30001 0.65781 0.0
O1021 O 0.82712 0.47788 0.61661 0.0
C1022 C 0.75836 0.32347 0.61986 0.0
O1023 O 0.89636 0.40965 0.57467 0.0
O1024 O 0.81659 0.40186 0.5618 0.0
O1025 O 0.87845 0.31524 0.69486 0.0
O1026 O 0.9101 0.33277 0.62683 0.0
C1027 C 0.75294 0.41475 0.71066 0.0
O1028 O 0.75032 0.36898 0.61547 0.0
O1029 O 0.7964 0.30977 0.64354 0.0
C1030 C 0.85994 0.40356 0.54602 0.0
O1031 O 0.765 0.44471 0.67763 0.0
O1032 O 0.76127 0.37096 0.70381 0.0
C1033 C 0.88674 0.3992 0.74689 0.0
Fe1034 Fe 0.23282 0.70275 0.69612 0.0
Fe1035 Fe 0.15024 0.64942 0.64458 0.0
O1036 O 0.21368 0.65971 0.65349 0.0
Fe1037 Fe 0.25895 0.6291 0.62028 0.0
O1038 O 0.28599 0.60292 0.67683 0.0
O1039 O 0.29069 0.6757 0.70782 0.0
O1040 O 0.20893 0.66509 0.74411 0.0
C1041 C 0.1641 0.65678 0.74924 0.0
C1042 C 0.29476 0.72568 0.62588 0.0
O1043 O 0.13568 0.65944 0.71173 0.0
C1044 C 0.19146 0.6488 0.54883 0.0
O1045 O 0.17882 0.73814 0.69266 0.0
O1046 O 0.1395 0.71509 0.62879 0.0
O1047 O 0.30229 0.68043 0.62006 0.0
O1048 O 0.25727 0.73977 0.64798 0.0
C1049 C 0.18865 0.55602 0.638 0.0
O1050 O 0.15623 0.63811 0.57741 0.0
O1051 O 0.23453 0.65378 0.56484 0.0
C1052 C 0.15672 0.74973 0.65441 0.0
O1053 O 0.15722 0.58353 0.65831 0.0
O1054 O 0.22325 0.57371 0.61332 0.0
C1055 C 0.29897 0.63123 0.71122 0.0
loop_
_geom_bond_atom_site_label_1
_geom_bond_atom_site_label_2
_geom_bond_distance
_geom_bond_site_symmetry_2
_ccdc_geom_bond_type
Fe0 O2 1.918 . S
Fe0 O5 1.997 . S
Fe0 O6 2.002 . S
Fe0 O11 1.976 . S
Fe0 O14 1.996 . S
Fe1 O2 1.918 . S
Fe1 O9 1.997 . S
Fe1 O12 1.996 . S
Fe1 O16 1.976 . S
Fe1 O19 2.002 . S
O2 Fe0 1.918 . S
O2 Fe1 1.918 . S
O2 Fe3 1.918 . S
Fe3 O2 1.918 . S
Fe3 O4 2.002 . S
Fe3 O13 1.976 . S
Fe3 O17 1.996 . S
Fe3 O20 1.997 . S
O4 Fe3 2.002 . S
O4 C21 1.295 . S
O5 Fe0 1.997 . S
O5 C21 1.235 . S
O6 Fe0 2.002 . S
O6 C7 1.295 . S
C7 O6 1.295 . S
C7 O9 1.235 . S
C8 O13 1.287 . S
C8 O14 1.255 . S
O9 Fe1 1.997 . S
O9 C7 1.235 . S
C10 O16 1.287 . S
C10 O17 1.255 . S
O11 Fe0 1.976 . S
O11 C18 1.287 . S
O12 Fe1 1.996 . S
O12 C18 1.255 . S
O13 Fe3 1.976 . S
O13 C8 1.287 . S
O14 Fe0 1.996 . S
O14 C8 1.255 . S
C15 O19 1.295 . S
C15 O20 1.235 . S
O16 Fe1 1.976 . S
O16 C10 1.287 . S
O17 Fe3 1.996 . S
O17 C10 1.255 . S
C18 O11 1.287 . S
C18 O12 1.255 . S
O19 Fe1 2.002 . S
O19 C15 1.295 . S
O20 Fe3 1.997 . S
O20 C15 1.235 . S
C21 O4 1.295 . S
C21 O5 1.235 . S
Fe22 O24 1.918 . S
Fe22 O27 1.997 . S
Fe22 O28 2.002 . S
Fe22 O33 1.976 . S
Fe22 O36 1.996 . S
Fe23 O24 1.918 . S
Fe23 O31 1.997 . S
Fe23 O34 1.996 . S
Fe23 O38 1.976 . S
Fe23 O41 2.002 . S
O24 Fe22 1.918 . S
O24 Fe23 1.918 . S
O24 Fe25 1.918 . S
Fe25 O24 1.918 . S
Fe25 O26 2.002 . S
Fe25 O35 1.976 . S
Fe25 O39 1.996 . S
Fe25 O42 1.997 . S
O26 Fe25 2.002 . S
O26 C43 1.295 . S
O27 Fe22 1.997 . S
O27 C43 1.235 . S
O28 Fe22 2.002 . S
O28 C29 1.295 . S
C29 O28 1.295 . S
C29 O31 1.235 . S
C30 O35 1.287 . S
C30 O36 1.255 . S
O31 Fe23 1.997 . S
O31 C29 1.235 . S
C32 O38 1.287 . S
C32 O39 1.255 . S
O33 Fe22 1.976 . S
O33 C40 1.287 . S
O34 Fe23 1.996 . S
O34 C40 1.255 . S
O35 Fe25 1.976 . S
O35 C30 1.287 . S
O36 Fe22 1.996 . S
O36 C30 1.255 . S
C37 O41 1.295 . S
C37 O42 1.235 . S
O38 Fe23 1.976 . S
O38 C32 1.287 . S
O39 Fe25 1.996 . S
O39 C32 1.255 . S
C40 O33 1.287 . S
C40 O34 1.255 . S
O41 Fe23 2.002 . S
O41 C37 1.295 . S
O42 Fe25 1.997 . S
O42 C37 1.235 . S
C43 O26 1.295 . S
C43 O27 1.235 . S
Fe44 O46 1.918 . S
Fe44 O49 1.997 . S
Fe44 O50 2.002 . S
Fe44 O55 1.976 . S
Fe44 O58 1.996 . S
Fe45 O46 1.918 . S
Fe45 O53 1.997 . S
Fe45 O56 1.996 . S
Fe45 O60 1.976 . S
Fe45 O63 2.002 . S
O46 Fe44 1.918 . S
O46 Fe45 1.918 . S
O46 Fe47 1.918 . S
Fe47 O46 1.918 . S
Fe47 O48 2.002 . S
Fe47 O57 1.976 . S
Fe47 O61 1.996 . S
Fe47 O64 1.997 . S
O48 Fe47 2.002 . S
O48 C65 1.295 . S
O49 Fe44 1.997 . S
O49 C65 1.235 . S
O50 Fe44 2.002 . S
O50 C51 1.295 . S
C51 O50 1.295 . S
C51 O53 1.235 . S
C52 O57 1.287 . S
C52 O58 1.255 . S
O53 Fe45 1.997 . S
O53 C51 1.235 . S
C54 O60 1.287 . S
C54 O61 1.255 . S
O55 Fe44 1.976 . S
O55 C62 1.287 . S
O56 Fe45 1.996 . S
O56 C62 1.255 . S
O57 Fe47 1.976 . S
O57 C52 1.287 . S
O58 Fe44 1.996 . S
O58 C52 1.255 . S
C59 O63 1.295 . S
C59 O64 1.235 . S
O60 Fe45 1.976 . S
O60 C54 1.287 . S
O61 Fe47 1.996 . S
O61 C54 1.255 . S
C62 O55 1.287 . S
C62 O56 1.255 . S
O63 Fe45 2.002 . S
O63 C59 1.295 . S
O64 Fe47 1.997 . S
O64 C59 1.235 . S
C65 O48 1.295 . S
C65 O49 1.235 . S
Fe66 O68 1.918 . S
Fe66 O71 1.997 . S
Fe66 O72 2.002 . S
Fe66 O77 1.976 . S
Fe66 O80 1.996 . S
Fe67 O68 1.918 . S
Fe67 O75 1.997 . S
Fe67 O78 1.996 . S
Fe67 O82 1.976 . S
Fe67 O85 2.002 . S
O68 Fe66 1.918 . S
O68 Fe67 1.918 . S
O68 Fe69 1.918 . S
Fe69 O68 1.918 . S
Fe69 O70 2.002 . S
Fe69 O79 1.976 . S
Fe69 O83 1.996 . S
Fe69 O86 1.997 . S
O70 Fe69 2.002 . S
O70 C87 1.295 . S
O71 Fe66 1.997 . S
O71 C87 1.235 . S
O72 Fe66 2.002 . S
O72 C73 1.295 . S
C73 O72 1.295 . S
C73 O75 1.235 . S
C74 O79 1.287 . S
C74 O80 1.255 . S
O75 Fe67 1.997 . S
O75 C73 1.235 . S
C76 O82 1.287 . S
C76 O83 1.255 . S
O77 Fe66 1.976 . S
O77 C84 1.287 . S
O78 Fe67 1.996 . S
O78 C84 1.255 . S
O79 Fe69 1.976 . S
O79 C74 1.287 . S
O80 Fe66 1.996 . S
O80 C74 1.255 . S
C81 O85 1.295 . S
C81 O86 1.235 . S
O82 Fe67 1.976 . S
O82 C76 1.287 . S
O83 Fe69 1.996 . S
O83 C76 1.255 . S
C84 O77 1.287 . S
C84 O78 1.255 . S
O85 Fe67 2.002 . S
O85 C81 1.295 . S
O86 Fe69 1.997 . S
O86 C81 1.235 . S
C87 O70 1.295 . S
C87 O71 1.235 . S
Fe88 O90 1.918 . S
Fe88 O93 1.997 . S
Fe88 O94 2.002 . S
Fe88 O99 1.976 . S
Fe88 O102 1.996 . S
Fe89 O90 1.918 . S
Fe89 O97 1.997 . S
Fe89 O100 1.996 . S
Fe89 O104 1.976 . S
Fe89 O107 2.002 . S
O90 Fe88 1.918 . S
O90 Fe89 1.918 . S
O90 Fe91 1.918 . S
Fe91 O90 1.918 . S
Fe91 O92 2.002 . S
Fe91 O101 1.976 . S
Fe91 O105 1.996 . S
Fe91 O108 1.997 . S
O92 Fe91 2.002 . S
O92 C109 1.295 . S
O93 Fe88 1.997 . S
O93 C109 1.235 . S
O94 Fe88 2.002 . S
O94 C95 1.295 . S
C95 O94 1.295 . S
C95 O97 1.235 . S
C96 O101 1.287 . S
C96 O102 1.255 . S
O97 Fe89 1.997 . S
O97 C95 1.235 . S
C98 O104 1.287 . S
C98 O105 1.255 . S
O99 Fe88 1.976 . S
O99 C106 1.287 . S
O100 Fe89 1.996 . S
O100 C106 1.255 . S
O101 Fe91 1.976 . S
O101 C96 1.287 . S
O102 Fe88 1.996 . S
O102 C96 1.255 . S
C103 O107 1.295 . S
C103 O108 1.235 . S
O104 Fe89 1.976 . S
O104 C98 1.287 . S
O105 Fe91 1.996 . S
O105 C98 1.255 . S
C106 O99 1.287 . S
C106 O100 1.255 . S
O107 Fe89 2.002 . S
O107 C103 1.295 . S
O108 Fe91 1.997 . S
O108 C103 1.235 . S
C109 O92 1.295 . S
C109 O93 1.235 . S
Fe110 O112 1.918 . S
Fe110 O115 1.997 . S
Fe110 O116 2.002 . S
Fe110 O121 1.976 . S
Fe110 O124 1.996 . S
Fe111 O112 1.918 . S
Fe111 O119 1.997 . S
Fe111 O122 1.996 . S
Fe111 O126 1.976 . S
Fe111 O129 2.002 . S
O112 Fe110 1.918 . S
O112 Fe111 1.918 . S
O112 Fe113 1.918 . S
Fe113 O112 1.918 . S
Fe113 O114 2.002 . S
Fe113 O123 1.976 . S
Fe113 O127 1.996 . S
Fe113 O130 1.997 . S
O114 Fe113 2.002 . S
O114 C131 1.295 . S
O115 Fe110 1.997 . S
O115 C131 1.235 . S
O116 Fe110 2.002 . S
O116 C117 1.295 . S
C117 O116 1.295 . S
C117 O119 1.235 . S
C118 O123 1.287 . S
C118 O124 1.255 . S
O119 Fe111 1.997 . S
O119 C117 1.235 . S
C120 O126 1.287 . S
C120 O127 1.255 . S
O121 Fe110 1.976 . S
O121 C128 1.287 . S
O122 Fe111 1.996 . S
O122 C128 1.255 . S
O123 Fe113 1.976 . S
O123 C118 1.287 . S
O124 Fe110 1.996 . S
O124 C118 1.255 . S
C125 O129 1.295 . S
C125 O130 1.235 . S
O126 Fe111 1.976 . S
O126 C120 1.287 . S
O127 Fe113 1.996 . S
O127 C120 1.255 . S
C128 O121 1.287 . S
C128 O122 1.255 . S
O129 Fe111 2.002 . S
O129 C125 1.295 . S
O130 Fe113 1.997 . S
O130 C125 1.235 . S
C131 O114 1.295 . S
C131 O115 1.235 . S
Fe132 O134 1.918 . S
Fe132 O137 1.997 . S
Fe132 O138 2.002 . S
Fe132 O143 1.976 . S
Fe132 O146 1.996 . S
Fe133 O134 1.918 . S
Fe133 O141 1.997 . S
Fe133 O144 1.996 . S
Fe133 O148 1.976 . S
Fe133 O151 2.002 . S
O134 Fe132 1.918 . S
O134 Fe133 1.918 . S
O134 Fe135 1.918 . S
Fe135 O134 1.918 . S
Fe135 O136 2.002 . S
Fe135 O145 1.976 . S
Fe135 O149 1.996 . S
Fe135 O152 1.997 . S
O136 Fe135 2.002 . S
O136 C153 1.295 . S
O137 Fe132 1.997 . S
O137 C153 1.235 . S
O138 Fe132 2.002 . S
O138 C139 1.295 . S
C139 O138 1.295 . S
C139 O141 1.235 . S
C140 O145 1.287 . S
C140 O146 1.255 . S
O141 Fe133 1.997 . S
O141 C139 1.235 . S
C142 O148 1.287 . S
C142 O149 1.255 . S
O143 Fe132 1.976 . S
O143 C150 1.287 . S
O144 Fe133 1.996 . S
O144 C150 1.255 . S
O145 Fe135 1.976 . S
O145 C140 1.287 . S
O146 Fe132 1.996 . S
O146 C140 1.255 . S
C147 O151 1.295 . S
C147 O152 1.235 . S
O148 Fe133 1.976 . S
O148 C142 1.287 . S
O149 Fe135 1.996 . S
O149 C142 1.255 . S
C150 O143 1.287 . S
C150 O144 1.255 . S
O151 Fe133 2.002 . S
O151 C147 1.295 . S
O152 Fe135 1.997 . S
O152 C147 1.235 . S
C153 O136 1.295 . S
C153 O137 1.235 . S
Fe154 O156 1.918 . S
Fe154 O159 1.997 . S
Fe154 O160 2.002 . S
Fe154 O165 1.976 . S
Fe154 O168 1.996 . S
Fe155 O156 1.918 . S
Fe155 O163 1.997 . S
Fe155 O166 1.996 . S
Fe155 O170 1.976 . S
Fe155 O173 2.002 . S
O156 Fe154 1.918 . S
O156 Fe155 1.918 . S
O156 Fe157 1.918 . S
Fe157 O156 1.918 . S
Fe157 O158 2.002 . S
Fe157 O167 1.976 . S
Fe157 O171 1.996 . S
Fe157 O174 1.997 . S
O158 Fe157 2.002 . S
O158 C175 1.295 . S
O159 Fe154 1.997 . S
O159 C175 1.235 . S
O160 Fe154 2.002 . S
O160 C161 1.295 . S
C161 O160 1.295 . S
C161 O163 1.235 . S
C162 O167 1.287 . S
C162 O168 1.255 . S
O163 Fe155 1.997 . S
O163 C161 1.235 . S
C164 O170 1.287 . S
C164 O171 1.255 . S
O165 Fe154 1.976 . S
O165 C172 1.287 . S
O166 Fe155 1.996 . S
O166 C172 1.255 . S
O167 Fe157 1.976 . S
O167 C162 1.287 . S
O168 Fe154 1.996 . S
O168 C162 1.255 . S
C169 O173 1.295 . S
C169 O174 1.235 . S
O170 Fe155 1.976 . S
O170 C164 1.287 . S
O171 Fe157 1.996 . S
O171 C164 1.255 . S
C172 O165 1.287 . S
C172 O166 1.255 . S
O173 Fe155 2.002 . S
O173 C169 1.295 . S
O174 Fe157 1.997 . S
O174 C169 1.235 . S
C175 O158 1.295 . S
C175 O159 1.235 . S
Fe176 O178 1.918 . S
Fe176 O181 1.997 . S
Fe176 O182 2.002 . S
Fe176 O187 1.976 . S
Fe176 O190 1.996 . S
Fe177 O178 1.918 . S
Fe177 O185 1.997 . S
Fe177 O188 1.996 . S
Fe177 O192 1.976 . S
Fe177 O195 2.002 . S
O178 Fe176 1.918 . S
O178 Fe177 1.918 . S
O178 Fe179 1.918 . S
Fe179 O178 1.918 . S
Fe179 O180 2.002 . S
Fe179 O189 1.976 . S
Fe179 O193 1.996 . S
Fe179 O196 1.997 . S
O180 Fe179 2.002 . S
O180 C197 1.295 . S
O181 Fe176 1.997 . S
O181 C197 1.235 . S
O182 Fe176 2.002 . S
O182 C183 1.295 . S
C183 O182 1.295 . S
C183 O185 1.235 . S
C184 O189 1.287 . S
C184 O190 1.255 . S
O185 Fe177 1.997 . S
O185 C183 1.235 . S
C186 O192 1.287 . S
C186 O193 1.255 . S
O187 Fe176 1.976 . S
O187 C194 1.287 . S
O188 Fe177 1.996 . S
O188 C194 1.255 . S
O189 Fe179 1.976 . S
O189 C184 1.287 . S
O190 Fe176 1.996 . S
O190 C184 1.255 . S
C191 O195 1.295 . S
C191 O196 1.235 . S
O192 Fe177 1.976 . S
O192 C186 1.287 . S
O193 Fe179 1.996 . S
O193 C186 1.255 . S
C194 O187 1.287 . S
C194 O188 1.255 . S
O195 Fe177 2.002 . S
O195 C191 1.295 . S
O196 Fe179 1.997 . S
O196 C191 1.235 . S
C197 O180 1.295 . S
C197 O181 1.235 . S
Fe198 O200 1.918 . S
Fe198 O203 1.997 . S
Fe198 O204 2.002 . S
Fe198 O209 1.976 . S
Fe198 O212 1.996 . S
Fe199 O200 1.918 . S
Fe199 O207 1.997 . S
Fe199 O210 1.996 . S
Fe199 O214 1.976 . S
Fe199 O217 2.002 . S
O200 Fe198 1.918 . S
O200 Fe199 1.918 . S
O200 Fe201 1.918 . S
Fe201 O200 1.918 . S
Fe201 O202 2.002 . S
Fe201 O211 1.976 . S
Fe201 O215 1.996 . S
Fe201 O218 1.997 . S
O202 Fe201 2.002 . S
O202 C219 1.295 . S
O203 Fe198 1.997 . S
O203 C219 1.235 . S
O204 Fe198 2.002 . S
O204 C205 1.295 . S
C205 O204 1.295 . S
C205 O207 1.235 . S
C206 O211 1.287 . S
C206 O212 1.255 . S
O207 Fe199 1.997 . S
O207 C205 1.235 . S
C208 O214 1.287 . S
C208 O215 1.255 . S
O209 Fe198 1.976 . S
O209 C216 1.287 . S
O210 Fe199 1.996 . S
O210 C216 1.255 . S
O211 Fe201 1.976 . S
O211 C206 1.287 . S
O212 Fe198 1.996 . S
O212 C206 1.255 . S
C213 O217 1.295 . S
C213 O218 1.235 . S
O214 Fe199 1.976 . S
O214 C208 1.287 . S
O215 Fe201 1.996 . S
O215 C208 1.255 . S
C216 O209 1.287 . S
C216 O210 1.255 . S
O217 Fe199 2.002 . S
O217 C213 1.295 . S
O218 Fe201 1.997 . S
O218 C213 1.235 . S
C219 O202 1.295 . S
C219 O203 1.235 . S
Fe220 O222 1.918 . S
Fe220 O225 1.997 . S
Fe220 O226 2.002 . S
Fe220 O231 1.976 . S
Fe220 O234 1.996 . S
Fe221 O222 1.918 . S
Fe221 O229 1.997 . S
Fe221 O232 1.996 . S
Fe221 O236 1.976 . S
Fe221 O239 2.002 . S
O222 Fe220 1.918 . S
O222 Fe221 1.918 . S
O222 Fe223 1.918 . S
Fe223 O222 1.918 . S
Fe223 O224 2.002 . S
Fe223 O233 1.976 . S
Fe223 O237 1.996 . S
Fe223 O240 1.997 . S
O224 Fe223 2.002 . S
O224 C241 1.295 . S
O225 Fe220 1.997 . S
O225 C241 1.235 . S
O226 Fe220 2.002 . S
O226 C227 1.295 . S
C227 O226 1.295 . S
C227 O229 1.235 . S
C228 O233 1.287 . S
C228 O234 1.255 . S
O229 Fe221 1.997 . S
O229 C227 1.235 . S
C230 O236 1.287 . S
C230 O237 1.255 . S
O231 Fe220 1.976 . S
O231 C238 1.287 . S
O232 Fe221 1.996 . S
O232 C238 1.255 . S
O233 Fe223 1.976 . S
O233 C228 1.287 . S
O234 Fe220 1.996 . S
O234 C228 1.255 . S
C235 O239 1.295 . S
C235 O240 1.235 . S
O236 Fe221 1.976 . S
O236 C230 1.287 . S
O237 Fe223 1.996 . S
O237 C230 1.255 . S
C238 O231 1.287 . S
C238 O232 1.255 . S
O239 Fe221 2.002 . S
O239 C235 1.295 . S
O240 Fe223 1.997 . S
O240 C235 1.235 . S
C241 O224 1.295 . S
C241 O225 1.235 . S
Fe242 O244 1.918 . S
Fe242 O247 1.997 . S
Fe242 O248 2.002 . S
Fe242 O253 1.976 . S
Fe242 O256 1.996 . S
Fe243 O244 1.918 . S
Fe243 O251 1.997 . S
Fe243 O254 1.996 . S
Fe243 O258 1.976 . S
Fe243 O261 2.002 . S
O244 Fe242 1.918 . S
O244 Fe243 1.918 . S
O244 Fe245 1.918 . S
Fe245 O244 1.918 . S
Fe245 O246 2.002 . S
Fe245 O255 1.976 . S
Fe245 O259 1.996 . S
Fe245 O262 1.997 . S
O246 Fe245 2.002 . S
O246 C263 1.295 . S
O247 Fe242 1.997 . S
O247 C263 1.235 . S
O248 Fe242 2.002 . S
O248 C249 1.295 . S
C249 O248 1.295 . S
C249 O251 1.235 . S
C250 O255 1.287 . S
C250 O256 1.255 . S
O251 Fe243 1.997 . S
O251 C249 1.235 . S
C252 O258 1.287 . S
C252 O259 1.255 . S
O253 Fe242 1.976 . S
O253 C260 1.287 . S
O254 Fe243 1.996 . S
O254 C260 1.255 . S
O255 Fe245 1.976 . S
O255 C250 1.287 . S
O256 Fe242 1.996 . S
O256 C250 1.255 . S
C257 O261 1.295 . S
C257 O262 1.235 . S
O258 Fe243 1.976 . S
O258 C252 1.287 . S
O259 Fe245 1.996 . S
O259 C252 1.255 . S
C260 O253 1.287 . S
C260 O254 1.255 . S
O261 Fe243 2.002 . S
O261 C257 1.295 . S
O262 Fe245 1.997 . S
O262 C257 1.235 . S
C263 O246 1.295 . S
C263 O247 1.235 . S
Fe264 O266 1.918 . S
Fe264 O269 1.997 . S
Fe264 O270 2.002 . S
Fe264 O275 1.976 . S
Fe264 O278 1.996 . S
Fe265 O266 1.918 . S
Fe265 O273 1.997 . S
Fe265 O276 1.996 . S
Fe265 O280 1.976 . S
Fe265 O283 2.002 . S
O266 Fe264 1.918 . S
O266 Fe265 1.918 . S
O266 Fe267 1.918 . S
Fe267 O266 1.918 . S
Fe267 O268 2.002 . S
Fe267 O277 1.976 . S
Fe267 O281 1.996 . S
Fe267 O284 1.997 . S
O268 Fe267 2.002 . S
O268 C285 1.295 . S
O269 Fe264 1.997 . S
O269 C285 1.235 . S
O270 Fe264 2.002 . S
O270 C271 1.295 . S
C271 O270 1.295 . S
C271 O273 1.235 . S
C272 O277 1.287 . S
C272 O278 1.255 . S
O273 Fe265 1.997 . S
O273 C271 1.235 . S
C274 O280 1.287 . S
C274 O281 1.255 . S
O275 Fe264 1.976 . S
O275 C282 1.287 . S
O276 Fe265 1.996 . S
O276 C282 1.255 . S
O277 Fe267 1.976 . S
O277 C272 1.287 . S
O278 Fe264 1.996 . S
O278 C272 1.255 . S
C279 O283 1.295 . S
C279 O284 1.235 . S
O280 Fe265 1.976 . S
O280 C274 1.287 . S
O281 Fe267 1.996 . S
O281 C274 1.255 . S
C282 O275 1.287 . S
C282 O276 1.255 . S
O283 Fe265 2.002 . S
O283 C279 1.295 . S
O284 Fe267 1.997 . S
O284 C279 1.235 . S
C285 O268 1.295 . S
C285 O269 1.235 . S
Fe286 O288 1.918 . S
Fe286 O291 1.997 . S
Fe286 O292 2.002 . S
Fe286 O297 1.976 . S
Fe286 O300 1.996 . S
Fe287 O288 1.918 . S
Fe287 O295 1.997 . S
Fe287 O298 1.996 . S
Fe287 O302 1.976 . S
Fe287 O305 2.002 . S
O288 Fe286 1.918 . S
O288 Fe287 1.918 . S
O288 Fe289 1.918 . S
Fe289 O288 1.918 . S
Fe289 O290 2.002 . S
Fe289 O299 1.976 . S
Fe289 O303 1.996 . S
Fe289 O306 1.997 . S
O290 Fe289 2.002 . S
O290 C307 1.295 . S
O291 Fe286 1.997 . S
O291 C307 1.235 . S
O292 Fe286 2.002 . S
O292 C293 1.295 . S
C293 O292 1.295 . S
C293 O295 1.235 . S
C294 O299 1.287 . S
C294 O300 1.255 . S
O295 Fe287 1.997 . S
O295 C293 1.235 . S
C296 O302 1.287 . S
C296 O303 1.255 . S
O297 Fe286 1.976 . S
O297 C304 1.287 . S
O298 Fe287 1.996 . S
O298 C304 1.255 . S
O299 Fe289 1.976 . S
O299 C294 1.287 . S
O300 Fe286 1.996 . S
O300 C294 1.255 . S
C301 O305 1.295 . S
C301 O306 1.235 . S
O302 Fe287 1.976 . S
O302 C296 1.287 . S
O303 Fe289 1.996 . S
O303 C296 1.255 . S
C304 O297 1.287 . S
C304 O298 1.255 . S
O305 Fe287 2.002 . S
O305 C301 1.295 . S
O306 Fe289 1.997 . S
O306 C301 1.235 . S
C307 O290 1.295 . S
C307 O291 1.235 . S
Fe308 O310 1.918 . S
Fe308 O313 1.997 . S
Fe308 O314 2.002 . S
Fe308 O319 1.976 . S
Fe308 O322 1.996 . S
Fe309 O310 1.918 . S
Fe309 O317 1.997 . S
Fe309 O320 1.996 . S
Fe309 O324 1.976 . S
Fe309 O327 2.002 . S
O310 Fe308 1.918 . S
O310 Fe309 1.918 . S
O310 Fe311 1.918 . S
Fe311 O310 1.918 . S
Fe311 O312 2.002 . S
Fe311 O321 1.976 . S
Fe311 O325 1.996 . S
Fe311 O328 1.997 . S
O312 Fe311 2.002 . S
O312 C329 1.295 . S
O313 Fe308 1.997 . S
O313 C329 1.235 . S
O314 Fe308 2.002 . S
O314 C315 1.295 . S
C315 O314 1.295 . S
C315 O317 1.235 . S
C316 O321 1.287 . S
C316 O322 1.255 . S
O317 Fe309 1.997 . S
O317 C315 1.235 . S
C318 O324 1.287 . S
C318 O325 1.255 . S
O319 Fe308 1.976 . S
O319 C326 1.287 . S
O320 Fe309 1.996 . S
O320 C326 1.255 . S
O321 Fe311 1.976 . S
O321 C316 1.287 . S
O322 Fe308 1.996 . S
O322 C316 1.255 . S
C323 O327 1.295 . S
C323 O328 1.235 . S
O324 Fe309 1.976 . S
O324 C318 1.287 . S
O325 Fe311 1.996 . S
O325 C318 1.255 . S
C326 O319 1.287 . S
C326 O320 1.255 . S
O327 Fe309 2.002 . S
O327 C323 1.295 . S
O328 Fe311 1.997 . S
O328 C323 1.235 . S
C329 O312 1.295 . S
C329 O313 1.235 . S
Fe330 O332 1.918 . S
Fe330 O335 1.997 . S
Fe330 O336 2.002 . S
Fe330 O341 1.976 . S
Fe330 O344 1.996 . S
Fe331 O332 1.918 . S
Fe331 O339 1.997 . S
Fe331 O342 1.996 . S
Fe331 O346 1.976 . S
Fe331 O349 2.002 . S
O332 Fe330 1.918 . S
O332 Fe331 1.918 . S
O332 Fe333 1.918 . S
Fe333 O332 1.918 . S
Fe333 O334 2.002 . S
Fe333 O343 1.976 . S
Fe333 O347 1.996 . S
Fe333 O350 1.997 . S
O334 Fe333 2.002 . S
O334 C351 1.295 . S
O335 Fe330 1.997 . S
O335 C351 1.235 . S
O336 Fe330 2.002 . S
O336 C337 1.295 . S
C337 O336 1.295 . S
C337 O339 1.235 . S
C338 O343 1.287 . S
C338 O344 1.255 . S
O339 Fe331 1.997 . S
O339 C337 1.235 . S
C340 O346 1.287 . S
C340 O347 1.255 . S
O341 Fe330 1.976 . S
O341 C348 1.287 . S
O342 Fe331 1.996 . S
O342 C348 1.255 . S
O343 Fe333 1.976 . S
O343 C338 1.287 . S
O344 Fe330 1.996 . S
O344 C338 1.255 . S
C345 O349 1.295 . S
C345 O350 1.235 . S
O346 Fe331 1.976 . S
O346 C340 1.287 . S
O347 Fe333 1.996 . S
O347 C340 1.255 . S
C348 O341 1.287 . S
C348 O342 1.255 . S
O349 Fe331 2.002 . S
O349 C345 1.295 . S
O350 Fe333 1.997 . S
O350 C345 1.235 . S
C351 O334 1.295 . S
C351 O335 1.235 . S
Fe352 O354 1.918 . S
Fe352 O357 1.997 . S
Fe352 O358 2.002 . S
Fe352 O363 1.976 . S
Fe352 O366 1.996 . S
Fe353 O354 1.918 . S
Fe353 O361 1.997 . S
Fe353 O364 1.996 . S
Fe353 O368 1.976 . S
Fe353 O371 2.002 . S
O354 Fe352 1.918 . S
O354 Fe353 1.918 . S
O354 Fe355 1.918 . S
Fe355 O354 1.918 . S
Fe355 O356 2.002 . S
Fe355 O365 1.976 . S
Fe355 O369 1.996 . S
Fe355 O372 1.997 . S
O356 Fe355 2.002 . S
O356 C373 1.295 . S
O357 Fe352 1.997 . S
O357 C373 1.235 . S
O358 Fe352 2.002 . S
O358 C359 1.295 . S
C359 O358 1.295 . S
C359 O361 1.235 . S
C360 O365 1.287 . S
C360 O366 1.255 . S
O361 Fe353 1.997 . S
O361 C359 1.235 . S
C362 O368 1.287 . S
C362 O369 1.255 . S
O363 Fe352 1.976 . S
O363 C370 1.287 . S
O364 Fe353 1.996 . S
O364 C370 1.255 . S
O365 Fe355 1.976 . S
O365 C360 1.287 . S
O366 Fe352 1.996 . S
O366 C360 1.255 . S
C367 O371 1.295 . S
C367 O372 1.235 . S
O368 Fe353 1.976 . S
O368 C362 1.287 . S
O369 Fe355 1.996 . S
O369 C362 1.255 . S
C370 O363 1.287 . S
C370 O364 1.255 . S
O371 Fe353 2.002 . S
O371 C367 1.295 . S
O372 Fe355 1.997 . S
O372 C367 1.235 . S
C373 O356 1.295 . S
C373 O357 1.235 . S
Fe374 O376 1.918 . S
Fe374 O379 1.997 . S
Fe374 O380 2.002 . S
Fe374 O385 1.976 . S
Fe374 O388 1.996 . S
Fe375 O376 1.918 . S
Fe375 O383 1.997 . S
Fe375 O386 1.996 . S
Fe375 O390 1.976 . S
Fe375 O393 2.002 . S
O376 Fe374 1.918 . S
O376 Fe375 1.918 . S
O376 Fe377 1.918 . S
Fe377 O376 1.918 . S
Fe377 O378 2.002 . S
Fe377 O387 1.976 . S
Fe377 O391 1.996 . S
Fe377 O394 1.997 . S
O378 Fe377 2.002 . S
O378 C395 1.295 . S
O379 Fe374 1.997 . S
O379 C395 1.235 . S
O380 Fe374 2.002 . S
O380 C381 1.295 . S
C381 O380 1.295 . S
C381 O383 1.235 . S
C382 O387 1.287 . S
C382 O388 1.255 . S
O383 Fe375 1.997 . S
O383 C381 1.235 . S
C384 O390 1.287 . S
C384 O391 1.255 . S
O385 Fe374 1.976 . S
O385 C392 1.287 . S
O386 Fe375 1.996 . S
O386 C392 1.255 . S
O387 Fe377 1.976 . S
O387 C382 1.287 . S
O388 Fe374 1.996 . S
O388 C382 1.255 . S
C389 O393 1.295 . S
C389 O394 1.235 . S
O390 Fe375 1.976 . S
O390 C384 1.287 . S
O391 Fe377 1.996 . S
O391 C384 1.255 . S
C392 O385 1.287 . S
C392 O386 1.255 . S
O393 Fe375 2.002 . S
O393 C389 1.295 . S
O394 Fe377 1.997 . S
O394 C389 1.235 . S
C395 O378 1.295 . S
C395 O379 1.235 . S
Fe396 O398 1.918 . S
Fe396 O401 1.997 . S
Fe396 O402 2.002 . S
Fe396 O407 1.976 . S
Fe396 O410 1.996 . S
Fe397 O398 1.918 . S
Fe397 O405 1.997 . S
Fe397 O408 1.996 . S
Fe397 O412 1.976 . S
Fe397 O415 2.002 . S
O398 Fe396 1.918 . S
O398 Fe397 1.918 . S
O398 Fe399 1.918 . S
Fe399 O398 1.918 . S
Fe399 O400 2.002 . S
Fe399 O409 1.976 . S
Fe399 O413 1.996 . S
Fe399 O416 1.997 . S
O400 Fe399 2.002 . S
O400 C417 1.295 . S
O401 Fe396 1.997 . S
O401 C417 1.235 . S
O402 Fe396 2.002 . S
O402 C403 1.295 . S
C403 O402 1.295 . S
C403 O405 1.235 . S
C404 O409 1.287 . S
C404 O410 1.255 . S
O405 Fe397 1.997 . S
O405 C403 1.235 . S
C406 O412 1.287 . S
C406 O413 1.255 . S
O407 Fe396 1.976 . S
O407 C414 1.287 . S
O408 Fe397 1.996 . S
O408 C414 1.255 . S
O409 Fe399 1.976 . S
O409 C404 1.287 . S
O410 Fe396 1.996 . S
O410 C404 1.255 . S
C411 O415 1.295 . S
C411 O416 1.235 . S
O412 Fe397 1.976 . S
O412 C406 1.287 . S
O413 Fe399 1.996 . S
O413 C406 1.255 . S
C414 O407 1.287 . S
C414 O408 1.255 . S
O415 Fe397 2.002 . S
O415 C411 1.295 . S
O416 Fe399 1.997 . S
O416 C411 1.235 . S
C417 O400 1.295 . S
C417 O401 1.235 . S
Fe418 O420 1.918 . S
Fe418 O423 1.997 . S
Fe418 O424 2.002 . S
Fe418 O429 1.976 . S
Fe418 O432 1.996 . S
Fe419 O420 1.918 . S
Fe419 O427 1.997 . S
Fe419 O430 1.996 . S
Fe419 O434 1.976 . S
Fe419 O437 2.002 . S
O420 Fe418 1.918 . S
O420 Fe419 1.918 . S
O420 Fe421 1.918 . S
Fe421 O420 1.918 . S
Fe421 O422 2.002 . S
Fe421 O431 1.976 . S
Fe421 O435 1.996 . S
Fe421 O438 1.997 . S
O422 Fe421 2.002 . S
O422 C439 1.295 . S
O423 Fe418 1.997 . S
O423 C439 1.235 . S
O424 Fe418 2.002 . S
O424 C425 1.295 . S
C425 O424 1.295 . S
C425 O427 1.235 . S
C426 O431 1.287 . S
C426 O432 1.255 . S
O427 Fe419 1.997 . S
O427 C425 1.235 . S
C428 O434 1.287 . S
C428 O435 1.255 . S
O429 Fe418 1.976 . S
O429 C436 1.287 . S
O430 Fe419 1.996 . S
O430 C436 1.255 . S
O431 Fe421 1.976 . S
O431 C426 1.287 . S
O432 Fe418 1.996 . S
O432 C426 1.255 . S
C433 O437 1.295 . S
C433 O438 1.235 . S
O434 Fe419 1.976 . S
O434 C428 1.287 . S
O435 Fe421 1.996 . S
O435 C428 1.255 . S
C436 O429 1.287 . S
C436 O430 1.255 . S
O437 Fe419 2.002 . S
O437 C433 1.295 . S
O438 Fe421 1.997 . S
O438 C433 1.235 . S
C439 O422 1.295 . S
C439 O423 1.235 . S
Fe440 O442 1.918 . S
Fe440 O445 1.997 . S
Fe440 O446 2.002 . S
Fe440 O451 1.976 . S
Fe440 O454 1.996 . S
Fe441 O442 1.918 . S
Fe441 O449 1.997 . S
Fe441 O452 1.996 . S
Fe441 O456 1.976 . S
Fe441 O459 2.002 . S
O442 Fe440 1.918 . S
O442 Fe441 1.918 . S
O442 Fe443 1.918 . S
Fe443 O442 1.918 . S
Fe443 O444 2.002 . S
Fe443 O453 1.976 . S
Fe443 O457 1.996 . S
Fe443 O460 1.997 . S
O444 Fe443 2.002 . S
O444 C461 1.295 . S
O445 Fe440 1.997 . S
O445 C461 1.235 . S
O446 Fe440 2.002 . S
O446 C447 1.295 . S
C447 O446 1.295 . S
C447 O449 1.235 . S
C448 O453 1.287 . S
C448 O454 1.255 . S
O449 Fe441 1.997 . S
O449 C447 1.235 . S
C450 O456 1.287 . S
C450 O457 1.255 . S
O451 Fe440 1.976 . S
O451 C458 1.287 . S
O452 Fe441 1.996 . S
O452 C458 1.255 . S
O453 Fe443 1.976 . S
O453 C448 1.287 . S
O454 Fe440 1.996 . S
O454 C448 1.255 . S
C455 O459 1.295 . S
C455 O460 1.235 . S
O456 Fe441 1.976 . S
O456 C450 1.287 . S
O457 Fe443 1.996 . S
O457 C450 1.255 . S
C458 O451 1.287 . S
C458 O452 1.255 . S
O459 Fe441 2.002 . S
O459 C455 1.295 . S
O460 Fe443 1.997 . S
O460 C455 1.235 . S
C461 O444 1.295 . S
C461 O445 1.235 . S
Fe462 O464 1.918 . S
Fe462 O467 1.997 . S
Fe462 O468 2.002 . S
Fe462 O473 1.976 . S
Fe462 O476 1.996 . S
Fe463 O464 1.918 . S
Fe463 O471 1.997 . S
Fe463 O474 1.996 . S
Fe463 O478 1.976 . S
Fe463 O481 2.002 . S
O464 Fe462 1.918 . S
O464 Fe463 1.918 . S
O464 Fe465 1.918 . S
Fe465 O464 1.918 . S
Fe465 O466 2.002 . S
Fe465 O475 1.976 . S
Fe465 O479 1.996 . S
Fe465 O482 1.997 . S
O466 Fe465 2.002 . S
O466 C483 1.295 . S
O467 Fe462 1.997 . S
O467 C483 1.235 . S
O468 Fe462 2.002 . S
O468 C469 1.295 . S
C469 O468 1.295 . S
C469 O471 1.235 . S
C470 O475 1.287 . S
C470 O476 1.255 . S
O471 Fe463 1.997 . S
O471 C469 1.235 . S
C472 O478 1.287 . S
C472 O479 1.255 . S
O473 Fe462 1.976 . S
O473 C480 1.287 . S
O474 Fe463 1.996 . S
O474 C480 1.255 . S
O475 Fe465 1.976 . S
O475 C470 1.287 . S
O476 Fe462 1.996 . S
O476 C470 1.255 . S
C477 O481 1.295 . S
C477 O482 1.235 . S
O478 Fe463 1.976 . S
O478 C472 1.287 . S
O479 Fe465 1.996 . S
O479 C472 1.255 . S
C480 O473 1.287 . S
C480 O474 1.255 . S
O481 Fe463 2.002 . S
O481 C477 1.295 . S
O482 Fe465 1.997 . S
O482 C477 1.235 . S
C483 O466 1.295 . S
C483 O467 1.235 . S
Fe484 O486 1.918 . S
Fe484 O489 1.997 . S
Fe484 O490 2.002 . S
Fe484 O495 1.976 . S
Fe484 O498 1.996 . S
Fe485 O486 1.918 . S
Fe485 O493 1.997 . S
Fe485 O496 1.996 . S
Fe485 O500 1.976 . S
Fe485 O503 2.002 . S
O486 Fe484 1.918 . S
O486 Fe485 1.918 . S
O486 Fe487 1.918 . S
Fe487 O486 1.918 . S
Fe487 O488 2.002 . S
Fe487 O497 1.976 . S
Fe487 O501 1.996 . S
Fe487 O504 1.997 . S
O488 Fe487 2.002 . S
O488 C505 1.295 . S
O489 Fe484 1.997 . S
O489 C505 1.235 . S
O490 Fe484 2.002 . S
O490 C491 1.295 . S
C491 O490 1.295 . S
C491 O493 1.235 . S
C492 O497 1.287 . S
C492 O498 1.255 . S
O493 Fe485 1.997 . S
O493 C491 1.235 . S
C494 O500 1.287 . S
C494 O501 1.255 . S
O495 Fe484 1.976 . S
O495 C502 1.287 . S
O496 Fe485 1.996 . S
O496 C502 1.255 . S
O497 Fe487 1.976 . S
O497 C492 1.287 . S
O498 Fe484 1.996 . S
O498 C492 1.255 . S
C499 O503 1.295 . S
C499 O504 1.235 . S
O500 Fe485 1.976 . S
O500 C494 1.287 . S
O501 Fe487 1.996 . S
O501 C494 1.255 . S
C502 O495 1.287 . S
C502 O496 1.255 . S
O503 Fe485 2.002 . S
O503 C499 1.295 . S
O504 Fe487 1.997 . S
O504 C499 1.235 . S
C505 O488 1.295 . S
C505 O489 1.235 . S
Fe506 O508 1.918 . S
Fe506 O511 1.997 . S
Fe506 O512 2.002 . S
Fe506 O517 1.976 . S
Fe506 O520 1.996 . S
Fe507 O508 1.918 . S
Fe507 O515 1.997 . S
Fe507 O518 1.996 . S
Fe507 O522 1.976 . S
Fe507 O525 2.002 . S
O508 Fe506 1.918 . S
O508 Fe507 1.918 . S
O508 Fe509 1.918 . S
Fe509 O508 1.918 . S
Fe509 O510 2.002 . S
Fe509 O519 1.976 . S
Fe509 O523 1.996 . S
Fe509 O526 1.997 . S
O510 Fe509 2.002 . S
O510 C527 1.295 . S
O511 Fe506 1.997 . S
O511 C527 1.235 . S
O512 Fe506 2.002 . S
O512 C513 1.295 . S
C513 O512 1.295 . S
C513 O515 1.235 . S
C514 O519 1.287 . S
C514 O520 1.255 . S
O515 Fe507 1.997 . S
O515 C513 1.235 . S
C516 O522 1.287 . S
C516 O523 1.255 . S
O517 Fe506 1.976 . S
O517 C524 1.287 . S
O518 Fe507 1.996 . S
O518 C524 1.255 . S
O519 Fe509 1.976 . S
O519 C514 1.287 . S
O520 Fe506 1.996 . S
O520 C514 1.255 . S
C521 O525 1.295 . S
C521 O526 1.235 . S
O522 Fe507 1.976 . S
O522 C516 1.287 . S
O523 Fe509 1.996 . S
O523 C516 1.255 . S
C524 O517 1.287 . S
C524 O518 1.255 . S
O525 Fe507 2.002 . S
O525 C521 1.295 . S
O526 Fe509 1.997 . S
O526 C521 1.235 . S
C527 O510 1.295 . S
C527 O511 1.235 . S
Fe528 O530 1.918 . S
Fe528 O533 1.997 . S
Fe528 O534 2.002 . S
Fe528 O539 1.976 . S
Fe528 O542 1.996 . S
Fe529 O530 1.918 . S
Fe529 O537 1.997 . S
Fe529 O540 1.996 . S
Fe529 O544 1.976 . S
Fe529 O547 2.002 . S
O530 Fe528 1.918 . S
O530 Fe529 1.918 . S
O530 Fe531 1.918 . S
Fe531 O530 1.918 . S
Fe531 O532 2.002 . S
Fe531 O541 1.976 . S
Fe531 O545 1.996 . S
Fe531 O548 1.997 . S
O532 Fe531 2.002 . S
O532 C549 1.295 . S
O533 Fe528 1.997 . S
O533 C549 1.235 . S
O534 Fe528 2.002 . S
O534 C535 1.295 . S
C535 O534 1.295 . S
C535 O537 1.235 . S
C536 O541 1.287 . S
C536 O542 1.255 . S
O537 Fe529 1.997 . S
O537 C535 1.235 . S
C538 O544 1.287 . S
C538 O545 1.255 . S
O539 Fe528 1.976 . S
O539 C546 1.287 . S
O540 Fe529 1.996 . S
O540 C546 1.255 . S
O541 Fe531 1.976 . S
O541 C536 1.287 . S
O542 Fe528 1.996 . S
O542 C536 1.255 . S
C543 O547 1.295 . S
C543 O548 1.235 . S
O544 Fe529 1.976 . S
O544 C538 1.287 . S
O545 Fe531 1.996 . S
O545 C538 1.255 . S
C546 O539 1.287 . S
C546 O540 1.255 . S
O547 Fe529 2.002 . S
O547 C543 1.295 . S
O548 Fe531 1.997 . S
O548 C543 1.235 . S
C549 O532 1.295 . S
C549 O533 1.235 . S
Fe550 O552 1.918 . S
Fe550 O555 1.997 . S
Fe550 O556 2.002 . S
Fe550 O561 1.976 . S
Fe550 O564 1.996 . S
Fe551 O552 1.918 . S
Fe551 O559 1.997 . S
Fe551 O562 1.996 . S
Fe551 O566 1.976 . S
Fe551 O569 2.002 . S
O552 Fe550 1.918 . S
O552 Fe551 1.918 . S
O552 Fe553 1.918 . S
Fe553 O552 1.918 . S
Fe553 O554 2.002 . S
Fe553 O563 1.976 . S
Fe553 O567 1.996 . S
Fe553 O570 1.997 . S
O554 Fe553 2.002 . S
O554 C571 1.295 . S
O555 Fe550 1.997 . S
O555 C571 1.235 . S
O556 Fe550 2.002 . S
O556 C557 1.295 . S
C557 O556 1.295 . S
C557 O559 1.235 . S
C558 O563 1.287 . S
C558 O564 1.255 . S
O559 Fe551 1.997 . S
O559 C557 1.235 . S
C560 O566 1.287 . S
C560 O567 1.255 . S
O561 Fe550 1.976 . S
O561 C568 1.287 . S
O562 Fe551 1.996 . S
O562 C568 1.255 . S
O563 Fe553 1.976 . S
O563 C558 1.287 . S
O564 Fe550 1.996 . S
O564 C558 1.255 . S
C565 O569 1.295 . S
C565 O570 1.235 . S
O566 Fe551 1.976 . S
O566 C560 1.287 . S
O567 Fe553 1.996 . S
O567 C560 1.255 . S
C568 O561 1.287 . S
C568 O562 1.255 . S
O569 Fe551 2.002 . S
O569 C565 1.295 . S
O570 Fe553 1.997 . S
O570 C565 1.235 . S
C571 O554 1.295 . S
C571 O555 1.235 . S
Fe572 O574 1.918 . S
Fe572 O577 1.997 . S
Fe572 O578 2.002 . S
Fe572 O583 1.976 . S
Fe572 O586 1.996 . S
Fe573 O574 1.918 . S
Fe573 O581 1.997 . S
Fe573 O584 1.996 . S
Fe573 O588 1.976 . S
Fe573 O591 2.002 . S
O574 Fe572 1.918 . S
O574 Fe573 1.918 . S
O574 Fe575 1.918 . S
Fe575 O574 1.918 . S
Fe575 O576 2.002 . S
Fe575 O585 1.976 . S
Fe575 O589 1.996 . S
Fe575 O592 1.997 . S
O576 Fe575 2.002 . S
O576 C593 1.295 . S
O577 Fe572 1.997 . S
O577 C593 1.235 . S
O578 Fe572 2.002 . S
O578 C579 1.295 . S
C579 O578 1.295 . S
C579 O581 1.235 . S
C580 O585 1.287 . S
C580 O586 1.255 . S
O581 Fe573 1.997 . S
O581 C579 1.235 . S
C582 O588 1.287 . S
C582 O589 1.255 . S
O583 Fe572 1.976 . S
O583 C590 1.287 . S
O584 Fe573 1.996 . S
O584 C590 1.255 . S
O585 Fe575 1.976 . S
O585 C580 1.287 . S
O586 Fe572 1.996 . S
O586 C580 1.255 . S
C587 O591 1.295 . S
C587 O592 1.235 . S
O588 Fe573 1.976 . S
O588 C582 1.287 . S
O589 Fe575 1.996 . S
O589 C582 1.255 . S
C590 O583 1.287 . S
C590 O584 1.255 . S
O591 Fe573 2.002 . S
O591 C587 1.295 . S
O592 Fe575 1.997 . S
O592 C587 1.235 . S
C593 O576 1.295 . S
C593 O577 1.235 . S
Fe594 O596 1.918 . S
Fe594 O599 1.997 . S
Fe594 O600 2.002 . S
Fe594 O605 1.976 . S
Fe594 O608 1.996 . S
Fe595 O596 1.918 . S
Fe595 O603 1.997 . S
Fe595 O606 1.996 . S
Fe595 O610 1.976 . S
Fe595 O613 2.002 . S
O596 Fe594 1.918 . S
O596 Fe595 1.918 . S
O596 Fe597 1.918 . S
Fe597 O596 1.918 . S
Fe597 O598 2.002 . S
Fe597 O607 1.976 . S
Fe597 O611 1.996 . S
Fe597 O614 1.997 . S
O598 Fe597 2.002 . S
O598 C615 1.295 . S
O599 Fe594 1.997 . S
O599 C615 1.235 . S
O600 Fe594 2.002 . S
O600 C601 1.295 . S
C601 O600 1.295 . S
C601 O603 1.235 . S
C602 O607 1.287 . S
C602 O608 1.255 . S
O603 Fe595 1.997 . S
O603 C601 1.235 . S
C604 O610 1.287 . S
C604 O611 1.255 . S
O605 Fe594 1.976 . S
O605 C612 1.287 . S
O606 Fe595 1.996 . S
O606 C612 1.255 . S
O607 Fe597 1.976 . S
O607 C602 1.287 . S
O608 Fe594 1.996 . S
O608 C602 1.255 . S
C609 O613 1.295 . S
C609 O614 1.235 . S
O610 Fe595 1.976 . S
O610 C604 1.287 . S
O611 Fe597 1.996 . S
O611 C604 1.255 . S
C612 O605 1.287 . S
C612 O606 1.255 . S
O613 Fe595 2.002 . S
O613 C609 1.295 . S
O614 Fe597 1.997 . S
O614 C609 1.235 . S
C615 O598 1.295 . S
C615 O599 1.235 . S
Fe616 O618 1.918 . S
Fe616 O621 1.997 . S
Fe616 O622 2.002 . S
Fe616 O627 1.976 . S
Fe616 O630 1.996 . S
Fe617 O618 1.918 . S
Fe617 O625 1.997 . S
Fe617 O628 1.996 . S
Fe617 O632 1.976 . S
Fe617 O635 2.002 . S
O618 Fe616 1.918 . S
O618 Fe617 1.918 . S
O618 Fe619 1.918 . S
Fe619 O618 1.918 . S
Fe619 O620 2.002 . S
Fe619 O629 1.976 . S
Fe619 O633 1.996 . S
Fe619 O636 1.997 . S
O620 Fe619 2.002 . S
O620 C637 1.295 . S
O621 Fe616 1.997 . S
O621 C637 1.235 . S
O622 Fe616 2.002 . S
O622 C623 1.295 . S
C623 O622 1.295 . S
C623 O625 1.235 . S
C624 O629 1.287 . S
C624 O630 1.255 . S
O625 Fe617 1.997 . S
O625 C623 1.235 . S
C626 O632 1.287 . S
C626 O633 1.255 . S
O627 Fe616 1.976 . S
O627 C634 1.287 . S
O628 Fe617 1.996 . S
O628 C634 1.255 . S
O629 Fe619 1.976 . S
O629 C624 1.287 . S
O630 Fe616 1.996 . S
O630 C624 1.255 . S
C631 O635 1.295 . S
C631 O636 1.235 . S
O632 Fe617 1.976 . S
O632 C626 1.287 . S
O633 Fe619 1.996 . S
O633 C626 1.255 . S
C634 O627 1.287 . S
C634 O628 1.255 . S
O635 Fe617 2.002 . S
O635 C631 1.295 . S
O636 Fe619 1.997 . S
O636 C631 1.235 . S
C637 O620 1.295 . S
C637 O621 1.235 . S
Fe638 O640 1.918 . S
Fe638 O643 1.997 . S
Fe638 O644 2.002 . S
Fe638 O649 1.976 . S
Fe638 O652 1.996 . S
Fe639 O640 1.918 . S
Fe639 O647 1.997 . S
Fe639 O650 1.996 . S
Fe639 O654 1.976 . S
Fe639 O657 2.002 . S
O640 Fe638 1.918 . S
O640 Fe639 1.918 . S
O640 Fe641 1.918 . S
Fe641 O640 1.918 . S
Fe641 O642 2.002 . S
Fe641 O651 1.976 . S
Fe641 O655 1.996 . S
Fe641 O658 1.997 . S
O642 Fe641 2.002 . S
O642 C659 1.295 . S
O643 Fe638 1.997 . S
O643 C659 1.235 . S
O644 Fe638 2.002 . S
O644 C645 1.295 . S
C645 O644 1.295 . S
C645 O647 1.235 . S
C646 O651 1.287 . S
C646 O652 1.255 . S
O647 Fe639 1.997 . S
O647 C645 1.235 . S
C648 O654 1.287 . S
C648 O655 1.255 . S
O649 Fe638 1.976 . S
O649 C656 1.287 . S
O650 Fe639 1.996 . S
O650 C656 1.255 . S
O651 Fe641 1.976 . S
O651 C646 1.287 . S
O652 Fe638 1.996 . S
O652 C646 1.255 . S
C653 O657 1.295 . S
C653 O658 1.235 . S
O654 Fe639 1.976 . S
O654 C648 1.287 . S
O655 Fe641 1.996 . S
O655 C648 1.255 . S
C656 O649 1.287 . S
C656 O650 1.255 . S
O657 Fe639 2.002 . S
O657 C653 1.295 . S
O658 Fe641 1.997 . S
O658 C653 1.235 . S
C659 O642 1.295 . S
C659 O643 1.235 . S
Fe660 O662 1.918 . S
Fe660 O665 1.997 . S
Fe660 O666 2.002 . S
Fe660 O671 1.976 . S
Fe660 O674 1.996 . S
Fe661 O662 1.918 . S
Fe661 O669 1.997 . S
Fe661 O672 1.996 . S
Fe661 O676 1.976 . S
Fe661 O679 2.002 . S
O662 Fe660 1.918 . S
O662 Fe661 1.918 . S
O662 Fe663 1.918 . S
Fe663 O662 1.918 . S
Fe663 O664 2.002 . S
Fe663 O673 1.976 . S
Fe663 O677 1.996 . S
Fe663 O680 1.997 . S
O664 Fe663 2.002 . S
O664 C681 1.295 . S
O665 Fe660 1.997 . S
O665 C681 1.235 . S
O666 Fe660 2.002 . S
O666 C667 1.295 . S
C667 O666 1.295 . S
C667 O669 1.235 . S
C668 O673 1.287 . S
C668 O674 1.255 . S
O669 Fe661 1.997 . S
O669 C667 1.235 . S
C670 O676 1.287 . S
C670 O677 1.255 . S
O671 Fe660 1.976 . S
O671 C678 1.287 . S
O672 Fe661 1.996 . S
O672 C678 1.255 . S
O673 Fe663 1.976 . S
O673 C668 1.287 . S
O674 Fe660 1.996 . S
O674 C668 1.255 . S
C675 O679 1.295 . S
C675 O680 1.235 . S
O676 Fe661 1.976 . S
O676 C670 1.287 . S
O677 Fe663 1.996 . S
O677 C670 1.255 . S
C678 O671 1.287 . S
C678 O672 1.255 . S
O679 Fe661 2.002 . S
O679 C675 1.295 . S
O680 Fe663 1.997 . S
O680 C675 1.235 . S
C681 O664 1.295 . S
C681 O665 1.235 . S
Fe682 O684 1.918 . S
Fe682 O687 1.997 . S
Fe682 O688 2.002 . S
Fe682 O693 1.976 . S
Fe682 O696 1.996 . S
Fe683 O684 1.918 . S
Fe683 O691 1.997 . S
Fe683 O694 1.996 . S
Fe683 O698 1.976 . S
Fe683 O701 2.002 . S
O684 Fe682 1.918 . S
O684 Fe683 1.918 . S
O684 Fe685 1.918 . S
Fe685 O684 1.918 . S
Fe685 O686 2.002 . S
Fe685 O695 1.976 . S
Fe685 O699 1.996 . S
Fe685 O702 1.997 . S
O686 Fe685 2.002 . S
O686 C703 1.295 . S
O687 Fe682 1.997 . S
O687 C703 1.235 . S
O688 Fe682 2.002 . S
O688 C689 1.295 . S
C689 O688 1.295 . S
C689 O691 1.235 . S
C690 O695 1.287 . S
C690 O696 1.255 . S
O691 Fe683 1.997 . S
O691 C689 1.235 . S
C692 O698 1.287 . S
C692 O699 1.255 . S
O693 Fe682 1.976 . S
O693 C700 1.287 . S
O694 Fe683 1.996 . S
O694 C700 1.255 . S
O695 Fe685 1.976 . S
O695 C690 1.287 . S
O696 Fe682 1.996 . S
O696 C690 1.255 . S
C697 O701 1.295 . S
C697 O702 1.235 . S
O698 Fe683 1.976 . S
O698 C692 1.287 . S
O699 Fe685 1.996 . S
O699 C692 1.255 . S
C700 O693 1.287 . S
C700 O694 1.255 . S
O701 Fe683 2.002 . S
O701 C697 1.295 . S
O702 Fe685 1.997 . S
O702 C697 1.235 . S
C703 O686 1.295 . S
C703 O687 1.235 . S
Fe704 O706 1.918 . S
Fe704 O709 1.997 . S
Fe704 O710 2.002 . S
Fe704 O715 1.976 . S
Fe704 O718 1.996 . S
Fe705 O706 1.918 . S
Fe705 O713 1.997 . S
Fe705 O716 1.996 . S
Fe705 O720 1.976 . S
Fe705 O723 2.002 . S
O706 Fe704 1.918 . S
O706 Fe705 1.918 . S
O706 Fe707 1.918 . S
Fe707 O706 1.918 . S
Fe707 O708 2.002 . S
Fe707 O717 1.976 . S
Fe707 O721 1.996 . S
Fe707 O724 1.997 . S
O708 Fe707 2.002 . S
O708 C725 1.295 . S
O709 Fe704 1.997 . S
O709 C725 1.235 . S
O710 Fe704 2.002 . S
O710 C711 1.295 . S
C711 O710 1.295 . S
C711 O713 1.235 . S
C712 O717 1.287 . S
C712 O718 1.255 . S
O713 Fe705 1.997 . S
O713 C711 1.235 . S
C714 O720 1.287 . S
C714 O721 1.255 . S
O715 Fe704 1.976 . S
O715 C722 1.287 . S
O716 Fe705 1.996 . S
O716 C722 1.255 . S
O717 Fe707 1.976 . S
O717 C712 1.287 . S
O718 Fe704 1.996 . S
O718 C712 1.255 . S
C719 O723 1.295 . S
C719 O724 1.235 . S
O720 Fe705 1.976 . S
O720 C714 1.287 . S
O721 Fe707 1.996 . S
O721 C714 1.255 . S
C722 O715 1.287 . S
C722 O716 1.255 . S
O723 Fe705 2.002 . S
O723 C719 1.295 . S
O724 Fe707 1.997 . S
O724 C719 1.235 . S
C725 O708 1.295 . S
C725 O709 1.235 . S
Fe726 O728 1.918 . S
Fe726 O731 1.997 . S
Fe726 O732 2.002 . S
Fe726 O737 1.976 . S
Fe726 O740 1.996 . S
Fe727 O728 1.918 . S
Fe727 O735 1.997 . S
Fe727 O738 1.996 . S
Fe727 O742 1.976 . S
Fe727 O745 2.002 . S
O728 Fe726 1.918 . S
O728 Fe727 1.918 . S
O728 Fe729 1.918 . S
Fe729 O728 1.918 . S
Fe729 O730 2.002 . S
Fe729 O739 1.976 . S
Fe729 O743 1.996 . S
Fe729 O746 1.997 . S
O730 Fe729 2.002 . S
O730 C747 1.295 . S
O731 Fe726 1.997 . S
O731 C747 1.235 . S
O732 Fe726 2.002 . S
O732 C733 1.295 . S
C733 O732 1.295 . S
C733 O735 1.235 . S
C734 O739 1.287 . S
C734 O740 1.255 . S
O735 Fe727 1.997 . S
O735 C733 1.235 . S
C736 O742 1.287 . S
C736 O743 1.255 . S
O737 Fe726 1.976 . S
O737 C744 1.287 . S
O738 Fe727 1.996 . S
O738 C744 1.255 . S
O739 Fe729 1.976 . S
O739 C734 1.287 . S
O740 Fe726 1.996 . S
O740 C734 1.255 . S
C741 O745 1.295 . S
C741 O746 1.235 . S
O742 Fe727 1.976 . S
O742 C736 1.287 . S
O743 Fe729 1.996 . S
O743 C736 1.255 . S
C744 O737 1.287 . S
C744 O738 1.255 . S
O745 Fe727 2.002 . S
O745 C741 1.295 . S
O746 Fe729 1.997 . S
O746 C741 1.235 . S
C747 O730 1.295 . S
C747 O731 1.235 . S
Fe748 O750 1.918 . S
Fe748 O753 1.997 . S
Fe748 O754 2.002 . S
Fe748 O759 1.976 . S
Fe748 O762 1.996 . S
Fe749 O750 1.918 . S
Fe749 O757 1.997 . S
Fe749 O760 1.996 . S
Fe749 O764 1.976 . S
Fe749 O767 2.002 . S
O750 Fe748 1.918 . S
O750 Fe749 1.918 . S
O750 Fe751 1.918 . S
Fe751 O750 1.918 . S
Fe751 O752 2.002 . S
Fe751 O761 1.976 . S
Fe751 O765 1.996 . S
Fe751 O768 1.997 . S
O752 Fe751 2.002 . S
O752 C769 1.295 . S
O753 Fe748 1.997 . S
O753 C769 1.235 . S
O754 Fe748 2.002 . S
O754 C755 1.295 . S
C755 O754 1.295 . S
C755 O757 1.235 . S
C756 O761 1.287 . S
C756 O762 1.255 . S
O757 Fe749 1.997 . S
O757 C755 1.235 . S
C758 O764 1.287 . S
C758 O765 1.255 . S
O759 Fe748 1.976 . S
O759 C766 1.287 . S
O760 Fe749 1.996 . S
O760 C766 1.255 . S
O761 Fe751 1.976 . S
O761 C756 1.287 . S
O762 Fe748 1.996 . S
O762 C756 1.255 . S
C763 O767 1.295 . S
C763 O768 1.235 . S
O764 Fe749 1.976 . S
O764 C758 1.287 . S
O765 Fe751 1.996 . S
O765 C758 1.255 . S
C766 O759 1.287 . S
C766 O760 1.255 . S
O767 Fe749 2.002 . S
O767 C763 1.295 . S
O768 Fe751 1.997 . S
O768 C763 1.235 . S
C769 O752 1.295 . S
C769 O753 1.235 . S
Fe770 O772 1.918 . S
Fe770 O775 1.997 . S
Fe770 O776 2.002 . S
Fe770 O781 1.976 . S
Fe770 O784 1.996 . S
Fe771 O772 1.918 . S
Fe771 O779 1.997 . S
Fe771 O782 1.996 . S
Fe771 O786 1.976 . S
Fe771 O789 2.002 . S
O772 Fe770 1.918 . S
O772 Fe771 1.918 . S
O772 Fe773 1.918 . S
Fe773 O772 1.918 . S
Fe773 O774 2.002 . S
Fe773 O783 1.976 . S
Fe773 O787 1.996 . S
Fe773 O790 1.997 . S
O774 Fe773 2.002 . S
O774 C791 1.295 . S
O775 Fe770 1.997 . S
O775 C791 1.235 . S
O776 Fe770 2.002 . S
O776 C777 1.295 . S
C777 O776 1.295 . S
C777 O779 1.235 . S
C778 O783 1.287 . S
C778 O784 1.255 . S
O779 Fe771 1.997 . S
O779 C777 1.235 . S
C780 O786 1.287 . S
C780 O787 1.255 . S
O781 Fe770 1.976 . S
O781 C788 1.287 . S
O782 Fe771 1.996 . S
O782 C788 1.255 . S
O783 Fe773 1.976 . S
O783 C778 1.287 . S
O784 Fe770 1.996 . S
O784 C778 1.255 . S
C785 O789 1.295 . S
C785 O790 1.235 . S
O786 Fe771 1.976 . S
O786 C780 1.287 . S
O787 Fe773 1.996 . S
O787 C780 1.255 . S
C788 O781 1.287 . S
C788 O782 1.255 . S
O789 Fe771 2.002 . S
O789 C785 1.295 . S
O790 Fe773 1.997 . S
O790 C785 1.235 . S
C791 O774 1.295 . S
C791 O775 1.235 . S
Fe792 O794 1.918 . S
Fe792 O797 1.997 . S
Fe792 O798 2.002 . S
Fe792 O803 1.976 . S
Fe792 O806 1.996 . S
Fe793 O794 1.918 . S
Fe793 O801 1.997 . S
Fe793 O804 1.996 . S
Fe793 O808 1.976 . S
Fe793 O811 2.002 . S
O794 Fe792 1.918 . S
O794 Fe793 1.918 . S
O794 Fe795 1.918 . S
Fe795 O794 1.918 . S
Fe795 O796 2.002 . S
Fe795 O805 1.976 . S
Fe795 O809 1.996 . S
Fe795 O812 1.997 . S
O796 Fe795 2.002 . S
O796 C813 1.295 . S
O797 Fe792 1.997 . S
O797 C813 1.235 . S
O798 Fe792 2.002 . S
O798 C799 1.295 . S
C799 O798 1.295 . S
C799 O801 1.235 . S
C800 O805 1.287 . S
C800 O806 1.255 . S
O801 Fe793 1.997 . S
O801 C799 1.235 . S
C802 O808 1.287 . S
C802 O809 1.255 . S
O803 Fe792 1.976 . S
O803 C810 1.287 . S
O804 Fe793 1.996 . S
O804 C810 1.255 . S
O805 Fe795 1.976 . S
O805 C800 1.287 . S
O806 Fe792 1.996 . S
O806 C800 1.255 . S
C807 O811 1.295 . S
C807 O812 1.235 . S
O808 Fe793 1.976 . S
O808 C802 1.287 . S
O809 Fe795 1.996 . S
O809 C802 1.255 . S
C810 O803 1.287 . S
C810 O804 1.255 . S
O811 Fe793 2.002 . S
O811 C807 1.295 . S
O812 Fe795 1.997 . S
O812 C807 1.235 . S
C813 O796 1.295 . S
C813 O797 1.235 . S
Fe814 O816 1.918 . S
Fe814 O819 1.997 . S
Fe814 O820 2.002 . S
Fe814 O825 1.976 . S
Fe814 O828 1.996 . S
Fe815 O816 1.918 . S
Fe815 O823 1.997 . S
Fe815 O826 1.996 . S
Fe815 O830 1.976 . S
Fe815 O833 2.002 . S
O816 Fe814 1.918 . S
O816 Fe815 1.918 . S
O816 Fe817 1.918 . S
Fe817 O816 1.918 . S
Fe817 O818 2.002 . S
Fe817 O827 1.976 . S
Fe817 O831 1.996 . S
Fe817 O834 1.997 . S
O818 Fe817 2.002 . S
O818 C835 1.295 . S
O819 Fe814 1.997 . S
O819 C835 1.235 . S
O820 Fe814 2.002 . S
O820 C821 1.295 . S
C821 O820 1.295 . S
C821 O823 1.235 . S
C822 O827 1.287 . S
C822 O828 1.255 . S
O823 Fe815 1.997 . S
O823 C821 1.235 . S
C824 O830 1.287 . S
C824 O831 1.255 . S
O825 Fe814 1.976 . S
O825 C832 1.287 . S
O826 Fe815 1.996 . S
O826 C832 1.255 . S
O827 Fe817 1.976 . S
O827 C822 1.287 . S
O828 Fe814 1.996 . S
O828 C822 1.255 . S
C829 O833 1.295 . S
C829 O834 1.235 . S
O830 Fe815 1.976 . S
O830 C824 1.287 . S
O831 Fe817 1.996 . S
O831 C824 1.255 . S
C832 O825 1.287 . S
C832 O826 1.255 . S
O833 Fe815 2.002 . S
O833 C829 1.295 . S
O834 Fe817 1.997 . S
O834 C829 1.235 . S
C835 O818 1.295 . S
C835 O819 1.235 . S
Fe836 O838 1.918 . S
Fe836 O841 1.997 . S
Fe836 O842 2.002 . S
Fe836 O847 1.976 . S
Fe836 O850 1.996 . S
Fe837 O838 1.918 . S
Fe837 O845 1.997 . S
Fe837 O848 1.996 . S
Fe837 O852 1.976 . S
Fe837 O855 2.002 . S
O838 Fe836 1.918 . S
O838 Fe837 1.918 . S
O838 Fe839 1.918 . S
Fe839 O838 1.918 . S
Fe839 O840 2.002 . S
Fe839 O849 1.976 . S
Fe839 O853 1.996 . S
Fe839 O856 1.997 . S
O840 Fe839 2.002 . S
O840 C857 1.295 . S
O841 Fe836 1.997 . S
O841 C857 1.235 . S
O842 Fe836 2.002 . S
O842 C843 1.295 . S
C843 O842 1.295 . S
C843 O845 1.235 . S
C844 O849 1.287 . S
C844 O850 1.255 . S
O845 Fe837 1.997 . S
O845 C843 1.235 . S
C846 O852 1.287 . S
C846 O853 1.255 . S
O847 Fe836 1.976 . S
O847 C854 1.287 . S
O848 Fe837 1.996 . S
O848 C854 1.255 . S
O849 Fe839 1.976 . S
O849 C844 1.287 . S
O850 Fe836 1.996 . S
O850 C844 1.255 . S
C851 O855 1.295 . S
C851 O856 1.235 . S
O852 Fe837 1.976 . S
O852 C846 1.287 . S
O853 Fe839 1.996 . S
O853 C846 1.255 . S
C854 O847 1.287 . S
C854 O848 1.255 . S
O855 Fe837 2.002 . S
O855 C851 1.295 . S
O856 Fe839 1.997 . S
O856 C851 1.235 . S
C857 O840 1.295 . S
C857 O841 1.235 . S
Fe858 O860 1.918 . S
Fe858 O863 1.997 . S
Fe858 O864 2.002 . S
Fe858 O869 1.976 . S
Fe858 O872 1.996 . S
Fe859 O860 1.918 . S
Fe859 O867 1.997 . S
Fe859 O870 1.996 . S
Fe859 O874 1.976 . S
Fe859 O877 2.002 . S
O860 Fe858 1.918 . S
O860 Fe859 1.918 . S
O860 Fe861 1.918 . S
Fe861 O860 1.918 . S
Fe861 O862 2.002 . S
Fe861 O871 1.976 . S
Fe861 O875 1.996 . S
Fe861 O878 1.997 . S
O862 Fe861 2.002 . S
O862 C879 1.295 . S
O863 Fe858 1.997 . S
O863 C879 1.235 . S
O864 Fe858 2.002 . S
O864 C865 1.295 . S
C865 O864 1.295 . S
C865 O867 1.235 . S
C866 O871 1.287 . S
C866 O872 1.255 . S
O867 Fe859 1.997 . S
O867 C865 1.235 . S
C868 O874 1.287 . S
C868 O875 1.255 . S
O869 Fe858 1.976 . S
O869 C876 1.287 . S
O870 Fe859 1.996 . S
O870 C876 1.255 . S
O871 Fe861 1.976 . S
O871 C866 1.287 . S
O872 Fe858 1.996 . S
O872 C866 1.255 . S
C873 O877 1.295 . S
C873 O878 1.235 . S
O874 Fe859 1.976 . S
O874 C868 1.287 . S
O875 Fe861 1.996 . S
O875 C868 1.255 . S
C876 O869 1.287 . S
C876 O870 1.255 . S
O877 Fe859 2.002 . S
O877 C873 1.295 . S
O878 Fe861 1.997 . S
O878 C873 1.235 . S
C879 O862 1.295 . S
C879 O863 1.235 . S
Fe880 O882 1.918 . S
Fe880 O885 1.997 . S
Fe880 O886 2.002 . S
Fe880 O891 1.976 . S
Fe880 O894 1.996 . S
Fe881 O882 1.918 . S
Fe881 O889 1.997 . S
Fe881 O892 1.996 . S
Fe881 O896 1.976 . S
Fe881 O899 2.002 . S
O882 Fe880 1.918 . S
O882 Fe881 1.918 . S
O882 Fe883 1.918 . S
Fe883 O882 1.918 . S
Fe883 O884 2.002 . S
Fe883 O893 1.976 . S
Fe883 O897 1.996 . S
Fe883 O900 1.997 . S
O884 Fe883 2.002 . S
O884 C901 1.295 . S
O885 Fe880 1.997 . S
O885 C901 1.235 . S
O886 Fe880 2.002 . S
O886 C887 1.295 . S
C887 O886 1.295 . S
C887 O889 1.235 . S
C888 O893 1.287 . S
C888 O894 1.255 . S
O889 Fe881 1.997 . S
O889 C887 1.235 . S
C890 O896 1.287 . S
C890 O897 1.255 . S
O891 Fe880 1.976 . S
O891 C898 1.287 . S
O892 Fe881 1.996 . S
O892 C898 1.255 . S
O893 Fe883 1.976 . S
O893 C888 1.287 . S
O894 Fe880 1.996 . S
O894 C888 1.255 . S
C895 O899 1.295 . S
C895 O900 1.235 . S
O896 Fe881 1.976 . S
O896 C890 1.287 . S
O897 Fe883 1.996 . S
O897 C890 1.255 . S
C898 O891 1.287 . S
C898 O892 1.255 . S
O899 Fe881 2.002 . S
O899 C895 1.295 . S
O900 Fe883 1.997 . S
O900 C895 1.235 . S
C901 O884 1.295 . S
C901 O885 1.235 . S
Fe902 O904 1.918 . S
Fe902 O907 1.997 . S
Fe902 O908 2.002 . S
Fe902 O913 1.976 . S
Fe902 O916 1.996 . S
Fe903 O904 1.918 . S
Fe903 O911 1.997 . S
Fe903 O914 1.996 . S
Fe903 O918 1.976 . S
Fe903 O921 2.002 . S
O904 Fe902 1.918 . S
O904 Fe903 1.918 . S
O904 Fe905 1.918 . S
Fe905 O904 1.918 . S
Fe905 O906 2.002 . S
Fe905 O915 1.976 . S
Fe905 O919 1.996 . S
Fe905 O922 1.997 . S
O906 Fe905 2.002 . S
O906 C923 1.295 . S
O907 Fe902 1.997 . S
O907 C923 1.235 . S
O908 Fe902 2.002 . S
O908 C909 1.295 . S
C909 O908 1.295 . S
C909 O911 1.235 . S
C910 O915 1.287 . S
C910 O916 1.255 . S
O911 Fe903 1.997 . S
O911 C909 1.235 . S
C912 O918 1.287 . S
C912 O919 1.255 . S
O913 Fe902 1.976 . S
O913 C920 1.287 . S
O914 Fe903 1.996 . S
O914 C920 1.255 . S
O915 Fe905 1.976 . S
O915 C910 1.287 . S
O916 Fe902 1.996 . S
O916 C910 1.255 . S
C917 O921 1.295 . S
C917 O922 1.235 . S
O918 Fe903 1.976 . S
O918 C912 1.287 . S
O919 Fe905 1.996 . S
O919 C912 1.255 . S
C920 O913 1.287 . S
C920 O914 1.255 . S
O921 Fe903 2.002 . S
O921 C917 1.295 . S
O922 Fe905 1.997 . S
O922 C917 1.235 . S
C923 O906 1.295 . S
C923 O907 1.235 . S
Fe924 O926 1.918 . S
Fe924 O929 1.997 . S
Fe924 O930 2.002 . S
Fe924 O935 1.976 . S
Fe924 O938 1.996 . S
Fe925 O926 1.918 . S
Fe925 O933 1.997 . S
Fe925 O936 1.996 . S
Fe925 O940 1.976 . S
Fe925 O943 2.002 . S
O926 Fe924 1.918 . S
O926 Fe925 1.918 . S
O926 Fe927 1.918 . S
Fe927 O926 1.918 . S
Fe927 O928 2.002 . S
Fe927 O937 1.976 . S
Fe927 O941 1.996 . S
Fe927 O944 1.997 . S
O928 Fe927 2.002 . S
O928 C945 1.295 . S
O929 Fe924 1.997 . S
O929 C945 1.235 . S
O930 Fe924 2.002 . S
O930 C931 1.295 . S
C931 O930 1.295 . S
C931 O933 1.235 . S
C932 O937 1.287 . S
C932 O938 1.255 . S
O933 Fe925 1.997 . S
O933 C931 1.235 . S
C934 O940 1.287 . S
C934 O941 1.255 . S
O935 Fe924 1.976 . S
O935 C942 1.287 . S
O936 Fe925 1.996 . S
O936 C942 1.255 . S
O937 Fe927 1.976 . S
O937 C932 1.287 . S
O938 Fe924 1.996 . S
O938 C932 1.255 . S
C939 O943 1.295 . S
C939 O944 1.235 . S
O940 Fe925 1.976 . S
O940 C934 1.287 . S
O941 Fe927 1.996 . S
O941 C934 1.255 . S
C942 O935 1.287 . S
C942 O936 1.255 . S
O943 Fe925 2.002 . S
O943 C939 1.295 . S
O944 Fe927 1.997 . S
O944 C939 1.235 . S
C945 O928 1.295 . S
C945 O929 1.235 . S
Fe946 O948 1.918 . S
Fe946 O951 1.997 . S
Fe946 O952 2.002 . S
Fe946 O957 1.976 . S
Fe946 O960 1.996 . S
Fe947 O948 1.918 . S
Fe947 O955 1.997 . S
Fe947 O958 1.996 . S
Fe947 O962 1.976 . S
Fe947 O965 2.002 . S
O948 Fe946 1.918 . S
O948 Fe947 1.918 . S
O948 Fe949 1.918 . S
Fe949 O948 1.918 . S
Fe949 O950 2.002 . S
Fe949 O959 1.976 . S
Fe949 O963 1.996 . S
Fe949 O966 1.997 . S
O950 Fe949 2.002 . S
O950 C967 1.295 . S
O951 Fe946 1.997 . S
O951 C967 1.235 . S
O952 Fe946 2.002 . S
O952 C953 1.295 . S
C953 O952 1.295 . S
C953 O955 1.235 . S
C954 O959 1.287 . S
C954 O960 1.255 . S
O955 Fe947 1.997 . S
O955 C953 1.235 . S
C956 O962 1.287 . S
C956 O963 1.255 . S
O957 Fe946 1.976 . S
O957 C964 1.287 . S
O958 Fe947 1.996 . S
O958 C964 1.255 . S
O959 Fe949 1.976 . S
O959 C954 1.287 . S
O960 Fe946 1.996 . S
O960 C954 1.255 . S
C961 O965 1.295 . S
C961 O966 1.235 . S
O962 Fe947 1.976 . S
O962 C956 1.287 . S
O963 Fe949 1.996 . S
O963 C956 1.255 . S
C964 O957 1.287 . S
C964 O958 1.255 . S
O965 Fe947 2.002 . S
O965 C961 1.295 . S
O966 Fe949 1.997 . S
O966 C961 1.235 . S
C967 O950 1.295 . S
C967 O951 1.235 . S
Fe968 O970 1.918 . S
Fe968 O973 1.997 . S
Fe968 O974 2.002 . S
Fe968 O979 1.976 . S
Fe968 O982 1.996 . S
Fe969 O970 1.918 . S
Fe969 O977 1.997 . S
Fe969 O980 1.996 . S
Fe969 O984 1.976 . S
Fe969 O987 2.002 . S
O970 Fe968 1.918 . S
O970 Fe969 1.918 . S
O970 Fe971 1.918 . S
Fe971 O970 1.918 . S
Fe971 O972 2.002 . S
Fe971 O981 1.976 . S
Fe971 O985 1.996 . S
Fe971 O988 1.997 . S
O972 Fe971 2.002 . S
O972 C989 1.295 . S
O973 Fe968 1.997 . S
O973 C989 1.235 . S
O974 Fe968 2.002 . S
O974 C975 1.295 . S
C975 O974 1.295 . S
C975 O977 1.235 . S
C976 O981 1.287 . S
C976 O982 1.255 . S
O977 Fe969 1.997 . S
O977 C975 1.235 . S
C978 O984 1.287 . S
C978 O985 1.255 . S
O979 Fe968 1.976 . S
O979 C986 1.287 . S
O980 Fe969 1.996 . S
O980 C986 1.255 . S
O981 Fe971 1.976 . S
O981 C976 1.287 . S
O982 Fe968 1.996 . S
O982 C976 1.255 . S
C983 O987 1.295 . S
C983 O988 1.235 . S
O984 Fe969 1.976 . S
O984 C978 1.287 . S
O985 Fe971 1.996 . S
O985 C978 1.255 . S
C986 O979 1.287 . S
C986 O980 1.255 . S
O987 Fe969 2.002 . S
O987 C983 1.295 . S
O988 Fe971 1.997 . S
O988 C983 1.235 . S
C989 O972 1.295 . S
C989 O973 1.235 . S
Fe990 O992 1.918 . S
Fe990 O995 1.997 . S
Fe990 O996 2.002 . S
Fe990 O1001 1.976 . S
Fe990 O1004 1.996 . S
Fe991 O992 1.918 . S
Fe991 O999 1.997 . S
Fe991 O1002 1.996 . S
Fe991 O1006 1.976 . S
Fe991 O1009 2.002 . S
O992 Fe990 1.918 . S
O992 Fe991 1.918 . S
O992 Fe993 1.918 . S
Fe993 O992 1.918 . S
Fe993 O994 2.002 . S
Fe993 O1003 1.976 . S
Fe993 O1007 1.996 . S
Fe993 O1010 1.997 . S
O994 Fe993 2.002 . S
O994 C1011 1.295 . S
O995 Fe990 1.997 . S
O995 C1011 1.235 . S
O996 Fe990 2.002 . S
O996 C997 1.295 . S
C997 O996 1.295 . S
C997 O999 1.235 . S
C998 O1003 1.287 . S
C998 O1004 1.255 . S
O999 Fe991 1.997 . S
O999 C997 1.235 . S
C1000 O1006 1.287 . S
C1000 O1007 1.255 . S
O1001 Fe990 1.976 . S
O1001 C1008 1.287 . S
O1002 Fe991 1.996 . S
O1002 C1008 1.255 . S
O1003 Fe993 1.976 . S
O1003 C998 1.287 . S
O1004 Fe990 1.996 . S
O1004 C998 1.255 . S
C1005 O1009 1.295 . S
C1005 O1010 1.235 . S
O1006 Fe991 1.976 . S
O1006 C1000 1.287 . S
O1007 Fe993 1.996 . S
O1007 C1000 1.255 . S
C1008 O1001 1.287 . S
C1008 O1002 1.255 . S
O1009 Fe991 2.002 . S
O1009 C1005 1.295 . S
O1010 Fe993 1.997 . S
O1010 C1005 1.235 . S
C1011 O994 1.295 . S
C1011 O995 1.235 . S
Fe1012 O1014 1.918 . S
Fe1012 O1017 1.997 . S
Fe1012 O1018 2.002 . S
Fe1012 O1023 1.976 . S
Fe1012 O1026 1.996 . S
Fe1013 O1014 1.918 . S
Fe1013 O1021 1.997 . S
Fe1013 O1024 1.996 . S
Fe1013 O1028 1.976 . S
Fe1013 O1031 2.002 . S
O1014 Fe1012 1.918 . S
O1014 Fe1013 1.918 . S
O1014 Fe1015 1.918 . S
Fe1015 O1014 1.918 . S
Fe1015 O1016 2.002 . S
Fe1015 O1025 1.976 . S
Fe1015 O1029 1.996 . S
Fe1015 O1032 1.997 . S
O1016 Fe1015 2.002 . S
O1016 C1033 1.295 . S
O1017 Fe1012 1.997 . S
O1017 C1033 1.235 . S
O1018 Fe1012 2.002 . S
O1018 C1019 1.295 . S
C1019 O1018 1.295 . S
C1019 O1021 1.235 . S
C1020 O1025 1.287 . S
C1020 O1026 1.255 . S
O1021 Fe1013 1.997 . S
O1021 C1019 1.235 . S
C1022 O1028 1.287 . S
C1022 O1029 1.255 . S
O1023 Fe1012 1.976 . S
O1023 C1030 1.287 . S
O1024 Fe1013 1.996 . S
O1024 C1030 1.255 . S
O1025 Fe1015 1.976 . S
O1025 C1020 1.287 . S
O1026 Fe1012 1.996 . S
O1026 C1020 1.255 . S
C1027 O1031 1.295 . S
C1027 O1032 1.235 . S
O1028 Fe1013 1.976 . S
O1028 C1022 1.287 . S
O1029 Fe1015 1.996 . S
O1029 C1022 1.255 . S
C1030 O1023 1.287 . S
C1030 O1024 1.255 . S
O1031 Fe1013 2.002 . S
O1031 C1027 1.295 . S
O1032 Fe1015 1.997 . S
O1032 C1027 1.235 . S
C1033 O1016 1.295 . S
C1033 O1017 1.235 . S
Fe1034 O1036 1.918 . S
Fe1034 O1039 1.997 . S
Fe1034 O1040 2.002 . S
Fe1034 O1045 1.976 . S
Fe1034 O1048 1.996 . S
Fe1035 O1036 1.918 . S
Fe1035 O1043 1.997 . S
Fe1035 O1046 1.996 . S
Fe1035 O1050 1.976 . S
Fe1035 O1053 2.002 . S
O1036 Fe1034 1.918 . S
O1036 Fe1035 1.918 . S
O1036 Fe1037 1.918 . S
Fe1037 O1036 1.918 . S
Fe1037 O1038 2.002 . S
Fe1037 O1047 1.976 . S
Fe1037 O1051 1.996 . S
Fe1037 O1054 1.997 . S
O1038 Fe1037 2.002 . S
O1038 C1055 1.295 . S
O1039 Fe1034 1.997 . S
O1039 C1055 1.235 . S
O1040 Fe1034 2.002 . S
O1040 C1041 1.295 . S
C1041 O1040 1.295 . S
C1041 O1043 1.235 . S
C1042 O1047 1.287 . S
C1042 O1048 1.255 . S
O1043 Fe1035 1.997 . S
O1043 C1041 1.235 . S
C1044 O1050 1.287 . S
C1044 O1051 1.255 . S
O1045 Fe1034 1.976 . S
O1045 C1052 1.287 . S
O1046 Fe1035 1.996 . S
O1046 C1052 1.255 . S
O1047 Fe1037 1.976 . S
O1047 C1042 1.287 . S
O1048 Fe1034 1.996 . S
O1048 C1042 1.255 . S
C1049 O1053 1.295 . S
C1049 O1054 1.235 . S
O1050 Fe1035 1.976 . S
O1050 C1044 1.287 . S
O1051 Fe1037 1.996 . S
O1051 C1044 1.255 . S
C1052 O1045 1.287 . S
C1052 O1046 1.255 . S
O1053 Fe1035 2.002 . S
O1053 C1049 1.295 . S
O1054 Fe1037 1.997 . S
O1054 C1049 1.235 . S
C1055 O1038 1.295 . S
C1055 O1039 1.235 . S
C21 C84 1.379 1_545 S
C8 C37 1.412 1_455 S
C32 C65 1.389 1_545 S
C52 C73 1.396 1_655 S
C109 C118 1.371 1_565 S
C131 C140 1.414 1_455 S
C153 C161 1.425 1_545 S
C172 C96 1.366 1_655 S
C183 C404 1.362 1_554 S
C426 C219 1.371 1_556 S
C450 C227 1.396 1_556 S
C392 C249 1.389 1_556 S
C271 C494 1.387 1_556 S
C293 C367 1.425 1_556 S
C329 C524 1.382 1_556 S
C337 C480 1.379 1_556 S
C206 C362 1.366 1_655 S
C381 C348 1.412 1_455 S
C417 C282 1.382 1_545 S
C439 C304 1.414 1_655 S
C455 C316 1.362 1_565 S
C260 C469 1.396 1_455 S
C499 C194 1.396 1_565 S
C513 C238 1.387 1_545 S
C612 C543 1.379 . S
C565 C538 1.412 . S
C560 C593 1.389 . S
C601 C580 1.396 . S
C637 C646 1.371 . S
C659 C668 1.414 . S
C681 C697 1.425 . S
C624 C692 1.366 . S
C934 C719 1.362 . S
C747 C954 1.371 . S
C978 C755 1.396 . S
C920 C777 1.389 . S
C799 C1030 1.387 . S
C821 C901 1.425 . S
C1044 C857 1.382 . S
C865 C1000 1.379 . S
C734 C888 1.366 . S
C876 C909 1.412 . S
C939 C810 1.382 . S
C967 C832 1.414 . S
C983 C844 1.362 . S
C1005 C788 1.396 . S
C714 C1019 1.396 . S
C1049 C766 1.387 . S
C18 C370 1.122 . S
C521 C30 1.166 . S
C62 C477 1.165 . S
C76 C505 1.163 . S
C106 C389 1.175 . S
C403 C128 1.163 . S
C150 C425 1.170 . S
C461 C175 1.226 . S
C186 C7 1.150 . S
C216 C43 1.175 . S
C230 C51 1.162 . S
C252 C81 1.165 . S
C95 C274 1.163 . S
C296 C117 1.170 . S
C326 C139 1.158 . S
C340 C162 1.122 . S
C191 C359 1.226 . S
C384 C279 1.166 . S
C414 C301 1.158 . S
C315 C436 1.163 . S
C345 C448 1.150 . S
C472 C235 1.163 . S
C492 C257 1.162 . S
C516 C205 1.163 . S
C890 C536 1.122 . S
C558 C1055 1.166 . S
C590 C1011 1.165 . S
C1027 C604 1.163 . S
C917 C634 1.175 . S
C656 C945 1.163 . S
C953 C678 1.170 . S
C989 C689 1.226 . S
C549 C712 1.150 . S
C571 C744 1.175 . S
C579 C758 1.162 . S
C609 C780 1.165 . S
C623 C802 1.163 . S
C645 C824 1.170 . S
C667 C854 1.158 . S
C868 C700 1.122 . S
C895 C725 1.226 . S
C912 C807 1.166 . S
C932 C829 1.158 . S
C964 C843 1.163 . S
C976 C873 1.150 . S
C998 C763 1.163 . S
C1022 C785 1.162 . S
C733 C1042 1.163 . S
C10 C986 1.589 . S
C910 C40 1.570 . S
C942 C54 1.565 . S
C74 C956 1.566 . S
C1052 C98 1.585 . S
C1008 C120 1.566 . S
C1020 C142 1.578 . S
C169 C887 1.631 . S
C184 C866 1.589 . S
C800 C208 1.585 . S
C822 C228 1.578 . S
C846 C250 1.565 . S
C272 C736 1.585 . S
C294 C756 1.578 . S
C318 C778 1.565 . S
C722 C338 1.589 . S
C373 C703 1.631 . S
C382 C568 1.570 . S
C406 C582 1.565 . S
C428 C602 1.566 . S
C458 C546 1.589 . S
C648 C470 1.566 . S
C502 C670 1.578 . S
C514 C626 1.585 . S
C164 C711 1.642 . S
C741 C103 1.661 . S
C125 C769 1.681 . S
C147 C791 1.683 . S
C29 C813 1.684 . S
C835 C59 1.683 . S
C87 C851 1.687 . S
C15 C879 1.662 . S
C447 C898 1.642 . S
C1041 C395 1.684 . S
C997 C411 1.687 . S
C433 C1033 1.681 . S
C527 C923 1.684 . S
C483 C931 1.687 . S
C961 C491 1.681 . S
C975 C360 1.642 . S
C351 C535 1.662 . S
C213 C631 1.661 . S
C653 C241 1.681 . S
C263 C675 1.683 . S
C197 C690 1.642 . S
C307 C587 1.683 . S
C323 C615 1.687 . S
C557 C285 1.684 . S
