# Generated by pormake.
# Topology crs, (6)-cn, num edge types: 1
# Building blocks:
#     Node 0, Type 0, BuildingBlock: HISSIN_clean_sbu_0, # of connection points: 6
#     Node 1, Type 0, BuildingBlock: HISSIN_clean_sbu_0, # of connection points: 6
#     Node 2, Type 0, BuildingBlock: HISSIN_clean_sbu_0, # of connection points: 6
#     Node 3, Type 0, BuildingBlock: HISSIN_clean_sbu_0, # of connection points: 6
#     Node 4, Type 0, BuildingBlock: HISSIN_clean_sbu_0, # of connection points: 6
#     Node 5, Type 0, BuildingBlock: HISSIN_clean_sbu_0, # of connection points: 6
#     Node 6, Type 0, BuildingBlock: HISSIN_clean_sbu_0, # of connection points: 6
#     Node 7, Type 0, BuildingBlock: HISSIN_clean_sbu_0, # of connection points: 6
#     Node 8, Type 0, BuildingBlock: HISSIN_clean_sbu_0, # of connection points: 6
#     Node 9, Type 0, BuildingBlock: HISSIN_clean_sbu_0, # of connection points: 6
#     Node 10, Type 0, BuildingBlock: HISSIN_clean_sbu_0, # of connection points: 6
#     Node 11, Type 0, BuildingBlock: HISSIN_clean_sbu_0, # of connection points: 6
#     Node 12, Type 0, BuildingBlock: HISSIN_clean_sbu_0, # of connection points: 6
#     Node 13, Type 0, BuildingBlock: HISSIN_clean_sbu_0, # of connection points: 6
#     Node 14, Type 0, BuildingBlock: HISSIN_clean_sbu_0, # of connection points: 6
#     Node 15, Type 0, BuildingBlock: HISSIN_clean_sbu_0, # of connection points: 6
#     Edge 16, Type (0, 0), BuildingBlock: CIFDUS_clean_linker_0, # of connection points: 2
#     Edge 17, Type (0, 0), BuildingBlock: CIFDUS_clean_linker_0, # of connection points: 2
#     Edge 18, Type (0, 0), BuildingBlock: CIFDUS_clean_linker_0, # of connection points: 2
#     Edge 19, Type (0, 0), BuildingBlock: CIFDUS_clean_linker_0, # of connection points: 2
#     Edge 20, Type (0, 0), BuildingBlock: CIFDUS_clean_linker_0, # of connection points: 2
#     Edge 21, Type (0, 0), BuildingBlock: CIFDUS_clean_linker_0, # of connection points: 2
#     Edge 22, Type (0, 0), BuildingBlock: CIFDUS_clean_linker_0, # of connection points: 2
#     Edge 23, Type (0, 0), BuildingBlock: CIFDUS_clean_linker_0, # of connection points: 2
#     Edge 24, Type (0, 0), BuildingBlock: CIFDUS_clean_linker_0, # of connection points: 2
#     Edge 25, Type (0, 0), BuildingBlock: CIFDUS_clean_linker_0, # of connection points: 2
#     Edge 26, Type (0, 0), BuildingBlock: CIFDUS_clean_linker_0, # of connection points: 2
#     Edge 27, Type (0, 0), BuildingBlock: CIFDUS_clean_linker_0, # of connection points: 2
#     Edge 28, Type (0, 0), BuildingBlock: CIFDUS_clean_linker_0, # of connection points: 2
#     Edge 29, Type (0, 0), BuildingBlock: CIFDUS_clean_linker_0, # of connection points: 2
#     Edge 30, Type (0, 0), BuildingBlock: CIFDUS_clean_linker_0, # of connection points: 2
#     Edge 31, Type (0, 0), BuildingBlock: CIFDUS_clean_linker_0, # of connection points: 2
#     Edge 32, Type (0, 0), BuildingBlock: CIFDUS_clean_linker_0, # of connection points: 2
#     Edge 33, Type (0, 0), BuildingBlock: CIFDUS_clean_linker_0, # of connection points: 2
#     Edge 34, Type (0, 0), BuildingBlock: CIFDUS_clean_linker_0, # of connection points: 2
#     Edge 35, Type (0, 0), BuildingBlock: CIFDUS_clean_linker_0, # of connection points: 2
#     Edge 36, Type (0, 0), BuildingBlock: CIFDUS_clean_linker_0, # of connection points: 2
#     Edge 37, Type (0, 0), BuildingBlock: CIFDUS_clean_linker_0, # of connection points: 2
#     Edge 38, Type (0, 0), BuildingBlock: CIFDUS_clean_linker_0, # of connection points: 2
#     Edge 39, Type (0, 0), BuildingBlock: CIFDUS_clean_linker_0, # of connection points: 2
#     Edge 40, Type (0, 0), BuildingBlock: CIFDUS_clean_linker_0, # of connection points: 2
#     Edge 41, Type (0, 0), BuildingBlock: CIFDUS_clean_linker_0, # of connection points: 2
#     Edge 42, Type (0, 0), BuildingBlock: CIFDUS_clean_linker_0, # of connection points: 2
#     Edge 43, Type (0, 0), BuildingBlock: CIFDUS_clean_linker_0, # of connection points: 2
#     Edge 44, Type (0, 0), BuildingBlock: CIFDUS_clean_linker_0, # of connection points: 2
#     Edge 45, Type (0, 0), BuildingBlock: CIFDUS_clean_linker_0, # of connection points: 2
#     Edge 46, Type (0, 0), BuildingBlock: CIFDUS_clean_linker_0, # of connection points: 2
#     Edge 47, Type (0, 0), BuildingBlock: CIFDUS_clean_linker_0, # of connection points: 2
#     Edge 48, Type (0, 0), BuildingBlock: CIFDUS_clean_linker_0, # of connection points: 2
#     Edge 49, Type (0, 0), BuildingBlock: CIFDUS_clean_linker_0, # of connection points: 2
#     Edge 50, Type (0, 0), BuildingBlock: CIFDUS_clean_linker_0, # of connection points: 2
#     Edge 51, Type (0, 0), BuildingBlock: CIFDUS_clean_linker_0, # of connection points: 2
#     Edge 52, Type (0, 0), BuildingBlock: CIFDUS_clean_linker_0, # of connection points: 2
#     Edge 53, Type (0, 0), BuildingBlock: CIFDUS_clean_linker_0, # of connection points: 2
#     Edge 54, Type (0, 0), BuildingBlock: CIFDUS_clean_linker_0, # of connection points: 2
#     Edge 55, Type (0, 0), BuildingBlock: CIFDUS_clean_linker_0, # of connection points: 2
#     Edge 56, Type (0, 0), BuildingBlock: CIFDUS_clean_linker_0, # of connection points: 2
#     Edge 57, Type (0, 0), BuildingBlock: CIFDUS_clean_linker_0, # of connection points: 2
#     Edge 58, Type (0, 0), BuildingBlock: CIFDUS_clean_linker_0, # of connection points: 2
#     Edge 59, Type (0, 0), BuildingBlock: CIFDUS_clean_linker_0, # of connection points: 2
#     Edge 60, Type (0, 0), BuildingBlock: CIFDUS_clean_linker_0, # of connection points: 2
#     Edge 61, Type (0, 0), BuildingBlock: CIFDUS_clean_linker_0, # of connection points: 2
#     Edge 62, Type (0, 0), BuildingBlock: CIFDUS_clean_linker_0, # of connection points: 2
#     Edge 63, Type (0, 0), BuildingBlock: CIFDUS_clean_linker_0, # of connection points: 2
# Relax obj value: 0.503
# Max RMSD: 0.378
# Mean RMSD: 0.322
data_MOF--net-crs--node1-HISSIN_clean_sbu_0--edge1-CIFDUS_clean_linker_0
_symmetry_space_group_name_H-M    P1
_symmetry_Int_Tables_number       1
_symmetry_cell_setting            triclinic
loop_
_symmetry_equiv_pos_as_xyz
'x, y, z'
_cell_length_a     47.302742
_cell_length_b     52.087231
_cell_length_c     39.140169
_cell_angle_alpha  72.36417
_cell_angle_beta   73.909841
_cell_angle_gamma 64.126941
loop_
_atom_site_label
_atom_site_type_symbol
_atom_site_fract_x
_atom_site_fract_y
_atom_site_fract_z
_atom_type_partial_charge
Eu0 Eu -0.01968 1.00837 0.02864 0.0
Eu1 Eu -0.01705 0.05514 0.95071 0.0
C2 C 0.92004 0.04346 0.98984 0.0
C3 C 0.95683 0.95108 0.09484 0.0
C4 C 0.93592 0.95754 0.07129 0.0
C5 C 0.94571 0.90791 0.12753 0.0
C6 C 0.92032 0.93921 0.07549 0.0
C7 C 0.96151 0.92632 0.12317 0.0
C8 C 0.92536 0.91398 0.10331 0.0
C9 C -0.02469 0.96918 0.08727 0.0
O10 O 0.96286 0.0809 0.99527 0.0
O11 O -0.0152 0.04512 0.04256 0.0
C12 C -0.02843 0.07282 0.0273 0.0
O13 O 0.03197 0.99887 1.00435 0.0
O14 O 0.95951 0.09638 0.91502 0.0
O15 O 0.00791 0.0682 0.89693 0.0
O16 O 0.02642 0.04505 0.9728 0.0
C17 C 0.04386 1.01894 0.98877 0.0
O18 O -0.02395 0.9892 0.98689 0.0
O19 O 0.00296 1.01063 0.93686 0.0
O20 O 0.93908 0.04628 0.95873 0.0
O21 O -0.0008 0.96403 0.06045 0.0
O22 O 0.95851 0.99706 0.08505 0.0
O23 O 0.92968 0.03679 0.02078 0.0
C24 C -0.00388 0.11887 0.88326 0.0
C25 C 0.02837 0.1144 0.87007 0.0
C26 C -0.01343 0.16616 0.89298 0.0
C27 C 0.03989 0.13486 0.87015 0.0
C28 C -0.02495 0.14559 0.89307 0.0
C29 C 0.01934 0.16044 0.88301 0.0
C30 C -0.01433 0.09439 0.89139 0.0
C31 C -0.00815 0.99003 0.95352 0.0
H32 H 0.93212 0.97652 0.04912 0.0
H33 H 0.9501 0.88853 0.14909 0.0
H34 H 0.9044 0.94471 0.0568 0.0
H35 H -0.02218 0.92093 0.14134 0.0
H36 H 0.04517 0.09422 0.86184 0.0
H37 H -0.02997 0.18598 0.90223 0.0
H38 H 0.0653 0.12963 0.86244 0.0
H39 H 0.94994 0.14998 0.90274 0.0
Eu40 Eu -0.01355 0.28114 0.29141 0.0
Eu41 Eu 0.94934 0.26017 0.25023 0.0
C42 C 0.92385 0.32806 0.25584 0.0
C43 C 0.01015 0.31701 0.34537 0.0
C44 C -0.02126 0.33414 0.35859 0.0
C45 C 0.02981 0.34083 0.37248 0.0
C46 C -0.0271 0.35447 0.37886 0.0
C47 C 0.03559 0.32049 0.35237 0.0
C48 C -0.00159 0.35804 0.38597 0.0
C49 C 0.01693 0.29543 0.32426 0.0
O50 O -0.01764 0.27692 0.20447 0.0
O51 O 0.01745 0.27357 0.23782 0.0
C52 C 0.00928 0.27752 0.20666 0.0
O53 O 0.00342 0.23188 0.30677 0.0
O54 O 0.92727 0.26327 0.20607 0.0
O55 O 0.92818 0.22931 0.25468 0.0
O56 O -0.00306 0.22368 0.25586 0.0
C57 C 0.01034 0.21452 0.28471 0.0
O58 O 0.93879 0.2879 0.32618 0.0
O59 O 0.9302 0.25312 0.3109 0.0
O60 O 0.9174 0.30688 0.2524 0.0
O61 O 0.00468 0.27572 0.33959 0.0
O62 O 0.0145 0.30553 0.2899 0.0
O63 O 0.95022 0.32351 0.26609 0.0
C64 C 0.93052 0.21767 0.19977 0.0
C65 C 0.94717 0.22037 0.16385 0.0
C66 C 0.92943 0.17252 0.19527 0.0
C67 C 0.9548 0.19931 0.14382 0.0
C68 C 0.92162 0.19362 0.21511 0.0
C69 C 0.94613 0.17507 0.15941 0.0
C70 C 0.92172 0.23955 0.22174 0.0
C71 C 0.92398 0.27036 0.33291 0.0
H72 H 0.95881 0.33178 0.35322 0.0
H73 H 0.04995 0.34278 0.3779 0.0
H74 H 0.94847 0.36762 0.38858 0.0
H75 H 0.05998 0.30738 0.34238 0.0
H76 H 0.95437 0.23866 0.15121 0.0
H77 H 0.92198 0.15437 0.20788 0.0
H78 H 0.96786 0.20177 0.11633 0.0
H79 H 0.90851 0.19115 0.2426 0.0
Eu80 Eu 0.72755 0.28241 0.55612 0.0
Eu81 Eu 0.71647 0.25826 0.49409 0.0
C82 C 0.78397 0.25522 0.49536 0.0
C83 C 0.75521 0.3154 0.61016 0.0
C84 C 0.78261 0.31709 0.5856 0.0
C85 C 0.76017 0.34416 0.64501 0.0
C86 C 0.799 0.33184 0.5911 0.0
C87 C 0.74394 0.32922 0.63965 0.0
C88 C 0.78807 0.3453 0.62104 0.0
C89 C 0.73883 0.29837 0.60644 0.0
O90 O 0.7101 0.22552 0.54699 0.0
O91 O 0.73783 0.23436 0.57876 0.0
C92 C 0.72396 0.21839 0.57539 0.0
O93 O 0.67661 0.28614 0.57223 0.0
O94 O 0.73341 0.22341 0.46452 0.0
O95 O 0.69509 0.26441 0.44806 0.0
O96 O 0.66657 0.27815 0.52268 0.0
C97 C 0.65716 0.2856 0.55432 0.0
O98 O 0.71394 0.32275 0.51175 0.0
O99 O 0.72119 0.30209 0.46407 0.0
O100 O 0.76845 0.23919 0.49748 0.0
O101 O 0.7132 0.31288 0.59161 0.0
O102 O 0.75689 0.27409 0.59531 0.0
O103 O 0.77045 0.27736 0.51152 0.0
C104 C 0.69489 0.22156 0.43911 0.0
C105 C 0.66387 0.22537 0.45796 0.0
C106 C 0.69466 0.18538 0.41222 0.0
C107 C 0.64826 0.20938 0.45373 0.0
C108 C 0.71013 0.20154 0.41622 0.0
C109 C 0.66359 0.18914 0.43093 0.0
C110 C 0.71202 0.23778 0.44336 0.0
C111 C 0.71666 0.32467 0.47678 0.0
H112 H 0.79153 0.30672 0.56249 0.0
H113 H 0.75135 0.35421 0.6684 0.0
H114 H 0.82018 0.33278 0.57192 0.0
H115 H 0.72284 0.32807 0.65886 0.0
H116 H 0.65181 0.24054 0.47608 0.0
H117 H 0.70691 0.17008 0.39429 0.0
H118 H 0.62446 0.21243 0.4688 0.0
H119 H 0.73409 0.19831 0.40154 0.0
Eu120 Eu 0.70895 1.00982 0.74592 0.0
Eu121 Eu 0.71977 0.03489 0.8057 0.0
C122 C 0.65328 0.06017 0.78213 0.0
C123 C 0.69453 0.99636 0.66236 0.0
C124 C 0.67933 0.02586 0.6467 0.0
C125 C 0.68836 0.98231 0.61225 0.0
C126 C 0.66711 0.03345 0.61482 0.0
C127 C 0.70051 0.97477 0.64408 0.0
C128 C 0.66986 1.01156 0.59863 0.0
C129 C 0.70266 0.98748 0.69863 0.0
O130 O 0.72485 0.98834 0.83478 0.0
O131 O 0.69543 0.98356 0.80123 0.0
C132 C 0.70945 0.97421 0.82995 0.0
O133 O 0.7582 0.98051 0.75736 0.0
O134 O 0.70166 0.04599 0.85905 0.0
O135 O 0.73881 0.05952 0.82252 0.0
O136 O 0.77005 1.00403 0.7893 0.0
C137 C 0.77838 0.98317 0.77189 0.0
O138 O 0.72579 0.04515 0.71046 0.0
O139 O 0.71656 0.07082 0.75345 0.0
O140 O 0.66772 0.04569 0.8101 0.0
O141 O 0.72946 0.98815 0.70021 0.0
O142 O 0.67969 0.99752 0.72474 0.0
O143 O 0.66708 0.05282 0.75059 0.0
C144 C 0.73936 0.0485 0.88485 0.0
C145 C 0.75602 1.01876 0.89815 0.0
C146 C 0.76276 0.06104 0.92178 0.0
C147 C 0.77675 1.0102 0.9225 0.0
C148 C 0.74193 0.06953 0.89769 0.0
C149 C 0.7813 0.03132 0.93336 0.0
C150 C 0.72179 0.05797 0.85506 0.0
C151 C 0.72235 0.06896 0.71904 0.0
H152 H 0.6752 0.04279 0.66027 0.0
H153 H 0.69065 0.96496 0.6006 0.0
H154 H 0.65305 0.05616 0.60469 0.0
H155 H 0.71276 0.95192 0.65567 0.0
H156 H 0.75415 1.00227 0.88842 0.0
H157 H 0.76602 0.07792 0.92908 0.0
H158 H 0.79047 0.98716 0.93126 0.0
H159 H 0.72917 0.09258 0.88752 0.0
Eu160 Eu 0.48855 0.77868 0.301 0.0
Eu161 Eu 0.45426 0.7728 0.24062 0.0
C162 C 0.42684 0.83254 0.27008 0.0
C163 C 0.50699 0.80888 0.36644 0.0
C164 C 0.47825 0.83345 0.36524 0.0
C165 C 0.5236 0.82951 0.40177 0.0
C166 C 0.47239 0.85608 0.38179 0.0
C167 C 0.52943 0.80693 0.38515 0.0
C168 C 0.49519 0.85461 0.39984 0.0
C169 C 0.51492 0.78649 0.34579 0.0
O170 O 0.48111 0.80185 0.21089 0.0
O171 O 0.51985 0.78036 0.24623 0.0
C172 C 0.51005 0.79551 0.21527 0.0
O173 O 0.51086 0.7306 0.29892 0.0
O174 O 0.45552 0.77171 0.18489 0.0
O175 O 0.41642 0.76626 0.22687 0.0
O176 O 0.50093 0.73442 0.24279 0.0
C177 C 0.5162 0.71963 0.27038 0.0
O178 O 0.44217 0.77482 0.33055 0.0
O179 O 0.44022 0.74754 0.29583 0.0
O180 O 0.42091 0.81543 0.25667 0.0
O181 O 0.49749 0.77089 0.35602 0.0
O182 O 0.5204 0.79493 0.31053 0.0
O183 O 0.45289 0.8241 0.28347 0.0
C184 C 0.43213 0.74231 0.17729 0.0
C185 C 0.42909 0.71636 0.19903 0.0
C186 C 0.43855 0.72512 0.12327 0.0
C187 C 0.4305 0.69506 0.18291 0.0
C188 C 0.437 0.74637 0.13935 0.0
C189 C 0.43504 0.69926 0.14478 0.0
C190 C 0.43017 0.76563 0.19306 0.0
C191 C 0.43125 0.75703 0.32615 0.0
H192 H 0.46066 0.83538 0.35083 0.0
H193 H 0.54185 0.82774 0.41502 0.0
H194 H 0.45008 0.87486 0.38016 0.0
H195 H 0.55189 0.78826 0.38608 0.0
H196 H 0.42542 0.7126 0.2284 0.0
H197 H 0.44272 0.72892 0.09387 0.0
H198 H 0.42744 0.67556 0.20036 0.0
H199 H 0.4396 0.76612 0.12202 0.0
Eu200 Eu 0.22535 0.77988 0.54562 0.0
Eu201 Eu 0.21282 0.75721 0.48337 0.0
C202 C 0.28272 0.7555 0.48081 0.0
C203 C 0.25325 0.81247 0.59872 0.0
C204 C 0.26858 0.82614 0.56737 0.0
C205 C 0.2742 0.82715 0.63622 0.0
C206 C 0.28638 0.84055 0.57045 0.0
C207 C 0.25629 0.81288 0.6331 0.0
C208 C 0.28924 0.84129 0.60493 0.0
C209 C 0.23399 0.79779 0.59598 0.0
O210 O 0.22815 0.71602 0.5273 0.0
O211 O 0.2214 0.73617 0.57517 0.0
C212 C 0.22612 0.71369 0.56236 0.0
O213 O 0.17204 0.79495 0.55112 0.0
O214 O 0.22285 0.72574 0.45088 0.0
O215 O 0.18615 0.76906 0.44013 0.0
O216 O 0.16989 0.76117 0.52689 0.0
C217 C 0.15666 0.78045 0.54748 0.0
O218 O 0.22771 0.81503 0.49451 0.0
O219 O 0.19887 0.80626 0.46437 0.0
O220 O 0.26238 0.75585 0.4636 0.0
O221 O 0.21162 0.81335 0.57619 0.0
O222 O 0.24967 0.77138 0.59013 0.0
O223 O 0.27459 0.7607 0.51373 0.0
C224 C 0.17781 0.73139 0.42998 0.0
C225 C 0.15904 0.72173 0.46139 0.0
C226 C 0.14957 0.72452 0.39266 0.0
C227 C 0.13545 0.71364 0.45842 0.0
C228 C 0.17317 0.73254 0.39567 0.0
C229 C 0.13023 0.71529 0.424 0.0
C230 C 0.19984 0.74322 0.43251 0.0
C231 C 0.21212 0.82281 0.46756 0.0
H232 H 0.26661 0.82578 0.54059 0.0
H233 H 0.27573 0.82765 0.6631 0.0
H234 H 0.298 0.85101 0.54591 0.0
H235 H 0.24459 0.80236 0.65752 0.0
H236 H 0.16219 0.72103 0.48809 0.0
H237 H 0.14589 0.7263 0.36579 0.0
H238 H 0.12125 0.70619 0.48306 0.0
H239 H 0.18724 0.7404 0.3712 0.0
Eu240 Eu 0.21207 0.5145 0.74589 0.0
Eu241 Eu 0.22355 0.53446 0.81075 0.0
C242 C 0.15648 0.56323 0.78552 0.0
C243 C 0.1917 0.50711 0.66117 0.0
C244 C 0.1637 0.53195 0.65573 0.0
C245 C 0.19389 0.49719 0.60369 0.0
C246 C 0.15013 0.53862 0.62511 0.0
C247 C 0.20736 0.49048 0.63435 0.0
C248 C 0.16443 0.52054 0.59961 0.0
C249 C 0.20358 0.49652 0.6957 0.0
O250 O 0.22727 0.48789 0.8362 0.0
O251 O 0.19939 0.48498 0.79902 0.0
C252 C 0.21239 0.4745 0.8287 0.0
O253 O 0.26123 0.48372 0.75645 0.0
O254 O 0.20631 0.54256 0.86563 0.0
O255 O 0.24433 0.5558 0.83102 0.0
O256 O 0.27353 0.50451 0.79152 0.0
C257 C 0.28162 0.48484 0.77231 0.0
O258 O 0.22815 0.5516 0.7142 0.0
O259 O 0.2206 0.57248 0.7616 0.0
O260 O 0.17097 0.54866 0.81354 0.0
O261 O 0.23002 0.49888 0.69523 0.0
O262 O 0.18262 0.50234 0.72502 0.0
O263 O 0.16982 0.55634 0.75371 0.0
C264 C 0.24387 0.54294 0.894 0.0
C265 C 0.25878 0.51299 0.90797 0.0
C266 C 0.2649 0.55382 0.93518 0.0
C267 C 0.27722 0.50347 0.93513 0.0
C268 C 0.24639 0.56325 0.90829 0.0
C269 C 0.28115 0.52381 0.94835 0.0
C270 C 0.22698 0.55355 0.86329 0.0
C271 C 0.22579 0.57354 0.72633 0.0
H272 H 0.15146 0.54526 0.67601 0.0
H273 H 0.20559 0.48314 0.58422 0.0
H274 H 0.12729 0.55662 0.62285 0.0
H275 H 0.2292 0.47141 0.638 0.0
H276 H 0.25693 0.49704 0.89716 0.0
H277 H 0.26789 0.57012 0.94405 0.0
H278 H 0.28924 0.48025 0.94489 0.0
H279 H 0.235 0.58645 0.89766 0.0
Eu280 Eu -0.02618 0.49543 0.55783 0.0
Eu281 Eu -0.02376 0.54318 0.48057 0.0
C282 C 0.91509 0.52788 0.5166 0.0
C283 C 0.94627 0.44104 0.62613 0.0
C284 C 0.91842 0.45364 0.61082 0.0
C285 C 0.93655 0.39637 0.6514 0.0
C286 C 0.89994 0.43775 0.61548 0.0
C287 C 0.95509 0.41242 0.64678 0.0
C288 C 0.90899 0.40881 0.63537 0.0
C289 C 0.96766 0.4567 0.61652 0.0
O290 O 0.9548 0.56853 0.5255 0.0
O291 O -0.02332 0.53257 0.57263 0.0
C292 C 0.96344 0.56029 0.55756 0.0
O293 O 0.02557 0.48843 0.53752 0.0
O294 O 0.95231 0.58467 0.44559 0.0
O295 O 0.00063 0.55672 0.42666 0.0
O296 O 0.01912 0.53427 0.50293 0.0
C297 C 0.03662 0.50904 0.52087 0.0
O298 O -0.02629 0.47542 0.51432 0.0
O299 O 0.00022 0.49881 0.46631 0.0
O300 O 0.93461 0.53165 0.48624 0.0
O301 O -0.00995 0.4504 0.58851 0.0
O302 O 0.95367 0.48479 0.61503 0.0
O303 O 0.92328 0.52214 0.54819 0.0
C304 C -0.01113 0.60651 0.41384 0.0
C305 C -0.00747 0.61441 0.44306 0.0
C306 C 0.01516 0.63752 0.37176 0.0
C307 C 0.00798 0.63321 0.43678 0.0
C308 C -0.00039 0.61859 0.37813 0.0
C309 C 0.02021 0.6444 0.40111 0.0
C310 C -0.02191 0.58267 0.42132 0.0
C311 C -0.00967 0.47731 0.48135 0.0
H312 H 0.9115 0.47549 0.59411 0.0
H313 H 0.94402 0.37412 0.66695 0.0
H314 H 0.87928 0.44778 0.60211 0.0
H315 H -0.02325 0.40224 0.65835 0.0
H316 H -0.01508 0.60482 0.47086 0.0
H317 H 0.02414 0.64598 0.344 0.0
H318 H 0.01201 0.63751 0.46005 0.0
H319 H -0.00279 0.61242 0.35533 0.0
Eu320 Eu 0.23749 0.27659 0.05319 0.0
Eu321 Eu 0.2097 0.26394 0.99436 0.0
C322 C 0.28257 0.25474 0.98241 0.0
C323 C 0.28375 0.29604 0.10078 0.0
C324 C 0.28732 0.31924 0.07273 0.0
C325 C 0.32303 0.29665 0.12893 0.0
C326 C 0.30849 0.33125 0.07295 0.0
C327 C 0.30172 0.28479 0.12878 0.0
C328 C 0.32662 0.32005 0.10105 0.0
C329 C 0.26232 0.28262 0.10064 0.0
O330 O 0.20764 0.22776 0.04464 0.0
O331 O 0.24617 0.22848 0.06853 0.0
C332 C 0.22759 0.21582 0.06806 0.0
O333 O 0.18706 0.28242 0.07905 0.0
O334 O 0.21488 0.2344 0.96159 0.0
O335 O 0.17997 0.279 0.95304 0.0
O336 O 0.16494 0.28326 0.03287 0.0
C337 C 0.16249 0.28646 0.06572 0.0
O338 O 0.22241 0.32054 1.01436 0.0
O339 O 0.21613 0.30716 0.96693 0.0
O340 O 0.26325 0.24259 0.98329 0.0
O341 O 0.23426 0.30029 0.09236 0.0
O342 O 0.2753 0.26031 0.08503 0.0
O343 O 0.27461 0.27337 1.00289 0.0
C344 C 0.17056 0.24359 0.93582 0.0
C345 C 0.1373 0.2586 0.94179 0.0
C346 C 0.16448 0.21137 0.90724 0.0
C347 C 0.1178 0.25017 0.93019 0.0
C348 C 0.18391 0.21981 0.91875 0.0
C349 C 0.13127 0.22671 0.91235 0.0
C350 C 0.19212 0.25375 0.94381 0.0
C351 C 0.21824 0.3265 0.98048 0.0
H352 H 0.27375 0.32803 0.05072 0.0
H353 H 0.33697 0.28725 0.15063 0.0
H354 H 0.31037 0.34951 0.05134 0.0
H355 H 0.29944 0.26665 0.15041 0.0
H356 H 0.12637 0.27717 0.95469 0.0
H357 H 0.17552 0.19284 0.89425 0.0
H358 H 0.09228 0.26246 0.93436 0.0
H359 H 0.20951 0.20804 0.91366 0.0
Eu360 Eu 0.20756 1.00721 0.24155 0.0
Eu361 Eu 0.22493 0.03439 0.29416 0.0
C362 C 0.15227 0.06042 0.27692 0.0
C363 C 0.18786 0.99104 0.1639 0.0
C364 C 0.18836 1.01626 0.13775 0.0
C365 C 0.16208 0.98125 0.12676 0.0
C366 C 0.1758 0.02389 0.10608 0.0
C367 C 0.17484 0.97356 0.15815 0.0
C368 C 0.16242 1.00648 0.10033 0.0
C369 C 0.20094 0.98239 0.19722 0.0
O370 O 0.21318 0.99702 0.33426 0.0
O371 O 0.21157 0.9731 0.29461 0.0
C372 C 0.21167 0.97429 0.32772 0.0
O373 O 0.26018 0.99688 0.23068 0.0
O374 O 0.2099 0.05644 0.339 0.0
O375 O 0.25741 0.04831 0.30679 0.0
O376 O 0.26675 0.99228 0.28748 0.0
C377 C 0.27764 0.98418 0.2563 0.0
O378 O 0.20205 0.05265 0.2086 0.0
O379 O 0.23312 0.06092 0.23647 0.0
O380 O 0.17375 0.06233 0.29005 0.0
O381 O 0.22617 0.98759 0.19424 0.0
O382 O 0.18049 0.98849 0.22668 0.0
O383 O 0.15902 0.04004 0.25934 0.0
C384 C 0.25014 0.04928 0.36879 0.0
C385 C 0.27526 1.02247 0.37752 0.0
C386 C 0.24991 0.06236 0.42316 0.0
C387 C 0.28843 1.01613 0.40833 0.0
C388 C 0.23692 0.06875 0.39229 0.0
C389 C 0.27649 0.03647 0.43076 0.0
C390 C 0.23752 0.05775 0.3352 0.0
C391 C 0.21754 0.06811 0.20952 0.0
H392 H 0.19831 0.03008 0.14188 0.0
H393 H 0.15113 0.9678 0.12378 0.0
H394 H 0.17642 0.04341 0.08625 0.0
H395 H 0.17418 0.95411 0.17818 0.0
H396 H 0.28539 1.00695 0.35992 0.0
H397 H 0.24004 0.07823 0.44026 0.0
H398 H 0.3091 0.99613 0.41337 0.0
H399 H 0.21713 0.08931 0.38616 0.0
Eu400 Eu 0.49009 0.28363 0.79447 0.0
Eu401 Eu 0.45313 0.26756 0.74671 0.0
C402 C 0.42646 0.33267 0.76199 0.0
C403 C 0.50906 0.31777 0.85545 0.0
C404 C 0.49373 0.34779 0.84157 0.0
C405 C 0.51126 0.3292 0.91029 0.0
C406 C 0.48768 0.36832 0.86167 0.0
C407 C 0.51756 0.3087 0.89005 0.0
C408 C 0.49652 0.35927 0.8962 0.0
C409 C 0.51741 0.29576 0.83384 0.0
O410 O 0.48395 0.28879 0.70339 0.0
O411 O 0.5172 0.28766 0.73801 0.0
C412 C 0.5087 0.29269 0.70669 0.0
O413 O 0.51386 0.23454 0.7959 0.0
O414 O 0.42914 0.27458 0.70214 0.0
O415 O 0.43319 0.23705 0.74668 0.0
O416 O 0.50309 0.23483 0.74214 0.0
C417 C 0.51999 0.22224 0.76831 0.0
O418 O 0.44313 0.28582 0.82821 0.0
O419 O 0.43874 0.25175 0.80712 0.0
O420 O 0.42027 0.31231 0.75588 0.0
O421 O 0.50381 0.27689 0.84662 0.0
O422 O 0.51924 0.30495 0.79867 0.0
O423 O 0.45276 0.32726 0.77314 0.0
C424 C 0.43061 0.23181 0.69015 0.0
C425 C 0.46178 0.21296 0.67894 0.0
C426 C 0.41032 0.21104 0.65922 0.0
C427 C 0.46714 0.19301 0.65826 0.0
C428 C 0.40502 0.23098 0.67976 0.0
C429 C 0.44138 0.19149 0.64868 0.0
C430 C 0.42391 0.25054 0.71534 0.0
C431 C 0.43104 0.26667 0.83227 0.0
H432 H 0.48666 0.35545 0.81505 0.0
H433 H 0.5186 0.32152 0.93666 0.0
H434 H 0.47592 0.39129 0.85027 0.0
H435 H 0.52947 0.28571 0.90127 0.0
H436 H 0.48183 0.21314 0.68701 0.0
H437 H 0.39002 0.21078 0.65184 0.0
H438 H 0.49133 0.17812 0.65083 0.0
H439 H 0.38079 0.2453 0.6883 0.0
Eu440 Eu -0.01784 0.78024 0.79015 0.0
Eu441 Eu 0.94787 0.76918 0.73515 0.0
C442 C 0.92287 0.83216 0.75484 0.0
C443 C 0.00159 0.81737 0.84653 0.0
C444 C -0.02908 0.83839 0.85478 0.0
C445 C 0.02379 0.84351 0.86647 0.0
C446 C 0.96669 0.8614 0.86953 0.0
C447 C 0.02798 0.82031 0.85206 0.0
C448 C -0.00695 0.86402 0.87591 0.0
C449 C 0.00627 0.79167 0.83375 0.0
O450 O -0.0049 0.77012 0.70365 0.0
O451 O -0.00198 0.80071 0.73268 0.0
C452 C 0.00693 0.78839 0.7047 0.0
O453 O 0.01576 0.73587 0.77841 0.0
O454 O 0.93512 0.77755 0.68207 0.0
O455 O 0.91788 0.74964 0.72857 0.0
O456 O -0.01575 0.72473 0.75389 0.0
C457 C 0.01023 0.71752 0.76673 0.0
O458 O 0.95523 0.75218 0.82382 0.0
O459 O 0.91592 0.77136 0.78977 0.0
O460 O 0.92908 0.81781 0.72947 0.0
O461 O -0.01719 0.78272 0.84438 0.0
O462 O 0.01897 0.79089 0.79976 0.0
O463 O 0.93628 0.81985 0.7841 0.0
C464 C 0.92714 0.73911 0.67116 0.0
C465 C 0.95391 0.71274 0.67385 0.0
C466 C 0.91147 0.7245 0.62833 0.0
C467 C 0.9592 0.69218 0.6542 0.0
C468 C 0.90617 0.74497 0.64805 0.0
C469 C 0.93784 0.69771 0.63147 0.0
C470 C 0.91986 0.76002 0.69358 0.0
C471 C 0.926 0.75815 0.82094 0.0
H472 H 0.95016 0.83678 0.85042 0.0
H473 H 0.04451 0.84487 0.8713 0.0
H474 H 0.94277 0.87709 0.87612 0.0
H475 H 0.05182 0.80434 0.84587 0.0
H476 H -0.0296 0.7079 0.69156 0.0
H477 H 0.89437 0.72931 0.61144 0.0
H478 H -0.02006 0.67194 0.65686 0.0
H479 H 0.88532 0.76518 0.6458 0.0
Eu480 Eu 0.71074 0.513 0.24158 0.0
Eu481 Eu 0.72382 0.53077 0.30736 0.0
C482 C 0.65632 0.5612 0.28288 0.0
C483 C 0.68974 0.50861 0.15568 0.0
C484 C 0.66179 0.5336 0.15081 0.0
C485 C 0.69296 0.50127 0.09626 0.0
C486 C 0.64869 0.54156 0.11949 0.0
C487 C 0.70593 0.49325 0.12765 0.0
C488 C 0.66345 0.52466 0.09268 0.0
C489 C 0.70125 0.49676 0.19051 0.0
O490 O 0.72751 0.48416 0.33108 0.0
O491 O 0.69878 0.48237 0.29394 0.0
C492 C 0.71234 0.47122 0.32326 0.0
O493 O 0.76065 0.48254 0.24943 0.0
O494 O 0.70694 0.53748 0.36289 0.0
O495 O 0.74475 0.55123 0.32879 0.0
O496 O 0.77324 0.49953 0.28873 0.0
C497 C 0.78106 0.4816 0.2671 0.0
O498 O 0.72517 0.5511 0.21055 0.0
O499 O 0.72406 0.56846 0.25861 0.0
O500 O 0.671 0.54589 0.31059 0.0
O501 O 0.72824 0.4978 0.19074 0.0
O502 O 0.68028 0.50264 0.21984 0.0
O503 O 0.66942 0.55503 0.2507 0.0
C504 C 0.74483 0.53687 0.39155 0.0
C505 C 0.76224 0.50688 0.40217 0.0
C506 C 0.76549 0.5466 0.43413 0.0
C507 C 0.78194 0.49684 0.42812 0.0
C508 C 0.74573 0.55654 0.40842 0.0
C509 C 0.78464 0.51675 0.44338 0.0
C510 C 0.72759 0.54833 0.36109 0.0
C511 C 0.72641 0.57112 0.22339 0.0
H512 H 0.64918 0.54602 0.17196 0.0
H513 H 0.70501 0.48811 0.07582 0.0
H514 H 0.62579 0.55956 0.11766 0.0
H515 H 0.72779 0.47412 0.13083 0.0
H516 H 0.76159 0.49143 0.38935 0.0
H517 H 0.76735 0.56263 0.44476 0.0
H518 H 0.79617 0.47371 0.43495 0.0
H519 H 0.73235 0.57977 0.4004 0.0
Eu520 Eu 0.74389 0.77275 0.05183 0.0
Eu521 Eu 0.7018 0.76971 0.99904 0.0
C522 C 0.77726 0.75367 0.9747 0.0
C523 C 0.79871 0.79034 0.08846 0.0
C524 C 0.79946 0.8137 0.05916 0.0
C525 C 0.83772 0.7958 0.11183 0.0
C526 C 0.81896 0.8283 0.05647 0.0
C527 C 0.81812 0.7813 0.11455 0.0
C528 C 0.83812 0.81967 0.08297 0.0
C529 C 0.77728 0.7757 0.09253 0.0
O530 O 0.70346 0.7311 0.04648 0.0
O531 O 0.74495 0.72645 0.07085 0.0
C532 C 0.72428 0.71647 0.06893 0.0
O533 O 0.69579 0.77844 0.08563 0.0
O534 O 0.69388 0.74614 0.9676 0.0
O535 O 0.66309 0.79155 0.96734 0.0
O536 O 0.66513 0.79325 0.04165 0.0
C537 C 0.66797 0.79004 0.07526 0.0
O538 O 0.72669 0.81856 1.01623 0.0
O539 O 0.71481 0.80885 0.96961 0.0
O540 O 0.75309 0.74759 0.9749 0.0
O541 O 0.74745 0.79274 0.09101 0.0
O542 O 0.7877 0.75522 0.07422 0.0
O543 O 0.77687 0.76681 0.99867 0.0
C544 C 0.64117 0.76162 0.95848 0.0
C545 C 0.6301 0.74438 0.98973 0.0
C546 C 0.60181 0.76411 0.92769 0.0
C547 C 0.60536 0.73654 0.98967 0.0
C548 C 0.62654 0.77187 0.92777 0.0
C549 C 0.59138 0.74587 0.95836 0.0
C550 C 0.6688 0.76812 0.95661 0.0
C551 C 0.72019 0.82631 0.98301 0.0
H552 H 0.7846 0.8209 0.03872 0.0
H553 H 0.85256 0.78832 0.13234 0.0
H554 H 0.81842 0.84679 0.03415 0.0
H555 H 0.81789 0.76318 0.13722 0.0
H556 H 0.64114 0.73638 1.01374 0.0
H557 H 0.5912 0.772 0.90339 0.0
H558 H 0.59805 0.72226 1.0136 0.0
H559 H 0.63471 0.78537 0.90352 0.0
Eu560 Eu 0.45566 0.99884 0.57643 0.0
Eu561 Eu 0.47507 0.03661 0.49574 0.0
C562 C 0.40607 0.03389 0.52178 0.0
C563 C 0.42273 0.94685 0.6466 0.0
C564 C 0.38925 0.95752 0.65249 0.0
C565 C 0.42472 0.89917 0.64748 0.0
C566 C 0.37379 0.93963 0.65412 0.0
C567 C 0.44029 0.91717 0.64552 0.0
C568 C 0.39143 0.9106 0.65044 0.0
C569 C 0.43898 0.96729 0.63784 0.0
O570 O 0.46901 0.06272 0.53565 0.0
O571 O 0.43539 0.04586 0.5822 0.0
C572 C 0.44853 0.06513 0.56616 0.0
O573 O 0.49703 1.0071 0.58019 0.0
O574 O 0.46673 0.07758 0.45555 0.0
O575 O 0.50684 0.03841 0.44346 0.0
O576 O 0.51977 1.01008 0.52027 0.0
C577 C 0.52091 1.0083 0.55399 0.0
O578 O 0.48397 0.96712 0.53891 0.0
O579 O 0.47127 0.99818 0.48494 0.0
O580 O 0.42177 0.05104 0.50591 0.0
O581 O 0.46784 0.95929 0.6191 0.0
O582 O 0.4218 0.99471 0.6262 0.0
O583 O 0.4182 1.00916 0.54433 0.0
C584 C 0.51511 0.08223 0.42693 0.0
C585 C 0.53672 0.07377 0.45048 0.0
C586 C 0.52984 0.1236 0.39485 0.0
C587 C 0.55467 0.09009 0.44634 0.0
C588 C 0.51193 0.10709 0.39892 0.0
C589 C 0.55117 0.11538 0.41876 0.0
C590 C 0.49372 0.06685 0.43437 0.0
C591 C 0.4806 0.97166 0.50507 0.0
H592 H 0.37495 0.98012 0.65412 0.0
H593 H 0.43881 0.87679 0.64469 0.0
H594 H 0.34802 0.94876 0.65707 0.0
H595 H 0.46609 0.90819 0.64146 0.0
H596 H 0.53905 0.05498 0.47279 0.0
H597 H 0.52679 0.14293 0.37327 0.0
H598 H 0.57044 0.08348 0.46561 0.0
H599 H 0.49506 0.11412 0.38082 0.0
Eu600 Eu 0.47177 0.49945 0.06276 0.0
Eu601 Eu 0.46678 0.55169 0.98919 0.0
C602 C 0.40866 0.5324 0.02779 0.0
C603 C 0.45397 0.43844 0.12535 0.0
C604 C 0.43297 0.44549 0.10169 0.0
C605 C 0.44358 0.39462 0.15603 0.0
C606 C 0.41771 0.42719 0.10478 0.0
C607 C 0.45913 0.41304 0.15275 0.0
C608 C 0.42316 0.40137 0.13161 0.0
C609 C 0.47162 0.45708 0.11883 0.0
O610 O 0.44641 0.57257 0.03824 0.0
O611 O 0.4753 0.53558 0.07936 0.0
C612 C 0.45894 0.56343 0.06791 0.0
O613 O 0.52217 0.494 0.03628 0.0
O614 O 0.43917 0.59482 0.9602 0.0
O615 O 0.48755 0.57097 0.93616 0.0
O616 O 0.51211 0.54156 1.00731 0.0
C617 C 0.53181 0.51556 0.02057 0.0
O618 O 0.46913 0.48133 1.01883 0.0
O619 O 0.4872 0.50999 0.96816 0.0
O620 O 0.42549 0.53936 0.99645 0.0
O621 O 0.49415 0.45422 0.0904 0.0
O622 O 0.45389 0.48444 0.11966 0.0
O623 O 0.41963 0.52385 0.05831 0.0
C624 C 0.47269 0.62043 0.93329 0.0
C625 C 0.4813 0.62185 0.96399 0.0
C626 C 0.4867 0.6617 0.89861 0.0
C627 C 0.49301 0.64266 0.96194 0.0
C628 C 0.47501 0.64066 0.90069 0.0
C629 C 0.49634 0.66259 0.9291 0.0
C630 C 0.46376 0.59628 0.93545 0.0
C631 C 0.48081 0.48645 0.98402 0.0
H632 H 0.42877 0.46499 0.08029 0.0
H633 H 0.44812 0.3748 0.17693 0.0
H634 H 0.40166 0.43322 0.08603 0.0
H635 H 0.47547 0.40725 0.17103 0.0
H636 H 0.47996 0.60616 0.98932 0.0
H637 H 0.48871 0.67691 0.87301 0.0
H638 H 0.50078 0.64222 0.98575 0.0
H639 H 0.46853 0.63976 0.87674 0.0
H640 H -0.01875 0.06481 0.09591 0.0
H641 H 0.95026 0.13203 1.00192 0.0
H642 H 0.94091 0.16941 0.0338 0.0
H643 H 0.93996 0.18325 0.08916 0.0
H644 H -0.0295 0.11593 0.18309 0.0
H645 H -0.01852 0.07848 0.15048 0.0
C646 C -0.0275 0.08762 0.0823 0.0
C647 C 0.96631 0.0955 0.04659 0.0
C648 C 0.96699 0.10907 0.10086 0.0
C649 C 0.95503 0.12524 0.02948 0.0
C650 C 0.94972 0.14669 0.04767 0.0
C651 C 0.94935 0.16037 0.10232 0.0
C652 C 0.95427 0.15243 0.13858 0.0
C653 C 0.95543 0.13889 0.08346 0.0
C654 C 0.96611 0.12267 0.15538 0.0
C655 C -0.0275 0.10122 0.13671 0.0
H656 H 0.81592 0.29167 0.47033 0.0
H657 H 0.81948 0.20967 0.46129 0.0
H658 H 0.86379 0.20668 0.41075 0.0
H659 H 0.89871 0.22918 0.36593 0.0
H660 H 0.89515 0.31119 0.37486 0.0
H661 H 0.85371 0.31228 0.42846 0.0
C662 C 0.82677 0.27288 0.45776 0.0
C663 C 0.81423 0.25107 0.46942 0.0
C664 C 0.85197 0.27146 0.42827 0.0
C665 C 0.82854 0.22689 0.45274 0.0
C666 C 0.85381 0.22519 0.42368 0.0
C667 C 0.88892 0.24724 0.37966 0.0
C668 C 0.89978 0.27017 0.36619 0.0
C669 C 0.86517 0.24771 0.41062 0.0
C670 C 0.88716 0.29325 0.38459 0.0
C671 C 0.86344 0.29393 0.41528 0.0
H672 H 0.72779 0.11953 0.72026 0.0
H673 H 0.71633 0.07737 0.64855 0.0
H674 H 0.71463 0.11928 0.59865 0.0
H675 H 0.71657 0.16856 0.57426 0.0
H676 H 0.73076 0.20946 0.64536 0.0
H677 H 0.7311 0.16808 0.69557 0.0
C678 C 0.72499 0.11944 0.69373 0.0
C679 C 0.72234 0.09494 0.6886 0.0
C680 C 0.72445 0.14372 0.66453 0.0
C681 C 0.71876 0.09555 0.65369 0.0
C682 C 0.71764 0.11971 0.62491 0.0
C683 C 0.71967 0.16846 0.60074 0.0
C684 C 0.72366 0.1924 0.6056 0.0
C685 C 0.72048 0.14402 0.62985 0.0
C686 C 0.72784 0.19149 0.64033 0.0
C687 C 0.72799 0.16772 0.66934 0.0
H688 H 0.91552 1.00816 0.95685 0.0
H689 H 0.85988 0.07133 0.02413 0.0
H690 H 0.81064 0.06916 1.01797 0.0
H691 H 0.78398 0.05371 0.98657 0.0
H692 H 0.84118 0.99125 0.91807 0.0
H693 H 0.88947 0.98737 0.93332 0.0
C694 C 0.89255 1.02122 0.97038 0.0
C695 C 0.89076 0.0405 0.98994 0.0
C696 C 0.86485 1.01962 0.96691 0.0
C697 C 0.86134 0.05676 1.0084 0.0
C698 C 0.83339 0.05545 1.00491 0.0
C699 C 0.80701 0.03891 0.9755 0.0
C700 C 0.80896 0.02323 0.95072 0.0
C701 C 0.83486 0.03762 0.98323 0.0
C702 C 0.83888 1.00353 0.9373 0.0
C703 C 0.8666 1.0016 0.94554 0.0
H704 H 0.06112 0.05857 0.999 0.0
H705 H 0.09491 0.96746 0.9972 0.0
H706 H 0.1402 0.95666 0.02515 0.0
H707 H 0.16378 0.9717 0.05995 0.0
H708 H 0.12465 0.06161 0.06978 0.0
H709 H 0.08873 0.07459 0.02765 0.0
C710 C 0.07899 0.03653 1.00369 0.0
C711 C 0.07475 1.01374 0.99648 0.0
C712 C 0.10381 0.03028 0.02157 0.0
C713 C 0.09774 0.98522 1.00291 0.0
C714 C 0.12348 0.97906 1.01899 0.0
C715 C 0.14759 0.99419 0.05258 0.0
C716 C 0.14634 1.01549 0.06867 0.0
C717 C 0.12574 1.00117 0.03013 0.0
C718 C 0.12608 0.04473 0.0579 0.0
C719 C 0.10527 0.05214 0.03408 0.0
H720 H 0.96069 0.43981 0.49557 0.0
H721 H 0.03226 0.46756 0.41827 0.0
H722 H 0.04072 0.43338 0.38184 0.0
H723 H 0.02767 0.39582 0.37177 0.0
H724 H 0.95577 0.36842 0.44859 0.0
H725 H 0.94713 0.40271 0.48505 0.0
C726 C -0.02171 0.43828 0.47087 0.0
C727 C -0.00402 0.45609 0.45979 0.0
C728 C -0.01724 0.41885 0.4498 0.0
C729 C 0.01835 0.45409 0.42745 0.0
C730 C 0.0232 0.43456 0.40658 0.0
C731 C 0.01028 0.3972 0.39664 0.0
C732 C -0.0075 0.37949 0.40753 0.0
C733 C 0.00554 0.41685 0.41749 0.0
C734 C 0.96958 0.38197 0.43944 0.0
C735 C 0.96478 0.40142 0.46042 0.0
H736 H 0.62296 0.31925 0.60352 0.0
H737 H 0.61732 0.26325 0.54619 0.0
H738 H 0.56666 0.26431 0.58534 0.0
H739 H 0.52865 0.27499 0.64218 0.0
H740 H 0.53641 0.32977 0.6997 0.0
H741 H 0.58109 0.33585 0.65385 0.0
C742 C 0.61034 0.30769 0.59922 0.0
C743 C 0.62401 0.29081 0.57259 0.0
C744 C 0.58164 0.30808 0.62201 0.0
C745 C 0.60724 0.27634 0.56673 0.0
C746 C 0.57838 0.27679 0.58923 0.0
C747 C 0.53958 0.28894 0.6439 0.0
C748 C 0.5297 0.30162 0.67432 0.0
C749 C 0.56595 0.29172 0.61786 0.0
C750 C 0.54402 0.31954 0.6766 0.0
C751 C 0.56961 0.32295 0.65052 0.0
H752 H 0.73076 0.94845 0.89642 0.0
H753 H 0.68597 0.93699 0.82289 0.0
H754 H 0.68533 0.89126 0.863 0.0
H755 H 0.69788 0.85364 0.91845 0.0
H756 H 0.74136 0.86458 0.99361 0.0
H757 H 0.74194 0.91089 0.95375 0.0
C758 C 0.72074 0.93603 0.88921 0.0
C759 C 0.70842 0.94658 0.8563 0.0
C760 C 0.7202 0.90938 0.91282 0.0
C761 C 0.69556 0.92987 0.8478 0.0
C762 C 0.69521 0.90349 0.87081 0.0
C763 C 0.70749 0.86608 0.9263 0.0
C764 C 0.71963 0.85527 0.95925 0.0
C765 C 0.70754 0.89291 0.90331 0.0
C766 C 0.73174 0.87212 0.96866 0.0
C767 C 0.73215 0.89871 0.94572 0.0
H768 H 0.11224 0.27432 0.06388 0.0
H769 H 0.14353 0.31187 0.12346 0.0
H770 H 0.09693 0.31477 0.17063 0.0
H771 H 0.05083 0.302 0.19809 0.0
H772 H 0.01886 0.26346 0.14087 0.0
H773 H 0.06197 0.26591 0.08931 0.0
C774 C 0.10845 0.28366 0.08684 0.0
C775 C 0.1315 0.29254 0.09041 0.0
C776 C 0.08175 0.28478 0.11441 0.0
C777 C 0.12637 0.30453 0.12032 0.0
C778 C 0.09975 0.30618 0.14735 0.0
C779 C 0.05314 0.29428 0.17423 0.0
C780 C 0.03216 0.28209 0.17344 0.0
C781 C 0.07791 0.29554 0.14521 0.0
C782 C 0.03491 0.27281 0.14209 0.0
C783 C 0.05961 0.27411 0.11274 0.0
H784 H 0.72556 0.44726 0.39281 0.0
H785 H 0.69626 0.43116 0.30899 0.0
H786 H 0.69571 0.38456 0.34767 0.0
H787 H 0.70378 0.34759 0.406 0.0
H788 H 0.73057 0.36577 0.49023 0.0
H789 H 0.73188 0.41161 0.45105 0.0
C790 C 0.71898 0.43364 0.38291 0.0
C791 C 0.71099 0.44304 0.34774 0.0
C792 C 0.71829 0.40686 0.4056 0.0
C793 C 0.7024 0.42485 0.33583 0.0
C794 C 0.70217 0.398 0.358 0.0
C795 C 0.70991 0.36156 0.41577 0.0
C796 C 0.71701 0.35286 0.45137 0.0
C797 C 0.71012 0.38863 0.39303 0.0
C798 C 0.72472 0.37163 0.46331 0.0
C799 C 0.72558 0.39802 0.44078 0.0
H800 H 0.58296 0.99465 0.52025 0.0
H801 H 0.5129 0.03835 0.60327 0.0
H802 H 0.5523 0.04972 0.6176 0.0
H803 H 0.60731 0.04143 0.6129 0.0
H804 H 0.67995 0.993 0.53579 0.0
H805 H 0.63889 0.98999 0.51191 0.0
C806 C 0.57652 1.00667 0.54138 0.0
C807 C 0.54548 1.01487 0.56145 0.0
C808 C 0.59964 1.0125 0.55028 0.0
C809 C 0.53701 0.03092 0.58833 0.0
C810 C 0.55939 0.03775 0.59628 0.0
C811 C 0.61417 0.03118 0.5899 0.0
C812 C 0.64649 1.01752 0.57602 0.0
C813 C 0.59089 0.02791 0.57822 0.0
C814 C 0.65507 1.00373 0.54678 0.0
C815 C 0.63167 1.00171 0.53351 0.0
H816 H 0.95922 0.95463 0.97207 0.0
H817 H 0.03312 0.97609 0.89111 0.0
H818 H 0.03998 0.93906 0.85984 0.0
H819 H 0.02527 0.90016 0.85592 0.0
H820 H 0.95033 0.88001 0.93616 0.0
H821 H 0.94337 0.91718 0.96711 0.0
C822 C -0.02311 0.95123 0.9476 0.0
C823 C -0.00421 0.968 0.93408 0.0
C824 C -0.01959 0.9302 0.92956 0.0
C825 C 0.01827 0.96349 0.90211 0.0
C826 C 0.02223 0.94229 0.88424 0.0
C827 C 0.00749 0.90391 0.88022 0.0
C828 C -0.01162 0.88734 0.89375 0.0
C829 C 0.00351 0.92545 0.89779 0.0
C830 C 0.96513 0.89266 0.92501 0.0
C831 C 0.96126 0.91379 0.94283 0.0
H832 H 0.06761 0.17676 0.84064 0.0
H833 H 0.00164 0.1851 0.94191 0.0
H834 H 0.02882 0.20883 0.95844 0.0
H835 H 0.07488 0.22206 0.94741 0.0
H836 H 0.14217 0.21188 0.84736 0.0
H837 H 0.11142 0.19331 0.82759 0.0
C838 C 0.05908 0.18392 0.86623 0.0
C839 C 0.03275 0.17898 0.89002 0.0
C840 C 0.07542 0.19671 0.87616 0.0
C841 C 0.02161 0.18891 0.9228 0.0
C842 C 0.03738 0.20219 0.93253 0.0
C843 C 0.08249 0.21627 0.92101 0.0
C844 C 0.11095 0.218 0.89911 0.0
C845 C 0.0648 0.20548 0.90987 0.0
C846 C 0.12066 0.21019 0.86506 0.0
C847 C 0.10301 0.19973 0.85363 0.0
H848 H 0.62295 0.60199 0.23056 0.0
H849 H 0.62451 0.58071 0.34572 0.0
H850 H 0.58125 0.62758 0.35235 0.0
H851 H 0.54474 0.67602 0.32489 0.0
H852 H 0.54327 0.69669 0.20972 0.0
H853 H 0.58454 0.64895 0.20387 0.0
C854 C 0.61355 0.60739 0.25721 0.0
C855 C 0.62712 0.5878 0.2875 0.0
C856 C 0.58881 0.63456 0.26087 0.0
C857 C 0.61461 0.5953 0.32183 0.0
C858 C 0.58991 0.62223 0.32568 0.0
C859 C 0.55344 0.67005 0.29855 0.0
C860 C 0.54095 0.69009 0.26785 0.0
C861 C 0.57719 0.64228 0.29528 0.0
C862 C 0.55233 0.68181 0.23394 0.0
C863 C 0.57602 0.65443 0.23047 0.0
H864 H 0.33211 0.82327 0.64978 0.0
H865 H 0.28619 0.8956 0.5677 0.0
H866 H 0.31397 0.92325 0.57463 0.0
H867 H 0.35038 0.92724 0.60477 0.0
H868 H 0.39698 0.85511 0.68639 0.0
H869 H 0.36971 0.8269 0.6791 0.0
C870 C 0.32813 0.84513 0.63356 0.0
C871 C 0.3071 0.85744 0.60836 0.0
C872 C 0.34414 0.8609 0.63773 0.0
C873 C 0.3025 0.88558 0.58704 0.0
C874 C 0.3182 0.90146 0.59114 0.0
C875 C 0.35432 0.90542 0.62116 0.0
C876 C 0.37522 0.89331 0.64641 0.0
C877 C 0.33887 0.8894 0.61655 0.0
C878 C 0.38086 0.8648 0.66687 0.0
C879 C 0.36528 0.84875 0.66273 0.0
H880 H 0.04946 0.68343 0.81612 0.0
H881 H 0.02587 0.68502 0.71653 0.0
H882 H 0.06824 0.63681 0.71386 0.0
H883 H 0.11372 0.59495 0.73864 0.0
H884 H 0.13467 0.59247 0.84045 0.0
H885 H 0.09155 0.63984 0.84363 0.0
C886 C 0.0536 0.67313 0.79393 0.0
C887 C 0.03484 0.68779 0.76643 0.0
C888 C 0.0775 0.64513 0.79301 0.0
C889 C 0.04004 0.67408 0.73808 0.0
C890 C 0.0643 0.64655 0.73648 0.0
C891 C 0.10857 0.60464 0.76171 0.0
C892 C 0.12753 0.59015 0.78914 0.0
C893 C 0.08339 0.63194 0.76365 0.0
C894 C 0.12043 0.60298 0.81897 0.0
C895 C 0.09586 0.63024 0.82076 0.0
H896 H 0.85183 0.32513 0.61881 0.0
H897 H 0.76418 0.39875 0.63811 0.0
H898 H 0.79375 0.42392 0.64737 0.0
H899 H 0.84466 0.42584 0.6472 0.0
H900 H 0.93251 0.35283 0.62612 0.0
H901 H 0.90267 0.32629 0.62106 0.0
C902 C 0.83927 0.34673 0.6249 0.0
C903 C 0.80596 0.3602 0.62748 0.0
C904 C 0.85641 0.36104 0.63014 0.0
C905 C 0.78983 0.38793 0.63611 0.0
C906 C 0.80671 0.40234 0.64131 0.0
C907 C 0.85725 0.40408 0.6416 0.0
C908 C 0.89073 0.39139 0.63686 0.0
C909 C 0.84001 0.38921 0.63803 0.0
C910 C 0.90672 0.36298 0.63025 0.0
C911 C 0.8897 0.34791 0.62699 0.0
H912 H 0.32272 0.95406 0.30055 0.0
H913 H 0.29926 0.95572 0.2006 0.0
H914 H 0.3438 0.90946 0.19564 0.0
H915 H 0.38715 0.86673 0.22163 0.0
H916 H 0.41268 0.86528 0.31991 0.0
H917 H 0.36981 0.91318 0.32348 0.0
C918 C 0.32762 0.94447 0.27746 0.0
C919 C 0.30745 0.95829 0.2512 0.0
C920 C 0.35351 0.91774 0.27459 0.0
C921 C 0.31429 0.94564 0.22129 0.0
C922 C 0.33972 0.91904 0.21846 0.0
C923 C 0.38339 0.877 0.24372 0.0
C924 C 0.40274 0.86242 0.27068 0.0
C925 C 0.35906 0.90462 0.24531 0.0
C926 C 0.39805 0.87612 0.29882 0.0
C927 C 0.37348 0.90346 0.30094 0.0
H928 H 0.30835 0.44795 0.72623 0.0
H929 H 0.32693 0.4676 0.81529 0.0
H930 H 0.37584 0.42322 0.81785 0.0
H931 H 0.41025 0.37597 0.79854 0.0
H932 H 0.38791 0.35661 0.71184 0.0
H933 H 0.34358 0.40369 0.7047 0.0
C934 C 0.32315 0.44279 0.7461 0.0
C935 C 0.31373 0.46095 0.7708 0.0
C936 C 0.3505 0.41702 0.74804 0.0
C937 C 0.33357 0.45401 0.79592 0.0
C938 C 0.36144 0.42851 0.79756 0.0
C939 C 0.3959 0.38235 0.7778 0.0
C940 C 0.40214 0.36273 0.75598 0.0
C941 C 0.36971 0.40942 0.77434 0.0
C942 C 0.38333 0.37115 0.72929 0.0
C943 C 0.35799 0.3981 0.72511 0.0
H944 H 0.12549 0.8113 0.60106 0.0
H945 H 0.11663 0.75639 0.54446 0.0
H946 H 0.06802 0.75589 0.58666 0.0
H947 H 0.03078 0.76738 0.64262 0.0
H948 H 0.04028 0.8213 0.70015 0.0
H949 H 0.08573 0.82597 0.65437 0.0
C950 C 0.1127 0.79957 0.59758 0.0
C951 C 0.12491 0.7837 0.56981 0.0
C952 C 0.08499 0.79896 0.62231 0.0
C953 C 0.10795 0.76865 0.56574 0.0
C954 C 0.08015 0.76827 0.58993 0.0
C955 C 0.04257 0.78039 0.64502 0.0
C956 C 0.0323 0.7937 0.67501 0.0
C957 C 0.06891 0.78275 0.61882 0.0
C958 C 0.04775 0.81066 0.67747 0.0
C959 C 0.07381 0.81332 0.65132 0.0
H960 H 0.19809 0.92775 0.32891 0.0
H961 H 0.22602 0.9619 0.39595 0.0
H962 H 0.229 0.91871 0.4447 0.0
H963 H 0.22457 0.87016 0.46849 0.0
H964 H 0.19453 0.83772 0.40135 0.0
H965 H 0.19161 0.88081 0.35323 0.0
C966 C 0.20473 0.9259 0.35419 0.0
C967 C 0.21182 0.94838 0.35835 0.0
C968 C 0.20613 0.90098 0.38247 0.0
C969 C 0.22024 0.94527 0.39167 0.0
C970 C 0.22207 0.92039 0.41968 0.0
C971 C 0.2173 0.87253 0.44339 0.0
C972 C 0.20979 0.85032 0.43899 0.0
C973 C 0.21521 0.89793 0.41544 0.0
C974 C 0.20032 0.85419 0.40604 0.0
C975 C 0.19869 0.87895 0.37822 0.0
H976 H 0.955 0.63921 0.65781 0.0
H977 H 0.93045 0.706 0.56148 0.0
H978 H 0.93544 0.66961 0.53044 0.0
H979 H 0.94645 0.61887 0.53078 0.0
H980 H -0.02799 0.55199 0.62689 0.0
H981 H 0.96709 0.58837 0.65772 0.0
C982 C 0.95112 0.64577 0.62987 0.0
C983 C 0.94233 0.67532 0.61205 0.0
C984 C 0.95403 0.62473 0.61217 0.0
C985 C 0.93688 0.68347 0.57601 0.0
C986 C 0.93982 0.66265 0.55819 0.0
C987 C 0.95083 0.61222 0.55852 0.0
C988 C 0.95945 0.58269 0.57648 0.0
C989 C 0.94819 0.63325 0.57608 0.0
C990 C 0.96528 0.57453 0.61235 0.0
C991 C 0.96251 0.59533 0.63005 0.0
H992 H 0.31217 0.7312 0.42187 0.0
H993 H 0.32577 0.77218 0.4934 0.0
H994 H 0.37497 0.77394 0.45297 0.0
H995 H 0.41063 0.76869 0.3941 0.0
H996 H 0.39601 0.72842 0.32239 0.0
H997 H 0.3507 0.72142 0.36632 0.0
C998 C 0.32609 0.7402 0.42889 0.0
C999 C 0.31512 0.75188 0.46035 0.0
C1000 C 0.35398 0.74153 0.40532 0.0
C1001 C 0.33368 0.76304 0.46935 0.0
C1002 C 0.36169 0.76425 0.4461 0.0
C1003 C 0.39776 0.75811 0.38821 0.0
C1004 C 0.40646 0.74949 0.35473 0.0
C1005 C 0.37153 0.75433 0.41349 0.0
C1006 C 0.38975 0.73545 0.34779 0.0
C1007 C 0.36376 0.73149 0.37288 0.0
H1008 H 0.24974 0.10391 0.19818 0.0
H1009 H 0.18346 0.09254 0.15315 0.0
H1010 H 0.18057 0.13634 0.10571 0.0
H1011 H 0.1962 0.17906 0.07688 0.0
H1012 H 0.26334 0.18911 0.12223 0.0
H1013 H 0.26635 0.14528 0.16878 0.0
C1014 C 0.2347 0.11087 0.17798 0.0
C1015 C 0.21686 0.09459 0.17967 0.0
C1016 C 0.23319 0.13622 0.15041 0.0
C1017 C 0.19759 0.10431 0.15288 0.0
C1018 C 0.19586 0.12954 0.12558 0.0
C1019 C 0.2116 0.17163 0.09681 0.0
C1020 C 0.2295 0.18782 0.09552 0.0
C1021 C 0.21346 0.14586 0.12402 0.0
C1022 C 0.24925 0.17747 0.12196 0.0
C1023 C 0.25102 0.15222 0.14891 0.0
H1024 H 0.83696 0.74907 0.973 0.0
H1025 H 0.77783 0.74781 0.90754 0.0
H1026 H 0.81953 0.74756 0.85418 0.0
H1027 H 0.87088 0.75213 0.82504 0.0
H1028 H 0.93047 0.75198 0.89105 0.0
H1029 H 0.89057 0.74822 0.94526 0.0
C1030 C 0.83338 0.74836 0.94715 0.0
C1031 C 0.80427 0.74874 0.94415 0.0
C1032 C 0.85742 0.74822 0.91661 0.0
C1033 C 0.80007 0.74747 0.91061 0.0
C1034 C 0.82382 0.74752 0.88 0.0
C1035 C 0.8752 0.75101 0.85137 0.0
C1036 C 0.90336 0.75267 0.85399 0.0
C1037 C 0.85226 0.74862 0.88251 0.0
C1038 C 0.90894 0.75077 0.8883 0.0
C1039 C 0.88609 0.74872 0.91931 0.0
H1040 H 0.23194 0.5867 0.6512 0.0
H1041 H 0.22201 0.62331 0.74117 0.0
H1042 H 0.22167 0.66892 0.69929 0.0
H1043 H 0.22314 0.69939 0.63698 0.0
H1044 H 0.23297 0.66296 0.54691 0.0
H1045 H 0.23441 0.61694 0.58864 0.0
C1046 C 0.22988 0.60454 0.66176 0.0
C1047 C 0.22706 0.60111 0.69973 0.0
C1048 C 0.22959 0.63111 0.63729 0.0
C1049 C 0.22427 0.62488 0.71238 0.0
C1050 C 0.22403 0.65118 0.68831 0.0
C1051 C 0.22572 0.68141 0.62631 0.0
C1052 C 0.22797 0.68507 0.58842 0.0
C1053 C 0.22651 0.6547 0.65068 0.0
C1054 C 0.23124 0.66117 0.57565 0.0
C1055 C 0.23204 0.63467 0.59964 0.0
H1056 H 0.29211 0.07727 0.4404 0.0
H1057 H 0.30274 0.98731 0.48125 0.0
H1058 H 0.34134 0.97964 0.51777 0.0
H1059 H 0.37684 0.99704 0.53109 0.0
H1060 H 0.36803 0.08639 0.48661 0.0
H1061 H 0.32312 0.09602 0.45902 0.0
C1062 C 0.3021 0.05621 0.45815 0.0
C1063 C 0.29475 0.03285 0.45813 0.0
C1064 C 0.32476 0.05183 0.47804 0.0
C1065 C 0.30834 1.00552 0.48068 0.0
C1066 C 0.33038 1.00115 0.50145 0.0
C1067 C 0.36471 1.01877 0.51595 0.0
C1068 C 0.37597 0.04089 0.51039 0.0
C1069 C 0.33956 0.02391 0.49928 0.0
C1070 C 0.36003 0.06892 0.49079 0.0
C1071 C 0.33439 0.07444 0.47502 0.0
H1072 H 0.84665 0.83499 0.13882 0.0
H1073 H 0.87352 0.84129 0.02268 0.0
H1074 H 0.9035 0.87038 1.01904 0.0
H1075 H 0.92112 0.8948 0.0486 0.0
H1076 H 0.89467 0.88836 0.16468 0.0
H1077 H 0.86625 0.85767 0.16877 0.0
C1078 C 0.85946 0.84232 0.11278 0.0
C1079 C 0.85771 0.83606 0.08105 0.0
C1080 C 0.8768 0.85889 0.11091 0.0
C1081 C 0.87405 0.84617 0.04744 0.0
C1082 C 0.89135 0.86267 0.04535 0.0
C1083 C 0.90903 0.88675 0.07479 0.0
C1084 C 0.90973 0.894 0.10627 0.0
C1085 C 0.89261 0.86937 0.07685 0.0
C1086 C 0.89457 0.88294 0.14011 0.0
C1087 C 0.87818 0.86556 0.14241 0.0
H1088 H 0.60302 0.20826 0.41911 0.0
H1089 H 0.68822 0.13059 0.43433 0.0
H1090 H 0.66148 0.10111 0.42984 0.0
H1091 H 0.6134 0.0972 0.42365 0.0
H1092 H 0.52786 0.17469 0.40923 0.0
H1093 H 0.55532 0.20454 0.41082 0.0
C1094 C 0.61564 0.18487 0.42154 0.0
C1095 C 0.64745 0.17157 0.4272 0.0
C1096 C 0.60014 0.16808 0.41888 0.0
C1097 C 0.66377 0.14132 0.42972 0.0
C1098 C 0.64847 0.12446 0.42729 0.0
C1099 C 0.6008 0.12063 0.42084 0.0
C1100 C 0.56864 0.13371 0.41646 0.0
C1101 C 0.61661 0.13758 0.42214 0.0
C1102 C 0.55273 0.16414 0.41226 0.0
C1103 C 0.56833 0.18118 0.41347 0.0
H1104 H 0.80446 0.44311 0.22308 0.0
H1105 H 0.82895 0.46448 0.30642 0.0
H1106 H 0.87751 0.41984 0.30777 0.0
H1107 H 0.91018 0.37229 0.28918 0.0
H1108 H 0.88206 0.35068 0.20905 0.0
H1109 H 0.83767 0.39793 0.20262 0.0
C1110 C 0.82044 0.43832 0.24142 0.0
C1111 C 0.8128 0.45713 0.26485 0.0
C1112 C 0.8476 0.41235 0.24281 0.0
C1113 C 0.83415 0.45045 0.28808 0.0
C1114 C 0.86185 0.42482 0.289 0.0
C1115 C 0.89459 0.3782 0.26993 0.0
C1116 C 0.89931 0.358 0.24966 0.0
C1117 C 0.86843 0.40524 0.26707 0.0
C1118 C 0.87877 0.36575 0.22512 0.0
C1119 C 0.85339 0.39277 0.22141 0.0
H1120 H 0.01175 0.68563 0.43619 0.0
H1121 H 0.07623 0.6381 0.35376 0.0
H1122 H 0.11516 0.65766 0.35176 0.0
H1123 H 0.13324 0.68367 0.37831 0.0
H1124 H 0.06967 0.72962 0.46248 0.0
H1125 H 0.02841 0.71443 0.45978 0.0
C1126 C 0.03425 0.67971 0.41762 0.0
C1127 C 0.04114 0.66028 0.39538 0.0
C1128 C 0.05696 0.69019 0.41751 0.0
C1129 C 0.07013 0.65326 0.37093 0.0
C1130 C 0.0926 0.66413 0.37008 0.0
C1131 C 0.11018 0.69076 0.39564 0.0
C1132 C 0.10463 0.70747 0.42082 0.0
C1133 C 0.08661 0.68194 0.39397 0.0
C1134 C 0.07474 0.71624 0.44338 0.0
C1135 C 0.05106 0.70776 0.44166 0.0
H1136 H 0.62778 0.10532 0.72765 0.0
H1137 H 0.61637 0.07756 0.84454 0.0
H1138 H 0.57533 0.1255 0.85106 0.0
H1139 H 0.54344 0.17624 0.82356 0.0
H1140 H 0.55455 0.20336 0.70665 0.0
H1141 H 0.59495 0.15521 0.70028 0.0
C1142 C 0.61593 0.10958 0.75454 0.0
C1143 C 0.62513 0.08777 0.78549 0.0
C1144 C 0.59256 0.13741 0.75818 0.0
C1145 C 0.60976 0.09389 0.82016 0.0
C1146 C 0.58637 0.12141 0.82398 0.0
C1147 C 0.55495 0.17162 0.79677 0.0
C1148 C 0.54611 0.19341 0.76569 0.0
C1149 C 0.57787 0.14353 0.79319 0.0
C1150 C 0.56089 0.18696 0.73108 0.0
C1151 C 0.58397 0.15937 0.72735 0.0
H1152 H 0.70902 0.59651 0.15559 0.0
H1153 H 0.75013 0.60745 0.23309 0.0
H1154 H 0.75445 0.65206 0.19218 0.0
H1155 H 0.74579 0.68893 0.13445 0.0
H1156 H 0.7011 0.67983 0.059 0.0
H1157 H 0.69903 0.63406 0.09863 0.0
C1158 C 0.71913 0.60852 0.16348 0.0
C1159 C 0.72947 0.59822 0.19754 0.0
C1160 C 0.72086 0.63478 0.14001 0.0
C1161 C 0.74198 0.61459 0.20725 0.0
C1162 C 0.74449 0.64022 0.18374 0.0
C1163 C 0.73579 0.67686 0.12651 0.0
C1164 C 0.72387 0.68799 0.09335 0.0
C1165 C 0.73394 0.65066 0.15005 0.0
C1166 C 0.71052 0.67204 0.08412 0.0
C1167 C 0.70933 0.64572 0.10687 0.0
H1168 H 0.91461 0.49351 0.47885 0.0
H1169 H 0.85372 0.55173 0.55109 0.0
H1170 H 0.80658 0.54883 0.53998 0.0
H1171 H 0.78322 0.53524 0.50239 0.0
H1172 H 0.84567 0.47836 0.42855 0.0
H1173 H 0.89184 0.47387 0.44917 0.0
C1174 C 0.89097 0.50527 0.49245 0.0
C1175 C 0.88713 0.52347 0.5148 0.0
C1176 C 0.86445 0.50344 0.48593 0.0
C1177 C 0.85682 0.53799 0.53329 0.0
C1178 C 0.83004 0.53631 0.52692 0.0
C1179 C 0.80693 0.52149 0.4913 0.0
C1180 C 0.81097 0.50768 0.46343 0.0
C1181 C 0.83358 0.51995 0.50218 0.0
C1182 C 0.84174 0.48923 0.45004 0.0
C1183 C 0.86827 0.48696 0.46142 0.0
H1184 H 0.15709 0.47643 0.58581 0.0
H1185 H 0.12931 0.56989 0.55543 0.0
H1186 H 0.08981 0.57397 0.52268 0.0
H1187 H 0.05822 0.55158 0.51117 0.0
H1188 H 0.08404 0.45836 0.54573 0.0
H1189 H 0.13003 0.45347 0.56764 0.0
C1190 C 0.14318 0.49761 0.571 0.0
C1191 C 0.14596 0.52285 0.57313 0.0
C1192 C 0.11998 0.49982 0.55338 0.0
C1193 C 0.12733 0.5502 0.55439 0.0
C1194 C 0.10475 0.55252 0.53578 0.0
C1195 C 0.07431 0.5301 0.52274 0.0
C1196 C 0.06751 0.5054 0.52735 0.0
C1197 C 0.10004 0.52757 0.53639 0.0
C1198 C 0.08856 0.47774 0.54236 0.0
C1199 C 0.11481 0.47493 0.55493 0.0
H1200 H 0.56561 0.79737 0.21723 0.0
H1201 H 0.50717 0.80776 0.14284 0.0
H1202 H 0.55022 0.81018 0.09165 0.0
H1203 H 0.60661 0.8035 0.0693 0.0
H1204 H 0.66467 0.7922 0.14488 0.0
H1205 H 0.61949 0.7962 0.19421 0.0
C1206 C 0.56214 0.80053 0.18976 0.0
C1207 C 0.5335 0.80196 0.18385 0.0
C1208 C 0.58702 0.80149 0.16068 0.0
C1209 C 0.52909 0.80653 0.14809 0.0
C1210 C 0.55376 0.80774 0.11884 0.0
C1211 C 0.60924 0.80241 0.09643 0.0
C1212 C 0.63916 0.79706 0.10344 0.0
C1213 C 0.58317 0.80438 0.12497 0.0
C1214 C 0.64207 0.79586 0.13874 0.0
C1215 C 0.61624 0.79815 0.16706 0.0
H1216 H 0.65725 0.48133 0.07548 0.0
H1217 H 0.62742 0.575 0.05058 0.0
H1218 H 0.58647 0.58004 0.01934 0.0
H1219 H 0.55369 0.55814 1.00947 0.0
H1220 H 0.58155 0.46455 0.03906 0.0
H1221 H 0.62952 0.45908 0.05725 0.0
C1222 C 0.64263 0.50282 0.06205 0.0
C1223 C 0.64509 0.52779 0.06559 0.0
C1224 C 0.61855 0.50553 0.04547 0.0
C1225 C 0.62564 0.5555 0.04853 0.0
C1226 C 0.60221 0.55836 0.03081 0.0
C1227 C 0.57061 0.53648 0.01909 0.0
C1228 C 0.56377 0.51181 0.02368 0.0
C1229 C 0.5975 0.53358 0.03073 0.0
C1230 C 0.58603 0.48391 0.03589 0.0
C1231 C 0.61342 0.48077 0.04634 0.0
H1232 H 0.42029 0.38313 0.07554 0.0
H1233 H 0.39073 0.37612 0.19146 0.0
H1234 H 0.35928 0.34886 0.19253 0.0
H1235 H 0.33679 0.3309 0.1595 0.0
H1236 H 0.36666 0.33814 0.04341 0.0
H1237 H 0.40088 0.36218 0.04327 0.0
C1238 C 0.40702 0.37552 0.10105 0.0
C1239 C 0.40744 0.38184 0.13332 0.0
C1240 C 0.38874 0.36037 0.10131 0.0
C1241 C 0.39077 0.3714 0.16632 0.0
C1242 C 0.37263 0.35605 0.16687 0.0
C1243 C 0.35118 0.33729 0.13426 0.0
C1244 C 0.3489 0.33299 0.10145 0.0
C1245 C 0.37095 0.35094 0.13439 0.0
C1246 C 0.36745 0.34173 0.06892 0.0
C1247 C 0.3872 0.35528 0.06884 0.0
H1248 H 0.02736 0.17144 0.2482 0.0
H1249 H 0.04815 0.1898 0.33694 0.0
H1250 H 0.09148 0.14193 0.34503 0.0
H1251 H 0.12634 0.097 0.3236 0.0
H1252 H 0.1071 0.07855 0.234 0.0
H1253 H 0.05974 0.1241 0.23017 0.0
C1254 C 0.0412 0.16491 0.26951 0.0
C1255 C 0.03472 0.18443 0.29162 0.0
C1256 C 0.06629 0.13733 0.27392 0.0
C1257 C 0.05268 0.17539 0.31935 0.0
C1258 C 0.07751 0.14799 0.32401 0.0
C1259 C 0.11158 0.1027 0.30349 0.0
C1260 C 0.12044 0.08453 0.27886 0.0
C1261 C 0.08493 0.1291 0.30096 0.0
C1262 C 0.1008 0.09208 0.25334 0.0
C1263 C 0.07388 0.11826 0.25093 0.0
H1264 H 0.20111 0.35226 0.91218 0.0
H1265 H 0.23468 0.36637 0.99412 0.0
H1266 H 0.23594 0.41253 0.95534 0.0
H1267 H 0.22822 0.44927 0.89752 0.0
H1268 H 0.19301 0.43603 0.81633 0.0
H1269 H 0.1917 0.38985 0.85511 0.0
C1270 C 0.20864 0.36541 0.92167 0.0
C1271 C 0.21778 0.35542 0.95639 0.0
C1272 C 0.20906 0.39242 0.89916 0.0
C1273 C 0.22733 0.37318 0.96786 0.0
C1274 C 0.22815 0.39973 0.94553 0.0
C1275 C 0.22016 0.43638 0.88826 0.0
C1276 C 0.21075 0.44652 0.85368 0.0
C1277 C 0.21916 0.40964 0.91104 0.0
C1278 C 0.20032 0.4292 0.84261 0.0
C1279 C 0.19962 0.40257 0.86487 0.0
H1280 H 0.3284 0.27495 0.97452 0.0
H1281 H 0.30331 0.22323 0.92931 0.0
H1282 H 0.34878 0.22033 0.88 0.0
H1283 H 0.39288 0.23625 0.8468 0.0
H1284 H 0.4165 0.28893 0.89222 0.0
H1285 H 0.37447 0.28754 0.94428 0.0
C1286 C 0.33301 0.26276 0.95413 0.0
C1287 C 0.31229 0.2496 0.95543 0.0
C1288 C 0.35883 0.26154 0.92563 0.0
C1289 C 0.31883 0.23368 0.92892 0.0
C1290 C 0.34476 0.2321 0.9006 0.0
C1291 C 0.38905 0.24712 0.8683 0.0
C1292 C 0.40758 0.26295 0.86532 0.0
C1293 C 0.3645 0.24652 0.89821 0.0
C1294 C 0.40237 0.27685 0.89351 0.0
C1295 C 0.37833 0.27608 0.9234 0.0
H1296 H 0.40783 0.49334 0.99805 0.0
H1297 H 0.34682 0.56221 0.05561 0.0
H1298 H 0.2996 0.56134 0.04191 0.0
H1299 H 0.27738 0.54654 1.00461 0.0
H1300 H 0.3402 0.48015 0.94322 0.0
H1301 H 0.38488 0.47336 0.96884 0.0
C1302 C 0.38406 0.50765 1.00823 0.0
C1303 C 0.38035 0.52809 0.02721 0.0
C1304 C 0.35749 0.50736 0.99959 0.0
C1305 C 0.34983 0.54643 0.0408 0.0
C1306 C 0.32301 0.54598 0.03281 0.0
C1307 C 0.30077 0.53028 0.9973 0.0
C1308 C 0.30553 0.51438 0.9714 0.0
C1309 C 0.32674 0.52742 1.01082 0.0
C1310 C 0.33574 0.49273 0.96305 0.0
C1311 C 0.36147 0.48906 0.97733 0.0
H1312 H 0.58908 0.72646 0.90272 0.0
H1313 H 0.54092 0.74022 1.01064 0.0
H1314 H 0.50499 0.71813 1.00962 0.0
H1315 H 0.48958 0.69231 0.97944 0.0
H1316 H 0.53981 0.67668 0.87263 0.0
H1317 H 0.57163 0.70336 0.87121 0.0
C1318 C 0.57031 0.72519 0.92575 0.0
C1319 C 0.56772 0.73491 0.95675 0.0
C1320 C 0.54999 0.7123 0.92507 0.0
C1321 C 0.54364 0.73258 0.98663 0.0
C1322 C 0.52303 0.72008 0.98599 0.0
C1323 C 0.50744 0.69479 0.9558 0.0
C1324 C 0.51239 0.6823 0.9263 0.0
C1325 C 0.52639 0.70938 0.95561 0.0
C1326 C 0.53517 0.6863 0.89557 0.0
C1327 C 0.55367 0.70129 0.89488 0.0
H1328 H 0.90079 0.86947 0.80178 0.0
H1329 H 0.89118 0.86376 0.69792 0.0
H1330 H 0.84847 0.91175 0.69233 0.0
H1331 H 0.8104 0.9531 0.71902 0.0
H1332 H 0.8178 0.95986 0.82299 0.0
H1333 H 0.86528 0.91413 0.82601 0.0
C1334 C 0.88955 0.87885 0.77778 0.0
C1335 C 0.89898 0.86266 0.75061 0.0
C1336 C 0.86463 0.90669 0.77468 0.0
C1337 C 0.88431 0.87538 0.71952 0.0
C1338 C 0.85982 0.90294 0.7162 0.0
C1339 C 0.8227 0.94481 0.74212 0.0
C1340 C 0.81053 0.95963 0.77087 0.0
C1341 C 0.84932 0.91843 0.74394 0.0
C1342 C 0.82687 0.94889 0.80042 0.0
C1343 C 0.85378 0.92259 0.80229 0.0
H1344 H 0.40708 0.15793 0.66211 0.0
H1345 H 0.48783 0.17439 0.59079 0.0
H1346 H 0.49672 0.13724 0.55859 0.0
H1347 H 0.4817 0.09997 0.55089 0.0
H1348 H 0.40124 0.08318 0.62279 0.0
H1349 H 0.39186 0.12089 0.6542 0.0
C1350 C 0.42641 0.15365 0.63925 0.0
C1351 C 0.44666 0.16906 0.62881 0.0
C1352 C 0.43139 0.13225 0.62089 0.0
C1353 C 0.47202 0.16273 0.5996 0.0
C1354 C 0.47702 0.14159 0.58105 0.0
C1355 C 0.46191 0.10471 0.57323 0.0
C1356 C 0.44207 0.08883 0.58428 0.0
C1357 C 0.45686 0.12621 0.59147 0.0
C1358 C 0.41686 0.09504 0.61364 0.0
C1359 C 0.41148 0.11661 0.63166 0.0
H1360 H 0.50771 0.40949 0.87161 0.0
H1361 H 0.47244 0.35788 0.96846 0.0
H1362 H 0.46434 0.39265 1.00389 0.0
H1363 H 0.46791 0.43722 1.00759 0.0
H1364 H 0.5036 0.48891 0.911 0.0
H1365 H 0.51071 0.45468 0.87527 0.0
C1366 C 0.49798 0.40601 0.90041 0.0
C1367 C 0.49075 0.38106 0.91735 0.0
C1368 C 0.49358 0.42603 0.9207 0.0
C1369 C 0.47855 0.37669 0.95481 0.0
C1370 C 0.47381 0.39662 0.97507 0.0
C1371 C 0.47732 0.44107 0.97872 0.0
C1372 C 0.48534 0.46566 0.96211 0.0
C1373 C 0.48144 0.42126 0.95835 0.0
C1374 C 0.49731 0.4702 0.9246 0.0
C1375 C 0.50136 0.45062 0.90411 0.0
H1376 H 0.50911 0.85288 0.46417 0.0
H1377 H 0.46988 0.91289 0.36969 0.0
H1378 H 0.46226 0.95406 0.39353 0.0
H1379 H 0.46707 0.97324 0.44087 0.0
H1380 H 0.50615 0.91339 0.53555 0.0
H1381 H 0.51387 0.87213 0.5117 0.0
C1382 C 0.49908 0.87495 0.44867 0.0
C1383 C 0.49002 0.87965 0.41517 0.0
C1384 C 0.49488 0.89865 0.46248 0.0
C1385 C 0.47664 0.90852 0.39578 0.0
C1386 C 0.47249 0.93213 0.40927 0.0
C1387 C 0.47746 0.95118 0.45625 0.0
C1388 C 0.48617 0.94654 0.48991 0.0
C1389 C 0.48157 0.92748 0.44254 0.0
C1390 C 0.49928 0.91772 0.50953 0.0
C1391 C 0.50368 0.89405 0.49593 0.0
H1392 H 0.4291 0.62266 0.05047 0.0
H1393 H 0.48214 0.55293 0.12972 0.0
H1394 H 0.47912 0.58854 0.16068 0.0
H1395 H 0.46268 0.63962 0.16439 0.0
H1396 H 0.40883 0.70907 0.08559 0.0
H1397 H 0.41134 0.67344 0.05523 0.0
C1398 C 0.43983 0.61517 0.07467 0.0
C1399 C 0.45573 0.58507 0.08773 0.0
C1400 C 0.43812 0.63577 0.09233 0.0
C1401 C 0.46964 0.57591 0.11903 0.0
C1402 C 0.46799 0.59629 0.13677 0.0
C1403 C 0.45114 0.64698 0.14086 0.0
C1404 C 0.43577 0.67711 0.12728 0.0
C1405 C 0.4524 0.6263 0.12358 0.0
C1406 C 0.42135 0.68612 0.09637 0.0
C1407 C 0.42256 0.66572 0.07907 0.0
loop_
_geom_bond_atom_site_label_1
_geom_bond_atom_site_label_2
_geom_bond_distance
_geom_bond_site_symmetry_2
_ccdc_geom_bond_type
Eu0 C9 2.828 . S
Eu0 O11 2.392 1_565 S
Eu0 O13 2.418 1_655 S
Eu0 O18 2.351 1_654 S
Eu0 O21 2.488 . S
Eu0 O22 2.471 . S
Eu0 O23 2.349 1_564 S
Eu1 O10 2.373 1_456 S
Eu1 O14 2.488 . S
Eu1 O15 2.471 . S
Eu1 O16 2.349 1_546 S
Eu1 O19 2.392 1_545 S
Eu1 O20 2.418 1_455 S
Eu1 C30 2.828 . S
C2 O20 1.244 . S
C2 O23 1.265 . S
C3 C4 1.379 . S
C3 C7 1.373 . S
C3 C9 1.505 . S
C4 C3 1.379 . S
C4 C6 1.369 . S
C4 H32 0.930 . S
C5 C7 1.383 . S
C5 C8 1.382 . S
C5 H33 0.930 . S
C6 C4 1.369 . S
C6 C8 1.392 . S
C6 H34 0.930 . S
C7 C3 1.373 . S
C7 C5 1.383 . S
C7 H35 0.931 . S
C8 C5 1.382 . S
C8 C6 1.392 . S
C9 Eu0 2.828 . S
C9 C3 1.505 . S
C9 O21 1.249 . S
C9 O22 1.244 . S
O10 Eu1 2.373 1_654 S
O10 C12 1.258 . S
O11 Eu0 2.392 1_545 S
O11 C12 1.242 . S
C12 O10 1.258 . S
C12 O11 1.242 . S
O13 Eu0 2.418 1_455 S
O13 C17 1.244 . S
O14 Eu1 2.488 . S
O14 C30 1.249 . S
O15 Eu1 2.471 . S
O15 C30 1.244 . S
O16 Eu1 2.349 1_564 S
O16 C17 1.265 . S
C17 O13 1.244 . S
C17 O16 1.265 . S
O18 Eu0 2.351 1_456 S
O18 C31 1.285 . S
O19 Eu1 2.392 1_565 S
O19 C31 1.242 . S
O20 Eu1 2.418 1_655 S
O20 C2 1.244 . S
O21 Eu0 2.488 . S
O21 C9 1.249 . S
O22 Eu0 2.471 . S
O22 C9 1.244 . S
O23 Eu0 2.349 1_546 S
O23 C2 1.265 . S
C24 C25 1.379 . S
C24 C28 1.373 . S
C24 C30 1.505 . S
C25 C24 1.379 . S
C25 C27 1.369 . S
C25 H36 0.930 . S
C26 C28 1.383 . S
C26 C29 1.382 . S
C26 H37 0.930 . S
C27 C25 1.369 . S
C27 C29 1.392 . S
C27 H38 0.930 . S
C28 C24 1.373 . S
C28 C26 1.383 . S
C28 H39 0.931 . S
C29 C26 1.382 . S
C29 C27 1.392 . S
C30 Eu1 2.828 . S
C30 O14 1.249 . S
C30 O15 1.244 . S
C30 C24 1.505 . S
C31 O18 1.285 . S
C31 O19 1.242 . S
H32 C4 0.930 . S
H33 C5 0.930 . S
H34 C6 0.930 . S
H35 C7 0.931 . S
H36 C25 0.930 . S
H37 C26 0.930 . S
H38 C27 0.930 . S
H39 C28 0.931 . S
Eu40 C49 2.828 . S
Eu40 O51 2.392 . S
Eu40 O53 2.418 . S
Eu40 O58 2.373 1_455 S
Eu40 O61 2.488 . S
Eu40 O62 2.471 1_455 S
Eu40 O63 2.349 1_455 S
Eu41 O50 2.373 1_655 S
Eu41 O54 2.488 . S
Eu41 O55 2.471 1_655 S
Eu41 O56 2.349 1_655 S
Eu41 O59 2.392 . S
Eu41 O60 2.418 . S
Eu41 C70 2.828 . S
C42 O60 1.244 . S
C42 O63 1.265 . S
C43 C44 1.379 1_455 S
C43 C47 1.373 . S
C43 C49 1.505 . S
C44 C43 1.379 1_655 S
C44 C46 1.369 . S
C44 H72 0.930 . S
C45 C47 1.383 . S
C45 C48 1.382 1_455 S
C45 H73 0.930 . S
C46 C44 1.369 . S
C46 C48 1.392 . S
C46 H74 0.930 . S
C47 C43 1.373 . S
C47 C45 1.383 . S
C47 H75 0.931 . S
C48 C45 1.382 1_655 S
C48 C46 1.392 . S
C49 Eu40 2.828 . S
C49 C43 1.505 . S
C49 O61 1.249 . S
C49 O62 1.244 1_455 S
O50 Eu41 2.373 1_455 S
O50 C52 1.258 . S
O51 Eu40 2.392 . S
O51 C52 1.242 . S
C52 O50 1.258 . S
C52 O51 1.242 . S
O53 Eu40 2.418 . S
O53 C57 1.244 . S
O54 Eu41 2.488 . S
O54 C70 1.249 . S
O55 Eu41 2.471 1_455 S
O55 C70 1.244 1_455 S
O56 Eu41 2.349 1_455 S
O56 C57 1.265 . S
C57 O53 1.244 . S
C57 O56 1.265 . S
O58 Eu40 2.373 1_655 S
O58 C71 1.258 . S
O59 Eu41 2.392 . S
O59 C71 1.242 . S
O60 Eu41 2.418 . S
O60 C42 1.244 . S
O61 Eu40 2.488 . S
O61 C49 1.249 . S
O62 Eu40 2.471 1_655 S
O62 C49 1.244 1_655 S
O63 Eu40 2.349 1_655 S
O63 C42 1.265 . S
C64 C65 1.379 1_655 S
C64 C68 1.373 . S
C64 C70 1.505 . S
C65 C64 1.379 1_455 S
C65 C67 1.369 . S
C65 H76 0.930 . S
C66 C68 1.383 . S
C66 C69 1.382 1_655 S
C66 H77 0.930 . S
C67 C65 1.369 . S
C67 C69 1.392 . S
C67 H78 0.930 . S
C68 C64 1.373 . S
C68 C66 1.383 . S
C68 H79 0.931 . S
C69 C66 1.382 1_455 S
C69 C67 1.392 . S
C70 Eu41 2.828 . S
C70 O54 1.249 . S
C70 O55 1.244 1_655 S
C70 C64 1.505 . S
C71 O58 1.258 . S
C71 O59 1.242 . S
H72 C44 0.930 . S
H73 C45 0.930 . S
H74 C46 0.930 . S
H75 C47 0.931 . S
H76 C65 0.930 . S
H77 C66 0.930 . S
H78 C67 0.930 . S
H79 C68 0.931 . S
Eu80 C89 2.828 . S
Eu80 O91 2.392 . S
Eu80 O93 2.418 . S
Eu80 O98 2.373 . S
Eu80 O101 2.488 . S
Eu80 O102 2.471 . S
Eu80 O103 2.349 . S
Eu81 O90 2.373 . S
Eu81 O94 2.488 . S
Eu81 O95 2.471 . S
Eu81 O96 2.349 . S
Eu81 O99 2.392 . S
Eu81 O100 2.418 . S
Eu81 C110 2.828 . S
C82 O100 1.244 . S
C82 O103 1.265 . S
C83 C84 1.379 . S
C83 C87 1.373 . S
C83 C89 1.505 . S
C84 C83 1.379 . S
C84 C86 1.369 . S
C84 H112 0.930 . S
C85 C87 1.383 . S
C85 C88 1.382 . S
C85 H113 0.930 . S
C86 C84 1.369 . S
C86 C88 1.392 . S
C86 H114 0.930 . S
C87 C83 1.373 . S
C87 C85 1.383 . S
C87 H115 0.931 . S
C88 C85 1.382 . S
C88 C86 1.392 . S
C89 Eu80 2.828 . S
C89 C83 1.505 . S
C89 O101 1.249 . S
C89 O102 1.244 . S
O90 Eu81 2.373 . S
O90 C92 1.258 . S
O91 Eu80 2.392 . S
O91 C92 1.242 . S
C92 O90 1.258 . S
C92 O91 1.242 . S
O93 Eu80 2.418 . S
O93 C97 1.244 . S
O94 Eu81 2.488 . S
O94 C110 1.249 . S
O95 Eu81 2.471 . S
O95 C110 1.244 . S
O96 Eu81 2.349 . S
O96 C97 1.265 . S
C97 O93 1.244 . S
C97 O96 1.265 . S
O98 Eu80 2.373 . S
O98 C111 1.258 . S
O99 Eu81 2.392 . S
O99 C111 1.242 . S
O100 Eu81 2.418 . S
O100 C82 1.244 . S
O101 Eu80 2.488 . S
O101 C89 1.249 . S
O102 Eu80 2.471 . S
O102 C89 1.244 . S
O103 Eu80 2.349 . S
O103 C82 1.265 . S
C104 C105 1.379 . S
C104 C108 1.373 . S
C104 C110 1.505 . S
C105 C104 1.379 . S
C105 C107 1.369 . S
C105 H116 0.930 . S
C106 C108 1.383 . S
C106 C109 1.382 . S
C106 H117 0.930 . S
C107 C105 1.369 . S
C107 C109 1.392 . S
C107 H118 0.930 . S
C108 C104 1.373 . S
C108 C106 1.383 . S
C108 H119 0.931 . S
C109 C106 1.382 . S
C109 C107 1.392 . S
C110 Eu81 2.828 . S
C110 O94 1.249 . S
C110 O95 1.244 . S
C110 C104 1.505 . S
C111 O98 1.258 . S
C111 O99 1.242 . S
H112 C84 0.930 . S
H113 C85 0.930 . S
H114 C86 0.930 . S
H115 C87 0.931 . S
H116 C105 0.930 . S
H117 C106 0.930 . S
H118 C107 0.930 . S
H119 C108 0.931 . S
Eu120 C129 2.828 . S
Eu120 O131 2.392 . S
Eu120 O133 2.418 . S
Eu120 O138 2.373 1_565 S
Eu120 O141 2.488 . S
Eu120 O142 2.471 1_565 S
Eu120 O143 2.349 1_565 S
Eu121 O130 2.373 1_545 S
Eu121 O134 2.488 . S
Eu121 O135 2.471 1_545 S
Eu121 O136 2.349 1_545 S
Eu121 O139 2.392 . S
Eu121 O140 2.418 . S
Eu121 C150 2.828 . S
C122 O140 1.244 . S
C122 O143 1.265 . S
C123 C124 1.379 . S
C123 C127 1.373 1_545 S
C123 C129 1.505 1_545 S
C124 C123 1.379 . S
C124 C126 1.369 . S
C124 H152 0.930 . S
C125 C127 1.383 . S
C125 C128 1.382 1_565 S
C125 H153 0.930 . S
C126 C124 1.369 . S
C126 C128 1.392 . S
C126 H154 0.930 . S
C127 C123 1.373 1_565 S
C127 C125 1.383 . S
C127 H155 0.931 . S
C128 C125 1.382 1_545 S
C128 C126 1.392 . S
C129 Eu120 2.828 . S
C129 C123 1.505 1_565 S
C129 O141 1.249 . S
C129 O142 1.244 1_565 S
O130 Eu121 2.373 1_565 S
O130 C132 1.258 . S
O131 Eu120 2.392 . S
O131 C132 1.242 . S
C132 O130 1.258 . S
C132 O131 1.242 . S
O133 Eu120 2.418 . S
O133 C137 1.244 . S
O134 Eu121 2.488 . S
O134 C150 1.249 . S
O135 Eu121 2.471 1_565 S
O135 C150 1.244 1_565 S
O136 Eu121 2.349 1_565 S
O136 C137 1.265 . S
C137 O133 1.244 . S
C137 O136 1.265 . S
O138 Eu120 2.373 1_545 S
O138 C151 1.258 . S
O139 Eu121 2.392 . S
O139 C151 1.242 . S
O140 Eu121 2.418 . S
O140 C122 1.244 . S
O141 Eu120 2.488 . S
O141 C129 1.249 . S
O142 Eu120 2.471 1_545 S
O142 C129 1.244 1_545 S
O143 Eu120 2.349 1_545 S
O143 C122 1.265 . S
C144 C145 1.379 . S
C144 C148 1.373 1_565 S
C144 C150 1.505 1_565 S
C145 C144 1.379 . S
C145 C147 1.369 . S
C145 H156 0.930 . S
C146 C148 1.383 . S
C146 C149 1.382 1_545 S
C146 H157 0.930 . S
C147 C145 1.369 . S
C147 C149 1.392 . S
C147 H158 0.930 . S
C148 C144 1.373 1_545 S
C148 C146 1.383 . S
C148 H159 0.931 . S
C149 C146 1.382 1_565 S
C149 C147 1.392 . S
C150 Eu121 2.828 . S
C150 O134 1.249 . S
C150 O135 1.244 1_545 S
C150 C144 1.505 1_545 S
C151 O138 1.258 . S
C151 O139 1.242 . S
H152 C124 0.930 . S
H153 C125 0.930 . S
H154 C126 0.930 . S
H155 C127 0.931 . S
H156 C145 0.930 . S
H157 C146 0.930 . S
H158 C147 0.930 . S
H159 C148 0.931 . S
Eu160 C169 2.828 . S
Eu160 O171 2.392 . S
Eu160 O173 2.418 . S
Eu160 O178 2.373 . S
Eu160 O181 2.488 . S
Eu160 O182 2.471 . S
Eu160 O183 2.349 . S
Eu161 O170 2.373 . S
Eu161 O174 2.488 . S
Eu161 O175 2.471 . S
Eu161 O176 2.349 . S
Eu161 O179 2.392 . S
Eu161 O180 2.418 . S
Eu161 C190 2.828 . S
C162 O180 1.244 . S
C162 O183 1.265 . S
C163 C164 1.379 . S
C163 C167 1.373 . S
C163 C169 1.505 . S
C164 C163 1.379 . S
C164 C166 1.369 . S
C164 H192 0.930 . S
C165 C167 1.383 . S
C165 C168 1.382 . S
C165 H193 0.930 . S
C166 C164 1.369 . S
C166 C168 1.392 . S
C166 H194 0.930 . S
C167 C163 1.373 . S
C167 C165 1.383 . S
C167 H195 0.931 . S
C168 C165 1.382 . S
C168 C166 1.392 . S
C169 Eu160 2.828 . S
C169 C163 1.505 . S
C169 O181 1.249 . S
C169 O182 1.244 . S
O170 Eu161 2.373 . S
O170 C172 1.258 . S
O171 Eu160 2.392 . S
O171 C172 1.242 . S
C172 O170 1.258 . S
C172 O171 1.242 . S
O173 Eu160 2.418 . S
O173 C177 1.244 . S
O174 Eu161 2.488 . S
O174 C190 1.249 . S
O175 Eu161 2.471 . S
O175 C190 1.244 . S
O176 Eu161 2.349 . S
O176 C177 1.265 . S
C177 O173 1.244 . S
C177 O176 1.265 . S
O178 Eu160 2.373 . S
O178 C191 1.258 . S
O179 Eu161 2.392 . S
O179 C191 1.242 . S
O180 Eu161 2.418 . S
O180 C162 1.244 . S
O181 Eu160 2.488 . S
O181 C169 1.249 . S
O182 Eu160 2.471 . S
O182 C169 1.244 . S
O183 Eu160 2.349 . S
O183 C162 1.265 . S
C184 C185 1.379 . S
C184 C188 1.373 . S
C184 C190 1.505 . S
C185 C184 1.379 . S
C185 C187 1.369 . S
C185 H196 0.930 . S
C186 C188 1.383 . S
C186 C189 1.382 . S
C186 H197 0.930 . S
C187 C185 1.369 . S
C187 C189 1.392 . S
C187 H198 0.930 . S
C188 C184 1.373 . S
C188 C186 1.383 . S
C188 H199 0.931 . S
C189 C186 1.382 . S
C189 C187 1.392 . S
C190 Eu161 2.828 . S
C190 O174 1.249 . S
C190 O175 1.244 . S
C190 C184 1.505 . S
C191 O178 1.258 . S
C191 O179 1.242 . S
H192 C164 0.930 . S
H193 C165 0.930 . S
H194 C166 0.930 . S
H195 C167 0.931 . S
H196 C185 0.930 . S
H197 C186 0.930 . S
H198 C187 0.930 . S
H199 C188 0.931 . S
Eu200 C209 2.828 . S
Eu200 O211 2.392 . S
Eu200 O213 2.418 . S
Eu200 O218 2.373 . S
Eu200 O221 2.488 . S
Eu200 O222 2.471 . S
Eu200 O223 2.349 . S
Eu201 O210 2.373 . S
Eu201 O214 2.488 . S
Eu201 O215 2.471 . S
Eu201 O216 2.349 . S
Eu201 O219 2.392 . S
Eu201 O220 2.418 . S
Eu201 C230 2.828 . S
C202 O220 1.244 . S
C202 O223 1.265 . S
C203 C204 1.379 . S
C203 C207 1.373 . S
C203 C209 1.505 . S
C204 C203 1.379 . S
C204 C206 1.369 . S
C204 H232 0.930 . S
C205 C207 1.383 . S
C205 C208 1.382 . S
C205 H233 0.930 . S
C206 C204 1.369 . S
C206 C208 1.392 . S
C206 H234 0.930 . S
C207 C203 1.373 . S
C207 C205 1.383 . S
C207 H235 0.931 . S
C208 C205 1.382 . S
C208 C206 1.392 . S
C209 Eu200 2.828 . S
C209 C203 1.505 . S
C209 O221 1.249 . S
C209 O222 1.244 . S
O210 Eu201 2.373 . S
O210 C212 1.258 . S
O211 Eu200 2.392 . S
O211 C212 1.242 . S
C212 O210 1.258 . S
C212 O211 1.242 . S
O213 Eu200 2.418 . S
O213 C217 1.244 . S
O214 Eu201 2.488 . S
O214 C230 1.249 . S
O215 Eu201 2.471 . S
O215 C230 1.244 . S
O216 Eu201 2.349 . S
O216 C217 1.265 . S
C217 O213 1.244 . S
C217 O216 1.265 . S
O218 Eu200 2.373 . S
O218 C231 1.258 . S
O219 Eu201 2.392 . S
O219 C231 1.242 . S
O220 Eu201 2.418 . S
O220 C202 1.244 . S
O221 Eu200 2.488 . S
O221 C209 1.249 . S
O222 Eu200 2.471 . S
O222 C209 1.244 . S
O223 Eu200 2.349 . S
O223 C202 1.265 . S
C224 C225 1.379 . S
C224 C228 1.373 . S
C224 C230 1.505 . S
C225 C224 1.379 . S
C225 C227 1.369 . S
C225 H236 0.930 . S
C226 C228 1.383 . S
C226 C229 1.382 . S
C226 H237 0.930 . S
C227 C225 1.369 . S
C227 C229 1.392 . S
C227 H238 0.930 . S
C228 C224 1.373 . S
C228 C226 1.383 . S
C228 H239 0.931 . S
C229 C226 1.382 . S
C229 C227 1.392 . S
C230 Eu201 2.828 . S
C230 O214 1.249 . S
C230 O215 1.244 . S
C230 C224 1.505 . S
C231 O218 1.258 . S
C231 O219 1.242 . S
H232 C204 0.930 . S
H233 C205 0.930 . S
H234 C206 0.930 . S
H235 C207 0.931 . S
H236 C225 0.930 . S
H237 C226 0.930 . S
H238 C227 0.930 . S
H239 C228 0.931 . S
Eu240 C249 2.828 . S
Eu240 O251 2.392 . S
Eu240 O253 2.418 . S
Eu240 O258 2.373 . S
Eu240 O261 2.488 . S
Eu240 O262 2.471 . S
Eu240 O263 2.349 . S
Eu241 O250 2.373 . S
Eu241 O254 2.488 . S
Eu241 O255 2.471 . S
Eu241 O256 2.349 . S
Eu241 O259 2.392 . S
Eu241 O260 2.418 . S
Eu241 C270 2.828 . S
C242 O260 1.244 . S
C242 O263 1.265 . S
C243 C244 1.379 . S
C243 C247 1.373 . S
C243 C249 1.505 . S
C244 C243 1.379 . S
C244 C246 1.369 . S
C244 H272 0.930 . S
C245 C247 1.383 . S
C245 C248 1.382 . S
C245 H273 0.930 . S
C246 C244 1.369 . S
C246 C248 1.392 . S
C246 H274 0.930 . S
C247 C243 1.373 . S
C247 C245 1.383 . S
C247 H275 0.931 . S
C248 C245 1.382 . S
C248 C246 1.392 . S
C249 Eu240 2.828 . S
C249 C243 1.505 . S
C249 O261 1.249 . S
C249 O262 1.244 . S
O250 Eu241 2.373 . S
O250 C252 1.258 . S
O251 Eu240 2.392 . S
O251 C252 1.242 . S
C252 O250 1.258 . S
C252 O251 1.242 . S
O253 Eu240 2.418 . S
O253 C257 1.244 . S
O254 Eu241 2.488 . S
O254 C270 1.249 . S
O255 Eu241 2.471 . S
O255 C270 1.244 . S
O256 Eu241 2.349 . S
O256 C257 1.265 . S
C257 O253 1.244 . S
C257 O256 1.265 . S
O258 Eu240 2.373 . S
O258 C271 1.258 . S
O259 Eu241 2.392 . S
O259 C271 1.242 . S
O260 Eu241 2.418 . S
O260 C242 1.244 . S
O261 Eu240 2.488 . S
O261 C249 1.249 . S
O262 Eu240 2.471 . S
O262 C249 1.244 . S
O263 Eu240 2.349 . S
O263 C242 1.265 . S
C264 C265 1.379 . S
C264 C268 1.373 . S
C264 C270 1.505 . S
C265 C264 1.379 . S
C265 C267 1.369 . S
C265 H276 0.930 . S
C266 C268 1.383 . S
C266 C269 1.382 . S
C266 H277 0.930 . S
C267 C265 1.369 . S
C267 C269 1.392 . S
C267 H278 0.930 . S
C268 C264 1.373 . S
C268 C266 1.383 . S
C268 H279 0.931 . S
C269 C266 1.382 . S
C269 C267 1.392 . S
C270 Eu241 2.828 . S
C270 O254 1.249 . S
C270 O255 1.244 . S
C270 C264 1.505 . S
C271 O258 1.258 . S
C271 O259 1.242 . S
H272 C244 0.930 . S
H273 C245 0.930 . S
H274 C246 0.930 . S
H275 C247 0.931 . S
H276 C265 0.930 . S
H277 C266 0.930 . S
H278 C267 0.930 . S
H279 C268 0.931 . S
Eu280 C289 2.828 . S
Eu280 O291 2.392 . S
Eu280 O293 2.418 1_655 S
Eu280 O298 2.373 1_655 S
Eu280 O301 2.488 . S
Eu280 O302 2.471 . S
Eu280 O303 2.349 . S
Eu281 O290 2.373 1_455 S
Eu281 O294 2.488 . S
Eu281 O295 2.471 . S
Eu281 O296 2.349 . S
Eu281 O299 2.392 . S
Eu281 O300 2.418 1_455 S
Eu281 C310 2.828 . S
C282 O300 1.244 . S
C282 O303 1.265 . S
C283 C284 1.379 . S
C283 C287 1.373 . S
C283 C289 1.505 . S
C284 C283 1.379 . S
C284 C286 1.369 . S
C284 H312 0.930 . S
C285 C287 1.383 . S
C285 C288 1.382 . S
C285 H313 0.930 . S
C286 C284 1.369 . S
C286 C288 1.392 . S
C286 H314 0.930 . S
C287 C283 1.373 . S
C287 C285 1.383 . S
C287 H315 0.931 . S
C288 C285 1.382 . S
C288 C286 1.392 . S
C289 Eu280 2.828 . S
C289 C283 1.505 . S
C289 O301 1.249 . S
C289 O302 1.244 . S
O290 Eu281 2.373 1_655 S
O290 C292 1.258 . S
O291 Eu280 2.392 . S
O291 C292 1.242 . S
C292 O290 1.258 . S
C292 O291 1.242 . S
O293 Eu280 2.418 1_455 S
O293 C297 1.244 . S
O294 Eu281 2.488 . S
O294 C310 1.249 . S
O295 Eu281 2.471 . S
O295 C310 1.244 . S
O296 Eu281 2.349 . S
O296 C297 1.265 . S
C297 O293 1.244 . S
C297 O296 1.265 . S
O298 Eu280 2.373 1_455 S
O298 C311 1.258 . S
O299 Eu281 2.392 . S
O299 C311 1.242 . S
O300 Eu281 2.418 1_655 S
O300 C282 1.244 . S
O301 Eu280 2.488 . S
O301 C289 1.249 . S
O302 Eu280 2.471 . S
O302 C289 1.244 . S
O303 Eu280 2.349 . S
O303 C282 1.265 . S
C304 C305 1.379 . S
C304 C308 1.373 . S
C304 C310 1.505 . S
C305 C304 1.379 . S
C305 C307 1.369 . S
C305 H316 0.930 . S
C306 C308 1.383 . S
C306 C309 1.382 . S
C306 H317 0.930 . S
C307 C305 1.369 . S
C307 C309 1.392 . S
C307 H318 0.930 . S
C308 C304 1.373 . S
C308 C306 1.383 . S
C308 H319 0.931 . S
C309 C306 1.382 . S
C309 C307 1.392 . S
C310 Eu281 2.828 . S
C310 O294 1.249 . S
C310 O295 1.244 . S
C310 C304 1.505 . S
C311 O298 1.258 . S
C311 O299 1.242 . S
H312 C284 0.930 . S
H313 C285 0.930 . S
H314 C286 0.930 . S
H315 C287 0.931 . S
H316 C305 0.930 . S
H317 C306 0.930 . S
H318 C307 0.930 . S
H319 C308 0.931 . S
Eu320 C329 2.828 . S
Eu320 O331 2.392 . S
Eu320 O333 2.418 . S
Eu320 O338 2.373 1_554 S
Eu320 O341 2.488 . S
Eu320 O342 2.471 . S
Eu320 O343 2.349 1_554 S
Eu321 O330 2.373 1_556 S
Eu321 O334 2.488 . S
Eu321 O335 2.471 . S
Eu321 O336 2.349 1_556 S
Eu321 O339 2.392 . S
Eu321 O340 2.418 . S
Eu321 C350 2.828 . S
C322 O340 1.244 . S
C322 O343 1.265 . S
C323 C324 1.379 1_554 S
C323 C327 1.373 . S
C323 C329 1.505 . S
C324 C323 1.379 1_556 S
C324 C326 1.369 . S
C324 H352 0.930 . S
C325 C327 1.383 . S
C325 C328 1.382 . S
C325 H353 0.930 . S
C326 C324 1.369 . S
C326 C328 1.392 1_556 S
C326 H354 0.930 . S
C327 C323 1.373 . S
C327 C325 1.383 . S
C327 H355 0.931 . S
C328 C325 1.382 . S
C328 C326 1.392 1_554 S
C329 Eu320 2.828 . S
C329 C323 1.505 . S
C329 O341 1.249 . S
C329 O342 1.244 . S
O330 Eu321 2.373 1_554 S
O330 C332 1.258 . S
O331 Eu320 2.392 . S
O331 C332 1.242 . S
C332 O330 1.258 . S
C332 O331 1.242 . S
O333 Eu320 2.418 . S
O333 C337 1.244 . S
O334 Eu321 2.488 . S
O334 C350 1.249 . S
O335 Eu321 2.471 . S
O335 C350 1.244 . S
O336 Eu321 2.349 1_554 S
O336 C337 1.265 . S
C337 O333 1.244 . S
C337 O336 1.265 . S
O338 Eu320 2.373 1_556 S
O338 C351 1.258 . S
O339 Eu321 2.392 . S
O339 C351 1.242 . S
O340 Eu321 2.418 . S
O340 C322 1.244 . S
O341 Eu320 2.488 . S
O341 C329 1.249 . S
O342 Eu320 2.471 . S
O342 C329 1.244 . S
O343 Eu320 2.349 1_556 S
O343 C322 1.265 . S
C344 C345 1.379 1_556 S
C344 C348 1.373 . S
C344 C350 1.505 . S
C345 C344 1.379 1_554 S
C345 C347 1.369 . S
C345 H356 0.930 . S
C346 C348 1.383 . S
C346 C349 1.382 . S
C346 H357 0.930 . S
C347 C345 1.369 . S
C347 C349 1.392 1_554 S
C347 H358 0.930 . S
C348 C344 1.373 . S
C348 C346 1.383 . S
C348 H359 0.931 . S
C349 C346 1.382 . S
C349 C347 1.392 1_556 S
C350 Eu321 2.828 . S
C350 O334 1.249 . S
C350 O335 1.244 . S
C350 C344 1.505 . S
C351 O338 1.258 . S
C351 O339 1.242 . S
H352 C324 0.930 . S
H353 C325 0.930 . S
H354 C326 0.930 . S
H355 C327 0.931 . S
H356 C345 0.930 . S
H357 C346 0.930 . S
H358 C347 0.930 . S
H359 C348 0.931 . S
Eu360 C369 2.828 . S
Eu360 O371 2.392 . S
Eu360 O373 2.418 . S
Eu360 O378 2.373 1_565 S
Eu360 O381 2.488 . S
Eu360 O382 2.471 1_565 S
Eu360 O383 2.349 1_565 S
Eu361 O370 2.373 1_545 S
Eu361 O374 2.488 . S
Eu361 O375 2.471 1_545 S
Eu361 O376 2.349 1_545 S
Eu361 O379 2.392 . S
Eu361 O380 2.418 . S
Eu361 C390 2.828 . S
C362 O380 1.244 . S
C362 O383 1.265 . S
C363 C364 1.379 . S
C363 C367 1.373 1_545 S
C363 C369 1.505 1_545 S
C364 C363 1.379 . S
C364 C366 1.369 . S
C364 H392 0.930 . S
C365 C367 1.383 . S
C365 C368 1.382 1_565 S
C365 H393 0.930 . S
C366 C364 1.369 . S
C366 C368 1.392 . S
C366 H394 0.930 . S
C367 C363 1.373 1_565 S
C367 C365 1.383 . S
C367 H395 0.931 . S
C368 C365 1.382 1_545 S
C368 C366 1.392 . S
C369 Eu360 2.828 . S
C369 C363 1.505 1_565 S
C369 O381 1.249 . S
C369 O382 1.244 1_565 S
O370 Eu361 2.373 1_565 S
O370 C372 1.258 . S
O371 Eu360 2.392 . S
O371 C372 1.242 . S
C372 O370 1.258 . S
C372 O371 1.242 . S
O373 Eu360 2.418 . S
O373 C377 1.244 . S
O374 Eu361 2.488 . S
O374 C390 1.249 . S
O375 Eu361 2.471 1_565 S
O375 C390 1.244 1_565 S
O376 Eu361 2.349 1_565 S
O376 C377 1.265 . S
C377 O373 1.244 . S
C377 O376 1.265 . S
O378 Eu360 2.373 1_545 S
O378 C391 1.258 . S
O379 Eu361 2.392 . S
O379 C391 1.242 . S
O380 Eu361 2.418 . S
O380 C362 1.244 . S
O381 Eu360 2.488 . S
O381 C369 1.249 . S
O382 Eu360 2.471 1_545 S
O382 C369 1.244 1_545 S
O383 Eu360 2.349 1_545 S
O383 C362 1.265 . S
C384 C385 1.379 . S
C384 C388 1.373 1_565 S
C384 C390 1.505 1_565 S
C385 C384 1.379 . S
C385 C387 1.369 . S
C385 H396 0.930 . S
C386 C388 1.383 . S
C386 C389 1.382 1_545 S
C386 H397 0.930 . S
C387 C385 1.369 . S
C387 C389 1.392 . S
C387 H398 0.930 . S
C388 C384 1.373 1_545 S
C388 C386 1.383 . S
C388 H399 0.931 . S
C389 C386 1.382 1_565 S
C389 C387 1.392 . S
C390 Eu361 2.828 . S
C390 O374 1.249 . S
C390 O375 1.244 1_545 S
C390 C384 1.505 1_545 S
C391 O378 1.258 . S
C391 O379 1.242 . S
H392 C364 0.930 . S
H393 C365 0.930 . S
H394 C366 0.930 . S
H395 C367 0.931 . S
H396 C385 0.930 . S
H397 C386 0.930 . S
H398 C387 0.930 . S
H399 C388 0.931 . S
Eu400 C409 2.828 . S
Eu400 O411 2.392 . S
Eu400 O413 2.418 . S
Eu400 O418 2.373 . S
Eu400 O421 2.488 . S
Eu400 O422 2.471 . S
Eu400 O423 2.349 . S
Eu401 O410 2.373 . S
Eu401 O414 2.488 . S
Eu401 O415 2.471 . S
Eu401 O416 2.349 . S
Eu401 O419 2.392 . S
Eu401 O420 2.418 . S
Eu401 C430 2.828 . S
C402 O420 1.244 . S
C402 O423 1.265 . S
C403 C404 1.379 . S
C403 C407 1.373 . S
C403 C409 1.505 . S
C404 C403 1.379 . S
C404 C406 1.369 . S
C404 H432 0.930 . S
C405 C407 1.383 . S
C405 C408 1.382 . S
C405 H433 0.930 . S
C406 C404 1.369 . S
C406 C408 1.392 . S
C406 H434 0.930 . S
C407 C403 1.373 . S
C407 C405 1.383 . S
C407 H435 0.931 . S
C408 C405 1.382 . S
C408 C406 1.392 . S
C409 Eu400 2.828 . S
C409 C403 1.505 . S
C409 O421 1.249 . S
C409 O422 1.244 . S
O410 Eu401 2.373 . S
O410 C412 1.258 . S
O411 Eu400 2.392 . S
O411 C412 1.242 . S
C412 O410 1.258 . S
C412 O411 1.242 . S
O413 Eu400 2.418 . S
O413 C417 1.244 . S
O414 Eu401 2.488 . S
O414 C430 1.249 . S
O415 Eu401 2.471 . S
O415 C430 1.244 . S
O416 Eu401 2.349 . S
O416 C417 1.265 . S
C417 O413 1.244 . S
C417 O416 1.265 . S
O418 Eu400 2.373 . S
O418 C431 1.258 . S
O419 Eu401 2.392 . S
O419 C431 1.242 . S
O420 Eu401 2.418 . S
O420 C402 1.244 . S
O421 Eu400 2.488 . S
O421 C409 1.249 . S
O422 Eu400 2.471 . S
O422 C409 1.244 . S
O423 Eu400 2.349 . S
O423 C402 1.265 . S
C424 C425 1.379 . S
C424 C428 1.373 . S
C424 C430 1.505 . S
C425 C424 1.379 . S
C425 C427 1.369 . S
C425 H436 0.930 . S
C426 C428 1.383 . S
C426 C429 1.382 . S
C426 H437 0.930 . S
C427 C425 1.369 . S
C427 C429 1.392 . S
C427 H438 0.930 . S
C428 C424 1.373 . S
C428 C426 1.383 . S
C428 H439 0.931 . S
C429 C426 1.382 . S
C429 C427 1.392 . S
C430 Eu401 2.828 . S
C430 O414 1.249 . S
C430 O415 1.244 . S
C430 C424 1.505 . S
C431 O418 1.258 . S
C431 O419 1.242 . S
H432 C404 0.930 . S
H433 C405 0.930 . S
H434 C406 0.930 . S
H435 C407 0.931 . S
H436 C425 0.930 . S
H437 C426 0.930 . S
H438 C427 0.930 . S
H439 C428 0.931 . S
Eu440 C449 2.828 . S
Eu440 O451 2.392 . S
Eu440 O453 2.418 . S
Eu440 O458 2.373 1_455 S
Eu440 O461 2.488 . S
Eu440 O462 2.471 1_455 S
Eu440 O463 2.349 1_455 S
Eu441 O450 2.373 1_655 S
Eu441 O454 2.488 . S
Eu441 O455 2.471 1_655 S
Eu441 O456 2.349 1_655 S
Eu441 O459 2.392 . S
Eu441 O460 2.418 . S
Eu441 C470 2.828 . S
C442 O460 1.244 . S
C442 O463 1.265 . S
C443 C444 1.379 1_455 S
C443 C447 1.373 . S
C443 C449 1.505 . S
C444 C443 1.379 1_655 S
C444 C446 1.369 . S
C444 H472 0.930 . S
C445 C447 1.383 . S
C445 C448 1.382 1_455 S
C445 H473 0.930 . S
C446 C444 1.369 . S
C446 C448 1.392 . S
C446 H474 0.930 . S
C447 C443 1.373 . S
C447 C445 1.383 . S
C447 H475 0.931 . S
C448 C445 1.382 1_655 S
C448 C446 1.392 . S
C449 Eu440 2.828 . S
C449 C443 1.505 . S
C449 O461 1.249 . S
C449 O462 1.244 1_455 S
O450 Eu441 2.373 1_455 S
O450 C452 1.258 . S
O451 Eu440 2.392 . S
O451 C452 1.242 . S
C452 O450 1.258 . S
C452 O451 1.242 . S
O453 Eu440 2.418 . S
O453 C457 1.244 . S
O454 Eu441 2.488 . S
O454 C470 1.249 . S
O455 Eu441 2.471 1_455 S
O455 C470 1.244 1_455 S
O456 Eu441 2.349 1_455 S
O456 C457 1.265 . S
C457 O453 1.244 . S
C457 O456 1.265 . S
O458 Eu440 2.373 1_655 S
O458 C471 1.258 . S
O459 Eu441 2.392 . S
O459 C471 1.242 . S
O460 Eu441 2.418 . S
O460 C442 1.244 . S
O461 Eu440 2.488 . S
O461 C449 1.249 . S
O462 Eu440 2.471 1_655 S
O462 C449 1.244 1_655 S
O463 Eu440 2.349 1_655 S
O463 C442 1.265 . S
C464 C465 1.379 1_655 S
C464 C468 1.373 . S
C464 C470 1.505 . S
C465 C464 1.379 1_455 S
C465 C467 1.369 . S
C465 H476 0.930 . S
C466 C468 1.383 . S
C466 C469 1.382 1_655 S
C466 H477 0.930 . S
C467 C465 1.369 . S
C467 C469 1.392 . S
C467 H478 0.930 . S
C468 C464 1.373 . S
C468 C466 1.383 . S
C468 H479 0.931 . S
C469 C466 1.382 1_455 S
C469 C467 1.392 . S
C470 Eu441 2.828 . S
C470 O454 1.249 . S
C470 O455 1.244 1_655 S
C470 C464 1.505 . S
C471 O458 1.258 . S
C471 O459 1.242 . S
H472 C444 0.930 . S
H473 C445 0.930 . S
H474 C446 0.930 . S
H475 C447 0.931 . S
H476 C465 0.930 . S
H477 C466 0.930 . S
H478 C467 0.930 . S
H479 C468 0.931 . S
Eu480 C489 2.828 . S
Eu480 O491 2.392 . S
Eu480 O493 2.418 . S
Eu480 O498 2.373 . S
Eu480 O501 2.488 . S
Eu480 O502 2.471 . S
Eu480 O503 2.349 . S
Eu481 O490 2.373 . S
Eu481 O494 2.488 . S
Eu481 O495 2.471 . S
Eu481 O496 2.349 . S
Eu481 O499 2.392 . S
Eu481 O500 2.418 . S
Eu481 C510 2.828 . S
C482 O500 1.244 . S
C482 O503 1.265 . S
C483 C484 1.379 . S
C483 C487 1.373 . S
C483 C489 1.505 . S
C484 C483 1.379 . S
C484 C486 1.369 . S
C484 H512 0.930 . S
C485 C487 1.383 . S
C485 C488 1.382 . S
C485 H513 0.930 . S
C486 C484 1.369 . S
C486 C488 1.392 . S
C486 H514 0.930 . S
C487 C483 1.373 . S
C487 C485 1.383 . S
C487 H515 0.931 . S
C488 C485 1.382 . S
C488 C486 1.392 . S
C489 Eu480 2.828 . S
C489 C483 1.505 . S
C489 O501 1.249 . S
C489 O502 1.244 . S
O490 Eu481 2.373 . S
O490 C492 1.258 . S
O491 Eu480 2.392 . S
O491 C492 1.242 . S
C492 O490 1.258 . S
C492 O491 1.242 . S
O493 Eu480 2.418 . S
O493 C497 1.244 . S
O494 Eu481 2.488 . S
O494 C510 1.249 . S
O495 Eu481 2.471 . S
O495 C510 1.244 . S
O496 Eu481 2.349 . S
O496 C497 1.265 . S
C497 O493 1.244 . S
C497 O496 1.265 . S
O498 Eu480 2.373 . S
O498 C511 1.258 . S
O499 Eu481 2.392 . S
O499 C511 1.242 . S
O500 Eu481 2.418 . S
O500 C482 1.244 . S
O501 Eu480 2.488 . S
O501 C489 1.249 . S
O502 Eu480 2.471 . S
O502 C489 1.244 . S
O503 Eu480 2.349 . S
O503 C482 1.265 . S
C504 C505 1.379 . S
C504 C508 1.373 . S
C504 C510 1.505 . S
C505 C504 1.379 . S
C505 C507 1.369 . S
C505 H516 0.930 . S
C506 C508 1.383 . S
C506 C509 1.382 . S
C506 H517 0.930 . S
C507 C505 1.369 . S
C507 C509 1.392 . S
C507 H518 0.930 . S
C508 C504 1.373 . S
C508 C506 1.383 . S
C508 H519 0.931 . S
C509 C506 1.382 . S
C509 C507 1.392 . S
C510 Eu481 2.828 . S
C510 O494 1.249 . S
C510 O495 1.244 . S
C510 C504 1.505 . S
C511 O498 1.258 . S
C511 O499 1.242 . S
H512 C484 0.930 . S
H513 C485 0.930 . S
H514 C486 0.930 . S
H515 C487 0.931 . S
H516 C505 0.930 . S
H517 C506 0.930 . S
H518 C507 0.930 . S
H519 C508 0.931 . S
Eu520 C529 2.828 . S
Eu520 O531 2.392 . S
Eu520 O533 2.418 . S
Eu520 O538 2.373 1_554 S
Eu520 O541 2.488 . S
Eu520 O542 2.471 . S
Eu520 O543 2.349 1_554 S
Eu521 O530 2.373 1_556 S
Eu521 O534 2.488 . S
Eu521 O535 2.471 . S
Eu521 O536 2.349 1_556 S
Eu521 O539 2.392 . S
Eu521 O540 2.418 . S
Eu521 C550 2.828 . S
C522 O540 1.244 . S
C522 O543 1.265 . S
C523 C524 1.379 1_554 S
C523 C527 1.373 . S
C523 C529 1.505 . S
C524 C523 1.379 1_556 S
C524 C526 1.369 . S
C524 H552 0.930 . S
C525 C527 1.383 . S
C525 C528 1.382 . S
C525 H553 0.930 . S
C526 C524 1.369 . S
C526 C528 1.392 1_556 S
C526 H554 0.930 . S
C527 C523 1.373 . S
C527 C525 1.383 . S
C527 H555 0.931 . S
C528 C525 1.382 . S
C528 C526 1.392 1_554 S
C529 Eu520 2.828 . S
C529 C523 1.505 . S
C529 O541 1.249 . S
C529 O542 1.244 . S
O530 Eu521 2.373 1_554 S
O530 C532 1.258 . S
O531 Eu520 2.392 . S
O531 C532 1.242 . S
C532 O530 1.258 . S
C532 O531 1.242 . S
O533 Eu520 2.418 . S
O533 C537 1.244 . S
O534 Eu521 2.488 . S
O534 C550 1.249 . S
O535 Eu521 2.471 . S
O535 C550 1.244 . S
O536 Eu521 2.349 1_554 S
O536 C537 1.265 . S
C537 O533 1.244 . S
C537 O536 1.265 . S
O538 Eu520 2.373 1_556 S
O538 C551 1.258 . S
O539 Eu521 2.392 . S
O539 C551 1.242 . S
O540 Eu521 2.418 . S
O540 C522 1.244 . S
O541 Eu520 2.488 . S
O541 C529 1.249 . S
O542 Eu520 2.471 . S
O542 C529 1.244 . S
O543 Eu520 2.349 1_556 S
O543 C522 1.265 . S
C544 C545 1.379 1_556 S
C544 C548 1.373 . S
C544 C550 1.505 . S
C545 C544 1.379 1_554 S
C545 C547 1.369 . S
C545 H556 0.930 . S
C546 C548 1.383 . S
C546 C549 1.382 . S
C546 H557 0.930 . S
C547 C545 1.369 . S
C547 C549 1.392 1_554 S
C547 H558 0.930 . S
C548 C544 1.373 . S
C548 C546 1.383 . S
C548 H559 0.931 . S
C549 C546 1.382 . S
C549 C547 1.392 1_556 S
C550 Eu521 2.828 . S
C550 O534 1.249 . S
C550 O535 1.244 . S
C550 C544 1.505 . S
C551 O538 1.258 . S
C551 O539 1.242 . S
H552 C524 0.930 . S
H553 C525 0.930 . S
H554 C526 0.930 . S
H555 C527 0.931 . S
H556 C545 0.930 . S
H557 C546 0.930 . S
H558 C547 0.930 . S
H559 C548 0.931 . S
Eu560 C569 2.828 . S
Eu560 O571 2.392 1_565 S
Eu560 O573 2.418 . S
Eu560 O578 2.373 . S
Eu560 O581 2.488 . S
Eu560 O582 2.471 . S
Eu560 O583 2.349 1_565 S
Eu561 O570 2.373 . S
Eu561 O574 2.488 . S
Eu561 O575 2.471 . S
Eu561 O576 2.349 1_545 S
Eu561 O579 2.392 1_545 S
Eu561 O580 2.418 . S
Eu561 C590 2.828 . S
C562 O580 1.244 . S
C562 O583 1.265 . S
C563 C564 1.379 . S
C563 C567 1.373 . S
C563 C569 1.505 . S
C564 C563 1.379 . S
C564 C566 1.369 . S
C564 H592 0.930 . S
C565 C567 1.383 . S
C565 C568 1.382 . S
C565 H593 0.930 . S
C566 C564 1.369 . S
C566 C568 1.392 . S
C566 H594 0.930 . S
C567 C563 1.373 . S
C567 C565 1.383 . S
C567 H595 0.931 . S
C568 C565 1.382 . S
C568 C566 1.392 . S
C569 Eu560 2.828 . S
C569 C563 1.505 . S
C569 O581 1.249 . S
C569 O582 1.244 . S
O570 Eu561 2.373 . S
O570 C572 1.258 . S
O571 Eu560 2.392 1_545 S
O571 C572 1.242 . S
C572 O570 1.258 . S
C572 O571 1.242 . S
O573 Eu560 2.418 . S
O573 C577 1.244 . S
O574 Eu561 2.488 . S
O574 C590 1.249 . S
O575 Eu561 2.471 . S
O575 C590 1.244 . S
O576 Eu561 2.349 1_565 S
O576 C577 1.265 . S
C577 O573 1.244 . S
C577 O576 1.265 . S
O578 Eu560 2.373 . S
O578 C591 1.258 . S
O579 Eu561 2.392 1_565 S
O579 C591 1.242 . S
O580 Eu561 2.418 . S
O580 C562 1.244 . S
O581 Eu560 2.488 . S
O581 C569 1.249 . S
O582 Eu560 2.471 . S
O582 C569 1.244 . S
O583 Eu560 2.349 1_545 S
O583 C562 1.265 . S
C584 C585 1.379 . S
C584 C588 1.373 . S
C584 C590 1.505 . S
C585 C584 1.379 . S
C585 C587 1.369 . S
C585 H596 0.930 . S
C586 C588 1.383 . S
C586 C589 1.382 . S
C586 H597 0.930 . S
C587 C585 1.369 . S
C587 C589 1.392 . S
C587 H598 0.930 . S
C588 C584 1.373 . S
C588 C586 1.383 . S
C588 H599 0.931 . S
C589 C586 1.382 . S
C589 C587 1.392 . S
C590 Eu561 2.828 . S
C590 O574 1.249 . S
C590 O575 1.244 . S
C590 C584 1.505 . S
C591 O578 1.258 . S
C591 O579 1.242 . S
H592 C564 0.930 . S
H593 C565 0.930 . S
H594 C566 0.930 . S
H595 C567 0.931 . S
H596 C585 0.930 . S
H597 C586 0.930 . S
H598 C587 0.930 . S
H599 C588 0.931 . S
Eu600 C609 2.828 . S
Eu600 O611 2.392 . S
Eu600 O613 2.418 . S
Eu600 O618 2.352 1_554 S
Eu600 O621 2.488 . S
Eu600 O622 2.471 . S
Eu600 O623 2.349 1_554 S
Eu601 O610 2.373 1_556 S
Eu601 O614 2.488 . S
Eu601 O615 2.471 . S
Eu601 O616 2.349 1_556 S
Eu601 O619 2.392 . S
Eu601 O620 2.418 . S
Eu601 C630 2.828 . S
C602 O620 1.244 . S
C602 O623 1.265 . S
C603 C604 1.379 . S
C603 C607 1.373 . S
C603 C609 1.505 . S
C604 C603 1.379 . S
C604 C606 1.369 . S
C604 H632 0.930 . S
C605 C607 1.383 . S
C605 C608 1.382 . S
C605 H633 0.930 . S
C606 C604 1.369 . S
C606 C608 1.392 . S
C606 H634 0.930 . S
C607 C603 1.373 . S
C607 C605 1.383 . S
C607 H635 0.931 . S
C608 C605 1.382 . S
C608 C606 1.392 . S
C609 Eu600 2.828 . S
C609 C603 1.505 . S
C609 O621 1.249 . S
C609 O622 1.244 . S
O610 Eu601 2.373 1_554 S
O610 C612 1.258 . S
O611 Eu600 2.392 . S
O611 C612 1.242 . S
C612 O610 1.258 . S
C612 O611 1.242 . S
O613 Eu600 2.418 . S
O613 C617 1.244 . S
O614 Eu601 2.488 . S
O614 C630 1.249 . S
O615 Eu601 2.471 . S
O615 C630 1.244 . S
O616 Eu601 2.349 1_554 S
O616 C617 1.265 . S
C617 O613 1.244 . S
C617 O616 1.265 . S
O618 Eu600 2.352 1_556 S
O618 C631 1.285 . S
O619 Eu601 2.392 . S
O619 C631 1.242 . S
O620 Eu601 2.418 . S
O620 C602 1.244 . S
O621 Eu600 2.488 . S
O621 C609 1.249 . S
O622 Eu600 2.471 . S
O622 C609 1.244 . S
O623 Eu600 2.349 1_556 S
O623 C602 1.265 . S
C624 C625 1.379 . S
C624 C628 1.373 . S
C624 C630 1.505 . S
C625 C624 1.379 . S
C625 C627 1.369 . S
C625 H636 0.930 . S
C626 C628 1.383 . S
C626 C629 1.382 . S
C626 H637 0.930 . S
C627 C625 1.369 . S
C627 C629 1.392 . S
C627 H638 0.930 . S
C628 C624 1.373 . S
C628 C626 1.383 . S
C628 H639 0.931 . S
C629 C626 1.382 . S
C629 C627 1.392 . S
C630 Eu601 2.828 . S
C630 O614 1.249 . S
C630 O615 1.244 . S
C630 C624 1.505 . S
C631 O618 1.285 . S
C631 O619 1.242 . S
H632 C604 0.930 . S
H633 C605 0.930 . S
H634 C606 0.930 . S
H635 C607 0.931 . S
H636 C625 0.930 . S
H637 C626 0.930 . S
H638 C627 0.930 . S
H639 C628 0.931 . S
H640 C646 0.930 . S
H641 C649 0.930 . S
H642 C650 0.930 . S
H643 C651 0.930 . S
H644 C654 0.930 . S
H645 C655 0.930 . S
C646 H640 0.930 . S
C646 C647 1.355 . S
C646 C648 1.415 . S
C647 C646 1.355 . S
C647 C649 1.419 1_655 S
C648 C646 1.415 . S
C648 C653 1.425 1_655 S
C648 C655 1.409 . S
C649 H641 0.930 . S
C649 C647 1.419 1_455 S
C649 C650 1.362 . S
C650 H642 0.930 . S
C650 C649 1.362 . S
C650 C653 1.409 . S
C651 H643 0.930 . S
C651 C652 1.355 . S
C651 C653 1.415 . S
C652 C651 1.355 . S
C652 C654 1.419 1_455 S
C653 C648 1.425 1_455 S
C653 C650 1.409 . S
C653 C651 1.415 . S
C654 H644 0.930 . S
C654 C652 1.419 1_655 S
C654 C655 1.362 . S
C655 H645 0.930 . S
C655 C648 1.409 . S
C655 C654 1.362 . S
H656 C662 0.930 . S
H657 C665 0.930 . S
H658 C666 0.930 . S
H659 C667 0.930 . S
H660 C670 0.930 . S
H661 C671 0.930 . S
C662 H656 0.930 . S
C662 C663 1.355 . S
C662 C664 1.415 . S
C663 C662 1.355 . S
C663 C665 1.419 . S
C664 C662 1.415 . S
C664 C669 1.425 . S
C664 C671 1.409 . S
C665 H657 0.930 . S
C665 C663 1.419 . S
C665 C666 1.362 . S
C666 H658 0.930 . S
C666 C665 1.362 . S
C666 C669 1.409 . S
C667 H659 0.930 . S
C667 C668 1.355 . S
C667 C669 1.415 . S
C668 C667 1.355 . S
C668 C670 1.419 . S
C669 C664 1.425 . S
C669 C666 1.409 . S
C669 C667 1.415 . S
C670 H660 0.930 . S
C670 C668 1.419 . S
C670 C671 1.362 . S
C671 H661 0.930 . S
C671 C664 1.409 . S
C671 C670 1.362 . S
H672 C678 0.930 . S
H673 C681 0.930 . S
H674 C682 0.930 . S
H675 C683 0.930 . S
H676 C686 0.930 . S
H677 C687 0.930 . S
C678 H672 0.930 . S
C678 C679 1.355 . S
C678 C680 1.415 . S
C679 C678 1.355 . S
C679 C681 1.419 . S
C680 C678 1.415 . S
C680 C685 1.425 . S
C680 C687 1.409 . S
C681 H673 0.930 . S
C681 C679 1.419 . S
C681 C682 1.362 . S
C682 H674 0.930 . S
C682 C681 1.362 . S
C682 C685 1.409 . S
C683 H675 0.930 . S
C683 C684 1.355 . S
C683 C685 1.415 . S
C684 C683 1.355 . S
C684 C686 1.419 . S
C685 C680 1.425 . S
C685 C682 1.409 . S
C685 C683 1.415 . S
C686 H676 0.930 . S
C686 C684 1.419 . S
C686 C687 1.362 . S
C687 H677 0.930 . S
C687 C680 1.409 . S
C687 C686 1.362 . S
H688 C694 0.930 1_565 S
H689 C697 0.930 . S
H690 C698 0.930 . S
H691 C699 0.930 . S
H692 C702 0.930 . S
H693 C703 0.930 . S
C694 H688 0.930 1_545 S
C694 C695 1.355 . S
C694 C696 1.415 1_545 S
C695 C694 1.355 . S
C695 C697 1.419 . S
C696 C694 1.415 1_565 S
C696 C701 1.425 1_565 S
C696 C703 1.409 . S
C697 H689 0.930 . S
C697 C695 1.419 . S
C697 C698 1.362 . S
C698 H690 0.930 . S
C698 C697 1.362 . S
C698 C701 1.409 . S
C699 H691 0.930 . S
C699 C700 1.355 1_545 S
C699 C701 1.415 . S
C700 C699 1.355 1_565 S
C700 C702 1.419 . S
C701 C696 1.425 1_545 S
C701 C698 1.409 . S
C701 C699 1.415 . S
C702 H692 0.930 . S
C702 C700 1.419 . S
C702 C703 1.362 . S
C703 H693 0.930 . S
C703 C696 1.409 . S
C703 C702 1.362 . S
H704 C710 0.930 1_545 S
H705 C713 0.930 . S
H706 C714 0.930 . S
H707 C715 0.941 . S
H708 C718 0.930 . S
H709 C719 0.930 . S
C710 H704 0.930 1_565 S
C710 C711 1.355 . S
C710 C712 1.415 1_565 S
C711 C710 1.355 . S
C711 C713 1.419 . S
C712 C710 1.415 1_545 S
C712 C717 1.425 1_545 S
C712 C719 1.409 . S
C713 H705 0.930 . S
C713 C711 1.419 . S
C713 C714 1.362 . S
C714 H706 0.930 . S
C714 C713 1.362 . S
C714 C717 1.409 . S
C715 H707 0.941 . S
C715 C716 1.314 1_565 S
C715 C717 1.446 . S
C716 C715 1.314 1_545 S
C716 C718 1.419 . S
C717 C712 1.425 1_565 S
C717 C714 1.409 . S
C717 C715 1.446 . S
C718 H708 0.930 . S
C718 C716 1.419 . S
C718 C719 1.362 . S
C719 H709 0.930 . S
C719 C712 1.409 . S
C719 C718 1.362 . S
H720 C726 0.930 . S
H721 C729 0.930 . S
H722 C730 0.930 . S
H723 C731 0.930 . S
H724 C734 0.930 . S
H725 C735 0.930 . S
C726 H720 0.930 . S
C726 C727 1.355 1_655 S
C726 C728 1.415 . S
C727 C726 1.355 1_455 S
C727 C729 1.419 . S
C728 C726 1.415 . S
C728 C733 1.425 1_655 S
C728 C735 1.409 . S
C729 H721 0.930 . S
C729 C727 1.419 . S
C729 C730 1.362 . S
C730 H722 0.930 . S
C730 C729 1.362 . S
C730 C733 1.409 . S
C731 H723 0.930 . S
C731 C732 1.355 1_455 S
C731 C733 1.415 . S
C732 C731 1.355 1_655 S
C732 C734 1.419 . S
C733 C728 1.425 1_455 S
C733 C730 1.409 . S
C733 C731 1.415 . S
C734 H724 0.930 . S
C734 C732 1.419 . S
C734 C735 1.362 . S
C735 H725 0.930 . S
C735 C728 1.409 . S
C735 C734 1.362 . S
H736 C742 0.930 . S
H737 C745 0.930 . S
H738 C746 0.930 . S
H739 C747 0.930 . S
H740 C750 0.930 . S
H741 C751 0.930 . S
C742 H736 0.930 . S
C742 C743 1.355 . S
C742 C744 1.415 . S
C743 C742 1.355 . S
C743 C745 1.419 . S
C744 C742 1.415 . S
C744 C749 1.425 . S
C744 C751 1.409 . S
C745 H737 0.930 . S
C745 C743 1.419 . S
C745 C746 1.362 . S
C746 H738 0.930 . S
C746 C745 1.362 . S
C746 C749 1.409 . S
C747 H739 0.930 . S
C747 C748 1.355 . S
C747 C749 1.415 . S
C748 C747 1.355 . S
C748 C750 1.419 . S
C749 C744 1.425 . S
C749 C746 1.409 . S
C749 C747 1.415 . S
C750 H740 0.930 . S
C750 C748 1.419 . S
C750 C751 1.362 . S
C751 H741 0.930 . S
C751 C744 1.409 . S
C751 C750 1.362 . S
H752 C758 0.930 . S
H753 C761 0.930 . S
H754 C762 0.930 . S
H755 C763 0.930 . S
H756 C766 0.930 . S
H757 C767 0.930 . S
C758 H752 0.930 . S
C758 C759 1.355 . S
C758 C760 1.415 . S
C759 C758 1.355 . S
C759 C761 1.419 . S
C760 C758 1.415 . S
C760 C765 1.425 . S
C760 C767 1.409 . S
C761 H753 0.930 . S
C761 C759 1.419 . S
C761 C762 1.362 . S
C762 H754 0.930 . S
C762 C761 1.362 . S
C762 C765 1.409 . S
C763 H755 0.930 . S
C763 C764 1.355 . S
C763 C765 1.415 . S
C764 C763 1.355 . S
C764 C766 1.419 . S
C765 C760 1.425 . S
C765 C762 1.409 . S
C765 C763 1.415 . S
C766 H756 0.930 . S
C766 C764 1.419 . S
C766 C767 1.362 . S
C767 H757 0.930 . S
C767 C760 1.409 . S
C767 C766 1.362 . S
H768 C774 0.930 . S
H769 C777 0.930 . S
H770 C778 0.930 . S
H771 C779 0.930 . S
H772 C782 0.930 . S
H773 C783 0.930 . S
C774 H768 0.930 . S
C774 C775 1.355 . S
C774 C776 1.415 . S
C775 C774 1.355 . S
C775 C777 1.419 . S
C776 C774 1.415 . S
C776 C781 1.425 . S
C776 C783 1.409 . S
C777 H769 0.930 . S
C777 C775 1.419 . S
C777 C778 1.362 . S
C778 H770 0.930 . S
C778 C777 1.362 . S
C778 C781 1.409 . S
C779 H771 0.930 . S
C779 C780 1.355 . S
C779 C781 1.415 . S
C780 C779 1.355 . S
C780 C782 1.419 . S
C781 C776 1.425 . S
C781 C778 1.409 . S
C781 C779 1.415 . S
C782 H772 0.930 . S
C782 C780 1.419 . S
C782 C783 1.362 . S
C783 H773 0.930 . S
C783 C776 1.409 . S
C783 C782 1.362 . S
H784 C790 0.930 . S
H785 C793 0.930 . S
H786 C794 0.930 . S
H787 C795 0.930 . S
H788 C798 0.930 . S
H789 C799 0.930 . S
C790 H784 0.930 . S
C790 C791 1.355 . S
C790 C792 1.415 . S
C791 C790 1.355 . S
C791 C793 1.419 . S
C792 C790 1.415 . S
C792 C797 1.425 . S
C792 C799 1.409 . S
C793 H785 0.930 . S
C793 C791 1.419 . S
C793 C794 1.362 . S
C794 H786 0.930 . S
C794 C793 1.362 . S
C794 C797 1.409 . S
C795 H787 0.930 . S
C795 C796 1.355 . S
C795 C797 1.415 . S
C796 C795 1.355 . S
C796 C798 1.419 . S
C797 C792 1.425 . S
C797 C794 1.409 . S
C797 C795 1.415 . S
C798 H788 0.930 . S
C798 C796 1.419 . S
C798 C799 1.362 . S
C799 H789 0.930 . S
C799 C792 1.409 . S
C799 C798 1.362 . S
H800 C806 0.930 . S
H801 C809 0.930 . S
H802 C810 0.945 . S
H803 C811 0.930 . S
H804 C814 0.930 . S
H805 C815 0.930 . S
C806 H800 0.930 . S
C806 C807 1.355 . S
C806 C808 1.415 . S
C807 C806 1.355 . S
C807 C809 1.419 . S
C808 C806 1.415 . S
C808 C813 1.425 1_565 S
C808 C815 1.409 . S
C809 H801 0.930 . S
C809 C807 1.419 . S
C809 C810 1.334 1_565 S
C810 H802 0.945 . S
C810 C809 1.334 1_545 S
C810 C813 1.423 . S
C811 H803 0.930 . S
C811 C812 1.355 . S
C811 C813 1.415 . S
C812 C811 1.355 . S
C812 C814 1.419 . S
C813 C808 1.425 1_545 S
C813 C810 1.423 . S
C813 C811 1.415 . S
C814 H804 0.930 . S
C814 C812 1.419 . S
C814 C815 1.362 1_545 S
C815 H805 0.930 . S
C815 C808 1.409 . S
C815 C814 1.362 1_565 S
H816 C822 0.930 . S
H817 C825 0.930 . S
H818 C826 0.930 . S
H819 C827 0.930 . S
H820 C830 0.930 . S
H821 C831 0.930 . S
C822 H816 0.930 . S
C822 C823 1.355 1_655 S
C822 C824 1.415 . S
C823 C822 1.355 1_455 S
C823 C825 1.419 . S
C824 C822 1.415 . S
C824 C829 1.425 1_655 S
C824 C831 1.409 . S
C825 H817 0.930 . S
C825 C823 1.419 . S
C825 C826 1.362 . S
C826 H818 0.930 . S
C826 C825 1.362 . S
C826 C829 1.409 . S
C827 H819 0.930 . S
C827 C828 1.355 1_455 S
C827 C829 1.415 . S
C828 C827 1.355 1_655 S
C828 C830 1.419 . S
C829 C824 1.425 1_455 S
C829 C826 1.409 . S
C829 C827 1.415 . S
C830 H820 0.930 . S
C830 C828 1.419 . S
C830 C831 1.362 . S
C831 H821 0.930 . S
C831 C824 1.409 . S
C831 C830 1.362 . S
H832 C838 0.930 . S
H833 C841 0.930 . S
H834 C842 0.930 1_554 S
H835 C843 0.930 1_554 S
H836 C846 0.930 . S
H837 C847 0.930 . S
C838 H832 0.930 . S
C838 C839 1.355 . S
C838 C840 1.415 . S
C839 C838 1.355 . S
C839 C841 1.419 . S
C840 C838 1.415 . S
C840 C845 1.425 . S
C840 C847 1.409 . S
C841 H833 0.930 . S
C841 C839 1.419 . S
C841 C842 1.362 . S
C842 H834 0.930 1_556 S
C842 C841 1.362 . S
C842 C845 1.409 . S
C843 H835 0.930 1_556 S
C843 C844 1.355 . S
C843 C845 1.415 . S
C844 C843 1.355 . S
C844 C846 1.419 . S
C845 C840 1.425 . S
C845 C842 1.409 . S
C845 C843 1.415 . S
C846 H836 0.930 . S
C846 C844 1.419 . S
C846 C847 1.362 . S
C847 H837 0.930 . S
C847 C840 1.409 . S
C847 C846 1.362 . S
H848 C854 0.930 . S
H849 C857 0.930 . S
H850 C858 0.930 . S
H851 C859 0.930 . S
H852 C862 0.930 . S
H853 C863 0.930 . S
C854 H848 0.930 . S
C854 C855 1.355 . S
C854 C856 1.415 . S
C855 C854 1.355 . S
C855 C857 1.419 . S
C856 C854 1.415 . S
C856 C861 1.425 . S
C856 C863 1.409 . S
C857 H849 0.930 . S
C857 C855 1.419 . S
C857 C858 1.362 . S
C858 H850 0.930 . S
C858 C857 1.362 . S
C858 C861 1.409 . S
C859 H851 0.930 . S
C859 C860 1.355 . S
C859 C861 1.415 . S
C860 C859 1.355 . S
C860 C862 1.419 . S
C861 C856 1.425 . S
C861 C858 1.409 . S
C861 C859 1.415 . S
C862 H852 0.930 . S
C862 C860 1.419 . S
C862 C863 1.362 . S
C863 H853 0.930 . S
C863 C856 1.409 . S
C863 C862 1.362 . S
H864 C870 0.930 . S
H865 C873 0.930 . S
H866 C874 0.930 . S
H867 C875 0.930 . S
H868 C878 0.930 . S
H869 C879 0.930 . S
C870 H864 0.930 . S
C870 C871 1.355 . S
C870 C872 1.415 . S
C871 C870 1.355 . S
C871 C873 1.419 . S
C872 C870 1.415 . S
C872 C877 1.425 . S
C872 C879 1.409 . S
C873 H865 0.930 . S
C873 C871 1.419 . S
C873 C874 1.362 . S
C874 H866 0.930 . S
C874 C873 1.362 . S
C874 C877 1.409 . S
C875 H867 0.930 . S
C875 C876 1.355 . S
C875 C877 1.415 . S
C876 C875 1.355 . S
C876 C878 1.419 . S
C877 C872 1.425 . S
C877 C874 1.409 . S
C877 C875 1.415 . S
C878 H868 0.930 . S
C878 C876 1.419 . S
C878 C879 1.362 . S
C879 H869 0.930 . S
C879 C872 1.409 . S
C879 C878 1.362 . S
H880 C886 0.930 . S
H881 C889 0.930 . S
H882 C890 0.930 . S
H883 C891 0.930 . S
H884 C894 0.930 . S
H885 C895 0.930 . S
C886 H880 0.930 . S
C886 C887 1.355 . S
C886 C888 1.415 . S
C887 C886 1.355 . S
C887 C889 1.419 . S
C888 C886 1.415 . S
C888 C893 1.425 . S
C888 C895 1.409 . S
C889 H881 0.930 . S
C889 C887 1.419 . S
C889 C890 1.362 . S
C890 H882 0.930 . S
C890 C889 1.362 . S
C890 C893 1.409 . S
C891 H883 0.930 . S
C891 C892 1.355 . S
C891 C893 1.415 . S
C892 C891 1.355 . S
C892 C894 1.419 . S
C893 C888 1.425 . S
C893 C890 1.409 . S
C893 C891 1.415 . S
C894 H884 0.930 . S
C894 C892 1.419 . S
C894 C895 1.362 . S
C895 H885 0.930 . S
C895 C888 1.409 . S
C895 C894 1.362 . S
H896 C902 0.930 . S
H897 C905 0.930 . S
H898 C906 0.930 . S
H899 C907 0.930 . S
H900 C910 0.930 . S
H901 C911 0.930 . S
C902 H896 0.930 . S
C902 C903 1.355 . S
C902 C904 1.415 . S
C903 C902 1.355 . S
C903 C905 1.419 . S
C904 C902 1.415 . S
C904 C909 1.425 . S
C904 C911 1.409 . S
C905 H897 0.930 . S
C905 C903 1.419 . S
C905 C906 1.362 . S
C906 H898 0.930 . S
C906 C905 1.362 . S
C906 C909 1.409 . S
C907 H899 0.930 . S
C907 C908 1.355 . S
C907 C909 1.415 . S
C908 C907 1.355 . S
C908 C910 1.419 . S
C909 C904 1.425 . S
C909 C906 1.409 . S
C909 C907 1.415 . S
C910 H900 0.930 . S
C910 C908 1.419 . S
C910 C911 1.362 . S
C911 H901 0.930 . S
C911 C904 1.409 . S
C911 C910 1.362 . S
H912 C918 0.930 . S
H913 C921 0.930 . S
H914 C922 0.930 . S
H915 C923 0.930 . S
H916 C926 0.930 . S
H917 C927 0.930 . S
C918 H912 0.930 . S
C918 C919 1.355 . S
C918 C920 1.415 . S
C919 C918 1.355 . S
C919 C921 1.419 . S
C920 C918 1.415 . S
C920 C925 1.425 . S
C920 C927 1.409 . S
C921 H913 0.930 . S
C921 C919 1.419 . S
C921 C922 1.362 . S
C922 H914 0.930 . S
C922 C921 1.362 . S
C922 C925 1.409 . S
C923 H915 0.930 . S
C923 C924 1.355 . S
C923 C925 1.415 . S
C924 C923 1.355 . S
C924 C926 1.419 . S
C925 C920 1.425 . S
C925 C922 1.409 . S
C925 C923 1.415 . S
C926 H916 0.930 . S
C926 C924 1.419 . S
C926 C927 1.362 . S
C927 H917 0.930 . S
C927 C920 1.409 . S
C927 C926 1.362 . S
H928 C934 0.930 . S
H929 C937 0.930 . S
H930 C938 0.930 . S
H931 C939 0.930 . S
H932 C942 0.930 . S
H933 C943 0.930 . S
C934 H928 0.930 . S
C934 C935 1.355 . S
C934 C936 1.415 . S
C935 C934 1.355 . S
C935 C937 1.419 . S
C936 C934 1.415 . S
C936 C941 1.425 . S
C936 C943 1.409 . S
C937 H929 0.930 . S
C937 C935 1.419 . S
C937 C938 1.362 . S
C938 H930 0.930 . S
C938 C937 1.362 . S
C938 C941 1.409 . S
C939 H931 0.930 . S
C939 C940 1.355 . S
C939 C941 1.415 . S
C940 C939 1.355 . S
C940 C942 1.419 . S
C941 C936 1.425 . S
C941 C938 1.409 . S
C941 C939 1.415 . S
C942 H932 0.930 . S
C942 C940 1.419 . S
C942 C943 1.362 . S
C943 H933 0.930 . S
C943 C936 1.409 . S
C943 C942 1.362 . S
H944 C950 0.930 . S
H945 C953 0.930 . S
H946 C954 0.930 . S
H947 C955 0.930 . S
H948 C958 0.930 . S
H949 C959 0.930 . S
C950 H944 0.930 . S
C950 C951 1.355 . S
C950 C952 1.415 . S
C951 C950 1.355 . S
C951 C953 1.419 . S
C952 C950 1.415 . S
C952 C957 1.425 . S
C952 C959 1.409 . S
C953 H945 0.930 . S
C953 C951 1.419 . S
C953 C954 1.362 . S
C954 H946 0.930 . S
C954 C953 1.362 . S
C954 C957 1.409 . S
C955 H947 0.930 . S
C955 C956 1.355 . S
C955 C957 1.415 . S
C956 C955 1.355 . S
C956 C958 1.419 . S
C957 C952 1.425 . S
C957 C954 1.409 . S
C957 C955 1.415 . S
C958 H948 0.930 . S
C958 C956 1.419 . S
C958 C959 1.362 . S
C959 H949 0.930 . S
C959 C952 1.409 . S
C959 C958 1.362 . S
H960 C966 0.930 . S
H961 C969 0.930 . S
H962 C970 0.930 . S
H963 C971 0.930 . S
H964 C974 0.930 . S
H965 C975 0.930 . S
C966 H960 0.930 . S
C966 C967 1.355 . S
C966 C968 1.415 . S
C967 C966 1.355 . S
C967 C969 1.419 . S
C968 C966 1.415 . S
C968 C973 1.425 . S
C968 C975 1.409 . S
C969 H961 0.930 . S
C969 C967 1.419 . S
C969 C970 1.362 . S
C970 H962 0.930 . S
C970 C969 1.362 . S
C970 C973 1.409 . S
C971 H963 0.930 . S
C971 C972 1.355 . S
C971 C973 1.415 . S
C972 C971 1.355 . S
C972 C974 1.419 . S
C973 C968 1.425 . S
C973 C970 1.409 . S
C973 C971 1.415 . S
C974 H964 0.930 . S
C974 C972 1.419 . S
C974 C975 1.362 . S
C975 H965 0.930 . S
C975 C968 1.409 . S
C975 C974 1.362 . S
H976 C982 0.930 . S
H977 C985 0.930 . S
H978 C986 0.930 . S
H979 C987 0.930 1_455 S
H980 C990 0.930 . S
H981 C991 0.930 . S
C982 H976 0.930 . S
C982 C983 1.355 1_655 S
C982 C984 1.415 . S
C983 C982 1.355 1_455 S
C983 C985 1.419 . S
C984 C982 1.415 . S
C984 C989 1.425 1_655 S
C984 C991 1.409 . S
C985 H977 0.930 . S
C985 C983 1.419 . S
C985 C986 1.362 . S
C986 H978 0.930 . S
C986 C985 1.362 . S
C986 C989 1.409 . S
C987 H979 0.930 1_655 S
C987 C988 1.355 . S
C987 C989 1.415 1_655 S
C988 C987 1.355 . S
C988 C990 1.419 . S
C989 C984 1.425 1_455 S
C989 C986 1.409 . S
C989 C987 1.415 1_455 S
C990 H980 0.930 . S
C990 C988 1.419 . S
C990 C991 1.362 . S
C991 H981 0.930 . S
C991 C984 1.409 . S
C991 C990 1.362 . S
H992 C998 0.930 . S
H993 C1001 0.930 . S
H994 C1002 0.930 . S
H995 C1003 0.930 . S
H996 C1006 0.930 . S
H997 C1007 0.930 . S
C998 H992 0.930 . S
C998 C999 1.355 . S
C998 C1000 1.415 . S
C999 C998 1.355 . S
C999 C1001 1.419 . S
C1000 C998 1.415 . S
C1000 C1005 1.425 . S
C1000 C1007 1.409 . S
C1001 H993 0.930 . S
C1001 C999 1.419 . S
C1001 C1002 1.362 . S
C1002 H994 0.930 . S
C1002 C1001 1.362 . S
C1002 C1005 1.409 . S
C1003 H995 0.930 . S
C1003 C1004 1.355 . S
C1003 C1005 1.415 . S
C1004 C1003 1.355 . S
C1004 C1006 1.419 . S
C1005 C1000 1.425 . S
C1005 C1002 1.409 . S
C1005 C1003 1.415 . S
C1006 H996 0.930 . S
C1006 C1004 1.419 . S
C1006 C1007 1.362 . S
C1007 H997 0.930 . S
C1007 C1000 1.409 . S
C1007 C1006 1.362 . S
H1008 C1014 0.930 . S
H1009 C1017 0.930 . S
H1010 C1018 0.930 . S
H1011 C1019 0.930 . S
H1012 C1022 0.930 . S
H1013 C1023 0.930 . S
C1014 H1008 0.930 . S
C1014 C1015 1.355 . S
C1014 C1016 1.415 . S
C1015 C1014 1.355 . S
C1015 C1017 1.419 . S
C1016 C1014 1.415 . S
C1016 C1021 1.425 . S
C1016 C1023 1.409 . S
C1017 H1009 0.930 . S
C1017 C1015 1.419 . S
C1017 C1018 1.362 . S
C1018 H1010 0.930 . S
C1018 C1017 1.362 . S
C1018 C1021 1.409 . S
C1019 H1011 0.930 . S
C1019 C1020 1.355 . S
C1019 C1021 1.415 . S
C1020 C1019 1.355 . S
C1020 C1022 1.419 . S
C1021 C1016 1.425 . S
C1021 C1018 1.409 . S
C1021 C1019 1.415 . S
C1022 H1012 0.930 . S
C1022 C1020 1.419 . S
C1022 C1023 1.362 . S
C1023 H1013 0.930 . S
C1023 C1016 1.409 . S
C1023 C1022 1.362 . S
H1024 C1030 0.930 . S
H1025 C1033 0.930 . S
H1026 C1034 0.930 . S
H1027 C1035 0.930 . S
H1028 C1038 0.930 . S
H1029 C1039 0.930 . S
C1030 H1024 0.930 . S
C1030 C1031 1.355 . S
C1030 C1032 1.415 . S
C1031 C1030 1.355 . S
C1031 C1033 1.419 . S
C1032 C1030 1.415 . S
C1032 C1037 1.425 . S
C1032 C1039 1.409 . S
C1033 H1025 0.930 . S
C1033 C1031 1.419 . S
C1033 C1034 1.362 . S
C1034 H1026 0.930 . S
C1034 C1033 1.362 . S
C1034 C1037 1.409 . S
C1035 H1027 0.930 . S
C1035 C1036 1.355 . S
C1035 C1037 1.415 . S
C1036 C1035 1.355 . S
C1036 C1038 1.419 . S
C1037 C1032 1.425 . S
C1037 C1034 1.409 . S
C1037 C1035 1.415 . S
C1038 H1028 0.930 . S
C1038 C1036 1.419 . S
C1038 C1039 1.362 . S
C1039 H1029 0.930 . S
C1039 C1032 1.409 . S
C1039 C1038 1.362 . S
H1040 C1046 0.930 . S
H1041 C1049 0.930 . S
H1042 C1050 0.930 . S
H1043 C1051 0.930 . S
H1044 C1054 0.930 . S
H1045 C1055 0.930 . S
C1046 H1040 0.930 . S
C1046 C1047 1.355 . S
C1046 C1048 1.415 . S
C1047 C1046 1.355 . S
C1047 C1049 1.419 . S
C1048 C1046 1.415 . S
C1048 C1053 1.425 . S
C1048 C1055 1.409 . S
C1049 H1041 0.930 . S
C1049 C1047 1.419 . S
C1049 C1050 1.362 . S
C1050 H1042 0.930 . S
C1050 C1049 1.362 . S
C1050 C1053 1.409 . S
C1051 H1043 0.930 . S
C1051 C1052 1.355 . S
C1051 C1053 1.415 . S
C1052 C1051 1.355 . S
C1052 C1054 1.419 . S
C1053 C1048 1.425 . S
C1053 C1050 1.409 . S
C1053 C1051 1.415 . S
C1054 H1044 0.930 . S
C1054 C1052 1.419 . S
C1054 C1055 1.362 . S
C1055 H1045 0.930 . S
C1055 C1048 1.409 . S
C1055 C1054 1.362 . S
H1056 C1062 0.930 . S
H1057 C1065 0.930 . S
H1058 C1066 0.930 . S
H1059 C1067 0.930 . S
H1060 C1070 0.930 . S
H1061 C1071 0.930 . S
C1062 H1056 0.930 . S
C1062 C1063 1.355 . S
C1062 C1064 1.415 1_565 S
C1063 C1062 1.355 . S
C1063 C1065 1.419 . S
C1064 C1062 1.415 1_545 S
C1064 C1069 1.425 . S
C1064 C1071 1.409 . S
C1065 H1057 0.930 . S
C1065 C1063 1.419 . S
C1065 C1066 1.362 . S
C1066 H1058 0.930 . S
C1066 C1065 1.362 . S
C1066 C1069 1.409 1_565 S
C1067 H1059 0.930 . S
C1067 C1068 1.355 . S
C1067 C1069 1.415 . S
C1068 C1067 1.355 . S
C1068 C1070 1.419 . S
C1069 C1064 1.425 . S
C1069 C1066 1.409 1_545 S
C1069 C1067 1.415 . S
C1070 H1060 0.930 . S
C1070 C1068 1.419 . S
C1070 C1071 1.362 . S
C1071 H1061 0.930 . S
C1071 C1064 1.409 . S
C1071 C1070 1.362 . S
H1072 C1078 0.930 . S
H1073 C1081 0.930 . S
H1074 C1082 0.930 . S
H1075 C1083 0.930 . S
H1076 C1086 0.930 . S
H1077 C1087 0.930 . S
C1078 H1072 0.930 . S
C1078 C1079 1.355 . S
C1078 C1080 1.415 . S
C1079 C1078 1.355 . S
C1079 C1081 1.419 . S
C1080 C1078 1.415 . S
C1080 C1085 1.425 . S
C1080 C1087 1.409 . S
C1081 H1073 0.930 . S
C1081 C1079 1.419 . S
C1081 C1082 1.362 . S
C1082 H1074 0.930 . S
C1082 C1081 1.362 . S
C1082 C1085 1.409 . S
C1083 H1075 0.930 . S
C1083 C1084 1.355 . S
C1083 C1085 1.415 . S
C1084 C1083 1.355 . S
C1084 C1086 1.419 . S
C1085 C1080 1.425 . S
C1085 C1082 1.409 . S
C1085 C1083 1.415 . S
C1086 H1076 0.930 . S
C1086 C1084 1.419 . S
C1086 C1087 1.362 . S
C1087 H1077 0.930 . S
C1087 C1080 1.409 . S
C1087 C1086 1.362 . S
H1088 C1094 0.930 . S
H1089 C1097 0.930 . S
H1090 C1098 0.930 . S
H1091 C1099 0.930 . S
H1092 C1102 0.930 . S
H1093 C1103 0.930 . S
C1094 H1088 0.930 . S
C1094 C1095 1.355 . S
C1094 C1096 1.415 . S
C1095 C1094 1.355 . S
C1095 C1097 1.419 . S
C1096 C1094 1.415 . S
C1096 C1101 1.425 . S
C1096 C1103 1.409 . S
C1097 H1089 0.930 . S
C1097 C1095 1.419 . S
C1097 C1098 1.362 . S
C1098 H1090 0.930 . S
C1098 C1097 1.362 . S
C1098 C1101 1.409 . S
C1099 H1091 0.930 . S
C1099 C1100 1.355 . S
C1099 C1101 1.415 . S
C1100 C1099 1.355 . S
C1100 C1102 1.419 . S
C1101 C1096 1.425 . S
C1101 C1098 1.409 . S
C1101 C1099 1.415 . S
C1102 H1092 0.930 . S
C1102 C1100 1.419 . S
C1102 C1103 1.362 . S
C1103 H1093 0.930 . S
C1103 C1096 1.409 . S
C1103 C1102 1.362 . S
H1104 C1110 0.930 . S
H1105 C1113 0.930 . S
H1106 C1114 0.930 . S
H1107 C1115 0.930 . S
H1108 C1118 0.930 . S
H1109 C1119 0.930 . S
C1110 H1104 0.930 . S
C1110 C1111 1.355 . S
C1110 C1112 1.415 . S
C1111 C1110 1.355 . S
C1111 C1113 1.419 . S
C1112 C1110 1.415 . S
C1112 C1117 1.425 . S
C1112 C1119 1.409 . S
C1113 H1105 0.930 . S
C1113 C1111 1.419 . S
C1113 C1114 1.362 . S
C1114 H1106 0.930 . S
C1114 C1113 1.362 . S
C1114 C1117 1.409 . S
C1115 H1107 0.930 . S
C1115 C1116 1.355 . S
C1115 C1117 1.415 . S
C1116 C1115 1.355 . S
C1116 C1118 1.419 . S
C1117 C1112 1.425 . S
C1117 C1114 1.409 . S
C1117 C1115 1.415 . S
C1118 H1108 0.930 . S
C1118 C1116 1.419 . S
C1118 C1119 1.362 . S
C1119 H1109 0.930 . S
C1119 C1112 1.409 . S
C1119 C1118 1.362 . S
H1120 C1126 0.930 . S
H1121 C1129 0.930 . S
H1122 C1130 0.930 . S
H1123 C1131 0.930 . S
H1124 C1134 0.930 . S
H1125 C1135 0.930 . S
C1126 H1120 0.930 . S
C1126 C1127 1.355 . S
C1126 C1128 1.415 . S
C1127 C1126 1.355 . S
C1127 C1129 1.419 . S
C1128 C1126 1.415 . S
C1128 C1133 1.425 . S
C1128 C1135 1.409 . S
C1129 H1121 0.930 . S
C1129 C1127 1.419 . S
C1129 C1130 1.362 . S
C1130 H1122 0.930 . S
C1130 C1129 1.362 . S
C1130 C1133 1.409 . S
C1131 H1123 0.930 . S
C1131 C1132 1.355 . S
C1131 C1133 1.415 . S
C1132 C1131 1.355 . S
C1132 C1134 1.419 . S
C1133 C1128 1.425 . S
C1133 C1130 1.409 . S
C1133 C1131 1.415 . S
C1134 H1124 0.930 . S
C1134 C1132 1.419 . S
C1134 C1135 1.362 . S
C1135 H1125 0.930 . S
C1135 C1128 1.409 . S
C1135 C1134 1.362 . S
H1136 C1142 0.930 . S
H1137 C1145 0.930 . S
H1138 C1146 0.930 . S
H1139 C1147 0.930 . S
H1140 C1150 0.930 . S
H1141 C1151 0.930 . S
C1142 H1136 0.930 . S
C1142 C1143 1.355 . S
C1142 C1144 1.415 . S
C1143 C1142 1.355 . S
C1143 C1145 1.419 . S
C1144 C1142 1.415 . S
C1144 C1149 1.425 . S
C1144 C1151 1.409 . S
C1145 H1137 0.930 . S
C1145 C1143 1.419 . S
C1145 C1146 1.362 . S
C1146 H1138 0.930 . S
C1146 C1145 1.362 . S
C1146 C1149 1.409 . S
C1147 H1139 0.930 . S
C1147 C1148 1.355 . S
C1147 C1149 1.415 . S
C1148 C1147 1.355 . S
C1148 C1150 1.419 . S
C1149 C1144 1.425 . S
C1149 C1146 1.409 . S
C1149 C1147 1.415 . S
C1150 H1140 0.930 . S
C1150 C1148 1.419 . S
C1150 C1151 1.362 . S
C1151 H1141 0.930 . S
C1151 C1144 1.409 . S
C1151 C1150 1.362 . S
H1152 C1158 0.930 . S
H1153 C1161 0.930 . S
H1154 C1162 0.930 . S
H1155 C1163 0.930 . S
H1156 C1166 0.930 . S
H1157 C1167 0.930 . S
C1158 H1152 0.930 . S
C1158 C1159 1.355 . S
C1158 C1160 1.415 . S
C1159 C1158 1.355 . S
C1159 C1161 1.419 . S
C1160 C1158 1.415 . S
C1160 C1165 1.425 . S
C1160 C1167 1.409 . S
C1161 H1153 0.930 . S
C1161 C1159 1.419 . S
C1161 C1162 1.362 . S
C1162 H1154 0.930 . S
C1162 C1161 1.362 . S
C1162 C1165 1.409 . S
C1163 H1155 0.930 . S
C1163 C1164 1.355 . S
C1163 C1165 1.415 . S
C1164 C1163 1.355 . S
C1164 C1166 1.419 . S
C1165 C1160 1.425 . S
C1165 C1162 1.409 . S
C1165 C1163 1.415 . S
C1166 H1156 0.930 . S
C1166 C1164 1.419 . S
C1166 C1167 1.362 . S
C1167 H1157 0.930 . S
C1167 C1160 1.409 . S
C1167 C1166 1.362 . S
H1168 C1174 0.930 . S
H1169 C1177 0.930 . S
H1170 C1178 0.930 . S
H1171 C1179 0.930 . S
H1172 C1182 0.930 . S
H1173 C1183 0.930 . S
C1174 H1168 0.930 . S
C1174 C1175 1.355 . S
C1174 C1176 1.415 . S
C1175 C1174 1.355 . S
C1175 C1177 1.419 . S
C1176 C1174 1.415 . S
C1176 C1181 1.425 . S
C1176 C1183 1.409 . S
C1177 H1169 0.930 . S
C1177 C1175 1.419 . S
C1177 C1178 1.362 . S
C1178 H1170 0.930 . S
C1178 C1177 1.362 . S
C1178 C1181 1.409 . S
C1179 H1171 0.930 . S
C1179 C1180 1.355 . S
C1179 C1181 1.415 . S
C1180 C1179 1.355 . S
C1180 C1182 1.419 . S
C1181 C1176 1.425 . S
C1181 C1178 1.409 . S
C1181 C1179 1.415 . S
C1182 H1172 0.930 . S
C1182 C1180 1.419 . S
C1182 C1183 1.362 . S
C1183 H1173 0.930 . S
C1183 C1176 1.409 . S
C1183 C1182 1.362 . S
H1184 C1190 0.930 . S
H1185 C1193 0.930 . S
H1186 C1194 0.930 . S
H1187 C1195 0.930 . S
H1188 C1198 0.930 . S
H1189 C1199 0.930 . S
C1190 H1184 0.930 . S
C1190 C1191 1.355 . S
C1190 C1192 1.415 . S
C1191 C1190 1.355 . S
C1191 C1193 1.419 . S
C1192 C1190 1.415 . S
C1192 C1197 1.425 . S
C1192 C1199 1.409 . S
C1193 H1185 0.930 . S
C1193 C1191 1.419 . S
C1193 C1194 1.362 . S
C1194 H1186 0.930 . S
C1194 C1193 1.362 . S
C1194 C1197 1.409 . S
C1195 H1187 0.930 . S
C1195 C1196 1.355 . S
C1195 C1197 1.415 . S
C1196 C1195 1.355 . S
C1196 C1198 1.419 . S
C1197 C1192 1.425 . S
C1197 C1194 1.409 . S
C1197 C1195 1.415 . S
C1198 H1188 0.930 . S
C1198 C1196 1.419 . S
C1198 C1199 1.362 . S
C1199 H1189 0.930 . S
C1199 C1192 1.409 . S
C1199 C1198 1.362 . S
H1200 C1206 0.930 . S
H1201 C1209 0.930 . S
H1202 C1210 0.930 . S
H1203 C1211 0.930 . S
H1204 C1214 0.930 . S
H1205 C1215 0.930 . S
C1206 H1200 0.930 . S
C1206 C1207 1.355 . S
C1206 C1208 1.415 . S
C1207 C1206 1.355 . S
C1207 C1209 1.419 . S
C1208 C1206 1.415 . S
C1208 C1213 1.425 . S
C1208 C1215 1.409 . S
C1209 H1201 0.930 . S
C1209 C1207 1.419 . S
C1209 C1210 1.362 . S
C1210 H1202 0.930 . S
C1210 C1209 1.362 . S
C1210 C1213 1.409 . S
C1211 H1203 0.930 . S
C1211 C1212 1.355 . S
C1211 C1213 1.415 . S
C1212 C1211 1.355 . S
C1212 C1214 1.419 . S
C1213 C1208 1.425 . S
C1213 C1210 1.409 . S
C1213 C1211 1.415 . S
C1214 H1204 0.930 . S
C1214 C1212 1.419 . S
C1214 C1215 1.362 . S
C1215 H1205 0.930 . S
C1215 C1208 1.409 . S
C1215 C1214 1.362 . S
H1216 C1222 0.930 . S
H1217 C1225 0.930 . S
H1218 C1226 0.930 . S
H1219 C1227 0.930 . S
H1220 C1230 0.930 . S
H1221 C1231 0.930 . S
C1222 H1216 0.930 . S
C1222 C1223 1.355 . S
C1222 C1224 1.415 . S
C1223 C1222 1.355 . S
C1223 C1225 1.419 . S
C1224 C1222 1.415 . S
C1224 C1229 1.425 . S
C1224 C1231 1.409 . S
C1225 H1217 0.930 . S
C1225 C1223 1.419 . S
C1225 C1226 1.362 . S
C1226 H1218 0.930 . S
C1226 C1225 1.362 . S
C1226 C1229 1.409 . S
C1227 H1219 0.930 . S
C1227 C1228 1.355 . S
C1227 C1229 1.415 . S
C1228 C1227 1.355 . S
C1228 C1230 1.419 . S
C1229 C1224 1.425 . S
C1229 C1226 1.409 . S
C1229 C1227 1.415 . S
C1230 H1220 0.930 . S
C1230 C1228 1.419 . S
C1230 C1231 1.362 . S
C1231 H1221 0.930 . S
C1231 C1224 1.409 . S
C1231 C1230 1.362 . S
H1232 C1238 0.930 . S
H1233 C1241 0.930 . S
H1234 C1242 0.930 . S
H1235 C1243 0.930 . S
H1236 C1246 0.930 . S
H1237 C1247 0.930 1_556 S
C1238 H1232 0.930 . S
C1238 C1239 1.355 . S
C1238 C1240 1.415 . S
C1239 C1238 1.355 . S
C1239 C1241 1.419 . S
C1240 C1238 1.415 . S
C1240 C1245 1.425 . S
C1240 C1247 1.409 . S
C1241 H1233 0.930 . S
C1241 C1239 1.419 . S
C1241 C1242 1.362 . S
C1242 H1234 0.930 . S
C1242 C1241 1.362 . S
C1242 C1245 1.409 . S
C1243 H1235 0.930 . S
C1243 C1244 1.355 . S
C1243 C1245 1.415 . S
C1244 C1243 1.355 . S
C1244 C1246 1.419 1_554 S
C1245 C1240 1.425 . S
C1245 C1242 1.409 . S
C1245 C1243 1.415 . S
C1246 H1236 0.930 . S
C1246 C1244 1.419 1_556 S
C1246 C1247 1.362 1_556 S
C1247 H1237 0.930 1_554 S
C1247 C1240 1.409 . S
C1247 C1246 1.362 1_554 S
H1248 C1254 0.930 . S
H1249 C1257 0.930 . S
H1250 C1258 0.930 . S
H1251 C1259 0.930 . S
H1252 C1262 0.930 . S
H1253 C1263 0.930 . S
C1254 H1248 0.930 . S
C1254 C1255 1.355 . S
C1254 C1256 1.415 . S
C1255 C1254 1.355 . S
C1255 C1257 1.419 . S
C1256 C1254 1.415 . S
C1256 C1261 1.425 . S
C1256 C1263 1.409 . S
C1257 H1249 0.930 . S
C1257 C1255 1.419 . S
C1257 C1258 1.362 . S
C1258 H1250 0.930 . S
C1258 C1257 1.362 . S
C1258 C1261 1.409 . S
C1259 H1251 0.930 . S
C1259 C1260 1.355 . S
C1259 C1261 1.415 . S
C1260 C1259 1.355 . S
C1260 C1262 1.419 . S
C1261 C1256 1.425 . S
C1261 C1258 1.409 . S
C1261 C1259 1.415 . S
C1262 H1252 0.930 . S
C1262 C1260 1.419 . S
C1262 C1263 1.362 . S
C1263 H1253 0.930 . S
C1263 C1256 1.409 . S
C1263 C1262 1.362 . S
H1264 C1270 0.930 . S
H1265 C1273 0.930 . S
H1266 C1274 0.930 . S
H1267 C1275 0.930 . S
H1268 C1278 0.930 . S
H1269 C1279 0.930 . S
C1270 H1264 0.930 . S
C1270 C1271 1.355 . S
C1270 C1272 1.415 . S
C1271 C1270 1.355 . S
C1271 C1273 1.419 . S
C1272 C1270 1.415 . S
C1272 C1277 1.425 . S
C1272 C1279 1.409 . S
C1273 H1265 0.930 . S
C1273 C1271 1.419 . S
C1273 C1274 1.362 . S
C1274 H1266 0.930 . S
C1274 C1273 1.362 . S
C1274 C1277 1.409 . S
C1275 H1267 0.930 . S
C1275 C1276 1.355 . S
C1275 C1277 1.415 . S
C1276 C1275 1.355 . S
C1276 C1278 1.419 . S
C1277 C1272 1.425 . S
C1277 C1274 1.409 . S
C1277 C1275 1.415 . S
C1278 H1268 0.930 . S
C1278 C1276 1.419 . S
C1278 C1279 1.362 . S
C1279 H1269 0.930 . S
C1279 C1272 1.409 . S
C1279 C1278 1.362 . S
H1280 C1286 0.930 . S
H1281 C1289 0.930 . S
H1282 C1290 0.930 . S
H1283 C1291 0.930 . S
H1284 C1294 0.930 . S
H1285 C1295 0.930 . S
C1286 H1280 0.930 . S
C1286 C1287 1.355 . S
C1286 C1288 1.415 . S
C1287 C1286 1.355 . S
C1287 C1289 1.419 . S
C1288 C1286 1.415 . S
C1288 C1293 1.425 . S
C1288 C1295 1.409 . S
C1289 H1281 0.930 . S
C1289 C1287 1.419 . S
C1289 C1290 1.362 . S
C1290 H1282 0.930 . S
C1290 C1289 1.362 . S
C1290 C1293 1.409 . S
C1291 H1283 0.930 . S
C1291 C1292 1.355 . S
C1291 C1293 1.415 . S
C1292 C1291 1.355 . S
C1292 C1294 1.419 . S
C1293 C1288 1.425 . S
C1293 C1290 1.409 . S
C1293 C1291 1.415 . S
C1294 H1284 0.930 . S
C1294 C1292 1.419 . S
C1294 C1295 1.362 . S
C1295 H1285 0.930 . S
C1295 C1288 1.409 . S
C1295 C1294 1.362 . S
H1296 C1302 0.930 . S
H1297 C1305 0.930 . S
H1298 C1306 0.930 . S
H1299 C1307 0.930 . S
H1300 C1310 0.930 . S
H1301 C1311 0.930 . S
C1302 H1296 0.930 . S
C1302 C1303 1.355 . S
C1302 C1304 1.415 . S
C1303 C1302 1.355 . S
C1303 C1305 1.419 . S
C1304 C1302 1.415 . S
C1304 C1309 1.425 . S
C1304 C1311 1.409 . S
C1305 H1297 0.930 . S
C1305 C1303 1.419 . S
C1305 C1306 1.362 . S
C1306 H1298 0.930 . S
C1306 C1305 1.362 . S
C1306 C1309 1.409 . S
C1307 H1299 0.930 . S
C1307 C1308 1.355 . S
C1307 C1309 1.415 . S
C1308 C1307 1.355 . S
C1308 C1310 1.419 . S
C1309 C1304 1.425 . S
C1309 C1306 1.409 . S
C1309 C1307 1.415 . S
C1310 H1300 0.930 . S
C1310 C1308 1.419 . S
C1310 C1311 1.362 . S
C1311 H1301 0.930 . S
C1311 C1304 1.409 . S
C1311 C1310 1.362 . S
H1312 C1318 0.930 . S
H1313 C1321 0.930 . S
H1314 C1322 0.930 . S
H1315 C1323 0.930 . S
H1316 C1326 0.930 . S
H1317 C1327 0.930 . S
C1318 H1312 0.930 . S
C1318 C1319 1.355 . S
C1318 C1320 1.415 . S
C1319 C1318 1.355 . S
C1319 C1321 1.419 1_556 S
C1320 C1318 1.415 . S
C1320 C1325 1.425 . S
C1320 C1327 1.409 . S
C1321 H1313 0.930 . S
C1321 C1319 1.419 1_554 S
C1321 C1322 1.362 . S
C1322 H1314 0.930 . S
C1322 C1321 1.362 . S
C1322 C1325 1.409 1_554 S
C1323 H1315 0.930 . S
C1323 C1324 1.355 . S
C1323 C1325 1.415 . S
C1324 C1323 1.355 . S
C1324 C1326 1.419 . S
C1325 C1320 1.425 . S
C1325 C1322 1.409 1_556 S
C1325 C1323 1.415 . S
C1326 H1316 0.930 . S
C1326 C1324 1.419 . S
C1326 C1327 1.362 . S
C1327 H1317 0.930 . S
C1327 C1320 1.409 . S
C1327 C1326 1.362 . S
H1328 C1334 0.930 . S
H1329 C1337 0.930 . S
H1330 C1338 0.930 . S
H1331 C1339 0.930 . S
H1332 C1342 0.930 . S
H1333 C1343 0.930 . S
C1334 H1328 0.930 . S
C1334 C1335 1.355 . S
C1334 C1336 1.415 . S
C1335 C1334 1.355 . S
C1335 C1337 1.419 . S
C1336 C1334 1.415 . S
C1336 C1341 1.425 . S
C1336 C1343 1.409 . S
C1337 H1329 0.930 . S
C1337 C1335 1.419 . S
C1337 C1338 1.362 . S
C1338 H1330 0.930 . S
C1338 C1337 1.362 . S
C1338 C1341 1.409 . S
C1339 H1331 0.930 . S
C1339 C1340 1.355 . S
C1339 C1341 1.415 . S
C1340 C1339 1.355 . S
C1340 C1342 1.419 . S
C1341 C1336 1.425 . S
C1341 C1338 1.409 . S
C1341 C1339 1.415 . S
C1342 H1332 0.930 . S
C1342 C1340 1.419 . S
C1342 C1343 1.362 . S
C1343 H1333 0.930 . S
C1343 C1336 1.409 . S
C1343 C1342 1.362 . S
H1344 C1350 0.930 . S
H1345 C1353 0.930 . S
H1346 C1354 0.930 . S
H1347 C1355 0.930 . S
H1348 C1358 0.930 . S
H1349 C1359 0.930 . S
C1350 H1344 0.930 . S
C1350 C1351 1.355 . S
C1350 C1352 1.415 . S
C1351 C1350 1.355 . S
C1351 C1353 1.419 . S
C1352 C1350 1.415 . S
C1352 C1357 1.425 . S
C1352 C1359 1.409 . S
C1353 H1345 0.930 . S
C1353 C1351 1.419 . S
C1353 C1354 1.362 . S
C1354 H1346 0.930 . S
C1354 C1353 1.362 . S
C1354 C1357 1.409 . S
C1355 H1347 0.930 . S
C1355 C1356 1.355 . S
C1355 C1357 1.415 . S
C1356 C1355 1.355 . S
C1356 C1358 1.419 . S
C1357 C1352 1.425 . S
C1357 C1354 1.409 . S
C1357 C1355 1.415 . S
C1358 H1348 0.930 . S
C1358 C1356 1.419 . S
C1358 C1359 1.362 . S
C1359 H1349 0.930 . S
C1359 C1352 1.409 . S
C1359 C1358 1.362 . S
H1360 C1366 0.930 . S
H1361 C1369 0.930 . S
H1362 C1370 0.930 . S
H1363 C1371 0.930 . S
H1364 C1374 0.930 . S
H1365 C1375 0.930 . S
C1366 H1360 0.930 . S
C1366 C1367 1.355 . S
C1366 C1368 1.415 . S
C1367 C1366 1.355 . S
C1367 C1369 1.419 . S
C1368 C1366 1.415 . S
C1368 C1373 1.425 . S
C1368 C1375 1.409 . S
C1369 H1361 0.930 . S
C1369 C1367 1.419 . S
C1369 C1370 1.362 . S
C1370 H1362 0.930 . S
C1370 C1369 1.362 . S
C1370 C1373 1.409 . S
C1371 H1363 0.930 . S
C1371 C1372 1.355 . S
C1371 C1373 1.415 . S
C1372 C1371 1.355 . S
C1372 C1374 1.419 . S
C1373 C1368 1.425 . S
C1373 C1370 1.409 . S
C1373 C1371 1.415 . S
C1374 H1364 0.930 . S
C1374 C1372 1.419 . S
C1374 C1375 1.362 . S
C1375 H1365 0.930 . S
C1375 C1368 1.409 . S
C1375 C1374 1.362 . S
H1376 C1382 0.930 . S
H1377 C1385 0.930 . S
H1378 C1386 0.930 . S
H1379 C1387 0.930 . S
H1380 C1390 0.930 . S
H1381 C1391 0.930 . S
C1382 H1376 0.930 . S
C1382 C1383 1.355 . S
C1382 C1384 1.415 . S
C1383 C1382 1.355 . S
C1383 C1385 1.419 . S
C1384 C1382 1.415 . S
C1384 C1389 1.425 . S
C1384 C1391 1.409 . S
C1385 H1377 0.930 . S
C1385 C1383 1.419 . S
C1385 C1386 1.362 . S
C1386 H1378 0.930 . S
C1386 C1385 1.362 . S
C1386 C1389 1.409 . S
C1387 H1379 0.930 . S
C1387 C1388 1.355 . S
C1387 C1389 1.415 . S
C1388 C1387 1.355 . S
C1388 C1390 1.419 . S
C1389 C1384 1.425 . S
C1389 C1386 1.409 . S
C1389 C1387 1.415 . S
C1390 H1380 0.930 . S
C1390 C1388 1.419 . S
C1390 C1391 1.362 . S
C1391 H1381 0.930 . S
C1391 C1384 1.409 . S
C1391 C1390 1.362 . S
H1392 C1398 0.930 . S
H1393 C1401 0.930 . S
H1394 C1402 0.930 . S
H1395 C1403 0.930 . S
H1396 C1406 0.930 . S
H1397 C1407 0.930 . S
C1398 H1392 0.930 . S
C1398 C1399 1.355 . S
C1398 C1400 1.415 . S
C1399 C1398 1.355 . S
C1399 C1401 1.419 . S
C1400 C1398 1.415 . S
C1400 C1405 1.425 . S
C1400 C1407 1.409 . S
C1401 H1393 0.930 . S
C1401 C1399 1.419 . S
C1401 C1402 1.362 . S
C1402 H1394 0.930 . S
C1402 C1401 1.362 . S
C1402 C1405 1.409 . S
C1403 H1395 0.930 . S
C1403 C1404 1.355 . S
C1403 C1405 1.415 . S
C1404 C1403 1.355 . S
C1404 C1406 1.419 . S
C1405 C1400 1.425 . S
C1405 C1402 1.409 . S
C1405 C1403 1.415 . S
C1406 H1396 0.930 . S
C1406 C1404 1.419 . S
C1406 C1407 1.362 . S
C1407 H1397 0.930 . S
C1407 C1400 1.409 . S
C1407 C1406 1.362 . S
C647 C12 1.605 . S
C652 C69 1.515 . S
C663 C82 1.648 . S
C668 C71 1.675 . S
C679 C151 2.463 . S
C684 C92 2.501 . S
C695 C2 1.286 . S
C700 C149 1.202 . S
C711 C17 1.272 . S
C716 C368 1.150 . S
C727 C311 1.652 . S
C732 C48 1.534 . S
C743 C97 1.688 . S
C748 C412 1.627 . S
C759 C132 2.428 . S
C764 C551 2.507 . S
C775 C337 1.663 . S
C780 C52 1.681 . S
C791 C492 2.440 . S
C796 C111 2.491 . S
C807 C577 1.231 . S
C812 C128 1.201 . S
C823 C31 1.665 . S
C828 C448 1.556 . S
C839 C29 0.456 . S
C844 C349 0.474 . S
C855 C482 1.807 . S
C860 C177 1.904 . S
C871 C208 0.702 . S
C876 C568 0.682 . S
C887 C457 1.898 . S
C892 C242 1.818 . S
C903 C88 0.506 . S
C908 C288 0.491 . S
C919 C377 1.814 . S
C924 C162 1.901 . S
C935 C257 1.866 . S
C940 C402 1.870 . S
C951 C217 1.675 . S
C956 C452 1.620 . S
C967 C372 2.454 . S
C972 C231 2.507 . S
C983 C469 1.596 . S
C988 C292 1.675 . S
C999 C202 1.686 . S
C1004 C191 1.625 . S
C1015 C391 2.432 . S
C1020 C332 2.508 . S
C1031 C522 1.647 . S
C1036 C471 1.674 . S
C1047 C271 2.425 . S
C1052 C212 2.500 . S
C1063 C389 1.220 . S
C1068 C562 1.264 . S
C1079 C528 0.512 . S
C1084 C8 0.488 . S
C1095 C109 0.712 . S
C1100 C589 0.694 . S
C1111 C497 1.867 . S
C1116 C42 1.869 . S
C1127 C309 0.605 . S
C1132 C229 0.628 . S
C1143 C122 1.808 . S
C1148 C417 1.904 . S
C1159 C511 2.452 . S
C1164 C532 2.488 . S
C1175 C282 1.285 . S
C1180 C509 1.189 . S
C1191 C248 1.101 . S
C1196 C297 1.170 . S
C1207 C172 1.673 . S
C1212 C537 1.647 . S
C1223 C488 1.117 . S
C1228 C617 1.175 . S
C1239 C608 0.493 . S
C1244 C328 0.516 . S
C1255 C57 1.888 . S
C1260 C362 1.836 . S
C1271 C351 2.489 . S
C1276 C252 2.456 . S
C1287 C322 1.654 . S
C1292 C431 1.679 . S
C1303 C602 1.284 . S
C1308 C269 1.181 . S
C1319 C549 0.564 . S
C1324 C629 0.540 . S
C1335 C442 1.894 . S
C1340 C137 1.826 . S
C1351 C429 1.539 . S
C1356 C572 1.655 . S
C1367 C408 1.548 . S
C1372 C631 1.618 . S
C1383 C168 1.504 . S
C1388 C591 1.625 . S
C1399 C612 1.605 . S
C1404 C189 1.513 . S
