# Generated by pormake.
# Topology umd, (4)-cn, num edge types: 1
# Building blocks:
#     Node 0, Type 0, BuildingBlock: NAWXER_clean_sbu_0, # of connection points: 4
#     Node 1, Type 0, BuildingBlock: NAWXER_clean_sbu_0, # of connection points: 4
#     Node 2, Type 0, BuildingBlock: NAWXER_clean_sbu_0, # of connection points: 4
#     Node 3, Type 0, BuildingBlock: NAWXER_clean_sbu_0, # of connection points: 4
#     Node 4, Type 0, BuildingBlock: NAWXER_clean_sbu_0, # of connection points: 4
#     Node 5, Type 0, BuildingBlock: NAWXER_clean_sbu_0, # of connection points: 4
#     Node 6, Type 0, BuildingBlock: NAWXER_clean_sbu_0, # of connection points: 4
#     Node 7, Type 0, BuildingBlock: NAWXER_clean_sbu_0, # of connection points: 4
#     Node 8, Type 0, BuildingBlock: NAWXER_clean_sbu_0, # of connection points: 4
#     Node 9, Type 0, BuildingBlock: NAWXER_clean_sbu_0, # of connection points: 4
#     Node 10, Type 0, BuildingBlock: NAWXER_clean_sbu_0, # of connection points: 4
#     Node 11, Type 0, BuildingBlock: NAWXER_clean_sbu_0, # of connection points: 4
#     Node 12, Type 0, BuildingBlock: NAWXER_clean_sbu_0, # of connection points: 4
#     Node 13, Type 0, BuildingBlock: NAWXER_clean_sbu_0, # of connection points: 4
#     Node 14, Type 0, BuildingBlock: NAWXER_clean_sbu_0, # of connection points: 4
#     Node 15, Type 0, BuildingBlock: NAWXER_clean_sbu_0, # of connection points: 4
#     Edge 16, Type (0, 0), BuildingBlock: XIVTED_clean_linker_0, # of connection points: 2
#     Edge 17, Type (0, 0), BuildingBlock: XIVTED_clean_linker_0, # of connection points: 2
#     Edge 18, Type (0, 0), BuildingBlock: XIVTED_clean_linker_0, # of connection points: 2
#     Edge 19, Type (0, 0), BuildingBlock: XIVTED_clean_linker_0, # of connection points: 2
#     Edge 20, Type (0, 0), BuildingBlock: XIVTED_clean_linker_0, # of connection points: 2
#     Edge 21, Type (0, 0), BuildingBlock: XIVTED_clean_linker_0, # of connection points: 2
#     Edge 22, Type (0, 0), BuildingBlock: XIVTED_clean_linker_0, # of connection points: 2
#     Edge 23, Type (0, 0), BuildingBlock: XIVTED_clean_linker_0, # of connection points: 2
#     Edge 24, Type (0, 0), BuildingBlock: XIVTED_clean_linker_0, # of connection points: 2
#     Edge 25, Type (0, 0), BuildingBlock: XIVTED_clean_linker_0, # of connection points: 2
#     Edge 26, Type (0, 0), BuildingBlock: XIVTED_clean_linker_0, # of connection points: 2
#     Edge 27, Type (0, 0), BuildingBlock: XIVTED_clean_linker_0, # of connection points: 2
#     Edge 28, Type (0, 0), BuildingBlock: XIVTED_clean_linker_0, # of connection points: 2
#     Edge 29, Type (0, 0), BuildingBlock: XIVTED_clean_linker_0, # of connection points: 2
#     Edge 30, Type (0, 0), BuildingBlock: XIVTED_clean_linker_0, # of connection points: 2
#     Edge 31, Type (0, 0), BuildingBlock: XIVTED_clean_linker_0, # of connection points: 2
#     Edge 32, Type (0, 0), BuildingBlock: XIVTED_clean_linker_0, # of connection points: 2
#     Edge 33, Type (0, 0), BuildingBlock: XIVTED_clean_linker_0, # of connection points: 2
#     Edge 34, Type (0, 0), BuildingBlock: XIVTED_clean_linker_0, # of connection points: 2
#     Edge 35, Type (0, 0), BuildingBlock: XIVTED_clean_linker_0, # of connection points: 2
#     Edge 36, Type (0, 0), BuildingBlock: XIVTED_clean_linker_0, # of connection points: 2
#     Edge 37, Type (0, 0), BuildingBlock: XIVTED_clean_linker_0, # of connection points: 2
#     Edge 38, Type (0, 0), BuildingBlock: XIVTED_clean_linker_0, # of connection points: 2
#     Edge 39, Type (0, 0), BuildingBlock: XIVTED_clean_linker_0, # of connection points: 2
#     Edge 40, Type (0, 0), BuildingBlock: XIVTED_clean_linker_0, # of connection points: 2
#     Edge 41, Type (0, 0), BuildingBlock: XIVTED_clean_linker_0, # of connection points: 2
#     Edge 42, Type (0, 0), BuildingBlock: XIVTED_clean_linker_0, # of connection points: 2
#     Edge 43, Type (0, 0), BuildingBlock: XIVTED_clean_linker_0, # of connection points: 2
#     Edge 44, Type (0, 0), BuildingBlock: XIVTED_clean_linker_0, # of connection points: 2
#     Edge 45, Type (0, 0), BuildingBlock: XIVTED_clean_linker_0, # of connection points: 2
#     Edge 46, Type (0, 0), BuildingBlock: XIVTED_clean_linker_0, # of connection points: 2
#     Edge 47, Type (0, 0), BuildingBlock: XIVTED_clean_linker_0, # of connection points: 2
# Relax obj value: 0.021
# Max RMSD: 0.190
# Mean RMSD: 0.190
data_MOF--net-umd--node1-NAWXER_clean_sbu_0--edge1-XIVTED_clean_linker_0
_symmetry_space_group_name_H-M    P1
_symmetry_Int_Tables_number       1
_symmetry_cell_setting            triclinic
loop_
_symmetry_equiv_pos_as_xyz
'x, y, z'
_cell_length_a     40.772039
_cell_length_b     40.766804
_cell_length_c     58.784793
_cell_angle_alpha  90.005556
_cell_angle_beta   90.019704
_cell_angle_gamma 90.002788
loop_
_atom_site_label
_atom_site_type_symbol
_atom_site_fract_x
_atom_site_fract_y
_atom_site_fract_z
_atom_type_partial_charge
C0 C 0.11075 0.4488 0.13158 0.0
C1 C 0.21031 0.3843 0.13479 0.0
O2 O 0.11423 0.41812 0.13425 0.0
Zn3 Zn 0.16103 0.41733 0.13325 0.0
O4 O 0.13624 0.46704 0.1294 0.0
Zn5 Zn 0.18895 0.45994 0.12888 0.0
O6 O 0.20085 0.47554 0.0991 0.0
O7 O 0.17147 0.43014 0.09835 0.0
O8 O 0.21705 0.41483 0.13201 0.0
O9 O 0.18062 0.37533 0.13635 0.0
O10 O 0.17497 0.44173 0.16437 0.0
O11 O 0.20316 0.48565 0.15451 0.0
C12 C 0.18687 0.45299 0.08778 0.0
C13 C 0.1909 0.46767 0.16994 0.0
C14 C 0.54547 0.18766 0.58854 0.0
C15 C 0.531 0.18843 0.67082 0.0
O16 O 0.5232 0.20183 0.60002 0.0
Zn17 Zn 0.5388 0.18899 0.62974 0.0
O18 O 0.56805 0.17164 0.59892 0.0
Zn19 Zn 0.58099 0.15994 0.63349 0.0
O20 O 0.5798 0.11332 0.63329 0.0
O21 O 0.53092 0.1361 0.62965 0.0
O22 O 0.55591 0.17136 0.66471 0.0
O23 O 0.51431 0.20365 0.65595 0.0
O24 O 0.58405 0.21609 0.63296 0.0
O25 O 0.62323 0.17936 0.63721 0.0
C26 C 0.54898 0.11032 0.63108 0.0
C27 C 0.61447 0.20913 0.6358 0.0
C28 C 0.80628 0.52953 0.1713 0.0
C29 C 0.80736 0.54414 0.089 0.0
O30 O 0.79089 0.51313 0.15635 0.0
Zn31 Zn 0.80609 0.53741 0.1302 0.0
O32 O 0.82381 0.55415 0.16526 0.0
Zn33 Zn 0.83574 0.57903 0.13403 0.0
O34 O 0.81727 0.62161 0.13777 0.0
O35 O 0.77973 0.58324 0.13337 0.0
O36 O 0.82375 0.56644 0.0994 0.0
O37 O 0.79295 0.52202 0.10047 0.0
O38 O 0.85893 0.52861 0.13013 0.0
O39 O 0.88225 0.57721 0.13385 0.0
C40 C 0.78733 0.61352 0.13626 0.0
C41 C 0.88492 0.54637 0.1316 0.0
C42 C 0.45439 0.80799 0.58781 0.0
C43 C 0.46941 0.80428 0.66998 0.0
O44 O 0.477 0.79393 0.59902 0.0
Zn45 Zn 0.46175 0.8062 0.62889 0.0
O46 O 0.43183 0.82366 0.59846 0.0
Zn47 Zn 0.41942 0.83459 0.6333 0.0
O48 O 0.42074 0.88131 0.63417 0.0
O49 O 0.46943 0.85886 0.62927 0.0
O50 O 0.44366 0.82045 0.66437 0.0
O51 O 0.48734 0.79184 0.65458 0.0
O52 O 0.41627 0.77866 0.63218 0.0
O53 O 0.37724 0.81562 0.63654 0.0
C54 C 0.45141 0.88452 0.63143 0.0
C55 C 0.38584 0.7858 0.63502 0.0
C56 C 0.18982 0.52817 0.33498 0.0
C57 C 0.18616 0.54277 0.41712 0.0
O58 O 0.2019 0.51009 0.35043 0.0
Zn59 Zn 0.18785 0.53585 0.37603 0.0
O60 O 0.17403 0.5542 0.34053 0.0
Zn61 Zn 0.16023 0.57859 0.3717 0.0
O62 O 0.17991 0.62054 0.36863 0.0
O63 O 0.21618 0.58087 0.37291 0.0
O64 O 0.17082 0.56572 0.40661 0.0
O65 O 0.19987 0.52013 0.40575 0.0
O66 O 0.13507 0.52902 0.37564 0.0
O67 O 0.11347 0.5781 0.37078 0.0
C68 C 0.20957 0.61144 0.37016 0.0
C69 C 0.10972 0.54748 0.3735 0.0
C70 C 0.45185 0.18868 0.91712 0.0
C71 C 0.46625 0.19025 0.83486 0.0
O72 O 0.47421 0.20275 0.90566 0.0
Zn73 Zn 0.45843 0.19032 0.87592 0.0
O74 O 0.42912 0.17293 0.90669 0.0
Zn75 Zn 0.41611 0.16168 0.87204 0.0
O76 O 0.41677 0.11512 0.87198 0.0
O77 O 0.46591 0.13728 0.87573 0.0
O78 O 0.44122 0.17327 0.84084 0.0
O79 O 0.48305 0.20512 0.84984 0.0
O80 O 0.41333 0.21786 0.87286 0.0
O81 O 0.37405 0.1813 0.86842 0.0
C82 C 0.44754 0.11172 0.87417 0.0
C83 C 0.38289 0.21102 0.86998 0.0
C84 C 0.80721 0.4531 0.41813 0.0
C85 C 0.80688 0.46619 0.33568 0.0
O86 O 0.79335 0.47533 0.40643 0.0
Zn87 Zn 0.80611 0.45906 0.37684 0.0
O88 O 0.82303 0.43019 0.40796 0.0
Zn89 Zn 0.83471 0.41657 0.37351 0.0
O90 O 0.8813 0.41718 0.37376 0.0
O91 O 0.85916 0.46641 0.37688 0.0
O92 O 0.82366 0.44121 0.34203 0.0
O93 O 0.79177 0.48327 0.35039 0.0
O94 O 0.7785 0.41399 0.37395 0.0
O95 O 0.81494 0.37448 0.37009 0.0
C96 C 0.88471 0.448 0.37564 0.0
C97 C 0.78524 0.38347 0.37137 0.0
C98 C 0.52768 0.80611 0.83533 0.0
C99 C 0.54166 0.81043 0.91753 0.0
O100 O 0.50938 0.79424 0.85074 0.0
Zn101 Zn 0.53491 0.8085 0.87642 0.0
O102 O 0.55366 0.82193 0.84095 0.0
Zn103 Zn 0.57775 0.83604 0.87215 0.0
O104 O 0.61966 0.81632 0.8693 0.0
O105 O 0.57991 0.78011 0.87352 0.0
O106 O 0.56467 0.82565 0.90702 0.0
O107 O 0.51901 0.79671 0.90616 0.0
O108 O 0.52817 0.86128 0.87577 0.0
O109 O 0.57733 0.88277 0.87106 0.0
C110 C 0.6105 0.78668 0.87087 0.0
C111 C 0.54669 0.88658 0.87361 0.0
C112 C 0.80586 0.54375 0.91808 0.0
C113 C 0.80625 0.53065 0.83564 0.0
O114 O 0.822 0.56652 0.90799 0.0
Zn115 Zn 0.83412 0.58002 0.8736 0.0
O116 O 0.79188 0.52167 0.90631 0.0
Zn117 Zn 0.80507 0.53786 0.87679 0.0
O118 O 0.85808 0.53 0.87706 0.0
O119 O 0.88064 0.57907 0.87409 0.0
O120 O 0.79076 0.51378 0.85027 0.0
O121 O 0.82323 0.55546 0.84207 0.0
O122 O 0.81496 0.62227 0.87007 0.0
O123 O 0.77796 0.58325 0.8738 0.0
C124 C 0.88378 0.54822 0.87595 0.0
C125 C 0.78513 0.61368 0.87124 0.0
C126 C 0.46565 0.8071 0.33459 0.0
C127 C 0.45271 0.80667 0.41695 0.0
O128 O 0.44094 0.82421 0.34101 0.0
Zn129 Zn 0.41643 0.83518 0.37253 0.0
O130 O 0.48242 0.79149 0.34922 0.0
Zn131 Zn 0.45844 0.80589 0.3757 0.0
O132 O 0.41295 0.77898 0.37274 0.0
O133 O 0.37405 0.8161 0.36903 0.0
O134 O 0.47464 0.79255 0.40514 0.0
O135 O 0.42999 0.82295 0.40692 0.0
O136 O 0.41773 0.88176 0.37305 0.0
O137 O 0.46661 0.85882 0.37609 0.0
C138 C 0.38254 0.78624 0.3702 0.0
C139 C 0.44859 0.88467 0.37499 0.0
C140 C 0.18451 0.45152 0.9169 0.0
C141 C 0.18854 0.46715 0.83485 0.0
O142 O 0.16908 0.42879 0.90622 0.0
Zn143 Zn 0.15852 0.41646 0.8712 0.0
O144 O 0.19842 0.47422 0.9057 0.0
Zn145 Zn 0.18639 0.45896 0.87586 0.0
O146 O 0.13365 0.46608 0.87548 0.0
O147 O 0.11181 0.41717 0.87022 0.0
O148 O 0.20067 0.48497 0.85043 0.0
O149 O 0.17258 0.44115 0.84021 0.0
O150 O 0.17789 0.37446 0.86787 0.0
O151 O 0.21444 0.41381 0.8725 0.0
C152 C 0.10822 0.44777 0.87319 0.0
C153 C 0.2076 0.38333 0.86953 0.0
C154 C 0.54245 0.18744 0.41768 0.0
C155 C 0.52817 0.1908 0.33548 0.0
O156 O 0.56516 0.17167 0.40723 0.0
Zn157 Zn 0.57793 0.16059 0.37239 0.0
O158 O 0.52002 0.20141 0.40625 0.0
Zn159 Zn 0.53563 0.18894 0.37657 0.0
O160 O 0.52793 0.13626 0.3763 0.0
O161 O 0.57668 0.11385 0.37161 0.0
O162 O 0.51021 0.20326 0.35085 0.0
O163 O 0.55391 0.17462 0.34115 0.0
O164 O 0.6202 0.17951 0.36931 0.0
O165 O 0.58115 0.21649 0.37344 0.0
C166 C 0.54599 0.11061 0.37427 0.0
C167 C 0.6116 0.20933 0.37076 0.0
C168 C 0.80745 0.46683 0.67133 0.0
C169 C 0.8089 0.45218 0.58906 0.0
O170 O 0.82489 0.4421 0.66537 0.0
Zn171 Zn 0.83687 0.41715 0.63415 0.0
O172 O 0.79229 0.48331 0.65632 0.0
Zn173 Zn 0.80751 0.45889 0.63026 0.0
O174 O 0.78087 0.41319 0.63343 0.0
O175 O 0.81825 0.37467 0.63787 0.0
O176 O 0.79457 0.47436 0.60052 0.0
O177 O 0.82512 0.42977 0.59947 0.0
O178 O 0.88333 0.41861 0.63409 0.0
O179 O 0.86043 0.46739 0.63033 0.0
C180 C 0.78835 0.38289 0.63634 0.0
C181 C 0.88626 0.44941 0.63185 0.0
C182 C 0.61396 0.78787 0.13554 0.0
C183 C 0.54921 0.88721 0.13151 0.0
O184 O 0.58351 0.78111 0.13263 0.0
Zn185 Zn 0.53843 0.80863 0.12955 0.0
O186 O 0.62285 0.81758 0.13717 0.0
Zn187 Zn 0.58073 0.83724 0.13357 0.0
O188 O 0.55552 0.82537 0.16472 0.0
O189 O 0.51372 0.79362 0.15549 0.0
O190 O 0.57998 0.88384 0.13376 0.0
O191 O 0.53089 0.86164 0.12985 0.0
O192 O 0.52272 0.7963 0.0998 0.0
O193 O 0.56779 0.82617 0.09885 0.0
C194 C 0.53046 0.80833 0.17057 0.0
C195 C 0.54507 0.81044 0.08839 0.0
C196 C 0.18658 0.54464 0.58801 0.0
C197 C 0.19087 0.52926 0.67012 0.0
O198 O 0.17163 0.56763 0.59873 0.0
Zn199 Zn 0.16161 0.58035 0.6337 0.0
O200 O 0.20027 0.52176 0.59918 0.0
Zn201 Zn 0.18884 0.53731 0.62908 0.0
O202 O 0.13605 0.53109 0.62974 0.0
O203 O 0.11481 0.5803 0.63482 0.0
O204 O 0.20278 0.5112 0.65458 0.0
O205 O 0.17532 0.55548 0.66468 0.0
O206 O 0.1819 0.62199 0.63689 0.0
O207 O 0.21765 0.58192 0.63227 0.0
C208 C 0.11085 0.54971 0.63204 0.0
C209 C 0.21143 0.61254 0.63518 0.0
C210 C 0.44979 0.11229 0.13161 0.0
C211 C 0.38605 0.21228 0.13479 0.0
O212 O 0.46831 0.1376 0.12956 0.0
Zn213 Zn 0.46161 0.19042 0.12911 0.0
O214 O 0.41914 0.11608 0.13415 0.0
Zn215 Zn 0.41878 0.16285 0.13328 0.0
O216 O 0.43185 0.17349 0.09845 0.0
O217 O 0.47752 0.20241 0.0994 0.0
O218 O 0.37691 0.18262 0.13628 0.0
O219 O 0.41664 0.21887 0.13214 0.0
O220 O 0.48724 0.20434 0.15485 0.0
O221 O 0.44302 0.17647 0.16452 0.0
C222 C 0.45487 0.18877 0.08799 0.0
C223 C 0.46904 0.19218 0.1702 0.0
H224 H 0.09431 0.51374 0.12835 0.0
H225 H 0.9006 0.48091 0.13002 0.0
H226 H 0.05155 0.4171 0.13347 0.0
H227 H 0.94433 0.57737 0.13159 0.0
H228 H 0.95556 0.45682 0.12948 0.0
H229 H 0.0393 0.53731 0.12773 0.0
C230 C 0.07336 0.49746 0.12932 0.0
C231 C 0.07757 0.46339 0.13101 0.0
C232 C 0.95309 0.48325 0.12993 0.0
C233 C 0.01445 0.49023 0.13028 0.0
C234 C 0.92172 0.49702 0.1302 0.0
C235 C 0.91784 0.53121 0.13089 0.0
C236 C 0.98074 0.50383 0.13026 0.0
C237 C 0.94611 0.55089 0.13112 0.0
C238 C 0.04193 0.51094 0.12899 0.0
C239 C 0.04948 0.44351 0.13221 0.0
N240 N 0.97631 0.53692 0.1308 0.0
N241 N 0.01912 0.45723 0.13182 0.0
H242 H 0.51649 0.90064 0.62822 0.0
H243 H 0.48371 0.09436 0.62937 0.0
H244 H 0.42002 0.94381 0.6331 0.0
H245 H 0.5803 0.05098 0.63125 0.0
H246 H 0.45981 0.03938 0.62887 0.0
H247 H 0.54027 0.95564 0.62749 0.0
C248 C 0.5003 0.92167 0.62911 0.0
C249 C 0.46621 0.9176 0.63077 0.0
C250 C 0.48623 0.04191 0.62938 0.0
C251 C 0.49326 0.98062 0.62991 0.0
C252 C 0.4999 0.0733 0.62963 0.0
C253 C 0.53406 0.07729 0.63039 0.0
C254 C 0.50688 0.01432 0.62983 0.0
C255 C 0.55383 0.0491 0.63072 0.0
C256 C 0.51389 0.95307 0.62872 0.0
C257 C 0.44644 0.94576 0.63187 0.0
N258 N 0.53995 0.01883 0.63043 0.0
N259 N 0.46026 0.97606 0.63141 0.0
H260 H 0.05096 0.57987 0.37175 0.0
H261 H 0.94355 0.4158 0.3758 0.0
H262 H 0.09246 0.48271 0.37696 0.0
H263 H 0.90171 0.51311 0.37636 0.0
H264 H 0.99826 0.43994 0.37572 0.0
H265 H 0.99612 0.55592 0.37284 0.0
C266 C 0.04857 0.55349 0.37312 0.0
C267 C 0.07639 0.53326 0.37424 0.0
C268 C 0.97713 0.45603 0.37591 0.0
C269 C 0.0136 0.50568 0.37548 0.0
C270 C 0.94584 0.44227 0.37594 0.0
C271 C 0.91795 0.46247 0.37606 0.0
C272 C 0.98066 0.49028 0.37592 0.0
C273 C 0.9225 0.49659 0.37628 0.0
C274 C 0.01721 0.53984 0.37378 0.0
C275 C 0.07174 0.49925 0.37605 0.0
N276 N 0.95326 0.50943 0.37614 0.0
N277 N 0.04094 0.48654 0.37657 0.0
H278 H 0.57923 0.94527 0.87191 0.0
H279 H 0.4153 0.05293 0.87388 0.0
H280 H 0.48191 0.90397 0.87645 0.0
H281 H 0.51262 0.09469 0.87558 0.0
H282 H 0.43937 0.9982 0.87415 0.0
H283 H 0.55536 0.00016 0.87254 0.0
C284 C 0.55283 0.94772 0.87304 0.0
C285 C 0.53252 0.91994 0.8741 0.0
C286 C 0.45548 0.01931 0.87451 0.0
C287 C 0.50506 0.98279 0.87481 0.0
C288 C 0.44176 0.05061 0.87433 0.0
C289 C 0.46198 0.07848 0.87469 0.0
C290 C 0.48971 0.01575 0.87496 0.0
C291 C 0.49609 0.07391 0.87531 0.0
C292 C 0.53923 0.9791 0.87343 0.0
C293 C 0.4985 0.92466 0.87559 0.0
N294 N 0.50889 0.04312 0.87537 0.0
N295 N 0.48584 0.95549 0.87586 0.0
H296 H 0.94276 0.58009 0.8766 0.0
H297 H 0.04934 0.41564 0.87117 0.0
H298 H 0.90038 0.483 0.87632 0.0
H299 H 0.09126 0.51253 0.87724 0.0
H300 H 0.9946 0.43979 0.87253 0.0
H301 H 0.99731 0.55568 0.87644 0.0
C302 C 0.9449 0.5536 0.87654 0.0
C303 C 0.91691 0.53355 0.87643 0.0
C304 C 0.01577 0.45576 0.8736 0.0
C305 C 0.97945 0.50542 0.87619 0.0
C306 C 0.04706 0.442 0.87279 0.0
C307 C 0.07496 0.46211 0.87406 0.0
C308 C 0.0123 0.4899 0.87563 0.0
C309 C 0.07046 0.49609 0.8762 0.0
C310 C 0.97611 0.53968 0.87647 0.0
C311 C 0.92126 0.4994 0.87641 0.0
N312 N 0.03973 0.50891 0.87686 0.0
N313 N 0.95196 0.48641 0.87622 0.0
H314 H 0.48096 0.09437 0.37765 0.0
H315 H 0.51392 0.90064 0.37624 0.0
H316 H 0.57747 0.05135 0.37257 0.0
H317 H 0.4173 0.944 0.3753 0.0
H318 H 0.53782 0.95564 0.37666 0.0
H319 H 0.45728 0.03934 0.37852 0.0
C320 C 0.49718 0.07337 0.37674 0.0
C321 C 0.53125 0.0775 0.37499 0.0
C322 C 0.51139 0.9531 0.37638 0.0
C323 C 0.5043 0.01442 0.376 0.0
C324 C 0.49773 0.9217 0.37617 0.0
C325 C 0.46356 0.91769 0.37569 0.0
C326 C 0.49073 0.98069 0.37616 0.0
C327 C 0.44378 0.94589 0.37561 0.0
C328 C 0.48364 0.04194 0.37722 0.0
C329 C 0.55106 0.04936 0.37388 0.0
N330 N 0.45765 0.97616 0.37584 0.0
N331 N 0.5373 0.01903 0.37441 0.0
H332 H 0.94529 0.41778 0.6317 0.0
H333 H 0.05211 0.58224 0.63413 0.0
H334 H 0.90267 0.51474 0.63062 0.0
H335 H 0.09349 0.48504 0.62877 0.0
H336 H 0.9972 0.55825 0.63353 0.0
H337 H -0.00026 0.44228 0.63128 0.0
C338 C 0.94736 0.44426 0.63135 0.0
C339 C 0.91932 0.46425 0.63122 0.0
C340 C 0.0183 0.54219 0.63245 0.0
C341 C 0.98181 0.4925 0.63077 0.0
C342 C 0.04967 0.55585 0.63282 0.0
C343 C 0.07747 0.53561 0.63153 0.0
C344 C 0.01468 0.50802 0.63086 0.0
C345 C 0.07279 0.5016 0.62981 0.0
C346 C 0.97852 0.45824 0.63108 0.0
C347 C 0.92359 0.4984 0.63072 0.0
N348 N 0.04201 0.48889 0.62958 0.0
N349 N 0.95428 0.51147 0.63057 0.0
H350 H 0.41728 0.05355 0.13313 0.0
H351 H 0.58137 0.94606 0.13195 0.0
H352 H 0.51459 0.09494 0.12894 0.0
H353 H 0.48413 0.90417 0.12986 0.0
H354 H 0.55723 0.00076 0.13152 0.0
H355 H 0.44122 -0.00133 0.13263 0.0
C356 C 0.4437 0.05112 0.1321 0.0
C357 C 0.46398 0.07892 0.1311 0.0
C358 C 0.54115 0.97963 0.13112 0.0
C359 C 0.49152 0.0161 0.13055 0.0
C360 C 0.55491 0.94834 0.13139 0.0
C361 C 0.53473 0.92045 0.13096 0.0
C362 C 0.50691 0.98315 0.13051 0.0
C363 C 0.50063 0.92497 0.13019 0.0
C364 C 0.45733 0.01975 0.13178 0.0
C365 C 0.49801 0.07423 0.12973 0.0
N366 N 0.48778 0.95574 0.13004 0.0
N367 N 0.51071 0.04342 0.12955 0.0
H368 H 0.20449 0.46791 0.3171 0.0
H369 H 0.20541 0.52797 0.18787 0.0
H370 H 0.18272 0.56768 0.29772 0.0
H371 H 0.18352 0.42819 0.20716 0.0
H372 H 0.20771 0.54295 0.22824 0.0
H373 H 0.2074 0.45299 0.27676 0.0
C374 C 0.20057 0.48671 0.30437 0.0
C375 C 0.19318 0.51905 0.31075 0.0
C376 C 0.20252 0.51777 0.22357 0.0
C377 C 0.19677 0.50221 0.26471 0.0
C378 C 0.20135 0.50917 0.20059 0.0
C379 C 0.19409 0.47682 0.19417 0.0
C380 C 0.19697 0.49373 0.24023 0.0
C381 C 0.18894 0.45347 0.21136 0.0
C382 C 0.20209 0.47815 0.28139 0.0
C383 C 0.18823 0.54241 0.29354 0.0
N384 N 0.19058 0.46236 0.23361 0.0
N385 N 0.19022 0.53356 0.27129 0.0
H386 H 0.53718 0.13946 0.70182 0.0
H387 H 0.49499 0.24095 0.81162 0.0
H388 H 0.50333 0.23918 0.69465 0.0
H389 H 0.4593 0.14205 0.80332 0.0
H390 H 0.51028 0.24166 0.77106 0.0
H391 H 0.52098 0.1406 0.74198 0.0
C392 C 0.5265 0.16164 0.70876 0.0
C393 C 0.52145 0.18925 0.69499 0.0
C394 C 0.49904 0.21992 0.77823 0.0
C395 C 0.50363 0.19086 0.74078 0.0
C396 C 0.49052 0.21942 0.80127 0.0
C397 C 0.47583 0.19142 0.8107 0.0
C398 C 0.49375 0.19188 0.76489 0.0
C399 C 0.47039 0.16417 0.79662 0.0
C400 C 0.51718 0.16219 0.73156 0.0
C401 C 0.50738 0.21734 0.70475 0.0
N402 N 0.47973 0.16491 0.77446 0.0
N403 N 0.49924 0.2176 0.72721 0.0
H404 H 0.755 0.50206 0.19466 0.0
H405 H 0.85572 0.4586 0.30473 0.0
H406 H 0.85477 0.53531 0.20275 0.0
H407 H 0.75666 0.49444 0.3116 0.0
H408 H 0.85492 0.47431 0.26446 0.0
H409 H 0.75403 0.48699 0.23526 0.0
C410 C 0.77667 0.50603 0.20497 0.0
C411 C 0.80499 0.51999 0.19547 0.0
C412 C 0.83339 0.47864 0.27483 0.0
C413 C 0.80421 0.5023 0.24134 0.0
C414 C 0.83375 0.46961 0.2977 0.0
C415 C 0.80623 0.47537 0.31143 0.0
C416 C 0.80501 0.49263 0.26551 0.0
C417 C 0.77843 0.48983 0.30155 0.0
C418 C 0.77602 0.49763 0.22803 0.0
C419 C 0.83241 0.5248 0.2095 0.0
N420 N 0.77835 0.4977 0.27904 0.0
N421 N 0.83149 0.51559 0.23169 0.0
H422 H 0.46769 0.7912 0.8171 0.0
H423 H 0.5295 0.7896 0.68824 0.0
H424 H 0.56775 0.81272 0.79834 0.0
H425 H 0.42952 0.81157 0.70694 0.0
H426 H 0.54398 0.78727 0.72871 0.0
H427 H 0.45338 0.78787 0.77667 0.0
C428 C 0.48669 0.79497 0.80449 0.0
C429 C 0.51892 0.80243 0.81107 0.0
C430 C 0.51887 0.79248 0.72389 0.0
C431 C 0.50277 0.79836 0.76493 0.0
C432 C 0.51056 0.79366 0.70085 0.0
C433 C 0.4783 0.80097 0.69425 0.0
C434 C 0.49462 0.79806 0.7404 0.0
C435 C 0.45475 0.80612 0.71129 0.0
C436 C 0.47847 0.7932 0.78146 0.0
C437 C 0.54255 0.80717 0.79401 0.0
N438 N 0.46335 0.80448 0.73359 0.0
N439 N 0.53403 0.80497 0.7717 0.0
H440 H 0.85563 0.53762 0.80503 0.0
H441 H 0.7561 0.4947 0.69436 0.0
H442 H 0.75613 0.50278 0.81124 0.0
H443 H 0.85547 0.46065 0.70312 0.0
H444 H 0.75469 0.50985 0.73493 0.0
H445 H 0.8553 0.52172 0.76479 0.0
C446 C 0.83366 0.52679 0.79786 0.0
C447 C 0.80588 0.52137 0.8114 0.0
C448 C 0.77669 0.49901 0.72786 0.0
C449 C 0.8052 0.50388 0.76551 0.0
C450 C 0.77759 0.49057 0.7048 0.0
C451 C 0.80592 0.47637 0.6955 0.0
C452 C 0.80466 0.49415 0.74135 0.0
C453 C 0.83311 0.47135 0.70971 0.0
C454 C 0.83357 0.51764 0.77501 0.0
C455 C 0.77809 0.50712 0.80134 0.0
N456 N 0.83196 0.48061 0.73189 0.0
N457 N 0.77829 0.49915 0.77885 0.0
H458 H 0.45919 0.85663 0.30403 0.0
H459 H 0.50177 0.75723 0.19335 0.0
H460 H 0.49317 0.75681 0.31023 0.0
H461 H 0.53722 0.85606 0.20251 0.0
H462 H 0.48633 0.7558 0.23387 0.0
H463 H 0.47537 0.8563 0.26385 0.0
C464 C 0.46988 0.83459 0.29687 0.0
C465 C 0.47499 0.80672 0.31038 0.0
C466 C 0.49754 0.77769 0.22689 0.0
C467 C 0.49279 0.80605 0.26457 0.0
C468 C 0.50616 0.7786 0.20388 0.0
C469 C 0.52082 0.80678 0.19471 0.0
C470 C 0.50271 0.80551 0.24047 0.0
C471 C 0.52615 0.83381 0.20901 0.0
C472 C 0.47919 0.83451 0.27406 0.0
C473 C 0.48907 0.77884 0.30034 0.0
N474 N 0.51671 0.83267 0.23114 0.0
N475 N 0.4972 0.77905 0.27788 0.0
H476 H 0.20385 0.52747 0.81731 0.0
H477 H 0.20465 0.46862 0.68778 0.0
H478 H 0.18129 0.4281 0.79737 0.0
H479 H 0.18401 0.5685 0.70751 0.0
H480 H 0.20668 0.45325 0.72808 0.0
H481 H 0.20713 0.54277 0.77705 0.0
C482 C 0.19982 0.50883 0.80448 0.0
C483 C 0.19211 0.4765 0.81068 0.0
C484 C 0.20183 0.47853 0.72353 0.0
C485 C 0.19613 0.49377 0.76473 0.0
C486 C 0.20081 0.48735 0.70058 0.0
C487 C 0.19397 0.51985 0.69431 0.0
C488 C 0.19654 0.50249 0.74029 0.0
C489 C 0.1891 0.54311 0.7116 0.0
C490 C 0.20157 0.51761 0.78155 0.0
C491 C 0.18705 0.45336 0.79334 0.0
N492 N 0.19057 0.534 0.73381 0.0
N493 N 0.18924 0.46242 0.77114 0.0
H494 H 0.46821 0.20611 0.31736 0.0
H495 H 0.52931 0.2061 0.18839 0.0
H496 H 0.56786 0.1831 0.2984 0.0
H497 H 0.42918 0.18515 0.20725 0.0
H498 H 0.54396 0.20829 0.22881 0.0
H499 H 0.45363 0.20903 0.27695 0.0
C500 C 0.48706 0.20192 0.3047 0.0
C501 C 0.51926 0.19418 0.31122 0.0
C502 C 0.51879 0.20333 0.22404 0.0
C503 C 0.50281 0.19779 0.26511 0.0
C504 C 0.51038 0.20222 0.20102 0.0
C505 C 0.47801 0.19527 0.19447 0.0
C506 C 0.49455 0.19803 0.2406 0.0
C507 C 0.45447 0.19034 0.21156 0.0
C508 C 0.47869 0.20345 0.28169 0.0
C509 C 0.54269 0.18889 0.29411 0.0
N510 N 0.46318 0.19192 0.23385 0.0
N511 N 0.53403 0.1909 0.27183 0.0
H512 H 0.15772 0.40631 0.94579 0.0
H513 H 0.2162 0.49783 0.05941 0.0
H514 H 0.21393 0.49608 0.94545 0.0
H515 H 0.15972 0.40824 0.05869 0.0
H516 H 0.21655 0.49746 0.01778 0.0
H517 H 0.15911 0.40646 0.98724 0.0
C518 C 0.17041 0.42607 0.95442 0.0
C519 C 0.1857 0.45125 0.94208 0.0
C520 C 0.20413 0.47787 0.02675 0.0
C521 C 0.18737 0.45157 0.9897 0.0
C522 C 0.20392 0.47805 0.05053 0.0
C523 C 0.18787 0.45304 0.0626 0.0
C524 C 0.18816 0.45249 0.01495 0.0
C525 C 0.17238 0.42806 0.05015 0.0
C526 C 0.17119 0.42613 0.97813 0.0
C527 C 0.20179 0.47617 0.95425 0.0
N528 N 0.1729 0.42845 0.02705 0.0
N529 N 0.20217 0.47572 0.97739 0.0
H530 H 0.49783 0.21753 0.44587 0.0
H531 H 0.59034 0.16093 0.5595 0.0
H532 H 0.58723 0.16078 0.44691 0.0
H533 H 0.50061 0.21718 0.56012 0.0
H534 H 0.58974 0.1619 0.51812 0.0
H535 H 0.49852 0.21885 0.48753 0.0
C536 C 0.51762 0.20539 0.45483 0.0
C537 C 0.54249 0.18897 0.44285 0.0
C538 C 0.57016 0.17409 0.52725 0.0
C539 C 0.54341 0.1904 0.49048 0.0
C540 C 0.57049 0.17356 0.55094 0.0
C541 C 0.54544 0.18895 0.56336 0.0
C542 C 0.54458 0.1901 0.51573 0.0
C543 C 0.52041 0.20497 0.55125 0.0
C544 C 0.51798 0.20616 0.47861 0.0
C545 C 0.56751 0.1737 0.45537 0.0
N546 N 0.52058 0.20507 0.52809 0.0
N547 N 0.56729 0.17477 0.47845 0.0
H548 H 0.83417 0.58903 0.06003 0.0
H549 H 0.77566 0.49863 0.94598 0.0
H550 H 0.77711 0.4998 0.0605 0.0
H551 H 0.83242 0.58802 0.94764 0.0
H552 H 0.7747 0.49856 0.9877 0.0
H553 H 0.83256 0.589 0.01868 0.0
C554 C 0.82124 0.5694 0.05145 0.0
C555 C 0.8058 0.54434 0.06382 0.0
C556 C 0.78729 0.51819 0.97889 0.0
C557 C 0.80389 0.54413 0.01619 0.0
C558 C 0.78784 0.51826 0.95508 0.0
C559 C 0.8042 0.54334 0.94326 0.0
C560 C 0.80321 0.54338 0.99092 0.0
C561 C 0.81955 0.56813 0.95596 0.0
C562 C 0.82032 0.5694 0.02776 0.0
C563 C 0.78937 0.5196 0.05166 0.0
N564 N 0.8187 0.56748 0.97903 0.0
N565 N 0.7889 0.52008 0.0285 0.0
H566 H 0.40892 0.83471 0.55919 0.0
H567 H 0.49804 0.77645 0.44464 0.0
H568 H 0.49861 0.77837 0.55899 0.0
H569 H 0.40875 0.83333 0.44668 0.0
H570 H 0.49859 0.7756 0.48634 0.0
H571 H 0.4084 0.83322 0.51781 0.0
C572 C 0.42854 0.82197 0.55045 0.0
C573 C 0.45389 0.80669 0.56263 0.0
C574 C 0.47888 0.7882 0.47762 0.0
C575 C 0.45344 0.8049 0.51502 0.0
C576 C 0.47853 0.78868 0.45382 0.0
C577 C 0.45334 0.80504 0.44212 0.0
C578 C 0.45386 0.80418 0.48976 0.0
C579 C 0.42871 0.82046 0.45492 0.0
C580 C 0.42822 0.82113 0.52676 0.0
C581 C 0.47859 0.79052 0.55031 0.0
N582 N 0.42963 0.81967 0.47799 0.0
N583 N 0.47778 0.79008 0.52716 0.0
H584 H 0.21547 0.49769 0.44531 0.0
H585 H 0.15998 0.59012 0.55925 0.0
H586 H 0.15979 0.58776 0.44637 0.0
H587 H 0.21495 0.49959 0.5593 0.0
H588 H 0.16066 0.58984 0.51781 0.0
H589 H 0.21651 0.49812 0.48694 0.0
C590 C 0.2035 0.51758 0.45427 0.0
C591 C 0.18748 0.54271 0.4423 0.0
C592 C 0.17262 0.57002 0.52684 0.0
C593 C 0.18858 0.54334 0.48994 0.0
C594 C 0.17225 0.57016 0.55056 0.0
C595 C 0.1874 0.5448 0.56282 0.0
C596 C 0.18824 0.54433 0.51519 0.0
C597 C 0.20294 0.51964 0.55057 0.0
C598 C 0.2041 0.5178 0.47804 0.0
C599 C 0.17241 0.56785 0.45484 0.0
N600 N 0.20292 0.52001 0.52742 0.0
N601 N 0.17331 0.56749 0.47793 0.0
H602 H 0.4069 0.16206 0.94616 0.0
H603 H 0.49992 0.21812 0.05974 0.0
H604 H 0.49696 0.21779 0.94553 0.0
H605 H 0.40982 0.16247 0.05879 0.0
H606 H 0.49929 0.21921 0.01809 0.0
H607 H 0.40757 0.16299 0.98755 0.0
C608 C 0.42684 0.17456 0.95472 0.0
C609 C 0.45195 0.18984 0.9423 0.0
C610 C 0.47966 0.20681 0.02702 0.0
C611 C 0.45288 0.19094 0.98992 0.0
C612 C 0.48 0.20617 0.05081 0.0
C613 C 0.4549 0.19014 0.06281 0.0
C614 C 0.45406 0.19131 0.01517 0.0
C615 C 0.42972 0.17509 0.05031 0.0
C616 C 0.4272 0.17507 0.97841 0.0
C617 C 0.4771 0.20568 0.9544 0.0
N618 N 0.42997 0.17603 0.02723 0.0
N619 N 0.47696 0.20578 0.97755 0.0
H620 H 0.77737 0.4983 0.44615 0.0
H621 H 0.83571 0.40733 0.56003 0.0
H622 H 0.83379 0.40869 0.44758 0.0
H623 H 0.77884 0.49667 0.56061 0.0
H624 H 0.83418 0.40753 0.51866 0.0
H625 H 0.77656 0.49824 0.48787 0.0
C626 C 0.78952 0.4786 0.4552 0.0
C627 C 0.80572 0.45348 0.44331 0.0
C628 C 0.82196 0.42712 0.52778 0.0
C629 C 0.80489 0.4533 0.49098 0.0
C630 C 0.82283 0.42702 0.55147 0.0
C631 C 0.80742 0.45206 0.56387 0.0
C632 C 0.8056 0.45246 0.51624 0.0
C633 C 0.79108 0.47688 0.55175 0.0
C634 C 0.78905 0.4786 0.47901 0.0
C635 C 0.82103 0.4286 0.45595 0.0
N636 N 0.79064 0.47649 0.52859 0.0
N637 N 0.82026 0.42918 0.47902 0.0
H638 H 0.58988 0.83732 0.05933 0.0
H639 H 0.49674 0.78104 0.94584 0.0
H640 H 0.50001 0.78127 0.05999 0.0
H641 H 0.58667 0.83696 0.94665 0.0
H642 H 0.49747 0.77999 0.98749 0.0
H643 H 0.58911 0.83649 0.01793 0.0
C644 C 0.56996 0.82476 0.05078 0.0
C645 C 0.54494 0.80937 0.06321 0.0
C646 C 0.51704 0.79245 0.97853 0.0
C647 C 0.54389 0.80838 0.01559 0.0
C648 C 0.51665 0.79306 0.95475 0.0
C649 C 0.54167 0.80915 0.9427 0.0
C650 C 0.54264 0.80803 0.99034 0.0
C651 C 0.56684 0.82429 0.95517 0.0
C652 C 0.56954 0.82431 0.02708 0.0
C653 C 0.51981 0.79347 0.05112 0.0
N654 N 0.56664 0.82337 0.97825 0.0
N655 N 0.5199 0.79343 0.02797 0.0
H656 H 0.20391 0.31852 0.14195 0.0
H657 H 0.39548 0.27881 0.13032 0.0
H658 H 0.27683 0.39344 0.13014 0.0
H659 H 0.32019 0.20608 0.14159 0.0
H660 H 0.35328 0.32165 0.1312 0.0
H661 H 0.24711 0.27748 0.1429 0.0
C662 C 0.22905 0.32639 0.13958 0.0
C663 C 0.23672 0.35951 0.13589 0.0
C664 C 0.34609 0.2963 0.13353 0.0
C665 C 0.28654 0.31239 0.13693 0.0
C666 C 0.37014 0.27185 0.13304 0.0
C667 C 0.36135 0.23878 0.13582 0.0
C668 C 0.3131 0.28755 0.13684 0.0
C669 C 0.32816 0.23119 0.1393 0.0
C670 C 0.25377 0.30288 0.14013 0.0
C671 C 0.26981 0.36817 0.133 0.0
N672 N 0.30532 0.25535 0.13966 0.0
N673 N 0.29354 0.34472 0.13352 0.0
H674 H 0.7961 0.31706 0.6431 0.0
H675 H 0.6049 0.27553 0.63219 0.0
H676 H 0.72175 0.39087 0.63224 0.0
H677 H 0.68057 0.20282 0.64218 0.0
H678 H 0.64678 0.31846 0.63334 0.0
H679 H 0.75352 0.27522 0.64403 0.0
C680 C 0.77079 0.32451 0.64095 0.0
C681 C 0.7625 0.35754 0.63752 0.0
C682 C 0.65418 0.29311 0.63533 0.0
C683 C 0.7135 0.3096 0.63853 0.0
C684 C 0.63029 0.26859 0.63468 0.0
C685 C 0.63925 0.23551 0.63703 0.0
C686 C 0.68724 0.28448 0.63835 0.0
C687 C 0.67251 0.22797 0.64024 0.0
C688 C 0.74645 0.30056 0.64148 0.0
C689 C 0.72926 0.36569 0.63489 0.0
N690 N 0.69526 0.25224 0.64076 0.0
N691 N 0.70595 0.34185 0.63539 0.0
H692 H 0.79526 0.67935 0.14298 0.0
H693 H 0.6042 0.72149 0.13165 0.0
H694 H 0.72072 0.60574 0.13207 0.0
H695 H 0.68006 0.7939 0.14203 0.0
H696 H 0.64595 0.67842 0.13281 0.0
H697 H 0.75279 0.72132 0.14377 0.0
C698 C 0.76993 0.67197 0.14079 0.0
C699 C 0.76156 0.63895 0.13739 0.0
C700 C 0.65341 0.70374 0.13487 0.0
C701 C 0.71268 0.68705 0.13824 0.0
C702 C 0.6296 0.72834 0.13423 0.0
C703 C 0.63865 0.76138 0.13669 0.0
C704 C 0.68649 0.71225 0.13801 0.0
C705 C 0.67192 0.7688 0.14 0.0
C706 C 0.74565 0.696 0.14125 0.0
C707 C 0.72829 0.6309 0.13471 0.0
N708 N 0.69459 0.74445 0.14052 0.0
N709 N 0.70505 0.65481 0.13514 0.0
H710 H 0.27774 0.60224 0.63041 0.0
H711 H 0.32026 0.79312 0.64253 0.0
H712 H 0.20617 0.67843 0.64231 0.0
H713 H 0.39401 0.71918 0.63023 0.0
H714 H 0.27862 0.75051 0.64356 0.0
H715 H 0.32116 0.64381 0.63131 0.0
C716 C 0.27115 0.62765 0.63327 0.0
C717 C 0.23825 0.63688 0.63622 0.0
C718 C 0.30389 0.74349 0.64067 0.0
C719 C 0.28769 0.68442 0.63726 0.0
C720 C 0.32775 0.76787 0.64007 0.0
C721 C 0.36071 0.75974 0.63622 0.0
C722 C 0.3129 0.71061 0.63735 0.0
C723 C 0.36887 0.72655 0.63323 0.0
C724 C 0.29594 0.65134 0.63377 0.0
C725 C 0.23115 0.67013 0.63988 0.0
N726 N 0.34508 0.70315 0.63379 0.0
N727 N 0.25562 0.69263 0.64026 0.0
H728 H 0.31662 0.79344 0.36369 0.0
H729 H 0.27607 0.60186 0.37424 0.0
H730 H 0.39112 0.71964 0.37405 0.0
H731 H 0.2034 0.67742 0.36371 0.0
H732 H 0.31897 0.64393 0.37331 0.0
H733 H 0.27517 0.75053 0.36272 0.0
C734 C 0.3243 0.76818 0.36573 0.0
C735 C 0.35742 0.76015 0.36902 0.0
C736 C 0.29362 0.65123 0.37115 0.0
C737 C 0.3099 0.71072 0.36796 0.0
C738 C 0.26913 0.62724 0.37167 0.0
C739 C 0.23607 0.63613 0.36911 0.0
C740 C 0.28494 0.68428 0.36805 0.0
C741 C 0.22852 0.66938 0.36582 0.0
C742 C 0.30057 0.74363 0.36516 0.0
C743 C 0.36586 0.72694 0.3715 0.0
N744 N 0.25273 0.69219 0.36543 0.0
N745 N 0.34222 0.70341 0.37097 0.0
H746 H 0.39223 0.27746 0.87437 0.0
H747 H 0.20094 0.31766 0.862 0.0
H748 H 0.31701 0.20469 0.86298 0.0
H749 H 0.27409 0.39217 0.87442 0.0
H750 H 0.24398 0.27642 0.86109 0.0
H751 H 0.35013 0.32028 0.87327 0.0
C752 C 0.36691 0.27048 0.87158 0.0
C753 C 0.35812 0.23742 0.86882 0.0
C754 C 0.25072 0.30177 0.86398 0.0
C755 C 0.30994 0.28621 0.86756 0.0
C756 C 0.2261 0.3254 0.8645 0.0
C757 C 0.2339 0.35845 0.86837 0.0
C758 C 0.28349 0.31113 0.86737 0.0
C759 C 0.26698 0.36695 0.87142 0.0
C760 C 0.34291 0.29494 0.87097 0.0
C761 C 0.32495 0.22982 0.86525 0.0
N762 N 0.2906 0.3434 0.87092 0.0
N763 N 0.30213 0.254 0.86476 0.0
H764 H 0.67741 0.202 0.36408 0.0
H765 H 0.71879 0.39326 0.37503 0.0
H766 H 0.60327 0.27599 0.375 0.0
H767 H 0.79129 0.31736 0.36515 0.0
H768 H 0.67574 0.35141 0.37395 0.0
H769 H 0.71904 0.24469 0.36327 0.0
C770 C 0.66983 0.22727 0.36628 0.0
C771 C 0.63676 0.2354 0.36968 0.0
C772 C 0.70108 0.34398 0.37198 0.0
C773 C 0.68453 0.28459 0.3688 0.0
C774 C 0.72567 0.36784 0.37258 0.0
C775 C 0.75873 0.35879 0.37024 0.0
C776 C 0.70964 0.31088 0.369 0.0
C777 C 0.76618 0.3255 0.36709 0.0
C778 C 0.69368 0.25168 0.36581 0.0
C779 C 0.62848 0.26861 0.37236 0.0
N780 N 0.74186 0.30281 0.3666 0.0
N781 N 0.65225 0.29203 0.37192 0.0
H782 H 0.79229 0.67954 0.8646 0.0
H783 H 0.6008 0.72021 0.87504 0.0
H784 H 0.71853 0.60504 0.87513 0.0
H785 H 0.67648 0.79276 0.86453 0.0
H786 H 0.64281 0.67724 0.8742 0.0
H787 H 0.7494 0.72097 0.86356 0.0
C788 C 0.76703 0.67185 0.86666 0.0
C789 C 0.75902 0.63875 0.87002 0.0
C790 C 0.65014 0.70258 0.87203 0.0
C791 C 0.7096 0.68625 0.86889 0.0
C792 C 0.62619 0.7271 0.8725 0.0
C793 C 0.63514 0.76015 0.86991 0.0
C794 C 0.6832 0.71122 0.86895 0.0
C795 C 0.6684 0.76766 0.86666 0.0
C796 C 0.7425 0.69557 0.86606 0.0
C797 C 0.72582 0.6303 0.87252 0.0
N798 N 0.69116 0.74342 0.86631 0.0
N799 N 0.70229 0.65394 0.87197 0.0
loop_
_geom_bond_atom_site_label_1
_geom_bond_atom_site_label_2
_geom_bond_distance
_geom_bond_site_symmetry_2
_ccdc_geom_bond_type
C0 O2 1.247 . S
C0 O4 1.258 . S
C1 O8 1.247 . S
C1 O9 1.258 . S
O2 C0 1.247 . S
O2 Zn3 2.028 . S
Zn3 O2 2.028 . S
Zn3 O7 2.035 . S
Zn3 O9 2.035 . S
Zn3 O10 2.028 . S
O4 C0 1.258 . S
O4 Zn5 2.035 . S
Zn5 O4 2.035 . S
Zn5 O6 2.028 . S
Zn5 O8 2.028 . S
Zn5 O11 2.035 . S
O6 Zn5 2.028 . S
O6 C12 1.247 . S
O7 Zn3 2.035 . S
O7 C12 1.258 . S
O8 C1 1.247 . S
O8 Zn5 2.028 . S
O9 C1 1.258 . S
O9 Zn3 2.035 . S
O10 Zn3 2.028 . S
O10 C13 1.247 . S
O11 Zn5 2.035 . S
O11 C13 1.258 . S
C12 O6 1.247 . S
C12 O7 1.258 . S
C13 O10 1.247 . S
C13 O11 1.258 . S
C14 O16 1.247 . S
C14 O18 1.258 . S
C15 O22 1.247 . S
C15 O23 1.258 . S
O16 C14 1.247 . S
O16 Zn17 2.028 . S
Zn17 O16 2.028 . S
Zn17 O21 2.035 . S
Zn17 O23 2.035 . S
Zn17 O24 2.028 . S
O18 C14 1.258 . S
O18 Zn19 2.035 . S
Zn19 O18 2.035 . S
Zn19 O20 2.028 . S
Zn19 O22 2.028 . S
Zn19 O25 2.035 . S
O20 Zn19 2.028 . S
O20 C26 1.247 . S
O21 Zn17 2.035 . S
O21 C26 1.258 . S
O22 C15 1.247 . S
O22 Zn19 2.028 . S
O23 C15 1.258 . S
O23 Zn17 2.035 . S
O24 Zn17 2.028 . S
O24 C27 1.247 . S
O25 Zn19 2.035 . S
O25 C27 1.258 . S
C26 O20 1.247 . S
C26 O21 1.258 . S
C27 O24 1.247 . S
C27 O25 1.258 . S
C28 O30 1.247 . S
C28 O32 1.258 . S
C29 O36 1.247 . S
C29 O37 1.258 . S
O30 C28 1.247 . S
O30 Zn31 2.028 . S
Zn31 O30 2.028 . S
Zn31 O35 2.035 . S
Zn31 O37 2.035 . S
Zn31 O38 2.028 . S
O32 C28 1.258 . S
O32 Zn33 2.035 . S
Zn33 O32 2.035 . S
Zn33 O34 2.028 . S
Zn33 O36 2.028 . S
Zn33 O39 2.035 . S
O34 Zn33 2.028 . S
O34 C40 1.247 . S
O35 Zn31 2.035 . S
O35 C40 1.258 . S
O36 C29 1.247 . S
O36 Zn33 2.028 . S
O37 C29 1.258 . S
O37 Zn31 2.035 . S
O38 Zn31 2.028 . S
O38 C41 1.247 . S
O39 Zn33 2.035 . S
O39 C41 1.258 . S
C40 O34 1.247 . S
C40 O35 1.258 . S
C41 O38 1.247 . S
C41 O39 1.258 . S
C42 O44 1.247 . S
C42 O46 1.258 . S
C43 O50 1.247 . S
C43 O51 1.258 . S
O44 C42 1.247 . S
O44 Zn45 2.028 . S
Zn45 O44 2.028 . S
Zn45 O49 2.035 . S
Zn45 O51 2.035 . S
Zn45 O52 2.028 . S
O46 C42 1.258 . S
O46 Zn47 2.035 . S
Zn47 O46 2.035 . S
Zn47 O48 2.028 . S
Zn47 O50 2.028 . S
Zn47 O53 2.035 . S
O48 Zn47 2.028 . S
O48 C54 1.247 . S
O49 Zn45 2.035 . S
O49 C54 1.258 . S
O50 C43 1.247 . S
O50 Zn47 2.028 . S
O51 C43 1.258 . S
O51 Zn45 2.035 . S
O52 Zn45 2.028 . S
O52 C55 1.247 . S
O53 Zn47 2.035 . S
O53 C55 1.258 . S
C54 O48 1.247 . S
C54 O49 1.258 . S
C55 O52 1.247 . S
C55 O53 1.258 . S
C56 O58 1.247 . S
C56 O60 1.258 . S
C57 O64 1.247 . S
C57 O65 1.258 . S
O58 C56 1.247 . S
O58 Zn59 2.028 . S
Zn59 O58 2.028 . S
Zn59 O63 2.035 . S
Zn59 O65 2.035 . S
Zn59 O66 2.028 . S
O60 C56 1.258 . S
O60 Zn61 2.035 . S
Zn61 O60 2.035 . S
Zn61 O62 2.028 . S
Zn61 O64 2.028 . S
Zn61 O67 2.035 . S
O62 Zn61 2.028 . S
O62 C68 1.247 . S
O63 Zn59 2.035 . S
O63 C68 1.258 . S
O64 C57 1.247 . S
O64 Zn61 2.028 . S
O65 C57 1.258 . S
O65 Zn59 2.035 . S
O66 Zn59 2.028 . S
O66 C69 1.247 . S
O67 Zn61 2.035 . S
O67 C69 1.258 . S
C68 O62 1.247 . S
C68 O63 1.258 . S
C69 O66 1.247 . S
C69 O67 1.258 . S
C70 O72 1.247 . S
C70 O74 1.258 . S
C71 O78 1.247 . S
C71 O79 1.258 . S
O72 C70 1.247 . S
O72 Zn73 2.028 . S
Zn73 O72 2.028 . S
Zn73 O77 2.035 . S
Zn73 O79 2.035 . S
Zn73 O80 2.028 . S
O74 C70 1.258 . S
O74 Zn75 2.035 . S
Zn75 O74 2.035 . S
Zn75 O76 2.028 . S
Zn75 O78 2.028 . S
Zn75 O81 2.035 . S
O76 Zn75 2.028 . S
O76 C82 1.247 . S
O77 Zn73 2.035 . S
O77 C82 1.258 . S
O78 C71 1.247 . S
O78 Zn75 2.028 . S
O79 C71 1.258 . S
O79 Zn73 2.035 . S
O80 Zn73 2.028 . S
O80 C83 1.247 . S
O81 Zn75 2.035 . S
O81 C83 1.258 . S
C82 O76 1.247 . S
C82 O77 1.258 . S
C83 O80 1.247 . S
C83 O81 1.258 . S
C84 O86 1.247 . S
C84 O88 1.258 . S
C85 O92 1.247 . S
C85 O93 1.258 . S
O86 C84 1.247 . S
O86 Zn87 2.028 . S
Zn87 O86 2.028 . S
Zn87 O91 2.035 . S
Zn87 O93 2.035 . S
Zn87 O94 2.028 . S
O88 C84 1.258 . S
O88 Zn89 2.035 . S
Zn89 O88 2.035 . S
Zn89 O90 2.028 . S
Zn89 O92 2.028 . S
Zn89 O95 2.035 . S
O90 Zn89 2.028 . S
O90 C96 1.247 . S
O91 Zn87 2.035 . S
O91 C96 1.258 . S
O92 C85 1.247 . S
O92 Zn89 2.028 . S
O93 C85 1.258 . S
O93 Zn87 2.035 . S
O94 Zn87 2.028 . S
O94 C97 1.247 . S
O95 Zn89 2.035 . S
O95 C97 1.258 . S
C96 O90 1.247 . S
C96 O91 1.258 . S
C97 O94 1.247 . S
C97 O95 1.258 . S
C98 O100 1.247 . S
C98 O102 1.258 . S
C99 O106 1.247 . S
C99 O107 1.258 . S
O100 C98 1.247 . S
O100 Zn101 2.028 . S
Zn101 O100 2.028 . S
Zn101 O105 2.035 . S
Zn101 O107 2.035 . S
Zn101 O108 2.028 . S
O102 C98 1.258 . S
O102 Zn103 2.035 . S
Zn103 O102 2.035 . S
Zn103 O104 2.028 . S
Zn103 O106 2.028 . S
Zn103 O109 2.035 . S
O104 Zn103 2.028 . S
O104 C110 1.247 . S
O105 Zn101 2.035 . S
O105 C110 1.258 . S
O106 C99 1.247 . S
O106 Zn103 2.028 . S
O107 C99 1.258 . S
O107 Zn101 2.035 . S
O108 Zn101 2.028 . S
O108 C111 1.247 . S
O109 Zn103 2.035 . S
O109 C111 1.258 . S
C110 O104 1.247 . S
C110 O105 1.258 . S
C111 O108 1.247 . S
C111 O109 1.258 . S
C112 O114 1.247 . S
C112 O116 1.258 . S
C113 O120 1.247 . S
C113 O121 1.258 . S
O114 C112 1.247 . S
O114 Zn115 2.028 . S
Zn115 O114 2.028 . S
Zn115 O119 2.035 . S
Zn115 O121 2.035 . S
Zn115 O122 2.028 . S
O116 C112 1.258 . S
O116 Zn117 2.035 . S
Zn117 O116 2.035 . S
Zn117 O118 2.028 . S
Zn117 O120 2.028 . S
Zn117 O123 2.035 . S
O118 Zn117 2.028 . S
O118 C124 1.247 . S
O119 Zn115 2.035 . S
O119 C124 1.258 . S
O120 C113 1.247 . S
O120 Zn117 2.028 . S
O121 C113 1.258 . S
O121 Zn115 2.035 . S
O122 Zn115 2.028 . S
O122 C125 1.247 . S
O123 Zn117 2.035 . S
O123 C125 1.258 . S
C124 O118 1.247 . S
C124 O119 1.258 . S
C125 O122 1.247 . S
C125 O123 1.258 . S
C126 O128 1.247 . S
C126 O130 1.258 . S
C127 O134 1.247 . S
C127 O135 1.258 . S
O128 C126 1.247 . S
O128 Zn129 2.028 . S
Zn129 O128 2.028 . S
Zn129 O133 2.035 . S
Zn129 O135 2.035 . S
Zn129 O136 2.028 . S
O130 C126 1.258 . S
O130 Zn131 2.035 . S
Zn131 O130 2.035 . S
Zn131 O132 2.028 . S
Zn131 O134 2.028 . S
Zn131 O137 2.035 . S
O132 Zn131 2.028 . S
O132 C138 1.247 . S
O133 Zn129 2.035 . S
O133 C138 1.258 . S
O134 C127 1.247 . S
O134 Zn131 2.028 . S
O135 C127 1.258 . S
O135 Zn129 2.035 . S
O136 Zn129 2.028 . S
O136 C139 1.247 . S
O137 Zn131 2.035 . S
O137 C139 1.258 . S
C138 O132 1.247 . S
C138 O133 1.258 . S
C139 O136 1.247 . S
C139 O137 1.258 . S
C140 O142 1.247 . S
C140 O144 1.258 . S
C141 O148 1.247 . S
C141 O149 1.258 . S
O142 C140 1.247 . S
O142 Zn143 2.028 . S
Zn143 O142 2.028 . S
Zn143 O147 2.035 . S
Zn143 O149 2.035 . S
Zn143 O150 2.028 . S
O144 C140 1.258 . S
O144 Zn145 2.035 . S
Zn145 O144 2.035 . S
Zn145 O146 2.028 . S
Zn145 O148 2.028 . S
Zn145 O151 2.035 . S
O146 Zn145 2.028 . S
O146 C152 1.247 . S
O147 Zn143 2.035 . S
O147 C152 1.258 . S
O148 C141 1.247 . S
O148 Zn145 2.028 . S
O149 C141 1.258 . S
O149 Zn143 2.035 . S
O150 Zn143 2.028 . S
O150 C153 1.247 . S
O151 Zn145 2.035 . S
O151 C153 1.258 . S
C152 O146 1.247 . S
C152 O147 1.258 . S
C153 O150 1.247 . S
C153 O151 1.258 . S
C154 O156 1.247 . S
C154 O158 1.258 . S
C155 O162 1.247 . S
C155 O163 1.258 . S
O156 C154 1.247 . S
O156 Zn157 2.028 . S
Zn157 O156 2.028 . S
Zn157 O161 2.035 . S
Zn157 O163 2.035 . S
Zn157 O164 2.028 . S
O158 C154 1.258 . S
O158 Zn159 2.035 . S
Zn159 O158 2.035 . S
Zn159 O160 2.028 . S
Zn159 O162 2.028 . S
Zn159 O165 2.035 . S
O160 Zn159 2.028 . S
O160 C166 1.247 . S
O161 Zn157 2.035 . S
O161 C166 1.258 . S
O162 C155 1.247 . S
O162 Zn159 2.028 . S
O163 C155 1.258 . S
O163 Zn157 2.035 . S
O164 Zn157 2.028 . S
O164 C167 1.247 . S
O165 Zn159 2.035 . S
O165 C167 1.258 . S
C166 O160 1.247 . S
C166 O161 1.258 . S
C167 O164 1.247 . S
C167 O165 1.258 . S
C168 O170 1.247 . S
C168 O172 1.258 . S
C169 O176 1.247 . S
C169 O177 1.258 . S
O170 C168 1.247 . S
O170 Zn171 2.028 . S
Zn171 O170 2.028 . S
Zn171 O175 2.035 . S
Zn171 O177 2.035 . S
Zn171 O178 2.028 . S
O172 C168 1.258 . S
O172 Zn173 2.035 . S
Zn173 O172 2.035 . S
Zn173 O174 2.028 . S
Zn173 O176 2.028 . S
Zn173 O179 2.035 . S
O174 Zn173 2.028 . S
O174 C180 1.247 . S
O175 Zn171 2.035 . S
O175 C180 1.258 . S
O176 C169 1.247 . S
O176 Zn173 2.028 . S
O177 C169 1.258 . S
O177 Zn171 2.035 . S
O178 Zn171 2.028 . S
O178 C181 1.247 . S
O179 Zn173 2.035 . S
O179 C181 1.258 . S
C180 O174 1.247 . S
C180 O175 1.258 . S
C181 O178 1.247 . S
C181 O179 1.258 . S
C182 O184 1.247 . S
C182 O186 1.258 . S
C183 O190 1.247 . S
C183 O191 1.258 . S
O184 C182 1.247 . S
O184 Zn185 2.028 . S
Zn185 O184 2.028 . S
Zn185 O189 2.035 . S
Zn185 O191 2.035 . S
Zn185 O192 2.028 . S
O186 C182 1.258 . S
O186 Zn187 2.035 . S
Zn187 O186 2.035 . S
Zn187 O188 2.028 . S
Zn187 O190 2.028 . S
Zn187 O193 2.035 . S
O188 Zn187 2.028 . S
O188 C194 1.247 . S
O189 Zn185 2.035 . S
O189 C194 1.258 . S
O190 C183 1.247 . S
O190 Zn187 2.028 . S
O191 C183 1.258 . S
O191 Zn185 2.035 . S
O192 Zn185 2.028 . S
O192 C195 1.247 . S
O193 Zn187 2.035 . S
O193 C195 1.258 . S
C194 O188 1.247 . S
C194 O189 1.258 . S
C195 O192 1.247 . S
C195 O193 1.258 . S
C196 O198 1.247 . S
C196 O200 1.258 . S
C197 O204 1.247 . S
C197 O205 1.258 . S
O198 C196 1.247 . S
O198 Zn199 2.028 . S
Zn199 O198 2.028 . S
Zn199 O203 2.035 . S
Zn199 O205 2.035 . S
Zn199 O206 2.028 . S
O200 C196 1.258 . S
O200 Zn201 2.035 . S
Zn201 O200 2.035 . S
Zn201 O202 2.028 . S
Zn201 O204 2.028 . S
Zn201 O207 2.035 . S
O202 Zn201 2.028 . S
O202 C208 1.247 . S
O203 Zn199 2.035 . S
O203 C208 1.258 . S
O204 C197 1.247 . S
O204 Zn201 2.028 . S
O205 C197 1.258 . S
O205 Zn199 2.035 . S
O206 Zn199 2.028 . S
O206 C209 1.247 . S
O207 Zn201 2.035 . S
O207 C209 1.258 . S
C208 O202 1.247 . S
C208 O203 1.258 . S
C209 O206 1.247 . S
C209 O207 1.258 . S
C210 O212 1.247 . S
C210 O214 1.258 . S
C211 O218 1.247 . S
C211 O219 1.258 . S
O212 C210 1.247 . S
O212 Zn213 2.028 . S
Zn213 O212 2.028 . S
Zn213 O217 2.035 . S
Zn213 O219 2.035 . S
Zn213 O220 2.028 . S
O214 C210 1.258 . S
O214 Zn215 2.035 . S
Zn215 O214 2.035 . S
Zn215 O216 2.028 . S
Zn215 O218 2.028 . S
Zn215 O221 2.035 . S
O216 Zn215 2.028 . S
O216 C222 1.247 . S
O217 Zn213 2.035 . S
O217 C222 1.258 . S
O218 C211 1.247 . S
O218 Zn215 2.028 . S
O219 C211 1.258 . S
O219 Zn213 2.035 . S
O220 Zn213 2.028 . S
O220 C223 1.247 . S
O221 Zn215 2.035 . S
O221 C223 1.258 . S
C222 O216 1.247 . S
C222 O217 1.258 . S
C223 O220 1.247 . S
C223 O221 1.258 . S
H224 C230 0.930 . S
H225 C234 0.930 . S
H226 C239 0.929 . S
H227 C237 0.929 . S
H228 C232 0.929 . S
H229 C238 0.929 . S
C230 H224 0.930 . S
C230 C231 1.367 . S
C230 C238 1.378 . S
C231 C230 1.367 . S
C231 C239 1.433 . S
C232 H228 0.929 . S
C232 C234 1.378 . S
C232 C236 1.350 . S
C233 C236 1.463 1_455 S
C233 C238 1.350 . S
C233 N241 1.427 . S
C234 H225 0.930 . S
C234 C232 1.378 . S
C234 C235 1.367 . S
C235 C234 1.367 . S
C235 C237 1.433 . S
C236 C232 1.350 . S
C236 C233 1.463 1_655 S
C236 N240 1.427 . S
C237 H227 0.929 . S
C237 C235 1.433 . S
C237 N240 1.384 . S
C238 H229 0.929 . S
C238 C230 1.378 . S
C238 C233 1.350 . S
C239 H226 0.929 . S
C239 C231 1.433 . S
C239 N241 1.384 . S
N240 C236 1.427 . S
N240 C237 1.384 . S
N241 C233 1.427 . S
N241 C239 1.384 . S
H242 C248 0.930 . S
H243 C252 0.930 . S
H244 C257 0.929 . S
H245 C255 0.929 . S
H246 C250 0.929 . S
H247 C256 0.929 . S
C248 H242 0.930 . S
C248 C249 1.367 . S
C248 C256 1.378 . S
C249 C248 1.367 . S
C249 C257 1.433 . S
C250 H246 0.929 . S
C250 C252 1.378 . S
C250 C254 1.350 . S
C251 C254 1.463 1_565 S
C251 C256 1.350 . S
C251 N259 1.427 . S
C252 H243 0.930 . S
C252 C250 1.378 . S
C252 C253 1.367 . S
C253 C252 1.367 . S
C253 C255 1.433 . S
C254 C250 1.350 . S
C254 C251 1.463 1_545 S
C254 N258 1.427 . S
C255 H245 0.929 . S
C255 C253 1.433 . S
C255 N258 1.384 . S
C256 H247 0.929 . S
C256 C248 1.378 . S
C256 C251 1.350 . S
C257 H244 0.929 . S
C257 C249 1.433 . S
C257 N259 1.384 . S
N258 C254 1.427 . S
N258 C255 1.384 . S
N259 C251 1.427 . S
N259 C257 1.384 . S
H260 C266 0.930 . S
H261 C270 0.930 . S
H262 C275 0.929 . S
H263 C273 0.929 . S
H264 C268 0.929 . S
H265 C274 0.929 . S
C266 H260 0.930 . S
C266 C267 1.367 . S
C266 C274 1.378 . S
C267 C266 1.367 . S
C267 C275 1.433 . S
C268 H264 0.929 . S
C268 C270 1.378 . S
C268 C272 1.350 . S
C269 C272 1.463 1_455 S
C269 C274 1.350 . S
C269 N277 1.427 . S
C270 H261 0.930 . S
C270 C268 1.378 . S
C270 C271 1.367 . S
C271 C270 1.367 . S
C271 C273 1.433 . S
C272 C268 1.350 . S
C272 C269 1.463 1_655 S
C272 N276 1.427 . S
C273 H263 0.929 . S
C273 C271 1.433 . S
C273 N276 1.384 . S
C274 H265 0.929 . S
C274 C266 1.378 . S
C274 C269 1.350 . S
C275 H262 0.929 . S
C275 C267 1.433 . S
C275 N277 1.384 . S
N276 C272 1.427 . S
N276 C273 1.384 . S
N277 C269 1.427 . S
N277 C275 1.384 . S
H278 C284 0.930 . S
H279 C288 0.930 . S
H280 C293 0.929 . S
H281 C291 0.929 . S
H282 C286 0.929 . S
H283 C292 0.929 . S
C284 H278 0.930 . S
C284 C285 1.367 . S
C284 C292 1.378 . S
C285 C284 1.367 . S
C285 C293 1.433 . S
C286 H282 0.929 . S
C286 C288 1.378 . S
C286 C290 1.350 . S
C287 C290 1.463 1_565 S
C287 C292 1.350 . S
C287 N295 1.427 . S
C288 H279 0.930 . S
C288 C286 1.378 . S
C288 C289 1.367 . S
C289 C288 1.367 . S
C289 C291 1.433 . S
C290 C286 1.350 . S
C290 C287 1.463 1_545 S
C290 N294 1.427 . S
C291 H281 0.929 . S
C291 C289 1.433 . S
C291 N294 1.384 . S
C292 H283 0.929 . S
C292 C284 1.378 . S
C292 C287 1.350 . S
C293 H280 0.929 . S
C293 C285 1.433 . S
C293 N295 1.384 . S
N294 C290 1.427 . S
N294 C291 1.384 . S
N295 C287 1.427 . S
N295 C293 1.384 . S
H296 C302 0.930 . S
H297 C306 0.930 . S
H298 C311 0.929 . S
H299 C309 0.929 . S
H300 C304 0.929 . S
H301 C310 0.929 . S
C302 H296 0.930 . S
C302 C303 1.367 . S
C302 C310 1.378 . S
C303 C302 1.367 . S
C303 C311 1.433 . S
C304 H300 0.929 . S
C304 C306 1.378 . S
C304 C308 1.350 . S
C305 C308 1.463 1_655 S
C305 C310 1.350 . S
C305 N313 1.427 . S
C306 H297 0.930 . S
C306 C304 1.378 . S
C306 C307 1.367 . S
C307 C306 1.367 . S
C307 C309 1.433 . S
C308 C304 1.350 . S
C308 C305 1.463 1_455 S
C308 N312 1.427 . S
C309 H299 0.929 . S
C309 C307 1.433 . S
C309 N312 1.384 . S
C310 H301 0.929 . S
C310 C302 1.378 . S
C310 C305 1.350 . S
C311 H298 0.929 . S
C311 C303 1.433 . S
C311 N313 1.384 . S
N312 C308 1.427 . S
N312 C309 1.384 . S
N313 C305 1.427 . S
N313 C311 1.384 . S
H314 C320 0.930 . S
H315 C324 0.930 . S
H316 C329 0.929 . S
H317 C327 0.929 . S
H318 C322 0.929 . S
H319 C328 0.929 . S
C320 H314 0.930 . S
C320 C321 1.367 . S
C320 C328 1.378 . S
C321 C320 1.367 . S
C321 C329 1.433 . S
C322 H318 0.929 . S
C322 C324 1.378 . S
C322 C326 1.350 . S
C323 C326 1.463 1_545 S
C323 C328 1.350 . S
C323 N331 1.427 . S
C324 H315 0.930 . S
C324 C322 1.378 . S
C324 C325 1.367 . S
C325 C324 1.367 . S
C325 C327 1.433 . S
C326 C322 1.350 . S
C326 C323 1.463 1_565 S
C326 N330 1.427 . S
C327 H317 0.929 . S
C327 C325 1.433 . S
C327 N330 1.384 . S
C328 H319 0.929 . S
C328 C320 1.378 . S
C328 C323 1.350 . S
C329 H316 0.929 . S
C329 C321 1.433 . S
C329 N331 1.384 . S
N330 C326 1.427 . S
N330 C327 1.384 . S
N331 C323 1.427 . S
N331 C329 1.384 . S
H332 C338 0.930 . S
H333 C342 0.930 . S
H334 C347 0.929 . S
H335 C345 0.929 . S
H336 C340 0.929 . S
H337 C346 0.929 . S
C338 H332 0.930 . S
C338 C339 1.367 . S
C338 C346 1.378 . S
C339 C338 1.367 . S
C339 C347 1.433 . S
C340 H336 0.929 . S
C340 C342 1.378 . S
C340 C344 1.350 . S
C341 C344 1.463 1_655 S
C341 C346 1.350 . S
C341 N349 1.427 . S
C342 H333 0.930 . S
C342 C340 1.378 . S
C342 C343 1.367 . S
C343 C342 1.367 . S
C343 C345 1.433 . S
C344 C340 1.350 . S
C344 C341 1.463 1_455 S
C344 N348 1.427 . S
C345 H335 0.929 . S
C345 C343 1.433 . S
C345 N348 1.384 . S
C346 H337 0.929 . S
C346 C338 1.378 . S
C346 C341 1.350 . S
C347 H334 0.929 . S
C347 C339 1.433 . S
C347 N349 1.384 . S
N348 C344 1.427 . S
N348 C345 1.384 . S
N349 C341 1.427 . S
N349 C347 1.384 . S
H350 C356 0.930 . S
H351 C360 0.930 . S
H352 C365 0.929 . S
H353 C363 0.929 . S
H354 C358 0.929 . S
H355 C364 0.929 . S
C356 H350 0.930 . S
C356 C357 1.367 . S
C356 C364 1.378 . S
C357 C356 1.367 . S
C357 C365 1.433 . S
C358 H354 0.929 . S
C358 C360 1.378 . S
C358 C362 1.350 . S
C359 C362 1.463 1_545 S
C359 C364 1.350 . S
C359 N367 1.427 . S
C360 H351 0.930 . S
C360 C358 1.378 . S
C360 C361 1.367 . S
C361 C360 1.367 . S
C361 C363 1.433 . S
C362 C358 1.350 . S
C362 C359 1.463 1_565 S
C362 N366 1.427 . S
C363 H353 0.929 . S
C363 C361 1.433 . S
C363 N366 1.384 . S
C364 H355 0.929 . S
C364 C356 1.378 . S
C364 C359 1.350 . S
C365 H352 0.929 . S
C365 C357 1.433 . S
C365 N367 1.384 . S
N366 C362 1.427 . S
N366 C363 1.384 . S
N367 C359 1.427 . S
N367 C365 1.384 . S
H368 C374 0.930 . S
H369 C378 0.930 . S
H370 C383 0.929 . S
H371 C381 0.929 . S
H372 C376 0.929 . S
H373 C382 0.929 . S
C374 H368 0.930 . S
C374 C375 1.367 . S
C374 C382 1.378 . S
C375 C374 1.367 . S
C375 C383 1.433 . S
C376 H372 0.929 . S
C376 C378 1.378 . S
C376 C380 1.350 . S
C377 C380 1.463 . S
C377 C382 1.350 . S
C377 N385 1.427 . S
C378 H369 0.930 . S
C378 C376 1.378 . S
C378 C379 1.367 . S
C379 C378 1.367 . S
C379 C381 1.433 . S
C380 C376 1.350 . S
C380 C377 1.463 . S
C380 N384 1.427 . S
C381 H371 0.929 . S
C381 C379 1.433 . S
C381 N384 1.384 . S
C382 H373 0.929 . S
C382 C374 1.378 . S
C382 C377 1.350 . S
C383 H370 0.929 . S
C383 C375 1.433 . S
C383 N385 1.384 . S
N384 C380 1.427 . S
N384 C381 1.384 . S
N385 C377 1.427 . S
N385 C383 1.384 . S
H386 C392 0.930 . S
H387 C396 0.930 . S
H388 C401 0.929 . S
H389 C399 0.929 . S
H390 C394 0.929 . S
H391 C400 0.929 . S
C392 H386 0.930 . S
C392 C393 1.367 . S
C392 C400 1.378 . S
C393 C392 1.367 . S
C393 C401 1.433 . S
C394 H390 0.929 . S
C394 C396 1.378 . S
C394 C398 1.350 . S
C395 C398 1.463 . S
C395 C400 1.350 . S
C395 N403 1.427 . S
C396 H387 0.930 . S
C396 C394 1.378 . S
C396 C397 1.367 . S
C397 C396 1.367 . S
C397 C399 1.433 . S
C398 C394 1.350 . S
C398 C395 1.463 . S
C398 N402 1.427 . S
C399 H389 0.929 . S
C399 C397 1.433 . S
C399 N402 1.384 . S
C400 H391 0.929 . S
C400 C392 1.378 . S
C400 C395 1.350 . S
C401 H388 0.929 . S
C401 C393 1.433 . S
C401 N403 1.384 . S
N402 C398 1.427 . S
N402 C399 1.384 . S
N403 C395 1.427 . S
N403 C401 1.384 . S
H404 C410 0.930 . S
H405 C414 0.930 . S
H406 C419 0.929 . S
H407 C417 0.929 . S
H408 C412 0.929 . S
H409 C418 0.929 . S
C410 H404 0.930 . S
C410 C411 1.367 . S
C410 C418 1.378 . S
C411 C410 1.367 . S
C411 C419 1.433 . S
C412 H408 0.929 . S
C412 C414 1.378 . S
C412 C416 1.350 . S
C413 C416 1.463 . S
C413 C418 1.350 . S
C413 N421 1.427 . S
C414 H405 0.930 . S
C414 C412 1.378 . S
C414 C415 1.367 . S
C415 C414 1.367 . S
C415 C417 1.433 . S
C416 C412 1.350 . S
C416 C413 1.463 . S
C416 N420 1.427 . S
C417 H407 0.929 . S
C417 C415 1.433 . S
C417 N420 1.384 . S
C418 H409 0.929 . S
C418 C410 1.378 . S
C418 C413 1.350 . S
C419 H406 0.929 . S
C419 C411 1.433 . S
C419 N421 1.384 . S
N420 C416 1.427 . S
N420 C417 1.384 . S
N421 C413 1.427 . S
N421 C419 1.384 . S
H422 C428 0.930 . S
H423 C432 0.930 . S
H424 C437 0.929 . S
H425 C435 0.929 . S
H426 C430 0.929 . S
H427 C436 0.929 . S
C428 H422 0.930 . S
C428 C429 1.367 . S
C428 C436 1.378 . S
C429 C428 1.367 . S
C429 C437 1.433 . S
C430 H426 0.929 . S
C430 C432 1.378 . S
C430 C434 1.350 . S
C431 C434 1.463 . S
C431 C436 1.350 . S
C431 N439 1.427 . S
C432 H423 0.930 . S
C432 C430 1.378 . S
C432 C433 1.367 . S
C433 C432 1.367 . S
C433 C435 1.433 . S
C434 C430 1.350 . S
C434 C431 1.463 . S
C434 N438 1.427 . S
C435 H425 0.929 . S
C435 C433 1.433 . S
C435 N438 1.384 . S
C436 H427 0.929 . S
C436 C428 1.378 . S
C436 C431 1.350 . S
C437 H424 0.929 . S
C437 C429 1.433 . S
C437 N439 1.384 . S
N438 C434 1.427 . S
N438 C435 1.384 . S
N439 C431 1.427 . S
N439 C437 1.384 . S
H440 C446 0.930 . S
H441 C450 0.930 . S
H442 C455 0.929 . S
H443 C453 0.929 . S
H444 C448 0.929 . S
H445 C454 0.929 . S
C446 H440 0.930 . S
C446 C447 1.367 . S
C446 C454 1.378 . S
C447 C446 1.367 . S
C447 C455 1.433 . S
C448 H444 0.929 . S
C448 C450 1.378 . S
C448 C452 1.350 . S
C449 C452 1.463 . S
C449 C454 1.350 . S
C449 N457 1.427 . S
C450 H441 0.930 . S
C450 C448 1.378 . S
C450 C451 1.367 . S
C451 C450 1.367 . S
C451 C453 1.433 . S
C452 C448 1.350 . S
C452 C449 1.463 . S
C452 N456 1.427 . S
C453 H443 0.929 . S
C453 C451 1.433 . S
C453 N456 1.384 . S
C454 H445 0.929 . S
C454 C446 1.378 . S
C454 C449 1.350 . S
C455 H442 0.929 . S
C455 C447 1.433 . S
C455 N457 1.384 . S
N456 C452 1.427 . S
N456 C453 1.384 . S
N457 C449 1.427 . S
N457 C455 1.384 . S
H458 C464 0.930 . S
H459 C468 0.930 . S
H460 C473 0.929 . S
H461 C471 0.929 . S
H462 C466 0.929 . S
H463 C472 0.929 . S
C464 H458 0.930 . S
C464 C465 1.367 . S
C464 C472 1.378 . S
C465 C464 1.367 . S
C465 C473 1.433 . S
C466 H462 0.929 . S
C466 C468 1.378 . S
C466 C470 1.350 . S
C467 C470 1.463 . S
C467 C472 1.350 . S
C467 N475 1.427 . S
C468 H459 0.930 . S
C468 C466 1.378 . S
C468 C469 1.367 . S
C469 C468 1.367 . S
C469 C471 1.433 . S
C470 C466 1.350 . S
C470 C467 1.463 . S
C470 N474 1.427 . S
C471 H461 0.929 . S
C471 C469 1.433 . S
C471 N474 1.384 . S
C472 H463 0.929 . S
C472 C464 1.378 . S
C472 C467 1.350 . S
C473 H460 0.929 . S
C473 C465 1.433 . S
C473 N475 1.384 . S
N474 C470 1.427 . S
N474 C471 1.384 . S
N475 C467 1.427 . S
N475 C473 1.384 . S
H476 C482 0.930 . S
H477 C486 0.930 . S
H478 C491 0.929 . S
H479 C489 0.929 . S
H480 C484 0.929 . S
H481 C490 0.929 . S
C482 H476 0.930 . S
C482 C483 1.367 . S
C482 C490 1.378 . S
C483 C482 1.367 . S
C483 C491 1.433 . S
C484 H480 0.929 . S
C484 C486 1.378 . S
C484 C488 1.350 . S
C485 C488 1.463 . S
C485 C490 1.350 . S
C485 N493 1.427 . S
C486 H477 0.930 . S
C486 C484 1.378 . S
C486 C487 1.367 . S
C487 C486 1.367 . S
C487 C489 1.433 . S
C488 C484 1.350 . S
C488 C485 1.463 . S
C488 N492 1.427 . S
C489 H479 0.929 . S
C489 C487 1.433 . S
C489 N492 1.384 . S
C490 H481 0.929 . S
C490 C482 1.378 . S
C490 C485 1.350 . S
C491 H478 0.929 . S
C491 C483 1.433 . S
C491 N493 1.384 . S
N492 C488 1.427 . S
N492 C489 1.384 . S
N493 C485 1.427 . S
N493 C491 1.384 . S
H494 C500 0.930 . S
H495 C504 0.930 . S
H496 C509 0.929 . S
H497 C507 0.929 . S
H498 C502 0.929 . S
H499 C508 0.929 . S
C500 H494 0.930 . S
C500 C501 1.367 . S
C500 C508 1.378 . S
C501 C500 1.367 . S
C501 C509 1.433 . S
C502 H498 0.929 . S
C502 C504 1.378 . S
C502 C506 1.350 . S
C503 C506 1.463 . S
C503 C508 1.350 . S
C503 N511 1.427 . S
C504 H495 0.930 . S
C504 C502 1.378 . S
C504 C505 1.367 . S
C505 C504 1.367 . S
C505 C507 1.433 . S
C506 C502 1.350 . S
C506 C503 1.463 . S
C506 N510 1.427 . S
C507 H497 0.929 . S
C507 C505 1.433 . S
C507 N510 1.384 . S
C508 H499 0.929 . S
C508 C500 1.378 . S
C508 C503 1.350 . S
C509 H496 0.929 . S
C509 C501 1.433 . S
C509 N511 1.384 . S
N510 C506 1.427 . S
N510 C507 1.384 . S
N511 C503 1.427 . S
N511 C509 1.384 . S
H512 C518 0.930 . S
H513 C522 0.930 . S
H514 C527 0.929 . S
H515 C525 0.929 . S
H516 C520 0.929 . S
H517 C526 0.929 . S
C518 H512 0.930 . S
C518 C519 1.367 . S
C518 C526 1.378 . S
C519 C518 1.367 . S
C519 C527 1.433 . S
C520 H516 0.929 . S
C520 C522 1.378 . S
C520 C524 1.350 . S
C521 C524 1.463 1_556 S
C521 C526 1.350 . S
C521 N529 1.427 . S
C522 H513 0.930 . S
C522 C520 1.378 . S
C522 C523 1.367 . S
C523 C522 1.367 . S
C523 C525 1.433 . S
C524 C520 1.350 . S
C524 C521 1.463 1_554 S
C524 N528 1.427 . S
C525 H515 0.929 . S
C525 C523 1.433 . S
C525 N528 1.384 . S
C526 H517 0.929 . S
C526 C518 1.378 . S
C526 C521 1.350 . S
C527 H514 0.929 . S
C527 C519 1.433 . S
C527 N529 1.384 . S
N528 C524 1.427 . S
N528 C525 1.384 . S
N529 C521 1.427 . S
N529 C527 1.384 . S
H530 C536 0.930 . S
H531 C540 0.930 . S
H532 C545 0.929 . S
H533 C543 0.929 . S
H534 C538 0.929 . S
H535 C544 0.929 . S
C536 H530 0.930 . S
C536 C537 1.367 . S
C536 C544 1.378 . S
C537 C536 1.367 . S
C537 C545 1.433 . S
C538 H534 0.929 . S
C538 C540 1.378 . S
C538 C542 1.350 . S
C539 C542 1.463 . S
C539 C544 1.350 . S
C539 N547 1.427 . S
C540 H531 0.930 . S
C540 C538 1.378 . S
C540 C541 1.367 . S
C541 C540 1.367 . S
C541 C543 1.433 . S
C542 C538 1.350 . S
C542 C539 1.463 . S
C542 N546 1.427 . S
C543 H533 0.929 . S
C543 C541 1.433 . S
C543 N546 1.384 . S
C544 H535 0.929 . S
C544 C536 1.378 . S
C544 C539 1.350 . S
C545 H532 0.929 . S
C545 C537 1.433 . S
C545 N547 1.384 . S
N546 C542 1.427 . S
N546 C543 1.384 . S
N547 C539 1.427 . S
N547 C545 1.384 . S
H548 C554 0.930 . S
H549 C558 0.930 . S
H550 C563 0.929 . S
H551 C561 0.929 . S
H552 C556 0.929 . S
H553 C562 0.929 . S
C554 H548 0.930 . S
C554 C555 1.367 . S
C554 C562 1.378 . S
C555 C554 1.367 . S
C555 C563 1.433 . S
C556 H552 0.929 . S
C556 C558 1.378 . S
C556 C560 1.350 . S
C557 C560 1.463 1_554 S
C557 C562 1.350 . S
C557 N565 1.427 . S
C558 H549 0.930 . S
C558 C556 1.378 . S
C558 C559 1.367 . S
C559 C558 1.367 . S
C559 C561 1.433 . S
C560 C556 1.350 . S
C560 C557 1.463 1_556 S
C560 N564 1.427 . S
C561 H551 0.929 . S
C561 C559 1.433 . S
C561 N564 1.384 . S
C562 H553 0.929 . S
C562 C554 1.378 . S
C562 C557 1.350 . S
C563 H550 0.929 . S
C563 C555 1.433 . S
C563 N565 1.384 . S
N564 C560 1.427 . S
N564 C561 1.384 . S
N565 C557 1.427 . S
N565 C563 1.384 . S
H566 C572 0.930 . S
H567 C576 0.930 . S
H568 C581 0.929 . S
H569 C579 0.929 . S
H570 C574 0.929 . S
H571 C580 0.929 . S
C572 H566 0.930 . S
C572 C573 1.367 . S
C572 C580 1.378 . S
C573 C572 1.367 . S
C573 C581 1.433 . S
C574 H570 0.929 . S
C574 C576 1.378 . S
C574 C578 1.350 . S
C575 C578 1.463 . S
C575 C580 1.350 . S
C575 N583 1.427 . S
C576 H567 0.930 . S
C576 C574 1.378 . S
C576 C577 1.367 . S
C577 C576 1.367 . S
C577 C579 1.433 . S
C578 C574 1.350 . S
C578 C575 1.463 . S
C578 N582 1.427 . S
C579 H569 0.929 . S
C579 C577 1.433 . S
C579 N582 1.384 . S
C580 H571 0.929 . S
C580 C572 1.378 . S
C580 C575 1.350 . S
C581 H568 0.929 . S
C581 C573 1.433 . S
C581 N583 1.384 . S
N582 C578 1.427 . S
N582 C579 1.384 . S
N583 C575 1.427 . S
N583 C581 1.384 . S
H584 C590 0.930 . S
H585 C594 0.930 . S
H586 C599 0.929 . S
H587 C597 0.929 . S
H588 C592 0.929 . S
H589 C598 0.929 . S
C590 H584 0.930 . S
C590 C591 1.367 . S
C590 C598 1.378 . S
C591 C590 1.367 . S
C591 C599 1.433 . S
C592 H588 0.929 . S
C592 C594 1.378 . S
C592 C596 1.350 . S
C593 C596 1.463 . S
C593 C598 1.350 . S
C593 N601 1.427 . S
C594 H585 0.930 . S
C594 C592 1.378 . S
C594 C595 1.367 . S
C595 C594 1.367 . S
C595 C597 1.433 . S
C596 C592 1.350 . S
C596 C593 1.463 . S
C596 N600 1.427 . S
C597 H587 0.929 . S
C597 C595 1.433 . S
C597 N600 1.384 . S
C598 H589 0.929 . S
C598 C590 1.378 . S
C598 C593 1.350 . S
C599 H586 0.929 . S
C599 C591 1.433 . S
C599 N601 1.384 . S
N600 C596 1.427 . S
N600 C597 1.384 . S
N601 C593 1.427 . S
N601 C599 1.384 . S
H602 C608 0.930 . S
H603 C612 0.930 . S
H604 C617 0.929 . S
H605 C615 0.929 . S
H606 C610 0.929 . S
H607 C616 0.929 . S
C608 H602 0.930 . S
C608 C609 1.367 . S
C608 C616 1.378 . S
C609 C608 1.367 . S
C609 C617 1.433 . S
C610 H606 0.929 . S
C610 C612 1.378 . S
C610 C614 1.350 . S
C611 C614 1.463 1_556 S
C611 C616 1.350 . S
C611 N619 1.427 . S
C612 H603 0.930 . S
C612 C610 1.378 . S
C612 C613 1.367 . S
C613 C612 1.367 . S
C613 C615 1.433 . S
C614 C610 1.350 . S
C614 C611 1.463 1_554 S
C614 N618 1.427 . S
C615 H605 0.929 . S
C615 C613 1.433 . S
C615 N618 1.384 . S
C616 H607 0.929 . S
C616 C608 1.378 . S
C616 C611 1.350 . S
C617 H604 0.929 . S
C617 C609 1.433 . S
C617 N619 1.384 . S
N618 C614 1.427 . S
N618 C615 1.384 . S
N619 C611 1.427 . S
N619 C617 1.384 . S
H620 C626 0.930 . S
H621 C630 0.930 . S
H622 C635 0.929 . S
H623 C633 0.929 . S
H624 C628 0.929 . S
H625 C634 0.929 . S
C626 H620 0.930 . S
C626 C627 1.367 . S
C626 C634 1.378 . S
C627 C626 1.367 . S
C627 C635 1.433 . S
C628 H624 0.929 . S
C628 C630 1.378 . S
C628 C632 1.350 . S
C629 C632 1.463 . S
C629 C634 1.350 . S
C629 N637 1.427 . S
C630 H621 0.930 . S
C630 C628 1.378 . S
C630 C631 1.367 . S
C631 C630 1.367 . S
C631 C633 1.433 . S
C632 C628 1.350 . S
C632 C629 1.463 . S
C632 N636 1.427 . S
C633 H623 0.929 . S
C633 C631 1.433 . S
C633 N636 1.384 . S
C634 H625 0.929 . S
C634 C626 1.378 . S
C634 C629 1.350 . S
C635 H622 0.929 . S
C635 C627 1.433 . S
C635 N637 1.384 . S
N636 C632 1.427 . S
N636 C633 1.384 . S
N637 C629 1.427 . S
N637 C635 1.384 . S
H638 C644 0.930 . S
H639 C648 0.930 . S
H640 C653 0.929 . S
H641 C651 0.929 . S
H642 C646 0.929 . S
H643 C652 0.929 . S
C644 H638 0.930 . S
C644 C645 1.367 . S
C644 C652 1.378 . S
C645 C644 1.367 . S
C645 C653 1.433 . S
C646 H642 0.929 . S
C646 C648 1.378 . S
C646 C650 1.350 . S
C647 C650 1.463 1_554 S
C647 C652 1.350 . S
C647 N655 1.427 . S
C648 H639 0.930 . S
C648 C646 1.378 . S
C648 C649 1.367 . S
C649 C648 1.367 . S
C649 C651 1.433 . S
C650 C646 1.350 . S
C650 C647 1.463 1_556 S
C650 N654 1.427 . S
C651 H641 0.929 . S
C651 C649 1.433 . S
C651 N654 1.384 . S
C652 H643 0.929 . S
C652 C644 1.378 . S
C652 C647 1.350 . S
C653 H640 0.929 . S
C653 C645 1.433 . S
C653 N655 1.384 . S
N654 C650 1.427 . S
N654 C651 1.384 . S
N655 C647 1.427 . S
N655 C653 1.384 . S
H656 C662 0.930 . S
H657 C666 0.930 . S
H658 C671 0.929 . S
H659 C669 0.929 . S
H660 C664 0.929 . S
H661 C670 0.929 . S
C662 H656 0.930 . S
C662 C663 1.367 . S
C662 C670 1.378 . S
C663 C662 1.367 . S
C663 C671 1.433 . S
C664 H660 0.929 . S
C664 C666 1.378 . S
C664 C668 1.350 . S
C665 C668 1.463 . S
C665 C670 1.350 . S
C665 N673 1.427 . S
C666 H657 0.930 . S
C666 C664 1.378 . S
C666 C667 1.367 . S
C667 C666 1.367 . S
C667 C669 1.433 . S
C668 C664 1.350 . S
C668 C665 1.463 . S
C668 N672 1.427 . S
C669 H659 0.929 . S
C669 C667 1.433 . S
C669 N672 1.384 . S
C670 H661 0.929 . S
C670 C662 1.378 . S
C670 C665 1.350 . S
C671 H658 0.929 . S
C671 C663 1.433 . S
C671 N673 1.384 . S
N672 C668 1.427 . S
N672 C669 1.384 . S
N673 C665 1.427 . S
N673 C671 1.384 . S
H674 C680 0.930 . S
H675 C684 0.930 . S
H676 C689 0.929 . S
H677 C687 0.929 . S
H678 C682 0.929 . S
H679 C688 0.929 . S
C680 H674 0.930 . S
C680 C681 1.367 . S
C680 C688 1.378 . S
C681 C680 1.367 . S
C681 C689 1.433 . S
C682 H678 0.929 . S
C682 C684 1.378 . S
C682 C686 1.350 . S
C683 C686 1.463 . S
C683 C688 1.350 . S
C683 N691 1.427 . S
C684 H675 0.930 . S
C684 C682 1.378 . S
C684 C685 1.367 . S
C685 C684 1.367 . S
C685 C687 1.433 . S
C686 C682 1.350 . S
C686 C683 1.463 . S
C686 N690 1.427 . S
C687 H677 0.929 . S
C687 C685 1.433 . S
C687 N690 1.384 . S
C688 H679 0.929 . S
C688 C680 1.378 . S
C688 C683 1.350 . S
C689 H676 0.929 . S
C689 C681 1.433 . S
C689 N691 1.384 . S
N690 C686 1.427 . S
N690 C687 1.384 . S
N691 C683 1.427 . S
N691 C689 1.384 . S
H692 C698 0.930 . S
H693 C702 0.930 . S
H694 C707 0.929 . S
H695 C705 0.929 . S
H696 C700 0.929 . S
H697 C706 0.929 . S
C698 H692 0.930 . S
C698 C699 1.367 . S
C698 C706 1.378 . S
C699 C698 1.367 . S
C699 C707 1.433 . S
C700 H696 0.929 . S
C700 C702 1.378 . S
C700 C704 1.350 . S
C701 C704 1.463 . S
C701 C706 1.350 . S
C701 N709 1.427 . S
C702 H693 0.930 . S
C702 C700 1.378 . S
C702 C703 1.367 . S
C703 C702 1.367 . S
C703 C705 1.433 . S
C704 C700 1.350 . S
C704 C701 1.463 . S
C704 N708 1.427 . S
C705 H695 0.929 . S
C705 C703 1.433 . S
C705 N708 1.384 . S
C706 H697 0.929 . S
C706 C698 1.378 . S
C706 C701 1.350 . S
C707 H694 0.929 . S
C707 C699 1.433 . S
C707 N709 1.384 . S
N708 C704 1.427 . S
N708 C705 1.384 . S
N709 C701 1.427 . S
N709 C707 1.384 . S
H710 C716 0.930 . S
H711 C720 0.930 . S
H712 C725 0.929 . S
H713 C723 0.929 . S
H714 C718 0.929 . S
H715 C724 0.929 . S
C716 H710 0.930 . S
C716 C717 1.367 . S
C716 C724 1.378 . S
C717 C716 1.367 . S
C717 C725 1.433 . S
C718 H714 0.929 . S
C718 C720 1.378 . S
C718 C722 1.350 . S
C719 C722 1.463 . S
C719 C724 1.350 . S
C719 N727 1.427 . S
C720 H711 0.930 . S
C720 C718 1.378 . S
C720 C721 1.367 . S
C721 C720 1.367 . S
C721 C723 1.433 . S
C722 C718 1.350 . S
C722 C719 1.463 . S
C722 N726 1.427 . S
C723 H713 0.929 . S
C723 C721 1.433 . S
C723 N726 1.384 . S
C724 H715 0.929 . S
C724 C716 1.378 . S
C724 C719 1.350 . S
C725 H712 0.929 . S
C725 C717 1.433 . S
C725 N727 1.384 . S
N726 C722 1.427 . S
N726 C723 1.384 . S
N727 C719 1.427 . S
N727 C725 1.384 . S
H728 C734 0.930 . S
H729 C738 0.930 . S
H730 C743 0.929 . S
H731 C741 0.929 . S
H732 C736 0.929 . S
H733 C742 0.929 . S
C734 H728 0.930 . S
C734 C735 1.367 . S
C734 C742 1.378 . S
C735 C734 1.367 . S
C735 C743 1.433 . S
C736 H732 0.929 . S
C736 C738 1.378 . S
C736 C740 1.350 . S
C737 C740 1.463 . S
C737 C742 1.350 . S
C737 N745 1.427 . S
C738 H729 0.930 . S
C738 C736 1.378 . S
C738 C739 1.367 . S
C739 C738 1.367 . S
C739 C741 1.433 . S
C740 C736 1.350 . S
C740 C737 1.463 . S
C740 N744 1.427 . S
C741 H731 0.929 . S
C741 C739 1.433 . S
C741 N744 1.384 . S
C742 H733 0.929 . S
C742 C734 1.378 . S
C742 C737 1.350 . S
C743 H730 0.929 . S
C743 C735 1.433 . S
C743 N745 1.384 . S
N744 C740 1.427 . S
N744 C741 1.384 . S
N745 C737 1.427 . S
N745 C743 1.384 . S
H746 C752 0.930 . S
H747 C756 0.930 . S
H748 C761 0.929 . S
H749 C759 0.929 . S
H750 C754 0.929 . S
H751 C760 0.929 . S
C752 H746 0.930 . S
C752 C753 1.367 . S
C752 C760 1.378 . S
C753 C752 1.367 . S
C753 C761 1.433 . S
C754 H750 0.929 . S
C754 C756 1.378 . S
C754 C758 1.350 . S
C755 C758 1.463 . S
C755 C760 1.350 . S
C755 N763 1.427 . S
C756 H747 0.930 . S
C756 C754 1.378 . S
C756 C757 1.367 . S
C757 C756 1.367 . S
C757 C759 1.433 . S
C758 C754 1.350 . S
C758 C755 1.463 . S
C758 N762 1.427 . S
C759 H749 0.929 . S
C759 C757 1.433 . S
C759 N762 1.384 . S
C760 H751 0.929 . S
C760 C752 1.378 . S
C760 C755 1.350 . S
C761 H748 0.929 . S
C761 C753 1.433 . S
C761 N763 1.384 . S
N762 C758 1.427 . S
N762 C759 1.384 . S
N763 C755 1.427 . S
N763 C761 1.384 . S
H764 C770 0.930 . S
H765 C774 0.930 . S
H766 C779 0.929 . S
H767 C777 0.929 . S
H768 C772 0.929 . S
H769 C778 0.929 . S
C770 H764 0.930 . S
C770 C771 1.367 . S
C770 C778 1.378 . S
C771 C770 1.367 . S
C771 C779 1.433 . S
C772 H768 0.929 . S
C772 C774 1.378 . S
C772 C776 1.350 . S
C773 C776 1.463 . S
C773 C778 1.350 . S
C773 N781 1.427 . S
C774 H765 0.930 . S
C774 C772 1.378 . S
C774 C775 1.367 . S
C775 C774 1.367 . S
C775 C777 1.433 . S
C776 C772 1.350 . S
C776 C773 1.463 . S
C776 N780 1.427 . S
C777 H767 0.929 . S
C777 C775 1.433 . S
C777 N780 1.384 . S
C778 H769 0.929 . S
C778 C770 1.378 . S
C778 C773 1.350 . S
C779 H766 0.929 . S
C779 C771 1.433 . S
C779 N781 1.384 . S
N780 C776 1.427 . S
N780 C777 1.384 . S
N781 C773 1.427 . S
N781 C779 1.384 . S
H782 C788 0.930 . S
H783 C792 0.930 . S
H784 C797 0.929 . S
H785 C795 0.929 . S
H786 C790 0.929 . S
H787 C796 0.929 . S
C788 H782 0.930 . S
C788 C789 1.367 . S
C788 C796 1.378 . S
C789 C788 1.367 . S
C789 C797 1.433 . S
C790 H786 0.929 . S
C790 C792 1.378 . S
C790 C794 1.350 . S
C791 C794 1.463 . S
C791 C796 1.350 . S
C791 N799 1.427 . S
C792 H783 0.930 . S
C792 C790 1.378 . S
C792 C793 1.367 . S
C793 C792 1.367 . S
C793 C795 1.433 . S
C794 C790 1.350 . S
C794 C791 1.463 . S
C794 N798 1.427 . S
C795 H785 0.929 . S
C795 C793 1.433 . S
C795 N798 1.384 . S
C796 H787 0.929 . S
C796 C788 1.378 . S
C796 C791 1.350 . S
C797 H784 0.929 . S
C797 C789 1.433 . S
C797 N799 1.384 . S
N798 C794 1.427 . S
N798 C795 1.384 . S
N799 C791 1.427 . S
N799 C797 1.384 . S
C231 C0 1.746 . S
C235 C41 1.748 . S
C249 C54 1.746 . S
C253 C26 1.744 . S
C267 C69 1.740 . S
C271 C96 1.740 . S
C285 C111 1.740 . S
C289 C82 1.740 . S
C303 C124 1.740 . S
C307 C152 1.742 . S
C321 C166 1.743 . S
C325 C139 1.743 . S
C339 C181 1.741 . S
C343 C208 1.741 . S
C357 C210 1.743 . S
C361 C183 1.738 . S
C375 C56 1.604 . S
C379 C13 1.607 . S
C393 C15 1.610 . S
C397 C71 1.607 . S
C411 C28 1.606 . S
C415 C85 1.610 . S
C429 C98 1.605 . S
C433 C43 1.606 . S
C447 C113 1.608 . S
C451 C168 1.607 . S
C465 C126 1.610 . S
C469 C194 1.607 . S
C483 C141 1.604 . S
C487 C197 1.606 . S
C501 C155 1.605 . S
C505 C223 1.607 . S
C519 C140 1.592 . S
C523 C12 1.586 . S
C537 C154 1.588 . S
C541 C14 1.590 . S
C555 C29 1.591 . S
C559 C112 1.588 . S
C573 C42 1.591 . S
C577 C127 1.586 . S
C591 C57 1.588 . S
C595 C196 1.590 . S
C609 C70 1.592 . S
C613 C222 1.586 . S
C627 C84 1.588 . S
C631 C169 1.590 . S
C645 C195 1.589 . S
C649 C99 1.589 . S
C663 C1 1.699 . S
C667 C211 1.698 . S
C681 C180 1.696 . S
C685 C27 1.702 . S
C699 C40 1.696 . S
C703 C182 1.701 . S
C717 C209 1.698 . S
C721 C55 1.699 . S
C735 C138 1.696 . S
C739 C68 1.701 . S
C753 C83 1.701 . S
C757 C153 1.696 . S
C771 C167 1.695 . S
C775 C97 1.702 . S
C789 C125 1.699 . S
C793 C110 1.697 . S
