# Generated by pormake.
# Topology irl, (4)-cn, num edge types: 1
# Building blocks:
#     Node 0, Type 0, BuildingBlock: QUQFOY_clean_sbu_1, # of connection points: 4
#     Node 1, Type 0, BuildingBlock: QUQFOY_clean_sbu_1, # of connection points: 4
#     Node 2, Type 0, BuildingBlock: QUQFOY_clean_sbu_1, # of connection points: 4
#     Node 3, Type 0, BuildingBlock: QUQFOY_clean_sbu_1, # of connection points: 4
#     Node 4, Type 0, BuildingBlock: QUQFOY_clean_sbu_1, # of connection points: 4
#     Node 5, Type 0, BuildingBlock: QUQFOY_clean_sbu_1, # of connection points: 4
#     Node 6, Type 0, BuildingBlock: QUQFOY_clean_sbu_1, # of connection points: 4
#     Node 7, Type 0, BuildingBlock: QUQFOY_clean_sbu_1, # of connection points: 4
#     Edge 8, Type (0, 0), BuildingBlock: OJICUG_clean_linker_0, # of connection points: 2
#     Edge 9, Type (0, 0), BuildingBlock: OJICUG_clean_linker_0, # of connection points: 2
#     Edge 10, Type (0, 0), BuildingBlock: OJICUG_clean_linker_0, # of connection points: 2
#     Edge 11, Type (0, 0), BuildingBlock: OJICUG_clean_linker_0, # of connection points: 2
#     Edge 12, Type (0, 0), BuildingBlock: OJICUG_clean_linker_0, # of connection points: 2
#     Edge 13, Type (0, 0), BuildingBlock: OJICUG_clean_linker_0, # of connection points: 2
#     Edge 14, Type (0, 0), BuildingBlock: OJICUG_clean_linker_0, # of connection points: 2
#     Edge 15, Type (0, 0), BuildingBlock: OJICUG_clean_linker_0, # of connection points: 2
#     Edge 16, Type (0, 0), BuildingBlock: OJICUG_clean_linker_0, # of connection points: 2
#     Edge 17, Type (0, 0), BuildingBlock: OJICUG_clean_linker_0, # of connection points: 2
#     Edge 18, Type (0, 0), BuildingBlock: OJICUG_clean_linker_0, # of connection points: 2
#     Edge 19, Type (0, 0), BuildingBlock: OJICUG_clean_linker_0, # of connection points: 2
#     Edge 20, Type (0, 0), BuildingBlock: OJICUG_clean_linker_0, # of connection points: 2
#     Edge 21, Type (0, 0), BuildingBlock: OJICUG_clean_linker_0, # of connection points: 2
#     Edge 22, Type (0, 0), BuildingBlock: OJICUG_clean_linker_0, # of connection points: 2
#     Edge 23, Type (0, 0), BuildingBlock: OJICUG_clean_linker_0, # of connection points: 2
# Relax obj value: 0.048
# Max RMSD: 0.079
# Mean RMSD: 0.079
data_MOF--net-irl--node1-QUQFOY_clean_sbu_1--edge1-OJICUG_clean_linker_0
_symmetry_space_group_name_H-M    P1
_symmetry_Int_Tables_number       1
_symmetry_cell_setting            triclinic
loop_
_symmetry_equiv_pos_as_xyz
'x, y, z'
_cell_length_a     27.389848
_cell_length_b     31.369792
_cell_length_c     21.006741
_cell_angle_alpha  89.928971
_cell_angle_beta   90.000692
_cell_angle_gamma 89.999343
loop_
_atom_site_label
_atom_site_type_symbol
_atom_site_fract_x
_atom_site_fract_y
_atom_site_fract_z
_atom_type_partial_charge
O0 O 0.07967 0.21129 0.14498 0.0
Cd1 Cd 0.10841 0.18734 0.06176 0.0
Cd2 Cd 1.01739 0.20577 0.02493 0.0
O3 O 1.00942 0.23695 0.11109 0.0
O4 O 0.17965 0.18956 0.08224 0.0
O5 O 0.14626 0.22775 1.00518 0.0
C6 C 0.18393 0.21881 0.03945 0.0
C7 C 1.01725 0.23585 0.92375 0.0
C8 C 0.04045 0.23169 0.15549 0.0
C9 C 0.04391 0.11314 0.02975 0.0
O10 O 1.00968 0.1405 0.02739 0.0
O11 O 0.08801 0.12523 0.0376 0.0
O12 O 0.97672 0.22889 0.95359 0.0
O13 O 0.05759 0.22843 0.95357 0.0
O14 O 0.95858 0.83504 0.14626 0.0
Cd15 Cd 0.93003 0.85892 0.06278 0.0
Cd16 Cd 0.02112 0.84041 0.02631 0.0
O17 O 0.02883 0.80926 0.11264 0.0
O18 O 0.85869 0.85672 0.0828 0.0
O19 O 0.89239 0.81844 1.00623 0.0
C20 C 0.85458 0.82742 0.04015 0.0
C21 C 0.02143 0.81031 0.92526 0.0
C22 C 0.99775 0.81459 0.15695 0.0
C23 C 0.99466 0.93305 0.03049 0.0
O24 O 0.02888 0.90568 0.02847 0.0
O25 O 0.95053 0.92098 0.03824 0.0
O26 O 0.06191 0.81724 0.95521 0.0
O27 O 0.98105 0.81777 0.95493 0.0
O28 O 0.08169 0.83554 0.43164 0.0
Cd29 Cd 0.11033 0.85958 0.51485 0.0
Cd30 Cd 0.0196 0.84042 0.55188 0.0
O31 O 1.01184 0.8092 0.46573 0.0
O32 O 0.18156 0.8578 0.49426 0.0
O33 O 0.14851 0.81926 0.57117 0.0
C34 C 0.18608 0.82845 0.53686 0.0
C35 C 0.01972 0.81034 0.65306 0.0
C36 C 0.04271 0.81478 0.42123 0.0
C37 C 0.04518 0.93326 0.54713 0.0
O38 O 1.01124 0.90564 0.54946 0.0
O39 O 0.0894 0.92152 0.53924 0.0
O40 O 0.97913 0.81701 0.62319 0.0
O41 O 0.05999 0.81805 0.62326 0.0
O42 O 0.95685 0.21054 0.43052 0.0
Cd43 Cd 0.92853 0.18649 0.51401 0.0
Cd44 Cd 0.0194 0.2058 0.55049 0.0
O45 O 0.02675 0.23702 0.46415 0.0
O46 O 0.8572 0.18802 0.49389 0.0
O47 O 0.89039 0.22674 0.57033 0.0
C48 C 0.85272 0.21739 0.53635 0.0
C49 C 1.01923 0.2359 0.65154 0.0
C50 C 0.99575 0.23138 0.41983 0.0
C51 C 0.994 0.11294 0.54643 0.0
O52 O 0.02792 0.1406 0.54835 0.0
O53 O 0.94974 0.12463 0.53872 0.0
O54 O 0.05983 0.22936 0.62166 0.0
O55 O 0.97897 0.22805 0.62181 0.0
O56 O 0.58169 0.71038 0.14414 0.0
Cd57 Cd 0.61031 0.68633 0.06093 0.0
Cd58 Cd 0.51957 0.7055 0.02392 0.0
O59 O 0.51183 0.73674 0.11006 0.0
O60 O 0.68155 0.6881 0.08151 0.0
O61 O 0.64849 0.72664 1.0046 0.0
C62 C 0.68606 0.71745 0.03891 0.0
C63 C 0.5197 0.73557 0.92272 0.0
C64 C 0.54271 0.73115 0.15456 0.0
C65 C 0.54514 0.61266 0.02866 0.0
O66 O 0.5112 0.64028 0.02635 0.0
O67 O 0.58936 0.62439 0.03654 0.0
O68 O 0.47911 0.72891 0.9526 0.0
O69 O 0.55997 0.72785 0.95253 0.0
O70 O 0.45682 0.33535 0.14514 0.0
Cd71 Cd 0.42849 0.35942 0.06166 0.0
Cd72 Cd 0.51935 0.34012 0.02516 0.0
O73 O 0.52672 0.30888 0.11148 0.0
O74 O 0.35716 0.35786 0.0818 0.0
O75 O 0.39036 0.31917 1.00532 0.0
C76 C 0.35269 0.32851 0.03931 0.0
C77 C 0.5192 0.31004 0.92409 0.0
C78 C 0.49573 0.31452 0.15581 0.0
C79 C 0.49395 0.43298 0.02928 0.0
O80 O 0.52786 0.40532 0.02732 0.0
O81 O 0.44968 0.42129 0.03699 0.0
O82 O 0.55979 0.31658 0.95399 0.0
O83 O 0.47894 0.31787 0.95382 0.0
O84 O 0.57969 0.33461 0.43064 0.0
Cd85 Cd 0.60844 0.35856 0.51385 0.0
Cd86 Cd 0.51743 0.34014 0.55069 0.0
O87 O 0.50945 0.30896 0.46454 0.0
O88 O 0.67968 0.35632 0.49338 0.0
O89 O 0.64628 0.31815 0.57044 0.0
C90 C 0.68395 0.32708 0.53618 0.0
C91 C 0.51727 0.31007 0.65189 0.0
C92 C 0.54048 0.31421 0.42014 0.0
C93 C 0.54395 0.43276 0.54587 0.0
O94 O 0.50972 0.40541 0.54822 0.0
O95 O 0.58805 0.42068 0.53801 0.0
O96 O 0.47674 0.31704 0.62202 0.0
O97 O 0.55761 0.31748 0.62207 0.0
O98 O 0.45862 0.7109 0.42952 0.0
Cd99 Cd 0.43006 0.687 0.51298 0.0
Cd100 Cd 0.52116 0.7055 0.54946 0.0
O101 O 0.52887 0.73666 0.46315 0.0
O102 O 0.35873 0.6892 0.49295 0.0
O103 O 0.39241 0.72746 0.56956 0.0
C104 C 0.35461 0.71848 0.53562 0.0
C105 C 0.52145 0.73558 0.65052 0.0
C106 C 0.49779 0.73135 0.41883 0.0
C107 C 0.4947 0.61286 0.54523 0.0
O108 O 0.52892 0.64023 0.54727 0.0
O109 O 0.45057 0.62493 0.53748 0.0
O110 O 0.56194 0.72866 0.62058 0.0
O111 O 0.48108 0.72812 0.62084 0.0
C112 C 0.0562 0.99243 0.02582 0.0
C113 C 1.00705 0.97914 0.02652 0.0
H114 H 0.10646 0.04481 0.02636 0.0
C115 C 0.9703 1.01037 0.02566 0.0
H116 H 0.08556 0.96931 0.02644 0.0
C117 C 0.98238 0.05374 0.02526 0.0
C118 C 0.03153 0.06703 0.02613 0.0
H119 H 0.93212 1.00137 0.02603 0.0
H120 H 0.95302 0.07686 0.02546 0.0
C121 C 0.06828 0.03581 0.02583 0.0
C122 C 0.98304 0.99216 0.55178 0.0
C123 C 0.03233 0.97927 0.55081 0.0
H124 H 0.93222 0.04412 0.55109 0.0
C125 C 0.06874 1.01079 0.55103 0.0
H126 H 0.95392 0.9688 0.55165 0.0
C127 C 0.0562 0.05407 0.55105 0.0
C128 C 1.0069 0.06695 0.55044 0.0
H129 H 0.10701 1.0021 0.55042 0.0
H130 H 0.08531 0.07743 0.55035 0.0
C131 C 0.97049 0.03543 0.55139 0.0
C132 C 0.48299 0.55376 0.02403 0.0
C133 C 0.53228 0.56665 0.02497 0.0
H134 H 0.43217 0.50181 0.02472 0.0
C135 C 0.56869 0.53512 0.02471 0.0
H136 H 0.45387 0.57713 0.0242 0.0
C137 C 0.55614 0.49185 0.02466 0.0
C138 C 0.50685 0.47897 0.0253 0.0
H139 H 0.60696 0.54382 0.02529 0.0
H140 H 0.58525 0.46849 0.02532 0.0
C141 C 0.47044 0.5105 0.0244 0.0
C142 C 0.56833 0.5101 0.54981 0.0
C143 C 0.53157 0.47887 0.5495 0.0
H144 H 0.5856 0.5766 0.54924 0.0
C145 C 0.48242 0.49217 0.55037 0.0
H146 H 0.6065 0.50109 0.54928 0.0
C147 C 0.47034 0.53554 0.55 0.0
C148 C 0.50709 0.56676 0.54917 0.0
H149 H 0.45306 0.46904 0.55016 0.0
H150 H 0.43217 0.54454 0.54964 0.0
C151 C 0.55624 0.55347 0.54985 0.0
C152 C 0.98022 0.24545 0.24262 0.0
C153 C 0.02889 0.2435 0.222 0.0
H154 H 0.9315 0.24341 0.32223 0.0
C155 C 0.06651 0.24582 0.26755 0.0
H156 H 0.95046 0.2438 0.20874 0.0
C157 C 0.05569 0.24605 0.33262 0.0
C158 C 1.00706 0.24331 0.35325 0.0
H159 H 0.10444 0.2448 0.25301 0.0
H160 H 0.08549 0.24487 0.36649 0.0
C161 C 0.9694 0.24504 0.30768 0.0
C162 C 0.06879 0.80081 0.30914 0.0
C163 C 0.0312 0.80286 0.35476 0.0
H164 H 0.08767 0.80184 0.21019 0.0
C165 C 0.98252 0.80051 0.33422 0.0
H166 H 0.10673 0.80214 0.32363 0.0
C167 C 0.97164 0.80079 0.26917 0.0
C168 C 1.00924 0.80279 0.22354 0.0
H169 H 0.95278 0.80196 0.36814 0.0
H170 H 0.93371 0.80212 0.25468 0.0
C171 C 0.05792 0.80045 0.2441 0.0
C172 C 0.97625 0.79782 0.75638 0.0
C173 C 0.02016 0.79998 0.72192 0.0
H174 H 0.94219 0.79871 0.84804 0.0
C175 C 0.0646 0.79827 0.7554 0.0
H176 H 0.94138 0.79879 0.73208 0.0
C177 C 0.06509 0.79828 0.82199 0.0
C178 C 0.02115 0.79996 0.85644 0.0
H179 H 0.09913 0.79958 0.73032 0.0
H180 H 0.09994 0.79962 0.84628 0.0
C181 C 0.97673 0.79779 0.82297 0.0
C182 C 0.06208 0.24833 0.82148 0.0
C183 C 1.01763 0.24621 0.85488 0.0
H184 H 0.09752 0.24732 0.73066 0.0
C185 C 0.97373 0.24796 0.82036 0.0
H186 H 0.0966 0.24735 0.84662 0.0
C187 C 0.97428 0.248 0.75377 0.0
C188 C 1.01875 0.24624 0.72037 0.0
H189 H 0.93885 0.24667 0.84459 0.0
H190 H 0.93977 0.24675 0.72864 0.0
C191 C 0.06264 0.24833 0.75489 0.0
C192 C 0.48254 0.74544 0.24157 0.0
C193 C 0.53121 0.74308 0.22103 0.0
H194 H 0.43373 0.74386 0.32111 0.0
C195 C 0.56881 0.74512 0.26664 0.0
H196 H 0.4528 0.74401 0.20765 0.0
C197 C 0.55794 0.74548 0.33169 0.0
C198 C 0.50927 0.74316 0.35225 0.0
H199 H 0.60675 0.74377 0.25215 0.0
H200 H 0.5877 0.74408 0.3656 0.0
C201 C 0.47167 0.74517 0.30663 0.0
C202 C 0.48023 0.30043 0.33303 0.0
C203 C 0.52891 0.30239 0.35363 0.0
H204 H 0.43149 0.30247 0.25343 0.0
C205 C 0.56652 0.30008 0.30806 0.0
H206 H 0.45047 0.30208 0.36691 0.0
C207 C 0.55569 0.29985 0.243 0.0
C208 C 0.50706 0.30258 0.22238 0.0
H209 H 0.60445 0.30111 0.3226 0.0
H210 H 0.58548 0.30103 0.20912 0.0
C211 C 0.4694 0.30084 0.26796 0.0
C212 C 0.47427 0.29794 0.82185 0.0
C213 C 0.51873 0.2997 0.85526 0.0
H214 H 0.43886 0.29927 0.73102 0.0
C215 C 0.56262 0.2976 0.82076 0.0
H216 H 0.43976 0.29919 0.84698 0.0
C217 C 0.56208 0.2976 0.75417 0.0
C218 C 0.51764 0.29972 0.72075 0.0
H219 H 0.59751 0.29861 0.845 0.0
H220 H 0.5966 0.29858 0.72904 0.0
C221 C 0.47373 0.29797 0.75526 0.0
C222 C 0.47625 0.74807 0.8194 0.0
C223 C 0.52016 0.74591 0.85386 0.0
H224 H 0.4422 0.74717 0.72773 0.0
C225 C 0.5646 0.74762 0.82039 0.0
H226 H 0.44138 0.7471 0.84368 0.0
C227 C 0.5651 0.74761 0.7538 0.0
C228 C 0.52116 0.74593 0.71935 0.0
H229 H 0.59913 0.74632 0.84548 0.0
H230 H 0.59995 0.74627 0.72952 0.0
C231 C 0.47674 0.7481 0.75281 0.0
C232 C 0.28917 0.28669 0.97932 0.0
C233 C 0.30836 0.30189 0.03706 0.0
H234 H 0.2332 0.24893 0.93448 0.0
C235 C 0.28709 0.28876 0.09457 0.0
H236 H 0.30536 0.29615 0.93442 0.0
C237 C 0.24786 0.26044 0.09467 0.0
C238 C 0.22795 0.24578 0.03721 0.0
H239 H 0.30167 0.29951 0.13975 0.0
H240 H 0.2323 0.25077 0.13987 0.0
C241 C 0.24834 0.25958 0.97936 0.0
C242 C 0.7504 0.7583 0.09466 0.0
C243 C 0.73021 0.74429 0.037 0.0
H244 H 0.80431 0.797 0.14026 0.0
C245 C 0.75033 0.75873 0.97933 0.0
H246 H 0.73504 0.74814 0.13974 0.0
C247 C 0.79111 0.78591 0.97964 0.0
C248 C 0.81049 0.80053 0.03759 0.0
H249 H 0.73498 0.74859 0.93431 0.0
H250 H 0.80703 0.79593 0.93485 0.0
C251 C 0.78955 0.78669 0.09494 0.0
C252 C 0.25047 0.78766 0.48111 0.0
C253 C 0.23023 0.80162 0.53877 0.0
H254 H 0.30443 0.74901 0.43551 0.0
C255 C 0.25031 0.78711 0.59644 0.0
H256 H 0.23516 0.79787 0.43603 0.0
C257 C 0.29108 0.75994 0.59613 0.0
C258 C 0.31052 0.74537 0.53817 0.0
H259 H 0.23491 0.79721 0.64146 0.0
H260 H 0.30697 0.74988 0.64092 0.0
C261 C 0.28963 0.75927 0.48082 0.0
C262 C 0.74841 0.28637 0.59628 0.0
C263 C 0.72796 0.30009 0.53842 0.0
H264 H 0.80547 0.24987 0.64123 0.0
C265 C 0.74782 0.28536 0.48097 0.0
H266 H 0.73331 0.29708 0.64115 0.0
C267 C 0.78704 0.25705 0.48108 0.0
C268 C 0.80838 0.24399 0.5386 0.0
H269 H 0.73221 0.29498 0.43577 0.0
H270 H 0.80159 0.24624 0.43592 0.0
C271 C 0.78924 0.25926 0.59633 0.0
loop_
_geom_bond_atom_site_label_1
_geom_bond_atom_site_label_2
_geom_bond_distance
_geom_bond_site_symmetry_2
_ccdc_geom_bond_type
O0 Cd1 2.223 . S
O0 C8 1.315 . S
Cd1 O0 2.223 . S
Cd1 O4 2.297 . S
Cd1 O5 2.439 . S
Cd1 O11 2.240 . S
Cd2 O3 2.240 1_655 S
Cd2 O10 2.223 . S
Cd2 O12 2.297 1_554 S
Cd2 O13 2.439 1_654 S
O3 Cd2 2.240 1_455 S
O3 C8 1.279 . S
O4 Cd1 2.297 . S
O4 C6 1.247 . S
O5 Cd1 2.439 . S
O5 C6 1.208 . S
C6 O4 1.247 . S
C6 O5 1.208 . S
C7 O12 1.247 1_455 S
C7 O13 1.208 . S
C8 O0 1.315 . S
C8 O3 1.279 . S
C9 O10 1.315 1_455 S
C9 O11 1.279 . S
O10 Cd2 2.223 . S
O10 C9 1.315 1_655 S
O11 Cd1 2.240 . S
O11 C9 1.279 . S
O12 Cd2 2.297 1_556 S
O12 C7 1.247 1_655 S
O13 Cd2 2.439 1_456 S
O13 C7 1.208 . S
O14 Cd15 2.223 . S
O14 C22 1.315 . S
Cd15 O14 2.223 . S
Cd15 O18 2.297 . S
Cd15 O19 2.439 . S
Cd15 O25 2.240 . S
Cd16 O17 2.240 1_455 S
Cd16 O24 2.223 . S
Cd16 O26 2.297 1_554 S
Cd16 O27 2.439 1_454 S
O17 Cd16 2.240 1_655 S
O17 C22 1.279 . S
O18 Cd15 2.297 . S
O18 C20 1.247 . S
O19 Cd15 2.439 . S
O19 C20 1.208 . S
C20 O18 1.247 . S
C20 O19 1.208 . S
C21 O26 1.247 1_655 S
C21 O27 1.208 . S
C22 O14 1.315 . S
C22 O17 1.279 . S
C23 O24 1.315 1_655 S
C23 O25 1.279 . S
O24 Cd16 2.223 . S
O24 C23 1.315 1_455 S
O25 Cd15 2.240 . S
O25 C23 1.279 . S
O26 Cd16 2.297 1_556 S
O26 C21 1.247 1_455 S
O27 Cd16 2.439 1_656 S
O27 C21 1.208 . S
O28 Cd29 2.223 . S
O28 C36 1.315 . S
Cd29 O28 2.223 . S
Cd29 O32 2.297 . S
Cd29 O33 2.439 . S
Cd29 O39 2.240 . S
Cd30 O31 2.240 1_655 S
Cd30 O38 2.223 . S
Cd30 O40 2.297 . S
Cd30 O41 2.439 1_655 S
O31 Cd30 2.240 1_455 S
O31 C36 1.279 . S
O32 Cd29 2.297 . S
O32 C34 1.247 . S
O33 Cd29 2.439 . S
O33 C34 1.208 . S
C34 O32 1.247 . S
C34 O33 1.208 . S
C35 O40 1.247 1_455 S
C35 O41 1.208 . S
C36 O28 1.315 . S
C36 O31 1.279 . S
C37 O38 1.315 1_455 S
C37 O39 1.279 . S
O38 Cd30 2.223 . S
O38 C37 1.315 1_655 S
O39 Cd29 2.240 . S
O39 C37 1.279 . S
O40 Cd30 2.297 . S
O40 C35 1.247 1_655 S
O41 Cd30 2.439 1_455 S
O41 C35 1.208 . S
O42 Cd43 2.223 . S
O42 C50 1.315 . S
Cd43 O42 2.223 . S
Cd43 O46 2.297 . S
Cd43 O47 2.439 . S
Cd43 O53 2.240 . S
Cd44 O45 2.240 1_455 S
Cd44 O52 2.223 . S
Cd44 O54 2.297 . S
Cd44 O55 2.439 1_455 S
O45 Cd44 2.240 1_655 S
O45 C50 1.279 . S
O46 Cd43 2.297 . S
O46 C48 1.247 . S
O47 Cd43 2.439 . S
O47 C48 1.208 . S
C48 O46 1.247 . S
C48 O47 1.208 . S
C49 O54 1.247 1_655 S
C49 O55 1.208 . S
C50 O42 1.315 . S
C50 O45 1.279 . S
C51 O52 1.315 1_655 S
C51 O53 1.279 . S
O52 Cd44 2.223 . S
O52 C51 1.315 1_455 S
O53 Cd43 2.240 . S
O53 C51 1.279 . S
O54 Cd44 2.297 . S
O54 C49 1.247 1_455 S
O55 Cd44 2.439 1_655 S
O55 C49 1.208 . S
O56 Cd57 2.223 . S
O56 C64 1.315 . S
Cd57 O56 2.223 . S
Cd57 O60 2.297 . S
Cd57 O61 2.439 . S
Cd57 O67 2.240 . S
Cd58 O59 2.240 . S
Cd58 O66 2.223 . S
Cd58 O68 2.297 1_554 S
Cd58 O69 2.439 1_554 S
O59 Cd58 2.240 . S
O59 C64 1.279 . S
O60 Cd57 2.297 . S
O60 C62 1.247 . S
O61 Cd57 2.439 . S
O61 C62 1.208 . S
C62 O60 1.247 . S
C62 O61 1.208 . S
C63 O68 1.247 . S
C63 O69 1.208 . S
C64 O56 1.315 . S
C64 O59 1.279 . S
C65 O66 1.315 . S
C65 O67 1.279 . S
O66 Cd58 2.223 . S
O66 C65 1.315 . S
O67 Cd57 2.240 . S
O67 C65 1.279 . S
O68 Cd58 2.297 1_556 S
O68 C63 1.247 . S
O69 Cd58 2.439 1_556 S
O69 C63 1.208 . S
O70 Cd71 2.223 . S
O70 C78 1.315 . S
Cd71 O70 2.223 . S
Cd71 O74 2.297 . S
Cd71 O75 2.439 . S
Cd71 O81 2.240 . S
Cd72 O73 2.240 . S
Cd72 O80 2.223 . S
Cd72 O82 2.297 1_554 S
Cd72 O83 2.439 1_554 S
O73 Cd72 2.240 . S
O73 C78 1.279 . S
O74 Cd71 2.297 . S
O74 C76 1.247 . S
O75 Cd71 2.439 . S
O75 C76 1.208 . S
C76 O74 1.247 . S
C76 O75 1.208 . S
C77 O82 1.247 . S
C77 O83 1.208 . S
C78 O70 1.315 . S
C78 O73 1.279 . S
C79 O80 1.315 . S
C79 O81 1.279 . S
O80 Cd72 2.223 . S
O80 C79 1.315 . S
O81 Cd71 2.240 . S
O81 C79 1.279 . S
O82 Cd72 2.297 1_556 S
O82 C77 1.247 . S
O83 Cd72 2.439 1_556 S
O83 C77 1.208 . S
O84 Cd85 2.223 . S
O84 C92 1.315 . S
Cd85 O84 2.223 . S
Cd85 O88 2.297 . S
Cd85 O89 2.439 . S
Cd85 O95 2.240 . S
Cd86 O87 2.240 . S
Cd86 O94 2.223 . S
Cd86 O96 2.297 . S
Cd86 O97 2.439 . S
O87 Cd86 2.240 . S
O87 C92 1.279 . S
O88 Cd85 2.297 . S
O88 C90 1.247 . S
O89 Cd85 2.439 . S
O89 C90 1.208 . S
C90 O88 1.247 . S
C90 O89 1.208 . S
C91 O96 1.247 . S
C91 O97 1.208 . S
C92 O84 1.315 . S
C92 O87 1.279 . S
C93 O94 1.315 . S
C93 O95 1.279 . S
O94 Cd86 2.223 . S
O94 C93 1.315 . S
O95 Cd85 2.240 . S
O95 C93 1.279 . S
O96 Cd86 2.297 . S
O96 C91 1.247 . S
O97 Cd86 2.439 . S
O97 C91 1.208 . S
O98 Cd99 2.223 . S
O98 C106 1.315 . S
Cd99 O98 2.223 . S
Cd99 O102 2.297 . S
Cd99 O103 2.439 . S
Cd99 O109 2.240 . S
Cd100 O101 2.240 . S
Cd100 O108 2.223 . S
Cd100 O110 2.297 . S
Cd100 O111 2.439 . S
O101 Cd100 2.240 . S
O101 C106 1.279 . S
O102 Cd99 2.297 . S
O102 C104 1.247 . S
O103 Cd99 2.439 . S
O103 C104 1.208 . S
C104 O102 1.247 . S
C104 O103 1.208 . S
C105 O110 1.247 . S
C105 O111 1.208 . S
C106 O98 1.315 . S
C106 O101 1.279 . S
C107 O108 1.315 . S
C107 O109 1.279 . S
O108 Cd100 2.223 . S
O108 C107 1.315 . S
O109 Cd99 2.240 . S
O109 C107 1.279 . S
O110 Cd100 2.297 . S
O110 C105 1.247 . S
O111 Cd100 2.439 . S
O111 C105 1.208 . S
C112 C113 1.387 . S
C112 H116 0.950 . S
C112 C121 1.390 1_665 S
C113 C112 1.387 . S
C113 C115 1.383 1_554 S
H114 C121 0.950 . S
C115 C113 1.383 1_556 S
C115 C117 1.390 1_665 S
C115 H119 0.954 . S
H116 C112 0.950 . S
C117 C115 1.390 1_445 S
C117 C118 1.383 1_556 S
C117 H120 0.954 . S
C118 C117 1.383 1_554 S
C118 C121 1.387 . S
H119 C115 0.954 . S
H120 C117 0.954 . S
C121 C112 1.390 1_445 S
C121 H114 0.950 . S
C121 C118 1.387 . S
C122 C123 1.387 . S
C122 H126 0.950 . S
C122 C131 1.390 1_465 S
C123 C122 1.387 . S
C123 C125 1.387 . S
H124 C131 0.950 . S
C125 C123 1.387 . S
C125 C127 1.390 1_465 S
C125 H129 0.950 . S
H126 C122 0.950 . S
C127 C125 1.390 1_645 S
C127 C128 1.387 . S
C127 H130 0.950 . S
C128 C127 1.387 . S
C128 C131 1.387 . S
H129 C125 0.950 . S
H130 C127 0.950 . S
C131 C122 1.390 1_645 S
C131 H124 0.950 . S
C131 C128 1.387 . S
C132 C133 1.383 1_556 S
C132 H136 0.954 . S
C132 C141 1.390 . S
C133 C132 1.383 1_554 S
C133 C135 1.387 . S
H134 C141 0.954 . S
C135 C133 1.387 . S
C135 C137 1.390 . S
C135 H139 0.950 . S
H136 C132 0.954 . S
C137 C135 1.390 . S
C137 C138 1.387 . S
C137 H140 0.950 . S
C138 C137 1.387 . S
C138 C141 1.383 1_554 S
H139 C135 0.950 . S
H140 C137 0.950 . S
C141 C132 1.390 . S
C141 H134 0.954 . S
C141 C138 1.383 1_556 S
C142 C143 1.387 . S
C142 H146 0.950 . S
C142 C151 1.390 . S
C143 C142 1.387 . S
C143 C145 1.387 . S
H144 C151 0.950 . S
C145 C143 1.387 . S
C145 C147 1.390 . S
C145 H149 0.950 . S
H146 C142 0.950 . S
C147 C145 1.390 . S
C147 C148 1.387 . S
C147 H150 0.950 . S
C148 C147 1.387 . S
C148 C151 1.387 . S
H149 C145 0.950 . S
H150 C147 0.950 . S
C151 C142 1.390 . S
C151 H144 0.950 . S
C151 C148 1.387 . S
C152 C153 1.387 . S
C152 H156 0.950 . S
C152 C161 1.390 1_455 S
C153 C152 1.387 . S
C153 C155 1.387 . S
H154 C161 0.950 . S
C155 C153 1.387 . S
C155 C157 1.390 1_455 S
C155 H159 0.950 . S
H156 C152 0.950 . S
C157 C155 1.390 1_655 S
C157 C158 1.387 . S
C157 H160 0.950 . S
C158 C157 1.387 . S
C158 C161 1.387 . S
H159 C155 0.950 . S
H160 C157 0.950 . S
C161 C152 1.390 1_655 S
C161 H154 0.950 . S
C161 C158 1.387 . S
C162 C163 1.387 . S
C162 H166 0.950 . S
C162 C171 1.390 1_455 S
C163 C162 1.387 . S
C163 C165 1.387 . S
H164 C171 0.950 . S
C165 C163 1.387 . S
C165 C167 1.390 1_455 S
C165 H169 0.950 . S
H166 C162 0.950 . S
C167 C165 1.390 1_655 S
C167 C168 1.387 . S
C167 H170 0.950 . S
C168 C167 1.387 . S
C168 C171 1.387 . S
H169 C165 0.950 . S
H170 C167 0.950 . S
C171 C162 1.390 1_655 S
C171 H164 0.950 . S
C171 C168 1.387 . S
C172 C173 1.388 . S
C172 H176 0.950 . S
C172 C181 1.390 1_455 S
C173 C172 1.388 . S
C173 C175 1.388 . S
H174 C181 0.950 . S
C175 C173 1.388 . S
C175 C177 1.390 1_455 S
C175 H179 0.950 . S
H176 C172 0.950 . S
C177 C175 1.390 1_655 S
C177 C178 1.388 . S
C177 H180 0.950 . S
C178 C177 1.388 . S
C178 C181 1.388 . S
H179 C175 0.950 . S
H180 C177 0.950 . S
C181 C172 1.390 1_655 S
C181 H174 0.950 . S
C181 C178 1.388 . S
C182 C183 1.388 . S
C182 H186 0.950 . S
C182 C191 1.390 1_455 S
C183 C182 1.388 . S
C183 C185 1.388 . S
H184 C191 0.950 . S
C185 C183 1.388 . S
C185 C187 1.390 1_455 S
C185 H189 0.950 . S
H186 C182 0.950 . S
C187 C185 1.390 1_655 S
C187 C188 1.388 . S
C187 H190 0.950 . S
C188 C187 1.388 . S
C188 C191 1.388 . S
H189 C185 0.950 . S
H190 C187 0.950 . S
C191 C182 1.390 1_655 S
C191 H184 0.950 . S
C191 C188 1.388 . S
C192 C193 1.387 . S
C192 H196 0.950 . S
C192 C201 1.390 . S
C193 C192 1.387 . S
C193 C195 1.387 . S
H194 C201 0.950 . S
C195 C193 1.387 . S
C195 C197 1.390 . S
C195 H199 0.950 . S
H196 C192 0.950 . S
C197 C195 1.390 . S
C197 C198 1.387 . S
C197 H200 0.950 . S
C198 C197 1.387 . S
C198 C201 1.387 . S
H199 C195 0.950 . S
H200 C197 0.950 . S
C201 C192 1.390 . S
C201 H194 0.950 . S
C201 C198 1.387 . S
C202 C203 1.387 . S
C202 H206 0.950 . S
C202 C211 1.390 . S
C203 C202 1.387 . S
C203 C205 1.387 . S
H204 C211 0.950 . S
C205 C203 1.387 . S
C205 C207 1.390 . S
C205 H209 0.950 . S
H206 C202 0.950 . S
C207 C205 1.390 . S
C207 C208 1.387 . S
C207 H210 0.950 . S
C208 C207 1.387 . S
C208 C211 1.387 . S
H209 C205 0.950 . S
H210 C207 0.950 . S
C211 C202 1.390 . S
C211 H204 0.950 . S
C211 C208 1.387 . S
C212 C213 1.387 . S
C212 H216 0.950 . S
C212 C221 1.390 . S
C213 C212 1.387 . S
C213 C215 1.387 . S
H214 C221 0.950 . S
C215 C213 1.387 . S
C215 C217 1.390 . S
C215 H219 0.950 . S
H216 C212 0.950 . S
C217 C215 1.390 . S
C217 C218 1.387 . S
C217 H220 0.950 . S
C218 C217 1.387 . S
C218 C221 1.387 . S
H219 C215 0.950 . S
H220 C217 0.950 . S
C221 C212 1.390 . S
C221 H214 0.950 . S
C221 C218 1.387 . S
C222 C223 1.387 . S
C222 H226 0.950 . S
C222 C231 1.390 . S
C223 C222 1.387 . S
C223 C225 1.387 . S
H224 C231 0.950 . S
C225 C223 1.387 . S
C225 C227 1.390 . S
C225 H229 0.950 . S
H226 C222 0.950 . S
C227 C225 1.390 . S
C227 C228 1.387 . S
C227 H230 0.950 . S
C228 C227 1.387 . S
C228 C231 1.387 . S
H229 C225 0.950 . S
H230 C227 0.950 . S
C231 C222 1.390 . S
C231 H224 0.950 . S
C231 C228 1.387 . S
C232 C233 1.387 . S
C232 H236 0.950 1_554 S
C232 C241 1.390 . S
C233 C232 1.387 . S
C233 C235 1.387 . S
H234 C241 0.950 1_556 S
C235 C233 1.387 . S
C235 C237 1.390 . S
C235 H239 0.950 . S
H236 C232 0.950 1_556 S
C237 C235 1.390 . S
C237 C238 1.387 . S
C237 H240 0.950 . S
C238 C237 1.387 . S
C238 C241 1.387 . S
H239 C235 0.950 . S
H240 C237 0.950 . S
C241 C232 1.390 . S
C241 H234 0.950 1_554 S
C241 C238 1.387 . S
C242 C243 1.387 . S
C242 H246 0.950 . S
C242 C251 1.390 . S
C243 C242 1.387 . S
C243 C245 1.387 . S
H244 C251 0.950 . S
C245 C243 1.387 . S
C245 C247 1.390 . S
C245 H249 0.950 1_554 S
H246 C242 0.950 . S
C247 C245 1.390 . S
C247 C248 1.387 . S
C247 H250 0.950 1_554 S
C248 C247 1.387 . S
C248 C251 1.387 . S
H249 C245 0.950 1_556 S
H250 C247 0.950 1_556 S
C251 C242 1.390 . S
C251 H244 0.950 . S
C251 C248 1.387 . S
C252 C253 1.387 . S
C252 H256 0.950 . S
C252 C261 1.390 . S
C253 C252 1.387 . S
C253 C255 1.387 . S
H254 C261 0.950 . S
C255 C253 1.387 . S
C255 C257 1.390 . S
C255 H259 0.950 . S
H256 C252 0.950 . S
C257 C255 1.390 . S
C257 C258 1.387 . S
C257 H260 0.950 . S
C258 C257 1.387 . S
C258 C261 1.387 . S
H259 C255 0.950 . S
H260 C257 0.950 . S
C261 C252 1.390 . S
C261 H254 0.950 . S
C261 C258 1.387 . S
C262 C263 1.387 . S
C262 H266 0.950 . S
C262 C271 1.390 . S
C263 C262 1.387 . S
C263 C265 1.387 . S
H264 C271 0.950 . S
C265 C263 1.387 . S
C265 C267 1.390 . S
C265 H269 0.950 . S
H266 C262 0.950 . S
C267 C265 1.390 . S
C267 C268 1.387 . S
C267 H270 0.950 . S
C268 C267 1.387 . S
C268 C271 1.387 . S
H269 C265 0.950 . S
H270 C267 0.950 . S
C271 C262 1.390 . S
C271 H264 0.950 . S
C271 C268 1.387 . S
C113 C23 1.488 . S
C118 C9 1.488 . S
C123 C37 1.486 . S
C128 C51 1.486 . S
C133 C65 1.486 . S
C138 C79 1.486 . S
C143 C93 1.488 . S
C148 C107 1.488 . S
C153 C8 1.344 . S
C158 C50 1.344 . S
C163 C36 1.342 . S
C168 C22 1.342 . S
C173 C35 1.518 . S
C178 C21 1.518 . S
C183 C7 1.518 . S
C188 C49 1.518 . S
C193 C64 1.344 . S
C198 C106 1.344 . S
C203 C92 1.344 . S
C208 C78 1.344 . S
C213 C77 1.519 . S
C218 C91 1.519 . S
C223 C63 1.518 . S
C228 C105 1.518 . S
C233 C76 1.518 . S
C238 C6 1.518 . S
C243 C62 1.521 . S
C248 C20 1.521 . S
C253 C34 1.521 . S
C258 C104 1.521 . S
C263 C90 1.518 . S
C268 C48 1.518 . S
