# Generated by pormake.
# Topology tzs, (4)-cn, num edge types: 1
# Building blocks:
#     Node 0, Type 0, BuildingBlock: QUQFOY_clean_sbu_1, # of connection points: 4
#     Node 1, Type 0, BuildingBlock: QUQFOY_clean_sbu_1, # of connection points: 4
#     Node 2, Type 0, BuildingBlock: QUQFOY_clean_sbu_1, # of connection points: 4
#     Node 3, Type 0, BuildingBlock: QUQFOY_clean_sbu_1, # of connection points: 4
#     Node 4, Type 0, BuildingBlock: QUQFOY_clean_sbu_1, # of connection points: 4
#     Node 5, Type 0, BuildingBlock: QUQFOY_clean_sbu_1, # of connection points: 4
#     Node 6, Type 0, BuildingBlock: QUQFOY_clean_sbu_1, # of connection points: 4
#     Node 7, Type 0, BuildingBlock: QUQFOY_clean_sbu_1, # of connection points: 4
#     Node 8, Type 0, BuildingBlock: QUQFOY_clean_sbu_1, # of connection points: 4
#     Node 9, Type 0, BuildingBlock: QUQFOY_clean_sbu_1, # of connection points: 4
#     Node 10, Type 0, BuildingBlock: QUQFOY_clean_sbu_1, # of connection points: 4
#     Node 11, Type 0, BuildingBlock: QUQFOY_clean_sbu_1, # of connection points: 4
#     Node 12, Type 0, BuildingBlock: QUQFOY_clean_sbu_1, # of connection points: 4
#     Node 13, Type 0, BuildingBlock: QUQFOY_clean_sbu_1, # of connection points: 4
#     Node 14, Type 0, BuildingBlock: QUQFOY_clean_sbu_1, # of connection points: 4
#     Node 15, Type 0, BuildingBlock: QUQFOY_clean_sbu_1, # of connection points: 4
#     Edge 16, Type (0, 0), BuildingBlock: ZUJKAS_clean_linker_0, # of connection points: 2
#     Edge 17, Type (0, 0), BuildingBlock: ZUJKAS_clean_linker_0, # of connection points: 2
#     Edge 18, Type (0, 0), BuildingBlock: ZUJKAS_clean_linker_0, # of connection points: 2
#     Edge 19, Type (0, 0), BuildingBlock: ZUJKAS_clean_linker_0, # of connection points: 2
#     Edge 20, Type (0, 0), BuildingBlock: ZUJKAS_clean_linker_0, # of connection points: 2
#     Edge 21, Type (0, 0), BuildingBlock: ZUJKAS_clean_linker_0, # of connection points: 2
#     Edge 22, Type (0, 0), BuildingBlock: ZUJKAS_clean_linker_0, # of connection points: 2
#     Edge 23, Type (0, 0), BuildingBlock: ZUJKAS_clean_linker_0, # of connection points: 2
#     Edge 24, Type (0, 0), BuildingBlock: ZUJKAS_clean_linker_0, # of connection points: 2
#     Edge 25, Type (0, 0), BuildingBlock: ZUJKAS_clean_linker_0, # of connection points: 2
#     Edge 26, Type (0, 0), BuildingBlock: ZUJKAS_clean_linker_0, # of connection points: 2
#     Edge 27, Type (0, 0), BuildingBlock: ZUJKAS_clean_linker_0, # of connection points: 2
#     Edge 28, Type (0, 0), BuildingBlock: ZUJKAS_clean_linker_0, # of connection points: 2
#     Edge 29, Type (0, 0), BuildingBlock: ZUJKAS_clean_linker_0, # of connection points: 2
#     Edge 30, Type (0, 0), BuildingBlock: ZUJKAS_clean_linker_0, # of connection points: 2
#     Edge 31, Type (0, 0), BuildingBlock: ZUJKAS_clean_linker_0, # of connection points: 2
#     Edge 32, Type (0, 0), BuildingBlock: ZUJKAS_clean_linker_0, # of connection points: 2
#     Edge 33, Type (0, 0), BuildingBlock: ZUJKAS_clean_linker_0, # of connection points: 2
#     Edge 34, Type (0, 0), BuildingBlock: ZUJKAS_clean_linker_0, # of connection points: 2
#     Edge 35, Type (0, 0), BuildingBlock: ZUJKAS_clean_linker_0, # of connection points: 2
#     Edge 36, Type (0, 0), BuildingBlock: ZUJKAS_clean_linker_0, # of connection points: 2
#     Edge 37, Type (0, 0), BuildingBlock: ZUJKAS_clean_linker_0, # of connection points: 2
#     Edge 38, Type (0, 0), BuildingBlock: ZUJKAS_clean_linker_0, # of connection points: 2
#     Edge 39, Type (0, 0), BuildingBlock: ZUJKAS_clean_linker_0, # of connection points: 2
#     Edge 40, Type (0, 0), BuildingBlock: ZUJKAS_clean_linker_0, # of connection points: 2
#     Edge 41, Type (0, 0), BuildingBlock: ZUJKAS_clean_linker_0, # of connection points: 2
#     Edge 42, Type (0, 0), BuildingBlock: ZUJKAS_clean_linker_0, # of connection points: 2
#     Edge 43, Type (0, 0), BuildingBlock: ZUJKAS_clean_linker_0, # of connection points: 2
#     Edge 44, Type (0, 0), BuildingBlock: ZUJKAS_clean_linker_0, # of connection points: 2
#     Edge 45, Type (0, 0), BuildingBlock: ZUJKAS_clean_linker_0, # of connection points: 2
#     Edge 46, Type (0, 0), BuildingBlock: ZUJKAS_clean_linker_0, # of connection points: 2
#     Edge 47, Type (0, 0), BuildingBlock: ZUJKAS_clean_linker_0, # of connection points: 2
# Relax obj value: 0.149
# Max RMSD: 0.163
# Mean RMSD: 0.163
data_MOF--net-tzs--node1-QUQFOY_clean_sbu_1--edge1-ZUJKAS_clean_linker_0
_symmetry_space_group_name_H-M    P1
_symmetry_Int_Tables_number       1
_symmetry_cell_setting            triclinic
loop_
_symmetry_equiv_pos_as_xyz
'x, y, z'
_cell_length_a     62.453434
_cell_length_b     62.438841
_cell_length_c     57.823597
_cell_angle_alpha  89.996221
_cell_angle_beta   90.012525
_cell_angle_gamma 89.998014
loop_
_atom_site_label
_atom_site_type_symbol
_atom_site_fract_x
_atom_site_fract_y
_atom_site_fract_z
_atom_type_partial_charge
O0 O 0.16385 0.38193 0.20698 0.0
Cd1 Cd 0.1503 0.35234 0.20111 0.0
Cd2 Cd 0.13344 0.37519 0.16333 0.0
O3 O 0.15077 0.40002 0.17743 0.0
O4 O 0.16208 0.33624 0.22783 0.0
O5 O 0.16863 0.32709 0.19167 0.0
C6 C 0.17128 0.32352 0.21348 0.0
C7 C 0.13768 0.3686 0.12387 0.0
C8 C 0.16213 0.39926 0.19564 0.0
C9 C 0.10201 0.35624 0.19663 0.0
O10 O 0.10452 0.36775 0.1787 0.0
O11 O 0.11807 0.34845 0.20713 0.0
O12 O 0.12645 0.38449 0.13135 0.0
O13 O 0.1465 0.35614 0.13897 0.0
O14 O 0.60801 0.16312 0.20884 0.0
Cd15 Cd 0.63819 0.15051 0.2053 0.0
Cd16 Cd 0.61985 0.13312 0.16581 0.0
O17 O 0.59337 0.14995 0.17717 0.0
O18 O 0.65377 0.16458 0.23103 0.0
O19 O 0.66307 0.1685 0.19442 0.0
C20 C 0.66646 0.17284 0.21595 0.0
C21 C 0.62865 0.1359 0.12664 0.0
C22 C 0.59196 0.16102 0.19556 0.0
C23 C 0.6363 0.10245 0.20191 0.0
O24 O 0.62715 0.10462 0.1824 0.0
O25 O 0.64214 0.11877 0.21335 0.0
O26 O 0.61275 0.12445 0.13363 0.0
O27 O 0.63976 0.14596 0.14205 0.0
O28 O 0.83058 0.61132 0.21072 0.0
Cd29 Cd 0.84484 0.64033 0.20361 0.0
Cd30 Cd 0.85945 0.61736 0.1663 0.0
O31 O 0.84085 0.59323 0.17993 0.0
O32 O 0.83268 0.65855 0.22845 0.0
O33 O 0.8274 0.66508 0.19136 0.0
C34 C 0.82408 0.67025 0.21268 0.0
C35 C 0.85597 0.62534 0.12706 0.0
C36 C 0.83067 0.59416 0.19892 0.0
C37 C 0.89243 0.63397 0.19947 0.0
O38 O 0.88884 0.6225 0.18174 0.0
O39 O 0.8771 0.64316 0.20993 0.0
O40 O 0.86611 0.60857 0.13408 0.0
O41 O 0.84758 0.63774 0.14249 0.0
O42 O 0.38045 0.83059 0.20707 0.0
Cd43 Cd 0.35143 0.84445 0.19913 0.0
Cd44 Cd 0.37563 0.8592 0.16231 0.0
O45 O 0.39947 0.84083 0.17692 0.0
O46 O 0.33367 0.83338 0.22493 0.0
O47 O 0.32651 0.82629 0.18837 0.0
C48 C 0.3217 0.82402 0.20994 0.0
C49 C 0.36817 0.85514 0.12302 0.0
C50 C 0.39798 0.83076 0.19595 0.0
C51 C 0.3576 0.8922 0.19444 0.0
O52 O 0.36985 0.88869 0.1773 0.0
O53 O 0.34819 0.87681 0.20453 0.0
O54 O 0.38483 0.86543 0.13012 0.0
O55 O 0.35561 0.84691 0.13841 0.0
O56 O 0.16073 0.61403 0.29064 0.0
Cd57 Cd 0.14664 0.64272 0.29943 0.0
Cd58 Cd 0.13493 0.61929 0.3379 0.0
O59 O 0.15502 0.59685 0.32334 0.0
O60 O 0.15667 0.66164 0.27409 0.0
O61 O 0.16471 0.66733 0.31078 0.0
C62 C 0.16638 0.67302 0.28938 0.0
C63 C 0.13888 0.62634 0.37728 0.0
C64 C 0.16307 0.59751 0.30319 0.0
C65 C 0.09966 0.63481 0.30706 0.0
O66 O 0.10463 0.62252 0.32376 0.0
O67 O 0.11401 0.6452 0.29631 0.0
O68 O 0.13071 0.60864 0.36997 0.0
O69 O 0.14489 0.64031 0.36213 0.0
O70 O 0.37552 0.15752 0.29255 0.0
Cd71 Cd 0.34725 0.14356 0.30301 0.0
Cd72 Cd 0.37333 0.13076 0.33862 0.0
O73 O 0.39576 0.14996 0.32269 0.0
O74 O 0.32747 0.15405 0.27868 0.0
O75 O 0.32332 0.16195 0.31561 0.0
C76 C 0.31686 0.16387 0.2945 0.0
C77 C 0.36689 0.13498 0.3781 0.0
C78 C 0.39331 0.15882 0.30308 0.0
C79 C 0.35508 0.09633 0.3084 0.0
O80 O 0.36835 0.10081 0.32434 0.0
O81 O 0.3442 0.11104 0.29882 0.0
O82 O 0.38383 0.12546 0.37057 0.0
O83 O 0.3535 0.14242 0.36305 0.0
O84 O 0.83883 0.3782 0.29284 0.0
Cd85 Cd 0.85051 0.34838 0.30129 0.0
Cd86 Cd 0.86398 0.37024 0.33992 0.0
O87 O 0.84632 0.39473 0.32553 0.0
O88 O 0.83834 0.33032 0.27634 0.0
O89 O 0.83051 0.3256 0.31325 0.0
C90 C 0.8279 0.31998 0.29194 0.0
C91 C 0.85846 0.36331 0.37914 0.0
C92 C 0.83805 0.39481 0.30547 0.0
C93 C 0.89791 0.35183 0.30894 0.0
O94 O 0.89392 0.36403 0.32601 0.0
O95 O 0.88277 0.34308 0.29775 0.0
O96 O 0.86934 0.37964 0.37223 0.0
O97 O 0.85077 0.35056 0.36362 0.0
O98 O 0.61281 0.83412 0.29325 0.0
Cd99 Cd 0.64245 0.84691 0.3001 0.0
Cd100 Cd 0.62144 0.86082 0.33953 0.0
O101 O 0.59647 0.84343 0.32552 0.0
O102 O 0.65965 0.8354 0.27408 0.0
O103 O 0.66691 0.82816 0.31064 0.0
C104 C 0.67149 0.82575 0.28901 0.0
C105 C 0.6291 0.85537 0.37863 0.0
C106 C 0.59624 0.83418 0.30594 0.0
C107 C 0.6385 0.89455 0.30737 0.0
O108 O 0.62776 0.89075 0.32559 0.0
O109 O 0.64617 0.87925 0.29552 0.0
O110 O 0.61262 0.8662 0.37205 0.0
O111 O 0.64152 0.84758 0.36285 0.0
O112 O 0.88206 0.65722 0.79727 0.0
Cd113 Cd 0.8515 0.64581 0.8028 0.0
Cd114 Cd 0.87127 0.62971 0.84235 0.0
O115 O 0.89725 0.64622 0.82959 0.0
O116 O 0.83548 0.65921 0.77692 0.0
O117 O 0.82799 0.66557 0.81361 0.0
C118 C 0.82395 0.66899 0.79202 0.0
C119 C 0.86395 0.63368 0.88174 0.0
C120 C 0.89835 0.65602 0.81037 0.0
C121 C 0.85285 0.5979 0.80874 0.0
O122 O 0.86388 0.60076 0.82695 0.0
O123 O 0.84576 0.61377 0.79735 0.0
O124 O 0.87961 0.62207 0.87447 0.0
O125 O 0.85212 0.64311 0.86649 0.0
O126 O 0.33193 0.8814 0.79525 0.0
Cd127 Cd 0.3443 0.85099 0.79784 0.0
Cd128 Cd 0.36255 0.86845 0.83783 0.0
O129 O 0.34731 0.89566 0.82593 0.0
O130 O 0.33014 0.83636 0.77149 0.0
O131 O 0.32606 0.8259 0.8077 0.0
C132 C 0.32173 0.82325 0.78604 0.0
C133 C 0.35917 0.86116 0.87735 0.0
C134 C 0.33544 0.89745 0.80818 0.0
C135 C 0.39258 0.85134 0.80163 0.0
O136 O 0.3907 0.85966 0.82158 0.0
O137 O 0.37608 0.84682 0.78976 0.0
O138 O 0.3715 0.87613 0.86977 0.0
O139 O 0.3487 0.84997 0.86233 0.0
O140 O 0.10861 0.33012 0.79944 0.0
Cd141 Cd 0.13844 0.34404 0.80236 0.0
Cd142 Cd 0.11864 0.36338 0.83977 0.0
O143 O 0.09219 0.34721 0.82774 0.0
O144 O 0.15407 0.32976 0.77678 0.0
O145 O 0.16391 0.32685 0.81332 0.0
C146 C 0.16713 0.32211 0.79186 0.0
C147 C 0.1274 0.36018 0.87884 0.0
C148 C 0.09178 0.33405 0.81101 0.0
C149 C 0.13579 0.39255 0.80334 0.0
O150 O 0.12633 0.39129 0.82273 0.0
O151 O 0.14187 0.37572 0.7929 0.0
O152 O 0.11172 0.37201 0.87198 0.0
O153 O 0.13832 0.35002 0.86334 0.0
O154 O 0.65734 0.11407 0.79683 0.0
Cd155 Cd 0.64566 0.1438 0.80579 0.0
Cd156 Cd 0.6298 0.12001 0.84248 0.0
O157 O 0.64586 0.09524 0.82659 0.0
O158 O 0.65759 0.16156 0.78043 0.0
O159 O 0.6657 0.16697 0.81712 0.0
C160 C 0.66798 0.17233 0.7957 0.0
C161 C 0.63591 0.12586 0.88178 0.0
C162 C 0.65588 0.09636 0.80751 0.0
C163 C 0.59762 0.14136 0.81192 0.0
O164 O 0.60049 0.12855 0.82871 0.0
O165 O 0.61349 0.14958 0.80148 0.0
O166 O 0.62411 0.11026 0.87461 0.0
O167 O 0.64432 0.13838 0.86647 0.0
O168 O 0.88083 0.33167 0.70521 0.0
Cd169 Cd 0.85089 0.34494 0.70038 0.0
Cd170 Cd 0.87229 0.36254 0.66251 0.0
O171 O 0.89819 0.34673 0.67622 0.0
O172 O 0.83541 0.33231 0.72705 0.0
O173 O 0.82597 0.32623 0.69088 0.0
C174 C 0.82278 0.32302 0.71266 0.0
C175 C 0.86443 0.3575 0.62346 0.0
C176 C 0.898 0.33467 0.6939 0.0
C177 C 0.85346 0.39342 0.6962 0.0
O178 O 0.86429 0.39121 0.67777 0.0
O179 O 0.84653 0.37715 0.70706 0.0
O180 O 0.88015 0.36941 0.63007 0.0
O181 O 0.85295 0.34834 0.63921 0.0
O182 O 0.6593 0.881 0.708 0.0
Cd183 Cd 0.64746 0.85084 0.70162 0.0
Cd184 Cd 0.63217 0.87103 0.66227 0.0
O185 O 0.64824 0.89691 0.67613 0.0
O186 O 0.66006 0.83415 0.72747 0.0
O187 O 0.66696 0.82707 0.69081 0.0
C188 C 0.66991 0.82265 0.71239 0.0
C189 C 0.63777 0.86364 0.62314 0.0
C190 C 0.65801 0.8976 0.69539 0.0
C191 C 0.59956 0.85267 0.69486 0.0
O192 O 0.60273 0.86329 0.67642 0.0
O193 O 0.61529 0.84591 0.70672 0.0
O194 O 0.62616 0.87955 0.62979 0.0
O195 O 0.64626 0.85163 0.63887 0.0
O196 O 0.11489 0.65541 0.71088 0.0
Cd197 Cd 0.1434 0.6433 0.69854 0.0
Cd198 Cd 0.11758 0.63211 0.66243 0.0
O199 O 0.09511 0.64997 0.67992 0.0
O200 O 0.16372 0.65334 0.7226 0.0
O201 O 0.16588 0.66347 0.68608 0.0
C202 C 0.17311 0.66459 0.70697 0.0
C203 C 0.12337 0.63924 0.62341 0.0
C204 C 0.09717 0.65723 0.70031 0.0
C205 C 0.13701 0.59629 0.68938 0.0
O206 O 0.12304 0.60138 0.67437 0.0
O207 O 0.14781 0.61067 0.69966 0.0
O208 O 0.1062 0.62979 0.63043 0.0
O209 O 0.13749 0.64473 0.63864 0.0
O210 O 0.3365 0.11496 0.70899 0.0
Cd211 Cd 0.34789 0.14509 0.70126 0.0
Cd212 Cd 0.36469 0.12231 0.66385 0.0
O213 O 0.34885 0.097 0.67899 0.0
O214 O 0.33547 0.16181 0.72718 0.0
O215 O 0.32761 0.16837 0.69066 0.0
C216 C 0.32504 0.17293 0.71226 0.0
C217 C 0.35997 0.12794 0.62424 0.0
C218 C 0.33849 0.09752 0.69789 0.0
C219 C 0.39604 0.14334 0.69584 0.0
O220 O 0.39353 0.1311 0.6785 0.0
O221 O 0.37994 0.15105 0.70636 0.0
O222 O 0.37183 0.11265 0.63201 0.0
O223 O 0.35062 0.14024 0.63912 0.0
H224 H 0.29368 0.1908 0.32241 0.0
H225 H 0.26555 0.21588 0.31035 0.0
H226 H 0.27123 0.19338 0.24009 0.0
H227 H 0.29893 0.16824 0.25194 0.0
H228 H 0.27154 0.24831 0.27817 0.0
H229 H 0.20666 0.1939 0.24949 0.0
H230 H 0.22857 0.18502 0.26748 0.0
H231 H 0.23211 0.1877 0.23674 0.0
C232 C 0.28864 0.19096 0.30449 0.0
C233 C 0.29853 0.17759 0.28813 0.0
C234 C 0.27261 0.20527 0.29763 0.0
C235 C 0.26613 0.20625 0.27439 0.0
C236 C 0.27564 0.19255 0.25819 0.0
H237 H 0.19302 0.2932 0.18831 0.0
H238 H 0.21574 0.2643 0.20347 0.0
C239 C 0.29161 0.1783 0.26499 0.0
C240 C 0.25092 0.22286 0.26652 0.0
H241 H 0.20421 0.23037 0.2369 0.0
C242 C 0.25669 0.24441 0.26941 0.0
C243 C 0.23167 0.21767 0.2549 0.0
C244 C 0.22426 0.19482 0.25214 0.0
C245 C 0.24397 0.26094 0.26047 0.0
C246 C 0.22488 0.25574 0.2486 0.0
C247 C 0.21896 0.23423 0.24588 0.0
C248 C 0.21063 0.27256 0.23939 0.0
C249 C 0.2513 0.28383 0.26328 0.0
C250 C 0.20007 0.2864 0.25462 0.0
C251 C 0.18718 0.30281 0.24609 0.0
C252 C 0.18455 0.30565 0.22212 0.0
C253 C 0.19482 0.29146 0.20685 0.0
C254 C 0.20773 0.27496 0.21545 0.0
H255 H 0.26849 0.28483 0.26811 0.0
H256 H 0.24875 0.29302 0.24706 0.0
H257 H 0.2418 0.29159 0.27716 0.0
H258 H 0.20189 0.28457 0.27315 0.0
H259 H 0.17939 0.31337 0.25835 0.0
H260 H 0.82046 0.30479 0.24858 0.0
H261 H 0.79399 0.2783 0.23667 0.0
H262 H 0.77504 0.26953 0.30776 0.0
H263 H 0.80141 0.29637 0.31991 0.0
H264 H 0.78872 0.23519 0.24935 0.0
H265 H 0.71887 0.28523 0.27457 0.0
H266 H 0.74563 0.29592 0.27234 0.0
H267 H 0.738 0.28044 0.2972 0.0
C268 C 0.81074 0.2972 0.26175 0.0
C269 C 0.81289 0.30281 0.2852 0.0
C270 C 0.79565 0.28203 0.25488 0.0
C271 C 0.78238 0.27224 0.27129 0.0
C272 C 0.78491 0.27724 0.29481 0.0
H273 H 0.67677 0.18394 0.26004 0.0
H274 H 0.70568 0.20728 0.27293 0.0
C275 C 0.80004 0.29247 0.30173 0.0
C276 C 0.76561 0.25717 0.26353 0.0
H277 H 0.71147 0.25039 0.26081 0.0
C278 C 0.77181 0.23847 0.25184 0.0
C279 C 0.74361 0.26164 0.26669 0.0
C280 C 0.73603 0.28197 0.2782 0.0
C281 C 0.75655 0.22389 0.24351 0.0
C282 C 0.73456 0.22838 0.2467 0.0
C283 C 0.72837 0.24705 0.25841 0.0
C284 C 0.71763 0.21369 0.23852 0.0
C285 C 0.76403 0.20366 0.23177 0.0
C286 C 0.71473 0.20967 0.21483 0.0
C287 C 0.69816 0.19627 0.20734 0.0
C288 C 0.68421 0.18683 0.22346 0.0
C289 C 0.68722 0.19095 0.24715 0.0
C290 C 0.70373 0.20428 0.25459 0.0
H291 H 0.78119 0.20031 0.23536 0.0
H292 H 0.75435 0.1897 0.23744 0.0
H293 H 0.76206 0.20541 0.21279 0.0
H294 H 0.7251 0.21711 0.20215 0.0
H295 H 0.69618 0.19346 0.18898 0.0
H296 H 0.81493 0.68409 0.25616 0.0
H297 H 0.79072 0.71281 0.26751 0.0
H298 H 0.7783 0.72699 0.19575 0.0
H299 H 0.80237 0.69786 0.18412 0.0
H300 H 0.79112 0.75657 0.25765 0.0
H301 H 0.71846 0.71648 0.22272 0.0
H302 H 0.74363 0.70267 0.22627 0.0
H303 H 0.73969 0.72046 0.20221 0.0
C304 C 0.80712 0.69332 0.24272 0.0
C305 C 0.81041 0.68858 0.21921 0.0
C306 C 0.79333 0.70977 0.24928 0.0
C307 C 0.78252 0.72179 0.23249 0.0
C308 C 0.78624 0.7176 0.20897 0.0
H309 H 0.68462 0.81908 0.24476 0.0
H310 H 0.71282 0.79517 0.23124 0.0
C311 C 0.80005 0.70105 0.20235 0.0
C312 C 0.76696 0.73828 0.23985 0.0
H313 H 0.7138 0.75079 0.23902 0.0
C314 C 0.77421 0.75537 0.25355 0.0
C315 C 0.74492 0.73653 0.23457 0.0
C316 C 0.7361 0.71797 0.22081 0.0
C317 C 0.75998 0.77091 0.26198 0.0
C318 C 0.73795 0.76907 0.25679 0.0
C319 C 0.73074 0.7521 0.24293 0.0
C320 C 0.72198 0.78458 0.26545 0.0
C321 C 0.76862 0.78928 0.27613 0.0
C322 C 0.71785 0.78656 0.28922 0.0
C323 C 0.70168 0.80026 0.29707 0.0
C324 C 0.68936 0.81205 0.28121 0.0
C325 C 0.69379 0.8102 0.25745 0.0
C326 C 0.7099 0.79656 0.24966 0.0
H327 H 0.7862 0.79113 0.27398 0.0
H328 H 0.7607 0.80455 0.27126 0.0
H329 H 0.76531 0.78625 0.2947 0.0
H330 H 0.72679 0.77714 0.30164 0.0
H331 H 0.69858 0.8013 0.31547 0.0
H332 H 0.30789 0.81824 0.25406 0.0
H333 H 0.27933 0.79481 0.2676 0.0
H334 H 0.26561 0.77622 0.19734 0.0
H335 H 0.2943 0.79987 0.18344 0.0
H336 H 0.22833 0.78639 0.22753 0.0
H337 H 0.2856 0.72815 0.26589 0.0
H338 H 0.28964 0.75566 0.27397 0.0
H339 H 0.2935 0.74763 0.24444 0.0
C340 C 0.29879 0.80927 0.2414 0.0
C341 C 0.30349 0.81075 0.21766 0.0
C342 C 0.28249 0.79587 0.24921 0.0
C343 C 0.27064 0.78363 0.23349 0.0
C344 C 0.27473 0.78553 0.20971 0.0
H345 H 0.17188 0.68826 0.24571 0.0
H346 H 0.19584 0.71669 0.23301 0.0
C347 C 0.2911 0.79899 0.20182 0.0
C348 C 0.25444 0.7684 0.24212 0.0
H349 H 0.2489 0.72265 0.27378 0.0
C350 C 0.23275 0.7724 0.23758 0.0
C351 C 0.26038 0.7503 0.25533 0.0
C352 C 0.28354 0.745 0.2601 0.0
C353 C 0.21673 0.75881 0.24621 0.0
C354 C 0.22269 0.74061 0.25931 0.0
C355 C 0.24439 0.73671 0.26388 0.0
C356 C 0.20684 0.7247 0.26742 0.0
C357 C 0.19359 0.76424 0.24155 0.0
C358 C 0.20527 0.71957 0.29101 0.0
C359 C 0.19168 0.70313 0.29837 0.0
C360 C 0.17958 0.69148 0.28219 0.0
C361 C 0.18093 0.69696 0.25864 0.0
C362 C 0.1945 0.71334 0.25133 0.0
H363 H 0.1915 0.78153 0.2376 0.0
H364 H 0.18795 0.75498 0.22634 0.0
H365 H 0.18331 0.76005 0.25655 0.0
H366 H 0.21483 0.72808 0.30366 0.0
H367 H 0.19101 0.69925 0.31661 0.0
H368 H 0.69518 0.79661 0.68559 0.0
H369 H 0.72026 0.76905 0.69904 0.0
H370 H 0.70224 0.78201 0.76966 0.0
H371 H 0.67744 0.80959 0.75651 0.0
H372 H 0.74649 0.7817 0.76209 0.0
H373 H 0.70735 0.70919 0.72572 0.0
H374 H 0.71222 0.73038 0.70535 0.0
H375 H 0.69359 0.73449 0.72859 0.0
C376 C 0.69645 0.79345 0.70396 0.0
C377 C 0.68435 0.80528 0.71998 0.0
C378 C 0.71069 0.77764 0.7116 0.0
C379 C 0.7129 0.77338 0.73533 0.0
C380 C 0.7007 0.78504 0.75128 0.0
H381 H 0.79637 0.69234 0.81903 0.0
H382 H 0.76874 0.71745 0.80586 0.0
C383 C 0.68653 0.80079 0.7437 0.0
C384 C 0.72866 0.75754 0.74379 0.0
H385 H 0.7415 0.70443 0.74288 0.0
C386 C 0.74538 0.76478 0.75799 0.0
C387 C 0.7271 0.73553 0.73836 0.0
C388 C 0.70901 0.72682 0.72383 0.0
C389 C 0.76086 0.75062 0.76662 0.0
C390 C 0.7593 0.72859 0.76124 0.0
C391 C 0.74256 0.72134 0.74704 0.0
C392 C 0.77537 0.71294 0.76943 0.0
C393 C 0.77905 0.75945 0.78093 0.0
C394 C 0.78779 0.70172 0.75331 0.0
C395 C 0.80342 0.68734 0.76074 0.0
C396 C 0.80689 0.68384 0.78448 0.0
C397 C 0.79416 0.69481 0.80064 0.0
C398 C 0.77845 0.70921 0.79315 0.0
H399 H 0.78069 0.77706 0.77888 0.0
H400 H 0.77598 0.75604 0.79947 0.0
H401 H 0.79446 0.75178 0.7761 0.0
H402 H 0.78559 0.70433 0.73493 0.0
H403 H 0.8129 0.6791 0.74782 0.0
H404 H 0.19128 0.66926 0.74943 0.0
H405 H 0.21829 0.69522 0.76122 0.0
H406 H 0.22255 0.71841 0.69111 0.0
H407 H 0.1951 0.69259 0.67913 0.0
H408 H 0.26025 0.70215 0.74666 0.0
H409 H 0.20808 0.77232 0.72848 0.0
H410 H 0.19793 0.74528 0.7294 0.0
H411 H 0.21221 0.75463 0.70439 0.0
C412 C 0.19801 0.67979 0.73643 0.0
C413 C 0.19089 0.67903 0.71336 0.0
C414 C 0.21349 0.69458 0.74322 0.0
C415 C 0.22213 0.70894 0.72713 0.0
C416 C 0.21573 0.70771 0.70388 0.0
H417 H 0.30959 0.81526 0.7417 0.0
H418 H 0.28626 0.78679 0.72765 0.0
C419 C 0.20016 0.69289 0.69704 0.0
C420 C 0.23733 0.72557 0.73503 0.0
H421 H 0.24332 0.7796 0.741 0.0
C422 C 0.2566 0.71909 0.74541 0.0
C423 C 0.23238 0.74763 0.73351 0.0
C424 C 0.21146 0.75546 0.72354 0.0
C425 C 0.27121 0.73416 0.7541 0.0
C426 C 0.26622 0.75619 0.75259 0.0
C427 C 0.24703 0.76266 0.74211 0.0
C428 C 0.28085 0.77291 0.76141 0.0
C429 C 0.29198 0.72644 0.76449 0.0
C430 C 0.28539 0.77459 0.78512 0.0
C431 C 0.29874 0.79093 0.79328 0.0
C432 C 0.30765 0.80583 0.77782 0.0
C433 C 0.303 0.80404 0.75409 0.0
C434 C 0.28968 0.78778 0.746 0.0
H435 H 0.29547 0.70956 0.75971 0.0
H436 H 0.30555 0.73666 0.75881 0.0
H437 H 0.29093 0.7274 0.78362 0.0
H438 H 0.2784 0.76344 0.79732 0.0
H439 H 0.30198 0.79194 0.81165 0.0
H440 H 0.19643 0.30107 0.819 0.0
H441 H 0.22545 0.27746 0.80593 0.0
H442 H 0.20693 0.28822 0.73502 0.0
H443 H 0.1782 0.3118 0.74778 0.0
H444 H 0.22042 0.23982 0.77906 0.0
H445 H 0.27175 0.29936 0.73431 0.0
H446 H 0.25128 0.30694 0.7548 0.0
H447 H 0.24415 0.30004 0.72561 0.0
C448 C 0.19869 0.29853 0.80063 0.0
C449 C 0.18506 0.30831 0.78443 0.0
C450 C 0.21524 0.28507 0.79321 0.0
C451 C 0.2185 0.28141 0.76951 0.0
C452 C 0.20496 0.29121 0.75335 0.0
H453 H 0.29798 0.19767 0.686 0.0
H454 H 0.27229 0.22447 0.70003 0.0
C455 C 0.18844 0.30457 0.76072 0.0
C456 C 0.23522 0.26638 0.76155 0.0
H457 H 0.27952 0.26256 0.7272 0.0
C458 C 0.23347 0.24479 0.76791 0.0
C459 C 0.25208 0.27297 0.74684 0.0
C460 C 0.2551 0.29612 0.74012 0.0
C461 C 0.24791 0.22945 0.75954 0.0
C462 C 0.26471 0.23601 0.74475 0.0
C463 C 0.26654 0.25762 0.73846 0.0
C464 C 0.2808 0.22064 0.73608 0.0
C465 C 0.24475 0.20628 0.76614 0.0
C466 C 0.29433 0.21009 0.75167 0.0
C467 C 0.30888 0.19485 0.74378 0.0
C468 C 0.31031 0.18996 0.72008 0.0
C469 C 0.29719 0.20104 0.70436 0.0
C470 C 0.28255 0.21633 0.71232 0.0
H471 H 0.22829 0.2032 0.77261 0.0
H472 H 0.24788 0.19556 0.75119 0.0
H473 H 0.25617 0.20204 0.78012 0.0
H474 H 0.29349 0.21353 0.77001 0.0
H475 H 0.31889 0.18675 0.75634 0.0
H476 H 0.69456 0.19682 0.82274 0.0
H477 H 0.71933 0.22485 0.80968 0.0
H478 H 0.69871 0.21507 0.73928 0.0
H479 H 0.67391 0.18741 0.75207 0.0
H480 H 0.75285 0.21922 0.77792 0.0
H481 H 0.69513 0.2801 0.74641 0.0
H482 H 0.6874 0.25843 0.76534 0.0
H483 H 0.69055 0.25382 0.73483 0.0
C484 C 0.69516 0.20084 0.80453 0.0
C485 C 0.68228 0.18993 0.78845 0.0
C486 C 0.70929 0.21681 0.79711 0.0
C487 C 0.71057 0.22222 0.77358 0.0
C488 C 0.69761 0.21147 0.75757 0.0
H489 H 0.79364 0.29986 0.68736 0.0
H490 H 0.76606 0.27549 0.70236 0.0
C491 C 0.68356 0.19554 0.76493 0.0
C492 C 0.72642 0.23807 0.76537 0.0
H493 H 0.73156 0.28461 0.73486 0.0
C494 C 0.74821 0.23363 0.76872 0.0
C495 C 0.72027 0.25674 0.75321 0.0
C496 C 0.69705 0.2627 0.74989 0.0
C497 C 0.76409 0.24716 0.75976 0.0
C498 C 0.75794 0.26573 0.74745 0.0
C499 C 0.73616 0.27027 0.74421 0.0
C500 C 0.77398 0.28091 0.73832 0.0
C501 C 0.78731 0.24122 0.76308 0.0
C502 C 0.78716 0.29223 0.75363 0.0
C503 C 0.80281 0.30606 0.74518 0.0
C504 C 0.80553 0.30891 0.72123 0.0
C505 C 0.79196 0.29792 0.70589 0.0
C506 C 0.77623 0.28404 0.71441 0.0
H507 H 0.78925 0.2241 0.7679 0.0
H508 H 0.79666 0.24436 0.74709 0.0
H509 H 0.7942 0.25112 0.77718 0.0
H510 H 0.78538 0.29027 0.77215 0.0
H511 H 0.81289 0.31439 0.75749 0.0
H512 H 0.15664 0.33374 0.90011 0.0
H513 H 0.16431 0.33123 0.94175 0.0
H514 H 0.11739 0.38028 0.9553 0.0
H515 H 0.10959 0.38287 0.91408 0.0
H516 H 0.16163 0.38492 0.97657 0.0
H517 H 0.12067 0.30698 0.99287 0.0
H518 H 0.13851 0.30957 0.96851 0.0
H519 H 0.11351 0.32364 0.96852 0.0
C520 C 0.14797 0.34397 0.91199 0.0
C521 C 0.13247 0.35848 0.90379 0.0
C522 C 0.15233 0.34246 0.93572 0.0
C523 C 0.14131 0.3555 0.95151 0.0
C524 C 0.12602 0.37007 0.94335 0.0
H525 H 0.12137 0.39287 0.08898 0.0
H526 H 0.12579 0.38787 0.0475 0.0
C527 C 0.12157 0.37149 0.91977 0.0
C528 C 0.14561 0.35441 0.97664 0.0
H529 H 0.13247 0.32638 0.02531 0.0
C530 C 0.15559 0.37196 0.98723 0.0
C531 C 0.13786 0.33739 0.9904 0.0
C532 C 0.12696 0.31827 0.97967 0.0
C533 C 0.15722 0.37339 0.01137 0.0
C534 C 0.14817 0.35707 0.02524 0.0
C535 C 0.13929 0.33891 0.01462 0.0
C536 C 0.14579 0.35972 0.05059 0.0
C537 C 0.16819 0.39263 0.02181 0.0
C538 C 0.15506 0.34514 0.06614 0.0
C539 C 0.15247 0.3479 0.09005 0.0
C540 C 0.14039 0.36517 0.09869 0.0
C541 C 0.13088 0.37947 0.08297 0.0
C542 C 0.1335 0.37673 0.05921 0.0
H543 H 0.17998 0.39971 0.00963 0.0
H544 H 0.15603 0.40507 0.02574 0.0
H545 H 0.17654 0.38837 0.03813 0.0
H546 H 0.16442 0.33178 0.0598 0.0
H547 H 0.15993 0.33657 0.10172 0.0
H548 H 0.65878 0.1578 0.90334 0.0
H549 H 0.66426 0.16258 0.94512 0.0
H550 H 0.62637 0.10618 0.95841 0.0
H551 H 0.621 0.10118 0.91706 0.0
H552 H 0.63311 0.16809 0.9799 0.0
H553 H 0.68075 0.09492 0.99582 0.0
H554 H 0.67684 0.10585 0.9672 0.0
H555 H 0.65656 0.08928 0.98023 0.0
C556 C 0.65174 0.14636 0.91519 0.0
C557 C 0.63954 0.12905 0.90687 0.0
C558 C 0.65488 0.14912 0.93902 0.0
C559 C 0.64607 0.1345 0.95482 0.0
C560 C 0.63376 0.11736 0.94651 0.0
H561 H 0.61058 0.11298 0.09173 0.0
H562 H 0.61832 0.11505 0.05046 0.0
C563 C 0.63058 0.11462 0.92283 0.0
C564 C 0.64875 0.13736 0.98012 0.0
H565 H 0.6626 0.10993 0.02896 0.0
C566 C 0.64002 0.15564 0.99065 0.0
C567 C 0.6579 0.12115 0.99408 0.0
C568 C 0.66875 0.1018 0.98373 0.0
C569 C 0.63882 0.15739 0.01485 0.0
C570 C 0.64665 0.14048 0.02872 0.0
C571 C 0.6565 0.12281 0.01822 0.0
C572 C 0.6425 0.13962 0.05389 0.0
C573 C 0.62807 0.17664 0.0255 0.0
C574 C 0.65369 0.1527 0.0695 0.0
C575 C 0.64937 0.1515 0.09326 0.0
C576 C 0.63373 0.13725 0.10167 0.0
C577 C 0.62268 0.12417 0.08588 0.0
C578 C 0.62709 0.12529 0.06227 0.0
H579 H 0.62177 0.18787 0.01224 0.0
H580 H 0.61463 0.1714 0.03674 0.0
H581 H 0.6397 0.18535 0.03654 0.0
H582 H 0.66576 0.16377 0.0633 0.0
H583 H 0.65816 0.16177 0.105 0.0
H584 H 0.88523 0.61391 0.91677 0.0
H585 H 0.87992 0.61819 0.95822 0.0
H586 H 0.82916 0.66351 0.94552 0.0
H587 H 0.83419 0.65909 0.90364 0.0
H588 H 0.88363 0.65617 0.98378 0.0
H589 H 0.80207 0.62063 0.9913 0.0
H590 H 0.81861 0.61672 0.96605 0.0
H591 H 0.80554 0.64194 0.9707 0.0
C592 C 0.87284 0.62473 0.92269 0.0
C593 C 0.8601 0.63614 0.90687 0.0
C594 C 0.86985 0.62718 0.94643 0.0
C595 C 0.85406 0.64104 0.95495 0.0
C596 C 0.84123 0.65248 0.93929 0.0
H597 H 0.83212 0.65657 0.10552 0.0
H598 H 0.83004 0.66391 0.06377 0.0
C599 C 0.84418 0.65 0.91539 0.0
C600 C 0.85168 0.64357 0.98032 0.0
H601 H 0.81923 0.63072 0.02584 0.0
C602 C 0.86942 0.65091 0.99295 0.0
C603 C 0.83309 0.6368 0.99224 0.0
C604 C 0.81373 0.62844 0.97949 0.0
C605 C 0.86943 0.65075 0.01719 0.0
C606 C 0.8513 0.64292 0.02909 0.0
C607 C 0.83309 0.63671 0.01656 0.0
C608 C 0.85207 0.63869 0.05423 0.0
C609 C 0.88911 0.65826 0.02997 0.0
C610 C 0.86491 0.62197 0.0625 0.0
C611 C 0.86603 0.61766 0.08613 0.0
C612 C 0.85436 0.63006 0.10203 0.0
C613 C 0.84136 0.64679 0.0937 0.0
C614 C 0.84012 0.65098 0.06991 0.0
H615 H 0.89946 0.66847 0.0189 0.0
H616 H 0.88461 0.66741 0.04571 0.0
H617 H 0.89859 0.64412 0.03549 0.0
H618 H 0.87409 0.61219 0.0506 0.0
H619 H 0.87618 0.60466 0.09191 0.0
H620 H 0.38953 0.87453 0.08778 0.0
H621 H 0.3822 0.87221 0.04644 0.0
H622 H 0.32963 0.82921 0.05971 0.0
H623 H 0.33678 0.83151 0.10148 0.0
H624 H 0.36202 0.81738 0.02199 0.0
H625 H 0.32706 0.89879 0.01434 0.0
H626 H 0.3515 0.89738 0.0307 0.0
H627 H 0.32789 0.88423 0.04134 0.0
C628 C 0.37639 0.86455 0.08201 0.0
C629 C 0.36368 0.85326 0.09795 0.0
C630 C 0.3722 0.8633 0.05836 0.0
C631 C 0.35527 0.85071 0.05011 0.0
C632 C 0.34271 0.83909 0.06583 0.0
H633 H 0.33281 0.83264 0.89989 0.0
H634 H 0.3288 0.82802 0.94188 0.0
C635 C 0.3468 0.84046 0.08964 0.0
C636 C 0.35105 0.84992 0.02495 0.0
H637 H 0.33879 0.8823 0.97934 0.0
C638 C 0.35652 0.83137 0.01259 0.0
C639 C 0.34384 0.86822 0.01288 0.0
C640 C 0.33704 0.88826 0.02546 0.0
C641 C 0.3563 0.83115 0.98826 0.0
C642 C 0.35016 0.84987 0.97617 0.0
C643 C 0.34358 0.868 0.98865 0.0
C644 C 0.35255 0.85189 0.95075 0.0
C645 C 0.36382 0.81137 0.97567 0.0
C646 C 0.36704 0.86694 0.94189 0.0
C647 C 0.36927 0.86968 0.91808 0.0
C648 C 0.35701 0.85745 0.90255 0.0
C649 C 0.34255 0.84224 0.91141 0.0
C650 C 0.3403 0.83952 0.93537 0.0
H651 H 0.37114 0.79946 0.98757 0.0
H652 H 0.34998 0.80369 0.96695 0.0
H653 H 0.37571 0.81567 0.96218 0.0
H654 H 0.37665 0.87664 0.95345 0.0
H655 H 0.38057 0.88152 0.91189 0.0
H656 H 0.16105 0.63878 0.59938 0.0
H657 H 0.16547 0.6405 0.55732 0.0
H658 H 0.09752 0.65107 0.54955 0.0
H659 H 0.09296 0.64791 0.59134 0.0
H660 H 0.1084 0.62184 0.52215 0.0
H661 H 0.16777 0.68656 0.51063 0.0
H662 H 0.17793 0.66599 0.52925 0.0
H663 H 0.15498 0.68149 0.53805 0.0
C664 C 0.14716 0.6418 0.58864 0.0
C665 C 0.12666 0.64312 0.59851 0.0
C666 C 0.14971 0.64297 0.5646 0.0
C667 C 0.13188 0.64622 0.55013 0.0
C668 C 0.11154 0.6485 0.56024 0.0
H669 H 0.13829 0.66489 0.39991 0.0
H670 H 0.13708 0.67063 0.44193 0.0
C671 C 0.10893 0.64672 0.58413 0.0
C672 C 0.13387 0.64506 0.52448 0.0
H673 H 0.16241 0.66325 0.478 0.0
C674 C 0.12008 0.63113 0.51255 0.0
C675 C 0.14889 0.65732 0.51174 0.0
C676 C 0.16305 0.67384 0.52308 0.0
C677 C 0.12101 0.62889 0.48848 0.0
C678 C 0.13694 0.64007 0.4759 0.0
C679 C 0.15047 0.65437 0.48767 0.0
C680 C 0.13967 0.63698 0.45058 0.0
C681 C 0.10453 0.61486 0.4768 0.0
C682 C 0.14233 0.61629 0.44151 0.0
C683 C 0.14249 0.61298 0.41765 0.0
C684 C 0.14075 0.63035 0.40235 0.0
C685 C 0.13959 0.65122 0.41136 0.0
C686 C 0.13891 0.6545 0.43533 0.0
H687 H 0.08971 0.61356 0.48734 0.0
H688 H 0.10014 0.62114 0.45948 0.0
H689 H 0.11112 0.59847 0.47473 0.0
H690 H 0.14376 0.6026 0.45289 0.0
H691 H 0.14379 0.59675 0.41116 0.0
H692 H 0.37929 0.10547 0.58975 0.0
H693 H 0.37538 0.11021 0.54816 0.0
H694 H 0.33059 0.16171 0.55958 0.0
H695 H 0.3347 0.15729 0.60155 0.0
H696 H 0.33856 0.10668 0.52159 0.0
H697 H 0.37399 0.18829 0.51469 0.0
H698 H 0.37703 0.17195 0.54023 0.0
H699 H 0.35208 0.18524 0.53458 0.0
C700 C 0.36864 0.11788 0.58351 0.0
C701 C 0.35736 0.13106 0.599 0.0
C702 C 0.3664 0.12054 0.55968 0.0
C703 C 0.35286 0.13644 0.55075 0.0
C704 C 0.34141 0.14958 0.5661 0.0
H705 H 0.33466 0.1568 0.40038 0.0
H706 H 0.32826 0.15876 0.4423 0.0
C707 C 0.3437 0.14696 0.59006 0.0
C708 C 0.35079 0.13876 0.52531 0.0
H709 H 0.36349 0.17156 0.48 0.0
C710 C 0.34375 0.12098 0.51252 0.0
C711 C 0.35753 0.15745 0.51351 0.0
C712 C 0.36574 0.17681 0.52635 0.0
C713 C 0.344 0.1211 0.48828 0.0
C714 C 0.35156 0.13942 0.47653 0.0
C715 C 0.35766 0.15758 0.48918 0.0
C716 C 0.35543 0.13899 0.45131 0.0
C717 C 0.33685 0.10141 0.4753 0.0
C718 C 0.37294 0.12745 0.44269 0.0
C719 C 0.3767 0.1264 0.41895 0.0
C720 C 0.36296 0.13681 0.40329 0.0
C721 C 0.34549 0.14857 0.41199 0.0
C722 C 0.34183 0.14974 0.43588 0.0
H723 H 0.32759 0.0903 0.48649 0.0
H724 H 0.32685 0.10593 0.46018 0.0
H725 H 0.35113 0.09276 0.46872 0.0
H726 H 0.38366 0.11916 0.4544 0.0
H727 H 0.3903 0.11722 0.41287 0.0
H728 H 0.83843 0.32931 0.40032 0.0
H729 H 0.83288 0.32398 0.44202 0.0
H730 H 0.86506 0.38371 0.4559 0.0
H731 H 0.87059 0.38918 0.41464 0.0
H732 H 0.86498 0.32209 0.47747 0.0
H733 H 0.8085 0.38905 0.49211 0.0
H734 H 0.81372 0.37815 0.46371 0.0
H735 H 0.83193 0.39714 0.47641 0.0
C736 C 0.84422 0.34133 0.41228 0.0
C737 C 0.85489 0.3597 0.40416 0.0
C738 C 0.84103 0.33827 0.43606 0.0
C739 C 0.84822 0.35365 0.45198 0.0
C740 C 0.85897 0.37187 0.44387 0.0
H741 H 0.88608 0.37509 0.5873 0.0
H742 H 0.87882 0.37094 0.54609 0.0
C743 C 0.86225 0.37489 0.42025 0.0
C744 C 0.8455 0.35056 0.47721 0.0
H745 H 0.82783 0.3764 0.52562 0.0
C746 C 0.85641 0.33362 0.488 0.0
C747 C 0.8342 0.36557 0.49088 0.0
C748 C 0.82124 0.38338 0.48017 0.0
C749 C 0.85756 0.33225 0.51223 0.0
C750 C 0.84755 0.34815 0.5258 0.0
C751 C 0.83554 0.36428 0.51506 0.0
C752 C 0.85171 0.3499 0.55086 0.0
C753 C 0.87046 0.31459 0.52327 0.0
C754 C 0.83876 0.3394 0.56711 0.0
C755 C 0.84285 0.34174 0.59082 0.0
C756 C 0.85991 0.35464 0.59851 0.0
C757 C 0.87281 0.36504 0.58203 0.0
C758 C 0.86872 0.3627 0.55846 0.0
H759 H 0.87585 0.30248 0.51046 0.0
H760 H 0.88476 0.32156 0.53185 0.0
H761 H 0.86078 0.3065 0.53681 0.0
H762 H 0.82552 0.3295 0.56145 0.0
H763 H 0.83264 0.33352 0.60309 0.0
H764 H 0.62624 0.88932 0.58724 0.0
H765 H 0.63044 0.88252 0.54597 0.0
H766 H 0.66074 0.82203 0.56081 0.0
H767 H 0.65667 0.82874 0.6025 0.0
H768 H 0.67103 0.87224 0.52049 0.0
H769 H 0.60756 0.80952 0.5165 0.0
H770 H 0.6087 0.82871 0.53983 0.0
H771 H 0.62801 0.80752 0.53839 0.0
C772 C 0.63386 0.87456 0.58182 0.0
C773 C 0.64103 0.8595 0.59817 0.0
C774 C 0.63631 0.87076 0.55821 0.0
C775 C 0.64581 0.85176 0.5504 0.0
C776 C 0.65326 0.83675 0.56657 0.0
H777 H 0.66472 0.83772 0.39914 0.0
H778 H 0.67165 0.83373 0.44079 0.0
C779 C 0.65096 0.84062 0.59032 0.0
C780 C 0.64717 0.84778 0.52521 0.0
H781 H 0.62159 0.82178 0.48124 0.0
C782 C 0.66059 0.86089 0.51186 0.0
C783 C 0.63339 0.83306 0.51413 0.0
C784 C 0.61848 0.81888 0.5278 0.0
C785 C 0.65993 0.86029 0.48759 0.0
C786 C 0.64549 0.8462 0.4765 0.0
C787 C 0.63272 0.83245 0.48986 0.0
C788 C 0.64141 0.84753 0.45132 0.0
C789 C 0.67373 0.87556 0.47393 0.0
C790 C 0.62207 0.85634 0.44358 0.0
C791 C 0.61813 0.85872 0.41998 0.0
C792 C 0.63341 0.85218 0.40358 0.0
C793 C 0.65266 0.84295 0.41135 0.0
C794 C 0.65666 0.84069 0.43509 0.0
H795 H 0.68272 0.88678 0.48524 0.0
H796 H 0.68541 0.86632 0.46346 0.0
H797 H 0.66369 0.88502 0.46181 0.0
H798 H 0.61012 0.86172 0.45587 0.0
H799 H 0.60309 0.8658 0.41462 0.0
H800 H 0.17616 0.56154 0.32623 0.0
H801 H 0.18715 0.52746 0.30918 0.0
H802 H 0.18261 0.55523 0.24101 0.0
H803 H 0.17242 0.58944 0.25792 0.0
H804 H 0.16098 0.50551 0.28316 0.0
H805 H 0.23466 0.51899 0.23248 0.0
H806 H 0.22532 0.53789 0.25386 0.0
H807 H 0.21448 0.53817 0.22497 0.0
C808 C 0.17808 0.56054 0.30765 0.0
C809 C 0.17323 0.57814 0.29341 0.0
C810 C 0.18441 0.54107 0.29792 0.0
C811 C 0.18589 0.53879 0.27381 0.0
C812 C 0.18216 0.55667 0.25967 0.0
H813 H 0.1596 0.43991 0.17795 0.0
H814 H 0.17003 0.47318 0.19725 0.0
C815 C 0.17611 0.57623 0.26938 0.0
C816 C 0.1878 0.51718 0.26336 0.0
H817 H 0.21267 0.48877 0.22056 0.0
C818 C 0.17263 0.50172 0.26986 0.0
C819 C 0.20289 0.51226 0.24587 0.0
C820 C 0.22038 0.52767 0.23908 0.0
C821 C 0.17147 0.48189 0.25866 0.0
C822 C 0.18593 0.47735 0.24054 0.0
C823 C 0.20157 0.49243 0.23444 0.0
C824 C 0.18387 0.45743 0.22701 0.0
C825 C 0.15417 0.46625 0.26558 0.0
C826 C 0.18893 0.43766 0.23707 0.0
C827 C 0.18295 0.41863 0.22617 0.0
C828 C 0.17174 0.4191 0.20505 0.0
C829 C 0.16807 0.43897 0.19427 0.0
C830 C 0.17409 0.458 0.2052 0.0
H831 H 0.14258 0.47334 0.27798 0.0
H832 H 0.14527 0.46065 0.25009 0.0
H833 H 0.16161 0.45203 0.27384 0.0
H834 H 0.19652 0.437 0.25391 0.0
H835 H 0.18621 0.40362 0.23487 0.0
H836 H 0.5807 0.17494 0.2385 0.0
H837 H 0.54485 0.18322 0.25241 0.0
H838 H 0.51993 0.17587 0.18327 0.0
H839 H 0.55578 0.16654 0.16933 0.0
H840 H 0.5137 0.21177 0.24444 0.0
H841 H 0.48702 0.13059 0.21709 0.0
H842 H 0.51468 0.13868 0.21604 0.0
H843 H 0.49631 0.14723 0.1939 0.0
C844 C 0.56767 0.17534 0.22614 0.0
C845 C 0.57099 0.16965 0.20289 0.0
C846 C 0.54716 0.18015 0.23413 0.0
C847 C 0.52962 0.17961 0.219 0.0
C848 C 0.53315 0.17573 0.19538 0.0
H849 H 0.39508 0.17383 0.25874 0.0
H850 H 0.42706 0.18396 0.23706 0.0
C851 C 0.55365 0.17051 0.18742 0.0
C852 C 0.50765 0.18111 0.22856 0.0
H853 H 0.46189 0.15205 0.23617 0.0
C854 C 0.50228 0.19882 0.24243 0.0
C855 C 0.49281 0.16409 0.22609 0.0
C856 C 0.498 0.14399 0.21267 0.0
C857 C 0.48268 0.19969 0.25431 0.0
C858 C 0.46816 0.1825 0.25213 0.0
C859 C 0.47311 0.16525 0.2376 0.0
C860 C 0.44852 0.18092 0.2662 0.0
C861 C 0.47774 0.2187 0.26945 0.0
C862 C 0.45002 0.17629 0.28988 0.0
C863 C 0.43182 0.17024 0.30233 0.0
C864 C 0.41184 0.16873 0.29123 0.0
C865 C 0.41022 0.17475 0.26783 0.0
C866 C 0.42845 0.18061 0.25538 0.0
H867 H 0.48836 0.23252 0.26558 0.0
H868 H 0.4608 0.22373 0.26725 0.0
H869 H 0.48005 0.21415 0.28784 0.0
H870 H 0.46547 0.17614 0.29842 0.0
H871 H 0.4336 0.16578 0.32033 0.0
H872 H 0.82876 0.55415 0.17956 0.0
H873 H 0.81961 0.52075 0.19921 0.0
H874 H 0.80215 0.55612 0.26039 0.0
H875 H 0.81119 0.58963 0.24096 0.0
H876 H 0.83651 0.52589 0.2651 0.0
H877 H 0.76489 0.48956 0.22392 0.0
H878 H 0.78465 0.4999 0.20424 0.0
H879 H 0.77044 0.51797 0.22289 0.0
C880 C 0.8224 0.55491 0.19696 0.0
C881 C 0.82102 0.57454 0.2088 0.0
C882 C 0.81702 0.5358 0.20811 0.0
C883 C 0.81012 0.53603 0.23118 0.0
C884 C 0.80732 0.55567 0.24251 0.0
H885 H 0.8248 0.43018 0.32944 0.0
H886 H 0.81358 0.46467 0.31335 0.0
C887 C 0.81258 0.57479 0.23137 0.0
C888 C 0.80958 0.5159 0.24457 0.0
H889 H 0.78654 0.46643 0.24713 0.0
C890 C 0.82536 0.51298 0.26151 0.0
C891 C 0.79516 0.49913 0.23955 0.0
C892 C 0.77769 0.50176 0.22178 0.0
C893 C 0.82783 0.49333 0.27287 0.0
C894 C 0.8136 0.47634 0.26766 0.0
C895 C 0.79733 0.47951 0.2512 0.0
C896 C 0.81666 0.45471 0.27764 0.0
C897 C 0.84647 0.49066 0.28928 0.0
C898 C 0.82074 0.43731 0.26293 0.0
C899 C 0.82669 0.4175 0.27207 0.0
C900 C 0.82889 0.41481 0.29609 0.0
C901 C 0.8236 0.4319 0.31085 0.0
C902 C 0.81726 0.45161 0.30168 0.0
H903 H 0.85873 0.50338 0.2869 0.0
H904 H 0.8406 0.49167 0.30735 0.0
H905 H 0.85433 0.47487 0.28686 0.0
H906 H 0.82027 0.43932 0.24432 0.0
H907 H 0.83056 0.40462 0.26024 0.0
H908 H 0.58676 0.82445 0.26116 0.0
H909 H 0.55185 0.81514 0.24522 0.0
H910 H 0.52519 0.81338 0.31402 0.0
H911 H 0.55998 0.82368 0.3301 0.0
H912 H 0.52296 0.78344 0.24903 0.0
H913 H 0.48929 0.85907 0.28452 0.0
H914 H 0.5175 0.85315 0.28541 0.0
H915 H 0.49958 0.84117 0.30607 0.0
C916 C 0.57355 0.82184 0.27297 0.0
C917 C 0.57601 0.82521 0.29687 0.0
C918 C 0.5536 0.81646 0.26381 0.0
C919 C 0.53579 0.81411 0.27837 0.0
C920 C 0.53858 0.81576 0.30241 0.0
H921 H 0.40138 0.81228 0.23863 0.0
H922 H 0.43429 0.80304 0.25911 0.0
C923 C 0.55848 0.82154 0.31158 0.0
C924 C 0.51417 0.81179 0.26809 0.0
H925 H 0.46603 0.83726 0.26315 0.0
C926 C 0.51044 0.79509 0.25227 0.0
C927 C 0.4979 0.82714 0.27217 0.0
C928 C 0.50126 0.84625 0.28778 0.0
C929 C 0.49099 0.79358 0.24015 0.0
C930 C 0.47497 0.80908 0.24408 0.0
C931 C 0.47839 0.82531 0.26039 0.0
C932 C 0.45512 0.81007 0.23025 0.0
C933 C 0.48776 0.77566 0.22304 0.0
C934 C 0.45598 0.81659 0.20705 0.0
C935 C 0.43721 0.82211 0.1953 0.0
C936 C 0.4173 0.82122 0.20663 0.0
C937 C 0.41644 0.81326 0.22939 0.0
C938 C 0.43521 0.8079 0.24114 0.0
H939 H 0.49954 0.76253 0.22559 0.0
H940 H 0.47133 0.76901 0.22448 0.0
H941 H 0.48974 0.78203 0.20524 0.0
H942 H 0.47127 0.81867 0.19848 0.0
H943 H 0.43844 0.8281 0.17778 0.0
H944 H 0.87718 0.56238 0.81684 0.0
H945 H 0.87447 0.5276 0.79763 0.0
H946 H 0.81799 0.54906 0.7614 0.0
H947 H 0.82124 0.58421 0.7797 0.0
H948 H 0.84613 0.49677 0.79617 0.0
H949 H 0.85401 0.53078 0.70807 0.0
H950 H 0.85796 0.54664 0.73375 0.0
H951 H 0.83132 0.54127 0.7233 0.0
C952 C 0.86409 0.55962 0.80491 0.0
C953 C 0.84957 0.57608 0.79955 0.0
C954 C 0.86258 0.53975 0.79391 0.0
C955 C 0.84637 0.5359 0.77757 0.0
C956 C 0.83108 0.5519 0.77329 0.0
H957 H 0.82242 0.40606 0.72652 0.0
H958 H 0.81901 0.44087 0.74556 0.0
C959 C 0.83284 0.57191 0.78393 0.0
C960 C 0.84582 0.5153 0.76476 0.0
H961 H 0.8456 0.49383 0.71045 0.0
C962 C 0.84604 0.49612 0.77742 0.0
C963 C 0.84609 0.51446 0.74028 0.0
C964 C 0.84756 0.53438 0.72556 0.0
C965 C 0.84659 0.47614 0.76633 0.0
C966 C 0.84604 0.47529 0.74185 0.0
C967 C 0.84574 0.49447 0.7292 0.0
C968 C 0.84685 0.45473 0.72897 0.0
C969 C 0.84858 0.45624 0.78101 0.0
C970 C 0.86282 0.45135 0.71226 0.0
C971 C 0.86441 0.43169 0.70086 0.0
C972 C 0.8502 0.41495 0.70617 0.0
C973 C 0.83376 0.41859 0.7223 0.0
C974 C 0.83192 0.43841 0.73335 0.0
H975 H 0.85518 0.45994 0.79841 0.0
H976 H 0.83249 0.44907 0.78348 0.0
H977 H 0.85909 0.44415 0.77266 0.0
H978 H 0.87444 0.46374 0.70846 0.0
H979 H 0.87727 0.42934 0.68856 0.0
H980 H 0.56197 0.86869 0.67739 0.0
H981 H 0.52623 0.86601 0.69459 0.0
H982 H 0.55166 0.8269 0.74957 0.0
H983 H 0.5873 0.82925 0.73248 0.0
H984 H 0.51212 0.81225 0.73188 0.0
H985 H 0.51042 0.89883 0.75422 0.0
H986 H 0.5153 0.89302 0.72425 0.0
H987 H 0.53464 0.88521 0.74565 0.0
C988 C 0.55992 0.85933 0.69299 0.0
C989 C 0.57754 0.84935 0.70367 0.0
C990 C 0.53952 0.85792 0.70286 0.0
C991 C 0.53643 0.84657 0.72355 0.0
C992 C 0.55377 0.83584 0.73367 0.0
H993 H 0.43165 0.86083 0.8207 0.0
H994 H 0.46679 0.85806 0.80223 0.0
C995 C 0.57414 0.83724 0.72386 0.0
C996 C 0.51534 0.84644 0.7352 0.0
H997 H 0.47905 0.87891 0.76198 0.0
C998 C 0.50484 0.8268 0.73845 0.0
C999 C 0.50613 0.86542 0.74409 0.0
C1000 C 0.51724 0.88682 0.74211 0.0
C1001 C 0.48516 0.82567 0.75013 0.0
C1002 C 0.47569 0.84474 0.75849 0.0
C1003 C 0.48633 0.86433 0.75546 0.0
C1004 C 0.45463 0.84484 0.77023 0.0
C1005 C 0.47488 0.80407 0.75376 0.0
C1006 C 0.4362 0.83823 0.75838 0.0
C1007 C 0.41613 0.83973 0.76888 0.0
C1008 C 0.41407 0.84804 0.7914 0.0
C1009 C 0.43264 0.85431 0.80338 0.0
C1010 C 0.45273 0.85279 0.79284 0.0
H1011 H 0.48667 0.79084 0.752 0.0
H1012 H 0.46731 0.80303 0.7711 0.0
H1013 H 0.46223 0.80166 0.74053 0.0
H1014 H 0.43726 0.83245 0.74076 0.0
H1015 H 0.40217 0.83484 0.75909 0.0
H1016 H 0.11488 0.42989 0.81315 0.0
H1017 H 0.11675 0.46362 0.79183 0.0
H1018 H 0.16499 0.43678 0.74697 0.0
H1019 H 0.1626 0.40272 0.76765 0.0
H1020 H 0.14765 0.49151 0.78467 0.0
H1021 H 0.1227 0.45793 0.70016 0.0
H1022 H 0.1212 0.44278 0.72665 0.0
H1023 H 0.14625 0.44528 0.71149 0.0
C1024 C 0.12596 0.43119 0.79881 0.0
C1025 C 0.13846 0.41358 0.79195 0.0
C1026 C 0.12697 0.45047 0.7866 0.0
C1027 C 0.14063 0.45257 0.76743 0.0
C1028 C 0.15383 0.43532 0.76121 0.0
H1029 H 0.17143 0.5781 0.7107 0.0
H1030 H 0.17353 0.54243 0.72794 0.0
C1031 C 0.15259 0.41593 0.77319 0.0
C1032 C 0.14107 0.4729 0.75415 0.0
H1033 H 0.13504 0.49396 0.7 0.0
C1034 C 0.14486 0.49204 0.76616 0.0
C1035 C 0.13706 0.47362 0.73004 0.0
C1036 C 0.13135 0.45384 0.71636 0.0
C1037 C 0.14483 0.51188 0.75479 0.0
C1038 C 0.1417 0.51252 0.73054 0.0
C1039 C 0.13777 0.4934 0.71852 0.0
C1040 C 0.14158 0.53301 0.71755 0.0
C1041 C 0.14746 0.53196 0.76907 0.0
C1042 C 0.12352 0.539 0.7046 0.0
C1043 C 0.12249 0.55919 0.69421 0.0
C1044 C 0.13945 0.57379 0.69682 0.0
C1045 C 0.15799 0.56729 0.70868 0.0
C1046 C 0.15914 0.54699 0.71871 0.0
H1047 H 0.1434 0.52915 0.78753 0.0
H1048 H 0.1644 0.53726 0.7683 0.0
H1049 H 0.13719 0.54511 0.76244 0.0
H1050 H 0.10985 0.52838 0.70329 0.0
H1051 H 0.10799 0.56376 0.68518 0.0
H1052 H 0.40833 0.17498 0.72557 0.0
H1053 H 0.443 0.179 0.74466 0.0
H1054 H 0.46682 0.12382 0.70784 0.0
H1055 H 0.43246 0.12019 0.68806 0.0
H1056 H 0.46105 0.15198 0.77353 0.0
H1057 H 0.51595 0.16403 0.69967 0.0
H1058 H 0.48725 0.16567 0.69663 0.0
H1059 H 0.5005 0.14003 0.69641 0.0
C1060 C 0.4211 0.16395 0.7212 0.0
C1061 C 0.41769 0.1473 0.70525 0.0
C1062 C 0.44088 0.16624 0.73217 0.0
C1063 C 0.45761 0.15186 0.72753 0.0
C1064 C 0.45437 0.13546 0.71127 0.0
H1065 H 0.56156 0.11729 0.8185 0.0
H1066 H 0.52699 0.12159 0.79925 0.0
C1067 C 0.43467 0.13334 0.70003 0.0
C1068 C 0.47782 0.15304 0.74096 0.0
H1069 H 0.53219 0.15361 0.73555 0.0
C1070 C 0.47661 0.1526 0.76522 0.0
C1071 C 0.49811 0.15415 0.73017 0.0
C1072 C 0.50054 0.15623 0.7043 0.0
C1073 C 0.49513 0.15265 0.77896 0.0
C1074 C 0.51543 0.15248 0.76812 0.0
C1075 C 0.51663 0.15351 0.74388 0.0
C1076 C 0.53568 0.15084 0.78143 0.0
C1077 C 0.49269 0.15313 0.80492 0.0
C1078 C 0.55217 0.16571 0.77767 0.0
C1079 C 0.57206 0.16305 0.7883 0.0
C1080 C 0.57582 0.14554 0.80304 0.0
C1081 C 0.55907 0.13109 0.80746 0.0
C1082 C 0.53925 0.13358 0.79654 0.0
H1083 H 0.47716 0.16039 0.81009 0.0
H1084 H 0.493 0.13649 0.81165 0.0
H1085 H 0.50584 0.1623 0.81323 0.0
H1086 H 0.5498 0.17914 0.76609 0.0
H1087 H 0.58465 0.17449 0.78459 0.0
H1088 H 0.6763 0.09272 0.76585 0.0
H1089 H 0.68475 0.0597 0.74502 0.0
H1090 H 0.66264 0.02239 0.80297 0.0
H1091 H 0.65402 0.05527 0.82404 0.0
H1092 H 0.70708 0.01107 0.77089 0.0
H1093 H 0.62627 0.01931 0.73061 0.0
H1094 H 0.64286 0.0426 0.73502 0.0
H1095 H 0.63137 0.02919 0.75943 0.0
C1096 C 0.67362 0.07752 0.77441 0.0
C1097 C 0.66422 0.07663 0.79652 0.0
C1098 C 0.67855 0.05871 0.76249 0.0
C1099 C 0.67427 0.03876 0.77252 0.0
C1100 C 0.66612 0.03774 0.79507 0.0
H1101 H 0.67336 0.90625 0.73862 0.0
H1102 H 0.68129 0.94125 0.75507 0.0
C1103 C 0.66114 0.05654 0.80702 0.0
C1104 C 0.67562 0.01912 0.75848 0.0
H1105 H 0.6459 0.98845 0.72185 0.0
C1106 C 0.69385 0.00611 0.75999 0.0
C1107 C 0.65838 0.01298 0.74417 0.0
C1108 C 0.63853 0.02664 0.74207 0.0
C1109 C 0.69508 0.98671 0.74774 0.0
C1110 C 0.6774 0.98009 0.73414 0.0
C1111 C 0.65947 0.99354 0.7322 0.0
C1112 C 0.6762 0.95867 0.72317 0.0
C1113 C 0.71527 0.97355 0.74945 0.0
C1114 C 0.6707 0.95675 0.69971 0.0
C1115 C 0.66575 0.93673 0.69031 0.0
C1116 C 0.66624 0.91827 0.70422 0.0
C1117 C 0.67288 0.92012 0.72739 0.0
C1118 C 0.67763 0.94015 0.73681 0.0
H1119 H 0.72937 0.98381 0.75328 0.0
H1120 H 0.7136 0.96189 0.76383 0.0
H1121 H 0.71836 0.96455 0.73323 0.0
H1122 H 0.66941 0.97086 0.68889 0.0
H1123 H 0.6608 0.93585 0.67238 0.0
H1124 H 0.93563 0.65979 0.83498 0.0
H1125 H 0.97097 0.66934 0.82003 0.0
H1126 H 0.94365 0.68006 0.75248 0.0
H1127 H 0.90827 0.67118 0.76738 0.0
H1128 H 0.99069 0.64645 0.78815 0.0
H1129 H 0.98445 0.72948 0.75589 0.0
H1130 H 0.96478 0.71794 0.77509 0.0
H1131 H 0.96347 0.71303 0.74441 0.0
C1132 C 0.93707 0.66466 0.81706 0.0
C1133 C 0.91915 0.66458 0.80233 0.0
C1134 C 0.95727 0.67016 0.80856 0.0
C1135 C 0.95995 0.67566 0.7852 0.0
C1136 C 0.94194 0.67644 0.7707 0.0
H1137 H 0.0565 0.66268 0.68361 0.0
H1138 H 0.02434 0.67114 0.70593 0.0
C1139 C 0.92171 0.67114 0.77922 0.0
C1140 C 0.98173 0.67755 0.77521 0.0
H1141 H 0.01274 0.70783 0.73913 0.0
C1142 C 0.99568 0.6601 0.77786 0.0
C1143 C 0.9882 0.69532 0.76169 0.0
C1144 C 0.97449 0.71508 0.7593 0.0
C1145 C 0.01545 0.65944 0.76648 0.0
C1146 C 0.0215 0.67677 0.7522 0.0
C1147 C 0.00795 0.69456 0.75008 0.0
C1148 C 0.04123 0.67572 0.7382 0.0
C1149 C 0.02934 0.63977 0.76895 0.0
C1150 C 0.06136 0.67628 0.74888 0.0
C1151 C 0.07977 0.67143 0.73621 0.0
C1152 C 0.0783 0.66587 0.71267 0.0
C1153 C 0.05819 0.66673 0.70173 0.0
C1154 C 0.0398 0.67164 0.71442 0.0
H1155 H 0.02098 0.62656 0.77812 0.0
H1156 H 0.03446 0.63391 0.75168 0.0
H1157 H 0.04396 0.64392 0.77889 0.0
H1158 H 0.06271 0.67951 0.76723 0.0
H1159 H 0.09501 0.67107 0.74515 0.0
H1160 H 0.31554 0.09276 0.73789 0.0
H1161 H 0.30802 0.05934 0.75841 0.0
H1162 H 0.33609 0.02338 0.70249 0.0
H1163 H 0.34376 0.05664 0.68178 0.0
H1164 H 0.28644 0.01715 0.74402 0.0
H1165 H 0.37364 0.01374 0.76344 0.0
H1166 H 0.36044 0.03805 0.75435 0.0
H1167 H 0.36661 0.01761 0.73356 0.0
C1168 C 0.31976 0.07774 0.72971 0.0
C1169 C 0.33056 0.07739 0.70833 0.0
C1170 C 0.31536 0.05868 0.74144 0.0
C1171 C 0.32173 0.03903 0.73201 0.0
C1172 C 0.33119 0.03848 0.71004 0.0
H1173 H 0.31185 0.90748 0.76983 0.0
H1174 H 0.30488 0.94311 0.75434 0.0
C1175 C 0.33556 0.05751 0.69825 0.0
C1176 C 0.32078 0.01939 0.74617 0.0
H1177 H 0.35293 0.98374 0.77415 0.0
C1178 C 0.3009 0.00983 0.75075 0.0
C1179 C 0.33968 0.01025 0.75526 0.0
C1180 C 0.36133 0.02046 0.75162 0.0
C1181 C 0.29956 0.99076 0.7636 0.0
C1182 C 0.3186 0.98112 0.77183 0.0
C1183 C 0.33835 0.99115 0.76783 0.0
C1184 C 0.31888 0.95995 0.78335 0.0
C1185 C 0.27785 0.98112 0.76827 0.0
C1186 C 0.3288 0.95757 0.80498 0.0
C1187 C 0.33304 0.93718 0.81381 0.0
C1188 C 0.32753 0.91881 0.80106 0.0
C1189 C 0.31636 0.92128 0.78008 0.0
C1190 C 0.31218 0.94167 0.77126 0.0
H1191 H 0.26499 0.99337 0.76721 0.0
H1192 H 0.27447 0.96867 0.75508 0.0
H1193 H 0.2773 0.97347 0.7856 0.0
H1194 H 0.33417 0.97151 0.81452 0.0
H1195 H 0.34156 0.93587 0.83006 0.0
H1196 H 0.08472 0.29708 0.78676 0.0
H1197 H 0.05117 0.28589 0.76839 0.0
H1198 H 0.01936 0.34111 0.79737 0.0
H1199 H 0.05232 0.35149 0.81685 0.0
H1200 H 0.99298 0.30921 0.79646 0.0
H1201 H 0.03253 0.314 0.71042 0.0
H1202 H 0.04324 0.29393 0.72934 0.0
H1203 H 0.04596 0.32184 0.73663 0.0
C1204 C 0.07041 0.30654 0.78954 0.0
C1205 C 0.07114 0.32528 0.803 0.0
C1206 C 0.05132 0.30026 0.77886 0.0
C1207 C 0.0329 0.31305 0.78082 0.0
C1208 C 0.03336 0.33102 0.79544 0.0
H1209 H 0.93792 0.35107 0.68823 0.0
H1210 H 0.97039 0.34059 0.70864 0.0
C1211 C 0.05224 0.33697 0.80659 0.0
C1212 C 0.01352 0.30897 0.7666 0.0
H1213 H 0.99567 0.30787 0.71079 0.0
C1214 C 0.99354 0.30871 0.77772 0.0
C1215 C 0.01431 0.30835 0.74211 0.0
C1216 C 0.03511 0.30972 0.72887 0.0
C1217 C 0.97435 0.30944 0.76513 0.0
C1218 C 0.97515 0.3093 0.74063 0.0
C1219 C 0.9951 0.30797 0.72955 0.0
C1220 C 0.95591 0.31357 0.72624 0.0
C1221 C 0.95361 0.31195 0.77829 0.0
C1222 C 0.93711 0.30142 0.72859 0.0
C1223 C 0.91832 0.30778 0.71737 0.0
C1224 C 0.91826 0.32594 0.70298 0.0
C1225 C 0.9375 0.337 0.69918 0.0
C1226 C 0.95608 0.33099 0.71086 0.0
H1227 H 0.95635 0.31675 0.79656 0.0
H1228 H 0.94317 0.32416 0.77006 0.0
H1229 H 0.94495 0.29644 0.77844 0.0
H1230 H 0.93677 0.28745 0.73967 0.0
H1231 H 0.90374 0.2988 0.72033 0.0
H1232 H 0.38328 0.06329 0.31469 0.0
H1233 H 0.38308 0.02854 0.29511 0.0
H1234 H 0.32316 0.04461 0.26229 0.0
H1235 H 0.32355 0.07957 0.28121 0.0
H1236 H 0.35605 0.99496 0.29473 0.0
H1237 H 0.36014 0.03063 0.2071 0.0
H1238 H 0.36405 0.0462 0.23303 0.0
H1239 H 0.33742 0.0398 0.22329 0.0
C1240 C 0.36995 0.05933 0.30348 0.0
C1241 C 0.35355 0.07426 0.29928 0.0
C1242 C 0.36989 0.0395 0.29225 0.0
C1243 C 0.3534 0.03424 0.27676 0.0
C1244 C 0.33639 0.04862 0.2736 0.0
H1245 H 0.32734 0.90674 0.2246 0.0
H1246 H 0.32613 0.9415 0.24387 0.0
C1247 C 0.33655 0.06852 0.28459 0.0
C1248 C 0.35413 0.01386 0.26365 0.0
H1249 H 0.35314 0.99318 0.20899 0.0
C1250 C 0.35549 0.99456 0.27598 0.0
C1251 C 0.35386 0.0134 0.23917 0.0
C1252 C 0.35402 0.03362 0.22486 0.0
C1253 C 0.35612 0.97477 0.26451 0.0
C1254 C 0.35474 0.97427 0.24007 0.0
C1255 C 0.35385 0.99359 0.22773 0.0
C1256 C 0.35449 0.95386 0.227 0.0
C1257 C 0.35871 0.95464 0.27871 0.0
C1258 C 0.37012 0.94972 0.21012 0.0
C1259 C 0.37062 0.92998 0.19871 0.0
C1260 C 0.35553 0.91403 0.20409 0.0
C1261 C 0.33935 0.9186 0.22027 0.0
C1262 C 0.33874 0.93839 0.23146 0.0
H1263 H 0.36585 0.9581 0.29591 0.0
H1264 H 0.34275 0.94733 0.28163 0.0
H1265 H 0.36898 0.94277 0.2697 0.0
H1266 H 0.38231 0.96154 0.20626 0.0
H1267 H 0.38328 0.92695 0.18635 0.0
H1268 H 0.91343 0.3198 0.2817 0.0
H1269 H 0.94891 0.31736 0.26414 0.0
H1270 H 0.96752 0.37584 0.29845 0.0
H1271 H 0.93232 0.37791 0.31679 0.0
H1272 H 0.96567 0.34412 0.23435 0.0
H1273 H 0.01927 0.33997 0.3104 0.0
H1274 H 0.99068 0.33644 0.31272 0.0
H1275 H 0.00206 0.36293 0.31152 0.0
C1276 C 0.92523 0.33191 0.28586 0.0
C1277 C 0.92011 0.34902 0.30066 0.0
C1278 C 0.94548 0.33052 0.27578 0.0
C1279 C 0.96098 0.3463 0.28012 0.0
C1280 C 0.95605 0.36317 0.29529 0.0
H1281 H 0.06568 0.37957 0.18851 0.0
H1282 H 0.03114 0.37612 0.20806 0.0
C1283 C 0.93588 0.36439 0.30569 0.0
C1284 C 0.9816 0.34594 0.26737 0.0
H1285 H 0.03577 0.34882 0.27426 0.0
C1286 C 0.98102 0.34493 0.2431 0.0
C1287 C 0.00163 0.34673 0.27877 0.0
C1288 C 0.00349 0.34635 0.30479 0.0
C1289 C -0.00014 0.34508 0.2299 0.0
C1290 C 0.01983 0.347 0.24125 0.0
C1291 C 0.02044 0.34759 0.26554 0.0
C1292 C 0.04032 0.34845 0.22838 0.0
C1293 C -0.00188 0.34283 0.20398 0.0
C1294 C 0.0571 0.33428 0.23353 0.0
C1295 C 0.07695 0.33647 0.22271 0.0
C1296 C 0.0804 0.35281 0.20639 0.0
C1297 C 0.06344 0.36667 0.2008 0.0
C1298 C 0.04365 0.36465 0.21189 0.0
H1299 H 0.98299 0.33473 0.19891 0.0
H1300 H -0.00189 0.35899 0.19599 0.0
H1301 H 0.01179 0.3336 0.1968 0.0
H1302 H 0.05492 0.32168 0.24619 0.0
H1303 H 0.0897 0.32552 0.22736 0.0
H1304 H 0.62135 0.93149 0.32533 0.0
H1305 H 0.62289 0.96748 0.30851 0.0
H1306 H 0.66228 0.94367 0.25293 0.0
H1307 H 0.66116 0.90788 0.26968 0.0
H1308 H 0.67623 0.98276 0.27019 0.0
H1309 H 0.5892 0.98395 0.25018 0.0
H1310 H 0.59558 0.97917 0.28003 0.0
H1311 H 0.60312 0.95983 0.25851 0.0
C1312 C 0.63051 0.93396 0.30966 0.0
C1313 C 0.64096 0.91675 0.29875 0.0
C1314 C 0.63125 0.95449 0.3 0.0
C1315 C 0.64236 0.95811 0.27925 0.0
C1316 C 0.65351 0.94118 0.26887 0.0
H1317 H 0.62521 0.06358 0.18329 0.0
H1318 H 0.628 0.02834 0.20163 0.0
C1319 C 0.65281 0.92071 0.27849 0.0
C1320 C 0.64199 0.97934 0.26787 0.0
H1321 H 0.60865 0.01562 0.2423 0.0
C1322 C 0.66147 0.98999 0.26411 0.0
C1323 C 0.62273 0.98849 0.25959 0.0
C1324 C 0.60147 0.97723 0.26205 0.0
C1325 C 0.66219 0.0097 0.25248 0.0
C1326 C 0.64287 0.01913 0.24476 0.0
C1327 C 0.62342 0.00838 0.24833 0.0
C1328 C 0.64239 0.04026 0.23316 0.0
C1329 C 0.68366 0.02004 0.24816 0.0
C1330 C 0.64958 0.05858 0.2448 0.0
C1331 C 0.64811 0.07868 0.23436 0.0
C1332 C 0.63921 0.08089 0.21212 0.0
C1333 C 0.6322 0.06245 0.20039 0.0
C1334 C 0.63373 0.04231 0.21086 0.0
H1335 H 0.69693 0.00821 0.24923 0.0
H1336 H 0.68415 0.02783 0.2309 0.0
H1337 H 0.68654 0.0325 0.26149 0.0
H1338 H 0.6559 0.05742 0.2622 0.0
H1339 H 0.65356 0.09254 0.24397 0.0
H1340 H 0.06705 0.60637 0.31481 0.0
H1341 H 0.03159 0.60633 0.29668 0.0
H1342 H 0.04624 0.66617 0.2629 0.0
H1343 H 0.08184 0.66596 0.28029 0.0
H1344 H -0.00213 0.63309 0.29747 0.0
H1345 H 0.03042 0.62916 0.20851 0.0
H1346 H 0.04694 0.6254 0.23377 0.0
H1347 H 0.04014 0.65197 0.22415 0.0
C1348 C 0.06263 0.6196 0.30367 0.0
C1349 C 0.07732 0.63603 0.29873 0.0
C1350 C 0.0424 0.61953 0.29328 0.0
C1351 C 0.03651 0.63594 0.27793 0.0
C1352 C 0.0507 0.65298 0.27408 0.0
H1353 H 0.90744 0.66295 0.23088 0.0
H1354 H 0.94254 0.66341 0.24951 0.0
C1355 C 0.07099 0.65292 0.28418 0.0
C1356 C 0.01568 0.63515 0.26568 0.0
H1357 H 0.99315 0.63676 0.2119 0.0
C1358 C -0.00318 0.63378 0.27876 0.0
C1359 C 0.01437 0.63559 0.24123 0.0
C1360 C 0.03406 0.63538 0.22609 0.0
C1361 C 0.97664 0.63335 0.26809 0.0
C1362 C 0.9753 0.63498 0.2437 0.0
C1363 C 0.99418 0.63585 0.2306 0.0
C1364 C 0.95447 0.63552 0.23139 0.0
C1365 C 0.95702 0.63071 0.28307 0.0
C1366 C 0.94993 0.62041 0.21408 0.0
C1367 C 0.93004 0.6204 0.20301 0.0
C1368 C 0.91428 0.63543 0.20918 0.0
C1369 C 0.91915 0.651 0.22594 0.0
C1370 C 0.93914 0.65117 0.23677 0.0
H1371 H 0.96103 0.62319 0.29994 0.0
H1372 H 0.95002 0.6467 0.28667 0.0
H1373 H 0.9447 0.62075 0.27435 0.0
H1374 H 0.96162 0.6083 0.20951 0.0
H1375 H 0.92677 0.60818 0.1902 0.0
loop_
_geom_bond_atom_site_label_1
_geom_bond_atom_site_label_2
_geom_bond_distance
_geom_bond_site_symmetry_2
_ccdc_geom_bond_type
O0 Cd1 2.223 . S
O0 C8 1.315 . S
Cd1 O0 2.223 . S
Cd1 O4 2.297 . S
Cd1 O5 2.439 . S
Cd1 O11 2.240 . S
Cd2 O3 2.240 . S
Cd2 O10 2.223 . S
Cd2 O12 2.297 . S
Cd2 O13 2.439 . S
O3 Cd2 2.240 . S
O3 C8 1.279 . S
O4 Cd1 2.297 . S
O4 C6 1.247 . S
O5 Cd1 2.439 . S
O5 C6 1.208 . S
C6 O4 1.247 . S
C6 O5 1.208 . S
C7 O12 1.247 . S
C7 O13 1.208 . S
C8 O0 1.315 . S
C8 O3 1.279 . S
C9 O10 1.315 . S
C9 O11 1.279 . S
O10 Cd2 2.223 . S
O10 C9 1.315 . S
O11 Cd1 2.240 . S
O11 C9 1.279 . S
O12 Cd2 2.297 . S
O12 C7 1.247 . S
O13 Cd2 2.439 . S
O13 C7 1.208 . S
O14 Cd15 2.223 . S
O14 C22 1.315 . S
Cd15 O14 2.223 . S
Cd15 O18 2.297 . S
Cd15 O19 2.439 . S
Cd15 O25 2.240 . S
Cd16 O17 2.240 . S
Cd16 O24 2.223 . S
Cd16 O26 2.297 . S
Cd16 O27 2.439 . S
O17 Cd16 2.240 . S
O17 C22 1.279 . S
O18 Cd15 2.297 . S
O18 C20 1.247 . S
O19 Cd15 2.439 . S
O19 C20 1.208 . S
C20 O18 1.247 . S
C20 O19 1.208 . S
C21 O26 1.247 . S
C21 O27 1.208 . S
C22 O14 1.315 . S
C22 O17 1.279 . S
C23 O24 1.315 . S
C23 O25 1.279 . S
O24 Cd16 2.223 . S
O24 C23 1.315 . S
O25 Cd15 2.240 . S
O25 C23 1.279 . S
O26 Cd16 2.297 . S
O26 C21 1.247 . S
O27 Cd16 2.439 . S
O27 C21 1.208 . S
O28 Cd29 2.223 . S
O28 C36 1.315 . S
Cd29 O28 2.223 . S
Cd29 O32 2.297 . S
Cd29 O33 2.439 . S
Cd29 O39 2.240 . S
Cd30 O31 2.240 . S
Cd30 O38 2.223 . S
Cd30 O40 2.297 . S
Cd30 O41 2.439 . S
O31 Cd30 2.240 . S
O31 C36 1.279 . S
O32 Cd29 2.297 . S
O32 C34 1.247 . S
O33 Cd29 2.439 . S
O33 C34 1.208 . S
C34 O32 1.247 . S
C34 O33 1.208 . S
C35 O40 1.247 . S
C35 O41 1.208 . S
C36 O28 1.315 . S
C36 O31 1.279 . S
C37 O38 1.315 . S
C37 O39 1.279 . S
O38 Cd30 2.223 . S
O38 C37 1.315 . S
O39 Cd29 2.240 . S
O39 C37 1.279 . S
O40 Cd30 2.297 . S
O40 C35 1.247 . S
O41 Cd30 2.439 . S
O41 C35 1.208 . S
O42 Cd43 2.223 . S
O42 C50 1.315 . S
Cd43 O42 2.223 . S
Cd43 O46 2.297 . S
Cd43 O47 2.439 . S
Cd43 O53 2.240 . S
Cd44 O45 2.240 . S
Cd44 O52 2.223 . S
Cd44 O54 2.297 . S
Cd44 O55 2.439 . S
O45 Cd44 2.240 . S
O45 C50 1.279 . S
O46 Cd43 2.297 . S
O46 C48 1.247 . S
O47 Cd43 2.439 . S
O47 C48 1.208 . S
C48 O46 1.247 . S
C48 O47 1.208 . S
C49 O54 1.247 . S
C49 O55 1.208 . S
C50 O42 1.315 . S
C50 O45 1.279 . S
C51 O52 1.315 . S
C51 O53 1.279 . S
O52 Cd44 2.223 . S
O52 C51 1.315 . S
O53 Cd43 2.240 . S
O53 C51 1.279 . S
O54 Cd44 2.297 . S
O54 C49 1.247 . S
O55 Cd44 2.439 . S
O55 C49 1.208 . S
O56 Cd57 2.223 . S
O56 C64 1.315 . S
Cd57 O56 2.223 . S
Cd57 O60 2.297 . S
Cd57 O61 2.439 . S
Cd57 O67 2.240 . S
Cd58 O59 2.240 . S
Cd58 O66 2.223 . S
Cd58 O68 2.297 . S
Cd58 O69 2.439 . S
O59 Cd58 2.240 . S
O59 C64 1.279 . S
O60 Cd57 2.297 . S
O60 C62 1.247 . S
O61 Cd57 2.439 . S
O61 C62 1.208 . S
C62 O60 1.247 . S
C62 O61 1.208 . S
C63 O68 1.247 . S
C63 O69 1.208 . S
C64 O56 1.315 . S
C64 O59 1.279 . S
C65 O66 1.315 . S
C65 O67 1.279 . S
O66 Cd58 2.223 . S
O66 C65 1.315 . S
O67 Cd57 2.240 . S
O67 C65 1.279 . S
O68 Cd58 2.297 . S
O68 C63 1.247 . S
O69 Cd58 2.439 . S
O69 C63 1.208 . S
O70 Cd71 2.223 . S
O70 C78 1.315 . S
Cd71 O70 2.223 . S
Cd71 O74 2.297 . S
Cd71 O75 2.439 . S
Cd71 O81 2.240 . S
Cd72 O73 2.240 . S
Cd72 O80 2.223 . S
Cd72 O82 2.297 . S
Cd72 O83 2.439 . S
O73 Cd72 2.240 . S
O73 C78 1.279 . S
O74 Cd71 2.297 . S
O74 C76 1.247 . S
O75 Cd71 2.439 . S
O75 C76 1.208 . S
C76 O74 1.247 . S
C76 O75 1.208 . S
C77 O82 1.247 . S
C77 O83 1.208 . S
C78 O70 1.315 . S
C78 O73 1.279 . S
C79 O80 1.315 . S
C79 O81 1.279 . S
O80 Cd72 2.223 . S
O80 C79 1.315 . S
O81 Cd71 2.240 . S
O81 C79 1.279 . S
O82 Cd72 2.297 . S
O82 C77 1.247 . S
O83 Cd72 2.439 . S
O83 C77 1.208 . S
O84 Cd85 2.223 . S
O84 C92 1.315 . S
Cd85 O84 2.223 . S
Cd85 O88 2.297 . S
Cd85 O89 2.439 . S
Cd85 O95 2.240 . S
Cd86 O87 2.240 . S
Cd86 O94 2.223 . S
Cd86 O96 2.297 . S
Cd86 O97 2.439 . S
O87 Cd86 2.240 . S
O87 C92 1.279 . S
O88 Cd85 2.297 . S
O88 C90 1.247 . S
O89 Cd85 2.439 . S
O89 C90 1.208 . S
C90 O88 1.247 . S
C90 O89 1.208 . S
C91 O96 1.247 . S
C91 O97 1.208 . S
C92 O84 1.315 . S
C92 O87 1.279 . S
C93 O94 1.315 . S
C93 O95 1.279 . S
O94 Cd86 2.223 . S
O94 C93 1.315 . S
O95 Cd85 2.240 . S
O95 C93 1.279 . S
O96 Cd86 2.297 . S
O96 C91 1.247 . S
O97 Cd86 2.439 . S
O97 C91 1.208 . S
O98 Cd99 2.223 . S
O98 C106 1.315 . S
Cd99 O98 2.223 . S
Cd99 O102 2.297 . S
Cd99 O103 2.439 . S
Cd99 O109 2.240 . S
Cd100 O101 2.240 . S
Cd100 O108 2.223 . S
Cd100 O110 2.297 . S
Cd100 O111 2.439 . S
O101 Cd100 2.240 . S
O101 C106 1.279 . S
O102 Cd99 2.297 . S
O102 C104 1.247 . S
O103 Cd99 2.439 . S
O103 C104 1.208 . S
C104 O102 1.247 . S
C104 O103 1.208 . S
C105 O110 1.247 . S
C105 O111 1.208 . S
C106 O98 1.315 . S
C106 O101 1.279 . S
C107 O108 1.315 . S
C107 O109 1.279 . S
O108 Cd100 2.223 . S
O108 C107 1.315 . S
O109 Cd99 2.240 . S
O109 C107 1.279 . S
O110 Cd100 2.297 . S
O110 C105 1.247 . S
O111 Cd100 2.439 . S
O111 C105 1.208 . S
O112 Cd113 2.223 . S
O112 C120 1.315 . S
Cd113 O112 2.223 . S
Cd113 O116 2.297 . S
Cd113 O117 2.439 . S
Cd113 O123 2.240 . S
Cd114 O115 2.240 . S
Cd114 O122 2.223 . S
Cd114 O124 2.297 . S
Cd114 O125 2.439 . S
O115 Cd114 2.240 . S
O115 C120 1.279 . S
O116 Cd113 2.297 . S
O116 C118 1.247 . S
O117 Cd113 2.439 . S
O117 C118 1.208 . S
C118 O116 1.247 . S
C118 O117 1.208 . S
C119 O124 1.247 . S
C119 O125 1.208 . S
C120 O112 1.315 . S
C120 O115 1.279 . S
C121 O122 1.315 . S
C121 O123 1.279 . S
O122 Cd114 2.223 . S
O122 C121 1.315 . S
O123 Cd113 2.240 . S
O123 C121 1.279 . S
O124 Cd114 2.297 . S
O124 C119 1.247 . S
O125 Cd114 2.439 . S
O125 C119 1.208 . S
O126 Cd127 2.223 . S
O126 C134 1.315 . S
Cd127 O126 2.223 . S
Cd127 O130 2.297 . S
Cd127 O131 2.439 . S
Cd127 O137 2.240 . S
Cd128 O129 2.240 . S
Cd128 O136 2.223 . S
Cd128 O138 2.297 . S
Cd128 O139 2.439 . S
O129 Cd128 2.240 . S
O129 C134 1.279 . S
O130 Cd127 2.297 . S
O130 C132 1.247 . S
O131 Cd127 2.439 . S
O131 C132 1.208 . S
C132 O130 1.247 . S
C132 O131 1.208 . S
C133 O138 1.247 . S
C133 O139 1.208 . S
C134 O126 1.315 . S
C134 O129 1.279 . S
C135 O136 1.315 . S
C135 O137 1.279 . S
O136 Cd128 2.223 . S
O136 C135 1.315 . S
O137 Cd127 2.240 . S
O137 C135 1.279 . S
O138 Cd128 2.297 . S
O138 C133 1.247 . S
O139 Cd128 2.439 . S
O139 C133 1.208 . S
O140 Cd141 2.223 . S
O140 C148 1.315 . S
Cd141 O140 2.223 . S
Cd141 O144 2.297 . S
Cd141 O145 2.439 . S
Cd141 O151 2.240 . S
Cd142 O143 2.240 . S
Cd142 O150 2.223 . S
Cd142 O152 2.297 . S
Cd142 O153 2.439 . S
O143 Cd142 2.240 . S
O143 C148 1.279 . S
O144 Cd141 2.297 . S
O144 C146 1.247 . S
O145 Cd141 2.439 . S
O145 C146 1.208 . S
C146 O144 1.247 . S
C146 O145 1.208 . S
C147 O152 1.247 . S
C147 O153 1.208 . S
C148 O140 1.315 . S
C148 O143 1.279 . S
C149 O150 1.315 . S
C149 O151 1.279 . S
O150 Cd142 2.223 . S
O150 C149 1.315 . S
O151 Cd141 2.240 . S
O151 C149 1.279 . S
O152 Cd142 2.297 . S
O152 C147 1.247 . S
O153 Cd142 2.439 . S
O153 C147 1.208 . S
O154 Cd155 2.223 . S
O154 C162 1.315 . S
Cd155 O154 2.223 . S
Cd155 O158 2.297 . S
Cd155 O159 2.439 . S
Cd155 O165 2.240 . S
Cd156 O157 2.240 . S
Cd156 O164 2.223 . S
Cd156 O166 2.297 . S
Cd156 O167 2.439 . S
O157 Cd156 2.240 . S
O157 C162 1.279 . S
O158 Cd155 2.297 . S
O158 C160 1.247 . S
O159 Cd155 2.439 . S
O159 C160 1.208 . S
C160 O158 1.247 . S
C160 O159 1.208 . S
C161 O166 1.247 . S
C161 O167 1.208 . S
C162 O154 1.315 . S
C162 O157 1.279 . S
C163 O164 1.315 . S
C163 O165 1.279 . S
O164 Cd156 2.223 . S
O164 C163 1.315 . S
O165 Cd155 2.240 . S
O165 C163 1.279 . S
O166 Cd156 2.297 . S
O166 C161 1.247 . S
O167 Cd156 2.439 . S
O167 C161 1.208 . S
O168 Cd169 2.223 . S
O168 C176 1.315 . S
Cd169 O168 2.223 . S
Cd169 O172 2.297 . S
Cd169 O173 2.439 . S
Cd169 O179 2.240 . S
Cd170 O171 2.240 . S
Cd170 O178 2.223 . S
Cd170 O180 2.297 . S
Cd170 O181 2.439 . S
O171 Cd170 2.240 . S
O171 C176 1.279 . S
O172 Cd169 2.297 . S
O172 C174 1.247 . S
O173 Cd169 2.439 . S
O173 C174 1.208 . S
C174 O172 1.247 . S
C174 O173 1.208 . S
C175 O180 1.247 . S
C175 O181 1.208 . S
C176 O168 1.315 . S
C176 O171 1.279 . S
C177 O178 1.315 . S
C177 O179 1.279 . S
O178 Cd170 2.223 . S
O178 C177 1.315 . S
O179 Cd169 2.240 . S
O179 C177 1.279 . S
O180 Cd170 2.297 . S
O180 C175 1.247 . S
O181 Cd170 2.439 . S
O181 C175 1.208 . S
O182 Cd183 2.223 . S
O182 C190 1.315 . S
Cd183 O182 2.223 . S
Cd183 O186 2.297 . S
Cd183 O187 2.439 . S
Cd183 O193 2.240 . S
Cd184 O185 2.240 . S
Cd184 O192 2.223 . S
Cd184 O194 2.297 . S
Cd184 O195 2.439 . S
O185 Cd184 2.240 . S
O185 C190 1.279 . S
O186 Cd183 2.297 . S
O186 C188 1.247 . S
O187 Cd183 2.439 . S
O187 C188 1.208 . S
C188 O186 1.247 . S
C188 O187 1.208 . S
C189 O194 1.247 . S
C189 O195 1.208 . S
C190 O182 1.315 . S
C190 O185 1.279 . S
C191 O192 1.315 . S
C191 O193 1.279 . S
O192 Cd184 2.223 . S
O192 C191 1.315 . S
O193 Cd183 2.240 . S
O193 C191 1.279 . S
O194 Cd184 2.297 . S
O194 C189 1.247 . S
O195 Cd184 2.439 . S
O195 C189 1.208 . S
O196 Cd197 2.223 . S
O196 C204 1.315 . S
Cd197 O196 2.223 . S
Cd197 O200 2.297 . S
Cd197 O201 2.439 . S
Cd197 O207 2.240 . S
Cd198 O199 2.240 . S
Cd198 O206 2.223 . S
Cd198 O208 2.297 . S
Cd198 O209 2.439 . S
O199 Cd198 2.240 . S
O199 C204 1.279 . S
O200 Cd197 2.297 . S
O200 C202 1.247 . S
O201 Cd197 2.439 . S
O201 C202 1.208 . S
C202 O200 1.247 . S
C202 O201 1.208 . S
C203 O208 1.247 . S
C203 O209 1.208 . S
C204 O196 1.315 . S
C204 O199 1.279 . S
C205 O206 1.315 . S
C205 O207 1.279 . S
O206 Cd198 2.223 . S
O206 C205 1.315 . S
O207 Cd197 2.240 . S
O207 C205 1.279 . S
O208 Cd198 2.297 . S
O208 C203 1.247 . S
O209 Cd198 2.439 . S
O209 C203 1.208 . S
O210 Cd211 2.223 . S
O210 C218 1.315 . S
Cd211 O210 2.223 . S
Cd211 O214 2.297 . S
Cd211 O215 2.439 . S
Cd211 O221 2.240 . S
Cd212 O213 2.240 . S
Cd212 O220 2.223 . S
Cd212 O222 2.297 . S
Cd212 O223 2.439 . S
O213 Cd212 2.240 . S
O213 C218 1.279 . S
O214 Cd211 2.297 . S
O214 C216 1.247 . S
O215 Cd211 2.439 . S
O215 C216 1.208 . S
C216 O214 1.247 . S
C216 O215 1.208 . S
C217 O222 1.247 . S
C217 O223 1.208 . S
C218 O210 1.315 . S
C218 O213 1.279 . S
C219 O220 1.315 . S
C219 O221 1.279 . S
O220 Cd212 2.223 . S
O220 C219 1.315 . S
O221 Cd211 2.240 . S
O221 C219 1.279 . S
O222 Cd212 2.297 . S
O222 C217 1.247 . S
O223 Cd212 2.439 . S
O223 C217 1.208 . S
H224 C232 0.929 . S
H225 C234 0.930 . S
H226 C236 0.930 . S
H227 C239 0.929 . S
H228 C242 0.930 . S
H229 C244 0.960 . S
H230 C244 0.960 . S
H231 C244 0.960 . S
C232 H224 0.929 . S
C232 C233 1.377 . S
C232 C234 1.384 . S
C233 C232 1.377 . S
C233 C239 1.390 . S
C234 H225 0.930 . S
C234 C232 1.384 . S
C234 C235 1.372 . S
C235 C234 1.372 . S
C235 C236 1.400 . S
C235 C240 1.490 . S
C236 H226 0.930 . S
C236 C235 1.400 . S
C236 C239 1.386 . S
H237 C253 0.930 . S
H238 C254 0.931 . S
C239 H227 0.929 . S
C239 C233 1.390 . S
C239 C236 1.386 . S
C240 C235 1.490 . S
C240 C242 1.395 . S
C240 C243 1.403 . S
H241 C247 0.930 . S
C242 H228 0.930 . S
C242 C240 1.395 . S
C242 C245 1.403 . S
C243 C240 1.403 . S
C243 C244 1.524 . S
C243 C247 1.400 . S
C244 H229 0.960 . S
C244 H230 0.960 . S
C244 H231 0.960 . S
C244 C243 1.524 . S
C245 C242 1.403 . S
C245 C246 1.392 . S
C245 C249 1.495 . S
C246 C245 1.392 . S
C246 C247 1.385 . S
C246 C248 1.478 . S
C247 H241 0.930 . S
C247 C243 1.400 . S
C247 C246 1.385 . S
C248 C246 1.478 . S
C248 C250 1.381 . S
C248 C254 1.383 . S
C249 C245 1.495 . S
C249 H255 0.959 . S
C249 H256 0.961 . S
C249 H257 0.960 . S
C250 C248 1.381 . S
C250 C251 1.394 . S
C250 H258 0.930 . S
C251 C250 1.394 . S
C251 C252 1.383 . S
C251 H259 0.929 . S
C252 C251 1.383 . S
C252 C253 1.377 . S
C253 H237 0.930 . S
C253 C252 1.377 . S
C253 C254 1.379 . S
C254 H238 0.931 . S
C254 C248 1.383 . S
C254 C253 1.379 . S
H255 C249 0.959 . S
H256 C249 0.961 . S
H257 C249 0.960 . S
H258 C250 0.930 . S
H259 C251 0.929 . S
H260 C268 0.929 . S
H261 C270 0.930 . S
H262 C272 0.930 . S
H263 C275 0.929 . S
H264 C278 0.930 . S
H265 C280 0.960 . S
H266 C280 0.960 . S
H267 C280 0.960 . S
C268 H260 0.929 . S
C268 C269 1.377 . S
C268 C270 1.384 . S
C269 C268 1.377 . S
C269 C275 1.390 . S
C270 H261 0.930 . S
C270 C268 1.384 . S
C270 C271 1.372 . S
C271 C270 1.372 . S
C271 C272 1.400 . S
C271 C276 1.490 . S
C272 H262 0.930 . S
C272 C271 1.400 . S
C272 C275 1.386 . S
H273 C289 0.930 . S
H274 C290 0.931 . S
C275 H263 0.929 . S
C275 C269 1.390 . S
C275 C272 1.386 . S
C276 C271 1.490 . S
C276 C278 1.395 . S
C276 C279 1.403 . S
H277 C283 0.930 . S
C278 H264 0.930 . S
C278 C276 1.395 . S
C278 C281 1.403 . S
C279 C276 1.403 . S
C279 C280 1.524 . S
C279 C283 1.400 . S
C280 H265 0.960 . S
C280 H266 0.960 . S
C280 H267 0.960 . S
C280 C279 1.524 . S
C281 C278 1.403 . S
C281 C282 1.392 . S
C281 C285 1.495 . S
C282 C281 1.392 . S
C282 C283 1.385 . S
C282 C284 1.478 . S
C283 H277 0.930 . S
C283 C279 1.400 . S
C283 C282 1.385 . S
C284 C282 1.478 . S
C284 C286 1.381 . S
C284 C290 1.383 . S
C285 C281 1.495 . S
C285 H291 0.959 . S
C285 H292 0.961 . S
C285 H293 0.960 . S
C286 C284 1.381 . S
C286 C287 1.394 . S
C286 H294 0.930 . S
C287 C286 1.394 . S
C287 C288 1.383 . S
C287 H295 0.929 . S
C288 C287 1.383 . S
C288 C289 1.377 . S
C289 H273 0.930 . S
C289 C288 1.377 . S
C289 C290 1.379 . S
C290 H274 0.931 . S
C290 C284 1.383 . S
C290 C289 1.379 . S
H291 C285 0.959 . S
H292 C285 0.961 . S
H293 C285 0.960 . S
H294 C286 0.930 . S
H295 C287 0.929 . S
H296 C304 0.929 . S
H297 C306 0.930 . S
H298 C308 0.930 . S
H299 C311 0.929 . S
H300 C314 0.930 . S
H301 C316 0.960 . S
H302 C316 0.960 . S
H303 C316 0.960 . S
C304 H296 0.929 . S
C304 C305 1.377 . S
C304 C306 1.384 . S
C305 C304 1.377 . S
C305 C311 1.390 . S
C306 H297 0.930 . S
C306 C304 1.384 . S
C306 C307 1.372 . S
C307 C306 1.372 . S
C307 C308 1.400 . S
C307 C312 1.490 . S
C308 H298 0.930 . S
C308 C307 1.400 . S
C308 C311 1.386 . S
H309 C325 0.930 . S
H310 C326 0.931 . S
C311 H299 0.929 . S
C311 C305 1.390 . S
C311 C308 1.386 . S
C312 C307 1.490 . S
C312 C314 1.395 . S
C312 C315 1.403 . S
H313 C319 0.930 . S
C314 H300 0.930 . S
C314 C312 1.395 . S
C314 C317 1.403 . S
C315 C312 1.403 . S
C315 C316 1.524 . S
C315 C319 1.400 . S
C316 H301 0.960 . S
C316 H302 0.960 . S
C316 H303 0.960 . S
C316 C315 1.524 . S
C317 C314 1.403 . S
C317 C318 1.392 . S
C317 C321 1.495 . S
C318 C317 1.392 . S
C318 C319 1.385 . S
C318 C320 1.478 . S
C319 H313 0.930 . S
C319 C315 1.400 . S
C319 C318 1.385 . S
C320 C318 1.478 . S
C320 C322 1.381 . S
C320 C326 1.383 . S
C321 C317 1.495 . S
C321 H327 0.959 . S
C321 H328 0.961 . S
C321 H329 0.960 . S
C322 C320 1.381 . S
C322 C323 1.394 . S
C322 H330 0.930 . S
C323 C322 1.394 . S
C323 C324 1.383 . S
C323 H331 0.929 . S
C324 C323 1.383 . S
C324 C325 1.377 . S
C325 H309 0.930 . S
C325 C324 1.377 . S
C325 C326 1.379 . S
C326 H310 0.931 . S
C326 C320 1.383 . S
C326 C325 1.379 . S
H327 C321 0.959 . S
H328 C321 0.961 . S
H329 C321 0.960 . S
H330 C322 0.930 . S
H331 C323 0.929 . S
H332 C340 0.929 . S
H333 C342 0.930 . S
H334 C344 0.930 . S
H335 C347 0.929 . S
H336 C350 0.930 . S
H337 C352 0.960 . S
H338 C352 0.960 . S
H339 C352 0.960 . S
C340 H332 0.929 . S
C340 C341 1.377 . S
C340 C342 1.384 . S
C341 C340 1.377 . S
C341 C347 1.390 . S
C342 H333 0.930 . S
C342 C340 1.384 . S
C342 C343 1.372 . S
C343 C342 1.372 . S
C343 C344 1.400 . S
C343 C348 1.490 . S
C344 H334 0.930 . S
C344 C343 1.400 . S
C344 C347 1.386 . S
H345 C361 0.930 . S
H346 C362 0.931 . S
C347 H335 0.929 . S
C347 C341 1.390 . S
C347 C344 1.386 . S
C348 C343 1.490 . S
C348 C350 1.395 . S
C348 C351 1.403 . S
H349 C355 0.930 . S
C350 H336 0.930 . S
C350 C348 1.395 . S
C350 C353 1.403 . S
C351 C348 1.403 . S
C351 C352 1.524 . S
C351 C355 1.400 . S
C352 H337 0.960 . S
C352 H338 0.960 . S
C352 H339 0.960 . S
C352 C351 1.524 . S
C353 C350 1.403 . S
C353 C354 1.392 . S
C353 C357 1.495 . S
C354 C353 1.392 . S
C354 C355 1.385 . S
C354 C356 1.478 . S
C355 H349 0.930 . S
C355 C351 1.400 . S
C355 C354 1.385 . S
C356 C354 1.478 . S
C356 C358 1.381 . S
C356 C362 1.383 . S
C357 C353 1.495 . S
C357 H363 0.959 . S
C357 H364 0.961 . S
C357 H365 0.960 . S
C358 C356 1.381 . S
C358 C359 1.394 . S
C358 H366 0.930 . S
C359 C358 1.394 . S
C359 C360 1.383 . S
C359 H367 0.929 . S
C360 C359 1.383 . S
C360 C361 1.377 . S
C361 H345 0.930 . S
C361 C360 1.377 . S
C361 C362 1.379 . S
C362 H346 0.931 . S
C362 C356 1.383 . S
C362 C361 1.379 . S
H363 C357 0.959 . S
H364 C357 0.961 . S
H365 C357 0.960 . S
H366 C358 0.930 . S
H367 C359 0.929 . S
H368 C376 0.929 . S
H369 C378 0.930 . S
H370 C380 0.930 . S
H371 C383 0.929 . S
H372 C386 0.930 . S
H373 C388 0.960 . S
H374 C388 0.960 . S
H375 C388 0.960 . S
C376 H368 0.929 . S
C376 C377 1.377 . S
C376 C378 1.384 . S
C377 C376 1.377 . S
C377 C383 1.390 . S
C378 H369 0.930 . S
C378 C376 1.384 . S
C378 C379 1.372 . S
C379 C378 1.372 . S
C379 C380 1.400 . S
C379 C384 1.490 . S
C380 H370 0.930 . S
C380 C379 1.400 . S
C380 C383 1.386 . S
H381 C397 0.930 . S
H382 C398 0.931 . S
C383 H371 0.929 . S
C383 C377 1.390 . S
C383 C380 1.386 . S
C384 C379 1.490 . S
C384 C386 1.395 . S
C384 C387 1.403 . S
H385 C391 0.930 . S
C386 H372 0.930 . S
C386 C384 1.395 . S
C386 C389 1.403 . S
C387 C384 1.403 . S
C387 C388 1.524 . S
C387 C391 1.400 . S
C388 H373 0.960 . S
C388 H374 0.960 . S
C388 H375 0.960 . S
C388 C387 1.524 . S
C389 C386 1.403 . S
C389 C390 1.392 . S
C389 C393 1.495 . S
C390 C389 1.392 . S
C390 C391 1.385 . S
C390 C392 1.478 . S
C391 H385 0.930 . S
C391 C387 1.400 . S
C391 C390 1.385 . S
C392 C390 1.478 . S
C392 C394 1.381 . S
C392 C398 1.383 . S
C393 C389 1.495 . S
C393 H399 0.959 . S
C393 H400 0.961 . S
C393 H401 0.960 . S
C394 C392 1.381 . S
C394 C395 1.394 . S
C394 H402 0.930 . S
C395 C394 1.394 . S
C395 C396 1.383 . S
C395 H403 0.929 . S
C396 C395 1.383 . S
C396 C397 1.377 . S
C397 H381 0.930 . S
C397 C396 1.377 . S
C397 C398 1.379 . S
C398 H382 0.931 . S
C398 C392 1.383 . S
C398 C397 1.379 . S
H399 C393 0.959 . S
H400 C393 0.961 . S
H401 C393 0.960 . S
H402 C394 0.930 . S
H403 C395 0.929 . S
H404 C412 0.929 . S
H405 C414 0.930 . S
H406 C416 0.930 . S
H407 C419 0.929 . S
H408 C422 0.930 . S
H409 C424 0.960 . S
H410 C424 0.960 . S
H411 C424 0.960 . S
C412 H404 0.929 . S
C412 C413 1.377 . S
C412 C414 1.384 . S
C413 C412 1.377 . S
C413 C419 1.390 . S
C414 H405 0.930 . S
C414 C412 1.384 . S
C414 C415 1.372 . S
C415 C414 1.372 . S
C415 C416 1.400 . S
C415 C420 1.490 . S
C416 H406 0.930 . S
C416 C415 1.400 . S
C416 C419 1.386 . S
H417 C433 0.930 . S
H418 C434 0.931 . S
C419 H407 0.929 . S
C419 C413 1.390 . S
C419 C416 1.386 . S
C420 C415 1.490 . S
C420 C422 1.395 . S
C420 C423 1.403 . S
H421 C427 0.930 . S
C422 H408 0.930 . S
C422 C420 1.395 . S
C422 C425 1.403 . S
C423 C420 1.403 . S
C423 C424 1.524 . S
C423 C427 1.400 . S
C424 H409 0.960 . S
C424 H410 0.960 . S
C424 H411 0.960 . S
C424 C423 1.524 . S
C425 C422 1.403 . S
C425 C426 1.392 . S
C425 C429 1.495 . S
C426 C425 1.392 . S
C426 C427 1.385 . S
C426 C428 1.478 . S
C427 H421 0.930 . S
C427 C423 1.400 . S
C427 C426 1.385 . S
C428 C426 1.478 . S
C428 C430 1.381 . S
C428 C434 1.383 . S
C429 C425 1.495 . S
C429 H435 0.959 . S
C429 H436 0.961 . S
C429 H437 0.960 . S
C430 C428 1.381 . S
C430 C431 1.394 . S
C430 H438 0.930 . S
C431 C430 1.394 . S
C431 C432 1.383 . S
C431 H439 0.929 . S
C432 C431 1.383 . S
C432 C433 1.377 . S
C433 H417 0.930 . S
C433 C432 1.377 . S
C433 C434 1.379 . S
C434 H418 0.931 . S
C434 C428 1.383 . S
C434 C433 1.379 . S
H435 C429 0.959 . S
H436 C429 0.961 . S
H437 C429 0.960 . S
H438 C430 0.930 . S
H439 C431 0.929 . S
H440 C448 0.929 . S
H441 C450 0.930 . S
H442 C452 0.930 . S
H443 C455 0.929 . S
H444 C458 0.930 . S
H445 C460 0.960 . S
H446 C460 0.960 . S
H447 C460 0.960 . S
C448 H440 0.929 . S
C448 C449 1.377 . S
C448 C450 1.384 . S
C449 C448 1.377 . S
C449 C455 1.390 . S
C450 H441 0.930 . S
C450 C448 1.384 . S
C450 C451 1.372 . S
C451 C450 1.372 . S
C451 C452 1.400 . S
C451 C456 1.490 . S
C452 H442 0.930 . S
C452 C451 1.400 . S
C452 C455 1.386 . S
H453 C469 0.930 . S
H454 C470 0.931 . S
C455 H443 0.929 . S
C455 C449 1.390 . S
C455 C452 1.386 . S
C456 C451 1.490 . S
C456 C458 1.395 . S
C456 C459 1.403 . S
H457 C463 0.930 . S
C458 H444 0.930 . S
C458 C456 1.395 . S
C458 C461 1.403 . S
C459 C456 1.403 . S
C459 C460 1.524 . S
C459 C463 1.400 . S
C460 H445 0.960 . S
C460 H446 0.960 . S
C460 H447 0.960 . S
C460 C459 1.524 . S
C461 C458 1.403 . S
C461 C462 1.392 . S
C461 C465 1.495 . S
C462 C461 1.392 . S
C462 C463 1.385 . S
C462 C464 1.478 . S
C463 H457 0.930 . S
C463 C459 1.400 . S
C463 C462 1.385 . S
C464 C462 1.478 . S
C464 C466 1.381 . S
C464 C470 1.383 . S
C465 C461 1.495 . S
C465 H471 0.959 . S
C465 H472 0.961 . S
C465 H473 0.960 . S
C466 C464 1.381 . S
C466 C467 1.394 . S
C466 H474 0.930 . S
C467 C466 1.394 . S
C467 C468 1.383 . S
C467 H475 0.929 . S
C468 C467 1.383 . S
C468 C469 1.377 . S
C469 H453 0.930 . S
C469 C468 1.377 . S
C469 C470 1.379 . S
C470 H454 0.931 . S
C470 C464 1.383 . S
C470 C469 1.379 . S
H471 C465 0.959 . S
H472 C465 0.961 . S
H473 C465 0.960 . S
H474 C466 0.930 . S
H475 C467 0.929 . S
H476 C484 0.929 . S
H477 C486 0.930 . S
H478 C488 0.930 . S
H479 C491 0.929 . S
H480 C494 0.930 . S
H481 C496 0.960 . S
H482 C496 0.960 . S
H483 C496 0.960 . S
C484 H476 0.929 . S
C484 C485 1.377 . S
C484 C486 1.384 . S
C485 C484 1.377 . S
C485 C491 1.390 . S
C486 H477 0.930 . S
C486 C484 1.384 . S
C486 C487 1.372 . S
C487 C486 1.372 . S
C487 C488 1.400 . S
C487 C492 1.490 . S
C488 H478 0.930 . S
C488 C487 1.400 . S
C488 C491 1.386 . S
H489 C505 0.930 . S
H490 C506 0.931 . S
C491 H479 0.929 . S
C491 C485 1.390 . S
C491 C488 1.386 . S
C492 C487 1.490 . S
C492 C494 1.395 . S
C492 C495 1.403 . S
H493 C499 0.930 . S
C494 H480 0.930 . S
C494 C492 1.395 . S
C494 C497 1.403 . S
C495 C492 1.403 . S
C495 C496 1.524 . S
C495 C499 1.400 . S
C496 H481 0.960 . S
C496 H482 0.960 . S
C496 H483 0.960 . S
C496 C495 1.524 . S
C497 C494 1.403 . S
C497 C498 1.392 . S
C497 C501 1.495 . S
C498 C497 1.392 . S
C498 C499 1.385 . S
C498 C500 1.478 . S
C499 H493 0.930 . S
C499 C495 1.400 . S
C499 C498 1.385 . S
C500 C498 1.478 . S
C500 C502 1.381 . S
C500 C506 1.383 . S
C501 C497 1.495 . S
C501 H507 0.959 . S
C501 H508 0.961 . S
C501 H509 0.960 . S
C502 C500 1.381 . S
C502 C503 1.394 . S
C502 H510 0.930 . S
C503 C502 1.394 . S
C503 C504 1.383 . S
C503 H511 0.929 . S
C504 C503 1.383 . S
C504 C505 1.377 . S
C505 H489 0.930 . S
C505 C504 1.377 . S
C505 C506 1.379 . S
C506 H490 0.931 . S
C506 C500 1.383 . S
C506 C505 1.379 . S
H507 C501 0.959 . S
H508 C501 0.961 . S
H509 C501 0.960 . S
H510 C502 0.930 . S
H511 C503 0.929 . S
H512 C520 0.929 . S
H513 C522 0.930 . S
H514 C524 0.930 . S
H515 C527 0.929 . S
H516 C530 0.930 . S
H517 C532 0.960 . S
H518 C532 0.960 . S
H519 C532 0.960 . S
C520 H512 0.929 . S
C520 C521 1.377 . S
C520 C522 1.384 . S
C521 C520 1.377 . S
C521 C527 1.390 . S
C522 H513 0.930 . S
C522 C520 1.384 . S
C522 C523 1.372 . S
C523 C522 1.372 . S
C523 C524 1.400 . S
C523 C528 1.490 . S
C524 H514 0.930 . S
C524 C523 1.400 . S
C524 C527 1.386 . S
H525 C541 0.930 . S
H526 C542 0.931 . S
C527 H515 0.929 . S
C527 C521 1.390 . S
C527 C524 1.386 . S
C528 C523 1.490 . S
C528 C530 1.395 . S
C528 C531 1.403 . S
H529 C535 0.930 . S
C530 H516 0.930 . S
C530 C528 1.395 . S
C530 C533 1.403 1_556 S
C531 C528 1.403 . S
C531 C532 1.524 . S
C531 C535 1.400 1_556 S
C532 H517 0.960 . S
C532 H518 0.960 . S
C532 H519 0.960 . S
C532 C531 1.524 . S
C533 C530 1.403 1_554 S
C533 C534 1.392 . S
C533 C537 1.495 . S
C534 C533 1.392 . S
C534 C535 1.385 . S
C534 C536 1.478 . S
C535 H529 0.930 . S
C535 C531 1.400 1_554 S
C535 C534 1.385 . S
C536 C534 1.478 . S
C536 C538 1.381 . S
C536 C542 1.383 . S
C537 C533 1.495 . S
C537 H543 0.959 . S
C537 H544 0.961 . S
C537 H545 0.960 . S
C538 C536 1.381 . S
C538 C539 1.394 . S
C538 H546 0.930 . S
C539 C538 1.394 . S
C539 C540 1.383 . S
C539 H547 0.929 . S
C540 C539 1.383 . S
C540 C541 1.377 . S
C541 H525 0.930 . S
C541 C540 1.377 . S
C541 C542 1.379 . S
C542 H526 0.931 . S
C542 C536 1.383 . S
C542 C541 1.379 . S
H543 C537 0.959 . S
H544 C537 0.961 . S
H545 C537 0.960 . S
H546 C538 0.930 . S
H547 C539 0.929 . S
H548 C556 0.929 . S
H549 C558 0.930 . S
H550 C560 0.930 . S
H551 C563 0.929 . S
H552 C566 0.930 . S
H553 C568 0.960 . S
H554 C568 0.960 . S
H555 C568 0.960 . S
C556 H548 0.929 . S
C556 C557 1.377 . S
C556 C558 1.384 . S
C557 C556 1.377 . S
C557 C563 1.390 . S
C558 H549 0.930 . S
C558 C556 1.384 . S
C558 C559 1.372 . S
C559 C558 1.372 . S
C559 C560 1.400 . S
C559 C564 1.490 . S
C560 H550 0.930 . S
C560 C559 1.400 . S
C560 C563 1.386 . S
H561 C577 0.930 . S
H562 C578 0.931 . S
C563 H551 0.929 . S
C563 C557 1.390 . S
C563 C560 1.386 . S
C564 C559 1.490 . S
C564 C566 1.395 . S
C564 C567 1.403 . S
H565 C571 0.930 . S
C566 H552 0.930 . S
C566 C564 1.395 . S
C566 C569 1.403 1_556 S
C567 C564 1.403 . S
C567 C568 1.524 . S
C567 C571 1.400 1_556 S
C568 H553 0.960 . S
C568 H554 0.960 . S
C568 H555 0.960 . S
C568 C567 1.524 . S
C569 C566 1.403 1_554 S
C569 C570 1.392 . S
C569 C573 1.495 . S
C570 C569 1.392 . S
C570 C571 1.385 . S
C570 C572 1.478 . S
C571 H565 0.930 . S
C571 C567 1.400 1_554 S
C571 C570 1.385 . S
C572 C570 1.478 . S
C572 C574 1.381 . S
C572 C578 1.383 . S
C573 C569 1.495 . S
C573 H579 0.959 . S
C573 H580 0.961 . S
C573 H581 0.960 . S
C574 C572 1.381 . S
C574 C575 1.394 . S
C574 H582 0.930 . S
C575 C574 1.394 . S
C575 C576 1.383 . S
C575 H583 0.929 . S
C576 C575 1.383 . S
C576 C577 1.377 . S
C577 H561 0.930 . S
C577 C576 1.377 . S
C577 C578 1.379 . S
C578 H562 0.931 . S
C578 C572 1.383 . S
C578 C577 1.379 . S
H579 C573 0.959 . S
H580 C573 0.961 . S
H581 C573 0.960 . S
H582 C574 0.930 . S
H583 C575 0.929 . S
H584 C592 0.929 . S
H585 C594 0.930 . S
H586 C596 0.930 . S
H587 C599 0.929 . S
H588 C602 0.930 . S
H589 C604 0.960 . S
H590 C604 0.960 . S
H591 C604 0.960 . S
C592 H584 0.929 . S
C592 C593 1.377 . S
C592 C594 1.384 . S
C593 C592 1.377 . S
C593 C599 1.390 . S
C594 H585 0.930 . S
C594 C592 1.384 . S
C594 C595 1.372 . S
C595 C594 1.372 . S
C595 C596 1.400 . S
C595 C600 1.490 . S
C596 H586 0.930 . S
C596 C595 1.400 . S
C596 C599 1.386 . S
H597 C613 0.930 . S
H598 C614 0.931 . S
C599 H587 0.929 . S
C599 C593 1.390 . S
C599 C596 1.386 . S
C600 C595 1.490 . S
C600 C602 1.395 . S
C600 C603 1.403 . S
H601 C607 0.930 . S
C602 H588 0.930 . S
C602 C600 1.395 . S
C602 C605 1.403 1_556 S
C603 C600 1.403 . S
C603 C604 1.524 . S
C603 C607 1.400 1_556 S
C604 H589 0.960 . S
C604 H590 0.960 . S
C604 H591 0.960 . S
C604 C603 1.524 . S
C605 C602 1.403 1_554 S
C605 C606 1.392 . S
C605 C609 1.495 . S
C606 C605 1.392 . S
C606 C607 1.385 . S
C606 C608 1.478 . S
C607 H601 0.930 . S
C607 C603 1.400 1_554 S
C607 C606 1.385 . S
C608 C606 1.478 . S
C608 C610 1.381 . S
C608 C614 1.383 . S
C609 C605 1.495 . S
C609 H615 0.959 . S
C609 H616 0.961 . S
C609 H617 0.960 . S
C610 C608 1.381 . S
C610 C611 1.394 . S
C610 H618 0.930 . S
C611 C610 1.394 . S
C611 C612 1.383 . S
C611 H619 0.929 . S
C612 C611 1.383 . S
C612 C613 1.377 . S
C613 H597 0.930 . S
C613 C612 1.377 . S
C613 C614 1.379 . S
C614 H598 0.931 . S
C614 C608 1.383 . S
C614 C613 1.379 . S
H615 C609 0.959 . S
H616 C609 0.961 . S
H617 C609 0.960 . S
H618 C610 0.930 . S
H619 C611 0.929 . S
H620 C628 0.929 . S
H621 C630 0.930 . S
H622 C632 0.930 . S
H623 C635 0.929 . S
H624 C638 0.930 . S
H625 C640 0.960 . S
H626 C640 0.960 . S
H627 C640 0.960 . S
C628 H620 0.929 . S
C628 C629 1.377 . S
C628 C630 1.384 . S
C629 C628 1.377 . S
C629 C635 1.390 . S
C630 H621 0.930 . S
C630 C628 1.384 . S
C630 C631 1.372 . S
C631 C630 1.372 . S
C631 C632 1.400 . S
C631 C636 1.490 . S
C632 H622 0.930 . S
C632 C631 1.400 . S
C632 C635 1.386 . S
H633 C649 0.930 . S
H634 C650 0.931 . S
C635 H623 0.929 . S
C635 C629 1.390 . S
C635 C632 1.386 . S
C636 C631 1.490 . S
C636 C638 1.395 . S
C636 C639 1.403 . S
H637 C643 0.930 . S
C638 H624 0.930 . S
C638 C636 1.395 . S
C638 C641 1.403 1_554 S
C639 C636 1.403 . S
C639 C640 1.524 . S
C639 C643 1.400 1_554 S
C640 H625 0.960 . S
C640 H626 0.960 . S
C640 H627 0.960 . S
C640 C639 1.524 . S
C641 C638 1.403 1_556 S
C641 C642 1.392 . S
C641 C645 1.495 . S
C642 C641 1.392 . S
C642 C643 1.385 . S
C642 C644 1.478 . S
C643 H637 0.930 . S
C643 C639 1.400 1_556 S
C643 C642 1.385 . S
C644 C642 1.478 . S
C644 C646 1.381 . S
C644 C650 1.383 . S
C645 C641 1.495 . S
C645 H651 0.959 . S
C645 H652 0.961 . S
C645 H653 0.960 . S
C646 C644 1.381 . S
C646 C647 1.394 . S
C646 H654 0.930 . S
C647 C646 1.394 . S
C647 C648 1.383 . S
C647 H655 0.929 . S
C648 C647 1.383 . S
C648 C649 1.377 . S
C649 H633 0.930 . S
C649 C648 1.377 . S
C649 C650 1.379 . S
C650 H634 0.931 . S
C650 C644 1.383 . S
C650 C649 1.379 . S
H651 C645 0.959 . S
H652 C645 0.961 . S
H653 C645 0.960 . S
H654 C646 0.930 . S
H655 C647 0.929 . S
H656 C664 0.929 . S
H657 C666 0.930 . S
H658 C668 0.930 . S
H659 C671 0.929 . S
H660 C674 0.930 . S
H661 C676 0.960 . S
H662 C676 0.960 . S
H663 C676 0.960 . S
C664 H656 0.929 . S
C664 C665 1.377 . S
C664 C666 1.384 . S
C665 C664 1.377 . S
C665 C671 1.390 . S
C666 H657 0.930 . S
C666 C664 1.384 . S
C666 C667 1.372 . S
C667 C666 1.372 . S
C667 C668 1.400 . S
C667 C672 1.490 . S
C668 H658 0.930 . S
C668 C667 1.400 . S
C668 C671 1.386 . S
H669 C685 0.930 . S
H670 C686 0.931 . S
C671 H659 0.929 . S
C671 C665 1.390 . S
C671 C668 1.386 . S
C672 C667 1.490 . S
C672 C674 1.395 . S
C672 C675 1.403 . S
H673 C679 0.930 . S
C674 H660 0.930 . S
C674 C672 1.395 . S
C674 C677 1.403 . S
C675 C672 1.403 . S
C675 C676 1.524 . S
C675 C679 1.400 . S
C676 H661 0.960 . S
C676 H662 0.960 . S
C676 H663 0.960 . S
C676 C675 1.524 . S
C677 C674 1.403 . S
C677 C678 1.392 . S
C677 C681 1.495 . S
C678 C677 1.392 . S
C678 C679 1.385 . S
C678 C680 1.478 . S
C679 H673 0.930 . S
C679 C675 1.400 . S
C679 C678 1.385 . S
C680 C678 1.478 . S
C680 C682 1.381 . S
C680 C686 1.383 . S
C681 C677 1.495 . S
C681 H687 0.959 . S
C681 H688 0.961 . S
C681 H689 0.960 . S
C682 C680 1.381 . S
C682 C683 1.394 . S
C682 H690 0.930 . S
C683 C682 1.394 . S
C683 C684 1.383 . S
C683 H691 0.929 . S
C684 C683 1.383 . S
C684 C685 1.377 . S
C685 H669 0.930 . S
C685 C684 1.377 . S
C685 C686 1.379 . S
C686 H670 0.931 . S
C686 C680 1.383 . S
C686 C685 1.379 . S
H687 C681 0.959 . S
H688 C681 0.961 . S
H689 C681 0.960 . S
H690 C682 0.930 . S
H691 C683 0.929 . S
H692 C700 0.929 . S
H693 C702 0.930 . S
H694 C704 0.930 . S
H695 C707 0.929 . S
H696 C710 0.930 . S
H697 C712 0.960 . S
H698 C712 0.960 . S
H699 C712 0.960 . S
C700 H692 0.929 . S
C700 C701 1.377 . S
C700 C702 1.384 . S
C701 C700 1.377 . S
C701 C707 1.390 . S
C702 H693 0.930 . S
C702 C700 1.384 . S
C702 C703 1.372 . S
C703 C702 1.372 . S
C703 C704 1.400 . S
C703 C708 1.490 . S
C704 H694 0.930 . S
C704 C703 1.400 . S
C704 C707 1.386 . S
H705 C721 0.930 . S
H706 C722 0.931 . S
C707 H695 0.929 . S
C707 C701 1.390 . S
C707 C704 1.386 . S
C708 C703 1.490 . S
C708 C710 1.395 . S
C708 C711 1.403 . S
H709 C715 0.930 . S
C710 H696 0.930 . S
C710 C708 1.395 . S
C710 C713 1.403 . S
C711 C708 1.403 . S
C711 C712 1.524 . S
C711 C715 1.400 . S
C712 H697 0.960 . S
C712 H698 0.960 . S
C712 H699 0.960 . S
C712 C711 1.524 . S
C713 C710 1.403 . S
C713 C714 1.392 . S
C713 C717 1.495 . S
C714 C713 1.392 . S
C714 C715 1.385 . S
C714 C716 1.478 . S
C715 H709 0.930 . S
C715 C711 1.400 . S
C715 C714 1.385 . S
C716 C714 1.478 . S
C716 C718 1.381 . S
C716 C722 1.383 . S
C717 C713 1.495 . S
C717 H723 0.959 . S
C717 H724 0.961 . S
C717 H725 0.960 . S
C718 C716 1.381 . S
C718 C719 1.394 . S
C718 H726 0.930 . S
C719 C718 1.394 . S
C719 C720 1.383 . S
C719 H727 0.929 . S
C720 C719 1.383 . S
C720 C721 1.377 . S
C721 H705 0.930 . S
C721 C720 1.377 . S
C721 C722 1.379 . S
C722 H706 0.931 . S
C722 C716 1.383 . S
C722 C721 1.379 . S
H723 C717 0.959 . S
H724 C717 0.961 . S
H725 C717 0.960 . S
H726 C718 0.930 . S
H727 C719 0.929 . S
H728 C736 0.929 . S
H729 C738 0.930 . S
H730 C740 0.930 . S
H731 C743 0.929 . S
H732 C746 0.930 . S
H733 C748 0.960 . S
H734 C748 0.960 . S
H735 C748 0.960 . S
C736 H728 0.929 . S
C736 C737 1.377 . S
C736 C738 1.384 . S
C737 C736 1.377 . S
C737 C743 1.390 . S
C738 H729 0.930 . S
C738 C736 1.384 . S
C738 C739 1.372 . S
C739 C738 1.372 . S
C739 C740 1.400 . S
C739 C744 1.490 . S
C740 H730 0.930 . S
C740 C739 1.400 . S
C740 C743 1.386 . S
H741 C757 0.930 . S
H742 C758 0.931 . S
C743 H731 0.929 . S
C743 C737 1.390 . S
C743 C740 1.386 . S
C744 C739 1.490 . S
C744 C746 1.395 . S
C744 C747 1.403 . S
H745 C751 0.930 . S
C746 H732 0.930 . S
C746 C744 1.395 . S
C746 C749 1.403 . S
C747 C744 1.403 . S
C747 C748 1.524 . S
C747 C751 1.400 . S
C748 H733 0.960 . S
C748 H734 0.960 . S
C748 H735 0.960 . S
C748 C747 1.524 . S
C749 C746 1.403 . S
C749 C750 1.392 . S
C749 C753 1.495 . S
C750 C749 1.392 . S
C750 C751 1.385 . S
C750 C752 1.478 . S
C751 H745 0.930 . S
C751 C747 1.400 . S
C751 C750 1.385 . S
C752 C750 1.478 . S
C752 C754 1.381 . S
C752 C758 1.383 . S
C753 C749 1.495 . S
C753 H759 0.959 . S
C753 H760 0.961 . S
C753 H761 0.960 . S
C754 C752 1.381 . S
C754 C755 1.394 . S
C754 H762 0.930 . S
C755 C754 1.394 . S
C755 C756 1.383 . S
C755 H763 0.929 . S
C756 C755 1.383 . S
C756 C757 1.377 . S
C757 H741 0.930 . S
C757 C756 1.377 . S
C757 C758 1.379 . S
C758 H742 0.931 . S
C758 C752 1.383 . S
C758 C757 1.379 . S
H759 C753 0.959 . S
H760 C753 0.961 . S
H761 C753 0.960 . S
H762 C754 0.930 . S
H763 C755 0.929 . S
H764 C772 0.929 . S
H765 C774 0.930 . S
H766 C776 0.930 . S
H767 C779 0.929 . S
H768 C782 0.930 . S
H769 C784 0.960 . S
H770 C784 0.960 . S
H771 C784 0.960 . S
C772 H764 0.929 . S
C772 C773 1.377 . S
C772 C774 1.384 . S
C773 C772 1.377 . S
C773 C779 1.390 . S
C774 H765 0.930 . S
C774 C772 1.384 . S
C774 C775 1.372 . S
C775 C774 1.372 . S
C775 C776 1.400 . S
C775 C780 1.490 . S
C776 H766 0.930 . S
C776 C775 1.400 . S
C776 C779 1.386 . S
H777 C793 0.930 . S
H778 C794 0.931 . S
C779 H767 0.929 . S
C779 C773 1.390 . S
C779 C776 1.386 . S
C780 C775 1.490 . S
C780 C782 1.395 . S
C780 C783 1.403 . S
H781 C787 0.930 . S
C782 H768 0.930 . S
C782 C780 1.395 . S
C782 C785 1.403 . S
C783 C780 1.403 . S
C783 C784 1.524 . S
C783 C787 1.400 . S
C784 H769 0.960 . S
C784 H770 0.960 . S
C784 H771 0.960 . S
C784 C783 1.524 . S
C785 C782 1.403 . S
C785 C786 1.392 . S
C785 C789 1.495 . S
C786 C785 1.392 . S
C786 C787 1.385 . S
C786 C788 1.478 . S
C787 H781 0.930 . S
C787 C783 1.400 . S
C787 C786 1.385 . S
C788 C786 1.478 . S
C788 C790 1.381 . S
C788 C794 1.383 . S
C789 C785 1.495 . S
C789 H795 0.959 . S
C789 H796 0.961 . S
C789 H797 0.960 . S
C790 C788 1.381 . S
C790 C791 1.394 . S
C790 H798 0.930 . S
C791 C790 1.394 . S
C791 C792 1.383 . S
C791 H799 0.929 . S
C792 C791 1.383 . S
C792 C793 1.377 . S
C793 H777 0.930 . S
C793 C792 1.377 . S
C793 C794 1.379 . S
C794 H778 0.931 . S
C794 C788 1.383 . S
C794 C793 1.379 . S
H795 C789 0.959 . S
H796 C789 0.961 . S
H797 C789 0.960 . S
H798 C790 0.930 . S
H799 C791 0.929 . S
H800 C808 0.929 . S
H801 C810 0.930 . S
H802 C812 0.930 . S
H803 C815 0.929 . S
H804 C818 0.930 . S
H805 C820 0.960 . S
H806 C820 0.960 . S
H807 C820 0.960 . S
C808 H800 0.929 . S
C808 C809 1.377 . S
C808 C810 1.384 . S
C809 C808 1.377 . S
C809 C815 1.390 . S
C810 H801 0.930 . S
C810 C808 1.384 . S
C810 C811 1.372 . S
C811 C810 1.372 . S
C811 C812 1.400 . S
C811 C816 1.490 . S
C812 H802 0.930 . S
C812 C811 1.400 . S
C812 C815 1.386 . S
H813 C829 0.930 . S
H814 C830 0.931 . S
C815 H803 0.929 . S
C815 C809 1.390 . S
C815 C812 1.386 . S
C816 C811 1.490 . S
C816 C818 1.395 . S
C816 C819 1.403 . S
H817 C823 0.930 . S
C818 H804 0.930 . S
C818 C816 1.395 . S
C818 C821 1.403 . S
C819 C816 1.403 . S
C819 C820 1.524 . S
C819 C823 1.400 . S
C820 H805 0.960 . S
C820 H806 0.960 . S
C820 H807 0.960 . S
C820 C819 1.524 . S
C821 C818 1.403 . S
C821 C822 1.392 . S
C821 C825 1.495 . S
C822 C821 1.392 . S
C822 C823 1.385 . S
C822 C824 1.478 . S
C823 H817 0.930 . S
C823 C819 1.400 . S
C823 C822 1.385 . S
C824 C822 1.478 . S
C824 C826 1.381 . S
C824 C830 1.383 . S
C825 C821 1.495 . S
C825 H831 0.959 . S
C825 H832 0.961 . S
C825 H833 0.960 . S
C826 C824 1.381 . S
C826 C827 1.394 . S
C826 H834 0.930 . S
C827 C826 1.394 . S
C827 C828 1.383 . S
C827 H835 0.929 . S
C828 C827 1.383 . S
C828 C829 1.377 . S
C829 H813 0.930 . S
C829 C828 1.377 . S
C829 C830 1.379 . S
C830 H814 0.931 . S
C830 C824 1.383 . S
C830 C829 1.379 . S
H831 C825 0.959 . S
H832 C825 0.961 . S
H833 C825 0.960 . S
H834 C826 0.930 . S
H835 C827 0.929 . S
H836 C844 0.929 . S
H837 C846 0.930 . S
H838 C848 0.930 . S
H839 C851 0.929 . S
H840 C854 0.930 . S
H841 C856 0.960 . S
H842 C856 0.960 . S
H843 C856 0.960 . S
C844 H836 0.929 . S
C844 C845 1.377 . S
C844 C846 1.384 . S
C845 C844 1.377 . S
C845 C851 1.390 . S
C846 H837 0.930 . S
C846 C844 1.384 . S
C846 C847 1.372 . S
C847 C846 1.372 . S
C847 C848 1.400 . S
C847 C852 1.490 . S
C848 H838 0.930 . S
C848 C847 1.400 . S
C848 C851 1.386 . S
H849 C865 0.930 . S
H850 C866 0.931 . S
C851 H839 0.929 . S
C851 C845 1.390 . S
C851 C848 1.386 . S
C852 C847 1.490 . S
C852 C854 1.395 . S
C852 C855 1.403 . S
H853 C859 0.930 . S
C854 H840 0.930 . S
C854 C852 1.395 . S
C854 C857 1.403 . S
C855 C852 1.403 . S
C855 C856 1.524 . S
C855 C859 1.400 . S
C856 H841 0.960 . S
C856 H842 0.960 . S
C856 H843 0.960 . S
C856 C855 1.524 . S
C857 C854 1.403 . S
C857 C858 1.392 . S
C857 C861 1.495 . S
C858 C857 1.392 . S
C858 C859 1.385 . S
C858 C860 1.478 . S
C859 H853 0.930 . S
C859 C855 1.400 . S
C859 C858 1.385 . S
C860 C858 1.478 . S
C860 C862 1.381 . S
C860 C866 1.383 . S
C861 C857 1.495 . S
C861 H867 0.959 . S
C861 H868 0.961 . S
C861 H869 0.960 . S
C862 C860 1.381 . S
C862 C863 1.394 . S
C862 H870 0.930 . S
C863 C862 1.394 . S
C863 C864 1.383 . S
C863 H871 0.929 . S
C864 C863 1.383 . S
C864 C865 1.377 . S
C865 H849 0.930 . S
C865 C864 1.377 . S
C865 C866 1.379 . S
C866 H850 0.931 . S
C866 C860 1.383 . S
C866 C865 1.379 . S
H867 C861 0.959 . S
H868 C861 0.961 . S
H869 C861 0.960 . S
H870 C862 0.930 . S
H871 C863 0.929 . S
H872 C880 0.929 . S
H873 C882 0.930 . S
H874 C884 0.930 . S
H875 C887 0.929 . S
H876 C890 0.930 . S
H877 C892 0.960 . S
H878 C892 0.960 . S
H879 C892 0.960 . S
C880 H872 0.929 . S
C880 C881 1.377 . S
C880 C882 1.384 . S
C881 C880 1.377 . S
C881 C887 1.390 . S
C882 H873 0.930 . S
C882 C880 1.384 . S
C882 C883 1.372 . S
C883 C882 1.372 . S
C883 C884 1.400 . S
C883 C888 1.490 . S
C884 H874 0.930 . S
C884 C883 1.400 . S
C884 C887 1.386 . S
H885 C901 0.930 . S
H886 C902 0.931 . S
C887 H875 0.929 . S
C887 C881 1.390 . S
C887 C884 1.386 . S
C888 C883 1.490 . S
C888 C890 1.395 . S
C888 C891 1.403 . S
H889 C895 0.930 . S
C890 H876 0.930 . S
C890 C888 1.395 . S
C890 C893 1.403 . S
C891 C888 1.403 . S
C891 C892 1.524 . S
C891 C895 1.400 . S
C892 H877 0.960 . S
C892 H878 0.960 . S
C892 H879 0.960 . S
C892 C891 1.524 . S
C893 C890 1.403 . S
C893 C894 1.392 . S
C893 C897 1.495 . S
C894 C893 1.392 . S
C894 C895 1.385 . S
C894 C896 1.478 . S
C895 H889 0.930 . S
C895 C891 1.400 . S
C895 C894 1.385 . S
C896 C894 1.478 . S
C896 C898 1.381 . S
C896 C902 1.383 . S
C897 C893 1.495 . S
C897 H903 0.959 . S
C897 H904 0.961 . S
C897 H905 0.960 . S
C898 C896 1.381 . S
C898 C899 1.394 . S
C898 H906 0.930 . S
C899 C898 1.394 . S
C899 C900 1.383 . S
C899 H907 0.929 . S
C900 C899 1.383 . S
C900 C901 1.377 . S
C901 H885 0.930 . S
C901 C900 1.377 . S
C901 C902 1.379 . S
C902 H886 0.931 . S
C902 C896 1.383 . S
C902 C901 1.379 . S
H903 C897 0.959 . S
H904 C897 0.961 . S
H905 C897 0.960 . S
H906 C898 0.930 . S
H907 C899 0.929 . S
H908 C916 0.929 . S
H909 C918 0.930 . S
H910 C920 0.930 . S
H911 C923 0.929 . S
H912 C926 0.930 . S
H913 C928 0.960 . S
H914 C928 0.960 . S
H915 C928 0.960 . S
C916 H908 0.929 . S
C916 C917 1.377 . S
C916 C918 1.384 . S
C917 C916 1.377 . S
C917 C923 1.390 . S
C918 H909 0.930 . S
C918 C916 1.384 . S
C918 C919 1.372 . S
C919 C918 1.372 . S
C919 C920 1.400 . S
C919 C924 1.490 . S
C920 H910 0.930 . S
C920 C919 1.400 . S
C920 C923 1.386 . S
H921 C937 0.930 . S
H922 C938 0.931 . S
C923 H911 0.929 . S
C923 C917 1.390 . S
C923 C920 1.386 . S
C924 C919 1.490 . S
C924 C926 1.395 . S
C924 C927 1.403 . S
H925 C931 0.930 . S
C926 H912 0.930 . S
C926 C924 1.395 . S
C926 C929 1.403 . S
C927 C924 1.403 . S
C927 C928 1.524 . S
C927 C931 1.400 . S
C928 H913 0.960 . S
C928 H914 0.960 . S
C928 H915 0.960 . S
C928 C927 1.524 . S
C929 C926 1.403 . S
C929 C930 1.392 . S
C929 C933 1.495 . S
C930 C929 1.392 . S
C930 C931 1.385 . S
C930 C932 1.478 . S
C931 H925 0.930 . S
C931 C927 1.400 . S
C931 C930 1.385 . S
C932 C930 1.478 . S
C932 C934 1.381 . S
C932 C938 1.383 . S
C933 C929 1.495 . S
C933 H939 0.959 . S
C933 H940 0.961 . S
C933 H941 0.960 . S
C934 C932 1.381 . S
C934 C935 1.394 . S
C934 H942 0.930 . S
C935 C934 1.394 . S
C935 C936 1.383 . S
C935 H943 0.929 . S
C936 C935 1.383 . S
C936 C937 1.377 . S
C937 H921 0.930 . S
C937 C936 1.377 . S
C937 C938 1.379 . S
C938 H922 0.931 . S
C938 C932 1.383 . S
C938 C937 1.379 . S
H939 C933 0.959 . S
H940 C933 0.961 . S
H941 C933 0.960 . S
H942 C934 0.930 . S
H943 C935 0.929 . S
H944 C952 0.929 . S
H945 C954 0.930 . S
H946 C956 0.930 . S
H947 C959 0.929 . S
H948 C962 0.930 . S
H949 C964 0.960 . S
H950 C964 0.960 . S
H951 C964 0.960 . S
C952 H944 0.929 . S
C952 C953 1.377 . S
C952 C954 1.384 . S
C953 C952 1.377 . S
C953 C959 1.390 . S
C954 H945 0.930 . S
C954 C952 1.384 . S
C954 C955 1.372 . S
C955 C954 1.372 . S
C955 C956 1.400 . S
C955 C960 1.490 . S
C956 H946 0.930 . S
C956 C955 1.400 . S
C956 C959 1.386 . S
H957 C973 0.930 . S
H958 C974 0.931 . S
C959 H947 0.929 . S
C959 C953 1.390 . S
C959 C956 1.386 . S
C960 C955 1.490 . S
C960 C962 1.395 . S
C960 C963 1.403 . S
H961 C967 0.930 . S
C962 H948 0.930 . S
C962 C960 1.395 . S
C962 C965 1.403 . S
C963 C960 1.403 . S
C963 C964 1.524 . S
C963 C967 1.400 . S
C964 H949 0.960 . S
C964 H950 0.960 . S
C964 H951 0.960 . S
C964 C963 1.524 . S
C965 C962 1.403 . S
C965 C966 1.392 . S
C965 C969 1.495 . S
C966 C965 1.392 . S
C966 C967 1.385 . S
C966 C968 1.478 . S
C967 H961 0.930 . S
C967 C963 1.400 . S
C967 C966 1.385 . S
C968 C966 1.478 . S
C968 C970 1.381 . S
C968 C974 1.383 . S
C969 C965 1.495 . S
C969 H975 0.959 . S
C969 H976 0.961 . S
C969 H977 0.960 . S
C970 C968 1.381 . S
C970 C971 1.394 . S
C970 H978 0.930 . S
C971 C970 1.394 . S
C971 C972 1.383 . S
C971 H979 0.929 . S
C972 C971 1.383 . S
C972 C973 1.377 . S
C973 H957 0.930 . S
C973 C972 1.377 . S
C973 C974 1.379 . S
C974 H958 0.931 . S
C974 C968 1.383 . S
C974 C973 1.379 . S
H975 C969 0.959 . S
H976 C969 0.961 . S
H977 C969 0.960 . S
H978 C970 0.930 . S
H979 C971 0.929 . S
H980 C988 0.929 . S
H981 C990 0.930 . S
H982 C992 0.930 . S
H983 C995 0.929 . S
H984 C998 0.930 . S
H985 C1000 0.960 . S
H986 C1000 0.960 . S
H987 C1000 0.960 . S
C988 H980 0.929 . S
C988 C989 1.377 . S
C988 C990 1.384 . S
C989 C988 1.377 . S
C989 C995 1.390 . S
C990 H981 0.930 . S
C990 C988 1.384 . S
C990 C991 1.372 . S
C991 C990 1.372 . S
C991 C992 1.400 . S
C991 C996 1.490 . S
C992 H982 0.930 . S
C992 C991 1.400 . S
C992 C995 1.386 . S
H993 C1009 0.930 . S
H994 C1010 0.931 . S
C995 H983 0.929 . S
C995 C989 1.390 . S
C995 C992 1.386 . S
C996 C991 1.490 . S
C996 C998 1.395 . S
C996 C999 1.403 . S
H997 C1003 0.930 . S
C998 H984 0.930 . S
C998 C996 1.395 . S
C998 C1001 1.403 . S
C999 C996 1.403 . S
C999 C1000 1.524 . S
C999 C1003 1.400 . S
C1000 H985 0.960 . S
C1000 H986 0.960 . S
C1000 H987 0.960 . S
C1000 C999 1.524 . S
C1001 C998 1.403 . S
C1001 C1002 1.392 . S
C1001 C1005 1.495 . S
C1002 C1001 1.392 . S
C1002 C1003 1.385 . S
C1002 C1004 1.478 . S
C1003 H997 0.930 . S
C1003 C999 1.400 . S
C1003 C1002 1.385 . S
C1004 C1002 1.478 . S
C1004 C1006 1.381 . S
C1004 C1010 1.383 . S
C1005 C1001 1.495 . S
C1005 H1011 0.959 . S
C1005 H1012 0.961 . S
C1005 H1013 0.960 . S
C1006 C1004 1.381 . S
C1006 C1007 1.394 . S
C1006 H1014 0.930 . S
C1007 C1006 1.394 . S
C1007 C1008 1.383 . S
C1007 H1015 0.929 . S
C1008 C1007 1.383 . S
C1008 C1009 1.377 . S
C1009 H993 0.930 . S
C1009 C1008 1.377 . S
C1009 C1010 1.379 . S
C1010 H994 0.931 . S
C1010 C1004 1.383 . S
C1010 C1009 1.379 . S
H1011 C1005 0.959 . S
H1012 C1005 0.961 . S
H1013 C1005 0.960 . S
H1014 C1006 0.930 . S
H1015 C1007 0.929 . S
H1016 C1024 0.929 . S
H1017 C1026 0.930 . S
H1018 C1028 0.930 . S
H1019 C1031 0.929 . S
H1020 C1034 0.930 . S
H1021 C1036 0.960 . S
H1022 C1036 0.960 . S
H1023 C1036 0.960 . S
C1024 H1016 0.929 . S
C1024 C1025 1.377 . S
C1024 C1026 1.384 . S
C1025 C1024 1.377 . S
C1025 C1031 1.390 . S
C1026 H1017 0.930 . S
C1026 C1024 1.384 . S
C1026 C1027 1.372 . S
C1027 C1026 1.372 . S
C1027 C1028 1.400 . S
C1027 C1032 1.490 . S
C1028 H1018 0.930 . S
C1028 C1027 1.400 . S
C1028 C1031 1.386 . S
H1029 C1045 0.930 . S
H1030 C1046 0.931 . S
C1031 H1019 0.929 . S
C1031 C1025 1.390 . S
C1031 C1028 1.386 . S
C1032 C1027 1.490 . S
C1032 C1034 1.395 . S
C1032 C1035 1.403 . S
H1033 C1039 0.930 . S
C1034 H1020 0.930 . S
C1034 C1032 1.395 . S
C1034 C1037 1.403 . S
C1035 C1032 1.403 . S
C1035 C1036 1.524 . S
C1035 C1039 1.400 . S
C1036 H1021 0.960 . S
C1036 H1022 0.960 . S
C1036 H1023 0.960 . S
C1036 C1035 1.524 . S
C1037 C1034 1.403 . S
C1037 C1038 1.392 . S
C1037 C1041 1.495 . S
C1038 C1037 1.392 . S
C1038 C1039 1.385 . S
C1038 C1040 1.478 . S
C1039 H1033 0.930 . S
C1039 C1035 1.400 . S
C1039 C1038 1.385 . S
C1040 C1038 1.478 . S
C1040 C1042 1.381 . S
C1040 C1046 1.383 . S
C1041 C1037 1.495 . S
C1041 H1047 0.959 . S
C1041 H1048 0.961 . S
C1041 H1049 0.960 . S
C1042 C1040 1.381 . S
C1042 C1043 1.394 . S
C1042 H1050 0.930 . S
C1043 C1042 1.394 . S
C1043 C1044 1.383 . S
C1043 H1051 0.929 . S
C1044 C1043 1.383 . S
C1044 C1045 1.377 . S
C1045 H1029 0.930 . S
C1045 C1044 1.377 . S
C1045 C1046 1.379 . S
C1046 H1030 0.931 . S
C1046 C1040 1.383 . S
C1046 C1045 1.379 . S
H1047 C1041 0.959 . S
H1048 C1041 0.961 . S
H1049 C1041 0.960 . S
H1050 C1042 0.930 . S
H1051 C1043 0.929 . S
H1052 C1060 0.929 . S
H1053 C1062 0.930 . S
H1054 C1064 0.930 . S
H1055 C1067 0.929 . S
H1056 C1070 0.930 . S
H1057 C1072 0.960 . S
H1058 C1072 0.960 . S
H1059 C1072 0.960 . S
C1060 H1052 0.929 . S
C1060 C1061 1.377 . S
C1060 C1062 1.384 . S
C1061 C1060 1.377 . S
C1061 C1067 1.390 . S
C1062 H1053 0.930 . S
C1062 C1060 1.384 . S
C1062 C1063 1.372 . S
C1063 C1062 1.372 . S
C1063 C1064 1.400 . S
C1063 C1068 1.490 . S
C1064 H1054 0.930 . S
C1064 C1063 1.400 . S
C1064 C1067 1.386 . S
H1065 C1081 0.930 . S
H1066 C1082 0.931 . S
C1067 H1055 0.929 . S
C1067 C1061 1.390 . S
C1067 C1064 1.386 . S
C1068 C1063 1.490 . S
C1068 C1070 1.395 . S
C1068 C1071 1.403 . S
H1069 C1075 0.930 . S
C1070 H1056 0.930 . S
C1070 C1068 1.395 . S
C1070 C1073 1.403 . S
C1071 C1068 1.403 . S
C1071 C1072 1.524 . S
C1071 C1075 1.400 . S
C1072 H1057 0.960 . S
C1072 H1058 0.960 . S
C1072 H1059 0.960 . S
C1072 C1071 1.524 . S
C1073 C1070 1.403 . S
C1073 C1074 1.392 . S
C1073 C1077 1.495 . S
C1074 C1073 1.392 . S
C1074 C1075 1.385 . S
C1074 C1076 1.478 . S
C1075 H1069 0.930 . S
C1075 C1071 1.400 . S
C1075 C1074 1.385 . S
C1076 C1074 1.478 . S
C1076 C1078 1.381 . S
C1076 C1082 1.383 . S
C1077 C1073 1.495 . S
C1077 H1083 0.959 . S
C1077 H1084 0.961 . S
C1077 H1085 0.960 . S
C1078 C1076 1.381 . S
C1078 C1079 1.394 . S
C1078 H1086 0.930 . S
C1079 C1078 1.394 . S
C1079 C1080 1.383 . S
C1079 H1087 0.929 . S
C1080 C1079 1.383 . S
C1080 C1081 1.377 . S
C1081 H1065 0.930 . S
C1081 C1080 1.377 . S
C1081 C1082 1.379 . S
C1082 H1066 0.931 . S
C1082 C1076 1.383 . S
C1082 C1081 1.379 . S
H1083 C1077 0.959 . S
H1084 C1077 0.961 . S
H1085 C1077 0.960 . S
H1086 C1078 0.930 . S
H1087 C1079 0.929 . S
H1088 C1096 0.929 . S
H1089 C1098 0.930 . S
H1090 C1100 0.930 . S
H1091 C1103 0.929 . S
H1092 C1106 0.930 . S
H1093 C1108 0.960 . S
H1094 C1108 0.960 . S
H1095 C1108 0.960 . S
C1096 H1088 0.929 . S
C1096 C1097 1.377 . S
C1096 C1098 1.384 . S
C1097 C1096 1.377 . S
C1097 C1103 1.390 . S
C1098 H1089 0.930 . S
C1098 C1096 1.384 . S
C1098 C1099 1.372 . S
C1099 C1098 1.372 . S
C1099 C1100 1.400 . S
C1099 C1104 1.490 . S
C1100 H1090 0.930 . S
C1100 C1099 1.400 . S
C1100 C1103 1.386 . S
H1101 C1117 0.930 . S
H1102 C1118 0.931 . S
C1103 H1091 0.929 . S
C1103 C1097 1.390 . S
C1103 C1100 1.386 . S
C1104 C1099 1.490 . S
C1104 C1106 1.395 . S
C1104 C1107 1.403 . S
H1105 C1111 0.930 . S
C1106 H1092 0.930 . S
C1106 C1104 1.395 . S
C1106 C1109 1.403 1_545 S
C1107 C1104 1.403 . S
C1107 C1108 1.524 . S
C1107 C1111 1.400 1_545 S
C1108 H1093 0.960 . S
C1108 H1094 0.960 . S
C1108 H1095 0.960 . S
C1108 C1107 1.524 . S
C1109 C1106 1.403 1_565 S
C1109 C1110 1.392 . S
C1109 C1113 1.495 . S
C1110 C1109 1.392 . S
C1110 C1111 1.385 . S
C1110 C1112 1.478 . S
C1111 H1105 0.930 . S
C1111 C1107 1.400 1_565 S
C1111 C1110 1.385 . S
C1112 C1110 1.478 . S
C1112 C1114 1.381 . S
C1112 C1118 1.383 . S
C1113 C1109 1.495 . S
C1113 H1119 0.959 . S
C1113 H1120 0.961 . S
C1113 H1121 0.960 . S
C1114 C1112 1.381 . S
C1114 C1115 1.394 . S
C1114 H1122 0.930 . S
C1115 C1114 1.394 . S
C1115 C1116 1.383 . S
C1115 H1123 0.929 . S
C1116 C1115 1.383 . S
C1116 C1117 1.377 . S
C1117 H1101 0.930 . S
C1117 C1116 1.377 . S
C1117 C1118 1.379 . S
C1118 H1102 0.931 . S
C1118 C1112 1.383 . S
C1118 C1117 1.379 . S
H1119 C1113 0.959 . S
H1120 C1113 0.961 . S
H1121 C1113 0.960 . S
H1122 C1114 0.930 . S
H1123 C1115 0.929 . S
H1124 C1132 0.929 . S
H1125 C1134 0.930 . S
H1126 C1136 0.930 . S
H1127 C1139 0.929 . S
H1128 C1142 0.930 . S
H1129 C1144 0.960 . S
H1130 C1144 0.960 . S
H1131 C1144 0.960 . S
C1132 H1124 0.929 . S
C1132 C1133 1.377 . S
C1132 C1134 1.384 . S
C1133 C1132 1.377 . S
C1133 C1139 1.390 . S
C1134 H1125 0.930 . S
C1134 C1132 1.384 . S
C1134 C1135 1.372 . S
C1135 C1134 1.372 . S
C1135 C1136 1.400 . S
C1135 C1140 1.490 . S
C1136 H1126 0.930 . S
C1136 C1135 1.400 . S
C1136 C1139 1.386 . S
H1137 C1153 0.930 . S
H1138 C1154 0.931 . S
C1139 H1127 0.929 . S
C1139 C1133 1.390 . S
C1139 C1136 1.386 . S
C1140 C1135 1.490 . S
C1140 C1142 1.395 . S
C1140 C1143 1.403 . S
H1141 C1147 0.930 . S
C1142 H1128 0.930 . S
C1142 C1140 1.395 . S
C1142 C1145 1.403 1_655 S
C1143 C1140 1.403 . S
C1143 C1144 1.524 . S
C1143 C1147 1.400 1_655 S
C1144 H1129 0.960 . S
C1144 H1130 0.960 . S
C1144 H1131 0.960 . S
C1144 C1143 1.524 . S
C1145 C1142 1.403 1_455 S
C1145 C1146 1.392 . S
C1145 C1149 1.495 . S
C1146 C1145 1.392 . S
C1146 C1147 1.385 . S
C1146 C1148 1.478 . S
C1147 H1141 0.930 . S
C1147 C1143 1.400 1_455 S
C1147 C1146 1.385 . S
C1148 C1146 1.478 . S
C1148 C1150 1.381 . S
C1148 C1154 1.383 . S
C1149 C1145 1.495 . S
C1149 H1155 0.959 . S
C1149 H1156 0.961 . S
C1149 H1157 0.960 . S
C1150 C1148 1.381 . S
C1150 C1151 1.394 . S
C1150 H1158 0.930 . S
C1151 C1150 1.394 . S
C1151 C1152 1.383 . S
C1151 H1159 0.929 . S
C1152 C1151 1.383 . S
C1152 C1153 1.377 . S
C1153 H1137 0.930 . S
C1153 C1152 1.377 . S
C1153 C1154 1.379 . S
C1154 H1138 0.931 . S
C1154 C1148 1.383 . S
C1154 C1153 1.379 . S
H1155 C1149 0.959 . S
H1156 C1149 0.961 . S
H1157 C1149 0.960 . S
H1158 C1150 0.930 . S
H1159 C1151 0.929 . S
H1160 C1168 0.929 . S
H1161 C1170 0.930 . S
H1162 C1172 0.930 . S
H1163 C1175 0.929 . S
H1164 C1178 0.930 . S
H1165 C1180 0.960 . S
H1166 C1180 0.960 . S
H1167 C1180 0.960 . S
C1168 H1160 0.929 . S
C1168 C1169 1.377 . S
C1168 C1170 1.384 . S
C1169 C1168 1.377 . S
C1169 C1175 1.390 . S
C1170 H1161 0.930 . S
C1170 C1168 1.384 . S
C1170 C1171 1.372 . S
C1171 C1170 1.372 . S
C1171 C1172 1.400 . S
C1171 C1176 1.490 . S
C1172 H1162 0.930 . S
C1172 C1171 1.400 . S
C1172 C1175 1.386 . S
H1173 C1189 0.930 . S
H1174 C1190 0.931 . S
C1175 H1163 0.929 . S
C1175 C1169 1.390 . S
C1175 C1172 1.386 . S
C1176 C1171 1.490 . S
C1176 C1178 1.395 . S
C1176 C1179 1.403 . S
H1177 C1183 0.930 . S
C1178 H1164 0.930 . S
C1178 C1176 1.395 . S
C1178 C1181 1.403 1_545 S
C1179 C1176 1.403 . S
C1179 C1180 1.524 . S
C1179 C1183 1.400 1_545 S
C1180 H1165 0.960 . S
C1180 H1166 0.960 . S
C1180 H1167 0.960 . S
C1180 C1179 1.524 . S
C1181 C1178 1.403 1_565 S
C1181 C1182 1.392 . S
C1181 C1185 1.495 . S
C1182 C1181 1.392 . S
C1182 C1183 1.385 . S
C1182 C1184 1.478 . S
C1183 H1177 0.930 . S
C1183 C1179 1.400 1_565 S
C1183 C1182 1.385 . S
C1184 C1182 1.478 . S
C1184 C1186 1.381 . S
C1184 C1190 1.383 . S
C1185 C1181 1.495 . S
C1185 H1191 0.959 . S
C1185 H1192 0.961 . S
C1185 H1193 0.960 . S
C1186 C1184 1.381 . S
C1186 C1187 1.394 . S
C1186 H1194 0.930 . S
C1187 C1186 1.394 . S
C1187 C1188 1.383 . S
C1187 H1195 0.929 . S
C1188 C1187 1.383 . S
C1188 C1189 1.377 . S
C1189 H1173 0.930 . S
C1189 C1188 1.377 . S
C1189 C1190 1.379 . S
C1190 H1174 0.931 . S
C1190 C1184 1.383 . S
C1190 C1189 1.379 . S
H1191 C1185 0.959 . S
H1192 C1185 0.961 . S
H1193 C1185 0.960 . S
H1194 C1186 0.930 . S
H1195 C1187 0.929 . S
H1196 C1204 0.929 . S
H1197 C1206 0.930 . S
H1198 C1208 0.930 . S
H1199 C1211 0.929 . S
H1200 C1214 0.930 . S
H1201 C1216 0.960 . S
H1202 C1216 0.960 . S
H1203 C1216 0.960 . S
C1204 H1196 0.929 . S
C1204 C1205 1.377 . S
C1204 C1206 1.384 . S
C1205 C1204 1.377 . S
C1205 C1211 1.390 . S
C1206 H1197 0.930 . S
C1206 C1204 1.384 . S
C1206 C1207 1.372 . S
C1207 C1206 1.372 . S
C1207 C1208 1.400 . S
C1207 C1212 1.490 . S
C1208 H1198 0.930 . S
C1208 C1207 1.400 . S
C1208 C1211 1.386 . S
H1209 C1225 0.930 . S
H1210 C1226 0.931 . S
C1211 H1199 0.929 . S
C1211 C1205 1.390 . S
C1211 C1208 1.386 . S
C1212 C1207 1.490 . S
C1212 C1214 1.395 . S
C1212 C1215 1.403 . S
H1213 C1219 0.930 . S
C1214 H1200 0.930 . S
C1214 C1212 1.395 . S
C1214 C1217 1.403 1_455 S
C1215 C1212 1.403 . S
C1215 C1216 1.524 . S
C1215 C1219 1.400 1_455 S
C1216 H1201 0.960 . S
C1216 H1202 0.960 . S
C1216 H1203 0.960 . S
C1216 C1215 1.524 . S
C1217 C1214 1.403 1_655 S
C1217 C1218 1.392 . S
C1217 C1221 1.495 . S
C1218 C1217 1.392 . S
C1218 C1219 1.385 . S
C1218 C1220 1.478 . S
C1219 H1213 0.930 . S
C1219 C1215 1.400 1_655 S
C1219 C1218 1.385 . S
C1220 C1218 1.478 . S
C1220 C1222 1.381 . S
C1220 C1226 1.383 . S
C1221 C1217 1.495 . S
C1221 H1227 0.959 . S
C1221 H1228 0.961 . S
C1221 H1229 0.960 . S
C1222 C1220 1.381 . S
C1222 C1223 1.394 . S
C1222 H1230 0.930 . S
C1223 C1222 1.394 . S
C1223 C1224 1.383 . S
C1223 H1231 0.929 . S
C1224 C1223 1.383 . S
C1224 C1225 1.377 . S
C1225 H1209 0.930 . S
C1225 C1224 1.377 . S
C1225 C1226 1.379 . S
C1226 H1210 0.931 . S
C1226 C1220 1.383 . S
C1226 C1225 1.379 . S
H1227 C1221 0.959 . S
H1228 C1221 0.961 . S
H1229 C1221 0.960 . S
H1230 C1222 0.930 . S
H1231 C1223 0.929 . S
H1232 C1240 0.929 . S
H1233 C1242 0.930 . S
H1234 C1244 0.930 . S
H1235 C1247 0.929 . S
H1236 C1250 0.930 . S
H1237 C1252 0.960 . S
H1238 C1252 0.960 . S
H1239 C1252 0.960 . S
C1240 H1232 0.929 . S
C1240 C1241 1.377 . S
C1240 C1242 1.384 . S
C1241 C1240 1.377 . S
C1241 C1247 1.390 . S
C1242 H1233 0.930 . S
C1242 C1240 1.384 . S
C1242 C1243 1.372 . S
C1243 C1242 1.372 . S
C1243 C1244 1.400 . S
C1243 C1248 1.490 . S
C1244 H1234 0.930 . S
C1244 C1243 1.400 . S
C1244 C1247 1.386 . S
H1245 C1261 0.930 . S
H1246 C1262 0.931 . S
C1247 H1235 0.929 . S
C1247 C1241 1.390 . S
C1247 C1244 1.386 . S
C1248 C1243 1.490 . S
C1248 C1250 1.395 . S
C1248 C1251 1.403 . S
H1249 C1255 0.930 . S
C1250 H1236 0.930 . S
C1250 C1248 1.395 . S
C1250 C1253 1.403 1_545 S
C1251 C1248 1.403 . S
C1251 C1252 1.524 . S
C1251 C1255 1.400 1_545 S
C1252 H1237 0.960 . S
C1252 H1238 0.960 . S
C1252 H1239 0.960 . S
C1252 C1251 1.524 . S
C1253 C1250 1.403 1_565 S
C1253 C1254 1.392 . S
C1253 C1257 1.495 . S
C1254 C1253 1.392 . S
C1254 C1255 1.385 . S
C1254 C1256 1.478 . S
C1255 H1249 0.930 . S
C1255 C1251 1.400 1_565 S
C1255 C1254 1.385 . S
C1256 C1254 1.478 . S
C1256 C1258 1.381 . S
C1256 C1262 1.383 . S
C1257 C1253 1.495 . S
C1257 H1263 0.959 . S
C1257 H1264 0.961 . S
C1257 H1265 0.960 . S
C1258 C1256 1.381 . S
C1258 C1259 1.394 . S
C1258 H1266 0.930 . S
C1259 C1258 1.394 . S
C1259 C1260 1.383 . S
C1259 H1267 0.929 . S
C1260 C1259 1.383 . S
C1260 C1261 1.377 . S
C1261 H1245 0.930 . S
C1261 C1260 1.377 . S
C1261 C1262 1.379 . S
C1262 H1246 0.931 . S
C1262 C1256 1.383 . S
C1262 C1261 1.379 . S
H1263 C1257 0.959 . S
H1264 C1257 0.961 . S
H1265 C1257 0.960 . S
H1266 C1258 0.930 . S
H1267 C1259 0.929 . S
H1268 C1276 0.929 . S
H1269 C1278 0.930 . S
H1270 C1280 0.930 . S
H1271 C1283 0.929 . S
H1272 C1286 0.930 . S
H1273 C1288 0.960 1_455 S
H1274 C1288 0.960 . S
H1275 C1288 0.960 . S
C1276 H1268 0.929 . S
C1276 C1277 1.377 . S
C1276 C1278 1.384 . S
C1277 C1276 1.377 . S
C1277 C1283 1.390 . S
C1278 H1269 0.930 . S
C1278 C1276 1.384 . S
C1278 C1279 1.372 . S
C1279 C1278 1.372 . S
C1279 C1280 1.400 . S
C1279 C1284 1.490 . S
C1280 H1270 0.930 . S
C1280 C1279 1.400 . S
C1280 C1283 1.386 . S
H1281 C1297 0.930 . S
H1282 C1298 0.931 . S
C1283 H1271 0.929 . S
C1283 C1277 1.390 . S
C1283 C1280 1.386 . S
C1284 C1279 1.490 . S
C1284 C1286 1.395 . S
C1284 C1287 1.403 . S
H1285 C1291 0.930 . S
C1286 H1272 0.930 . S
C1286 C1284 1.395 . S
C1286 C1289 1.403 1_655 S
C1287 C1284 1.403 . S
C1287 C1288 1.524 . S
C1287 C1291 1.400 1_655 S
C1288 H1273 0.960 1_655 S
C1288 H1274 0.960 . S
C1288 H1275 0.960 . S
C1288 C1287 1.524 . S
C1289 C1286 1.403 1_455 S
C1289 C1290 1.392 . S
C1289 C1293 1.495 . S
C1290 C1289 1.392 . S
C1290 C1291 1.385 . S
C1290 C1292 1.478 . S
C1291 H1285 0.930 . S
C1291 C1287 1.400 1_455 S
C1291 C1290 1.385 . S
C1292 C1290 1.478 . S
C1292 C1294 1.381 . S
C1292 C1298 1.383 . S
C1293 C1289 1.495 . S
C1293 H1299 0.959 1_455 S
C1293 H1300 0.961 . S
C1293 H1301 0.960 . S
C1294 C1292 1.381 . S
C1294 C1295 1.394 . S
C1294 H1302 0.930 . S
C1295 C1294 1.394 . S
C1295 C1296 1.383 . S
C1295 H1303 0.929 . S
C1296 C1295 1.383 . S
C1296 C1297 1.377 . S
C1297 H1281 0.930 . S
C1297 C1296 1.377 . S
C1297 C1298 1.379 . S
C1298 H1282 0.931 . S
C1298 C1292 1.383 . S
C1298 C1297 1.379 . S
H1299 C1293 0.959 1_655 S
H1300 C1293 0.961 . S
H1301 C1293 0.960 . S
H1302 C1294 0.930 . S
H1303 C1295 0.929 . S
H1304 C1312 0.929 . S
H1305 C1314 0.930 . S
H1306 C1316 0.930 . S
H1307 C1319 0.929 . S
H1308 C1322 0.930 . S
H1309 C1324 0.960 . S
H1310 C1324 0.960 . S
H1311 C1324 0.960 . S
C1312 H1304 0.929 . S
C1312 C1313 1.377 . S
C1312 C1314 1.384 . S
C1313 C1312 1.377 . S
C1313 C1319 1.390 . S
C1314 H1305 0.930 . S
C1314 C1312 1.384 . S
C1314 C1315 1.372 . S
C1315 C1314 1.372 . S
C1315 C1316 1.400 . S
C1315 C1320 1.490 . S
C1316 H1306 0.930 . S
C1316 C1315 1.400 . S
C1316 C1319 1.386 . S
H1317 C1333 0.930 . S
H1318 C1334 0.931 . S
C1319 H1307 0.929 . S
C1319 C1313 1.390 . S
C1319 C1316 1.386 . S
C1320 C1315 1.490 . S
C1320 C1322 1.395 . S
C1320 C1323 1.403 . S
H1321 C1327 0.930 . S
C1322 H1308 0.930 . S
C1322 C1320 1.395 . S
C1322 C1325 1.403 1_565 S
C1323 C1320 1.403 . S
C1323 C1324 1.524 . S
C1323 C1327 1.400 1_565 S
C1324 H1309 0.960 . S
C1324 H1310 0.960 . S
C1324 H1311 0.960 . S
C1324 C1323 1.524 . S
C1325 C1322 1.403 1_545 S
C1325 C1326 1.392 . S
C1325 C1329 1.495 . S
C1326 C1325 1.392 . S
C1326 C1327 1.385 . S
C1326 C1328 1.478 . S
C1327 H1321 0.930 . S
C1327 C1323 1.400 1_545 S
C1327 C1326 1.385 . S
C1328 C1326 1.478 . S
C1328 C1330 1.381 . S
C1328 C1334 1.383 . S
C1329 C1325 1.495 . S
C1329 H1335 0.959 . S
C1329 H1336 0.961 . S
C1329 H1337 0.960 . S
C1330 C1328 1.381 . S
C1330 C1331 1.394 . S
C1330 H1338 0.930 . S
C1331 C1330 1.394 . S
C1331 C1332 1.383 . S
C1331 H1339 0.929 . S
C1332 C1331 1.383 . S
C1332 C1333 1.377 . S
C1333 H1317 0.930 . S
C1333 C1332 1.377 . S
C1333 C1334 1.379 . S
C1334 H1318 0.931 . S
C1334 C1328 1.383 . S
C1334 C1333 1.379 . S
H1335 C1329 0.959 . S
H1336 C1329 0.961 . S
H1337 C1329 0.960 . S
H1338 C1330 0.930 . S
H1339 C1331 0.929 . S
H1340 C1348 0.929 . S
H1341 C1350 0.930 . S
H1342 C1352 0.930 . S
H1343 C1355 0.929 . S
H1344 C1358 0.930 . S
H1345 C1360 0.960 . S
H1346 C1360 0.960 . S
H1347 C1360 0.960 . S
C1348 H1340 0.929 . S
C1348 C1349 1.377 . S
C1348 C1350 1.384 . S
C1349 C1348 1.377 . S
C1349 C1355 1.390 . S
C1350 H1341 0.930 . S
C1350 C1348 1.384 . S
C1350 C1351 1.372 . S
C1351 C1350 1.372 . S
C1351 C1352 1.400 . S
C1351 C1356 1.490 . S
C1352 H1342 0.930 . S
C1352 C1351 1.400 . S
C1352 C1355 1.386 . S
H1353 C1369 0.930 . S
H1354 C1370 0.931 . S
C1355 H1343 0.929 . S
C1355 C1349 1.390 . S
C1355 C1352 1.386 . S
C1356 C1351 1.490 . S
C1356 C1358 1.395 . S
C1356 C1359 1.403 . S
H1357 C1363 0.930 . S
C1358 H1344 0.930 . S
C1358 C1356 1.395 . S
C1358 C1361 1.403 1_455 S
C1359 C1356 1.403 . S
C1359 C1360 1.524 . S
C1359 C1363 1.400 1_455 S
C1360 H1345 0.960 . S
C1360 H1346 0.960 . S
C1360 H1347 0.960 . S
C1360 C1359 1.524 . S
C1361 C1358 1.403 1_655 S
C1361 C1362 1.392 . S
C1361 C1365 1.495 . S
C1362 C1361 1.392 . S
C1362 C1363 1.385 . S
C1362 C1364 1.478 . S
C1363 H1357 0.930 . S
C1363 C1359 1.400 1_655 S
C1363 C1362 1.385 . S
C1364 C1362 1.478 . S
C1364 C1366 1.381 . S
C1364 C1370 1.383 . S
C1365 C1361 1.495 . S
C1365 H1371 0.959 . S
C1365 H1372 0.961 . S
C1365 H1373 0.960 . S
C1366 C1364 1.381 . S
C1366 C1367 1.394 . S
C1366 H1374 0.930 . S
C1367 C1366 1.394 . S
C1367 C1368 1.383 . S
C1367 H1375 0.929 . S
C1368 C1367 1.383 . S
C1368 C1369 1.377 . S
C1369 H1353 0.930 . S
C1369 C1368 1.377 . S
C1369 C1370 1.379 . S
C1370 H1354 0.931 . S
C1370 C1364 1.383 . S
C1370 C1369 1.379 . S
H1371 C1365 0.959 . S
H1372 C1365 0.961 . S
H1373 C1365 0.960 . S
H1374 C1366 0.930 . S
H1375 C1367 0.929 . S
C233 C76 1.582 . S
C252 C6 1.595 . S
C269 C90 1.580 . S
C288 C20 1.564 . S
C305 C34 1.580 . S
C324 C104 1.563 . S
C341 C48 1.576 . S
C360 C62 1.553 . S
C377 C188 1.584 . S
C396 C118 1.601 . S
C413 C202 1.579 . S
C432 C132 1.561 . S
C449 C146 1.580 . S
C468 C216 1.588 . S
C485 C160 1.581 . S
C504 C174 1.592 . S
C521 C147 1.507 . S
C540 C7 1.476 . S
C557 C161 1.501 . S
C576 C21 1.495 . S
C593 C119 1.507 . S
C612 C35 1.484 . S
C629 C49 1.498 . S
C648 C133 1.522 . S
C665 C203 1.507 . S
C684 C63 1.477 . S
C701 C217 1.506 . S
C720 C77 1.490 . S
C737 C91 1.502 . S
C756 C175 1.490 . S
C773 C189 1.499 . S
C792 C105 1.521 . S
C809 C64 0.283 . S
C828 C8 0.237 . S
C845 C22 0.265 . S
C864 C78 0.327 . S
C881 C36 0.284 . S
C900 C92 0.295 . S
C917 C106 0.271 . S
C936 C50 0.334 . S
C953 C121 2.511 . S
C972 C177 2.509 . S
C989 C191 2.510 . S
C1008 C135 2.510 . S
C1025 C149 2.510 . S
C1044 C205 2.510 . S
C1061 C219 2.512 . S
C1080 C163 2.503 . S
C1097 C162 0.264 . S
C1116 C190 0.297 . S
C1133 C120 0.286 . S
C1152 C204 0.267 . S
C1169 C218 0.264 . S
C1188 C134 0.299 . S
C1205 C148 0.273 . S
C1224 C176 0.242 . S
C1241 C79 2.511 . S
C1260 C51 2.507 . S
C1277 C93 2.511 . S
C1296 C9 2.507 . S
C1313 C107 2.510 . S
C1332 C23 2.510 . S
C1349 C65 2.510 . S
C1368 C37 2.509 . S
