# Generated by pormake.
# Topology ukj, (4)-cn, num edge types: 1
# Building blocks:
#     Node 0, Type 0, BuildingBlock: KOZSID_clean_sbu_0, # of connection points: 4
#     Node 1, Type 0, BuildingBlock: KOZSID_clean_sbu_0, # of connection points: 4
#     Node 2, Type 0, BuildingBlock: KOZSID_clean_sbu_0, # of connection points: 4
#     Node 3, Type 0, BuildingBlock: KOZSID_clean_sbu_0, # of connection points: 4
#     Node 4, Type 0, BuildingBlock: KOZSID_clean_sbu_0, # of connection points: 4
#     Node 5, Type 0, BuildingBlock: KOZSID_clean_sbu_0, # of connection points: 4
#     Node 6, Type 0, BuildingBlock: KOZSID_clean_sbu_0, # of connection points: 4
#     Node 7, Type 0, BuildingBlock: KOZSID_clean_sbu_0, # of connection points: 4
#     Node 8, Type 0, BuildingBlock: KOZSID_clean_sbu_0, # of connection points: 4
#     Node 9, Type 0, BuildingBlock: KOZSID_clean_sbu_0, # of connection points: 4
#     Node 10, Type 0, BuildingBlock: KOZSID_clean_sbu_0, # of connection points: 4
#     Node 11, Type 0, BuildingBlock: KOZSID_clean_sbu_0, # of connection points: 4
#     Node 12, Type 0, BuildingBlock: KOZSID_clean_sbu_0, # of connection points: 4
#     Node 13, Type 0, BuildingBlock: KOZSID_clean_sbu_0, # of connection points: 4
#     Node 14, Type 0, BuildingBlock: KOZSID_clean_sbu_0, # of connection points: 4
#     Node 15, Type 0, BuildingBlock: KOZSID_clean_sbu_0, # of connection points: 4
#     Node 16, Type 0, BuildingBlock: KOZSID_clean_sbu_0, # of connection points: 4
#     Node 17, Type 0, BuildingBlock: KOZSID_clean_sbu_0, # of connection points: 4
#     Node 18, Type 0, BuildingBlock: KOZSID_clean_sbu_0, # of connection points: 4
#     Node 19, Type 0, BuildingBlock: KOZSID_clean_sbu_0, # of connection points: 4
#     Node 20, Type 0, BuildingBlock: KOZSID_clean_sbu_0, # of connection points: 4
#     Node 21, Type 0, BuildingBlock: KOZSID_clean_sbu_0, # of connection points: 4
#     Node 22, Type 0, BuildingBlock: KOZSID_clean_sbu_0, # of connection points: 4
#     Node 23, Type 0, BuildingBlock: KOZSID_clean_sbu_0, # of connection points: 4
#     Node 24, Type 0, BuildingBlock: KOZSID_clean_sbu_0, # of connection points: 4
#     Node 25, Type 0, BuildingBlock: KOZSID_clean_sbu_0, # of connection points: 4
#     Node 26, Type 0, BuildingBlock: KOZSID_clean_sbu_0, # of connection points: 4
#     Node 27, Type 0, BuildingBlock: KOZSID_clean_sbu_0, # of connection points: 4
#     Node 28, Type 0, BuildingBlock: KOZSID_clean_sbu_0, # of connection points: 4
#     Node 29, Type 0, BuildingBlock: KOZSID_clean_sbu_0, # of connection points: 4
#     Node 30, Type 0, BuildingBlock: KOZSID_clean_sbu_0, # of connection points: 4
#     Node 31, Type 0, BuildingBlock: KOZSID_clean_sbu_0, # of connection points: 4
#     Edge 32, Type (0, 0), BuildingBlock: XUDNAN_clean_linker_2, # of connection points: 2
#     Edge 33, Type (0, 0), BuildingBlock: XUDNAN_clean_linker_2, # of connection points: 2
#     Edge 34, Type (0, 0), BuildingBlock: XUDNAN_clean_linker_2, # of connection points: 2
#     Edge 35, Type (0, 0), BuildingBlock: XUDNAN_clean_linker_2, # of connection points: 2
#     Edge 36, Type (0, 0), BuildingBlock: XUDNAN_clean_linker_2, # of connection points: 2
#     Edge 37, Type (0, 0), BuildingBlock: XUDNAN_clean_linker_2, # of connection points: 2
#     Edge 38, Type (0, 0), BuildingBlock: XUDNAN_clean_linker_2, # of connection points: 2
#     Edge 39, Type (0, 0), BuildingBlock: XUDNAN_clean_linker_2, # of connection points: 2
#     Edge 40, Type (0, 0), BuildingBlock: XUDNAN_clean_linker_2, # of connection points: 2
#     Edge 41, Type (0, 0), BuildingBlock: XUDNAN_clean_linker_2, # of connection points: 2
#     Edge 42, Type (0, 0), BuildingBlock: XUDNAN_clean_linker_2, # of connection points: 2
#     Edge 43, Type (0, 0), BuildingBlock: XUDNAN_clean_linker_2, # of connection points: 2
#     Edge 44, Type (0, 0), BuildingBlock: XUDNAN_clean_linker_2, # of connection points: 2
#     Edge 45, Type (0, 0), BuildingBlock: XUDNAN_clean_linker_2, # of connection points: 2
#     Edge 46, Type (0, 0), BuildingBlock: XUDNAN_clean_linker_2, # of connection points: 2
#     Edge 47, Type (0, 0), BuildingBlock: XUDNAN_clean_linker_2, # of connection points: 2
#     Edge 48, Type (0, 0), BuildingBlock: XUDNAN_clean_linker_2, # of connection points: 2
#     Edge 49, Type (0, 0), BuildingBlock: XUDNAN_clean_linker_2, # of connection points: 2
#     Edge 50, Type (0, 0), BuildingBlock: XUDNAN_clean_linker_2, # of connection points: 2
#     Edge 51, Type (0, 0), BuildingBlock: XUDNAN_clean_linker_2, # of connection points: 2
#     Edge 52, Type (0, 0), BuildingBlock: XUDNAN_clean_linker_2, # of connection points: 2
#     Edge 53, Type (0, 0), BuildingBlock: XUDNAN_clean_linker_2, # of connection points: 2
#     Edge 54, Type (0, 0), BuildingBlock: XUDNAN_clean_linker_2, # of connection points: 2
#     Edge 55, Type (0, 0), BuildingBlock: XUDNAN_clean_linker_2, # of connection points: 2
#     Edge 56, Type (0, 0), BuildingBlock: XUDNAN_clean_linker_2, # of connection points: 2
#     Edge 57, Type (0, 0), BuildingBlock: XUDNAN_clean_linker_2, # of connection points: 2
#     Edge 58, Type (0, 0), BuildingBlock: XUDNAN_clean_linker_2, # of connection points: 2
#     Edge 59, Type (0, 0), BuildingBlock: XUDNAN_clean_linker_2, # of connection points: 2
#     Edge 60, Type (0, 0), BuildingBlock: XUDNAN_clean_linker_2, # of connection points: 2
#     Edge 61, Type (0, 0), BuildingBlock: XUDNAN_clean_linker_2, # of connection points: 2
#     Edge 62, Type (0, 0), BuildingBlock: XUDNAN_clean_linker_2, # of connection points: 2
#     Edge 63, Type (0, 0), BuildingBlock: XUDNAN_clean_linker_2, # of connection points: 2
#     Edge 64, Type (0, 0), BuildingBlock: XUDNAN_clean_linker_2, # of connection points: 2
#     Edge 65, Type (0, 0), BuildingBlock: XUDNAN_clean_linker_2, # of connection points: 2
#     Edge 66, Type (0, 0), BuildingBlock: XUDNAN_clean_linker_2, # of connection points: 2
#     Edge 67, Type (0, 0), BuildingBlock: XUDNAN_clean_linker_2, # of connection points: 2
#     Edge 68, Type (0, 0), BuildingBlock: XUDNAN_clean_linker_2, # of connection points: 2
#     Edge 69, Type (0, 0), BuildingBlock: XUDNAN_clean_linker_2, # of connection points: 2
#     Edge 70, Type (0, 0), BuildingBlock: XUDNAN_clean_linker_2, # of connection points: 2
#     Edge 71, Type (0, 0), BuildingBlock: XUDNAN_clean_linker_2, # of connection points: 2
#     Edge 72, Type (0, 0), BuildingBlock: XUDNAN_clean_linker_2, # of connection points: 2
#     Edge 73, Type (0, 0), BuildingBlock: XUDNAN_clean_linker_2, # of connection points: 2
#     Edge 74, Type (0, 0), BuildingBlock: XUDNAN_clean_linker_2, # of connection points: 2
#     Edge 75, Type (0, 0), BuildingBlock: XUDNAN_clean_linker_2, # of connection points: 2
#     Edge 76, Type (0, 0), BuildingBlock: XUDNAN_clean_linker_2, # of connection points: 2
#     Edge 77, Type (0, 0), BuildingBlock: XUDNAN_clean_linker_2, # of connection points: 2
#     Edge 78, Type (0, 0), BuildingBlock: XUDNAN_clean_linker_2, # of connection points: 2
#     Edge 79, Type (0, 0), BuildingBlock: XUDNAN_clean_linker_2, # of connection points: 2
#     Edge 80, Type (0, 0), BuildingBlock: XUDNAN_clean_linker_2, # of connection points: 2
#     Edge 81, Type (0, 0), BuildingBlock: XUDNAN_clean_linker_2, # of connection points: 2
#     Edge 82, Type (0, 0), BuildingBlock: XUDNAN_clean_linker_2, # of connection points: 2
#     Edge 83, Type (0, 0), BuildingBlock: XUDNAN_clean_linker_2, # of connection points: 2
#     Edge 84, Type (0, 0), BuildingBlock: XUDNAN_clean_linker_2, # of connection points: 2
#     Edge 85, Type (0, 0), BuildingBlock: XUDNAN_clean_linker_2, # of connection points: 2
#     Edge 86, Type (0, 0), BuildingBlock: XUDNAN_clean_linker_2, # of connection points: 2
#     Edge 87, Type (0, 0), BuildingBlock: XUDNAN_clean_linker_2, # of connection points: 2
#     Edge 88, Type (0, 0), BuildingBlock: XUDNAN_clean_linker_2, # of connection points: 2
#     Edge 89, Type (0, 0), BuildingBlock: XUDNAN_clean_linker_2, # of connection points: 2
#     Edge 90, Type (0, 0), BuildingBlock: XUDNAN_clean_linker_2, # of connection points: 2
#     Edge 91, Type (0, 0), BuildingBlock: XUDNAN_clean_linker_2, # of connection points: 2
#     Edge 92, Type (0, 0), BuildingBlock: XUDNAN_clean_linker_2, # of connection points: 2
#     Edge 93, Type (0, 0), BuildingBlock: XUDNAN_clean_linker_2, # of connection points: 2
#     Edge 94, Type (0, 0), BuildingBlock: XUDNAN_clean_linker_2, # of connection points: 2
#     Edge 95, Type (0, 0), BuildingBlock: XUDNAN_clean_linker_2, # of connection points: 2
# Relax obj value: 0.006
# Max RMSD: 0.172
# Mean RMSD: 0.172
data_MOF--net-ukj--node1-KOZSID_clean_sbu_0--edge1-XUDNAN_clean_linker_2
_symmetry_space_group_name_H-M    P1
_symmetry_Int_Tables_number       1
_symmetry_cell_setting            triclinic
loop_
_symmetry_equiv_pos_as_xyz
'x, y, z'
_cell_length_a     44.61637
_cell_length_b     76.702419
_cell_length_c     61.923611
_cell_angle_alpha  89.995173
_cell_angle_beta   89.94494
_cell_angle_gamma 90.004165
loop_
_atom_site_label
_atom_site_type_symbol
_atom_site_fract_x
_atom_site_fract_y
_atom_site_fract_z
_atom_type_partial_charge
C0 C 0.17616 0.35991 0.29292 0.0
C1 C 0.16391 0.37637 0.29619 0.0
C2 C 0.15052 0.38112 0.2773 0.0
C3 C 0.15564 0.36751 0.26347 0.0
N4 N 0.17157 0.35439 0.27232 0.0
Co5 Co 0.18576 0.33295 0.25708 0.0
N6 N 0.17572 0.3429 0.22813 0.0
C7 C 0.16005 0.35761 0.2244 0.0
C8 C 0.15774 0.36184 0.20298 0.0
C9 C 0.17237 0.34881 0.19234 0.0
C10 C 0.18242 0.33718 0.20795 0.0
N11 N 0.19967 0.31145 0.24178 0.0
C12 C 0.20239 0.30791 0.2203 0.0
C13 C 0.21046 0.29065 0.21695 0.0
C14 C 0.21236 0.28304 0.23691 0.0
C15 C 0.20534 0.29601 0.25132 0.0
N16 N 0.19591 0.32335 0.28621 0.0
C17 C 0.2018 0.3065 0.2906 0.0
C18 C 0.20749 0.30349 0.31206 0.0
C19 C 0.2048 0.31942 0.32192 0.0
C20 C 0.19766 0.33132 0.30587 0.0
N21 N 0.14512 0.3223 0.25916 0.0
C22 C 0.09489 0.29983 0.26401 0.0
C23 C 0.10593 0.30976 0.28142 0.0
C24 C 0.13067 0.32098 0.27862 0.0
C25 C 0.10824 0.30262 0.24379 0.0
C26 C 0.13297 0.31384 0.24172 0.0
N27 N 0.2268 0.34287 0.25503 0.0
C28 C 0.28019 0.33925 0.26057 0.0
C29 C 0.28583 0.35644 0.25425 0.0
C30 C 0.26128 0.36668 0.24792 0.0
C31 C 0.232 0.35969 0.24847 0.0
C32 C 0.25084 0.33272 0.26066 0.0
H33 H 0.21359 0.36801 0.24395 0.0
H34 H 0.2477 0.31945 0.26574 0.0
H35 H 0.1389 0.32798 0.29251 0.0
H36 H 0.14308 0.31484 0.22605 0.0
C37 C 0.15058 0.3681 0.24136 0.0
C38 C 0.19006 0.34966 0.3103 0.0
C39 C 0.19392 0.31978 0.20266 0.0
C40 C 0.20524 0.29444 0.27384 0.0
H41 H 0.16461 0.38421 0.31071 0.0
H42 H 0.13965 0.39341 0.27377 0.0
H43 H 0.14703 0.37316 0.19595 0.0
H44 H 0.17447 0.34769 0.17498 0.0
H45 H 0.21362 0.28409 0.20165 0.0
H46 H 0.21796 0.26962 0.24047 0.0
H47 H 0.21349 0.29125 0.3196 0.0
H48 H 0.20741 0.32196 0.33901 0.0
H49 H 0.09597 0.30862 0.2973 0.0
H50 H 0.10076 0.29546 0.22972 0.0
H51 H 0.2984 0.33093 0.26581 0.0
H52 H 0.26457 0.38015 0.24323 0.0
C53 C 0.12242 0.89732 0.28535 0.0
C54 C 0.14155 0.88325 0.2886 0.0
C55 C 0.15081 0.8779 0.26868 0.0
C56 C 0.13764 0.88926 0.25451 0.0
N57 N 0.12113 0.90177 0.26419 0.0
Co58 Co 0.1026 0.92248 0.2498 0.0
N59 N 0.11395 0.91372 0.22045 0.0
C60 C 0.12578 0.89795 0.2158 0.0
C61 C 0.12987 0.89512 0.19415 0.0
C62 C 0.12056 0.9101 0.1844 0.0
C63 C 0.11174 0.92138 0.20078 0.0
N64 N 0.08611 0.94382 0.23525 0.0
C65 C 0.08927 0.94946 0.21449 0.0
C66 C 0.07796 0.96618 0.21194 0.0
C67 C 0.06747 0.97131 0.23171 0.0
C68 C 0.07323 0.95757 0.24525 0.0
N69 N 0.08964 0.93039 0.27934 0.0
C70 C 0.07365 0.94493 0.28367 0.0
C71 C 0.0631 0.94562 0.30444 0.0
C72 C 0.07237 0.93044 0.31388 0.0
C73 C 0.08865 0.92138 0.29841 0.0
N74 N 0.1418 0.93524 0.2522 0.0
C75 C 0.1953 0.95558 0.2507 0.0
C76 C 0.16943 0.9617 0.26101 0.0
C77 C 0.14339 0.95136 0.26182 0.0
C78 C 0.194 0.9388 0.24171 0.0
C79 C 0.16736 0.92899 0.24256 0.0
N80 N 0.06296 0.91012 0.24725 0.0
C81 C 1.00837 0.91113 0.24676 0.0
C82 C 1.00606 0.89297 0.24537 0.0
C83 C 0.03318 0.88359 0.24486 0.0
C84 C 0.06102 0.89229 0.24573 0.0
C85 C 0.03651 0.91929 0.2477 0.0
H86 H 0.08075 0.88434 0.24525 0.0
H87 H 0.0361 0.93314 0.24881 0.0
H88 H 0.12462 0.9568 0.27011 0.0
H89 H 0.16778 0.91647 0.23497 0.0
C90 C 0.13757 0.88749 0.23212 0.0
C91 C 0.10244 0.90414 0.30218 0.0
C92 C 0.10383 0.93963 0.19703 0.0
C93 C 0.06736 0.95714 0.26746 0.0
H94 H 0.14677 0.87685 0.30371 0.0
H95 H 0.16444 0.86662 0.26492 0.0
H96 H 0.13999 0.88389 0.18646 0.0
H97 H 0.12139 0.91268 0.16723 0.0
H98 H 0.07787 0.97405 0.19745 0.0
H99 H 0.05756 0.98375 0.23583 0.0
H100 H 0.04921 0.95563 0.31162 0.0
H101 H 0.06681 0.92643 0.3301 0.0
H102 H 0.16932 0.97439 0.2687 0.0
H103 H 0.21333 0.93335 0.23355 0.0
H104 H 0.98849 0.91923 0.24678 0.0
H105 H 0.0331 0.86949 0.24405 0.0
C106 C 0.17796 0.90295 0.96391 0.0
C107 C 0.17089 0.88552 0.96041 0.0
C108 C 0.16932 0.87774 0.98022 0.0
C109 C 0.17557 0.89073 0.99471 0.0
N110 N 0.18059 0.90634 0.98535 0.0
Co111 Co 0.19325 0.92788 1.00074 0.0
N112 N 0.18023 0.91828 0.029 0.0
C113 C 0.17582 0.90135 0.03368 0.0
C114 C 0.16677 0.89865 0.0546 0.0
C115 C 0.1654 0.91491 0.06366 0.0
C116 C 0.17381 0.92664 0.04766 0.0
N117 N 0.20552 0.94925 0.01648 0.0
C118 C 0.1964 0.95517 0.03611 0.0
C119 C 0.20965 0.97104 0.04085 0.0
C120 C 0.22758 0.97516 0.02345 0.0
C121 C 0.22432 0.96158 0.00912 0.0
N122 N 0.20694 0.93717 0.97236 0.0
C123 C 0.22571 0.95077 0.96975 0.0
C124 C 0.23227 0.95398 0.94843 0.0
C125 C 0.21708 0.94146 0.93695 0.0
C126 C 0.20213 0.93119 0.95193 0.0
N127 N 0.15323 0.93876 0.9966 0.0
C128 C 0.09934 0.95835 0.99995 0.0
C129 C 0.12524 0.96547 0.99063 0.0
C130 C 0.15165 0.95557 0.98913 0.0
C131 C 0.10067 0.94067 0.00619 0.0
C132 C 0.12759 0.9311 0.0042 0.0
N133 N 0.23383 0.91784 0.00526 0.0
C134 C 0.27837 0.91568 0.02741 0.0
C135 C 0.2949 0.90829 0.01037 0.0
C136 C 0.27945 0.90496 0.99104 0.0
C137 C 0.24913 0.9098 0.98882 0.0
C138 C 0.24813 0.92025 0.02459 0.0
H139 H 0.23846 0.90754 0.97347 0.0
H140 H 0.23659 0.92627 0.03796 0.0
H141 H 0.1713 0.96205 0.98309 0.0
H142 H 0.12803 0.91777 0.00979 0.0
C143 C 0.17461 0.88904 0.01715 0.0
C144 C 0.18556 0.91513 0.94641 0.0
C145 C 0.17654 0.94547 0.05083 0.0
C146 C 0.2336 0.96136 0.98742 0.0
H147 H 0.16826 0.87888 0.94511 0.0
H148 H 0.16424 0.86422 0.98365 0.0
H149 H 0.16041 0.88643 0.06206 0.0
H150 H 0.15876 0.91778 0.08009 0.0
H151 H 0.20656 0.9788 0.05527 0.0
H152 H 0.24032 0.98702 0.02115 0.0
H153 H 0.24596 0.96439 0.94195 0.0
H154 H 0.21737 0.93993 0.91959 0.0
H155 H 0.12579 0.97899 0.98561 0.0
H156 H 0.08121 0.9343 0.01306 0.0
H157 H 0.28881 0.91818 0.04288 0.0
H158 H 0.29098 0.89928 0.97734 0.0
C159 C 0.11804 0.36297 0.97019 0.0
C160 C 0.12485 0.38043 0.9666 0.0
C161 C 0.12593 0.38831 0.98639 0.0
C162 C 0.11967 0.37535 1.00094 0.0
N163 N 0.11511 0.35969 0.99161 0.0
Co164 Co 0.10259 0.33816 0.007 0.0
N165 N 0.11565 0.34777 0.03517 0.0
C166 C 0.11983 0.36469 0.03992 0.0
C167 C 0.12915 0.3673 0.0608 0.0
C168 C 0.13097 0.35096 0.0697 0.0
C169 C 0.12261 0.33931 0.05363 0.0
N170 N 0.09015 0.31687 0.02281 0.0
C171 C 0.09961 0.31091 0.0423 0.0
C172 C 0.08632 0.29506 0.04715 0.0
C173 C 0.06803 0.29103 0.02994 0.0
C174 C 0.07114 0.30463 0.01559 0.0
N175 N 0.0893 0.3287 0.97868 0.0
C176 C 0.07056 0.31509 0.97607 0.0
C177 C 0.06446 0.31173 0.95472 0.0
C178 C 0.07995 0.32416 0.94324 0.0
C179 C 0.09461 0.33452 0.95825 0.0
N180 N 0.14269 0.32743 1.0029 0.0
C181 C 0.19818 0.30925 1.00358 0.0
C182 C 0.1716 0.30106 0.99707 0.0
C183 C 0.14447 0.31031 0.99666 0.0
C184 C 0.19635 0.3271 0.00898 0.0
C185 C 0.16852 0.3359 0.00858 0.0
N186 N 0.06191 0.3482 0.01137 0.0
C187 C 1.01802 0.35167 0.03401 0.0
C188 C 1.00086 0.35819 0.0167 0.0
C189 C 1.01588 0.36041 0.99688 0.0
C190 C 0.0462 0.35551 0.99463 0.0
C191 C 0.04805 0.34667 0.03101 0.0
H192 H 0.05656 0.35717 0.97905 0.0
H193 H 0.05985 0.34113 0.04457 0.0
H194 H 0.12466 0.30329 0.99193 0.0
H195 H 0.16774 0.3494 0.01348 0.0
C196 C 0.12067 0.37707 0.02341 0.0
C197 C 0.11124 0.35057 0.95277 0.0
C198 C 0.12025 0.32043 0.05657 0.0
C199 C 0.06217 0.30469 0.99382 0.0
H200 H 0.12776 0.38697 0.95126 0.0
H201 H 0.13085 0.40186 0.98975 0.0
H202 H 0.1354 0.3795 0.06833 0.0
H203 H 0.13783 0.34797 0.08604 0.0
H204 H 0.08975 0.28722 0.06146 0.0
H205 H 0.05535 0.27914 0.02767 0.0
H206 H 0.05084 0.3013 0.94822 0.0
H207 H 0.08 0.32559 0.92586 0.0
H208 H 0.17166 0.28749 0.99224 0.0
H209 H 0.21613 0.33414 0.0141 0.0
H210 H 1.00836 0.35018 0.04994 0.0
H211 H 1.00415 0.36534 0.98287 0.0
C212 C 0.82602 0.68283 0.70342 0.0
C213 C 0.80584 0.69329 0.69232 0.0
C214 C 0.79825 0.70665 0.70584 0.0
C215 C 0.81365 0.70352 0.72457 0.0
N216 N 0.83105 0.6891 0.72376 0.0
Co217 Co 0.85198 0.67796 0.74898 0.0
N218 N 0.83789 0.69633 0.76975 0.0
C219 C 0.82082 0.71033 0.76479 0.0
C220 C 0.81399 0.72054 0.78225 0.0
C221 C 0.82843 0.71295 0.79926 0.0
C222 C 0.84391 0.69865 0.79114 0.0
N223 N 0.87217 0.66624 0.77413 0.0
C224 C 0.87855 0.67252 0.79416 0.0
C225 C 0.89972 0.66205 0.80439 0.0
C226 C 0.90494 0.64818 0.79137 0.0
C227 C 0.88816 0.65123 0.77334 0.0
N228 N 0.86738 0.66 0.7282 0.0
C229 C 0.88651 0.6469 0.73271 0.0
C230 C 0.89583 0.63769 0.71503 0.0
C231 C 0.88111 0.64508 0.69813 0.0
C232 C 0.86285 0.65807 0.70669 0.0
N233 N 0.88888 0.6926 0.74417 0.0
C234 C 0.93922 0.71543 0.74701 0.0
C235 C 0.94203 0.69742 0.7505 0.0
C236 C 0.917 0.68635 0.74871 0.0
C237 C 0.91113 0.72147 0.74027 0.0
C238 C 0.88659 0.70996 0.73889 0.0
N239 N 0.8145 0.66381 0.75398 0.0
C240 C 0.78706 0.6363 0.75455 0.0
C241 C 0.75931 0.6449 0.75683 0.0
C242 C 0.76022 0.66305 0.75832 0.0
C243 C 0.78746 0.67205 0.75698 0.0
C244 C 0.81414 0.64591 0.75316 0.0
H245 H 0.78572 0.68579 0.75823 0.0
H246 H 0.83455 0.63868 0.75119 0.0
H247 H 0.9208 0.67284 0.75178 0.0
H248 H 0.8657 0.71558 0.73427 0.0
C249 C 0.81018 0.71291 0.74378 0.0
C250 C 0.8394 0.66685 0.6943 0.0
C251 C 0.86537 0.68831 0.80398 0.0
C252 C 0.89415 0.64309 0.75382 0.0
H253 H 0.79665 0.69129 0.67638 0.0
H254 H 0.78227 0.71696 0.70273 0.0
H255 H 0.80007 0.73209 0.7826 0.0
H256 H 0.8278 0.71763 0.81571 0.0
H257 H 0.91192 0.66446 0.81912 0.0
H258 H 0.92166 0.63812 0.79371 0.0
H259 H 0.91101 0.62669 0.71455 0.0
H260 H 0.8829 0.64089 0.6815 0.0
H261 H 0.96344 0.69186 0.755 0.0
H262 H 0.90762 0.73519 0.73705 0.0
H263 H 0.78794 0.62223 0.75341 0.0
H264 H 0.73986 0.67048 0.76079 0.0
C265 C 0.96452 0.08077 0.7083 0.0
C266 C 0.98732 0.07313 0.6962 0.0
C267 C 1.00243 0.06202 0.70961 0.0
C268 C 0.98865 0.06358 0.72927 0.0
N269 N 0.96534 0.0748 0.7291 0.0
Co270 Co 0.94497 0.08349 0.75575 0.0
N271 N 0.96098 0.0642 0.77397 0.0
C272 C 0.98381 0.05361 0.76877 0.0
C273 C 0.98921 0.04116 0.78426 0.0
C274 C 0.9684 0.04416 0.80025 0.0
C275 C 0.95152 0.05831 0.79357 0.0
N276 N 0.92568 0.09269 0.78242 0.0
C277 C 0.92049 0.08481 0.80163 0.0
C278 C 0.90671 0.09609 0.81608 0.0
C279 C 0.90269 0.11151 0.80537 0.0
C280 C 0.91434 0.10879 0.78513 0.0
N281 N 0.9278 0.10259 0.73768 0.0
C282 C 0.91241 0.11646 0.74514 0.0
C283 C 0.89866 0.12587 0.72919 0.0
C284 C 0.90642 0.11774 0.7104 0.0
C285 C 0.92568 0.10418 0.71584 0.0
N286 N 0.90933 0.06859 0.74991 0.0
C287 C 0.86092 0.04451 0.74644 0.0
C288 C 0.85625 0.06179 0.7534 0.0
C289 C 0.8806 0.07362 0.75485 0.0
C290 C 0.89046 0.03983 0.74114 0.0
C291 C 0.91395 0.05187 0.74293 0.0
N292 N 0.9816 0.09758 0.76185 0.0
C293 C 0.02515 0.11352 0.74878 0.0
C294 C 0.04115 0.11049 0.76807 0.0
C295 C 0.02525 0.10168 0.78454 0.0
C296 C 0.99573 0.09582 0.78132 0.0
C297 C 0.99577 0.107 0.74601 0.0
H298 H 0.98494 0.08901 0.79443 0.0
H299 H 0.98504 0.10913 0.73067 0.0
H300 H 0.87619 0.08671 0.76036 0.0
H301 H 0.93616 0.04731 0.73927 0.0
C302 C 0.99637 0.05437 0.74806 0.0
C303 C 0.94474 0.09489 0.70004 0.0
C304 C 0.9281 0.06672 0.80666 0.0
C305 C 0.90847 0.11918 0.76721 0.0
H306 H 0.99359 0.07579 0.67968 0.0
H307 H 1.02165 0.05404 0.70558 0.0
H308 H 1.00562 0.03077 0.78371 0.0
H309 H 0.96605 0.03689 0.81513 0.0
H310 H 0.8996 0.09333 0.83245 0.0
H311 H 0.89084 0.12289 0.81118 0.0
H312 H 0.88402 0.13703 0.73103 0.0
H313 H 0.89913 0.12169 0.69449 0.0
H314 H 0.83393 0.06622 0.75754 0.0
H315 H 0.89576 0.02668 0.73607 0.0
H316 H 0.03518 0.12069 0.7356 0.0
H317 H 0.03553 0.09855 0.79982 0.0
C318 C 0.83607 0.08562 0.05388 0.0
C319 C 0.81569 0.07853 0.06839 0.0
C320 C 0.79914 0.06651 0.05727 0.0
C321 C 0.80991 0.06699 0.03655 0.0
N322 N 0.83286 0.07824 0.03387 0.0
Co323 Co 0.84935 0.08541 0.00504 0.0
N324 N 0.82892 0.06603 0.98934 0.0
C325 C 0.80767 0.05552 0.99756 0.0
C326 C 0.79952 0.0424 0.98367 0.0
C327 C 0.8167 0.04482 0.96551 0.0
C328 C 0.83421 0.05946 0.96922 0.0
N329 N 0.86449 0.09341 0.97643 0.0
C330 C 0.86407 0.08546 0.9569 0.0
C331 C 0.8748 0.0965 0.94084 0.0
C332 C 0.88331 0.11158 0.9508 0.0
C333 C 0.87687 0.10907 0.97222 0.0
N334 N 0.87156 0.10423 0.02051 0.0
C335 C 0.88793 0.11696 0.01127 0.0
C336 C 0.90471 0.12632 0.02571 0.0
C337 C 0.89791 0.1194 0.04544 0.0
C338 C 0.87648 0.10655 0.04196 0.0
N339 N 0.88458 0.06967 0.00853 0.0
C340 C 0.93225 0.04501 0.01104 0.0
C341 C 0.93662 0.06168 1.002 0.0
C342 C 0.91266 0.07379 1.00101 0.0
C343 C 0.90336 0.04117 0.01866 0.0
C344 C 0.88024 0.05348 0.01732 0.0
N345 N 0.81301 0.10045 1.00157 0.0
C346 C 0.77637 0.11932 0.01859 0.0
C347 C 0.75381 0.11436 1.00394 0.0
C348 C 0.76289 0.10377 0.98656 0.0
C349 C 0.79254 0.09729 0.98547 0.0
C350 C 0.80534 0.11225 0.01722 0.0
H351 H 0.79822 0.08897 0.97205 0.0
H352 H 0.8209 0.11585 0.02961 0.0
H353 H 0.91691 0.0864 0.99397 0.0
H354 H 0.85856 0.04957 0.02306 0.0
C355 C 0.7992 0.05702 0.01923 0.0
C356 C 0.85617 0.10039 0.05914 0.0
C357 C 0.85428 0.06749 0.95301 0.0
C358 C 0.88791 0.11929 0.98898 0.0
H359 H 0.81211 0.08203 0.08508 0.0
H360 H 0.78084 0.0587 0.06344 0.0
H361 H 0.78384 0.03191 0.98669 0.0
H362 H 0.81638 0.03664 0.95129 0.0
H363 H 0.87698 0.09385 0.92375 0.0
H364 H 0.89445 0.12264 0.94347 0.0
H365 H 0.91979 0.13704 0.02234 0.0
H366 H 0.90591 0.12424 0.06082 0.0
H367 H 0.95845 0.06545 0.99596 0.0
H368 H 0.89825 0.02848 0.02539 0.0
H369 H 0.77165 0.12828 0.03166 0.0
H370 H 0.74698 0.09977 0.97435 0.0
C371 C 0.96338 0.67679 0.0564 0.0
C372 C 0.9786 0.68774 0.07045 0.0
C373 C 0.98611 0.70231 0.05896 0.0
C374 C 0.97495 0.69955 0.03862 0.0
N375 N 0.96034 0.6842 0.0365 0.0
Co376 Co 0.94161 0.67486 0.00936 0.0
N377 N 0.95525 0.69538 0.9917 0.0
C378 C 0.97157 0.70904 0.99894 0.0
C379 C 0.9795 0.72053 0.983 0.0
C380 C 0.96693 0.71405 0.96455 0.0
C381 C 0.95131 0.69908 0.97034 0.0
N382 N 0.92258 0.66542 0.9824 0.0
C383 C 0.91596 0.67385 0.96373 0.0
C384 C 0.8937 0.66511 0.95231 0.0
C385 C 0.8883 0.64995 0.96289 0.0
C386 C 0.90613 0.65065 0.98079 0.0
N387 N 0.92795 0.6542 0.02682 0.0
C388 C 0.91226 0.64036 0.01942 0.0
C389 C 0.90921 0.62707 0.03393 0.0
C390 C 0.92416 0.63255 0.05175 0.0
C391 C 0.93506 0.64918 0.04723 0.0
N392 N 0.90331 0.68781 0.01572 0.0
C393 C 0.85074 0.70882 0.01389 0.0
C394 C 0.84962 0.69079 0.01014 0.0
C395 C 0.87576 0.68057 0.01165 0.0
C396 C 0.87815 0.71574 0.02062 0.0
C397 C 0.90383 0.70513 0.02145 0.0
N398 N 0.98029 0.66241 1.00282 0.0
C399 C 1.00897 0.63619 0.99465 0.0
C400 C 0.03648 0.64502 0.9971 0.0
C401 C 0.03484 0.6628 1.00186 0.0
C402 C 1.00711 0.67105 0.00465 0.0
C403 C 0.98142 0.64506 0.99741 0.0
H404 H 1.00817 0.68451 0.00845 0.0
H405 H 0.96127 0.63766 0.9953 0.0
H406 H 0.87335 0.66692 0.00869 0.0
H407 H 0.92406 0.71148 0.02591 0.0
C408 C 0.97964 0.71045 0.02075 0.0
C409 C 0.95288 0.65934 0.06259 0.0
C410 C 0.93159 0.68938 0.95545 0.0
C411 C 0.90282 0.63949 0.99819 0.0
H412 H 0.98421 0.68528 0.08718 0.0
H413 H 0.99894 0.71339 0.0646 0.0
H414 H 0.99291 0.73222 0.98456 0.0
H415 H 0.96899 0.71987 0.94874 0.0
H416 H 0.88197 0.66931 0.93797 0.0
H417 H 0.8716 0.64023 0.95891 0.0
H418 H 0.89858 0.61454 0.03148 0.0
H419 H 0.92741 0.62472 0.06605 0.0
H420 H 0.82873 0.68463 0.00556 0.0
H421 H 0.88026 0.72954 0.02404 0.0
H422 H 1.00851 0.6224 0.99095 0.0
H423 H 0.05497 0.6706 1.00328 0.0
C424 C 0.17774 0.86724 0.78531 0.0
C425 C 0.16503 0.88364 0.78796 0.0
C426 C 0.15315 0.88825 0.76851 0.0
C427 C 0.15946 0.87458 0.75504 0.0
N428 N 0.1748 0.86155 0.76463 0.0
Co429 Co 0.18925 0.83973 0.75024 0.0
N430 N 0.17997 0.84903 0.72069 0.0
C431 C 0.16557 0.86405 0.71629 0.0
C432 C 0.16279 0.86747 0.69469 0.0
C433 C 0.17568 0.85357 0.68459 0.0
C434 C 0.18555 0.84234 0.70071 0.0
N435 N 0.20251 0.81767 0.73575 0.0
C436 C 0.20327 0.81312 0.71446 0.0
C437 C 0.21116 0.79576 0.71188 0.0
C438 C 0.21481 0.78902 0.73216 0.0
C439 C 0.20896 0.8026 0.74596 0.0
N440 N 0.19955 0.8309 0.77978 0.0
C441 C 0.207 0.81436 0.78471 0.0
C442 C 0.21282 0.81192 0.80626 0.0
C443 C 0.20862 0.8279 0.81565 0.0
C444 C 0.20047 0.83925 0.79924 0.0
N445 N 0.14832 0.82934 0.75274 0.0
C446 C 0.09806 0.80682 0.7572 0.0
C447 C 0.11031 0.81565 0.77507 0.0
C448 C 0.13497 0.82697 0.77247 0.0
C449 C 0.10991 0.81093 0.73687 0.0
C450 C 0.13461 0.82219 0.73503 0.0
N451 N 0.23054 0.84954 0.74804 0.0
C452 C 0.28442 0.84575 0.75161 0.0
C453 C 0.28945 0.86361 0.7487 0.0
C454 C 0.26434 0.87419 0.74481 0.0
C455 C 0.23534 0.86692 0.74418 0.0
C456 C 0.25503 0.83906 0.75148 0.0
H457 H 0.21684 0.87553 0.74101 0.0
H458 H 0.25233 0.82541 0.75478 0.0
H459 H 0.1438 0.83323 0.78666 0.0
H460 H 0.14322 0.82442 0.71922 0.0
C461 C 0.15578 0.87491 0.73279 0.0
C462 C 0.19085 0.85733 0.80324 0.0
C463 C 0.19404 0.82419 0.69627 0.0
C464 C 0.21028 0.80187 0.76848 0.0
H465 H 0.1645 0.89154 0.80244 0.0
H466 H 0.14236 0.90046 0.76444 0.0
H467 H 0.15221 0.87863 0.68716 0.0
H468 H 0.17626 0.85155 0.66731 0.0
H469 H 0.21319 0.78863 0.69686 0.0
H470 H 0.22068 0.77576 0.73634 0.0
H471 H 0.21955 0.79997 0.8142 0.0
H472 H 0.21073 0.83082 0.83268 0.0
H473 H 0.10136 0.81358 0.79113 0.0
H474 H 0.10127 0.80478 0.72242 0.0
H475 H 0.30299 0.83706 0.75494 0.0
H476 H 0.26706 0.8881 0.74244 0.0
C477 C 0.11981 0.39636 0.7914 0.0
C478 C 0.13181 0.37983 0.79459 0.0
C479 C 0.13916 0.37349 0.77475 0.0
C480 C 0.13118 0.38637 0.76058 0.0
N481 N 0.11902 0.40058 0.7701 0.0
Co482 Co 0.10406 0.42207 0.75505 0.0
N483 N 0.11491 0.41242 0.72601 0.0
C484 C 0.12417 0.39605 0.72159 0.0
C485 C 0.13042 0.39326 0.7002 0.0
C486 C 0.12558 0.40893 0.69043 0.0
C487 C 0.11668 0.42042 0.70655 0.0
N488 N 0.09106 0.44388 0.73984 0.0
C489 C 0.098 0.44948 0.71955 0.0
C490 C 0.08883 0.4665 0.71621 0.0
C491 C 0.07629 0.47203 0.73522 0.0
C492 C 0.07863 0.4581 0.74907 0.0
N493 N 0.09195 0.43123 0.78416 0.0
C494 C 0.07724 0.44633 0.78795 0.0
C495 C 0.07082 0.44897 0.80938 0.0
C496 C 0.08181 0.43462 0.81985 0.0
C497 C 0.09441 0.42398 0.80419 0.0
N498 N 0.14471 0.43314 0.75764 0.0
C499 C 0.19826 0.45323 0.75293 0.0
C500 C 0.17377 0.45938 0.76486 0.0
C501 C 0.14773 0.44924 0.76712 0.0
C502 C 0.19599 0.43611 0.74479 0.0
C503 C 0.1694 0.42634 0.74744 0.0
N504 N 0.06256 0.41153 0.75221 0.0
C505 C 1.00803 0.41479 0.75209 0.0
C506 C 1.00347 0.3969 0.74908 0.0
C507 C 0.02934 0.3865 0.74774 0.0
C508 C 0.05819 0.39394 0.74937 0.0
C509 C 0.03722 0.42172 0.75345 0.0
H510 H 0.07658 0.38511 0.74829 0.0
H511 H 0.0385 0.43545 0.7554 0.0
H512 H 0.12975 0.45511 0.77585 0.0
H513 H 0.16876 0.41351 0.74052 0.0
C514 C 0.13228 0.38481 0.7382 0.0
C515 C 0.10882 0.40723 0.80915 0.0
C516 C 0.11388 0.43915 0.70325 0.0
C517 C 0.07224 0.45838 0.77127 0.0
H518 H 0.13444 0.37287 0.80967 0.0
H519 H 0.14841 0.36079 0.77104 0.0
H520 H 0.13959 0.38161 0.69286 0.0
H521 H 0.12985 0.41179 0.6736 0.0
H522 H 0.09167 0.47421 0.70171 0.0
H523 H 0.06782 0.48493 0.73882 0.0
H524 H 0.05993 0.46016 0.8166 0.0
H525 H 0.08085 0.4323 0.83708 0.0
H526 H 0.17392 0.47238 0.77166 0.0
H527 H 0.21448 0.4303 0.73604 0.0
H528 H 0.9891 0.4236 0.75291 0.0
H529 H 0.02746 0.37253 0.74564 0.0
C530 C 0.1856 0.39607 0.47201 0.0
C531 C 0.17325 0.3796 0.46903 0.0
C532 C 0.16133 0.37467 0.48835 0.0
C533 C 0.16734 0.3882 0.50211 0.0
N534 N 0.18252 0.40144 0.49282 0.0
Co535 Co 0.19742 0.42291 0.50775 0.0
N536 N 0.18848 0.41297 0.53696 0.0
C537 C 0.17357 0.39804 0.54105 0.0
C538 C 0.17185 0.39393 0.56254 0.0
C539 C 0.18599 0.40728 0.57288 0.0
C540 C 0.19516 0.41895 0.55703 0.0
N541 N 0.212 0.44442 0.52283 0.0
C542 C 0.21452 0.44819 0.5443 0.0
C543 C 0.22315 0.46538 0.54742 0.0
C544 C 0.22564 0.47274 0.52736 0.0
C545 C 0.21835 0.45971 0.51312 0.0
N546 N 0.20642 0.43251 0.47838 0.0
C547 C 0.21314 0.44924 0.47393 0.0
C548 C 0.21779 0.4523 0.45234 0.0
C549 C 0.21357 0.43652 0.44244 0.0
C550 C 0.20661 0.42466 0.45859 0.0
N551 N 0.15652 0.43353 0.50652 0.0
C552 C 0.10258 0.45333 0.5037 0.0
C553 C 0.11356 0.4437 0.48598 0.0
C554 C 0.14035 0.43396 0.48771 0.0
C555 C 0.11873 0.4521 0.52303 0.0
C556 C 0.14509 0.44213 0.52413 0.0
N557 N 0.23868 0.41288 0.50892 0.0
C558 C 0.2926 0.41632 0.50458 0.0
C559 C 0.29808 0.39916 0.51147 0.0
C560 C 0.27272 0.38899 0.51661 0.0
C561 C 0.24356 0.39601 0.51524 0.0
C562 C 0.26308 0.42286 0.50347 0.0
H563 H 0.22503 0.3877 0.51944 0.0
H564 H 0.26022 0.43614 0.49833 0.0
H565 H 0.14826 0.42711 0.47361 0.0
H566 H 0.15638 0.4418 0.53932 0.0
C567 C 0.16355 0.38751 0.52434 0.0
C568 C 0.19795 0.40648 0.45419 0.0
C569 C 0.20511 0.4367 0.5621 0.0
C570 C 0.21782 0.46119 0.49062 0.0
H571 H 0.17286 0.37191 0.45439 0.0
H572 H 0.15072 0.36236 0.49215 0.0
H573 H 0.16158 0.38257 0.56982 0.0
H574 H 0.18806 0.4087 0.59021 0.0
H575 H 0.2262 0.47208 0.56263 0.0
H576 H 0.23155 0.48609 0.52363 0.0
H577 H 0.22404 0.46447 0.44474 0.0
H578 H 0.21509 0.43404 0.42526 0.0
H579 H 0.10199 0.44401 0.47062 0.0
H580 H 0.11102 0.45876 0.53742 0.0
H581 H 0.31104 0.42491 0.50057 0.0
H582 H 0.27522 0.37555 0.52162 0.0
C583 C 0.12316 0.84841 0.45601 0.0
C584 C 0.14243 0.86179 0.44991 0.0
C585 C 0.1492 0.87091 0.4682 0.0
C586 C 0.13478 0.86225 0.48452 0.0
N587 N 0.11992 0.84794 0.47784 0.0
Co588 Co 0.10163 0.82985 0.49694 0.0
N589 N 0.11856 0.84083 0.52338 0.0
C590 C 0.1288 0.85729 0.52489 0.0
C591 C 0.13651 0.86201 0.54549 0.0
C592 C 0.13105 0.84757 0.55778 0.0
C593 C 0.12088 0.83466 0.54382 0.0
N594 N 0.08464 0.81154 0.51627 0.0
C595 C 0.09308 0.8067 0.53656 0.0
C596 C 0.078 0.79169 0.54284 0.0
C597 C 0.05874 0.78751 0.52639 0.0
C598 C 0.06349 0.79989 0.51077 0.0
N599 N 0.08348 0.81945 0.47032 0.0
C600 C 0.0609 0.80775 0.47054 0.0
C601 C 0.04864 0.80484 0.45063 0.0
C602 C 0.06393 0.8156 0.4369 0.0
C603 C 0.0853 0.82438 0.44913 0.0
N604 N 0.13801 0.81496 0.49365 0.0
C605 C 0.18769 0.79168 0.49116 0.0
C606 C 0.15854 0.78638 0.48584 0.0
C607 C 0.13439 0.79799 0.48726 0.0
C608 C 0.19133 0.80908 0.49798 0.0
C609 C 0.16633 0.82051 0.49893 0.0
N610 N 0.06432 0.84397 0.50032 0.0
C611 C 1.01812 0.84932 0.52012 0.0
C612 C 1.00403 0.85578 0.50149 0.0
C613 C 1.02168 0.85759 0.48289 0.0
C614 C 0.05168 0.852 0.48276 0.0
C615 C 0.04817 0.84352 0.5192 0.0
H616 H 0.06392 0.85333 0.46792 0.0
H617 H 0.05772 0.83778 0.53354 0.0
H618 H 0.11258 0.79296 0.48344 0.0
H619 H 0.16997 0.83378 0.50408 0.0
C620 C 0.13646 0.86649 0.50634 0.0
C621 C 0.10441 0.83865 0.44054 0.0
C622 C 0.11372 0.81677 0.55054 0.0
C623 C 0.05259 0.7993 0.48965 0.0
H624 H 0.14976 0.86515 0.43378 0.0
H625 H 0.16318 0.8824 0.46945 0.0
H626 H 0.1463 0.8742 0.55078 0.0
H627 H 0.13465 0.84667 0.57502 0.0
H628 H 0.08071 0.78428 0.55754 0.0
H629 H 0.04419 0.77624 0.52548 0.0
H630 H 0.03029 0.79621 0.44661 0.0
H631 H 0.0586 0.81722 0.42003 0.0
H632 H 0.15418 0.77309 0.48079 0.0
H633 H 0.21336 0.81393 0.50216 0.0
H634 H 1.00551 0.84776 0.53495 0.0
H635 H 1.01201 0.86277 0.46818 0.0
C636 C 0.83341 0.17969 0.20612 0.0
C637 C 0.81457 0.18879 0.19221 0.0
C638 C 0.79894 0.20053 0.20443 0.0
C639 C 0.80846 0.19787 0.22516 0.0
N640 N 0.82963 0.18538 0.22687 0.0
Co641 Co 0.84327 0.17524 0.25493 0.0
N642 N 0.82647 0.19486 0.27224 0.0
C643 C 0.80698 0.20688 0.26508 0.0
C644 C 0.80127 0.21968 0.28003 0.0
C645 C 0.81825 0.21543 0.29774 0.0
C646 C 0.83316 0.20007 0.29272 0.0
N647 N 0.85573 0.16465 0.28286 0.0
C648 C 0.85797 0.17182 0.3028 0.0
C649 C 0.86632 0.15941 0.318 0.0
C650 C 0.87027 0.1441 0.30706 0.0
C651 C 0.86379 0.14793 0.28593 0.0
N652 N 0.86138 0.15577 0.23793 0.0
C653 C 0.87297 0.141 0.24623 0.0
C654 C 0.88773 0.13099 0.23131 0.0
C655 C 0.88459 0.13971 0.21221 0.0
C656 C 0.86699 0.15429 0.2164 0.0
N657 N 0.8815 0.18845 0.2533 0.0
C658 C 0.93318 0.20984 0.25738 0.0
C659 C 0.93367 0.19208 0.26319 0.0
C660 C 0.90785 0.18164 0.26085 0.0
C661 C 0.90649 0.21629 0.2485 0.0
C662 C 0.88114 0.20552 0.24669 0.0
N663 N 0.80419 0.16274 0.25667 0.0
C664 C 0.7634 0.14863 0.23772 0.0
C665 C 0.74315 0.1523 0.25452 0.0
C666 C 0.75507 0.15987 0.27333 0.0
C667 C 0.78555 0.16484 0.27414 0.0
C668 C 0.79347 0.15385 0.23912 0.0
H669 H 0.79359 0.17117 0.28857 0.0
H670 H 0.80751 0.15136 0.22537 0.0
H671 H 0.90901 0.16819 0.26586 0.0
H672 H 0.86084 0.21135 0.24075 0.0
C673 C 0.79872 0.20718 0.24332 0.0
C674 C 0.85202 0.16457 0.19933 0.0
C675 C 0.85224 0.1902 0.3079 0.0
C676 C 0.8718 0.13763 0.26834 0.0
H677 H 0.81112 0.18678 0.17514 0.0
H678 H 0.7821 0.20964 0.19888 0.0
H679 H 0.78757 0.23121 0.27795 0.0
H680 H 0.8196 0.2229 0.31251 0.0
H681 H 0.86983 0.16127 0.33513 0.0
H682 H 0.87869 0.13195 0.31353 0.0
H683 H 0.8997 0.11892 0.23402 0.0
H684 H 0.89337 0.13539 0.19683 0.0
H685 H 0.9538 0.18627 0.26978 0.0
H686 H 0.90462 0.22987 0.24389 0.0
H687 H 0.75592 0.14219 0.22313 0.0
H688 H 0.7407 0.16278 0.28695 0.0
C689 C 0.96543 0.57373 0.20369 0.0
C690 C 0.98007 0.56241 0.18977 0.0
C691 C 0.98733 0.54794 0.20156 0.0
C692 C 0.97659 0.55113 0.22194 0.0
N693 N 0.96258 0.56669 0.22381 0.0
Co694 Co 0.944 0.57647 0.25078 0.0
N695 N 0.95707 0.55601 0.26877 0.0
C696 C 0.9736 0.54232 0.26188 0.0
C697 C 0.9807 0.53079 0.27797 0.0
C698 C 0.96746 0.53732 0.29616 0.0
C699 C 0.95238 0.55238 0.29007 0.0
N700 N 0.9247 0.5862 0.27747 0.0
C701 C 0.91763 0.57798 0.2962 0.0
C702 C 0.8956 0.58704 0.3075 0.0
C703 C 0.89057 0.60212 0.29664 0.0
C704 C 0.90847 0.60107 0.27879 0.0
N705 N 0.93126 0.59718 0.23307 0.0
C706 C 0.91639 0.61138 0.24035 0.0
C707 C 0.91424 0.62466 0.22576 0.0
C708 C 0.9289 0.61878 0.20799 0.0
C709 C 0.93864 0.60193 0.21261 0.0
N710 N 0.90541 0.56385 0.24429 0.0
C711 C 0.85082 0.54435 0.24181 0.0
C712 C 0.85088 0.56254 0.24482 0.0
C713 C 0.87805 0.57194 0.24578 0.0
C714 C 0.87881 0.53641 0.23905 0.0
C715 C 0.90534 0.54624 0.24021 0.0
N716 N 0.98302 0.58866 0.25736 0.0
C717 C 1.01214 0.61468 0.26578 0.0
C718 C 0.0396 0.60584 0.26292 0.0
C719 C 0.03766 0.58811 0.25779 0.0
C720 C 1.00976 0.57998 0.25506 0.0
C721 C 0.98445 0.60591 0.26314 0.0
H722 H 1.01064 0.56658 0.25091 0.0
H723 H 0.96442 0.61334 0.26565 0.0
H724 H 0.87642 0.58571 0.24813 0.0
H725 H 0.92559 0.53916 0.23803 0.0
C726 C 0.98144 0.54052 0.24004 0.0
C727 C 0.9553 0.59118 0.19717 0.0
C728 C 0.93253 0.56228 0.30463 0.0
C729 C 0.90621 0.61235 0.26142 0.0
H730 H 0.98545 0.56452 0.17293 0.0
H731 H 0.99974 0.53665 0.19607 0.0
H732 H 0.99373 0.51893 0.27662 0.0
H733 H 0.96854 0.53143 0.312 0.0
H734 H 0.88382 0.58314 0.32197 0.0
H735 H 0.87424 0.61208 0.30052 0.0
H736 H 0.90422 0.63738 0.22806 0.0
H737 H 0.9326 0.62643 0.19358 0.0
H738 H 0.83008 0.56959 0.24697 0.0
H739 H 0.88045 0.52256 0.23589 0.0
H740 H 1.01178 0.62842 0.26972 0.0
H741 H 0.05765 0.58025 0.25602 0.0
C742 C 0.83149 0.58105 0.55567 0.0
C743 C 0.80819 0.57373 0.56741 0.0
C744 C 0.79385 0.56239 0.55387 0.0
C745 C 0.809 0.56342 0.53463 0.0
N746 N 0.83269 0.57434 0.53519 0.0
Co747 Co 0.85599 0.5822 0.50916 0.0
N748 N 0.83712 0.56448 0.48981 0.0
C749 C 0.8128 0.55485 0.49463 0.0
C750 C 0.80387 0.54425 0.47801 0.0
C751 C 0.82391 0.54731 0.46166 0.0
C752 C 0.8443 0.55952 0.46931 0.0
N753 N 0.87874 0.59068 0.4834 0.0
C754 C 0.88531 0.58214 0.46479 0.0
C755 C 0.90882 0.5903 0.454 0.0
C756 C 0.91526 0.60514 0.46503 0.0
C757 C 0.89678 0.60485 0.48265 0.0
N758 N 0.87627 0.59942 0.52863 0.0
C759 C 0.89573 0.61194 0.52269 0.0
C760 C 0.90878 0.62048 0.53968 0.0
C761 C 0.89605 0.61332 0.55765 0.0
C762 C 0.8754 0.60108 0.55045 0.0
N763 N 0.88859 0.56499 0.51504 0.0
C764 C 0.93301 0.53834 0.51392 0.0
C765 C 0.94071 0.55601 0.51166 0.0
C766 C 0.91833 0.56904 0.51227 0.0
C767 C 0.90281 0.53458 0.51839 0.0
C768 C 0.88127 0.54795 0.51911 0.0
N769 N 0.82209 0.59873 0.50289 0.0
C770 C 0.78457 0.61792 0.51831 0.0
C771 C 0.76323 0.61331 0.50263 0.0
C772 C 0.77372 0.60308 0.48534 0.0
C773 C 0.80329 0.59633 0.48553 0.0
C774 C 0.81335 0.61057 0.51814 0.0
H775 H 0.81006 0.58839 0.47205 0.0
H776 H 0.82776 0.61388 0.53113 0.0
H777 H 0.92522 0.58227 0.50953 0.0
H778 H 0.85835 0.54426 0.52195 0.0
C779 C 0.80065 0.55516 0.51542 0.0
C780 C 0.85008 0.59551 0.56385 0.0
C781 C 0.86896 0.56687 0.45626 0.0
C782 C 0.9031 0.6143 0.50119 0.0
H783 H 0.8014 0.57678 0.58373 0.0
H784 H 0.77392 0.55484 0.55738 0.0
H785 H 0.78526 0.5352 0.47786 0.0
H786 H 0.8232 0.54135 0.44585 0.0
H787 H 0.92104 0.58581 0.44 0.0
H788 H 0.93363 0.61401 0.46187 0.0
H789 H 0.92531 0.6308 0.53908 0.0
H790 H 0.89953 0.61768 0.57408 0.0
H791 H 0.96367 0.55973 0.50834 0.0
H792 H 0.8956 0.52124 0.52086 0.0
H793 H 0.77887 0.62672 0.53136 0.0
H794 H 0.75889 0.59952 0.47224 0.0
C795 C 0.95342 0.17331 0.55323 0.0
C796 C 0.97011 0.18279 0.56806 0.0
C797 C 0.98446 0.19569 0.55678 0.0
C798 C 0.97611 0.19339 0.53567 0.0
N799 N 0.9567 0.18009 0.53289 0.0
Co800 Co 0.94471 0.17055 0.50402 0.0
N801 N 0.96074 0.19105 0.48804 0.0
C802 C 0.97926 0.20325 0.49597 0.0
C803 C 0.98462 0.21651 0.48149 0.0
C804 C 0.96824 0.21237 0.46338 0.0
C805 C 0.9538 0.19682 0.46788 0.0
N806 N 0.93371 0.1606 0.47541 0.0
C807 C 0.93082 0.16859 0.45604 0.0
C808 C 0.92228 0.15689 0.44011 0.0
C809 C 0.91929 0.14103 0.44999 0.0
C810 C 0.92618 0.14394 0.4713 0.0
N811 N 0.92738 0.15019 0.51963 0.0
C812 C 0.91634 0.1356 0.51049 0.0
C813 C 0.9015 0.12503 0.52478 0.0
C814 C 0.9041 0.13317 0.54431 0.0
C815 C 0.92135 0.14803 0.54096 0.0
N816 N 0.90548 0.18285 0.50557 0.0
C817 C 0.85208 0.20286 0.50064 0.0
C818 C 0.85294 0.18486 0.49593 0.0
C819 C 0.87961 0.1752 0.4984 0.0
C820 C 0.87847 0.21021 0.50903 0.0
C821 C 0.90453 0.20006 0.51151 0.0
N822 N 0.98473 0.159 0.50221 0.0
C823 C 0.02691 0.14608 0.52095 0.0
C824 C 0.04642 0.14994 0.50383 0.0
C825 C 0.03371 0.15712 0.48508 0.0
C826 C 1.00294 0.16153 0.4846 0.0
C827 C 0.99637 0.15037 0.51967 0.0
H828 H 0.99428 0.16777 0.47028 0.0
H829 H 0.98265 0.14735 0.53337 0.0
H830 H 0.87942 0.16166 0.49383 0.0
H831 H 0.92434 0.20648 0.51737 0.0
C832 C 0.98613 0.20336 0.51804 0.0
C833 C 0.93779 0.15678 0.55856 0.0
C834 C 0.93489 0.18726 0.45249 0.0
C835 C 0.91811 0.13294 0.48824 0.0
H836 H 0.9729 0.18031 0.5851 0.0
H837 H 0.9999 0.20528 0.56315 0.0
H838 H 0.9976 0.22824 0.48415 0.0
H839 H 0.96687 0.21992 0.44864 0.0
H840 H 0.91759 0.15964 0.42331 0.0
H841 H 0.91074 0.12916 0.44284 0.0
H842 H 0.89022 0.11283 0.52143 0.0
H843 H 0.8963 0.12804 0.55961 0.0
H844 H 0.83323 0.17816 0.49006 0.0
H845 H 0.87961 0.22395 0.51292 0.0
H846 H 0.03538 0.14014 0.5356 0.0
H847 H 0.04771 0.16019 0.4713 0.0
C848 C 0.67486 0.35793 0.80099 0.0
C849 C 0.66648 0.37446 0.80801 0.0
C850 C 0.66081 0.38411 0.79 0.0
C851 C 0.66623 0.37306 0.77308 0.0
N852 N 0.67474 0.35693 0.77916 0.0
Co853 Co 0.68807 0.33793 0.75938 0.0
N854 N 0.67007 0.34981 0.734 0.0
C855 C 0.65863 0.36607 0.73349 0.0
C856 C 0.64107 0.36917 0.71577 0.0
C857 C 0.64182 0.35404 0.70422 0.0
C858 C 0.66094 0.34273 0.71512 0.0
N859 N 0.7019 0.31932 0.73916 0.0
C860 C 0.69514 0.31648 0.71799 0.0
C861 C 0.71182 0.30275 0.70976 0.0
C862 C 0.72949 0.29677 0.72632 0.0
C863 C 0.72283 0.30723 0.74368 0.0
N864 N 0.70539 0.326 0.78516 0.0
C865 C 0.7253 0.31283 0.78459 0.0
C866 C 0.73402 0.30746 0.8048 0.0
C867 C 0.71892 0.31805 0.81901 0.0
C868 C 0.70187 0.32937 0.80663 0.0
N869 N 0.64982 0.32495 0.76343 0.0
C870 C 0.59605 0.3051 0.75993 0.0
C871 C 0.62394 0.29706 0.76338 0.0
C872 C 0.65024 0.30712 0.76521 0.0
C873 C 0.59577 0.32351 0.7599 0.0
C874 C 0.62264 0.3331 0.76173 0.0
N875 N 0.72692 0.35027 0.75493 0.0
C876 C 0.77371 0.36141 0.76958 0.0
C877 C 0.78732 0.36132 0.7491 0.0
C878 C 0.76901 0.35675 0.73147 0.0
C879 C 0.73913 0.35142 0.73468 0.0
C880 C 0.74371 0.35593 0.77212 0.0
H881 H 0.72632 0.34755 0.72073 0.0
H882 H 0.73465 0.35562 0.78823 0.0
H883 H 0.67115 0.30029 0.76704 0.0
H884 H 0.62145 0.34712 0.76087 0.0
C885 C 0.6592 0.37662 0.7517 0.0
C886 C 0.68471 0.34407 0.81562 0.0
C887 C 0.67466 0.32729 0.70495 0.0
C888 C 0.73315 0.30502 0.7649 0.0
H889 H 0.66501 0.37922 0.82443 0.0
H890 H 0.65295 0.39745 0.78933 0.0
H891 H 0.62802 0.38072 0.71224 0.0
H892 H 0.63055 0.35185 0.68898 0.0
H893 H 0.71146 0.29766 0.69347 0.0
H894 H 0.74496 0.28591 0.72584 0.0
H895 H 0.74929 0.29697 0.80877 0.0
H896 H 0.72076 0.31775 0.83643 0.0
H897 H 0.62585 0.283 0.76365 0.0
H898 H 0.57495 0.33058 0.75804 0.0
H899 H 0.7865 0.36489 0.78379 0.0
H900 H 0.77785 0.35692 0.71518 0.0
C901 C 0.62315 0.90546 0.80131 0.0
C902 C 0.64067 0.89157 0.80832 0.0
C903 C 0.64645 0.88146 0.79065 0.0
C904 C 0.63323 0.89 0.77373 0.0
N905 N 0.62016 0.90515 0.77948 0.0
Co906 Co 0.60366 0.923 0.75933 0.0
N907 N 0.61965 0.91044 0.73371 0.0
C908 C 0.62871 0.89372 0.73299 0.0
C909 C 0.63882 0.88877 0.71295 0.0
C910 C 0.63631 0.90335 0.70032 0.0
C911 C 0.6249 0.91638 0.7135 0.0
N912 N 0.58841 0.94092 0.73886 0.0
C913 C 0.59779 0.94465 0.71849 0.0
C914 C 0.58259 0.9589 0.71022 0.0
C915 C 0.56306 0.96426 0.72609 0.0
C916 C 0.56749 0.95301 0.74309 0.0
N917 N 0.58655 0.93517 0.78507 0.0
C918 C 0.56519 0.9476 0.78401 0.0
C919 C 0.55349 0.95189 0.80374 0.0
C920 C 0.56777 0.94129 0.8182 0.0
C921 C 0.58796 0.93114 0.80656 0.0
N922 N 0.64134 0.93679 0.76156 0.0
C923 C 0.69313 0.95822 0.75761 0.0
C924 C 0.66538 0.96517 0.7639 0.0
C925 C 0.63998 0.95435 0.76567 0.0
C926 C 0.6945 0.94004 0.75447 0.0
C927 C 0.66863 0.92962 0.75669 0.0
N928 N 0.56525 0.90985 0.75681 0.0
C929 C 0.51926 0.90406 0.73703 0.0
C930 C 0.50475 0.89842 0.75593 0.0
C931 C 0.52209 0.89727 0.77475 0.0
C932 C 0.5521 0.90275 0.77478 0.0
C933 C 0.54942 0.90968 0.7378 0.0
H934 H 0.56403 0.90195 0.78978 0.0
H935 H 0.55943 0.91469 0.72319 0.0
H936 H 0.61892 0.96046 0.76948 0.0
H937 H 0.67061 0.91583 0.75368 0.0
C938 C 0.63488 0.88489 0.75213 0.0
C939 C 0.60519 0.91642 0.81602 0.0
C940 C 0.62002 0.93434 0.70656 0.0
C941 C 0.55697 0.95513 0.76422 0.0
H942 H 0.64728 0.88853 0.82471 0.0
H943 H 0.65902 0.86939 0.79019 0.0
H944 H 0.64901 0.87648 0.70848 0.0
H945 H 0.64305 0.90444 0.68358 0.0
H946 H 0.58547 0.96482 0.69448 0.0
H947 H 0.54849 0.97554 0.72564 0.0
H948 H 0.536 0.96128 0.80718 0.0
H949 H 0.56249 0.94066 0.8352 0.0
H950 H 0.66285 0.97906 0.76642 0.0
H951 H 0.7154 0.93386 0.74996 0.0
H952 H 0.50695 0.90506 0.72201 0.0
H953 H 0.5122 0.89266 0.78968 0.0
C954 C 0.68064 0.90191 0.46286 0.0
C955 C 0.65978 0.88979 0.45552 0.0
C956 C 0.6439 0.88432 0.47312 0.0
C957 C 0.65521 0.8937 0.49006 0.0
N958 N 0.67715 0.90484 0.48435 0.0
Co959 Co 0.69444 0.92318 0.50349 0.0
N960 N 0.67981 0.91117 0.53009 0.0
C961 C 0.66074 0.89755 0.53066 0.0
C962 C 0.65555 0.89132 0.55106 0.0
C963 C 0.67181 0.90189 0.56436 0.0
C964 C 0.68556 0.91427 0.55128 0.0
N965 N 0.71044 0.94195 0.52268 0.0
C966 C 0.71118 0.94328 0.54462 0.0
C967 C 0.72152 0.95958 0.55094 0.0
C968 C 0.72713 0.96879 0.53245 0.0
C969 C 0.71976 0.95773 0.51589 0.0
N970 N 0.70978 0.93453 0.47664 0.0
C971 C 0.7214 0.9507 0.47542 0.0
C972 C 0.73529 0.95393 0.45609 0.0
C973 C 0.732 0.93896 0.44429 0.0
C974 C 0.71521 0.92747 0.45675 0.0
N975 N 0.65629 0.93663 0.50149 0.0
C976 C 0.60737 0.96033 0.4986 0.0
C977 C 0.62007 0.95262 0.48006 0.0
C978 C 0.64421 0.94084 0.48184 0.0
C979 C 0.61885 0.95503 0.51863 0.0
C980 C 0.643 0.94328 0.51971 0.0
N981 N 0.73318 0.91037 0.50546 0.0
C982 C 0.78762 0.91125 0.50552 0.0
C983 C 0.7896 0.89303 0.50542 0.0
C984 C 0.76239 0.88367 0.50575 0.0
C985 C 0.73457 0.89253 0.50599 0.0
C986 C 0.75958 0.91955 0.50535 0.0
H987 H 0.71422 0.88492 0.50629 0.0
H988 H 0.75961 0.93352 0.5046 0.0
H989 H 0.65363 0.93556 0.46719 0.0
H990 H 0.65145 0.94019 0.53546 0.0
C991 C 0.64881 0.89069 0.51173 0.0
C992 C 0.70287 0.91057 0.44887 0.0
C993 C 0.69915 0.9303 0.55986 0.0
C994 C 0.72415 0.96101 0.49392 0.0
H995 H 0.65614 0.8853 0.43918 0.0
H996 H 0.62665 0.8744 0.47356 0.0
H997 H 0.64137 0.8805 0.55573 0.0
H998 H 0.67219 0.90113 0.58181 0.0
H999 H 0.72401 0.96451 0.5672 0.0
H1000 H 0.73568 0.98196 0.53125 0.0
H1001 H 0.74809 0.96537 0.45163 0.0
H1002 H 0.7417 0.93682 0.42853 0.0
H1003 H 0.61173 0.95582 0.46414 0.0
H1004 H 0.61018 0.96049 0.5335 0.0
H1005 H 0.8077 0.91917 0.50491 0.0
H1006 H 0.76252 0.86955 0.50582 0.0
C1007 C 0.62175 0.34652 0.45141 0.0
C1008 C 0.64176 0.35791 0.44152 0.0
C1009 C 0.65491 0.36731 0.45756 0.0
C1010 C 0.64305 0.36077 0.47627 0.0
N1011 N 0.62364 0.34752 0.47323 0.0
Co1012 Co 0.60596 0.33223 0.49613 0.0
N1013 N 0.63118 0.34322 0.51902 0.0
C1014 C 0.64951 0.3571 0.51667 0.0
C1015 C 0.66933 0.35915 0.53334 0.0
C1016 C 0.6631 0.34589 0.54722 0.0
C1017 C 0.63881 0.33686 0.53868 0.0
N1018 N 0.58871 0.31696 0.5193 0.0
C1019 C 0.59633 0.3151 0.54052 0.0
C1020 C 0.57641 0.30416 0.55113 0.0
C1021 C 0.55575 0.29893 0.53613 0.0
C1022 C 0.564 0.30704 0.51729 0.0
N1023 N 0.58084 0.32133 0.47289 0.0
C1024 C 0.55717 0.31078 0.47641 0.0
C1025 C 0.54158 0.30676 0.45802 0.0
C1026 C 0.55583 0.31558 0.4418 0.0
C1027 C 0.57965 0.32444 0.45117 0.0
N1028 N 0.63814 0.31456 0.49128 0.0
C1029 C 0.68314 0.28829 0.48879 0.0
C1030 C 0.6525 0.28415 0.48795 0.0
C1031 C 0.63062 0.2973 0.48933 0.0
C1032 C 0.69066 0.30602 0.49053 0.0
C1033 C 0.66801 0.31886 0.49144 0.0
N1034 N 0.5728 0.34926 0.50133 0.0
C1035 C 0.5338 0.35889 0.52589 0.0
C1036 C 0.51452 0.36329 0.50869 0.0
C1037 C 0.52686 0.36238 0.48782 0.0
C1038 C 0.55596 0.35565 0.48456 0.0
C1039 C 0.56262 0.35209 0.52191 0.0
H1040 H 0.56391 0.35471 0.46823 0.0
H1041 H 0.57591 0.34817 0.53558 0.0
H1042 H 0.60751 0.29335 0.4892 0.0
H1043 H 0.67497 0.33223 0.49255 0.0
C1044 C 0.65325 0.36496 0.49672 0.0
C1045 C 0.59812 0.33736 0.43949 0.0
C1046 C 0.62066 0.32458 0.55144 0.0
C1047 C 0.55024 0.30497 0.49722 0.0
H1048 H 0.6456 0.35973 0.4244 0.0
H1049 H 0.6718 0.37734 0.45581 0.0
H1050 H 0.68754 0.36843 0.53454 0.0
H1051 H 0.67463 0.34342 0.56229 0.0
H1052 H 0.57638 0.30057 0.56802 0.0
H1053 H 0.53695 0.29025 0.53868 0.0
H1054 H 0.52169 0.29876 0.45665 0.0
H1055 H 0.54847 0.316 0.42519 0.0
H1056 H 0.64532 0.2707 0.48668 0.0
H1057 H 0.71394 0.31 0.49087 0.0
H1058 H 0.52642 0.36012 0.54247 0.0
H1059 H 0.51363 0.36592 0.47385 0.0
C1060 C 0.33537 0.67071 0.20654 0.0
C1061 C 0.31506 0.67837 0.19245 0.0
C1062 C 0.29959 0.69063 0.20401 0.0
C1063 C 0.31093 0.68975 0.22455 0.0
N1064 N 0.33318 0.67797 0.22669 0.0
Co1065 Co 0.35105 0.67076 0.2551 0.0
N1066 N 0.33313 0.69084 0.27102 0.0
C1067 C 0.31172 0.70152 0.26343 0.0
C1068 C 0.3051 0.71492 0.27733 0.0
C1069 C 0.32344 0.71249 0.29484 0.0
C1070 C 0.34006 0.69755 0.29079 0.0
N1071 N 0.36809 0.663 0.28328 0.0
C1072 C 0.37026 0.67143 0.30247 0.0
C1073 C 0.38179 0.6605 0.31835 0.0
C1074 C 0.38797 0.64495 0.30861 0.0
C1075 C 0.37948 0.6471 0.28753 0.0
N1076 N 0.37 0.65091 0.23937 0.0
C1077 C 0.38548 0.63771 0.2484 0.0
C1078 C 0.40015 0.62745 0.23371 0.0
C1079 C 0.39291 0.63428 0.21404 0.0
C1080 C 0.37327 0.64802 0.21785 0.0
N1081 N 0.38713 0.68546 0.24972 0.0
C1082 C 0.43593 0.70927 0.24643 0.0
C1083 C 0.43984 0.69244 0.25508 0.0
C1084 C 0.41532 0.68073 0.25641 0.0
C1085 C 0.40701 0.71365 0.23936 0.0
C1086 C 0.38331 0.70175 0.24112 0.0
N1087 N 0.31403 0.6569 0.26083 0.0
C1088 C 0.26978 0.64215 0.24705 0.0
C1089 C 0.25378 0.64536 0.26625 0.0
C1090 C 0.27002 0.653 0.2833 0.0
C1091 C 0.2997 0.65864 0.28028 0.0
C1092 C 0.29978 0.64775 0.24481 0.0
H1093 H 0.31047 0.66523 0.29353 0.0
H1094 H 0.31078 0.64534 0.22966 0.0
H1095 H 0.41919 0.66799 0.2632 0.0
H1096 H 0.36158 0.70611 0.23602 0.0
C1097 C 0.30181 0.69999 0.24208 0.0
C1098 C 0.35365 0.65524 0.20092 0.0
C1099 C 0.36097 0.68952 0.30641 0.0
C1100 C 0.38749 0.63604 0.27072 0.0
H1101 H 0.31077 0.67505 0.17579 0.0
H1102 H 0.28171 0.69894 0.19823 0.0
H1103 H 0.2897 0.72561 0.27468 0.0
H1104 H 0.32447 0.72085 0.30889 0.0
H1105 H 0.38566 0.66342 0.33521 0.0
H1106 H 0.39874 0.63373 0.31582 0.0
H1107 H 0.41443 0.61634 0.23689 0.0
H1108 H 0.39974 0.62903 0.19858 0.0
H1109 H 0.4617 0.68826 0.26061 0.0
H1110 H 0.40234 0.72648 0.23289 0.0
H1111 H 0.25895 0.63607 0.23335 0.0
H1112 H 0.25972 0.6551 0.29891 0.0
C1113 C 0.46912 0.08635 0.20469 0.0
C1114 C 0.49348 0.07812 0.1953 0.0
C1115 C 0.50334 0.06603 0.20992 0.0
C1116 C 0.48457 0.06763 0.22739 0.0
N1117 N 0.4628 0.07962 0.22461 0.0
Co1118 Co 0.43507 0.08851 0.24772 0.0
N1119 N 0.45015 0.07144 0.26981 0.0
C1120 C 0.47195 0.05952 0.26662 0.0
C1121 C 0.47871 0.05011 0.28481 0.0
C1122 C 0.46014 0.05644 0.30058 0.0
C1123 C 0.44284 0.06936 0.29107 0.0
N1124 N 0.40846 0.09843 0.27066 0.0
C1125 C 0.40272 0.09258 0.29087 0.0
C1126 C 0.37838 0.10123 0.29997 0.0
C1127 C 0.36976 0.11366 0.28562 0.0
C1128 C 0.38853 0.11159 0.26832 0.0
N1129 N 0.41795 0.10458 0.22532 0.0
C1130 C 0.39532 0.11602 0.22802 0.0
C1131 C 0.38731 0.12468 0.20955 0.0
C1132 C 0.40655 0.11872 0.19414 0.0
C1133 C 0.4254 0.10687 0.20428 0.0
N1134 N 0.40345 0.0708 0.24036 0.0
C1135 C 0.36095 0.04292 0.23934 0.0
C1136 C 0.35219 0.06013 0.24383 0.0
C1137 C 0.37345 0.07375 0.24391 0.0
C1138 C 0.3911 0.04045 0.23348 0.0
C1139 C 0.41166 0.05431 0.23417 0.0
N1140 N 0.46798 0.10553 0.25537 0.0
C1141 C 0.50041 0.12914 0.24343 0.0
C1142 C 0.52481 0.12269 0.2554 0.0
C1143 C 0.51861 0.10895 0.26958 0.0
C1144 C 0.49024 0.10098 0.26972 0.0
C1145 C 0.47241 0.12057 0.24379 0.0
H1146 H 0.48758 0.09071 0.28122 0.0
H1147 H 0.45492 0.12608 0.23408 0.0
H1148 H 0.36519 0.08648 0.2476 0.0
H1149 H 0.43442 0.05123 0.23035 0.0
C1150 C 0.48743 0.05877 0.24701 0.0
C1151 C 0.45332 0.10096 0.19454 0.0
C1152 C 0.42134 0.08025 0.30299 0.0
C1153 C 0.38347 0.11915 0.24831 0.0
H1154 H 0.50345 0.08091 0.17973 0.0
H1155 H 0.52256 0.05752 0.2083 0.0
H1156 H 0.49591 0.04026 0.28663 0.0
H1157 H 0.46019 0.05238 0.31728 0.0
H1158 H 0.368 0.09888 0.3155 0.0
H1159 H 0.3509 0.12246 0.28709 0.0
H1160 H 0.37039 0.13469 0.20775 0.0
H1161 H 0.40794 0.12341 0.17768 0.0
H1162 H 0.32925 0.06312 0.24813 0.0
H1163 H 0.39925 0.02773 0.22872 0.0
H1164 H 0.503 0.14057 0.23336 0.0
H1165 H 0.53589 0.10366 0.27994 0.0
C1166 C 0.32718 0.08158 0.55639 0.0
C1167 C 0.30729 0.07071 0.56702 0.0
C1168 C 0.30202 0.05694 0.55342 0.0
C1169 C 0.31882 0.06024 0.53525 0.0
N1170 N 0.33514 0.075 0.53671 0.0
Co1171 Co 0.35717 0.08679 0.51249 0.0
N1172 N 0.34418 0.06895 0.49067 0.0
C1173 C 0.32887 0.05415 0.49501 0.0
C1174 C 0.32272 0.04447 0.47692 0.0
C1175 C 0.33525 0.05351 0.46012 0.0
C1176 C 0.34864 0.06821 0.46891 0.0
N1177 N 0.37793 0.0995 0.48853 0.0
C1178 C 0.38175 0.09501 0.46755 0.0
C1179 C 0.40223 0.10601 0.45741 0.0
C1180 C 0.41004 0.11843 0.472 0.0
C1181 C 0.39482 0.11411 0.49041 0.0
N1182 N 0.3718 0.10404 0.53433 0.0
C1183 C 0.39183 0.11696 0.53119 0.0
C1184 C 0.3983 0.1263 0.54947 0.0
C1185 C 0.3806 0.11921 0.56513 0.0
C1186 C 0.36408 0.10609 0.55527 0.0
N1187 N 0.39427 0.0721 0.51725 0.0
C1188 C 0.44493 0.04943 0.51358 0.0
C1189 C 0.44751 0.0675 0.51069 0.0
C1190 C 0.4224 0.07845 0.51284 0.0
C1191 C 0.41695 0.04321 0.52041 0.0
C1192 C 0.39229 0.05466 0.52229 0.0
N1193 N 0.31963 0.10078 0.50747 0.0
C1194 C 0.29009 0.1273 0.51153 0.0
C1195 C 0.26333 0.11852 0.50625 0.0
C1196 C 0.26584 0.10094 0.50072 0.0
C1197 C 0.29361 0.09246 0.50152 0.0
C1198 C 0.31786 0.11833 0.51172 0.0
H1199 H 0.29299 0.07891 0.49791 0.0
H1200 H 0.33758 0.12565 0.51586 0.0
H1201 H 0.42633 0.09196 0.51023 0.0
H1202 H 0.37163 0.04893 0.52722 0.0
C1203 C 0.31719 0.05103 0.51572 0.0
C1204 C 0.33773 0.09827 0.56514 0.0
C1205 C 0.36555 0.08108 0.45619 0.0
C1206 C 0.40068 0.12149 0.51047 0.0
H1207 H 0.29711 0.07278 0.58267 0.0
H1208 H 0.28654 0.04628 0.55602 0.0
H1209 H 0.30979 0.03256 0.47595 0.0
H1210 H 0.33422 0.04973 0.44332 0.0
H1211 H 0.41108 0.10509 0.44119 0.0
H1212 H 0.4263 0.12877 0.46984 0.0
H1213 H 0.41264 0.13762 0.5509 0.0
H1214 H 0.37838 0.12399 0.5815 0.0
H1215 H 0.46885 0.07326 0.50635 0.0
H1216 H 0.41362 0.02943 0.52337 0.0
H1217 H 0.28963 0.14101 0.51568 0.0
H1218 H 0.24611 0.09338 0.49671 0.0
C1219 C 0.4556 0.67117 0.55119 0.0
C1220 C 0.47344 0.67965 0.56627 0.0
C1221 C 0.48837 0.6926 0.55552 0.0
C1222 C 0.47923 0.69132 0.53446 0.0
N1223 N 0.45877 0.67862 0.53122 0.0
Co1224 Co 0.4456 0.67033 0.50205 0.0
N1225 N 0.46311 0.69085 0.48689 0.0
C1226 C 0.48231 0.70247 0.49532 0.0
C1227 C 0.48852 0.71598 0.48139 0.0
C1228 C 0.47196 0.71266 0.46311 0.0
C1229 C 0.45661 0.69729 0.46697 0.0
N1230 N 0.43379 0.66142 0.47311 0.0
C1231 C 0.43194 0.66989 0.454 0.0
C1232 C 0.42268 0.65881 0.4376 0.0
C1233 C 0.41805 0.64286 0.44693 0.0
C1234 C 0.42479 0.6451 0.46838 0.0
N1235 N 0.42633 0.65015 0.51689 0.0
C1236 C 0.41368 0.63625 0.50721 0.0
C1237 C 0.39815 0.62574 0.52118 0.0
C1238 C 0.40199 0.63315 0.54106 0.0
C1239 C 0.42058 0.64751 0.53818 0.0
N1240 N 0.40741 0.68374 0.50425 0.0
C1241 C 0.35603 0.70556 0.50012 0.0
C1242 C 0.35562 0.68795 0.4936 0.0
C1243 C 0.38123 0.67735 0.49587 0.0
C1244 C 0.38243 0.71156 0.50997 0.0
C1245 C 0.40761 0.70055 0.51185 0.0
N1246 N 0.4846 0.65758 0.49962 0.0
C1247 C 0.52317 0.64012 0.51669 0.0
C1248 C 0.54483 0.64517 0.50139 0.0
C1249 C 0.5346 0.65536 0.48398 0.0
C1250 C 0.50451 0.66119 0.48327 0.0
C1251 C 0.49369 0.64644 0.5156 0.0
H1252 H 0.49781 0.66921 0.4698 0.0
H1253 H 0.47875 0.64265 0.5283 0.0
H1254 H 0.38003 0.66413 0.49005 0.0
H1255 H 0.42771 0.70602 0.51862 0.0
C1256 C 0.48951 0.70169 0.51729 0.0
C1257 C 0.43837 0.65508 0.55594 0.0
C1258 C 0.43724 0.68852 0.45118 0.0
C1259 C 0.41536 0.63403 0.48488 0.0
H1260 H 0.47653 0.67649 0.5831 0.0
H1261 H 0.50468 0.70155 0.56217 0.0
H1262 H 0.50228 0.72732 0.48451 0.0
H1263 H 0.47113 0.7206 0.44867 0.0
H1264 H 0.4185 0.66208 0.42087 0.0
H1265 H 0.40852 0.63143 0.43931 0.0
H1266 H 0.38578 0.61398 0.51741 0.0
H1267 H 0.39412 0.62776 0.5562 0.0
H1268 H 0.33572 0.68238 0.48637 0.0
H1269 H 0.38426 0.72496 0.51529 0.0
H1270 H 0.52898 0.63159 0.52996 0.0
H1271 H 0.54993 0.65946 0.47142 0.0
C1272 C 0.67347 0.85353 0.29405 0.0
C1273 C 0.65622 0.86829 0.29797 0.0
C1274 C 0.65061 0.87578 0.27838 0.0
C1275 C 0.66381 0.86493 0.2636 0.0
N1276 N 0.67669 0.85077 0.27251 0.0
Co1277 Co 0.69302 0.83026 0.25658 0.0
N1278 N 0.67826 0.83937 0.22837 0.0
C1279 C 0.66976 0.8559 0.22432 0.0
C1280 C 0.66231 0.85878 0.20316 0.0
C1281 C 0.66608 0.84305 0.19318 0.0
C1282 C 0.67522 0.83133 0.209 0.0
N1283 N 0.70825 0.80956 0.24042 0.0
C1284 C 0.70061 0.80349 0.22049 0.0
C1285 C 0.71455 0.78766 0.21636 0.0
C1286 C 0.73189 0.78394 0.23405 0.0
C1287 C 0.72736 0.79753 0.24811 0.0
N1288 N 0.70874 0.82166 0.28503 0.0
C1289 C 0.72853 0.8085 0.2873 0.0
C1290 C 0.73908 0.80671 0.30796 0.0
C1291 C 0.72577 0.81981 0.3195 0.0
C1292 C 0.70748 0.82886 0.30526 0.0
N1293 N 0.65465 0.81745 0.26083 0.0
C1294 C 0.60275 0.79607 0.25756 0.0
C1295 C 0.62947 0.78971 0.26655 0.0
C1296 C 0.65493 0.80052 0.26802 0.0
C1297 C 0.60219 0.81382 0.25176 0.0
C1298 C 0.62807 0.82423 0.25366 0.0
N1299 N 0.73201 0.84234 0.25171 0.0
C1300 C 0.77637 0.84544 0.22945 0.0
C1301 C 0.79256 0.85315 0.24643 0.0
C1302 C 0.77668 0.85656 0.2656 0.0
C1303 C 0.74656 0.85122 0.26782 0.0
C1304 C 0.74649 0.84021 0.23238 0.0
H1305 H 0.7356 0.85378 0.28292 0.0
H1306 H 0.73555 0.83378 0.21908 0.0
H1307 H 0.6753 0.79476 0.27394 0.0
H1308 H 0.62679 0.83758 0.24833 0.0
C1309 C 0.66299 0.86712 0.24129 0.0
C1310 C 0.69207 0.84533 0.31087 0.0
C1311 C 0.68136 0.81282 0.2049 0.0
C1312 C 0.73649 0.79805 0.26968 0.0
H1313 H 0.65031 0.87379 0.3135 0.0
H1314 H 0.63856 0.88778 0.27531 0.0
H1315 H 0.65365 0.87064 0.19605 0.0
H1316 H 0.66216 0.84055 0.17623 0.0
H1317 H 0.71225 0.7795 0.20222 0.0
H1318 H 0.74506 0.77229 0.23674 0.0
H1319 H 0.75517 0.79728 0.31384 0.0
H1320 H 0.73018 0.82267 0.33627 0.0
H1321 H 0.63133 0.77618 0.27133 0.0
H1322 H 0.582 0.81962 0.24524 0.0
H1323 H 0.78685 0.84307 0.21395 0.0
H1324 H 0.78772 0.86265 0.27921 0.0
C1325 C 0.62175 0.39863 0.28819 0.0
C1326 C 0.64113 0.38473 0.2917 0.0
C1327 C 0.64741 0.3777 0.27192 0.0
C1328 C 0.63225 0.38794 0.25744 0.0
N1329 N 0.6175 0.4013 0.26675 0.0
Co1330 Co 0.59676 0.42071 0.25146 0.0
N1331 N 0.61145 0.41246 0.22295 0.0
C1332 C 0.62265 0.39659 0.21837 0.0
C1333 C 0.63129 0.3949 0.19718 0.0
C1334 C 0.62566 0.41077 0.18795 0.0
C1335 C 0.6139 0.42125 0.20415 0.0
N1336 N 0.57782 0.44057 0.23593 0.0
C1337 C 0.58523 0.44749 0.21645 0.0
C1338 C 0.56838 0.46223 0.21208 0.0
C1339 C 0.5499 0.46465 0.22964 0.0
C1340 C 0.55656 0.45127 0.24365 0.0
N1341 N 0.58065 0.42833 0.28012 0.0
C1342 C 0.55843 0.4401 0.28276 0.0
C1343 C 0.54802 0.44098 0.30356 0.0
C1344 C 0.56393 0.42867 0.31472 0.0
C1345 C 0.58351 0.42096 0.30011 0.0
N1346 N 0.63299 0.43559 0.25492 0.0
C1347 C 0.68026 0.46027 0.25209 0.0
C1348 C 0.65253 0.46458 0.26132 0.0
C1349 C 0.62956 0.45218 0.26272 0.0
C1350 C 0.68447 0.44285 0.24566 0.0
C1351 C 0.6606 0.43075 0.24717 0.0
N1352 N 0.55953 0.40653 0.24786 0.0
C1353 C 0.50962 0.40385 0.23239 0.0
C1354 C 0.49989 0.39358 0.24986 0.0
C1355 C 0.52179 0.38844 0.26483 0.0
C1356 C 0.55104 0.39498 0.26356 0.0
C1357 C 0.53953 0.40995 0.23153 0.0
H1358 H 0.56614 0.39123 0.27607 0.0
H1359 H 0.54588 0.41818 0.21816 0.0
H1360 H 0.60841 0.45645 0.26911 0.0
H1361 H 0.66419 0.41773 0.24116 0.0
C1362 C 0.63228 0.38578 0.23506 0.0
C1363 C 0.60178 0.40541 0.30516 0.0
C1364 C 0.60712 0.43975 0.20162 0.0
C1365 C 0.54791 0.45008 0.26534 0.0
H1366 H 0.64786 0.37932 0.3071 0.0
H1367 H 0.66093 0.36631 0.26855 0.0
H1368 H 0.64276 0.38398 0.18979 0.0
H1369 H 0.63092 0.41443 0.1715 0.0
H1370 H 0.56955 0.47037 0.19783 0.0
H1371 H 0.53462 0.47539 0.23231 0.0
H1372 H 0.53031 0.44922 0.30977 0.0
H1373 H 0.5604 0.42535 0.33147 0.0
H1374 H 0.64821 0.47771 0.26693 0.0
H1375 H 0.70549 0.43881 0.23848 0.0
H1376 H 0.49399 0.40792 0.22002 0.0
H1377 H 0.51621 0.37983 0.27809 0.0
C1378 C 0.67428 0.39328 0.97553 0.0
C1379 C 0.66119 0.37688 0.97385 0.0
C1380 C 0.6482 0.37338 0.99328 0.0
C1381 C 0.65445 0.38759 0.00587 0.0
N1382 N 0.67079 0.39992 0.99571 0.0
Co1383 Co 0.68698 0.42175 0.00897 0.0
N1384 N 0.67707 0.41351 0.03879 0.0
C1385 C 0.66123 0.39915 0.04398 0.0
C1386 C 0.65959 0.39603 0.06573 0.0
C1387 C 0.67483 0.40947 0.07504 0.0
C1388 C 0.68448 0.42022 0.05834 0.0
N1389 N 0.70251 0.44372 0.02237 0.0
C1390 C 0.70481 0.44857 0.04349 0.0
C1391 C 0.71404 0.46577 0.04534 0.0
C1392 C 0.71718 0.47204 0.02477 0.0
C1393 C 0.70963 0.45839 0.01153 0.0
N1394 N 0.69739 0.42953 0.97904 0.0
C1395 C 0.70525 0.44582 0.97328 0.0
C1396 C 0.71078 0.44753 0.95157 0.0
C1397 C 0.70593 0.4313 0.94299 0.0
C1398 C 0.69776 0.42055 0.96002 0.0
N1399 N 0.64697 0.43319 0.00642 0.0
C1400 C 0.59739 0.45608 1.00093 0.0
C1401 C 0.60813 0.4457 0.98381 0.0
C1402 C 0.63251 0.43425 0.98694 0.0
C1403 C 0.61073 0.45362 0.02118 0.0
C1404 C 0.63516 0.44223 0.02354 0.0
N1405 N 0.72741 0.41093 0.0114 0.0
C1406 C 0.78158 0.41328 0.00828 0.0
C1407 C 0.7857 0.39599 0.0152 0.0
C1408 C 0.75952 0.38636 0.01979 0.0
C1409 C 0.73095 0.39402 0.01797 0.0
C1410 C 0.75258 0.42038 0.0064 0.0
H1411 H 0.71176 0.38615 0.02193 0.0
H1412 H 0.75075 0.43365 1.00098 0.0
H1413 H 0.64032 0.42679 0.9733 0.0
H1414 H 0.64522 0.44151 0.03917 0.0
C1415 C 0.65044 0.38808 0.02808 0.0
C1416 C 0.68788 0.40239 0.9571 0.0
C1417 C 0.69505 0.43805 0.06205 0.0
C1418 C 0.70991 0.45864 0.98895 0.0
H1419 H 0.66113 0.36823 0.96005 0.0
H1420 H 0.63695 0.36147 0.99802 0.0
H1421 H 0.64869 0.38526 0.07384 0.0
H1422 H 0.6772 0.41163 0.09223 0.0
H1423 H 0.71719 0.47319 0.06003 0.0
H1424 H 0.72379 0.48507 0.02004 0.0
H1425 H 0.71792 0.45912 0.94302 0.0
H1426 H 0.70777 0.42783 0.92611 0.0
H1427 H 0.59816 0.44662 0.96792 0.0
H1428 H 0.60347 0.46115 0.03502 0.0
H1429 H 0.80061 0.42153 0.0047 0.0
H1430 H 0.76082 0.37284 0.02468 0.0
C1431 C 0.61938 0.85854 0.97044 0.0
C1432 C 0.64014 0.87157 0.96598 0.0
C1433 C 0.65232 0.87643 0.98527 0.0
C1434 C 0.63903 0.86578 1.00023 0.0
N1435 N 0.6196 0.85423 0.99167 0.0
Co1436 Co 0.6 0.83446 0.00724 0.0
N1437 N 0.61556 0.84271 0.03577 0.0
C1438 C 0.63009 0.85783 0.03958 0.0
C1439 C 0.63734 0.86033 0.06086 0.0
C1440 C 0.62723 0.84577 0.07122 0.0
C1441 C 0.61455 0.83515 0.05553 0.0
N1442 N 0.58297 0.81375 0.02277 0.0
C1443 C 0.58823 0.80788 0.04318 0.0
C1444 C 0.57526 0.7917 0.04662 0.0
C1445 C 0.56167 0.78708 0.02763 0.0
C1446 C 0.56731 0.80061 0.01368 0.0
N1447 N 0.58232 0.82734 0.97871 0.0
C1448 C 0.5633 0.81386 0.97566 0.0
C1449 C 0.55033 0.81374 0.9556 0.0
C1450 C 0.56118 0.82824 0.94537 0.0
C1451 C 0.58069 0.83632 0.95966 0.0
N1452 N 0.63692 0.81998 1.00242 0.0
C1453 C 0.68592 0.79609 0.99966 0.0
C1454 C 0.65852 0.79292 0.98933 0.0
C1455 C 0.63492 0.80488 0.99068 0.0
C1456 C 0.68835 0.81181 0.01121 0.0
C1457 C 0.66385 0.82352 0.01229 0.0
N1458 N 0.56237 0.84842 0.01202 0.0
C1459 C 0.50802 0.8491 0.01558 0.0
C1460 C 0.50714 0.86724 0.01363 0.0
C1461 C 0.53487 0.87586 0.01167 0.0
C1462 C 0.56197 0.86631 0.01095 0.0
C1463 C 0.53533 0.84012 0.01486 0.0
H1464 H 0.58235 0.87364 0.00927 0.0
H1465 H 0.53365 0.82635 0.01644 0.0
H1466 H 0.61488 0.80129 0.98245 0.0
H1467 H 0.66703 0.83527 0.02141 0.0
C1468 C 0.64166 0.86754 0.02251 0.0
C1469 C 0.59689 0.85264 0.95482 0.0
C1470 C 0.60546 0.8172 0.05966 0.0
C1471 C 0.55794 0.8017 0.99213 0.0
H1472 H 0.64474 0.87765 0.95056 0.0
H1473 H 0.66802 0.88693 0.98813 0.0
H1474 H 0.65026 0.87088 0.06778 0.0
H1475 H 0.63038 0.84287 0.08817 0.0
H1476 H 0.57577 0.78406 0.06131 0.0
H1477 H 0.54947 0.77518 0.02432 0.0
H1478 H 0.53422 0.80448 0.94935 0.0
H1479 H 0.55476 0.83248 0.9294 0.0
H1480 H 0.65471 0.78095 0.98051 0.0
H1481 H 0.70905 0.81517 0.01931 0.0
H1482 H 0.48759 0.8417 0.01786 0.0
H1483 H 0.53574 0.88992 0.01024 0.0
C1484 C 0.3192 0.18352 0.70431 0.0
C1485 C 0.29465 0.19235 0.69594 0.0
C1486 C 0.28243 0.20171 0.71253 0.0
C1487 C 0.29987 0.19803 0.73014 0.0
N1488 N 0.32294 0.18722 0.72575 0.0
Co1489 Co 0.34968 0.17629 0.74807 0.0
N1490 N 0.33427 0.19165 0.77183 0.0
C1491 C 0.30994 0.20197 0.77063 0.0
C1492 C 0.3036 0.21046 0.78959 0.0
C1493 C 0.32519 0.20509 0.80382 0.0
C1494 C 0.34368 0.19368 0.79265 0.0
N1495 N 0.37614 0.16504 0.77006 0.0
C1496 C 0.38438 0.1708 0.78988 0.0
C1497 C 0.4083 0.16116 0.79795 0.0
C1498 C 0.41397 0.14828 0.78342 0.0
C1499 C 0.39409 0.15107 0.76696 0.0
N1500 N 0.36584 0.16112 0.72443 0.0
C1501 C 0.3859 0.1481 0.72661 0.0
C1502 C 0.396 0.14146 0.70742 0.0
C1503 C 0.38087 0.15051 0.69198 0.0
C1504 C 0.36166 0.16183 0.70275 0.0
N1505 N 0.38173 0.19396 0.74243 0.0
C1506 C 0.42672 0.22042 0.74134 0.0
C1507 C 0.43426 0.20263 0.74199 0.0
C1508 C 0.41164 0.18971 0.74229 0.0
C1509 C 0.39601 0.22447 0.74059 0.0
C1510 C 0.37419 0.21124 0.7411 0.0
N1511 N 0.31674 0.15931 0.7543 0.0
C1512 C 0.27191 0.14423 0.74194 0.0
C1513 C 0.25924 0.14422 0.76281 0.0
C1514 C 0.27786 0.15063 0.77948 0.0
C1515 C 0.30641 0.15753 0.77499 0.0
C1516 C 0.30036 0.15171 0.7381 0.0
H1517 H 0.31936 0.16234 0.78838 0.0
H1518 H 0.30836 0.15181 0.72177 0.0
H1519 H 0.41866 0.17633 0.74286 0.0
H1520 H 0.35109 0.21519 0.74109 0.0
C1521 C 0.29479 0.20407 0.7511 0.0
C1522 C 0.33615 0.17023 0.69209 0.0
C1523 C 0.36805 0.18375 0.80286 0.0
C1524 C 0.39714 0.14364 0.74669 0.0
H1525 H 0.28546 0.19156 0.67984 0.0
H1526 H 0.26251 0.20976 0.71198 0.0
H1527 H 0.28548 0.2195 0.79271 0.0
H1528 H 0.32671 0.20889 0.8206 0.0
H1529 H 0.42029 0.16313 0.81293 0.0
H1530 H 0.43188 0.13877 0.78408 0.0
H1531 H 0.41261 0.13136 0.70495 0.0
H1532 H 0.38253 0.14833 0.67474 0.0
H1533 H 0.45753 0.19863 0.74216 0.0
H1534 H 0.38859 0.23791 0.74022 0.0
H1535 H 0.25992 0.13879 0.72836 0.0
H1536 H 0.27042 0.15113 0.79605 0.0
C1537 C 0.4662 0.57649 0.70345 0.0
C1538 C 0.48809 0.56872 0.69064 0.0
C1539 C 0.50382 0.55755 0.70357 0.0
C1540 C 0.49127 0.55923 0.72363 0.0
N1541 N 0.46818 0.57057 0.72424 0.0
Co1542 Co 0.44914 0.57917 0.75154 0.0
N1543 N 0.46649 0.55999 0.76937 0.0
C1544 C 0.48845 0.54911 0.76309 0.0
C1545 C 0.49483 0.53653 0.77816 0.0
C1546 C 0.47582 0.53975 0.79511 0.0
C1547 C 0.4591 0.55435 0.78957 0.0
N1548 N 0.43105 0.58832 0.77877 0.0
C1549 C 0.42841 0.58098 0.79863 0.0
C1550 C 0.41622 0.59273 0.81334 0.0
C1551 C 0.41027 0.60768 0.8022 0.0
C1552 C 0.41949 0.60439 0.7815 0.0
N1553 N 0.43079 0.59818 0.73383 0.0
C1554 C 0.41539 0.61193 0.74161 0.0
C1555 C 0.40103 0.62139 0.726 0.0
C1556 C 0.40832 0.61341 0.70702 0.0
C1557 C 0.42786 0.59988 0.71205 0.0
N1558 N 0.41343 0.56412 0.74656 0.0
C1559 C 0.36494 0.54018 0.74302 0.0
C1560 C 0.36054 0.5572 0.75093 0.0
C1561 C 0.38493 0.56899 0.75235 0.0
C1562 C 0.39416 0.53563 0.73688 0.0
C1563 C 0.41777 0.54757 0.73886 0.0
N1564 N 0.48583 0.5934 0.7567 0.0
C1565 C 0.52971 0.60789 0.74191 0.0
C1566 C 0.5461 0.60491 0.76093 0.0
C1567 C 0.5304 0.59758 0.77843 0.0
C1568 C 0.50049 0.59212 0.77607 0.0
C1569 C 0.49973 0.60219 0.74019 0.0
H1570 H 0.48987 0.58593 0.7897 0.0
H1571 H 0.4885 0.60408 0.725 0.0
H1572 H 0.38071 0.58194 0.75841 0.0
H1573 H 0.43978 0.54308 0.73457 0.0
C1574 C 0.49971 0.54987 0.74205 0.0
C1575 C 0.44623 0.59069 0.69579 0.0
C1576 C 0.43816 0.56329 0.80441 0.0
C1577 C 0.41245 0.61462 0.76371 0.0
H1578 H 0.49333 0.57129 0.67392 0.0
H1579 H 0.52257 0.54941 0.69894 0.0
H1580 H 0.51072 0.52593 0.77673 0.0
H1581 H 0.4746 0.53224 0.80986 0.0
H1582 H 0.4119 0.5908 0.83036 0.0
H1583 H 0.39932 0.61928 0.80828 0.0
H1584 H 0.38641 0.63251 0.72818 0.0
H1585 H 0.40061 0.61747 0.69125 0.0
H1586 H 0.33838 0.56148 0.75573 0.0
H1587 H 0.39905 0.52265 0.73094 0.0
H1588 H 0.54038 0.61372 0.72795 0.0
H1589 H 0.5414 0.59555 0.7938 0.0
C1590 C 0.33309 0.57845 0.05138 0.0
C1591 C 0.31237 0.56952 0.06405 0.0
C1592 C 0.29786 0.55798 0.05085 0.0
C1593 C 0.30989 0.56057 0.03077 0.0
N1594 N 0.33157 0.57284 0.03045 0.0
Co1595 Co 0.34918 0.58272 1.00342 0.0
N1596 N 0.33446 0.56308 0.98527 0.0
C1597 C 0.31324 0.55153 0.99086 0.0
C1598 C 0.30867 0.539 0.97533 0.0
C1599 C 0.32836 0.54295 0.95893 0.0
C1600 C 0.34379 0.55771 0.96543 0.0
N1601 N 0.36589 0.59294 0.97641 0.0
C1602 C 0.37152 0.58534 0.9571 0.0
C1603 C 0.38326 0.59722 0.94247 0.0
C1604 C 0.38548 0.61278 0.95318 0.0
C1605 C 0.37488 0.60953 0.97361 0.0
N1606 N 0.3648 0.60234 0.02134 0.0
C1607 C 0.37755 0.61703 0.01367 0.0
C1608 C 0.39049 0.62705 0.0294 0.0
C1609 C 0.38492 0.61843 0.04827 0.0
C1610 C 0.36769 0.60391 0.04313 0.0
N1611 N 0.38677 0.56935 0.00792 0.0
C1612 C 0.43791 0.54741 0.00565 0.0
C1613 C 0.43963 0.56527 1.00054 0.0
C1614 C 0.41406 0.576 1.00202 0.0
C1615 C 0.41029 0.54115 0.01321 0.0
C1616 C 0.3852 0.55221 0.01414 0.0
N1617 N 0.31086 0.59536 0.9985 0.0
C1618 C 0.26559 0.60847 0.01296 0.0
C1619 C 0.25039 0.60622 0.99326 0.0
C1620 C 0.2673 0.59971 0.97583 0.0
C1621 C 0.29718 0.59441 0.97875 0.0
C1622 C 0.29569 0.60318 0.01515 0.0
H1623 H 0.30878 0.58882 0.96512 0.0
H1624 H 0.3061 0.60474 0.03069 0.0
H1625 H 0.41617 0.5895 0.99746 0.0
H1626 H 0.36411 0.54654 0.01882 0.0
C1627 C 0.30206 0.55139 0.01199 0.0
C1628 C 0.35108 0.59349 0.0593 0.0
C1629 C 0.36595 0.56699 0.95213 0.0
C1630 C 0.38001 0.62007 0.99153 0.0
H1631 H 0.30696 0.57157 0.08086 0.0
H1632 H 0.28011 0.54905 0.05531 0.0
H1633 H 0.29374 0.5279 0.97617 0.0
H1634 H 0.33106 0.53584 0.94397 0.0
H1635 H 0.39016 0.59479 0.92598 0.0
H1636 H 0.39558 0.62468 0.94722 0.0
H1637 H 0.40318 0.63897 0.02735 0.0
H1638 H 0.39224 0.62269 0.06405 0.0
H1639 H 0.46052 0.57091 0.99501 0.0
H1640 H 0.40756 0.52751 0.0173 0.0
H1641 H 0.25406 0.61356 0.02699 0.0
H1642 H 0.25742 0.5983 0.95997 0.0
C1643 C 0.4731 0.18674 0.05502 0.0
C1644 C 0.49773 0.19523 0.06379 0.0
C1645 C 0.51077 0.20445 0.04742 0.0
C1646 C 0.49371 0.20099 0.02954 0.0
N1647 N 0.47007 0.1905 0.03356 0.0
Co1648 Co 0.44421 0.17939 0.01088 0.0
N1649 N 0.46171 0.19391 0.98705 0.0
C1650 C 0.48562 0.20452 0.9888 0.0
C1651 C 0.49319 0.21259 0.96978 0.0
C1652 C 0.47285 0.20668 0.95496 0.0
C1653 C 0.45386 0.19535 0.96583 0.0
N1654 N 0.41916 0.16757 0.98848 0.0
C1655 C 0.41341 0.17225 0.96778 0.0
C1656 C 0.39029 0.1623 0.95911 0.0
C1657 C 0.38247 0.15036 0.97432 0.0
C1658 C 0.40037 0.15397 0.99167 0.0
N1659 N 0.42511 0.16554 0.03467 0.0
C1660 C 0.40402 0.1531 0.03252 0.0
C1661 C 0.39248 0.14729 0.05171 0.0
C1662 C 0.40777 0.15626 0.06716 0.0
C1663 C 0.42835 0.16673 0.0564 0.0
N1664 N 0.41261 0.19768 0.01447 0.0
C1665 C 0.36923 0.22508 0.01333 0.0
C1666 C 0.36079 0.20744 0.01179 0.0
C1667 C 0.38258 0.19408 0.01258 0.0
C1668 C 0.39989 0.2284 0.01673 0.0
C1669 C 0.42089 0.21475 0.01709 0.0
N1670 N 0.47709 0.16169 0.00712 0.0
C1671 C 0.51492 0.14411 0.02496 0.0
C1672 C 0.53559 0.1466 0.00806 0.0
C1673 C 0.52442 0.15476 0.98937 0.0
C1674 C 0.49507 0.16172 0.98906 0.0
C1675 C 0.48627 0.15168 0.02422 0.0
H1676 H 0.48786 0.1679 0.97437 0.0
H1677 H 0.47246 0.14993 0.03816 0.0
H1678 H 0.37482 0.1809 0.01104 0.0
H1679 H 0.44403 0.21825 0.01892 0.0
C1680 C 0.49977 0.20687 0.00865 0.0
C1681 C 0.45467 0.17411 0.06711 0.0
C1682 C 0.43063 0.18494 0.95504 0.0
C1683 C 0.39454 0.1478 0.01229 0.0
H1684 H 0.50629 0.19438 0.08006 0.0
H1685 H 0.53098 0.21222 0.04828 0.0
H1686 H 0.51141 0.22164 0.96699 0.0
H1687 H 0.47251 0.21002 0.93799 0.0
H1688 H 0.37989 0.16358 0.94341 0.0
H1689 H 0.36431 0.14102 0.97341 0.0
H1690 H 0.37525 0.13755 0.05418 0.0
H1691 H 0.40556 0.15439 0.08442 0.0
H1692 H 0.3376 0.20387 0.00925 0.0
H1693 H 0.40801 0.24157 0.01891 0.0
H1694 H 0.52097 0.13682 0.03927 0.0
H1695 H 0.53856 0.15657 0.97535 0.0
H1696 H 0.13976 0.31497 0.18301 0.0
H1697 H 0.23518 0.31052 0.17176 0.0
H1698 H 0.2255 0.30481 0.13291 0.0
H1699 H 0.11338 0.28318 0.14107 0.0
H1700 H 0.08203 0.29684 0.13399 0.0
H1701 H 0.09619 0.29686 0.16125 0.0
H1702 H 0.10333 0.33036 0.15934 0.0
H1703 H 0.08924 0.33045 0.13216 0.0
H1704 H 0.12562 0.33956 0.13788 0.0
H1705 H 0.20564 0.30432 0.09453 0.0
H1706 H 0.17801 0.30988 0.06051 0.0
H1707 H 0.09553 0.31548 0.09658 0.0
C1708 C 0.15851 0.31216 0.17245 0.0
C1709 C 0.18824 0.31293 0.18035 0.0
C1710 C 0.21229 0.3097 0.16604 0.0
C1711 C 0.20693 0.30649 0.14397 0.0
C1712 C 0.17735 0.30654 0.13648 0.0
C1713 C 0.15353 0.30924 0.15038 0.0
C1714 C 0.12427 0.31095 0.13808 0.0
C1715 C 0.10269 0.29607 0.14395 0.0
C1716 C 0.10978 0.32889 0.1421 0.0
C1717 C 0.13529 0.30925 0.11499 0.0
C1718 C 0.16594 0.30644 0.1144 0.0
C1719 C 0.18158 0.30607 0.09485 0.0
C1720 C 0.16572 0.30912 0.07559 0.0
C1721 C 0.13456 0.31248 0.07594 0.0
C1722 C 0.11911 0.31218 0.09586 0.0
H1723 H 0.20229 0.94725 0.09083 0.0
H1724 H 0.12045 0.95846 0.05618 0.0
H1725 H 0.09378 0.9628 0.09087 0.0
H1726 H 0.16993 0.92156 0.1289 0.0
H1727 H 0.19304 0.92802 0.15137 0.0
H1728 H 0.20727 0.92976 0.12429 0.0
H1729 H 0.21806 0.96262 0.13006 0.0
H1730 H 0.2042 0.96095 0.15735 0.0
H1731 H 0.18839 0.9768 0.13913 0.0
H1732 H 0.0741 0.96028 0.12909 0.0
H1733 H 0.06379 0.95222 0.16714 0.0
H1734 H 0.15846 0.94315 0.17739 0.0
C1735 C 0.1792 0.9516 0.09066 0.0
C1736 C 0.16359 0.95316 0.07089 0.0
C1737 C 0.13293 0.9578 0.07116 0.0
C1738 C 0.11761 0.96016 0.09082 0.0
C1739 C 0.13328 0.95782 0.11013 0.0
C1740 C 0.16355 0.95385 0.11019 0.0
C1741 C 0.17434 0.94987 0.13291 0.0
C1742 C 0.18687 0.9312 0.13445 0.0
C1743 C 0.19763 0.96337 0.1403 0.0
C1744 C 0.14535 0.95169 0.14555 0.0
C1745 C 0.12192 0.95641 0.13217 0.0
C1746 C 0.09245 0.95709 0.13981 0.0
C1747 C 0.08676 0.95258 0.16148 0.0
C1748 C 0.11039 0.94752 0.17535 0.0
C1749 C 0.14009 0.94746 0.16729 0.0
H1750 H 0.86897 0.66728 0.84018 0.0
H1751 H 0.88179 0.72089 0.81983 0.0
H1752 H 0.89813 0.72848 0.85688 0.0
H1753 H 0.85864 0.66965 0.89658 0.0
H1754 H 0.88528 0.65259 0.90232 0.0
H1755 H 0.86582 0.65283 0.87691 0.0
H1756 H 0.91714 0.65198 0.85739 0.0
H1757 H 0.93678 0.65259 0.88275 0.0
H1758 H 0.94429 0.6689 0.86249 0.0
H1759 H 0.90533 0.72895 0.90007 0.0
H1760 H 0.91877 0.72207 0.93789 0.0
H1761 H 0.93184 0.66795 0.91989 0.0
C1762 C 0.8757 0.68061 0.84317 0.0
C1763 C 0.8736 0.69345 0.82683 0.0
C1764 C 0.88205 0.71081 0.83206 0.0
C1765 C 0.89178 0.71521 0.85305 0.0
C1766 C 0.89535 0.70188 0.86818 0.0
C1767 C 0.8893 0.68477 0.86283 0.0
C1768 C 0.90158 0.67232 0.87957 0.0
C1769 C 0.87631 0.66121 0.88943 0.0
C1770 C 0.92643 0.66078 0.86997 0.0
C1771 C 0.91415 0.68513 0.8958 0.0
C1772 C 0.90869 0.70213 0.88969 0.0
C1773 C 0.91154 0.71578 0.90448 0.0
C1774 C 0.91974 0.7118 0.92595 0.0
C1775 C 0.92732 0.6945 0.93206 0.0
C1776 C 0.92632 0.68134 0.91603 0.0
H1777 H 0.9089 0.0624 0.93389 0.0
H1778 H 0.81375 0.05744 0.92182 0.0
H1779 H 0.8242 0.05079 0.88352 0.0
H1780 H 0.92179 0.08684 0.88837 0.0
H1781 H 0.95873 0.07849 0.8827 0.0
H1782 H 0.94462 0.07828 0.9099 0.0
H1783 H 0.95387 0.04499 0.91218 0.0
H1784 H 0.96809 0.04509 0.8849 0.0
H1785 H 0.93761 0.0308 0.89215 0.0
H1786 H 0.8443 0.04909 0.8455 0.0
H1787 H 0.87147 0.05457 0.81131 0.0
H1788 H 0.95341 0.06321 0.84704 0.0
C1789 C 0.8904 0.0591 0.92334 0.0
C1790 C 0.86053 0.05965 0.93117 0.0
C1791 C 0.83681 0.05623 0.91659 0.0
C1792 C 0.84259 0.05263 0.89467 0.0
C1793 C 0.87223 0.05279 0.88734 0.0
C1794 C 0.89577 0.05603 0.90127 0.0
C1795 C 0.92496 0.05829 0.88886 0.0
C1796 C 0.93829 0.07656 0.89268 0.0
C1797 C 0.94747 0.04394 0.89488 0.0
C1798 C 0.91416 0.05619 0.86574 0.0
C1799 C 0.88374 0.05265 0.86525 0.0
C1800 C 0.8682 0.05148 0.84575 0.0
C1801 C 0.88383 0.05449 0.82637 0.0
C1802 C 0.9147 0.05872 0.82649 0.0
C1803 C 0.93012 0.05926 0.84644 0.0
H1804 H 0.21688 0.82547 0.65461 0.0
H1805 H 0.14301 0.80481 0.69214 0.0
H1806 H 0.11585 0.79775 0.65869 0.0
H1807 H 0.17621 0.84489 0.61418 0.0
H1808 H 0.2002 0.839 0.59192 0.0
H1809 H 0.21551 0.8408 0.61869 0.0
H1810 H 0.23554 0.80917 0.61635 0.0
H1811 H 0.22053 0.8073 0.58942 0.0
H1812 H 0.21012 0.79167 0.60984 0.0
H1813 H 0.09217 0.79988 0.62187 0.0
H1814 H 0.07773 0.80535 0.58412 0.0
H1815 H 0.16987 0.81807 0.56858 0.0
C1816 C 0.19548 0.81887 0.65569 0.0
C1817 C 0.18184 0.81598 0.67605 0.0
C1818 C 0.15367 0.8075 0.67684 0.0
C1819 C 0.13808 0.80335 0.65785 0.0
C1820 C 0.1514 0.80713 0.63803 0.0
C1821 C 0.17994 0.8141 0.63676 0.0
C1822 C 0.18867 0.81723 0.61333 0.0
C1823 C 0.19555 0.83663 0.60931 0.0
C1824 C 0.2153 0.80565 0.60685 0.0
C1825 C 0.16016 0.81164 0.60178 0.0
C1826 C 0.13879 0.80609 0.61639 0.0
C1827 C 0.10917 0.8032 0.61009 0.0
C1828 C 0.10119 0.80606 0.58841 0.0
C1829 C 0.12293 0.81103 0.57287 0.0
C1830 C 0.15297 0.81348 0.5798 0.0
H1831 H 0.14844 0.44003 0.57844 0.0
H1832 H 0.24154 0.44861 0.59483 0.0
H1833 H 0.22662 0.45553 0.63254 0.0
H1834 H 0.114 0.47261 0.61595 0.0
H1835 H 0.08327 0.45819 0.62215 0.0
H1836 H 0.10081 0.45739 0.59592 0.0
H1837 H 0.11096 0.42436 0.60093 0.0
H1838 H 0.0935 0.42506 0.62708 0.0
H1839 H 0.13129 0.41703 0.62438 0.0
H1840 H 0.20186 0.45713 0.66968 0.0
H1841 H 0.17059 0.45211 0.7022 0.0
H1842 H 0.09381 0.44182 0.6616 0.0
C1843 C 0.16557 0.44399 0.58979 0.0
C1844 C 0.19615 0.4441 0.58364 0.0
C1845 C 0.21801 0.44878 0.59911 0.0
C1846 C 0.20967 0.45268 0.62056 0.0
C1847 C 0.17934 0.45185 0.6263 0.0
C1848 C 0.15765 0.44766 0.61124 0.0
C1849 C 0.12717 0.44548 0.62182 0.0
C1850 C 0.105 0.45924 0.61346 0.0
C1851 C 0.11504 0.42689 0.61835 0.0
C1852 C 0.13504 0.44868 0.64531 0.0
C1853 C 0.16518 0.45259 0.64758 0.0
C1854 C 0.17816 0.45448 0.66798 0.0
C1855 C 0.16021 0.45174 0.68639 0.0
C1856 C 0.12965 0.44711 0.68437 0.0
C1857 C 0.1168 0.44604 0.66356 0.0
H1858 H 0.90823 0.1916 0.32587 0.0
H1859 H 0.81481 0.20111 0.34066 0.0
H1860 H 0.82806 0.20668 0.37878 0.0
H1861 H 0.92086 0.16658 0.37147 0.0
H1862 H 0.95898 0.17353 0.37579 0.0
H1863 H 0.94326 0.17408 0.34907 0.0
H1864 H 0.95619 0.20692 0.34599 0.0
H1865 H 0.972 0.20647 0.37278 0.0
H1866 H 0.94281 0.22185 0.36631 0.0
H1867 H 0.85042 0.20729 0.41629 0.0
H1868 H 0.87912 0.2011 0.44965 0.0
H1869 H 0.95775 0.18954 0.41131 0.0
C1870 C 0.89079 0.19557 0.33701 0.0
C1871 C 0.86062 0.19674 0.32999 0.0
C1872 C 0.8382 0.20103 0.3453 0.0
C1873 C 0.84554 0.20403 0.3671 0.0
C1874 C 0.87541 0.20244 0.37357 0.0
C1875 C 0.89769 0.19823 0.35894 0.0
C1876 C 0.92726 0.19494 0.37042 0.0
C1877 C 0.93822 0.17617 0.36645 0.0
C1878 C 0.95097 0.20835 0.36346 0.0
C1879 C 0.9181 0.19762 0.39384 0.0
C1880 C 0.88817 0.20222 0.39528 0.0
C1881 C 0.874 0.20406 0.41528 0.0
C1882 C 0.89049 0.20066 0.43418 0.0
C1883 C 0.92084 0.19542 0.43306 0.0
C1884 C 0.93493 0.19423 0.41262 0.0
H1885 H 0.93479 0.58378 0.33986 0.0
H1886 H 0.91695 0.53007 0.32232 0.0
H1887 H 0.90175 0.52392 0.36009 0.0
H1888 H 0.94798 0.582 0.39716 0.0
H1889 H 0.92355 0.60024 0.40234 0.0
H1890 H 0.94276 0.59858 0.37686 0.0
H1891 H 0.89145 0.6011 0.35747 0.0
H1892 H 0.87209 0.60197 0.38294 0.0
H1893 H 0.86235 0.58549 0.36342 0.0
H1894 H 0.8921 0.52485 0.40297 0.0
H1895 H 0.87688 0.53332 0.44016 0.0
H1896 H 0.87421 0.58743 0.42002 0.0
C1897 C 0.92797 0.57062 0.34388 0.0
C1898 C 0.92779 0.55737 0.32801 0.0
C1899 C 0.9185 0.54038 0.3342 0.0
C1900 C 0.90936 0.53683 0.35561 0.0
C1901 C 0.90766 0.55065 0.37028 0.0
C1902 C 0.91536 0.56737 0.36413 0.0
C1903 C 0.90472 0.58071 0.38039 0.0
C1904 C 0.93135 0.59097 0.38975 0.0
C1905 C 0.88126 0.59303 0.37046 0.0
C1906 C 0.89079 0.56888 0.39713 0.0
C1907 C 0.89422 0.55153 0.39179 0.0
C1908 C 0.88818 0.53841 0.40688 0.0
C1909 C 0.8792 0.54332 0.42792 0.0
C1910 C 0.87447 0.5611 0.43327 0.0
C1911 C 0.87831 0.57376 0.41689 0.0
H1912 H 0.62708 0.29869 0.58366 0.0
H1913 H 0.61611 0.35448 0.57472 0.0
H1914 H 0.63769 0.3597 0.61064 0.0
H1915 H 0.59764 0.30403 0.64167 0.0
H1916 H 0.6189 0.28563 0.65131 0.0
H1917 H 0.60524 0.28593 0.62392 0.0
H1918 H 0.65943 0.28075 0.61041 0.0
H1919 H 0.67341 0.28115 0.63771 0.0
H1920 H 0.68854 0.29591 0.61783 0.0
H1921 H 0.67538 0.35816 0.64123 0.0
H1922 H 0.69336 0.35312 0.67823 0.0
H1923 H 0.65834 0.30034 0.67621 0.0
C1924 C 0.62828 0.31196 0.58952 0.0
C1925 C 0.6222 0.3263 0.57564 0.0
C1926 C 0.62252 0.34336 0.58449 0.0
C1927 C 0.63497 0.3465 0.60478 0.0
C1928 C 0.64385 0.33229 0.61708 0.0
C1929 C 0.63769 0.31539 0.6109 0.0
C1930 C 0.64382 0.30294 0.62964 0.0
C1931 C 0.61466 0.29411 0.63708 0.0
C1932 C 0.66772 0.28938 0.62351 0.0
C1933 C 0.65566 0.31556 0.64669 0.0
C1934 C 0.65734 0.33216 0.6382 0.0
C1935 C 0.67219 0.34557 0.64879 0.0
C1936 C 0.68256 0.3425 0.66971 0.0
C1937 C 0.6751 0.32686 0.68068 0.0
C1938 C 0.66313 0.31274 0.66859 0.0
H1939 H 0.59701 0.9373 0.66552 0.0
H1940 H 0.67857 0.94302 0.70259 0.0
H1941 H 0.70783 0.94566 0.66876 0.0
H1942 H 0.62632 0.91059 0.62638 0.0
H1943 H 0.60588 0.91947 0.60383 0.0
H1944 H 0.59059 0.92103 0.63065 0.0
H1945 H 0.58652 0.95458 0.62691 0.0
H1946 H 0.60136 0.95312 0.59987 0.0
H1947 H 0.6192 0.96704 0.61947 0.0
H1948 H 0.72901 0.94284 0.63091 0.0
H1949 H 0.73964 0.93691 0.59224 0.0
H1950 H 0.64433 0.93446 0.57944 0.0
C1951 C 0.62081 0.93997 0.66642 0.0
C1952 C 0.6355 0.94052 0.68662 0.0
C1953 C 0.66689 0.94309 0.68725 0.0
C1954 C 0.68368 0.94448 0.66811 0.0
C1955 C 0.66874 0.94333 0.64837 0.0
C1956 C 0.6379 0.94143 0.64738 0.0
C1957 C 0.62762 0.93913 0.62418 0.0
C1958 C 0.61167 0.92151 0.62109 0.0
C1959 C 0.60748 0.95438 0.6172 0.0
C1960 C 0.65744 0.93952 0.61237 0.0
C1961 C 0.68093 0.94198 0.62657 0.0
C1962 C 0.71072 0.9413 0.6196 0.0
C1963 C 0.71662 0.93792 0.59764 0.0
C1964 C 0.69288 0.93533 0.58286 0.0
C1965 C 0.66294 0.93652 0.59037 0.0
H1966 H 0.41598 0.69487 0.32481 0.0
H1967 H 0.32103 0.69921 0.33813 0.0
H1968 H 0.33218 0.70577 0.37632 0.0
H1969 H 0.43018 0.67028 0.36983 0.0
H1970 H 0.46711 0.67879 0.37513 0.0
H1971 H 0.45241 0.67914 0.34812 0.0
H1972 H 0.46115 0.7125 0.34618 0.0
H1973 H 0.47591 0.71224 0.37329 0.0
H1974 H 0.44508 0.72643 0.36658 0.0
H1975 H 0.35293 0.70715 0.41408 0.0
H1976 H 0.38072 0.70102 0.4478 0.0
H1977 H 0.46209 0.69339 0.41099 0.0
C1978 C 0.39766 0.69804 0.33561 0.0
C1979 C 0.36764 0.6973 0.32819 0.0
C1980 C 0.34418 0.70053 0.34308 0.0
C1981 C 0.35036 0.7041 0.36493 0.0
C1982 C 0.38015 0.70411 0.37188 0.0
C1983 C 0.40345 0.70107 0.35763 0.0
C1984 C 0.43291 0.69885 0.36965 0.0
C1985 C 0.44643 0.68069 0.36543 0.0
C1986 C 0.45507 0.71338 0.36356 0.0
C1987 C 0.42252 0.7007 0.39292 0.0
C1988 C 0.39208 0.70412 0.39382 0.0
C1989 C 0.37686 0.70488 0.41352 0.0
C1990 C 0.39284 0.70152 0.43264 0.0
C1991 C 0.4237 0.69734 0.43204 0.0
C1992 C 0.43883 0.69732 0.41194 0.0
H1993 H 0.38129 0.05473 0.42651 0.0
H1994 H 0.35043 0.10833 0.43056 0.0
H1995 H 0.36943 0.11377 0.39383 0.0
H1996 H 0.44226 0.05751 0.39303 0.0
H1997 H 0.43368 0.03998 0.37467 0.0
H1998 H 0.41925 0.03955 0.40186 0.0
H1999 H 0.36483 0.03693 0.38777 0.0
H2000 H 0.37921 0.03651 0.36056 0.0
H2001 H 0.35131 0.05239 0.36813 0.0
H2002 H 0.40685 0.11486 0.36286 0.0
H2003 H 0.42804 0.10965 0.32675 0.0
H2004 H 0.41308 0.05404 0.33457 0.0
C2005 C 0.37718 0.06738 0.41938 0.0
C2006 C 0.36582 0.08143 0.43192 0.0
C2007 C 0.36024 0.09761 0.4216 0.0
C2008 C 0.37127 0.1009 0.40087 0.0
C2009 C 0.38502 0.08733 0.38979 0.0
C2010 C 0.38519 0.07052 0.39767 0.0
C2011 C 0.39641 0.05794 0.38037 0.0
C2012 C 0.42457 0.04817 0.38795 0.0
C2013 C 0.37145 0.04519 0.37381 0.0
C2014 C 0.40383 0.07058 0.36212 0.0
C2015 C 0.3989 0.08751 0.36874 0.0
C2016 C 0.40883 0.10169 0.35676 0.0
C2017 C 0.42116 0.09855 0.33638 0.0
C2018 C 0.42057 0.08159 0.32722 0.0
C2019 C 0.41322 0.06724 0.34074 0.0
H2020 H 0.62578 0.81111 0.18643 0.0
H2021 H 0.71938 0.80072 0.17323 0.0
H2022 H 0.70713 0.79474 0.13508 0.0
H2023 H 0.59093 0.78151 0.14488 0.0
H2024 H 0.56303 0.79758 0.13803 0.0
H2025 H 0.57762 0.79651 0.16515 0.0
H2026 H 0.59267 0.82909 0.16293 0.0
H2027 H 0.57821 0.83025 0.13588 0.0
H2028 H 0.61653 0.83633 0.1412 0.0
H2029 H 0.68624 0.79424 0.09738 0.0
H2030 H 0.65968 0.80161 0.0635 0.0
H2031 H 0.58036 0.81501 0.10013 0.0
C2032 C 0.64341 0.80677 0.17566 0.0
C2033 C 0.67337 0.80558 0.1831 0.0
C2034 C 0.69613 0.80085 0.16826 0.0
C2035 C 0.68936 0.79761 0.14644 0.0
C2036 C 0.65976 0.79947 0.13948 0.0
C2037 C 0.63715 0.80406 0.15366 0.0
C2038 C 0.60833 0.80811 0.14159 0.0
C2039 C 0.58351 0.79515 0.14779 0.0
C2040 C 0.59837 0.82706 0.14564 0.0
C2041 C 0.61835 0.80547 0.11837 0.0
C2042 C 0.64794 0.80009 0.11754 0.0
C2043 C 0.66291 0.7981 0.09788 0.0
C2044 C 0.64763 0.80218 0.07869 0.0
C2045 C 0.61777 0.80835 0.07922 0.0
C2046 C 0.60279 0.80966 0.09929 0.0
H2047 H 0.63845 0.44264 0.07772 0.0
H2048 H 0.73163 0.45108 0.09396 0.0
H2049 H 0.71669 0.45909 0.13129 0.0
H2050 H 0.60355 0.47573 0.11515 0.0
H2051 H 0.57318 0.46109 0.12148 0.0
H2052 H 0.59046 0.46045 0.09515 0.0
H2053 H 0.60128 0.42748 0.1 0.0
H2054 H 0.5841 0.42801 0.12623 0.0
H2055 H 0.62203 0.42025 0.12331 0.0
H2056 H 0.69239 0.46086 0.16816 0.0
H2057 H 0.66223 0.45453 0.20078 0.0
H2058 H 0.58505 0.44376 0.16082 0.0
C2059 C 0.65558 0.44691 0.0889 0.0
C2060 C 0.68619 0.44658 0.08289 0.0
C2061 C 0.70807 0.45161 0.09815 0.0
C2062 C 0.69972 0.45614 0.11938 0.0
C2063 C 0.66936 0.45557 0.12507 0.0
C2064 C 0.64764 0.4511 0.11016 0.0
C2065 C 0.61732 0.44868 0.12087 0.0
C2066 C 0.5948 0.4623 0.11267 0.0
C2067 C 0.60551 0.43 0.1174 0.0
C2068 C 0.62539 0.4519 0.1443 0.0
C2069 C 0.6554 0.45624 0.14637 0.0
C2070 C 0.66875 0.45795 0.16664 0.0
C2071 C 0.65142 0.45447 0.18512 0.0
C2072 C 0.62112 0.44927 0.18327 0.0
C2073 C 0.60776 0.44852 0.16264 0.0
H2074 H 0.38075 0.21005 0.83321 0.0
H2075 H 0.36156 0.15476 0.82757 0.0
H2076 H 0.38315 0.14976 0.86357 0.0
H2077 H 0.44494 0.21007 0.86531 0.0
H2078 H 0.43388 0.22669 0.88429 0.0
H2079 H 0.41861 0.2267 0.85735 0.0
H2080 H 0.36454 0.2259 0.87251 0.0
H2081 H 0.37962 0.22657 0.89949 0.0
H2082 H 0.35437 0.20931 0.8918 0.0
H2083 H 0.41932 0.1502 0.89469 0.0
H2084 H 0.43964 0.15589 0.93094 0.0
H2085 H 0.41801 0.21078 0.92417 0.0
C2086 C 0.38029 0.197 0.83983 0.0
C2087 C 0.37126 0.18258 0.82699 0.0
C2088 C 0.3698 0.16584 0.83666 0.0
C2089 C 0.38224 0.16282 0.85701 0.0
C2090 C 0.39357 0.17696 0.86839 0.0
C2091 C 0.39027 0.19386 0.86112 0.0
C2092 C 0.3998 0.20669 0.87866 0.0
C2093 C 0.42585 0.21822 0.87093 0.0
C2094 C 0.37299 0.21777 0.88606 0.0
C2095 C 0.40999 0.1942 0.89638 0.0
C2096 C 0.40775 0.17719 0.88932 0.0
C2097 C 0.41955 0.16335 0.90103 0.0
C2098 C 0.43131 0.16675 0.9215 0.0
C2099 C 0.42875 0.18355 0.93088 0.0
C2100 C 0.41938 0.19769 0.91772 0.0
H2101 H 0.38402 0.55837 0.82468 0.0
H2102 H 0.47968 0.55667 0.83615 0.0
H2103 H 0.47042 0.55206 0.87505 0.0
H2104 H 0.36948 0.58477 0.86867 0.0
H2105 H 0.3335 0.5755 0.87531 0.0
H2106 H 0.34717 0.5745 0.84801 0.0
H2107 H 0.34109 0.54092 0.84817 0.0
H2108 H 0.32733 0.54181 0.87554 0.0
H2109 H 0.35902 0.52822 0.86898 0.0
H2110 H 0.45117 0.55161 0.91329 0.0
H2111 H 0.42393 0.55731 0.94741 0.0
H2112 H 0.34071 0.56167 0.912 0.0
C2113 C 0.40294 0.55626 0.83531 0.0
C2114 C 0.43261 0.55711 0.82715 0.0
C2115 C 0.45681 0.55525 0.84175 0.0
C2116 C 0.45172 0.5528 0.86398 0.0
C2117 C 0.42224 0.55252 0.87158 0.0
C2118 C 0.39821 0.55431 0.85767 0.0
C2119 C 0.36904 0.55619 0.8702 0.0
C2120 C 0.35392 0.57378 0.86526 0.0
C2121 C 0.34787 0.54087 0.86543 0.0
C2122 C 0.38041 0.55551 0.89333 0.0
C2123 C 0.41113 0.55306 0.89374 0.0
C2124 C 0.42707 0.55319 0.91313 0.0
C2125 C 0.41143 0.55633 0.93247 0.0
C2126 C 0.38016 0.55937 0.93239 0.0
C2127 C 0.36442 0.55869 0.91257 0.0
H2128 H 0.95569 0.23702 0.23208 0.0
H2129 H 0.97019 0.21014 0.29286 0.0
H2130 H 1.01188 0.23018 0.30117 0.0
H2131 H 0.0342 0.24516 0.22028 0.0
H2132 H 0.02759 0.26638 0.20871 0.0
H2133 H 0.99889 0.24988 0.2074 0.0
H2134 H 0.9615 0.27088 0.22599 0.0
H2135 H 0.99011 0.28741 0.22741 0.0
H2136 H 0.97113 0.28047 0.25164 0.0
H2137 H 0.05171 0.25378 0.30346 0.0
H2138 H 0.088 0.2777 0.29862 0.0
H2139 H 0.04845 0.28968 0.23633 0.0
C2140 C 0.96758 0.23533 0.24716 0.0
C2141 C 0.95946 0.22177 0.26173 0.0
C2142 C 0.97602 0.2201 0.28119 0.0
C2143 C 0.99969 0.23157 0.28616 0.0
C2144 C 1.00697 0.24476 0.27153 0.0
C2145 C 0.99154 0.24664 0.25234 0.0
C2146 C 1.00422 0.26182 0.23931 0.0
C2147 C 1.01698 0.25542 0.21764 0.0
C2148 C 0.98031 0.27598 0.23589 0.0
C2149 C 0.02909 0.26822 0.2542 0.0
C2150 C 0.03012 0.25824 0.27275 0.0
C2151 C 0.051 0.26167 0.28898 0.0
C2152 C 0.07146 0.27547 0.28614 0.0
C2153 C 0.07132 0.28587 0.26715 0.0
C2154 C 0.04956 0.28206 0.25102 0.0
H2155 H 0.20209 0.99103 0.24188 0.0
H2156 H 0.25294 0.94453 0.25762 0.0
H2157 H 0.29977 0.96163 0.25638 0.0
H2158 H 0.25654 0.00892 0.20431 0.0
H2159 H 0.25027 0.03124 0.21219 0.0
H2160 H 0.22047 0.0155 0.21462 0.0
H2161 H 0.21486 0.02303 0.25516 0.0
H2162 H 0.24465 0.03878 0.25286 0.0
H2163 H 0.24708 0.02158 0.27261 0.0
H2164 H 0.34122 0.98389 0.25462 0.0
H2165 H 0.37459 0.00909 0.2509 0.0
H2166 H 0.29824 0.04156 0.234 0.0
C2167 C 0.22307 0.98447 0.24518 0.0
C2168 C 0.22361 0.9663 0.24986 0.0
C2169 C 0.25173 0.95829 0.25379 0.0
C2170 C 0.27853 0.96795 0.25323 0.0
C2171 C 0.27721 0.98573 0.24852 0.0
C2172 C 0.25025 0.99393 0.24442 0.0
C2173 C 0.25538 0.01317 0.23931 0.0
C2174 C 0.24505 0.01745 0.21623 0.0
C2175 C 0.23955 0.02483 0.25598 0.0
C2176 C 0.28937 0.0145 0.24135 0.0
C2177 C 0.30138 0.9985 0.24678 0.0
C2178 C 0.33205 0.99642 0.25005 0.0
C2179 C 0.351 0.01093 0.24763 0.0
C2180 C 0.33966 0.02759 0.24164 0.0
C2181 C 0.30811 0.02923 0.23859 0.0
H2182 H 0.07468 0.98546 0.97528 0.0
H2183 H 0.0627 0.95748 0.03564 0.0
H2184 H 1.02024 0.97665 0.0448 0.0
H2185 H 0.05765 0.02835 0.99622 0.0
H2186 H 0.03779 0.0355 0.97248 0.0
H2187 H 0.06707 0.01942 0.97015 0.0
H2188 H 0.03019 0.99823 0.95145 0.0
H2189 H 1.00085 0.01428 0.95361 0.0
H2190 H 0.99539 0.99276 0.96463 0.0
H2191 H 0.97982 0.9994 0.04828 0.0
H2192 H 0.94257 0.02286 0.04499 0.0
H2193 H 0.97881 0.03662 0.98216 0.0
C2194 C 0.06316 0.98333 0.99044 0.0
C2195 C 0.07226 0.96966 0.00462 0.0
C2196 C 0.05615 0.96745 0.0242 0.0
C2197 C 0.03204 0.97845 0.02968 0.0
C2198 C 0.02386 0.99175 0.01547 0.0
C2199 C 0.03877 0.9942 0.99616 0.0
C2200 C 0.02508 0.00947 0.98377 0.0
C2201 C 0.04828 0.02405 0.98046 0.0
C2202 C 1.01211 1.00331 0.96208 0.0
C2203 C 1.00025 0.01526 0.99916 0.0
C2204 C 1.00015 0.00483 0.01737 0.0
C2205 C 0.97957 0.00751 0.03398 0.0
C2206 C 0.95826 0.02091 0.03187 0.0
C2207 C 0.95709 0.03165 0.01318 0.0
C2208 C 0.9789 0.02882 0.99672 0.0
H2209 H 0.30762 0.22637 0.02341 0.0
H2210 H 0.3794 0.25781 0.99622 0.0
H2211 H 0.34461 0.28234 0.99218 0.0
H2212 H 0.24995 0.2426 0.98723 0.0
H2213 H 0.22082 0.24231 0.00742 0.0
H2214 H 0.25159 0.22716 0.00915 0.0
H2215 H 0.26332 0.23808 0.04777 0.0
H2216 H 0.23263 0.25329 0.04613 0.0
H2217 H 0.26983 0.26099 0.05228 0.0
H2218 H 0.30193 0.30413 0.9911 0.0
H2219 H 0.25426 0.3205 0.99125 0.0
H2220 H 0.20872 0.27515 0.01735 0.0
C2221 C 0.31616 0.23834 0.0165 0.0
C2222 C 0.34695 0.23993 0.01062 0.0
C2223 C 0.35654 0.25608 1.00165 0.0
C2224 C 0.33673 0.2702 0.99904 0.0
C2225 C 0.30687 0.26822 0.00518 0.0
C2226 C 0.29649 0.25265 0.01356 0.0
C2227 C 0.263 0.25393 0.01834 0.0
C2228 C 0.2453 0.24071 0.00472 0.0
C2229 C 0.25684 0.25143 0.04257 0.0
C2230 C 0.25628 0.2726 0.01132 0.0
C2231 C 0.28201 0.28063 1.00393 0.0
C2232 C 0.28165 0.29792 0.99683 0.0
C2233 C 0.25438 0.3072 0.99711 0.0
C2234 C 0.22741 0.29928 0.00427 0.0
C2235 C 0.22868 0.28166 0.01152 0.0
H2236 H 0.95799 0.74493 0.72405 0.0
H2237 H 0.97833 0.71421 0.78104 0.0
H2238 H 1.01952 0.73435 0.79001 0.0
H2239 H 0.03515 0.75499 0.71033 0.0
H2240 H 0.02713 0.77683 0.7013 0.0
H2241 H 0.99883 0.76015 0.69933 0.0
H2242 H 0.96228 0.77936 0.72143 0.0
H2243 H 0.99051 0.79608 0.72351 0.0
H2244 H 0.97354 0.7873 0.7476 0.0
H2245 H 0.05844 0.75811 0.79338 0.0
H2246 H 0.09391 0.78255 0.78968 0.0
H2247 H 0.04965 0.79832 0.73039 0.0
C2248 C 0.97105 0.74246 0.73845 0.0
C2249 C 0.96476 0.72776 0.75174 0.0
C2250 C 0.98275 0.72508 0.77034 0.0
C2251 C 1.00617 0.73658 0.7757 0.0
C2252 C 1.01175 0.75084 0.76231 0.0
C2253 C 0.99488 0.75378 0.74397 0.0
C2254 C 1.00618 0.76994 0.73214 0.0
C2255 C 1.01749 0.76519 0.70943 0.0
C2256 C 0.98167 0.784 0.73111 0.0
C2257 C 0.03194 0.77561 0.7467 0.0
C2258 C 0.03455 0.76444 0.7641 0.0
C2259 C 0.05651 0.76694 0.77982 0.0
C2260 C 0.0765 0.78104 0.77766 0.0
C2261 C 0.0748 0.79264 0.75983 0.0
C2262 C 0.05193 0.78977 0.7442 0.0
H2263 H 0.71382 0.9877 0.78 0.0
H2264 H 0.7328 0.95553 0.72397 0.0
H2265 H 0.77569 0.97441 0.71491 0.0
H2266 H 0.73343 0.02932 0.75549 0.0
H2267 H 0.75069 0.03805 0.77946 0.0
H2268 H 0.72105 0.02219 0.78177 0.0
H2269 H 0.7555 1.00238 0.80469 0.0
H2270 H 0.78519 0.01821 0.80254 0.0
H2271 H 0.79156 0.99601 0.79416 0.0
H2272 H 0.81629 0.99691 0.71123 0.0
H2273 H 0.85362 0.02034 0.71429 0.0
H2274 H 0.81092 0.03839 0.77322 0.0
C2275 C 0.72695 0.98464 0.76579 0.0
C2276 C 0.71974 0.96986 0.75282 0.0
C2277 C 0.73786 0.96643 0.73446 0.0
C2278 C 0.76225 0.97723 0.72905 0.0
C2279 C 0.76873 0.99156 0.74211 0.0
C2280 C 0.75178 0.99527 0.76021 0.0
C2281 C 0.76428 0.01136 0.7717 0.0
C2282 C 0.74097 0.0261 0.77213 0.0
C2283 C 0.77475 0.00671 0.79464 0.0
C2284 C 0.79082 0.01608 0.75722 0.0
C2285 C 0.79271 0.00448 0.7402 0.0
C2286 C 0.81512 0.00596 0.72462 0.0
C2287 C 0.83645 0.01936 0.72659 0.0
C2288 C 0.83586 0.03128 0.74415 0.0
C2289 C 0.8122 0.02966 0.75951 0.0
H2290 H 0.73011 0.78701 0.03007 0.0
H2291 H 0.70006 0.77532 0.96492 0.0
H2292 H 0.7371 0.75181 0.96246 0.0
H2293 H 0.81009 0.77937 0.01831 0.0
H2294 H 0.81774 0.77002 0.04443 0.0
H2295 H 0.78849 0.78606 0.04149 0.0
H2296 H 0.75046 0.76456 0.05844 0.0
H2297 H 0.77953 0.74841 0.06126 0.0
H2298 H 0.74573 0.74324 0.04669 0.0
H2299 H 0.7752 0.72822 0.96731 0.0
H2300 H 0.81628 0.70839 0.97762 0.0
H2301 H 0.82613 0.73596 0.03838 0.0
C2302 C 0.73152 0.77968 0.01517 0.0
C2303 C 0.71118 0.78297 0.99791 0.0
C2304 C 0.71424 0.7729 0.97876 0.0
C2305 C 0.73553 0.75949 0.97708 0.0
C2306 C 0.75444 0.75628 0.9945 0.0
C2307 C 0.75316 0.76627 0.01305 0.0
C2308 C 0.7769 0.76018 0.0291 0.0
C2309 C 0.79966 0.77478 0.0336 0.0
C2310 C 0.76227 0.75371 0.05012 0.0
C2311 C 0.79138 0.74516 0.01672 0.0
C2312 C 0.77773 0.74309 0.99688 0.0
C2313 C 0.78622 0.72981 0.98274 0.0
C2314 C 0.80949 0.71849 0.98883 0.0
C2315 C 0.82454 0.72047 0.00883 0.0
C2316 C 0.81524 0.73409 0.02293 0.0
H2317 H 0.31906 0.53122 0.77198 0.0
H2318 H 0.35389 0.51919 0.70827 0.0
H2319 H 0.31596 0.49607 0.70417 0.0
H2320 H 0.30365 0.48687 0.78744 0.0
H2321 H 0.26949 0.49179 0.80176 0.0
H2322 H 0.29855 0.50801 0.79963 0.0
H2323 H 0.26077 0.52969 0.7828 0.0
H2324 H 0.23155 0.51356 0.78499 0.0
H2325 H 0.2398 0.52334 0.7592 0.0
H2326 H 0.27471 0.47362 0.70691 0.0
H2327 H 0.23272 0.45413 0.71597 0.0
H2328 H 0.22428 0.47949 0.77842 0.0
C2329 C 0.31842 0.52388 0.75705 0.0
C2330 C 0.33978 0.52714 0.74045 0.0
C2331 C 0.33819 0.51697 0.72133 0.0
C2332 C 0.31658 0.50377 0.71881 0.0
C2333 C 0.29634 0.50065 0.73554 0.0
C2334 C 0.29693 0.51044 0.75429 0.0
C2335 C 0.27283 0.50404 0.76991 0.0
C2336 C 0.28698 0.49728 0.79093 0.0
C2337 C 0.24988 0.51852 0.77449 0.0
C2338 C 0.25872 0.48918 0.75701 0.0
C2339 C 0.27269 0.48751 0.73722 0.0
C2340 C 0.26374 0.47479 0.72244 0.0
C2341 C 0.23989 0.46358 0.72788 0.0
C2342 C 0.2249 0.4649 0.74806 0.0
C2343 C 0.23479 0.478 0.76278 0.0
H2344 H 0.99262 0.53545 0.5279 0.0
H2345 H 0.92451 0.50821 0.49104 0.0
H2346 H 0.95999 0.4842 0.48419 0.0
H2347 H 0.05622 0.52277 0.49466 0.0
H2348 H 0.08141 0.51997 0.51713 0.0
H2349 H 0.0509 0.53529 0.519 0.0
H2350 H 0.03193 0.51989 0.5536 0.0
H2351 H 0.06238 0.50453 0.55183 0.0
H2352 H 0.02425 0.49682 0.55294 0.0
H2353 H 1.00334 0.46295 0.48064 0.0
H2354 H 0.05001 0.4457 0.48234 0.0
H2355 H 0.09063 0.48584 0.5221 0.0
C2356 C 0.9852 0.52447 0.51832 0.0
C2357 C 0.9554 0.52384 0.51015 0.0
C2358 C 0.94683 0.50905 0.49782 0.0
C2359 C 0.96698 0.49532 0.49369 0.0
C2360 C 0.99596 0.49628 0.50205 0.0
C2361 C 1.00507 0.51042 0.51423 0.0
C2362 C 0.03737 0.50792 0.52171 0.0
C2363 C 0.05767 0.52235 0.51258 0.0
C2364 C 0.03907 0.50725 0.54649 0.0
C2365 C 0.04495 0.49025 0.51179 0.0
C2366 C 1.02076 0.48384 0.50038 0.0
C2367 C 0.02238 0.46788 0.48957 0.0
C2368 C 0.04919 0.45817 0.49052 0.0
C2369 C 0.07435 0.46423 0.50233 0.0
C2370 C 0.07191 0.4806 0.51308 0.0
H2371 H 0.33258 0.73316 0.52495 0.0
H2372 H 0.32037 0.70601 0.46404 0.0
H2373 H 0.27816 0.72537 0.45528 0.0
H2374 H 0.25376 0.74031 0.53595 0.0
H2375 H 0.25887 0.76176 0.54727 0.0
H2376 H 0.28857 0.7459 0.54899 0.0
H2377 H 0.32483 0.76751 0.53036 0.0
H2378 H 0.29519 0.78341 0.52851 0.0
H2379 H 0.31493 0.77666 0.50452 0.0
H2380 H 0.23682 0.74744 0.45271 0.0
H2381 H 0.19828 0.77015 0.45696 0.0
H2382 H 0.23558 0.78413 0.51929 0.0
C2383 C 0.32114 0.73131 0.50971 0.0
C2384 C 0.32999 0.71769 0.49535 0.0
C2385 C 0.314 0.71589 0.47566 0.0
C2386 C 0.29 0.72701 0.47039 0.0
C2387 C 0.28183 0.74012 0.48486 0.0
C2388 C 0.29682 0.74236 0.50416 0.0
C2389 C 0.2829 0.75743 0.51688 0.0
C2390 C 0.27028 0.75096 0.53856 0.0
C2391 C 0.30584 0.77212 0.52027 0.0
C2392 C 0.25775 0.76323 0.50175 0.0
C2393 C 0.25776 0.75301 0.48335 0.0
C2394 C 0.23663 0.75548 0.46707 0.0
C2395 C 0.21466 0.76845 0.46969 0.0
C2396 C 0.21349 0.77904 0.48848 0.0
C2397 C 0.23582 0.77646 0.50462 0.0
H2398 H 0.84043 0.5101 0.25565 0.0
H2399 H 0.79539 0.55437 0.2263 0.0
H2400 H 0.74832 0.53764 0.22549 0.0
H2401 H 0.8014 0.47676 0.2245 0.0
H2402 H 0.79936 0.46156 0.24665 0.0
H2403 H 0.82979 0.47697 0.24519 0.0
H2404 H 0.81649 0.4883 0.28337 0.0
H2405 H 0.78603 0.47293 0.28496 0.0
H2406 H 0.77897 0.49586 0.28882 0.0
H2407 H 0.70547 0.51632 0.22809 0.0
H2408 H 0.67014 0.49207 0.23393 0.0
H2409 H 0.74205 0.46064 0.26049 0.0
C2410 C 0.82083 0.5163 0.24881 0.0
C2411 C 0.82208 0.53383 0.24116 0.0
C2412 C 0.79539 0.54125 0.2327 0.0
C2413 C 0.76841 0.53173 0.23198 0.0
C2414 C 0.76806 0.51463 0.23966 0.0
C2415 C 0.79357 0.50692 0.24787 0.0
C2416 C 0.78688 0.4883 0.25516 0.0
C2417 C 0.80547 0.47512 0.24209 0.0
C2418 C 0.79242 0.48623 0.27953 0.0
C2419 C 0.75361 0.48677 0.24984 0.0
C2420 C 0.74331 0.50218 0.24092 0.0
C2421 C 0.71337 0.50422 0.23505 0.0
C2422 C 0.69337 0.49034 0.23853 0.0
C2423 C 0.70305 0.47437 0.2478 0.0
C2424 C 0.73384 0.47257 0.25326 0.0
H2425 H 0.73523 0.28372 0.51323 0.0
H2426 H 0.68451 0.26067 0.46078 0.0
H2427 H 0.72166 0.23692 0.45813 0.0
H2428 H 0.80961 0.27295 0.49281 0.0
H2429 H 0.82483 0.26792 0.51904 0.0
H2430 H 0.79476 0.28348 0.51655 0.0
H2431 H 0.76295 0.26561 0.54361 0.0
H2432 H 0.79291 0.24999 0.54617 0.0
H2433 H 0.75598 0.24284 0.53839 0.0
H2434 H 0.76495 0.21567 0.46059 0.0
H2435 H 0.80958 0.19812 0.46869 0.0
H2436 H 0.83171 0.23339 0.52126 0.0
C2437 C 0.73208 0.27375 0.50107 0.0
C2438 C 0.70669 0.27419 0.48718 0.0
C2439 C 0.70342 0.26067 0.47173 0.0
C2440 C 0.72456 0.2471 0.47003 0.0
C2441 C 0.74907 0.24696 0.48402 0.0
C2442 C 0.75291 0.25987 0.49934 0.0
C2443 C 0.7809 0.25625 0.51277 0.0
C2444 C 0.80388 0.27103 0.51013 0.0
C2445 C 0.77269 0.25351 0.53665 0.0
C2446 C 0.79221 0.23938 0.50255 0.0
C2447 C 0.77354 0.23434 0.48592 0.0
C2448 C 0.77949 0.21942 0.47378 0.0
C2449 C 0.80497 0.20934 0.47873 0.0
C2450 C 0.82453 0.21391 0.49595 0.0
C2451 C 0.81773 0.22931 0.50793 0.0
H2452 H 0.48135 0.22251 0.76371 0.0
H2453 H 0.42586 0.25104 0.71828 0.0
H2454 H 0.46213 0.27523 0.7186 0.0
H2455 H 0.50482 0.25981 0.79504 0.0
H2456 H 0.54257 0.25215 0.79919 0.0
H2457 H 0.51255 0.23674 0.79538 0.0
H2458 H 0.54128 0.22281 0.76344 0.0
H2459 H 0.57144 0.23814 0.76721 0.0
H2460 H 0.55338 0.23634 0.74128 0.0
H2461 H 0.50433 0.29676 0.72375 0.0
H2462 H 0.54941 0.31367 0.73278 0.0
H2463 H 0.57877 0.27203 0.77538 0.0
C2464 C 0.47692 0.23376 0.75366 0.0
C2465 C 0.45022 0.23472 0.74108 0.0
C2466 C 0.44555 0.2499 0.72838 0.0
C2467 C 0.46624 0.26377 0.72835 0.0
C2468 C 0.49193 0.26251 0.74108 0.0
C2469 C 0.49747 0.24788 0.75347 0.0
C2470 C 0.52688 0.25004 0.7658 0.0
C2471 C 0.52137 0.24966 0.79031 0.0
C2472 C 0.54959 0.23599 0.75902 0.0
C2473 C 0.53694 0.26812 0.75838 0.0
C2474 C 0.51634 0.27502 0.74412 0.0
C2475 C 0.5205 0.29148 0.73501 0.0
C2476 C 0.54626 0.30113 0.74047 0.0
C2477 C 0.56803 0.29453 0.75509 0.0
C2478 C 0.56299 0.27764 0.76408 0.0
H2479 H 0.46436 0.01913 0.53489 0.0
H2480 H 0.48401 0.05205 0.47963 0.0
H2481 H 0.52616 0.0329 0.46987 0.0
H2482 H 0.54167 0.00963 0.5485 0.0
H2483 H 0.53459 0.98734 0.55617 0.0
H2484 H 0.50545 1.00345 0.55892 0.0
H2485 H 0.47018 0.98456 0.53542 0.0
H2486 H 0.49924 0.9684 0.5326 0.0
H2487 H 0.48224 0.97781 0.50892 0.0
H2488 H 0.56646 0.01017 0.46562 0.0
H2489 H 0.60297 0.98619 0.46802 0.0
H2490 H 0.5585 0.96725 0.52587 0.0
C2491 C 0.47744 0.02228 0.52069 0.0
C2492 C 0.4707 0.03737 0.50819 0.0
C2493 C 0.48875 0.0409 0.4898 0.0
C2494 C 0.51274 0.02997 0.48398 0.0
C2495 C 0.51886 0.01537 0.49664 0.0
C2496 C 0.50184 0.0115 0.51467 0.0
C2497 C 0.51377 0.99507 0.52562 0.0
C2498 C 0.52451 0.99912 0.54867 0.0
C2499 C 0.48994 0.9806 0.52564 0.0
C2500 C 0.54005 0.99038 0.51093 0.0
C2501 C 0.54238 1.00225 0.49425 0.0
C2502 C 0.56473 1.00076 0.47859 0.0
C2503 C 0.58534 0.98691 0.48001 0.0
C2504 C 0.58386 0.97452 0.49701 0.0
C2505 C 0.56065 0.97642 0.51267 0.0
H2506 H 0.57916 0.76838 0.28201 0.0
H2507 H 0.56714 0.79617 0.22154 0.0
H2508 H 0.5252 0.77674 0.21224 0.0
H2509 H 0.56208 0.72513 0.26113 0.0
H2510 H 0.54204 0.71814 0.2849 0.0
H2511 H 0.57147 0.73414 0.28716 0.0
H2512 H 0.53467 0.75549 0.30571 0.0
H2513 H 0.50519 0.73952 0.30359 0.0
H2514 H 0.5 0.76102 0.29246 0.0
H2515 H 0.48474 0.75421 0.20885 0.0
H2516 H 0.44687 0.7311 0.21234 0.0
H2517 H 0.48278 0.71726 0.27519 0.0
C2518 C 0.56776 0.77037 0.26678 0.0
C2519 C 0.57662 0.78411 0.25264 0.0
C2520 C 0.56074 0.78613 0.23295 0.0
C2521 C 0.53691 0.775 0.22739 0.0
C2522 C 0.52877 0.76171 0.24162 0.0
C2523 C 0.54354 0.75935 0.26099 0.0
C2524 C 0.52963 0.74415 0.27344 0.0
C2525 C 0.55268 0.72952 0.27686 0.0
C2526 C 0.5166 0.75042 0.29509 0.0
C2527 C 0.50481 0.73838 0.25804 0.0
C2528 C 0.50496 0.74871 0.23976 0.0
C2529 C 0.48434 0.74614 0.22318 0.0
C2530 C 0.46269 0.73294 0.22539 0.0
C2531 C 0.46126 0.72229 0.24414 0.0
C2532 C 0.48312 0.72499 0.26056 0.0
H2533 H 0.55056 0.46654 0.02806 0.0
H2534 H 0.59167 0.47806 0.96613 0.0
H2535 H 0.55611 0.50231 0.9609 0.0
H2536 H 0.47388 0.47622 0.01172 0.0
H2537 H 0.46374 0.48578 0.03729 0.0
H2538 H 0.49216 0.46911 0.03613 0.0
H2539 H 0.52949 0.48977 0.05531 0.0
H2540 H 0.50123 0.50652 0.05645 0.0
H2541 H 0.53692 0.51097 0.04395 0.0
H2542 H 0.51717 0.5264 0.96291 0.0
H2543 H 0.47593 0.54688 0.97081 0.0
H2544 H 0.45867 0.51988 0.03114 0.0
C2545 C 0.55211 0.47413 0.01336 0.0
C2546 C 0.57414 0.47014 0.99746 0.0
C2547 C 0.57493 0.48047 0.97844 0.0
C2548 C 0.55489 0.49445 0.97538 0.0
C2549 C 0.53374 0.49807 0.99139 0.0
C2550 C 0.53199 0.4881 0.00993 0.0
C2551 C 0.50687 0.4947 0.02451 0.0
C2552 C 0.48273 0.48061 0.02759 0.0
C2553 C 0.51938 0.50085 0.04635 0.0
C2554 C 0.49492 0.50999 0.01135 0.0
C2555 C 0.51093 0.51175 0.99237 0.0
C2556 C 0.5045 0.52508 0.97773 0.0
C2557 C 0.48108 0.53679 0.98246 0.0
C2558 C 0.46389 0.53521 1.00167 0.0
C2559 C 0.47111 0.5215 0.01625 0.0
H2560 H 0.23887 0.3954 0.42296 0.0
H2561 H 0.14398 0.40309 0.43451 0.0
H2562 H 0.13225 0.38799 0.4003 0.0
H2563 H 0.23398 0.40267 0.36364 0.0
H2564 H 0.26244 0.38673 0.35757 0.0
H2565 H 0.26347 0.39841 0.38281 0.0
H2566 H 0.26419 0.36903 0.40337 0.0
H2567 H 0.26254 0.35727 0.37821 0.0
H2568 H 0.23469 0.35341 0.39876 0.0
H2569 H 0.13032 0.36934 0.36719 0.0
H2570 H 0.1382 0.35394 0.33261 0.0
H2571 H 0.23423 0.36044 0.33928 0.0
C2572 C 0.21571 0.39419 0.41798 0.0
C2573 C 0.19224 0.40029 0.43149 0.0
C2574 C 0.16221 0.39848 0.42445 0.0
C2575 C 0.15535 0.3898 0.40512 0.0
C2576 C 0.17879 0.3833 0.39258 0.0
C2577 C 0.20842 0.38584 0.3983 0.0
C2578 C 0.22915 0.37803 0.38125 0.0
C2579 C 0.2484 0.39231 0.37069 0.0
C2580 C 0.24881 0.36358 0.39099 0.0
C2581 C 0.20654 0.37053 0.3653 0.0
C2582 C 0.17764 0.37348 0.37248 0.0
C2583 C 0.15283 0.36724 0.36121 0.0
C2584 C 0.15751 0.35839 0.34166 0.0
C2585 C 0.18672 0.35617 0.33312 0.0
C2586 C 0.21164 0.362 0.34538 0.0
H2587 H 0.1042 0.91136 0.34683 0.0
H2588 H 0.0848 0.87009 0.30097 0.0
H2589 H 0.08388 0.84874 0.33073 0.0
H2590 H 0.14603 0.88929 0.38473 0.0
H2591 H 0.12839 0.89808 0.40855 0.0
H2592 H 0.12844 0.91045 0.38383 0.0
H2593 H 0.07055 0.91259 0.3848 0.0
H2594 H 0.07035 0.90062 0.40985 0.0
H2595 H 0.04855 0.89298 0.38726 0.0
H2596 H 0.09706 0.83142 0.36501 0.0
H2597 H 0.10507 0.82031 0.40206 0.0
H2598 H 0.09606 0.873 0.42679 0.0
C2599 C 0.09834 0.89803 0.34301 0.0
C2600 C 0.09509 0.8925 0.32125 0.0
C2601 C 0.08815 0.87469 0.31733 0.0
C2602 C 0.08758 0.86241 0.33416 0.0
C2603 C 0.09198 0.86819 0.35523 0.0
C2604 C 0.0954 0.88571 0.35985 0.0
C2605 C 0.0969 0.88852 0.38415 0.0
C2606 C 0.12671 0.8971 0.39068 0.0
C2607 C 0.06998 0.89932 0.39198 0.0
C2608 C 0.09512 0.86982 0.39229 0.0
C2609 C 0.09348 0.85826 0.37529 0.0
C2610 C 0.0967 0.84033 0.37855 0.0
C2611 C 0.10103 0.8341 0.39973 0.0
C2612 C 0.10032 0.84553 0.41772 0.0
C2613 C 0.09675 0.86369 0.41367 0.0
H2614 H 0.23199 0.87026 0.83302 0.0
H2615 H 0.13742 0.85977 0.82399 0.0
H2616 H 0.12595 0.87502 0.8582 0.0
H2617 H 0.23073 0.86393 0.89239 0.0
H2618 H 0.25802 0.88081 0.89724 0.0
H2619 H 0.25875 0.86876 0.87227 0.0
H2620 H 0.25574 0.8978 0.85106 0.0
H2621 H 0.25432 0.90991 0.87598 0.0
H2622 H 0.22511 0.91257 0.85617 0.0
H2623 H 0.12413 0.89332 0.89184 0.0
H2624 H 0.13269 0.90896 0.92622 0.0
H2625 H 0.2286 0.90616 0.91575 0.0
C2626 C 0.20899 0.87091 0.83854 0.0
C2627 C 0.1855 0.86388 0.82582 0.0
C2628 C 0.15566 0.86504 0.83351 0.0
C2629 C 0.14894 0.8738 0.85284 0.0
C2630 C 0.17236 0.88113 0.86465 0.0
C2631 C 0.20188 0.8794 0.85815 0.0
C2632 C 0.22275 0.8881 0.87438 0.0
C2633 C 0.24381 0.8746 0.88468 0.0
C2634 C 0.24053 0.90298 0.86376 0.0
C2635 C 0.20034 0.89515 0.89079 0.0
C2636 C 0.17138 0.89116 0.88463 0.0
C2637 C 0.14673 0.89642 0.89688 0.0
C2638 C 0.15176 0.90546 0.91628 0.0
C2639 C 0.1812 0.90906 0.92353 0.0
C2640 C 0.20581 0.90398 0.91041 0.0
H2641 H 0.06729 0.39527 0.83912 0.0
H2642 H 0.16221 0.40454 0.82991 0.0
H2643 H 0.17304 0.38958 0.86443 0.0
H2644 H 0.0681 0.40186 0.89844 0.0
H2645 H 0.04036 0.38521 0.90321 0.0
H2646 H 0.0402 0.39721 0.8782 0.0
H2647 H 0.04275 0.3681 0.85712 0.0
H2648 H 0.04365 0.35603 0.88208 0.0
H2649 H 0.073 0.35311 0.86238 0.0
H2650 H 0.17402 0.37174 0.89855 0.0
H2651 H 0.16461 0.35633 0.933 0.0
H2652 H 0.06895 0.35965 0.92185 0.0
C2653 C 0.09024 0.3945 0.84471 0.0
C2654 C 0.11398 0.40118 0.83192 0.0
C2655 C 0.14376 0.39968 0.83957 0.0
C2656 C 0.15011 0.39106 0.85906 0.0
C2657 C 0.12639 0.38412 0.87097 0.0
C2658 C 0.09697 0.38609 0.86439 0.0
C2659 C 0.07573 0.37759 0.88054 0.0
C2660 C 0.05487 0.39128 0.8907 0.0
C2661 C 0.05772 0.36283 0.86989 0.0
C2662 C 0.09779 0.37041 0.89704 0.0
C2663 C 0.12692 0.37417 0.89101 0.0
C2664 C 0.15129 0.3688 0.90345 0.0
C2665 C 0.14578 0.35989 0.92289 0.0
C2666 C 0.11616 0.35648 0.92992 0.0
C2667 C 0.09186 0.36167 0.91663 0.0
H2668 H 0.82463 0.63298 0.68383 0.0
H2669 H 0.83908 0.68382 0.65508 0.0
H2670 H 0.83306 0.67098 0.61887 0.0
H2671 H 0.87436 0.61321 0.64804 0.0
H2672 H 0.85534 0.59249 0.64681 0.0
H2673 H 0.85172 0.60597 0.67044 0.0
H2674 H 0.79396 0.60541 0.66651 0.0
H2675 H 0.79739 0.59191 0.64279 0.0
H2676 H 0.77706 0.61219 0.64144 0.0
H2677 H 0.82997 0.6526 0.58594 0.0
H2678 H 0.83908 0.63043 0.55857 0.0
H2679 H 0.83771 0.59012 0.6078 0.0
C2680 C 0.82557 0.64149 0.66989 0.0
C2681 C 0.83105 0.65964 0.67246 0.0
C2682 C 0.83335 0.67015 0.65375 0.0
C2683 C 0.83029 0.66289 0.63304 0.0
C2684 C 0.82605 0.64491 0.63113 0.0
C2685 C 0.82443 0.63426 0.64904 0.0
C2686 C 0.82591 0.61511 0.64251 0.0
C2687 C 0.85347 0.60617 0.65254 0.0
C2688 C 0.79684 0.6056 0.64868 0.0
C2689 C 0.82899 0.61667 0.61811 0.0
C2690 C 0.82789 0.634 0.61199 0.0
C2691 C 0.83072 0.639 0.59055 0.0
C2692 C 0.83572 0.62611 0.57498 0.0
C2693 C 0.83877 0.60823 0.58069 0.0
C2694 C 0.83483 0.6035 0.60267 0.0
H2695 H 0.94936 0.12932 0.68478 0.0
H2696 H 0.94528 0.07577 0.66224 0.0
H2697 H 0.95105 0.08619 0.6247 0.0
H2698 H 0.89617 0.14253 0.64305 0.0
H2699 H 0.91123 0.16427 0.6409 0.0
H2700 H 0.91357 0.15266 0.66612 0.0
H2701 H 0.97103 0.15731 0.66633 0.0
H2702 H 0.96894 0.16864 0.64087 0.0
H2703 H 0.99306 0.14994 0.64368 0.0
H2704 H 0.96249 0.10304 0.58979 0.0
H2705 H 0.9596 0.12339 0.55918 0.0
H2706 H 0.9352 0.16524 0.60301 0.0
C2707 C 0.94902 0.11966 0.67206 0.0
C2708 C 0.94744 0.1015 0.67691 0.0
C2709 C 0.94761 0.08962 0.65935 0.0
C2710 C 0.95071 0.09545 0.63788 0.0
C2711 C 0.95175 0.11336 0.63386 0.0
C2712 C 0.94929 0.12529 0.6504 0.0
C2713 C 0.94523 0.14367 0.64144 0.0
C2714 C 0.91474 0.15123 0.64828 0.0
C2715 C 0.97111 0.15559 0.64851 0.0
C2716 C 0.94635 0.14024 0.61722 0.0
C2717 C 0.9517 0.12276 0.61337 0.0
C2718 C 0.95695 0.11659 0.59259 0.0
C2719 C 0.95512 0.12832 0.57525 0.0
C2720 C 0.94583 0.14591 0.57828 0.0
C2721 C 0.94209 0.15197 0.59982 0.0
H2722 H 0.8419 0.13059 0.18425 0.0
H2723 H 0.86127 0.18295 0.16159 0.0
H2724 H 0.85759 0.17256 0.12389 0.0
H2725 H 0.89488 0.11204 0.14533 0.0
H2726 H 0.87427 0.09195 0.14262 0.0
H2727 H 0.87278 0.10399 0.16757 0.0
H2728 H 0.81488 0.10472 0.165 0.0
H2729 H 0.81623 0.09298 0.13979 0.0
H2730 H 0.79736 0.11373 0.14126 0.0
H2731 H 0.84617 0.15643 0.08857 0.0
H2732 H 0.84585 0.13561 0.05836 0.0
H2733 H 0.8532 0.09265 0.1037 0.0
C2734 C 0.84594 0.13993 0.17148 0.0
C2735 C 0.85116 0.15786 0.17622 0.0
C2736 C 0.85608 0.16937 0.15864 0.0
C2737 C 0.85419 0.16354 0.13711 0.0
C2738 C 0.84913 0.14585 0.13319 0.0
C2739 C 0.84663 0.13408 0.14991 0.0
C2740 C 0.84641 0.11544 0.14133 0.0
C2741 C 0.87371 0.10525 0.1497 0.0
C2742 C 0.81696 0.10617 0.1472 0.0
C2743 C 0.84855 0.1186 0.11709 0.0
C2744 C 0.84868 0.13629 0.11283 0.0
C2745 C 0.84736 0.14257 0.09177 0.0
C2746 C 0.84731 0.13056 0.07466 0.0
C2747 C 0.85063 0.11235 0.07832 0.0
C2748 C 0.85073 0.10636 0.10005 0.0
H2749 H 0.91407 0.64838 0.09418 0.0
H2750 H 1.0086 0.65166 0.07888 0.0
H2751 H 1.0204 0.63388 0.1113 0.0
H2752 H 0.91896 0.64692 0.15302 0.0
H2753 H 0.88957 0.6309 0.15521 0.0
H2754 H 0.88966 0.64607 0.13301 0.0
H2755 H 0.88786 0.62012 0.1062 0.0
H2756 H 0.88847 0.60487 0.12831 0.0
H2757 H 0.91652 0.60359 0.10739 0.0
H2758 H 1.02103 0.61524 0.14609 0.0
H2759 H 1.0104 0.59783 0.17903 0.0
H2760 H 0.91524 0.60217 0.16653 0.0
C2761 C 0.9373 0.64565 0.09795 0.0
C2762 C 0.96047 0.65147 0.08411 0.0
C2763 C 0.99057 0.64748 0.0894 0.0
C2764 C 0.9974 0.63725 0.10766 0.0
C2765 C 0.97383 0.63081 0.12023 0.0
C2766 C 0.94436 0.63483 0.11547 0.0
C2767 C 0.92291 0.62516 0.1302 0.0
C2768 C 0.90418 0.63803 0.14366 0.0
C2769 C 0.90276 0.6127 0.11725 0.0
C2770 C 0.94481 0.61518 0.1442 0.0
C2771 C 0.97413 0.61881 0.13852 0.0
C2772 C 0.99814 0.61215 0.15043 0.0
C2773 C 0.99196 0.60211 0.16898 0.0
C2774 C 0.96203 0.59852 0.17521 0.0
C2775 C 0.93834 0.60453 0.162 0.0
H2776 H 0.7299 0.39073 0.92708 0.0
H2777 H 0.6344 0.39706 0.93727 0.0
H2778 H 0.62414 0.37952 0.90466 0.0
H2779 H 0.72447 0.39503 0.86755 0.0
H2780 H 0.75449 0.3798 0.86267 0.0
H2781 H 0.75417 0.39261 0.88705 0.0
H2782 H 0.75767 0.36416 0.90946 0.0
H2783 H 0.75705 0.35127 0.88513 0.0
H2784 H 0.7296 0.34748 0.90599 0.0
H2785 H 0.62389 0.35915 0.87314 0.0
H2786 H 0.63307 0.34422 0.83841 0.0
H2787 H 0.72837 0.35347 0.84524 0.0
C2788 C 0.7069 0.38863 0.92216 0.0
C2789 C 0.68287 0.39492 0.93496 0.0
C2790 C 0.65306 0.39215 0.92786 0.0
C2791 C 0.64703 0.38207 0.90948 0.0
C2792 C 0.67106 0.37526 0.89783 0.0
C2793 C 0.70041 0.37897 0.90332 0.0
C2794 C 0.72187 0.3711 0.88684 0.0
C2795 C 0.7398 0.38549 0.87534 0.0
C2796 C 0.74279 0.35771 0.8975 0.0
C2797 C 0.69998 0.36223 0.87148 0.0
C2798 C 0.67084 0.36447 0.87854 0.0
C2799 C 0.64659 0.35742 0.86737 0.0
C2800 C 0.65203 0.34872 0.84782 0.0
C2801 C 0.6814 0.3474 0.83933 0.0
C2802 C 0.70579 0.35385 0.85164 0.0
H2803 H 0.59461 0.84493 0.91046 0.0
H2804 H 0.58379 0.88734 0.95615 0.0
H2805 H 0.58419 0.90845 0.92609 0.0
H2806 H 0.63852 0.8646 0.87185 0.0
H2807 H 0.6192 0.85653 0.84835 0.0
H2808 H 0.61794 0.84439 0.87322 0.0
H2809 H 0.55992 0.8451 0.87289 0.0
H2810 H 0.56098 0.85688 0.8477 0.0
H2811 H 0.54081 0.86572 0.87044 0.0
H2812 H 0.59812 0.92486 0.89138 0.0
H2813 H 0.60752 0.93523 0.85414 0.0
H2814 H 0.5912 0.88292 0.83018 0.0
C2815 C 0.59095 0.85854 0.91417 0.0
C2816 C 0.58969 0.8644 0.9359 0.0
C2817 C 0.58546 0.88249 0.93976 0.0
C2818 C 0.5857 0.89463 0.92277 0.0
C2819 C 0.58827 0.88851 0.90168 0.0
C2820 C 0.58908 0.87084 0.89724 0.0
C2821 C 0.58969 0.86779 0.87297 0.0
C2822 C 0.61802 0.85773 0.86622 0.0
C2823 C 0.56115 0.85831 0.86556 0.0
C2824 C 0.59048 0.88645 0.86462 0.0
C2825 C 0.5907 0.89819 0.88148 0.0
C2826 C 0.59639 0.91588 0.87796 0.0
C2827 C 0.6015 0.92171 0.85668 0.0
C2828 C 0.59933 0.91015 0.83889 0.0
C2829 C 0.59304 0.89229 0.84318 0.0
H2830 H 0.71028 0.87621 0.43547 0.0
H2831 H 0.70113 0.92855 0.40978 0.0
H2832 H 0.70816 0.91719 0.37309 0.0
H2833 H 0.75417 0.85435 0.3937 0.0
H2834 H 0.73009 0.8355 0.39255 0.0
H2835 H 0.73367 0.84761 0.41738 0.0
H2836 H 0.67617 0.85195 0.41878 0.0
H2837 H 0.67238 0.8397 0.39412 0.0
H2838 H 0.65726 0.86145 0.39592 0.0
H2839 H 0.71917 0.89972 0.33889 0.0
H2840 H 0.71359 0.87867 0.30921 0.0
H2841 H 0.69348 0.83784 0.35558 0.0
C2842 C 0.71031 0.88539 0.42218 0.0
C2843 C 0.70778 0.90365 0.42609 0.0
C2844 C 0.70623 0.91486 0.40789 0.0
C2845 C 0.7095 0.90842 0.38675 0.0
C2846 C 0.71197 0.89046 0.38364 0.0
C2847 C 0.7106 0.87904 0.4008 0.0
C2848 C 0.70618 0.8604 0.39276 0.0
C2849 C 0.73261 0.84878 0.39951 0.0
C2850 C 0.67622 0.85294 0.40087 0.0
C2851 C 0.70579 0.86316 0.36838 0.0
C2852 C 0.71078 0.88052 0.36362 0.0
C2853 C 0.7141 0.88622 0.34243 0.0
C2854 C 0.71075 0.87411 0.32564 0.0
C2855 C 0.70188 0.85661 0.32976 0.0
C2856 C 0.70009 0.85103 0.35163 0.0
H2857 H 0.58818 0.37151 0.42772 0.0
H2858 H 0.59084 0.3192 0.40131 0.0
H2859 H 0.5836 0.33133 0.36463 0.0
H2860 H 0.54108 0.39386 0.38754 0.0
H2861 H 0.56499 0.41279 0.38677 0.0
H2862 H 0.56201 0.4001 0.4112 0.0
H2863 H 0.61963 0.39603 0.41171 0.0
H2864 H 0.62283 0.40871 0.38737 0.0
H2865 H 0.63812 0.38697 0.38838 0.0
H2866 H 0.57775 0.34958 0.33063 0.0
H2867 H 0.58428 0.37123 0.30178 0.0
H2868 H 0.60024 0.41145 0.34973 0.0
C2869 C 0.58672 0.36254 0.41426 0.0
C2870 C 0.58943 0.34428 0.41756 0.0
C2871 C 0.58782 0.33312 0.3994 0.0
C2872 C 0.58395 0.33995 0.37846 0.0
C2873 C 0.58284 0.35804 0.37579 0.0
C2874 C 0.58499 0.36919 0.3932 0.0
C2875 C 0.5891 0.38796 0.38582 0.0
C2876 C 0.56272 0.39935 0.39328 0.0
C2877 C 0.61921 0.39535 0.39379 0.0
C2878 C 0.58898 0.38568 0.36147 0.0
C2879 C 0.5841 0.3684 0.35611 0.0
C2880 C 0.58202 0.36307 0.3347 0.0
C2881 C 0.58586 0.37556 0.31838 0.0
C2882 C 0.5932 0.39316 0.32329 0.0
C2883 C 0.59438 0.39823 0.34528 0.0
H2884 H 0.35202 0.66383 0.15657 0.0
H2885 H 0.33888 0.62058 0.20078 0.0
H2886 H 0.33826 0.60018 0.17009 0.0
H2887 H 0.29569 0.64491 0.11741 0.0
H2888 H 0.31497 0.65382 0.09432 0.0
H2889 H 0.3162 0.66506 0.11987 0.0
H2890 H 0.37418 0.66456 0.11837 0.0
H2891 H 0.37312 0.65298 0.09308 0.0
H2892 H 0.39338 0.64399 0.11565 0.0
H2893 H 0.35052 0.58422 0.13467 0.0
H2894 H 0.35608 0.57432 0.09688 0.0
H2895 H 0.34108 0.62737 0.07497 0.0
C2896 C 0.3481 0.65016 0.15984 0.0
C2897 C 0.34683 0.64386 0.18142 0.0
C2898 C 0.34136 0.62577 0.18461 0.0
C2899 C 0.34086 0.61401 0.16723 0.0
C2900 C 0.34361 0.62052 0.14635 0.0
C2901 C 0.34522 0.63825 0.14248 0.0
C2902 C 0.34451 0.64178 0.11827 0.0
C2903 C 0.31615 0.65199 0.1121 0.0
C2904 C 0.37299 0.6514 0.11092 0.0
C2905 C 0.34363 0.62327 0.10929 0.0
C2906 C 0.34431 0.61122 0.12579 0.0
C2907 C 0.34847 0.59349 0.12158 0.0
C2908 C 0.35143 0.58794 0.09998 0.0
C2909 C 0.34847 0.59982 0.08254 0.0
C2910 C 0.34383 0.61775 0.08759 0.0
H2911 H 0.45915 0.0953 0.15051 0.0
H2912 H 0.47562 0.13347 0.20051 0.0
H2913 H 0.48443 0.156 0.17307 0.0
H2914 H 0.51562 0.11444 0.11019 0.0
H2915 H 0.4915 0.10946 0.08768 0.0
H2916 H 0.49156 0.09558 0.11118 0.0
H2917 H 0.43416 0.09972 0.11482 0.0
H2918 H 0.43397 0.11379 0.09159 0.0
H2919 H 0.41904 0.12146 0.11692 0.0
H2920 H 0.47883 0.17567 0.14096 0.0
H2921 H 0.46765 0.18991 0.10604 0.0
H2922 H 0.46271 0.13916 0.07548 0.0
C2923 C 0.46617 0.10818 0.15556 0.0
C2924 C 0.46737 0.1125 0.17777 0.0
C2925 C 0.47535 0.12971 0.18374 0.0
C2926 C 0.48014 0.14268 0.16818 0.0
C2927 C 0.47751 0.13827 0.14647 0.0
C2928 C 0.47163 0.12131 0.14006 0.0
C2929 C 0.46816 0.12039 0.11567 0.0
C2930 C 0.49321 0.10931 0.10558 0.0
C2931 C 0.43698 0.11343 0.1094 0.0
C2932 C 0.47157 0.13951 0.10962 0.0
C2933 C 0.47673 0.14964 0.12764 0.0
C2934 C 0.47615 0.16784 0.12655 0.0
C2935 C 0.47001 0.17587 0.10659 0.0
C2936 C 0.46529 0.16578 0.08778 0.0
C2937 C 0.46692 0.14733 0.08941 0.0
H2938 H 0.32558 0.13546 0.68401 0.0
H2939 H 0.32257 0.18615 0.65319 0.0
H2940 H 0.30983 0.17197 0.6185 0.0
H2941 H 0.36933 0.11829 0.64284 0.0
H2942 H 0.3548 0.09641 0.64486 0.0
H2943 H 0.35437 0.11046 0.66809 0.0
H2944 H 0.29709 0.10574 0.67186 0.0
H2945 H 0.29733 0.09179 0.64842 0.0
H2946 H 0.27288 0.11049 0.64932 0.0
H2947 H 0.30182 0.15206 0.58642 0.0
H2948 H 0.31116 0.12953 0.55883 0.0
H2949 H 0.33087 0.09195 0.609 0.0
C2950 C 0.32154 0.14365 0.67006 0.0
C2951 C 0.32423 0.16207 0.6716 0.0
C2952 C 0.31946 0.17216 0.65277 0.0
C2953 C 0.31241 0.16415 0.63292 0.0
C2954 C 0.31113 0.14594 0.63188 0.0
C2955 C 0.31638 0.13582 0.64991 0.0
C2956 C 0.32022 0.11673 0.6438 0.0
C2957 C 0.35153 0.11009 0.65027 0.0
C2958 C 0.2954 0.10553 0.65396 0.0
C2959 C 0.31679 0.11766 0.61942 0.0
C2960 C 0.31024 0.13454 0.61303 0.0
C2961 C 0.30685 0.13884 0.59131 0.0
C2962 C 0.31191 0.12588 0.57572 0.0
C2963 C 0.32138 0.10891 0.58172 0.0
C2964 C 0.32283 0.10462 0.60393 0.0
H2965 H 0.45153 0.6252 0.6812 0.0
H2966 H 0.4442 0.57206 0.65766 0.0
H2967 H 0.44863 0.58292 0.62021 0.0
H2968 H 0.39779 0.64016 0.64085 0.0
H2969 H 0.41417 0.66159 0.63885 0.0
H2970 H 0.41671 0.64956 0.66377 0.0
H2971 H 0.47442 0.65294 0.66292 0.0
H2972 H 0.47211 0.6647 0.63777 0.0
H2973 H 0.49509 0.64544 0.63968 0.0
H2974 H 0.45885 0.60002 0.58536 0.0
H2975 H 0.45638 0.62091 0.55529 0.0
H2976 H 0.43729 0.66267 0.6006 0.0
C2977 C 0.45032 0.61574 0.66828 0.0
C2978 C 0.44817 0.59755 0.67276 0.0
C2979 C 0.44698 0.58592 0.65498 0.0
C2980 C 0.4493 0.592 0.63357 0.0
C2981 C 0.45103 0.60994 0.6299 0.0
C2982 C 0.45 0.62167 0.64674 0.0
C2983 C 0.44681 0.64025 0.63827 0.0
C2984 C 0.4171 0.64837 0.64588 0.0
C2985 C 0.47371 0.65149 0.64507 0.0
C2986 C 0.44678 0.63716 0.61398 0.0
C2987 C 0.45069 0.61963 0.60962 0.0
C2988 C 0.45453 0.61365 0.58859 0.0
C2989 C 0.45294 0.6257 0.57156 0.0
C2990 C 0.44548 0.6435 0.57521 0.0
C2991 C 0.44291 0.64927 0.59695 0.0
H2992 H 0.32839 0.36448 0.22267 0.0
H2993 H 0.31331 0.36448 0.29181 0.0
H2994 H 0.36516 0.37477 0.29771 0.0
H2995 H 0.4041 0.34853 0.22497 0.0
H2996 H 0.4179 0.36171 0.20301 0.0
H2997 H 0.37901 0.35541 0.20382 0.0
H2998 H 0.36322 0.38781 0.20149 0.0
H2999 H 0.40208 0.39421 0.20061 0.0
H3000 H 0.3776 0.40313 0.22097 0.0
H3001 H 0.41853 0.38441 0.29651 0.0
H3002 H 0.47067 0.39231 0.28869 0.0
H3003 H 0.45421 0.38534 0.22009 0.0
C3004 C 0.33599 0.36693 0.23899 0.0
C3005 C 0.31665 0.3639 0.25685 0.0
C3006 C 0.32759 0.36688 0.27796 0.0
C3007 C 0.35705 0.37271 0.28145 0.0
C3008 C 0.37566 0.37545 0.26364 0.0
C3009 C 0.3657 0.37267 0.2428 0.0
C3010 C 0.39103 0.37604 0.2267 0.0
C3011 C 0.39844 0.35943 0.21387 0.0
C3012 C 0.383 0.3912 0.21154 0.0
C3013 C 0.41672 0.38101 0.24177 0.0
C3014 C 0.40709 0.38064 0.26298 0.0
C3015 C 0.42634 0.38462 0.27996 0.0
C3016 C 0.45621 0.38895 0.27529 0.0
C3017 C 0.46726 0.38918 0.25376 0.0
C3018 C 0.44684 0.38532 0.23674 0.0
H3019 H 0.82731 0.88027 0.26386 0.0
H3020 H 0.83427 0.83354 0.22454 0.0
H3021 H 0.88831 0.83862 0.22023 0.0
H3022 H 0.88143 0.90595 0.23438 0.0
H3023 H 0.89714 0.91614 0.25803 0.0
H3024 H 0.85864 0.90905 0.25813 0.0
H3025 H 0.86878 0.89034 0.29213 0.0
H3026 H 0.9073 0.8974 0.29215 0.0
H3027 H 0.89856 0.87446 0.29168 0.0
H3028 H 0.94217 0.84871 0.21964 0.0
H3029 H 0.99131 0.86305 0.22296 0.0
H3030 H 0.95127 0.90271 0.26395 0.0
C3031 C 0.84014 0.87103 0.25443 0.0
C3032 C 0.82586 0.85658 0.24429 0.0
C3033 C 0.84398 0.84496 0.23205 0.0
C3034 C 0.87498 0.84764 0.22963 0.0
C3035 C 0.88817 0.86199 0.23962 0.0
C3036 C 0.87139 0.87349 0.25184 0.0
C3037 C 0.89138 0.88788 0.26086 0.0
C3038 C 0.88156 0.90582 0.25234 0.0
C3039 C 0.89151 0.88749 0.28568 0.0
C3040 C 0.92187 0.88268 0.25173 0.0
C3041 C 0.91943 0.86768 0.23955 0.0
C3042 C 0.94433 0.8604 0.22929 0.0
C3043 C 0.97239 0.86863 0.23144 0.0
C3044 C 0.97581 0.88408 0.24384 0.0
C3045 C 0.94986 0.89107 0.25414 0.0
H3046 H 0.32918 0.8805 0.99472 0.0
H3047 H 0.33662 0.92881 0.03081 0.0
H3048 H 0.39093 0.92398 0.03485 0.0
H3049 H 0.38303 0.85625 0.02603 0.0
H3050 H 0.39828 0.84467 1.0032 0.0
H3051 H 0.35992 0.85199 1.00275 0.0
H3052 H 0.37007 0.8687 0.96716 0.0
H3053 H 0.40848 0.86143 0.96752 0.0
H3054 H 0.40013 0.88439 0.96608 0.0
H3055 H 0.4453 0.91396 0.03505 0.0
H3056 H 0.49419 0.89897 0.03255 0.0
H3057 H 0.4523 0.85719 0.99617 0.0
C3058 C 0.34222 0.89013 1.00336 0.0
C3059 C 0.32816 0.90503 0.01256 0.0
C3060 C 0.34637 0.91715 0.0239 0.0
C3061 C 0.37746 0.91459 0.02616 0.0
C3062 C 0.39049 0.89979 0.01704 0.0
C3063 C 0.37344 0.88772 0.0059 0.0
C3064 C 0.39303 0.87276 0.99802 0.0
C3065 C 0.38296 0.85539 0.00811 0.0
C3066 C 0.39291 0.87177 0.97322 0.0
C3067 C 0.42365 0.87827 0.00649 0.0
C3068 C 0.42171 0.89397 0.0173 0.0
C3069 C 0.44701 0.90167 0.02656 0.0
C3070 C 0.47487 0.89308 0.02492 0.0
C3071 C 0.47754 0.87681 0.01419 0.0
C3072 C 0.45131 0.86948 0.00475 0.0
H3073 H 0.96431 0.38258 0.99507 0.0
H3074 H 0.96047 0.34172 0.04367 0.0
H3075 H 0.90686 0.34741 0.04875 0.0
H3076 H 0.91106 0.41184 0.01982 0.0
H3077 H 0.89376 0.41827 0.99476 0.0
H3078 H 0.93245 0.41154 0.9951 0.0
H3079 H 0.9211 0.38805 0.96625 0.0
H3080 H 0.8824 0.39475 0.96577 0.0
H3081 H 0.89185 0.37232 0.97116 0.0
H3082 H 0.85325 0.35767 0.0494 0.0
H3083 H 0.8036 0.37081 0.04444 0.0
H3084 H 0.83949 0.40359 0.99328 0.0
C3085 C 0.95233 0.3747 0.00672 0.0
C3086 C 0.96755 0.36185 0.01924 0.0
C3087 C 0.95031 0.35203 0.03428 0.0
C3088 C 0.91947 0.35504 0.03718 0.0
C3089 C 0.90544 0.36782 0.02479 0.0
C3090 C 0.92119 0.37742 0.00971 0.0
C3091 C 0.90025 0.39011 0.99819 0.0
C3092 C 0.90996 0.40907 1.00221 0.0
C3093 C 0.89882 0.38606 0.9739 0.0
C3094 C 0.8704 0.38617 0.00924 0.0
C3095 C 0.87406 0.3733 0.02458 0.0
C3096 C 0.85009 0.3676 0.03721 0.0
C3097 C 0.82165 0.37512 0.03406 0.0
C3098 C 0.81675 0.3882 0.01818 0.0
C3099 C 0.8419 0.39375 0.00567 0.0
H3100 H 0.70368 0.65477 0.74044 0.0
H3101 H 0.74693 0.61347 0.77681 0.0
H3102 H 0.69792 0.59888 0.78128 0.0
H3103 H 0.63664 0.65692 0.7723 0.0
H3104 H 0.61218 0.66092 0.74968 0.0
H3105 H 0.65075 0.6678 0.74857 0.0
H3106 H 0.65833 0.65021 0.71332 0.0
H3107 H 0.61975 0.64331 0.71429 0.0
H3108 H 0.64927 0.62731 0.71288 0.0
H3109 H 0.64324 0.58931 0.78324 0.0
H3110 H 0.58867 0.58478 0.78101 0.0
H3111 H 0.58002 0.63231 0.74349 0.0
C3112 C 0.70299 0.64266 0.7494 0.0
C3113 C 0.72964 0.63538 0.7583 0.0
C3114 C 0.72729 0.61933 0.76957 0.0
C3115 C 0.69936 0.61097 0.77234 0.0
C3116 C 0.67364 0.61867 0.76366 0.0
C3117 C 0.67525 0.6341 0.75225 0.0
C3118 C 0.6442 0.63966 0.7446 0.0
C3119 C 0.63543 0.65738 0.75437 0.0
C3120 C 0.64281 0.64015 0.7198 0.0
C3121 C 0.62477 0.62504 0.75363 0.0
C3122 C 0.64225 0.6131 0.76462 0.0
C3123 C 0.62945 0.59862 0.77466 0.0
C3124 C 0.59819 0.59624 0.77345 0.0
C3125 C 0.57951 0.60821 0.76224 0.0
C3126 C 0.59334 0.6228 0.75211 0.0
H3127 H 0.08543 0.11906 0.73682 0.0
H3128 H 0.07278 0.1156 0.80646 0.0
H3129 H 0.1258 0.12182 0.81174 0.0
H3130 H 0.15979 0.10176 0.73375 0.0
H3131 H 0.17307 0.11721 0.714 0.0
H3132 H 0.13392 0.11148 0.71491 0.0
H3133 H 0.11967 0.144 0.71907 0.0
H3134 H 0.15876 0.14984 0.71793 0.0
H3135 H 0.13614 0.15663 0.74055 0.0
H3136 H 0.18163 0.1264 0.80999 0.0
H3137 H 0.23359 0.13366 0.8019 0.0
H3138 H 0.21038 0.13969 0.73398 0.0
C3139 C 0.09334 0.11974 0.75328 0.0
C3140 C 0.07385 0.11604 0.77108 0.0
C3141 C 0.08638 0.11734 0.79219 0.0
C3142 C 0.11688 0.12114 0.79552 0.0
C3143 C 0.13521 0.12424 0.77772 0.0
C3144 C 0.12382 0.12407 0.75702 0.0
C3145 C 0.14838 0.12896 0.74087 0.0
C3146 C 0.15412 0.11396 0.72494 0.0
C3147 C 0.14025 0.14586 0.72889 0.0
C3148 C 0.17528 0.13169 0.75577 0.0
C3149 C 0.1671 0.1286 0.7769 0.0
C3150 C 0.18806 0.12934 0.79353 0.0
C3151 C 0.21792 0.13376 0.78864 0.0
C3152 C 0.22718 0.13802 0.76724 0.0
C3153 C 0.20505 0.13668 0.75059 0.0
H3154 H 0.57913 0.13726 0.97665 0.0
H3155 H 0.56825 0.14546 0.04574 0.0
H3156 H 0.62065 0.13751 0.05141 0.0
H3157 H 0.63124 0.10097 0.97994 0.0
H3158 H 0.65422 0.10809 0.95766 0.0
H3159 H 0.61501 0.11371 0.95846 0.0
H3160 H 0.62857 0.14638 0.95505 0.0
H3161 H 0.66781 0.14085 0.95419 0.0
H3162 H 0.65415 0.15601 0.97415 0.0
H3163 H 0.67404 0.12824 0.05054 0.0
H3164 H 0.72579 0.11975 0.04298 0.0
H3165 H 0.70642 0.11966 0.97414 0.0
C3166 C 0.58761 0.13743 0.99301 0.0
C3167 C 0.56842 0.14162 0.01076 0.0
C3168 C 0.58129 0.14168 0.03177 0.0
C3169 C 0.61148 0.13735 0.03524 0.0
C3170 C 0.62941 0.13315 0.01758 0.0
C3171 C 0.61818 0.13329 0.99682 0.0
C3172 C 0.64306 0.12869 0.98077 0.0
C3173 C 0.63542 0.11186 0.96848 0.0
C3174 C 0.64873 0.14389 0.96511 0.0
C3175 C 0.66983 0.12595 0.99582 0.0
C3176 C 0.66113 0.12854 0.01698 0.0
C3177 C 0.68121 0.12647 0.03398 0.0
C3178 C 0.71097 0.12179 0.0294 0.0
C3179 C 0.72125 0.11939 0.00784 0.0
C3180 C 0.6999 0.1214 0.99083 0.0
H3181 H 0.21468 0.6312 0.01417 0.0
H3182 H 0.20946 0.58884 0.96774 0.0
H3183 H 0.15536 0.59399 0.96382 0.0
H3184 H 0.14368 0.62172 0.04045 0.0
H3185 H 0.13437 0.64433 0.04473 0.0
H3186 H 0.17306 0.63765 0.04364 0.0
H3187 H 0.18294 0.65998 0.0131 0.0
H3188 H 0.14428 0.66671 0.01408 0.0
H3189 H 0.16036 0.65931 0.98899 0.0
H3190 H 0.10086 0.60381 0.96461 0.0
H3191 H 0.05145 0.61754 0.97009 0.0
H3192 H 0.0908 0.65234 0.01762 0.0
C3193 C 0.20228 0.62289 1.00325 0.0
C3194 C 0.21708 0.60971 0.99106 0.0
C3195 C 0.19941 0.59934 0.97689 0.0
C3196 C 0.16836 0.60204 0.97468 0.0
C3197 C 0.15466 0.61511 0.98682 0.0
C3198 C 0.17104 0.62534 1.0009 0.0
C3199 C 0.1507 0.63844 0.01217 0.0
C3200 C 0.15044 0.63535 0.03671 0.0
C3201 C 0.16014 0.65722 0.00676 0.0
C3202 C 0.12044 0.63403 1.00217 0.0
C3203 C 0.12323 0.62053 0.98758 0.0
C3204 C 0.09847 0.61433 0.97612 0.0
C3205 C 0.07025 0.62217 0.97951 0.0
C3206 C 0.0666 0.63615 0.99433 0.0
C3207 C 0.09236 0.64193 0.00588 0.0
H3208 H 0.46828 0.87715 0.73008 0.0
H3209 H 0.46547 0.91291 0.78427 0.0
H3210 H 0.41086 0.90853 0.78737 0.0
H3211 H 0.3957 0.88904 0.70679 0.0
H3212 H 0.38593 0.86703 0.69943 0.0
H3213 H 0.42474 0.87349 0.70057 0.0
H3214 H 0.43566 0.84838 0.72734 0.0
H3215 H 0.39691 0.84184 0.72626 0.0
H3216 H 0.41409 0.84673 0.75189 0.0
H3217 H 0.3561 0.90095 0.78435 0.0
H3218 H 0.30574 0.88872 0.77739 0.0
H3219 H 0.34276 0.8559 0.72702 0.0
C3220 C 0.45608 0.88412 0.74249 0.0
C3221 C 0.47138 0.89545 0.75693 0.0
C3222 C 0.45448 0.90413 0.77309 0.0
C3223 C 0.42333 0.90177 0.77493 0.0
C3224 C 0.40896 0.89049 0.76063 0.0
C3225 C 0.42475 0.88163 0.74484 0.0
C3226 C 0.4037 0.8697 0.73221 0.0
C3227 C 0.40245 0.87514 0.70833 0.0
C3228 C 0.41316 0.85052 0.73458 0.0
C3229 C 0.37382 0.87316 0.74346 0.0
C3230 C 0.37741 0.88545 0.75957 0.0
C3231 C 0.35311 0.89126 0.77184 0.0
C3232 C 0.3245 0.88428 0.76772 0.0
C3233 C 0.32014 0.87134 0.75171 0.0
C3234 C 0.34533 0.86571 0.73946 0.0
H3235 H 0.82462 0.38542 0.77029 0.0
H3236 H 0.82625 0.3448 0.72149 0.0
H3237 H 0.88035 0.34951 0.71641 0.0
H3238 H 0.8785 0.41399 0.74405 0.0
H3239 H 0.89611 0.42079 0.76884 0.0
H3240 H 0.85725 0.41438 0.76882 0.0
H3241 H 0.86825 0.39144 0.79841 0.0
H3242 H 0.90714 0.39778 0.79851 0.0
H3243 H 0.89701 0.37534 0.79389 0.0
H3244 H 0.93508 0.35811 0.7168 0.0
H3245 H 0.98549 0.37061 0.72177 0.0
H3246 H 0.95008 0.40594 0.77026 0.0
C3247 C 0.83631 0.37747 0.75856 0.0
C3248 C 0.82055 0.36478 0.74616 0.0
C3249 C 0.83716 0.35483 0.73093 0.0
C3250 C 0.86817 0.35732 0.72802 0.0
C3251 C 0.88285 0.36989 0.74038 0.0
C3252 C 0.8675 0.37988 0.75531 0.0
C3253 C 0.88889 0.39262 0.76633 0.0
C3254 C 0.87963 0.41157 0.76173 0.0
C3255 C 0.89041 0.38908 0.79073 0.0
C3256 C 0.91856 0.38819 0.75531 0.0
C3257 C 0.91449 0.37497 0.74047 0.0
C3258 C 0.93846 0.36846 0.72841 0.0
C3259 C 0.96723 0.37561 0.73149 0.0
C3260 C 0.97231 0.38929 0.7465 0.0
C3261 C 0.94729 0.39562 0.75851 0.0
H3262 H 0.34988 0.40583 0.4868 0.0
H3263 H 0.31894 0.37658 0.54259 0.0
H3264 H 0.36971 0.36477 0.54758 0.0
H3265 H 0.40143 0.3731 0.46674 0.0
H3266 H 0.4296 0.38853 0.45834 0.0
H3267 H 0.3907 0.39484 0.45883 0.0
H3268 H 0.40359 0.42083 0.48377 0.0
H3269 H 0.44254 0.4146 0.48334 0.0
H3270 H 0.42318 0.4169 0.50875 0.0
H3271 H 0.42409 0.3558 0.54685 0.0
H3272 H 0.47746 0.35012 0.5403 0.0
H3273 H 0.4756 0.38555 0.48555 0.0
C3274 C 0.35372 0.39702 0.50017 0.0
C3275 C 0.3297 0.39211 0.51415 0.0
C3276 C 0.33624 0.38038 0.53127 0.0
C3277 C 0.36529 0.37365 0.53439 0.0
C3278 C 0.38818 0.37868 0.52034 0.0
C3279 C 0.38282 0.39009 0.50353 0.0
C3280 C 0.41166 0.39323 0.49075 0.0
C3281 C 0.40813 0.38705 0.46727 0.0
C3282 C 0.42078 0.41254 0.49171 0.0
C3283 C 0.43399 0.38181 0.503 0.0
C3284 C 0.41982 0.37359 0.52003 0.0
C3285 C 0.4354 0.36231 0.53365 0.0
C3286 C 0.46608 0.35929 0.52986 0.0
C3287 C 0.48162 0.3675 0.51257 0.0
C3288 C 0.46491 0.37894 0.49893 0.0
H3289 H 0.96812 0.87908 0.52486 0.0
H3290 H 0.9644 0.83919 0.47539 0.0
H3291 H 0.90962 0.84335 0.47232 0.0
H3292 H 0.89597 0.86964 0.55036 0.0
H3293 H 0.88656 0.89222 0.55475 0.0
H3294 H 0.92528 0.88554 0.55406 0.0
H3295 H 0.9359 0.90805 0.52388 0.0
H3296 H 0.89724 0.9148 0.52451 0.0
H3297 H 0.91382 0.90758 0.49951 0.0
H3298 H 0.85465 0.85161 0.47468 0.0
H3299 H 0.80485 0.86504 0.47999 0.0
H3300 H 0.8433 0.90101 0.52641 0.0
C3301 C 0.95566 0.87116 0.51352 0.0
C3302 C 0.97067 0.85868 0.50043 0.0
C3303 C 0.95353 0.84879 0.48557 0.0
C3304 C 0.92231 0.85103 0.48376 0.0
C3305 C 0.90817 0.86344 0.49673 0.0
C3306 C 0.9243 0.8735 0.51118 0.0
C3307 C 0.90364 0.88655 0.52235 0.0
C3308 C 0.90282 0.88329 0.54684 0.0
C3309 C 0.91323 0.90536 0.51726 0.0
C3310 C 0.87351 0.88224 0.51196 0.0
C3311 C 0.87663 0.8687 0.49744 0.0
C3312 C 0.85202 0.86225 0.48601 0.0
C3313 C 0.82365 0.86991 0.48926 0.0
C3314 C 0.81975 0.88412 0.50364 0.0
C3315 C 0.84529 0.89025 0.51518 0.0
H3316 H 0.57266 0.12449 0.28497 0.0
H3317 H 0.54997 0.13576 0.21815 0.0
H3318 H 0.60179 0.14518 0.21156 0.0
H3319 H 0.62561 0.16025 0.2924 0.0
H3320 H 0.65115 0.14759 0.30859 0.0
H3321 H 0.6117 0.14254 0.30871 0.0
H3322 H 0.62358 0.11074 0.29768 0.0
H3323 H 0.66305 0.1157 0.2975 0.0
H3324 H 0.64557 0.10668 0.27377 0.0
H3325 H 0.65667 0.15247 0.21138 0.0
H3326 H 0.71034 0.15748 0.21772 0.0
H3327 H 0.6998 0.14074 0.2843 0.0
C3328 C 0.5784 0.12893 0.26891 0.0
C3329 C 0.55644 0.12946 0.25219 0.0
C3330 C 0.56557 0.13555 0.23153 0.0
C3331 C 0.59526 0.14081 0.22751 0.0
C3332 C 0.61615 0.13996 0.24421 0.0
C3333 C 0.60818 0.13422 0.26455 0.0
C3334 C 0.63541 0.13426 0.27947 0.0
C3335 C 0.63068 0.14691 0.29842 0.0
C3336 C 0.64231 0.11574 0.28758 0.0
C3337 C 0.65992 0.1408 0.2643 0.0
C3338 C 0.64814 0.144 0.24405 0.0
C3339 C 0.6661 0.14993 0.22717 0.0
C3340 C 0.69682 0.1526 0.23093 0.0
C3341 C 0.7099 0.14932 0.25145 0.0
C3342 C 0.69083 0.14345 0.26842 0.0
H3343 H 0.09443 0.59805 0.24288 0.0
H3344 H 0.05468 0.63371 0.28935 0.0
H3345 H 0.1039 0.64763 0.29441 0.0
H3346 H 0.16376 0.59184 0.27202 0.0
H3347 H 0.18652 0.59061 0.24801 0.0
H3348 H 0.14785 0.58388 0.24715 0.0
H3349 H 0.13804 0.60545 0.21581 0.0
H3350 H 0.17667 0.61227 0.21659 0.0
H3351 H 0.14716 0.62818 0.21923 0.0
H3352 H 0.15808 0.65787 0.29465 0.0
H3353 H 0.212 0.66325 0.29063 0.0
H3354 H 0.21841 0.61961 0.24609 0.0
C3355 C 0.09584 0.60867 0.25432 0.0
C3356 C 0.06989 0.61465 0.26562 0.0
C3357 C 0.07349 0.6289 0.28006 0.0
C3358 C 0.10164 0.63687 0.28322 0.0
C3359 C 0.12651 0.63053 0.27198 0.0
C3360 C 0.12391 0.6167 0.25786 0.0
C3361 C 0.15437 0.61219 0.24811 0.0
C3362 C 0.16367 0.59352 0.25419 0.0
C3363 C 0.15403 0.61467 0.22347 0.0
C3364 C 0.17454 0.62561 0.25897 0.0
C3365 C 0.1579 0.6361 0.2726 0.0
C3366 C 0.1713 0.64957 0.28419 0.0
C3367 C 0.20233 0.6524 0.28194 0.0
C3368 C 0.22038 0.64173 0.26834 0.0
C3369 C 0.20582 0.62815 0.25663 0.0
H3370 H 0.71814 0.62018 0.47142 0.0
H3371 H 0.73247 0.61685 0.54075 0.0
H3372 H 0.68033 0.62519 0.54702 0.0
H3373 H 0.66646 0.65687 0.47244 0.0
H3374 H 0.64223 0.64846 0.45162 0.0
H3375 H 0.68138 0.64266 0.45187 0.0
H3376 H 0.66726 0.60996 0.45216 0.0
H3377 H 0.62807 0.61566 0.45185 0.0
H3378 H 0.64257 0.60177 0.47288 0.0
H3379 H 0.62706 0.63436 0.54673 0.0
H3380 H 0.57487 0.64238 0.53986 0.0
H3381 H 0.59061 0.63831 0.47074 0.0
C3382 C 0.71039 0.62117 0.48793 0.0
C3383 C 0.73044 0.61823 0.50555 0.0
C3384 C 0.71864 0.61962 0.52682 0.0
C3385 C 0.68865 0.62421 0.53065 0.0
C3386 C 0.66987 0.62724 0.51312 0.0
C3387 C 0.68003 0.62568 0.49214 0.0
C3388 C 0.65435 0.62936 0.4764 0.0
C3389 C 0.66154 0.64528 0.46224 0.0
C3390 C 0.64767 0.61323 0.4625 0.0
C3391 C 0.62841 0.63324 0.49187 0.0
C3392 C 0.63819 0.63197 0.51295 0.0
C3393 C 0.61904 0.63515 0.53028 0.0
C3394 C 0.58907 0.63956 0.52612 0.0
C3395 C 0.57768 0.64064 0.50472 0.0
C3396 C 0.59809 0.63758 0.48733 0.0
H3397 H 0.08784 0.13284 0.47725 0.0
H3398 H 0.08076 0.16218 0.53686 0.0
H3399 H 0.13522 0.15891 0.54274 0.0
H3400 H 0.14158 0.10174 0.49749 0.0
H3401 H 0.16204 0.09995 0.47248 0.0
H3402 H 0.12282 0.1055 0.47214 0.0
H3403 H 0.13482 0.13343 0.45032 0.0
H3404 H 0.17411 0.12798 0.45065 0.0
H3405 H 0.16172 0.1488 0.46075 0.0
H3406 H 0.19109 0.15238 0.5424 0.0
H3407 H 0.24249 0.14102 0.53745 0.0
H3408 H 0.21408 0.1147 0.47892 0.0
C3409 C 0.09785 0.13869 0.49143 0.0
C3410 C 0.0798 0.14785 0.50657 0.0
C3411 C 0.09388 0.15506 0.52507 0.0
C3412 C 0.12493 0.15334 0.5285 0.0
C3413 C 0.14203 0.14417 0.51343 0.0
C3414 C 0.12897 0.13681 0.49534 0.0
C3415 C 0.15234 0.1268 0.48231 0.0
C3416 C 0.14421 0.10734 0.48103 0.0
C3417 C 0.15596 0.13473 0.45966 0.0
C3418 C 0.18043 0.12966 0.49589 0.0
C3419 C 0.17403 0.13991 0.51363 0.0
C3420 C 0.19629 0.14435 0.52853 0.0
C3421 C 0.22562 0.13793 0.52548 0.0
C3422 C 0.23276 0.12694 0.50778 0.0
C3423 C 0.20962 0.12297 0.49272 0.0
loop_
_geom_bond_atom_site_label_1
_geom_bond_atom_site_label_2
_geom_bond_distance
_geom_bond_site_symmetry_2
_ccdc_geom_bond_type
C0 C1 1.443 . S
C0 N4 1.376 . S
C0 C38 1.389 . S
C1 C0 1.443 . S
C1 C2 1.340 . S
C1 H41 0.951 . S
C2 C1 1.340 . S
C2 C3 1.439 . S
C2 H42 0.950 . S
C3 C2 1.439 . S
C3 N4 1.374 . S
C3 C37 1.395 . S
N4 C0 1.376 . S
N4 C3 1.374 . S
N4 Co5 2.008 . S
Co5 N4 2.008 . S
Co5 N6 1.995 . S
Co5 N11 2.008 . S
Co5 N16 1.995 . S
Co5 N21 2.282 . S
Co5 N27 2.282 . S
N6 Co5 1.995 . S
N6 C7 1.376 . S
N6 C10 1.383 . S
C7 N6 1.376 . S
C7 C8 1.446 . S
C7 C37 1.391 . S
C8 C7 1.446 . S
C8 C9 1.339 . S
C8 H43 0.949 . S
C9 C8 1.339 . S
C9 C10 1.439 . S
C9 H44 0.950 . S
C10 N6 1.383 . S
C10 C9 1.439 . S
C10 C39 1.392 . S
N11 Co5 2.008 . S
N11 C12 1.376 . S
N11 C15 1.374 . S
C12 N11 1.376 . S
C12 C13 1.443 . S
C12 C39 1.389 . S
C13 C12 1.443 . S
C13 C14 1.340 . S
C13 H45 0.951 . S
C14 C13 1.340 . S
C14 C15 1.439 . S
C14 H46 0.950 . S
C15 N11 1.374 . S
C15 C14 1.439 . S
C15 C40 1.395 . S
N16 Co5 1.995 . S
N16 C17 1.376 . S
N16 C20 1.383 . S
C17 N16 1.376 . S
C17 C18 1.446 . S
C17 C40 1.391 . S
C18 C17 1.446 . S
C18 C19 1.339 . S
C18 H47 0.949 . S
C19 C18 1.339 . S
C19 C20 1.439 . S
C19 H48 0.950 . S
C20 N16 1.383 . S
C20 C19 1.439 . S
C20 C38 1.392 . S
N21 Co5 2.282 . S
N21 C24 1.332 . S
N21 C26 1.332 . S
C22 C23 1.386 . S
C22 C25 1.388 . S
C23 C22 1.386 . S
C23 C24 1.382 . S
C23 H49 0.950 . S
C24 N21 1.332 . S
C24 C23 1.382 . S
C24 H35 0.952 . S
C25 C22 1.388 . S
C25 C26 1.382 . S
C25 H50 0.950 . S
C26 N21 1.332 . S
C26 C25 1.382 . S
C26 H36 0.948 . S
N27 Co5 2.282 . S
N27 C31 1.332 . S
N27 C32 1.332 . S
C28 C29 1.388 . S
C28 C32 1.382 . S
C28 H51 0.950 . S
C29 C28 1.388 . S
C29 C30 1.386 . S
C30 C29 1.386 . S
C30 C31 1.382 . S
C30 H52 0.950 . S
C31 N27 1.332 . S
C31 C30 1.382 . S
C31 H33 0.952 . S
C32 N27 1.332 . S
C32 C28 1.382 . S
C32 H34 0.948 . S
H33 C31 0.952 . S
H34 C32 0.948 . S
H35 C24 0.952 . S
H36 C26 0.948 . S
C37 C3 1.395 . S
C37 C7 1.391 . S
C38 C0 1.389 . S
C38 C20 1.392 . S
C39 C10 1.392 . S
C39 C12 1.389 . S
C40 C15 1.395 . S
C40 C17 1.391 . S
H41 C1 0.951 . S
H42 C2 0.950 . S
H43 C8 0.949 . S
H44 C9 0.950 . S
H45 C13 0.951 . S
H46 C14 0.950 . S
H47 C18 0.949 . S
H48 C19 0.950 . S
H49 C23 0.950 . S
H50 C25 0.950 . S
H51 C28 0.950 . S
H52 C30 0.950 . S
C53 C54 1.443 . S
C53 N57 1.376 . S
C53 C91 1.389 . S
C54 C53 1.443 . S
C54 C55 1.340 . S
C54 H94 0.951 . S
C55 C54 1.340 . S
C55 C56 1.439 . S
C55 H95 0.950 . S
C56 C55 1.439 . S
C56 N57 1.374 . S
C56 C90 1.395 . S
N57 C53 1.376 . S
N57 C56 1.374 . S
N57 Co58 2.008 . S
Co58 N57 2.008 . S
Co58 N59 1.995 . S
Co58 N64 2.008 . S
Co58 N69 1.995 . S
Co58 N74 2.282 . S
Co58 N80 2.282 . S
N59 Co58 1.995 . S
N59 C60 1.376 . S
N59 C63 1.383 . S
C60 N59 1.376 . S
C60 C61 1.446 . S
C60 C90 1.391 . S
C61 C60 1.446 . S
C61 C62 1.339 . S
C61 H96 0.949 . S
C62 C61 1.339 . S
C62 C63 1.439 . S
C62 H97 0.950 . S
C63 N59 1.383 . S
C63 C62 1.439 . S
C63 C92 1.392 . S
N64 Co58 2.008 . S
N64 C65 1.376 . S
N64 C68 1.374 . S
C65 N64 1.376 . S
C65 C66 1.443 . S
C65 C92 1.389 . S
C66 C65 1.443 . S
C66 C67 1.340 . S
C66 H98 0.951 . S
C67 C66 1.340 . S
C67 C68 1.439 . S
C67 H99 0.950 . S
C68 N64 1.374 . S
C68 C67 1.439 . S
C68 C93 1.395 . S
N69 Co58 1.995 . S
N69 C70 1.376 . S
N69 C73 1.383 . S
C70 N69 1.376 . S
C70 C71 1.446 . S
C70 C93 1.391 . S
C71 C70 1.446 . S
C71 C72 1.339 . S
C71 H100 0.949 . S
C72 C71 1.339 . S
C72 C73 1.439 . S
C72 H101 0.950 . S
C73 N69 1.383 . S
C73 C72 1.439 . S
C73 C91 1.392 . S
N74 Co58 2.282 . S
N74 C77 1.332 . S
N74 C79 1.332 . S
C75 C76 1.386 . S
C75 C78 1.388 . S
C76 C75 1.386 . S
C76 C77 1.382 . S
C76 H102 0.950 . S
C77 N74 1.332 . S
C77 C76 1.382 . S
C77 H88 0.952 . S
C78 C75 1.388 . S
C78 C79 1.382 . S
C78 H103 0.950 . S
C79 N74 1.332 . S
C79 C78 1.382 . S
C79 H89 0.948 . S
N80 Co58 2.282 . S
N80 C84 1.332 . S
N80 C85 1.332 . S
C81 C82 1.388 . S
C81 C85 1.382 1_655 S
C81 H104 0.950 . S
C82 C81 1.388 . S
C82 C83 1.386 . S
C83 C82 1.386 . S
C83 C84 1.382 1_655 S
C83 H105 0.950 . S
C84 N80 1.332 . S
C84 C83 1.382 1_455 S
C84 H86 0.952 . S
C85 N80 1.332 . S
C85 C81 1.382 1_455 S
C85 H87 0.948 . S
H86 C84 0.952 . S
H87 C85 0.948 . S
H88 C77 0.952 . S
H89 C79 0.948 . S
C90 C56 1.395 . S
C90 C60 1.391 . S
C91 C53 1.389 . S
C91 C73 1.392 . S
C92 C63 1.392 . S
C92 C65 1.389 . S
C93 C68 1.395 . S
C93 C70 1.391 . S
H94 C54 0.951 . S
H95 C55 0.950 . S
H96 C61 0.949 . S
H97 C62 0.950 . S
H98 C66 0.951 . S
H99 C67 0.950 . S
H100 C71 0.949 . S
H101 C72 0.950 . S
H102 C76 0.950 . S
H103 C78 0.950 . S
H104 C81 0.950 . S
H105 C83 0.950 . S
C106 C107 1.443 . S
C106 N110 1.376 . S
C106 C144 1.389 . S
C107 C106 1.443 . S
C107 C108 1.340 . S
C107 H147 0.951 . S
C108 C107 1.340 . S
C108 C109 1.439 . S
C108 H148 0.950 . S
C109 C108 1.439 . S
C109 N110 1.374 . S
C109 C143 1.395 1_556 S
N110 C106 1.376 . S
N110 C109 1.374 . S
N110 Co111 2.008 . S
Co111 N110 2.008 . S
Co111 N112 1.995 1_556 S
Co111 N117 2.008 1_556 S
Co111 N122 1.995 . S
Co111 N127 2.282 . S
Co111 N133 2.282 . S
N112 Co111 1.995 1_554 S
N112 C113 1.376 . S
N112 C116 1.383 . S
C113 N112 1.376 . S
C113 C114 1.446 . S
C113 C143 1.391 . S
C114 C113 1.446 . S
C114 C115 1.339 . S
C114 H149 0.949 . S
C115 C114 1.339 . S
C115 C116 1.439 . S
C115 H150 0.950 . S
C116 N112 1.383 . S
C116 C115 1.439 . S
C116 C145 1.392 . S
N117 Co111 2.008 1_554 S
N117 C118 1.376 . S
N117 C121 1.374 . S
C118 N117 1.376 . S
C118 C119 1.443 . S
C118 C145 1.389 . S
C119 C118 1.443 . S
C119 C120 1.340 . S
C119 H151 0.951 . S
C120 C119 1.340 . S
C120 C121 1.439 . S
C120 H152 0.950 . S
C121 N117 1.374 . S
C121 C120 1.439 . S
C121 C146 1.395 1_554 S
N122 Co111 1.995 . S
N122 C123 1.376 . S
N122 C126 1.383 . S
C123 N122 1.376 . S
C123 C124 1.446 . S
C123 C146 1.391 . S
C124 C123 1.446 . S
C124 C125 1.339 . S
C124 H153 0.949 . S
C125 C124 1.339 . S
C125 C126 1.439 . S
C125 H154 0.950 . S
C126 N122 1.383 . S
C126 C125 1.439 . S
C126 C144 1.392 . S
N127 Co111 2.282 . S
N127 C130 1.332 . S
N127 C132 1.323 1_556 S
C128 C129 1.386 . S
C128 C131 1.388 1_556 S
C129 C128 1.386 . S
C129 C130 1.382 . S
C129 H155 0.950 . S
C130 N127 1.332 . S
C130 C129 1.382 . S
C130 H141 0.952 . S
C131 C128 1.388 1_554 S
C131 C132 1.385 . S
C131 H156 0.950 . S
C132 N127 1.323 1_554 S
C132 C131 1.385 . S
C132 H142 0.955 . S
N133 Co111 2.282 . S
N133 C137 1.332 1_556 S
N133 C138 1.332 . S
C134 C135 1.388 . S
C134 C138 1.382 . S
C134 H157 0.950 . S
C135 C134 1.388 . S
C135 C136 1.386 1_556 S
C136 C135 1.386 1_554 S
C136 C137 1.382 . S
C136 H158 0.950 . S
C137 N133 1.332 1_554 S
C137 C136 1.382 . S
C137 H139 0.952 . S
C138 N133 1.332 . S
C138 C134 1.382 . S
C138 H140 0.948 . S
H139 C137 0.952 . S
H140 C138 0.948 . S
H141 C130 0.952 . S
H142 C132 0.955 . S
C143 C109 1.395 1_554 S
C143 C113 1.391 . S
C144 C106 1.389 . S
C144 C126 1.392 . S
C145 C116 1.392 . S
C145 C118 1.389 . S
C146 C121 1.395 1_556 S
C146 C123 1.391 . S
H147 C107 0.951 . S
H148 C108 0.950 . S
H149 C114 0.949 . S
H150 C115 0.950 . S
H151 C119 0.951 . S
H152 C120 0.950 . S
H153 C124 0.949 . S
H154 C125 0.950 . S
H155 C129 0.950 . S
H156 C131 0.950 . S
H157 C134 0.950 . S
H158 C136 0.950 . S
C159 C160 1.443 . S
C159 N163 1.376 . S
C159 C197 1.389 . S
C160 C159 1.443 . S
C160 C161 1.340 . S
C160 H200 0.951 . S
C161 C160 1.340 . S
C161 C162 1.439 . S
C161 H201 0.950 . S
C162 C161 1.439 . S
C162 N163 1.374 . S
C162 C196 1.395 1_556 S
N163 C159 1.376 . S
N163 C162 1.374 . S
N163 Co164 2.008 . S
Co164 N163 2.008 . S
Co164 N165 1.995 1_556 S
Co164 N170 2.008 1_556 S
Co164 N175 1.995 . S
Co164 N180 2.282 . S
Co164 N186 2.282 . S
N165 Co164 1.995 1_554 S
N165 C166 1.376 . S
N165 C169 1.383 . S
C166 N165 1.376 . S
C166 C167 1.446 . S
C166 C196 1.391 . S
C167 C166 1.446 . S
C167 C168 1.339 . S
C167 H202 0.949 . S
C168 C167 1.339 . S
C168 C169 1.439 . S
C168 H203 0.950 . S
C169 N165 1.383 . S
C169 C168 1.439 . S
C169 C198 1.392 . S
N170 Co164 2.008 1_554 S
N170 C171 1.376 . S
N170 C174 1.374 . S
C171 N170 1.376 . S
C171 C172 1.443 . S
C171 C198 1.389 . S
C172 C171 1.443 . S
C172 C173 1.340 . S
C172 H204 0.951 . S
C173 C172 1.340 . S
C173 C174 1.439 . S
C173 H205 0.950 . S
C174 N170 1.374 . S
C174 C173 1.439 . S
C174 C199 1.395 1_554 S
N175 Co164 1.995 . S
N175 C176 1.376 . S
N175 C179 1.383 . S
C176 N175 1.376 . S
C176 C177 1.446 . S
C176 C199 1.391 . S
C177 C176 1.446 . S
C177 C178 1.339 . S
C177 H206 0.949 . S
C178 C177 1.339 . S
C178 C179 1.439 . S
C178 H207 0.950 . S
C179 N175 1.383 . S
C179 C178 1.439 . S
C179 C197 1.392 . S
N180 Co164 2.282 . S
N180 C183 1.332 . S
N180 C185 1.323 1_556 S
C181 C182 1.386 . S
C181 C184 1.388 1_556 S
C182 C181 1.386 . S
C182 C183 1.382 . S
C182 H208 0.950 . S
C183 N180 1.332 . S
C183 C182 1.382 . S
C183 H194 0.952 . S
C184 C181 1.388 1_554 S
C184 C185 1.385 . S
C184 H209 0.950 . S
C185 N180 1.323 1_554 S
C185 C184 1.385 . S
C185 H195 0.955 . S
N186 Co164 2.282 . S
N186 C190 1.332 1_556 S
N186 C191 1.332 . S
C187 C188 1.388 . S
C187 C191 1.382 1_655 S
C187 H210 0.950 . S
C188 C187 1.388 . S
C188 C189 1.386 1_556 S
C189 C188 1.386 1_554 S
C189 C190 1.382 1_655 S
C189 H211 0.950 . S
C190 N186 1.332 1_554 S
C190 C189 1.382 1_455 S
C190 H192 0.952 . S
C191 N186 1.332 . S
C191 C187 1.382 1_455 S
C191 H193 0.948 . S
H192 C190 0.952 . S
H193 C191 0.948 . S
H194 C183 0.952 . S
H195 C185 0.955 . S
C196 C162 1.395 1_554 S
C196 C166 1.391 . S
C197 C159 1.389 . S
C197 C179 1.392 . S
C198 C169 1.392 . S
C198 C171 1.389 . S
C199 C174 1.395 1_556 S
C199 C176 1.391 . S
H200 C160 0.951 . S
H201 C161 0.950 . S
H202 C167 0.949 . S
H203 C168 0.950 . S
H204 C172 0.951 . S
H205 C173 0.950 . S
H206 C177 0.949 . S
H207 C178 0.950 . S
H208 C182 0.950 . S
H209 C184 0.950 . S
H210 C187 0.950 . S
H211 C189 0.950 . S
C212 C213 1.443 . S
C212 N216 1.376 . S
C212 C250 1.389 . S
C213 C212 1.443 . S
C213 C214 1.340 . S
C213 H253 0.951 . S
C214 C213 1.340 . S
C214 C215 1.439 . S
C214 H254 0.950 . S
C215 C214 1.439 . S
C215 N216 1.374 . S
C215 C249 1.395 . S
N216 C212 1.376 . S
N216 C215 1.374 . S
N216 Co217 2.008 . S
Co217 N216 2.008 . S
Co217 N218 1.995 . S
Co217 N223 2.008 . S
Co217 N228 1.995 . S
Co217 N233 2.282 . S
Co217 N239 2.282 . S
N218 Co217 1.995 . S
N218 C219 1.376 . S
N218 C222 1.383 . S
C219 N218 1.376 . S
C219 C220 1.446 . S
C219 C249 1.391 . S
C220 C219 1.446 . S
C220 C221 1.339 . S
C220 H255 0.949 . S
C221 C220 1.339 . S
C221 C222 1.439 . S
C221 H256 0.950 . S
C222 N218 1.383 . S
C222 C221 1.439 . S
C222 C251 1.392 . S
N223 Co217 2.008 . S
N223 C224 1.376 . S
N223 C227 1.374 . S
C224 N223 1.376 . S
C224 C225 1.443 . S
C224 C251 1.389 . S
C225 C224 1.443 . S
C225 C226 1.340 . S
C225 H257 0.951 . S
C226 C225 1.340 . S
C226 C227 1.439 . S
C226 H258 0.950 . S
C227 N223 1.374 . S
C227 C226 1.439 . S
C227 C252 1.395 . S
N228 Co217 1.995 . S
N228 C229 1.376 . S
N228 C232 1.383 . S
C229 N228 1.376 . S
C229 C230 1.446 . S
C229 C252 1.391 . S
C230 C229 1.446 . S
C230 C231 1.339 . S
C230 H259 0.949 . S
C231 C230 1.339 . S
C231 C232 1.439 . S
C231 H260 0.950 . S
C232 N228 1.383 . S
C232 C231 1.439 . S
C232 C250 1.392 . S
N233 Co217 2.282 . S
N233 C236 1.332 . S
N233 C238 1.332 . S
C234 C235 1.386 . S
C234 C237 1.388 . S
C235 C234 1.386 . S
C235 C236 1.382 . S
C235 H261 0.950 . S
C236 N233 1.332 . S
C236 C235 1.382 . S
C236 H247 0.952 . S
C237 C234 1.388 . S
C237 C238 1.382 . S
C237 H262 0.950 . S
C238 N233 1.332 . S
C238 C237 1.382 . S
C238 H248 0.948 . S
N239 Co217 2.282 . S
N239 C243 1.332 . S
N239 C244 1.332 . S
C240 C241 1.388 . S
C240 C244 1.382 . S
C240 H263 0.950 . S
C241 C240 1.388 . S
C241 C242 1.386 . S
C242 C241 1.386 . S
C242 C243 1.382 . S
C242 H264 0.950 . S
C243 N239 1.332 . S
C243 C242 1.382 . S
C243 H245 0.952 . S
C244 N239 1.332 . S
C244 C240 1.382 . S
C244 H246 0.948 . S
H245 C243 0.952 . S
H246 C244 0.948 . S
H247 C236 0.952 . S
H248 C238 0.948 . S
C249 C215 1.395 . S
C249 C219 1.391 . S
C250 C212 1.389 . S
C250 C232 1.392 . S
C251 C222 1.392 . S
C251 C224 1.389 . S
C252 C227 1.395 . S
C252 C229 1.391 . S
H253 C213 0.951 . S
H254 C214 0.950 . S
H255 C220 0.949 . S
H256 C221 0.950 . S
H257 C225 0.951 . S
H258 C226 0.950 . S
H259 C230 0.949 . S
H260 C231 0.950 . S
H261 C235 0.950 . S
H262 C237 0.950 . S
H263 C240 0.950 . S
H264 C242 0.950 . S
C265 C266 1.443 . S
C265 N269 1.376 . S
C265 C303 1.389 . S
C266 C265 1.443 . S
C266 C267 1.340 . S
C266 H306 0.951 . S
C267 C266 1.340 . S
C267 C268 1.439 . S
C267 H307 0.950 . S
C268 C267 1.439 . S
C268 N269 1.374 . S
C268 C302 1.395 . S
N269 C265 1.376 . S
N269 C268 1.374 . S
N269 Co270 2.008 . S
Co270 N269 2.008 . S
Co270 N271 1.995 . S
Co270 N276 2.008 . S
Co270 N281 1.995 . S
Co270 N286 2.282 . S
Co270 N292 2.282 . S
N271 Co270 1.995 . S
N271 C272 1.376 . S
N271 C275 1.383 . S
C272 N271 1.376 . S
C272 C273 1.446 . S
C272 C302 1.391 . S
C273 C272 1.446 . S
C273 C274 1.339 . S
C273 H308 0.949 . S
C274 C273 1.339 . S
C274 C275 1.439 . S
C274 H309 0.950 . S
C275 N271 1.383 . S
C275 C274 1.439 . S
C275 C304 1.392 . S
N276 Co270 2.008 . S
N276 C277 1.376 . S
N276 C280 1.374 . S
C277 N276 1.376 . S
C277 C278 1.443 . S
C277 C304 1.389 . S
C278 C277 1.443 . S
C278 C279 1.340 . S
C278 H310 0.951 . S
C279 C278 1.340 . S
C279 C280 1.439 . S
C279 H311 0.950 . S
C280 N276 1.374 . S
C280 C279 1.439 . S
C280 C305 1.395 . S
N281 Co270 1.995 . S
N281 C282 1.376 . S
N281 C285 1.383 . S
C282 N281 1.376 . S
C282 C283 1.446 . S
C282 C305 1.391 . S
C283 C282 1.446 . S
C283 C284 1.339 . S
C283 H312 0.949 . S
C284 C283 1.339 . S
C284 C285 1.439 . S
C284 H313 0.950 . S
C285 N281 1.383 . S
C285 C284 1.439 . S
C285 C303 1.392 . S
N286 Co270 2.282 . S
N286 C289 1.332 . S
N286 C291 1.332 . S
C287 C288 1.386 . S
C287 C290 1.388 . S
C288 C287 1.386 . S
C288 C289 1.382 . S
C288 H314 0.950 . S
C289 N286 1.332 . S
C289 C288 1.382 . S
C289 H300 0.952 . S
C290 C287 1.388 . S
C290 C291 1.382 . S
C290 H315 0.950 . S
C291 N286 1.332 . S
C291 C290 1.382 . S
C291 H301 0.948 . S
N292 Co270 2.282 . S
N292 C296 1.332 . S
N292 C297 1.332 . S
C293 C294 1.388 . S
C293 C297 1.382 1_455 S
C293 H316 0.950 . S
C294 C293 1.388 . S
C294 C295 1.386 . S
C295 C294 1.386 . S
C295 C296 1.382 1_455 S
C295 H317 0.950 . S
C296 N292 1.332 . S
C296 C295 1.382 1_655 S
C296 H298 0.952 . S
C297 N292 1.332 . S
C297 C293 1.382 1_655 S
C297 H299 0.948 . S
H298 C296 0.952 . S
H299 C297 0.948 . S
H300 C289 0.952 . S
H301 C291 0.948 . S
C302 C268 1.395 . S
C302 C272 1.391 . S
C303 C265 1.389 . S
C303 C285 1.392 . S
C304 C275 1.392 . S
C304 C277 1.389 . S
C305 C280 1.395 . S
C305 C282 1.391 . S
H306 C266 0.951 . S
H307 C267 0.950 . S
H308 C273 0.949 . S
H309 C274 0.950 . S
H310 C278 0.951 . S
H311 C279 0.950 . S
H312 C283 0.949 . S
H313 C284 0.950 . S
H314 C288 0.950 . S
H315 C290 0.950 . S
H316 C293 0.950 . S
H317 C295 0.950 . S
C318 C319 1.443 . S
C318 N322 1.376 . S
C318 C356 1.389 . S
C319 C318 1.443 . S
C319 C320 1.340 . S
C319 H359 0.951 . S
C320 C319 1.340 . S
C320 C321 1.439 . S
C320 H360 0.950 . S
C321 C320 1.439 . S
C321 N322 1.374 . S
C321 C355 1.395 . S
N322 C318 1.376 . S
N322 C321 1.374 . S
N322 Co323 2.008 . S
Co323 N322 2.008 . S
Co323 N324 1.995 1_554 S
Co323 N329 2.008 1_554 S
Co323 N334 1.995 . S
Co323 N339 2.282 . S
Co323 N345 2.282 . S
N324 Co323 1.995 1_556 S
N324 C325 1.376 . S
N324 C328 1.383 . S
C325 N324 1.376 . S
C325 C326 1.446 . S
C325 C355 1.391 1_556 S
C326 C325 1.446 . S
C326 C327 1.339 . S
C326 H361 0.949 . S
C327 C326 1.339 . S
C327 C328 1.439 . S
C327 H362 0.950 . S
C328 N324 1.383 . S
C328 C327 1.439 . S
C328 C357 1.392 . S
N329 Co323 2.008 1_556 S
N329 C330 1.376 . S
N329 C333 1.374 . S
C330 N329 1.376 . S
C330 C331 1.443 . S
C330 C357 1.389 . S
C331 C330 1.443 . S
C331 C332 1.340 . S
C331 H363 0.951 . S
C332 C331 1.340 . S
C332 C333 1.439 . S
C332 H364 0.950 . S
C333 N329 1.374 . S
C333 C332 1.439 . S
C333 C358 1.395 . S
N334 Co323 1.995 . S
N334 C335 1.376 . S
N334 C338 1.383 . S
C335 N334 1.376 . S
C335 C336 1.446 . S
C335 C358 1.391 1_554 S
C336 C335 1.446 . S
C336 C337 1.339 . S
C336 H365 0.949 . S
C337 C336 1.339 . S
C337 C338 1.439 . S
C337 H366 0.950 . S
C338 N334 1.383 . S
C338 C337 1.439 . S
C338 C356 1.392 . S
N339 Co323 2.282 . S
N339 C342 1.332 . S
N339 C344 1.332 . S
C340 C341 1.386 . S
C340 C343 1.388 . S
C341 C340 1.386 . S
C341 C342 1.382 . S
C341 H367 0.950 . S
C342 N339 1.332 . S
C342 C341 1.382 . S
C342 H353 0.952 . S
C343 C340 1.388 . S
C343 C344 1.382 . S
C343 H368 0.958 . S
C344 N339 1.332 . S
C344 C343 1.382 . S
C344 H354 0.948 . S
N345 Co323 2.282 . S
N345 C349 1.332 . S
N345 C350 1.332 . S
C346 C347 1.388 . S
C346 C350 1.382 . S
C346 H369 0.950 . S
C347 C346 1.388 . S
C347 C348 1.386 . S
C348 C347 1.386 . S
C348 C349 1.382 . S
C348 H370 0.950 . S
C349 N345 1.332 . S
C349 C348 1.382 . S
C349 H351 0.946 1_554 S
C350 N345 1.332 . S
C350 C346 1.382 . S
C350 H352 0.948 . S
H351 C349 0.946 1_556 S
H352 C350 0.948 . S
H353 C342 0.952 . S
H354 C344 0.948 . S
C355 C321 1.395 . S
C355 C325 1.391 1_554 S
C356 C318 1.389 . S
C356 C338 1.392 . S
C357 C328 1.392 . S
C357 C330 1.389 . S
C358 C333 1.395 . S
C358 C335 1.391 1_556 S
H359 C319 0.951 . S
H360 C320 0.950 . S
H361 C326 0.949 . S
H362 C327 0.950 . S
H363 C331 0.951 . S
H364 C332 0.950 . S
H365 C336 0.949 . S
H366 C337 0.950 . S
H367 C341 0.950 . S
H368 C343 0.958 . S
H369 C346 0.950 . S
H370 C348 0.950 . S
C371 C372 1.443 . S
C371 N375 1.376 . S
C371 C409 1.389 . S
C372 C371 1.443 . S
C372 C373 1.340 . S
C372 H412 0.951 . S
C373 C372 1.340 . S
C373 C374 1.439 . S
C373 H413 0.950 . S
C374 C373 1.439 . S
C374 N375 1.374 . S
C374 C408 1.395 . S
N375 C371 1.376 . S
N375 C374 1.374 . S
N375 Co376 2.008 . S
Co376 N375 2.008 . S
Co376 N377 1.995 1_554 S
Co376 N382 2.008 1_554 S
Co376 N387 1.995 . S
Co376 N392 2.282 . S
Co376 N398 2.282 . S
N377 Co376 1.995 1_556 S
N377 C378 1.376 . S
N377 C381 1.383 . S
C378 N377 1.376 . S
C378 C379 1.446 . S
C378 C408 1.391 1_556 S
C379 C378 1.446 . S
C379 C380 1.339 . S
C379 H414 0.949 . S
C380 C379 1.339 . S
C380 C381 1.439 . S
C380 H415 0.950 . S
C381 N377 1.383 . S
C381 C380 1.439 . S
C381 C410 1.392 . S
N382 Co376 2.008 1_556 S
N382 C383 1.376 . S
N382 C386 1.374 . S
C383 N382 1.376 . S
C383 C384 1.443 . S
C383 C410 1.389 . S
C384 C383 1.443 . S
C384 C385 1.340 . S
C384 H416 0.951 . S
C385 C384 1.340 . S
C385 C386 1.439 . S
C385 H417 0.950 . S
C386 N382 1.374 . S
C386 C385 1.439 . S
C386 C411 1.395 . S
N387 Co376 1.995 . S
N387 C388 1.376 . S
N387 C391 1.383 . S
C388 N387 1.376 . S
C388 C389 1.446 . S
C388 C411 1.391 1_554 S
C389 C388 1.446 . S
C389 C390 1.339 . S
C389 H418 0.949 . S
C390 C389 1.339 . S
C390 C391 1.439 . S
C390 H419 0.950 . S
C391 N387 1.383 . S
C391 C390 1.439 . S
C391 C409 1.392 . S
N392 Co376 2.282 . S
N392 C395 1.332 . S
N392 C397 1.332 . S
C393 C394 1.386 . S
C393 C396 1.388 . S
C394 C393 1.386 . S
C394 C395 1.382 . S
C394 H420 0.950 . S
C395 N392 1.332 . S
C395 C394 1.382 . S
C395 H406 0.952 . S
C396 C393 1.388 . S
C396 C397 1.382 . S
C396 H421 0.958 . S
C397 N392 1.332 . S
C397 C396 1.382 . S
C397 H407 0.948 . S
N398 Co376 2.282 . S
N398 C402 1.332 . S
N398 C403 1.332 . S
C399 C400 1.388 . S
C399 C403 1.382 1_455 S
C399 H422 0.950 . S
C400 C399 1.388 . S
C400 C401 1.386 . S
C401 C400 1.386 . S
C401 C402 1.382 1_455 S
C401 H423 0.950 . S
C402 N398 1.332 . S
C402 C401 1.382 1_655 S
C402 H404 0.946 1_554 S
C403 N398 1.332 . S
C403 C399 1.382 1_655 S
C403 H405 0.948 . S
H404 C402 0.946 1_556 S
H405 C403 0.948 . S
H406 C395 0.952 . S
H407 C397 0.948 . S
C408 C374 1.395 . S
C408 C378 1.391 1_554 S
C409 C371 1.389 . S
C409 C391 1.392 . S
C410 C381 1.392 . S
C410 C383 1.389 . S
C411 C386 1.395 . S
C411 C388 1.391 1_556 S
H412 C372 0.951 . S
H413 C373 0.950 . S
H414 C379 0.949 . S
H415 C380 0.950 . S
H416 C384 0.951 . S
H417 C385 0.950 . S
H418 C389 0.949 . S
H419 C390 0.950 . S
H420 C394 0.950 . S
H421 C396 0.958 . S
H422 C399 0.950 . S
H423 C401 0.950 . S
C424 C425 1.443 . S
C424 N428 1.376 . S
C424 C462 1.389 . S
C425 C424 1.443 . S
C425 C426 1.340 . S
C425 H465 0.951 . S
C426 C425 1.340 . S
C426 C427 1.439 . S
C426 H466 0.950 . S
C427 C426 1.439 . S
C427 N428 1.374 . S
C427 C461 1.395 . S
N428 C424 1.376 . S
N428 C427 1.374 . S
N428 Co429 2.008 . S
Co429 N428 2.008 . S
Co429 N430 1.995 . S
Co429 N435 2.008 . S
Co429 N440 1.995 . S
Co429 N445 2.282 . S
Co429 N451 2.282 . S
N430 Co429 1.995 . S
N430 C431 1.376 . S
N430 C434 1.383 . S
C431 N430 1.376 . S
C431 C432 1.446 . S
C431 C461 1.391 . S
C432 C431 1.446 . S
C432 C433 1.339 . S
C432 H467 0.949 . S
C433 C432 1.339 . S
C433 C434 1.439 . S
C433 H468 0.950 . S
C434 N430 1.383 . S
C434 C433 1.439 . S
C434 C463 1.392 . S
N435 Co429 2.008 . S
N435 C436 1.376 . S
N435 C439 1.374 . S
C436 N435 1.376 . S
C436 C437 1.443 . S
C436 C463 1.389 . S
C437 C436 1.443 . S
C437 C438 1.340 . S
C437 H469 0.951 . S
C438 C437 1.340 . S
C438 C439 1.439 . S
C438 H470 0.950 . S
C439 N435 1.374 . S
C439 C438 1.439 . S
C439 C464 1.395 . S
N440 Co429 1.995 . S
N440 C441 1.376 . S
N440 C444 1.383 . S
C441 N440 1.376 . S
C441 C442 1.446 . S
C441 C464 1.391 . S
C442 C441 1.446 . S
C442 C443 1.339 . S
C442 H471 0.949 . S
C443 C442 1.339 . S
C443 C444 1.439 . S
C443 H472 0.950 . S
C444 N440 1.383 . S
C444 C443 1.439 . S
C444 C462 1.392 . S
N445 Co429 2.282 . S
N445 C448 1.332 . S
N445 C450 1.332 . S
C446 C447 1.386 . S
C446 C449 1.388 . S
C447 C446 1.386 . S
C447 C448 1.382 . S
C447 H473 0.950 . S
C448 N445 1.332 . S
C448 C447 1.382 . S
C448 H459 0.952 . S
C449 C446 1.388 . S
C449 C450 1.382 . S
C449 H474 0.950 . S
C450 N445 1.332 . S
C450 C449 1.382 . S
C450 H460 0.948 . S
N451 Co429 2.282 . S
N451 C455 1.332 . S
N451 C456 1.332 . S
C452 C453 1.388 . S
C452 C456 1.382 . S
C452 H475 0.950 . S
C453 C452 1.388 . S
C453 C454 1.386 . S
C454 C453 1.386 . S
C454 C455 1.382 . S
C454 H476 0.950 . S
C455 N451 1.332 . S
C455 C454 1.382 . S
C455 H457 0.952 . S
C456 N451 1.332 . S
C456 C452 1.382 . S
C456 H458 0.948 . S
H457 C455 0.952 . S
H458 C456 0.948 . S
H459 C448 0.952 . S
H460 C450 0.948 . S
C461 C427 1.395 . S
C461 C431 1.391 . S
C462 C424 1.389 . S
C462 C444 1.392 . S
C463 C434 1.392 . S
C463 C436 1.389 . S
C464 C439 1.395 . S
C464 C441 1.391 . S
H465 C425 0.951 . S
H466 C426 0.950 . S
H467 C432 0.949 . S
H468 C433 0.950 . S
H469 C437 0.951 . S
H470 C438 0.950 . S
H471 C442 0.949 . S
H472 C443 0.950 . S
H473 C447 0.950 . S
H474 C449 0.950 . S
H475 C452 0.950 . S
H476 C454 0.950 . S
C477 C478 1.443 . S
C477 N481 1.376 . S
C477 C515 1.389 . S
C478 C477 1.443 . S
C478 C479 1.340 . S
C478 H518 0.951 . S
C479 C478 1.340 . S
C479 C480 1.439 . S
C479 H519 0.950 . S
C480 C479 1.439 . S
C480 N481 1.374 . S
C480 C514 1.395 . S
N481 C477 1.376 . S
N481 C480 1.374 . S
N481 Co482 2.008 . S
Co482 N481 2.008 . S
Co482 N483 1.995 . S
Co482 N488 2.008 . S
Co482 N493 1.995 . S
Co482 N498 2.282 . S
Co482 N504 2.282 . S
N483 Co482 1.995 . S
N483 C484 1.376 . S
N483 C487 1.383 . S
C484 N483 1.376 . S
C484 C485 1.446 . S
C484 C514 1.391 . S
C485 C484 1.446 . S
C485 C486 1.339 . S
C485 H520 0.949 . S
C486 C485 1.339 . S
C486 C487 1.439 . S
C486 H521 0.950 . S
C487 N483 1.383 . S
C487 C486 1.439 . S
C487 C516 1.392 . S
N488 Co482 2.008 . S
N488 C489 1.376 . S
N488 C492 1.374 . S
C489 N488 1.376 . S
C489 C490 1.443 . S
C489 C516 1.389 . S
C490 C489 1.443 . S
C490 C491 1.340 . S
C490 H522 0.951 . S
C491 C490 1.340 . S
C491 C492 1.439 . S
C491 H523 0.950 . S
C492 N488 1.374 . S
C492 C491 1.439 . S
C492 C517 1.395 . S
N493 Co482 1.995 . S
N493 C494 1.376 . S
N493 C497 1.383 . S
C494 N493 1.376 . S
C494 C495 1.446 . S
C494 C517 1.391 . S
C495 C494 1.446 . S
C495 C496 1.339 . S
C495 H524 0.949 . S
C496 C495 1.339 . S
C496 C497 1.439 . S
C496 H525 0.950 . S
C497 N493 1.383 . S
C497 C496 1.439 . S
C497 C515 1.392 . S
N498 Co482 2.282 . S
N498 C501 1.332 . S
N498 C503 1.332 . S
C499 C500 1.386 . S
C499 C502 1.388 . S
C500 C499 1.386 . S
C500 C501 1.382 . S
C500 H526 0.950 . S
C501 N498 1.332 . S
C501 C500 1.382 . S
C501 H512 0.952 . S
C502 C499 1.388 . S
C502 C503 1.382 . S
C502 H527 0.950 . S
C503 N498 1.332 . S
C503 C502 1.382 . S
C503 H513 0.948 . S
N504 Co482 2.282 . S
N504 C508 1.332 . S
N504 C509 1.332 . S
C505 C506 1.388 . S
C505 C509 1.382 1_655 S
C505 H528 0.950 . S
C506 C505 1.388 . S
C506 C507 1.386 . S
C507 C506 1.386 . S
C507 C508 1.382 1_655 S
C507 H529 0.950 . S
C508 N504 1.332 . S
C508 C507 1.382 1_455 S
C508 H510 0.952 . S
C509 N504 1.332 . S
C509 C505 1.382 1_455 S
C509 H511 0.948 . S
H510 C508 0.952 . S
H511 C509 0.948 . S
H512 C501 0.952 . S
H513 C503 0.948 . S
C514 C480 1.395 . S
C514 C484 1.391 . S
C515 C477 1.389 . S
C515 C497 1.392 . S
C516 C487 1.392 . S
C516 C489 1.389 . S
C517 C492 1.395 . S
C517 C494 1.391 . S
H518 C478 0.951 . S
H519 C479 0.950 . S
H520 C485 0.949 . S
H521 C486 0.950 . S
H522 C490 0.951 . S
H523 C491 0.950 . S
H524 C495 0.949 . S
H525 C496 0.950 . S
H526 C500 0.950 . S
H527 C502 0.950 . S
H528 C505 0.950 . S
H529 C507 0.950 . S
C530 C531 1.443 . S
C530 N534 1.376 . S
C530 C568 1.389 . S
C531 C530 1.443 . S
C531 C532 1.340 . S
C531 H571 0.951 . S
C532 C531 1.340 . S
C532 C533 1.439 . S
C532 H572 0.950 . S
C533 C532 1.439 . S
C533 N534 1.374 . S
C533 C567 1.395 . S
N534 C530 1.376 . S
N534 C533 1.374 . S
N534 Co535 2.008 . S
Co535 N534 2.008 . S
Co535 N536 1.995 . S
Co535 N541 2.008 . S
Co535 N546 1.995 . S
Co535 N551 2.282 . S
Co535 N557 2.282 . S
N536 Co535 1.995 . S
N536 C537 1.376 . S
N536 C540 1.383 . S
C537 N536 1.376 . S
C537 C538 1.446 . S
C537 C567 1.391 . S
C538 C537 1.446 . S
C538 C539 1.339 . S
C538 H573 0.949 . S
C539 C538 1.339 . S
C539 C540 1.439 . S
C539 H574 0.950 . S
C540 N536 1.383 . S
C540 C539 1.439 . S
C540 C569 1.392 . S
N541 Co535 2.008 . S
N541 C542 1.376 . S
N541 C545 1.374 . S
C542 N541 1.376 . S
C542 C543 1.443 . S
C542 C569 1.389 . S
C543 C542 1.443 . S
C543 C544 1.340 . S
C543 H575 0.951 . S
C544 C543 1.340 . S
C544 C545 1.439 . S
C544 H576 0.950 . S
C545 N541 1.374 . S
C545 C544 1.439 . S
C545 C570 1.395 . S
N546 Co535 1.995 . S
N546 C547 1.376 . S
N546 C550 1.383 . S
C547 N546 1.376 . S
C547 C548 1.446 . S
C547 C570 1.391 . S
C548 C547 1.446 . S
C548 C549 1.339 . S
C548 H577 0.949 . S
C549 C548 1.339 . S
C549 C550 1.439 . S
C549 H578 0.950 . S
C550 N546 1.383 . S
C550 C549 1.439 . S
C550 C568 1.392 . S
N551 Co535 2.282 . S
N551 C554 1.332 . S
N551 C556 1.332 . S
C552 C553 1.386 . S
C552 C555 1.388 . S
C553 C552 1.386 . S
C553 C554 1.382 . S
C553 H579 0.950 . S
C554 N551 1.332 . S
C554 C553 1.382 . S
C554 H565 0.952 . S
C555 C552 1.388 . S
C555 C556 1.382 . S
C555 H580 0.950 . S
C556 N551 1.332 . S
C556 C555 1.382 . S
C556 H566 0.948 . S
N557 Co535 2.282 . S
N557 C561 1.332 . S
N557 C562 1.332 . S
C558 C559 1.388 . S
C558 C562 1.382 . S
C558 H581 0.950 . S
C559 C558 1.388 . S
C559 C560 1.386 . S
C560 C559 1.386 . S
C560 C561 1.382 . S
C560 H582 0.950 . S
C561 N557 1.332 . S
C561 C560 1.382 . S
C561 H563 0.952 . S
C562 N557 1.332 . S
C562 C558 1.382 . S
C562 H564 0.948 . S
H563 C561 0.952 . S
H564 C562 0.948 . S
H565 C554 0.952 . S
H566 C556 0.948 . S
C567 C533 1.395 . S
C567 C537 1.391 . S
C568 C530 1.389 . S
C568 C550 1.392 . S
C569 C540 1.392 . S
C569 C542 1.389 . S
C570 C545 1.395 . S
C570 C547 1.391 . S
H571 C531 0.951 . S
H572 C532 0.950 . S
H573 C538 0.949 . S
H574 C539 0.950 . S
H575 C543 0.951 . S
H576 C544 0.950 . S
H577 C548 0.949 . S
H578 C549 0.950 . S
H579 C553 0.950 . S
H580 C555 0.950 . S
H581 C558 0.950 . S
H582 C560 0.950 . S
C583 C584 1.443 . S
C583 N587 1.376 . S
C583 C621 1.389 . S
C584 C583 1.443 . S
C584 C585 1.340 . S
C584 H624 0.951 . S
C585 C584 1.340 . S
C585 C586 1.439 . S
C585 H625 0.950 . S
C586 C585 1.439 . S
C586 N587 1.374 . S
C586 C620 1.395 . S
N587 C583 1.376 . S
N587 C586 1.374 . S
N587 Co588 2.008 . S
Co588 N587 2.008 . S
Co588 N589 1.995 . S
Co588 N594 2.008 . S
Co588 N599 1.995 . S
Co588 N604 2.282 . S
Co588 N610 2.282 . S
N589 Co588 1.995 . S
N589 C590 1.376 . S
N589 C593 1.383 . S
C590 N589 1.376 . S
C590 C591 1.446 . S
C590 C620 1.391 . S
C591 C590 1.446 . S
C591 C592 1.339 . S
C591 H626 0.949 . S
C592 C591 1.339 . S
C592 C593 1.439 . S
C592 H627 0.950 . S
C593 N589 1.383 . S
C593 C592 1.439 . S
C593 C622 1.392 . S
N594 Co588 2.008 . S
N594 C595 1.376 . S
N594 C598 1.374 . S
C595 N594 1.376 . S
C595 C596 1.443 . S
C595 C622 1.389 . S
C596 C595 1.443 . S
C596 C597 1.340 . S
C596 H628 0.951 . S
C597 C596 1.340 . S
C597 C598 1.439 . S
C597 H629 0.950 . S
C598 N594 1.374 . S
C598 C597 1.439 . S
C598 C623 1.395 . S
N599 Co588 1.995 . S
N599 C600 1.376 . S
N599 C603 1.383 . S
C600 N599 1.376 . S
C600 C601 1.446 . S
C600 C623 1.391 . S
C601 C600 1.446 . S
C601 C602 1.339 . S
C601 H630 0.949 . S
C602 C601 1.339 . S
C602 C603 1.439 . S
C602 H631 0.950 . S
C603 N599 1.383 . S
C603 C602 1.439 . S
C603 C621 1.392 . S
N604 Co588 2.282 . S
N604 C607 1.332 . S
N604 C609 1.332 . S
C605 C606 1.386 . S
C605 C608 1.388 . S
C606 C605 1.386 . S
C606 C607 1.382 . S
C606 H632 0.950 . S
C607 N604 1.332 . S
C607 C606 1.382 . S
C607 H618 0.952 . S
C608 C605 1.388 . S
C608 C609 1.382 . S
C608 H633 0.950 . S
C609 N604 1.332 . S
C609 C608 1.382 . S
C609 H619 0.948 . S
N610 Co588 2.282 . S
N610 C614 1.332 . S
N610 C615 1.332 . S
C611 C612 1.388 . S
C611 C615 1.382 1_655 S
C611 H634 0.950 . S
C612 C611 1.388 . S
C612 C613 1.386 . S
C613 C612 1.386 . S
C613 C614 1.382 1_655 S
C613 H635 0.950 . S
C614 N610 1.332 . S
C614 C613 1.382 1_455 S
C614 H616 0.952 . S
C615 N610 1.332 . S
C615 C611 1.382 1_455 S
C615 H617 0.948 . S
H616 C614 0.952 . S
H617 C615 0.948 . S
H618 C607 0.952 . S
H619 C609 0.948 . S
C620 C586 1.395 . S
C620 C590 1.391 . S
C621 C583 1.389 . S
C621 C603 1.392 . S
C622 C593 1.392 . S
C622 C595 1.389 . S
C623 C598 1.395 . S
C623 C600 1.391 . S
H624 C584 0.951 . S
H625 C585 0.950 . S
H626 C591 0.949 . S
H627 C592 0.950 . S
H628 C596 0.951 . S
H629 C597 0.950 . S
H630 C601 0.949 . S
H631 C602 0.950 . S
H632 C606 0.950 . S
H633 C608 0.950 . S
H634 C611 0.950 . S
H635 C613 0.950 . S
C636 C637 1.443 . S
C636 N640 1.376 . S
C636 C674 1.389 . S
C637 C636 1.443 . S
C637 C638 1.340 . S
C637 H677 0.951 . S
C638 C637 1.340 . S
C638 C639 1.439 . S
C638 H678 0.950 . S
C639 C638 1.439 . S
C639 N640 1.374 . S
C639 C673 1.395 . S
N640 C636 1.376 . S
N640 C639 1.374 . S
N640 Co641 2.008 . S
Co641 N640 2.008 . S
Co641 N642 1.995 . S
Co641 N647 2.008 . S
Co641 N652 1.995 . S
Co641 N657 2.282 . S
Co641 N663 2.282 . S
N642 Co641 1.995 . S
N642 C643 1.376 . S
N642 C646 1.383 . S
C643 N642 1.376 . S
C643 C644 1.446 . S
C643 C673 1.391 . S
C644 C643 1.446 . S
C644 C645 1.339 . S
C644 H679 0.949 . S
C645 C644 1.339 . S
C645 C646 1.439 . S
C645 H680 0.950 . S
C646 N642 1.383 . S
C646 C645 1.439 . S
C646 C675 1.392 . S
N647 Co641 2.008 . S
N647 C648 1.376 . S
N647 C651 1.374 . S
C648 N647 1.376 . S
C648 C649 1.443 . S
C648 C675 1.389 . S
C649 C648 1.443 . S
C649 C650 1.340 . S
C649 H681 0.951 . S
C650 C649 1.340 . S
C650 C651 1.439 . S
C650 H682 0.950 . S
C651 N647 1.374 . S
C651 C650 1.439 . S
C651 C676 1.395 . S
N652 Co641 1.995 . S
N652 C653 1.376 . S
N652 C656 1.383 . S
C653 N652 1.376 . S
C653 C654 1.446 . S
C653 C676 1.391 . S
C654 C653 1.446 . S
C654 C655 1.339 . S
C654 H683 0.949 . S
C655 C654 1.339 . S
C655 C656 1.439 . S
C655 H684 0.950 . S
C656 N652 1.383 . S
C656 C655 1.439 . S
C656 C674 1.392 . S
N657 Co641 2.282 . S
N657 C660 1.332 . S
N657 C662 1.332 . S
C658 C659 1.386 . S
C658 C661 1.388 . S
C659 C658 1.386 . S
C659 C660 1.382 . S
C659 H685 0.950 . S
C660 N657 1.332 . S
C660 C659 1.382 . S
C660 H671 0.952 . S
C661 C658 1.388 . S
C661 C662 1.382 . S
C661 H686 0.950 . S
C662 N657 1.332 . S
C662 C661 1.382 . S
C662 H672 0.948 . S
N663 Co641 2.282 . S
N663 C667 1.332 . S
N663 C668 1.332 . S
C664 C665 1.388 . S
C664 C668 1.382 . S
C664 H687 0.950 . S
C665 C664 1.388 . S
C665 C666 1.386 . S
C666 C665 1.386 . S
C666 C667 1.382 . S
C666 H688 0.950 . S
C667 N663 1.332 . S
C667 C666 1.382 . S
C667 H669 0.952 . S
C668 N663 1.332 . S
C668 C664 1.382 . S
C668 H670 0.948 . S
H669 C667 0.952 . S
H670 C668 0.948 . S
H671 C660 0.952 . S
H672 C662 0.948 . S
C673 C639 1.395 . S
C673 C643 1.391 . S
C674 C636 1.389 . S
C674 C656 1.392 . S
C675 C646 1.392 . S
C675 C648 1.389 . S
C676 C651 1.395 . S
C676 C653 1.391 . S
H677 C637 0.951 . S
H678 C638 0.950 . S
H679 C644 0.949 . S
H680 C645 0.950 . S
H681 C649 0.951 . S
H682 C650 0.950 . S
H683 C654 0.949 . S
H684 C655 0.950 . S
H685 C659 0.950 . S
H686 C661 0.950 . S
H687 C664 0.950 . S
H688 C666 0.950 . S
C689 C690 1.443 . S
C689 N693 1.376 . S
C689 C727 1.389 . S
C690 C689 1.443 . S
C690 C691 1.340 . S
C690 H730 0.951 . S
C691 C690 1.340 . S
C691 C692 1.439 . S
C691 H731 0.950 . S
C692 C691 1.439 . S
C692 N693 1.374 . S
C692 C726 1.395 . S
N693 C689 1.376 . S
N693 C692 1.374 . S
N693 Co694 2.008 . S
Co694 N693 2.008 . S
Co694 N695 1.995 . S
Co694 N700 2.008 . S
Co694 N705 1.995 . S
Co694 N710 2.282 . S
Co694 N716 2.282 . S
N695 Co694 1.995 . S
N695 C696 1.376 . S
N695 C699 1.383 . S
C696 N695 1.376 . S
C696 C697 1.446 . S
C696 C726 1.391 . S
C697 C696 1.446 . S
C697 C698 1.339 . S
C697 H732 0.949 . S
C698 C697 1.339 . S
C698 C699 1.439 . S
C698 H733 0.950 . S
C699 N695 1.383 . S
C699 C698 1.439 . S
C699 C728 1.392 . S
N700 Co694 2.008 . S
N700 C701 1.376 . S
N700 C704 1.374 . S
C701 N700 1.376 . S
C701 C702 1.443 . S
C701 C728 1.389 . S
C702 C701 1.443 . S
C702 C703 1.340 . S
C702 H734 0.951 . S
C703 C702 1.340 . S
C703 C704 1.439 . S
C703 H735 0.950 . S
C704 N700 1.374 . S
C704 C703 1.439 . S
C704 C729 1.395 . S
N705 Co694 1.995 . S
N705 C706 1.376 . S
N705 C709 1.383 . S
C706 N705 1.376 . S
C706 C707 1.446 . S
C706 C729 1.391 . S
C707 C706 1.446 . S
C707 C708 1.339 . S
C707 H736 0.949 . S
C708 C707 1.339 . S
C708 C709 1.439 . S
C708 H737 0.950 . S
C709 N705 1.383 . S
C709 C708 1.439 . S
C709 C727 1.392 . S
N710 Co694 2.282 . S
N710 C713 1.332 . S
N710 C715 1.332 . S
C711 C712 1.386 . S
C711 C714 1.388 . S
C712 C711 1.386 . S
C712 C713 1.382 . S
C712 H738 0.950 . S
C713 N710 1.332 . S
C713 C712 1.382 . S
C713 H724 0.952 . S
C714 C711 1.388 . S
C714 C715 1.382 . S
C714 H739 0.950 . S
C715 N710 1.332 . S
C715 C714 1.382 . S
C715 H725 0.948 . S
N716 Co694 2.282 . S
N716 C720 1.332 . S
N716 C721 1.332 . S
C717 C718 1.388 . S
C717 C721 1.382 1_455 S
C717 H740 0.950 . S
C718 C717 1.388 . S
C718 C719 1.386 . S
C719 C718 1.386 . S
C719 C720 1.382 1_455 S
C719 H741 0.950 . S
C720 N716 1.332 . S
C720 C719 1.382 1_655 S
C720 H722 0.952 . S
C721 N716 1.332 . S
C721 C717 1.382 1_655 S
C721 H723 0.948 . S
H722 C720 0.952 . S
H723 C721 0.948 . S
H724 C713 0.952 . S
H725 C715 0.948 . S
C726 C692 1.395 . S
C726 C696 1.391 . S
C727 C689 1.389 . S
C727 C709 1.392 . S
C728 C699 1.392 . S
C728 C701 1.389 . S
C729 C704 1.395 . S
C729 C706 1.391 . S
H730 C690 0.951 . S
H731 C691 0.950 . S
H732 C697 0.949 . S
H733 C698 0.950 . S
H734 C702 0.951 . S
H735 C703 0.950 . S
H736 C707 0.949 . S
H737 C708 0.950 . S
H738 C712 0.950 . S
H739 C714 0.950 . S
H740 C717 0.950 . S
H741 C719 0.950 . S
C742 C743 1.443 . S
C742 N746 1.376 . S
C742 C780 1.389 . S
C743 C742 1.443 . S
C743 C744 1.340 . S
C743 H783 0.951 . S
C744 C743 1.340 . S
C744 C745 1.439 . S
C744 H784 0.950 . S
C745 C744 1.439 . S
C745 N746 1.374 . S
C745 C779 1.395 . S
N746 C742 1.376 . S
N746 C745 1.374 . S
N746 Co747 2.008 . S
Co747 N746 2.008 . S
Co747 N748 1.995 . S
Co747 N753 2.008 . S
Co747 N758 1.995 . S
Co747 N763 2.282 . S
Co747 N769 2.282 . S
N748 Co747 1.995 . S
N748 C749 1.376 . S
N748 C752 1.383 . S
C749 N748 1.376 . S
C749 C750 1.446 . S
C749 C779 1.391 . S
C750 C749 1.446 . S
C750 C751 1.339 . S
C750 H785 0.949 . S
C751 C750 1.339 . S
C751 C752 1.439 . S
C751 H786 0.950 . S
C752 N748 1.383 . S
C752 C751 1.439 . S
C752 C781 1.392 . S
N753 Co747 2.008 . S
N753 C754 1.376 . S
N753 C757 1.374 . S
C754 N753 1.376 . S
C754 C755 1.443 . S
C754 C781 1.389 . S
C755 C754 1.443 . S
C755 C756 1.340 . S
C755 H787 0.951 . S
C756 C755 1.340 . S
C756 C757 1.439 . S
C756 H788 0.950 . S
C757 N753 1.374 . S
C757 C756 1.439 . S
C757 C782 1.395 . S
N758 Co747 1.995 . S
N758 C759 1.376 . S
N758 C762 1.383 . S
C759 N758 1.376 . S
C759 C760 1.446 . S
C759 C782 1.391 . S
C760 C759 1.446 . S
C760 C761 1.339 . S
C760 H789 0.949 . S
C761 C760 1.339 . S
C761 C762 1.439 . S
C761 H790 0.950 . S
C762 N758 1.383 . S
C762 C761 1.439 . S
C762 C780 1.392 . S
N763 Co747 2.282 . S
N763 C766 1.332 . S
N763 C768 1.332 . S
C764 C765 1.386 . S
C764 C767 1.388 . S
C765 C764 1.386 . S
C765 C766 1.382 . S
C765 H791 0.950 . S
C766 N763 1.332 . S
C766 C765 1.382 . S
C766 H777 0.952 . S
C767 C764 1.388 . S
C767 C768 1.382 . S
C767 H792 0.950 . S
C768 N763 1.332 . S
C768 C767 1.382 . S
C768 H778 0.948 . S
N769 Co747 2.282 . S
N769 C773 1.332 . S
N769 C774 1.332 . S
C770 C771 1.388 . S
C770 C774 1.382 . S
C770 H793 0.950 . S
C771 C770 1.388 . S
C771 C772 1.386 . S
C772 C771 1.386 . S
C772 C773 1.382 . S
C772 H794 0.950 . S
C773 N769 1.332 . S
C773 C772 1.382 . S
C773 H775 0.952 . S
C774 N769 1.332 . S
C774 C770 1.382 . S
C774 H776 0.948 . S
H775 C773 0.952 . S
H776 C774 0.948 . S
H777 C766 0.952 . S
H778 C768 0.948 . S
C779 C745 1.395 . S
C779 C749 1.391 . S
C780 C742 1.389 . S
C780 C762 1.392 . S
C781 C752 1.392 . S
C781 C754 1.389 . S
C782 C757 1.395 . S
C782 C759 1.391 . S
H783 C743 0.951 . S
H784 C744 0.950 . S
H785 C750 0.949 . S
H786 C751 0.950 . S
H787 C755 0.951 . S
H788 C756 0.950 . S
H789 C760 0.949 . S
H790 C761 0.950 . S
H791 C765 0.950 . S
H792 C767 0.950 . S
H793 C770 0.950 . S
H794 C772 0.950 . S
C795 C796 1.443 . S
C795 N799 1.376 . S
C795 C833 1.389 . S
C796 C795 1.443 . S
C796 C797 1.340 . S
C796 H836 0.951 . S
C797 C796 1.340 . S
C797 C798 1.439 . S
C797 H837 0.950 . S
C798 C797 1.439 . S
C798 N799 1.374 . S
C798 C832 1.395 . S
N799 C795 1.376 . S
N799 C798 1.374 . S
N799 Co800 2.008 . S
Co800 N799 2.008 . S
Co800 N801 1.995 . S
Co800 N806 2.008 . S
Co800 N811 1.995 . S
Co800 N816 2.282 . S
Co800 N822 2.282 . S
N801 Co800 1.995 . S
N801 C802 1.376 . S
N801 C805 1.383 . S
C802 N801 1.376 . S
C802 C803 1.446 . S
C802 C832 1.391 . S
C803 C802 1.446 . S
C803 C804 1.339 . S
C803 H838 0.949 . S
C804 C803 1.339 . S
C804 C805 1.439 . S
C804 H839 0.950 . S
C805 N801 1.383 . S
C805 C804 1.439 . S
C805 C834 1.392 . S
N806 Co800 2.008 . S
N806 C807 1.376 . S
N806 C810 1.374 . S
C807 N806 1.376 . S
C807 C808 1.443 . S
C807 C834 1.389 . S
C808 C807 1.443 . S
C808 C809 1.340 . S
C808 H840 0.951 . S
C809 C808 1.340 . S
C809 C810 1.439 . S
C809 H841 0.950 . S
C810 N806 1.374 . S
C810 C809 1.439 . S
C810 C835 1.395 . S
N811 Co800 1.995 . S
N811 C812 1.376 . S
N811 C815 1.383 . S
C812 N811 1.376 . S
C812 C813 1.446 . S
C812 C835 1.391 . S
C813 C812 1.446 . S
C813 C814 1.339 . S
C813 H842 0.949 . S
C814 C813 1.339 . S
C814 C815 1.439 . S
C814 H843 0.950 . S
C815 N811 1.383 . S
C815 C814 1.439 . S
C815 C833 1.392 . S
N816 Co800 2.282 . S
N816 C819 1.332 . S
N816 C821 1.332 . S
C817 C818 1.386 . S
C817 C820 1.388 . S
C818 C817 1.386 . S
C818 C819 1.382 . S
C818 H844 0.950 . S
C819 N816 1.332 . S
C819 C818 1.382 . S
C819 H830 0.952 . S
C820 C817 1.388 . S
C820 C821 1.382 . S
C820 H845 0.950 . S
C821 N816 1.332 . S
C821 C820 1.382 . S
C821 H831 0.948 . S
N822 Co800 2.282 . S
N822 C826 1.332 . S
N822 C827 1.332 . S
C823 C824 1.388 . S
C823 C827 1.382 1_455 S
C823 H846 0.950 . S
C824 C823 1.388 . S
C824 C825 1.386 . S
C825 C824 1.386 . S
C825 C826 1.382 1_455 S
C825 H847 0.950 . S
C826 N822 1.332 . S
C826 C825 1.382 1_655 S
C826 H828 0.952 . S
C827 N822 1.332 . S
C827 C823 1.382 1_655 S
C827 H829 0.948 . S
H828 C826 0.952 . S
H829 C827 0.948 . S
H830 C819 0.952 . S
H831 C821 0.948 . S
C832 C798 1.395 . S
C832 C802 1.391 . S
C833 C795 1.389 . S
C833 C815 1.392 . S
C834 C805 1.392 . S
C834 C807 1.389 . S
C835 C810 1.395 . S
C835 C812 1.391 . S
H836 C796 0.951 . S
H837 C797 0.950 . S
H838 C803 0.949 . S
H839 C804 0.950 . S
H840 C808 0.951 . S
H841 C809 0.950 . S
H842 C813 0.949 . S
H843 C814 0.950 . S
H844 C818 0.950 . S
H845 C820 0.950 . S
H846 C823 0.950 . S
H847 C825 0.950 . S
C848 C849 1.443 . S
C848 N852 1.376 . S
C848 C886 1.389 . S
C849 C848 1.443 . S
C849 C850 1.340 . S
C849 H889 0.951 . S
C850 C849 1.340 . S
C850 C851 1.439 . S
C850 H890 0.950 . S
C851 C850 1.439 . S
C851 N852 1.374 . S
C851 C885 1.395 . S
N852 C848 1.376 . S
N852 C851 1.374 . S
N852 Co853 2.008 . S
Co853 N852 2.008 . S
Co853 N854 1.995 . S
Co853 N859 2.008 . S
Co853 N864 1.995 . S
Co853 N869 2.282 . S
Co853 N875 2.282 . S
N854 Co853 1.995 . S
N854 C855 1.376 . S
N854 C858 1.383 . S
C855 N854 1.376 . S
C855 C856 1.446 . S
C855 C885 1.391 . S
C856 C855 1.446 . S
C856 C857 1.339 . S
C856 H891 0.949 . S
C857 C856 1.339 . S
C857 C858 1.439 . S
C857 H892 0.950 . S
C858 N854 1.383 . S
C858 C857 1.439 . S
C858 C887 1.392 . S
N859 Co853 2.008 . S
N859 C860 1.376 . S
N859 C863 1.374 . S
C860 N859 1.376 . S
C860 C861 1.443 . S
C860 C887 1.389 . S
C861 C860 1.443 . S
C861 C862 1.340 . S
C861 H893 0.951 . S
C862 C861 1.340 . S
C862 C863 1.439 . S
C862 H894 0.950 . S
C863 N859 1.374 . S
C863 C862 1.439 . S
C863 C888 1.395 . S
N864 Co853 1.995 . S
N864 C865 1.376 . S
N864 C868 1.383 . S
C865 N864 1.376 . S
C865 C866 1.446 . S
C865 C888 1.391 . S
C866 C865 1.446 . S
C866 C867 1.339 . S
C866 H895 0.949 . S
C867 C866 1.339 . S
C867 C868 1.439 . S
C867 H896 0.950 . S
C868 N864 1.383 . S
C868 C867 1.439 . S
C868 C886 1.392 . S
N869 Co853 2.282 . S
N869 C872 1.332 . S
N869 C874 1.332 . S
C870 C871 1.386 . S
C870 C873 1.388 . S
C871 C870 1.386 . S
C871 C872 1.382 . S
C871 H897 0.950 . S
C872 N869 1.332 . S
C872 C871 1.382 . S
C872 H883 0.952 . S
C873 C870 1.388 . S
C873 C874 1.382 . S
C873 H898 0.950 . S
C874 N869 1.332 . S
C874 C873 1.382 . S
C874 H884 0.948 . S
N875 Co853 2.282 . S
N875 C879 1.332 . S
N875 C880 1.332 . S
C876 C877 1.388 . S
C876 C880 1.382 . S
C876 H899 0.950 . S
C877 C876 1.388 . S
C877 C878 1.386 . S
C878 C877 1.386 . S
C878 C879 1.382 . S
C878 H900 0.950 . S
C879 N875 1.332 . S
C879 C878 1.382 . S
C879 H881 0.952 . S
C880 N875 1.332 . S
C880 C876 1.382 . S
C880 H882 0.948 . S
H881 C879 0.952 . S
H882 C880 0.948 . S
H883 C872 0.952 . S
H884 C874 0.948 . S
C885 C851 1.395 . S
C885 C855 1.391 . S
C886 C848 1.389 . S
C886 C868 1.392 . S
C887 C858 1.392 . S
C887 C860 1.389 . S
C888 C863 1.395 . S
C888 C865 1.391 . S
H889 C849 0.951 . S
H890 C850 0.950 . S
H891 C856 0.949 . S
H892 C857 0.950 . S
H893 C861 0.951 . S
H894 C862 0.950 . S
H895 C866 0.949 . S
H896 C867 0.950 . S
H897 C871 0.950 . S
H898 C873 0.950 . S
H899 C876 0.950 . S
H900 C878 0.950 . S
C901 C902 1.443 . S
C901 N905 1.376 . S
C901 C939 1.389 . S
C902 C901 1.443 . S
C902 C903 1.340 . S
C902 H942 0.951 . S
C903 C902 1.340 . S
C903 C904 1.439 . S
C903 H943 0.950 . S
C904 C903 1.439 . S
C904 N905 1.374 . S
C904 C938 1.395 . S
N905 C901 1.376 . S
N905 C904 1.374 . S
N905 Co906 2.008 . S
Co906 N905 2.008 . S
Co906 N907 1.995 . S
Co906 N912 2.008 . S
Co906 N917 1.995 . S
Co906 N922 2.282 . S
Co906 N928 2.282 . S
N907 Co906 1.995 . S
N907 C908 1.376 . S
N907 C911 1.383 . S
C908 N907 1.376 . S
C908 C909 1.446 . S
C908 C938 1.391 . S
C909 C908 1.446 . S
C909 C910 1.339 . S
C909 H944 0.949 . S
C910 C909 1.339 . S
C910 C911 1.439 . S
C910 H945 0.950 . S
C911 N907 1.383 . S
C911 C910 1.439 . S
C911 C940 1.392 . S
N912 Co906 2.008 . S
N912 C913 1.376 . S
N912 C916 1.374 . S
C913 N912 1.376 . S
C913 C914 1.443 . S
C913 C940 1.389 . S
C914 C913 1.443 . S
C914 C915 1.340 . S
C914 H946 0.951 . S
C915 C914 1.340 . S
C915 C916 1.439 . S
C915 H947 0.950 . S
C916 N912 1.374 . S
C916 C915 1.439 . S
C916 C941 1.395 . S
N917 Co906 1.995 . S
N917 C918 1.376 . S
N917 C921 1.383 . S
C918 N917 1.376 . S
C918 C919 1.446 . S
C918 C941 1.391 . S
C919 C918 1.446 . S
C919 C920 1.339 . S
C919 H948 0.949 . S
C920 C919 1.339 . S
C920 C921 1.439 . S
C920 H949 0.950 . S
C921 N917 1.383 . S
C921 C920 1.439 . S
C921 C939 1.392 . S
N922 Co906 2.282 . S
N922 C925 1.332 . S
N922 C927 1.332 . S
C923 C924 1.386 . S
C923 C926 1.388 . S
C924 C923 1.386 . S
C924 C925 1.382 . S
C924 H950 0.950 . S
C925 N922 1.332 . S
C925 C924 1.382 . S
C925 H936 0.952 . S
C926 C923 1.388 . S
C926 C927 1.382 . S
C926 H951 0.950 . S
C927 N922 1.332 . S
C927 C926 1.382 . S
C927 H937 0.948 . S
N928 Co906 2.282 . S
N928 C932 1.332 . S
N928 C933 1.332 . S
C929 C930 1.388 . S
C929 C933 1.382 . S
C929 H952 0.950 . S
C930 C929 1.388 . S
C930 C931 1.386 . S
C931 C930 1.386 . S
C931 C932 1.382 . S
C931 H953 0.950 . S
C932 N928 1.332 . S
C932 C931 1.382 . S
C932 H934 0.952 . S
C933 N928 1.332 . S
C933 C929 1.382 . S
C933 H935 0.948 . S
H934 C932 0.952 . S
H935 C933 0.948 . S
H936 C925 0.952 . S
H937 C927 0.948 . S
C938 C904 1.395 . S
C938 C908 1.391 . S
C939 C901 1.389 . S
C939 C921 1.392 . S
C940 C911 1.392 . S
C940 C913 1.389 . S
C941 C916 1.395 . S
C941 C918 1.391 . S
H942 C902 0.951 . S
H943 C903 0.950 . S
H944 C909 0.949 . S
H945 C910 0.950 . S
H946 C914 0.951 . S
H947 C915 0.950 . S
H948 C919 0.949 . S
H949 C920 0.950 . S
H950 C924 0.950 . S
H951 C926 0.950 . S
H952 C929 0.950 . S
H953 C931 0.950 . S
C954 C955 1.443 . S
C954 N958 1.376 . S
C954 C992 1.389 . S
C955 C954 1.443 . S
C955 C956 1.340 . S
C955 H995 0.951 . S
C956 C955 1.340 . S
C956 C957 1.439 . S
C956 H996 0.950 . S
C957 C956 1.439 . S
C957 N958 1.374 . S
C957 C991 1.395 . S
N958 C954 1.376 . S
N958 C957 1.374 . S
N958 Co959 2.008 . S
Co959 N958 2.008 . S
Co959 N960 1.995 . S
Co959 N965 2.008 . S
Co959 N970 1.995 . S
Co959 N975 2.282 . S
Co959 N981 2.282 . S
N960 Co959 1.995 . S
N960 C961 1.376 . S
N960 C964 1.383 . S
C961 N960 1.376 . S
C961 C962 1.446 . S
C961 C991 1.391 . S
C962 C961 1.446 . S
C962 C963 1.339 . S
C962 H997 0.949 . S
C963 C962 1.339 . S
C963 C964 1.439 . S
C963 H998 0.950 . S
C964 N960 1.383 . S
C964 C963 1.439 . S
C964 C993 1.392 . S
N965 Co959 2.008 . S
N965 C966 1.376 . S
N965 C969 1.374 . S
C966 N965 1.376 . S
C966 C967 1.443 . S
C966 C993 1.389 . S
C967 C966 1.443 . S
C967 C968 1.340 . S
C967 H999 0.951 . S
C968 C967 1.340 . S
C968 C969 1.439 . S
C968 H1000 0.950 . S
C969 N965 1.374 . S
C969 C968 1.439 . S
C969 C994 1.395 . S
N970 Co959 1.995 . S
N970 C971 1.376 . S
N970 C974 1.383 . S
C971 N970 1.376 . S
C971 C972 1.446 . S
C971 C994 1.391 . S
C972 C971 1.446 . S
C972 C973 1.339 . S
C972 H1001 0.949 . S
C973 C972 1.339 . S
C973 C974 1.439 . S
C973 H1002 0.950 . S
C974 N970 1.383 . S
C974 C973 1.439 . S
C974 C992 1.392 . S
N975 Co959 2.282 . S
N975 C978 1.332 . S
N975 C980 1.332 . S
C976 C977 1.386 . S
C976 C979 1.388 . S
C977 C976 1.386 . S
C977 C978 1.382 . S
C977 H1003 0.950 . S
C978 N975 1.332 . S
C978 C977 1.382 . S
C978 H989 0.952 . S
C979 C976 1.388 . S
C979 C980 1.382 . S
C979 H1004 0.950 . S
C980 N975 1.332 . S
C980 C979 1.382 . S
C980 H990 0.948 . S
N981 Co959 2.282 . S
N981 C985 1.332 . S
N981 C986 1.332 . S
C982 C983 1.388 . S
C982 C986 1.382 . S
C982 H1005 0.950 . S
C983 C982 1.388 . S
C983 C984 1.386 . S
C984 C983 1.386 . S
C984 C985 1.382 . S
C984 H1006 0.950 . S
C985 N981 1.332 . S
C985 C984 1.382 . S
C985 H987 0.952 . S
C986 N981 1.332 . S
C986 C982 1.382 . S
C986 H988 0.948 . S
H987 C985 0.952 . S
H988 C986 0.948 . S
H989 C978 0.952 . S
H990 C980 0.948 . S
C991 C957 1.395 . S
C991 C961 1.391 . S
C992 C954 1.389 . S
C992 C974 1.392 . S
C993 C964 1.392 . S
C993 C966 1.389 . S
C994 C969 1.395 . S
C994 C971 1.391 . S
H995 C955 0.951 . S
H996 C956 0.950 . S
H997 C962 0.949 . S
H998 C963 0.950 . S
H999 C967 0.951 . S
H1000 C968 0.950 . S
H1001 C972 0.949 . S
H1002 C973 0.950 . S
H1003 C977 0.950 . S
H1004 C979 0.950 . S
H1005 C982 0.950 . S
H1006 C984 0.950 . S
C1007 C1008 1.443 . S
C1007 N1011 1.376 . S
C1007 C1045 1.389 . S
C1008 C1007 1.443 . S
C1008 C1009 1.340 . S
C1008 H1048 0.951 . S
C1009 C1008 1.340 . S
C1009 C1010 1.439 . S
C1009 H1049 0.950 . S
C1010 C1009 1.439 . S
C1010 N1011 1.374 . S
C1010 C1044 1.395 . S
N1011 C1007 1.376 . S
N1011 C1010 1.374 . S
N1011 Co1012 2.008 . S
Co1012 N1011 2.008 . S
Co1012 N1013 1.995 . S
Co1012 N1018 2.008 . S
Co1012 N1023 1.995 . S
Co1012 N1028 2.282 . S
Co1012 N1034 2.282 . S
N1013 Co1012 1.995 . S
N1013 C1014 1.376 . S
N1013 C1017 1.383 . S
C1014 N1013 1.376 . S
C1014 C1015 1.446 . S
C1014 C1044 1.391 . S
C1015 C1014 1.446 . S
C1015 C1016 1.339 . S
C1015 H1050 0.949 . S
C1016 C1015 1.339 . S
C1016 C1017 1.439 . S
C1016 H1051 0.950 . S
C1017 N1013 1.383 . S
C1017 C1016 1.439 . S
C1017 C1046 1.392 . S
N1018 Co1012 2.008 . S
N1018 C1019 1.376 . S
N1018 C1022 1.374 . S
C1019 N1018 1.376 . S
C1019 C1020 1.443 . S
C1019 C1046 1.389 . S
C1020 C1019 1.443 . S
C1020 C1021 1.340 . S
C1020 H1052 0.951 . S
C1021 C1020 1.340 . S
C1021 C1022 1.439 . S
C1021 H1053 0.950 . S
C1022 N1018 1.374 . S
C1022 C1021 1.439 . S
C1022 C1047 1.395 . S
N1023 Co1012 1.995 . S
N1023 C1024 1.376 . S
N1023 C1027 1.383 . S
C1024 N1023 1.376 . S
C1024 C1025 1.446 . S
C1024 C1047 1.391 . S
C1025 C1024 1.446 . S
C1025 C1026 1.339 . S
C1025 H1054 0.949 . S
C1026 C1025 1.339 . S
C1026 C1027 1.439 . S
C1026 H1055 0.950 . S
C1027 N1023 1.383 . S
C1027 C1026 1.439 . S
C1027 C1045 1.392 . S
N1028 Co1012 2.282 . S
N1028 C1031 1.332 . S
N1028 C1033 1.332 . S
C1029 C1030 1.386 . S
C1029 C1032 1.388 . S
C1030 C1029 1.386 . S
C1030 C1031 1.382 . S
C1030 H1056 0.950 . S
C1031 N1028 1.332 . S
C1031 C1030 1.382 . S
C1031 H1042 0.952 . S
C1032 C1029 1.388 . S
C1032 C1033 1.382 . S
C1032 H1057 0.950 . S
C1033 N1028 1.332 . S
C1033 C1032 1.382 . S
C1033 H1043 0.948 . S
N1034 Co1012 2.282 . S
N1034 C1038 1.332 . S
N1034 C1039 1.332 . S
C1035 C1036 1.388 . S
C1035 C1039 1.382 . S
C1035 H1058 0.950 . S
C1036 C1035 1.388 . S
C1036 C1037 1.386 . S
C1037 C1036 1.386 . S
C1037 C1038 1.382 . S
C1037 H1059 0.950 . S
C1038 N1034 1.332 . S
C1038 C1037 1.382 . S
C1038 H1040 0.952 . S
C1039 N1034 1.332 . S
C1039 C1035 1.382 . S
C1039 H1041 0.948 . S
H1040 C1038 0.952 . S
H1041 C1039 0.948 . S
H1042 C1031 0.952 . S
H1043 C1033 0.948 . S
C1044 C1010 1.395 . S
C1044 C1014 1.391 . S
C1045 C1007 1.389 . S
C1045 C1027 1.392 . S
C1046 C1017 1.392 . S
C1046 C1019 1.389 . S
C1047 C1022 1.395 . S
C1047 C1024 1.391 . S
H1048 C1008 0.951 . S
H1049 C1009 0.950 . S
H1050 C1015 0.949 . S
H1051 C1016 0.950 . S
H1052 C1020 0.951 . S
H1053 C1021 0.950 . S
H1054 C1025 0.949 . S
H1055 C1026 0.950 . S
H1056 C1030 0.950 . S
H1057 C1032 0.950 . S
H1058 C1035 0.950 . S
H1059 C1037 0.950 . S
C1060 C1061 1.443 . S
C1060 N1064 1.376 . S
C1060 C1098 1.389 . S
C1061 C1060 1.443 . S
C1061 C1062 1.340 . S
C1061 H1101 0.951 . S
C1062 C1061 1.340 . S
C1062 C1063 1.439 . S
C1062 H1102 0.950 . S
C1063 C1062 1.439 . S
C1063 N1064 1.374 . S
C1063 C1097 1.395 . S
N1064 C1060 1.376 . S
N1064 C1063 1.374 . S
N1064 Co1065 2.008 . S
Co1065 N1064 2.008 . S
Co1065 N1066 1.995 . S
Co1065 N1071 2.008 . S
Co1065 N1076 1.995 . S
Co1065 N1081 2.282 . S
Co1065 N1087 2.282 . S
N1066 Co1065 1.995 . S
N1066 C1067 1.376 . S
N1066 C1070 1.383 . S
C1067 N1066 1.376 . S
C1067 C1068 1.446 . S
C1067 C1097 1.391 . S
C1068 C1067 1.446 . S
C1068 C1069 1.339 . S
C1068 H1103 0.949 . S
C1069 C1068 1.339 . S
C1069 C1070 1.439 . S
C1069 H1104 0.950 . S
C1070 N1066 1.383 . S
C1070 C1069 1.439 . S
C1070 C1099 1.392 . S
N1071 Co1065 2.008 . S
N1071 C1072 1.376 . S
N1071 C1075 1.374 . S
C1072 N1071 1.376 . S
C1072 C1073 1.443 . S
C1072 C1099 1.389 . S
C1073 C1072 1.443 . S
C1073 C1074 1.340 . S
C1073 H1105 0.951 . S
C1074 C1073 1.340 . S
C1074 C1075 1.439 . S
C1074 H1106 0.950 . S
C1075 N1071 1.374 . S
C1075 C1074 1.439 . S
C1075 C1100 1.395 . S
N1076 Co1065 1.995 . S
N1076 C1077 1.376 . S
N1076 C1080 1.383 . S
C1077 N1076 1.376 . S
C1077 C1078 1.446 . S
C1077 C1100 1.391 . S
C1078 C1077 1.446 . S
C1078 C1079 1.339 . S
C1078 H1107 0.949 . S
C1079 C1078 1.339 . S
C1079 C1080 1.439 . S
C1079 H1108 0.950 . S
C1080 N1076 1.383 . S
C1080 C1079 1.439 . S
C1080 C1098 1.392 . S
N1081 Co1065 2.282 . S
N1081 C1084 1.332 . S
N1081 C1086 1.332 . S
C1082 C1083 1.386 . S
C1082 C1085 1.388 . S
C1083 C1082 1.386 . S
C1083 C1084 1.382 . S
C1083 H1109 0.950 . S
C1084 N1081 1.332 . S
C1084 C1083 1.382 . S
C1084 H1095 0.952 . S
C1085 C1082 1.388 . S
C1085 C1086 1.382 . S
C1085 H1110 0.950 . S
C1086 N1081 1.332 . S
C1086 C1085 1.382 . S
C1086 H1096 0.948 . S
N1087 Co1065 2.282 . S
N1087 C1091 1.332 . S
N1087 C1092 1.332 . S
C1088 C1089 1.388 . S
C1088 C1092 1.382 . S
C1088 H1111 0.950 . S
C1089 C1088 1.388 . S
C1089 C1090 1.386 . S
C1090 C1089 1.386 . S
C1090 C1091 1.382 . S
C1090 H1112 0.950 . S
C1091 N1087 1.332 . S
C1091 C1090 1.382 . S
C1091 H1093 0.952 . S
C1092 N1087 1.332 . S
C1092 C1088 1.382 . S
C1092 H1094 0.948 . S
H1093 C1091 0.952 . S
H1094 C1092 0.948 . S
H1095 C1084 0.952 . S
H1096 C1086 0.948 . S
C1097 C1063 1.395 . S
C1097 C1067 1.391 . S
C1098 C1060 1.389 . S
C1098 C1080 1.392 . S
C1099 C1070 1.392 . S
C1099 C1072 1.389 . S
C1100 C1075 1.395 . S
C1100 C1077 1.391 . S
H1101 C1061 0.951 . S
H1102 C1062 0.950 . S
H1103 C1068 0.949 . S
H1104 C1069 0.950 . S
H1105 C1073 0.951 . S
H1106 C1074 0.950 . S
H1107 C1078 0.949 . S
H1108 C1079 0.950 . S
H1109 C1083 0.950 . S
H1110 C1085 0.950 . S
H1111 C1088 0.950 . S
H1112 C1090 0.950 . S
C1113 C1114 1.443 . S
C1113 N1117 1.376 . S
C1113 C1151 1.389 . S
C1114 C1113 1.443 . S
C1114 C1115 1.340 . S
C1114 H1154 0.951 . S
C1115 C1114 1.340 . S
C1115 C1116 1.439 . S
C1115 H1155 0.950 . S
C1116 C1115 1.439 . S
C1116 N1117 1.374 . S
C1116 C1150 1.395 . S
N1117 C1113 1.376 . S
N1117 C1116 1.374 . S
N1117 Co1118 2.008 . S
Co1118 N1117 2.008 . S
Co1118 N1119 1.995 . S
Co1118 N1124 2.008 . S
Co1118 N1129 1.995 . S
Co1118 N1134 2.282 . S
Co1118 N1140 2.282 . S
N1119 Co1118 1.995 . S
N1119 C1120 1.376 . S
N1119 C1123 1.383 . S
C1120 N1119 1.376 . S
C1120 C1121 1.446 . S
C1120 C1150 1.391 . S
C1121 C1120 1.446 . S
C1121 C1122 1.339 . S
C1121 H1156 0.949 . S
C1122 C1121 1.339 . S
C1122 C1123 1.439 . S
C1122 H1157 0.950 . S
C1123 N1119 1.383 . S
C1123 C1122 1.439 . S
C1123 C1152 1.392 . S
N1124 Co1118 2.008 . S
N1124 C1125 1.376 . S
N1124 C1128 1.374 . S
C1125 N1124 1.376 . S
C1125 C1126 1.443 . S
C1125 C1152 1.389 . S
C1126 C1125 1.443 . S
C1126 C1127 1.340 . S
C1126 H1158 0.951 . S
C1127 C1126 1.340 . S
C1127 C1128 1.439 . S
C1127 H1159 0.950 . S
C1128 N1124 1.374 . S
C1128 C1127 1.439 . S
C1128 C1153 1.395 . S
N1129 Co1118 1.995 . S
N1129 C1130 1.376 . S
N1129 C1133 1.383 . S
C1130 N1129 1.376 . S
C1130 C1131 1.446 . S
C1130 C1153 1.391 . S
C1131 C1130 1.446 . S
C1131 C1132 1.339 . S
C1131 H1160 0.949 . S
C1132 C1131 1.339 . S
C1132 C1133 1.439 . S
C1132 H1161 0.950 . S
C1133 N1129 1.383 . S
C1133 C1132 1.439 . S
C1133 C1151 1.392 . S
N1134 Co1118 2.282 . S
N1134 C1137 1.332 . S
N1134 C1139 1.332 . S
C1135 C1136 1.386 . S
C1135 C1138 1.388 . S
C1136 C1135 1.386 . S
C1136 C1137 1.382 . S
C1136 H1162 0.950 . S
C1137 N1134 1.332 . S
C1137 C1136 1.382 . S
C1137 H1148 0.952 . S
C1138 C1135 1.388 . S
C1138 C1139 1.382 . S
C1138 H1163 0.950 . S
C1139 N1134 1.332 . S
C1139 C1138 1.382 . S
C1139 H1149 0.948 . S
N1140 Co1118 2.282 . S
N1140 C1144 1.332 . S
N1140 C1145 1.332 . S
C1141 C1142 1.388 . S
C1141 C1145 1.382 . S
C1141 H1164 0.950 . S
C1142 C1141 1.388 . S
C1142 C1143 1.386 . S
C1143 C1142 1.386 . S
C1143 C1144 1.382 . S
C1143 H1165 0.950 . S
C1144 N1140 1.332 . S
C1144 C1143 1.382 . S
C1144 H1146 0.952 . S
C1145 N1140 1.332 . S
C1145 C1141 1.382 . S
C1145 H1147 0.948 . S
H1146 C1144 0.952 . S
H1147 C1145 0.948 . S
H1148 C1137 0.952 . S
H1149 C1139 0.948 . S
C1150 C1116 1.395 . S
C1150 C1120 1.391 . S
C1151 C1113 1.389 . S
C1151 C1133 1.392 . S
C1152 C1123 1.392 . S
C1152 C1125 1.389 . S
C1153 C1128 1.395 . S
C1153 C1130 1.391 . S
H1154 C1114 0.951 . S
H1155 C1115 0.950 . S
H1156 C1121 0.949 . S
H1157 C1122 0.950 . S
H1158 C1126 0.951 . S
H1159 C1127 0.950 . S
H1160 C1131 0.949 . S
H1161 C1132 0.950 . S
H1162 C1136 0.950 . S
H1163 C1138 0.950 . S
H1164 C1141 0.950 . S
H1165 C1143 0.950 . S
C1166 C1167 1.443 . S
C1166 N1170 1.376 . S
C1166 C1204 1.389 . S
C1167 C1166 1.443 . S
C1167 C1168 1.340 . S
C1167 H1207 0.951 . S
C1168 C1167 1.340 . S
C1168 C1169 1.439 . S
C1168 H1208 0.950 . S
C1169 C1168 1.439 . S
C1169 N1170 1.374 . S
C1169 C1203 1.395 . S
N1170 C1166 1.376 . S
N1170 C1169 1.374 . S
N1170 Co1171 2.008 . S
Co1171 N1170 2.008 . S
Co1171 N1172 1.995 . S
Co1171 N1177 2.008 . S
Co1171 N1182 1.995 . S
Co1171 N1187 2.282 . S
Co1171 N1193 2.282 . S
N1172 Co1171 1.995 . S
N1172 C1173 1.376 . S
N1172 C1176 1.383 . S
C1173 N1172 1.376 . S
C1173 C1174 1.446 . S
C1173 C1203 1.391 . S
C1174 C1173 1.446 . S
C1174 C1175 1.339 . S
C1174 H1209 0.949 . S
C1175 C1174 1.339 . S
C1175 C1176 1.439 . S
C1175 H1210 0.950 . S
C1176 N1172 1.383 . S
C1176 C1175 1.439 . S
C1176 C1205 1.392 . S
N1177 Co1171 2.008 . S
N1177 C1178 1.376 . S
N1177 C1181 1.374 . S
C1178 N1177 1.376 . S
C1178 C1179 1.443 . S
C1178 C1205 1.389 . S
C1179 C1178 1.443 . S
C1179 C1180 1.340 . S
C1179 H1211 0.951 . S
C1180 C1179 1.340 . S
C1180 C1181 1.439 . S
C1180 H1212 0.950 . S
C1181 N1177 1.374 . S
C1181 C1180 1.439 . S
C1181 C1206 1.395 . S
N1182 Co1171 1.995 . S
N1182 C1183 1.376 . S
N1182 C1186 1.383 . S
C1183 N1182 1.376 . S
C1183 C1184 1.446 . S
C1183 C1206 1.391 . S
C1184 C1183 1.446 . S
C1184 C1185 1.339 . S
C1184 H1213 0.949 . S
C1185 C1184 1.339 . S
C1185 C1186 1.439 . S
C1185 H1214 0.950 . S
C1186 N1182 1.383 . S
C1186 C1185 1.439 . S
C1186 C1204 1.392 . S
N1187 Co1171 2.282 . S
N1187 C1190 1.332 . S
N1187 C1192 1.332 . S
C1188 C1189 1.386 . S
C1188 C1191 1.388 . S
C1189 C1188 1.386 . S
C1189 C1190 1.382 . S
C1189 H1215 0.950 . S
C1190 N1187 1.332 . S
C1190 C1189 1.382 . S
C1190 H1201 0.952 . S
C1191 C1188 1.388 . S
C1191 C1192 1.382 . S
C1191 H1216 0.950 . S
C1192 N1187 1.332 . S
C1192 C1191 1.382 . S
C1192 H1202 0.948 . S
N1193 Co1171 2.282 . S
N1193 C1197 1.332 . S
N1193 C1198 1.332 . S
C1194 C1195 1.388 . S
C1194 C1198 1.382 . S
C1194 H1217 0.950 . S
C1195 C1194 1.388 . S
C1195 C1196 1.386 . S
C1196 C1195 1.386 . S
C1196 C1197 1.382 . S
C1196 H1218 0.950 . S
C1197 N1193 1.332 . S
C1197 C1196 1.382 . S
C1197 H1199 0.952 . S
C1198 N1193 1.332 . S
C1198 C1194 1.382 . S
C1198 H1200 0.948 . S
H1199 C1197 0.952 . S
H1200 C1198 0.948 . S
H1201 C1190 0.952 . S
H1202 C1192 0.948 . S
C1203 C1169 1.395 . S
C1203 C1173 1.391 . S
C1204 C1166 1.389 . S
C1204 C1186 1.392 . S
C1205 C1176 1.392 . S
C1205 C1178 1.389 . S
C1206 C1181 1.395 . S
C1206 C1183 1.391 . S
H1207 C1167 0.951 . S
H1208 C1168 0.950 . S
H1209 C1174 0.949 . S
H1210 C1175 0.950 . S
H1211 C1179 0.951 . S
H1212 C1180 0.950 . S
H1213 C1184 0.949 . S
H1214 C1185 0.950 . S
H1215 C1189 0.950 . S
H1216 C1191 0.950 . S
H1217 C1194 0.950 . S
H1218 C1196 0.950 . S
C1219 C1220 1.443 . S
C1219 N1223 1.376 . S
C1219 C1257 1.389 . S
C1220 C1219 1.443 . S
C1220 C1221 1.340 . S
C1220 H1260 0.951 . S
C1221 C1220 1.340 . S
C1221 C1222 1.439 . S
C1221 H1261 0.950 . S
C1222 C1221 1.439 . S
C1222 N1223 1.374 . S
C1222 C1256 1.395 . S
N1223 C1219 1.376 . S
N1223 C1222 1.374 . S
N1223 Co1224 2.008 . S
Co1224 N1223 2.008 . S
Co1224 N1225 1.995 . S
Co1224 N1230 2.008 . S
Co1224 N1235 1.995 . S
Co1224 N1240 2.282 . S
Co1224 N1246 2.282 . S
N1225 Co1224 1.995 . S
N1225 C1226 1.376 . S
N1225 C1229 1.383 . S
C1226 N1225 1.376 . S
C1226 C1227 1.446 . S
C1226 C1256 1.391 . S
C1227 C1226 1.446 . S
C1227 C1228 1.339 . S
C1227 H1262 0.949 . S
C1228 C1227 1.339 . S
C1228 C1229 1.439 . S
C1228 H1263 0.950 . S
C1229 N1225 1.383 . S
C1229 C1228 1.439 . S
C1229 C1258 1.392 . S
N1230 Co1224 2.008 . S
N1230 C1231 1.376 . S
N1230 C1234 1.374 . S
C1231 N1230 1.376 . S
C1231 C1232 1.443 . S
C1231 C1258 1.389 . S
C1232 C1231 1.443 . S
C1232 C1233 1.340 . S
C1232 H1264 0.951 . S
C1233 C1232 1.340 . S
C1233 C1234 1.439 . S
C1233 H1265 0.950 . S
C1234 N1230 1.374 . S
C1234 C1233 1.439 . S
C1234 C1259 1.395 . S
N1235 Co1224 1.995 . S
N1235 C1236 1.376 . S
N1235 C1239 1.383 . S
C1236 N1235 1.376 . S
C1236 C1237 1.446 . S
C1236 C1259 1.391 . S
C1237 C1236 1.446 . S
C1237 C1238 1.339 . S
C1237 H1266 0.949 . S
C1238 C1237 1.339 . S
C1238 C1239 1.439 . S
C1238 H1267 0.950 . S
C1239 N1235 1.383 . S
C1239 C1238 1.439 . S
C1239 C1257 1.392 . S
N1240 Co1224 2.282 . S
N1240 C1243 1.332 . S
N1240 C1245 1.332 . S
C1241 C1242 1.386 . S
C1241 C1244 1.388 . S
C1242 C1241 1.386 . S
C1242 C1243 1.382 . S
C1242 H1268 0.950 . S
C1243 N1240 1.332 . S
C1243 C1242 1.382 . S
C1243 H1254 0.952 . S
C1244 C1241 1.388 . S
C1244 C1245 1.382 . S
C1244 H1269 0.950 . S
C1245 N1240 1.332 . S
C1245 C1244 1.382 . S
C1245 H1255 0.948 . S
N1246 Co1224 2.282 . S
N1246 C1250 1.332 . S
N1246 C1251 1.332 . S
C1247 C1248 1.388 . S
C1247 C1251 1.382 . S
C1247 H1270 0.950 . S
C1248 C1247 1.388 . S
C1248 C1249 1.386 . S
C1249 C1248 1.386 . S
C1249 C1250 1.382 . S
C1249 H1271 0.950 . S
C1250 N1246 1.332 . S
C1250 C1249 1.382 . S
C1250 H1252 0.952 . S
C1251 N1246 1.332 . S
C1251 C1247 1.382 . S
C1251 H1253 0.948 . S
H1252 C1250 0.952 . S
H1253 C1251 0.948 . S
H1254 C1243 0.952 . S
H1255 C1245 0.948 . S
C1256 C1222 1.395 . S
C1256 C1226 1.391 . S
C1257 C1219 1.389 . S
C1257 C1239 1.392 . S
C1258 C1229 1.392 . S
C1258 C1231 1.389 . S
C1259 C1234 1.395 . S
C1259 C1236 1.391 . S
H1260 C1220 0.951 . S
H1261 C1221 0.950 . S
H1262 C1227 0.949 . S
H1263 C1228 0.950 . S
H1264 C1232 0.951 . S
H1265 C1233 0.950 . S
H1266 C1237 0.949 . S
H1267 C1238 0.950 . S
H1268 C1242 0.950 . S
H1269 C1244 0.950 . S
H1270 C1247 0.950 . S
H1271 C1249 0.950 . S
C1272 C1273 1.443 . S
C1272 N1276 1.376 . S
C1272 C1310 1.389 . S
C1273 C1272 1.443 . S
C1273 C1274 1.340 . S
C1273 H1313 0.951 . S
C1274 C1273 1.340 . S
C1274 C1275 1.439 . S
C1274 H1314 0.950 . S
C1275 C1274 1.439 . S
C1275 N1276 1.374 . S
C1275 C1309 1.395 . S
N1276 C1272 1.376 . S
N1276 C1275 1.374 . S
N1276 Co1277 2.008 . S
Co1277 N1276 2.008 . S
Co1277 N1278 1.995 . S
Co1277 N1283 2.008 . S
Co1277 N1288 1.995 . S
Co1277 N1293 2.282 . S
Co1277 N1299 2.282 . S
N1278 Co1277 1.995 . S
N1278 C1279 1.376 . S
N1278 C1282 1.383 . S
C1279 N1278 1.376 . S
C1279 C1280 1.446 . S
C1279 C1309 1.391 . S
C1280 C1279 1.446 . S
C1280 C1281 1.339 . S
C1280 H1315 0.949 . S
C1281 C1280 1.339 . S
C1281 C1282 1.439 . S
C1281 H1316 0.950 . S
C1282 N1278 1.383 . S
C1282 C1281 1.439 . S
C1282 C1311 1.392 . S
N1283 Co1277 2.008 . S
N1283 C1284 1.376 . S
N1283 C1287 1.374 . S
C1284 N1283 1.376 . S
C1284 C1285 1.443 . S
C1284 C1311 1.389 . S
C1285 C1284 1.443 . S
C1285 C1286 1.340 . S
C1285 H1317 0.951 . S
C1286 C1285 1.340 . S
C1286 C1287 1.439 . S
C1286 H1318 0.950 . S
C1287 N1283 1.374 . S
C1287 C1286 1.439 . S
C1287 C1312 1.395 . S
N1288 Co1277 1.995 . S
N1288 C1289 1.376 . S
N1288 C1292 1.383 . S
C1289 N1288 1.376 . S
C1289 C1290 1.446 . S
C1289 C1312 1.391 . S
C1290 C1289 1.446 . S
C1290 C1291 1.339 . S
C1290 H1319 0.949 . S
C1291 C1290 1.339 . S
C1291 C1292 1.439 . S
C1291 H1320 0.950 . S
C1292 N1288 1.383 . S
C1292 C1291 1.439 . S
C1292 C1310 1.392 . S
N1293 Co1277 2.282 . S
N1293 C1296 1.332 . S
N1293 C1298 1.332 . S
C1294 C1295 1.386 . S
C1294 C1297 1.388 . S
C1295 C1294 1.386 . S
C1295 C1296 1.382 . S
C1295 H1321 0.950 . S
C1296 N1293 1.332 . S
C1296 C1295 1.382 . S
C1296 H1307 0.952 . S
C1297 C1294 1.388 . S
C1297 C1298 1.382 . S
C1297 H1322 0.950 . S
C1298 N1293 1.332 . S
C1298 C1297 1.382 . S
C1298 H1308 0.948 . S
N1299 Co1277 2.282 . S
N1299 C1303 1.332 . S
N1299 C1304 1.332 . S
C1300 C1301 1.388 . S
C1300 C1304 1.382 . S
C1300 H1323 0.950 . S
C1301 C1300 1.388 . S
C1301 C1302 1.386 . S
C1302 C1301 1.386 . S
C1302 C1303 1.382 . S
C1302 H1324 0.950 . S
C1303 N1299 1.332 . S
C1303 C1302 1.382 . S
C1303 H1305 0.952 . S
C1304 N1299 1.332 . S
C1304 C1300 1.382 . S
C1304 H1306 0.948 . S
H1305 C1303 0.952 . S
H1306 C1304 0.948 . S
H1307 C1296 0.952 . S
H1308 C1298 0.948 . S
C1309 C1275 1.395 . S
C1309 C1279 1.391 . S
C1310 C1272 1.389 . S
C1310 C1292 1.392 . S
C1311 C1282 1.392 . S
C1311 C1284 1.389 . S
C1312 C1287 1.395 . S
C1312 C1289 1.391 . S
H1313 C1273 0.951 . S
H1314 C1274 0.950 . S
H1315 C1280 0.949 . S
H1316 C1281 0.950 . S
H1317 C1285 0.951 . S
H1318 C1286 0.950 . S
H1319 C1290 0.949 . S
H1320 C1291 0.950 . S
H1321 C1295 0.950 . S
H1322 C1297 0.950 . S
H1323 C1300 0.950 . S
H1324 C1302 0.950 . S
C1325 C1326 1.443 . S
C1325 N1329 1.376 . S
C1325 C1363 1.389 . S
C1326 C1325 1.443 . S
C1326 C1327 1.340 . S
C1326 H1366 0.951 . S
C1327 C1326 1.340 . S
C1327 C1328 1.439 . S
C1327 H1367 0.950 . S
C1328 C1327 1.439 . S
C1328 N1329 1.374 . S
C1328 C1362 1.395 . S
N1329 C1325 1.376 . S
N1329 C1328 1.374 . S
N1329 Co1330 2.008 . S
Co1330 N1329 2.008 . S
Co1330 N1331 1.995 . S
Co1330 N1336 2.008 . S
Co1330 N1341 1.995 . S
Co1330 N1346 2.282 . S
Co1330 N1352 2.282 . S
N1331 Co1330 1.995 . S
N1331 C1332 1.376 . S
N1331 C1335 1.383 . S
C1332 N1331 1.376 . S
C1332 C1333 1.446 . S
C1332 C1362 1.391 . S
C1333 C1332 1.446 . S
C1333 C1334 1.339 . S
C1333 H1368 0.949 . S
C1334 C1333 1.339 . S
C1334 C1335 1.439 . S
C1334 H1369 0.950 . S
C1335 N1331 1.383 . S
C1335 C1334 1.439 . S
C1335 C1364 1.392 . S
N1336 Co1330 2.008 . S
N1336 C1337 1.376 . S
N1336 C1340 1.374 . S
C1337 N1336 1.376 . S
C1337 C1338 1.443 . S
C1337 C1364 1.389 . S
C1338 C1337 1.443 . S
C1338 C1339 1.340 . S
C1338 H1370 0.951 . S
C1339 C1338 1.340 . S
C1339 C1340 1.439 . S
C1339 H1371 0.950 . S
C1340 N1336 1.374 . S
C1340 C1339 1.439 . S
C1340 C1365 1.395 . S
N1341 Co1330 1.995 . S
N1341 C1342 1.376 . S
N1341 C1345 1.383 . S
C1342 N1341 1.376 . S
C1342 C1343 1.446 . S
C1342 C1365 1.391 . S
C1343 C1342 1.446 . S
C1343 C1344 1.339 . S
C1343 H1372 0.949 . S
C1344 C1343 1.339 . S
C1344 C1345 1.439 . S
C1344 H1373 0.950 . S
C1345 N1341 1.383 . S
C1345 C1344 1.439 . S
C1345 C1363 1.392 . S
N1346 Co1330 2.282 . S
N1346 C1349 1.332 . S
N1346 C1351 1.332 . S
C1347 C1348 1.386 . S
C1347 C1350 1.388 . S
C1348 C1347 1.386 . S
C1348 C1349 1.382 . S
C1348 H1374 0.950 . S
C1349 N1346 1.332 . S
C1349 C1348 1.382 . S
C1349 H1360 0.952 . S
C1350 C1347 1.388 . S
C1350 C1351 1.382 . S
C1350 H1375 0.950 . S
C1351 N1346 1.332 . S
C1351 C1350 1.382 . S
C1351 H1361 0.948 . S
N1352 Co1330 2.282 . S
N1352 C1356 1.332 . S
N1352 C1357 1.332 . S
C1353 C1354 1.388 . S
C1353 C1357 1.382 . S
C1353 H1376 0.950 . S
C1354 C1353 1.388 . S
C1354 C1355 1.386 . S
C1355 C1354 1.386 . S
C1355 C1356 1.382 . S
C1355 H1377 0.950 . S
C1356 N1352 1.332 . S
C1356 C1355 1.382 . S
C1356 H1358 0.952 . S
C1357 N1352 1.332 . S
C1357 C1353 1.382 . S
C1357 H1359 0.948 . S
H1358 C1356 0.952 . S
H1359 C1357 0.948 . S
H1360 C1349 0.952 . S
H1361 C1351 0.948 . S
C1362 C1328 1.395 . S
C1362 C1332 1.391 . S
C1363 C1325 1.389 . S
C1363 C1345 1.392 . S
C1364 C1335 1.392 . S
C1364 C1337 1.389 . S
C1365 C1340 1.395 . S
C1365 C1342 1.391 . S
H1366 C1326 0.951 . S
H1367 C1327 0.950 . S
H1368 C1333 0.949 . S
H1369 C1334 0.950 . S
H1370 C1338 0.951 . S
H1371 C1339 0.950 . S
H1372 C1343 0.949 . S
H1373 C1344 0.950 . S
H1374 C1348 0.950 . S
H1375 C1350 0.950 . S
H1376 C1353 0.950 . S
H1377 C1355 0.950 . S
C1378 C1379 1.443 . S
C1378 N1382 1.376 . S
C1378 C1416 1.389 . S
C1379 C1378 1.443 . S
C1379 C1380 1.340 . S
C1379 H1419 0.951 . S
C1380 C1379 1.340 . S
C1380 C1381 1.439 . S
C1380 H1420 0.950 . S
C1381 C1380 1.439 . S
C1381 N1382 1.374 . S
C1381 C1415 1.395 1_556 S
N1382 C1378 1.376 . S
N1382 C1381 1.374 . S
N1382 Co1383 2.008 . S
Co1383 N1382 2.008 . S
Co1383 N1384 1.995 1_556 S
Co1383 N1389 2.008 1_556 S
Co1383 N1394 1.995 . S
Co1383 N1399 2.282 . S
Co1383 N1405 2.282 . S
N1384 Co1383 1.995 1_554 S
N1384 C1385 1.376 . S
N1384 C1388 1.383 . S
C1385 N1384 1.376 . S
C1385 C1386 1.446 . S
C1385 C1415 1.391 . S
C1386 C1385 1.446 . S
C1386 C1387 1.339 . S
C1386 H1421 0.949 . S
C1387 C1386 1.339 . S
C1387 C1388 1.439 . S
C1387 H1422 0.950 . S
C1388 N1384 1.383 . S
C1388 C1387 1.439 . S
C1388 C1417 1.392 . S
N1389 Co1383 2.008 1_554 S
N1389 C1390 1.376 . S
N1389 C1393 1.374 . S
C1390 N1389 1.376 . S
C1390 C1391 1.443 . S
C1390 C1417 1.389 . S
C1391 C1390 1.443 . S
C1391 C1392 1.340 . S
C1391 H1423 0.951 . S
C1392 C1391 1.340 . S
C1392 C1393 1.439 . S
C1392 H1424 0.950 . S
C1393 N1389 1.374 . S
C1393 C1392 1.439 . S
C1393 C1418 1.395 1_554 S
N1394 Co1383 1.995 . S
N1394 C1395 1.376 . S
N1394 C1398 1.383 . S
C1395 N1394 1.376 . S
C1395 C1396 1.446 . S
C1395 C1418 1.391 . S
C1396 C1395 1.446 . S
C1396 C1397 1.339 . S
C1396 H1425 0.949 . S
C1397 C1396 1.339 . S
C1397 C1398 1.439 . S
C1397 H1426 0.950 . S
C1398 N1394 1.383 . S
C1398 C1397 1.439 . S
C1398 C1416 1.392 . S
N1399 Co1383 2.282 . S
N1399 C1402 1.332 . S
N1399 C1404 1.323 1_556 S
C1400 C1401 1.386 . S
C1400 C1403 1.388 1_556 S
C1401 C1400 1.386 . S
C1401 C1402 1.382 . S
C1401 H1427 0.950 . S
C1402 N1399 1.332 . S
C1402 C1401 1.382 . S
C1402 H1413 0.952 . S
C1403 C1400 1.388 1_554 S
C1403 C1404 1.385 . S
C1403 H1428 0.950 . S
C1404 N1399 1.323 1_554 S
C1404 C1403 1.385 . S
C1404 H1414 0.955 . S
N1405 Co1383 2.282 . S
N1405 C1409 1.332 1_556 S
N1405 C1410 1.332 . S
C1406 C1407 1.388 . S
C1406 C1410 1.382 . S
C1406 H1429 0.950 . S
C1407 C1406 1.388 . S
C1407 C1408 1.386 1_556 S
C1408 C1407 1.386 1_554 S
C1408 C1409 1.382 . S
C1408 H1430 0.950 . S
C1409 N1405 1.332 1_554 S
C1409 C1408 1.382 . S
C1409 H1411 0.952 . S
C1410 N1405 1.332 . S
C1410 C1406 1.382 . S
C1410 H1412 0.948 . S
H1411 C1409 0.952 . S
H1412 C1410 0.948 . S
H1413 C1402 0.952 . S
H1414 C1404 0.955 . S
C1415 C1381 1.395 1_554 S
C1415 C1385 1.391 . S
C1416 C1378 1.389 . S
C1416 C1398 1.392 . S
C1417 C1388 1.392 . S
C1417 C1390 1.389 . S
C1418 C1393 1.395 1_556 S
C1418 C1395 1.391 . S
H1419 C1379 0.951 . S
H1420 C1380 0.950 . S
H1421 C1386 0.949 . S
H1422 C1387 0.950 . S
H1423 C1391 0.951 . S
H1424 C1392 0.950 . S
H1425 C1396 0.949 . S
H1426 C1397 0.950 . S
H1427 C1401 0.950 . S
H1428 C1403 0.950 . S
H1429 C1406 0.950 . S
H1430 C1408 0.950 . S
C1431 C1432 1.443 . S
C1431 N1435 1.376 . S
C1431 C1469 1.389 . S
C1432 C1431 1.443 . S
C1432 C1433 1.340 . S
C1432 H1472 0.951 . S
C1433 C1432 1.340 . S
C1433 C1434 1.439 . S
C1433 H1473 0.950 . S
C1434 C1433 1.439 . S
C1434 N1435 1.374 . S
C1434 C1468 1.395 1_556 S
N1435 C1431 1.376 . S
N1435 C1434 1.374 . S
N1435 Co1436 2.008 . S
Co1436 N1435 2.008 . S
Co1436 N1437 1.995 1_556 S
Co1436 N1442 2.008 1_556 S
Co1436 N1447 1.995 . S
Co1436 N1452 2.282 . S
Co1436 N1458 2.282 . S
N1437 Co1436 1.995 1_554 S
N1437 C1438 1.376 . S
N1437 C1441 1.383 . S
C1438 N1437 1.376 . S
C1438 C1439 1.446 . S
C1438 C1468 1.391 . S
C1439 C1438 1.446 . S
C1439 C1440 1.339 . S
C1439 H1474 0.949 . S
C1440 C1439 1.339 . S
C1440 C1441 1.439 . S
C1440 H1475 0.950 . S
C1441 N1437 1.383 . S
C1441 C1440 1.439 . S
C1441 C1470 1.392 . S
N1442 Co1436 2.008 1_554 S
N1442 C1443 1.376 . S
N1442 C1446 1.374 . S
C1443 N1442 1.376 . S
C1443 C1444 1.443 . S
C1443 C1470 1.389 . S
C1444 C1443 1.443 . S
C1444 C1445 1.340 . S
C1444 H1476 0.951 . S
C1445 C1444 1.340 . S
C1445 C1446 1.439 . S
C1445 H1477 0.950 . S
C1446 N1442 1.374 . S
C1446 C1445 1.439 . S
C1446 C1471 1.395 1_554 S
N1447 Co1436 1.995 . S
N1447 C1448 1.376 . S
N1447 C1451 1.383 . S
C1448 N1447 1.376 . S
C1448 C1449 1.446 . S
C1448 C1471 1.391 . S
C1449 C1448 1.446 . S
C1449 C1450 1.339 . S
C1449 H1478 0.949 . S
C1450 C1449 1.339 . S
C1450 C1451 1.439 . S
C1450 H1479 0.950 . S
C1451 N1447 1.383 . S
C1451 C1450 1.439 . S
C1451 C1469 1.392 . S
N1452 Co1436 2.282 . S
N1452 C1455 1.332 . S
N1452 C1457 1.323 1_556 S
C1453 C1454 1.386 . S
C1453 C1456 1.388 1_556 S
C1454 C1453 1.386 . S
C1454 C1455 1.382 . S
C1454 H1480 0.950 . S
C1455 N1452 1.332 . S
C1455 C1454 1.382 . S
C1455 H1466 0.952 . S
C1456 C1453 1.388 1_554 S
C1456 C1457 1.385 . S
C1456 H1481 0.950 . S
C1457 N1452 1.323 1_554 S
C1457 C1456 1.385 . S
C1457 H1467 0.955 . S
N1458 Co1436 2.282 . S
N1458 C1462 1.332 1_556 S
N1458 C1463 1.332 . S
C1459 C1460 1.388 . S
C1459 C1463 1.382 . S
C1459 H1482 0.950 . S
C1460 C1459 1.388 . S
C1460 C1461 1.386 1_556 S
C1461 C1460 1.386 1_554 S
C1461 C1462 1.382 . S
C1461 H1483 0.950 . S
C1462 N1458 1.332 1_554 S
C1462 C1461 1.382 . S
C1462 H1464 0.952 . S
C1463 N1458 1.332 . S
C1463 C1459 1.382 . S
C1463 H1465 0.948 . S
H1464 C1462 0.952 . S
H1465 C1463 0.948 . S
H1466 C1455 0.952 . S
H1467 C1457 0.955 . S
C1468 C1434 1.395 1_554 S
C1468 C1438 1.391 . S
C1469 C1431 1.389 . S
C1469 C1451 1.392 . S
C1470 C1441 1.392 . S
C1470 C1443 1.389 . S
C1471 C1446 1.395 1_556 S
C1471 C1448 1.391 . S
H1472 C1432 0.951 . S
H1473 C1433 0.950 . S
H1474 C1439 0.949 . S
H1475 C1440 0.950 . S
H1476 C1444 0.951 . S
H1477 C1445 0.950 . S
H1478 C1449 0.949 . S
H1479 C1450 0.950 . S
H1480 C1454 0.950 . S
H1481 C1456 0.950 . S
H1482 C1459 0.950 . S
H1483 C1461 0.950 . S
C1484 C1485 1.443 . S
C1484 N1488 1.376 . S
C1484 C1522 1.389 . S
C1485 C1484 1.443 . S
C1485 C1486 1.340 . S
C1485 H1525 0.951 . S
C1486 C1485 1.340 . S
C1486 C1487 1.439 . S
C1486 H1526 0.950 . S
C1487 C1486 1.439 . S
C1487 N1488 1.374 . S
C1487 C1521 1.395 . S
N1488 C1484 1.376 . S
N1488 C1487 1.374 . S
N1488 Co1489 2.008 . S
Co1489 N1488 2.008 . S
Co1489 N1490 1.995 . S
Co1489 N1495 2.008 . S
Co1489 N1500 1.995 . S
Co1489 N1505 2.282 . S
Co1489 N1511 2.282 . S
N1490 Co1489 1.995 . S
N1490 C1491 1.376 . S
N1490 C1494 1.383 . S
C1491 N1490 1.376 . S
C1491 C1492 1.446 . S
C1491 C1521 1.391 . S
C1492 C1491 1.446 . S
C1492 C1493 1.339 . S
C1492 H1527 0.949 . S
C1493 C1492 1.339 . S
C1493 C1494 1.439 . S
C1493 H1528 0.950 . S
C1494 N1490 1.383 . S
C1494 C1493 1.439 . S
C1494 C1523 1.392 . S
N1495 Co1489 2.008 . S
N1495 C1496 1.376 . S
N1495 C1499 1.374 . S
C1496 N1495 1.376 . S
C1496 C1497 1.443 . S
C1496 C1523 1.389 . S
C1497 C1496 1.443 . S
C1497 C1498 1.340 . S
C1497 H1529 0.951 . S
C1498 C1497 1.340 . S
C1498 C1499 1.439 . S
C1498 H1530 0.950 . S
C1499 N1495 1.374 . S
C1499 C1498 1.439 . S
C1499 C1524 1.395 . S
N1500 Co1489 1.995 . S
N1500 C1501 1.376 . S
N1500 C1504 1.383 . S
C1501 N1500 1.376 . S
C1501 C1502 1.446 . S
C1501 C1524 1.391 . S
C1502 C1501 1.446 . S
C1502 C1503 1.339 . S
C1502 H1531 0.949 . S
C1503 C1502 1.339 . S
C1503 C1504 1.439 . S
C1503 H1532 0.950 . S
C1504 N1500 1.383 . S
C1504 C1503 1.439 . S
C1504 C1522 1.392 . S
N1505 Co1489 2.282 . S
N1505 C1508 1.332 . S
N1505 C1510 1.332 . S
C1506 C1507 1.386 . S
C1506 C1509 1.388 . S
C1507 C1506 1.386 . S
C1507 C1508 1.382 . S
C1507 H1533 0.950 . S
C1508 N1505 1.332 . S
C1508 C1507 1.382 . S
C1508 H1519 0.952 . S
C1509 C1506 1.388 . S
C1509 C1510 1.382 . S
C1509 H1534 0.950 . S
C1510 N1505 1.332 . S
C1510 C1509 1.382 . S
C1510 H1520 0.948 . S
N1511 Co1489 2.282 . S
N1511 C1515 1.332 . S
N1511 C1516 1.332 . S
C1512 C1513 1.388 . S
C1512 C1516 1.382 . S
C1512 H1535 0.950 . S
C1513 C1512 1.388 . S
C1513 C1514 1.386 . S
C1514 C1513 1.386 . S
C1514 C1515 1.382 . S
C1514 H1536 0.950 . S
C1515 N1511 1.332 . S
C1515 C1514 1.382 . S
C1515 H1517 0.952 . S
C1516 N1511 1.332 . S
C1516 C1512 1.382 . S
C1516 H1518 0.948 . S
H1517 C1515 0.952 . S
H1518 C1516 0.948 . S
H1519 C1508 0.952 . S
H1520 C1510 0.948 . S
C1521 C1487 1.395 . S
C1521 C1491 1.391 . S
C1522 C1484 1.389 . S
C1522 C1504 1.392 . S
C1523 C1494 1.392 . S
C1523 C1496 1.389 . S
C1524 C1499 1.395 . S
C1524 C1501 1.391 . S
H1525 C1485 0.951 . S
H1526 C1486 0.950 . S
H1527 C1492 0.949 . S
H1528 C1493 0.950 . S
H1529 C1497 0.951 . S
H1530 C1498 0.950 . S
H1531 C1502 0.949 . S
H1532 C1503 0.950 . S
H1533 C1507 0.950 . S
H1534 C1509 0.950 . S
H1535 C1512 0.950 . S
H1536 C1514 0.950 . S
C1537 C1538 1.443 . S
C1537 N1541 1.376 . S
C1537 C1575 1.389 . S
C1538 C1537 1.443 . S
C1538 C1539 1.340 . S
C1538 H1578 0.951 . S
C1539 C1538 1.340 . S
C1539 C1540 1.439 . S
C1539 H1579 0.950 . S
C1540 C1539 1.439 . S
C1540 N1541 1.374 . S
C1540 C1574 1.395 . S
N1541 C1537 1.376 . S
N1541 C1540 1.374 . S
N1541 Co1542 2.008 . S
Co1542 N1541 2.008 . S
Co1542 N1543 1.995 . S
Co1542 N1548 2.008 . S
Co1542 N1553 1.995 . S
Co1542 N1558 2.282 . S
Co1542 N1564 2.282 . S
N1543 Co1542 1.995 . S
N1543 C1544 1.376 . S
N1543 C1547 1.383 . S
C1544 N1543 1.376 . S
C1544 C1545 1.446 . S
C1544 C1574 1.391 . S
C1545 C1544 1.446 . S
C1545 C1546 1.339 . S
C1545 H1580 0.949 . S
C1546 C1545 1.339 . S
C1546 C1547 1.439 . S
C1546 H1581 0.950 . S
C1547 N1543 1.383 . S
C1547 C1546 1.439 . S
C1547 C1576 1.392 . S
N1548 Co1542 2.008 . S
N1548 C1549 1.376 . S
N1548 C1552 1.374 . S
C1549 N1548 1.376 . S
C1549 C1550 1.443 . S
C1549 C1576 1.389 . S
C1550 C1549 1.443 . S
C1550 C1551 1.340 . S
C1550 H1582 0.951 . S
C1551 C1550 1.340 . S
C1551 C1552 1.439 . S
C1551 H1583 0.950 . S
C1552 N1548 1.374 . S
C1552 C1551 1.439 . S
C1552 C1577 1.395 . S
N1553 Co1542 1.995 . S
N1553 C1554 1.376 . S
N1553 C1557 1.383 . S
C1554 N1553 1.376 . S
C1554 C1555 1.446 . S
C1554 C1577 1.391 . S
C1555 C1554 1.446 . S
C1555 C1556 1.339 . S
C1555 H1584 0.949 . S
C1556 C1555 1.339 . S
C1556 C1557 1.439 . S
C1556 H1585 0.950 . S
C1557 N1553 1.383 . S
C1557 C1556 1.439 . S
C1557 C1575 1.392 . S
N1558 Co1542 2.282 . S
N1558 C1561 1.332 . S
N1558 C1563 1.332 . S
C1559 C1560 1.386 . S
C1559 C1562 1.388 . S
C1560 C1559 1.386 . S
C1560 C1561 1.382 . S
C1560 H1586 0.950 . S
C1561 N1558 1.332 . S
C1561 C1560 1.382 . S
C1561 H1572 0.952 . S
C1562 C1559 1.388 . S
C1562 C1563 1.382 . S
C1562 H1587 0.950 . S
C1563 N1558 1.332 . S
C1563 C1562 1.382 . S
C1563 H1573 0.948 . S
N1564 Co1542 2.282 . S
N1564 C1568 1.332 . S
N1564 C1569 1.332 . S
C1565 C1566 1.388 . S
C1565 C1569 1.382 . S
C1565 H1588 0.950 . S
C1566 C1565 1.388 . S
C1566 C1567 1.386 . S
C1567 C1566 1.386 . S
C1567 C1568 1.382 . S
C1567 H1589 0.950 . S
C1568 N1564 1.332 . S
C1568 C1567 1.382 . S
C1568 H1570 0.952 . S
C1569 N1564 1.332 . S
C1569 C1565 1.382 . S
C1569 H1571 0.948 . S
H1570 C1568 0.952 . S
H1571 C1569 0.948 . S
H1572 C1561 0.952 . S
H1573 C1563 0.948 . S
C1574 C1540 1.395 . S
C1574 C1544 1.391 . S
C1575 C1537 1.389 . S
C1575 C1557 1.392 . S
C1576 C1547 1.392 . S
C1576 C1549 1.389 . S
C1577 C1552 1.395 . S
C1577 C1554 1.391 . S
H1578 C1538 0.951 . S
H1579 C1539 0.950 . S
H1580 C1545 0.949 . S
H1581 C1546 0.950 . S
H1582 C1550 0.951 . S
H1583 C1551 0.950 . S
H1584 C1555 0.949 . S
H1585 C1556 0.950 . S
H1586 C1560 0.950 . S
H1587 C1562 0.950 . S
H1588 C1565 0.950 . S
H1589 C1567 0.950 . S
C1590 C1591 1.443 . S
C1590 N1594 1.376 . S
C1590 C1628 1.389 . S
C1591 C1590 1.443 . S
C1591 C1592 1.340 . S
C1591 H1631 0.951 . S
C1592 C1591 1.340 . S
C1592 C1593 1.439 . S
C1592 H1632 0.950 . S
C1593 C1592 1.439 . S
C1593 N1594 1.374 . S
C1593 C1627 1.395 . S
N1594 C1590 1.376 . S
N1594 C1593 1.374 . S
N1594 Co1595 2.008 . S
Co1595 N1594 2.008 . S
Co1595 N1596 1.995 1_554 S
Co1595 N1601 2.008 1_554 S
Co1595 N1606 1.995 . S
Co1595 N1611 2.282 . S
Co1595 N1617 2.282 . S
N1596 Co1595 1.995 1_556 S
N1596 C1597 1.376 . S
N1596 C1600 1.383 . S
C1597 N1596 1.376 . S
C1597 C1598 1.446 . S
C1597 C1627 1.391 1_556 S
C1598 C1597 1.446 . S
C1598 C1599 1.339 . S
C1598 H1633 0.949 . S
C1599 C1598 1.339 . S
C1599 C1600 1.439 . S
C1599 H1634 0.950 . S
C1600 N1596 1.383 . S
C1600 C1599 1.439 . S
C1600 C1629 1.392 . S
N1601 Co1595 2.008 1_556 S
N1601 C1602 1.376 . S
N1601 C1605 1.374 . S
C1602 N1601 1.376 . S
C1602 C1603 1.443 . S
C1602 C1629 1.389 . S
C1603 C1602 1.443 . S
C1603 C1604 1.340 . S
C1603 H1635 0.951 . S
C1604 C1603 1.340 . S
C1604 C1605 1.439 . S
C1604 H1636 0.950 . S
C1605 N1601 1.374 . S
C1605 C1604 1.439 . S
C1605 C1630 1.395 . S
N1606 Co1595 1.995 . S
N1606 C1607 1.376 . S
N1606 C1610 1.383 . S
C1607 N1606 1.376 . S
C1607 C1608 1.446 . S
C1607 C1630 1.391 1_554 S
C1608 C1607 1.446 . S
C1608 C1609 1.339 . S
C1608 H1637 0.949 . S
C1609 C1608 1.339 . S
C1609 C1610 1.439 . S
C1609 H1638 0.950 . S
C1610 N1606 1.383 . S
C1610 C1609 1.439 . S
C1610 C1628 1.392 . S
N1611 Co1595 2.282 . S
N1611 C1614 1.332 . S
N1611 C1616 1.332 . S
C1612 C1613 1.386 . S
C1612 C1615 1.388 . S
C1613 C1612 1.386 . S
C1613 C1614 1.382 . S
C1613 H1639 0.950 . S
C1614 N1611 1.332 . S
C1614 C1613 1.382 . S
C1614 H1625 0.952 . S
C1615 C1612 1.388 . S
C1615 C1616 1.382 . S
C1615 H1640 0.958 . S
C1616 N1611 1.332 . S
C1616 C1615 1.382 . S
C1616 H1626 0.948 . S
N1617 Co1595 2.282 . S
N1617 C1621 1.332 . S
N1617 C1622 1.332 . S
C1618 C1619 1.388 . S
C1618 C1622 1.382 . S
C1618 H1641 0.950 . S
C1619 C1618 1.388 . S
C1619 C1620 1.386 . S
C1620 C1619 1.386 . S
C1620 C1621 1.382 . S
C1620 H1642 0.950 . S
C1621 N1617 1.332 . S
C1621 C1620 1.382 . S
C1621 H1623 0.946 1_554 S
C1622 N1617 1.332 . S
C1622 C1618 1.382 . S
C1622 H1624 0.948 . S
H1623 C1621 0.946 1_556 S
H1624 C1622 0.948 . S
H1625 C1614 0.952 . S
H1626 C1616 0.948 . S
C1627 C1593 1.395 . S
C1627 C1597 1.391 1_554 S
C1628 C1590 1.389 . S
C1628 C1610 1.392 . S
C1629 C1600 1.392 . S
C1629 C1602 1.389 . S
C1630 C1605 1.395 . S
C1630 C1607 1.391 1_556 S
H1631 C1591 0.951 . S
H1632 C1592 0.950 . S
H1633 C1598 0.949 . S
H1634 C1599 0.950 . S
H1635 C1603 0.951 . S
H1636 C1604 0.950 . S
H1637 C1608 0.949 . S
H1638 C1609 0.950 . S
H1639 C1613 0.950 . S
H1640 C1615 0.958 . S
H1641 C1618 0.950 . S
H1642 C1620 0.950 . S
C1643 C1644 1.443 . S
C1643 N1647 1.376 . S
C1643 C1681 1.389 . S
C1644 C1643 1.443 . S
C1644 C1645 1.340 . S
C1644 H1684 0.951 . S
C1645 C1644 1.340 . S
C1645 C1646 1.439 . S
C1645 H1685 0.950 . S
C1646 C1645 1.439 . S
C1646 N1647 1.374 . S
C1646 C1680 1.395 . S
N1647 C1643 1.376 . S
N1647 C1646 1.374 . S
N1647 Co1648 2.008 . S
Co1648 N1647 2.008 . S
Co1648 N1649 1.995 1_554 S
Co1648 N1654 2.008 1_554 S
Co1648 N1659 1.995 . S
Co1648 N1664 2.282 . S
Co1648 N1670 2.282 . S
N1649 Co1648 1.995 1_556 S
N1649 C1650 1.376 . S
N1649 C1653 1.383 . S
C1650 N1649 1.376 . S
C1650 C1651 1.446 . S
C1650 C1680 1.391 1_556 S
C1651 C1650 1.446 . S
C1651 C1652 1.339 . S
C1651 H1686 0.949 . S
C1652 C1651 1.339 . S
C1652 C1653 1.439 . S
C1652 H1687 0.950 . S
C1653 N1649 1.383 . S
C1653 C1652 1.439 . S
C1653 C1682 1.392 . S
N1654 Co1648 2.008 1_556 S
N1654 C1655 1.376 . S
N1654 C1658 1.374 . S
C1655 N1654 1.376 . S
C1655 C1656 1.443 . S
C1655 C1682 1.389 . S
C1656 C1655 1.443 . S
C1656 C1657 1.340 . S
C1656 H1688 0.951 . S
C1657 C1656 1.340 . S
C1657 C1658 1.439 . S
C1657 H1689 0.950 . S
C1658 N1654 1.374 . S
C1658 C1657 1.439 . S
C1658 C1683 1.395 . S
N1659 Co1648 1.995 . S
N1659 C1660 1.376 . S
N1659 C1663 1.383 . S
C1660 N1659 1.376 . S
C1660 C1661 1.446 . S
C1660 C1683 1.391 1_554 S
C1661 C1660 1.446 . S
C1661 C1662 1.339 . S
C1661 H1690 0.949 . S
C1662 C1661 1.339 . S
C1662 C1663 1.439 . S
C1662 H1691 0.950 . S
C1663 N1659 1.383 . S
C1663 C1662 1.439 . S
C1663 C1681 1.392 . S
N1664 Co1648 2.282 . S
N1664 C1667 1.332 . S
N1664 C1669 1.332 . S
C1665 C1666 1.386 . S
C1665 C1668 1.388 . S
C1666 C1665 1.386 . S
C1666 C1667 1.382 . S
C1666 H1692 0.950 . S
C1667 N1664 1.332 . S
C1667 C1666 1.382 . S
C1667 H1678 0.952 . S
C1668 C1665 1.388 . S
C1668 C1669 1.382 . S
C1668 H1693 0.958 . S
C1669 N1664 1.332 . S
C1669 C1668 1.382 . S
C1669 H1679 0.948 . S
N1670 Co1648 2.282 . S
N1670 C1674 1.332 . S
N1670 C1675 1.332 . S
C1671 C1672 1.388 . S
C1671 C1675 1.382 . S
C1671 H1694 0.950 . S
C1672 C1671 1.388 . S
C1672 C1673 1.386 . S
C1673 C1672 1.386 . S
C1673 C1674 1.382 . S
C1673 H1695 0.950 . S
C1674 N1670 1.332 . S
C1674 C1673 1.382 . S
C1674 H1676 0.946 1_554 S
C1675 N1670 1.332 . S
C1675 C1671 1.382 . S
C1675 H1677 0.948 . S
H1676 C1674 0.946 1_556 S
H1677 C1675 0.948 . S
H1678 C1667 0.952 . S
H1679 C1669 0.948 . S
C1680 C1646 1.395 . S
C1680 C1650 1.391 1_554 S
C1681 C1643 1.389 . S
C1681 C1663 1.392 . S
C1682 C1653 1.392 . S
C1682 C1655 1.389 . S
C1683 C1658 1.395 . S
C1683 C1660 1.391 1_556 S
H1684 C1644 0.951 . S
H1685 C1645 0.950 . S
H1686 C1651 0.949 . S
H1687 C1652 0.950 . S
H1688 C1656 0.951 . S
H1689 C1657 0.950 . S
H1690 C1661 0.949 . S
H1691 C1662 0.950 . S
H1692 C1666 0.950 . S
H1693 C1668 0.958 . S
H1694 C1671 0.950 . S
H1695 C1673 0.950 . S
H1696 C1708 0.930 . S
H1697 C1710 0.930 . S
H1698 C1711 0.930 . S
H1699 C1715 0.959 . S
H1700 C1715 0.959 . S
H1701 C1715 0.961 . S
H1702 C1716 0.960 . S
H1703 C1716 0.961 . S
H1704 C1716 0.959 . S
H1705 C1719 0.929 . S
H1706 C1720 0.931 . S
H1707 C1722 0.930 . S
C1708 H1696 0.930 . S
C1708 C1709 1.399 . S
C1708 C1713 1.399 . S
C1709 C1708 1.399 . S
C1709 C1710 1.376 . S
C1710 H1697 0.930 . S
C1710 C1709 1.376 . S
C1710 C1711 1.388 . S
C1711 H1698 0.930 . S
C1711 C1710 1.388 . S
C1711 C1712 1.390 . S
C1712 C1711 1.390 . S
C1712 C1713 1.394 . S
C1712 C1718 1.465 . S
C1713 C1708 1.399 . S
C1713 C1712 1.394 . S
C1713 C1714 1.516 . S
C1714 C1713 1.516 . S
C1714 C1715 1.502 . S
C1714 C1716 1.561 . S
C1714 C1717 1.526 . S
C1715 H1699 0.959 . S
C1715 H1700 0.959 . S
C1715 H1701 0.961 . S
C1715 C1714 1.502 . S
C1716 H1702 0.960 . S
C1716 H1703 0.961 . S
C1716 H1704 0.959 . S
C1716 C1714 1.561 . S
C1717 C1714 1.526 . S
C1717 C1718 1.396 . S
C1717 C1722 1.390 . S
C1718 C1712 1.465 . S
C1718 C1717 1.396 . S
C1718 C1719 1.399 . S
C1719 H1705 0.929 . S
C1719 C1718 1.399 . S
C1719 C1720 1.385 . S
C1720 H1706 0.931 . S
C1720 C1719 1.385 . S
C1720 C1721 1.389 . S
C1721 C1720 1.389 . S
C1721 C1722 1.387 . S
C1722 H1707 0.930 . S
C1722 C1717 1.390 . S
C1722 C1721 1.387 . S
H1723 C1735 0.930 . S
H1724 C1737 0.930 . S
H1725 C1738 0.930 . S
H1726 C1742 0.959 . S
H1727 C1742 0.959 . S
H1728 C1742 0.961 . S
H1729 C1743 0.960 . S
H1730 C1743 0.961 . S
H1731 C1743 0.959 . S
H1732 C1746 0.929 . S
H1733 C1747 0.931 . S
H1734 C1749 0.930 . S
C1735 H1723 0.930 . S
C1735 C1736 1.399 . S
C1735 C1740 1.399 . S
C1736 C1735 1.399 . S
C1736 C1737 1.376 . S
C1737 H1724 0.930 . S
C1737 C1736 1.376 . S
C1737 C1738 1.388 . S
C1738 H1725 0.930 . S
C1738 C1737 1.388 . S
C1738 C1739 1.390 . S
C1739 C1738 1.390 . S
C1739 C1740 1.394 . S
C1739 C1745 1.465 . S
C1740 C1735 1.399 . S
C1740 C1739 1.394 . S
C1740 C1741 1.516 . S
C1741 C1740 1.516 . S
C1741 C1742 1.502 . S
C1741 C1743 1.561 . S
C1741 C1744 1.526 . S
C1742 H1726 0.959 . S
C1742 H1727 0.959 . S
C1742 H1728 0.961 . S
C1742 C1741 1.502 . S
C1743 H1729 0.960 . S
C1743 H1730 0.961 . S
C1743 H1731 0.959 . S
C1743 C1741 1.561 . S
C1744 C1741 1.526 . S
C1744 C1745 1.396 . S
C1744 C1749 1.390 . S
C1745 C1739 1.465 . S
C1745 C1744 1.396 . S
C1745 C1746 1.399 . S
C1746 H1732 0.929 . S
C1746 C1745 1.399 . S
C1746 C1747 1.385 . S
C1747 H1733 0.931 . S
C1747 C1746 1.385 . S
C1747 C1748 1.389 . S
C1748 C1747 1.389 . S
C1748 C1749 1.387 . S
C1749 H1734 0.930 . S
C1749 C1744 1.390 . S
C1749 C1748 1.387 . S
H1750 C1762 0.930 . S
H1751 C1764 0.930 . S
H1752 C1765 0.930 . S
H1753 C1769 0.959 . S
H1754 C1769 0.959 . S
H1755 C1769 0.961 . S
H1756 C1770 0.960 . S
H1757 C1770 0.961 . S
H1758 C1770 0.959 . S
H1759 C1773 0.929 . S
H1760 C1774 0.931 . S
H1761 C1776 0.930 . S
C1762 H1750 0.930 . S
C1762 C1763 1.399 . S
C1762 C1767 1.399 . S
C1763 C1762 1.399 . S
C1763 C1764 1.376 . S
C1764 H1751 0.930 . S
C1764 C1763 1.376 . S
C1764 C1765 1.388 . S
C1765 H1752 0.930 . S
C1765 C1764 1.388 . S
C1765 C1766 1.390 . S
C1766 C1765 1.390 . S
C1766 C1767 1.394 . S
C1766 C1772 1.465 . S
C1767 C1762 1.399 . S
C1767 C1766 1.394 . S
C1767 C1768 1.516 . S
C1768 C1767 1.516 . S
C1768 C1769 1.502 . S
C1768 C1770 1.561 . S
C1768 C1771 1.526 . S
C1769 H1753 0.959 . S
C1769 H1754 0.959 . S
C1769 H1755 0.961 . S
C1769 C1768 1.502 . S
C1770 H1756 0.960 . S
C1770 H1757 0.961 . S
C1770 H1758 0.959 . S
C1770 C1768 1.561 . S
C1771 C1768 1.526 . S
C1771 C1772 1.396 . S
C1771 C1776 1.390 . S
C1772 C1766 1.465 . S
C1772 C1771 1.396 . S
C1772 C1773 1.399 . S
C1773 H1759 0.929 . S
C1773 C1772 1.399 . S
C1773 C1774 1.385 . S
C1774 H1760 0.931 . S
C1774 C1773 1.385 . S
C1774 C1775 1.389 . S
C1775 C1774 1.389 . S
C1775 C1776 1.387 . S
C1776 H1761 0.930 . S
C1776 C1771 1.390 . S
C1776 C1775 1.387 . S
H1777 C1789 0.930 . S
H1778 C1791 0.930 . S
H1779 C1792 0.930 . S
H1780 C1796 0.959 . S
H1781 C1796 0.959 . S
H1782 C1796 0.961 . S
H1783 C1797 0.960 . S
H1784 C1797 0.961 . S
H1785 C1797 0.959 . S
H1786 C1800 0.929 . S
H1787 C1801 0.931 . S
H1788 C1803 0.930 . S
C1789 H1777 0.930 . S
C1789 C1790 1.399 . S
C1789 C1794 1.399 . S
C1790 C1789 1.399 . S
C1790 C1791 1.376 . S
C1791 H1778 0.930 . S
C1791 C1790 1.376 . S
C1791 C1792 1.388 . S
C1792 H1779 0.930 . S
C1792 C1791 1.388 . S
C1792 C1793 1.390 . S
C1793 C1792 1.390 . S
C1793 C1794 1.394 . S
C1793 C1799 1.465 . S
C1794 C1789 1.399 . S
C1794 C1793 1.394 . S
C1794 C1795 1.516 . S
C1795 C1794 1.516 . S
C1795 C1796 1.502 . S
C1795 C1797 1.561 . S
C1795 C1798 1.526 . S
C1796 H1780 0.959 . S
C1796 H1781 0.959 . S
C1796 H1782 0.961 . S
C1796 C1795 1.502 . S
C1797 H1783 0.960 . S
C1797 H1784 0.961 . S
C1797 H1785 0.959 . S
C1797 C1795 1.561 . S
C1798 C1795 1.526 . S
C1798 C1799 1.396 . S
C1798 C1803 1.390 . S
C1799 C1793 1.465 . S
C1799 C1798 1.396 . S
C1799 C1800 1.399 . S
C1800 H1786 0.929 . S
C1800 C1799 1.399 . S
C1800 C1801 1.385 . S
C1801 H1787 0.931 . S
C1801 C1800 1.385 . S
C1801 C1802 1.389 . S
C1802 C1801 1.389 . S
C1802 C1803 1.387 . S
C1803 H1788 0.930 . S
C1803 C1798 1.390 . S
C1803 C1802 1.387 . S
H1804 C1816 0.930 . S
H1805 C1818 0.930 . S
H1806 C1819 0.930 . S
H1807 C1823 0.959 . S
H1808 C1823 0.959 . S
H1809 C1823 0.961 . S
H1810 C1824 0.960 . S
H1811 C1824 0.961 . S
H1812 C1824 0.959 . S
H1813 C1827 0.929 . S
H1814 C1828 0.931 . S
H1815 C1830 0.930 . S
C1816 H1804 0.930 . S
C1816 C1817 1.399 . S
C1816 C1821 1.399 . S
C1817 C1816 1.399 . S
C1817 C1818 1.376 . S
C1818 H1805 0.930 . S
C1818 C1817 1.376 . S
C1818 C1819 1.388 . S
C1819 H1806 0.930 . S
C1819 C1818 1.388 . S
C1819 C1820 1.390 . S
C1820 C1819 1.390 . S
C1820 C1821 1.394 . S
C1820 C1826 1.465 . S
C1821 C1816 1.399 . S
C1821 C1820 1.394 . S
C1821 C1822 1.516 . S
C1822 C1821 1.516 . S
C1822 C1823 1.502 . S
C1822 C1824 1.561 . S
C1822 C1825 1.526 . S
C1823 H1807 0.959 . S
C1823 H1808 0.959 . S
C1823 H1809 0.961 . S
C1823 C1822 1.502 . S
C1824 H1810 0.960 . S
C1824 H1811 0.961 . S
C1824 H1812 0.959 . S
C1824 C1822 1.561 . S
C1825 C1822 1.526 . S
C1825 C1826 1.396 . S
C1825 C1830 1.390 . S
C1826 C1820 1.465 . S
C1826 C1825 1.396 . S
C1826 C1827 1.399 . S
C1827 H1813 0.929 . S
C1827 C1826 1.399 . S
C1827 C1828 1.385 . S
C1828 H1814 0.931 . S
C1828 C1827 1.385 . S
C1828 C1829 1.389 . S
C1829 C1828 1.389 . S
C1829 C1830 1.387 . S
C1830 H1815 0.930 . S
C1830 C1825 1.390 . S
C1830 C1829 1.387 . S
H1831 C1843 0.930 . S
H1832 C1845 0.930 . S
H1833 C1846 0.930 . S
H1834 C1850 0.959 . S
H1835 C1850 0.959 . S
H1836 C1850 0.961 . S
H1837 C1851 0.960 . S
H1838 C1851 0.961 . S
H1839 C1851 0.959 . S
H1840 C1854 0.929 . S
H1841 C1855 0.931 . S
H1842 C1857 0.930 . S
C1843 H1831 0.930 . S
C1843 C1844 1.399 . S
C1843 C1848 1.399 . S
C1844 C1843 1.399 . S
C1844 C1845 1.376 . S
C1845 H1832 0.930 . S
C1845 C1844 1.376 . S
C1845 C1846 1.388 . S
C1846 H1833 0.930 . S
C1846 C1845 1.388 . S
C1846 C1847 1.390 . S
C1847 C1846 1.390 . S
C1847 C1848 1.394 . S
C1847 C1853 1.465 . S
C1848 C1843 1.399 . S
C1848 C1847 1.394 . S
C1848 C1849 1.516 . S
C1849 C1848 1.516 . S
C1849 C1850 1.502 . S
C1849 C1851 1.561 . S
C1849 C1852 1.526 . S
C1850 H1834 0.959 . S
C1850 H1835 0.959 . S
C1850 H1836 0.961 . S
C1850 C1849 1.502 . S
C1851 H1837 0.960 . S
C1851 H1838 0.961 . S
C1851 H1839 0.959 . S
C1851 C1849 1.561 . S
C1852 C1849 1.526 . S
C1852 C1853 1.396 . S
C1852 C1857 1.390 . S
C1853 C1847 1.465 . S
C1853 C1852 1.396 . S
C1853 C1854 1.399 . S
C1854 H1840 0.929 . S
C1854 C1853 1.399 . S
C1854 C1855 1.385 . S
C1855 H1841 0.931 . S
C1855 C1854 1.385 . S
C1855 C1856 1.389 . S
C1856 C1855 1.389 . S
C1856 C1857 1.387 . S
C1857 H1842 0.930 . S
C1857 C1852 1.390 . S
C1857 C1856 1.387 . S
H1858 C1870 0.930 . S
H1859 C1872 0.930 . S
H1860 C1873 0.930 . S
H1861 C1877 0.959 . S
H1862 C1877 0.959 . S
H1863 C1877 0.961 . S
H1864 C1878 0.960 . S
H1865 C1878 0.961 . S
H1866 C1878 0.959 . S
H1867 C1881 0.929 . S
H1868 C1882 0.931 . S
H1869 C1884 0.930 . S
C1870 H1858 0.930 . S
C1870 C1871 1.399 . S
C1870 C1875 1.399 . S
C1871 C1870 1.399 . S
C1871 C1872 1.376 . S
C1872 H1859 0.930 . S
C1872 C1871 1.376 . S
C1872 C1873 1.388 . S
C1873 H1860 0.930 . S
C1873 C1872 1.388 . S
C1873 C1874 1.390 . S
C1874 C1873 1.390 . S
C1874 C1875 1.394 . S
C1874 C1880 1.465 . S
C1875 C1870 1.399 . S
C1875 C1874 1.394 . S
C1875 C1876 1.516 . S
C1876 C1875 1.516 . S
C1876 C1877 1.502 . S
C1876 C1878 1.561 . S
C1876 C1879 1.526 . S
C1877 H1861 0.959 . S
C1877 H1862 0.959 . S
C1877 H1863 0.961 . S
C1877 C1876 1.502 . S
C1878 H1864 0.960 . S
C1878 H1865 0.961 . S
C1878 H1866 0.959 . S
C1878 C1876 1.561 . S
C1879 C1876 1.526 . S
C1879 C1880 1.396 . S
C1879 C1884 1.390 . S
C1880 C1874 1.465 . S
C1880 C1879 1.396 . S
C1880 C1881 1.399 . S
C1881 H1867 0.929 . S
C1881 C1880 1.399 . S
C1881 C1882 1.385 . S
C1882 H1868 0.931 . S
C1882 C1881 1.385 . S
C1882 C1883 1.389 . S
C1883 C1882 1.389 . S
C1883 C1884 1.387 . S
C1884 H1869 0.930 . S
C1884 C1879 1.390 . S
C1884 C1883 1.387 . S
H1885 C1897 0.930 . S
H1886 C1899 0.930 . S
H1887 C1900 0.930 . S
H1888 C1904 0.959 . S
H1889 C1904 0.959 . S
H1890 C1904 0.961 . S
H1891 C1905 0.960 . S
H1892 C1905 0.961 . S
H1893 C1905 0.959 . S
H1894 C1908 0.929 . S
H1895 C1909 0.931 . S
H1896 C1911 0.930 . S
C1897 H1885 0.930 . S
C1897 C1898 1.399 . S
C1897 C1902 1.399 . S
C1898 C1897 1.399 . S
C1898 C1899 1.376 . S
C1899 H1886 0.930 . S
C1899 C1898 1.376 . S
C1899 C1900 1.388 . S
C1900 H1887 0.930 . S
C1900 C1899 1.388 . S
C1900 C1901 1.390 . S
C1901 C1900 1.390 . S
C1901 C1902 1.394 . S
C1901 C1907 1.465 . S
C1902 C1897 1.399 . S
C1902 C1901 1.394 . S
C1902 C1903 1.516 . S
C1903 C1902 1.516 . S
C1903 C1904 1.502 . S
C1903 C1905 1.561 . S
C1903 C1906 1.526 . S
C1904 H1888 0.959 . S
C1904 H1889 0.959 . S
C1904 H1890 0.961 . S
C1904 C1903 1.502 . S
C1905 H1891 0.960 . S
C1905 H1892 0.961 . S
C1905 H1893 0.959 . S
C1905 C1903 1.561 . S
C1906 C1903 1.526 . S
C1906 C1907 1.396 . S
C1906 C1911 1.390 . S
C1907 C1901 1.465 . S
C1907 C1906 1.396 . S
C1907 C1908 1.399 . S
C1908 H1894 0.929 . S
C1908 C1907 1.399 . S
C1908 C1909 1.385 . S
C1909 H1895 0.931 . S
C1909 C1908 1.385 . S
C1909 C1910 1.389 . S
C1910 C1909 1.389 . S
C1910 C1911 1.387 . S
C1911 H1896 0.930 . S
C1911 C1906 1.390 . S
C1911 C1910 1.387 . S
H1912 C1924 0.930 . S
H1913 C1926 0.930 . S
H1914 C1927 0.930 . S
H1915 C1931 0.959 . S
H1916 C1931 0.959 . S
H1917 C1931 0.961 . S
H1918 C1932 0.960 . S
H1919 C1932 0.961 . S
H1920 C1932 0.959 . S
H1921 C1935 0.929 . S
H1922 C1936 0.931 . S
H1923 C1938 0.930 . S
C1924 H1912 0.930 . S
C1924 C1925 1.399 . S
C1924 C1929 1.399 . S
C1925 C1924 1.399 . S
C1925 C1926 1.376 . S
C1926 H1913 0.930 . S
C1926 C1925 1.376 . S
C1926 C1927 1.388 . S
C1927 H1914 0.930 . S
C1927 C1926 1.388 . S
C1927 C1928 1.390 . S
C1928 C1927 1.390 . S
C1928 C1929 1.394 . S
C1928 C1934 1.465 . S
C1929 C1924 1.399 . S
C1929 C1928 1.394 . S
C1929 C1930 1.516 . S
C1930 C1929 1.516 . S
C1930 C1931 1.502 . S
C1930 C1932 1.561 . S
C1930 C1933 1.526 . S
C1931 H1915 0.959 . S
C1931 H1916 0.959 . S
C1931 H1917 0.961 . S
C1931 C1930 1.502 . S
C1932 H1918 0.960 . S
C1932 H1919 0.961 . S
C1932 H1920 0.959 . S
C1932 C1930 1.561 . S
C1933 C1930 1.526 . S
C1933 C1934 1.396 . S
C1933 C1938 1.390 . S
C1934 C1928 1.465 . S
C1934 C1933 1.396 . S
C1934 C1935 1.399 . S
C1935 H1921 0.929 . S
C1935 C1934 1.399 . S
C1935 C1936 1.385 . S
C1936 H1922 0.931 . S
C1936 C1935 1.385 . S
C1936 C1937 1.389 . S
C1937 C1936 1.389 . S
C1937 C1938 1.387 . S
C1938 H1923 0.930 . S
C1938 C1933 1.390 . S
C1938 C1937 1.387 . S
H1939 C1951 0.930 . S
H1940 C1953 0.930 . S
H1941 C1954 0.930 . S
H1942 C1958 0.959 . S
H1943 C1958 0.959 . S
H1944 C1958 0.961 . S
H1945 C1959 0.960 . S
H1946 C1959 0.961 . S
H1947 C1959 0.959 . S
H1948 C1962 0.929 . S
H1949 C1963 0.931 . S
H1950 C1965 0.930 . S
C1951 H1939 0.930 . S
C1951 C1952 1.399 . S
C1951 C1956 1.399 . S
C1952 C1951 1.399 . S
C1952 C1953 1.376 . S
C1953 H1940 0.930 . S
C1953 C1952 1.376 . S
C1953 C1954 1.388 . S
C1954 H1941 0.930 . S
C1954 C1953 1.388 . S
C1954 C1955 1.390 . S
C1955 C1954 1.390 . S
C1955 C1956 1.394 . S
C1955 C1961 1.465 . S
C1956 C1951 1.399 . S
C1956 C1955 1.394 . S
C1956 C1957 1.516 . S
C1957 C1956 1.516 . S
C1957 C1958 1.502 . S
C1957 C1959 1.561 . S
C1957 C1960 1.526 . S
C1958 H1942 0.959 . S
C1958 H1943 0.959 . S
C1958 H1944 0.961 . S
C1958 C1957 1.502 . S
C1959 H1945 0.960 . S
C1959 H1946 0.961 . S
C1959 H1947 0.959 . S
C1959 C1957 1.561 . S
C1960 C1957 1.526 . S
C1960 C1961 1.396 . S
C1960 C1965 1.390 . S
C1961 C1955 1.465 . S
C1961 C1960 1.396 . S
C1961 C1962 1.399 . S
C1962 H1948 0.929 . S
C1962 C1961 1.399 . S
C1962 C1963 1.385 . S
C1963 H1949 0.931 . S
C1963 C1962 1.385 . S
C1963 C1964 1.389 . S
C1964 C1963 1.389 . S
C1964 C1965 1.387 . S
C1965 H1950 0.930 . S
C1965 C1960 1.390 . S
C1965 C1964 1.387 . S
H1966 C1978 0.930 . S
H1967 C1980 0.930 . S
H1968 C1981 0.930 . S
H1969 C1985 0.959 . S
H1970 C1985 0.959 . S
H1971 C1985 0.961 . S
H1972 C1986 0.960 . S
H1973 C1986 0.961 . S
H1974 C1986 0.959 . S
H1975 C1989 0.929 . S
H1976 C1990 0.931 . S
H1977 C1992 0.930 . S
C1978 H1966 0.930 . S
C1978 C1979 1.399 . S
C1978 C1983 1.399 . S
C1979 C1978 1.399 . S
C1979 C1980 1.376 . S
C1980 H1967 0.930 . S
C1980 C1979 1.376 . S
C1980 C1981 1.388 . S
C1981 H1968 0.930 . S
C1981 C1980 1.388 . S
C1981 C1982 1.390 . S
C1982 C1981 1.390 . S
C1982 C1983 1.394 . S
C1982 C1988 1.465 . S
C1983 C1978 1.399 . S
C1983 C1982 1.394 . S
C1983 C1984 1.516 . S
C1984 C1983 1.516 . S
C1984 C1985 1.502 . S
C1984 C1986 1.561 . S
C1984 C1987 1.526 . S
C1985 H1969 0.959 . S
C1985 H1970 0.959 . S
C1985 H1971 0.961 . S
C1985 C1984 1.502 . S
C1986 H1972 0.960 . S
C1986 H1973 0.961 . S
C1986 H1974 0.959 . S
C1986 C1984 1.561 . S
C1987 C1984 1.526 . S
C1987 C1988 1.396 . S
C1987 C1992 1.390 . S
C1988 C1982 1.465 . S
C1988 C1987 1.396 . S
C1988 C1989 1.399 . S
C1989 H1975 0.929 . S
C1989 C1988 1.399 . S
C1989 C1990 1.385 . S
C1990 H1976 0.931 . S
C1990 C1989 1.385 . S
C1990 C1991 1.389 . S
C1991 C1990 1.389 . S
C1991 C1992 1.387 . S
C1992 H1977 0.930 . S
C1992 C1987 1.390 . S
C1992 C1991 1.387 . S
H1993 C2005 0.930 . S
H1994 C2007 0.930 . S
H1995 C2008 0.930 . S
H1996 C2012 0.959 . S
H1997 C2012 0.959 . S
H1998 C2012 0.961 . S
H1999 C2013 0.960 . S
H2000 C2013 0.961 . S
H2001 C2013 0.959 . S
H2002 C2016 0.929 . S
H2003 C2017 0.931 . S
H2004 C2019 0.930 . S
C2005 H1993 0.930 . S
C2005 C2006 1.399 . S
C2005 C2010 1.399 . S
C2006 C2005 1.399 . S
C2006 C2007 1.376 . S
C2007 H1994 0.930 . S
C2007 C2006 1.376 . S
C2007 C2008 1.388 . S
C2008 H1995 0.930 . S
C2008 C2007 1.388 . S
C2008 C2009 1.390 . S
C2009 C2008 1.390 . S
C2009 C2010 1.394 . S
C2009 C2015 1.465 . S
C2010 C2005 1.399 . S
C2010 C2009 1.394 . S
C2010 C2011 1.516 . S
C2011 C2010 1.516 . S
C2011 C2012 1.502 . S
C2011 C2013 1.561 . S
C2011 C2014 1.526 . S
C2012 H1996 0.959 . S
C2012 H1997 0.959 . S
C2012 H1998 0.961 . S
C2012 C2011 1.502 . S
C2013 H1999 0.960 . S
C2013 H2000 0.961 . S
C2013 H2001 0.959 . S
C2013 C2011 1.561 . S
C2014 C2011 1.526 . S
C2014 C2015 1.396 . S
C2014 C2019 1.390 . S
C2015 C2009 1.465 . S
C2015 C2014 1.396 . S
C2015 C2016 1.399 . S
C2016 H2002 0.929 . S
C2016 C2015 1.399 . S
C2016 C2017 1.385 . S
C2017 H2003 0.931 . S
C2017 C2016 1.385 . S
C2017 C2018 1.389 . S
C2018 C2017 1.389 . S
C2018 C2019 1.387 . S
C2019 H2004 0.930 . S
C2019 C2014 1.390 . S
C2019 C2018 1.387 . S
H2020 C2032 0.930 . S
H2021 C2034 0.930 . S
H2022 C2035 0.930 . S
H2023 C2039 0.959 . S
H2024 C2039 0.959 . S
H2025 C2039 0.961 . S
H2026 C2040 0.960 . S
H2027 C2040 0.961 . S
H2028 C2040 0.959 . S
H2029 C2043 0.929 . S
H2030 C2044 0.931 . S
H2031 C2046 0.930 . S
C2032 H2020 0.930 . S
C2032 C2033 1.399 . S
C2032 C2037 1.399 . S
C2033 C2032 1.399 . S
C2033 C2034 1.376 . S
C2034 H2021 0.930 . S
C2034 C2033 1.376 . S
C2034 C2035 1.388 . S
C2035 H2022 0.930 . S
C2035 C2034 1.388 . S
C2035 C2036 1.390 . S
C2036 C2035 1.390 . S
C2036 C2037 1.394 . S
C2036 C2042 1.465 . S
C2037 C2032 1.399 . S
C2037 C2036 1.394 . S
C2037 C2038 1.516 . S
C2038 C2037 1.516 . S
C2038 C2039 1.502 . S
C2038 C2040 1.561 . S
C2038 C2041 1.526 . S
C2039 H2023 0.959 . S
C2039 H2024 0.959 . S
C2039 H2025 0.961 . S
C2039 C2038 1.502 . S
C2040 H2026 0.960 . S
C2040 H2027 0.961 . S
C2040 H2028 0.959 . S
C2040 C2038 1.561 . S
C2041 C2038 1.526 . S
C2041 C2042 1.396 . S
C2041 C2046 1.390 . S
C2042 C2036 1.465 . S
C2042 C2041 1.396 . S
C2042 C2043 1.399 . S
C2043 H2029 0.929 . S
C2043 C2042 1.399 . S
C2043 C2044 1.385 . S
C2044 H2030 0.931 . S
C2044 C2043 1.385 . S
C2044 C2045 1.389 . S
C2045 C2044 1.389 . S
C2045 C2046 1.387 . S
C2046 H2031 0.930 . S
C2046 C2041 1.390 . S
C2046 C2045 1.387 . S
H2047 C2059 0.930 . S
H2048 C2061 0.930 . S
H2049 C2062 0.930 . S
H2050 C2066 0.959 . S
H2051 C2066 0.959 . S
H2052 C2066 0.961 . S
H2053 C2067 0.960 . S
H2054 C2067 0.961 . S
H2055 C2067 0.959 . S
H2056 C2070 0.929 . S
H2057 C2071 0.931 . S
H2058 C2073 0.930 . S
C2059 H2047 0.930 . S
C2059 C2060 1.399 . S
C2059 C2064 1.399 . S
C2060 C2059 1.399 . S
C2060 C2061 1.376 . S
C2061 H2048 0.930 . S
C2061 C2060 1.376 . S
C2061 C2062 1.388 . S
C2062 H2049 0.930 . S
C2062 C2061 1.388 . S
C2062 C2063 1.390 . S
C2063 C2062 1.390 . S
C2063 C2064 1.394 . S
C2063 C2069 1.465 . S
C2064 C2059 1.399 . S
C2064 C2063 1.394 . S
C2064 C2065 1.516 . S
C2065 C2064 1.516 . S
C2065 C2066 1.502 . S
C2065 C2067 1.561 . S
C2065 C2068 1.526 . S
C2066 H2050 0.959 . S
C2066 H2051 0.959 . S
C2066 H2052 0.961 . S
C2066 C2065 1.502 . S
C2067 H2053 0.960 . S
C2067 H2054 0.961 . S
C2067 H2055 0.959 . S
C2067 C2065 1.561 . S
C2068 C2065 1.526 . S
C2068 C2069 1.396 . S
C2068 C2073 1.390 . S
C2069 C2063 1.465 . S
C2069 C2068 1.396 . S
C2069 C2070 1.399 . S
C2070 H2056 0.929 . S
C2070 C2069 1.399 . S
C2070 C2071 1.385 . S
C2071 H2057 0.931 . S
C2071 C2070 1.385 . S
C2071 C2072 1.389 . S
C2072 C2071 1.389 . S
C2072 C2073 1.387 . S
C2073 H2058 0.930 . S
C2073 C2068 1.390 . S
C2073 C2072 1.387 . S
H2074 C2086 0.930 . S
H2075 C2088 0.930 . S
H2076 C2089 0.930 . S
H2077 C2093 0.959 . S
H2078 C2093 0.959 . S
H2079 C2093 0.961 . S
H2080 C2094 0.960 . S
H2081 C2094 0.961 . S
H2082 C2094 0.959 . S
H2083 C2097 0.929 . S
H2084 C2098 0.931 . S
H2085 C2100 0.930 . S
C2086 H2074 0.930 . S
C2086 C2087 1.399 . S
C2086 C2091 1.399 . S
C2087 C2086 1.399 . S
C2087 C2088 1.376 . S
C2088 H2075 0.930 . S
C2088 C2087 1.376 . S
C2088 C2089 1.388 . S
C2089 H2076 0.930 . S
C2089 C2088 1.388 . S
C2089 C2090 1.390 . S
C2090 C2089 1.390 . S
C2090 C2091 1.394 . S
C2090 C2096 1.465 . S
C2091 C2086 1.399 . S
C2091 C2090 1.394 . S
C2091 C2092 1.516 . S
C2092 C2091 1.516 . S
C2092 C2093 1.502 . S
C2092 C2094 1.561 . S
C2092 C2095 1.526 . S
C2093 H2077 0.959 . S
C2093 H2078 0.959 . S
C2093 H2079 0.961 . S
C2093 C2092 1.502 . S
C2094 H2080 0.960 . S
C2094 H2081 0.961 . S
C2094 H2082 0.959 . S
C2094 C2092 1.561 . S
C2095 C2092 1.526 . S
C2095 C2096 1.396 . S
C2095 C2100 1.390 . S
C2096 C2090 1.465 . S
C2096 C2095 1.396 . S
C2096 C2097 1.399 . S
C2097 H2083 0.929 . S
C2097 C2096 1.399 . S
C2097 C2098 1.385 . S
C2098 H2084 0.931 . S
C2098 C2097 1.385 . S
C2098 C2099 1.389 . S
C2099 C2098 1.389 . S
C2099 C2100 1.387 . S
C2100 H2085 0.930 . S
C2100 C2095 1.390 . S
C2100 C2099 1.387 . S
H2101 C2113 0.930 . S
H2102 C2115 0.930 . S
H2103 C2116 0.930 . S
H2104 C2120 0.959 . S
H2105 C2120 0.959 . S
H2106 C2120 0.961 . S
H2107 C2121 0.960 . S
H2108 C2121 0.961 . S
H2109 C2121 0.959 . S
H2110 C2124 0.929 . S
H2111 C2125 0.931 . S
H2112 C2127 0.930 . S
C2113 H2101 0.930 . S
C2113 C2114 1.399 . S
C2113 C2118 1.399 . S
C2114 C2113 1.399 . S
C2114 C2115 1.376 . S
C2115 H2102 0.930 . S
C2115 C2114 1.376 . S
C2115 C2116 1.388 . S
C2116 H2103 0.930 . S
C2116 C2115 1.388 . S
C2116 C2117 1.390 . S
C2117 C2116 1.390 . S
C2117 C2118 1.394 . S
C2117 C2123 1.465 . S
C2118 C2113 1.399 . S
C2118 C2117 1.394 . S
C2118 C2119 1.516 . S
C2119 C2118 1.516 . S
C2119 C2120 1.502 . S
C2119 C2121 1.561 . S
C2119 C2122 1.526 . S
C2120 H2104 0.959 . S
C2120 H2105 0.959 . S
C2120 H2106 0.961 . S
C2120 C2119 1.502 . S
C2121 H2107 0.960 . S
C2121 H2108 0.961 . S
C2121 H2109 0.959 . S
C2121 C2119 1.561 . S
C2122 C2119 1.526 . S
C2122 C2123 1.396 . S
C2122 C2127 1.390 . S
C2123 C2117 1.465 . S
C2123 C2122 1.396 . S
C2123 C2124 1.399 . S
C2124 H2110 0.929 . S
C2124 C2123 1.399 . S
C2124 C2125 1.385 . S
C2125 H2111 0.931 . S
C2125 C2124 1.385 . S
C2125 C2126 1.389 . S
C2126 C2125 1.389 . S
C2126 C2127 1.387 . S
C2127 H2112 0.930 . S
C2127 C2122 1.390 . S
C2127 C2126 1.387 . S
H2128 C2140 0.930 . S
H2129 C2142 0.930 . S
H2130 C2143 0.930 . S
H2131 C2147 0.959 . S
H2132 C2147 0.959 . S
H2133 C2147 0.961 . S
H2134 C2148 0.960 . S
H2135 C2148 0.961 1_455 S
H2136 C2148 0.959 . S
H2137 C2151 0.929 . S
H2138 C2152 0.931 . S
H2139 C2154 0.930 . S
C2140 H2128 0.930 . S
C2140 C2141 1.399 . S
C2140 C2145 1.399 . S
C2141 C2140 1.399 . S
C2141 C2142 1.376 . S
C2142 H2129 0.930 . S
C2142 C2141 1.376 . S
C2142 C2143 1.388 . S
C2143 H2130 0.930 . S
C2143 C2142 1.388 . S
C2143 C2144 1.390 . S
C2144 C2143 1.390 . S
C2144 C2145 1.394 . S
C2144 C2150 1.465 1_655 S
C2145 C2140 1.399 . S
C2145 C2144 1.394 . S
C2145 C2146 1.516 1_655 S
C2146 C2145 1.516 1_455 S
C2146 C2147 1.502 . S
C2146 C2148 1.561 1_455 S
C2146 C2149 1.526 . S
C2147 H2131 0.959 . S
C2147 H2132 0.959 . S
C2147 H2133 0.961 . S
C2147 C2146 1.502 . S
C2148 H2134 0.960 . S
C2148 H2135 0.961 1_655 S
C2148 H2136 0.959 . S
C2148 C2146 1.561 1_655 S
C2149 C2146 1.526 . S
C2149 C2150 1.396 . S
C2149 C2154 1.390 . S
C2150 C2144 1.465 1_455 S
C2150 C2149 1.396 . S
C2150 C2151 1.399 . S
C2151 H2137 0.929 . S
C2151 C2150 1.399 . S
C2151 C2152 1.385 . S
C2152 H2138 0.931 . S
C2152 C2151 1.385 . S
C2152 C2153 1.389 . S
C2153 C2152 1.389 . S
C2153 C2154 1.387 . S
C2154 H2139 0.930 . S
C2154 C2149 1.390 . S
C2154 C2153 1.387 . S
H2155 C2167 0.930 . S
H2156 C2169 0.930 . S
H2157 C2170 0.930 . S
H2158 C2174 0.959 1_565 S
H2159 C2174 0.959 . S
H2160 C2174 0.949 1_565 S
H2161 C2175 0.960 . S
H2162 C2175 0.961 . S
H2163 C2175 0.959 . S
H2164 C2178 0.940 . S
H2165 C2179 0.931 . S
H2166 C2181 0.930 . S
C2167 H2155 0.930 . S
C2167 C2168 1.399 . S
C2167 C2172 1.399 . S
C2168 C2167 1.399 . S
C2168 C2169 1.376 . S
C2169 H2156 0.930 . S
C2169 C2168 1.376 . S
C2169 C2170 1.388 . S
C2170 H2157 0.930 . S
C2170 C2169 1.388 . S
C2170 C2171 1.390 . S
C2171 C2170 1.390 . S
C2171 C2172 1.394 . S
C2171 C2177 1.465 1_565 S
C2172 C2167 1.399 . S
C2172 C2171 1.394 . S
C2172 C2173 1.516 1_565 S
C2173 C2172 1.516 1_545 S
C2173 C2174 1.502 . S
C2173 C2175 1.561 . S
C2173 C2176 1.526 . S
C2174 H2158 0.959 1_545 S
C2174 H2159 0.959 . S
C2174 H2160 0.949 1_545 S
C2174 C2173 1.502 . S
C2175 H2161 0.960 . S
C2175 H2162 0.961 . S
C2175 H2163 0.959 . S
C2175 C2173 1.561 . S
C2176 C2173 1.526 . S
C2176 C2177 1.396 . S
C2176 C2181 1.390 . S
C2177 C2171 1.465 1_545 S
C2177 C2176 1.396 . S
C2177 C2178 1.399 . S
C2178 H2164 0.940 . S
C2178 C2177 1.399 . S
C2178 C2179 1.385 . S
C2179 H2165 0.931 . S
C2179 C2178 1.385 . S
C2179 C2180 1.389 . S
C2180 C2179 1.389 . S
C2180 C2181 1.387 . S
C2181 H2166 0.930 . S
C2181 C2176 1.390 . S
C2181 C2180 1.387 . S
H2182 C2194 0.930 . S
H2183 C2196 0.930 . S
H2184 C2197 0.930 . S
H2185 C2201 0.959 . S
H2186 C2201 0.959 . S
H2187 C2201 0.961 . S
H2188 C2202 0.960 1_455 S
H2189 C2202 0.961 1_545 S
H2190 C2202 0.959 . S
H2191 C2205 0.929 1_565 S
H2192 C2206 0.931 . S
H2193 C2208 0.930 . S
C2194 H2182 0.930 . S
C2194 C2195 1.399 . S
C2194 C2199 1.399 . S
C2195 C2194 1.399 . S
C2195 C2196 1.376 1_556 S
C2196 H2183 0.930 . S
C2196 C2195 1.376 1_554 S
C2196 C2197 1.388 . S
C2197 H2184 0.930 . S
C2197 C2196 1.388 . S
C2197 C2198 1.390 . S
C2198 C2197 1.390 . S
C2198 C2199 1.394 1_554 S
C2198 C2204 1.424 1_465 S
C2199 C2194 1.399 . S
C2199 C2198 1.394 1_556 S
C2199 C2200 1.516 1_565 S
C2200 C2199 1.516 1_545 S
C2200 C2201 1.502 . S
C2200 C2202 1.561 1_445 S
C2200 C2203 1.526 1_455 S
C2201 H2185 0.959 . S
C2201 H2186 0.959 . S
C2201 H2187 0.961 . S
C2201 C2200 1.502 . S
C2202 H2188 0.960 1_655 S
C2202 H2189 0.961 1_565 S
C2202 H2190 0.959 . S
C2202 C2200 1.561 1_665 S
C2203 C2200 1.526 1_655 S
C2203 C2204 1.437 1_556 S
C2203 C2208 1.390 . S
C2204 C2198 1.424 1_645 S
C2204 C2203 1.437 1_554 S
C2204 C2205 1.407 . S
C2205 H2191 0.929 1_545 S
C2205 C2204 1.407 . S
C2205 C2206 1.385 . S
C2206 H2192 0.931 . S
C2206 C2205 1.385 . S
C2206 C2207 1.389 . S
C2207 C2206 1.389 . S
C2207 C2208 1.387 1_554 S
C2208 H2193 0.930 . S
C2208 C2203 1.390 . S
C2208 C2207 1.387 1_556 S
H2209 C2221 0.930 . S
H2210 C2223 0.930 . S
H2211 C2224 0.930 . S
H2212 C2228 0.959 . S
H2213 C2228 0.959 . S
H2214 C2228 0.961 . S
H2215 C2229 0.960 . S
H2216 C2229 0.961 . S
H2217 C2229 0.959 . S
H2218 C2232 0.929 . S
H2219 C2233 0.931 . S
H2220 C2235 0.930 . S
C2221 H2209 0.930 . S
C2221 C2222 1.399 . S
C2221 C2226 1.399 . S
C2222 C2221 1.399 . S
C2222 C2223 1.376 1_554 S
C2223 H2210 0.930 . S
C2223 C2222 1.376 1_556 S
C2223 C2224 1.388 . S
C2224 H2211 0.930 . S
C2224 C2223 1.388 . S
C2224 C2225 1.390 . S
C2225 C2224 1.390 . S
C2225 C2226 1.394 1_556 S
C2225 C2231 1.465 . S
C2226 C2221 1.399 . S
C2226 C2225 1.394 1_554 S
C2226 C2227 1.516 . S
C2227 C2226 1.516 . S
C2227 C2228 1.502 . S
C2227 C2229 1.561 . S
C2227 C2230 1.526 . S
C2228 H2212 0.959 . S
C2228 H2213 0.959 . S
C2228 H2214 0.961 . S
C2228 C2227 1.502 . S
C2229 H2215 0.960 . S
C2229 H2216 0.961 . S
C2229 H2217 0.959 . S
C2229 C2227 1.561 . S
C2230 C2227 1.526 . S
C2230 C2231 1.396 1_554 S
C2230 C2235 1.390 . S
C2231 C2225 1.465 . S
C2231 C2230 1.396 1_556 S
C2231 C2232 1.399 . S
C2232 H2218 0.929 . S
C2232 C2231 1.399 . S
C2232 C2233 1.385 . S
C2233 H2219 0.931 . S
C2233 C2232 1.385 . S
C2233 C2234 1.389 . S
C2234 C2233 1.389 . S
C2234 C2235 1.387 1_556 S
C2235 H2220 0.930 . S
C2235 C2230 1.390 . S
C2235 C2234 1.387 1_554 S
H2236 C2248 0.930 . S
H2237 C2250 0.930 . S
H2238 C2251 0.930 . S
H2239 C2255 0.959 . S
H2240 C2255 0.959 . S
H2241 C2255 0.961 . S
H2242 C2256 0.960 . S
H2243 C2256 0.961 1_455 S
H2244 C2256 0.959 . S
H2245 C2259 0.929 . S
H2246 C2260 0.931 . S
H2247 C2262 0.930 . S
C2248 H2236 0.930 . S
C2248 C2249 1.399 . S
C2248 C2253 1.399 . S
C2249 C2248 1.399 . S
C2249 C2250 1.376 . S
C2250 H2237 0.930 . S
C2250 C2249 1.376 . S
C2250 C2251 1.388 . S
C2251 H2238 0.930 . S
C2251 C2250 1.388 . S
C2251 C2252 1.390 . S
C2252 C2251 1.390 . S
C2252 C2253 1.394 . S
C2252 C2258 1.465 1_655 S
C2253 C2248 1.399 . S
C2253 C2252 1.394 . S
C2253 C2254 1.516 1_655 S
C2254 C2253 1.516 1_455 S
C2254 C2255 1.502 . S
C2254 C2256 1.561 1_455 S
C2254 C2257 1.526 . S
C2255 H2239 0.959 . S
C2255 H2240 0.959 . S
C2255 H2241 0.961 . S
C2255 C2254 1.502 . S
C2256 H2242 0.960 . S
C2256 H2243 0.961 1_655 S
C2256 H2244 0.959 . S
C2256 C2254 1.561 1_655 S
C2257 C2254 1.526 . S
C2257 C2258 1.396 . S
C2257 C2262 1.390 . S
C2258 C2252 1.465 1_455 S
C2258 C2257 1.396 . S
C2258 C2259 1.399 . S
C2259 H2245 0.929 . S
C2259 C2258 1.399 . S
C2259 C2260 1.385 . S
C2260 H2246 0.931 . S
C2260 C2259 1.385 . S
C2260 C2261 1.389 . S
C2261 C2260 1.389 . S
C2261 C2262 1.387 . S
C2262 H2247 0.930 . S
C2262 C2257 1.390 . S
C2262 C2261 1.387 . S
H2263 C2275 0.930 . S
H2264 C2277 0.930 . S
H2265 C2278 0.930 . S
H2266 C2282 0.959 . S
H2267 C2282 0.959 . S
H2268 C2282 0.961 . S
H2269 C2283 0.960 . S
H2270 C2283 0.961 . S
H2271 C2283 0.959 1_565 S
H2272 C2286 0.973 . S
H2273 C2287 0.931 . S
H2274 C2289 0.930 . S
C2275 H2263 0.930 . S
C2275 C2276 1.399 . S
C2275 C2280 1.399 . S
C2276 C2275 1.399 . S
C2276 C2277 1.376 . S
C2277 H2264 0.930 . S
C2277 C2276 1.376 . S
C2277 C2278 1.388 . S
C2278 H2265 0.930 . S
C2278 C2277 1.388 . S
C2278 C2279 1.390 . S
C2279 C2278 1.390 . S
C2279 C2280 1.394 . S
C2279 C2285 1.474 . S
C2280 C2275 1.399 . S
C2280 C2279 1.394 . S
C2280 C2281 1.516 1_565 S
C2281 C2280 1.516 1_545 S
C2281 C2282 1.502 . S
C2281 C2283 1.561 . S
C2281 C2284 1.526 . S
C2282 H2266 0.959 . S
C2282 H2267 0.959 . S
C2282 H2268 0.961 . S
C2282 C2281 1.502 . S
C2283 H2269 0.960 . S
C2283 H2270 0.961 . S
C2283 H2271 0.959 1_545 S
C2283 C2281 1.561 . S
C2284 C2281 1.526 . S
C2284 C2285 1.386 1_545 S
C2284 C2289 1.390 . S
C2285 C2279 1.474 . S
C2285 C2284 1.386 1_565 S
C2285 C2286 1.398 . S
C2286 H2272 0.973 . S
C2286 C2285 1.398 . S
C2286 C2287 1.343 1_565 S
C2287 H2273 0.931 . S
C2287 C2286 1.343 1_545 S
C2287 C2288 1.389 . S
C2288 C2287 1.389 . S
C2288 C2289 1.387 . S
C2289 H2274 0.930 . S
C2289 C2284 1.390 . S
C2289 C2288 1.387 . S
H2290 C2302 0.930 . S
H2291 C2304 0.930 . S
H2292 C2305 0.930 . S
H2293 C2309 0.959 . S
H2294 C2309 0.959 . S
H2295 C2309 0.961 . S
H2296 C2310 0.960 . S
H2297 C2310 0.961 . S
H2298 C2310 0.959 . S
H2299 C2313 0.929 . S
H2300 C2314 0.931 . S
H2301 C2316 0.930 . S
C2302 H2290 0.930 . S
C2302 C2303 1.399 1_554 S
C2302 C2307 1.399 . S
C2303 C2302 1.399 1_556 S
C2303 C2304 1.376 . S
C2304 H2291 0.930 . S
C2304 C2303 1.376 . S
C2304 C2305 1.388 . S
C2305 H2292 0.930 . S
C2305 C2304 1.388 . S
C2305 C2306 1.390 . S
C2306 C2305 1.390 . S
C2306 C2307 1.394 1_556 S
C2306 C2312 1.465 . S
C2307 C2302 1.399 . S
C2307 C2306 1.394 1_554 S
C2307 C2308 1.516 . S
C2308 C2307 1.516 . S
C2308 C2309 1.502 . S
C2308 C2310 1.561 . S
C2308 C2311 1.526 . S
C2309 H2293 0.959 . S
C2309 H2294 0.959 . S
C2309 H2295 0.961 . S
C2309 C2308 1.502 . S
C2310 H2296 0.960 . S
C2310 H2297 0.961 . S
C2310 H2298 0.959 . S
C2310 C2308 1.561 . S
C2311 C2308 1.526 . S
C2311 C2312 1.396 1_554 S
C2311 C2316 1.390 . S
C2312 C2306 1.465 . S
C2312 C2311 1.396 1_556 S
C2312 C2313 1.399 . S
C2313 H2299 0.929 . S
C2313 C2312 1.399 . S
C2313 C2314 1.385 . S
C2314 H2300 0.931 . S
C2314 C2313 1.385 . S
C2314 C2315 1.347 1_556 S
C2315 C2314 1.347 1_554 S
C2315 C2316 1.421 . S
C2316 H2301 0.930 . S
C2316 C2311 1.390 . S
C2316 C2315 1.421 . S
H2317 C2329 0.930 . S
H2318 C2331 0.930 . S
H2319 C2332 0.930 . S
H2320 C2336 0.959 . S
H2321 C2336 0.959 . S
H2322 C2336 0.961 . S
H2323 C2337 0.960 . S
H2324 C2337 0.961 . S
H2325 C2337 0.959 . S
H2326 C2340 0.929 . S
H2327 C2341 0.931 . S
H2328 C2343 0.930 . S
C2329 H2317 0.930 . S
C2329 C2330 1.399 . S
C2329 C2334 1.399 . S
C2330 C2329 1.399 . S
C2330 C2331 1.376 . S
C2331 H2318 0.930 . S
C2331 C2330 1.376 . S
C2331 C2332 1.388 . S
C2332 H2319 0.930 . S
C2332 C2331 1.388 . S
C2332 C2333 1.390 . S
C2333 C2332 1.390 . S
C2333 C2334 1.394 . S
C2333 C2339 1.465 . S
C2334 C2329 1.399 . S
C2334 C2333 1.394 . S
C2334 C2335 1.516 . S
C2335 C2334 1.516 . S
C2335 C2336 1.502 . S
C2335 C2337 1.561 . S
C2335 C2338 1.526 . S
C2336 H2320 0.959 . S
C2336 H2321 0.959 . S
C2336 H2322 0.961 . S
C2336 C2335 1.502 . S
C2337 H2323 0.960 . S
C2337 H2324 0.961 . S
C2337 H2325 0.959 . S
C2337 C2335 1.561 . S
C2338 C2335 1.526 . S
C2338 C2339 1.396 . S
C2338 C2343 1.390 . S
C2339 C2333 1.465 . S
C2339 C2338 1.396 . S
C2339 C2340 1.399 . S
C2340 H2326 0.929 . S
C2340 C2339 1.399 . S
C2340 C2341 1.385 . S
C2341 H2327 0.931 . S
C2341 C2340 1.385 . S
C2341 C2342 1.389 . S
C2342 C2341 1.389 . S
C2342 C2343 1.387 . S
C2343 H2328 0.930 . S
C2343 C2338 1.390 . S
C2343 C2342 1.387 . S
H2344 C2356 0.930 . S
H2345 C2358 0.930 . S
H2346 C2359 0.930 . S
H2347 C2363 0.959 . S
H2348 C2363 0.959 . S
H2349 C2363 0.961 . S
H2350 C2364 0.960 . S
H2351 C2364 0.961 1_455 S
H2352 C2364 0.959 . S
H2353 C2367 0.929 . S
H2354 C2368 0.931 . S
H2355 C2370 0.930 . S
C2356 H2344 0.930 . S
C2356 C2357 1.399 . S
C2356 C2361 1.399 . S
C2357 C2356 1.399 . S
C2357 C2358 1.376 . S
C2358 H2345 0.930 . S
C2358 C2357 1.376 . S
C2358 C2359 1.388 . S
C2359 H2346 0.930 . S
C2359 C2358 1.388 . S
C2359 C2360 1.390 . S
C2360 C2359 1.390 . S
C2360 C2361 1.394 . S
C2360 C2366 1.465 1_655 S
C2361 C2356 1.399 . S
C2361 C2360 1.394 . S
C2361 C2362 1.516 1_655 S
C2362 C2361 1.516 1_455 S
C2362 C2363 1.502 . S
C2362 C2364 1.561 1_455 S
C2362 C2365 1.526 . S
C2363 H2347 0.959 . S
C2363 H2348 0.959 . S
C2363 H2349 0.961 . S
C2363 C2362 1.502 . S
C2364 H2350 0.960 . S
C2364 H2351 0.961 1_655 S
C2364 H2352 0.959 . S
C2364 C2362 1.561 1_655 S
C2365 C2362 1.526 . S
C2365 C2366 1.396 . S
C2365 C2370 1.390 . S
C2366 C2360 1.465 1_455 S
C2366 C2365 1.396 . S
C2366 C2367 1.399 . S
C2367 H2353 0.929 . S
C2367 C2366 1.399 . S
C2367 C2368 1.385 . S
C2368 H2354 0.931 . S
C2368 C2367 1.385 . S
C2368 C2369 1.389 . S
C2369 C2368 1.389 . S
C2369 C2370 1.387 . S
C2370 H2355 0.930 . S
C2370 C2365 1.390 . S
C2370 C2369 1.387 . S
H2371 C2383 0.930 . S
H2372 C2385 0.930 . S
H2373 C2386 0.930 . S
H2374 C2390 0.959 . S
H2375 C2390 0.959 . S
H2376 C2390 0.961 . S
H2377 C2391 0.960 . S
H2378 C2391 0.961 . S
H2379 C2391 0.959 . S
H2380 C2394 0.929 . S
H2381 C2395 0.931 . S
H2382 C2397 0.930 . S
C2383 H2371 0.930 . S
C2383 C2384 1.399 . S
C2383 C2388 1.399 . S
C2384 C2383 1.399 . S
C2384 C2385 1.376 . S
C2385 H2372 0.930 . S
C2385 C2384 1.376 . S
C2385 C2386 1.388 . S
C2386 H2373 0.930 . S
C2386 C2385 1.388 . S
C2386 C2387 1.390 . S
C2387 C2386 1.390 . S
C2387 C2388 1.394 . S
C2387 C2393 1.465 . S
C2388 C2383 1.399 . S
C2388 C2387 1.394 . S
C2388 C2389 1.516 . S
C2389 C2388 1.516 . S
C2389 C2390 1.502 . S
C2389 C2391 1.561 . S
C2389 C2392 1.526 . S
C2390 H2374 0.959 . S
C2390 H2375 0.959 . S
C2390 H2376 0.961 . S
C2390 C2389 1.502 . S
C2391 H2377 0.960 . S
C2391 H2378 0.961 . S
C2391 H2379 0.959 . S
C2391 C2389 1.561 . S
C2392 C2389 1.526 . S
C2392 C2393 1.396 . S
C2392 C2397 1.390 . S
C2393 C2387 1.465 . S
C2393 C2392 1.396 . S
C2393 C2394 1.399 . S
C2394 H2380 0.929 . S
C2394 C2393 1.399 . S
C2394 C2395 1.385 . S
C2395 H2381 0.931 . S
C2395 C2394 1.385 . S
C2395 C2396 1.389 . S
C2396 C2395 1.389 . S
C2396 C2397 1.387 . S
C2397 H2382 0.930 . S
C2397 C2392 1.390 . S
C2397 C2396 1.387 . S
H2398 C2410 0.930 . S
H2399 C2412 0.930 . S
H2400 C2413 0.930 . S
H2401 C2417 0.959 . S
H2402 C2417 0.959 . S
H2403 C2417 0.961 . S
H2404 C2418 0.960 . S
H2405 C2418 0.961 . S
H2406 C2418 0.959 . S
H2407 C2421 0.929 . S
H2408 C2422 0.931 . S
H2409 C2424 0.930 . S
C2410 H2398 0.930 . S
C2410 C2411 1.399 . S
C2410 C2415 1.399 . S
C2411 C2410 1.399 . S
C2411 C2412 1.376 . S
C2412 H2399 0.930 . S
C2412 C2411 1.376 . S
C2412 C2413 1.388 . S
C2413 H2400 0.930 . S
C2413 C2412 1.388 . S
C2413 C2414 1.390 . S
C2414 C2413 1.390 . S
C2414 C2415 1.394 . S
C2414 C2420 1.465 . S
C2415 C2410 1.399 . S
C2415 C2414 1.394 . S
C2415 C2416 1.516 . S
C2416 C2415 1.516 . S
C2416 C2417 1.502 . S
C2416 C2418 1.561 . S
C2416 C2419 1.526 . S
C2417 H2401 0.959 . S
C2417 H2402 0.959 . S
C2417 H2403 0.961 . S
C2417 C2416 1.502 . S
C2418 H2404 0.960 . S
C2418 H2405 0.961 . S
C2418 H2406 0.959 . S
C2418 C2416 1.561 . S
C2419 C2416 1.526 . S
C2419 C2420 1.396 . S
C2419 C2424 1.390 . S
C2420 C2414 1.465 . S
C2420 C2419 1.396 . S
C2420 C2421 1.399 . S
C2421 H2407 0.929 . S
C2421 C2420 1.399 . S
C2421 C2422 1.385 . S
C2422 H2408 0.931 . S
C2422 C2421 1.385 . S
C2422 C2423 1.389 . S
C2423 C2422 1.389 . S
C2423 C2424 1.387 . S
C2424 H2409 0.930 . S
C2424 C2419 1.390 . S
C2424 C2423 1.387 . S
H2425 C2437 0.930 . S
H2426 C2439 0.930 . S
H2427 C2440 0.930 . S
H2428 C2444 0.959 . S
H2429 C2444 0.959 . S
H2430 C2444 0.961 . S
H2431 C2445 0.960 . S
H2432 C2445 0.961 . S
H2433 C2445 0.959 . S
H2434 C2448 0.929 . S
H2435 C2449 0.931 . S
H2436 C2451 0.930 . S
C2437 H2425 0.930 . S
C2437 C2438 1.399 . S
C2437 C2442 1.399 . S
C2438 C2437 1.399 . S
C2438 C2439 1.376 . S
C2439 H2426 0.930 . S
C2439 C2438 1.376 . S
C2439 C2440 1.388 . S
C2440 H2427 0.930 . S
C2440 C2439 1.388 . S
C2440 C2441 1.390 . S
C2441 C2440 1.390 . S
C2441 C2442 1.394 . S
C2441 C2447 1.465 . S
C2442 C2437 1.399 . S
C2442 C2441 1.394 . S
C2442 C2443 1.516 . S
C2443 C2442 1.516 . S
C2443 C2444 1.502 . S
C2443 C2445 1.561 . S
C2443 C2446 1.526 . S
C2444 H2428 0.959 . S
C2444 H2429 0.959 . S
C2444 H2430 0.961 . S
C2444 C2443 1.502 . S
C2445 H2431 0.960 . S
C2445 H2432 0.961 . S
C2445 H2433 0.959 . S
C2445 C2443 1.561 . S
C2446 C2443 1.526 . S
C2446 C2447 1.396 . S
C2446 C2451 1.390 . S
C2447 C2441 1.465 . S
C2447 C2446 1.396 . S
C2447 C2448 1.399 . S
C2448 H2434 0.929 . S
C2448 C2447 1.399 . S
C2448 C2449 1.385 . S
C2449 H2435 0.931 . S
C2449 C2448 1.385 . S
C2449 C2450 1.389 . S
C2450 C2449 1.389 . S
C2450 C2451 1.387 . S
C2451 H2436 0.930 . S
C2451 C2446 1.390 . S
C2451 C2450 1.387 . S
H2452 C2464 0.930 . S
H2453 C2466 0.930 . S
H2454 C2467 0.930 . S
H2455 C2471 0.959 . S
H2456 C2471 0.959 . S
H2457 C2471 0.961 . S
H2458 C2472 0.960 . S
H2459 C2472 0.961 . S
H2460 C2472 0.959 . S
H2461 C2475 0.929 . S
H2462 C2476 0.931 . S
H2463 C2478 0.930 . S
C2464 H2452 0.930 . S
C2464 C2465 1.399 . S
C2464 C2469 1.399 . S
C2465 C2464 1.399 . S
C2465 C2466 1.376 . S
C2466 H2453 0.930 . S
C2466 C2465 1.376 . S
C2466 C2467 1.388 . S
C2467 H2454 0.930 . S
C2467 C2466 1.388 . S
C2467 C2468 1.390 . S
C2468 C2467 1.390 . S
C2468 C2469 1.394 . S
C2468 C2474 1.465 . S
C2469 C2464 1.399 . S
C2469 C2468 1.394 . S
C2469 C2470 1.516 . S
C2470 C2469 1.516 . S
C2470 C2471 1.502 . S
C2470 C2472 1.561 . S
C2470 C2473 1.526 . S
C2471 H2455 0.959 . S
C2471 H2456 0.959 . S
C2471 H2457 0.961 . S
C2471 C2470 1.502 . S
C2472 H2458 0.960 . S
C2472 H2459 0.961 . S
C2472 H2460 0.959 . S
C2472 C2470 1.561 . S
C2473 C2470 1.526 . S
C2473 C2474 1.396 . S
C2473 C2478 1.390 . S
C2474 C2468 1.465 . S
C2474 C2473 1.396 . S
C2474 C2475 1.399 . S
C2475 H2461 0.929 . S
C2475 C2474 1.399 . S
C2475 C2476 1.385 . S
C2476 H2462 0.931 . S
C2476 C2475 1.385 . S
C2476 C2477 1.389 . S
C2477 C2476 1.389 . S
C2477 C2478 1.387 . S
C2478 H2463 0.930 . S
C2478 C2473 1.390 . S
C2478 C2477 1.387 . S
H2479 C2491 0.930 . S
H2480 C2493 0.930 . S
H2481 C2494 0.930 . S
H2482 C2498 0.959 . S
H2483 C2498 0.959 1_565 S
H2484 C2498 0.961 . S
H2485 C2499 0.960 . S
H2486 C2499 0.961 . S
H2487 C2499 0.959 . S
H2488 C2502 0.929 . S
H2489 C2503 0.931 . S
H2490 C2505 0.930 . S
C2491 H2479 0.930 . S
C2491 C2492 1.399 . S
C2491 C2496 1.399 . S
C2492 C2491 1.399 . S
C2492 C2493 1.376 . S
C2493 H2480 0.930 . S
C2493 C2492 1.376 . S
C2493 C2494 1.388 . S
C2494 H2481 0.930 . S
C2494 C2493 1.388 . S
C2494 C2495 1.390 . S
C2495 C2494 1.390 . S
C2495 C2496 1.394 . S
C2495 C2501 1.465 1_545 S
C2496 C2491 1.399 . S
C2496 C2495 1.394 . S
C2496 C2497 1.516 1_545 S
C2497 C2496 1.516 1_565 S
C2497 C2498 1.502 1_565 S
C2497 C2499 1.561 . S
C2497 C2500 1.526 . S
C2498 H2482 0.959 . S
C2498 H2483 0.959 1_545 S
C2498 H2484 0.961 . S
C2498 C2497 1.502 1_545 S
C2499 H2485 0.960 . S
C2499 H2486 0.961 . S
C2499 H2487 0.959 . S
C2499 C2497 1.561 . S
C2500 C2497 1.526 . S
C2500 C2501 1.396 . S
C2500 C2505 1.390 . S
C2501 C2495 1.465 1_565 S
C2501 C2500 1.396 . S
C2501 C2502 1.399 . S
C2502 H2488 0.929 . S
C2502 C2501 1.399 . S
C2502 C2503 1.385 . S
C2503 H2489 0.931 . S
C2503 C2502 1.385 . S
C2503 C2504 1.389 . S
C2504 C2503 1.389 . S
C2504 C2505 1.387 . S
C2505 H2490 0.930 . S
C2505 C2500 1.390 . S
C2505 C2504 1.387 . S
H2506 C2518 0.930 . S
H2507 C2520 0.930 . S
H2508 C2521 0.930 . S
H2509 C2525 0.959 . S
H2510 C2525 0.959 . S
H2511 C2525 0.961 . S
H2512 C2526 0.960 . S
H2513 C2526 0.961 . S
H2514 C2526 0.959 . S
H2515 C2529 0.929 . S
H2516 C2530 0.931 . S
H2517 C2532 0.930 . S
C2518 H2506 0.930 . S
C2518 C2519 1.399 . S
C2518 C2523 1.399 . S
C2519 C2518 1.399 . S
C2519 C2520 1.376 . S
C2520 H2507 0.930 . S
C2520 C2519 1.376 . S
C2520 C2521 1.388 . S
C2521 H2508 0.930 . S
C2521 C2520 1.388 . S
C2521 C2522 1.390 . S
C2522 C2521 1.390 . S
C2522 C2523 1.394 . S
C2522 C2528 1.465 . S
C2523 C2518 1.399 . S
C2523 C2522 1.394 . S
C2523 C2524 1.516 . S
C2524 C2523 1.516 . S
C2524 C2525 1.502 . S
C2524 C2526 1.561 . S
C2524 C2527 1.526 . S
C2525 H2509 0.959 . S
C2525 H2510 0.959 . S
C2525 H2511 0.961 . S
C2525 C2524 1.502 . S
C2526 H2512 0.960 . S
C2526 H2513 0.961 . S
C2526 H2514 0.959 . S
C2526 C2524 1.561 . S
C2527 C2524 1.526 . S
C2527 C2528 1.396 . S
C2527 C2532 1.390 . S
C2528 C2522 1.465 . S
C2528 C2527 1.396 . S
C2528 C2529 1.399 . S
C2529 H2515 0.929 . S
C2529 C2528 1.399 . S
C2529 C2530 1.385 . S
C2530 H2516 0.931 . S
C2530 C2529 1.385 . S
C2530 C2531 1.389 . S
C2531 C2530 1.389 . S
C2531 C2532 1.387 . S
C2532 H2517 0.930 . S
C2532 C2527 1.390 . S
C2532 C2531 1.387 . S
H2533 C2545 0.930 . S
H2534 C2547 0.930 . S
H2535 C2548 0.930 . S
H2536 C2552 0.959 1_556 S
H2537 C2552 0.959 . S
H2538 C2552 0.961 . S
H2539 C2553 0.960 . S
H2540 C2553 0.961 . S
H2541 C2553 0.959 . S
H2542 C2556 0.929 . S
H2543 C2557 0.931 . S
H2544 C2559 0.930 . S
C2545 H2533 0.930 . S
C2545 C2546 1.399 1_554 S
C2545 C2550 1.399 . S
C2546 C2545 1.399 1_556 S
C2546 C2547 1.376 . S
C2547 H2534 0.930 . S
C2547 C2546 1.376 . S
C2547 C2548 1.388 . S
C2548 H2535 0.930 . S
C2548 C2547 1.388 . S
C2548 C2549 1.390 . S
C2549 C2548 1.390 . S
C2549 C2550 1.394 1_556 S
C2549 C2555 1.465 . S
C2550 C2545 1.399 . S
C2550 C2549 1.394 1_554 S
C2550 C2551 1.516 . S
C2551 C2550 1.516 . S
C2551 C2552 1.502 . S
C2551 C2553 1.561 . S
C2551 C2554 1.526 . S
C2552 H2536 0.959 1_554 S
C2552 H2537 0.959 . S
C2552 H2538 0.961 . S
C2552 C2551 1.502 . S
C2553 H2539 0.960 . S
C2553 H2540 0.961 . S
C2553 H2541 0.959 . S
C2553 C2551 1.561 . S
C2554 C2551 1.526 . S
C2554 C2555 1.396 1_554 S
C2554 C2559 1.390 . S
C2555 C2549 1.465 . S
C2555 C2554 1.396 1_556 S
C2555 C2556 1.399 . S
C2556 H2542 0.929 . S
C2556 C2555 1.399 . S
C2556 C2557 1.385 . S
C2557 H2543 0.931 . S
C2557 C2556 1.385 . S
C2557 C2558 1.389 1_556 S
C2558 C2557 1.389 1_554 S
C2558 C2559 1.387 . S
C2559 H2544 0.930 . S
C2559 C2554 1.390 . S
C2559 C2558 1.387 . S
H2560 C2572 0.930 . S
H2561 C2574 0.930 . S
H2562 C2575 0.930 . S
H2563 C2579 0.959 . S
H2564 C2579 0.959 . S
H2565 C2579 0.961 . S
H2566 C2580 0.960 . S
H2567 C2580 0.961 . S
H2568 C2580 0.959 . S
H2569 C2583 0.929 . S
H2570 C2584 0.931 . S
H2571 C2586 0.930 . S
C2572 H2560 0.930 . S
C2572 C2573 1.399 . S
C2572 C2577 1.399 . S
C2573 C2572 1.399 . S
C2573 C2574 1.376 . S
C2574 H2561 0.930 . S
C2574 C2573 1.376 . S
C2574 C2575 1.388 . S
C2575 H2562 0.930 . S
C2575 C2574 1.388 . S
C2575 C2576 1.390 . S
C2576 C2575 1.390 . S
C2576 C2577 1.394 . S
C2576 C2582 1.465 . S
C2577 C2572 1.399 . S
C2577 C2576 1.394 . S
C2577 C2578 1.516 . S
C2578 C2577 1.516 . S
C2578 C2579 1.502 . S
C2578 C2580 1.561 . S
C2578 C2581 1.526 . S
C2579 H2563 0.959 . S
C2579 H2564 0.959 . S
C2579 H2565 0.961 . S
C2579 C2578 1.502 . S
C2580 H2566 0.960 . S
C2580 H2567 0.961 . S
C2580 H2568 0.959 . S
C2580 C2578 1.561 . S
C2581 C2578 1.526 . S
C2581 C2582 1.396 . S
C2581 C2586 1.390 . S
C2582 C2576 1.465 . S
C2582 C2581 1.396 . S
C2582 C2583 1.399 . S
C2583 H2569 0.929 . S
C2583 C2582 1.399 . S
C2583 C2584 1.385 . S
C2584 H2570 0.931 . S
C2584 C2583 1.385 . S
C2584 C2585 1.389 . S
C2585 C2584 1.389 . S
C2585 C2586 1.387 . S
C2586 H2571 0.930 . S
C2586 C2581 1.390 . S
C2586 C2585 1.387 . S
H2587 C2599 0.930 . S
H2588 C2601 0.930 . S
H2589 C2602 0.930 . S
H2590 C2606 0.959 . S
H2591 C2606 0.959 . S
H2592 C2606 0.961 . S
H2593 C2607 0.960 . S
H2594 C2607 0.961 . S
H2595 C2607 0.959 . S
H2596 C2610 0.929 . S
H2597 C2611 0.931 . S
H2598 C2613 0.930 . S
C2599 H2587 0.930 . S
C2599 C2600 1.399 . S
C2599 C2604 1.399 . S
C2600 C2599 1.399 . S
C2600 C2601 1.376 . S
C2601 H2588 0.930 . S
C2601 C2600 1.376 . S
C2601 C2602 1.388 . S
C2602 H2589 0.930 . S
C2602 C2601 1.388 . S
C2602 C2603 1.390 . S
C2603 C2602 1.390 . S
C2603 C2604 1.394 . S
C2603 C2609 1.465 . S
C2604 C2599 1.399 . S
C2604 C2603 1.394 . S
C2604 C2605 1.516 . S
C2605 C2604 1.516 . S
C2605 C2606 1.502 . S
C2605 C2607 1.561 . S
C2605 C2608 1.526 . S
C2606 H2590 0.959 . S
C2606 H2591 0.959 . S
C2606 H2592 0.961 . S
C2606 C2605 1.502 . S
C2607 H2593 0.960 . S
C2607 H2594 0.961 . S
C2607 H2595 0.959 . S
C2607 C2605 1.561 . S
C2608 C2605 1.526 . S
C2608 C2609 1.396 . S
C2608 C2613 1.390 . S
C2609 C2603 1.465 . S
C2609 C2608 1.396 . S
C2609 C2610 1.399 . S
C2610 H2596 0.929 . S
C2610 C2609 1.399 . S
C2610 C2611 1.385 . S
C2611 H2597 0.931 . S
C2611 C2610 1.385 . S
C2611 C2612 1.389 . S
C2612 C2611 1.389 . S
C2612 C2613 1.387 . S
C2613 H2598 0.930 . S
C2613 C2608 1.390 . S
C2613 C2612 1.387 . S
H2614 C2626 0.930 . S
H2615 C2628 0.930 . S
H2616 C2629 0.930 . S
H2617 C2633 0.959 . S
H2618 C2633 0.959 . S
H2619 C2633 0.961 . S
H2620 C2634 0.960 . S
H2621 C2634 0.961 . S
H2622 C2634 0.959 . S
H2623 C2637 0.929 . S
H2624 C2638 0.931 . S
H2625 C2640 0.930 . S
C2626 H2614 0.930 . S
C2626 C2627 1.399 . S
C2626 C2631 1.399 . S
C2627 C2626 1.399 . S
C2627 C2628 1.376 . S
C2628 H2615 0.930 . S
C2628 C2627 1.376 . S
C2628 C2629 1.388 . S
C2629 H2616 0.930 . S
C2629 C2628 1.388 . S
C2629 C2630 1.390 . S
C2630 C2629 1.390 . S
C2630 C2631 1.394 . S
C2630 C2636 1.465 . S
C2631 C2626 1.399 . S
C2631 C2630 1.394 . S
C2631 C2632 1.516 . S
C2632 C2631 1.516 . S
C2632 C2633 1.502 . S
C2632 C2634 1.561 . S
C2632 C2635 1.526 . S
C2633 H2617 0.959 . S
C2633 H2618 0.959 . S
C2633 H2619 0.961 . S
C2633 C2632 1.502 . S
C2634 H2620 0.960 . S
C2634 H2621 0.961 . S
C2634 H2622 0.959 . S
C2634 C2632 1.561 . S
C2635 C2632 1.526 . S
C2635 C2636 1.396 . S
C2635 C2640 1.390 . S
C2636 C2630 1.465 . S
C2636 C2635 1.396 . S
C2636 C2637 1.399 . S
C2637 H2623 0.929 . S
C2637 C2636 1.399 . S
C2637 C2638 1.385 . S
C2638 H2624 0.931 . S
C2638 C2637 1.385 . S
C2638 C2639 1.389 . S
C2639 C2638 1.389 . S
C2639 C2640 1.387 . S
C2640 H2625 0.930 . S
C2640 C2635 1.390 . S
C2640 C2639 1.387 . S
H2641 C2653 0.930 . S
H2642 C2655 0.930 . S
H2643 C2656 0.930 . S
H2644 C2660 0.959 . S
H2645 C2660 0.959 . S
H2646 C2660 0.961 . S
H2647 C2661 0.960 . S
H2648 C2661 0.961 . S
H2649 C2661 0.959 . S
H2650 C2664 0.929 . S
H2651 C2665 0.931 . S
H2652 C2667 0.930 . S
C2653 H2641 0.930 . S
C2653 C2654 1.399 . S
C2653 C2658 1.399 . S
C2654 C2653 1.399 . S
C2654 C2655 1.376 . S
C2655 H2642 0.930 . S
C2655 C2654 1.376 . S
C2655 C2656 1.388 . S
C2656 H2643 0.930 . S
C2656 C2655 1.388 . S
C2656 C2657 1.390 . S
C2657 C2656 1.390 . S
C2657 C2658 1.394 . S
C2657 C2663 1.465 . S
C2658 C2653 1.399 . S
C2658 C2657 1.394 . S
C2658 C2659 1.516 . S
C2659 C2658 1.516 . S
C2659 C2660 1.502 1_455 S
C2659 C2661 1.561 . S
C2659 C2662 1.526 . S
C2660 H2644 0.959 . S
C2660 H2645 0.959 . S
C2660 H2646 0.961 . S
C2660 C2659 1.502 1_655 S
C2661 H2647 0.960 . S
C2661 H2648 0.961 . S
C2661 H2649 0.959 . S
C2661 C2659 1.561 . S
C2662 C2659 1.526 . S
C2662 C2663 1.396 . S
C2662 C2667 1.390 . S
C2663 C2657 1.465 . S
C2663 C2662 1.396 . S
C2663 C2664 1.399 . S
C2664 H2650 0.929 . S
C2664 C2663 1.399 . S
C2664 C2665 1.385 . S
C2665 H2651 0.931 . S
C2665 C2664 1.385 . S
C2665 C2666 1.389 . S
C2666 C2665 1.389 . S
C2666 C2667 1.387 . S
C2667 H2652 0.930 . S
C2667 C2662 1.390 . S
C2667 C2666 1.387 . S
H2668 C2680 0.930 . S
H2669 C2682 0.930 . S
H2670 C2683 0.930 . S
H2671 C2687 0.959 . S
H2672 C2687 0.959 . S
H2673 C2687 0.961 . S
H2674 C2688 0.960 . S
H2675 C2688 0.961 . S
H2676 C2688 0.959 . S
H2677 C2691 0.929 . S
H2678 C2692 0.931 . S
H2679 C2694 0.930 . S
C2680 H2668 0.930 . S
C2680 C2681 1.399 . S
C2680 C2685 1.399 . S
C2681 C2680 1.399 . S
C2681 C2682 1.376 . S
C2682 H2669 0.930 . S
C2682 C2681 1.376 . S
C2682 C2683 1.388 . S
C2683 H2670 0.930 . S
C2683 C2682 1.388 . S
C2683 C2684 1.390 . S
C2684 C2683 1.390 . S
C2684 C2685 1.394 . S
C2684 C2690 1.465 . S
C2685 C2680 1.399 . S
C2685 C2684 1.394 . S
C2685 C2686 1.516 . S
C2686 C2685 1.516 . S
C2686 C2687 1.502 . S
C2686 C2688 1.561 . S
C2686 C2689 1.526 . S
C2687 H2671 0.959 . S
C2687 H2672 0.959 . S
C2687 H2673 0.961 . S
C2687 C2686 1.502 . S
C2688 H2674 0.960 . S
C2688 H2675 0.961 . S
C2688 H2676 0.959 . S
C2688 C2686 1.561 . S
C2689 C2686 1.526 . S
C2689 C2690 1.396 . S
C2689 C2694 1.390 . S
C2690 C2684 1.465 . S
C2690 C2689 1.396 . S
C2690 C2691 1.399 . S
C2691 H2677 0.929 . S
C2691 C2690 1.399 . S
C2691 C2692 1.385 . S
C2692 H2678 0.931 . S
C2692 C2691 1.385 . S
C2692 C2693 1.389 . S
C2693 C2692 1.389 . S
C2693 C2694 1.387 . S
C2694 H2679 0.930 . S
C2694 C2689 1.390 . S
C2694 C2693 1.387 . S
H2695 C2707 0.930 . S
H2696 C2709 0.930 . S
H2697 C2710 0.930 . S
H2698 C2714 0.959 . S
H2699 C2714 0.959 . S
H2700 C2714 0.961 . S
H2701 C2715 0.960 . S
H2702 C2715 0.961 . S
H2703 C2715 0.959 . S
H2704 C2718 0.929 . S
H2705 C2719 0.931 . S
H2706 C2721 0.930 . S
C2707 H2695 0.930 . S
C2707 C2708 1.399 . S
C2707 C2712 1.399 . S
C2708 C2707 1.399 . S
C2708 C2709 1.376 . S
C2709 H2696 0.930 . S
C2709 C2708 1.376 . S
C2709 C2710 1.388 . S
C2710 H2697 0.930 . S
C2710 C2709 1.388 . S
C2710 C2711 1.390 . S
C2711 C2710 1.390 . S
C2711 C2712 1.394 . S
C2711 C2717 1.465 . S
C2712 C2707 1.399 . S
C2712 C2711 1.394 . S
C2712 C2713 1.516 . S
C2713 C2712 1.516 . S
C2713 C2714 1.502 . S
C2713 C2715 1.561 . S
C2713 C2716 1.526 . S
C2714 H2698 0.959 . S
C2714 H2699 0.959 . S
C2714 H2700 0.961 . S
C2714 C2713 1.502 . S
C2715 H2701 0.960 . S
C2715 H2702 0.961 . S
C2715 H2703 0.959 . S
C2715 C2713 1.561 . S
C2716 C2713 1.526 . S
C2716 C2717 1.396 . S
C2716 C2721 1.390 . S
C2717 C2711 1.465 . S
C2717 C2716 1.396 . S
C2717 C2718 1.399 . S
C2718 H2704 0.929 . S
C2718 C2717 1.399 . S
C2718 C2719 1.385 . S
C2719 H2705 0.931 . S
C2719 C2718 1.385 . S
C2719 C2720 1.389 . S
C2720 C2719 1.389 . S
C2720 C2721 1.387 . S
C2721 H2706 0.930 . S
C2721 C2716 1.390 . S
C2721 C2720 1.387 . S
H2722 C2734 0.930 . S
H2723 C2736 0.930 . S
H2724 C2737 0.930 . S
H2725 C2741 0.959 . S
H2726 C2741 0.959 . S
H2727 C2741 0.961 . S
H2728 C2742 0.960 . S
H2729 C2742 0.961 . S
H2730 C2742 0.959 . S
H2731 C2745 0.929 . S
H2732 C2746 0.931 . S
H2733 C2748 0.930 . S
C2734 H2722 0.930 . S
C2734 C2735 1.399 . S
C2734 C2739 1.399 . S
C2735 C2734 1.399 . S
C2735 C2736 1.376 . S
C2736 H2723 0.930 . S
C2736 C2735 1.376 . S
C2736 C2737 1.388 . S
C2737 H2724 0.930 . S
C2737 C2736 1.388 . S
C2737 C2738 1.390 . S
C2738 C2737 1.390 . S
C2738 C2739 1.394 . S
C2738 C2744 1.465 . S
C2739 C2734 1.399 . S
C2739 C2738 1.394 . S
C2739 C2740 1.516 . S
C2740 C2739 1.516 . S
C2740 C2741 1.502 . S
C2740 C2742 1.561 . S
C2740 C2743 1.526 . S
C2741 H2725 0.959 . S
C2741 H2726 0.959 . S
C2741 H2727 0.961 . S
C2741 C2740 1.502 . S
C2742 H2728 0.960 . S
C2742 H2729 0.961 . S
C2742 H2730 0.959 . S
C2742 C2740 1.561 . S
C2743 C2740 1.526 . S
C2743 C2744 1.396 . S
C2743 C2748 1.390 . S
C2744 C2738 1.465 . S
C2744 C2743 1.396 . S
C2744 C2745 1.399 . S
C2745 H2731 0.929 . S
C2745 C2744 1.399 . S
C2745 C2746 1.385 . S
C2746 H2732 0.931 . S
C2746 C2745 1.385 . S
C2746 C2747 1.389 . S
C2747 C2746 1.389 . S
C2747 C2748 1.387 . S
C2748 H2733 0.930 . S
C2748 C2743 1.390 . S
C2748 C2747 1.387 . S
H2749 C2761 0.930 . S
H2750 C2763 0.930 . S
H2751 C2764 0.930 . S
H2752 C2768 0.959 . S
H2753 C2768 0.959 . S
H2754 C2768 0.961 . S
H2755 C2769 0.960 . S
H2756 C2769 0.961 . S
H2757 C2769 0.959 . S
H2758 C2772 0.929 . S
H2759 C2773 0.931 . S
H2760 C2775 0.930 . S
C2761 H2749 0.930 . S
C2761 C2762 1.399 . S
C2761 C2766 1.399 . S
C2762 C2761 1.399 . S
C2762 C2763 1.376 . S
C2763 H2750 0.930 . S
C2763 C2762 1.376 . S
C2763 C2764 1.388 . S
C2764 H2751 0.930 . S
C2764 C2763 1.388 . S
C2764 C2765 1.390 . S
C2765 C2764 1.390 . S
C2765 C2766 1.394 . S
C2765 C2771 1.465 . S
C2766 C2761 1.399 . S
C2766 C2765 1.394 . S
C2766 C2767 1.516 . S
C2767 C2766 1.516 . S
C2767 C2768 1.502 . S
C2767 C2769 1.561 . S
C2767 C2770 1.526 . S
C2768 H2752 0.959 . S
C2768 H2753 0.959 . S
C2768 H2754 0.961 . S
C2768 C2767 1.502 . S
C2769 H2755 0.960 . S
C2769 H2756 0.961 . S
C2769 H2757 0.959 . S
C2769 C2767 1.561 . S
C2770 C2767 1.526 . S
C2770 C2771 1.396 . S
C2770 C2775 1.390 . S
C2771 C2765 1.465 . S
C2771 C2770 1.396 . S
C2771 C2772 1.399 . S
C2772 H2758 0.929 . S
C2772 C2771 1.399 . S
C2772 C2773 1.385 . S
C2773 H2759 0.931 . S
C2773 C2772 1.385 . S
C2773 C2774 1.389 . S
C2774 C2773 1.389 . S
C2774 C2775 1.387 . S
C2775 H2760 0.930 . S
C2775 C2770 1.390 . S
C2775 C2774 1.387 . S
H2776 C2788 0.930 . S
H2777 C2790 0.930 . S
H2778 C2791 0.930 . S
H2779 C2795 0.959 . S
H2780 C2795 0.959 . S
H2781 C2795 0.961 . S
H2782 C2796 0.960 . S
H2783 C2796 0.961 . S
H2784 C2796 0.959 . S
H2785 C2799 0.929 . S
H2786 C2800 0.931 . S
H2787 C2802 0.930 . S
C2788 H2776 0.930 . S
C2788 C2789 1.399 . S
C2788 C2793 1.399 . S
C2789 C2788 1.399 . S
C2789 C2790 1.376 . S
C2790 H2777 0.930 . S
C2790 C2789 1.376 . S
C2790 C2791 1.388 . S
C2791 H2778 0.930 . S
C2791 C2790 1.388 . S
C2791 C2792 1.390 . S
C2792 C2791 1.390 . S
C2792 C2793 1.394 . S
C2792 C2798 1.465 . S
C2793 C2788 1.399 . S
C2793 C2792 1.394 . S
C2793 C2794 1.516 . S
C2794 C2793 1.516 . S
C2794 C2795 1.502 . S
C2794 C2796 1.561 . S
C2794 C2797 1.526 . S
C2795 H2779 0.959 . S
C2795 H2780 0.959 . S
C2795 H2781 0.961 . S
C2795 C2794 1.502 . S
C2796 H2782 0.960 . S
C2796 H2783 0.961 . S
C2796 H2784 0.959 . S
C2796 C2794 1.561 . S
C2797 C2794 1.526 . S
C2797 C2798 1.396 . S
C2797 C2802 1.390 . S
C2798 C2792 1.465 . S
C2798 C2797 1.396 . S
C2798 C2799 1.399 . S
C2799 H2785 0.929 . S
C2799 C2798 1.399 . S
C2799 C2800 1.385 . S
C2800 H2786 0.931 . S
C2800 C2799 1.385 . S
C2800 C2801 1.389 . S
C2801 C2800 1.389 . S
C2801 C2802 1.387 . S
C2802 H2787 0.930 . S
C2802 C2797 1.390 . S
C2802 C2801 1.387 . S
H2803 C2815 0.930 . S
H2804 C2817 0.930 . S
H2805 C2818 0.930 . S
H2806 C2822 0.959 . S
H2807 C2822 0.959 . S
H2808 C2822 0.961 . S
H2809 C2823 0.960 . S
H2810 C2823 0.961 . S
H2811 C2823 0.959 . S
H2812 C2826 0.929 . S
H2813 C2827 0.931 . S
H2814 C2829 0.930 . S
C2815 H2803 0.930 . S
C2815 C2816 1.399 . S
C2815 C2820 1.399 . S
C2816 C2815 1.399 . S
C2816 C2817 1.376 . S
C2817 H2804 0.930 . S
C2817 C2816 1.376 . S
C2817 C2818 1.388 . S
C2818 H2805 0.930 . S
C2818 C2817 1.388 . S
C2818 C2819 1.390 . S
C2819 C2818 1.390 . S
C2819 C2820 1.394 . S
C2819 C2825 1.465 . S
C2820 C2815 1.399 . S
C2820 C2819 1.394 . S
C2820 C2821 1.516 . S
C2821 C2820 1.516 . S
C2821 C2822 1.502 . S
C2821 C2823 1.561 . S
C2821 C2824 1.526 . S
C2822 H2806 0.959 . S
C2822 H2807 0.959 . S
C2822 H2808 0.961 . S
C2822 C2821 1.502 . S
C2823 H2809 0.960 . S
C2823 H2810 0.961 . S
C2823 H2811 0.959 . S
C2823 C2821 1.561 . S
C2824 C2821 1.526 . S
C2824 C2825 1.396 . S
C2824 C2829 1.390 . S
C2825 C2819 1.465 . S
C2825 C2824 1.396 . S
C2825 C2826 1.399 . S
C2826 H2812 0.929 . S
C2826 C2825 1.399 . S
C2826 C2827 1.385 . S
C2827 H2813 0.931 . S
C2827 C2826 1.385 . S
C2827 C2828 1.389 . S
C2828 C2827 1.389 . S
C2828 C2829 1.387 . S
C2829 H2814 0.930 . S
C2829 C2824 1.390 . S
C2829 C2828 1.387 . S
H2830 C2842 0.930 . S
H2831 C2844 0.930 . S
H2832 C2845 0.930 . S
H2833 C2849 0.959 . S
H2834 C2849 0.959 . S
H2835 C2849 0.961 . S
H2836 C2850 0.960 . S
H2837 C2850 0.961 . S
H2838 C2850 0.959 . S
H2839 C2853 0.929 . S
H2840 C2854 0.931 . S
H2841 C2856 0.930 . S
C2842 H2830 0.930 . S
C2842 C2843 1.399 . S
C2842 C2847 1.399 . S
C2843 C2842 1.399 . S
C2843 C2844 1.376 . S
C2844 H2831 0.930 . S
C2844 C2843 1.376 . S
C2844 C2845 1.388 . S
C2845 H2832 0.930 . S
C2845 C2844 1.388 . S
C2845 C2846 1.390 . S
C2846 C2845 1.390 . S
C2846 C2847 1.394 . S
C2846 C2852 1.465 . S
C2847 C2842 1.399 . S
C2847 C2846 1.394 . S
C2847 C2848 1.516 . S
C2848 C2847 1.516 . S
C2848 C2849 1.502 . S
C2848 C2850 1.561 . S
C2848 C2851 1.526 . S
C2849 H2833 0.959 . S
C2849 H2834 0.959 . S
C2849 H2835 0.961 . S
C2849 C2848 1.502 . S
C2850 H2836 0.960 . S
C2850 H2837 0.961 . S
C2850 H2838 0.959 . S
C2850 C2848 1.561 . S
C2851 C2848 1.526 . S
C2851 C2852 1.396 . S
C2851 C2856 1.390 . S
C2852 C2846 1.465 . S
C2852 C2851 1.396 . S
C2852 C2853 1.399 . S
C2853 H2839 0.929 . S
C2853 C2852 1.399 . S
C2853 C2854 1.385 . S
C2854 H2840 0.931 . S
C2854 C2853 1.385 . S
C2854 C2855 1.389 . S
C2855 C2854 1.389 . S
C2855 C2856 1.387 . S
C2856 H2841 0.930 . S
C2856 C2851 1.390 . S
C2856 C2855 1.387 . S
H2857 C2869 0.930 . S
H2858 C2871 0.930 . S
H2859 C2872 0.930 . S
H2860 C2876 0.959 . S
H2861 C2876 0.959 . S
H2862 C2876 0.961 . S
H2863 C2877 0.960 . S
H2864 C2877 0.961 . S
H2865 C2877 0.959 . S
H2866 C2880 0.929 . S
H2867 C2881 0.931 . S
H2868 C2883 0.930 . S
C2869 H2857 0.930 . S
C2869 C2870 1.399 . S
C2869 C2874 1.399 . S
C2870 C2869 1.399 . S
C2870 C2871 1.376 . S
C2871 H2858 0.930 . S
C2871 C2870 1.376 . S
C2871 C2872 1.388 . S
C2872 H2859 0.930 . S
C2872 C2871 1.388 . S
C2872 C2873 1.390 . S
C2873 C2872 1.390 . S
C2873 C2874 1.394 . S
C2873 C2879 1.465 . S
C2874 C2869 1.399 . S
C2874 C2873 1.394 . S
C2874 C2875 1.516 . S
C2875 C2874 1.516 . S
C2875 C2876 1.502 . S
C2875 C2877 1.561 . S
C2875 C2878 1.526 . S
C2876 H2860 0.959 . S
C2876 H2861 0.959 . S
C2876 H2862 0.961 . S
C2876 C2875 1.502 . S
C2877 H2863 0.960 . S
C2877 H2864 0.961 . S
C2877 H2865 0.959 . S
C2877 C2875 1.561 . S
C2878 C2875 1.526 . S
C2878 C2879 1.396 . S
C2878 C2883 1.390 . S
C2879 C2873 1.465 . S
C2879 C2878 1.396 . S
C2879 C2880 1.399 . S
C2880 H2866 0.929 . S
C2880 C2879 1.399 . S
C2880 C2881 1.385 . S
C2881 H2867 0.931 . S
C2881 C2880 1.385 . S
C2881 C2882 1.389 . S
C2882 C2881 1.389 . S
C2882 C2883 1.387 . S
C2883 H2868 0.930 . S
C2883 C2878 1.390 . S
C2883 C2882 1.387 . S
H2884 C2896 0.930 . S
H2885 C2898 0.930 . S
H2886 C2899 0.930 . S
H2887 C2903 0.959 . S
H2888 C2903 0.959 . S
H2889 C2903 0.961 . S
H2890 C2904 0.960 . S
H2891 C2904 0.961 . S
H2892 C2904 0.959 . S
H2893 C2907 0.929 . S
H2894 C2908 0.931 . S
H2895 C2910 0.930 . S
C2896 H2884 0.930 . S
C2896 C2897 1.399 . S
C2896 C2901 1.399 . S
C2897 C2896 1.399 . S
C2897 C2898 1.376 . S
C2898 H2885 0.930 . S
C2898 C2897 1.376 . S
C2898 C2899 1.388 . S
C2899 H2886 0.930 . S
C2899 C2898 1.388 . S
C2899 C2900 1.390 . S
C2900 C2899 1.390 . S
C2900 C2901 1.394 . S
C2900 C2906 1.465 . S
C2901 C2896 1.399 . S
C2901 C2900 1.394 . S
C2901 C2902 1.516 . S
C2902 C2901 1.516 . S
C2902 C2903 1.502 . S
C2902 C2904 1.561 . S
C2902 C2905 1.526 . S
C2903 H2887 0.959 . S
C2903 H2888 0.959 . S
C2903 H2889 0.961 . S
C2903 C2902 1.502 . S
C2904 H2890 0.960 . S
C2904 H2891 0.961 . S
C2904 H2892 0.959 . S
C2904 C2902 1.561 . S
C2905 C2902 1.526 . S
C2905 C2906 1.396 . S
C2905 C2910 1.390 . S
C2906 C2900 1.465 . S
C2906 C2905 1.396 . S
C2906 C2907 1.399 . S
C2907 H2893 0.929 . S
C2907 C2906 1.399 . S
C2907 C2908 1.385 . S
C2908 H2894 0.931 . S
C2908 C2907 1.385 . S
C2908 C2909 1.389 . S
C2909 C2908 1.389 . S
C2909 C2910 1.387 . S
C2910 H2895 0.930 . S
C2910 C2905 1.390 . S
C2910 C2909 1.387 . S
H2911 C2923 0.930 . S
H2912 C2925 0.930 . S
H2913 C2926 0.930 . S
H2914 C2930 0.959 . S
H2915 C2930 0.959 . S
H2916 C2930 0.961 . S
H2917 C2931 0.960 . S
H2918 C2931 0.961 . S
H2919 C2931 0.959 . S
H2920 C2934 0.929 . S
H2921 C2935 0.931 . S
H2922 C2937 0.930 . S
C2923 H2911 0.930 . S
C2923 C2924 1.399 . S
C2923 C2928 1.399 . S
C2924 C2923 1.399 . S
C2924 C2925 1.376 . S
C2925 H2912 0.930 . S
C2925 C2924 1.376 . S
C2925 C2926 1.388 . S
C2926 H2913 0.930 . S
C2926 C2925 1.388 . S
C2926 C2927 1.390 . S
C2927 C2926 1.390 . S
C2927 C2928 1.394 . S
C2927 C2933 1.465 . S
C2928 C2923 1.399 . S
C2928 C2927 1.394 . S
C2928 C2929 1.516 . S
C2929 C2928 1.516 . S
C2929 C2930 1.502 . S
C2929 C2931 1.561 . S
C2929 C2932 1.526 . S
C2930 H2914 0.959 . S
C2930 H2915 0.959 . S
C2930 H2916 0.961 . S
C2930 C2929 1.502 . S
C2931 H2917 0.960 . S
C2931 H2918 0.961 . S
C2931 H2919 0.959 . S
C2931 C2929 1.561 . S
C2932 C2929 1.526 . S
C2932 C2933 1.396 . S
C2932 C2937 1.390 . S
C2933 C2927 1.465 . S
C2933 C2932 1.396 . S
C2933 C2934 1.399 . S
C2934 H2920 0.929 . S
C2934 C2933 1.399 . S
C2934 C2935 1.385 . S
C2935 H2921 0.931 . S
C2935 C2934 1.385 . S
C2935 C2936 1.389 . S
C2936 C2935 1.389 . S
C2936 C2937 1.387 . S
C2937 H2922 0.930 . S
C2937 C2932 1.390 . S
C2937 C2936 1.387 . S
H2938 C2950 0.930 . S
H2939 C2952 0.930 . S
H2940 C2953 0.930 . S
H2941 C2957 0.959 . S
H2942 C2957 0.959 . S
H2943 C2957 0.961 . S
H2944 C2958 0.960 . S
H2945 C2958 0.961 . S
H2946 C2958 0.959 . S
H2947 C2961 0.929 . S
H2948 C2962 0.931 . S
H2949 C2964 0.930 . S
C2950 H2938 0.930 . S
C2950 C2951 1.399 . S
C2950 C2955 1.399 . S
C2951 C2950 1.399 . S
C2951 C2952 1.376 . S
C2952 H2939 0.930 . S
C2952 C2951 1.376 . S
C2952 C2953 1.388 . S
C2953 H2940 0.930 . S
C2953 C2952 1.388 . S
C2953 C2954 1.390 . S
C2954 C2953 1.390 . S
C2954 C2955 1.394 . S
C2954 C2960 1.465 . S
C2955 C2950 1.399 . S
C2955 C2954 1.394 . S
C2955 C2956 1.516 . S
C2956 C2955 1.516 . S
C2956 C2957 1.502 . S
C2956 C2958 1.561 . S
C2956 C2959 1.526 . S
C2957 H2941 0.959 . S
C2957 H2942 0.959 . S
C2957 H2943 0.961 . S
C2957 C2956 1.502 . S
C2958 H2944 0.960 . S
C2958 H2945 0.961 . S
C2958 H2946 0.959 . S
C2958 C2956 1.561 . S
C2959 C2956 1.526 . S
C2959 C2960 1.396 . S
C2959 C2964 1.390 . S
C2960 C2954 1.465 . S
C2960 C2959 1.396 . S
C2960 C2961 1.399 . S
C2961 H2947 0.929 . S
C2961 C2960 1.399 . S
C2961 C2962 1.385 . S
C2962 H2948 0.931 . S
C2962 C2961 1.385 . S
C2962 C2963 1.389 . S
C2963 C2962 1.389 . S
C2963 C2964 1.387 . S
C2964 H2949 0.930 . S
C2964 C2959 1.390 . S
C2964 C2963 1.387 . S
H2965 C2977 0.930 . S
H2966 C2979 0.930 . S
H2967 C2980 0.930 . S
H2968 C2984 0.959 . S
H2969 C2984 0.959 . S
H2970 C2984 0.961 . S
H2971 C2985 0.960 . S
H2972 C2985 0.961 . S
H2973 C2985 0.959 . S
H2974 C2988 0.929 . S
H2975 C2989 0.931 . S
H2976 C2991 0.930 . S
C2977 H2965 0.930 . S
C2977 C2978 1.399 . S
C2977 C2982 1.399 . S
C2978 C2977 1.399 . S
C2978 C2979 1.376 . S
C2979 H2966 0.930 . S
C2979 C2978 1.376 . S
C2979 C2980 1.388 . S
C2980 H2967 0.930 . S
C2980 C2979 1.388 . S
C2980 C2981 1.390 . S
C2981 C2980 1.390 . S
C2981 C2982 1.394 . S
C2981 C2987 1.465 . S
C2982 C2977 1.399 . S
C2982 C2981 1.394 . S
C2982 C2983 1.516 . S
C2983 C2982 1.516 . S
C2983 C2984 1.502 . S
C2983 C2985 1.561 . S
C2983 C2986 1.526 . S
C2984 H2968 0.959 . S
C2984 H2969 0.959 . S
C2984 H2970 0.961 . S
C2984 C2983 1.502 . S
C2985 H2971 0.960 . S
C2985 H2972 0.961 . S
C2985 H2973 0.959 . S
C2985 C2983 1.561 . S
C2986 C2983 1.526 . S
C2986 C2987 1.396 . S
C2986 C2991 1.390 . S
C2987 C2981 1.465 . S
C2987 C2986 1.396 . S
C2987 C2988 1.399 . S
C2988 H2974 0.929 . S
C2988 C2987 1.399 . S
C2988 C2989 1.385 . S
C2989 H2975 0.931 . S
C2989 C2988 1.385 . S
C2989 C2990 1.389 . S
C2990 C2989 1.389 . S
C2990 C2991 1.387 . S
C2991 H2976 0.930 . S
C2991 C2986 1.390 . S
C2991 C2990 1.387 . S
H2992 C3004 0.930 . S
H2993 C3006 0.930 . S
H2994 C3007 0.930 . S
H2995 C3011 0.959 . S
H2996 C3011 0.959 . S
H2997 C3011 0.961 . S
H2998 C3012 0.960 . S
H2999 C3012 0.961 . S
H3000 C3012 0.959 . S
H3001 C3015 0.929 . S
H3002 C3016 0.931 . S
H3003 C3018 0.930 . S
C3004 H2992 0.930 . S
C3004 C3005 1.399 . S
C3004 C3009 1.399 . S
C3005 C3004 1.399 . S
C3005 C3006 1.376 . S
C3006 H2993 0.930 . S
C3006 C3005 1.376 . S
C3006 C3007 1.388 . S
C3007 H2994 0.930 . S
C3007 C3006 1.388 . S
C3007 C3008 1.390 . S
C3008 C3007 1.390 . S
C3008 C3009 1.394 . S
C3008 C3014 1.465 . S
C3009 C3004 1.399 . S
C3009 C3008 1.394 . S
C3009 C3010 1.516 . S
C3010 C3009 1.516 . S
C3010 C3011 1.502 . S
C3010 C3012 1.561 . S
C3010 C3013 1.526 . S
C3011 H2995 0.959 . S
C3011 H2996 0.959 . S
C3011 H2997 0.961 . S
C3011 C3010 1.502 . S
C3012 H2998 0.960 . S
C3012 H2999 0.961 . S
C3012 H3000 0.959 . S
C3012 C3010 1.561 . S
C3013 C3010 1.526 . S
C3013 C3014 1.396 . S
C3013 C3018 1.390 . S
C3014 C3008 1.465 . S
C3014 C3013 1.396 . S
C3014 C3015 1.399 . S
C3015 H3001 0.929 . S
C3015 C3014 1.399 . S
C3015 C3016 1.385 . S
C3016 H3002 0.931 . S
C3016 C3015 1.385 . S
C3016 C3017 1.389 . S
C3017 C3016 1.389 . S
C3017 C3018 1.387 . S
C3018 H3003 0.930 . S
C3018 C3013 1.390 . S
C3018 C3017 1.387 . S
H3019 C3031 0.930 . S
H3020 C3033 0.930 . S
H3021 C3034 0.930 . S
H3022 C3038 0.959 . S
H3023 C3038 0.959 . S
H3024 C3038 0.961 . S
H3025 C3039 0.960 . S
H3026 C3039 0.961 . S
H3027 C3039 0.959 . S
H3028 C3042 0.929 . S
H3029 C3043 0.931 . S
H3030 C3045 0.930 . S
C3031 H3019 0.930 . S
C3031 C3032 1.399 . S
C3031 C3036 1.399 . S
C3032 C3031 1.399 . S
C3032 C3033 1.376 . S
C3033 H3020 0.930 . S
C3033 C3032 1.376 . S
C3033 C3034 1.388 . S
C3034 H3021 0.930 . S
C3034 C3033 1.388 . S
C3034 C3035 1.390 . S
C3035 C3034 1.390 . S
C3035 C3036 1.394 . S
C3035 C3041 1.465 . S
C3036 C3031 1.399 . S
C3036 C3035 1.394 . S
C3036 C3037 1.516 . S
C3037 C3036 1.516 . S
C3037 C3038 1.502 . S
C3037 C3039 1.561 . S
C3037 C3040 1.526 . S
C3038 H3022 0.959 . S
C3038 H3023 0.959 . S
C3038 H3024 0.961 . S
C3038 C3037 1.502 . S
C3039 H3025 0.960 . S
C3039 H3026 0.961 . S
C3039 H3027 0.959 . S
C3039 C3037 1.561 . S
C3040 C3037 1.526 . S
C3040 C3041 1.396 . S
C3040 C3045 1.390 . S
C3041 C3035 1.465 . S
C3041 C3040 1.396 . S
C3041 C3042 1.399 . S
C3042 H3028 0.929 . S
C3042 C3041 1.399 . S
C3042 C3043 1.385 . S
C3043 H3029 0.931 . S
C3043 C3042 1.385 . S
C3043 C3044 1.389 . S
C3044 C3043 1.389 . S
C3044 C3045 1.387 . S
C3045 H3030 0.930 . S
C3045 C3040 1.390 . S
C3045 C3044 1.387 . S
H3046 C3058 0.930 . S
H3047 C3060 0.930 . S
H3048 C3061 0.930 . S
H3049 C3065 0.959 . S
H3050 C3065 0.959 . S
H3051 C3065 0.961 . S
H3052 C3066 0.960 . S
H3053 C3066 0.961 . S
H3054 C3066 0.959 . S
H3055 C3069 0.929 . S
H3056 C3070 0.931 . S
H3057 C3072 0.930 . S
C3058 H3046 0.930 . S
C3058 C3059 1.399 . S
C3058 C3063 1.399 . S
C3059 C3058 1.399 . S
C3059 C3060 1.376 1_556 S
C3060 H3047 0.930 . S
C3060 C3059 1.376 1_554 S
C3060 C3061 1.388 . S
C3061 H3048 0.930 . S
C3061 C3060 1.388 . S
C3061 C3062 1.384 1_554 S
C3062 C3061 1.384 1_556 S
C3062 C3063 1.401 . S
C3062 C3068 1.465 1_556 S
C3063 C3058 1.399 . S
C3063 C3062 1.401 . S
C3063 C3064 1.516 . S
C3064 C3063 1.516 . S
C3064 C3065 1.502 . S
C3064 C3066 1.561 . S
C3064 C3067 1.526 . S
C3065 H3049 0.959 . S
C3065 H3050 0.959 . S
C3065 H3051 0.961 . S
C3065 C3064 1.502 . S
C3066 H3052 0.960 . S
C3066 H3053 0.961 . S
C3066 H3054 0.959 . S
C3066 C3064 1.561 . S
C3067 C3064 1.526 . S
C3067 C3068 1.397 1_556 S
C3067 C3072 1.390 . S
C3068 C3062 1.465 1_554 S
C3068 C3067 1.397 1_554 S
C3068 C3069 1.398 . S
C3069 H3055 0.929 . S
C3069 C3068 1.398 . S
C3069 C3070 1.385 . S
C3070 H3056 0.931 . S
C3070 C3069 1.385 . S
C3070 C3071 1.389 1_554 S
C3071 C3070 1.389 1_556 S
C3071 C3072 1.387 . S
C3072 H3057 0.930 . S
C3072 C3067 1.390 . S
C3072 C3071 1.387 . S
H3073 C3085 0.930 . S
H3074 C3087 0.930 . S
H3075 C3088 0.930 . S
H3076 C3092 0.959 . S
H3077 C3092 0.959 . S
H3078 C3092 0.961 . S
H3079 C3093 0.960 . S
H3080 C3093 0.961 . S
H3081 C3093 0.959 . S
H3082 C3096 0.929 . S
H3083 C3097 0.931 . S
H3084 C3099 0.930 . S
C3085 H3073 0.930 . S
C3085 C3086 1.399 . S
C3085 C3090 1.399 . S
C3086 C3085 1.399 . S
C3086 C3087 1.376 1_556 S
C3087 H3074 0.930 . S
C3087 C3086 1.376 1_554 S
C3087 C3088 1.388 . S
C3088 H3075 0.930 . S
C3088 C3087 1.388 . S
C3088 C3089 1.390 . S
C3089 C3088 1.390 . S
C3089 C3090 1.394 1_554 S
C3089 C3095 1.465 . S
C3090 C3085 1.399 . S
C3090 C3089 1.394 1_556 S
C3090 C3091 1.516 . S
C3091 C3090 1.516 . S
C3091 C3092 1.502 . S
C3091 C3093 1.561 . S
C3091 C3094 1.526 . S
C3092 H3076 0.959 . S
C3092 H3077 0.959 . S
C3092 H3078 0.961 . S
C3092 C3091 1.502 . S
C3093 H3079 0.960 . S
C3093 H3080 0.961 . S
C3093 H3081 0.959 . S
C3093 C3091 1.561 . S
C3094 C3091 1.526 . S
C3094 C3095 1.396 1_556 S
C3094 C3099 1.390 . S
C3095 C3089 1.465 . S
C3095 C3094 1.396 1_554 S
C3095 C3096 1.399 . S
C3096 H3082 0.929 . S
C3096 C3095 1.399 . S
C3096 C3097 1.385 . S
C3097 H3083 0.931 . S
C3097 C3096 1.385 . S
C3097 C3098 1.389 1_554 S
C3098 C3097 1.389 1_556 S
C3098 C3099 1.387 . S
C3099 H3084 0.930 . S
C3099 C3094 1.390 . S
C3099 C3098 1.387 . S
H3100 C3112 0.930 . S
H3101 C3114 0.930 . S
H3102 C3115 0.930 . S
H3103 C3119 0.959 . S
H3104 C3119 0.959 . S
H3105 C3119 0.961 . S
H3106 C3120 0.960 . S
H3107 C3120 0.961 . S
H3108 C3120 0.959 . S
H3109 C3123 0.929 . S
H3110 C3124 0.931 . S
H3111 C3126 0.930 . S
C3112 H3100 0.930 . S
C3112 C3113 1.399 . S
C3112 C3117 1.399 . S
C3113 C3112 1.399 . S
C3113 C3114 1.376 . S
C3114 H3101 0.930 . S
C3114 C3113 1.376 . S
C3114 C3115 1.388 . S
C3115 H3102 0.930 . S
C3115 C3114 1.388 . S
C3115 C3116 1.390 . S
C3116 C3115 1.390 . S
C3116 C3117 1.394 . S
C3116 C3122 1.465 . S
C3117 C3112 1.399 . S
C3117 C3116 1.394 . S
C3117 C3118 1.516 . S
C3118 C3117 1.516 . S
C3118 C3119 1.502 . S
C3118 C3120 1.561 . S
C3118 C3121 1.526 . S
C3119 H3103 0.959 . S
C3119 H3104 0.959 . S
C3119 H3105 0.961 . S
C3119 C3118 1.502 . S
C3120 H3106 0.960 . S
C3120 H3107 0.961 . S
C3120 H3108 0.959 . S
C3120 C3118 1.561 . S
C3121 C3118 1.526 . S
C3121 C3122 1.396 . S
C3121 C3126 1.390 . S
C3122 C3116 1.465 . S
C3122 C3121 1.396 . S
C3122 C3123 1.399 . S
C3123 H3109 0.929 . S
C3123 C3122 1.399 . S
C3123 C3124 1.385 . S
C3124 H3110 0.931 . S
C3124 C3123 1.385 . S
C3124 C3125 1.389 . S
C3125 C3124 1.389 . S
C3125 C3126 1.387 . S
C3126 H3111 0.930 . S
C3126 C3121 1.390 . S
C3126 C3125 1.387 . S
H3127 C3139 0.930 . S
H3128 C3141 0.930 . S
H3129 C3142 0.930 . S
H3130 C3146 0.959 . S
H3131 C3146 0.959 . S
H3132 C3146 0.961 . S
H3133 C3147 0.960 . S
H3134 C3147 0.961 . S
H3135 C3147 0.959 . S
H3136 C3150 0.929 . S
H3137 C3151 0.931 . S
H3138 C3153 0.930 . S
C3139 H3127 0.930 . S
C3139 C3140 1.399 . S
C3139 C3144 1.399 . S
C3140 C3139 1.399 . S
C3140 C3141 1.376 . S
C3141 H3128 0.930 . S
C3141 C3140 1.376 . S
C3141 C3142 1.388 . S
C3142 H3129 0.930 . S
C3142 C3141 1.388 . S
C3142 C3143 1.390 . S
C3143 C3142 1.390 . S
C3143 C3144 1.394 . S
C3143 C3149 1.465 . S
C3144 C3139 1.399 . S
C3144 C3143 1.394 . S
C3144 C3145 1.516 . S
C3145 C3144 1.516 . S
C3145 C3146 1.502 . S
C3145 C3147 1.561 . S
C3145 C3148 1.526 . S
C3146 H3130 0.959 . S
C3146 H3131 0.959 . S
C3146 H3132 0.961 . S
C3146 C3145 1.502 . S
C3147 H3133 0.960 . S
C3147 H3134 0.961 . S
C3147 H3135 0.959 . S
C3147 C3145 1.561 . S
C3148 C3145 1.526 . S
C3148 C3149 1.396 . S
C3148 C3153 1.390 . S
C3149 C3143 1.465 . S
C3149 C3148 1.396 . S
C3149 C3150 1.399 . S
C3150 H3136 0.929 . S
C3150 C3149 1.399 . S
C3150 C3151 1.385 . S
C3151 H3137 0.931 . S
C3151 C3150 1.385 . S
C3151 C3152 1.389 . S
C3152 C3151 1.389 . S
C3152 C3153 1.387 . S
C3153 H3138 0.930 . S
C3153 C3148 1.390 . S
C3153 C3152 1.387 . S
H3154 C3166 0.930 . S
H3155 C3168 0.930 . S
H3156 C3169 0.930 . S
H3157 C3173 0.959 1_554 S
H3158 C3173 0.959 . S
H3159 C3173 0.961 . S
H3160 C3174 0.960 . S
H3161 C3174 0.961 . S
H3162 C3174 0.959 . S
H3163 C3177 0.929 . S
H3164 C3178 0.931 . S
H3165 C3180 0.930 . S
C3166 H3154 0.930 . S
C3166 C3167 1.399 1_556 S
C3166 C3171 1.399 . S
C3167 C3166 1.399 1_554 S
C3167 C3168 1.376 . S
C3168 H3155 0.930 . S
C3168 C3167 1.376 . S
C3168 C3169 1.388 . S
C3169 H3156 0.930 . S
C3169 C3168 1.388 . S
C3169 C3170 1.390 . S
C3170 C3169 1.390 . S
C3170 C3171 1.391 1_554 S
C3170 C3176 1.465 . S
C3171 C3166 1.399 . S
C3171 C3170 1.391 1_556 S
C3171 C3172 1.518 . S
C3172 C3171 1.518 . S
C3172 C3173 1.502 . S
C3172 C3174 1.561 . S
C3172 C3175 1.524 . S
C3173 H3157 0.959 1_556 S
C3173 H3158 0.959 . S
C3173 H3159 0.961 . S
C3173 C3172 1.502 . S
C3174 H3160 0.960 . S
C3174 H3161 0.961 . S
C3174 H3162 0.959 . S
C3174 C3172 1.561 . S
C3175 C3172 1.524 . S
C3175 C3176 1.399 1_556 S
C3175 C3180 1.389 . S
C3176 C3170 1.465 . S
C3176 C3175 1.399 1_554 S
C3176 C3177 1.399 . S
C3177 H3163 0.929 . S
C3177 C3176 1.399 . S
C3177 C3178 1.385 . S
C3178 H3164 0.931 . S
C3178 C3177 1.385 . S
C3178 C3179 1.389 . S
C3179 C3178 1.389 . S
C3179 C3180 1.387 1_554 S
C3180 H3165 0.930 . S
C3180 C3175 1.389 . S
C3180 C3179 1.387 1_556 S
H3181 C3193 0.930 . S
H3182 C3195 0.930 . S
H3183 C3196 0.930 . S
H3184 C3200 0.959 . S
H3185 C3200 0.959 . S
H3186 C3200 0.961 . S
H3187 C3201 0.960 . S
H3188 C3201 0.961 . S
H3189 C3201 0.959 1_556 S
H3190 C3204 0.929 . S
H3191 C3205 0.931 . S
H3192 C3207 0.930 . S
C3193 H3181 0.930 . S
C3193 C3194 1.399 . S
C3193 C3198 1.399 . S
C3194 C3193 1.399 . S
C3194 C3195 1.376 1_554 S
C3195 H3182 0.930 . S
C3195 C3194 1.376 1_556 S
C3195 C3196 1.388 . S
C3196 H3183 0.930 . S
C3196 C3195 1.388 . S
C3196 C3197 1.392 . S
C3197 C3196 1.392 . S
C3197 C3198 1.390 1_556 S
C3197 C3203 1.465 1_556 S
C3198 C3193 1.399 . S
C3198 C3197 1.390 1_554 S
C3198 C3199 1.516 . S
C3199 C3198 1.516 . S
C3199 C3200 1.502 . S
C3199 C3201 1.561 . S
C3199 C3202 1.526 . S
C3200 H3184 0.959 . S
C3200 H3185 0.959 . S
C3200 H3186 0.961 . S
C3200 C3199 1.502 . S
C3201 H3187 0.960 . S
C3201 H3188 0.961 . S
C3201 H3189 0.959 1_554 S
C3201 C3199 1.561 . S
C3202 C3199 1.526 . S
C3202 C3203 1.396 . S
C3202 C3207 1.390 . S
C3203 C3197 1.465 1_554 S
C3203 C3202 1.396 . S
C3203 C3204 1.399 1_554 S
C3204 H3190 0.929 . S
C3204 C3203 1.399 1_556 S
C3204 C3205 1.385 . S
C3205 H3191 0.931 . S
C3205 C3204 1.385 . S
C3205 C3206 1.389 1_556 S
C3206 C3205 1.389 1_554 S
C3206 C3207 1.387 . S
C3207 H3192 0.930 . S
C3207 C3202 1.390 . S
C3207 C3206 1.387 . S
H3208 C3220 0.930 . S
H3209 C3222 0.930 . S
H3210 C3223 0.930 . S
H3211 C3227 0.959 . S
H3212 C3227 0.959 . S
H3213 C3227 0.961 . S
H3214 C3228 0.960 . S
H3215 C3228 0.961 . S
H3216 C3228 0.959 . S
H3217 C3231 0.929 . S
H3218 C3232 0.931 . S
H3219 C3234 0.930 . S
C3220 H3208 0.930 . S
C3220 C3221 1.399 . S
C3220 C3225 1.399 . S
C3221 C3220 1.399 . S
C3221 C3222 1.376 . S
C3222 H3209 0.930 . S
C3222 C3221 1.376 . S
C3222 C3223 1.388 . S
C3223 H3210 0.930 . S
C3223 C3222 1.388 . S
C3223 C3224 1.390 . S
C3224 C3223 1.390 . S
C3224 C3225 1.394 . S
C3224 C3230 1.465 . S
C3225 C3220 1.399 . S
C3225 C3224 1.394 . S
C3225 C3226 1.516 . S
C3226 C3225 1.516 . S
C3226 C3227 1.502 . S
C3226 C3228 1.561 . S
C3226 C3229 1.526 . S
C3227 H3211 0.959 . S
C3227 H3212 0.959 . S
C3227 H3213 0.961 . S
C3227 C3226 1.502 . S
C3228 H3214 0.960 . S
C3228 H3215 0.961 . S
C3228 H3216 0.959 . S
C3228 C3226 1.561 . S
C3229 C3226 1.526 . S
C3229 C3230 1.396 . S
C3229 C3234 1.390 . S
C3230 C3224 1.465 . S
C3230 C3229 1.396 . S
C3230 C3231 1.399 . S
C3231 H3217 0.929 . S
C3231 C3230 1.399 . S
C3231 C3232 1.385 . S
C3232 H3218 0.931 . S
C3232 C3231 1.385 . S
C3232 C3233 1.389 . S
C3233 C3232 1.389 . S
C3233 C3234 1.387 . S
C3234 H3219 0.930 . S
C3234 C3229 1.390 . S
C3234 C3233 1.387 . S
H3235 C3247 0.930 . S
H3236 C3249 0.930 . S
H3237 C3250 0.930 . S
H3238 C3254 0.959 . S
H3239 C3254 0.959 . S
H3240 C3254 0.961 . S
H3241 C3255 0.960 . S
H3242 C3255 0.961 . S
H3243 C3255 0.959 . S
H3244 C3258 0.929 . S
H3245 C3259 0.931 . S
H3246 C3261 0.930 . S
C3247 H3235 0.930 . S
C3247 C3248 1.399 . S
C3247 C3252 1.399 . S
C3248 C3247 1.399 . S
C3248 C3249 1.376 . S
C3249 H3236 0.930 . S
C3249 C3248 1.376 . S
C3249 C3250 1.388 . S
C3250 H3237 0.930 . S
C3250 C3249 1.388 . S
C3250 C3251 1.390 . S
C3251 C3250 1.390 . S
C3251 C3252 1.394 . S
C3251 C3257 1.465 . S
C3252 C3247 1.399 . S
C3252 C3251 1.394 . S
C3252 C3253 1.516 . S
C3253 C3252 1.516 . S
C3253 C3254 1.502 . S
C3253 C3255 1.561 . S
C3253 C3256 1.526 . S
C3254 H3238 0.959 . S
C3254 H3239 0.959 . S
C3254 H3240 0.961 . S
C3254 C3253 1.502 . S
C3255 H3241 0.960 . S
C3255 H3242 0.961 . S
C3255 H3243 0.959 . S
C3255 C3253 1.561 . S
C3256 C3253 1.526 . S
C3256 C3257 1.396 . S
C3256 C3261 1.390 . S
C3257 C3251 1.465 . S
C3257 C3256 1.396 . S
C3257 C3258 1.399 . S
C3258 H3244 0.929 . S
C3258 C3257 1.399 . S
C3258 C3259 1.385 . S
C3259 H3245 0.931 . S
C3259 C3258 1.385 . S
C3259 C3260 1.389 . S
C3260 C3259 1.389 . S
C3260 C3261 1.387 . S
C3261 H3246 0.930 . S
C3261 C3256 1.390 . S
C3261 C3260 1.387 . S
H3262 C3274 0.930 . S
H3263 C3276 0.930 . S
H3264 C3277 0.930 . S
H3265 C3281 0.959 . S
H3266 C3281 0.959 . S
H3267 C3281 0.961 . S
H3268 C3282 0.960 . S
H3269 C3282 0.961 . S
H3270 C3282 0.959 . S
H3271 C3285 0.929 . S
H3272 C3286 0.931 . S
H3273 C3288 0.930 . S
C3274 H3262 0.930 . S
C3274 C3275 1.399 . S
C3274 C3279 1.399 . S
C3275 C3274 1.399 . S
C3275 C3276 1.376 . S
C3276 H3263 0.930 . S
C3276 C3275 1.376 . S
C3276 C3277 1.388 . S
C3277 H3264 0.930 . S
C3277 C3276 1.388 . S
C3277 C3278 1.390 . S
C3278 C3277 1.390 . S
C3278 C3279 1.394 . S
C3278 C3284 1.465 . S
C3279 C3274 1.399 . S
C3279 C3278 1.394 . S
C3279 C3280 1.516 . S
C3280 C3279 1.516 . S
C3280 C3281 1.502 . S
C3280 C3282 1.561 . S
C3280 C3283 1.526 . S
C3281 H3265 0.959 . S
C3281 H3266 0.959 . S
C3281 H3267 0.961 . S
C3281 C3280 1.502 . S
C3282 H3268 0.960 . S
C3282 H3269 0.961 . S
C3282 H3270 0.959 . S
C3282 C3280 1.561 . S
C3283 C3280 1.526 . S
C3283 C3284 1.396 . S
C3283 C3288 1.390 . S
C3284 C3278 1.465 . S
C3284 C3283 1.396 . S
C3284 C3285 1.399 . S
C3285 H3271 0.929 . S
C3285 C3284 1.399 . S
C3285 C3286 1.385 . S
C3286 H3272 0.931 . S
C3286 C3285 1.385 . S
C3286 C3287 1.389 . S
C3287 C3286 1.389 . S
C3287 C3288 1.387 . S
C3288 H3273 0.930 . S
C3288 C3283 1.390 . S
C3288 C3287 1.387 . S
H3289 C3301 0.930 . S
H3290 C3303 0.930 . S
H3291 C3304 0.930 . S
H3292 C3308 0.959 . S
H3293 C3308 0.959 . S
H3294 C3308 0.961 . S
H3295 C3309 0.960 . S
H3296 C3309 0.961 . S
H3297 C3309 0.959 . S
H3298 C3312 0.929 . S
H3299 C3313 0.931 . S
H3300 C3315 0.930 . S
C3301 H3289 0.930 . S
C3301 C3302 1.399 . S
C3301 C3306 1.399 . S
C3302 C3301 1.399 . S
C3302 C3303 1.376 . S
C3303 H3290 0.930 . S
C3303 C3302 1.376 . S
C3303 C3304 1.388 . S
C3304 H3291 0.930 . S
C3304 C3303 1.388 . S
C3304 C3305 1.390 . S
C3305 C3304 1.390 . S
C3305 C3306 1.394 . S
C3305 C3311 1.465 . S
C3306 C3301 1.399 . S
C3306 C3305 1.394 . S
C3306 C3307 1.516 . S
C3307 C3306 1.516 . S
C3307 C3308 1.502 . S
C3307 C3309 1.561 . S
C3307 C3310 1.526 . S
C3308 H3292 0.959 . S
C3308 H3293 0.959 . S
C3308 H3294 0.961 . S
C3308 C3307 1.502 . S
C3309 H3295 0.960 . S
C3309 H3296 0.961 . S
C3309 H3297 0.959 . S
C3309 C3307 1.561 . S
C3310 C3307 1.526 . S
C3310 C3311 1.396 . S
C3310 C3315 1.390 . S
C3311 C3305 1.465 . S
C3311 C3310 1.396 . S
C3311 C3312 1.399 . S
C3312 H3298 0.929 . S
C3312 C3311 1.399 . S
C3312 C3313 1.385 . S
C3313 H3299 0.931 . S
C3313 C3312 1.385 . S
C3313 C3314 1.389 . S
C3314 C3313 1.389 . S
C3314 C3315 1.387 . S
C3315 H3300 0.930 . S
C3315 C3310 1.390 . S
C3315 C3314 1.387 . S
H3316 C3328 0.930 . S
H3317 C3330 0.930 . S
H3318 C3331 0.930 . S
H3319 C3335 0.959 . S
H3320 C3335 0.959 . S
H3321 C3335 0.961 . S
H3322 C3336 0.960 . S
H3323 C3336 0.961 . S
H3324 C3336 0.959 . S
H3325 C3339 0.929 . S
H3326 C3340 0.931 . S
H3327 C3342 0.930 . S
C3328 H3316 0.930 . S
C3328 C3329 1.399 . S
C3328 C3333 1.399 . S
C3329 C3328 1.399 . S
C3329 C3330 1.376 . S
C3330 H3317 0.930 . S
C3330 C3329 1.376 . S
C3330 C3331 1.388 . S
C3331 H3318 0.930 . S
C3331 C3330 1.388 . S
C3331 C3332 1.390 . S
C3332 C3331 1.390 . S
C3332 C3333 1.394 . S
C3332 C3338 1.465 . S
C3333 C3328 1.399 . S
C3333 C3332 1.394 . S
C3333 C3334 1.516 . S
C3334 C3333 1.516 . S
C3334 C3335 1.502 . S
C3334 C3336 1.561 . S
C3334 C3337 1.526 . S
C3335 H3319 0.959 . S
C3335 H3320 0.959 . S
C3335 H3321 0.961 . S
C3335 C3334 1.502 . S
C3336 H3322 0.960 . S
C3336 H3323 0.961 . S
C3336 H3324 0.959 . S
C3336 C3334 1.561 . S
C3337 C3334 1.526 . S
C3337 C3338 1.396 . S
C3337 C3342 1.390 . S
C3338 C3332 1.465 . S
C3338 C3337 1.396 . S
C3338 C3339 1.399 . S
C3339 H3325 0.929 . S
C3339 C3338 1.399 . S
C3339 C3340 1.385 . S
C3340 H3326 0.931 . S
C3340 C3339 1.385 . S
C3340 C3341 1.389 . S
C3341 C3340 1.389 . S
C3341 C3342 1.387 . S
C3342 H3327 0.930 . S
C3342 C3337 1.390 . S
C3342 C3341 1.387 . S
H3343 C3355 0.930 . S
H3344 C3357 0.930 . S
H3345 C3358 0.930 . S
H3346 C3362 0.959 . S
H3347 C3362 0.959 . S
H3348 C3362 0.961 . S
H3349 C3363 0.960 . S
H3350 C3363 0.961 . S
H3351 C3363 0.959 . S
H3352 C3366 0.929 . S
H3353 C3367 0.931 . S
H3354 C3369 0.930 . S
C3355 H3343 0.930 . S
C3355 C3356 1.399 . S
C3355 C3360 1.399 . S
C3356 C3355 1.399 . S
C3356 C3357 1.376 . S
C3357 H3344 0.930 . S
C3357 C3356 1.376 . S
C3357 C3358 1.388 . S
C3358 H3345 0.930 . S
C3358 C3357 1.388 . S
C3358 C3359 1.390 . S
C3359 C3358 1.390 . S
C3359 C3360 1.394 . S
C3359 C3365 1.465 . S
C3360 C3355 1.399 . S
C3360 C3359 1.394 . S
C3360 C3361 1.516 . S
C3361 C3360 1.516 . S
C3361 C3362 1.502 . S
C3361 C3363 1.561 . S
C3361 C3364 1.526 . S
C3362 H3346 0.959 . S
C3362 H3347 0.959 . S
C3362 H3348 0.961 . S
C3362 C3361 1.502 . S
C3363 H3349 0.960 . S
C3363 H3350 0.961 . S
C3363 H3351 0.959 . S
C3363 C3361 1.561 . S
C3364 C3361 1.526 . S
C3364 C3365 1.396 . S
C3364 C3369 1.390 . S
C3365 C3359 1.465 . S
C3365 C3364 1.396 . S
C3365 C3366 1.399 . S
C3366 H3352 0.929 . S
C3366 C3365 1.399 . S
C3366 C3367 1.385 . S
C3367 H3353 0.931 . S
C3367 C3366 1.385 . S
C3367 C3368 1.389 . S
C3368 C3367 1.389 . S
C3368 C3369 1.387 . S
C3369 H3354 0.930 . S
C3369 C3364 1.390 . S
C3369 C3368 1.387 . S
H3370 C3382 0.930 . S
H3371 C3384 0.930 . S
H3372 C3385 0.930 . S
H3373 C3389 0.959 . S
H3374 C3389 0.959 . S
H3375 C3389 0.961 . S
H3376 C3390 0.960 . S
H3377 C3390 0.961 . S
H3378 C3390 0.959 . S
H3379 C3393 0.929 . S
H3380 C3394 0.931 . S
H3381 C3396 0.930 . S
C3382 H3370 0.930 . S
C3382 C3383 1.399 . S
C3382 C3387 1.399 . S
C3383 C3382 1.399 . S
C3383 C3384 1.376 . S
C3384 H3371 0.930 . S
C3384 C3383 1.376 . S
C3384 C3385 1.388 . S
C3385 H3372 0.930 . S
C3385 C3384 1.388 . S
C3385 C3386 1.390 . S
C3386 C3385 1.390 . S
C3386 C3387 1.394 . S
C3386 C3392 1.465 . S
C3387 C3382 1.399 . S
C3387 C3386 1.394 . S
C3387 C3388 1.516 . S
C3388 C3387 1.516 . S
C3388 C3389 1.502 . S
C3388 C3390 1.561 . S
C3388 C3391 1.526 . S
C3389 H3373 0.959 . S
C3389 H3374 0.959 . S
C3389 H3375 0.961 . S
C3389 C3388 1.502 . S
C3390 H3376 0.960 . S
C3390 H3377 0.961 . S
C3390 H3378 0.959 . S
C3390 C3388 1.561 . S
C3391 C3388 1.526 . S
C3391 C3392 1.396 . S
C3391 C3396 1.390 . S
C3392 C3386 1.465 . S
C3392 C3391 1.396 . S
C3392 C3393 1.399 . S
C3393 H3379 0.929 . S
C3393 C3392 1.399 . S
C3393 C3394 1.385 . S
C3394 H3380 0.931 . S
C3394 C3393 1.385 . S
C3394 C3395 1.389 . S
C3395 C3394 1.389 . S
C3395 C3396 1.387 . S
C3396 H3381 0.930 . S
C3396 C3391 1.390 . S
C3396 C3395 1.387 . S
H3397 C3409 0.930 . S
H3398 C3411 0.930 . S
H3399 C3412 0.930 . S
H3400 C3416 0.959 . S
H3401 C3416 0.959 . S
H3402 C3416 0.961 . S
H3403 C3417 0.960 . S
H3404 C3417 0.961 . S
H3405 C3417 0.959 . S
H3406 C3420 0.929 . S
H3407 C3421 0.931 . S
H3408 C3423 0.930 . S
C3409 H3397 0.930 . S
C3409 C3410 1.399 . S
C3409 C3414 1.399 . S
C3410 C3409 1.399 . S
C3410 C3411 1.376 . S
C3411 H3398 0.930 . S
C3411 C3410 1.376 . S
C3411 C3412 1.388 . S
C3412 H3399 0.930 . S
C3412 C3411 1.388 . S
C3412 C3413 1.390 . S
C3413 C3412 1.390 . S
C3413 C3414 1.394 . S
C3413 C3419 1.465 . S
C3414 C3409 1.399 . S
C3414 C3413 1.394 . S
C3414 C3415 1.516 . S
C3415 C3414 1.516 . S
C3415 C3416 1.502 . S
C3415 C3417 1.561 . S
C3415 C3418 1.526 . S
C3416 H3400 0.959 . S
C3416 H3401 0.959 . S
C3416 H3402 0.961 . S
C3416 C3415 1.502 . S
C3417 H3403 0.960 . S
C3417 H3404 0.961 . S
C3417 H3405 0.959 . S
C3417 C3415 1.561 . S
C3418 C3415 1.526 . S
C3418 C3419 1.396 . S
C3418 C3423 1.390 . S
C3419 C3413 1.465 . S
C3419 C3418 1.396 . S
C3419 C3420 1.399 . S
C3420 H3406 0.929 . S
C3420 C3419 1.399 . S
C3420 C3421 1.385 . S
C3421 H3407 0.931 . S
C3421 C3420 1.385 . S
C3421 C3422 1.389 . S
C3422 C3421 1.389 . S
C3422 C3423 1.387 . S
C3423 H3408 0.930 . S
C3423 C3418 1.390 . S
C3423 C3422 1.387 . S
C1709 C39 1.920 . S
C1721 C198 1.910 . S
C1736 C145 1.885 . S
C1748 C92 1.899 . S
C1763 C251 1.901 . S
C1775 C410 1.916 . S
C1790 C357 1.895 . S
C1802 C304 1.874 . S
C1817 C463 1.884 . S
C1829 C622 1.896 . S
C1844 C569 1.920 . S
C1856 C516 1.912 . S
C1871 C675 1.895 . S
C1883 C834 1.875 . S
C1898 C728 1.901 . S
C1910 C781 1.916 . S
C1925 C1046 1.884 . S
C1937 C887 1.887 . S
C1952 C940 1.883 . S
C1964 C993 1.893 . S
C1979 C1099 1.895 . S
C1991 C1258 1.874 . S
C2006 C1205 1.889 . S
C2018 C1152 1.875 . S
C2033 C1311 1.916 . S
C2045 C1470 1.901 . S
C2060 C1417 1.920 . S
C2072 C1364 1.910 . S
C2087 C1523 1.883 . S
C2099 C1682 1.877 . S
C2114 C1576 1.916 . S
C2126 C1629 1.900 . S
C2141 C658 1.497 . S
C2153 C22 1.506 . S
C2168 C75 1.504 . S
C2180 C1135 1.501 . S
C2195 C128 1.511 . S
C2207 C340 1.496 . S
C2222 C1665 1.495 . S
C2234 C181 1.508 . S
C2249 C234 1.497 . S
C2261 C446 1.507 . S
C2276 C923 1.512 . S
C2288 C287 1.494 . S
C2303 C1453 1.497 . S
C2315 C393 1.519 . S
C2330 C1559 1.509 . S
C2342 C499 1.502 . S
C2357 C764 1.496 . S
C2369 C552 1.507 . S
C2384 C1241 1.495 . S
C2396 C605 1.508 . S
C2411 C711 1.512 . S
C2423 C1347 1.499 . S
C2438 C1029 1.497 . S
C2450 C817 1.510 . S
C2465 C1506 1.509 . S
C2477 C870 1.502 . S
C2492 C1188 1.500 . S
C2504 C976 1.503 . S
C2519 C1294 1.511 . S
C2531 C1082 1.496 . S
C2546 C1400 1.496 . S
C2558 C1612 1.513 . S
C2573 C568 2.028 . S
C2585 C38 1.999 . S
C2600 C91 2.007 . S
C2612 C621 2.049 . S
C2627 C462 2.021 . S
C2639 C144 2.001 . S
C2654 C515 2.018 . S
C2666 C197 2.002 . S
C2681 C250 2.059 . S
C2693 C780 2.018 . S
C2708 C303 2.055 . S
C2720 C833 2.026 . S
C2735 C674 2.057 . S
C2747 C356 2.023 . S
C2762 C409 2.019 . S
C2774 C727 2.058 . S
C2789 C1416 2.023 . S
C2801 C886 2.000 . S
C2816 C1469 2.015 . S
C2828 C939 2.051 . S
C2843 C992 2.040 . S
C2855 C1310 2.000 . S
C2870 C1045 2.033 . S
C2882 C1363 1.999 . S
C2897 C1098 2.010 . S
C2909 C1628 2.056 . S
C2924 C1151 2.010 . S
C2936 C1681 2.055 . S
C2951 C1522 2.058 . S
C2963 C1204 2.019 . S
C2978 C1575 2.058 . S
C2990 C1257 2.021 . S
C3005 C29 1.551 . S
C3017 C1354 1.548 . S
C3032 C1301 1.531 . S
C3044 C82 1.549 . S
C3059 C135 1.531 . S
C3071 C1460 1.549 . S
C3086 C188 1.532 . S
C3098 C1407 1.545 . S
C3113 C241 1.548 . S
C3125 C1566 1.538 . S
C3140 C294 1.547 . S
C3152 C1513 1.538 . S
C3167 C1672 1.537 . S
C3179 C347 1.556 . S
C3194 C1619 1.536 . S
C3206 C400 1.550 . S
C3221 C930 1.554 . S
C3233 C453 1.545 . S
C3248 C877 1.533 . S
C3260 C506 1.544 . S
C3275 C559 1.534 . S
C3287 C1036 1.542 . S
C3302 C612 1.554 . S
C3314 C983 1.544 . S
C3329 C1142 1.545 . S
C3341 C665 1.552 . S
C3356 C718 1.554 . S
C3368 C1089 1.536 . S
C3383 C771 1.542 . S
C3395 C1248 1.554 . S
C3410 C824 1.540 . S
C3422 C1195 1.555 . S
