# Generated by pormake.
# Topology ukp, (4)-cn, num edge types: 1
# Building blocks:
#     Node 0, Type 0, BuildingBlock: CEKHIL_clean_sbu_0, # of connection points: 4
#     Node 1, Type 0, BuildingBlock: CEKHIL_clean_sbu_0, # of connection points: 4
#     Node 2, Type 0, BuildingBlock: CEKHIL_clean_sbu_0, # of connection points: 4
#     Node 3, Type 0, BuildingBlock: CEKHIL_clean_sbu_0, # of connection points: 4
#     Node 4, Type 0, BuildingBlock: CEKHIL_clean_sbu_0, # of connection points: 4
#     Node 5, Type 0, BuildingBlock: CEKHIL_clean_sbu_0, # of connection points: 4
#     Node 6, Type 0, BuildingBlock: CEKHIL_clean_sbu_0, # of connection points: 4
#     Node 7, Type 0, BuildingBlock: CEKHIL_clean_sbu_0, # of connection points: 4
#     Node 8, Type 0, BuildingBlock: CEKHIL_clean_sbu_0, # of connection points: 4
#     Node 9, Type 0, BuildingBlock: CEKHIL_clean_sbu_0, # of connection points: 4
#     Node 10, Type 0, BuildingBlock: CEKHIL_clean_sbu_0, # of connection points: 4
#     Node 11, Type 0, BuildingBlock: CEKHIL_clean_sbu_0, # of connection points: 4
#     Node 12, Type 0, BuildingBlock: CEKHIL_clean_sbu_0, # of connection points: 4
#     Node 13, Type 0, BuildingBlock: CEKHIL_clean_sbu_0, # of connection points: 4
#     Node 14, Type 0, BuildingBlock: CEKHIL_clean_sbu_0, # of connection points: 4
#     Node 15, Type 0, BuildingBlock: CEKHIL_clean_sbu_0, # of connection points: 4
#     Node 16, Type 0, BuildingBlock: CEKHIL_clean_sbu_0, # of connection points: 4
#     Node 17, Type 0, BuildingBlock: CEKHIL_clean_sbu_0, # of connection points: 4
#     Node 18, Type 0, BuildingBlock: CEKHIL_clean_sbu_0, # of connection points: 4
#     Node 19, Type 0, BuildingBlock: CEKHIL_clean_sbu_0, # of connection points: 4
#     Node 20, Type 0, BuildingBlock: CEKHIL_clean_sbu_0, # of connection points: 4
#     Node 21, Type 0, BuildingBlock: CEKHIL_clean_sbu_0, # of connection points: 4
#     Node 22, Type 0, BuildingBlock: CEKHIL_clean_sbu_0, # of connection points: 4
#     Node 23, Type 0, BuildingBlock: CEKHIL_clean_sbu_0, # of connection points: 4
#     Node 24, Type 0, BuildingBlock: CEKHIL_clean_sbu_0, # of connection points: 4
#     Node 25, Type 0, BuildingBlock: CEKHIL_clean_sbu_0, # of connection points: 4
#     Node 26, Type 0, BuildingBlock: CEKHIL_clean_sbu_0, # of connection points: 4
#     Node 27, Type 0, BuildingBlock: CEKHIL_clean_sbu_0, # of connection points: 4
#     Node 28, Type 0, BuildingBlock: CEKHIL_clean_sbu_0, # of connection points: 4
#     Node 29, Type 0, BuildingBlock: CEKHIL_clean_sbu_0, # of connection points: 4
#     Node 30, Type 0, BuildingBlock: CEKHIL_clean_sbu_0, # of connection points: 4
#     Node 31, Type 0, BuildingBlock: CEKHIL_clean_sbu_0, # of connection points: 4
#     Node 32, Type 0, BuildingBlock: CEKHIL_clean_sbu_0, # of connection points: 4
#     Node 33, Type 0, BuildingBlock: CEKHIL_clean_sbu_0, # of connection points: 4
#     Node 34, Type 0, BuildingBlock: CEKHIL_clean_sbu_0, # of connection points: 4
#     Node 35, Type 0, BuildingBlock: CEKHIL_clean_sbu_0, # of connection points: 4
#     Node 36, Type 0, BuildingBlock: CEKHIL_clean_sbu_0, # of connection points: 4
#     Node 37, Type 0, BuildingBlock: CEKHIL_clean_sbu_0, # of connection points: 4
#     Node 38, Type 0, BuildingBlock: CEKHIL_clean_sbu_0, # of connection points: 4
#     Node 39, Type 0, BuildingBlock: CEKHIL_clean_sbu_0, # of connection points: 4
#     Node 40, Type 0, BuildingBlock: CEKHIL_clean_sbu_0, # of connection points: 4
#     Node 41, Type 0, BuildingBlock: CEKHIL_clean_sbu_0, # of connection points: 4
#     Node 42, Type 0, BuildingBlock: CEKHIL_clean_sbu_0, # of connection points: 4
#     Node 43, Type 0, BuildingBlock: CEKHIL_clean_sbu_0, # of connection points: 4
#     Node 44, Type 0, BuildingBlock: CEKHIL_clean_sbu_0, # of connection points: 4
#     Node 45, Type 0, BuildingBlock: CEKHIL_clean_sbu_0, # of connection points: 4
#     Node 46, Type 0, BuildingBlock: CEKHIL_clean_sbu_0, # of connection points: 4
#     Node 47, Type 0, BuildingBlock: CEKHIL_clean_sbu_0, # of connection points: 4
#     Edge 48, Type (0, 0), BuildingBlock: OJICUG_clean_linker_0, # of connection points: 2
#     Edge 49, Type (0, 0), BuildingBlock: OJICUG_clean_linker_0, # of connection points: 2
#     Edge 50, Type (0, 0), BuildingBlock: OJICUG_clean_linker_0, # of connection points: 2
#     Edge 51, Type (0, 0), BuildingBlock: OJICUG_clean_linker_0, # of connection points: 2
#     Edge 52, Type (0, 0), BuildingBlock: OJICUG_clean_linker_0, # of connection points: 2
#     Edge 53, Type (0, 0), BuildingBlock: OJICUG_clean_linker_0, # of connection points: 2
#     Edge 54, Type (0, 0), BuildingBlock: OJICUG_clean_linker_0, # of connection points: 2
#     Edge 55, Type (0, 0), BuildingBlock: OJICUG_clean_linker_0, # of connection points: 2
#     Edge 56, Type (0, 0), BuildingBlock: OJICUG_clean_linker_0, # of connection points: 2
#     Edge 57, Type (0, 0), BuildingBlock: OJICUG_clean_linker_0, # of connection points: 2
#     Edge 58, Type (0, 0), BuildingBlock: OJICUG_clean_linker_0, # of connection points: 2
#     Edge 59, Type (0, 0), BuildingBlock: OJICUG_clean_linker_0, # of connection points: 2
#     Edge 60, Type (0, 0), BuildingBlock: OJICUG_clean_linker_0, # of connection points: 2
#     Edge 61, Type (0, 0), BuildingBlock: OJICUG_clean_linker_0, # of connection points: 2
#     Edge 62, Type (0, 0), BuildingBlock: OJICUG_clean_linker_0, # of connection points: 2
#     Edge 63, Type (0, 0), BuildingBlock: OJICUG_clean_linker_0, # of connection points: 2
#     Edge 64, Type (0, 0), BuildingBlock: OJICUG_clean_linker_0, # of connection points: 2
#     Edge 65, Type (0, 0), BuildingBlock: OJICUG_clean_linker_0, # of connection points: 2
#     Edge 66, Type (0, 0), BuildingBlock: OJICUG_clean_linker_0, # of connection points: 2
#     Edge 67, Type (0, 0), BuildingBlock: OJICUG_clean_linker_0, # of connection points: 2
#     Edge 68, Type (0, 0), BuildingBlock: OJICUG_clean_linker_0, # of connection points: 2
#     Edge 69, Type (0, 0), BuildingBlock: OJICUG_clean_linker_0, # of connection points: 2
#     Edge 70, Type (0, 0), BuildingBlock: OJICUG_clean_linker_0, # of connection points: 2
#     Edge 71, Type (0, 0), BuildingBlock: OJICUG_clean_linker_0, # of connection points: 2
#     Edge 72, Type (0, 0), BuildingBlock: OJICUG_clean_linker_0, # of connection points: 2
#     Edge 73, Type (0, 0), BuildingBlock: OJICUG_clean_linker_0, # of connection points: 2
#     Edge 74, Type (0, 0), BuildingBlock: OJICUG_clean_linker_0, # of connection points: 2
#     Edge 75, Type (0, 0), BuildingBlock: OJICUG_clean_linker_0, # of connection points: 2
#     Edge 76, Type (0, 0), BuildingBlock: OJICUG_clean_linker_0, # of connection points: 2
#     Edge 77, Type (0, 0), BuildingBlock: OJICUG_clean_linker_0, # of connection points: 2
#     Edge 78, Type (0, 0), BuildingBlock: OJICUG_clean_linker_0, # of connection points: 2
#     Edge 79, Type (0, 0), BuildingBlock: OJICUG_clean_linker_0, # of connection points: 2
#     Edge 80, Type (0, 0), BuildingBlock: OJICUG_clean_linker_0, # of connection points: 2
#     Edge 81, Type (0, 0), BuildingBlock: OJICUG_clean_linker_0, # of connection points: 2
#     Edge 82, Type (0, 0), BuildingBlock: OJICUG_clean_linker_0, # of connection points: 2
#     Edge 83, Type (0, 0), BuildingBlock: OJICUG_clean_linker_0, # of connection points: 2
#     Edge 84, Type (0, 0), BuildingBlock: OJICUG_clean_linker_0, # of connection points: 2
#     Edge 85, Type (0, 0), BuildingBlock: OJICUG_clean_linker_0, # of connection points: 2
#     Edge 86, Type (0, 0), BuildingBlock: OJICUG_clean_linker_0, # of connection points: 2
#     Edge 87, Type (0, 0), BuildingBlock: OJICUG_clean_linker_0, # of connection points: 2
#     Edge 88, Type (0, 0), BuildingBlock: OJICUG_clean_linker_0, # of connection points: 2
#     Edge 89, Type (0, 0), BuildingBlock: OJICUG_clean_linker_0, # of connection points: 2
#     Edge 90, Type (0, 0), BuildingBlock: OJICUG_clean_linker_0, # of connection points: 2
#     Edge 91, Type (0, 0), BuildingBlock: OJICUG_clean_linker_0, # of connection points: 2
#     Edge 92, Type (0, 0), BuildingBlock: OJICUG_clean_linker_0, # of connection points: 2
#     Edge 93, Type (0, 0), BuildingBlock: OJICUG_clean_linker_0, # of connection points: 2
#     Edge 94, Type (0, 0), BuildingBlock: OJICUG_clean_linker_0, # of connection points: 2
#     Edge 95, Type (0, 0), BuildingBlock: OJICUG_clean_linker_0, # of connection points: 2
#     Edge 96, Type (0, 0), BuildingBlock: OJICUG_clean_linker_0, # of connection points: 2
#     Edge 97, Type (0, 0), BuildingBlock: OJICUG_clean_linker_0, # of connection points: 2
#     Edge 98, Type (0, 0), BuildingBlock: OJICUG_clean_linker_0, # of connection points: 2
#     Edge 99, Type (0, 0), BuildingBlock: OJICUG_clean_linker_0, # of connection points: 2
#     Edge 100, Type (0, 0), BuildingBlock: OJICUG_clean_linker_0, # of connection points: 2
#     Edge 101, Type (0, 0), BuildingBlock: OJICUG_clean_linker_0, # of connection points: 2
#     Edge 102, Type (0, 0), BuildingBlock: OJICUG_clean_linker_0, # of connection points: 2
#     Edge 103, Type (0, 0), BuildingBlock: OJICUG_clean_linker_0, # of connection points: 2
#     Edge 104, Type (0, 0), BuildingBlock: OJICUG_clean_linker_0, # of connection points: 2
#     Edge 105, Type (0, 0), BuildingBlock: OJICUG_clean_linker_0, # of connection points: 2
#     Edge 106, Type (0, 0), BuildingBlock: OJICUG_clean_linker_0, # of connection points: 2
#     Edge 107, Type (0, 0), BuildingBlock: OJICUG_clean_linker_0, # of connection points: 2
#     Edge 108, Type (0, 0), BuildingBlock: OJICUG_clean_linker_0, # of connection points: 2
#     Edge 109, Type (0, 0), BuildingBlock: OJICUG_clean_linker_0, # of connection points: 2
#     Edge 110, Type (0, 0), BuildingBlock: OJICUG_clean_linker_0, # of connection points: 2
#     Edge 111, Type (0, 0), BuildingBlock: OJICUG_clean_linker_0, # of connection points: 2
#     Edge 112, Type (0, 0), BuildingBlock: OJICUG_clean_linker_0, # of connection points: 2
#     Edge 113, Type (0, 0), BuildingBlock: OJICUG_clean_linker_0, # of connection points: 2
#     Edge 114, Type (0, 0), BuildingBlock: OJICUG_clean_linker_0, # of connection points: 2
#     Edge 115, Type (0, 0), BuildingBlock: OJICUG_clean_linker_0, # of connection points: 2
#     Edge 116, Type (0, 0), BuildingBlock: OJICUG_clean_linker_0, # of connection points: 2
#     Edge 117, Type (0, 0), BuildingBlock: OJICUG_clean_linker_0, # of connection points: 2
#     Edge 118, Type (0, 0), BuildingBlock: OJICUG_clean_linker_0, # of connection points: 2
#     Edge 119, Type (0, 0), BuildingBlock: OJICUG_clean_linker_0, # of connection points: 2
#     Edge 120, Type (0, 0), BuildingBlock: OJICUG_clean_linker_0, # of connection points: 2
#     Edge 121, Type (0, 0), BuildingBlock: OJICUG_clean_linker_0, # of connection points: 2
#     Edge 122, Type (0, 0), BuildingBlock: OJICUG_clean_linker_0, # of connection points: 2
#     Edge 123, Type (0, 0), BuildingBlock: OJICUG_clean_linker_0, # of connection points: 2
#     Edge 124, Type (0, 0), BuildingBlock: OJICUG_clean_linker_0, # of connection points: 2
#     Edge 125, Type (0, 0), BuildingBlock: OJICUG_clean_linker_0, # of connection points: 2
#     Edge 126, Type (0, 0), BuildingBlock: OJICUG_clean_linker_0, # of connection points: 2
#     Edge 127, Type (0, 0), BuildingBlock: OJICUG_clean_linker_0, # of connection points: 2
#     Edge 128, Type (0, 0), BuildingBlock: OJICUG_clean_linker_0, # of connection points: 2
#     Edge 129, Type (0, 0), BuildingBlock: OJICUG_clean_linker_0, # of connection points: 2
#     Edge 130, Type (0, 0), BuildingBlock: OJICUG_clean_linker_0, # of connection points: 2
#     Edge 131, Type (0, 0), BuildingBlock: OJICUG_clean_linker_0, # of connection points: 2
#     Edge 132, Type (0, 0), BuildingBlock: OJICUG_clean_linker_0, # of connection points: 2
#     Edge 133, Type (0, 0), BuildingBlock: OJICUG_clean_linker_0, # of connection points: 2
#     Edge 134, Type (0, 0), BuildingBlock: OJICUG_clean_linker_0, # of connection points: 2
#     Edge 135, Type (0, 0), BuildingBlock: OJICUG_clean_linker_0, # of connection points: 2
#     Edge 136, Type (0, 0), BuildingBlock: OJICUG_clean_linker_0, # of connection points: 2
#     Edge 137, Type (0, 0), BuildingBlock: OJICUG_clean_linker_0, # of connection points: 2
#     Edge 138, Type (0, 0), BuildingBlock: OJICUG_clean_linker_0, # of connection points: 2
#     Edge 139, Type (0, 0), BuildingBlock: OJICUG_clean_linker_0, # of connection points: 2
#     Edge 140, Type (0, 0), BuildingBlock: OJICUG_clean_linker_0, # of connection points: 2
#     Edge 141, Type (0, 0), BuildingBlock: OJICUG_clean_linker_0, # of connection points: 2
#     Edge 142, Type (0, 0), BuildingBlock: OJICUG_clean_linker_0, # of connection points: 2
#     Edge 143, Type (0, 0), BuildingBlock: OJICUG_clean_linker_0, # of connection points: 2
# Relax obj value: 0.211
# Max RMSD: 0.305
# Mean RMSD: 0.305
data_MOF--net-ukp--node1-CEKHIL_clean_sbu_0--edge1-OJICUG_clean_linker_0
_symmetry_space_group_name_H-M    P1
_symmetry_Int_Tables_number       1
_symmetry_cell_setting            triclinic
loop_
_symmetry_equiv_pos_as_xyz
'x, y, z'
_cell_length_a     44.361622
_cell_length_b     44.360003
_cell_length_c     44.361218
_cell_angle_alpha  90.016217
_cell_angle_beta   89.985821
_cell_angle_gamma 90.023581
loop_
_atom_site_label
_atom_site_type_symbol
_atom_site_fract_x
_atom_site_fract_y
_atom_site_fract_z
_atom_type_partial_charge
Co0 Co 0.21178 0.26299 0.40123 0.0
O1 O 0.20207 0.23714 0.43487 0.0
O2 O 0.16841 0.25931 0.40561 0.0
C3 C 0.24757 0.23335 0.38041 0.0
O4 O 0.21314 0.2901 0.36402 0.0
Co5 Co 0.27622 0.29015 0.39399 0.0
O6 O 0.26176 0.29963 0.35278 0.0
C7 C 0.23172 0.32096 0.43293 0.0
C8 C 0.17391 0.24152 0.42828 0.0
C9 C 0.23378 0.3005 0.34646 0.0
O10 O 0.21211 0.30005 0.42793 0.0
O11 O 0.25856 0.32056 0.42233 0.0
O12 O 0.21923 0.22803 0.37526 0.0
O13 O 0.25303 0.25387 0.40028 0.0
Co14 Co 0.98964 0.9601 0.64994 0.0
O15 O 0.01541 0.95039 0.68361 0.0
O16 O 0.99227 0.91678 0.65496 0.0
C17 C 0.01997 0.99487 0.62841 0.0
O18 O 0.96238 0.96131 0.61288 0.0
Co19 Co 0.9637 0.02474 0.64136 0.0
O20 O 0.95501 0.00986 0.60009 0.0
C21 C 0.9322 0.98171 0.68138 0.0
C22 C 0.01025 0.92224 0.67749 0.0
C23 C 0.95313 0.98177 0.59452 0.0
O24 O 0.95279 0.96168 0.67681 0.0
O25 O 0.93292 0.00823 0.67005 0.0
O26 O 0.02462 0.96634 0.62369 0.0
O27 O 0.99962 0.00112 0.64822 0.0
Co28 Co 0.2898 0.73923 0.8997 0.0
O29 O 0.29907 0.76519 0.93343 0.0
O30 O 0.33311 0.74281 0.90476 0.0
C31 C 0.25443 0.76896 0.87838 0.0
O32 O 0.28896 0.71195 0.86252 0.0
Co33 Co 0.22546 0.71228 0.89109 0.0
O34 O 0.2405 0.70361 0.84987 0.0
C35 C 0.26893 0.68158 0.93124 0.0
C36 C 0.32732 0.76072 0.92728 0.0
C37 C 0.26861 0.70223 0.84424 0.0
O38 O 0.2888 0.70232 0.92652 0.0
O39 O 0.24235 0.68203 0.92002 0.0
O40 O 0.28286 0.77414 0.87354 0.0
O41 O 0.24863 0.74844 0.89812 0.0
Co42 Co 0.51328 0.04158 0.15013 0.0
O43 O 0.48799 0.05083 0.18437 0.0
O44 O 0.511 0.08485 0.15619 0.0
C45 C 0.48224 0.00754 0.12838 0.0
O46 O 0.5401 0.04084 0.11261 0.0
Co47 Co 0.53837 0.97684 0.13969 0.0
O48 O 0.54673 0.99248 0.09866 0.0
C49 C 0.5709 0.01865 0.1802 0.0
C50 C 0.4932 0.07907 0.17879 0.0
C51 C 0.54891 0.02066 0.09368 0.0
O52 O 0.55045 0.039 0.17648 0.0
O53 O 0.56979 0.99245 0.16817 0.0
O54 O 0.47788 0.03621 0.12425 0.0
O55 O 0.50285 1.00069 0.1477 0.0
Co56 Co 0.21117 0.73686 0.09955 0.0
O57 O 0.20182 0.76243 0.06558 0.0
O58 O 0.16791 0.74006 0.09444 0.0
C59 C 0.24633 0.76701 0.12074 0.0
O60 O 0.21196 0.71002 0.13697 0.0
Co61 Co 0.27538 0.71011 0.10864 0.0
O62 O 0.26038 0.70248 0.15009 0.0
C63 C 0.23223 0.67899 0.06842 0.0
C64 C 0.1736 0.75778 0.07177 0.0
C65 C 0.23226 0.70095 0.1556 0.0
O66 O 0.21234 0.69971 0.07303 0.0
O67 O 0.25876 0.67954 0.07976 0.0
O68 O 0.21785 0.77207 0.12539 0.0
O69 O 0.25233 0.7463 0.10122 0.0
Co70 Co 0.51137 0.96135 0.35348 0.0
O71 O 0.48574 0.95184 0.31965 0.0
O72 O 0.50528 0.9181 0.35066 0.0
C73 C 0.48403 0.99977 0.3725 0.0
O74 O 0.53794 0.963 0.39097 0.0
Co75 Co 0.54233 0.02459 0.35618 0.0
O76 O 0.55277 0.0112 0.3977 0.0
C77 C 0.56898 0.97713 0.31855 0.0
C78 C 0.48855 0.92374 0.3272 0.0
C79 C 0.55093 0.98387 0.4064 0.0
O80 O 0.54893 0.95825 0.32787 0.0
O81 O 0.56868 0.00526 0.32494 0.0
O82 O 0.4765 0.97209 0.37852 0.0
O83 O 0.50481 0.00291 0.35244 0.0
Co84 Co 0.29124 0.2629 0.60254 0.0
O85 O 0.30135 0.2369 0.5691 0.0
O86 O 0.33464 0.26051 0.59769 0.0
C87 C 0.25659 0.23247 0.62412 0.0
O88 O 0.28948 0.29049 0.63945 0.0
Co89 Co 0.22621 0.28829 0.61027 0.0
O90 O 0.24074 0.29829 0.65135 0.0
C91 C 0.2692 0.31965 0.57013 0.0
C92 C 0.32944 0.24231 0.57526 0.0
C93 C 0.26875 0.30021 0.6573 0.0
O94 O 0.28948 0.29948 0.57532 0.0
O95 O 0.24253 0.3187 0.58111 0.0
O96 O 0.28513 0.22809 0.62904 0.0
O97 O 0.2503 0.25256 0.60408 0.0
Co98 Co 0.98829 0.03993 0.85142 0.0
O99 O 0.01388 0.04934 0.81745 0.0
O100 O 0.99215 0.08324 0.84681 0.0
C101 C 0.01797 0.00407 0.87202 0.0
O102 O 0.96156 0.03901 0.88897 0.0
Co103 Co 0.9607 0.97591 0.85984 0.0
O104 O 0.95331 0.99052 0.90146 0.0
C105 C 0.92994 0.02006 0.82047 0.0
C106 C 0.00971 0.07756 0.82399 0.0
C107 C 0.95221 0.01859 0.90735 0.0
O108 O 0.95101 0.0396 0.82507 0.0
O109 O 0.93016 0.99341 0.83152 0.0
O110 O 0.02349 0.03241 0.87702 0.0
O111 O 0.99711 0.99863 0.85251 0.0
Co112 Co 0.40305 0.21133 0.26535 0.0
O113 O 0.43685 0.20191 0.23953 0.0
O114 O 0.40836 0.168 0.26233 0.0
C115 C 0.3815 0.24613 0.23513 0.0
O116 O 0.36583 0.21229 0.29252 0.0
Co117 Co 0.39402 0.27597 0.2914 0.0
O118 O 0.3528 0.2608 0.29991 0.0
C119 C 0.43459 0.23329 0.32264 0.0
C120 C 0.43082 0.17369 0.24431 0.0
C121 C 0.34733 0.23268 0.30171 0.0
O122 O 0.42985 0.21302 0.30229 0.0
O123 O 0.42328 0.25981 0.32174 0.0
O124 O 0.37686 0.21761 0.23031 0.0
O125 O 0.40119 0.25234 0.25557 0.0
Co126 Co 0.04141 0.14969 0.51281 0.0
O127 O 0.05076 0.18377 0.48732 0.0
O128 O 0.08469 0.15442 0.50897 0.0
C129 C 0.00556 0.1291 0.48306 0.0
O130 O 0.04064 0.1121 0.53943 0.0
Co131 Co 0.97743 0.14088 0.54036 0.0
O132 O 0.99224 0.09936 0.54784 0.0
C133 C 0.02149 0.18031 0.57128 0.0
C134 C 0.07898 0.17729 0.49151 0.0
C135 C 0.02034 0.09363 0.54889 0.0
O136 O 0.04105 0.17589 0.55019 0.0
O137 O 0.99486 0.16919 0.57096 0.0
O138 O 0.0339 0.12417 0.47751 0.0
O139 O 1.00011 0.14851 0.504 0.0
Co140 Co 0.09953 0.78898 0.76287 0.0
O141 O 0.06578 0.79854 0.73709 0.0
O142 O 0.09487 0.83225 0.75951 0.0
C143 C 0.12061 0.75352 0.73302 0.0
O144 O 0.13678 0.78808 0.78987 0.0
Co145 Co 0.10813 0.72478 0.78988 0.0
O146 O 0.14951 0.73967 0.79817 0.0
C147 C 0.06796 0.76827 0.82059 0.0
C148 C 0.07225 0.82671 0.74168 0.0
C149 C 0.15517 0.76779 0.79941 0.0
O150 O 0.07285 0.78814 0.79991 0.0
O151 O 0.07906 0.74164 0.82008 0.0
O152 O 0.12549 0.78194 0.72783 0.0
O153 O 0.10093 0.74777 0.75364 0.0
Co154 Co 0.459 0.85341 0.01229 0.0
O155 O 0.44983 0.8193 0.98679 0.0
O156 O 0.41571 0.84825 0.00867 0.0
C157 C 0.49448 0.87436 0.98229 0.0
O158 O 0.45966 0.89097 0.03902 0.0
Co159 Co 0.52311 0.86268 0.03937 0.0
O160 O 0.50806 0.90415 0.04671 0.0
C161 C 0.47958 0.82291 0.07061 0.0
C162 C 0.42157 0.82548 0.99111 0.0
C163 C 0.47993 0.90965 0.04814 0.0
O164 O 0.45986 0.82713 0.04964 0.0
O165 O 0.5061 0.83429 0.07014 0.0
O166 O 0.46606 0.87908 0.977 0.0
O167 O 0.50024 0.85497 0.00317 0.0
Co168 Co 0.39964 0.79211 0.23823 0.0
O169 O 0.43306 0.80149 0.2645 0.0
O170 O 0.40403 0.83544 0.24249 0.0
C171 C 0.37865 0.75611 0.26748 0.0
O172 O 0.3626 0.79096 0.2108 0.0
Co173 Co 0.39246 0.7279 0.21055 0.0
O174 O 0.3511 0.74233 0.2017 0.0
C175 C 0.43156 0.77267 0.18023 0.0
C176 C 0.42644 0.82969 0.26054 0.0
C177 C 0.34486 0.77033 0.20065 0.0
O178 O 0.42659 0.79211 0.20132 0.0
O179 O 0.4209 0.74585 0.1804 0.0
O180 O 0.37344 0.7844 0.27295 0.0
O181 O 0.39861 0.75079 0.24702 0.0
Co182 Co 0.46389 0.15425 0.48988 0.0
O183 O 0.45378 0.18753 0.5161 0.0
O184 O 0.42049 0.15855 0.49297 0.0
C185 C 0.4992 0.13281 0.51962 0.0
O186 O 0.46558 0.11742 0.46225 0.0
Co187 Co 0.52882 0.14767 0.4636 0.0
O188 O 0.51419 0.10721 0.45151 0.0
C189 C 0.48466 0.18677 0.43266 0.0
C190 C 0.42569 0.18096 0.51119 0.0
C191 C 0.48626 0.1006 0.45078 0.0
O192 O 0.46476 0.18144 0.45321 0.0
O193 O 0.51155 0.17635 0.43335 0.0
O194 O 0.47076 0.12774 0.52452 0.0
O195 O 0.505 0.15309 0.49961 0.0
Co196 Co 0.10148 0.20997 0.73921 0.0
O197 O 0.06743 0.20051 0.76469 0.0
O198 O 0.09693 0.16665 0.74312 0.0
C199 C 0.12186 0.24602 0.7689 0.0
O200 O 0.13907 0.21093 0.71258 0.0
Co201 Co 0.10982 0.27399 0.71157 0.0
O202 O 0.15147 0.25944 0.70423 0.0
C203 C 0.07062 0.22964 0.68077 0.0
C204 C 0.07401 0.17231 0.76054 0.0
C205 C 0.1574 0.23138 0.70318 0.0
O206 O 0.07527 0.21011 0.70182 0.0
O207 O 0.08152 0.25637 0.68108 0.0
O208 O 0.12696 0.21772 0.77449 0.0
O209 O 0.10242 0.25129 0.74795 0.0
Co210 Co 0.04089 0.84907 0.9875 0.0
O211 O 0.05045 0.81527 0.01318 0.0
O212 O 0.08421 0.84396 0.99035 0.0
C213 C 0.00605 0.87046 0.01784 0.0
O214 O 0.03977 0.88632 0.9604 0.0
Co215 Co 0.97629 0.85771 0.96143 0.0
O216 O 0.99123 0.89893 0.9526 0.0
C217 C 0.01927 0.81757 0.93006 0.0
C218 C 0.07863 0.82139 0.00826 0.0
C219 C 0.01932 0.9046 0.95095 0.0
O220 O 0.03937 0.82233 0.95055 0.0
O221 O 0.9927 0.82878 0.93084 0.0
O222 O 0.03458 0.87515 0.02259 0.0
O223 O 0.99984 0.85076 0.99736 0.0
Co224 Co 0.26306 0.39814 0.20913 0.0
O225 O 0.2378 0.43206 0.19923 0.0
O226 O 0.25863 0.4016 0.16572 0.0
C227 C 0.23408 0.37855 0.24601 0.0
O228 O 0.28957 0.36067 0.21121 0.0
Co229 Co 0.29142 0.39442 0.27343 0.0
O230 O 0.30219 0.35305 0.25989 0.0
C231 C 0.32033 0.43237 0.22752 0.0
C232 C 0.24158 0.42488 0.17115 0.0
C233 C 0.30158 0.34485 0.23234 0.0
O234 O 0.30068 0.42379 0.20788 0.0
O235 O 0.3191 0.42537 0.25547 0.0
O236 O 0.22783 0.37295 0.21794 0.0
O237 O 0.25474 0.39853 0.25043 0.0
Co238 Co 0.76345 0.10213 0.78979 0.0
O239 O 0.73736 0.06856 0.79923 0.0
O240 O 0.75938 0.09769 0.83313 0.0
C241 C 0.73425 0.1231 0.75374 0.0
O242 O 0.79077 0.13925 0.78869 0.0
Co243 Co 0.79128 0.10932 0.72567 0.0
O244 O 0.80006 0.15072 0.7401 0.0
C245 C 0.82127 0.06988 0.77025 0.0
C246 C 0.74158 0.07505 0.82744 0.0
C247 C 0.80094 0.15701 0.7681 0.0
O248 O 0.80035 0.07522 0.78976 0.0
O249 O 0.82113 0.08045 0.7434 0.0
O250 O 0.72868 0.12826 0.78203 0.0
O251 O 0.75472 0.10315 0.74847 0.0
Co252 Co 0.15139 0.51206 0.03963 0.0
O253 O 0.18509 0.48599 0.04855 0.0
O254 O 0.15666 0.50839 0.08282 0.0
C255 C 0.12969 0.48243 0.0044 0.0
O256 O 0.11424 0.53932 0.03927 0.0
Co257 Co 0.1423 0.53936 0.97564 0.0
O258 O 0.10115 0.54781 0.99098 0.0
C259 C 0.18298 0.56979 0.01887 0.0
C260 C 0.17903 0.49037 0.07683 0.0
C261 C 0.09574 0.54903 0.01915 0.0
O262 O 0.17829 0.54897 0.03865 0.0
O263 O 0.17157 0.56947 0.99237 0.0
O264 O 0.12514 0.47721 0.03285 0.0
O265 O 0.14941 0.50296 0.99842 0.0
Co266 Co 0.73997 0.89842 0.29297 0.0
O267 O 0.76487 0.93269 0.30271 0.0
O268 O 0.74451 0.90203 0.33633 0.0
C269 C 0.76896 0.87908 0.25595 0.0
O270 O 0.71389 0.86063 0.29111 0.0
Co271 Co 0.71128 0.89411 0.22885 0.0
O272 O 0.70129 0.85256 0.2425 0.0
C273 C 0.68234 0.93203 0.27476 0.0
C274 C 0.7612 0.92556 0.33083 0.0
C275 C 0.70209 0.8445 0.27008 0.0
O276 O 0.70207 0.9236 0.29435 0.0
O277 O 0.68349 0.92498 0.24681 0.0
O278 O 0.77545 0.87364 0.284 0.0
O279 O 0.74805 0.89879 0.25162 0.0
Co280 Co 0.8526 0.98758 0.04238 0.0
O281 O 0.81902 0.01354 0.05206 0.0
O282 O 0.84779 0.99075 0.08574 0.0
C283 C 0.87389 0.01759 0.00718 0.0
O284 O 0.88966 0.96023 0.04109 0.0
Co285 Co 0.86059 0.96115 0.97779 0.0
O286 O 0.90186 0.95218 0.99245 0.0
C287 C 0.82068 0.93016 0.02131 0.0
C288 C 0.82529 0.00875 0.08023 0.0
C289 C 0.90773 0.95059 0.0205 0.0
O290 O 0.82565 0.95073 0.04128 0.0
O291 O 0.83167 0.9308 0.99464 0.0
O292 O 0.87886 0.02248 0.03563 0.0
O293 O 0.85403 0.99719 0.00127 0.0
Co294 Co 0.23804 0.59989 0.71096 0.0
O295 O 0.26419 0.56639 0.70147 0.0
O296 O 0.24109 0.59475 0.66765 0.0
C297 C 0.26791 0.6218 0.74592 0.0
O298 O 0.21047 0.63679 0.71195 0.0
Co299 Co 0.21157 0.6082 0.77548 0.0
O300 O 0.20204 0.64922 0.76045 0.0
C301 C 0.18089 0.56763 0.73238 0.0
C302 C 0.25922 0.57238 0.67326 0.0
C303 C 0.20055 0.65489 0.73236 0.0
O304 O 0.20139 0.5727 0.71235 0.0
O305 O 0.18148 0.5788 0.75898 0.0
O306 O 0.27276 0.62646 0.71741 0.0
O307 O 0.24771 0.6018 0.75206 0.0
Co308 Co 0.151 0.4888 0.46055 0.0
O309 O 0.18511 0.51426 0.45113 0.0
O310 O 0.15583 0.49239 0.41726 0.0
C311 C 0.13033 0.51875 0.49622 0.0
O312 O 0.11339 0.46218 0.46134 0.0
Co313 Co 0.14193 0.4616 0.52464 0.0
O314 O 0.10043 0.45409 0.50973 0.0
C315 C 0.18171 0.43056 0.48098 0.0
C316 C 0.17869 0.5099 0.42292 0.0
C317 C 0.09481 0.45289 0.48161 0.0
O318 O 0.17723 0.45144 0.46122 0.0
O319 O 0.1705 0.43106 0.50757 0.0
O320 O 0.12546 0.52413 0.46784 0.0
O321 O 0.14971 0.49783 0.50181 0.0
Co322 Co 0.35019 0.51503 0.96144 0.0
O323 O 0.31674 0.48873 0.95205 0.0
O324 O 0.34567 0.5109 0.9181 0.0
C325 C 0.37131 0.48601 0.99753 0.0
O326 O 0.38713 0.54258 0.96248 0.0
Co327 Co 0.35757 0.54275 0.0257 0.0
O328 O 0.39889 0.55164 0.01105 0.0
C329 C 0.31779 0.57259 0.98128 0.0
C330 C 0.32313 0.49298 0.92382 0.0
C331 C 0.40496 0.55274 0.98302 0.0
O332 O 0.32311 0.55179 0.96162 0.0
O333 O 0.32845 0.57238 0.00809 0.0
O334 O 0.37656 0.48037 0.96926 0.0
O335 O 0.35127 0.50639 0.0027 0.0
Co336 Co 0.71099 0.7643 0.90072 0.0
O337 O 0.70102 0.73875 0.93454 0.0
O338 O 0.6676 0.76111 0.90514 0.0
C339 C 0.74647 0.73418 0.88008 0.0
O340 O 0.71257 0.7912 0.86334 0.0
Co341 Co 0.77551 0.79094 0.89308 0.0
O342 O 0.76128 0.79935 0.85155 0.0
C343 C 0.7314 0.82232 0.932 0.0
C344 C 0.67291 0.74344 0.92795 0.0
C345 C 0.73329 0.80074 0.84538 0.0
O346 O 0.71168 0.80147 0.92722 0.0
O347 O 0.75816 0.82176 0.92122 0.0
O348 O 0.71808 0.72911 0.87497 0.0
O349 O 0.75215 0.75481 0.89978 0.0
Co350 Co 0.49119 0.46162 0.14898 0.0
O351 O 0.51717 0.45139 0.18229 0.0
O352 O 0.49683 0.41828 0.15106 0.0
C353 C 0.51874 0.49991 0.13005 0.0
O354 O 0.46419 0.46408 0.11188 0.0
Co355 Co 0.46105 0.5253 0.14795 0.0
O356 O 0.44843 0.51221 0.10696 0.0
C357 C 0.43419 0.47753 0.18493 0.0
C358 C 0.51403 0.42345 0.17429 0.0
C359 C 0.45034 0.48512 0.09751 0.0
O360 O 0.45387 0.45858 0.17499 0.0
O361 O 0.43485 0.50578 0.17919 0.0
O362 O 0.52585 0.47221 0.12364 0.0
O363 O 0.49833 0.50308 0.1505 0.0
Co364 Co 0.78901 0.23697 0.40314 0.0
O365 O 0.79891 0.26373 0.43605 0.0
O366 O 0.83241 0.24072 0.40724 0.0
C367 C 0.75319 0.26602 0.38164 0.0
O368 O 0.78745 0.20888 0.36664 0.0
Co369 Co 0.72435 0.20987 0.39694 0.0
O370 O 0.73878 0.19876 0.3561 0.0
C371 C 0.76877 0.18018 0.43677 0.0
C372 C 0.82704 0.25915 0.42944 0.0
C373 C 0.76673 0.19781 0.34959 0.0
O374 O 0.78863 0.20062 0.43082 0.0
O375 O 0.74182 0.18059 0.42648 0.0
O376 O 0.78151 0.27124 0.37624 0.0
O377 O 0.74783 0.24611 0.40211 0.0
Co378 Co 0.01432 0.54048 0.65115 0.0
O379 O 0.98832 0.54961 0.6849 0.0
O380 O 0.01117 0.58375 0.65671 0.0
C381 C 0.98431 0.50567 0.62921 0.0
O382 O 0.04168 0.53986 0.61403 0.0
Co383 Co 0.04078 0.47609 0.64199 0.0
O384 O 0.04979 0.49147 0.60098 0.0
C385 C 0.07164 0.5188 0.68285 0.0
C386 C 0.9931 0.57788 0.67908 0.0
C387 C 0.05133 0.51962 0.59558 0.0
O388 O 0.05113 0.53888 0.67812 0.0
O389 O 0.07102 0.49233 0.67138 0.0
O390 O 0.97945 0.53421 0.62478 0.0
O391 O 0.00469 0.49938 0.64896 0.0
Co392 Co 0.71188 0.23885 0.59868 0.0
O393 O 0.70216 0.26461 0.56494 0.0
O394 O 0.66853 0.24167 0.59367 0.0
C395 C 0.74669 0.26926 0.62 0.0
O396 O 0.71314 0.21169 0.63591 0.0
Co397 Co 0.7766 0.21299 0.60727 0.0
O398 O 0.76172 0.20391 0.64844 0.0
C399 C 0.73356 0.18135 0.56734 0.0
C400 C 0.674 0.25972 0.57119 0.0
C401 C 0.73364 0.20219 0.65414 0.0
O402 O 0.71344 0.20187 0.57193 0.0
O403 O 0.76012 0.18223 0.57857 0.0
O404 O 0.71818 0.27392 0.62477 0.0
O405 O 0.7529 0.24881 0.60028 0.0
Co406 Co 0.01239 0.46115 0.85076 0.0
O407 O 0.98665 0.45205 0.81686 0.0
O408 O 0.00951 0.41791 0.84503 0.0
C409 C 0.98211 0.49569 0.87271 0.0
O410 O 0.03957 0.46176 0.88794 0.0
Co411 Co 0.0385 0.52563 0.86032 0.0
O412 O 0.04731 0.51012 0.90131 0.0
C413 C 0.07008 0.48299 0.81994 0.0
C414 C 0.99158 0.42379 0.82256 0.0
C415 C 0.04903 0.48195 0.90653 0.0
O416 O 0.04934 0.463 0.82405 0.0
O417 O 0.06942 0.50935 0.83166 0.0
O418 O 0.97735 0.4671 0.87699 0.0
O419 O 0.00255 0.50217 0.85306 0.0
Co420 Co 0.7911 0.76287 0.10109 0.0
O421 O 0.8008 0.73698 0.06747 0.0
O422 O 0.83447 0.75946 0.09653 0.0
C423 C 0.75561 0.73303 0.12214 0.0
O424 O 0.78976 0.7901 0.13823 0.0
Co425 Co 0.72655 0.78961 0.10856 0.0
O426 O 0.74115 0.79945 0.14964 0.0
C427 C 0.7707 0.82061 0.06937 0.0
C428 C 0.82896 0.74156 0.07393 0.0
C429 C 0.76916 0.8005 0.15584 0.0
O430 O 0.79044 0.79983 0.0743 0.0
O431 O 0.74393 0.8201 0.08013 0.0
O432 O 0.78401 0.72794 0.12717 0.0
O433 O 0.74991 0.75346 0.10226 0.0
Co434 Co 0.48718 0.54095 0.35065 0.0
O435 O 0.51356 0.55045 0.31733 0.0
O436 O 0.49102 0.58432 0.34608 0.0
C437 C 0.51634 0.50517 0.37207 0.0
O438 O 0.45947 0.53969 0.38748 0.0
Co439 Co 0.4599 0.47646 0.35747 0.0
O440 O 0.44998 0.49102 0.39858 0.0
C441 C 0.43012 0.52067 0.3175 0.0
C442 C 0.50907 0.57866 0.32363 0.0
C443 C 0.44896 0.519 0.40494 0.0
O444 O 0.45059 0.54051 0.32334 0.0
O445 O 0.43054 0.49375 0.32788 0.0
O446 O 0.52171 0.53351 0.37724 0.0
O447 O 0.49619 0.49975 0.35185 0.0
Co448 Co 0.90138 0.70996 0.76447 0.0
O449 O 0.93519 0.7005 0.7387 0.0
O450 O 0.90607 0.66661 0.76074 0.0
C451 C 0.88052 0.74569 0.73477 0.0
O452 O 0.86405 0.71107 0.79152 0.0
Co453 Co 0.8936 0.77424 0.79173 0.0
O454 O 0.85218 0.75967 0.80021 0.0
C455 C 0.93306 0.73013 0.82238 0.0
C456 C 0.9288 0.67229 0.74306 0.0
C457 C 0.84608 0.73164 0.80135 0.0
O458 O 0.92801 0.71043 0.80156 0.0
O459 O 0.9223 0.7569 0.82198 0.0
O460 O 0.87548 0.71732 0.72943 0.0
O461 O 0.90023 0.75121 0.75541 0.0
Co462 Co 0.53889 0.65459 0.01318 0.0
O463 O 0.54888 0.68793 0.98703 0.0
O464 O 0.58227 0.65894 0.00996 0.0
C465 C 0.50347 0.63318 0.98351 0.0
O466 O 0.53727 0.61772 0.04069 0.0
Co467 Co 0.47404 0.64801 0.03968 0.0
O468 O 0.48866 0.60749 0.05149 0.0
C469 C 0.51844 0.6868 0.07072 0.0
C470 C 0.57699 0.68139 0.99183 0.0
C471 C 0.51659 0.60088 0.05214 0.0
O472 O 0.53819 0.68166 0.04997 0.0
O473 O 0.49156 0.67636 0.07013 0.0
O474 O 0.53189 0.62815 0.97849 0.0
O475 O 0.49773 0.65342 0.00358 0.0
Co476 Co 0.60185 0.28999 0.26142 0.0
O477 O 0.56904 0.30006 0.23473 0.0
O478 O 0.59948 0.33333 0.25599 0.0
C479 C 0.62162 0.25207 0.23396 0.0
O480 O 0.63846 0.28787 0.28917 0.0
Co481 Co 0.60382 0.22632 0.29133 0.0
O482 O 0.64498 0.23943 0.30322 0.0
C483 C 0.56565 0.27348 0.31812 0.0
C484 C 0.57673 0.32806 0.2382 0.0
C485 C 0.65362 0.26682 0.30216 0.0
O486 O 0.57481 0.29248 0.29807 0.0
O487 O 0.57269 0.2455 0.31786 0.0
O488 O 0.62803 0.27986 0.22725 0.0
O489 O 0.60093 0.24854 0.25406 0.0
Co490 Co 0.96028 0.35257 0.51134 0.0
O491 O 0.95061 0.3189 0.48545 0.0
O492 O 0.91692 0.34761 0.5083 0.0
C493 C 0.99542 0.37397 0.48131 0.0
O494 O 0.96155 0.38967 0.5387 0.0
Co495 Co 0.02487 0.36068 0.53771 0.0
O496 O 0.01017 0.40193 0.54673 0.0
C497 C 0.98139 0.32082 0.5688 0.0
C498 C 0.92243 0.32502 0.49039 0.0
C499 C 0.98211 0.40776 0.54835 0.0
O500 O 0.96146 0.32567 0.54818 0.0
O501 O 0.00804 0.33188 0.56818 0.0
O502 O 0.96695 0.37882 0.47643 0.0
O503 O 0.00138 0.3541 0.50167 0.0
Co504 Co 0.901 0.29191 0.73606 0.0
O505 O 0.93482 0.30124 0.76182 0.0
O506 O 0.90588 0.33521 0.73968 0.0
C507 C 0.87994 0.2564 0.76586 0.0
O508 O 0.86371 0.29104 0.70905 0.0
Co509 Co 0.89249 0.2277 0.70892 0.0
O510 O 0.85108 0.24255 0.70089 0.0
C511 C 0.93237 0.27144 0.67814 0.0
C512 C 0.92851 0.32946 0.75744 0.0
C513 C 0.84536 0.27064 0.69957 0.0
O514 O 0.92763 0.29119 0.69898 0.0
O515 O 0.92127 0.2448 0.67856 0.0
O516 O 0.87506 0.2848 0.77112 0.0
O517 O 0.89958 0.2507 0.74518 0.0
Co518 Co 0.96132 0.64945 0.98967 0.0
O519 O 0.95209 0.68339 0.01538 0.0
O520 O 0.91807 0.65452 0.99318 0.0
C521 C 0.99673 0.62827 0.01952 0.0
O522 O 0.96193 0.61209 0.96272 0.0
Co523 Co 0.0254 0.64028 0.96252 0.0
O524 O 0.01026 0.59892 0.95469 0.0
C525 C 0.98199 0.68038 0.93163 0.0
C526 C 0.92385 0.6772 0.01088 0.0
C527 C 0.98211 0.59348 0.95334 0.0
O528 O 0.96224 0.67597 0.95254 0.0
O529 O 0.00849 0.66899 0.93201 0.0
O530 O 0.9683 0.62355 0.02479 0.0
O531 O 0.00254 0.64782 0.99879 0.0
Co532 Co 0.60081 0.71066 0.23807 0.0
O533 O 0.56709 0.70137 0.26404 0.0
O534 O 0.59536 0.66735 0.24114 0.0
C535 C 0.62261 0.74543 0.26821 0.0
O536 O 0.63792 0.71152 0.21073 0.0
Co537 Co 0.60993 0.7753 0.21202 0.0
O538 O 0.65102 0.76001 0.20325 0.0
C539 C 0.56923 0.73263 0.18083 0.0
C540 C 0.573 0.67313 0.25926 0.0
C541 C 0.65641 0.73188 0.20141 0.0
O542 O 0.57388 0.71238 0.20121 0.0
O543 O 0.58064 0.75912 0.18171 0.0
O544 O 0.62719 0.7169 0.27299 0.0
O545 O 0.60285 0.75168 0.24785 0.0
Co546 Co 0.54014 0.35115 0.4885 0.0
O547 O 0.55033 0.31693 0.51335 0.0
O548 O 0.58359 0.34739 0.49217 0.0
C549 C 0.50388 0.37077 0.51832 0.0
O550 O 0.53797 0.38891 0.46237 0.0
Co551 Co 0.47535 0.35622 0.46138 0.0
O552 O 0.4892 0.39754 0.45084 0.0
C553 C 0.52035 0.31808 0.43112 0.0
C554 C 0.57839 0.32405 0.5092 0.0
C555 C 0.51688 0.40526 0.45098 0.0
O556 O 0.5405 0.32585 0.45057 0.0
O557 O 0.49266 0.32593 0.43263 0.0
O558 O 0.5321 0.37608 0.5241 0.0
O559 O 0.49894 0.35105 0.49754 0.0
Co560 Co 0.76517 0.90085 0.71034 0.0
O561 O 0.73931 0.93459 0.70091 0.0
O562 O 0.76149 0.90564 0.66698 0.0
C563 C 0.73545 0.8798 0.74593 0.0
O564 O 0.79232 0.86358 0.71148 0.0
Co565 Co 0.79223 0.89311 0.77472 0.0
O566 O 0.80089 0.85174 0.76012 0.0
C567 C 0.82281 0.93286 0.73079 0.0
C568 C 0.74371 0.92828 0.67269 0.0
C569 C 0.80212 0.84563 0.7321 0.0
O570 O 0.80217 0.92763 0.71097 0.0
O571 O 0.82231 0.92213 0.75757 0.0
O572 O 0.7302 0.87481 0.71754 0.0
O573 O 0.75599 0.8996 0.75155 0.0
Co574 Co 0.26311 0.60099 0.28989 0.0
O575 O 0.23748 0.56714 0.29958 0.0
O576 O 0.26015 0.59604 0.33325 0.0
C577 C 0.2328 0.6221 0.25487 0.0
O578 O 0.29012 0.63831 0.28866 0.0
Co579 Co 0.28925 0.60958 0.22524 0.0
O580 O 0.29808 0.65082 0.2401 0.0
C581 C 0.32085 0.56998 0.26855 0.0
C582 C 0.2423 0.5734 0.32775 0.0
C583 C 0.29965 0.65654 0.26818 0.0
O584 O 0.30017 0.5744 0.28852 0.0
O585 O 0.32016 0.58125 0.242 0.0
O586 O 0.22796 0.62693 0.28336 0.0
O587 O 0.25335 0.60246 0.24881 0.0
Co588 Co 0.65227 0.01441 0.54087 0.0
O589 O 0.68564 0.988 0.5501 0.0
O590 O 0.65755 0.01104 0.58418 0.0
C591 C 0.63018 0.98479 0.5058 0.0
O592 O 0.61553 0.04221 0.54004 0.0
Co593 Co 0.64389 0.04094 0.47629 0.0
O594 O 0.60295 0.0505 0.49155 0.0
C595 C 0.68474 0.07138 0.51935 0.0
C596 C 0.67976 0.99276 0.57836 0.0
C597 C 0.5974 0.05213 0.51967 0.0
O598 O 0.67964 0.05097 0.53948 0.0
O599 O 0.67358 0.07071 0.49276 0.0
O600 O 0.62545 0.97984 0.53428 0.0
O601 O 0.65027 0.00492 0.49979 0.0
Co602 Co 0.23707 0.40155 0.7918 0.0
O603 O 0.26311 0.43522 0.80115 0.0
O604 O 0.24086 0.4064 0.83513 0.0
C605 C 0.26661 0.3803 0.75615 0.0
O606 O 0.20982 0.36434 0.79087 0.0
Co607 Co 0.20982 0.39355 0.72751 0.0
O608 O 0.2009 0.35231 0.74234 0.0
C609 C 0.17961 0.4338 0.77126 0.0
C610 C 0.25876 0.42894 0.82938 0.0
C611 C 0.19983 0.34633 0.7704 0.0
O612 O 0.20015 0.42845 0.79116 0.0
O613 O 0.18012 0.42302 0.74449 0.0
O614 O 0.27194 0.37539 0.78453 0.0
O615 O 0.24612 0.40013 0.75056 0.0
Co616 Co 0.34902 0.48672 0.54015 0.0
O617 O 0.31539 0.5126 0.54987 0.0
O618 O 0.3446 0.49031 0.5835 0.0
C619 C 0.36988 0.51642 0.50442 0.0
O620 O 0.3862 0.45956 0.53888 0.0
Co621 Co 0.35668 0.45961 0.47576 0.0
O622 O 0.398 0.45065 0.4903 0.0
C623 C 0.31712 0.42899 0.51989 0.0
C624 C 0.32195 0.50814 0.57803 0.0
C625 C 0.40408 0.44953 0.51833 0.0
O626 O 0.32224 0.44973 0.53965 0.0
O627 O 0.32787 0.42944 0.4931 0.0
O628 O 0.37504 0.52168 0.53278 0.0
O629 O 0.35007 0.49586 0.49892 0.0
Co630 Co 0.73839 0.09736 0.21344 0.0
O631 O 0.76474 0.06414 0.2036 0.0
O632 O 0.74286 0.09379 0.17008 0.0
C633 C 0.767 0.11801 0.25016 0.0
O634 O 0.71092 0.13426 0.215 0.0
Co635 Co 0.71011 0.10266 0.2777 0.0
O636 O 0.69887 0.14352 0.26351 0.0
C637 C 0.6807 0.06415 0.23195 0.0
C638 C 0.76073 0.07115 0.17549 0.0
C639 C 0.69901 0.15072 0.23572 0.0
O640 O 0.70156 0.07031 0.2126 0.0
O641 O 0.68086 0.07373 0.25916 0.0
O642 O 0.77294 0.12361 0.22202 0.0
O643 O 0.74675 0.09769 0.25482 0.0
Co644 Co 0.64979 0.9896 0.95944 0.0
O645 O 0.68364 0.0154 0.95015 0.0
O646 O 0.65481 0.99319 0.91613 0.0
C647 C 0.6286 0.01944 0.99487 0.0
O648 O 0.61242 0.96256 0.96026 0.0
Co649 Co 0.64117 0.96255 0.02366 0.0
O650 O 0.59984 0.95426 0.00873 0.0
C651 C 0.68127 0.9318 0.98013 0.0
C652 C 0.67742 0.01098 0.92191 0.0
C653 C 0.5941 0.95299 0.98064 0.0
O654 O 0.67644 0.95252 0.96028 0.0
O655 O 0.67017 0.93232 0.00676 0.0
O656 O 0.62383 0.02465 0.96644 0.0
O657 O 0.64823 0.99881 1.00065 0.0
Co658 Co 0.85029 0.01351 0.46253 0.0
O659 O 0.81656 0.98751 0.45348 0.0
O660 O 0.84468 0.01047 0.41932 0.0
C661 C 0.87223 0.98328 0.49703 0.0
O662 O 0.88744 0.04079 0.46304 0.0
Co663 Co 0.86001 0.03967 0.52695 0.0
O664 O 0.90098 0.04853 0.51134 0.0
C665 C 0.81905 0.07088 0.48461 0.0
C666 C 0.82246 0.99222 0.42522 0.0
C667 C 0.90612 0.05022 0.48316 0.0
O668 O 0.8234 0.05035 0.46445 0.0
O669 O 0.8308 0.07017 0.51095 0.0
O670 O 0.87659 0.97858 0.46846 0.0
O671 O 0.8526 0.00372 0.50355 0.0
C672 C 0.13375 0.18871 0.4825 0.0
C673 C 0.10327 0.19462 0.47627 0.0
H674 H 0.17984 0.199 0.47245 0.0
C675 C 0.09618 0.21677 0.45469 0.0
H676 H 0.14 0.17185 0.499 0.0
C677 C 0.11904 0.23224 0.43929 0.0
C678 C 0.14952 0.22608 0.44529 0.0
H679 H 0.07292 0.22188 0.44932 0.0
H680 H 0.1128 0.24887 0.42255 0.0
C681 C 0.15659 0.20433 0.46727 0.0
C682 C 0.06171 0.88158 0.7325 0.0
C683 C 0.05532 0.85117 0.72636 0.0
H684 H 0.05239 0.92778 0.72208 0.0
C685 C 0.03322 0.84432 0.70465 0.0
H686 H 0.07856 0.88765 0.7491 0.0
C687 C 0.0183 0.86734 0.68902 0.0
C688 C 0.02501 0.89774 0.69486 0.0
H689 H 0.02775 0.82112 0.69935 0.0
H690 H 0.0017 0.86128 0.67216 0.0
C691 C 0.04667 0.90459 0.717 0.0
C692 C 0.36686 0.81374 0.98184 0.0
C693 C 0.39741 0.80797 0.97582 0.0
H694 H 0.32087 0.80324 0.97148 0.0
C695 C 0.40473 0.78581 0.9543 0.0
H696 H 0.36042 0.83061 0.99828 0.0
C697 C 0.38206 0.7702 0.93878 0.0
C698 C 0.3515 0.77624 0.94454 0.0
H699 H 0.42805 0.78079 0.94908 0.0
H700 H 0.38849 0.75358 0.92209 0.0
C701 C 0.34418 0.798 0.96647 0.0
C702 C 0.4419 0.11889 0.23478 0.0
C703 C 0.44797 0.1494 0.22884 0.0
H704 H 0.45154 0.07284 0.22385 0.0
C705 C 0.46992 0.15658 0.20707 0.0
H706 H 0.42519 0.11256 0.25141 0.0
C707 C 0.48495 0.13381 0.19113 0.0
C708 C 0.47851 0.1033 0.19669 0.0
H709 H 0.47517 0.17987 0.20191 0.0
H710 H 0.50137 0.14015 0.1742 0.0
C711 C 0.45705 0.09611 0.21896 0.0
C712 C 0.15635 0.79453 0.03232 0.0
C713 C 0.14929 0.7729 0.05443 0.0
H714 H 0.13968 0.82683 1.00044 0.0
C715 C 0.11882 0.76664 0.06041 0.0
H716 H 0.1796 0.79992 0.02715 0.0
C717 C 0.09595 0.78198 0.04497 0.0
C718 C 0.103 0.80407 0.02332 0.0
H719 H 0.1126 0.75009 0.07724 0.0
H720 H 0.07271 0.77682 0.05039 0.0
C721 C 0.13347 0.81001 0.017 0.0
C722 C 0.45241 0.90698 0.28697 0.0
C723 C 0.47317 0.89958 0.30981 0.0
H724 H 0.42134 0.89087 0.25359 0.0
C725 C 0.47887 0.86902 0.3158 0.0
H726 H 0.44748 0.93032 0.28176 0.0
C727 C 0.46405 0.84641 0.29943 0.0
C728 C 0.44299 0.85381 0.27687 0.0
H729 H 0.49477 0.86254 0.33315 0.0
H730 H 0.46886 0.82307 0.30476 0.0
C731 C 0.4374 0.88438 0.27079 0.0
C732 C 0.38446 0.23447 0.56396 0.0
C733 C 0.35411 0.22763 0.55799 0.0
H734 H 0.43077 0.22531 0.55376 0.0
C735 C 0.34749 0.20595 0.53577 0.0
H736 H 0.39035 0.25107 0.58088 0.0
C737 C 0.37066 0.19107 0.52029 0.0
C738 C 0.40101 0.19762 0.52655 0.0
H739 H 0.32436 0.20013 0.53058 0.0
H740 H 0.36476 0.17424 0.50361 0.0
C741 C 0.40763 0.2197 0.54837 0.0
C742 C 0.03453 0.15515 0.79736 0.0
C743 C 0.05668 0.14801 0.77579 0.0
H744 H 0.00241 0.13864 0.82952 0.0
C745 C 0.06256 0.11751 0.76959 0.0
H746 H 0.02943 0.17842 0.8027 0.0
C747 C 0.0469 0.0947 0.78485 0.0
C748 C 0.02515 0.10184 0.80684 0.0
H749 H 0.07942 0.11121 0.75309 0.0
H750 H 0.0522 0.07142 0.77972 0.0
C751 C 0.01903 0.13235 0.81278 0.0
C752 C 0.23224 0.43603 0.11631 0.0
C753 C 0.22652 0.44225 0.14683 0.0
H754 H 0.22195 0.44653 0.07028 0.0
C755 C 0.20573 0.46509 0.1541 0.0
H756 H 0.24816 0.41865 0.10994 0.0
C757 C 0.19059 0.48096 0.13142 0.0
C758 C 0.19604 0.47454 0.1009 0.0
H759 H 0.20079 0.4705 0.17739 0.0
H760 H 0.17446 0.49812 0.13783 0.0
C761 C 0.21724 0.45208 0.09359 0.0
C762 C 0.73209 0.0638 0.88222 0.0
C763 C 0.72608 0.05788 0.85169 0.0
H764 H 0.72166 0.05351 0.92825 0.0
C765 C 0.70451 0.03575 0.84445 0.0
H766 H 0.74858 0.08065 0.8886 0.0
C767 C 0.68893 0.02028 0.86718 0.0
C768 C 0.6947 0.02643 0.8977 0.0
H769 H 0.6993 0.03062 0.82115 0.0
H770 H 0.67222 0.00366 0.86079 0.0
C771 C 0.71666 0.04819 0.90496 0.0
C772 C 0.79632 0.96649 0.34787 0.0
C773 C 0.77589 0.9433 0.35512 0.0
H774 H 0.82701 1.00008 0.36419 0.0
C775 C 0.77012 0.93711 0.38563 0.0
H776 H 0.80127 0.97189 0.32458 0.0
C777 C 0.78474 0.95348 0.40836 0.0
C778 C 0.80563 0.97626 0.40109 0.0
H779 H 0.75445 0.91948 0.39199 0.0
H780 H 0.78003 0.9479 0.43166 0.0
C781 C 0.81109 0.98269 0.37058 0.0
C782 C 0.8137 0.01724 0.13508 0.0
C783 C 0.80806 0.02389 0.10464 0.0
H784 H 0.80309 0.02675 0.18123 0.0
C785 C 0.78617 0.04578 0.09767 0.0
H786 H 0.83037 1.00051 0.14124 0.0
C787 C 0.77063 0.06098 0.1206 0.0
C788 C 0.77645 0.0545 0.15104 0.0
H789 H 0.78127 0.0515 0.07445 0.0
H790 H 0.75416 0.07791 0.11444 0.0
C791 C 0.79802 0.03229 0.158 0.0
C792 C 0.26762 0.56067 0.61844 0.0
C793 C 0.27429 0.55504 0.64888 0.0
H794 H 0.27723 0.55015 0.57229 0.0
C795 C 0.29616 0.53314 0.65586 0.0
H796 H 0.25088 0.57733 0.61227 0.0
C797 C 0.31139 0.51764 0.63293 0.0
C798 C 0.305 0.52354 0.60248 0.0
H799 H 0.30186 0.52824 0.67908 0.0
H800 H 0.32837 0.50121 0.63908 0.0
C801 C 0.28273 0.54504 0.59551 0.0
C802 C 0.2054 0.53415 0.34519 0.0
C803 C 0.22717 0.55617 0.35218 0.0
H804 H 0.17303 0.50237 0.3619 0.0
C805 C 0.23354 0.56208 0.38264 0.0
H806 H 0.19992 0.52902 0.32196 0.0
C807 C 0.2182 0.54664 0.40556 0.0
C808 C 0.19599 0.52507 0.39856 0.0
H809 H 0.25019 0.57885 0.38882 0.0
H810 H 0.22344 0.55199 0.4288 0.0
C811 C 0.18993 0.51886 0.3681 0.0
C812 C 0.31171 0.48353 0.86905 0.0
C813 C 0.30593 0.47744 0.89959 0.0
H814 H 0.30124 0.47322 0.82303 0.0
C815 C 0.28389 0.45578 0.90686 0.0
H816 H 0.32848 0.50009 0.86265 0.0
C817 C 0.26835 0.44024 0.88415 0.0
C818 C 0.27434 0.44612 0.8536 0.0
H819 H 0.27886 0.45051 0.93016 0.0
H820 H 0.25179 0.42347 0.89055 0.0
C821 C 0.29603 0.46813 0.84634 0.0
C822 C 0.59485 0.72005 0.95451 0.0
C823 C 0.60159 0.69817 0.97648 0.0
H824 H 0.61196 0.75142 0.92193 0.0
C825 C 0.63197 0.692 0.98293 0.0
H826 H 0.57168 0.72536 0.94896 0.0
C827 C 0.65506 0.70708 0.96752 0.0
C828 C 0.64832 0.72855 0.94515 0.0
H829 H 0.63795 0.67533 0.99974 0.0
H830 H 0.67823 0.70156 0.97286 0.0
C831 C 0.61794 0.73499 0.93896 0.0
C832 C 0.56646 0.38295 0.22857 0.0
C833 C 0.56045 0.35253 0.22219 0.0
H834 H 0.5564 0.42911 0.21864 0.0
C835 C 0.53878 0.34558 0.20005 0.0
H836 H 0.58295 0.38908 0.24551 0.0
C837 C 0.5237 0.36853 0.18445 0.0
C838 C 0.52973 0.39895 0.19083 0.0
H839 H 0.53362 0.32236 0.19455 0.0
H840 H 0.50729 0.36241 0.16744 0.0
C841 C 0.55118 0.40589 0.21317 0.0
C842 C 0.90493 0.28508 0.45421 0.0
C843 C 0.89799 0.30744 0.47565 0.0
H844 H 0.8881 0.25235 0.42281 0.0
C845 C 0.86756 0.31315 0.48231 0.0
H846 H 0.92814 0.28009 0.44852 0.0
C847 C 0.84461 0.29711 0.46766 0.0
C848 C 0.85153 0.27509 0.44586 0.0
H849 H 0.86142 0.33016 0.49872 0.0
H850 H 0.8214 0.30229 0.47316 0.0
C851 C 0.88197 0.26916 0.43943 0.0
C852 C 0.94008 0.6175 0.73359 0.0
C853 C 0.94615 0.64804 0.72776 0.0
H854 H 0.95027 0.57147 0.72302 0.0
C855 C 0.96853 0.65529 0.70645 0.0
H856 H 0.92305 0.61111 0.74988 0.0
C857 C 0.98406 0.63258 0.69093 0.0
C858 C 0.97771 0.60205 0.69646 0.0
H859 H 0.9738 0.67859 0.7014 0.0
H860 H 0.00085 0.63898 0.67439 0.0
C861 C 0.95575 0.59477 0.71819 0.0
C862 C 0.59612 0.28397 0.545 0.0
C863 C 0.60296 0.30675 0.52399 0.0
H864 H 0.61304 0.25133 0.57638 0.0
C865 C 0.63338 0.31317 0.5179 0.0
H866 H 0.57292 0.27842 0.55023 0.0
C867 C 0.65639 0.29744 0.53278 0.0
C868 C 0.64953 0.2751 0.55426 0.0
H869 H 0.63944 0.3305 0.50181 0.0
H870 H 0.67959 0.30319 0.52779 0.0
C871 C 0.61912 0.26841 0.56004 0.0
C872 C 0.96784 0.34641 0.79445 0.0
C873 C 0.94567 0.35368 0.77295 0.0
H874 H 0.99967 0.36273 0.82699 0.0
C875 C 0.93951 0.38421 0.76722 0.0
H876 H 0.97316 0.32311 0.79943 0.0
C877 C 0.95484 0.40692 0.78293 0.0
C878 C 0.97656 0.39964 0.80488 0.0
H879 H 0.92262 0.39059 0.75079 0.0
H880 H 0.94929 0.43021 0.77819 0.0
C881 C 0.98304 0.36912 0.8103 0.0
C882 C 0.88383 0.73222 0.06303 0.0
C883 C 0.85335 0.72616 0.05691 0.0
H884 H 0.92995 0.7217 0.05318 0.0
C885 C 0.84627 0.7045 0.03482 0.0
H886 H 0.89007 0.74878 0.07986 0.0
C887 C 0.86911 0.68885 0.01964 0.0
C888 C 0.89958 0.69462 0.02603 0.0
H889 H 0.82302 0.69926 0.02953 0.0
H890 H 0.86285 0.67205 0.00306 0.0
C891 C 0.90669 0.7167 0.0477 0.0
C892 C 0.54594 0.59567 0.28413 0.0
C893 C 0.52451 0.60292 0.3064 0.0
H894 H 0.57804 0.612 0.25184 0.0
C895 C 0.51856 0.63346 0.31234 0.0
H896 H 0.5511 0.57237 0.27896 0.0
C897 C 0.53392 0.65618 0.29664 0.0
C898 C 0.55573 0.64892 0.27474 0.0
H899 H 0.50218 0.63984 0.32929 0.0
H900 H 0.52898 0.67948 0.30201 0.0
C901 C 0.56143 0.61839 0.26856 0.0
C902 C 0.70701 0.96796 0.65577 0.0
C903 C 0.72833 0.9456 0.64847 0.0
H904 H 0.67497 1.00031 0.63951 0.0
C905 C 0.7341 0.93954 0.61792 0.0
H906 H 0.70199 0.97321 0.67908 0.0
C907 C 0.71869 0.95523 0.59523 0.0
C908 C 0.697 0.97722 0.60254 0.0
H909 H 0.75037 0.92251 0.6115 0.0
H910 H 0.72351 0.94978 0.57192 0.0
C911 C 0.69148 0.98351 0.63308 0.0
C912 C 0.22192 0.36937 0.29976 0.0
C913 C 0.22557 0.35791 0.27053 0.0
H914 H 0.22051 0.35941 0.34701 0.0
C915 C 0.22689 0.32654 0.26618 0.0
H916 H 0.2212 0.39349 0.30362 0.0
C917 C 0.22721 0.3071 0.29107 0.0
C918 C 0.22525 0.31885 0.32037 0.0
H919 H 0.23037 0.31726 0.24386 0.0
H920 H 0.23087 0.28321 0.28755 0.0
C921 C 0.22147 0.34994 0.32449 0.0
C922 C 0.92512 0.97761 0.51483 0.0
C923 C 0.89411 0.9738 0.52001 0.0
H924 H 0.96867 0.98367 0.53516 0.0
C925 C 0.88392 0.96723 0.54921 0.0
H926 H 0.93336 0.98326 0.49255 0.0
C927 C 0.90417 0.96649 0.57328 0.0
C928 C 0.9347 0.97312 0.56853 0.0
H929 H 0.86006 0.96459 0.55369 0.0
H930 H 0.89556 0.96336 0.59593 0.0
C931 C 0.94528 0.97788 0.53911 0.0
C932 C 0.28395 0.65335 0.82267 0.0
C933 C 0.27743 0.68394 0.81813 0.0
H934 H 0.28598 0.60936 0.80277 0.0
C935 C 0.2728 0.69467 0.78874 0.0
H936 H 0.28694 0.64459 0.84528 0.0
C937 C 0.27317 0.67466 0.7643 0.0
C938 C 0.27698 0.6436 0.76924 0.0
H939 H 0.26703 0.71809 0.78493 0.0
H940 H 0.26765 0.68305 0.74205 0.0
C941 C 0.28334 0.63325 0.79844 0.0
C942 C 0.57602 0.02586 0.01366 0.0
C943 C 0.6072 0.02876 0.01846 0.0
H944 H 0.53258 0.02056 0.03448 0.0
C945 C 0.61791 0.0344 0.04767 0.0
H946 H 0.56734 0.0209 0.99138 0.0
C947 C 0.59799 0.03518 0.07204 0.0
C948 C 0.56721 0.02953 0.06761 0.0
H949 H 0.64189 0.03632 0.05189 0.0
H950 H 0.60699 0.03756 0.09464 0.0
C951 C 0.55617 0.02565 0.03823 0.0
C952 C 0.22804 0.6943 0.21118 0.0
C953 C 0.22336 0.68312 0.18196 0.0
H954 H 0.23309 0.68338 0.25804 0.0
C955 C 0.2165 0.65254 0.17788 0.0
H956 H 0.234 0.71773 0.21464 0.0
C957 C 0.21694 0.63283 0.20241 0.0
C958 C 0.22344 0.64358 0.23143 0.0
H959 H 0.21342 0.64346 0.15541 0.0
H960 H 0.21416 0.60888 0.19843 0.0
C961 C 0.22747 0.67468 0.23592 0.0
C962 C 0.57747 0.97904 0.48683 0.0
C963 C 0.60866 0.97573 0.48222 0.0
H964 H 0.53416 0.98463 0.46568 0.0
C965 C 0.61949 0.97009 0.45306 0.0
H966 H 0.56872 0.98406 0.50907 0.0
C967 C 0.59978 0.96977 0.42857 0.0
C968 C 0.56903 0.97562 0.4328 0.0
H969 H 0.64347 0.96783 0.44898 0.0
H970 H 0.6089 0.96725 0.40604 0.0
C971 C 0.55775 0.97944 0.46211 0.0
C972 C 0.2741 0.30788 0.71271 0.0
C973 C 0.27698 0.31899 0.68323 0.0
H974 H 0.26985 0.31899 0.75963 0.0
C975 C 0.28127 0.34995 0.67863 0.0
H976 H 0.27004 0.28411 0.71659 0.0
C977 C 0.28036 0.36988 0.70298 0.0
C978 C 0.27579 0.35906 0.73234 0.0
H979 H 0.28289 0.35897 0.65598 0.0
H980 H 0.2814 0.3939 0.69867 0.0
C981 C 0.27403 0.3278 0.73724 0.0
C982 C 0.88433 0.03348 0.95465 0.0
C983 C 0.89525 0.02689 0.98357 0.0
H984 H 0.89469 0.03726 0.90761 0.0
C985 C 0.92638 0.02289 0.98785 0.0
H986 H 0.86036 0.03625 0.95083 0.0
C987 C 0.94587 0.02252 0.963 0.0
C988 C 0.93453 0.02734 0.93387 0.0
H989 H 0.9352 0.01719 0.0099 0.0
H990 H 0.96933 0.01659 0.96628 0.0
C991 C 0.90391 0.0341 0.93001 0.0
C992 C 0.32513 0.21811 0.35054 0.0
C993 C 0.32104 0.22396 0.31977 0.0
H994 H 0.30448 0.21653 0.3942 0.0
C995 C 0.29179 0.22792 0.30842 0.0
H996 H 0.34763 0.21563 0.35976 0.0
C997 C 0.267 0.22755 0.32799 0.0
C998 C 0.27144 0.22435 0.3592 0.0
H999 H 0.28831 0.23316 0.28482 0.0
H1000 H 0.24482 0.23256 0.3191 0.0
C1001 C 0.30054 0.21868 0.37019 0.0
C1002 C 0.03599 0.04721 0.61717 0.0
C1003 C 0.02925 0.01815 0.60668 0.0
H1004 H 0.03969 0.09411 0.60618 0.0
C1005 C 0.02498 0.01346 0.57564 0.0
H1006 H 0.03898 0.05135 0.64106 0.0
C1007 C 0.02438 0.03806 0.55585 0.0
C1008 C 0.0293 0.06733 0.56678 0.0
H1009 H 0.01919 0.9913 0.56715 0.0
H1010 H 0.01821 0.03447 0.53249 0.0
C1011 C 0.03642 0.07159 0.59727 0.0
C1012 C 0.2107 0.77283 0.80616 0.0
C1013 C 0.18139 0.77683 0.81736 0.0
H1014 H 0.25766 0.7688 0.81708 0.0
C1015 C 0.17715 0.78353 0.84794 0.0
H1016 H 0.21428 0.76703 0.7827 0.0
C1017 C 0.20168 0.78367 0.86764 0.0
C1018 C 0.23084 0.77786 0.85688 0.0
H1019 H 0.15461 0.78614 0.85702 0.0
H1020 H 0.19763 0.78636 0.89158 0.0
C1021 C 0.23542 0.77393 0.82578 0.0
C1022 C 0.46487 0.95573 0.11674 0.0
C1023 C 0.4722 0.98473 0.1065 0.0
H1024 H 0.46026 0.909 0.10534 0.0
C1025 C 0.47642 0.98962 0.07549 0.0
H1026 H 0.46192 0.95143 0.14061 0.0
C1027 C 0.47648 0.96519 0.05548 0.0
C1028 C 0.47106 0.93591 0.06615 0.0
H1029 H 0.48265 0.01173 0.0672 0.0
H1030 H 0.48272 0.96887 0.03215 0.0
C1031 C 0.46388 0.93153 0.09662 0.0
C1032 C 0.28941 0.7751 0.1932 0.0
C1033 C 0.31882 0.77875 0.18214 0.0
H1034 H 0.24263 0.76985 0.18201 0.0
C1035 C 0.32334 0.78358 0.15124 0.0
H1036 H 0.28562 0.77059 0.21691 0.0
C1037 C 0.29905 0.78227 0.13128 0.0
C1038 C 0.26981 0.7768 0.14203 0.0
H1039 H 0.34596 0.78579 0.14225 0.0
H1040 H 0.30335 0.78363 0.10727 0.0
C1041 C 0.26492 0.77468 0.17327 0.0
C1042 C 0.47719 0.05455 0.38093 0.0
C1043 C 0.47653 0.02516 0.39257 0.0
H1044 H 0.47997 0.10173 0.39082 0.0
C1045 C 0.47433 0.02096 0.42393 0.0
H1046 H 0.47911 0.05832 0.35687 0.0
C1047 C 0.47524 0.04587 0.44339 0.0
C1048 C 0.47771 0.0751 0.43158 0.0
H1049 H 0.47442 0.99847 0.43345 0.0
H1050 H 0.47592 0.04222 0.46753 0.0
C1051 C 0.47764 0.07932 0.40028 0.0
C1052 C 0.17984 0.2154 0.65492 0.0
C1053 C 0.18387 0.22263 0.68542 0.0
H1054 H 0.20034 0.21292 0.61124 0.0
C1055 C 0.21303 0.22793 0.69647 0.0
H1056 H 0.1574 0.21187 0.64592 0.0
C1057 C 0.23773 0.22756 0.6768 0.0
C1058 C 0.23325 0.22312 0.64575 0.0
H1059 H 0.21643 0.2342 0.71983 0.0
H1060 H 0.25978 0.23363 0.68537 0.0
C1061 C 0.20432 0.21604 0.63514 0.0
C1062 C 0.03283 0.92642 0.9017 0.0
C1063 C 0.02796 0.93071 0.93263 0.0
H1064 H 0.03351 0.94689 0.85796 0.0
C1065 C 0.02488 0.96006 0.94401 0.0
H1066 H 0.03464 0.90386 0.89248 0.0
C1067 C 0.02509 0.98478 0.92435 0.0
C1068 C 0.02727 0.98019 0.89307 0.0
H1069 H 0.0204 0.9637 0.96774 0.0
H1070 H 0.02071 0.00707 0.93331 0.0
C1071 C 0.03214 0.95096 0.88201 0.0
C1072 C 0.30894 0.28925 0.2279 0.0
C1073 C 0.32008 0.31865 0.22442 0.0
H1074 H 0.32012 0.24239 0.23273 0.0
C1075 C 0.35094 0.32314 0.21938 0.0
H1076 H 0.28524 0.28548 0.23247 0.0
C1077 C 0.37083 0.29881 0.22021 0.0
C1078 C 0.36007 0.26956 0.22554 0.0
H1079 H 0.35994 0.34576 0.21715 0.0
H1080 H 0.39483 0.30309 0.21862 0.0
C1081 C 0.32884 0.2647 0.22798 0.0
C1082 C 0.80785 0.21253 0.77305 0.0
C1083 C 0.81918 0.18322 0.77662 0.0
H1084 H 0.81862 0.25947 0.76819 0.0
C1085 C 0.85008 0.179 0.78167 0.0
H1086 H 0.78414 0.2161 0.7684 0.0
C1087 C 0.8698 0.20352 0.78071 0.0
C1088 C 0.8588 0.23266 0.77535 0.0
H1089 H 0.85928 0.15647 0.78383 0.0
H1090 H 0.89384 0.19946 0.78225 0.0
C1091 C 0.82754 0.23724 0.77296 0.0
C1092 C 0.0495 0.61757 0.03434 0.0
C1093 C 0.0203 0.60682 0.02868 0.0
H1094 H 0.09653 0.60683 0.03695 0.0
C1095 C 0.01561 0.57567 0.02529 0.0
H1096 H 0.05363 0.64154 0.03664 0.0
C1097 C 0.04026 0.55595 0.02454 0.0
C1098 C 0.06963 0.56709 0.02834 0.0
H1099 H 0.99334 0.56697 0.0203 0.0
H1100 H 0.03659 0.53242 0.01907 0.0
C1101 C 0.07396 0.59777 0.03454 0.0
C1102 C 0.63346 0.79791 0.28374 0.0
C1103 C 0.64418 0.7688 0.27764 0.0
H1104 H 0.64423 0.84486 0.2872 0.0
C1105 C 0.67533 0.76415 0.27416 0.0
H1106 H 0.6095 0.80202 0.28613 0.0
C1107 C 0.69512 0.78881 0.27392 0.0
C1108 C 0.68396 0.81809 0.2782 0.0
H1109 H 0.684 0.74195 0.26882 0.0
H1110 H 0.71867 0.78524 0.26852 0.0
C1111 C 0.65327 0.82234 0.28434 0.0
C1112 C 0.98765 0.92312 0.02455 0.0
C1113 C 0.98272 0.89196 0.02749 0.0
H1114 H 0.967 0.96667 0.01961 0.0
C1115 C 0.95354 0.88138 0.03353 0.0
H1116 H 0.00991 0.9317 0.01928 0.0
C1117 C 0.92929 0.90141 0.03463 0.0
C1118 C 0.93381 0.93217 0.02896 0.0
H1119 H 0.94923 0.85742 0.03551 0.0
H1120 H 0.90668 0.89252 0.03732 0.0
C1121 C 0.9632 0.94309 0.02472 0.0
C1122 C 0.15121 0.67619 0.71839 0.0
C1123 C 0.18203 0.6808 0.72357 0.0
H1124 H 0.10728 0.69622 0.71726 0.0
C1125 C 0.19309 0.71027 0.72675 0.0
H1126 H 0.14223 0.65354 0.71649 0.0
C1127 C 0.17319 0.73479 0.72634 0.0
C1128 C 0.14198 0.72987 0.72385 0.0
H1129 H 0.21674 0.71415 0.73145 0.0
H1130 H 0.18189 0.75717 0.73082 0.0
C1131 C 0.13127 0.70053 0.71887 0.0
C1132 C 0.01445 0.42662 0.47661 0.0
C1133 C 0.01892 0.39556 0.47226 0.0
H1134 H 0.03574 0.46961 0.4836 0.0
C1135 C 0.04795 0.38489 0.46568 0.0
H1136 H 0.99232 0.43525 0.4823 0.0
C1137 C 0.07249 0.40462 0.46545 0.0
C1138 C 0.06842 0.43513 0.47261 0.0
H1139 H 0.05192 0.36098 0.46263 0.0
H1140 H 0.09496 0.39557 0.46227 0.0
C1141 C 0.0392 0.44624 0.4774 0.0
C1142 C 0.46039 0.56039 0.97833 0.0
C1143 C 0.43096 0.57124 0.97438 0.0
H1144 H 0.50717 0.57188 0.98301 0.0
C1145 C 0.42633 0.60196 0.96862 0.0
H1146 H 0.46426 0.53684 0.98352 0.0
C1147 C 0.45059 0.62203 0.96918 0.0
C1148 C 0.47987 0.61154 0.9748 0.0
H1149 H 0.40369 0.61079 0.96616 0.0
H1150 H 0.44624 0.64597 0.96702 0.0
C1151 C 0.48484 0.5804 0.97801 0.0
C1152 C 0.71988 0.84991 0.82338 0.0
C1153 C 0.72499 0.81902 0.81914 0.0
H1154 H 0.7192 0.89366 0.80294 0.0
C1155 C 0.72862 0.80769 0.78983 0.0
H1156 H 0.71767 0.8591 0.84592 0.0
C1157 C 0.72865 0.82738 0.76513 0.0
C1158 C 0.72616 0.85863 0.76972 0.0
H1159 H 0.7333 0.78399 0.78625 0.0
H1160 H 0.73341 0.81847 0.74289 0.0
C1161 C 0.72081 0.86963 0.79888 0.0
C1162 C 0.40041 0.47453 0.07584 0.0
C1163 C 0.43156 0.47729 0.07145 0.0
H1164 H 0.35677 0.47457 0.05534 0.0
C1165 C 0.44319 0.47792 0.04203 0.0
H1166 H 0.39107 0.47435 0.09842 0.0
C1167 C 0.42353 0.47758 0.01724 0.0
C1168 C 0.39215 0.47722 0.02183 0.0
H1169 H 0.46718 0.48064 0.0383 0.0
H1170 H 0.43273 0.48024 0.99477 0.0
C1171 C 0.38086 0.47462 0.05125 0.0
C1172 C 0.77751 0.14756 0.32865 0.0
C1173 C 0.77517 0.17871 0.32397 0.0
H1174 H 0.77705 0.10373 0.30844 0.0
C1175 C 0.77483 0.19006 0.29446 0.0
H1176 H 0.77724 0.13841 0.35131 0.0
C1177 C 0.77528 0.17022 0.26984 0.0
C1178 C 0.77525 0.13888 0.27465 0.0
H1179 H 0.77234 0.21403 0.2905 0.0
H1180 H 0.77303 0.17929 0.24728 0.0
C1181 C 0.77735 0.12778 0.30419 0.0
C1182 C 0.05826 0.52546 0.54015 0.0
C1183 C 0.0696 0.52858 0.56952 0.0
H1184 H 0.06901 0.52133 0.49314 0.0
C1185 C 0.10048 0.53368 0.5738 0.0
H1186 H 0.03457 0.52081 0.5365 0.0
C1187 C 0.12019 0.53313 0.54926 0.0
C1188 C 0.1092 0.52816 0.52002 0.0
H1189 H 0.10968 0.53551 0.59637 0.0
H1190 H 0.14423 0.53462 0.55334 0.0
C1191 C 0.07794 0.52581 0.51542 0.0
C1192 C 0.72825 0.19518 0.70962 0.0
C1193 C 0.72505 0.18384 0.68026 0.0
H1194 H 0.7323 0.18445 0.75663 0.0
C1195 C 0.72001 0.15294 0.67596 0.0
H1196 H 0.73286 0.21889 0.71327 0.0
C1197 C 0.72054 0.13324 0.7005 0.0
C1198 C 0.72543 0.14425 0.72974 0.0
H1199 H 0.71812 0.14375 0.6534 0.0
H1200 H 0.71896 0.1092 0.69643 0.0
C1201 C 0.72789 0.17551 0.73434 0.0
C1202 C 0.09817 0.46703 0.92759 0.0
C1203 C 0.0675 0.47296 0.93238 0.0
H1204 H 0.14226 0.46545 0.94726 0.0
C1205 C 0.05679 0.47688 0.96188 0.0
H1206 H 0.10689 0.46458 0.9049 0.0
C1207 C 0.07689 0.47645 0.98622 0.0
C1208 C 0.10798 0.4733 0.98106 0.0
H1209 H 0.03328 0.48216 0.96589 0.0
H1210 H 0.06848 0.48146 0.0086 0.0
C1211 C 0.11834 0.46758 0.95174 0.0
C1212 C 0.7805 0.86981 0.20208 0.0
C1213 C 0.77749 0.85844 0.23142 0.0
H1214 H 0.78134 0.85963 0.15486 0.0
C1215 C 0.77677 0.82707 0.23592 0.0
H1216 H 0.78075 0.89391 0.1981 0.0
C1217 C 0.77642 0.80749 0.21111 0.0
C1218 C 0.77773 0.81912 0.18174 0.0
H1219 H 0.77379 0.81784 0.25833 0.0
H1220 H 0.77323 0.78356 0.21478 0.0
C1221 C 0.7809 0.85026 0.17743 0.0
C1222 C 0.42213 0.52454 0.48507 0.0
C1223 C 0.39081 0.52585 0.48044 0.0
H1224 H 0.46569 0.52106 0.46404 0.0
C1225 C 0.37968 0.53022 0.45117 0.0
H1226 H 0.43118 0.52054 0.50739 0.0
C1227 C 0.39936 0.53126 0.42665 0.0
C1228 C 0.43042 0.52738 0.43098 0.0
H1229 H 0.35561 0.53094 0.44707 0.0
H1230 H 0.39012 0.53263 0.40407 0.0
C1231 C 0.44184 0.52482 0.46036 0.0
C1232 C 0.76578 0.72704 0.82774 0.0
C1233 C 0.77027 0.72462 0.85901 0.0
H1234 H 0.78704 0.73155 0.7844 0.0
C1235 C 0.79936 0.71911 0.87008 0.0
H1236 H 0.7436 0.73191 0.81877 0.0
C1237 C 0.82392 0.71802 0.85042 0.0
C1238 C 0.8198 0.72313 0.81951 0.0
H1239 H 0.80335 0.71753 0.89413 0.0
H1240 H 0.84642 0.71575 0.85966 0.0
C1241 C 0.79053 0.72685 0.80811 0.0
C1242 C 0.52587 0.55468 0.12179 0.0
C1243 C 0.52619 0.52532 0.11004 0.0
H1244 H 0.52341 0.6019 0.11204 0.0
C1245 C 0.52812 0.52117 0.07866 0.0
H1246 H 0.52417 0.5584 0.14587 0.0
C1247 C 0.52727 0.54612 0.05928 0.0
C1248 C 0.52514 0.57532 0.0712 0.0
H1249 H 0.52779 0.49871 0.06907 0.0
H1250 H 0.52638 0.54253 0.03513 0.0
C1251 C 0.52548 0.57949 0.1025 0.0
C1252 C 0.67519 0.27853 0.35192 0.0
C1253 C 0.67966 0.27478 0.32088 0.0
H1254 H 0.69552 0.27909 0.39567 0.0
C1255 C 0.7091 0.27295 0.30945 0.0
H1256 H 0.65258 0.27954 0.36112 0.0
C1257 C 0.73379 0.27324 0.3292 0.0
C1258 C 0.72907 0.27462 0.36053 0.0
H1259 H 0.71287 0.2694 0.28558 0.0
H1260 H 0.75622 0.26976 0.32019 0.0
C1261 C 0.69969 0.27827 0.37161 0.0
C1262 C 0.97825 0.48757 0.57635 0.0
C1263 C 0.97489 0.48247 0.60743 0.0
H1264 H 0.98364 0.46714 0.53272 0.0
C1265 C 0.96859 0.45325 0.61774 0.0
H1266 H 0.98373 0.50985 0.56798 0.0
C1267 C 0.96758 0.42913 0.59753 0.0
C1268 C 0.97364 0.4338 0.56687 0.0
H1269 H 0.9663 0.44881 0.64165 0.0
H1270 H 0.96465 0.40648 0.60624 0.0
C1271 C 0.97821 0.46323 0.55621 0.0
C1272 C 0.82349 0.28583 0.65084 0.0
C1273 C 0.81916 0.27942 0.68148 0.0
H1274 H 0.80331 0.28759 0.607 0.0
C1275 C 0.78985 0.27489 0.69248 0.0
H1276 H 0.84605 0.28877 0.64189 0.0
C1277 C 0.76528 0.27515 0.67266 0.0
C1278 C 0.77003 0.27876 0.64155 0.0
H1279 H 0.78621 0.26925 0.71597 0.0
H1280 H 0.74309 0.26964 0.68125 0.0
C1281 C 0.79913 0.28512 0.63094 0.0
C1282 C 0.96556 0.57194 0.90487 0.0
C1283 C 0.97302 0.56736 0.93523 0.0
H1284 H 0.96269 0.55219 0.86087 0.0
C1285 C 0.97812 0.53799 0.94577 0.0
H1286 H 0.96213 0.59455 0.89627 0.0
C1287 C 0.9774 0.51361 0.9257 0.0
C1288 C 0.97285 0.51865 0.89476 0.0
H1289 H 0.98453 0.53415 0.96902 0.0
H1290 H 0.98334 0.49138 0.93387 0.0
C1291 C 0.9659 0.54779 0.88468 0.0
C1292 C 0.71189 0.72719 0.19438 0.0
C1293 C 0.68258 0.72313 0.18322 0.0
H1294 H 0.75876 0.73211 0.18342 0.0
C1295 C 0.67831 0.71731 0.15245 0.0
H1296 H 0.71551 0.73241 0.21797 0.0
C1297 C 0.70278 0.71805 0.13265 0.0
C1298 C 0.73192 0.72387 0.14347 0.0
H1299 H 0.65577 0.71477 0.14337 0.0
H1300 H 0.69869 0.71595 0.10866 0.0
C1301 C 0.73655 0.72699 0.17465 0.0
C1302 C 0.52241 0.4857 0.42456 0.0
C1303 C 0.525 0.48118 0.39328 0.0
H1304 H 0.51736 0.46448 0.4679 0.0
C1305 C 0.52972 0.45195 0.3822 0.0
H1306 H 0.51808 0.50799 0.43353 0.0
C1307 C 0.52996 0.42737 0.40179 0.0
C1308 C 0.52494 0.43158 0.4327 0.0
H1309 H 0.53139 0.44794 0.35816 0.0
H1310 H 0.5318 0.40484 0.39252 0.0
C1311 C 0.52191 0.46091 0.44417 0.0
C1312 C 0.85118 0.82329 0.71869 0.0
C1313 C 0.82023 0.81928 0.72368 0.0
H1314 H 0.8948 0.80256 0.71831 0.0
C1315 C 0.80871 0.79004 0.7274 0.0
H1316 H 0.86052 0.84576 0.71644 0.0
C1317 C 0.82825 0.76521 0.72767 0.0
C1318 C 0.85954 0.76959 0.7253 0.0
H1319 H 0.78498 0.78662 0.73204 0.0
H1320 H 0.81917 0.74306 0.73251 0.0
C1321 C 0.87074 0.79866 0.71983 0.0
C1322 C 0.30658 0.71202 0.27339 0.0
C1323 C 0.31791 0.6827 0.27682 0.0
H1324 H 0.31734 0.759 0.26911 0.0
C1325 C 0.34877 0.67843 0.28208 0.0
H1326 H 0.28291 0.71563 0.2686 0.0
C1327 C 0.36847 0.70297 0.28149 0.0
C1328 C 0.35748 0.73216 0.27636 0.0
H1329 H 0.35794 0.65589 0.28414 0.0
H1330 H 0.3925 0.69893 0.28323 0.0
C1331 C 0.32624 0.73674 0.27371 0.0
C1332 C 0.51767 0.08003 0.52517 0.0
C1333 C 0.52276 0.11115 0.5283 0.0
H1334 H 0.53805 0.03641 0.5196 0.0
C1335 C 0.55212 0.12158 0.53374 0.0
H1336 H 0.49529 0.07155 0.52032 0.0
C1337 C 0.57631 0.10145 0.53417 0.0
C1338 C 0.57155 0.07074 0.52847 0.0
H1339 H 0.55656 0.14551 0.53582 0.0
H1340 H 0.59901 0.11023 0.53647 0.0
C1341 C 0.54205 0.05996 0.52473 0.0
C1342 C 0.15076 0.32399 0.78381 0.0
C1343 C 0.18175 0.32004 0.7791 0.0
H1344 H 0.10723 0.30305 0.78436 0.0
C1345 C 0.19343 0.29079 0.77611 0.0
H1346 H 0.1413 0.34645 0.78554 0.0
C1347 C 0.17401 0.26585 0.77625 0.0
C1348 C 0.14268 0.27011 0.7783 0.0
H1349 H 0.21722 0.28741 0.77173 0.0
H1350 H 0.18321 0.24366 0.7719 0.0
C1351 C 0.13132 0.29923 0.7831 0.0
C1352 C 0.42593 0.40034 0.53197 0.0
C1353 C 0.4302 0.43125 0.52697 0.0
H1354 H 0.44652 0.35666 0.53322 0.0
C1355 C 0.45953 0.44268 0.52401 0.0
H1356 H 0.40338 0.39108 0.53371 0.0
C1357 C 0.48429 0.42308 0.52456 0.0
C1358 C 0.47976 0.39181 0.52702 0.0
H1359 H 0.46314 0.4664 0.51942 0.0
H1360 H 0.5066 0.43208 0.52029 0.0
C1361 C 0.45052 0.3807 0.53166 0.0
C1362 C 0.67312 0.2308 0.22512 0.0
C1363 C 0.64169 0.22676 0.22634 0.0
H1364 H 0.71651 0.20918 0.22735 0.0
C1365 C 0.62982 0.19745 0.22582 0.0
H1366 H 0.68279 0.25321 0.2261 0.0
C1367 C 0.64897 0.17255 0.22612 0.0
C1368 C 0.68028 0.17654 0.2272 0.0
H1369 H 0.60569 0.19381 0.22696 0.0
H1370 H 0.63928 0.15015 0.22756 0.0
C1371 C 0.69237 0.20574 0.22588 0.0
C1372 C 0.54721 0.88456 0.96685 0.0
C1373 C 0.51815 0.89556 0.97272 0.0
H1374 H 0.59428 0.89497 0.96351 0.0
C1375 C 0.51372 0.92678 0.97576 0.0
H1376 H 0.55115 0.86054 0.96482 0.0
C1377 C 0.53852 0.94637 0.97591 0.0
C1378 C 0.56776 0.93501 0.97187 0.0
H1379 H 0.49157 0.93569 0.98091 0.0
H1380 H 0.53507 0.96998 0.98113 0.0
C1381 C 0.57181 0.90421 0.96606 0.0
C1382 C 0.98627 0.0767 0.47648 0.0
C1383 C 0.9817 0.10794 0.47388 0.0
H1384 H 0.96518 0.03341 0.48196 0.0
C1385 C 0.95246 0.11893 0.46893 0.0
H1386 H 0.00857 0.0678 0.48093 0.0
C1387 C 0.9279 0.09924 0.46865 0.0
C1388 C 0.93218 0.06841 0.47403 0.0
H1389 H 0.94842 0.14296 0.46725 0.0
H1390 H 0.90534 0.10845 0.46682 0.0
C1391 C 0.96154 0.05707 0.47712 0.0
C1392 C 0.22045 0.40369 0.44984 0.0
C1393 C 0.19754 0.40279 0.47158 0.0
H1394 H 0.24987 0.37828 0.42128 0.0
C1395 C 0.18771 0.37464 0.48249 0.0
H1396 H 0.22837 0.42505 0.44102 0.0
C1397 C 0.19941 0.34785 0.47068 0.0
C1398 C 0.22182 0.34874 0.44842 0.0
H1399 H 0.16982 0.37326 0.49907 0.0
H1400 H 0.1905 0.32649 0.47848 0.0
C1401 C 0.23281 0.37691 0.4387 0.0
C1402 C 0.90536 0.95126 0.72062 0.0
C1403 C 0.90443 0.97254 0.6973 0.0
H1404 H 0.88004 0.92275 0.75015 0.0
C1405 C 0.87626 0.98285 0.68694 0.0
H1406 H 0.92675 0.9429 0.72893 0.0
C1407 C 0.84951 0.97077 0.69846 0.0
C1408 C 0.85044 0.94885 0.72121 0.0
H1409 H 0.87489 0.99905 0.66871 0.0
H1410 H 0.82816 0.97802 0.6891 0.0
C1411 C 0.8786 0.93987 0.73279 0.0
C1412 C 0.26771 0.62569 0.93728 0.0
C1413 C 0.27827 0.65394 0.94724 0.0
H1414 H 0.2723 0.57759 0.93993 0.0
C1415 C 0.29981 0.65505 0.9703 0.0
H1416 H 0.2513 0.62418 0.91926 0.0
C1417 C 0.31118 0.62839 0.98264 0.0
C1418 C 0.3019 0.60014 0.97147 0.0
H1419 H 0.30835 0.6765 0.97831 0.0
H1420 H 0.32848 0.62994 0.9998 0.0
C1421 C 0.27976 0.59902 0.94896 0.0
C1422 C 0.65379 0.02901 0.1967 0.0
C1423 C 0.65306 0.04879 0.22136 0.0
H1424 H 0.6281 0.0033 0.16491 0.0
C1425 C 0.62498 0.05656 0.23403 0.0
H1426 H 0.67504 0.02276 0.18641 0.0
C1427 C 0.59813 0.04617 0.22123 0.0
C1428 C 0.59887 0.02699 0.19616 0.0
H1429 H 0.62364 0.07201 0.2529 0.0
H1430 H 0.5768 0.05354 0.23058 0.0
C1431 C 0.62694 0.01784 0.18451 0.0
C1432 C 0.23377 0.62308 0.06202 0.0
C1433 C 0.22294 0.65131 0.05234 0.0
H1434 H 0.22928 0.57496 0.05933 0.0
C1435 C 0.20108 0.65234 0.02955 0.0
H1436 H 0.25044 0.6216 0.07979 0.0
C1437 C 0.18961 0.62565 0.01731 0.0
C1438 C 0.19908 0.59741 0.02831 0.0
H1439 H 0.19234 0.67376 0.02172 0.0
H1440 H 0.17203 0.62716 1.00042 0.0
C1441 C 0.22162 0.59638 0.05044 0.0
C1442 C 0.63972 0.96924 0.27115 0.0
C1443 C 0.65401 0.94516 0.28597 0.0
H1444 H 0.60127 0.99883 0.27029 0.0
C1445 C 0.63937 0.93097 0.31014 0.0
H1446 H 0.65045 0.98019 0.25214 0.0
C1447 C 0.61091 0.94049 0.31937 0.0
C1448 C 0.59683 0.96499 0.30519 0.0
H1449 H 0.64964 0.91192 0.32149 0.0
H1450 H 0.60032 0.92929 0.33833 0.0
C1451 C 0.61157 0.97959 0.28122 0.0
C1452 C 0.27901 0.40223 0.55189 0.0
C1453 C 0.30137 0.40129 0.52958 0.0
H1454 H 0.2506 0.37686 0.58152 0.0
C1455 C 0.31103 0.37311 0.51859 0.0
H1456 H 0.27125 0.42361 0.56079 0.0
C1457 C 0.29987 0.34636 0.53097 0.0
C1458 C 0.27815 0.34731 0.5539 0.0
H1459 H 0.32849 0.3717 0.50157 0.0
H1460 H 0.30874 0.32499 0.52316 0.0
C1461 C 0.26716 0.37547 0.56361 0.0
C1462 C 0.90362 0.05102 0.78127 0.0
C1463 C 0.90232 0.02983 0.80466 0.0
H1464 H 0.87877 0.07956 0.7514 0.0
C1465 C 0.87397 0.01988 0.81494 0.0
H1466 H 0.92515 0.05907 0.773 0.0
C1467 C 0.84742 0.03214 0.80318 0.0
C1468 C 0.84872 0.05388 0.78027 0.0
H1469 H 0.87232 0.00376 0.8332 0.0
H1470 H 0.82593 0.02511 0.81243 0.0
C1471 C 0.87705 0.06258 0.76887 0.0
C1472 C 0.48586 0.19191 0.37671 0.0
C1473 C 0.47499 0.20211 0.40475 0.0
H1474 H 0.48128 0.19345 0.32857 0.0
C1475 C 0.45278 0.22455 0.40538 0.0
H1476 H 0.5028 0.17435 0.37557 0.0
C1477 C 0.44111 0.23603 0.37845 0.0
C1478 C 0.45072 0.22454 0.35044 0.0
H1479 H 0.44399 0.23272 0.42665 0.0
H1480 H 0.42333 0.25272 0.37963 0.0
C1481 C 0.47351 0.20268 0.3498 0.0
C1482 C 0.02051 0.18601 0.62725 0.0
C1483 C 0.03121 0.19594 0.59905 0.0
H1484 H 0.02492 0.18855 0.67537 0.0
C1485 C 0.0531 0.21872 0.59809 0.0
H1486 H 0.00384 0.1682 0.62867 0.0
C1487 C 0.06454 0.23087 0.62484 0.0
C1488 C 0.05499 0.21981 0.65303 0.0
H1489 H 0.06178 0.2267 0.5767 0.0
H1490 H 0.08203 0.24786 0.6234 0.0
C1491 C 0.03261 0.19751 0.65399 0.0
C1492 C 0.05004 0.77857 0.9032 0.0
C1493 C 0.02838 0.80155 0.90231 0.0
H1494 H 0.07881 0.74936 0.87782 0.0
C1495 C 0.01762 0.81152 0.87416 0.0
H1496 H 0.05872 0.77055 0.92457 0.0
C1497 C 0.02965 0.80002 0.84738 0.0
C1498 C 0.05198 0.77768 0.84828 0.0
H1499 H 0.00111 0.82946 0.87281 0.0
H1500 H 0.02206 0.80912 0.82603 0.0
C1501 C 0.06138 0.76641 0.87643 0.0
C1502 C 0.44875 0.78393 0.09752 0.0
C1503 C 0.4702 0.80712 0.09842 0.0
H1504 H 0.42044 0.75425 0.12287 0.0
C1505 C 0.48083 0.8172 0.1266 0.0
H1506 H 0.44015 0.77581 0.07615 0.0
C1507 C 0.46903 0.80546 0.15338 0.0
C1508 C 0.44706 0.78275 0.15248 0.0
H1509 H 0.49717 0.83531 0.12798 0.0
H1510 H 0.47661 0.81455 0.17474 0.0
C1511 C 0.43763 0.77155 0.12429 0.0
C1512 C 0.39217 0.47867 0.22297 0.0
C1513 C 0.40608 0.46546 0.19775 0.0
H1514 H 0.35384 0.47809 0.25274 0.0
C1515 C 0.39095 0.44265 0.1819 0.0
H1516 H 0.40325 0.49669 0.23519 0.0
C1517 C 0.36236 0.43326 0.19087 0.0
C1518 C 0.3486 0.44586 0.21642 0.0
H1519 H 0.40089 0.43266 0.16193 0.0
H1520 H 0.35137 0.41544 0.17828 0.0
C1521 C 0.36387 0.46838 0.23272 0.0
C1522 C 0.78217 0.90335 0.05281 0.0
C1523 C 0.80463 0.90247 0.0306 0.0
H1524 H 0.75317 0.87793 0.08179 0.0
C1525 C 0.81399 0.87432 0.01924 0.0
H1526 H 0.77464 0.92469 0.062 0.0
C1527 C 0.80234 0.84753 0.03109 0.0
C1528 C 0.78042 0.84842 0.05383 0.0
H1529 H 0.83154 0.87294 0.00231 0.0
H1530 H 0.81093 0.82616 0.02296 0.0
C1531 C 0.76984 0.87658 0.06398 0.0
C1532 C 0.15424 0.52914 0.70074 0.0
C1533 C 0.15327 0.55145 0.72311 0.0
H1534 H 0.12894 0.50064 0.67116 0.0
C1535 C 0.12508 0.56077 0.73438 0.0
H1536 H 0.17562 0.52162 0.69164 0.0
C1537 C 0.09834 0.54941 0.72212 0.0
C1538 C 0.09931 0.52784 0.69905 0.0
H1539 H 0.12363 0.57817 0.75145 0.0
H1540 H 0.07695 0.55807 0.73012 0.0
C1541 C 0.1275 0.5171 0.68916 0.0
C1542 C 0.68812 0.87598 0.98218 0.0
C1543 C 0.69735 0.90415 0.97077 0.0
H1544 H 0.69134 0.82783 0.97853 0.0
C1545 C 0.71976 0.90507 0.94849 0.0
H1546 H 0.67064 0.87455 0.99918 0.0
C1547 C 0.73215 0.87832 0.93731 0.0
C1548 C 0.72168 0.85014 0.94752 0.0
H1549 H 0.72721 0.92642 0.93926 0.0
H1550 H 0.74877 0.87969 0.91947 0.0
C1551 C 0.69983 0.84922 0.97034 0.0
C1552 C 0.80153 0.15357 0.47435 0.0
C1553 C 0.7785 0.15262 0.45274 0.0
H1554 H 0.83175 0.12819 0.50208 0.0
C1555 C 0.76681 0.12444 0.44387 0.0
H1556 H 0.81096 0.17493 0.48151 0.0
C1557 C 0.77921 0.09769 0.45496 0.0
C1558 C 0.80288 0.09863 0.47584 0.0
H1559 H 0.74921 0.12299 0.42701 0.0
H1560 H 0.77083 0.0763 0.44664 0.0
C1561 C 0.81329 0.12681 0.48615 0.0
C1562 C 0.7031 0.15404 0.52843 0.0
C1563 C 0.7245 0.15342 0.55164 0.0
H1564 H 0.6745 0.12834 0.49935 0.0
C1565 C 0.73504 0.12538 0.56215 0.0
H1566 H 0.69459 0.17531 0.51998 0.0
C1567 C 0.723 0.09846 0.55097 0.0
C1568 C 0.70088 0.0991 0.52841 0.0
H1569 H 0.75136 0.12424 0.58028 0.0
H1570 H 0.73038 0.07723 0.5605 0.0
C1571 C 0.69175 0.12712 0.51659 0.0
C1572 C 0.1261 0.48368 0.81519 0.0
C1573 C 0.09797 0.47389 0.8042 0.0
H1574 H 0.17417 0.47831 0.81371 0.0
C1575 C 0.09714 0.4531 0.78043 0.0
H1576 H 0.12738 0.49949 0.83377 0.0
C1577 C 0.12395 0.44162 0.76846 0.0
C1578 C 0.15204 0.45 0.78068 0.0
H1579 H 0.07579 0.44516 0.77163 0.0
H1580 H 0.12255 0.42487 0.75074 0.0
C1581 C 0.15288 0.4715 0.80385 0.0
C1582 C 0.37686 0.56556 0.26835 0.0
C1583 C 0.3487 0.55432 0.27775 0.0
H1584 H 0.42489 0.56403 0.27391 0.0
C1585 C 0.34777 0.53017 0.29807 0.0
H1586 H 0.37818 0.58445 0.25292 0.0
C1587 C 0.37452 0.51796 0.30937 0.0
C1588 C 0.40265 0.53036 0.30135 0.0
H1589 H 0.32637 0.52115 0.30565 0.0
H1590 H 0.37306 0.49987 0.32571 0.0
C1591 C 0.40358 0.55401 0.2804 0.0
C1592 C 0.98308 0.68623 0.87569 0.0
C1593 C 0.97257 0.69628 0.90392 0.0
H1594 H 0.97847 0.68873 0.82759 0.0
C1595 C 0.95105 0.71938 0.90495 0.0
H1596 H 0.99947 0.66818 0.87422 0.0
C1597 C 0.93967 0.73166 0.87824 0.0
C1598 C 0.94891 0.7204 0.85002 0.0
H1599 H 0.94255 0.72748 0.92637 0.0
H1600 H 0.9224 0.74885 0.87974 0.0
C1601 C 0.97102 0.69785 0.84899 0.0
C1602 C 0.51746 0.69174 0.12673 0.0
C1603 C 0.52833 0.70195 0.09868 0.0
H1604 H 0.52225 0.69305 0.17487 0.0
C1605 C 0.55079 0.72417 0.09809 0.0
H1606 H 0.50038 0.67432 0.12786 0.0
C1607 C 0.56269 0.73541 0.12503 0.0
C1608 C 0.55304 0.72395 0.15303 0.0
H1609 H 0.55962 0.73232 0.07683 0.0
H1610 H 0.58065 0.75193 0.12385 0.0
C1611 C 0.53004 0.70229 0.15365 0.0
C1612 C 0.53482 0.26579 0.36521 0.0
C1613 C 0.55039 0.28523 0.34541 0.0
H1614 H 0.51281 0.26102 0.40825 0.0
C1615 C 0.55505 0.31534 0.35407 0.0
H1616 H 0.53103 0.24243 0.35923 0.0
C1617 C 0.5456 0.32544 0.38228 0.0
C1618 C 0.53078 0.30591 0.4022 0.0
H1619 H 0.5672 0.33084 0.33963 0.0
H1620 H 0.54994 0.34864 0.38862 0.0
C1621 C 0.52469 0.27622 0.39329 0.0
C1622 C 0.97075 0.30316 0.65142 0.0
C1623 C 0.94825 0.28099 0.65045 0.0
H1624 H 0.99955 0.33245 0.62611 0.0
C1625 C 0.93866 0.26997 0.62226 0.0
H1626 H 0.97847 0.31209 0.67281 0.0
C1627 C 0.95009 0.28214 0.59552 0.0
C1628 C 0.97202 0.30488 0.59649 0.0
H1629 H 0.92107 0.25307 0.62081 0.0
H1630 H 0.94131 0.27427 0.57413 0.0
C1631 C 0.98286 0.31467 0.62468 0.0
loop_
_geom_bond_atom_site_label_1
_geom_bond_atom_site_label_2
_geom_bond_distance
_geom_bond_site_symmetry_2
_ccdc_geom_bond_type
Co0 O1 2.216 . S
Co0 O2 2.091 . S
Co0 O4 2.004 . S
Co0 O10 2.021 . S
Co0 O12 2.137 . S
Co0 O13 2.244 . S
O1 Co0 2.216 . S
O1 C8 1.247 . S
O2 Co0 2.091 . S
O2 C8 1.261 . S
C3 O12 1.247 . S
C3 O13 1.272 . S
O4 Co0 2.004 . S
O4 C9 1.259 . S
Co5 O6 2.061 . S
Co5 O11 2.052 . S
Co5 O13 2.135 . S
O6 Co5 2.061 . S
O6 C9 1.235 . S
C7 O10 1.238 . S
C7 O11 1.241 . S
C8 O1 1.247 . S
C8 O2 1.261 . S
C9 O4 1.259 . S
C9 O6 1.235 . S
O10 Co0 2.021 . S
O10 C7 1.238 . S
O11 Co5 2.052 . S
O11 C7 1.241 . S
O12 Co0 2.137 . S
O12 C3 1.247 . S
O13 Co0 2.244 . S
O13 C3 1.272 . S
O13 Co5 2.135 . S
Co14 O15 2.216 1_655 S
Co14 O16 2.091 1_655 S
Co14 O18 2.004 . S
Co14 O24 2.021 . S
Co14 O26 2.137 1_655 S
Co14 O27 2.244 . S
O15 Co14 2.216 1_455 S
O15 C22 1.247 . S
O16 Co14 2.091 1_455 S
O16 C22 1.261 . S
C17 O26 1.247 . S
C17 O27 1.272 1_455 S
O18 Co14 2.004 . S
O18 C23 1.259 . S
Co19 O20 2.061 . S
Co19 O25 2.052 . S
Co19 O27 2.135 . S
O20 Co19 2.061 . S
O20 C23 1.235 . S
C21 O24 1.238 . S
C21 O25 1.241 . S
C22 O15 1.247 . S
C22 O16 1.261 . S
C23 O18 1.259 . S
C23 O20 1.235 . S
O24 Co14 2.021 . S
O24 C21 1.238 . S
O25 Co19 2.052 . S
O25 C21 1.241 . S
O26 Co14 2.137 1_455 S
O26 C17 1.247 . S
O27 Co14 2.244 . S
O27 C17 1.272 1_655 S
O27 Co19 2.135 . S
Co28 O29 2.216 . S
Co28 O30 2.091 . S
Co28 O32 2.004 . S
Co28 O38 2.021 . S
Co28 O40 2.137 . S
Co28 O41 2.244 . S
O29 Co28 2.216 . S
O29 C36 1.247 . S
O30 Co28 2.091 . S
O30 C36 1.261 . S
C31 O40 1.247 . S
C31 O41 1.272 . S
O32 Co28 2.004 . S
O32 C37 1.259 . S
Co33 O34 2.061 . S
Co33 O39 2.052 . S
Co33 O41 2.135 . S
O34 Co33 2.061 . S
O34 C37 1.235 . S
C35 O38 1.238 . S
C35 O39 1.241 . S
C36 O29 1.247 . S
C36 O30 1.261 . S
C37 O32 1.259 . S
C37 O34 1.235 . S
O38 Co28 2.021 . S
O38 C35 1.238 . S
O39 Co33 2.052 . S
O39 C35 1.241 . S
O40 Co28 2.137 . S
O40 C31 1.247 . S
O41 Co28 2.244 . S
O41 C31 1.272 . S
O41 Co33 2.135 . S
Co42 O43 2.216 . S
Co42 O44 2.091 . S
Co42 O46 2.004 . S
Co42 O52 2.021 . S
Co42 O54 2.137 . S
Co42 O55 2.244 . S
O43 Co42 2.216 . S
O43 C50 1.247 . S
O44 Co42 2.091 . S
O44 C50 1.261 . S
C45 O54 1.247 . S
C45 O55 1.272 . S
O46 Co42 2.004 . S
O46 C51 1.259 . S
Co47 O48 2.061 . S
Co47 O53 2.052 . S
Co47 O55 2.135 . S
O48 Co47 2.061 . S
O48 C51 1.235 . S
C49 O52 1.238 . S
C49 O53 1.241 . S
C50 O43 1.247 . S
C50 O44 1.261 . S
C51 O46 1.259 . S
C51 O48 1.235 . S
O52 Co42 2.021 . S
O52 C49 1.238 . S
O53 Co47 2.052 . S
O53 C49 1.241 . S
O54 Co42 2.137 . S
O54 C45 1.247 . S
O55 Co42 2.244 . S
O55 C45 1.272 . S
O55 Co47 2.135 . S
Co56 O57 2.216 . S
Co56 O58 2.091 . S
Co56 O60 2.004 . S
Co56 O66 2.021 . S
Co56 O68 2.137 . S
Co56 O69 2.244 . S
O57 Co56 2.216 . S
O57 C64 1.247 . S
O58 Co56 2.091 . S
O58 C64 1.261 . S
C59 O68 1.247 . S
C59 O69 1.272 . S
O60 Co56 2.004 . S
O60 C65 1.259 . S
Co61 O62 2.061 . S
Co61 O67 2.052 . S
Co61 O69 2.135 . S
O62 Co61 2.061 . S
O62 C65 1.235 . S
C63 O66 1.238 . S
C63 O67 1.241 . S
C64 O57 1.247 . S
C64 O58 1.261 . S
C65 O60 1.259 . S
C65 O62 1.235 . S
O66 Co56 2.021 . S
O66 C63 1.238 . S
O67 Co61 2.052 . S
O67 C63 1.241 . S
O68 Co56 2.137 . S
O68 C59 1.247 . S
O69 Co56 2.244 . S
O69 C59 1.272 . S
O69 Co61 2.135 . S
Co70 O71 2.216 . S
Co70 O72 2.091 . S
Co70 O74 2.004 . S
Co70 O80 2.021 . S
Co70 O82 2.137 . S
Co70 O83 2.244 . S
O71 Co70 2.216 . S
O71 C78 1.247 . S
O72 Co70 2.091 . S
O72 C78 1.261 . S
C73 O82 1.247 . S
C73 O83 1.272 . S
O74 Co70 2.004 . S
O74 C79 1.259 . S
Co75 O76 2.061 . S
Co75 O81 2.052 . S
Co75 O83 2.135 . S
O76 Co75 2.061 . S
O76 C79 1.235 . S
C77 O80 1.238 . S
C77 O81 1.241 . S
C78 O71 1.247 . S
C78 O72 1.261 . S
C79 O74 1.259 . S
C79 O76 1.235 . S
O80 Co70 2.021 . S
O80 C77 1.238 . S
O81 Co75 2.052 . S
O81 C77 1.241 . S
O82 Co70 2.137 . S
O82 C73 1.247 . S
O83 Co70 2.244 . S
O83 C73 1.272 . S
O83 Co75 2.135 . S
Co84 O85 2.216 . S
Co84 O86 2.091 . S
Co84 O88 2.004 . S
Co84 O94 2.021 . S
Co84 O96 2.137 . S
Co84 O97 2.244 . S
O85 Co84 2.216 . S
O85 C92 1.247 . S
O86 Co84 2.091 . S
O86 C92 1.261 . S
C87 O96 1.247 . S
C87 O97 1.272 . S
O88 Co84 2.004 . S
O88 C93 1.259 . S
Co89 O90 2.061 . S
Co89 O95 2.052 . S
Co89 O97 2.135 . S
O90 Co89 2.061 . S
O90 C93 1.235 . S
C91 O94 1.238 . S
C91 O95 1.241 . S
C92 O85 1.247 . S
C92 O86 1.261 . S
C93 O88 1.259 . S
C93 O90 1.235 . S
O94 Co84 2.021 . S
O94 C91 1.238 . S
O95 Co89 2.052 . S
O95 C91 1.241 . S
O96 Co84 2.137 . S
O96 C87 1.247 . S
O97 Co84 2.244 . S
O97 C87 1.272 . S
O97 Co89 2.135 . S
Co98 O99 2.216 1_655 S
Co98 O100 2.091 1_655 S
Co98 O102 2.004 . S
Co98 O108 2.021 . S
Co98 O110 2.137 1_655 S
Co98 O111 2.244 . S
O99 Co98 2.216 1_455 S
O99 C106 1.247 . S
O100 Co98 2.091 1_455 S
O100 C106 1.261 . S
C101 O110 1.247 . S
C101 O111 1.272 1_455 S
O102 Co98 2.004 . S
O102 C107 1.259 . S
Co103 O104 2.061 . S
Co103 O109 2.052 . S
Co103 O111 2.135 . S
O104 Co103 2.061 . S
O104 C107 1.235 . S
C105 O108 1.238 . S
C105 O109 1.241 . S
C106 O99 1.247 . S
C106 O100 1.261 . S
C107 O102 1.259 . S
C107 O104 1.235 . S
O108 Co98 2.021 . S
O108 C105 1.238 . S
O109 Co103 2.052 . S
O109 C105 1.241 . S
O110 Co98 2.137 1_455 S
O110 C101 1.247 . S
O111 Co98 2.244 . S
O111 C101 1.272 1_655 S
O111 Co103 2.135 . S
Co112 O113 2.216 . S
Co112 O114 2.091 . S
Co112 O116 2.004 . S
Co112 O122 2.021 . S
Co112 O124 2.137 . S
Co112 O125 2.244 . S
O113 Co112 2.216 . S
O113 C120 1.247 . S
O114 Co112 2.091 . S
O114 C120 1.261 . S
C115 O124 1.247 . S
C115 O125 1.272 . S
O116 Co112 2.004 . S
O116 C121 1.259 . S
Co117 O118 2.061 . S
Co117 O123 2.052 . S
Co117 O125 2.135 . S
O118 Co117 2.061 . S
O118 C121 1.235 . S
C119 O122 1.238 . S
C119 O123 1.241 . S
C120 O113 1.247 . S
C120 O114 1.261 . S
C121 O116 1.259 . S
C121 O118 1.235 . S
O122 Co112 2.021 . S
O122 C119 1.238 . S
O123 Co117 2.052 . S
O123 C119 1.241 . S
O124 Co112 2.137 . S
O124 C115 1.247 . S
O125 Co112 2.244 . S
O125 C115 1.272 . S
O125 Co117 2.135 . S
Co126 O127 2.216 . S
Co126 O128 2.091 . S
Co126 O130 2.004 . S
Co126 O136 2.021 . S
Co126 O138 2.137 . S
Co126 O139 2.244 . S
O127 Co126 2.216 . S
O127 C134 1.247 . S
O128 Co126 2.091 . S
O128 C134 1.261 . S
C129 O138 1.247 . S
C129 O139 1.272 . S
O130 Co126 2.004 . S
O130 C135 1.259 . S
Co131 O132 2.061 . S
Co131 O137 2.052 . S
Co131 O139 2.135 . S
O132 Co131 2.061 . S
O132 C135 1.235 . S
C133 O136 1.238 . S
C133 O137 1.241 . S
C134 O127 1.247 . S
C134 O128 1.261 . S
C135 O130 1.259 . S
C135 O132 1.235 . S
O136 Co126 2.021 . S
O136 C133 1.238 . S
O137 Co131 2.052 . S
O137 C133 1.241 . S
O138 Co126 2.137 . S
O138 C129 1.247 . S
O139 Co126 2.244 . S
O139 C129 1.272 . S
O139 Co131 2.135 . S
Co140 O141 2.216 . S
Co140 O142 2.091 . S
Co140 O144 2.004 . S
Co140 O150 2.021 . S
Co140 O152 2.137 . S
Co140 O153 2.244 . S
O141 Co140 2.216 . S
O141 C148 1.247 . S
O142 Co140 2.091 . S
O142 C148 1.261 . S
C143 O152 1.247 . S
C143 O153 1.272 . S
O144 Co140 2.004 . S
O144 C149 1.259 . S
Co145 O146 2.061 . S
Co145 O151 2.052 . S
Co145 O153 2.135 . S
O146 Co145 2.061 . S
O146 C149 1.235 . S
C147 O150 1.238 . S
C147 O151 1.241 . S
C148 O141 1.247 . S
C148 O142 1.261 . S
C149 O144 1.259 . S
C149 O146 1.235 . S
O150 Co140 2.021 . S
O150 C147 1.238 . S
O151 Co145 2.052 . S
O151 C147 1.241 . S
O152 Co140 2.137 . S
O152 C143 1.247 . S
O153 Co140 2.244 . S
O153 C143 1.272 . S
O153 Co145 2.135 . S
Co154 O155 2.216 1_554 S
Co154 O156 2.091 1_554 S
Co154 O158 2.004 . S
Co154 O164 2.021 . S
Co154 O166 2.137 1_554 S
Co154 O167 2.244 . S
O155 Co154 2.216 1_556 S
O155 C162 1.247 . S
O156 Co154 2.091 1_556 S
O156 C162 1.261 . S
C157 O166 1.247 . S
C157 O167 1.272 1_556 S
O158 Co154 2.004 . S
O158 C163 1.259 . S
Co159 O160 2.061 . S
Co159 O165 2.052 . S
Co159 O167 2.135 . S
O160 Co159 2.061 . S
O160 C163 1.235 . S
C161 O164 1.238 . S
C161 O165 1.241 . S
C162 O155 1.247 . S
C162 O156 1.261 . S
C163 O158 1.259 . S
C163 O160 1.235 . S
O164 Co154 2.021 . S
O164 C161 1.238 . S
O165 Co159 2.052 . S
O165 C161 1.241 . S
O166 Co154 2.137 1_556 S
O166 C157 1.247 . S
O167 Co154 2.244 . S
O167 C157 1.272 1_554 S
O167 Co159 2.135 . S
Co168 O169 2.216 . S
Co168 O170 2.091 . S
Co168 O172 2.004 . S
Co168 O178 2.021 . S
Co168 O180 2.137 . S
Co168 O181 2.244 . S
O169 Co168 2.216 . S
O169 C176 1.247 . S
O170 Co168 2.091 . S
O170 C176 1.261 . S
C171 O180 1.247 . S
C171 O181 1.272 . S
O172 Co168 2.004 . S
O172 C177 1.259 . S
Co173 O174 2.061 . S
Co173 O179 2.052 . S
Co173 O181 2.135 . S
O174 Co173 2.061 . S
O174 C177 1.235 . S
C175 O178 1.238 . S
C175 O179 1.241 . S
C176 O169 1.247 . S
C176 O170 1.261 . S
C177 O172 1.259 . S
C177 O174 1.235 . S
O178 Co168 2.021 . S
O178 C175 1.238 . S
O179 Co173 2.052 . S
O179 C175 1.241 . S
O180 Co168 2.137 . S
O180 C171 1.247 . S
O181 Co168 2.244 . S
O181 C171 1.272 . S
O181 Co173 2.135 . S
Co182 O183 2.216 . S
Co182 O184 2.091 . S
Co182 O186 2.004 . S
Co182 O192 2.021 . S
Co182 O194 2.137 . S
Co182 O195 2.244 . S
O183 Co182 2.216 . S
O183 C190 1.247 . S
O184 Co182 2.091 . S
O184 C190 1.261 . S
C185 O194 1.247 . S
C185 O195 1.272 . S
O186 Co182 2.004 . S
O186 C191 1.259 . S
Co187 O188 2.061 . S
Co187 O193 2.052 . S
Co187 O195 2.135 . S
O188 Co187 2.061 . S
O188 C191 1.235 . S
C189 O192 1.238 . S
C189 O193 1.241 . S
C190 O183 1.247 . S
C190 O184 1.261 . S
C191 O186 1.259 . S
C191 O188 1.235 . S
O192 Co182 2.021 . S
O192 C189 1.238 . S
O193 Co187 2.052 . S
O193 C189 1.241 . S
O194 Co182 2.137 . S
O194 C185 1.247 . S
O195 Co182 2.244 . S
O195 C185 1.272 . S
O195 Co187 2.135 . S
Co196 O197 2.216 . S
Co196 O198 2.091 . S
Co196 O200 2.004 . S
Co196 O206 2.021 . S
Co196 O208 2.137 . S
Co196 O209 2.244 . S
O197 Co196 2.216 . S
O197 C204 1.247 . S
O198 Co196 2.091 . S
O198 C204 1.261 . S
C199 O208 1.247 . S
C199 O209 1.272 . S
O200 Co196 2.004 . S
O200 C205 1.259 . S
Co201 O202 2.061 . S
Co201 O207 2.052 . S
Co201 O209 2.135 . S
O202 Co201 2.061 . S
O202 C205 1.235 . S
C203 O206 1.238 . S
C203 O207 1.241 . S
C204 O197 1.247 . S
C204 O198 1.261 . S
C205 O200 1.259 . S
C205 O202 1.235 . S
O206 Co196 2.021 . S
O206 C203 1.238 . S
O207 Co201 2.052 . S
O207 C203 1.241 . S
O208 Co196 2.137 . S
O208 C199 1.247 . S
O209 Co196 2.244 . S
O209 C199 1.272 . S
O209 Co201 2.135 . S
Co210 O211 2.216 1_556 S
Co210 O212 2.091 1_556 S
Co210 O214 2.004 . S
Co210 O220 2.021 . S
Co210 O222 2.137 1_556 S
Co210 O223 2.244 . S
O211 Co210 2.216 1_554 S
O211 C218 1.247 . S
O212 Co210 2.091 1_554 S
O212 C218 1.261 . S
C213 O222 1.247 . S
C213 O223 1.272 1_554 S
O214 Co210 2.004 . S
O214 C219 1.259 . S
Co215 O216 2.061 . S
Co215 O221 2.052 . S
Co215 O223 2.135 . S
O216 Co215 2.061 . S
O216 C219 1.235 . S
C217 O220 1.238 . S
C217 O221 1.241 . S
C218 O211 1.247 . S
C218 O212 1.261 . S
C219 O214 1.259 . S
C219 O216 1.235 . S
O220 Co210 2.021 . S
O220 C217 1.238 . S
O221 Co215 2.052 . S
O221 C217 1.241 . S
O222 Co210 2.137 1_554 S
O222 C213 1.247 . S
O223 Co210 2.244 . S
O223 C213 1.272 1_556 S
O223 Co215 2.135 . S
Co224 O225 2.216 . S
Co224 O226 2.091 . S
Co224 O228 2.004 . S
Co224 O234 2.021 . S
Co224 O236 2.137 . S
Co224 O237 2.244 . S
O225 Co224 2.216 . S
O225 C232 1.247 . S
O226 Co224 2.091 . S
O226 C232 1.261 . S
C227 O236 1.247 . S
C227 O237 1.272 . S
O228 Co224 2.004 . S
O228 C233 1.259 . S
Co229 O230 2.061 . S
Co229 O235 2.052 . S
Co229 O237 2.135 . S
O230 Co229 2.061 . S
O230 C233 1.235 . S
C231 O234 1.238 . S
C231 O235 1.241 . S
C232 O225 1.247 . S
C232 O226 1.261 . S
C233 O228 1.259 . S
C233 O230 1.235 . S
O234 Co224 2.021 . S
O234 C231 1.238 . S
O235 Co229 2.052 . S
O235 C231 1.241 . S
O236 Co224 2.137 . S
O236 C227 1.247 . S
O237 Co224 2.244 . S
O237 C227 1.272 . S
O237 Co229 2.135 . S
Co238 O239 2.216 . S
Co238 O240 2.091 . S
Co238 O242 2.004 . S
Co238 O248 2.021 . S
Co238 O250 2.137 . S
Co238 O251 2.244 . S
O239 Co238 2.216 . S
O239 C246 1.247 . S
O240 Co238 2.091 . S
O240 C246 1.261 . S
C241 O250 1.247 . S
C241 O251 1.272 . S
O242 Co238 2.004 . S
O242 C247 1.259 . S
Co243 O244 2.061 . S
Co243 O249 2.052 . S
Co243 O251 2.135 . S
O244 Co243 2.061 . S
O244 C247 1.235 . S
C245 O248 1.238 . S
C245 O249 1.241 . S
C246 O239 1.247 . S
C246 O240 1.261 . S
C247 O242 1.259 . S
C247 O244 1.235 . S
O248 Co238 2.021 . S
O248 C245 1.238 . S
O249 Co243 2.052 . S
O249 C245 1.241 . S
O250 Co238 2.137 . S
O250 C241 1.247 . S
O251 Co238 2.244 . S
O251 C241 1.272 . S
O251 Co243 2.135 . S
Co252 O253 2.216 . S
Co252 O254 2.091 . S
Co252 O256 2.004 . S
Co252 O262 2.021 . S
Co252 O264 2.137 . S
Co252 O265 2.244 . S
O253 Co252 2.216 . S
O253 C260 1.247 . S
O254 Co252 2.091 . S
O254 C260 1.261 . S
C255 O264 1.247 . S
C255 O265 1.272 . S
O256 Co252 2.004 . S
O256 C261 1.259 . S
Co257 O258 2.061 . S
Co257 O263 2.052 . S
Co257 O265 2.135 . S
O258 Co257 2.061 . S
O258 C261 1.235 . S
C259 O262 1.238 . S
C259 O263 1.241 . S
C260 O253 1.247 . S
C260 O254 1.261 . S
C261 O256 1.259 . S
C261 O258 1.235 . S
O262 Co252 2.021 . S
O262 C259 1.238 . S
O263 Co257 2.052 . S
O263 C259 1.241 . S
O264 Co252 2.137 . S
O264 C255 1.247 . S
O265 Co252 2.244 . S
O265 C255 1.272 . S
O265 Co257 2.135 . S
Co266 O267 2.216 . S
Co266 O268 2.091 . S
Co266 O270 2.004 . S
Co266 O276 2.021 . S
Co266 O278 2.137 . S
Co266 O279 2.244 . S
O267 Co266 2.216 . S
O267 C274 1.247 . S
O268 Co266 2.091 . S
O268 C274 1.261 . S
C269 O278 1.247 . S
C269 O279 1.272 . S
O270 Co266 2.004 . S
O270 C275 1.259 . S
Co271 O272 2.061 . S
Co271 O277 2.052 . S
Co271 O279 2.135 . S
O272 Co271 2.061 . S
O272 C275 1.235 . S
C273 O276 1.238 . S
C273 O277 1.241 . S
C274 O267 1.247 . S
C274 O268 1.261 . S
C275 O270 1.259 . S
C275 O272 1.235 . S
O276 Co266 2.021 . S
O276 C273 1.238 . S
O277 Co271 2.052 . S
O277 C273 1.241 . S
O278 Co266 2.137 . S
O278 C269 1.247 . S
O279 Co266 2.244 . S
O279 C269 1.272 . S
O279 Co271 2.135 . S
Co280 O281 2.216 1_565 S
Co280 O282 2.091 1_565 S
Co280 O284 2.004 . S
Co280 O290 2.021 . S
Co280 O292 2.137 1_565 S
Co280 O293 2.244 . S
O281 Co280 2.216 1_545 S
O281 C288 1.247 . S
O282 Co280 2.091 1_545 S
O282 C288 1.261 . S
C283 O292 1.247 . S
C283 O293 1.272 1_545 S
O284 Co280 2.004 . S
O284 C289 1.259 . S
Co285 O286 2.061 . S
Co285 O291 2.052 . S
Co285 O293 2.135 . S
O286 Co285 2.061 . S
O286 C289 1.235 . S
C287 O290 1.238 . S
C287 O291 1.241 . S
C288 O281 1.247 . S
C288 O282 1.261 . S
C289 O284 1.259 . S
C289 O286 1.235 . S
O290 Co280 2.021 . S
O290 C287 1.238 . S
O291 Co285 2.052 . S
O291 C287 1.241 . S
O292 Co280 2.137 1_545 S
O292 C283 1.247 . S
O293 Co280 2.244 . S
O293 C283 1.272 1_565 S
O293 Co285 2.135 . S
Co294 O295 2.216 . S
Co294 O296 2.091 . S
Co294 O298 2.004 . S
Co294 O304 2.021 . S
Co294 O306 2.137 . S
Co294 O307 2.244 . S
O295 Co294 2.216 . S
O295 C302 1.247 . S
O296 Co294 2.091 . S
O296 C302 1.261 . S
C297 O306 1.247 . S
C297 O307 1.272 . S
O298 Co294 2.004 . S
O298 C303 1.259 . S
Co299 O300 2.061 . S
Co299 O305 2.052 . S
Co299 O307 2.135 . S
O300 Co299 2.061 . S
O300 C303 1.235 . S
C301 O304 1.238 . S
C301 O305 1.241 . S
C302 O295 1.247 . S
C302 O296 1.261 . S
C303 O298 1.259 . S
C303 O300 1.235 . S
O304 Co294 2.021 . S
O304 C301 1.238 . S
O305 Co299 2.052 . S
O305 C301 1.241 . S
O306 Co294 2.137 . S
O306 C297 1.247 . S
O307 Co294 2.244 . S
O307 C297 1.272 . S
O307 Co299 2.135 . S
Co308 O309 2.216 . S
Co308 O310 2.091 . S
Co308 O312 2.004 . S
Co308 O318 2.021 . S
Co308 O320 2.137 . S
Co308 O321 2.244 . S
O309 Co308 2.216 . S
O309 C316 1.247 . S
O310 Co308 2.091 . S
O310 C316 1.261 . S
C311 O320 1.247 . S
C311 O321 1.272 . S
O312 Co308 2.004 . S
O312 C317 1.259 . S
Co313 O314 2.061 . S
Co313 O319 2.052 . S
Co313 O321 2.135 . S
O314 Co313 2.061 . S
O314 C317 1.235 . S
C315 O318 1.238 . S
C315 O319 1.241 . S
C316 O309 1.247 . S
C316 O310 1.261 . S
C317 O312 1.259 . S
C317 O314 1.235 . S
O318 Co308 2.021 . S
O318 C315 1.238 . S
O319 Co313 2.052 . S
O319 C315 1.241 . S
O320 Co308 2.137 . S
O320 C311 1.247 . S
O321 Co308 2.244 . S
O321 C311 1.272 . S
O321 Co313 2.135 . S
Co322 O323 2.216 . S
Co322 O324 2.091 . S
Co322 O326 2.004 . S
Co322 O332 2.021 . S
Co322 O334 2.137 . S
Co322 O335 2.244 . S
O323 Co322 2.216 . S
O323 C330 1.247 . S
O324 Co322 2.091 . S
O324 C330 1.261 . S
C325 O334 1.247 . S
C325 O335 1.272 . S
O326 Co322 2.004 . S
O326 C331 1.259 . S
Co327 O328 2.061 . S
Co327 O333 2.052 . S
Co327 O335 2.135 . S
O328 Co327 2.061 . S
O328 C331 1.235 . S
C329 O332 1.238 . S
C329 O333 1.241 . S
C330 O323 1.247 . S
C330 O324 1.261 . S
C331 O326 1.259 . S
C331 O328 1.235 . S
O332 Co322 2.021 . S
O332 C329 1.238 . S
O333 Co327 2.052 . S
O333 C329 1.241 . S
O334 Co322 2.137 . S
O334 C325 1.247 . S
O335 Co322 2.244 . S
O335 C325 1.272 . S
O335 Co327 2.135 . S
Co336 O337 2.216 . S
Co336 O338 2.091 . S
Co336 O340 2.004 . S
Co336 O346 2.021 . S
Co336 O348 2.137 . S
Co336 O349 2.244 . S
O337 Co336 2.216 . S
O337 C344 1.247 . S
O338 Co336 2.091 . S
O338 C344 1.261 . S
C339 O348 1.247 . S
C339 O349 1.272 . S
O340 Co336 2.004 . S
O340 C345 1.259 . S
Co341 O342 2.061 . S
Co341 O347 2.052 . S
Co341 O349 2.135 . S
O342 Co341 2.061 . S
O342 C345 1.235 . S
C343 O346 1.238 . S
C343 O347 1.241 . S
C344 O337 1.247 . S
C344 O338 1.261 . S
C345 O340 1.259 . S
C345 O342 1.235 . S
O346 Co336 2.021 . S
O346 C343 1.238 . S
O347 Co341 2.052 . S
O347 C343 1.241 . S
O348 Co336 2.137 . S
O348 C339 1.247 . S
O349 Co336 2.244 . S
O349 C339 1.272 . S
O349 Co341 2.135 . S
Co350 O351 2.216 . S
Co350 O352 2.091 . S
Co350 O354 2.004 . S
Co350 O360 2.021 . S
Co350 O362 2.137 . S
Co350 O363 2.244 . S
O351 Co350 2.216 . S
O351 C358 1.247 . S
O352 Co350 2.091 . S
O352 C358 1.261 . S
C353 O362 1.247 . S
C353 O363 1.272 . S
O354 Co350 2.004 . S
O354 C359 1.259 . S
Co355 O356 2.061 . S
Co355 O361 2.052 . S
Co355 O363 2.135 . S
O356 Co355 2.061 . S
O356 C359 1.235 . S
C357 O360 1.238 . S
C357 O361 1.241 . S
C358 O351 1.247 . S
C358 O352 1.261 . S
C359 O354 1.259 . S
C359 O356 1.235 . S
O360 Co350 2.021 . S
O360 C357 1.238 . S
O361 Co355 2.052 . S
O361 C357 1.241 . S
O362 Co350 2.137 . S
O362 C353 1.247 . S
O363 Co350 2.244 . S
O363 C353 1.272 . S
O363 Co355 2.135 . S
Co364 O365 2.216 . S
Co364 O366 2.091 . S
Co364 O368 2.004 . S
Co364 O374 2.021 . S
Co364 O376 2.137 . S
Co364 O377 2.244 . S
O365 Co364 2.216 . S
O365 C372 1.247 . S
O366 Co364 2.091 . S
O366 C372 1.261 . S
C367 O376 1.247 . S
C367 O377 1.272 . S
O368 Co364 2.004 . S
O368 C373 1.259 . S
Co369 O370 2.061 . S
Co369 O375 2.052 . S
Co369 O377 2.135 . S
O370 Co369 2.061 . S
O370 C373 1.235 . S
C371 O374 1.238 . S
C371 O375 1.241 . S
C372 O365 1.247 . S
C372 O366 1.261 . S
C373 O368 1.259 . S
C373 O370 1.235 . S
O374 Co364 2.021 . S
O374 C371 1.238 . S
O375 Co369 2.052 . S
O375 C371 1.241 . S
O376 Co364 2.137 . S
O376 C367 1.247 . S
O377 Co364 2.244 . S
O377 C367 1.272 . S
O377 Co369 2.135 . S
Co378 O379 2.216 1_455 S
Co378 O380 2.091 1_455 S
Co378 O382 2.004 . S
Co378 O388 2.021 . S
Co378 O390 2.137 1_455 S
Co378 O391 2.244 . S
O379 Co378 2.216 1_655 S
O379 C386 1.247 . S
O380 Co378 2.091 1_655 S
O380 C386 1.261 . S
C381 O390 1.247 . S
C381 O391 1.272 1_655 S
O382 Co378 2.004 . S
O382 C387 1.259 . S
Co383 O384 2.061 . S
Co383 O389 2.052 . S
Co383 O391 2.135 . S
O384 Co383 2.061 . S
O384 C387 1.235 . S
C385 O388 1.238 . S
C385 O389 1.241 . S
C386 O379 1.247 . S
C386 O380 1.261 . S
C387 O382 1.259 . S
C387 O384 1.235 . S
O388 Co378 2.021 . S
O388 C385 1.238 . S
O389 Co383 2.052 . S
O389 C385 1.241 . S
O390 Co378 2.137 1_655 S
O390 C381 1.247 . S
O391 Co378 2.244 . S
O391 C381 1.272 1_455 S
O391 Co383 2.135 . S
Co392 O393 2.216 . S
Co392 O394 2.091 . S
Co392 O396 2.004 . S
Co392 O402 2.021 . S
Co392 O404 2.137 . S
Co392 O405 2.244 . S
O393 Co392 2.216 . S
O393 C400 1.247 . S
O394 Co392 2.091 . S
O394 C400 1.261 . S
C395 O404 1.247 . S
C395 O405 1.272 . S
O396 Co392 2.004 . S
O396 C401 1.259 . S
Co397 O398 2.061 . S
Co397 O403 2.052 . S
Co397 O405 2.135 . S
O398 Co397 2.061 . S
O398 C401 1.235 . S
C399 O402 1.238 . S
C399 O403 1.241 . S
C400 O393 1.247 . S
C400 O394 1.261 . S
C401 O396 1.259 . S
C401 O398 1.235 . S
O402 Co392 2.021 . S
O402 C399 1.238 . S
O403 Co397 2.052 . S
O403 C399 1.241 . S
O404 Co392 2.137 . S
O404 C395 1.247 . S
O405 Co392 2.244 . S
O405 C395 1.272 . S
O405 Co397 2.135 . S
Co406 O407 2.216 1_455 S
Co406 O408 2.091 1_455 S
Co406 O410 2.004 . S
Co406 O416 2.021 . S
Co406 O418 2.137 1_455 S
Co406 O419 2.244 . S
O407 Co406 2.216 1_655 S
O407 C414 1.247 . S
O408 Co406 2.091 1_655 S
O408 C414 1.261 . S
C409 O418 1.247 . S
C409 O419 1.272 1_655 S
O410 Co406 2.004 . S
O410 C415 1.259 . S
Co411 O412 2.061 . S
Co411 O417 2.052 . S
Co411 O419 2.135 . S
O412 Co411 2.061 . S
O412 C415 1.235 . S
C413 O416 1.238 . S
C413 O417 1.241 . S
C414 O407 1.247 . S
C414 O408 1.261 . S
C415 O410 1.259 . S
C415 O412 1.235 . S
O416 Co406 2.021 . S
O416 C413 1.238 . S
O417 Co411 2.052 . S
O417 C413 1.241 . S
O418 Co406 2.137 1_655 S
O418 C409 1.247 . S
O419 Co406 2.244 . S
O419 C409 1.272 1_455 S
O419 Co411 2.135 . S
Co420 O421 2.216 . S
Co420 O422 2.091 . S
Co420 O424 2.004 . S
Co420 O430 2.021 . S
Co420 O432 2.137 . S
Co420 O433 2.244 . S
O421 Co420 2.216 . S
O421 C428 1.247 . S
O422 Co420 2.091 . S
O422 C428 1.261 . S
C423 O432 1.247 . S
C423 O433 1.272 . S
O424 Co420 2.004 . S
O424 C429 1.259 . S
Co425 O426 2.061 . S
Co425 O431 2.052 . S
Co425 O433 2.135 . S
O426 Co425 2.061 . S
O426 C429 1.235 . S
C427 O430 1.238 . S
C427 O431 1.241 . S
C428 O421 1.247 . S
C428 O422 1.261 . S
C429 O424 1.259 . S
C429 O426 1.235 . S
O430 Co420 2.021 . S
O430 C427 1.238 . S
O431 Co425 2.052 . S
O431 C427 1.241 . S
O432 Co420 2.137 . S
O432 C423 1.247 . S
O433 Co420 2.244 . S
O433 C423 1.272 . S
O433 Co425 2.135 . S
Co434 O435 2.216 . S
Co434 O436 2.091 . S
Co434 O438 2.004 . S
Co434 O444 2.021 . S
Co434 O446 2.137 . S
Co434 O447 2.244 . S
O435 Co434 2.216 . S
O435 C442 1.247 . S
O436 Co434 2.091 . S
O436 C442 1.261 . S
C437 O446 1.247 . S
C437 O447 1.272 . S
O438 Co434 2.004 . S
O438 C443 1.259 . S
Co439 O440 2.061 . S
Co439 O445 2.052 . S
Co439 O447 2.135 . S
O440 Co439 2.061 . S
O440 C443 1.235 . S
C441 O444 1.238 . S
C441 O445 1.241 . S
C442 O435 1.247 . S
C442 O436 1.261 . S
C443 O438 1.259 . S
C443 O440 1.235 . S
O444 Co434 2.021 . S
O444 C441 1.238 . S
O445 Co439 2.052 . S
O445 C441 1.241 . S
O446 Co434 2.137 . S
O446 C437 1.247 . S
O447 Co434 2.244 . S
O447 C437 1.272 . S
O447 Co439 2.135 . S
Co448 O449 2.216 . S
Co448 O450 2.091 . S
Co448 O452 2.004 . S
Co448 O458 2.021 . S
Co448 O460 2.137 . S
Co448 O461 2.244 . S
O449 Co448 2.216 . S
O449 C456 1.247 . S
O450 Co448 2.091 . S
O450 C456 1.261 . S
C451 O460 1.247 . S
C451 O461 1.272 . S
O452 Co448 2.004 . S
O452 C457 1.259 . S
Co453 O454 2.061 . S
Co453 O459 2.052 . S
Co453 O461 2.135 . S
O454 Co453 2.061 . S
O454 C457 1.235 . S
C455 O458 1.238 . S
C455 O459 1.241 . S
C456 O449 1.247 . S
C456 O450 1.261 . S
C457 O452 1.259 . S
C457 O454 1.235 . S
O458 Co448 2.021 . S
O458 C455 1.238 . S
O459 Co453 2.052 . S
O459 C455 1.241 . S
O460 Co448 2.137 . S
O460 C451 1.247 . S
O461 Co448 2.244 . S
O461 C451 1.272 . S
O461 Co453 2.135 . S
Co462 O463 2.216 1_554 S
Co462 O464 2.091 1_554 S
Co462 O466 2.004 . S
Co462 O472 2.021 . S
Co462 O474 2.137 1_554 S
Co462 O475 2.244 . S
O463 Co462 2.216 1_556 S
O463 C470 1.247 . S
O464 Co462 2.091 1_556 S
O464 C470 1.261 . S
C465 O474 1.247 . S
C465 O475 1.272 1_556 S
O466 Co462 2.004 . S
O466 C471 1.259 . S
Co467 O468 2.061 . S
Co467 O473 2.052 . S
Co467 O475 2.135 . S
O468 Co467 2.061 . S
O468 C471 1.235 . S
C469 O472 1.238 . S
C469 O473 1.241 . S
C470 O463 1.247 . S
C470 O464 1.261 . S
C471 O466 1.259 . S
C471 O468 1.235 . S
O472 Co462 2.021 . S
O472 C469 1.238 . S
O473 Co467 2.052 . S
O473 C469 1.241 . S
O474 Co462 2.137 1_556 S
O474 C465 1.247 . S
O475 Co462 2.244 . S
O475 C465 1.272 1_554 S
O475 Co467 2.135 . S
Co476 O477 2.216 . S
Co476 O478 2.091 . S
Co476 O480 2.004 . S
Co476 O486 2.021 . S
Co476 O488 2.137 . S
Co476 O489 2.244 . S
O477 Co476 2.216 . S
O477 C484 1.247 . S
O478 Co476 2.091 . S
O478 C484 1.261 . S
C479 O488 1.247 . S
C479 O489 1.272 . S
O480 Co476 2.004 . S
O480 C485 1.259 . S
Co481 O482 2.061 . S
Co481 O487 2.052 . S
Co481 O489 2.135 . S
O482 Co481 2.061 . S
O482 C485 1.235 . S
C483 O486 1.238 . S
C483 O487 1.241 . S
C484 O477 1.247 . S
C484 O478 1.261 . S
C485 O480 1.259 . S
C485 O482 1.235 . S
O486 Co476 2.021 . S
O486 C483 1.238 . S
O487 Co481 2.052 . S
O487 C483 1.241 . S
O488 Co476 2.137 . S
O488 C479 1.247 . S
O489 Co476 2.244 . S
O489 C479 1.272 . S
O489 Co481 2.135 . S
Co490 O491 2.216 . S
Co490 O492 2.091 . S
Co490 O494 2.004 . S
Co490 O500 2.021 . S
Co490 O502 2.137 . S
Co490 O503 2.244 . S
O491 Co490 2.216 . S
O491 C498 1.247 . S
O492 Co490 2.091 . S
O492 C498 1.261 . S
C493 O502 1.247 . S
C493 O503 1.272 . S
O494 Co490 2.004 . S
O494 C499 1.259 . S
Co495 O496 2.061 . S
Co495 O501 2.052 . S
Co495 O503 2.135 . S
O496 Co495 2.061 . S
O496 C499 1.235 . S
C497 O500 1.238 . S
C497 O501 1.241 . S
C498 O491 1.247 . S
C498 O492 1.261 . S
C499 O494 1.259 . S
C499 O496 1.235 . S
O500 Co490 2.021 . S
O500 C497 1.238 . S
O501 Co495 2.052 . S
O501 C497 1.241 . S
O502 Co490 2.137 . S
O502 C493 1.247 . S
O503 Co490 2.244 . S
O503 C493 1.272 . S
O503 Co495 2.135 . S
Co504 O505 2.216 . S
Co504 O506 2.091 . S
Co504 O508 2.004 . S
Co504 O514 2.021 . S
Co504 O516 2.137 . S
Co504 O517 2.244 . S
O505 Co504 2.216 . S
O505 C512 1.247 . S
O506 Co504 2.091 . S
O506 C512 1.261 . S
C507 O516 1.247 . S
C507 O517 1.272 . S
O508 Co504 2.004 . S
O508 C513 1.259 . S
Co509 O510 2.061 . S
Co509 O515 2.052 . S
Co509 O517 2.135 . S
O510 Co509 2.061 . S
O510 C513 1.235 . S
C511 O514 1.238 . S
C511 O515 1.241 . S
C512 O505 1.247 . S
C512 O506 1.261 . S
C513 O508 1.259 . S
C513 O510 1.235 . S
O514 Co504 2.021 . S
O514 C511 1.238 . S
O515 Co509 2.052 . S
O515 C511 1.241 . S
O516 Co504 2.137 . S
O516 C507 1.247 . S
O517 Co504 2.244 . S
O517 C507 1.272 . S
O517 Co509 2.135 . S
Co518 O519 2.216 1_556 S
Co518 O520 2.091 1_556 S
Co518 O522 2.004 . S
Co518 O528 2.021 . S
Co518 O530 2.137 1_556 S
Co518 O531 2.244 . S
O519 Co518 2.216 1_554 S
O519 C526 1.247 . S
O520 Co518 2.091 1_554 S
O520 C526 1.261 . S
C521 O530 1.247 . S
C521 O531 1.272 1_554 S
O522 Co518 2.004 . S
O522 C527 1.259 . S
Co523 O524 2.061 . S
Co523 O529 2.052 . S
Co523 O531 2.135 . S
O524 Co523 2.061 . S
O524 C527 1.235 . S
C525 O528 1.238 . S
C525 O529 1.241 . S
C526 O519 1.247 . S
C526 O520 1.261 . S
C527 O522 1.259 . S
C527 O524 1.235 . S
O528 Co518 2.021 . S
O528 C525 1.238 . S
O529 Co523 2.052 . S
O529 C525 1.241 . S
O530 Co518 2.137 1_554 S
O530 C521 1.247 . S
O531 Co518 2.244 . S
O531 C521 1.272 1_556 S
O531 Co523 2.135 . S
Co532 O533 2.216 . S
Co532 O534 2.091 . S
Co532 O536 2.004 . S
Co532 O542 2.021 . S
Co532 O544 2.137 . S
Co532 O545 2.244 . S
O533 Co532 2.216 . S
O533 C540 1.247 . S
O534 Co532 2.091 . S
O534 C540 1.261 . S
C535 O544 1.247 . S
C535 O545 1.272 . S
O536 Co532 2.004 . S
O536 C541 1.259 . S
Co537 O538 2.061 . S
Co537 O543 2.052 . S
Co537 O545 2.135 . S
O538 Co537 2.061 . S
O538 C541 1.235 . S
C539 O542 1.238 . S
C539 O543 1.241 . S
C540 O533 1.247 . S
C540 O534 1.261 . S
C541 O536 1.259 . S
C541 O538 1.235 . S
O542 Co532 2.021 . S
O542 C539 1.238 . S
O543 Co537 2.052 . S
O543 C539 1.241 . S
O544 Co532 2.137 . S
O544 C535 1.247 . S
O545 Co532 2.244 . S
O545 C535 1.272 . S
O545 Co537 2.135 . S
Co546 O547 2.216 . S
Co546 O548 2.091 . S
Co546 O550 2.004 . S
Co546 O556 2.021 . S
Co546 O558 2.137 . S
Co546 O559 2.244 . S
O547 Co546 2.216 . S
O547 C554 1.247 . S
O548 Co546 2.091 . S
O548 C554 1.261 . S
C549 O558 1.247 . S
C549 O559 1.272 . S
O550 Co546 2.004 . S
O550 C555 1.259 . S
Co551 O552 2.061 . S
Co551 O557 2.052 . S
Co551 O559 2.135 . S
O552 Co551 2.061 . S
O552 C555 1.235 . S
C553 O556 1.238 . S
C553 O557 1.241 . S
C554 O547 1.247 . S
C554 O548 1.261 . S
C555 O550 1.259 . S
C555 O552 1.235 . S
O556 Co546 2.021 . S
O556 C553 1.238 . S
O557 Co551 2.052 . S
O557 C553 1.241 . S
O558 Co546 2.137 . S
O558 C549 1.247 . S
O559 Co546 2.244 . S
O559 C549 1.272 . S
O559 Co551 2.135 . S
Co560 O561 2.216 . S
Co560 O562 2.091 . S
Co560 O564 2.004 . S
Co560 O570 2.021 . S
Co560 O572 2.137 . S
Co560 O573 2.244 . S
O561 Co560 2.216 . S
O561 C568 1.247 . S
O562 Co560 2.091 . S
O562 C568 1.261 . S
C563 O572 1.247 . S
C563 O573 1.272 . S
O564 Co560 2.004 . S
O564 C569 1.259 . S
Co565 O566 2.061 . S
Co565 O571 2.052 . S
Co565 O573 2.135 . S
O566 Co565 2.061 . S
O566 C569 1.235 . S
C567 O570 1.238 . S
C567 O571 1.241 . S
C568 O561 1.247 . S
C568 O562 1.261 . S
C569 O564 1.259 . S
C569 O566 1.235 . S
O570 Co560 2.021 . S
O570 C567 1.238 . S
O571 Co565 2.052 . S
O571 C567 1.241 . S
O572 Co560 2.137 . S
O572 C563 1.247 . S
O573 Co560 2.244 . S
O573 C563 1.272 . S
O573 Co565 2.135 . S
Co574 O575 2.216 . S
Co574 O576 2.091 . S
Co574 O578 2.004 . S
Co574 O584 2.021 . S
Co574 O586 2.137 . S
Co574 O587 2.244 . S
O575 Co574 2.216 . S
O575 C582 1.247 . S
O576 Co574 2.091 . S
O576 C582 1.261 . S
C577 O586 1.247 . S
C577 O587 1.272 . S
O578 Co574 2.004 . S
O578 C583 1.259 . S
Co579 O580 2.061 . S
Co579 O585 2.052 . S
Co579 O587 2.135 . S
O580 Co579 2.061 . S
O580 C583 1.235 . S
C581 O584 1.238 . S
C581 O585 1.241 . S
C582 O575 1.247 . S
C582 O576 1.261 . S
C583 O578 1.259 . S
C583 O580 1.235 . S
O584 Co574 2.021 . S
O584 C581 1.238 . S
O585 Co579 2.052 . S
O585 C581 1.241 . S
O586 Co574 2.137 . S
O586 C577 1.247 . S
O587 Co574 2.244 . S
O587 C577 1.272 . S
O587 Co579 2.135 . S
Co588 O589 2.216 1_545 S
Co588 O590 2.091 1_545 S
Co588 O592 2.004 . S
Co588 O598 2.021 . S
Co588 O600 2.137 1_545 S
Co588 O601 2.244 . S
O589 Co588 2.216 1_565 S
O589 C596 1.247 . S
O590 Co588 2.091 1_565 S
O590 C596 1.261 . S
C591 O600 1.247 . S
C591 O601 1.272 1_565 S
O592 Co588 2.004 . S
O592 C597 1.259 . S
Co593 O594 2.061 . S
Co593 O599 2.052 . S
Co593 O601 2.135 . S
O594 Co593 2.061 . S
O594 C597 1.235 . S
C595 O598 1.238 . S
C595 O599 1.241 . S
C596 O589 1.247 . S
C596 O590 1.261 . S
C597 O592 1.259 . S
C597 O594 1.235 . S
O598 Co588 2.021 . S
O598 C595 1.238 . S
O599 Co593 2.052 . S
O599 C595 1.241 . S
O600 Co588 2.137 1_565 S
O600 C591 1.247 . S
O601 Co588 2.244 . S
O601 C591 1.272 1_545 S
O601 Co593 2.135 . S
Co602 O603 2.216 . S
Co602 O604 2.091 . S
Co602 O606 2.004 . S
Co602 O612 2.021 . S
Co602 O614 2.137 . S
Co602 O615 2.244 . S
O603 Co602 2.216 . S
O603 C610 1.247 . S
O604 Co602 2.091 . S
O604 C610 1.261 . S
C605 O614 1.247 . S
C605 O615 1.272 . S
O606 Co602 2.004 . S
O606 C611 1.259 . S
Co607 O608 2.061 . S
Co607 O613 2.052 . S
Co607 O615 2.135 . S
O608 Co607 2.061 . S
O608 C611 1.235 . S
C609 O612 1.238 . S
C609 O613 1.241 . S
C610 O603 1.247 . S
C610 O604 1.261 . S
C611 O606 1.259 . S
C611 O608 1.235 . S
O612 Co602 2.021 . S
O612 C609 1.238 . S
O613 Co607 2.052 . S
O613 C609 1.241 . S
O614 Co602 2.137 . S
O614 C605 1.247 . S
O615 Co602 2.244 . S
O615 C605 1.272 . S
O615 Co607 2.135 . S
Co616 O617 2.216 . S
Co616 O618 2.091 . S
Co616 O620 2.004 . S
Co616 O626 2.021 . S
Co616 O628 2.137 . S
Co616 O629 2.244 . S
O617 Co616 2.216 . S
O617 C624 1.247 . S
O618 Co616 2.091 . S
O618 C624 1.261 . S
C619 O628 1.247 . S
C619 O629 1.272 . S
O620 Co616 2.004 . S
O620 C625 1.259 . S
Co621 O622 2.061 . S
Co621 O627 2.052 . S
Co621 O629 2.135 . S
O622 Co621 2.061 . S
O622 C625 1.235 . S
C623 O626 1.238 . S
C623 O627 1.241 . S
C624 O617 1.247 . S
C624 O618 1.261 . S
C625 O620 1.259 . S
C625 O622 1.235 . S
O626 Co616 2.021 . S
O626 C623 1.238 . S
O627 Co621 2.052 . S
O627 C623 1.241 . S
O628 Co616 2.137 . S
O628 C619 1.247 . S
O629 Co616 2.244 . S
O629 C619 1.272 . S
O629 Co621 2.135 . S
Co630 O631 2.216 . S
Co630 O632 2.091 . S
Co630 O634 2.004 . S
Co630 O640 2.021 . S
Co630 O642 2.137 . S
Co630 O643 2.244 . S
O631 Co630 2.216 . S
O631 C638 1.247 . S
O632 Co630 2.091 . S
O632 C638 1.261 . S
C633 O642 1.247 . S
C633 O643 1.272 . S
O634 Co630 2.004 . S
O634 C639 1.259 . S
Co635 O636 2.061 . S
Co635 O641 2.052 . S
Co635 O643 2.135 . S
O636 Co635 2.061 . S
O636 C639 1.235 . S
C637 O640 1.238 . S
C637 O641 1.241 . S
C638 O631 1.247 . S
C638 O632 1.261 . S
C639 O634 1.259 . S
C639 O636 1.235 . S
O640 Co630 2.021 . S
O640 C637 1.238 . S
O641 Co635 2.052 . S
O641 C637 1.241 . S
O642 Co630 2.137 . S
O642 C633 1.247 . S
O643 Co630 2.244 . S
O643 C633 1.272 . S
O643 Co635 2.135 . S
Co644 O645 2.216 1_565 S
Co644 O646 2.091 1_565 S
Co644 O648 2.004 . S
Co644 O654 2.021 . S
Co644 O656 2.137 1_565 S
Co644 O657 2.244 . S
O645 Co644 2.216 1_545 S
O645 C652 1.247 . S
O646 Co644 2.091 1_545 S
O646 C652 1.261 . S
C647 O656 1.247 . S
C647 O657 1.272 1_545 S
O648 Co644 2.004 . S
O648 C653 1.259 . S
Co649 O650 2.061 . S
Co649 O655 2.052 . S
Co649 O657 2.135 . S
O650 Co649 2.061 . S
O650 C653 1.235 . S
C651 O654 1.238 . S
C651 O655 1.241 . S
C652 O645 1.247 . S
C652 O646 1.261 . S
C653 O648 1.259 . S
C653 O650 1.235 . S
O654 Co644 2.021 . S
O654 C651 1.238 . S
O655 Co649 2.052 . S
O655 C651 1.241 . S
O656 Co644 2.137 1_545 S
O656 C647 1.247 . S
O657 Co644 2.244 . S
O657 C647 1.272 1_565 S
O657 Co649 2.135 . S
Co658 O659 2.216 1_545 S
Co658 O660 2.091 1_545 S
Co658 O662 2.004 . S
Co658 O668 2.021 . S
Co658 O670 2.137 1_545 S
Co658 O671 2.244 . S
O659 Co658 2.216 1_565 S
O659 C666 1.247 . S
O660 Co658 2.091 1_565 S
O660 C666 1.261 . S
C661 O670 1.247 . S
C661 O671 1.272 1_565 S
O662 Co658 2.004 . S
O662 C667 1.259 . S
Co663 O664 2.061 . S
Co663 O669 2.052 . S
Co663 O671 2.135 . S
O664 Co663 2.061 . S
O664 C667 1.235 . S
C665 O668 1.238 . S
C665 O669 1.241 . S
C666 O659 1.247 . S
C666 O660 1.261 . S
C667 O662 1.259 . S
C667 O664 1.235 . S
O668 Co658 2.021 . S
O668 C665 1.238 . S
O669 Co663 2.052 . S
O669 C665 1.241 . S
O670 Co658 2.137 1_565 S
O670 C661 1.247 . S
O671 Co658 2.244 . S
O671 C661 1.272 1_545 S
O671 Co663 2.135 . S
C672 C673 1.387 . S
C672 H676 0.950 . S
C672 C681 1.390 . S
C673 C672 1.387 . S
C673 C675 1.387 . S
H674 C681 0.950 . S
C675 C673 1.387 . S
C675 C677 1.390 . S
C675 H679 0.950 . S
H676 C672 0.950 . S
C677 C675 1.390 . S
C677 C678 1.387 . S
C677 H680 0.950 . S
C678 C677 1.387 . S
C678 C681 1.387 . S
H679 C675 0.950 . S
H680 C677 0.950 . S
C681 C672 1.390 . S
C681 H674 0.950 . S
C681 C678 1.387 . S
C682 C683 1.387 . S
C682 H686 0.950 . S
C682 C691 1.390 . S
C683 C682 1.387 . S
C683 C685 1.387 . S
H684 C691 0.950 . S
C685 C683 1.387 . S
C685 C687 1.390 . S
C685 H689 0.950 . S
H686 C682 0.950 . S
C687 C685 1.390 . S
C687 C688 1.387 . S
C687 H690 0.950 . S
C688 C687 1.387 . S
C688 C691 1.387 . S
H689 C685 0.950 . S
H690 C687 0.950 . S
C691 C682 1.390 . S
C691 H684 0.950 . S
C691 C688 1.387 . S
C692 C693 1.387 . S
C692 H696 0.950 . S
C692 C701 1.390 . S
C693 C692 1.387 . S
C693 C695 1.387 . S
H694 C701 0.950 . S
C695 C693 1.387 . S
C695 C697 1.390 . S
C695 H699 0.950 . S
H696 C692 0.950 . S
C697 C695 1.390 . S
C697 C698 1.387 . S
C697 H700 0.950 . S
C698 C697 1.387 . S
C698 C701 1.387 . S
H699 C695 0.950 . S
H700 C697 0.950 . S
C701 C692 1.390 . S
C701 H694 0.950 . S
C701 C698 1.387 . S
C702 C703 1.387 . S
C702 H706 0.950 . S
C702 C711 1.390 . S
C703 C702 1.387 . S
C703 C705 1.387 . S
H704 C711 0.950 . S
C705 C703 1.387 . S
C705 C707 1.390 . S
C705 H709 0.950 . S
H706 C702 0.950 . S
C707 C705 1.390 . S
C707 C708 1.387 . S
C707 H710 0.950 . S
C708 C707 1.387 . S
C708 C711 1.387 . S
H709 C705 0.950 . S
H710 C707 0.950 . S
C711 C702 1.390 . S
C711 H704 0.950 . S
C711 C708 1.387 . S
C712 C713 1.387 . S
C712 H716 0.950 . S
C712 C721 1.390 . S
C713 C712 1.387 . S
C713 C715 1.387 . S
H714 C721 0.950 . S
C715 C713 1.387 . S
C715 C717 1.390 . S
C715 H719 0.950 . S
H716 C712 0.950 . S
C717 C715 1.390 . S
C717 C718 1.387 . S
C717 H720 0.950 . S
C718 C717 1.387 . S
C718 C721 1.387 . S
H719 C715 0.950 . S
H720 C717 0.950 . S
C721 C712 1.390 . S
C721 H714 0.950 . S
C721 C718 1.387 . S
C722 C723 1.387 . S
C722 H726 0.950 . S
C722 C731 1.390 . S
C723 C722 1.387 . S
C723 C725 1.387 . S
H724 C731 0.950 . S
C725 C723 1.387 . S
C725 C727 1.390 . S
C725 H729 0.950 . S
H726 C722 0.950 . S
C727 C725 1.390 . S
C727 C728 1.387 . S
C727 H730 0.950 . S
C728 C727 1.387 . S
C728 C731 1.387 . S
H729 C725 0.950 . S
H730 C727 0.950 . S
C731 C722 1.390 . S
C731 H724 0.950 . S
C731 C728 1.387 . S
C732 C733 1.387 . S
C732 H736 0.950 . S
C732 C741 1.390 . S
C733 C732 1.387 . S
C733 C735 1.387 . S
H734 C741 0.950 . S
C735 C733 1.387 . S
C735 C737 1.390 . S
C735 H739 0.950 . S
H736 C732 0.950 . S
C737 C735 1.390 . S
C737 C738 1.387 . S
C737 H740 0.950 . S
C738 C737 1.387 . S
C738 C741 1.387 . S
H739 C735 0.950 . S
H740 C737 0.950 . S
C741 C732 1.390 . S
C741 H734 0.950 . S
C741 C738 1.387 . S
C742 C743 1.387 . S
C742 H746 0.950 . S
C742 C751 1.390 . S
C743 C742 1.387 . S
C743 C745 1.387 . S
H744 C751 0.950 . S
C745 C743 1.387 . S
C745 C747 1.390 . S
C745 H749 0.950 . S
H746 C742 0.950 . S
C747 C745 1.390 . S
C747 C748 1.387 . S
C747 H750 0.950 . S
C748 C747 1.387 . S
C748 C751 1.387 . S
H749 C745 0.950 . S
H750 C747 0.950 . S
C751 C742 1.390 . S
C751 H744 0.950 . S
C751 C748 1.387 . S
C752 C753 1.387 . S
C752 H756 0.950 . S
C752 C761 1.390 . S
C753 C752 1.387 . S
C753 C755 1.387 . S
H754 C761 0.950 . S
C755 C753 1.387 . S
C755 C757 1.390 . S
C755 H759 0.950 . S
H756 C752 0.950 . S
C757 C755 1.390 . S
C757 C758 1.387 . S
C757 H760 0.950 . S
C758 C757 1.387 . S
C758 C761 1.387 . S
H759 C755 0.950 . S
H760 C757 0.950 . S
C761 C752 1.390 . S
C761 H754 0.950 . S
C761 C758 1.387 . S
C762 C763 1.387 . S
C762 H766 0.950 . S
C762 C771 1.390 . S
C763 C762 1.387 . S
C763 C765 1.387 . S
H764 C771 0.950 . S
C765 C763 1.387 . S
C765 C767 1.390 . S
C765 H769 0.950 . S
H766 C762 0.950 . S
C767 C765 1.390 . S
C767 C768 1.387 . S
C767 H770 0.950 . S
C768 C767 1.387 . S
C768 C771 1.387 . S
H769 C765 0.950 . S
H770 C767 0.950 . S
C771 C762 1.390 . S
C771 H764 0.950 . S
C771 C768 1.387 . S
C772 C773 1.387 . S
C772 H776 0.950 . S
C772 C781 1.390 . S
C773 C772 1.387 . S
C773 C775 1.387 . S
H774 C781 0.950 . S
C775 C773 1.387 . S
C775 C777 1.390 . S
C775 H779 0.950 . S
H776 C772 0.950 . S
C777 C775 1.390 . S
C777 C778 1.387 . S
C777 H780 0.950 . S
C778 C777 1.387 . S
C778 C781 1.387 . S
H779 C775 0.950 . S
H780 C777 0.950 . S
C781 C772 1.390 . S
C781 H774 0.950 . S
C781 C778 1.387 . S
C782 C783 1.387 . S
C782 H786 0.950 . S
C782 C791 1.390 . S
C783 C782 1.387 . S
C783 C785 1.387 . S
H784 C791 0.950 . S
C785 C783 1.387 . S
C785 C787 1.390 . S
C785 H789 0.950 . S
H786 C782 0.950 . S
C787 C785 1.390 . S
C787 C788 1.387 . S
C787 H790 0.950 . S
C788 C787 1.387 . S
C788 C791 1.387 . S
H789 C785 0.950 . S
H790 C787 0.950 . S
C791 C782 1.390 . S
C791 H784 0.950 . S
C791 C788 1.387 . S
C792 C793 1.387 . S
C792 H796 0.950 . S
C792 C801 1.390 . S
C793 C792 1.387 . S
C793 C795 1.387 . S
H794 C801 0.950 . S
C795 C793 1.387 . S
C795 C797 1.390 . S
C795 H799 0.950 . S
H796 C792 0.950 . S
C797 C795 1.390 . S
C797 C798 1.387 . S
C797 H800 0.950 . S
C798 C797 1.387 . S
C798 C801 1.387 . S
H799 C795 0.950 . S
H800 C797 0.950 . S
C801 C792 1.390 . S
C801 H794 0.950 . S
C801 C798 1.387 . S
C802 C803 1.387 . S
C802 H806 0.950 . S
C802 C811 1.390 . S
C803 C802 1.387 . S
C803 C805 1.387 . S
H804 C811 0.950 . S
C805 C803 1.387 . S
C805 C807 1.390 . S
C805 H809 0.950 . S
H806 C802 0.950 . S
C807 C805 1.390 . S
C807 C808 1.387 . S
C807 H810 0.950 . S
C808 C807 1.387 . S
C808 C811 1.387 . S
H809 C805 0.950 . S
H810 C807 0.950 . S
C811 C802 1.390 . S
C811 H804 0.950 . S
C811 C808 1.387 . S
C812 C813 1.387 . S
C812 H816 0.950 . S
C812 C821 1.390 . S
C813 C812 1.387 . S
C813 C815 1.387 . S
H814 C821 0.950 . S
C815 C813 1.387 . S
C815 C817 1.390 . S
C815 H819 0.950 . S
H816 C812 0.950 . S
C817 C815 1.390 . S
C817 C818 1.387 . S
C817 H820 0.950 . S
C818 C817 1.387 . S
C818 C821 1.387 . S
H819 C815 0.950 . S
H820 C817 0.950 . S
C821 C812 1.390 . S
C821 H814 0.950 . S
C821 C818 1.387 . S
C822 C823 1.387 . S
C822 H826 0.950 . S
C822 C831 1.390 . S
C823 C822 1.387 . S
C823 C825 1.387 . S
H824 C831 0.950 . S
C825 C823 1.387 . S
C825 C827 1.390 . S
C825 H829 0.950 . S
H826 C822 0.950 . S
C827 C825 1.390 . S
C827 C828 1.387 . S
C827 H830 0.950 . S
C828 C827 1.387 . S
C828 C831 1.387 . S
H829 C825 0.950 . S
H830 C827 0.950 . S
C831 C822 1.390 . S
C831 H824 0.950 . S
C831 C828 1.387 . S
C832 C833 1.387 . S
C832 H836 0.950 . S
C832 C841 1.390 . S
C833 C832 1.387 . S
C833 C835 1.387 . S
H834 C841 0.950 . S
C835 C833 1.387 . S
C835 C837 1.390 . S
C835 H839 0.950 . S
H836 C832 0.950 . S
C837 C835 1.390 . S
C837 C838 1.387 . S
C837 H840 0.950 . S
C838 C837 1.387 . S
C838 C841 1.387 . S
H839 C835 0.950 . S
H840 C837 0.950 . S
C841 C832 1.390 . S
C841 H834 0.950 . S
C841 C838 1.387 . S
C842 C843 1.387 . S
C842 H846 0.950 . S
C842 C851 1.390 . S
C843 C842 1.387 . S
C843 C845 1.387 . S
H844 C851 0.950 . S
C845 C843 1.387 . S
C845 C847 1.390 . S
C845 H849 0.950 . S
H846 C842 0.950 . S
C847 C845 1.390 . S
C847 C848 1.387 . S
C847 H850 0.950 . S
C848 C847 1.387 . S
C848 C851 1.387 . S
H849 C845 0.950 . S
H850 C847 0.950 . S
C851 C842 1.390 . S
C851 H844 0.950 . S
C851 C848 1.387 . S
C852 C853 1.387 . S
C852 H856 0.950 . S
C852 C861 1.390 . S
C853 C852 1.387 . S
C853 C855 1.387 . S
H854 C861 0.950 . S
C855 C853 1.387 . S
C855 C857 1.390 . S
C855 H859 0.950 . S
H856 C852 0.950 . S
C857 C855 1.390 . S
C857 C858 1.387 . S
C857 H860 0.950 . S
C858 C857 1.387 . S
C858 C861 1.387 . S
H859 C855 0.950 . S
H860 C857 0.950 . S
C861 C852 1.390 . S
C861 H854 0.950 . S
C861 C858 1.387 . S
C862 C863 1.387 . S
C862 H866 0.950 . S
C862 C871 1.390 . S
C863 C862 1.387 . S
C863 C865 1.387 . S
H864 C871 0.950 . S
C865 C863 1.387 . S
C865 C867 1.390 . S
C865 H869 0.950 . S
H866 C862 0.950 . S
C867 C865 1.390 . S
C867 C868 1.387 . S
C867 H870 0.950 . S
C868 C867 1.387 . S
C868 C871 1.387 . S
H869 C865 0.950 . S
H870 C867 0.950 . S
C871 C862 1.390 . S
C871 H864 0.950 . S
C871 C868 1.387 . S
C872 C873 1.387 . S
C872 H876 0.950 . S
C872 C881 1.390 . S
C873 C872 1.387 . S
C873 C875 1.387 . S
H874 C881 0.950 . S
C875 C873 1.387 . S
C875 C877 1.390 . S
C875 H879 0.950 . S
H876 C872 0.950 . S
C877 C875 1.390 . S
C877 C878 1.387 . S
C877 H880 0.950 . S
C878 C877 1.387 . S
C878 C881 1.387 . S
H879 C875 0.950 . S
H880 C877 0.950 . S
C881 C872 1.390 . S
C881 H874 0.950 . S
C881 C878 1.387 . S
C882 C883 1.387 . S
C882 H886 0.950 . S
C882 C891 1.390 . S
C883 C882 1.387 . S
C883 C885 1.387 . S
H884 C891 0.950 . S
C885 C883 1.387 . S
C885 C887 1.390 . S
C885 H889 0.950 . S
H886 C882 0.950 . S
C887 C885 1.390 . S
C887 C888 1.387 . S
C887 H890 0.950 . S
C888 C887 1.387 . S
C888 C891 1.387 . S
H889 C885 0.950 . S
H890 C887 0.950 . S
C891 C882 1.390 . S
C891 H884 0.950 . S
C891 C888 1.387 . S
C892 C893 1.387 . S
C892 H896 0.950 . S
C892 C901 1.390 . S
C893 C892 1.387 . S
C893 C895 1.387 . S
H894 C901 0.950 . S
C895 C893 1.387 . S
C895 C897 1.390 . S
C895 H899 0.950 . S
H896 C892 0.950 . S
C897 C895 1.390 . S
C897 C898 1.387 . S
C897 H900 0.950 . S
C898 C897 1.387 . S
C898 C901 1.387 . S
H899 C895 0.950 . S
H900 C897 0.950 . S
C901 C892 1.390 . S
C901 H894 0.950 . S
C901 C898 1.387 . S
C902 C903 1.387 . S
C902 H906 0.950 . S
C902 C911 1.390 . S
C903 C902 1.387 . S
C903 C905 1.387 . S
H904 C911 0.950 . S
C905 C903 1.387 . S
C905 C907 1.390 . S
C905 H909 0.950 . S
H906 C902 0.950 . S
C907 C905 1.390 . S
C907 C908 1.387 . S
C907 H910 0.950 . S
C908 C907 1.387 . S
C908 C911 1.387 . S
H909 C905 0.950 . S
H910 C907 0.950 . S
C911 C902 1.390 . S
C911 H904 0.950 . S
C911 C908 1.387 . S
C912 C913 1.387 . S
C912 H916 0.950 . S
C912 C921 1.390 . S
C913 C912 1.387 . S
C913 C915 1.387 . S
H914 C921 0.950 . S
C915 C913 1.387 . S
C915 C917 1.390 . S
C915 H919 0.950 . S
H916 C912 0.950 . S
C917 C915 1.390 . S
C917 C918 1.387 . S
C917 H920 0.950 . S
C918 C917 1.387 . S
C918 C921 1.387 . S
H919 C915 0.950 . S
H920 C917 0.950 . S
C921 C912 1.390 . S
C921 H914 0.950 . S
C921 C918 1.387 . S
C922 C923 1.387 . S
C922 H926 0.950 . S
C922 C931 1.390 . S
C923 C922 1.387 . S
C923 C925 1.387 . S
H924 C931 0.950 . S
C925 C923 1.387 . S
C925 C927 1.390 . S
C925 H929 0.950 . S
H926 C922 0.950 . S
C927 C925 1.390 . S
C927 C928 1.387 . S
C927 H930 0.950 . S
C928 C927 1.387 . S
C928 C931 1.387 . S
H929 C925 0.950 . S
H930 C927 0.950 . S
C931 C922 1.390 . S
C931 H924 0.950 . S
C931 C928 1.387 . S
C932 C933 1.387 . S
C932 H936 0.950 . S
C932 C941 1.390 . S
C933 C932 1.387 . S
C933 C935 1.387 . S
H934 C941 0.950 . S
C935 C933 1.387 . S
C935 C937 1.390 . S
C935 H939 0.950 . S
H936 C932 0.950 . S
C937 C935 1.390 . S
C937 C938 1.387 . S
C937 H940 0.950 . S
C938 C937 1.387 . S
C938 C941 1.387 . S
H939 C935 0.950 . S
H940 C937 0.950 . S
C941 C932 1.390 . S
C941 H934 0.950 . S
C941 C938 1.387 . S
C942 C943 1.387 . S
C942 H946 0.950 . S
C942 C951 1.390 . S
C943 C942 1.387 . S
C943 C945 1.387 1_556 S
H944 C951 0.950 . S
C945 C943 1.387 1_554 S
C945 C947 1.390 . S
C945 H949 0.950 . S
H946 C942 0.950 . S
C947 C945 1.390 . S
C947 C948 1.387 . S
C947 H950 0.950 . S
C948 C947 1.387 . S
C948 C951 1.387 1_554 S
H949 C945 0.950 . S
H950 C947 0.950 . S
C951 C942 1.390 . S
C951 H944 0.950 . S
C951 C948 1.387 1_556 S
C952 C953 1.387 . S
C952 H956 0.950 . S
C952 C961 1.390 . S
C953 C952 1.387 . S
C953 C955 1.387 . S
H954 C961 0.950 . S
C955 C953 1.387 . S
C955 C957 1.390 . S
C955 H959 0.950 . S
H956 C952 0.950 . S
C957 C955 1.390 . S
C957 C958 1.387 . S
C957 H960 0.950 . S
C958 C957 1.387 . S
C958 C961 1.387 . S
H959 C955 0.950 . S
H960 C957 0.950 . S
C961 C952 1.390 . S
C961 H954 0.950 . S
C961 C958 1.387 . S
C962 C963 1.387 . S
C962 H966 0.950 . S
C962 C971 1.390 . S
C963 C962 1.387 . S
C963 C965 1.387 . S
H964 C971 0.950 . S
C965 C963 1.387 . S
C965 C967 1.390 . S
C965 H969 0.950 . S
H966 C962 0.950 . S
C967 C965 1.390 . S
C967 C968 1.387 . S
C967 H970 0.950 . S
C968 C967 1.387 . S
C968 C971 1.387 . S
H969 C965 0.950 . S
H970 C967 0.950 . S
C971 C962 1.390 . S
C971 H964 0.950 . S
C971 C968 1.387 . S
C972 C973 1.387 . S
C972 H976 0.950 . S
C972 C981 1.390 . S
C973 C972 1.387 . S
C973 C975 1.387 . S
H974 C981 0.950 . S
C975 C973 1.387 . S
C975 C977 1.390 . S
C975 H979 0.950 . S
H976 C972 0.950 . S
C977 C975 1.390 . S
C977 C978 1.387 . S
C977 H980 0.950 . S
C978 C977 1.387 . S
C978 C981 1.387 . S
H979 C975 0.950 . S
H980 C977 0.950 . S
C981 C972 1.390 . S
C981 H974 0.950 . S
C981 C978 1.387 . S
C982 C983 1.387 . S
C982 H986 0.950 . S
C982 C991 1.390 . S
C983 C982 1.387 . S
C983 C985 1.387 1_554 S
H984 C991 0.950 . S
C985 C983 1.387 1_556 S
C985 C987 1.390 . S
C985 H989 0.950 . S
H986 C982 0.950 . S
C987 C985 1.390 . S
C987 C988 1.387 . S
C987 H990 0.950 . S
C988 C987 1.387 . S
C988 C991 1.387 1_556 S
H989 C985 0.950 . S
H990 C987 0.950 . S
C991 C982 1.390 . S
C991 H984 0.950 . S
C991 C988 1.387 1_554 S
C992 C993 1.387 . S
C992 H996 0.950 . S
C992 C1001 1.390 . S
C993 C992 1.387 . S
C993 C995 1.387 . S
H994 C1001 0.950 . S
C995 C993 1.387 . S
C995 C997 1.390 . S
C995 H999 0.950 . S
H996 C992 0.950 . S
C997 C995 1.390 . S
C997 C998 1.387 . S
C997 H1000 0.950 . S
C998 C997 1.387 . S
C998 C1001 1.387 . S
H999 C995 0.950 . S
H1000 C997 0.950 . S
C1001 C992 1.390 . S
C1001 H994 0.950 . S
C1001 C998 1.387 . S
C1002 C1003 1.387 . S
C1002 H1006 0.950 . S
C1002 C1011 1.390 1_565 S
C1003 C1002 1.387 . S
C1003 C1005 1.387 1_565 S
H1004 C1011 0.950 . S
C1005 C1003 1.387 1_545 S
C1005 C1007 1.390 . S
C1005 H1009 0.950 1_455 S
H1006 C1002 0.950 . S
C1007 C1005 1.390 . S
C1007 C1008 1.387 . S
C1007 H1010 0.950 . S
C1008 C1007 1.387 . S
C1008 C1011 1.387 . S
H1009 C1005 0.950 1_655 S
H1010 C1007 0.950 . S
C1011 C1002 1.390 1_545 S
C1011 H1004 0.950 . S
C1011 C1008 1.387 . S
C1012 C1013 1.387 . S
C1012 H1016 0.950 . S
C1012 C1021 1.390 . S
C1013 C1012 1.387 . S
C1013 C1015 1.387 . S
H1014 C1021 0.950 . S
C1015 C1013 1.387 . S
C1015 C1017 1.390 . S
C1015 H1019 0.950 . S
H1016 C1012 0.950 . S
C1017 C1015 1.390 . S
C1017 C1018 1.387 . S
C1017 H1020 0.950 . S
C1018 C1017 1.387 . S
C1018 C1021 1.387 . S
H1019 C1015 0.950 . S
H1020 C1017 0.950 . S
C1021 C1012 1.390 . S
C1021 H1014 0.950 . S
C1021 C1018 1.387 . S
C1022 C1023 1.387 1_565 S
C1022 H1026 0.950 . S
C1022 C1031 1.390 . S
C1023 C1022 1.387 1_545 S
C1023 C1025 1.387 . S
H1024 C1031 0.950 . S
C1025 C1023 1.387 . S
C1025 C1027 1.390 . S
C1025 H1029 0.950 . S
H1026 C1022 0.950 . S
C1027 C1025 1.390 . S
C1027 C1028 1.387 1_545 S
C1027 H1030 0.950 . S
C1028 C1027 1.387 1_565 S
C1028 C1031 1.387 . S
H1029 C1025 0.950 . S
H1030 C1027 0.950 . S
C1031 C1022 1.390 . S
C1031 H1024 0.950 . S
C1031 C1028 1.387 . S
C1032 C1033 1.387 . S
C1032 H1036 0.950 . S
C1032 C1041 1.390 . S
C1033 C1032 1.387 . S
C1033 C1035 1.387 . S
H1034 C1041 0.950 . S
C1035 C1033 1.387 . S
C1035 C1037 1.390 . S
C1035 H1039 0.950 . S
H1036 C1032 0.950 . S
C1037 C1035 1.390 . S
C1037 C1038 1.387 . S
C1037 H1040 0.950 . S
C1038 C1037 1.387 . S
C1038 C1041 1.387 . S
H1039 C1035 0.950 . S
H1040 C1037 0.950 . S
C1041 C1032 1.390 . S
C1041 H1034 0.950 . S
C1041 C1038 1.387 . S
C1042 C1043 1.387 1_545 S
C1042 H1046 0.950 . S
C1042 C1051 1.390 . S
C1043 C1042 1.387 1_565 S
C1043 C1045 1.387 . S
H1044 C1051 0.950 . S
C1045 C1043 1.387 . S
C1045 C1047 1.390 . S
C1045 H1049 0.950 . S
H1046 C1042 0.950 . S
C1047 C1045 1.390 . S
C1047 C1048 1.387 1_565 S
C1047 H1050 0.950 . S
C1048 C1047 1.387 1_545 S
C1048 C1051 1.387 . S
H1049 C1045 0.950 . S
H1050 C1047 0.950 . S
C1051 C1042 1.390 . S
C1051 H1044 0.950 . S
C1051 C1048 1.387 . S
C1052 C1053 1.387 . S
C1052 H1056 0.950 . S
C1052 C1061 1.390 . S
C1053 C1052 1.387 . S
C1053 C1055 1.387 . S
H1054 C1061 0.950 . S
C1055 C1053 1.387 . S
C1055 C1057 1.390 . S
C1055 H1059 0.950 . S
H1056 C1052 0.950 . S
C1057 C1055 1.390 . S
C1057 C1058 1.387 . S
C1057 H1060 0.950 . S
C1058 C1057 1.387 . S
C1058 C1061 1.387 . S
H1059 C1055 0.950 . S
H1060 C1057 0.950 . S
C1061 C1052 1.390 . S
C1061 H1054 0.950 . S
C1061 C1058 1.387 . S
C1062 C1063 1.387 . S
C1062 H1066 0.950 . S
C1062 C1071 1.390 . S
C1063 C1062 1.387 . S
C1063 C1065 1.387 1_565 S
H1064 C1071 0.950 . S
C1065 C1063 1.387 1_545 S
C1065 C1067 1.390 . S
C1065 H1069 0.950 . S
H1066 C1062 0.950 . S
C1067 C1065 1.390 . S
C1067 C1068 1.387 . S
C1067 H1070 0.950 . S
C1068 C1067 1.387 . S
C1068 C1071 1.387 1_545 S
H1069 C1065 0.950 . S
H1070 C1067 0.950 . S
C1071 C1062 1.390 . S
C1071 H1064 0.950 . S
C1071 C1068 1.387 1_565 S
C1072 C1073 1.387 . S
C1072 H1076 0.950 . S
C1072 C1081 1.390 . S
C1073 C1072 1.387 . S
C1073 C1075 1.387 . S
H1074 C1081 0.950 . S
C1075 C1073 1.387 . S
C1075 C1077 1.390 . S
C1075 H1079 0.950 . S
H1076 C1072 0.950 . S
C1077 C1075 1.390 . S
C1077 C1078 1.387 . S
C1077 H1080 0.950 . S
C1078 C1077 1.387 . S
C1078 C1081 1.387 . S
H1079 C1075 0.950 . S
H1080 C1077 0.950 . S
C1081 C1072 1.390 . S
C1081 H1074 0.950 . S
C1081 C1078 1.387 . S
C1082 C1083 1.387 . S
C1082 H1086 0.950 . S
C1082 C1091 1.390 . S
C1083 C1082 1.387 . S
C1083 C1085 1.387 . S
H1084 C1091 0.950 . S
C1085 C1083 1.387 . S
C1085 C1087 1.390 . S
C1085 H1089 0.950 . S
H1086 C1082 0.950 . S
C1087 C1085 1.390 . S
C1087 C1088 1.387 . S
C1087 H1090 0.950 . S
C1088 C1087 1.387 . S
C1088 C1091 1.387 . S
H1089 C1085 0.950 . S
H1090 C1087 0.950 . S
C1091 C1082 1.390 . S
C1091 H1084 0.950 . S
C1091 C1088 1.387 . S
C1092 C1093 1.387 . S
C1092 H1096 0.950 . S
C1092 C1101 1.390 1_655 S
C1093 C1092 1.387 . S
C1093 C1095 1.387 . S
H1094 C1101 0.950 . S
C1095 C1093 1.387 . S
C1095 C1097 1.390 1_655 S
C1095 H1099 0.963 . S
H1096 C1092 0.950 . S
C1097 C1095 1.390 1_455 S
C1097 C1098 1.387 . S
C1097 H1100 0.950 . S
C1098 C1097 1.387 . S
C1098 C1101 1.387 . S
H1099 C1095 0.963 . S
H1100 C1097 0.950 . S
C1101 C1092 1.390 1_455 S
C1101 H1094 0.950 . S
C1101 C1098 1.387 . S
C1102 C1103 1.387 . S
C1102 H1106 0.950 . S
C1102 C1111 1.390 . S
C1103 C1102 1.387 . S
C1103 C1105 1.387 . S
H1104 C1111 0.950 . S
C1105 C1103 1.387 . S
C1105 C1107 1.390 . S
C1105 H1109 0.950 . S
H1106 C1102 0.950 . S
C1107 C1105 1.390 . S
C1107 C1108 1.387 . S
C1107 H1110 0.950 . S
C1108 C1107 1.387 . S
C1108 C1111 1.387 . S
H1109 C1105 0.950 . S
H1110 C1107 0.950 . S
C1111 C1102 1.390 . S
C1111 H1104 0.950 . S
C1111 C1108 1.387 . S
C1112 C1113 1.387 1_655 S
C1112 H1116 0.950 1_554 S
C1112 C1121 1.390 . S
C1113 C1112 1.387 1_455 S
C1113 C1115 1.387 . S
H1114 C1121 0.950 . S
C1115 C1113 1.387 . S
C1115 C1117 1.390 . S
C1115 H1119 0.950 . S
H1116 C1112 0.950 1_556 S
C1117 C1115 1.390 . S
C1117 C1118 1.387 1_455 S
C1117 H1120 0.950 . S
C1118 C1117 1.387 1_655 S
C1118 C1121 1.387 . S
H1119 C1115 0.950 . S
H1120 C1117 0.950 . S
C1121 C1112 1.390 . S
C1121 H1114 0.950 . S
C1121 C1118 1.387 . S
C1122 C1123 1.387 . S
C1122 H1126 0.950 . S
C1122 C1131 1.390 . S
C1123 C1122 1.387 . S
C1123 C1125 1.387 . S
H1124 C1131 0.950 . S
C1125 C1123 1.387 . S
C1125 C1127 1.390 . S
C1125 H1129 0.950 . S
H1126 C1122 0.950 . S
C1127 C1125 1.390 . S
C1127 C1128 1.387 . S
C1127 H1130 0.950 . S
C1128 C1127 1.387 . S
C1128 C1131 1.387 . S
H1129 C1125 0.950 . S
H1130 C1127 0.950 . S
C1131 C1122 1.390 . S
C1131 H1124 0.950 . S
C1131 C1128 1.387 . S
C1132 C1133 1.387 1_455 S
C1132 H1136 0.950 . S
C1132 C1141 1.390 . S
C1133 C1132 1.387 1_655 S
C1133 C1135 1.387 . S
H1134 C1141 0.950 . S
C1135 C1133 1.387 . S
C1135 C1137 1.390 . S
C1135 H1139 0.950 . S
H1136 C1132 0.950 . S
C1137 C1135 1.390 . S
C1137 C1138 1.387 1_655 S
C1137 H1140 0.950 . S
C1138 C1137 1.387 1_455 S
C1138 C1141 1.387 . S
H1139 C1135 0.950 . S
H1140 C1137 0.950 . S
C1141 C1132 1.390 . S
C1141 H1134 0.950 . S
C1141 C1138 1.387 . S
C1142 C1143 1.387 . S
C1142 H1146 0.950 . S
C1142 C1151 1.390 . S
C1143 C1142 1.387 . S
C1143 C1145 1.387 . S
H1144 C1151 0.971 . S
C1145 C1143 1.387 . S
C1145 C1147 1.390 . S
C1145 H1149 0.950 . S
H1146 C1142 0.950 . S
C1147 C1145 1.390 . S
C1147 C1148 1.387 . S
C1147 H1150 0.950 . S
C1148 C1147 1.387 . S
C1148 C1151 1.387 . S
H1149 C1145 0.950 . S
H1150 C1147 0.950 . S
C1151 C1142 1.390 . S
C1151 H1144 0.971 . S
C1151 C1148 1.387 . S
C1152 C1153 1.387 . S
C1152 H1156 0.950 . S
C1152 C1161 1.390 . S
C1153 C1152 1.387 . S
C1153 C1155 1.387 . S
H1154 C1161 0.950 . S
C1155 C1153 1.387 . S
C1155 C1157 1.390 . S
C1155 H1159 0.950 . S
H1156 C1152 0.950 . S
C1157 C1155 1.390 . S
C1157 C1158 1.387 . S
C1157 H1160 0.950 . S
C1158 C1157 1.387 . S
C1158 C1161 1.387 . S
H1159 C1155 0.950 . S
H1160 C1157 0.950 . S
C1161 C1152 1.390 . S
C1161 H1154 0.950 . S
C1161 C1158 1.387 . S
C1162 C1163 1.387 1_556 S
C1162 H1166 0.950 . S
C1162 C1171 1.390 . S
C1163 C1162 1.387 1_554 S
C1163 C1165 1.387 . S
H1164 C1171 0.950 . S
C1165 C1163 1.387 . S
C1165 C1167 1.390 . S
C1165 H1169 0.950 . S
H1166 C1162 0.950 . S
C1167 C1165 1.390 . S
C1167 C1168 1.387 1_554 S
C1167 H1170 0.950 . S
C1168 C1167 1.387 1_556 S
C1168 C1171 1.387 . S
H1169 C1165 0.950 . S
H1170 C1167 0.950 . S
C1171 C1162 1.390 . S
C1171 H1164 0.950 . S
C1171 C1168 1.387 . S
C1172 C1173 1.387 . S
C1172 H1176 0.950 . S
C1172 C1181 1.390 . S
C1173 C1172 1.387 . S
C1173 C1175 1.387 . S
H1174 C1181 0.950 . S
C1175 C1173 1.387 . S
C1175 C1177 1.390 . S
C1175 H1179 0.950 . S
H1176 C1172 0.950 . S
C1177 C1175 1.390 . S
C1177 C1178 1.387 . S
C1177 H1180 0.950 . S
C1178 C1177 1.387 . S
C1178 C1181 1.387 . S
H1179 C1175 0.950 . S
H1180 C1177 0.950 . S
C1181 C1172 1.390 . S
C1181 H1174 0.950 . S
C1181 C1178 1.387 . S
C1182 C1183 1.387 . S
C1182 H1186 0.950 . S
C1182 C1191 1.390 . S
C1183 C1182 1.387 . S
C1183 C1185 1.387 . S
H1184 C1191 0.950 . S
C1185 C1183 1.387 . S
C1185 C1187 1.390 . S
C1185 H1189 0.950 . S
H1186 C1182 0.950 . S
C1187 C1185 1.390 . S
C1187 C1188 1.387 . S
C1187 H1190 0.950 . S
C1188 C1187 1.387 . S
C1188 C1191 1.387 . S
H1189 C1185 0.950 . S
H1190 C1187 0.950 . S
C1191 C1182 1.390 . S
C1191 H1184 0.950 . S
C1191 C1188 1.387 . S
C1192 C1193 1.387 . S
C1192 H1196 0.950 . S
C1192 C1201 1.390 . S
C1193 C1192 1.387 . S
C1193 C1195 1.387 . S
H1194 C1201 0.950 . S
C1195 C1193 1.387 . S
C1195 C1197 1.390 . S
C1195 H1199 0.950 . S
H1196 C1192 0.950 . S
C1197 C1195 1.390 . S
C1197 C1198 1.387 . S
C1197 H1200 0.950 . S
C1198 C1197 1.387 . S
C1198 C1201 1.387 . S
H1199 C1195 0.950 . S
H1200 C1197 0.950 . S
C1201 C1192 1.390 . S
C1201 H1194 0.950 . S
C1201 C1198 1.387 . S
C1202 C1203 1.387 . S
C1202 H1206 0.950 . S
C1202 C1211 1.390 . S
C1203 C1202 1.387 . S
C1203 C1205 1.387 1_556 S
H1204 C1211 0.950 . S
C1205 C1203 1.387 1_554 S
C1205 C1207 1.390 . S
C1205 H1209 0.950 . S
H1206 C1202 0.950 . S
C1207 C1205 1.390 . S
C1207 C1208 1.387 . S
C1207 H1210 0.950 . S
C1208 C1207 1.387 . S
C1208 C1211 1.387 1_554 S
H1209 C1205 0.950 . S
H1210 C1207 0.950 . S
C1211 C1202 1.390 . S
C1211 H1204 0.950 . S
C1211 C1208 1.387 1_556 S
C1212 C1213 1.387 . S
C1212 H1216 0.950 . S
C1212 C1221 1.390 . S
C1213 C1212 1.387 . S
C1213 C1215 1.387 . S
H1214 C1221 0.950 . S
C1215 C1213 1.387 . S
C1215 C1217 1.390 . S
C1215 H1219 0.950 . S
H1216 C1212 0.950 . S
C1217 C1215 1.390 . S
C1217 C1218 1.387 . S
C1217 H1220 0.950 . S
C1218 C1217 1.387 . S
C1218 C1221 1.387 . S
H1219 C1215 0.950 . S
H1220 C1217 0.950 . S
C1221 C1212 1.390 . S
C1221 H1214 0.950 . S
C1221 C1218 1.387 . S
C1222 C1223 1.387 . S
C1222 H1226 0.950 . S
C1222 C1231 1.390 . S
C1223 C1222 1.387 . S
C1223 C1225 1.387 . S
H1224 C1231 0.950 . S
C1225 C1223 1.387 . S
C1225 C1227 1.390 . S
C1225 H1229 0.950 . S
H1226 C1222 0.950 . S
C1227 C1225 1.390 . S
C1227 C1228 1.387 . S
C1227 H1230 0.950 . S
C1228 C1227 1.387 . S
C1228 C1231 1.387 . S
H1229 C1225 0.950 . S
H1230 C1227 0.950 . S
C1231 C1222 1.390 . S
C1231 H1224 0.950 . S
C1231 C1228 1.387 . S
C1232 C1233 1.387 . S
C1232 H1236 0.950 . S
C1232 C1241 1.390 . S
C1233 C1232 1.387 . S
C1233 C1235 1.387 . S
H1234 C1241 0.950 . S
C1235 C1233 1.387 . S
C1235 C1237 1.390 . S
C1235 H1239 0.950 . S
H1236 C1232 0.950 . S
C1237 C1235 1.390 . S
C1237 C1238 1.387 . S
C1237 H1240 0.950 . S
C1238 C1237 1.387 . S
C1238 C1241 1.387 . S
H1239 C1235 0.950 . S
H1240 C1237 0.950 . S
C1241 C1232 1.390 . S
C1241 H1234 0.950 . S
C1241 C1238 1.387 . S
C1242 C1243 1.387 . S
C1242 H1246 0.950 . S
C1242 C1251 1.390 . S
C1243 C1242 1.387 . S
C1243 C1245 1.387 . S
H1244 C1251 0.950 . S
C1245 C1243 1.387 . S
C1245 C1247 1.390 . S
C1245 H1249 0.950 . S
H1246 C1242 0.950 . S
C1247 C1245 1.390 . S
C1247 C1248 1.387 . S
C1247 H1250 0.950 . S
C1248 C1247 1.387 . S
C1248 C1251 1.387 . S
H1249 C1245 0.950 . S
H1250 C1247 0.950 . S
C1251 C1242 1.390 . S
C1251 H1244 0.950 . S
C1251 C1248 1.387 . S
C1252 C1253 1.387 . S
C1252 H1256 0.950 . S
C1252 C1261 1.390 . S
C1253 C1252 1.387 . S
C1253 C1255 1.387 . S
H1254 C1261 0.950 . S
C1255 C1253 1.387 . S
C1255 C1257 1.390 . S
C1255 H1259 0.950 . S
H1256 C1252 0.950 . S
C1257 C1255 1.390 . S
C1257 C1258 1.387 . S
C1257 H1260 0.950 . S
C1258 C1257 1.387 . S
C1258 C1261 1.387 . S
H1259 C1255 0.950 . S
H1260 C1257 0.950 . S
C1261 C1252 1.390 . S
C1261 H1254 0.950 . S
C1261 C1258 1.387 . S
C1262 C1263 1.387 . S
C1262 H1266 0.950 . S
C1262 C1271 1.390 . S
C1263 C1262 1.387 . S
C1263 C1265 1.387 . S
H1264 C1271 0.950 . S
C1265 C1263 1.387 . S
C1265 C1267 1.390 . S
C1265 H1269 0.950 . S
H1266 C1262 0.950 . S
C1267 C1265 1.390 . S
C1267 C1268 1.387 . S
C1267 H1270 0.950 . S
C1268 C1267 1.387 . S
C1268 C1271 1.387 . S
H1269 C1265 0.950 . S
H1270 C1267 0.950 . S
C1271 C1262 1.390 . S
C1271 H1264 0.950 . S
C1271 C1268 1.387 . S
C1272 C1273 1.387 . S
C1272 H1276 0.950 . S
C1272 C1281 1.390 . S
C1273 C1272 1.387 . S
C1273 C1275 1.387 . S
H1274 C1281 0.950 . S
C1275 C1273 1.387 . S
C1275 C1277 1.390 . S
C1275 H1279 0.950 . S
H1276 C1272 0.950 . S
C1277 C1275 1.390 . S
C1277 C1278 1.387 . S
C1277 H1280 0.950 . S
C1278 C1277 1.387 . S
C1278 C1281 1.387 . S
H1279 C1275 0.950 . S
H1280 C1277 0.950 . S
C1281 C1272 1.390 . S
C1281 H1274 0.950 . S
C1281 C1278 1.387 . S
C1282 C1283 1.387 . S
C1282 H1286 0.950 . S
C1282 C1291 1.390 . S
C1283 C1282 1.387 . S
C1283 C1285 1.387 . S
H1284 C1291 0.950 . S
C1285 C1283 1.387 . S
C1285 C1287 1.390 . S
C1285 H1289 0.950 . S
H1286 C1282 0.950 . S
C1287 C1285 1.390 . S
C1287 C1288 1.387 . S
C1287 H1290 0.950 . S
C1288 C1287 1.387 . S
C1288 C1291 1.387 . S
H1289 C1285 0.950 . S
H1290 C1287 0.950 . S
C1291 C1282 1.390 . S
C1291 H1284 0.950 . S
C1291 C1288 1.387 . S
C1292 C1293 1.387 . S
C1292 H1296 0.950 . S
C1292 C1301 1.390 . S
C1293 C1292 1.387 . S
C1293 C1295 1.387 . S
H1294 C1301 0.950 . S
C1295 C1293 1.387 . S
C1295 C1297 1.390 . S
C1295 H1299 0.950 . S
H1296 C1292 0.950 . S
C1297 C1295 1.390 . S
C1297 C1298 1.387 . S
C1297 H1300 0.950 . S
C1298 C1297 1.387 . S
C1298 C1301 1.387 . S
H1299 C1295 0.950 . S
H1300 C1297 0.950 . S
C1301 C1292 1.390 . S
C1301 H1294 0.950 . S
C1301 C1298 1.387 . S
C1302 C1303 1.387 . S
C1302 H1306 0.950 . S
C1302 C1311 1.390 . S
C1303 C1302 1.387 . S
C1303 C1305 1.387 . S
H1304 C1311 0.950 . S
C1305 C1303 1.387 . S
C1305 C1307 1.390 . S
C1305 H1309 0.950 . S
H1306 C1302 0.950 . S
C1307 C1305 1.390 . S
C1307 C1308 1.387 . S
C1307 H1310 0.950 . S
C1308 C1307 1.387 . S
C1308 C1311 1.387 . S
H1309 C1305 0.950 . S
H1310 C1307 0.950 . S
C1311 C1302 1.390 . S
C1311 H1304 0.950 . S
C1311 C1308 1.387 . S
C1312 C1313 1.387 . S
C1312 H1316 0.950 . S
C1312 C1321 1.390 . S
C1313 C1312 1.387 . S
C1313 C1315 1.387 . S
H1314 C1321 0.950 . S
C1315 C1313 1.387 . S
C1315 C1317 1.390 . S
C1315 H1319 0.950 . S
H1316 C1312 0.950 . S
C1317 C1315 1.390 . S
C1317 C1318 1.387 . S
C1317 H1320 0.950 . S
C1318 C1317 1.387 . S
C1318 C1321 1.387 . S
H1319 C1315 0.950 . S
H1320 C1317 0.950 . S
C1321 C1312 1.390 . S
C1321 H1314 0.950 . S
C1321 C1318 1.387 . S
C1322 C1323 1.387 . S
C1322 H1326 0.950 . S
C1322 C1331 1.390 . S
C1323 C1322 1.387 . S
C1323 C1325 1.387 . S
H1324 C1331 0.950 . S
C1325 C1323 1.387 . S
C1325 C1327 1.390 . S
C1325 H1329 0.950 . S
H1326 C1322 0.950 . S
C1327 C1325 1.390 . S
C1327 C1328 1.387 . S
C1327 H1330 0.950 . S
C1328 C1327 1.387 . S
C1328 C1331 1.387 . S
H1329 C1325 0.950 . S
H1330 C1327 0.950 . S
C1331 C1322 1.390 . S
C1331 H1324 0.950 . S
C1331 C1328 1.387 . S
C1332 C1333 1.387 . S
C1332 H1336 0.950 . S
C1332 C1341 1.390 . S
C1333 C1332 1.387 . S
C1333 C1335 1.387 . S
H1334 C1341 0.950 . S
C1335 C1333 1.387 . S
C1335 C1337 1.390 . S
C1335 H1339 0.950 . S
H1336 C1332 0.950 . S
C1337 C1335 1.390 . S
C1337 C1338 1.387 . S
C1337 H1340 0.950 . S
C1338 C1337 1.387 . S
C1338 C1341 1.387 . S
H1339 C1335 0.950 . S
H1340 C1337 0.950 . S
C1341 C1332 1.390 . S
C1341 H1334 0.950 . S
C1341 C1338 1.387 . S
C1342 C1343 1.387 . S
C1342 H1346 0.950 . S
C1342 C1351 1.390 . S
C1343 C1342 1.387 . S
C1343 C1345 1.387 . S
H1344 C1351 0.950 . S
C1345 C1343 1.387 . S
C1345 C1347 1.390 . S
C1345 H1349 0.950 . S
H1346 C1342 0.950 . S
C1347 C1345 1.390 . S
C1347 C1348 1.387 . S
C1347 H1350 0.950 . S
C1348 C1347 1.387 . S
C1348 C1351 1.387 . S
H1349 C1345 0.950 . S
H1350 C1347 0.950 . S
C1351 C1342 1.390 . S
C1351 H1344 0.950 . S
C1351 C1348 1.387 . S
C1352 C1353 1.387 . S
C1352 H1356 0.950 . S
C1352 C1361 1.390 . S
C1353 C1352 1.387 . S
C1353 C1355 1.387 . S
H1354 C1361 0.950 . S
C1355 C1353 1.387 . S
C1355 C1357 1.390 . S
C1355 H1359 0.950 . S
H1356 C1352 0.950 . S
C1357 C1355 1.390 . S
C1357 C1358 1.387 . S
C1357 H1360 0.950 . S
C1358 C1357 1.387 . S
C1358 C1361 1.387 . S
H1359 C1355 0.950 . S
H1360 C1357 0.950 . S
C1361 C1352 1.390 . S
C1361 H1354 0.950 . S
C1361 C1358 1.387 . S
C1362 C1363 1.387 . S
C1362 H1366 0.950 . S
C1362 C1371 1.390 . S
C1363 C1362 1.387 . S
C1363 C1365 1.387 . S
H1364 C1371 0.950 . S
C1365 C1363 1.387 . S
C1365 C1367 1.390 . S
C1365 H1369 0.950 . S
H1366 C1362 0.950 . S
C1367 C1365 1.390 . S
C1367 C1368 1.387 . S
C1367 H1370 0.950 . S
C1368 C1367 1.387 . S
C1368 C1371 1.387 . S
H1369 C1365 0.950 . S
H1370 C1367 0.950 . S
C1371 C1362 1.390 . S
C1371 H1364 0.950 . S
C1371 C1368 1.387 . S
C1372 C1373 1.387 . S
C1372 H1376 0.950 . S
C1372 C1381 1.390 . S
C1373 C1372 1.387 . S
C1373 C1375 1.387 . S
H1374 C1381 0.950 . S
C1375 C1373 1.387 . S
C1375 C1377 1.390 . S
C1375 H1379 0.950 1_556 S
H1376 C1372 0.950 . S
C1377 C1375 1.390 . S
C1377 C1378 1.387 . S
C1377 H1380 0.950 . S
C1378 C1377 1.387 . S
C1378 C1381 1.387 . S
H1379 C1375 0.950 1_554 S
H1380 C1377 0.950 . S
C1381 C1372 1.390 . S
C1381 H1374 0.950 . S
C1381 C1378 1.387 . S
C1382 C1383 1.387 . S
C1382 H1386 0.950 . S
C1382 C1391 1.390 . S
C1383 C1382 1.387 . S
C1383 C1385 1.387 1_455 S
H1384 C1391 0.950 . S
C1385 C1383 1.387 1_655 S
C1385 C1387 1.390 . S
C1385 H1389 0.950 . S
H1386 C1382 0.950 . S
C1387 C1385 1.390 . S
C1387 C1388 1.387 . S
C1387 H1390 0.950 . S
C1388 C1387 1.387 . S
C1388 C1391 1.387 1_655 S
H1389 C1385 0.950 . S
H1390 C1387 0.950 . S
C1391 C1382 1.390 . S
C1391 H1384 0.950 . S
C1391 C1388 1.387 1_455 S
C1392 C1393 1.387 . S
C1392 H1396 0.950 . S
C1392 C1401 1.390 . S
C1393 C1392 1.387 . S
C1393 C1395 1.387 . S
H1394 C1401 0.950 . S
C1395 C1393 1.387 . S
C1395 C1397 1.390 . S
C1395 H1399 0.950 . S
H1396 C1392 0.950 . S
C1397 C1395 1.390 . S
C1397 C1398 1.387 . S
C1397 H1400 0.950 . S
C1398 C1397 1.387 . S
C1398 C1401 1.387 . S
H1399 C1395 0.950 . S
H1400 C1397 0.950 . S
C1401 C1392 1.390 . S
C1401 H1394 0.950 . S
C1401 C1398 1.387 . S
C1402 C1403 1.387 . S
C1402 H1406 0.950 . S
C1402 C1411 1.390 . S
C1403 C1402 1.387 . S
C1403 C1405 1.387 . S
H1404 C1411 0.950 . S
C1405 C1403 1.387 . S
C1405 C1407 1.390 . S
C1405 H1409 0.950 . S
H1406 C1402 0.950 . S
C1407 C1405 1.390 . S
C1407 C1408 1.387 . S
C1407 H1410 0.950 . S
C1408 C1407 1.387 . S
C1408 C1411 1.387 . S
H1409 C1405 0.950 . S
H1410 C1407 0.950 . S
C1411 C1402 1.390 . S
C1411 H1404 0.950 . S
C1411 C1408 1.387 . S
C1412 C1413 1.387 . S
C1412 H1416 0.950 . S
C1412 C1421 1.390 . S
C1413 C1412 1.387 . S
C1413 C1415 1.387 . S
H1414 C1421 0.950 . S
C1415 C1413 1.387 . S
C1415 C1417 1.390 . S
C1415 H1419 0.950 . S
H1416 C1412 0.950 . S
C1417 C1415 1.390 . S
C1417 C1418 1.387 . S
C1417 H1420 0.950 . S
C1418 C1417 1.387 . S
C1418 C1421 1.387 . S
H1419 C1415 0.950 . S
H1420 C1417 0.950 . S
C1421 C1412 1.390 . S
C1421 H1414 0.950 . S
C1421 C1418 1.387 . S
C1422 C1423 1.387 . S
C1422 H1426 0.950 . S
C1422 C1431 1.390 . S
C1423 C1422 1.387 . S
C1423 C1425 1.387 . S
H1424 C1431 0.950 . S
C1425 C1423 1.387 . S
C1425 C1427 1.390 . S
C1425 H1429 0.950 . S
H1426 C1422 0.950 . S
C1427 C1425 1.390 . S
C1427 C1428 1.387 . S
C1427 H1430 0.950 . S
C1428 C1427 1.387 . S
C1428 C1431 1.387 . S
H1429 C1425 0.950 . S
H1430 C1427 0.950 . S
C1431 C1422 1.390 . S
C1431 H1424 0.950 . S
C1431 C1428 1.387 . S
C1432 C1433 1.387 . S
C1432 H1436 0.950 . S
C1432 C1441 1.390 . S
C1433 C1432 1.387 . S
C1433 C1435 1.387 . S
H1434 C1441 0.950 . S
C1435 C1433 1.387 . S
C1435 C1437 1.390 . S
C1435 H1439 0.950 . S
H1436 C1432 0.950 . S
C1437 C1435 1.390 . S
C1437 C1438 1.387 . S
C1437 H1440 0.950 . S
C1438 C1437 1.387 . S
C1438 C1441 1.387 . S
H1439 C1435 0.950 . S
H1440 C1437 0.950 . S
C1441 C1432 1.390 . S
C1441 H1434 0.950 . S
C1441 C1438 1.387 . S
C1442 C1443 1.387 . S
C1442 H1446 0.950 . S
C1442 C1451 1.390 . S
C1443 C1442 1.387 . S
C1443 C1445 1.387 . S
H1444 C1451 0.950 . S
C1445 C1443 1.387 . S
C1445 C1447 1.390 . S
C1445 H1449 0.950 . S
H1446 C1442 0.950 . S
C1447 C1445 1.390 . S
C1447 C1448 1.387 . S
C1447 H1450 0.950 . S
C1448 C1447 1.387 . S
C1448 C1451 1.387 . S
H1449 C1445 0.950 . S
H1450 C1447 0.950 . S
C1451 C1442 1.390 . S
C1451 H1444 0.950 . S
C1451 C1448 1.387 . S
C1452 C1453 1.387 . S
C1452 H1456 0.950 . S
C1452 C1461 1.390 . S
C1453 C1452 1.387 . S
C1453 C1455 1.387 . S
H1454 C1461 0.950 . S
C1455 C1453 1.387 . S
C1455 C1457 1.390 . S
C1455 H1459 0.950 . S
H1456 C1452 0.950 . S
C1457 C1455 1.390 . S
C1457 C1458 1.387 . S
C1457 H1460 0.950 . S
C1458 C1457 1.387 . S
C1458 C1461 1.387 . S
H1459 C1455 0.950 . S
H1460 C1457 0.950 . S
C1461 C1452 1.390 . S
C1461 H1454 0.950 . S
C1461 C1458 1.387 . S
C1462 C1463 1.387 . S
C1462 H1466 0.950 . S
C1462 C1471 1.390 . S
C1463 C1462 1.387 . S
C1463 C1465 1.387 . S
H1464 C1471 0.950 . S
C1465 C1463 1.387 . S
C1465 C1467 1.390 . S
C1465 H1469 0.950 . S
H1466 C1462 0.950 . S
C1467 C1465 1.390 . S
C1467 C1468 1.387 . S
C1467 H1470 0.950 . S
C1468 C1467 1.387 . S
C1468 C1471 1.387 . S
H1469 C1465 0.950 . S
H1470 C1467 0.950 . S
C1471 C1462 1.390 . S
C1471 H1464 0.950 . S
C1471 C1468 1.387 . S
C1472 C1473 1.387 . S
C1472 H1476 0.950 . S
C1472 C1481 1.390 . S
C1473 C1472 1.387 . S
C1473 C1475 1.387 . S
H1474 C1481 0.950 . S
C1475 C1473 1.387 . S
C1475 C1477 1.390 . S
C1475 H1479 0.950 . S
H1476 C1472 0.950 . S
C1477 C1475 1.390 . S
C1477 C1478 1.387 . S
C1477 H1480 0.950 . S
C1478 C1477 1.387 . S
C1478 C1481 1.387 . S
H1479 C1475 0.950 . S
H1480 C1477 0.950 . S
C1481 C1472 1.390 . S
C1481 H1474 0.950 . S
C1481 C1478 1.387 . S
C1482 C1483 1.387 . S
C1482 H1486 0.950 . S
C1482 C1491 1.390 . S
C1483 C1482 1.387 . S
C1483 C1485 1.387 . S
H1484 C1491 0.950 . S
C1485 C1483 1.387 . S
C1485 C1487 1.390 . S
C1485 H1489 0.950 . S
H1486 C1482 0.950 . S
C1487 C1485 1.390 . S
C1487 C1488 1.387 . S
C1487 H1490 0.950 . S
C1488 C1487 1.387 . S
C1488 C1491 1.387 . S
H1489 C1485 0.950 . S
H1490 C1487 0.950 . S
C1491 C1482 1.390 . S
C1491 H1484 0.950 . S
C1491 C1488 1.387 . S
C1492 C1493 1.387 . S
C1492 H1496 0.950 . S
C1492 C1501 1.390 . S
C1493 C1492 1.387 . S
C1493 C1495 1.387 . S
H1494 C1501 0.950 . S
C1495 C1493 1.387 . S
C1495 C1497 1.390 . S
C1495 H1499 0.950 . S
H1496 C1492 0.950 . S
C1497 C1495 1.390 . S
C1497 C1498 1.387 . S
C1497 H1500 0.950 . S
C1498 C1497 1.387 . S
C1498 C1501 1.387 . S
H1499 C1495 0.950 . S
H1500 C1497 0.950 . S
C1501 C1492 1.390 . S
C1501 H1494 0.950 . S
C1501 C1498 1.387 . S
C1502 C1503 1.387 . S
C1502 H1506 0.950 . S
C1502 C1511 1.390 . S
C1503 C1502 1.387 . S
C1503 C1505 1.387 . S
H1504 C1511 0.950 . S
C1505 C1503 1.387 . S
C1505 C1507 1.390 . S
C1505 H1509 0.950 . S
H1506 C1502 0.950 . S
C1507 C1505 1.390 . S
C1507 C1508 1.387 . S
C1507 H1510 0.950 . S
C1508 C1507 1.387 . S
C1508 C1511 1.387 . S
H1509 C1505 0.950 . S
H1510 C1507 0.950 . S
C1511 C1502 1.390 . S
C1511 H1504 0.950 . S
C1511 C1508 1.387 . S
C1512 C1513 1.387 . S
C1512 H1516 0.950 . S
C1512 C1521 1.390 . S
C1513 C1512 1.387 . S
C1513 C1515 1.387 . S
H1514 C1521 0.950 . S
C1515 C1513 1.387 . S
C1515 C1517 1.390 . S
C1515 H1519 0.950 . S
H1516 C1512 0.950 . S
C1517 C1515 1.390 . S
C1517 C1518 1.387 . S
C1517 H1520 0.950 . S
C1518 C1517 1.387 . S
C1518 C1521 1.387 . S
H1519 C1515 0.950 . S
H1520 C1517 0.950 . S
C1521 C1512 1.390 . S
C1521 H1514 0.950 . S
C1521 C1518 1.387 . S
C1522 C1523 1.387 . S
C1522 H1526 0.950 . S
C1522 C1531 1.390 . S
C1523 C1522 1.387 . S
C1523 C1525 1.387 . S
H1524 C1531 0.950 . S
C1525 C1523 1.387 . S
C1525 C1527 1.390 . S
C1525 H1529 0.950 . S
H1526 C1522 0.950 . S
C1527 C1525 1.390 . S
C1527 C1528 1.387 . S
C1527 H1530 0.950 . S
C1528 C1527 1.387 . S
C1528 C1531 1.387 . S
H1529 C1525 0.950 . S
H1530 C1527 0.950 . S
C1531 C1522 1.390 . S
C1531 H1524 0.950 . S
C1531 C1528 1.387 . S
C1532 C1533 1.387 . S
C1532 H1536 0.950 . S
C1532 C1541 1.390 . S
C1533 C1532 1.387 . S
C1533 C1535 1.387 . S
H1534 C1541 0.950 . S
C1535 C1533 1.387 . S
C1535 C1537 1.390 . S
C1535 H1539 0.950 . S
H1536 C1532 0.950 . S
C1537 C1535 1.390 . S
C1537 C1538 1.387 . S
C1537 H1540 0.950 . S
C1538 C1537 1.387 . S
C1538 C1541 1.387 . S
H1539 C1535 0.950 . S
H1540 C1537 0.950 . S
C1541 C1532 1.390 . S
C1541 H1534 0.950 . S
C1541 C1538 1.387 . S
C1542 C1543 1.387 . S
C1542 H1546 0.950 . S
C1542 C1551 1.390 . S
C1543 C1542 1.387 . S
C1543 C1545 1.387 . S
H1544 C1551 0.950 . S
C1545 C1543 1.387 . S
C1545 C1547 1.390 . S
C1545 H1549 0.950 . S
H1546 C1542 0.950 . S
C1547 C1545 1.390 . S
C1547 C1548 1.387 . S
C1547 H1550 0.950 . S
C1548 C1547 1.387 . S
C1548 C1551 1.387 . S
H1549 C1545 0.950 . S
H1550 C1547 0.950 . S
C1551 C1542 1.390 . S
C1551 H1544 0.950 . S
C1551 C1548 1.387 . S
C1552 C1553 1.387 . S
C1552 H1556 0.950 . S
C1552 C1561 1.390 . S
C1553 C1552 1.387 . S
C1553 C1555 1.387 . S
H1554 C1561 0.950 . S
C1555 C1553 1.387 . S
C1555 C1557 1.390 . S
C1555 H1559 0.950 . S
H1556 C1552 0.950 . S
C1557 C1555 1.390 . S
C1557 C1558 1.387 . S
C1557 H1560 0.950 . S
C1558 C1557 1.387 . S
C1558 C1561 1.387 . S
H1559 C1555 0.950 . S
H1560 C1557 0.950 . S
C1561 C1552 1.390 . S
C1561 H1554 0.950 . S
C1561 C1558 1.387 . S
C1562 C1563 1.387 . S
C1562 H1566 0.950 . S
C1562 C1571 1.390 . S
C1563 C1562 1.387 . S
C1563 C1565 1.387 . S
H1564 C1571 0.950 . S
C1565 C1563 1.387 . S
C1565 C1567 1.390 . S
C1565 H1569 0.950 . S
H1566 C1562 0.950 . S
C1567 C1565 1.390 . S
C1567 C1568 1.387 . S
C1567 H1570 0.950 . S
C1568 C1567 1.387 . S
C1568 C1571 1.387 . S
H1569 C1565 0.950 . S
H1570 C1567 0.950 . S
C1571 C1562 1.390 . S
C1571 H1564 0.950 . S
C1571 C1568 1.387 . S
C1572 C1573 1.387 . S
C1572 H1576 0.950 . S
C1572 C1581 1.390 . S
C1573 C1572 1.387 . S
C1573 C1575 1.387 . S
H1574 C1581 0.950 . S
C1575 C1573 1.387 . S
C1575 C1577 1.390 . S
C1575 H1579 0.950 . S
H1576 C1572 0.950 . S
C1577 C1575 1.390 . S
C1577 C1578 1.387 . S
C1577 H1580 0.950 . S
C1578 C1577 1.387 . S
C1578 C1581 1.387 . S
H1579 C1575 0.950 . S
H1580 C1577 0.950 . S
C1581 C1572 1.390 . S
C1581 H1574 0.950 . S
C1581 C1578 1.387 . S
C1582 C1583 1.387 . S
C1582 H1586 0.950 . S
C1582 C1591 1.390 . S
C1583 C1582 1.387 . S
C1583 C1585 1.387 . S
H1584 C1591 0.950 . S
C1585 C1583 1.387 . S
C1585 C1587 1.390 . S
C1585 H1589 0.950 . S
H1586 C1582 0.950 . S
C1587 C1585 1.390 . S
C1587 C1588 1.387 . S
C1587 H1590 0.950 . S
C1588 C1587 1.387 . S
C1588 C1591 1.387 . S
H1589 C1585 0.950 . S
H1590 C1587 0.950 . S
C1591 C1582 1.390 . S
C1591 H1584 0.950 . S
C1591 C1588 1.387 . S
C1592 C1593 1.387 . S
C1592 H1596 0.950 . S
C1592 C1601 1.390 . S
C1593 C1592 1.387 . S
C1593 C1595 1.387 . S
H1594 C1601 0.950 . S
C1595 C1593 1.387 . S
C1595 C1597 1.390 . S
C1595 H1599 0.950 . S
H1596 C1592 0.950 . S
C1597 C1595 1.390 . S
C1597 C1598 1.387 . S
C1597 H1600 0.950 . S
C1598 C1597 1.387 . S
C1598 C1601 1.387 . S
H1599 C1595 0.950 . S
H1600 C1597 0.950 . S
C1601 C1592 1.390 . S
C1601 H1594 0.950 . S
C1601 C1598 1.387 . S
C1602 C1603 1.387 . S
C1602 H1606 0.950 . S
C1602 C1611 1.390 . S
C1603 C1602 1.387 . S
C1603 C1605 1.387 . S
H1604 C1611 0.950 . S
C1605 C1603 1.387 . S
C1605 C1607 1.390 . S
C1605 H1609 0.950 . S
H1606 C1602 0.950 . S
C1607 C1605 1.390 . S
C1607 C1608 1.387 . S
C1607 H1610 0.950 . S
C1608 C1607 1.387 . S
C1608 C1611 1.387 . S
H1609 C1605 0.950 . S
H1610 C1607 0.950 . S
C1611 C1602 1.390 . S
C1611 H1604 0.950 . S
C1611 C1608 1.387 . S
C1612 C1613 1.387 . S
C1612 H1616 0.950 . S
C1612 C1621 1.390 . S
C1613 C1612 1.387 . S
C1613 C1615 1.387 . S
H1614 C1621 0.950 . S
C1615 C1613 1.387 . S
C1615 C1617 1.390 . S
C1615 H1619 0.950 . S
H1616 C1612 0.950 . S
C1617 C1615 1.390 . S
C1617 C1618 1.387 . S
C1617 H1620 0.950 . S
C1618 C1617 1.387 . S
C1618 C1621 1.387 . S
H1619 C1615 0.950 . S
H1620 C1617 0.950 . S
C1621 C1612 1.390 . S
C1621 H1614 0.950 . S
C1621 C1618 1.387 . S
C1622 C1623 1.387 . S
C1622 H1626 0.950 . S
C1622 C1631 1.390 . S
C1623 C1622 1.387 . S
C1623 C1625 1.387 . S
H1624 C1631 0.950 . S
C1625 C1623 1.387 . S
C1625 C1627 1.390 . S
C1625 H1629 0.950 . S
H1626 C1622 0.950 . S
C1627 C1625 1.390 . S
C1627 C1628 1.387 . S
C1627 H1630 0.950 . S
C1628 C1627 1.387 . S
C1628 C1631 1.387 . S
H1629 C1625 0.950 . S
H1630 C1627 0.950 . S
C1631 C1622 1.390 . S
C1631 H1624 0.950 . S
C1631 C1628 1.387 . S
C673 C134 1.722 . S
C678 C8 1.722 . S
C683 C148 1.722 . S
C688 C22 1.722 . S
C693 C162 1.722 . S
C698 C36 1.722 . S
C703 C120 1.722 . S
C708 C50 1.722 . S
C713 C64 1.722 . S
C718 C218 1.722 . S
C723 C78 1.722 . S
C728 C176 1.722 . S
C733 C92 1.722 . S
C738 C190 1.723 . S
C743 C204 1.722 . S
C748 C106 1.722 . S
C753 C232 1.722 . S
C758 C260 1.722 . S
C763 C246 1.722 . S
C768 C652 1.722 . S
C773 C274 1.722 . S
C778 C666 1.722 . S
C783 C288 1.722 . S
C788 C638 1.722 . S
C793 C302 1.722 . S
C798 C624 1.722 . S
C803 C582 1.723 . S
C808 C316 1.722 . S
C813 C330 1.722 . S
C818 C610 1.722 . S
C823 C470 1.723 . S
C828 C344 1.723 . S
C833 C484 1.722 . S
C838 C358 1.723 . S
C843 C498 1.722 . S
C848 C372 1.722 . S
C853 C456 1.722 . S
C858 C386 1.722 . S
C863 C554 1.722 . S
C868 C400 1.722 . S
C873 C512 1.722 . S
C878 C414 1.722 . S
C883 C428 1.722 . S
C888 C526 1.722 . S
C893 C442 1.722 . S
C898 C540 1.722 . S
C903 C568 1.722 . S
C908 C596 1.722 . S
C913 C227 1.294 . S
C918 C9 1.166 . S
C923 C661 1.294 . S
C928 C23 1.161 . S
C933 C37 1.166 . S
C938 C297 1.295 . S
C943 C647 1.293 . S
C948 C51 1.161 . S
C953 C65 1.160 . S
C958 C577 1.290 . S
C963 C591 1.291 . S
C968 C79 1.163 . S
C973 C93 1.161 . S
C978 C605 1.294 . S
C983 C283 1.294 . S
C988 C107 1.162 . S
C993 C121 1.164 . S
C998 C3 1.295 . S
C1003 C17 1.295 . S
C1008 C135 1.166 . S
C1013 C149 1.159 . S
C1018 C31 1.291 . S
C1023 C45 1.292 . S
C1028 C163 1.164 . S
C1033 C177 1.160 . S
C1038 C59 1.290 . S
C1043 C73 1.294 . S
C1048 C191 1.166 . S
C1053 C205 1.166 . S
C1058 C87 1.294 . S
C1063 C219 1.165 . S
C1068 C101 1.293 . S
C1073 C233 1.161 . S
C1078 C115 1.293 . S
C1083 C247 1.163 . S
C1088 C507 1.291 . S
C1093 C521 1.295 . S
C1098 C261 1.166 . S
C1103 C535 1.295 . S
C1108 C275 1.164 . S
C1113 C213 1.291 . S
C1118 C289 1.161 . S
C1123 C303 1.164 . S
C1128 C143 1.292 . S
C1133 C493 1.291 . S
C1138 C317 1.161 . S
C1143 C331 1.159 . S
C1148 C465 1.290 . S
C1153 C345 1.166 . S
C1158 C563 1.295 . S
C1163 C359 1.163 . S
C1168 C325 1.295 . S
C1173 C373 1.166 . S
C1178 C633 1.294 . S
C1183 C387 1.161 . S
C1188 C311 1.293 . S
C1193 C401 1.160 . S
C1198 C241 1.292 . S
C1203 C415 1.164 . S
C1208 C255 1.292 . S
C1213 C269 1.294 . S
C1218 C429 1.165 . S
C1223 C619 1.294 . S
C1228 C443 1.162 . S
C1233 C339 1.291 . S
C1238 C457 1.161 . S
C1243 C353 1.294 . S
C1248 C471 1.166 . S
C1253 C485 1.166 . S
C1258 C367 1.295 . S
C1263 C381 1.293 . S
C1268 C499 1.161 . S
C1273 C513 1.166 . S
C1278 C395 1.295 . S
C1283 C527 1.166 . S
C1288 C409 1.295 . S
C1293 C541 1.161 . S
C1298 C423 1.290 . S
C1303 C437 1.292 . S
C1308 C555 1.160 . S
C1313 C569 1.162 . S
C1318 C451 1.294 . S
C1323 C583 1.162 . S
C1328 C171 1.291 . S
C1333 C185 1.293 . S
C1338 C597 1.161 . S
C1343 C611 1.164 . S
C1348 C199 1.295 . S
C1353 C625 1.164 . S
C1358 C549 1.295 . S
C1363 C479 1.291 . S
C1368 C639 1.159 . S
C1373 C157 1.295 . S
C1378 C653 1.165 . S
C1383 C129 1.293 . S
C1388 C667 1.160 . S
C1393 C315 1.341 . S
C1398 C7 1.342 . S
C1403 C21 1.344 . S
C1408 C567 1.344 . S
C1413 C35 1.340 . S
C1418 C329 1.340 . S
C1423 C637 1.340 . S
C1428 C49 1.340 . S
C1433 C63 1.341 . S
C1438 C259 1.341 . S
C1443 C273 1.344 . S
C1448 C77 1.343 . S
C1453 C623 1.343 . S
C1458 C91 1.343 . S
C1463 C105 1.343 . S
C1468 C245 1.344 . S
C1473 C189 1.340 . S
C1478 C119 1.340 . S
C1483 C133 1.340 . S
C1488 C203 1.340 . S
C1493 C217 1.341 . S
C1498 C147 1.341 . S
C1503 C161 1.341 . S
C1508 C175 1.342 . S
C1513 C357 1.344 . S
C1518 C231 1.344 . S
C1523 C287 1.340 . S
C1528 C427 1.341 . S
C1533 C301 1.340 . S
C1538 C385 1.340 . S
C1543 C651 1.343 . S
C1548 C343 1.343 . S
C1553 C371 1.343 . S
C1558 C665 1.343 . S
C1563 C399 1.344 . S
C1568 C595 1.344 . S
C1573 C413 1.340 . S
C1578 C609 1.340 . S
C1583 C581 1.340 . S
C1588 C441 1.340 . S
C1593 C525 1.340 . S
C1598 C455 1.340 . S
C1603 C469 1.342 . S
C1608 C539 1.342 . S
C1613 C483 1.344 . S
C1618 C553 1.344 . S
C1623 C511 1.340 . S
C1628 C497 1.341 . S
