# Generated by pormake.
# Topology vma, (5)-cn, num edge types: 1
# Building blocks:
#     Node 0, Type 0, BuildingBlock: XOMCOT_clean_sbu_0, # of connection points: 5
#     Node 1, Type 0, BuildingBlock: XOMCOT_clean_sbu_0, # of connection points: 5
#     Node 2, Type 0, BuildingBlock: XOMCOT_clean_sbu_0, # of connection points: 5
#     Node 3, Type 0, BuildingBlock: XOMCOT_clean_sbu_0, # of connection points: 5
#     Node 4, Type 0, BuildingBlock: XOMCOT_clean_sbu_0, # of connection points: 5
#     Node 5, Type 0, BuildingBlock: XOMCOT_clean_sbu_0, # of connection points: 5
#     Node 6, Type 0, BuildingBlock: XOMCOT_clean_sbu_0, # of connection points: 5
#     Node 7, Type 0, BuildingBlock: XOMCOT_clean_sbu_0, # of connection points: 5
#     Edge 8, Type (0, 0), BuildingBlock: XIVTED_clean_linker_0, # of connection points: 2
#     Edge 9, Type (0, 0), BuildingBlock: XIVTED_clean_linker_0, # of connection points: 2
#     Edge 10, Type (0, 0), BuildingBlock: XIVTED_clean_linker_0, # of connection points: 2
#     Edge 11, Type (0, 0), BuildingBlock: XIVTED_clean_linker_0, # of connection points: 2
#     Edge 12, Type (0, 0), BuildingBlock: XIVTED_clean_linker_0, # of connection points: 2
#     Edge 13, Type (0, 0), BuildingBlock: XIVTED_clean_linker_0, # of connection points: 2
#     Edge 14, Type (0, 0), BuildingBlock: XIVTED_clean_linker_0, # of connection points: 2
#     Edge 15, Type (0, 0), BuildingBlock: XIVTED_clean_linker_0, # of connection points: 2
#     Edge 16, Type (0, 0), BuildingBlock: XIVTED_clean_linker_0, # of connection points: 2
#     Edge 17, Type (0, 0), BuildingBlock: XIVTED_clean_linker_0, # of connection points: 2
#     Edge 18, Type (0, 0), BuildingBlock: XIVTED_clean_linker_0, # of connection points: 2
#     Edge 19, Type (0, 0), BuildingBlock: XIVTED_clean_linker_0, # of connection points: 2
#     Edge 20, Type (0, 0), BuildingBlock: XIVTED_clean_linker_0, # of connection points: 2
#     Edge 21, Type (0, 0), BuildingBlock: XIVTED_clean_linker_0, # of connection points: 2
#     Edge 22, Type (0, 0), BuildingBlock: XIVTED_clean_linker_0, # of connection points: 2
#     Edge 23, Type (0, 0), BuildingBlock: XIVTED_clean_linker_0, # of connection points: 2
#     Edge 24, Type (0, 0), BuildingBlock: XIVTED_clean_linker_0, # of connection points: 2
#     Edge 25, Type (0, 0), BuildingBlock: XIVTED_clean_linker_0, # of connection points: 2
#     Edge 26, Type (0, 0), BuildingBlock: XIVTED_clean_linker_0, # of connection points: 2
#     Edge 27, Type (0, 0), BuildingBlock: XIVTED_clean_linker_0, # of connection points: 2
# Relax obj value: 0.098
# Max RMSD: 0.194
# Mean RMSD: 0.194
data_MOF--net-vma--node1-XOMCOT_clean_sbu_0--edge1-XIVTED_clean_linker_0
_symmetry_space_group_name_H-M    P1
_symmetry_Int_Tables_number       1
_symmetry_cell_setting            triclinic
loop_
_symmetry_equiv_pos_as_xyz
'x, y, z'
_cell_length_a     44.397203
_cell_length_b     25.676562
_cell_length_c     38.973715
_cell_angle_alpha  89.898445
_cell_angle_beta   109.19048
_cell_angle_gamma 89.974499
loop_
_atom_site_label
_atom_site_type_symbol
_atom_site_fract_x
_atom_site_fract_y
_atom_site_fract_z
_atom_type_partial_charge
Co0 Co 0.36658 0.13345 0.35909 0.0
C1 C 0.41572 0.11668 0.31996 0.0
C2 C 0.41657 0.19131 0.34482 0.0
C3 C 0.44129 0.18926 0.33133 0.0
N4 N 0.39987 0.14646 0.33739 0.0
N5 N 0.441 0.14243 0.31583 0.0
H6 H 0.41059 0.0765 0.3124 0.0
H7 H 0.41177 0.22305 0.36048 0.0
C8 C 0.34612 0.23017 0.31589 0.0
O9 O 0.35219 0.20569 0.2893 0.0
N10 N 0.33481 0.12434 0.38282 0.0
C11 C 0.31743 0.08199 0.38436 0.0
C12 C 0.2969 0.09489 0.40314 0.0
C13 C 0.32493 0.16197 0.4008 0.0
N14 N 0.30155 0.14539 0.41333 0.0
C15 C 0.34389 0.05998 0.30155 0.0
C16 C 0.2818 0.09589 0.27592 0.0
C17 C 0.28915 0.04792 0.2634 0.0
C18 C 0.32088 0.03103 0.27565 0.0
C19 C 0.3058 0.12433 0.30141 0.0
N20 N 0.33644 0.10596 0.31433 0.0
H21 H 0.36693 0.04248 0.31378 0.0
H22 H 0.29909 0.15888 0.31293 0.0
H23 H 0.31913 0.04479 0.37213 0.0
H24 H 0.33487 0.20081 0.40472 0.0
O25 O 0.38622 0.06849 0.37875 0.0
O26 O 0.39875 0.14461 0.4064 0.0
O27 O 0.35045 0.20707 0.34623 0.0
C28 C 0.40381 0.09448 0.40658 0.0
H29 H 0.45872 0.21965 0.33351 0.0
H30 H 0.27938 0.06932 0.40807 0.0
H31 H 0.25746 0.10998 0.26753 0.0
H32 H 0.32745 0.99336 0.2678 0.0
Co33 Co 0.66214 0.12506 0.13287 0.0
C34 C 0.61725 0.11389 0.17671 0.0
C35 C 0.65419 0.17006 0.19882 0.0
C36 C 0.63408 0.17109 0.21881 0.0
N37 N 0.64417 0.13399 0.17232 0.0
N38 N 0.61045 0.13656 0.20475 0.0
H39 H 0.60198 0.08549 0.15884 0.0
H40 H 0.67386 0.19652 0.20277 0.0
C41 C 0.71097 0.21078 0.14889 0.0
O42 O 0.73185 0.17688 0.14511 0.0
N43 N 0.67939 0.11897 0.09257 0.0
C44 C 0.68655 0.07598 0.07688 0.0
C45 C 0.70049 0.09069 0.05155 0.0
C46 C 0.687 0.15905 0.07424 0.0
N47 N 0.70136 0.14316 0.05035 0.0
C48 C 0.70254 0.03747 0.1604 0.0
C49 C 0.74135 0.08028 0.22454 0.0
C50 C 0.74498 0.02769 0.21746 0.0
C51 C 0.72561 1.00662 0.18474 0.0
C52 C 0.71849 0.11048 0.19871 0.0
N53 N 0.69926 0.08916 0.16677 0.0
H54 H 0.68612 0.01823 0.13744 0.0
H55 H 0.7161 0.15049 0.20531 0.0
H56 H 0.68181 0.03637 0.0826 0.0
H57 H 0.68301 0.19941 0.07911 0.0
O58 O 0.63658 0.06419 0.11629 0.0
O59 O 0.62084 0.14406 0.0975 0.0
O60 O 0.6823 0.19657 0.14451 0.0
C61 C 0.61453 0.09422 0.0958 0.0
H62 H 0.63622 0.19689 0.24143 0.0
H63 H 0.70943 0.06446 0.03545 0.0
H64 H 0.7556 0.09759 0.25003 0.0
H65 H 0.7269 0.96555 0.17896 0.0
Co66 Co 0.64434 0.89564 0.61884 0.0
C67 C 0.59885 0.89503 0.66245 0.0
C68 C 0.64556 0.86477 0.69074 0.0
C69 C 0.62791 0.8625 0.71354 0.0
N70 N 0.6276 0.88504 0.65863 0.0
N71 N 0.59845 0.88114 0.69591 0.0
H72 H 0.57873 0.91177 0.6415 0.0
H73 H 0.67028 0.85334 0.69746 0.0
C74 C 0.68842 0.79984 0.62696 0.0
O75 O 0.70555 0.82054 0.60876 0.0
N76 N 0.66122 0.9045 0.57911 0.0
C77 C 0.6791 0.94391 0.57361 0.0
C78 C 0.69132 0.92947 0.54674 0.0
C79 C 0.66098 0.86841 0.55389 0.0
N80 N 0.68061 0.88127 0.53498 0.0
C81 C 0.67091 0.97414 0.66929 0.0
C82 C 0.73483 0.96042 0.67876 0.0
C83 C 0.72509 1.00381 0.69416 0.0
C84 C 0.69287 1.00933 0.69024 0.0
C85 C 0.71176 0.92542 0.65785 0.0
N86 N 0.68006 0.93337 0.65254 0.0
H87 H 0.64602 0.98082 0.66555 0.0
H88 H 0.71955 0.89439 0.64459 0.0
H89 H 0.68484 0.97899 0.58977 0.0
H90 H 0.64938 0.83102 0.55231 0.0
O91 O 0.61806 0.95558 0.60193 0.0
O92 O 0.60344 0.87513 0.58356 0.0
O93 O 0.66528 0.8247 0.63213 0.0
C94 C 0.5965 0.92479 0.58158 0.0
H95 H 0.63655 0.84925 0.74146 0.0
H96 H 0.70911 0.95087 0.53904 0.0
H97 H 0.75967 0.95511 0.68128 0.0
H98 H 0.68447 0.04194 0.70226 0.0
Co99 Co 0.37884 0.89656 0.88339 0.0
C100 C 0.4262 0.91284 0.84147 0.0
C101 C 0.43623 0.84939 0.87943 0.0
C102 C 0.45969 0.851 0.86398 0.0
N103 N 0.41517 0.88825 0.86594 0.0
N104 N 0.45354 0.89079 0.8402 0.0
H105 H 0.41501 0.94548 0.82474 0.0
H106 H 0.43437 0.82089 0.89909 0.0
C107 C 0.36378 0.80633 0.83396 0.0
O108 O 0.37252 0.83631 0.81157 0.0
N109 N 0.34411 0.90067 0.90282 0.0
C110 C 0.32535 0.94139 0.90389 0.0
C111 C 0.30478 0.92608 0.92206 0.0
C112 C 0.33505 0.86163 0.92045 0.0
N113 N 0.31101 0.87587 0.93257 0.0
C114 C 0.36143 0.97706 0.83057 0.0
C115 C 0.30148 0.94072 0.79117 0.0
C116 C 0.31156 0.98904 0.78203 0.0
C117 C 0.34203 1.00678 0.80205 0.0
C118 C 0.32218 0.91134 0.8197 0.0
N119 N 0.35206 0.9293 0.83859 0.0
H120 H 0.38383 0.99359 0.84708 0.0
H121 H 0.31363 0.87538 0.82762 0.0
H122 H 0.32676 0.97952 0.89268 0.0
H123 H 0.34602 0.82349 0.92428 0.0
O124 O 0.39686 0.95953 0.9082 0.0
O125 O 0.40796 0.88091 0.93219 0.0
O126 O 0.36415 0.82417 0.86473 0.0
C127 C 0.41318 0.93101 0.93532 0.0
H128 H 0.47953 0.82416 0.86925 0.0
H129 H 0.28717 0.95054 0.92779 0.0
H130 H 0.27774 0.92631 0.7769 0.0
H131 H 0.3503 0.04477 0.79692 0.0
Co132 Co 0.87348 0.61593 0.3816 0.0
C133 C 0.91588 0.58968 0.33733 0.0
C134 C 0.9255 0.66376 0.36441 0.0
C135 C 0.94757 0.65577 0.34732 0.0
N136 N 0.90572 0.62251 0.35841 0.0
N137 N 0.94156 0.60946 0.33035 0.0
H138 H 0.90526 0.55218 0.32794 0.0
H139 H 0.92424 0.69711 0.38081 0.0
C140 C 0.82956 0.7032 0.34724 0.0
O141 O 0.80579 0.67041 0.34236 0.0
N142 N 0.84211 0.61284 0.4072 0.0
C143 C 0.831 0.57134 0.42073 0.0
C144 C 0.81041 0.58832 0.43822 0.0
C145 C 0.82983 0.65445 0.41941 0.0
N146 N 0.80938 0.64079 0.43701 0.0
C147 C 0.83334 0.53492 0.34174 0.0
C148 C 0.81908 0.57735 0.27307 0.0
C149 C 0.80605 0.52902 0.27734 0.0
C150 C 0.81353 0.50787 0.31212 0.0
C151 C 0.83833 0.60408 0.30395 0.0
N152 N 0.84439 0.58339 0.338 0.0
H153 H 0.84093 0.51535 0.36745 0.0
H154 H 0.8489 0.64075 0.30041 0.0
H155 H 0.83821 0.53141 0.41987 0.0
H156 H 0.83649 0.69423 0.4165 0.0
O157 O 0.89337 0.55318 0.40517 0.0
O158 O 0.9061 0.63234 0.42775 0.0
O159 O 0.8583 0.68829 0.36306 0.0
C160 C 0.91136 0.5822 0.43094 0.0
H161 H 0.96653 0.68213 0.34706 0.0
H162 H 0.7974 0.56363 0.45096 0.0
H163 H 0.8146 0.594 0.2463 0.0
H164 H 0.80521 0.46944 0.31625 0.0
Co165 Co 0.14455 0.63372 0.12906 0.0
C166 C 0.09875 0.61137 0.17127 0.0
C167 C 0.0891 0.68115 0.13924 0.0
C168 C 0.06525 0.67453 0.15397 0.0
N169 N 0.11028 0.64173 0.14984 0.0
N170 N 0.07126 0.63069 0.17402 0.0
H171 H 0.10911 0.57534 0.18383 0.0
H172 H 0.09058 0.7123 0.12115 0.0
C173 C 0.16073 0.73029 0.17339 0.0
O174 O 0.15303 0.70528 0.19875 0.0
N175 N 0.17725 0.62896 0.10648 0.0
C176 C 0.19612 0.58838 0.10546 0.0
C177 C 0.21586 0.6032 0.08616 0.0
C178 C 0.18542 0.66747 0.08765 0.0
N179 N 0.20907 0.65303 0.07493 0.0
C180 C 0.16809 0.5564 0.18379 0.0
C181 C 0.22782 0.59886 0.21622 0.0
C182 C 0.22132 0.54898 0.22676 0.0
C183 C 0.19076 0.52848 0.21077 0.0
C184 C 0.20397 0.62633 0.18961 0.0
N185 N 0.17439 0.60504 0.17372 0.0
H186 H 0.14625 0.53675 0.16911 0.0
H187 H 0.21017 0.66291 0.17996 0.0
H188 H 0.19559 0.55082 0.11785 0.0
H189 H 0.17439 0.70556 0.08376 0.0
O190 O 0.12654 0.56895 0.10726 0.0
O191 O 0.11309 0.64625 0.08148 0.0
O192 O 0.1587 0.70746 0.14362 0.0
C193 C 0.1089 0.59589 0.07989 0.0
H194 H 0.04498 0.70002 0.15023 0.0
H195 H 0.23354 0.57881 0.08049 0.0
H196 H 0.25147 0.61547 0.22727 0.0
H197 H 0.18512 0.48922 0.21687 0.0
Co198 Co 0.15949 0.39368 0.63632 0.0
C199 C 0.11968 0.42156 0.68283 0.0
C200 C 0.1489 0.35457 0.70316 0.0
C201 C 0.13056 0.36349 0.72488 0.0
N202 N 0.14249 0.39124 0.6768 0.0
N203 N 0.11203 0.40534 0.71198 0.0
H204 H 0.1082 0.45408 0.6659 0.0
H205 H 0.16514 0.32228 0.70624 0.0
C206 C 0.20865 0.3096 0.65661 0.0
O207 O 0.22871 0.3436 0.65106 0.0
N208 N 0.17536 0.39439 0.59461 0.0
C209 C 0.17622 0.43513 0.57298 0.0
C210 C 0.18753 0.41873 0.5459 0.0
C211 C 0.18412 0.35305 0.57828 0.0
N212 N 0.19298 0.36702 0.54943 0.0
C213 C 0.2031 0.47888 0.65685 0.0
C214 C 0.23848 0.44418 0.72536 0.0
C215 C 0.24509 0.49327 0.71385 0.0
C216 C 0.22716 0.51026 0.67905 0.0
C217 C 0.21444 0.4133 0.70181 0.0
N218 N 0.19721 0.43044 0.66763 0.0
H219 H 0.18818 0.49523 0.6317 0.0
H220 H 0.20963 0.37596 0.71148 0.0
H221 H 0.16789 0.47403 0.57524 0.0
H222 H 0.18362 0.31326 0.5869 0.0
O223 O 0.13427 0.45427 0.61746 0.0
O224 O 0.11769 0.37339 0.60307 0.0
O225 O 0.17964 0.32268 0.65128 0.0
C226 C 0.11169 0.42331 0.59918 0.0
H227 H 0.12965 0.33923 0.74727 0.0
H228 H 0.19063 0.4432 0.52469 0.0
H229 H 0.25162 0.42993 0.75231 0.0
H230 H 0.23069 0.54875 0.66957 0.0
Co231 Co 0.8717 0.39822 0.86199 0.0
C232 C 0.91616 0.42489 0.82041 0.0
C233 C 0.88908 0.35579 0.80036 0.0
C234 C 0.9089 0.36446 0.7804 0.0
N235 N 0.89304 0.39402 0.82528 0.0
N236 N 0.92603 0.40764 0.79306 0.0
H237 H 0.92602 0.45874 0.83671 0.0
H238 H 0.87328 0.32284 0.79684 0.0
C239 C 0.82269 0.31567 0.83661 0.0
O240 O 0.80193 0.34999 0.84018 0.0
N241 N 0.85128 0.40015 0.89986 0.0
C242 C 0.84661 0.4414 0.91901 0.0
C243 C 0.83125 0.42512 0.94265 0.0
C244 C 0.84081 0.35887 0.91459 0.0
N245 N 0.8272 0.37312 0.93953 0.0
C246 C 0.82843 0.48303 0.83512 0.0
C247 C 0.79859 0.44517 0.76601 0.0
C248 C 0.7903 0.49465 0.77504 0.0
C249 C 0.80541 0.51329 0.81018 0.0
C250 C 0.82155 0.41575 0.79207 0.0
N251 N 0.83585 0.43423 0.82659 0.0
H252 H 0.84146 0.50056 0.86061 0.0
H253 H 0.82787 0.37833 0.78404 0.0
H254 H 0.85462 0.48066 0.91723 0.0
H255 H 0.84284 0.31892 0.9071 0.0
O256 O 0.89566 0.4591 0.882 0.0
O257 O 0.91159 0.37854 0.89929 0.0
O258 O 0.85228 0.32738 0.84611 0.0
C259 C 0.91732 0.42855 0.90268 0.0
H260 H 0.91162 0.3395 0.75924 0.0
H261 H 0.8241 0.44978 0.96111 0.0
H262 H 0.78778 0.42964 0.73891 0.0
H263 H 0.80077 0.55226 0.81784 0.0
H264 H 0.22542 0.39873 0.50453 0.0
H265 H 0.26886 0.11043 0.45726 0.0
H266 H 0.19356 0.26017 0.54544 0.0
H267 H 0.29497 0.25096 0.41304 0.0
H268 H 0.24085 0.1635 0.48944 0.0
H269 H 0.2504 0.34439 0.47067 0.0
C270 C 0.22325 0.35697 0.50626 0.0
C271 C 0.20696 0.33453 0.52808 0.0
C272 C 0.25273 0.18265 0.47267 0.0
C273 C 0.23649 0.27129 0.48929 0.0
C274 C 0.26866 0.1523 0.45412 0.0
C275 C 0.28462 0.176 0.43242 0.0
C276 C 0.25263 0.23722 0.46955 0.0
C277 C 0.28364 0.23067 0.42984 0.0
C278 C 0.23785 0.32576 0.48694 0.0
C279 C 0.20589 0.27972 0.52939 0.0
N280 N 0.26803 0.25921 0.44813 0.0
N281 N 0.22046 0.25011 0.51037 0.0
H282 H 0.74778 0.11313 0.02268 0.0
H283 H 0.7812 0.40302 0.96762 0.0
H284 H 0.69416 0.24765 0.03575 0.0
H285 H 0.83211 0.26775 0.9503 0.0
H286 H 0.74987 0.34698 0.99357 0.0
H287 H 0.77839 0.16882 0.99571 0.0
C288 C 0.74204 0.15416 0.01959 0.0
C289 C 0.71809 0.1753 0.03175 0.0
C290 C 0.76792 0.32952 0.98414 0.0
C291 C 0.75391 0.23996 0.0012 0.0
C292 C 0.78612 0.36166 0.96955 0.0
C293 C 0.80958 0.3404 0.95666 0.0
C294 C 0.77308 0.27545 0.98605 0.0
C295 C 0.81419 0.28612 0.95942 0.0
C296 C 0.75985 0.18614 0.00437 0.0
C297 C 0.71249 0.22928 0.02735 0.0
N298 N 0.79617 0.25567 0.97377 0.0
N299 N 0.73026 0.25959 0.01258 0.0
H300 H 0.70988 0.90618 0.48571 0.0
H301 H 0.78006 0.61871 0.48692 0.0
H302 H 0.68488 0.77519 0.54049 0.0
H303 H 0.79309 0.74183 0.41747 0.0
H304 H 0.74576 0.6763 0.50737 0.0
H305 H 0.74051 0.84732 0.46033 0.0
C306 C 0.71057 0.86511 0.49221 0.0
C307 C 0.69481 0.84605 0.51559 0.0
C308 C 0.7561 0.6907 0.48761 0.0
C309 C 0.73013 0.77829 0.48677 0.0
C310 C 0.77575 0.65768 0.47582 0.0
C311 C 0.7898 0.6751 0.45038 0.0
C312 C 0.7504 0.74183 0.47409 0.0
C313 C 0.78338 0.72659 0.43749 0.0
C314 C 0.72807 0.83148 0.47768 0.0
C315 C 0.69633 0.79212 0.52259 0.0
N316 N 0.76427 0.75804 0.44952 0.0
N317 N 0.71389 0.76041 0.50858 0.0
H318 H 0.252 0.88898 0.93869 0.0
H319 H 0.26788 0.63992 0.0683 0.0
H320 H 0.33519 0.78998 0.97375 0.0
H321 H 0.18457 0.73867 0.03357 0.0
H322 H 0.29262 0.69398 0.03338 0.0
H323 H 0.22698 0.83479 0.97338 0.0
C324 C 0.26512 0.85608 0.95375 0.0
C325 C 0.29584 0.84424 0.95306 0.0
C326 C 0.26891 0.70384 0.0334 0.0
C327 C 0.26706 0.78145 0.99278 0.0
C328 C 0.25464 0.6727 0.05323 0.0
C329 C 0.22397 0.6845 0.05409 0.0
C330 C 0.2525 0.74727 0.01409 0.0
C331 C 0.20834 0.72821 0.03428 0.0
C332 C 0.25071 0.82491 0.97345 0.0
C333 C 0.31137 0.80046 0.97287 0.0
N334 N 0.22273 0.75786 0.01516 0.0
N335 N 0.29686 0.77083 0.99185 0.0
H336 H 0.58325 0.2119 0.23294 0.0
H337 H 0.43246 0.08635 0.25368 0.0
H338 H 0.57291 0.05019 0.20125 0.0
H339 H 0.50402 0.16009 0.34304 0.0
H340 H 0.47273 0.07599 0.22257 0.0
H341 H 0.54122 0.20177 0.2594 0.0
C342 C 0.57224 0.17404 0.23159 0.0
C343 C 0.58251 0.13136 0.21584 0.0
C344 C 0.47956 0.09326 0.24937 0.0
C345 C 0.5333 0.12011 0.24547 0.0
C346 C 0.45674 0.09902 0.26711 0.0
C347 C 0.46486 0.12499 0.30066 0.0
C348 C 0.51023 0.11421 0.26537 0.0
C349 C 0.49657 0.14099 0.31686 0.0
C350 C 0.54806 0.16848 0.24656 0.0
C351 C 0.566 0.08392 0.21352 0.0
N352 N 0.51782 0.13631 0.29882 0.0
N353 N 0.54219 0.07931 0.2285 0.0
H354 H 0.54809 0.94965 0.67768 0.0
H355 H 0.51737 0.89108 0.86179 0.0
H356 H 0.59035 0.8218 0.74946 0.0
H357 H 0.43404 0.91961 0.76864 0.0
H358 H 0.55037 0.89414 0.8227 0.0
H359 H 0.50964 0.9614 0.71089 0.0
C360 C 0.54916 0.92386 0.70004 0.0
C361 C 0.57308 0.88547 0.71135 0.0
C362 C 0.5249 0.90044 0.81082 0.0
C363 C 0.53009 0.89958 0.74948 0.0
C364 C 0.50612 0.89881 0.83308 0.0
C365 C 0.47295 0.9041 0.81827 0.0
C366 C 0.51057 0.90762 0.77331 0.0
C367 C 0.45957 0.91516 0.78096 0.0
C368 C 0.52736 0.93076 0.71896 0.0
C369 C 0.57325 0.85309 0.74047 0.0
N370 N 0.47846 0.9159 0.75943 0.0
N371 N 0.55253 0.86139 0.75874 0.0
H372 H 1.00693 0.62902 0.15257 0.0
H373 H 1.00439 0.59004 0.35172 0.0
H374 H 0.09101 0.58606 0.24095 0.0
H375 H 0.91897 0.58692 0.25875 0.0
H376 H 0.03639 0.57923 0.31159 0.0
H377 H 0.97402 0.60606 0.1898 0.0
C378 C 0.01839 0.61415 0.17977 0.0
C379 C 0.05173 0.61001 0.19393 0.0
C380 C 1.01064 0.57949 0.29988 0.0
C381 C 0.01427 0.58407 0.23694 0.0
C382 C 0.99244 0.58533 0.32281 0.0
C383 C 0.95914 0.58897 0.30837 0.0
C384 C 0.99541 0.57878 0.26209 0.0
C385 C 0.9446 0.58362 0.27078 0.0
C386 C 0.9996 0.60078 0.20096 0.0
C387 C 0.06539 0.58984 0.2291 0.0
N388 N 0.96286 0.57985 0.2488 0.0
N389 N 0.04666 0.57852 0.24968 0.0
H390 H 0.05379 0.44046 0.67019 0.0
H391 H 0.98463 0.43841 0.83633 0.0
H392 H 0.11115 0.40856 0.78103 0.0
H393 H 0.92707 0.41593 0.72453 0.0
H394 H 0.03153 0.45188 0.8169 0.0
H395 H 1.00769 0.45587 0.69041 0.0
C396 C 0.05684 0.43787 0.69887 0.0
C397 C 0.08623 0.42273 0.72396 0.0
C398 C 1.00849 0.44493 0.79659 0.0
C399 C 0.03368 0.44005 0.74726 0.0
C400 C 0.98177 0.43773 0.80765 0.0
C401 C 0.95211 0.42575 0.78195 0.0
C402 C 1.00533 0.44076 0.75956 0.0
C403 C 0.94965 0.42464 0.74512 0.0
C404 C 0.0305 0.44627 0.71037 0.0
C405 C 0.08877 0.41944 0.76079 0.0
N406 N 0.9759 0.43168 0.73503 0.0
N407 N 0.06283 0.42767 0.77132 0.0
H408 H 0.19367 0.78409 0.13623 0.0
H409 H 0.2336 0.02328 0.27552 0.0
H410 H 0.15942 0.79707 0.22748 0.0
H411 H 0.28769 0.98814 0.20453 0.0
H412 H 0.19752 0.95137 0.24858 0.0
H413 H 0.22005 0.86863 0.15225 0.0
C414 C 0.19138 0.80495 0.15938 0.0
C415 C 0.17453 0.78324 0.18076 0.0
C416 C 0.21702 0.95986 0.23853 0.0
C417 C 0.20454 0.88004 0.19908 0.0
C418 C 0.23742 1.00129 0.2536 0.0
C419 C 0.2638 1.01157 0.24236 0.0
C420 C 0.22292 0.92859 0.21188 0.0
C421 C 0.26782 0.98119 0.21424 0.0
C422 C 0.20652 0.85312 0.16855 0.0
C423 C 0.17241 0.81205 0.21046 0.0
N424 N 0.24777 0.94083 0.20015 0.0
N425 N 0.18732 0.85884 0.2188 0.0
H426 H 0.73996 1.00266 0.28311 0.0
H427 H 0.86621 0.76934 0.32247 0.0
H428 H 0.79534 0.9703 0.21322 0.0
H429 H 0.77721 0.76046 0.34432 0.0
H430 H 0.85149 0.85728 0.29719 0.0
H431 H 0.76562 0.92848 0.3216 0.0
C432 C 0.75832 0.98094 0.27664 0.0
C433 C 0.76572 0.99237 0.24517 0.0
C434 C 0.83547 0.83616 0.30799 0.0
C435 C 0.7948 0.90786 0.28858 0.0
C436 C 0.84384 0.78625 0.32242 0.0
C437 C 0.82268 0.75762 0.33505 0.0
C438 C 0.80619 0.85782 0.30714 0.0
C439 C 0.79397 0.78108 0.33438 0.0
C440 C 0.77266 0.93847 0.29831 0.0
C441 C 0.78917 0.96257 0.23742 0.0
N442 N 0.78655 0.82987 0.32066 0.0
N443 N 0.80282 0.9214 0.2589 0.0
H444 H 0.7807 0.99914 0.7528 0.0
H445 H 0.76194 0.29259 0.79572 0.0
H446 H 0.71835 0.10536 0.67591 0.0
H447 H 0.85691 0.22732 0.83305 0.0
H448 H 0.74299 0.21498 0.7595 0.0
H449 H 0.80863 0.07467 0.78862 0.0
C450 C 0.77348 0.03824 0.74308 0.0
C451 C 0.74698 0.04639 0.71182 0.0
C452 C 0.768 0.21759 0.77565 0.0
C453 C 0.77783 0.13154 0.75251 0.0
C454 C 0.7788 0.26168 0.79662 0.0
C455 C 0.81108 0.26647 0.81736 0.0
C456 C 0.78943 0.17745 0.77573 0.0
C457 C 0.83183 0.22509 0.81726 0.0
C458 C 0.78922 0.08106 0.7635 0.0
C459 C 0.73834 0.0976 0.70025 0.0
N460 N 0.82061 0.18188 0.79679 0.0
N461 N 0.75333 0.13817 0.72092 0.0
H462 H 0.26283 0.26289 0.65371 0.0
H463 H 0.2501 0.01841 0.77388 0.0
H464 H 0.17991 0.23406 0.68544 0.0
H465 H 0.32516 0.04063 0.7278 0.0
H466 H 0.2207 0.09119 0.73679 0.0
H467 H 0.28327 0.17716 0.67643 0.0
C468 C 0.24884 0.23843 0.6654 0.0
C469 C 0.21981 0.25602 0.66812 0.0
C470 C 0.24332 0.07949 0.7343 0.0
C471 C 0.24324 0.15735 0.69449 0.0
C472 C 0.25996 0.03769 0.75522 0.0
C473 C 0.29024 0.02396 0.75415 0.0
C474 C 0.25722 0.10764 0.71236 0.0
C475 C 0.30208 0.05051 0.7298 0.0
C476 C 0.26048 0.18923 0.67825 0.0
C477 C 0.20253 0.2222 0.68306 0.0
N478 N 0.28577 0.09141 0.71028 0.0
N479 N 0.21471 0.17468 0.69614 0.0
H480 H 0.82439 0.48678 0.22311 0.0
H481 H 0.67757 0.28772 0.16938 0.0
H482 H 0.74506 0.49633 0.26334 0.0
H483 H 0.76702 0.25805 0.15161 0.0
H484 H 0.69646 0.37493 0.19116 0.0
H485 H 0.7976 0.41482 0.18325 0.0
C486 C 0.80082 0.47486 0.22253 0.0
C487 C 0.78678 0.49727 0.24634 0.0
C488 C 0.71183 0.34948 0.18216 0.0
C489 C 0.75644 0.41469 0.20177 0.0
C490 C 0.70107 0.29966 0.16972 0.0
C491 C 0.72094 0.26518 0.15917 0.0
C492 C 0.74262 0.36512 0.18391 0.0
C493 C 0.75107 0.28302 0.15998 0.0
C494 C 0.78572 0.43348 0.20018 0.0
C495 C 0.75653 0.47993 0.24522 0.0
N496 N 0.76108 0.33161 0.1724 0.0
N497 N 0.7425 0.4393 0.22361 0.0
H498 H 0.27963 0.52926 0.22023 0.0
H499 H 0.31336 0.28275 0.35382 0.0
H500 H 0.22026 0.48832 0.28425 0.0
H501 H 0.34957 0.29961 0.26431 0.0
H502 H 0.2885 0.36906 0.33961 0.0
H503 H 0.31557 0.45739 0.24843 0.0
C504 C 0.27468 0.50611 0.24102 0.0
C505 C 0.24684 0.51448 0.24977 0.0
C506 C 0.30219 0.35399 0.32338 0.0
C507 C 0.28746 0.43172 0.2816 0.0
C508 C 0.31641 0.30485 0.33149 0.0
C509 C 0.33323 0.28378 0.30993 0.0
C510 C 0.30521 0.38242 0.29384 0.0
C511 C 0.33645 0.31408 0.28133 0.0
C512 C 0.29498 0.46474 0.25679 0.0
C513 C 0.24135 0.4828 0.27654 0.0
N514 N 0.32249 0.36175 0.27405 0.0
N515 N 0.26129 0.44246 0.29126 0.0
H516 H 0.25161 0.52287 0.78362 0.0
H517 H 0.37241 0.7513 0.7785 0.0
H518 H 0.29232 0.5456 0.6984 0.0
H519 H 0.32835 0.7405 0.86184 0.0
H520 H 0.34914 0.66794 0.7545 0.0
H521 H 0.28539 0.59363 0.81824 0.0
C522 C 0.26818 0.54199 0.77262 0.0
C523 C 0.26906 0.52879 0.73802 0.0
C524 C 0.34463 0.68342 0.77817 0.0
C525 C 0.30734 0.60974 0.77705 0.0
C526 C 0.3579 0.73122 0.7919 0.0
C527 C 0.35197 0.75329 0.82195 0.0
C528 C 0.3249 0.65732 0.79428 0.0
C529 C 0.33338 0.72498 0.83849 0.0
C530 C 0.28724 0.58257 0.79221 0.0
C531 C 0.29068 0.55501 0.7248 0.0
N532 N 0.32016 0.67863 0.82416 0.0
N533 N 0.30872 0.59439 0.74417 0.0
H534 H 0.66696 0.75134 0.67729 0.0
H535 H 0.7896 0.51398 0.70573 0.0
H536 H 0.73032 0.72998 0.61479 0.0
H537 H 0.74191 0.55495 0.78214 0.0
H538 H 0.75934 0.58193 0.6646 0.0
H539 H 0.68603 0.66913 0.70862 0.0
C540 C 0.68466 0.72919 0.6699 0.0
C541 C 0.69743 0.748 0.64376 0.0
C542 C 0.7552 0.57559 0.69017 0.0
C543 C 0.71923 0.65382 0.67942 0.0
C544 C 0.77225 0.53653 0.71349 0.0
C545 C 0.76844 0.52924 0.7475 0.0
C546 C 0.73414 0.60737 0.70092 0.0
C547 C 0.74587 0.55989 0.75635 0.0
C548 C 0.69555 0.68228 0.68783 0.0
C549 C 0.72015 0.71738 0.63515 0.0
N550 N 0.72975 0.59792 0.73334 0.0
N551 N 0.73047 0.67198 0.6531 0.0
H552 H 0.41708 0.99057 0.41245 0.0
H553 H 0.57568 0.02368 0.58296 0.0
H554 H 0.44919 0.13709 0.46606 0.0
H555 H 0.54738 0.87722 0.52756 0.0
H556 H 0.52715 0.06353 0.54328 0.0
H557 H 0.4619 0.94686 0.45695 0.0
C558 C 0.43344 0.01358 0.43378 0.0
C559 C 0.42945 0.06773 0.43544 0.0
C560 C 0.53136 0.02266 0.53973 0.0
C561 C 0.481 0.01766 0.48647 0.0
C562 C 0.55918 0.99971 0.56241 0.0
C563 C 0.56579 0.94699 0.55837 0.0
C564 C 0.50978 0.99293 0.51251 0.0
C565 C 0.54327 0.91799 0.53151 0.0
C566 C 0.45908 0.98848 0.45916 0.0
C567 C 0.45135 0.09536 0.46372 0.0
N568 N 0.51629 0.94147 0.50939 0.0
N569 N 0.47628 0.07004 0.48801 0.0
H570 H 0.59875 0.9918 0.08971 0.0
H571 H 0.42254 0.03412 0.95109 0.0
H572 H 0.55967 0.14362 0.05247 0.0
H573 H 0.4639 0.88307 0.98623 0.0
H574 H 0.4703 0.0752 0.99221 0.0
H575 H 0.54817 0.95233 0.05537 0.0
C576 C 0.57949 0.01702 0.07422 0.0
C577 C 0.58358 0.07128 0.07386 0.0
C578 C 0.46885 0.0331 0.99129 0.0
C579 C 0.52511 0.02578 0.03432 0.0
C580 C 0.4415 1.0095 0.96794 0.0
C581 C 0.43928 0.95497 0.96511 0.0
C582 C 0.49436 1.00203 0.01195 0.0
C583 C 0.46454 0.92517 0.98763 0.0
C584 C 0.5505 0.99427 0.05464 0.0
C585 C 0.55764 0.10167 0.05335 0.0
N586 N 0.49117 0.94911 0.00985 0.0
N587 N 0.52948 0.07846 0.0343 0.0
H588 H 0.09477 0.52533 0.59226 0.0
H589 H 0.9228 0.47895 0.44546 0.0
H590 H 0.05803 0.37257 0.55485 0.0
H591 H 0.96122 0.63093 0.48239 0.0
H592 H 0.9701 0.43898 0.4884 0.0
H593 H 0.04466 0.56368 0.55503 0.0
C594 C 0.07612 0.49968 0.57616 0.0
C595 C 0.08074 0.4455 0.57652 0.0
C596 C 0.96814 0.48104 0.48737 0.0
C597 C 0.02288 0.48968 0.5336 0.0
C598 C 0.94107 0.504 0.46291 0.0
C599 C 0.93811 0.55849 0.4602 0.0
C600 C 0.99261 0.5127 0.50932 0.0
C601 C 0.96249 0.58883 0.48358 0.0
C602 C 0.0474 0.52178 0.55492 0.0
C603 C 0.05555 0.41448 0.55526 0.0
N604 N 0.98882 0.56551 0.50698 0.0
N605 N 0.0277 0.43706 0.53451 0.0
H606 H 0.09799 0.49166 0.07012 0.0
H607 H 0.93431 0.53024 0.90753 0.0
H608 H 0.06208 0.64075 0.02287 0.0
H609 H 0.96844 0.37952 0.95323 0.0
H610 H 0.9826 0.56989 0.94748 0.0
H611 H 0.05299 0.449 0.02533 0.0
C612 C 0.08078 0.51545 0.05007 0.0
C613 C 0.08369 0.56996 0.05032 0.0
C614 C 0.97971 0.52815 0.94887 0.0
C615 C 0.03195 0.5212 -0.00088 0.0
C616 C 0.952 0.50531 0.92607 0.0
C617 C 0.94718 0.45135 0.92721 0.0
C618 C 1.00297 0.49705 0.97331 0.0
C619 C 0.97114 0.42125 0.9516 0.0
C620 C 0.05505 0.49098 0.02455 0.0
C621 C 0.06075 0.59869 0.02368 0.0
N622 N 0.99803 0.44459 0.97388 0.0
N623 N 0.03573 0.57396 -0.0007 0.0
loop_
_geom_bond_atom_site_label_1
_geom_bond_atom_site_label_2
_geom_bond_distance
_geom_bond_site_symmetry_2
_ccdc_geom_bond_type
Co0 N4 2.148 . S
Co0 N10 2.128 . S
Co0 N20 2.194 . S
Co0 O25 2.351 . S
Co0 O26 2.155 . S
Co0 O27 2.096 . S
C1 N4 1.301 . S
C1 N5 1.328 . S
C1 H6 0.930 . S
C2 C3 1.333 . S
C2 N4 1.317 . S
C2 H7 0.930 . S
C3 C2 1.333 . S
C3 N5 1.350 . S
C3 H29 0.931 . S
N4 Co0 2.148 . S
N4 C1 1.301 . S
N4 C2 1.317 . S
N5 C1 1.328 . S
N5 C3 1.350 . S
H6 C1 0.930 . S
H7 C2 0.930 . S
C8 O9 1.224 . S
C8 O27 1.247 . S
O9 C8 1.224 . S
N10 Co0 2.128 . S
N10 C11 1.355 . S
N10 C13 1.311 . S
C11 N10 1.355 . S
C11 C12 1.363 . S
C11 H23 0.929 . S
C12 C11 1.363 . S
C12 N14 1.375 . S
C12 H30 0.931 . S
C13 N10 1.311 . S
C13 N14 1.347 . S
C13 H24 0.929 . S
N14 C12 1.375 . S
N14 C13 1.347 . S
C15 C18 1.365 . S
C15 N20 1.328 1_565 S
C15 H21 0.929 . S
C16 C17 1.362 1_545 S
C16 C19 1.378 . S
C16 H31 0.929 . S
C17 C16 1.362 1_565 S
C17 C18 1.366 . S
C18 C15 1.365 . S
C18 C17 1.366 . S
C18 H32 0.930 . S
C19 C16 1.378 . S
C19 N20 1.315 . S
C19 H22 0.930 . S
N20 Co0 2.194 . S
N20 C15 1.328 1_545 S
N20 C19 1.315 . S
H21 C15 0.929 . S
H22 C19 0.930 . S
H23 C11 0.929 . S
H24 C13 0.929 . S
O25 Co0 2.351 . S
O25 C28 1.244 . S
O26 Co0 2.155 . S
O26 C28 1.240 . S
O27 Co0 2.096 . S
O27 C8 1.247 . S
C28 O25 1.244 . S
C28 O26 1.240 . S
H29 C3 0.931 . S
H30 C12 0.931 . S
H31 C16 0.929 . S
H32 C18 0.930 . S
Co33 N37 2.148 . S
Co33 N43 2.128 . S
Co33 N53 2.194 . S
Co33 O58 2.351 . S
Co33 O59 2.155 . S
Co33 O60 2.096 . S
C34 N37 1.301 . S
C34 N38 1.328 . S
C34 H39 0.930 . S
C35 C36 1.333 . S
C35 N37 1.317 . S
C35 H40 0.930 . S
C36 C35 1.333 . S
C36 N38 1.350 . S
C36 H62 0.931 . S
N37 Co33 2.148 . S
N37 C34 1.301 . S
N37 C35 1.317 . S
N38 C34 1.328 . S
N38 C36 1.350 . S
H39 C34 0.930 . S
H40 C35 0.930 . S
C41 O42 1.224 . S
C41 O60 1.247 . S
O42 C41 1.224 . S
N43 Co33 2.128 . S
N43 C44 1.355 . S
N43 C46 1.311 . S
C44 N43 1.355 . S
C44 C45 1.363 . S
C44 H56 0.929 . S
C45 C44 1.363 . S
C45 N47 1.375 . S
C45 H63 0.931 . S
C46 N43 1.311 . S
C46 N47 1.347 . S
C46 H57 0.929 . S
N47 C45 1.375 . S
N47 C46 1.347 . S
C48 C51 1.365 . S
C48 N53 1.328 1_565 S
C48 H54 0.929 . S
C49 C50 1.362 1_545 S
C49 C52 1.378 . S
C49 H64 0.929 . S
C50 C49 1.362 1_565 S
C50 C51 1.366 . S
C51 C48 1.365 . S
C51 C50 1.366 . S
C51 H65 0.930 . S
C52 C49 1.378 . S
C52 N53 1.315 . S
C52 H55 0.930 . S
N53 Co33 2.194 . S
N53 C48 1.328 1_545 S
N53 C52 1.315 . S
H54 C48 0.929 . S
H55 C52 0.930 . S
H56 C44 0.929 . S
H57 C46 0.929 . S
O58 Co33 2.351 . S
O58 C61 1.244 . S
O59 Co33 2.155 . S
O59 C61 1.240 . S
O60 Co33 2.096 . S
O60 C41 1.247 . S
C61 O58 1.244 . S
C61 O59 1.240 . S
H62 C36 0.931 . S
H63 C45 0.931 . S
H64 C49 0.929 . S
H65 C51 0.930 . S
Co66 N70 2.148 . S
Co66 N76 2.128 . S
Co66 N86 2.194 . S
Co66 O91 2.351 . S
Co66 O92 2.155 . S
Co66 O93 2.096 . S
C67 N70 1.301 . S
C67 N71 1.328 . S
C67 H72 0.930 . S
C68 C69 1.333 . S
C68 N70 1.317 . S
C68 H73 0.930 . S
C69 C68 1.333 . S
C69 N71 1.350 . S
C69 H95 0.931 . S
N70 Co66 2.148 . S
N70 C67 1.301 . S
N70 C68 1.317 . S
N71 C67 1.328 . S
N71 C69 1.350 . S
H72 C67 0.930 . S
H73 C68 0.930 . S
C74 O75 1.224 . S
C74 O93 1.247 . S
O75 C74 1.224 . S
N76 Co66 2.128 . S
N76 C77 1.355 . S
N76 C79 1.311 . S
C77 N76 1.355 . S
C77 C78 1.363 . S
C77 H89 0.929 . S
C78 C77 1.363 . S
C78 N80 1.375 . S
C78 H96 0.931 . S
C79 N76 1.311 . S
C79 N80 1.347 . S
C79 H90 0.929 . S
N80 C78 1.375 . S
N80 C79 1.347 . S
C81 C84 1.365 . S
C81 N86 1.328 1_545 S
C81 H87 0.929 . S
C82 C83 1.362 1_565 S
C82 C85 1.378 . S
C82 H97 0.929 . S
C83 C82 1.362 1_545 S
C83 C84 1.366 . S
C84 C81 1.365 . S
C84 C83 1.366 . S
C84 H98 0.930 . S
C85 C82 1.378 . S
C85 N86 1.315 . S
C85 H88 0.930 . S
N86 Co66 2.194 . S
N86 C81 1.328 1_565 S
N86 C85 1.315 . S
H87 C81 0.929 . S
H88 C85 0.930 . S
H89 C77 0.929 . S
H90 C79 0.929 . S
O91 Co66 2.351 . S
O91 C94 1.244 . S
O92 Co66 2.155 . S
O92 C94 1.240 . S
O93 Co66 2.096 . S
O93 C74 1.247 . S
C94 O91 1.244 . S
C94 O92 1.240 . S
H95 C69 0.931 . S
H96 C78 0.931 . S
H97 C82 0.929 . S
H98 C84 0.930 . S
Co99 N103 2.148 . S
Co99 N109 2.128 . S
Co99 N119 2.194 . S
Co99 O124 2.351 . S
Co99 O125 2.155 . S
Co99 O126 2.096 . S
C100 N103 1.301 . S
C100 N104 1.328 . S
C100 H105 0.930 . S
C101 C102 1.333 . S
C101 N103 1.317 . S
C101 H106 0.930 . S
C102 C101 1.333 . S
C102 N104 1.350 . S
C102 H128 0.931 . S
N103 Co99 2.148 . S
N103 C100 1.301 . S
N103 C101 1.317 . S
N104 C100 1.328 . S
N104 C102 1.350 . S
H105 C100 0.930 . S
H106 C101 0.930 . S
C107 O108 1.224 . S
C107 O126 1.247 . S
O108 C107 1.224 . S
N109 Co99 2.128 . S
N109 C110 1.355 . S
N109 C112 1.311 . S
C110 N109 1.355 . S
C110 C111 1.363 . S
C110 H122 0.929 . S
C111 C110 1.363 . S
C111 N113 1.375 . S
C111 H129 0.931 . S
C112 N109 1.311 . S
C112 N113 1.347 . S
C112 H123 0.929 . S
N113 C111 1.375 . S
N113 C112 1.347 . S
C114 C117 1.365 . S
C114 N119 1.328 1_545 S
C114 H120 0.929 . S
C115 C116 1.362 1_565 S
C115 C118 1.378 . S
C115 H130 0.929 . S
C116 C115 1.362 1_545 S
C116 C117 1.366 . S
C117 C114 1.365 . S
C117 C116 1.366 . S
C117 H131 0.930 . S
C118 C115 1.378 . S
C118 N119 1.315 . S
C118 H121 0.930 . S
N119 Co99 2.194 . S
N119 C114 1.328 1_565 S
N119 C118 1.315 . S
H120 C114 0.929 . S
H121 C118 0.930 . S
H122 C110 0.929 . S
H123 C112 0.929 . S
O124 Co99 2.351 . S
O124 C127 1.244 . S
O125 Co99 2.155 . S
O125 C127 1.240 . S
O126 Co99 2.096 . S
O126 C107 1.247 . S
C127 O124 1.244 . S
C127 O125 1.240 . S
H128 C102 0.931 . S
H129 C111 0.931 . S
H130 C115 0.929 . S
H131 C117 0.930 . S
Co132 N136 2.148 . S
Co132 N142 2.128 . S
Co132 N152 2.194 . S
Co132 O157 2.351 . S
Co132 O158 2.155 . S
Co132 O159 2.096 . S
C133 N136 1.301 . S
C133 N137 1.328 . S
C133 H138 0.930 . S
C134 C135 1.333 . S
C134 N136 1.317 . S
C134 H139 0.930 . S
C135 C134 1.333 . S
C135 N137 1.350 . S
C135 H161 0.931 . S
N136 Co132 2.148 . S
N136 C133 1.301 . S
N136 C134 1.317 . S
N137 C133 1.328 . S
N137 C135 1.350 . S
H138 C133 0.930 . S
H139 C134 0.930 . S
C140 O141 1.224 . S
C140 O159 1.247 . S
O141 C140 1.224 . S
N142 Co132 2.128 . S
N142 C143 1.355 . S
N142 C145 1.311 . S
C143 N142 1.355 . S
C143 C144 1.363 . S
C143 H155 0.929 . S
C144 C143 1.363 . S
C144 N146 1.375 . S
C144 H162 0.931 . S
C145 N142 1.311 . S
C145 N146 1.347 . S
C145 H156 0.929 . S
N146 C144 1.375 . S
N146 C145 1.347 . S
C147 C150 1.365 . S
C147 N152 1.328 . S
C147 H153 0.929 . S
C148 C149 1.362 . S
C148 C151 1.378 . S
C148 H163 0.929 . S
C149 C148 1.362 . S
C149 C150 1.366 . S
C150 C147 1.365 . S
C150 C149 1.366 . S
C150 H164 0.930 . S
C151 C148 1.378 . S
C151 N152 1.315 . S
C151 H154 0.930 . S
N152 Co132 2.194 . S
N152 C147 1.328 . S
N152 C151 1.315 . S
H153 C147 0.929 . S
H154 C151 0.930 . S
H155 C143 0.929 . S
H156 C145 0.929 . S
O157 Co132 2.351 . S
O157 C160 1.244 . S
O158 Co132 2.155 . S
O158 C160 1.240 . S
O159 Co132 2.096 . S
O159 C140 1.247 . S
C160 O157 1.244 . S
C160 O158 1.240 . S
H161 C135 0.931 . S
H162 C144 0.931 . S
H163 C148 0.929 . S
H164 C150 0.930 . S
Co165 N169 2.148 . S
Co165 N175 2.128 . S
Co165 N185 2.194 . S
Co165 O190 2.351 . S
Co165 O191 2.155 . S
Co165 O192 2.096 . S
C166 N169 1.301 . S
C166 N170 1.328 . S
C166 H171 0.930 . S
C167 C168 1.333 . S
C167 N169 1.317 . S
C167 H172 0.930 . S
C168 C167 1.333 . S
C168 N170 1.350 . S
C168 H194 0.931 . S
N169 Co165 2.148 . S
N169 C166 1.301 . S
N169 C167 1.317 . S
N170 C166 1.328 . S
N170 C168 1.350 . S
H171 C166 0.930 . S
H172 C167 0.930 . S
C173 O174 1.224 . S
C173 O192 1.247 . S
O174 C173 1.224 . S
N175 Co165 2.128 . S
N175 C176 1.355 . S
N175 C178 1.311 . S
C176 N175 1.355 . S
C176 C177 1.363 . S
C176 H188 0.929 . S
C177 C176 1.363 . S
C177 N179 1.375 . S
C177 H195 0.931 . S
C178 N175 1.311 . S
C178 N179 1.347 . S
C178 H189 0.929 . S
N179 C177 1.375 . S
N179 C178 1.347 . S
C180 C183 1.365 . S
C180 N185 1.328 . S
C180 H186 0.929 . S
C181 C182 1.362 . S
C181 C184 1.378 . S
C181 H196 0.929 . S
C182 C181 1.362 . S
C182 C183 1.366 . S
C183 C180 1.365 . S
C183 C182 1.366 . S
C183 H197 0.930 . S
C184 C181 1.378 . S
C184 N185 1.315 . S
C184 H187 0.930 . S
N185 Co165 2.194 . S
N185 C180 1.328 . S
N185 C184 1.315 . S
H186 C180 0.929 . S
H187 C184 0.930 . S
H188 C176 0.929 . S
H189 C178 0.929 . S
O190 Co165 2.351 . S
O190 C193 1.244 . S
O191 Co165 2.155 . S
O191 C193 1.240 . S
O192 Co165 2.096 . S
O192 C173 1.247 . S
C193 O190 1.244 . S
C193 O191 1.240 . S
H194 C168 0.931 . S
H195 C177 0.931 . S
H196 C181 0.929 . S
H197 C183 0.930 . S
Co198 N202 2.148 . S
Co198 N208 2.128 . S
Co198 N218 2.194 . S
Co198 O223 2.351 . S
Co198 O224 2.155 . S
Co198 O225 2.096 . S
C199 N202 1.301 . S
C199 N203 1.328 . S
C199 H204 0.930 . S
C200 C201 1.333 . S
C200 N202 1.317 . S
C200 H205 0.930 . S
C201 C200 1.333 . S
C201 N203 1.350 . S
C201 H227 0.931 . S
N202 Co198 2.148 . S
N202 C199 1.301 . S
N202 C200 1.317 . S
N203 C199 1.328 . S
N203 C201 1.350 . S
H204 C199 0.930 . S
H205 C200 0.930 . S
C206 O207 1.224 . S
C206 O225 1.247 . S
O207 C206 1.224 . S
N208 Co198 2.128 . S
N208 C209 1.355 . S
N208 C211 1.311 . S
C209 N208 1.355 . S
C209 C210 1.363 . S
C209 H221 0.929 . S
C210 C209 1.363 . S
C210 N212 1.375 . S
C210 H228 0.931 . S
C211 N208 1.311 . S
C211 N212 1.347 . S
C211 H222 0.929 . S
N212 C210 1.375 . S
N212 C211 1.347 . S
C213 C216 1.365 . S
C213 N218 1.328 . S
C213 H219 0.929 . S
C214 C215 1.362 . S
C214 C217 1.378 . S
C214 H229 0.929 . S
C215 C214 1.362 . S
C215 C216 1.366 . S
C216 C213 1.365 . S
C216 C215 1.366 . S
C216 H230 0.930 . S
C217 C214 1.378 . S
C217 N218 1.315 . S
C217 H220 0.930 . S
N218 Co198 2.194 . S
N218 C213 1.328 . S
N218 C217 1.315 . S
H219 C213 0.929 . S
H220 C217 0.930 . S
H221 C209 0.929 . S
H222 C211 0.929 . S
O223 Co198 2.351 . S
O223 C226 1.244 . S
O224 Co198 2.155 . S
O224 C226 1.240 . S
O225 Co198 2.096 . S
O225 C206 1.247 . S
C226 O223 1.244 . S
C226 O224 1.240 . S
H227 C201 0.931 . S
H228 C210 0.931 . S
H229 C214 0.929 . S
H230 C216 0.930 . S
Co231 N235 2.148 . S
Co231 N241 2.128 . S
Co231 N251 2.194 . S
Co231 O256 2.351 . S
Co231 O257 2.155 . S
Co231 O258 2.096 . S
C232 N235 1.301 . S
C232 N236 1.328 . S
C232 H237 0.930 . S
C233 C234 1.333 . S
C233 N235 1.317 . S
C233 H238 0.930 . S
C234 C233 1.333 . S
C234 N236 1.350 . S
C234 H260 0.931 . S
N235 Co231 2.148 . S
N235 C232 1.301 . S
N235 C233 1.317 . S
N236 C232 1.328 . S
N236 C234 1.350 . S
H237 C232 0.930 . S
H238 C233 0.930 . S
C239 O240 1.224 . S
C239 O258 1.247 . S
O240 C239 1.224 . S
N241 Co231 2.128 . S
N241 C242 1.355 . S
N241 C244 1.311 . S
C242 N241 1.355 . S
C242 C243 1.363 . S
C242 H254 0.929 . S
C243 C242 1.363 . S
C243 N245 1.375 . S
C243 H261 0.931 . S
C244 N241 1.311 . S
C244 N245 1.347 . S
C244 H255 0.929 . S
N245 C243 1.375 . S
N245 C244 1.347 . S
C246 C249 1.365 . S
C246 N251 1.328 . S
C246 H252 0.929 . S
C247 C248 1.362 . S
C247 C250 1.378 . S
C247 H262 0.929 . S
C248 C247 1.362 . S
C248 C249 1.366 . S
C249 C246 1.365 . S
C249 C248 1.366 . S
C249 H263 0.930 . S
C250 C247 1.378 . S
C250 N251 1.315 . S
C250 H253 0.930 . S
N251 Co231 2.194 . S
N251 C246 1.328 . S
N251 C250 1.315 . S
H252 C246 0.929 . S
H253 C250 0.930 . S
H254 C242 0.929 . S
H255 C244 0.929 . S
O256 Co231 2.351 . S
O256 C259 1.244 . S
O257 Co231 2.155 . S
O257 C259 1.240 . S
O258 Co231 2.096 . S
O258 C239 1.247 . S
C259 O256 1.244 . S
C259 O257 1.240 . S
H260 C234 0.931 . S
H261 C243 0.931 . S
H262 C247 0.929 . S
H263 C249 0.930 . S
H264 C270 0.930 . S
H265 C274 0.930 . S
H266 C279 0.929 . S
H267 C277 0.929 . S
H268 C272 0.929 . S
H269 C278 0.929 . S
C270 H264 0.930 . S
C270 C271 1.367 . S
C270 C278 1.378 . S
C271 C270 1.367 . S
C271 C279 1.433 . S
C272 H268 0.929 . S
C272 C274 1.378 . S
C272 C276 1.350 . S
C273 C276 1.463 . S
C273 C278 1.350 . S
C273 N281 1.427 . S
C274 H265 0.930 . S
C274 C272 1.378 . S
C274 C275 1.367 . S
C275 C274 1.367 . S
C275 C277 1.433 . S
C276 C272 1.350 . S
C276 C273 1.463 . S
C276 N280 1.427 . S
C277 H267 0.929 . S
C277 C275 1.433 . S
C277 N280 1.384 . S
C278 H269 0.929 . S
C278 C270 1.378 . S
C278 C273 1.350 . S
C279 H266 0.929 . S
C279 C271 1.433 . S
C279 N281 1.384 . S
N280 C276 1.427 . S
N280 C277 1.384 . S
N281 C273 1.427 . S
N281 C279 1.384 . S
H282 C288 0.930 . S
H283 C292 0.930 . S
H284 C297 0.929 . S
H285 C295 0.929 . S
H286 C290 0.929 . S
H287 C296 0.929 . S
C288 H282 0.930 . S
C288 C289 1.367 . S
C288 C296 1.378 . S
C289 C288 1.367 . S
C289 C297 1.433 . S
C290 H286 0.929 . S
C290 C292 1.378 . S
C290 C294 1.350 . S
C291 C294 1.463 1_554 S
C291 C296 1.350 . S
C291 N299 1.425 . S
C292 H283 0.930 . S
C292 C290 1.378 . S
C292 C293 1.367 . S
C293 C292 1.367 . S
C293 C295 1.433 . S
C294 C290 1.350 . S
C294 C291 1.463 1_556 S
C294 N298 1.425 . S
C295 H285 0.929 . S
C295 C293 1.433 . S
C295 N298 1.406 . S
C296 H287 0.929 . S
C296 C288 1.378 . S
C296 C291 1.350 . S
C297 H284 0.929 . S
C297 C289 1.433 . S
C297 N299 1.406 . S
N298 C294 1.425 . S
N298 C295 1.406 . S
N299 C291 1.425 . S
N299 C297 1.406 . S
H300 C306 0.930 . S
H301 C310 0.930 . S
H302 C315 0.929 . S
H303 C313 0.929 . S
H304 C308 0.929 . S
H305 C314 0.929 . S
C306 H300 0.930 . S
C306 C307 1.367 . S
C306 C314 1.378 . S
C307 C306 1.367 . S
C307 C315 1.433 . S
C308 H304 0.929 . S
C308 C310 1.378 . S
C308 C312 1.350 . S
C309 C312 1.463 . S
C309 C314 1.350 . S
C309 N317 1.427 . S
C310 H301 0.930 . S
C310 C308 1.378 . S
C310 C311 1.367 . S
C311 C310 1.367 . S
C311 C313 1.433 . S
C312 C308 1.350 . S
C312 C309 1.463 . S
C312 N316 1.427 . S
C313 H303 0.929 . S
C313 C311 1.433 . S
C313 N316 1.384 . S
C314 H305 0.929 . S
C314 C306 1.378 . S
C314 C309 1.350 . S
C315 H302 0.929 . S
C315 C307 1.433 . S
C315 N317 1.384 . S
N316 C312 1.427 . S
N316 C313 1.384 . S
N317 C309 1.427 . S
N317 C315 1.384 . S
H318 C324 0.930 . S
H319 C328 0.930 . S
H320 C333 0.929 . S
H321 C331 0.929 . S
H322 C326 0.929 . S
H323 C332 0.929 . S
C324 H318 0.930 . S
C324 C325 1.367 . S
C324 C332 1.378 . S
C325 C324 1.367 . S
C325 C333 1.433 . S
C326 H322 0.929 . S
C326 C328 1.378 . S
C326 C330 1.350 . S
C327 C330 1.463 1_556 S
C327 C332 1.350 . S
C327 N335 1.427 . S
C328 H319 0.930 . S
C328 C326 1.378 . S
C328 C329 1.367 . S
C329 C328 1.367 . S
C329 C331 1.433 . S
C330 C326 1.350 . S
C330 C327 1.463 1_554 S
C330 N334 1.427 . S
C331 H321 0.929 . S
C331 C329 1.433 . S
C331 N334 1.384 . S
C332 H323 0.929 . S
C332 C324 1.378 . S
C332 C327 1.350 . S
C333 H320 0.929 . S
C333 C325 1.433 . S
C333 N335 1.384 . S
N334 C330 1.427 . S
N334 C331 1.384 . S
N335 C327 1.427 . S
N335 C333 1.384 . S
H336 C342 0.930 . S
H337 C346 0.930 1_565 S
H338 C351 0.929 1_565 S
H339 C349 0.929 . S
H340 C344 0.929 1_565 S
H341 C350 0.929 . S
C342 H336 0.930 . S
C342 C343 1.367 . S
C342 C350 1.378 . S
C343 C342 1.367 . S
C343 C351 1.433 . S
C344 H340 0.929 1_545 S
C344 C346 1.378 . S
C344 C348 1.350 . S
C345 C348 1.463 . S
C345 C350 1.350 . S
C345 N353 1.427 . S
C346 H337 0.930 1_545 S
C346 C344 1.378 . S
C346 C347 1.367 . S
C347 C346 1.367 . S
C347 C349 1.433 . S
C348 C344 1.350 . S
C348 C345 1.463 . S
C348 N352 1.427 . S
C349 H339 0.929 . S
C349 C347 1.433 . S
C349 N352 1.384 . S
C350 H341 0.929 . S
C350 C342 1.378 . S
C350 C345 1.350 . S
C351 H338 0.929 1_545 S
C351 C343 1.433 . S
C351 N353 1.384 . S
N352 C348 1.427 . S
N352 C349 1.384 . S
N353 C345 1.427 . S
N353 C351 1.384 . S
H354 C360 0.930 1_545 S
H355 C364 0.930 . S
H356 C369 0.929 . S
H357 C367 0.929 1_545 S
H358 C362 0.929 . S
H359 C368 0.929 1_545 S
C360 H354 0.930 1_565 S
C360 C361 1.367 . S
C360 C368 1.378 . S
C361 C360 1.367 . S
C361 C369 1.433 . S
C362 H358 0.929 . S
C362 C364 1.378 . S
C362 C366 1.350 . S
C363 C366 1.463 . S
C363 C368 1.350 . S
C363 N371 1.427 . S
C364 H355 0.930 . S
C364 C362 1.378 . S
C364 C365 1.367 . S
C365 C364 1.367 . S
C365 C367 1.433 . S
C366 C362 1.350 . S
C366 C363 1.463 . S
C366 N370 1.427 . S
C367 H357 0.929 1_565 S
C367 C365 1.433 . S
C367 N370 1.384 . S
C368 H359 0.929 1_565 S
C368 C360 1.378 . S
C368 C363 1.350 . S
C369 H356 0.929 . S
C369 C361 1.433 . S
C369 N371 1.384 . S
N370 C366 1.427 . S
N370 C367 1.384 . S
N371 C363 1.427 . S
N371 C369 1.384 . S
H372 C378 0.930 . S
H373 C382 0.930 . S
H374 C387 0.929 . S
H375 C385 0.929 . S
H376 C380 0.929 1_455 S
H377 C386 0.929 1_655 S
C378 H372 0.930 . S
C378 C379 1.367 . S
C378 C386 1.378 . S
C379 C378 1.367 . S
C379 C387 1.433 . S
C380 H376 0.929 1_655 S
C380 C382 1.378 . S
C380 C384 1.350 . S
C381 C384 1.463 1_455 S
C381 C386 1.350 . S
C381 N389 1.427 . S
C382 H373 0.930 . S
C382 C380 1.378 . S
C382 C383 1.367 . S
C383 C382 1.367 . S
C383 C385 1.433 . S
C384 C380 1.350 . S
C384 C381 1.463 1_655 S
C384 N388 1.427 . S
C385 H375 0.929 . S
C385 C383 1.433 . S
C385 N388 1.384 . S
C386 H377 0.929 1_455 S
C386 C378 1.378 . S
C386 C381 1.350 . S
C387 H374 0.929 . S
C387 C379 1.433 . S
C387 N389 1.384 . S
N388 C384 1.427 . S
N388 C385 1.384 . S
N389 C381 1.427 . S
N389 C387 1.384 . S
H390 C396 0.930 . S
H391 C400 0.930 . S
H392 C405 0.929 . S
H393 C403 0.929 . S
H394 C398 0.929 1_455 S
H395 C404 0.929 1_655 S
C396 H390 0.930 . S
C396 C397 1.367 . S
C396 C404 1.378 . S
C397 C396 1.367 . S
C397 C405 1.433 . S
C398 H394 0.929 1_655 S
C398 C400 1.378 . S
C398 C402 1.350 . S
C399 C402 1.463 1_455 S
C399 C404 1.350 . S
C399 N407 1.427 . S
C400 H391 0.930 . S
C400 C398 1.378 . S
C400 C401 1.367 . S
C401 C400 1.367 . S
C401 C403 1.433 . S
C402 C398 1.350 . S
C402 C399 1.463 1_655 S
C402 N406 1.427 . S
C403 H393 0.929 . S
C403 C401 1.433 . S
C403 N406 1.384 . S
C404 H395 0.929 1_455 S
C404 C396 1.378 . S
C404 C399 1.350 . S
C405 H392 0.929 . S
C405 C397 1.433 . S
C405 N407 1.384 . S
N406 C402 1.427 . S
N406 C403 1.384 . S
N407 C399 1.427 . S
N407 C405 1.384 . S
H408 C414 0.930 . S
H409 C418 0.930 . S
H410 C423 0.929 . S
H411 C421 0.929 . S
H412 C416 0.929 . S
H413 C422 0.929 . S
C414 H408 0.930 . S
C414 C415 1.367 . S
C414 C422 1.378 . S
C415 C414 1.367 . S
C415 C423 1.433 . S
C416 H412 0.929 . S
C416 C418 1.378 . S
C416 C420 1.350 . S
C417 C420 1.463 . S
C417 C422 1.350 . S
C417 N425 1.427 . S
C418 H409 0.930 . S
C418 C416 1.378 . S
C418 C419 1.367 . S
C419 C418 1.367 . S
C419 C421 1.433 . S
C420 C416 1.350 . S
C420 C417 1.463 . S
C420 N424 1.427 . S
C421 H411 0.929 . S
C421 C419 1.433 . S
C421 N424 1.384 . S
C422 H413 0.929 . S
C422 C414 1.378 . S
C422 C417 1.350 . S
C423 H410 0.929 . S
C423 C415 1.433 . S
C423 N425 1.384 . S
N424 C420 1.427 . S
N424 C421 1.384 . S
N425 C417 1.427 . S
N425 C423 1.384 . S
H426 C432 0.930 . S
H427 C436 0.930 . S
H428 C441 0.929 . S
H429 C439 0.929 . S
H430 C434 0.929 . S
H431 C440 0.929 . S
C432 H426 0.930 . S
C432 C433 1.367 . S
C432 C440 1.378 . S
C433 C432 1.367 . S
C433 C441 1.433 . S
C434 H430 0.929 . S
C434 C436 1.378 . S
C434 C438 1.350 . S
C435 C438 1.463 . S
C435 C440 1.350 . S
C435 N443 1.427 . S
C436 H427 0.930 . S
C436 C434 1.378 . S
C436 C437 1.367 . S
C437 C436 1.367 . S
C437 C439 1.433 . S
C438 C434 1.350 . S
C438 C435 1.463 . S
C438 N442 1.427 . S
C439 H429 0.929 . S
C439 C437 1.433 . S
C439 N442 1.384 . S
C440 H431 0.929 . S
C440 C432 1.378 . S
C440 C435 1.350 . S
C441 H428 0.929 . S
C441 C433 1.433 . S
C441 N443 1.384 . S
N442 C438 1.427 . S
N442 C439 1.384 . S
N443 C435 1.427 . S
N443 C441 1.384 . S
H444 C450 0.930 . S
H445 C454 0.930 . S
H446 C459 0.929 . S
H447 C457 0.929 . S
H448 C452 0.929 . S
H449 C458 0.929 . S
C450 H444 0.930 . S
C450 C451 1.367 . S
C450 C458 1.378 . S
C451 C450 1.367 . S
C451 C459 1.433 . S
C452 H448 0.929 . S
C452 C454 1.378 . S
C452 C456 1.350 . S
C453 C456 1.463 . S
C453 C458 1.350 . S
C453 N461 1.427 . S
C454 H445 0.930 . S
C454 C452 1.378 . S
C454 C455 1.367 . S
C455 C454 1.367 . S
C455 C457 1.433 . S
C456 C452 1.350 . S
C456 C453 1.463 . S
C456 N460 1.427 . S
C457 H447 0.929 . S
C457 C455 1.433 . S
C457 N460 1.384 . S
C458 H449 0.929 . S
C458 C450 1.378 . S
C458 C453 1.350 . S
C459 H446 0.929 . S
C459 C451 1.433 . S
C459 N461 1.384 . S
N460 C456 1.427 . S
N460 C457 1.384 . S
N461 C453 1.427 . S
N461 C459 1.384 . S
H462 C468 0.930 . S
H463 C472 0.930 . S
H464 C477 0.929 . S
H465 C475 0.929 . S
H466 C470 0.929 . S
H467 C476 0.929 . S
C468 H462 0.930 . S
C468 C469 1.367 . S
C468 C476 1.378 . S
C469 C468 1.367 . S
C469 C477 1.433 . S
C470 H466 0.929 . S
C470 C472 1.378 . S
C470 C474 1.350 . S
C471 C474 1.463 . S
C471 C476 1.350 . S
C471 N479 1.427 . S
C472 H463 0.930 . S
C472 C470 1.378 . S
C472 C473 1.367 . S
C473 C472 1.367 . S
C473 C475 1.433 . S
C474 C470 1.350 . S
C474 C471 1.463 . S
C474 N478 1.427 . S
C475 H465 0.929 . S
C475 C473 1.433 . S
C475 N478 1.384 . S
C476 H467 0.929 . S
C476 C468 1.378 . S
C476 C471 1.350 . S
C477 H464 0.929 . S
C477 C469 1.433 . S
C477 N479 1.384 . S
N478 C474 1.427 . S
N478 C475 1.384 . S
N479 C471 1.427 . S
N479 C477 1.384 . S
H480 C486 0.930 . S
H481 C490 0.930 . S
H482 C495 0.929 . S
H483 C493 0.929 . S
H484 C488 0.929 . S
H485 C494 0.929 . S
C486 H480 0.930 . S
C486 C487 1.367 . S
C486 C494 1.378 . S
C487 C486 1.367 . S
C487 C495 1.433 . S
C488 H484 0.929 . S
C488 C490 1.378 . S
C488 C492 1.350 . S
C489 C492 1.463 . S
C489 C494 1.350 . S
C489 N497 1.427 . S
C490 H481 0.930 . S
C490 C488 1.378 . S
C490 C491 1.367 . S
C491 C490 1.367 . S
C491 C493 1.433 . S
C492 C488 1.350 . S
C492 C489 1.463 . S
C492 N496 1.427 . S
C493 H483 0.929 . S
C493 C491 1.433 . S
C493 N496 1.384 . S
C494 H485 0.929 . S
C494 C486 1.378 . S
C494 C489 1.350 . S
C495 H482 0.929 . S
C495 C487 1.433 . S
C495 N497 1.384 . S
N496 C492 1.427 . S
N496 C493 1.384 . S
N497 C489 1.427 . S
N497 C495 1.384 . S
H498 C504 0.930 . S
H499 C508 0.930 . S
H500 C513 0.929 . S
H501 C511 0.929 . S
H502 C506 0.929 . S
H503 C512 0.929 . S
C504 H498 0.930 . S
C504 C505 1.367 . S
C504 C512 1.378 . S
C505 C504 1.367 . S
C505 C513 1.433 . S
C506 H502 0.929 . S
C506 C508 1.378 . S
C506 C510 1.350 . S
C507 C510 1.463 . S
C507 C512 1.350 . S
C507 N515 1.427 . S
C508 H499 0.930 . S
C508 C506 1.378 . S
C508 C509 1.367 . S
C509 C508 1.367 . S
C509 C511 1.433 . S
C510 C506 1.350 . S
C510 C507 1.463 . S
C510 N514 1.427 . S
C511 H501 0.929 . S
C511 C509 1.433 . S
C511 N514 1.384 . S
C512 H503 0.929 . S
C512 C504 1.378 . S
C512 C507 1.350 . S
C513 H500 0.929 . S
C513 C505 1.433 . S
C513 N515 1.384 . S
N514 C510 1.427 . S
N514 C511 1.384 . S
N515 C507 1.427 . S
N515 C513 1.384 . S
H516 C522 0.930 . S
H517 C526 0.930 . S
H518 C531 0.929 . S
H519 C529 0.929 . S
H520 C524 0.929 . S
H521 C530 0.929 . S
C522 H516 0.930 . S
C522 C523 1.367 . S
C522 C530 1.378 . S
C523 C522 1.367 . S
C523 C531 1.433 . S
C524 H520 0.929 . S
C524 C526 1.378 . S
C524 C528 1.350 . S
C525 C528 1.463 . S
C525 C530 1.350 . S
C525 N533 1.427 . S
C526 H517 0.930 . S
C526 C524 1.378 . S
C526 C527 1.367 . S
C527 C526 1.367 . S
C527 C529 1.433 . S
C528 C524 1.350 . S
C528 C525 1.463 . S
C528 N532 1.427 . S
C529 H519 0.929 . S
C529 C527 1.433 . S
C529 N532 1.384 . S
C530 H521 0.929 . S
C530 C522 1.378 . S
C530 C525 1.350 . S
C531 H518 0.929 . S
C531 C523 1.433 . S
C531 N533 1.384 . S
N532 C528 1.427 . S
N532 C529 1.384 . S
N533 C525 1.427 . S
N533 C531 1.384 . S
H534 C540 0.930 . S
H535 C544 0.930 . S
H536 C549 0.929 . S
H537 C547 0.929 . S
H538 C542 0.929 . S
H539 C548 0.929 . S
C540 H534 0.930 . S
C540 C541 1.367 . S
C540 C548 1.378 . S
C541 C540 1.367 . S
C541 C549 1.433 . S
C542 H538 0.929 . S
C542 C544 1.378 . S
C542 C546 1.350 . S
C543 C546 1.463 . S
C543 C548 1.350 . S
C543 N551 1.427 . S
C544 H535 0.930 . S
C544 C542 1.378 . S
C544 C545 1.367 . S
C545 C544 1.367 . S
C545 C547 1.433 . S
C546 C542 1.350 . S
C546 C543 1.463 . S
C546 N550 1.427 . S
C547 H537 0.929 . S
C547 C545 1.433 . S
C547 N550 1.384 . S
C548 H539 0.929 . S
C548 C540 1.378 . S
C548 C543 1.350 . S
C549 H536 0.929 . S
C549 C541 1.433 . S
C549 N551 1.384 . S
N550 C546 1.427 . S
N550 C547 1.384 . S
N551 C543 1.427 . S
N551 C549 1.384 . S
H552 C558 0.930 1_565 S
H553 C562 0.930 1_545 S
H554 C567 0.929 . S
H555 C565 0.929 . S
H556 C560 0.929 . S
H557 C566 0.929 . S
C558 H552 0.930 1_545 S
C558 C559 1.367 . S
C558 C566 1.378 1_545 S
C559 C558 1.367 . S
C559 C567 1.433 . S
C560 H556 0.929 . S
C560 C562 1.378 1_545 S
C560 C564 1.350 1_545 S
C561 C564 1.463 1_545 S
C561 C566 1.350 1_545 S
C561 N569 1.427 . S
C562 H553 0.930 1_565 S
C562 C560 1.378 1_565 S
C562 C563 1.367 . S
C563 C562 1.367 . S
C563 C565 1.433 . S
C564 C560 1.350 1_565 S
C564 C561 1.463 1_565 S
C564 N568 1.427 . S
C565 H555 0.929 . S
C565 C563 1.433 . S
C565 N568 1.384 . S
C566 H557 0.929 . S
C566 C558 1.378 1_565 S
C566 C561 1.350 1_565 S
C567 H554 0.929 . S
C567 C559 1.433 . S
C567 N569 1.384 . S
N568 C564 1.427 . S
N568 C565 1.384 . S
N569 C561 1.427 . S
N569 C567 1.384 . S
H570 C576 0.930 . S
H571 C580 0.930 . S
H572 C585 0.929 . S
H573 C583 0.929 . S
H574 C578 0.929 . S
H575 C584 0.929 . S
C576 H570 0.930 . S
C576 C577 1.367 . S
C576 C584 1.378 1_554 S
C577 C576 1.367 . S
C577 C585 1.433 . S
C578 H574 0.929 . S
C578 C580 1.378 1_554 S
C578 C582 1.350 1_554 S
C579 C582 1.463 1_544 S
C579 C584 1.350 1_554 S
C579 N587 1.427 . S
C580 H571 0.930 . S
C580 C578 1.378 1_556 S
C580 C581 1.367 . S
C581 C580 1.367 . S
C581 C583 1.433 . S
C582 C578 1.350 1_556 S
C582 C579 1.463 1_566 S
C582 N586 1.427 . S
C583 H573 0.929 . S
C583 C581 1.433 . S
C583 N586 1.384 . S
C584 H575 0.929 . S
C584 C576 1.378 1_556 S
C584 C579 1.350 1_556 S
C585 H572 0.929 . S
C585 C577 1.433 . S
C585 N587 1.384 . S
N586 C582 1.427 . S
N586 C583 1.384 . S
N587 C579 1.427 . S
N587 C585 1.384 . S
H588 C594 0.930 . S
H589 C598 0.930 . S
H590 C603 0.929 . S
H591 C601 0.929 . S
H592 C596 0.929 . S
H593 C602 0.929 . S
C594 H588 0.930 . S
C594 C595 1.367 . S
C594 C602 1.378 . S
C595 C594 1.367 . S
C595 C603 1.433 . S
C596 H592 0.929 . S
C596 C598 1.378 . S
C596 C600 1.350 . S
C597 C600 1.463 1_455 S
C597 C602 1.350 . S
C597 N605 1.427 . S
C598 H589 0.930 . S
C598 C596 1.378 . S
C598 C599 1.367 . S
C599 C598 1.367 . S
C599 C601 1.433 . S
C600 C596 1.350 . S
C600 C597 1.463 1_655 S
C600 N604 1.427 . S
C601 H591 0.929 . S
C601 C599 1.433 . S
C601 N604 1.384 . S
C602 H593 0.929 . S
C602 C594 1.378 . S
C602 C597 1.350 . S
C603 H590 0.929 . S
C603 C595 1.433 . S
C603 N605 1.384 . S
N604 C600 1.427 . S
N604 C601 1.384 . S
N605 C597 1.427 . S
N605 C603 1.384 . S
H606 C612 0.930 . S
H607 C616 0.930 . S
H608 C621 0.929 . S
H609 C619 0.929 . S
H610 C614 0.929 1_554 S
H611 C620 0.929 1_556 S
C612 H606 0.930 . S
C612 C613 1.367 . S
C612 C620 1.378 . S
C613 C612 1.367 . S
C613 C621 1.433 . S
C614 H610 0.929 1_556 S
C614 C616 1.378 . S
C614 C618 1.350 . S
C615 C618 1.463 1_454 S
C615 C620 1.350 . S
C615 N623 1.427 . S
C616 H607 0.930 . S
C616 C614 1.378 . S
C616 C617 1.367 . S
C617 C616 1.367 . S
C617 C619 1.433 . S
C618 C614 1.350 . S
C618 C615 1.463 1_656 S
C618 N622 1.427 . S
C619 H609 0.929 . S
C619 C617 1.433 . S
C619 N622 1.384 . S
C620 H611 0.929 1_554 S
C620 C612 1.378 . S
C620 C615 1.350 . S
C621 H608 0.929 . S
C621 C613 1.433 . S
C621 N623 1.384 . S
N622 C618 1.427 . S
N622 C619 1.384 . S
N623 C615 1.427 . S
N623 C621 1.384 . S
C271 N212 2.050 . S
C275 N14 2.050 . S
C289 N47 2.050 . S
C293 N245 2.050 . S
C307 N80 2.045 . S
C311 N146 2.045 . S
C325 N113 2.048 . S
C329 N179 2.048 . S
C343 N38 1.471 . S
C347 N5 1.484 . S
C361 N71 1.485 . S
C365 N104 1.471 . S
C379 N170 1.472 . S
C383 N137 1.484 . S
C397 N203 1.483 . S
C401 N236 1.473 . S
C415 C173 1.107 . S
C419 C17 1.123 . S
C433 C50 1.118 . S
C437 C140 1.111 . S
C451 C83 1.120 . S
C455 C239 1.106 . S
C469 C206 1.111 . S
C473 C116 1.125 . S
C487 C149 1.118 . S
C491 C41 1.109 . S
C505 C182 1.124 . S
C509 C8 1.107 . S
C523 C215 1.120 . S
C527 C107 1.117 . S
C541 C74 1.106 . S
C545 C248 1.120 . S
C559 C28 1.373 . S
C563 C94 1.373 . S
C577 C61 1.380 . S
C581 C127 1.380 . S
C595 C226 1.374 . S
C599 C160 1.374 . S
C613 C193 1.376 . S
C617 C259 1.376 . S
