# Generated by pormake.
# Topology uoc, (4)-cn, num edge types: 1
# Building blocks:
#     Node 0, Type 0, BuildingBlock: QUQFOY_clean_sbu_3, # of connection points: 4
#     Node 1, Type 0, BuildingBlock: QUQFOY_clean_sbu_3, # of connection points: 4
#     Node 2, Type 0, BuildingBlock: QUQFOY_clean_sbu_3, # of connection points: 4
#     Node 3, Type 0, BuildingBlock: QUQFOY_clean_sbu_3, # of connection points: 4
#     Node 4, Type 0, BuildingBlock: QUQFOY_clean_sbu_3, # of connection points: 4
#     Node 5, Type 0, BuildingBlock: QUQFOY_clean_sbu_3, # of connection points: 4
#     Node 6, Type 0, BuildingBlock: QUQFOY_clean_sbu_3, # of connection points: 4
#     Node 7, Type 0, BuildingBlock: QUQFOY_clean_sbu_3, # of connection points: 4
#     Edge 8, Type (0, 0), BuildingBlock: MIFKUJ_clean_linker_0, # of connection points: 2
#     Edge 9, Type (0, 0), BuildingBlock: MIFKUJ_clean_linker_0, # of connection points: 2
#     Edge 10, Type (0, 0), BuildingBlock: MIFKUJ_clean_linker_0, # of connection points: 2
#     Edge 11, Type (0, 0), BuildingBlock: MIFKUJ_clean_linker_0, # of connection points: 2
#     Edge 12, Type (0, 0), BuildingBlock: MIFKUJ_clean_linker_0, # of connection points: 2
#     Edge 13, Type (0, 0), BuildingBlock: MIFKUJ_clean_linker_0, # of connection points: 2
#     Edge 14, Type (0, 0), BuildingBlock: MIFKUJ_clean_linker_0, # of connection points: 2
#     Edge 15, Type (0, 0), BuildingBlock: MIFKUJ_clean_linker_0, # of connection points: 2
#     Edge 16, Type (0, 0), BuildingBlock: MIFKUJ_clean_linker_0, # of connection points: 2
#     Edge 17, Type (0, 0), BuildingBlock: MIFKUJ_clean_linker_0, # of connection points: 2
#     Edge 18, Type (0, 0), BuildingBlock: MIFKUJ_clean_linker_0, # of connection points: 2
#     Edge 19, Type (0, 0), BuildingBlock: MIFKUJ_clean_linker_0, # of connection points: 2
#     Edge 20, Type (0, 0), BuildingBlock: MIFKUJ_clean_linker_0, # of connection points: 2
#     Edge 21, Type (0, 0), BuildingBlock: MIFKUJ_clean_linker_0, # of connection points: 2
#     Edge 22, Type (0, 0), BuildingBlock: MIFKUJ_clean_linker_0, # of connection points: 2
#     Edge 23, Type (0, 0), BuildingBlock: MIFKUJ_clean_linker_0, # of connection points: 2
# Relax obj value: 0.101
# Max RMSD: 0.113
# Mean RMSD: 0.113
data_MOF--net-uoc--node1-QUQFOY_clean_sbu_3--edge1-MIFKUJ_clean_linker_0
_symmetry_space_group_name_H-M    P1
_symmetry_Int_Tables_number       1
_symmetry_cell_setting            triclinic
loop_
_symmetry_equiv_pos_as_xyz
'x, y, z'
_cell_length_a     35.08767
_cell_length_b     35.095302
_cell_length_c     72.942922
_cell_angle_alpha  90.033393
_cell_angle_beta   90.107707
_cell_angle_gamma 95.21241
loop_
_atom_site_label
_atom_site_type_symbol
_atom_site_fract_x
_atom_site_fract_y
_atom_site_fract_z
_atom_type_partial_charge
C0 C 0.23429 0.25921 0.0806 0.0
O1 O 0.24975 0.23492 0.09035 0.0
Cd2 Cd 0.21775 0.20947 0.11732 0.0
O3 O 0.20139 0.26923 0.08464 0.0
Cd4 Cd 0.15067 0.25819 0.10759 0.0
C5 C 0.13587 0.16289 0.09973 0.0
O6 O 0.19466 0.26314 0.13335 0.0
O7 O 0.13559 0.24511 0.13973 0.0
O8 O 0.14227 0.32552 0.10319 0.0
C9 C 0.16901 0.25596 0.14538 0.0
O10 O 0.16797 0.16018 0.10757 0.0
C11 C 0.1064 0.32112 0.10059 0.0
O12 O 0.12373 0.1955 0.09701 0.0
O13 O 0.09069 0.28708 0.10123 0.0
C14 C 0.75376 0.72999 0.39325 0.0
O15 O 0.73217 0.74422 0.38161 0.0
Cd16 Cd 0.70954 0.70925 0.35495 0.0
O17 O 0.76463 0.69668 0.39087 0.0
Cd18 Cd 0.76051 0.64367 0.36862 0.0
C19 C 0.66442 0.62725 0.37382 0.0
O20 O 0.76557 0.68538 0.34201 0.0
O21 O 0.75488 0.62486 0.33651 0.0
O22 O 0.82747 0.63843 0.37617 0.0
C23 C 0.76186 0.65851 0.33036 0.0
O24 O 0.66184 0.65893 0.3656 0.0
C25 C 0.82398 0.60249 0.37859 0.0
O26 O 0.69694 0.61549 0.37726 0.0
O27 O 0.79063 0.58559 0.37669 0.0
C28 C 0.28867 0.2326 0.58001 0.0
O29 O 0.27521 0.25491 0.59154 0.0
Cd30 Cd 0.30998 0.27763 0.61802 0.0
O31 O 0.32156 0.22068 0.58245 0.0
Cd32 Cd 0.37352 0.22437 0.60557 0.0
C33 C 0.39378 0.31934 0.59919 0.0
O34 O 0.331 0.22106 0.63157 0.0
O35 O 0.39055 0.2363 0.63789 0.0
O36 O 0.3765 0.15633 0.60027 0.0
C37 C 0.35685 0.22728 0.64359 0.0
O38 O 0.36245 0.3233 0.60748 0.0
C39 C 0.41252 0.15798 0.59834 0.0
O40 O 0.40404 0.28618 0.59581 0.0
O41 O 0.43068 0.19092 0.5994 0.0
C42 C 0.72884 0.78519 0.89636 0.0
O43 O 0.75044 0.77116 0.8847 0.0
Cd44 Cd 0.77292 0.80524 0.85802 0.0
O45 O 0.71721 0.81817 0.89389 0.0
Cd46 Cd 0.72032 0.86936 0.87047 0.0
C47 C 0.81547 0.88935 0.87638 0.0
O48 O 0.71677 0.82692 0.84433 0.0
O49 O 0.73307 0.88637 0.83828 0.0
O50 O 0.65217 0.87303 0.87505 0.0
C51 C 0.72375 0.8528 0.83242 0.0
O52 O 0.81907 0.85779 0.8682 0.0
C53 C 0.65424 0.90889 0.87766 0.0
O54 O 0.78245 0.89983 0.87988 0.0
O55 O 0.68744 0.92665 0.87725 0.0
C56 C 0.73685 0.7607 0.57583 0.0
O57 O 0.75506 0.73718 0.58477 0.0
Cd58 Cd 0.72897 0.71014 0.61273 0.0
O59 O 0.70458 0.7697 0.58147 0.0
Cd60 Cd 0.65974 0.75779 0.60702 0.0
C61 C 0.64414 0.66296 0.59867 0.0
O62 O 0.7088 0.76245 0.63076 0.0
O63 O 0.65141 0.74306 0.63945 0.0
O64 O 0.65078 0.82521 0.60384 0.0
C65 C 0.68562 0.75426 0.64377 0.0
O66 O 0.67798 0.66066 0.60464 0.0
C67 C 0.61455 0.82106 0.60302 0.0
O68 O 0.63075 0.69531 0.59715 0.0
O69 O 0.59883 0.78708 0.60414 0.0
C70 C 0.25149 0.23727 0.89784 0.0
O71 O 0.23045 0.25438 0.887 0.0
Cd72 Cd 0.2069 0.22409 0.85938 0.0
O73 O 0.26108 0.20409 0.89395 0.0
Cd74 Cd 0.25491 0.15638 0.86911 0.0
C75 C 0.15948 0.14008 0.87476 0.0
O76 O 0.26243 0.20293 0.8445 0.0
O77 O 0.24453 0.14483 0.83638 0.0
O78 O 0.32195 0.14894 0.87524 0.0
C79 C 0.2562 0.17868 0.83175 0.0
O80 O 0.15747 0.17315 0.86784 0.0
C81 C 0.31835 0.11269 0.87589 0.0
O82 O 0.19178 0.1273 0.87755 0.0
O83 O 0.28485 0.09641 0.87359 0.0
C84 C 0.78244 0.73092 0.07651 0.0
O85 O 0.76862 0.75464 0.08722 0.0
Cd86 Cd 0.80142 0.77752 0.11446 0.0
O87 O 0.81481 0.71865 0.07983 0.0
Cd88 Cd 0.86665 0.72348 0.10273 0.0
C89 C 0.88604 0.81927 0.0967 0.0
O90 O 0.82289 0.72156 0.12853 0.0
O91 O 0.88317 0.72943 0.13511 0.0
O92 O 0.86952 0.65597 0.09597 0.0
C93 C 0.84888 0.72476 0.14066 0.0
O94 O 0.85398 0.82291 0.10435 0.0
C95 C 0.90562 0.65765 0.09438 0.0
O96 O 0.89715 0.78626 0.09372 0.0
O97 O 0.92388 0.69036 0.09635 0.0
C98 C 0.23161 0.27529 0.39979 0.0
O99 O 0.25511 0.26161 0.38895 0.0
Cd100 Cd 0.27617 0.29484 0.36169 0.0
O101 O 0.21923 0.30766 0.39665 0.0
Cd102 Cd 0.22441 0.35932 0.37372 0.0
C103 C 0.32004 0.3785 0.3792 0.0
O104 O 0.21941 0.31594 0.34785 0.0
O105 O 0.23407 0.37552 0.34136 0.0
O106 O 0.15693 0.36439 0.37962 0.0
C107 C 0.22468 0.34176 0.33577 0.0
O108 O 0.32337 0.34689 0.37103 0.0
C109 C 0.1598 0.40038 0.38185 0.0
O110 O 0.28713 0.38906 0.38285 0.0
O111 O 0.19312 0.4176 0.38054 0.0
H112 H 0.28624 0.22622 0.05942 0.0
H113 H 0.30634 0.24545 0.02854 0.0
H114 H 0.24568 0.34669 0.03323 0.0
H115 H 0.22421 0.32668 0.06385 0.0
H116 H 0.22046 0.30763 0.0057 0.0
H117 H 0.34511 0.35198 0.025 0.0
H118 H 0.40638 0.35171 0.04156 0.0
H119 H 0.43214 0.25152 0.01192 0.0
H120 H 0.37079 0.25078 -0.00464 0.0
H121 H 0.24042 0.30924 0.91015 0.0
H122 H 0.25474 0.33537 0.94075 0.0
H123 H 0.30465 0.23186 0.95576 0.0
H124 H 0.29138 0.20596 0.92523 0.0
H125 H 0.34173 0.29395 0.97255 0.0
H126 H 0.20948 0.23999 0.96224 0.0
H127 H 0.14691 0.23689 0.94654 0.0
H128 H 0.13587 0.35421 0.96064 0.0
H129 H 0.19863 0.35806 0.97624 0.0
C130 C 0.27809 0.25309 0.05404 0.0
C131 C 0.25308 0.27458 0.06381 0.0
C132 C 0.28991 0.26431 0.03644 0.0
C133 C 0.27757 0.29762 0.02855 0.0
C134 C 0.25542 0.32085 0.03902 0.0
C135 C 0.24304 0.30929 0.05645 0.0
C136 C 0.28126 0.3038 0.00852 0.0
C137 C 0.24733 0.30603 -0.00148 0.0
C138 C 0.31609 0.301 -0.00092 0.0
C139 C 0.3532 0.3013 0.00895 0.0
C140 C 0.36371 0.32973 0.02208 0.0
C141 C 0.39849 0.32978 0.03146 0.0
C142 C 0.42313 0.30161 0.0278 0.0
C143 C 0.41305 0.27336 0.01472 0.0
C144 C 0.37829 0.27316 0.0053 0.0
C145 C 0.25504 0.29233 0.91987 0.0
C146 C 0.26401 0.25519 0.91541 0.0
C147 C 0.26337 0.30739 0.93729 0.0
C148 C 0.28025 0.2853 0.95056 0.0
C149 C 0.29166 0.24939 0.94571 0.0
C150 C 0.28366 0.23447 0.92829 0.0
C151 C 0.28087 0.29643 0.97009 0.0
C152 C 0.31539 0.29725 0.9799 0.0
C153 C 0.24658 0.30183 0.97949 0.0
C154 C 0.20888 0.29947 0.97017 0.0
C155 C 0.19379 0.26517 0.96187 0.0
C156 C 0.1583 0.26327 0.95301 0.0
C157 C 0.13749 0.29538 0.95253 0.0
C158 C 0.15207 0.32941 0.96097 0.0
C159 C 0.18759 0.33147 0.96982 0.0
H160 H 0.11002 0.29385 0.94567 0.0
H161 H 0.45004 0.30169 0.03508 0.0
H162 H 0.77055 0.60653 0.30327 0.0
H163 H 0.7842 0.61964 0.27093 0.0
H164 H 0.77773 0.74026 0.28054 0.0
H165 H 0.76533 0.72746 0.31301 0.0
H166 H 0.74755 0.64863 0.24404 0.0
H167 H 0.84145 0.79187 0.25367 0.0
H168 H 0.88429 0.82421 0.27687 0.0
H169 H 0.90778 0.71533 0.29891 0.0
H170 H 0.86551 0.68236 0.2757 0.0
H171 H 0.77984 0.73126 0.15677 0.0
H172 H 0.76373 0.72275 0.18918 0.0
H173 H 0.88038 0.70087 0.20099 0.0
H174 H 0.89697 0.71091 0.16873 0.0
H175 H 0.8559 0.74249 0.22683 0.0
H176 H 0.80695 0.6273 0.19621 0.0
H177 H 0.76954 0.58869 0.17303 0.0
H178 H 0.6659 0.62992 0.19313 0.0
H179 H 0.70279 0.66917 0.21629 0.0
C180 C 0.77189 0.63582 0.29846 0.0
C181 C 0.76726 0.66603 0.31065 0.0
C182 C 0.77959 0.64325 0.27999 0.0
C183 C 0.78254 0.68097 0.27341 0.0
C184 C 0.77638 0.71103 0.28543 0.0
C185 C 0.76916 0.70367 0.30394 0.0
C186 C 0.79291 0.68882 0.25405 0.0
C187 C 0.77118 0.66921 0.24026 0.0
C188 C 0.82419 0.71516 0.24916 0.0
C189 C 0.84998 0.7347 0.26307 0.0
C190 C 0.85586 0.77485 0.26344 0.0
C191 C 0.88002 0.79329 0.27659 0.0
C192 C 0.89863 0.77185 0.2894 0.0
C193 C 0.89323 0.73191 0.28903 0.0
C194 C 0.86913 0.71334 0.27589 0.0
C195 C 0.80206 0.72485 0.16632 0.0
C196 C 0.83958 0.72146 0.16027 0.0
C197 C 0.7928 0.71984 0.1848 0.0
C198 C 0.82069 0.71046 0.19743 0.0
C199 C 0.8584 0.70804 0.19147 0.0
C200 C 0.86783 0.71369 0.17304 0.0
C201 C 0.81049 0.70236 0.2168 0.0
C202 C 0.83216 0.72203 0.23059 0.0
C203 C 0.77994 0.67515 0.2217 0.0
C204 C 0.75767 0.65144 0.20786 0.0
C205 C 0.77621 0.62832 0.1956 0.0
C206 C 0.7551 0.6063 0.18248 0.0
C207 C 0.71538 0.60693 0.18158 0.0
C208 C 0.69668 0.6295 0.19383 0.0
C209 C 0.71767 0.65161 0.20696 0.0
H210 H 0.69908 0.58986 0.17141 0.0
H211 H 0.91731 0.78617 0.29958 0.0
H212 H 0.21632 0.24939 0.5711 0.0
H213 H 0.18396 0.23907 0.54161 0.0
H214 H 0.27931 0.18186 0.52143 0.0
H215 H 0.31144 0.19133 0.5509 0.0
H216 H 0.21319 0.27267 0.51226 0.0
H217 H 0.255 0.12462 0.48598 0.0
H218 H 0.25812 0.0593 0.49793 0.0
H219 H 0.1751 0.07963 0.53913 0.0
H220 H 0.171 0.14488 0.52727 0.0
H221 H 0.26993 0.2225 0.41789 0.0
H222 H 0.25767 0.19907 0.44902 0.0
H223 H 0.15462 0.25736 0.451 0.0
H224 H 0.16756 0.28216 0.42012 0.0
H225 H 0.20425 0.1605 0.47054 0.0
H226 H 0.15358 0.30465 0.49082 0.0
H227 H 0.15485 0.37092 0.47929 0.0
H228 H 0.26112 0.35836 0.45181 0.0
H229 H 0.26065 0.29224 0.46336 0.0
C230 C 0.23004 0.23388 0.56051 0.0
C231 C 0.26676 0.22178 0.56321 0.0
C232 C 0.21139 0.22782 0.54371 0.0
C233 C 0.22911 0.20954 0.52936 0.0
C234 C 0.26472 0.19537 0.53241 0.0
C235 C 0.2833 0.20124 0.54922 0.0
C236 C 0.21421 0.21143 0.51044 0.0
C237 C 0.20991 0.24788 0.5033 0.0
C238 C 0.21082 0.17924 0.49866 0.0
C239 C 0.21283 0.1398 0.50575 0.0
C240 C 0.23719 0.11511 0.49751 0.0
C241 C 0.23919 0.07809 0.50429 0.0
C242 C 0.21687 0.06535 0.5193 0.0
C243 C 0.19245 0.08957 0.52754 0.0
C244 C 0.19034 0.12661 0.5208 0.0
C245 C 0.24423 0.22962 0.42481 0.0
C246 C 0.22024 0.25495 0.41684 0.0
C247 C 0.23708 0.21597 0.44254 0.0
C248 C 0.20567 0.22716 0.45242 0.0
C249 C 0.1794 0.249 0.4437 0.0
C250 C 0.18693 0.26328 0.42612 0.0
C251 C 0.2045 0.22172 0.47251 0.0
C252 C 0.206 0.18486 0.47976 0.0
C253 C 0.20581 0.25354 0.48449 0.0
C254 C 0.20677 0.29344 0.47774 0.0
C255 C 0.17722 0.31613 0.48235 0.0
C256 C 0.17782 0.35363 0.47582 0.0
C257 C 0.20797 0.36878 0.46476 0.0
C258 C 0.23772 0.34655 0.46031 0.0
C259 C 0.2373 0.30907 0.46684 0.0
H260 H 0.20833 0.39779 0.45969 0.0
H261 H 0.21847 0.03668 0.52453 0.0
H262 H 0.76305 0.89226 0.80512 0.0
H263 H 0.76521 0.87459 0.7727 0.0
H264 H 0.68656 0.77509 0.78322 0.0
H265 H 0.68603 0.79156 0.8157 0.0
H266 H 0.73825 0.75566 0.76152 0.0
H267 H 0.65937 0.86115 0.76313 0.0
H268 H 0.64396 0.92678 0.77012 0.0
H269 H 0.73781 0.97243 0.73666 0.0
H270 H 0.75404 0.90703 0.72966 0.0
H271 H 0.64829 0.72589 0.67422 0.0
H272 H 0.66437 0.74121 0.70621 0.0
H273 H 0.76389 0.81306 0.68873 0.0
H274 H 0.74846 0.79732 0.65668 0.0
H275 H 0.71048 0.84796 0.71287 0.0
H276 H 0.78208 0.73809 0.70862 0.0
H277 H 0.79163 0.67108 0.70121 0.0
H278 H 0.70375 0.6321 0.73946 0.0
H279 H 0.69326 0.69891 0.74691 0.0
C280 C 0.74622 0.86668 0.80045 0.0
C281 C 0.72426 0.8433 0.81282 0.0
C282 C 0.74737 0.85666 0.78194 0.0
C283 C 0.72564 0.82377 0.77547 0.0
C284 C 0.70369 0.8005 0.78788 0.0
C285 C 0.70324 0.81002 0.80642 0.0
C286 C 0.72536 0.81342 0.75578 0.0
C287 C 0.73188 0.77581 0.75092 0.0
C288 C 0.71793 0.83992 0.74187 0.0
C289 C 0.70818 0.87924 0.74605 0.0
C290 C 0.67688 0.8852 0.75738 0.0
C291 C 0.66797 0.92235 0.76132 0.0
C292 C 0.68997 0.95376 0.75389 0.0
C293 C 0.72084 0.94808 0.74244 0.0
C294 C 0.7299 0.91098 0.73847 0.0
C295 C 0.67387 0.74452 0.67721 0.0
C296 C 0.69708 0.76053 0.66302 0.0
C297 C 0.68306 0.75312 0.69545 0.0
C298 C 0.71529 0.77816 0.6997 0.0
C299 C 0.73896 0.7936 0.68561 0.0
C300 C 0.73015 0.7845 0.66737 0.0
C301 C 0.72252 0.7902 0.71882 0.0
C302 C 0.71732 0.82809 0.72352 0.0
C303 C 0.73032 0.76378 0.7326 0.0
C304 C 0.73668 0.72355 0.72821 0.0
C305 C 0.76456 0.71525 0.71534 0.0
C306 C 0.77019 0.67729 0.71115 0.0
C307 C 0.74826 0.64735 0.71983 0.0
C308 C 0.7207 0.65532 0.73274 0.0
C309 C 0.71494 0.69323 0.73697 0.0
H310 H 0.75266 0.61798 0.71657 0.0
H311 H 0.68302 0.9825 0.75695 0.0
H312 H 0.25396 0.38394 0.30684 0.0
H313 H 0.24686 0.36826 0.27427 0.0
H314 H 0.1776 0.26421 0.28807 0.0
H315 H 0.18625 0.27886 0.3206 0.0
H316 H 0.22299 0.24932 0.26234 0.0
H317 H 0.13878 0.34711 0.27185 0.0
H318 H 0.11979 0.40983 0.28178 0.0
H319 H 0.20001 0.4664 0.2441 0.0
H320 H 0.21986 0.404 0.23411 0.0
H321 H 0.12753 0.22664 0.17451 0.0
H322 H 0.14006 0.24001 0.2071 0.0
H323 H 0.24047 0.31401 0.19284 0.0
H324 H 0.22882 0.30006 0.16031 0.0
H325 H 0.18005 0.34401 0.21811 0.0
H326 H 0.26167 0.24105 0.20889 0.0
H327 H 0.27433 0.17624 0.19893 0.0
H328 H 0.18952 0.12719 0.23651 0.0
H329 H 0.17594 0.19179 0.24649 0.0
C330 C 0.23728 0.35772 0.30287 0.0
C331 C 0.22056 0.33263 0.31617 0.0
C332 C 0.23307 0.34888 0.28429 0.0
C333 C 0.21114 0.31536 0.27872 0.0
C334 C 0.19466 0.2902 0.29204 0.0
C335 C 0.19953 0.29864 0.31061 0.0
C336 C 0.20547 0.30632 0.25902 0.0
C337 C 0.21318 0.26996 0.25275 0.0
C338 C 0.19301 0.3333 0.24642 0.0
C339 C 0.18109 0.37089 0.25237 0.0
C340 C 0.15258 0.37294 0.26578 0.0
C341 C 0.14162 0.40843 0.2714 0.0
C342 C 0.15876 0.44208 0.26361 0.0
C343 C 0.18681 0.4403 0.25014 0.0
C344 C 0.1979 0.40488 0.24448 0.0
C345 C 0.15242 0.2455 0.17836 0.0
C346 C 0.17725 0.26231 0.16496 0.0
C347 C 0.15951 0.25305 0.1969 0.0
C348 C 0.19111 0.27795 0.20219 0.0
C349 C 0.21597 0.29471 0.18889 0.0
C350 C 0.20935 0.28658 0.17039 0.0
C351 C 0.19762 0.28732 0.22166 0.0
C352 C 0.18995 0.32364 0.22781 0.0
C353 C 0.20921 0.26006 0.2342 0.0
C354 C 0.2175 0.22124 0.22828 0.0
C355 C 0.24545 0.21646 0.21489 0.0
C356 C 0.25285 0.17976 0.20928 0.0
C357 C 0.23266 0.14762 0.21705 0.0
C358 C 0.2051 0.15211 0.23049 0.0
C359 C 0.19756 0.18876 0.23614 0.0
H360 H 0.23844 0.11923 0.21268 0.0
H361 H 0.15024 0.46953 0.26799 0.0
H362 H 0.79135 0.7333 0.55402 0.0
H363 H 0.80758 0.75306 0.52275 0.0
H364 H 0.73327 0.8442 0.52692 0.0
H365 H 0.71595 0.82374 0.55801 0.0
H366 H 0.71339 0.80169 0.49941 0.0
H367 H 0.83166 0.86315 0.51873 0.0
H368 H 0.89282 0.87218 0.53553 0.0
H369 H 0.93354 0.77707 0.50684 0.0
H370 H 0.87242 0.76704 0.49006 0.0
H371 H 0.7344 0.80068 0.40391 0.0
H372 H 0.74541 0.83067 0.43398 0.0
H373 H 0.80873 0.73693 0.45095 0.0
H374 H 0.79865 0.70725 0.42099 0.0
H375 H 0.83747 0.80414 0.46678 0.0
H376 H 0.71217 0.73238 0.45682 0.0
H377 H 0.65016 0.72016 0.44087 0.0
H378 H 0.62325 0.83434 0.45322 0.0
H379 H 0.68536 0.84731 0.46906 0.0
C380 C 0.77918 0.7581 0.54842 0.0
C381 C 0.75186 0.77652 0.5583 0.0
C382 C 0.78878 0.76966 0.53059 0.0
C383 C 0.77178 0.80029 0.52249 0.0
C384 C 0.74669 0.82049 0.53288 0.0
C385 C 0.73668 0.80862 0.5506 0.0
C386 C 0.77483 0.80643 0.50245 0.0
C387 C 0.74066 0.80363 0.49232 0.0
C388 C 0.81031 0.80839 0.49315 0.0
C389 C 0.84731 0.8143 0.50315 0.0
C390 C 0.85354 0.84399 0.51607 0.0
C391 C 0.88824 0.84931 0.52559 0.0
C392 C 0.91704 0.82521 0.52226 0.0
C393 C 0.91122 0.79576 0.50939 0.0
C394 C 0.87657 0.79029 0.49984 0.0
C395 C 0.75134 0.78686 0.41392 0.0
C396 C 0.76489 0.75114 0.41023 0.0
C397 C 0.75774 0.80413 0.43105 0.0
C398 C 0.77739 0.7857 0.44474 0.0
C399 C 0.79351 0.75164 0.44057 0.0
C400 C 0.78734 0.73449 0.42347 0.0
C401 C 0.77613 0.79793 0.46409 0.0
C402 C 0.81046 0.80397 0.474 0.0
C403 C 0.74082 0.79881 0.47332 0.0
C404 C 0.70351 0.79097 0.46387 0.0
C405 C 0.6931 0.75493 0.45601 0.0
C406 C 0.65795 0.74786 0.44702 0.0
C407 C 0.63284 0.7765 0.44598 0.0
C408 C 0.64278 0.81223 0.45399 0.0
C409 C 0.67794 0.81946 0.46297 0.0
H410 H 0.60563 0.77098 0.43901 0.0
H411 H 0.94388 0.82937 0.52965 0.0
H412 H 0.29426 0.19051 0.65947 0.0
H413 H 0.27746 0.18905 0.69186 0.0
H414 H 0.37991 0.26228 0.70426 0.0
H415 H 0.39784 0.26219 0.6718 0.0
H416 H 0.37161 0.2097 0.72852 0.0
H417 H 0.28806 0.29577 0.70415 0.0
H418 H 0.24078 0.31966 0.68301 0.0
H419 H 0.1585 0.22724 0.69844 0.0
H420 H 0.20547 0.20245 0.71949 0.0
H421 H 0.30002 0.24085 0.81894 0.0
H422 H 0.31686 0.25558 0.787 0.0
H423 H 0.24631 0.15526 0.76927 0.0
H424 H 0.22997 0.13975 0.80123 0.0
H425 H 0.24006 0.23013 0.74885 0.0
H426 H 0.3306 0.14245 0.77107 0.0
H427 H 0.37893 0.12324 0.79298 0.0
H428 H 0.44931 0.22738 0.78223 0.0
H429 H 0.40108 0.24744 0.76044 0.0
C430 C 0.31317 0.20634 0.66911 0.0
C431 C 0.34724 0.22659 0.66319 0.0
C432 C 0.30339 0.20576 0.68759 0.0
C433 C 0.32693 0.22635 0.70044 0.0
C434 C 0.36121 0.24638 0.69456 0.0
C435 C 0.37142 0.24631 0.67606 0.0
C436 C 0.31622 0.22557 0.72007 0.0
C437 C 0.34306 0.21493 0.73295 0.0
C438 C 0.27889 0.23222 0.72592 0.0
C439 C 0.25042 0.2471 0.71332 0.0
C440 C 0.25997 0.28038 0.70295 0.0
C441 C 0.23321 0.29411 0.69099 0.0
C442 C 0.19668 0.27494 0.68936 0.0
C443 C 0.18682 0.24205 0.69971 0.0
C444 C 0.21348 0.22818 0.71168 0.0
C445 C 0.28782 0.22213 0.80822 0.0
C446 C 0.26385 0.18906 0.8125 0.0
C447 C 0.29748 0.23058 0.79005 0.0
C448 C 0.28281 0.20641 0.77595 0.0
C449 C 0.25775 0.17418 0.78008 0.0
C450 C 0.24862 0.16531 0.79828 0.0
C451 C 0.29516 0.21357 0.75692 0.0
C452 C 0.26867 0.22546 0.74427 0.0
C453 C 0.33295 0.20888 0.75134 0.0
C454 C 0.36205 0.19663 0.7643 0.0
C455 C 0.35622 0.1614 0.77351 0.0
C456 C 0.38362 0.15033 0.78588 0.0
C457 C 0.41711 0.17413 0.78904 0.0
C458 C 0.42332 0.209 0.77979 0.0
C459 C 0.39598 0.22022 0.76743 0.0
H460 H 0.4383 0.16551 0.79863 0.0
H461 H 0.17601 0.2856 0.68009 0.0
H462 H 0.72605 0.76596 0.05924 0.0
H463 H 0.70102 0.75258 0.0285 0.0
H464 H 0.76695 0.65483 0.02471 0.0
H465 H 0.79316 0.66892 0.05525 0.0
H466 H 0.78404 0.70027 -0.0019 0.0
H467 H 0.66652 0.64546 0.02152 0.0
H468 H 0.60924 0.63866 0.04116 0.0
H469 H 0.57153 0.74178 0.01857 0.0
H470 H 0.62886 0.74958 -0.00102 0.0
H471 H 0.74235 0.71168 0.90484 0.0
H472 H 0.73475 0.68058 0.93474 0.0
H473 H 0.68596 0.77974 0.95635 0.0
H474 H 0.69262 0.8107 0.92647 0.0
H475 H 0.65469 0.71302 0.97257 0.0
H476 H 0.78169 0.77528 0.95759 0.0
H477 H 0.84002 0.7842 0.93865 0.0
H478 H 0.85945 0.66625 0.94658 0.0
H479 H 0.80093 0.6566 0.9654 0.0
C480 C 0.73452 0.74109 0.05203 0.0
C481 C 0.7621 0.71893 0.05947 0.0
C482 C 0.71985 0.73318 0.03451 0.0
C483 C 0.73197 0.70256 0.0243 0.0
C484 C 0.75726 0.67863 0.03233 0.0
C485 C 0.77235 0.68685 0.04973 0.0
C486 C 0.72392 0.7001 0.00437 0.0
C487 C 0.75549 0.70168 -0.00747 0.0
C488 C 0.68684 0.70264 -0.00294 0.0
C489 C 0.65216 0.69815 0.0088 0.0
C490 C 0.64617 0.66685 0.02082 0.0
C491 C 0.61364 0.66279 0.03194 0.0
C492 C 0.58678 0.68978 0.03113 0.0
C493 C 0.59235 0.72087 0.01917 0.0
C494 C 0.62484 0.72508 0.00802 0.0
C495 C 0.72929 0.72657 0.91585 0.0
C496 C 0.71893 0.76403 0.91343 0.0
C497 C 0.72478 0.70865 0.93288 0.0
C498 C 0.71039 0.72816 0.94778 0.0
C499 C 0.69713 0.76422 0.945 0.0
C500 C 0.7013 0.78202 0.92795 0.0
C501 C 0.71488 0.71432 0.96671 0.0
C502 C 0.68283 0.70996 0.97825 0.0
C503 C 0.75154 0.70925 0.97388 0.0
C504 C 0.78677 0.71511 0.96267 0.0
C505 C 0.7983 0.75122 0.95518 0.0
C506 C 0.83138 0.75641 0.94449 0.0
C507 C 0.85335 0.72578 0.94136 0.0
C508 C 0.84235 0.68992 0.94897 0.0
C509 C 0.80924 0.68458 0.95965 0.0
H510 H 0.87896 0.72984 0.93308 0.0
H511 H 0.56162 0.68659 0.03975 0.0
H512 H 0.06089 0.15705 0.0889 0.0
H513 H 0.01878 0.09854 0.08401 0.0
H514 H 0.1129 0.03068 0.09454 0.0
H515 H 0.15534 0.08906 0.09955 0.0
H516 H 0.06345 0.0031 0.06481 0.0
H517 H 0.05706 0.04291 0.12822 0.0
H518 H 0.04776 0.08909 0.15295 0.0
H519 H 0.93385 0.10114 0.13356 0.0
H520 H 0.9427 0.05541 0.10854 0.0
H521 H 0.96335 0.82529 0.09063 0.0
H522 H 0.00565 0.88399 0.08673 0.0
H523 H 0.90799 0.95038 0.08821 0.0
H524 H 0.86581 0.892 0.09277 0.0
H525 H 0.95897 0.98016 0.11031 0.0
H526 H 0.96205 0.93816 0.04811 0.0
H527 H 0.97026 0.89348 0.02262 0.0
H528 H 0.08753 0.8867 0.03818 0.0
H529 H 0.0799 0.93097 0.06392 0.0
C530 C 0.07284 0.12974 0.08994 0.0
C531 C 0.11142 0.12772 0.09481 0.0
C532 C 0.0487 0.09635 0.08714 0.0
C533 C 0.06273 0.06038 0.08906 0.0
C534 C 0.1016 0.05823 0.09299 0.0
C535 C 0.12572 0.09161 0.09595 0.0
C536 C 0.0362 0.02512 0.08847 0.0
C537 C 0.04074 0.99777 0.07481 0.0
C538 C 0.00613 0.01881 0.10129 0.0
C539 C 1.00069 0.04608 0.1164 0.0
C540 C 0.03015 0.05566 0.12914 0.0
C541 C 0.02494 0.0817 0.14322 0.0
C542 C 0.99027 0.09813 0.14479 0.0
C543 C 0.9607 0.08845 0.13231 0.0
C544 C 0.96579 0.06245 0.11818 0.0
C545 C 0.95086 0.85236 0.08985 0.0
C546 C 0.91127 0.85404 0.09214 0.0
C547 C 0.97507 0.88592 0.08753 0.0
C548 C 0.96004 0.9217 0.08706 0.0
C549 C 0.92032 0.92319 0.08861 0.0
C550 C 0.89622 0.88976 0.0912 0.0
C551 C 0.98577 0.95775 0.08651 0.0
C552 C 0.98129 0.98534 0.10011 0.0
C553 C 0.01559 0.96432 0.0735 0.0
C554 C 0.02028 0.93762 0.05806 0.0
C555 C 0.9895 0.9269 0.04619 0.0
C556 C 0.99407 0.9017 0.03168 0.0
C557 C 0.02937 0.88719 0.02881 0.0
C558 C 0.0602 0.89793 0.04043 0.0
C559 C 0.05578 0.92311 0.05497 0.0
H560 H 0.03285 0.86769 0.01756 0.0
H561 H 0.98629 0.11828 0.15571 0.0
H562 H 0.08579 0.37004 0.38483 0.0
H563 H 0.0286 0.40438 0.38747 0.0
H564 H 0.09877 0.51185 0.38838 0.0
H565 H 0.1564 0.47761 0.38589 0.0
H566 H 0.03857 0.51011 0.41309 0.0
H567 H 0.05777 0.48301 0.34948 0.0
H568 H 0.06871 0.4422 0.32281 0.0
H569 H 0.96275 0.3747 0.33335 0.0
H570 H 0.95144 0.41481 0.36025 0.0
H571 H 0.89774 0.63192 0.38436 0.0
H572 H 0.95409 0.59666 0.38835 0.0
H573 H 0.88278 0.48998 0.38565 0.0
H574 H 0.82622 0.52507 0.3815 0.0
H575 H 0.94335 0.4907 0.36277 0.0
H576 H 0.92292 0.52073 0.42586 0.0
H577 H 0.91263 0.56253 0.45223 0.0
H578 H 0.02112 0.62597 0.44236 0.0
H579 H 0.03182 0.58488 0.41575 0.0
C580 C 0.08915 0.40097 0.38576 0.0
C581 C 0.1256 0.42116 0.38498 0.0
C582 C 0.05642 0.42053 0.38724 0.0
C583 C 0.05947 0.46064 0.38787 0.0
C584 C 0.09586 0.48087 0.38787 0.0
C585 C 0.1287 0.46128 0.38638 0.0
C586 C 0.02456 0.48137 0.38754 0.0
C587 C 0.0179 0.50625 0.40201 0.0
C588 C 0.99736 0.47571 0.37322 0.0
C589 C 0.00396 0.45167 0.35699 0.0
C590 C 0.03695 0.45928 0.34619 0.0
C591 C 0.0432 0.43631 0.33102 0.0
C592 C 0.01649 0.40581 0.32642 0.0
C593 C 0.98343 0.3983 0.33695 0.0
C594 C 0.97708 0.42116 0.35215 0.0
C595 C 0.89397 0.60096 0.38481 0.0
C596 C 0.85754 0.58125 0.38256 0.0
C597 C 0.9262 0.58086 0.38718 0.0
C598 C 0.92258 0.54071 0.38741 0.0
C599 C 0.88616 0.52098 0.38553 0.0
C600 C 0.85388 0.54106 0.38321 0.0
C601 C 0.95707 0.51936 0.38839 0.0
C602 C 0.9638 0.49444 0.37395 0.0
C603 C 0.98433 0.52519 0.40269 0.0
C604 C 0.978 0.54993 0.4187 0.0
C605 C 0.94444 0.5438 0.42921 0.0
C606 C 0.93856 0.56733 0.44423 0.0
C607 C 0.96616 0.59695 0.44894 0.0
C608 C 0.99974 0.60304 0.43868 0.0
C609 C 0.00575 0.57961 0.42364 0.0
H610 H 0.96156 0.61513 0.46057 0.0
H611 H 0.02138 0.38806 0.31467 0.0
H612 H 0.37673 0.39385 0.59858 0.0
H613 H 0.42085 0.45094 0.59367 0.0
H614 H 0.51314 0.38002 0.58458 0.0
H615 H 0.4692 0.32267 0.58933 0.0
H616 H 0.52888 0.43667 0.61117 0.0
H617 H 0.48174 0.42649 0.5495 0.0
H618 H 0.43242 0.42016 0.5253 0.0
H619 H 0.39079 0.52584 0.54242 0.0
H620 H 0.43953 0.53255 0.5669 0.0
H621 H 0.66618 0.59092 0.59375 0.0
H622 H 0.62504 0.53166 0.58933 0.0
H623 H 0.52537 0.59517 0.59029 0.0
H624 H 0.56643 0.65473 0.59407 0.0
H625 H 0.51541 0.54004 0.56587 0.0
H626 H 0.55581 0.54814 0.62878 0.0
H627 H 0.60211 0.55533 0.6543 0.0
H628 H 0.6525 0.45459 0.63657 0.0
H629 H 0.60678 0.44709 0.61078 0.0
C630 C 0.40631 0.39034 0.5953 0.0
C631 C 0.4195 0.35371 0.59444 0.0
C632 C 0.43142 0.423 0.59241 0.0
C633 C 0.47019 0.41964 0.58871 0.0
C634 C 0.48328 0.38315 0.58738 0.0
C635 C 0.4581 0.35044 0.59006 0.0
C636 C 0.49756 0.45427 0.58771 0.0
C637 C 0.52645 0.45896 0.60104 0.0
C638 C 0.49347 0.48379 0.57486 0.0
C639 C 0.4641 0.47984 0.56015 0.0
C640 C 0.46186 0.44821 0.54821 0.0
C641 C 0.43405 0.4446 0.53442 0.0
C642 C 0.40843 0.47254 0.53235 0.0
C643 C 0.41063 0.5042 0.54405 0.0
C644 C 0.43838 0.50795 0.55788 0.0
C645 C 0.63552 0.59233 0.59284 0.0
C646 C 0.61955 0.6275 0.59445 0.0
C647 C 0.61202 0.5584 0.59038 0.0
C648 C 0.57204 0.55884 0.58987 0.0
C649 C 0.55612 0.59408 0.5907 0.0
C650 C 0.57964 0.62811 0.59291 0.0
C651 C 0.54677 0.52252 0.58937 0.0
C652 C 0.51816 0.51757 0.57586 0.0
C653 C 0.55068 0.49289 0.60224 0.0
C654 C 0.57817 0.49731 0.61774 0.0
C655 C 0.57696 0.52769 0.63025 0.0
C656 C 0.60306 0.5318 0.64477 0.0
C657 C 0.63031 0.5055 0.64702 0.0
C658 C 0.63143 0.47498 0.63478 0.0
C659 C 0.60542 0.47077 0.62022 0.0
H660 H 0.65049 0.50872 0.65828 0.0
H661 H 0.38693 0.46969 0.52166 0.0
H662 H 0.64946 0.98543 0.88336 0.0
H663 H 0.59128 0.01872 0.88564 0.0
H664 H 0.52231 0.91113 0.8801 0.0
H665 H 0.58019 0.87772 0.87768 0.0
H666 H 0.49906 0.96483 0.85709 0.0
H667 H 0.52971 0.95626 0.92103 0.0
H668 H 0.57083 0.96439 0.94846 0.0
H669 H 0.58315 0.086 0.94017 0.0
H670 H 0.54252 0.07856 0.91253 0.0
H671 H 0.32029 0.03492 0.87591 0.0
H672 H 0.37672 0.99909 0.87861 0.0
H673 H 0.44854 0.1049 0.8844 0.0
H674 H 0.39233 0.14086 0.8819 0.0
H675 H 0.46952 0.05092 0.9081 0.0
H676 H 0.44242 0.06017 0.84382 0.0
H677 H 0.40243 0.05345 0.81597 0.0
H678 H 0.38499 0.93203 0.8244 0.0
H679 H 0.42448 0.93812 0.85247 0.0
C680 C 0.6219 0.96884 0.88279 0.0
C681 C 0.61941 0.92897 0.8803 0.0
C682 C 0.5887 0.98787 0.88416 0.0
C683 C 0.55249 0.96734 0.88313 0.0
C684 C 0.54997 0.9275 0.88092 0.0
C685 C 0.58309 0.90846 0.87958 0.0
C686 C 0.5172 0.98753 0.88346 0.0
C687 C 0.49227 0.98315 0.86839 0.0
C688 C 0.50895 0.01225 0.89797 0.0
C689 C 0.53336 0.01681 0.9146 0.0
C690 C 0.54145 0.98471 0.92496 0.0
C691 C 0.56462 0.9892 0.94057 0.0
C692 C 0.57968 0.02568 0.94603 0.0
C693 C 0.57151 0.05776 0.93591 0.0
C694 C 0.54838 0.05342 0.92029 0.0
C695 C 0.34806 0.05053 0.87789 0.0
C696 C 0.3519 0.09071 0.87858 0.0
C697 C 0.38027 0.03004 0.87938 0.0
C698 C 0.41684 0.04939 0.8815 0.0
C699 C 0.42059 0.08943 0.88276 0.0
C700 C 0.38844 0.10992 0.88126 0.0
C701 C 0.45139 0.02806 0.88177 0.0
C702 C 0.47621 0.03236 0.89689 0.0
C703 C 0.45973 0.00342 0.86724 0.0
C704 C 0.43605 0.99966 0.85035 0.0
C705 C 0.42979 0.03208 0.83982 0.0
C706 C 0.40727 0.02838 0.82398 0.0
C707 C 0.39108 0.99235 0.81845 0.0
C708 C 0.39749 0.95993 0.82872 0.0
C709 C 0.41996 0.96348 0.84459 0.0
H710 H 0.37366 0.98953 0.80618 0.0
H711 H 0.5976 0.02909 0.95811 0.0
H712 H 0.87311 0.5854 0.08769 0.0
H713 H 0.90532 0.52676 0.08524 0.0
H714 H 0.01469 0.592 0.0921 0.0
H715 H 0.98269 0.65097 0.09422 0.0
H716 H 0.01819 0.53642 0.06651 0.0
H717 H 0.9703 0.5456 0.1282 0.0
H718 H 0.9207 0.55237 0.1516 0.0
H719 H 0.85753 0.44978 0.13205 0.0
H720 H 0.90655 0.4427 0.10837 0.0
H721 H 0.13333 0.39637 0.09938 0.0
H722 H 0.09681 0.45151 0.09487 0.0
H723 H 0.99298 0.37645 0.08949 0.0
H724 H 0.02938 0.32092 0.09433 0.0
H725 H 0.98317 0.43446 0.11216 0.0
H726 H 0.03427 0.4222 0.05205 0.0
H727 H 0.08434 0.41541 0.02892 0.0
H728 H 0.14183 0.52324 0.0454 0.0
H729 H 0.09238 0.53045 0.06883 0.0
C730 C 0.90405 0.58734 0.0885 0.0
C731 C 0.92537 0.62276 0.09132 0.0
C732 C 0.92239 0.55378 0.08715 0.0
C733 C 0.96234 0.55496 0.0888 0.0
C734 C 0.98382 0.59046 0.09085 0.0
C735 C 0.96549 0.6241 0.0921 0.0
C736 C 0.9816 0.51909 0.08925 0.0
C737 C 0.0108 0.51424 0.07658 0.0
C738 C 0.97122 0.48975 0.10209 0.0
C739 C 0.94187 0.49385 0.1164 0.0
C740 C 0.94569 0.52465 0.12881 0.0
C741 C 0.91771 0.52852 0.14213 0.0
C742 C 0.88593 0.50159 0.14327 0.0
C743 C 0.88213 0.47066 0.13113 0.0
C744 C 0.91001 0.46669 0.11776 0.0
C745 C 0.10275 0.39151 0.09714 0.0
C746 C 0.08422 0.35428 0.09721 0.0
C747 C 0.08194 0.42308 0.09444 0.0
C748 C 0.04224 0.41808 0.09159 0.0
C749 C 0.02363 0.38092 0.0916 0.0
C750 C 0.04445 0.34925 0.09434 0.0
C751 C 0.02008 0.45184 0.08952 0.0
C752 C 0.99034 0.45638 0.10193 0.0
C753 C 0.03002 0.48085 0.07645 0.0
C754 C 0.05974 0.47671 0.0623 0.0
C755 C 0.05774 0.44434 0.05084 0.0
C756 C 0.08598 0.44044 0.03766 0.0
C757 C 0.11629 0.46884 0.03572 0.0
C758 C 0.11835 0.50125 0.04693 0.0
C759 C 0.09019 0.50529 0.06015 0.0
H760 H 0.13813 0.46576 0.0255 0.0
H761 H 0.86429 0.50463 0.15359 0.0
H762 H 0.3944 0.36094 0.37938 0.0
H763 H 0.45198 0.40498 0.38327 0.0
H764 H 0.3821 0.49826 0.39196 0.0
H765 H 0.32429 0.4544 0.38826 0.0
H766 H 0.43763 0.51136 0.36435 0.0
H767 H 0.42977 0.46912 0.4269 0.0
H768 H 0.42432 0.42149 0.45181 0.0
H769 H 0.52913 0.37833 0.43452 0.0
H770 H 0.53494 0.42537 0.40933 0.0
H771 H 0.59247 0.64968 0.378 0.0
H772 H 0.53332 0.60906 0.38348 0.0
H773 H 0.59706 0.50955 0.38512 0.0
H774 H 0.65655 0.5503 0.38043 0.0
H775 H 0.54256 0.50143 0.4093 0.0
H776 H 0.54864 0.53632 0.34572 0.0
H777 H 0.55512 0.58028 0.31931 0.0
H778 H 0.455 0.63242 0.33649 0.0
H779 H 0.44822 0.58907 0.36314 0.0
C780 C 0.39124 0.39073 0.38236 0.0
C781 C 0.35476 0.40421 0.38341 0.0
C782 C 0.42418 0.41579 0.38467 0.0
C783 C 0.42122 0.4548 0.38795 0.0
C784 C 0.3849 0.4682 0.38948 0.0
C785 C 0.35193 0.44308 0.3874 0.0
C786 C 0.456 0.48202 0.38824 0.0
C787 C 0.46029 0.50973 0.37439 0.0
C788 C 0.48599 0.47886 0.40097 0.0
C789 C 0.4826 0.45057 0.41612 0.0
C790 C 0.45149 0.44926 0.42831 0.0
C791 C 0.44837 0.42241 0.4425 0.0
C792 C 0.47632 0.39684 0.44472 0.0
C793 C 0.50749 0.39813 0.43277 0.0
C794 C 0.51073 0.42491 0.41855 0.0
C795 C 0.59391 0.61918 0.37969 0.0
C796 C 0.62909 0.60311 0.37859 0.0
C797 C 0.56007 0.59596 0.38276 0.0
C798 C 0.56059 0.55611 0.38428 0.0
C799 C 0.59589 0.54019 0.38392 0.0
C800 C 0.62987 0.56351 0.3812 0.0
C801 C 0.52429 0.53088 0.38536 0.0
C802 C 0.51976 0.5034 0.39938 0.0
C803 C 0.49423 0.53371 0.37257 0.0
C804 C 0.49818 0.55974 0.35653 0.0
C805 C 0.52817 0.55735 0.34393 0.0
C806 C 0.53187 0.58212 0.32891 0.0
C807 C 0.50555 0.6092 0.32625 0.0
C808 C 0.47541 0.61148 0.33858 0.0
C809 C 0.47161 0.5868 0.35364 0.0
H810 H 0.50846 0.62835 0.31461 0.0
H811 H 0.47386 0.37608 0.45572 0.0
H812 H 0.38015 0.08458 0.59548 0.0
H813 H 0.4128 0.02611 0.59391 0.0
H814 H 0.52207 0.09324 0.59446 0.0
H815 H 0.48957 0.15203 0.59581 0.0
H816 H 0.52093 0.03381 0.57021 0.0
H817 H 0.48694 0.05229 0.63328 0.0
H818 H 0.44307 0.06274 0.65879 0.0
H819 H 0.37658 0.9573 0.6459 0.0
H820 H 0.41978 0.9465 0.62013 0.0
H821 H 0.6418 0.896 0.60016 0.0
H822 H 0.60514 0.95143 0.59701 0.0
H823 H 0.49999 0.87747 0.59775 0.0
H824 H 0.5366 0.82163 0.60116 0.0
H825 H 0.49631 0.93844 0.61999 0.0
H826 H 0.53307 0.91801 0.55793 0.0
H827 H 0.57762 0.90766 0.53269 0.0
H828 H 0.63945 0.01652 0.54375 0.0
H829 H 0.59558 0.0273 0.56924 0.0
C830 C 0.41113 0.08696 0.59511 0.0
C831 C 0.43232 0.12291 0.59591 0.0
C832 C 0.42973 0.0535 0.59427 0.0
C833 C 0.46984 0.05534 0.59435 0.0
C834 C 0.49108 0.09122 0.59444 0.0
C835 C 0.47248 0.12476 0.59525 0.0
C836 C 0.48962 0.01983 0.59503 0.0
C837 C 0.51586 0.0131 0.58117 0.0
C838 C 0.48226 0.99244 0.60912 0.0
C839 C 0.45635 0.9988 0.62466 0.0
C840 C 0.46279 0.03149 0.63579 0.0
C841 C 0.43807 0.03745 0.65032 0.0
C842 C 0.40699 0.01076 0.65393 0.0
C843 C 0.40063 0.97799 0.64306 0.0
C844 C 0.42523 0.97192 0.6285 0.0
C845 C 0.61087 0.89144 0.5996 0.0
C846 C 0.59207 0.85442 0.60089 0.0
C847 C 0.58997 0.92317 0.5977 0.0
C848 C 0.54987 0.91853 0.59689 0.0
C849 C 0.53095 0.88163 0.59827 0.0
C850 C 0.55188 0.84979 0.60019 0.0
C851 C 0.52782 0.95243 0.59521 0.0
C852 C 0.50117 0.95893 0.60892 0.0
C853 C 0.53487 0.9796 0.581 0.0
C854 C 0.5612 0.97332 0.5656 0.0
C855 C 0.55633 0.93962 0.55507 0.0
C856 C 0.58144 0.9337 0.5407 0.0
C857 C 0.6114 0.96138 0.53664 0.0
C858 C 0.61625 0.99509 0.54692 0.0
C859 C 0.59124 0.00114 0.56132 0.0
H860 H 0.6308 0.95673 0.52551 0.0
H861 H 0.38789 0.01542 0.66519 0.0
H862 H 0.89001 0.87227 0.87653 0.0
H863 H 0.94732 0.91651 0.88076 0.0
H864 H 0.87677 0.00907 0.88996 0.0
H865 H 0.81923 0.96501 0.88588 0.0
H866 H 0.93251 0.02391 0.86281 0.0
H867 H 0.92436 0.97835 0.92482 0.0
H868 H 0.91899 0.92946 0.94916 0.0
H869 H 0.0243 0.8879 0.93149 0.0
H870 H 0.03004 0.93621 0.90687 0.0
H871 H 0.0872 0.16215 0.87867 0.0
H872 H 0.02791 0.12111 0.88318 0.0
H873 H 0.09172 0.02161 0.88364 0.0
H874 H 0.15125 0.06264 0.87988 0.0
H875 H 0.03718 0.0122 0.90771 0.0
H876 H 0.04357 0.05056 0.84457 0.0
H877 H 0.04991 0.0959 0.8187 0.0
H878 H 0.9493 0.14644 0.83647 0.0
H879 H 0.94264 0.10168 0.86259 0.0
C880 C 0.88664 0.90193 0.87968 0.0
C881 C 0.85004 0.91515 0.88078 0.0
C882 C 0.91942 0.92713 0.88218 0.0
C883 C 0.91622 0.966 0.88572 0.0
C884 C 0.87978 0.97913 0.88727 0.0
C885 C 0.84696 0.95388 0.88498 0.0
C886 C 0.95088 0.9934 0.88634 0.0
C887 C 0.95511 0.02187 0.87284 0.0
C888 C 0.98079 0.98977 0.89906 0.0
C889 C 0.97745 0.96072 0.91389 0.0
C890 C 0.94621 0.95858 0.92602 0.0
C891 C 0.94313 0.93101 0.93989 0.0
C892 C 0.97124 0.90553 0.94185 0.0
C893 C 0.00253 0.90763 0.92995 0.0
C894 C 0.00573 0.93514 0.91605 0.0
C895 C 0.08862 0.13155 0.87988 0.0
C896 C 0.12387 0.1156 0.87875 0.0
C897 C 0.05469 0.10809 0.88239 0.0
C898 C 0.05521 0.06815 0.88335 0.0
C899 C 0.09053 0.05231 0.88289 0.0
C900 C 0.12456 0.07581 0.88068 0.0
C901 C 0.01895 0.04278 0.88411 0.0
C902 C 0.01444 0.01457 0.89779 0.0
C903 C 0.98895 0.04615 0.87134 0.0
C904 C 0.99286 0.07307 0.85564 0.0
C905 C 0.02297 0.07154 0.84304 0.0
C906 C 0.02659 0.09709 0.82832 0.0
C907 C 1.00009 0.12411 0.82598 0.0
C908 C 0.96984 0.12555 0.83832 0.0
C909 C 0.96612 0.10008 0.85308 0.0
H910 H 0.00293 0.14387 0.81457 0.0
H911 H 0.96881 0.88421 0.9526 0.0
loop_
_geom_bond_atom_site_label_1
_geom_bond_atom_site_label_2
_geom_bond_distance
_geom_bond_site_symmetry_2
_ccdc_geom_bond_type
C0 O1 1.306 . S
C0 O3 1.160 . S
O1 C0 1.306 . S
O1 Cd2 2.228 . S
Cd2 O1 2.228 . S
Cd2 O6 2.273 . S
Cd2 O10 2.277 . S
O3 C0 1.160 . S
O3 Cd4 2.203 . S
Cd4 O3 2.203 . S
Cd4 O6 2.411 . S
Cd4 O7 2.333 . S
Cd4 O8 2.352 . S
Cd4 O12 2.277 . S
Cd4 O13 2.356 . S
C5 O10 1.209 . S
C5 O12 1.226 . S
O6 Cd2 2.273 . S
O6 Cd4 2.411 . S
O6 C9 1.320 . S
O7 Cd4 2.333 . S
O7 C9 1.214 . S
O8 Cd4 2.352 . S
O8 C11 1.258 . S
C9 O6 1.320 . S
C9 O7 1.214 . S
O10 Cd2 2.277 . S
O10 C5 1.209 . S
C11 O8 1.258 . S
C11 O13 1.282 . S
O12 Cd4 2.277 . S
O12 C5 1.226 . S
O13 Cd4 2.356 . S
O13 C11 1.282 . S
C14 O15 1.306 . S
C14 O17 1.160 . S
O15 C14 1.306 . S
O15 Cd16 2.228 . S
Cd16 O15 2.228 . S
Cd16 O20 2.273 . S
Cd16 O24 2.277 . S
O17 C14 1.160 . S
O17 Cd18 2.203 . S
Cd18 O17 2.203 . S
Cd18 O20 2.411 . S
Cd18 O21 2.333 . S
Cd18 O22 2.352 . S
Cd18 O26 2.277 . S
Cd18 O27 2.356 . S
C19 O24 1.209 . S
C19 O26 1.226 . S
O20 Cd16 2.273 . S
O20 Cd18 2.411 . S
O20 C23 1.320 . S
O21 Cd18 2.333 . S
O21 C23 1.214 . S
O22 Cd18 2.352 . S
O22 C25 1.258 . S
C23 O20 1.320 . S
C23 O21 1.214 . S
O24 Cd16 2.277 . S
O24 C19 1.209 . S
C25 O22 1.258 . S
C25 O27 1.282 . S
O26 Cd18 2.277 . S
O26 C19 1.226 . S
O27 Cd18 2.356 . S
O27 C25 1.282 . S
C28 O29 1.306 . S
C28 O31 1.160 . S
O29 C28 1.306 . S
O29 Cd30 2.228 . S
Cd30 O29 2.228 . S
Cd30 O34 2.273 . S
Cd30 O38 2.277 . S
O31 C28 1.160 . S
O31 Cd32 2.203 . S
Cd32 O31 2.203 . S
Cd32 O34 2.411 . S
Cd32 O35 2.333 . S
Cd32 O36 2.352 . S
Cd32 O40 2.277 . S
Cd32 O41 2.356 . S
C33 O38 1.209 . S
C33 O40 1.226 . S
O34 Cd30 2.273 . S
O34 Cd32 2.411 . S
O34 C37 1.320 . S
O35 Cd32 2.333 . S
O35 C37 1.214 . S
O36 Cd32 2.352 . S
O36 C39 1.258 . S
C37 O34 1.320 . S
C37 O35 1.214 . S
O38 Cd30 2.277 . S
O38 C33 1.209 . S
C39 O36 1.258 . S
C39 O41 1.282 . S
O40 Cd32 2.277 . S
O40 C33 1.226 . S
O41 Cd32 2.356 . S
O41 C39 1.282 . S
C42 O43 1.306 . S
C42 O45 1.160 . S
O43 C42 1.306 . S
O43 Cd44 2.228 . S
Cd44 O43 2.228 . S
Cd44 O48 2.273 . S
Cd44 O52 2.277 . S
O45 C42 1.160 . S
O45 Cd46 2.203 . S
Cd46 O45 2.203 . S
Cd46 O48 2.411 . S
Cd46 O49 2.333 . S
Cd46 O50 2.352 . S
Cd46 O54 2.277 . S
Cd46 O55 2.356 . S
C47 O52 1.209 . S
C47 O54 1.226 . S
O48 Cd44 2.273 . S
O48 Cd46 2.411 . S
O48 C51 1.320 . S
O49 Cd46 2.333 . S
O49 C51 1.214 . S
O50 Cd46 2.352 . S
O50 C53 1.258 . S
C51 O48 1.320 . S
C51 O49 1.214 . S
O52 Cd44 2.277 . S
O52 C47 1.209 . S
C53 O50 1.258 . S
C53 O55 1.282 . S
O54 Cd46 2.277 . S
O54 C47 1.226 . S
O55 Cd46 2.356 . S
O55 C53 1.282 . S
C56 O57 1.306 . S
C56 O59 1.160 . S
O57 C56 1.306 . S
O57 Cd58 2.228 . S
Cd58 O57 2.228 . S
Cd58 O62 2.273 . S
Cd58 O66 2.277 . S
O59 C56 1.160 . S
O59 Cd60 2.203 . S
Cd60 O59 2.203 . S
Cd60 O62 2.411 . S
Cd60 O63 2.333 . S
Cd60 O64 2.352 . S
Cd60 O68 2.277 . S
Cd60 O69 2.356 . S
C61 O66 1.209 . S
C61 O68 1.226 . S
O62 Cd58 2.273 . S
O62 Cd60 2.411 . S
O62 C65 1.320 . S
O63 Cd60 2.333 . S
O63 C65 1.214 . S
O64 Cd60 2.352 . S
O64 C67 1.258 . S
C65 O62 1.320 . S
C65 O63 1.214 . S
O66 Cd58 2.277 . S
O66 C61 1.209 . S
C67 O64 1.258 . S
C67 O69 1.282 . S
O68 Cd60 2.277 . S
O68 C61 1.226 . S
O69 Cd60 2.356 . S
O69 C67 1.282 . S
C70 O71 1.306 . S
C70 O73 1.160 . S
O71 C70 1.306 . S
O71 Cd72 2.228 . S
Cd72 O71 2.228 . S
Cd72 O76 2.273 . S
Cd72 O80 2.277 . S
O73 C70 1.160 . S
O73 Cd74 2.203 . S
Cd74 O73 2.203 . S
Cd74 O76 2.411 . S
Cd74 O77 2.333 . S
Cd74 O78 2.352 . S
Cd74 O82 2.277 . S
Cd74 O83 2.356 . S
C75 O80 1.209 . S
C75 O82 1.226 . S
O76 Cd72 2.273 . S
O76 Cd74 2.411 . S
O76 C79 1.320 . S
O77 Cd74 2.333 . S
O77 C79 1.214 . S
O78 Cd74 2.352 . S
O78 C81 1.258 . S
C79 O76 1.320 . S
C79 O77 1.214 . S
O80 Cd72 2.277 . S
O80 C75 1.209 . S
C81 O78 1.258 . S
C81 O83 1.282 . S
O82 Cd74 2.277 . S
O82 C75 1.226 . S
O83 Cd74 2.356 . S
O83 C81 1.282 . S
C84 O85 1.306 . S
C84 O87 1.160 . S
O85 C84 1.306 . S
O85 Cd86 2.228 . S
Cd86 O85 2.228 . S
Cd86 O90 2.273 . S
Cd86 O94 2.277 . S
O87 C84 1.160 . S
O87 Cd88 2.203 . S
Cd88 O87 2.203 . S
Cd88 O90 2.411 . S
Cd88 O91 2.333 . S
Cd88 O92 2.352 . S
Cd88 O96 2.277 . S
Cd88 O97 2.356 . S
C89 O94 1.209 . S
C89 O96 1.226 . S
O90 Cd86 2.273 . S
O90 Cd88 2.411 . S
O90 C93 1.320 . S
O91 Cd88 2.333 . S
O91 C93 1.214 . S
O92 Cd88 2.352 . S
O92 C95 1.258 . S
C93 O90 1.320 . S
C93 O91 1.214 . S
O94 Cd86 2.277 . S
O94 C89 1.209 . S
C95 O92 1.258 . S
C95 O97 1.282 . S
O96 Cd88 2.277 . S
O96 C89 1.226 . S
O97 Cd88 2.356 . S
O97 C95 1.282 . S
C98 O99 1.306 . S
C98 O101 1.160 . S
O99 C98 1.306 . S
O99 Cd100 2.228 . S
Cd100 O99 2.228 . S
Cd100 O104 2.273 . S
Cd100 O108 2.277 . S
O101 C98 1.160 . S
O101 Cd102 2.203 . S
Cd102 O101 2.203 . S
Cd102 O104 2.411 . S
Cd102 O105 2.333 . S
Cd102 O106 2.352 . S
Cd102 O110 2.277 . S
Cd102 O111 2.356 . S
C103 O108 1.209 . S
C103 O110 1.226 . S
O104 Cd100 2.273 . S
O104 Cd102 2.411 . S
O104 C107 1.320 . S
O105 Cd102 2.333 . S
O105 C107 1.214 . S
O106 Cd102 2.352 . S
O106 C109 1.258 . S
C107 O104 1.320 . S
C107 O105 1.214 . S
O108 Cd100 2.277 . S
O108 C103 1.209 . S
C109 O106 1.258 . S
C109 O111 1.282 . S
O110 Cd102 2.277 . S
O110 C103 1.226 . S
O111 Cd102 2.356 . S
O111 C109 1.282 . S
H112 C130 0.951 . S
H113 C132 0.951 . S
H114 C134 0.950 . S
H115 C135 0.950 . S
H116 C137 0.950 . S
H117 C140 0.950 . S
H118 C141 0.950 . S
H119 C143 0.950 . S
H120 C144 0.950 . S
H121 C145 0.951 . S
H122 C147 0.951 . S
H123 C149 0.950 . S
H124 C150 0.950 . S
H125 C152 0.950 . S
H126 C155 0.950 . S
H127 C156 0.950 . S
H128 C158 0.950 . S
H129 C159 0.950 . S
C130 H112 0.951 . S
C130 C131 1.366 . S
C130 C132 1.388 . S
C131 C130 1.366 . S
C131 C135 1.385 . S
C132 H113 0.951 . S
C132 C130 1.388 . S
C132 C133 1.366 . S
C133 C132 1.366 . S
C133 C134 1.414 . S
C133 C136 1.499 . S
C134 H114 0.950 . S
C134 C133 1.414 . S
C134 C135 1.374 . S
C135 H115 0.950 . S
C135 C131 1.385 . S
C135 C134 1.374 . S
C136 C133 1.499 . S
C136 C137 1.373 . S
C136 C138 1.389 . S
C137 H116 0.950 . S
C137 C136 1.373 . S
C137 C153 1.377 1_554 S
C138 C136 1.389 . S
C138 C139 1.524 . S
C138 C152 1.377 1_554 S
C139 C138 1.524 . S
C139 C140 1.397 . S
C139 C144 1.363 . S
C140 H117 0.950 . S
C140 C139 1.397 . S
C140 C141 1.334 . S
C141 H118 0.950 . S
C141 C140 1.334 . S
C141 C142 1.287 . S
C142 C141 1.287 . S
C142 C143 1.524 . S
C142 H161 0.913 . S
C143 H119 0.950 . S
C143 C142 1.524 . S
C143 C144 1.415 . S
C144 H120 0.950 . S
C144 C139 1.363 . S
C144 C143 1.415 . S
C145 H121 0.951 . S
C145 C146 1.366 . S
C145 C147 1.388 . S
C146 C145 1.366 . S
C146 C150 1.385 . S
C147 H122 0.951 . S
C147 C145 1.388 . S
C147 C148 1.366 . S
C148 C147 1.366 . S
C148 C149 1.414 . S
C148 C151 1.499 . S
C149 H123 0.950 . S
C149 C148 1.414 . S
C149 C150 1.374 . S
C150 H124 0.950 . S
C150 C146 1.385 . S
C150 C149 1.374 . S
C151 C148 1.499 . S
C151 C152 1.373 . S
C151 C153 1.389 . S
C152 H125 0.950 . S
C152 C138 1.377 1_556 S
C152 C151 1.373 . S
C153 C137 1.377 1_556 S
C153 C151 1.389 . S
C153 C154 1.524 . S
C154 C153 1.524 . S
C154 C155 1.397 . S
C154 C159 1.363 . S
C155 H126 0.950 . S
C155 C154 1.397 . S
C155 C156 1.334 . S
C156 H127 0.950 . S
C156 C155 1.334 . S
C156 C157 1.287 . S
C157 C156 1.287 . S
C157 C158 1.524 . S
C157 H160 0.999 . S
C158 H128 0.950 . S
C158 C157 1.524 . S
C158 C159 1.415 . S
C159 H129 0.950 . S
C159 C154 1.363 . S
C159 C158 1.415 . S
H160 C157 0.999 . S
H161 C142 0.913 . S
H162 C180 0.951 . S
H163 C182 0.951 . S
H164 C184 0.950 . S
H165 C185 0.950 . S
H166 C187 0.950 . S
H167 C190 0.950 . S
H168 C191 0.950 . S
H169 C193 0.950 . S
H170 C194 0.950 . S
H171 C195 0.951 . S
H172 C197 0.951 . S
H173 C199 0.950 . S
H174 C200 0.950 . S
H175 C202 0.950 . S
H176 C205 0.950 . S
H177 C206 0.950 . S
H178 C208 0.950 . S
H179 C209 0.950 . S
C180 H162 0.951 . S
C180 C181 1.366 . S
C180 C182 1.388 . S
C181 C180 1.366 . S
C181 C185 1.385 . S
C182 H163 0.951 . S
C182 C180 1.388 . S
C182 C183 1.366 . S
C183 C182 1.366 . S
C183 C184 1.414 . S
C183 C186 1.499 . S
C184 H164 0.950 . S
C184 C183 1.414 . S
C184 C185 1.374 . S
C185 H165 0.950 . S
C185 C181 1.385 . S
C185 C184 1.374 . S
C186 C183 1.499 . S
C186 C187 1.373 . S
C186 C188 1.389 . S
C187 H166 0.950 . S
C187 C186 1.373 . S
C187 C203 1.377 . S
C188 C186 1.389 . S
C188 C189 1.524 . S
C188 C202 1.377 . S
C189 C188 1.524 . S
C189 C190 1.397 . S
C189 C194 1.363 . S
C190 H167 0.950 . S
C190 C189 1.397 . S
C190 C191 1.334 . S
C191 H168 0.950 . S
C191 C190 1.334 . S
C191 C192 1.287 . S
C192 C191 1.287 . S
C192 C193 1.524 . S
C192 H211 0.913 . S
C193 H169 0.950 . S
C193 C192 1.524 . S
C193 C194 1.415 . S
C194 H170 0.950 . S
C194 C189 1.363 . S
C194 C193 1.415 . S
C195 H171 0.951 . S
C195 C196 1.366 . S
C195 C197 1.388 . S
C196 C195 1.366 . S
C196 C200 1.385 . S
C197 H172 0.951 . S
C197 C195 1.388 . S
C197 C198 1.366 . S
C198 C197 1.366 . S
C198 C199 1.414 . S
C198 C201 1.499 . S
C199 H173 0.950 . S
C199 C198 1.414 . S
C199 C200 1.374 . S
C200 H174 0.950 . S
C200 C196 1.385 . S
C200 C199 1.374 . S
C201 C198 1.499 . S
C201 C202 1.373 . S
C201 C203 1.389 . S
C202 H175 0.950 . S
C202 C188 1.377 . S
C202 C201 1.373 . S
C203 C187 1.377 . S
C203 C201 1.389 . S
C203 C204 1.524 . S
C204 C203 1.524 . S
C204 C205 1.397 . S
C204 C209 1.363 . S
C205 H176 0.950 . S
C205 C204 1.397 . S
C205 C206 1.334 . S
C206 H177 0.950 . S
C206 C205 1.334 . S
C206 C207 1.287 . S
C207 C206 1.287 . S
C207 C208 1.524 . S
C207 H210 0.999 . S
C208 H178 0.950 . S
C208 C207 1.524 . S
C208 C209 1.415 . S
C209 H179 0.950 . S
C209 C204 1.363 . S
C209 C208 1.415 . S
H210 C207 0.999 . S
H211 C192 0.913 . S
H212 C230 0.951 . S
H213 C232 0.951 . S
H214 C234 0.950 . S
H215 C235 0.950 . S
H216 C237 0.950 . S
H217 C240 0.950 . S
H218 C241 0.950 . S
H219 C243 0.950 . S
H220 C244 0.950 . S
H221 C245 0.951 . S
H222 C247 0.951 . S
H223 C249 0.950 . S
H224 C250 0.950 . S
H225 C252 0.950 . S
H226 C255 0.950 . S
H227 C256 0.950 . S
H228 C258 0.950 . S
H229 C259 0.950 . S
C230 H212 0.951 . S
C230 C231 1.366 . S
C230 C232 1.388 . S
C231 C230 1.366 . S
C231 C235 1.385 . S
C232 H213 0.951 . S
C232 C230 1.388 . S
C232 C233 1.366 . S
C233 C232 1.366 . S
C233 C234 1.414 . S
C233 C236 1.499 . S
C234 H214 0.950 . S
C234 C233 1.414 . S
C234 C235 1.374 . S
C235 H215 0.950 . S
C235 C231 1.385 . S
C235 C234 1.374 . S
C236 C233 1.499 . S
C236 C237 1.373 . S
C236 C238 1.389 . S
C237 H216 0.950 . S
C237 C236 1.373 . S
C237 C253 1.377 . S
C238 C236 1.389 . S
C238 C239 1.524 . S
C238 C252 1.377 . S
C239 C238 1.524 . S
C239 C240 1.397 . S
C239 C244 1.363 . S
C240 H217 0.950 . S
C240 C239 1.397 . S
C240 C241 1.334 . S
C241 H218 0.950 . S
C241 C240 1.334 . S
C241 C242 1.287 . S
C242 C241 1.287 . S
C242 C243 1.524 . S
C242 H261 0.913 . S
C243 H219 0.950 . S
C243 C242 1.524 . S
C243 C244 1.415 . S
C244 H220 0.950 . S
C244 C239 1.363 . S
C244 C243 1.415 . S
C245 H221 0.951 . S
C245 C246 1.366 . S
C245 C247 1.388 . S
C246 C245 1.366 . S
C246 C250 1.385 . S
C247 H222 0.951 . S
C247 C245 1.388 . S
C247 C248 1.366 . S
C248 C247 1.366 . S
C248 C249 1.414 . S
C248 C251 1.499 . S
C249 H223 0.950 . S
C249 C248 1.414 . S
C249 C250 1.374 . S
C250 H224 0.950 . S
C250 C246 1.385 . S
C250 C249 1.374 . S
C251 C248 1.499 . S
C251 C252 1.373 . S
C251 C253 1.389 . S
C252 H225 0.950 . S
C252 C238 1.377 . S
C252 C251 1.373 . S
C253 C237 1.377 . S
C253 C251 1.389 . S
C253 C254 1.524 . S
C254 C253 1.524 . S
C254 C255 1.397 . S
C254 C259 1.363 . S
C255 H226 0.950 . S
C255 C254 1.397 . S
C255 C256 1.334 . S
C256 H227 0.950 . S
C256 C255 1.334 . S
C256 C257 1.287 . S
C257 C256 1.287 . S
C257 C258 1.524 . S
C257 H260 0.999 . S
C258 H228 0.950 . S
C258 C257 1.524 . S
C258 C259 1.415 . S
C259 H229 0.950 . S
C259 C254 1.363 . S
C259 C258 1.415 . S
H260 C257 0.999 . S
H261 C242 0.913 . S
H262 C280 0.951 . S
H263 C282 0.951 . S
H264 C284 0.950 . S
H265 C285 0.950 . S
H266 C287 0.950 . S
H267 C290 0.950 . S
H268 C291 0.950 . S
H269 C293 0.950 . S
H270 C294 0.950 . S
H271 C295 0.951 . S
H272 C297 0.951 . S
H273 C299 0.950 . S
H274 C300 0.950 . S
H275 C302 0.950 . S
H276 C305 0.950 . S
H277 C306 0.950 . S
H278 C308 0.950 . S
H279 C309 0.950 . S
C280 H262 0.951 . S
C280 C281 1.366 . S
C280 C282 1.388 . S
C281 C280 1.366 . S
C281 C285 1.385 . S
C282 H263 0.951 . S
C282 C280 1.388 . S
C282 C283 1.366 . S
C283 C282 1.366 . S
C283 C284 1.414 . S
C283 C286 1.499 . S
C284 H264 0.950 . S
C284 C283 1.414 . S
C284 C285 1.374 . S
C285 H265 0.950 . S
C285 C281 1.385 . S
C285 C284 1.374 . S
C286 C283 1.499 . S
C286 C287 1.373 . S
C286 C288 1.389 . S
C287 H266 0.950 . S
C287 C286 1.373 . S
C287 C303 1.377 . S
C288 C286 1.389 . S
C288 C289 1.524 . S
C288 C302 1.377 . S
C289 C288 1.524 . S
C289 C290 1.397 . S
C289 C294 1.363 . S
C290 H267 0.950 . S
C290 C289 1.397 . S
C290 C291 1.334 . S
C291 H268 0.950 . S
C291 C290 1.334 . S
C291 C292 1.287 . S
C292 C291 1.287 . S
C292 C293 1.524 . S
C292 H311 0.913 . S
C293 H269 0.950 . S
C293 C292 1.524 . S
C293 C294 1.415 . S
C294 H270 0.950 . S
C294 C289 1.363 . S
C294 C293 1.415 . S
C295 H271 0.951 . S
C295 C296 1.366 . S
C295 C297 1.388 . S
C296 C295 1.366 . S
C296 C300 1.385 . S
C297 H272 0.951 . S
C297 C295 1.388 . S
C297 C298 1.366 . S
C298 C297 1.366 . S
C298 C299 1.414 . S
C298 C301 1.499 . S
C299 H273 0.950 . S
C299 C298 1.414 . S
C299 C300 1.374 . S
C300 H274 0.950 . S
C300 C296 1.385 . S
C300 C299 1.374 . S
C301 C298 1.499 . S
C301 C302 1.373 . S
C301 C303 1.389 . S
C302 H275 0.950 . S
C302 C288 1.377 . S
C302 C301 1.373 . S
C303 C287 1.377 . S
C303 C301 1.389 . S
C303 C304 1.524 . S
C304 C303 1.524 . S
C304 C305 1.397 . S
C304 C309 1.363 . S
C305 H276 0.950 . S
C305 C304 1.397 . S
C305 C306 1.334 . S
C306 H277 0.950 . S
C306 C305 1.334 . S
C306 C307 1.287 . S
C307 C306 1.287 . S
C307 C308 1.524 . S
C307 H310 0.999 . S
C308 H278 0.950 . S
C308 C307 1.524 . S
C308 C309 1.415 . S
C309 H279 0.950 . S
C309 C304 1.363 . S
C309 C308 1.415 . S
H310 C307 0.999 . S
H311 C292 0.913 . S
H312 C330 0.951 . S
H313 C332 0.951 . S
H314 C334 0.950 . S
H315 C335 0.950 . S
H316 C337 0.950 . S
H317 C340 0.950 . S
H318 C341 0.950 . S
H319 C343 0.950 . S
H320 C344 0.950 . S
H321 C345 0.951 . S
H322 C347 0.951 . S
H323 C349 0.950 . S
H324 C350 0.950 . S
H325 C352 0.950 . S
H326 C355 0.950 . S
H327 C356 0.950 . S
H328 C358 0.950 . S
H329 C359 0.950 . S
C330 H312 0.951 . S
C330 C331 1.366 . S
C330 C332 1.388 . S
C331 C330 1.366 . S
C331 C335 1.385 . S
C332 H313 0.951 . S
C332 C330 1.388 . S
C332 C333 1.366 . S
C333 C332 1.366 . S
C333 C334 1.414 . S
C333 C336 1.499 . S
C334 H314 0.950 . S
C334 C333 1.414 . S
C334 C335 1.374 . S
C335 H315 0.950 . S
C335 C331 1.385 . S
C335 C334 1.374 . S
C336 C333 1.499 . S
C336 C337 1.373 . S
C336 C338 1.389 . S
C337 H316 0.950 . S
C337 C336 1.373 . S
C337 C353 1.377 . S
C338 C336 1.389 . S
C338 C339 1.524 . S
C338 C352 1.377 . S
C339 C338 1.524 . S
C339 C340 1.397 . S
C339 C344 1.363 . S
C340 H317 0.950 . S
C340 C339 1.397 . S
C340 C341 1.334 . S
C341 H318 0.950 . S
C341 C340 1.334 . S
C341 C342 1.287 . S
C342 C341 1.287 . S
C342 C343 1.524 . S
C342 H361 0.913 . S
C343 H319 0.950 . S
C343 C342 1.524 . S
C343 C344 1.415 . S
C344 H320 0.950 . S
C344 C339 1.363 . S
C344 C343 1.415 . S
C345 H321 0.951 . S
C345 C346 1.366 . S
C345 C347 1.388 . S
C346 C345 1.366 . S
C346 C350 1.385 . S
C347 H322 0.951 . S
C347 C345 1.388 . S
C347 C348 1.366 . S
C348 C347 1.366 . S
C348 C349 1.414 . S
C348 C351 1.499 . S
C349 H323 0.950 . S
C349 C348 1.414 . S
C349 C350 1.374 . S
C350 H324 0.950 . S
C350 C346 1.385 . S
C350 C349 1.374 . S
C351 C348 1.499 . S
C351 C352 1.373 . S
C351 C353 1.389 . S
C352 H325 0.950 . S
C352 C338 1.377 . S
C352 C351 1.373 . S
C353 C337 1.377 . S
C353 C351 1.389 . S
C353 C354 1.524 . S
C354 C353 1.524 . S
C354 C355 1.397 . S
C354 C359 1.363 . S
C355 H326 0.950 . S
C355 C354 1.397 . S
C355 C356 1.334 . S
C356 H327 0.950 . S
C356 C355 1.334 . S
C356 C357 1.287 . S
C357 C356 1.287 . S
C357 C358 1.524 . S
C357 H360 0.999 . S
C358 H328 0.950 . S
C358 C357 1.524 . S
C358 C359 1.415 . S
C359 H329 0.950 . S
C359 C354 1.363 . S
C359 C358 1.415 . S
H360 C357 0.999 . S
H361 C342 0.913 . S
H362 C380 0.951 . S
H363 C382 0.951 . S
H364 C384 0.950 . S
H365 C385 0.950 . S
H366 C387 0.950 . S
H367 C390 0.950 . S
H368 C391 0.950 . S
H369 C393 0.950 . S
H370 C394 0.950 . S
H371 C395 0.951 . S
H372 C397 0.951 . S
H373 C399 0.950 . S
H374 C400 0.950 . S
H375 C402 0.950 . S
H376 C405 0.950 . S
H377 C406 0.950 . S
H378 C408 0.950 . S
H379 C409 0.950 . S
C380 H362 0.951 . S
C380 C381 1.366 . S
C380 C382 1.388 . S
C381 C380 1.366 . S
C381 C385 1.385 . S
C382 H363 0.951 . S
C382 C380 1.388 . S
C382 C383 1.366 . S
C383 C382 1.366 . S
C383 C384 1.414 . S
C383 C386 1.499 . S
C384 H364 0.950 . S
C384 C383 1.414 . S
C384 C385 1.374 . S
C385 H365 0.950 . S
C385 C381 1.385 . S
C385 C384 1.374 . S
C386 C383 1.499 . S
C386 C387 1.373 . S
C386 C388 1.389 . S
C387 H366 0.950 . S
C387 C386 1.373 . S
C387 C403 1.377 . S
C388 C386 1.389 . S
C388 C389 1.524 . S
C388 C402 1.377 . S
C389 C388 1.524 . S
C389 C390 1.397 . S
C389 C394 1.363 . S
C390 H367 0.950 . S
C390 C389 1.397 . S
C390 C391 1.334 . S
C391 H368 0.950 . S
C391 C390 1.334 . S
C391 C392 1.287 . S
C392 C391 1.287 . S
C392 C393 1.524 . S
C392 H411 0.913 . S
C393 H369 0.950 . S
C393 C392 1.524 . S
C393 C394 1.415 . S
C394 H370 0.950 . S
C394 C389 1.363 . S
C394 C393 1.415 . S
C395 H371 0.951 . S
C395 C396 1.366 . S
C395 C397 1.388 . S
C396 C395 1.366 . S
C396 C400 1.385 . S
C397 H372 0.951 . S
C397 C395 1.388 . S
C397 C398 1.366 . S
C398 C397 1.366 . S
C398 C399 1.414 . S
C398 C401 1.499 . S
C399 H373 0.950 . S
C399 C398 1.414 . S
C399 C400 1.374 . S
C400 H374 0.950 . S
C400 C396 1.385 . S
C400 C399 1.374 . S
C401 C398 1.499 . S
C401 C402 1.373 . S
C401 C403 1.389 . S
C402 H375 0.950 . S
C402 C388 1.377 . S
C402 C401 1.373 . S
C403 C387 1.377 . S
C403 C401 1.389 . S
C403 C404 1.524 . S
C404 C403 1.524 . S
C404 C405 1.397 . S
C404 C409 1.363 . S
C405 H376 0.950 . S
C405 C404 1.397 . S
C405 C406 1.334 . S
C406 H377 0.950 . S
C406 C405 1.334 . S
C406 C407 1.287 . S
C407 C406 1.287 . S
C407 C408 1.524 . S
C407 H410 0.999 . S
C408 H378 0.950 . S
C408 C407 1.524 . S
C408 C409 1.415 . S
C409 H379 0.950 . S
C409 C404 1.363 . S
C409 C408 1.415 . S
H410 C407 0.999 . S
H411 C392 0.913 . S
H412 C430 0.951 . S
H413 C432 0.951 . S
H414 C434 0.950 . S
H415 C435 0.950 . S
H416 C437 0.950 . S
H417 C440 0.950 . S
H418 C441 0.950 . S
H419 C443 0.950 . S
H420 C444 0.950 . S
H421 C445 0.951 . S
H422 C447 0.951 . S
H423 C449 0.950 . S
H424 C450 0.950 . S
H425 C452 0.950 . S
H426 C455 0.950 . S
H427 C456 0.950 . S
H428 C458 0.950 . S
H429 C459 0.950 . S
C430 H412 0.951 . S
C430 C431 1.366 . S
C430 C432 1.388 . S
C431 C430 1.366 . S
C431 C435 1.385 . S
C432 H413 0.951 . S
C432 C430 1.388 . S
C432 C433 1.366 . S
C433 C432 1.366 . S
C433 C434 1.414 . S
C433 C436 1.499 . S
C434 H414 0.950 . S
C434 C433 1.414 . S
C434 C435 1.374 . S
C435 H415 0.950 . S
C435 C431 1.385 . S
C435 C434 1.374 . S
C436 C433 1.499 . S
C436 C437 1.373 . S
C436 C438 1.389 . S
C437 H416 0.950 . S
C437 C436 1.373 . S
C437 C453 1.377 . S
C438 C436 1.389 . S
C438 C439 1.524 . S
C438 C452 1.377 . S
C439 C438 1.524 . S
C439 C440 1.397 . S
C439 C444 1.363 . S
C440 H417 0.950 . S
C440 C439 1.397 . S
C440 C441 1.334 . S
C441 H418 0.950 . S
C441 C440 1.334 . S
C441 C442 1.287 . S
C442 C441 1.287 . S
C442 C443 1.524 . S
C442 H461 0.913 . S
C443 H419 0.950 . S
C443 C442 1.524 . S
C443 C444 1.415 . S
C444 H420 0.950 . S
C444 C439 1.363 . S
C444 C443 1.415 . S
C445 H421 0.951 . S
C445 C446 1.366 . S
C445 C447 1.388 . S
C446 C445 1.366 . S
C446 C450 1.385 . S
C447 H422 0.951 . S
C447 C445 1.388 . S
C447 C448 1.366 . S
C448 C447 1.366 . S
C448 C449 1.414 . S
C448 C451 1.499 . S
C449 H423 0.950 . S
C449 C448 1.414 . S
C449 C450 1.374 . S
C450 H424 0.950 . S
C450 C446 1.385 . S
C450 C449 1.374 . S
C451 C448 1.499 . S
C451 C452 1.373 . S
C451 C453 1.389 . S
C452 H425 0.950 . S
C452 C438 1.377 . S
C452 C451 1.373 . S
C453 C437 1.377 . S
C453 C451 1.389 . S
C453 C454 1.524 . S
C454 C453 1.524 . S
C454 C455 1.397 . S
C454 C459 1.363 . S
C455 H426 0.950 . S
C455 C454 1.397 . S
C455 C456 1.334 . S
C456 H427 0.950 . S
C456 C455 1.334 . S
C456 C457 1.287 . S
C457 C456 1.287 . S
C457 C458 1.524 . S
C457 H460 0.999 . S
C458 H428 0.950 . S
C458 C457 1.524 . S
C458 C459 1.415 . S
C459 H429 0.950 . S
C459 C454 1.363 . S
C459 C458 1.415 . S
H460 C457 0.999 . S
H461 C442 0.913 . S
H462 C480 0.951 . S
H463 C482 0.951 . S
H464 C484 0.950 . S
H465 C485 0.950 . S
H466 C487 0.950 . S
H467 C490 0.950 . S
H468 C491 0.950 . S
H469 C493 0.950 . S
H470 C494 0.950 . S
H471 C495 0.951 . S
H472 C497 0.951 . S
H473 C499 0.950 . S
H474 C500 0.950 . S
H475 C502 0.950 . S
H476 C505 0.950 . S
H477 C506 0.950 . S
H478 C508 0.950 . S
H479 C509 0.950 . S
C480 H462 0.951 . S
C480 C481 1.366 . S
C480 C482 1.388 . S
C481 C480 1.366 . S
C481 C485 1.385 . S
C482 H463 0.951 . S
C482 C480 1.388 . S
C482 C483 1.366 . S
C483 C482 1.366 . S
C483 C484 1.414 . S
C483 C486 1.499 . S
C484 H464 0.950 . S
C484 C483 1.414 . S
C484 C485 1.374 . S
C485 H465 0.950 . S
C485 C481 1.385 . S
C485 C484 1.374 . S
C486 C483 1.499 . S
C486 C487 1.373 . S
C486 C488 1.389 . S
C487 H466 0.950 . S
C487 C486 1.373 . S
C487 C503 1.377 1_554 S
C488 C486 1.389 . S
C488 C489 1.524 . S
C488 C502 1.377 1_554 S
C489 C488 1.524 . S
C489 C490 1.397 . S
C489 C494 1.363 . S
C490 H467 0.950 . S
C490 C489 1.397 . S
C490 C491 1.334 . S
C491 H468 0.950 . S
C491 C490 1.334 . S
C491 C492 1.287 . S
C492 C491 1.287 . S
C492 C493 1.524 . S
C492 H511 0.913 . S
C493 H469 0.950 . S
C493 C492 1.524 . S
C493 C494 1.415 . S
C494 H470 0.950 . S
C494 C489 1.363 . S
C494 C493 1.415 . S
C495 H471 0.951 . S
C495 C496 1.366 . S
C495 C497 1.388 . S
C496 C495 1.366 . S
C496 C500 1.385 . S
C497 H472 0.951 . S
C497 C495 1.388 . S
C497 C498 1.366 . S
C498 C497 1.366 . S
C498 C499 1.414 . S
C498 C501 1.499 . S
C499 H473 0.950 . S
C499 C498 1.414 . S
C499 C500 1.374 . S
C500 H474 0.950 . S
C500 C496 1.385 . S
C500 C499 1.374 . S
C501 C498 1.499 . S
C501 C502 1.373 . S
C501 C503 1.389 . S
C502 H475 0.950 . S
C502 C488 1.377 1_556 S
C502 C501 1.373 . S
C503 C487 1.377 1_556 S
C503 C501 1.389 . S
C503 C504 1.524 . S
C504 C503 1.524 . S
C504 C505 1.397 . S
C504 C509 1.363 . S
C505 H476 0.950 . S
C505 C504 1.397 . S
C505 C506 1.334 . S
C506 H477 0.950 . S
C506 C505 1.334 . S
C506 C507 1.287 . S
C507 C506 1.287 . S
C507 C508 1.524 . S
C507 H510 0.999 . S
C508 H478 0.950 . S
C508 C507 1.524 . S
C508 C509 1.415 . S
C509 H479 0.950 . S
C509 C504 1.363 . S
C509 C508 1.415 . S
H510 C507 0.999 . S
H511 C492 0.913 . S
H512 C530 0.951 . S
H513 C532 0.951 . S
H514 C534 0.950 . S
H515 C535 0.950 . S
H516 C537 0.950 . S
H517 C540 0.950 1_455 S
H518 C541 0.950 . S
H519 C543 0.950 . S
H520 C544 0.950 . S
H521 C545 0.951 . S
H522 C547 0.951 . S
H523 C549 0.950 . S
H524 C550 0.950 . S
H525 C552 0.950 . S
H526 C555 0.950 1_655 S
H527 C556 0.950 . S
H528 C558 0.950 . S
H529 C559 0.950 . S
C530 H512 0.951 . S
C530 C531 1.366 . S
C530 C532 1.388 . S
C531 C530 1.366 . S
C531 C535 1.385 . S
C532 H513 0.951 . S
C532 C530 1.388 . S
C532 C533 1.366 . S
C533 C532 1.366 . S
C533 C534 1.414 . S
C533 C536 1.499 . S
C534 H514 0.950 . S
C534 C533 1.414 . S
C534 C535 1.374 . S
C535 H515 0.950 . S
C535 C531 1.385 . S
C535 C534 1.374 . S
C536 C533 1.499 . S
C536 C537 1.373 . S
C536 C538 1.389 1_455 S
C537 H516 0.950 . S
C537 C536 1.373 . S
C537 C553 1.377 1_545 S
C538 C536 1.389 1_655 S
C538 C539 1.524 . S
C538 C552 1.377 1_545 S
C539 C538 1.524 . S
C539 C540 1.397 . S
C539 C544 1.363 . S
C540 H517 0.950 1_655 S
C540 C539 1.397 . S
C540 C541 1.334 . S
C541 H518 0.950 . S
C541 C540 1.334 . S
C541 C542 1.287 . S
C542 C541 1.287 . S
C542 C543 1.524 . S
C542 H561 0.913 . S
C543 H519 0.950 . S
C543 C542 1.524 . S
C543 C544 1.415 . S
C544 H520 0.950 . S
C544 C539 1.363 . S
C544 C543 1.415 . S
C545 H521 0.951 . S
C545 C546 1.366 . S
C545 C547 1.388 . S
C546 C545 1.366 . S
C546 C550 1.385 . S
C547 H522 0.951 . S
C547 C545 1.388 . S
C547 C548 1.366 . S
C548 C547 1.366 . S
C548 C549 1.414 . S
C548 C551 1.499 . S
C549 H523 0.950 . S
C549 C548 1.414 . S
C549 C550 1.374 . S
C550 H524 0.950 . S
C550 C546 1.385 . S
C550 C549 1.374 . S
C551 C548 1.499 . S
C551 C552 1.373 . S
C551 C553 1.389 1_655 S
C552 H525 0.950 . S
C552 C538 1.377 1_565 S
C552 C551 1.373 . S
C553 C537 1.377 1_565 S
C553 C551 1.389 1_455 S
C553 C554 1.524 . S
C554 C553 1.524 . S
C554 C555 1.397 . S
C554 C559 1.363 . S
C555 H526 0.950 1_455 S
C555 C554 1.397 . S
C555 C556 1.334 . S
C556 H527 0.950 . S
C556 C555 1.334 . S
C556 C557 1.287 . S
C557 C556 1.287 . S
C557 C558 1.524 . S
C557 H560 0.999 . S
C558 H528 0.950 . S
C558 C557 1.524 . S
C558 C559 1.415 . S
C559 H529 0.950 . S
C559 C554 1.363 . S
C559 C558 1.415 . S
H560 C557 0.999 . S
H561 C542 0.913 . S
H562 C580 0.951 . S
H563 C582 0.951 . S
H564 C584 0.950 . S
H565 C585 0.950 . S
H566 C587 0.950 . S
H567 C590 0.950 . S
H568 C591 0.950 . S
H569 C593 0.936 1_655 S
H570 C594 0.950 . S
H571 C595 0.951 . S
H572 C597 0.951 . S
H573 C599 0.950 . S
H574 C600 0.950 . S
H575 C602 0.950 . S
H576 C605 0.950 . S
H577 C606 0.950 . S
H578 C608 0.936 1_455 S
H579 C609 0.950 . S
C580 H562 0.951 . S
C580 C581 1.366 . S
C580 C582 1.388 . S
C581 C580 1.366 . S
C581 C585 1.385 . S
C582 H563 0.951 . S
C582 C580 1.388 . S
C582 C583 1.366 . S
C583 C582 1.366 . S
C583 C584 1.414 . S
C583 C586 1.499 . S
C584 H564 0.950 . S
C584 C583 1.414 . S
C584 C585 1.374 . S
C585 H565 0.950 . S
C585 C581 1.385 . S
C585 C584 1.374 . S
C586 C583 1.499 . S
C586 C587 1.373 . S
C586 C588 1.389 . S
C587 H566 0.950 . S
C587 C586 1.373 . S
C587 C603 1.377 1_455 S
C588 C586 1.389 . S
C588 C589 1.524 . S
C588 C602 1.377 1_455 S
C589 C588 1.524 . S
C589 C590 1.397 . S
C589 C594 1.363 1_455 S
C590 H567 0.950 . S
C590 C589 1.397 . S
C590 C591 1.334 . S
C591 H568 0.950 . S
C591 C590 1.334 . S
C591 C592 1.287 . S
C592 C591 1.287 . S
C592 C593 1.545 . S
C592 H611 0.913 . S
C593 H569 0.936 1_455 S
C593 C592 1.545 . S
C593 C594 1.409 1_455 S
C594 H570 0.950 . S
C594 C589 1.363 1_655 S
C594 C593 1.409 1_655 S
C595 H571 0.951 . S
C595 C596 1.366 . S
C595 C597 1.388 . S
C596 C595 1.366 . S
C596 C600 1.385 . S
C597 H572 0.951 . S
C597 C595 1.388 . S
C597 C598 1.366 . S
C598 C597 1.366 . S
C598 C599 1.414 . S
C598 C601 1.499 . S
C599 H573 0.950 . S
C599 C598 1.414 . S
C599 C600 1.374 . S
C600 H574 0.950 . S
C600 C596 1.385 . S
C600 C599 1.374 . S
C601 C598 1.499 . S
C601 C602 1.373 . S
C601 C603 1.389 . S
C602 H575 0.950 . S
C602 C588 1.377 1_655 S
C602 C601 1.373 . S
C603 C587 1.377 1_655 S
C603 C601 1.389 . S
C603 C604 1.524 . S
C604 C603 1.524 . S
C604 C605 1.397 . S
C604 C609 1.363 1_655 S
C605 H576 0.950 . S
C605 C604 1.397 . S
C605 C606 1.334 . S
C606 H577 0.950 . S
C606 C605 1.334 . S
C606 C607 1.287 . S
C607 C606 1.287 . S
C607 C608 1.545 . S
C607 H610 0.999 . S
C608 H578 0.936 1_655 S
C608 C607 1.545 . S
C608 C609 1.409 1_655 S
C609 H579 0.950 . S
C609 C604 1.363 1_455 S
C609 C608 1.409 1_455 S
H610 C607 0.999 . S
H611 C592 0.913 . S
H612 C630 0.951 . S
H613 C632 0.951 . S
H614 C634 0.950 . S
H615 C635 0.950 . S
H616 C637 0.950 . S
H617 C640 0.950 . S
H618 C641 0.950 . S
H619 C643 0.950 . S
H620 C644 0.950 . S
H621 C645 0.951 . S
H622 C647 0.951 . S
H623 C649 0.950 . S
H624 C650 0.950 . S
H625 C652 0.950 . S
H626 C655 0.950 . S
H627 C656 0.950 . S
H628 C658 0.950 . S
H629 C659 0.950 . S
C630 H612 0.951 . S
C630 C631 1.366 . S
C630 C632 1.388 . S
C631 C630 1.366 . S
C631 C635 1.385 . S
C632 H613 0.951 . S
C632 C630 1.388 . S
C632 C633 1.366 . S
C633 C632 1.366 . S
C633 C634 1.414 . S
C633 C636 1.499 . S
C634 H614 0.950 . S
C634 C633 1.414 . S
C634 C635 1.374 . S
C635 H615 0.950 . S
C635 C631 1.385 . S
C635 C634 1.374 . S
C636 C633 1.499 . S
C636 C637 1.373 . S
C636 C638 1.389 . S
C637 H616 0.950 . S
C637 C636 1.373 . S
C637 C653 1.377 . S
C638 C636 1.389 . S
C638 C639 1.524 . S
C638 C652 1.377 . S
C639 C638 1.524 . S
C639 C640 1.397 . S
C639 C644 1.363 . S
C640 H617 0.950 . S
C640 C639 1.397 . S
C640 C641 1.334 . S
C641 H618 0.950 . S
C641 C640 1.334 . S
C641 C642 1.287 . S
C642 C641 1.287 . S
C642 C643 1.524 . S
C642 H661 0.913 . S
C643 H619 0.950 . S
C643 C642 1.524 . S
C643 C644 1.415 . S
C644 H620 0.950 . S
C644 C639 1.363 . S
C644 C643 1.415 . S
C645 H621 0.951 . S
C645 C646 1.366 . S
C645 C647 1.388 . S
C646 C645 1.366 . S
C646 C650 1.385 . S
C647 H622 0.951 . S
C647 C645 1.388 . S
C647 C648 1.366 . S
C648 C647 1.366 . S
C648 C649 1.414 . S
C648 C651 1.499 . S
C649 H623 0.950 . S
C649 C648 1.414 . S
C649 C650 1.374 . S
C650 H624 0.950 . S
C650 C646 1.385 . S
C650 C649 1.374 . S
C651 C648 1.499 . S
C651 C652 1.373 . S
C651 C653 1.389 . S
C652 H625 0.950 . S
C652 C638 1.377 . S
C652 C651 1.373 . S
C653 C637 1.377 . S
C653 C651 1.389 . S
C653 C654 1.524 . S
C654 C653 1.524 . S
C654 C655 1.397 . S
C654 C659 1.363 . S
C655 H626 0.950 . S
C655 C654 1.397 . S
C655 C656 1.334 . S
C656 H627 0.950 . S
C656 C655 1.334 . S
C656 C657 1.287 . S
C657 C656 1.287 . S
C657 C658 1.524 . S
C657 H660 0.999 . S
C658 H628 0.950 . S
C658 C657 1.524 . S
C658 C659 1.415 . S
C659 H629 0.950 . S
C659 C654 1.363 . S
C659 C658 1.415 . S
H660 C657 0.999 . S
H661 C642 0.913 . S
H662 C680 0.951 . S
H663 C682 0.951 . S
H664 C684 0.950 . S
H665 C685 0.950 . S
H666 C687 0.950 . S
H667 C690 0.950 . S
H668 C691 0.950 . S
H669 C693 0.950 . S
H670 C694 0.950 . S
H671 C695 0.951 . S
H672 C697 0.951 . S
H673 C699 0.950 . S
H674 C700 0.950 . S
H675 C702 0.950 . S
H676 C705 0.950 . S
H677 C706 0.950 . S
H678 C708 0.950 . S
H679 C709 0.950 . S
C680 H662 0.951 . S
C680 C681 1.366 . S
C680 C682 1.388 . S
C681 C680 1.366 . S
C681 C685 1.385 . S
C682 H663 0.951 . S
C682 C680 1.388 . S
C682 C683 1.366 . S
C683 C682 1.366 . S
C683 C684 1.414 . S
C683 C686 1.499 . S
C684 H664 0.950 . S
C684 C683 1.414 . S
C684 C685 1.374 . S
C685 H665 0.950 . S
C685 C681 1.385 . S
C685 C684 1.374 . S
C686 C683 1.499 . S
C686 C687 1.373 . S
C686 C688 1.389 . S
C687 H666 0.950 . S
C687 C686 1.373 . S
C687 C703 1.377 1_565 S
C688 C686 1.389 . S
C688 C689 1.524 . S
C688 C702 1.377 1_565 S
C689 C688 1.524 . S
C689 C690 1.397 . S
C689 C694 1.363 1_565 S
C690 H667 0.950 . S
C690 C689 1.397 . S
C690 C691 1.334 . S
C691 H668 0.950 . S
C691 C690 1.334 . S
C691 C692 1.287 . S
C692 C691 1.287 . S
C692 C693 1.524 1_565 S
C692 H711 0.913 . S
C693 H669 0.950 . S
C693 C692 1.524 1_545 S
C693 C694 1.415 . S
C694 H670 0.950 . S
C694 C689 1.363 1_545 S
C694 C693 1.415 . S
C695 H671 0.951 . S
C695 C696 1.366 . S
C695 C697 1.388 . S
C696 C695 1.366 . S
C696 C700 1.385 . S
C697 H672 0.951 . S
C697 C695 1.388 . S
C697 C698 1.366 . S
C698 C697 1.366 . S
C698 C699 1.414 . S
C698 C701 1.499 . S
C699 H673 0.950 . S
C699 C698 1.414 . S
C699 C700 1.374 . S
C700 H674 0.950 . S
C700 C696 1.385 . S
C700 C699 1.374 . S
C701 C698 1.499 . S
C701 C702 1.373 . S
C701 C703 1.389 . S
C702 H675 0.950 . S
C702 C688 1.377 1_545 S
C702 C701 1.373 . S
C703 C687 1.377 1_545 S
C703 C701 1.389 . S
C703 C704 1.524 . S
C704 C703 1.524 . S
C704 C705 1.397 . S
C704 C709 1.363 1_545 S
C705 H676 0.950 . S
C705 C704 1.397 . S
C705 C706 1.334 . S
C706 H677 0.950 . S
C706 C705 1.334 . S
C706 C707 1.287 . S
C707 C706 1.287 . S
C707 C708 1.524 1_545 S
C707 H710 0.999 . S
C708 H678 0.950 . S
C708 C707 1.524 1_565 S
C708 C709 1.415 . S
C709 H679 0.950 . S
C709 C704 1.363 1_565 S
C709 C708 1.415 . S
H710 C707 0.999 . S
H711 C692 0.913 . S
H712 C730 0.951 . S
H713 C732 0.951 . S
H714 C734 0.950 . S
H715 C735 0.950 . S
H716 C737 0.950 . S
H717 C740 0.950 . S
H718 C741 0.950 . S
H719 C743 0.950 . S
H720 C744 0.950 . S
H721 C745 0.951 . S
H722 C747 0.951 . S
H723 C749 0.950 . S
H724 C750 0.950 . S
H725 C752 0.950 . S
H726 C755 0.950 . S
H727 C756 0.950 . S
H728 C758 0.950 . S
H729 C759 0.950 . S
C730 H712 0.951 . S
C730 C731 1.366 . S
C730 C732 1.388 . S
C731 C730 1.366 . S
C731 C735 1.385 . S
C732 H713 0.951 . S
C732 C730 1.388 . S
C732 C733 1.366 . S
C733 C732 1.366 . S
C733 C734 1.414 . S
C733 C736 1.499 . S
C734 H714 0.950 . S
C734 C733 1.414 . S
C734 C735 1.374 . S
C735 H715 0.950 . S
C735 C731 1.385 . S
C735 C734 1.374 . S
C736 C733 1.499 . S
C736 C737 1.373 1_655 S
C736 C738 1.389 . S
C737 H716 0.950 . S
C737 C736 1.373 1_455 S
C737 C753 1.377 . S
C738 C736 1.389 . S
C738 C739 1.524 . S
C738 C752 1.377 . S
C739 C738 1.524 . S
C739 C740 1.397 . S
C739 C744 1.363 . S
C740 H717 0.950 . S
C740 C739 1.397 . S
C740 C741 1.334 . S
C741 H718 0.950 . S
C741 C740 1.334 . S
C741 C742 1.287 . S
C742 C741 1.287 . S
C742 C743 1.524 . S
C742 H761 0.913 . S
C743 H719 0.950 . S
C743 C742 1.524 . S
C743 C744 1.415 . S
C744 H720 0.950 . S
C744 C739 1.363 . S
C744 C743 1.415 . S
C745 H721 0.951 . S
C745 C746 1.366 . S
C745 C747 1.388 . S
C746 C745 1.366 . S
C746 C750 1.385 . S
C747 H722 0.951 . S
C747 C745 1.388 . S
C747 C748 1.366 . S
C748 C747 1.366 . S
C748 C749 1.414 . S
C748 C751 1.499 . S
C749 H723 0.950 . S
C749 C748 1.414 . S
C749 C750 1.374 . S
C750 H724 0.950 . S
C750 C746 1.385 . S
C750 C749 1.374 . S
C751 C748 1.499 . S
C751 C752 1.373 1_455 S
C751 C753 1.389 . S
C752 H725 0.950 . S
C752 C738 1.377 . S
C752 C751 1.373 1_655 S
C753 C737 1.377 . S
C753 C751 1.389 . S
C753 C754 1.524 . S
C754 C753 1.524 . S
C754 C755 1.397 . S
C754 C759 1.363 . S
C755 H726 0.950 . S
C755 C754 1.397 . S
C755 C756 1.334 . S
C756 H727 0.950 . S
C756 C755 1.334 . S
C756 C757 1.287 . S
C757 C756 1.287 . S
C757 C758 1.524 . S
C757 H760 0.999 . S
C758 H728 0.950 . S
C758 C757 1.524 . S
C758 C759 1.415 . S
C759 H729 0.950 . S
C759 C754 1.363 . S
C759 C758 1.415 . S
H760 C757 0.999 . S
H761 C742 0.913 . S
H762 C780 0.951 . S
H763 C782 0.951 . S
H764 C784 0.950 . S
H765 C785 0.950 . S
H766 C787 0.950 . S
H767 C790 0.950 . S
H768 C791 0.950 . S
H769 C793 0.950 . S
H770 C794 0.950 . S
H771 C795 0.951 . S
H772 C797 0.951 . S
H773 C799 0.950 . S
H774 C800 0.950 . S
H775 C802 0.950 . S
H776 C805 0.950 . S
H777 C806 0.950 . S
H778 C808 0.950 . S
H779 C809 0.950 . S
C780 H762 0.951 . S
C780 C781 1.366 . S
C780 C782 1.388 . S
C781 C780 1.366 . S
C781 C785 1.385 . S
C782 H763 0.951 . S
C782 C780 1.388 . S
C782 C783 1.366 . S
C783 C782 1.366 . S
C783 C784 1.414 . S
C783 C786 1.499 . S
C784 H764 0.950 . S
C784 C783 1.414 . S
C784 C785 1.374 . S
C785 H765 0.950 . S
C785 C781 1.385 . S
C785 C784 1.374 . S
C786 C783 1.499 . S
C786 C787 1.373 . S
C786 C788 1.389 . S
C787 H766 0.950 . S
C787 C786 1.373 . S
C787 C803 1.377 . S
C788 C786 1.389 . S
C788 C789 1.524 . S
C788 C802 1.377 . S
C789 C788 1.524 . S
C789 C790 1.397 . S
C789 C794 1.363 . S
C790 H767 0.950 . S
C790 C789 1.397 . S
C790 C791 1.334 . S
C791 H768 0.950 . S
C791 C790 1.334 . S
C791 C792 1.287 . S
C792 C791 1.287 . S
C792 C793 1.524 . S
C792 H811 0.913 . S
C793 H769 0.950 . S
C793 C792 1.524 . S
C793 C794 1.415 . S
C794 H770 0.950 . S
C794 C789 1.363 . S
C794 C793 1.415 . S
C795 H771 0.951 . S
C795 C796 1.366 . S
C795 C797 1.388 . S
C796 C795 1.366 . S
C796 C800 1.385 . S
C797 H772 0.951 . S
C797 C795 1.388 . S
C797 C798 1.366 . S
C798 C797 1.366 . S
C798 C799 1.414 . S
C798 C801 1.499 . S
C799 H773 0.950 . S
C799 C798 1.414 . S
C799 C800 1.374 . S
C800 H774 0.950 . S
C800 C796 1.385 . S
C800 C799 1.374 . S
C801 C798 1.499 . S
C801 C802 1.373 . S
C801 C803 1.389 . S
C802 H775 0.950 . S
C802 C788 1.377 . S
C802 C801 1.373 . S
C803 C787 1.377 . S
C803 C801 1.389 . S
C803 C804 1.524 . S
C804 C803 1.524 . S
C804 C805 1.397 . S
C804 C809 1.363 . S
C805 H776 0.950 . S
C805 C804 1.397 . S
C805 C806 1.334 . S
C806 H777 0.950 . S
C806 C805 1.334 . S
C806 C807 1.287 . S
C807 C806 1.287 . S
C807 C808 1.524 . S
C807 H810 0.999 . S
C808 H778 0.950 . S
C808 C807 1.524 . S
C808 C809 1.415 . S
C809 H779 0.950 . S
C809 C804 1.363 . S
C809 C808 1.415 . S
H810 C807 0.999 . S
H811 C792 0.913 . S
H812 C830 0.951 . S
H813 C832 0.951 . S
H814 C834 0.950 . S
H815 C835 0.950 . S
H816 C837 0.950 . S
H817 C840 0.950 . S
H818 C841 0.950 . S
H819 C843 0.950 . S
H820 C844 0.950 . S
H821 C845 0.951 . S
H822 C847 0.951 . S
H823 C849 0.950 . S
H824 C850 0.950 . S
H825 C852 0.950 . S
H826 C855 0.950 . S
H827 C856 0.950 . S
H828 C858 0.950 . S
H829 C859 0.950 . S
C830 H812 0.951 . S
C830 C831 1.366 . S
C830 C832 1.388 . S
C831 C830 1.366 . S
C831 C835 1.385 . S
C832 H813 0.951 . S
C832 C830 1.388 . S
C832 C833 1.366 . S
C833 C832 1.366 . S
C833 C834 1.414 . S
C833 C836 1.499 . S
C834 H814 0.950 . S
C834 C833 1.414 . S
C834 C835 1.374 . S
C835 H815 0.950 . S
C835 C831 1.385 . S
C835 C834 1.374 . S
C836 C833 1.499 . S
C836 C837 1.373 . S
C836 C838 1.405 . S
C837 H816 0.950 . S
C837 C836 1.373 . S
C837 C853 1.359 1_545 S
C838 C836 1.405 . S
C838 C839 1.525 1_545 S
C838 C852 1.359 1_545 S
C839 C838 1.525 1_565 S
C839 C840 1.399 1_565 S
C839 C844 1.361 . S
C840 H817 0.950 . S
C840 C839 1.399 1_545 S
C840 C841 1.334 . S
C841 H818 0.950 . S
C841 C840 1.334 . S
C841 C842 1.287 . S
C842 C841 1.287 . S
C842 C843 1.524 1_545 S
C842 H861 0.913 . S
C843 H819 0.950 . S
C843 C842 1.524 1_565 S
C843 C844 1.415 . S
C844 H820 0.950 . S
C844 C839 1.361 . S
C844 C843 1.415 . S
C845 H821 0.951 . S
C845 C846 1.366 . S
C845 C847 1.388 . S
C846 C845 1.366 . S
C846 C850 1.385 . S
C847 H822 0.951 . S
C847 C845 1.388 . S
C847 C848 1.366 . S
C848 C847 1.366 . S
C848 C849 1.414 . S
C848 C851 1.499 . S
C849 H823 0.950 . S
C849 C848 1.414 . S
C849 C850 1.374 . S
C850 H824 0.950 . S
C850 C846 1.385 . S
C850 C849 1.374 . S
C851 C848 1.499 . S
C851 C852 1.373 . S
C851 C853 1.405 . S
C852 H825 0.950 . S
C852 C838 1.359 1_565 S
C852 C851 1.373 . S
C853 C837 1.359 1_565 S
C853 C851 1.405 . S
C853 C854 1.525 1_565 S
C854 C853 1.525 1_545 S
C854 C855 1.399 1_545 S
C854 C859 1.361 . S
C855 H826 0.950 . S
C855 C854 1.399 1_565 S
C855 C856 1.334 . S
C856 H827 0.950 . S
C856 C855 1.334 . S
C856 C857 1.287 . S
C857 C856 1.287 . S
C857 C858 1.524 1_565 S
C857 H860 0.999 . S
C858 H828 0.950 . S
C858 C857 1.524 1_545 S
C858 C859 1.415 . S
C859 H829 0.950 . S
C859 C854 1.361 . S
C859 C858 1.415 . S
H860 C857 0.999 . S
H861 C842 0.913 . S
H862 C880 0.951 . S
H863 C882 0.951 . S
H864 C884 0.950 . S
H865 C885 0.950 . S
H866 C887 0.950 . S
H867 C890 0.950 . S
H868 C891 0.950 . S
H869 C893 0.950 . S
H870 C894 0.950 . S
H871 C895 0.951 . S
H872 C897 0.951 . S
H873 C899 0.950 . S
H874 C900 0.950 . S
H875 C902 0.950 . S
H876 C905 0.950 . S
H877 C906 0.950 . S
H878 C908 0.950 . S
H879 C909 0.950 . S
C880 H862 0.951 . S
C880 C881 1.366 . S
C880 C882 1.388 . S
C881 C880 1.366 . S
C881 C885 1.385 . S
C882 H863 0.951 . S
C882 C880 1.388 . S
C882 C883 1.366 . S
C883 C882 1.366 . S
C883 C884 1.414 . S
C883 C886 1.499 . S
C884 H864 0.950 . S
C884 C883 1.414 . S
C884 C885 1.374 . S
C885 H865 0.950 . S
C885 C881 1.385 . S
C885 C884 1.374 . S
C886 C883 1.499 . S
C886 C887 1.373 1_565 S
C886 C888 1.389 . S
C887 H866 0.950 . S
C887 C886 1.373 1_545 S
C887 C903 1.377 1_655 S
C888 C886 1.389 . S
C888 C889 1.524 . S
C888 C902 1.377 1_655 S
C889 C888 1.524 . S
C889 C890 1.397 . S
C889 C894 1.363 1_655 S
C890 H867 0.950 . S
C890 C889 1.397 . S
C890 C891 1.334 . S
C891 H868 0.950 . S
C891 C890 1.334 . S
C891 C892 1.287 . S
C892 C891 1.287 . S
C892 C893 1.524 1_655 S
C892 H911 0.913 . S
C893 H869 0.950 . S
C893 C892 1.524 1_455 S
C893 C894 1.415 . S
C894 H870 0.950 . S
C894 C889 1.363 1_455 S
C894 C893 1.415 . S
C895 H871 0.951 . S
C895 C896 1.366 . S
C895 C897 1.388 . S
C896 C895 1.366 . S
C896 C900 1.385 . S
C897 H872 0.951 . S
C897 C895 1.388 . S
C897 C898 1.366 . S
C898 C897 1.366 . S
C898 C899 1.414 . S
C898 C901 1.499 . S
C899 H873 0.950 . S
C899 C898 1.414 . S
C899 C900 1.374 . S
C900 H874 0.950 . S
C900 C896 1.385 . S
C900 C899 1.374 . S
C901 C898 1.499 . S
C901 C902 1.373 1_545 S
C901 C903 1.389 . S
C902 H875 0.950 . S
C902 C888 1.377 1_455 S
C902 C901 1.373 1_565 S
C903 C887 1.377 1_455 S
C903 C901 1.389 . S
C903 C904 1.524 . S
C904 C903 1.524 . S
C904 C905 1.397 . S
C904 C909 1.363 1_455 S
C905 H876 0.950 . S
C905 C904 1.397 . S
C905 C906 1.334 . S
C906 H877 0.950 . S
C906 C905 1.334 . S
C906 C907 1.287 . S
C907 C906 1.287 . S
C907 C908 1.524 1_455 S
C907 H910 0.999 . S
C908 H878 0.950 . S
C908 C907 1.524 1_655 S
C908 C909 1.415 . S
C909 H879 0.950 . S
C909 C904 1.363 1_655 S
C909 C908 1.415 . S
H910 C907 0.999 . S
H911 C892 0.913 . S
C131 C0 1.100 . S
C146 C70 1.100 . S
C181 C23 1.097 . S
C196 C93 1.097 . S
C231 C28 1.100 . S
C246 C98 1.100 . S
C281 C51 1.098 . S
C296 C65 1.097 . S
C331 C107 1.098 . S
C346 C9 1.097 . S
C381 C56 1.100 . S
C396 C14 1.101 . S
C431 C37 1.097 . S
C446 C79 1.098 . S
C481 C84 1.100 . S
C496 C42 1.101 . S
C531 C5 1.582 . S
C546 C89 1.582 . S
C581 C109 1.586 . S
C596 C25 1.586 . S
C631 C33 1.581 . S
C646 C61 1.581 . S
C681 C53 1.586 . S
C696 C81 1.586 . S
C731 C95 1.586 . S
C746 C11 1.586 . S
C781 C103 1.581 . S
C796 C19 1.581 . S
C831 C39 1.586 . S
C846 C67 1.586 . S
C881 C47 1.582 . S
C896 C75 1.582 . S
