# Generated by pormake.
# Topology mdf, (4)-cn, num edge types: 1
# Building blocks:
#     Node 0, Type 0, BuildingBlock: QUQFOY_clean_sbu_1, # of connection points: 4
#     Node 1, Type 0, BuildingBlock: QUQFOY_clean_sbu_1, # of connection points: 4
#     Node 2, Type 0, BuildingBlock: QUQFOY_clean_sbu_1, # of connection points: 4
#     Node 3, Type 0, BuildingBlock: QUQFOY_clean_sbu_1, # of connection points: 4
#     Node 4, Type 0, BuildingBlock: QUQFOY_clean_sbu_1, # of connection points: 4
#     Node 5, Type 0, BuildingBlock: QUQFOY_clean_sbu_1, # of connection points: 4
#     Node 6, Type 0, BuildingBlock: QUQFOY_clean_sbu_1, # of connection points: 4
#     Node 7, Type 0, BuildingBlock: QUQFOY_clean_sbu_1, # of connection points: 4
#     Edge 8, Type (0, 0), BuildingBlock: XUDNAN_clean_linker_2, # of connection points: 2
#     Edge 9, Type (0, 0), BuildingBlock: XUDNAN_clean_linker_2, # of connection points: 2
#     Edge 10, Type (0, 0), BuildingBlock: XUDNAN_clean_linker_2, # of connection points: 2
#     Edge 11, Type (0, 0), BuildingBlock: XUDNAN_clean_linker_2, # of connection points: 2
#     Edge 12, Type (0, 0), BuildingBlock: XUDNAN_clean_linker_2, # of connection points: 2
#     Edge 13, Type (0, 0), BuildingBlock: XUDNAN_clean_linker_2, # of connection points: 2
#     Edge 14, Type (0, 0), BuildingBlock: XUDNAN_clean_linker_2, # of connection points: 2
#     Edge 15, Type (0, 0), BuildingBlock: XUDNAN_clean_linker_2, # of connection points: 2
#     Edge 16, Type (0, 0), BuildingBlock: XUDNAN_clean_linker_2, # of connection points: 2
#     Edge 17, Type (0, 0), BuildingBlock: XUDNAN_clean_linker_2, # of connection points: 2
#     Edge 18, Type (0, 0), BuildingBlock: XUDNAN_clean_linker_2, # of connection points: 2
#     Edge 19, Type (0, 0), BuildingBlock: XUDNAN_clean_linker_2, # of connection points: 2
#     Edge 20, Type (0, 0), BuildingBlock: XUDNAN_clean_linker_2, # of connection points: 2
#     Edge 21, Type (0, 0), BuildingBlock: XUDNAN_clean_linker_2, # of connection points: 2
#     Edge 22, Type (0, 0), BuildingBlock: XUDNAN_clean_linker_2, # of connection points: 2
#     Edge 23, Type (0, 0), BuildingBlock: XUDNAN_clean_linker_2, # of connection points: 2
# Relax obj value: 0.009
# Max RMSD: 0.064
# Mean RMSD: 0.064
data_MOF--net-mdf--node1-QUQFOY_clean_sbu_1--edge1-XUDNAN_clean_linker_2
_symmetry_space_group_name_H-M    P1
_symmetry_Int_Tables_number       1
_symmetry_cell_setting            triclinic
loop_
_symmetry_equiv_pos_as_xyz
'x, y, z'
_cell_length_a     38.871236
_cell_length_b     38.932282
_cell_length_c     12.336142
_cell_angle_alpha  90.020816
_cell_angle_beta   89.970879
_cell_angle_gamma 90.008073
loop_
_atom_site_label
_atom_site_type_symbol
_atom_site_fract_x
_atom_site_fract_y
_atom_site_fract_z
_atom_type_partial_charge
O0 O 0.32322 0.51078 0.37805 0.0
Cd1 Cd 0.28691 0.54207 0.30415 0.0
Cd2 Cd 0.25796 0.54031 0.5032 0.0
O3 O 0.3046 0.51843 0.54543 0.0
O4 O 0.3071 0.55815 0.16347 0.0
O5 O 0.29683 0.59316 0.30099 0.0
C6 C 0.30828 0.58866 0.2038 0.0
C7 C 0.23739 0.59115 0.57992 0.0
C8 C 0.32663 0.50612 0.4796 0.0
C9 C 0.21822 0.50603 0.32737 0.0
O10 O 0.22187 0.509 0.42936 0.0
O11 O 0.23989 0.51989 0.26338 0.0
O12 O 0.23609 0.56253 0.63266 0.0
O13 O 0.25167 0.59102 0.48523 0.0
O14 O 0.5436 0.72198 0.66615 0.0
Cd15 Cd 0.51542 0.76064 0.73911 0.0
Cd16 Cd 0.50078 0.77749 0.52711 0.0
O17 O 0.52254 0.72928 0.50125 0.0
O18 O 0.49409 0.74391 0.87908 0.0
O19 O 0.46471 0.75438 0.72928 0.0
C20 C 0.46507 0.74334 0.82786 0.0
C21 C 0.44865 0.79534 0.44818 0.0
C22 C 0.54101 0.71232 0.56787 0.0
C23 C 0.54477 0.82682 0.66015 0.0
O24 O 0.53372 0.81717 0.56788 0.0
O25 O 0.53806 0.80917 0.74463 0.0
O26 O 0.47634 0.79284 0.39098 0.0
O27 O 0.45024 0.78606 0.54832 0.0
O28 O 0.31468 0.03033 0.90711 0.0
Cd29 Cd 0.27645 0.99961 0.97327 0.0
Cd30 Cd 0.25177 1.00174 0.76918 0.0
O31 O 0.29943 0.02277 0.73639 0.0
O32 O 0.29325 0.98326 0.11785 0.0
O33 O 0.28558 0.94851 0.97802 0.0
C34 C 0.29489 0.95276 0.0775 0.0
C35 C 0.23303 0.95019 0.69351 0.0
C36 C 0.32026 0.03477 0.80641 0.0
C37 C 0.20893 0.03643 0.93594 0.0
O38 O 0.21463 0.03359 0.83485 0.0
O39 O 0.22901 0.0222 1.00397 0.0
O40 O 0.23256 0.97828 0.63785 0.0
O41 O 0.24531 0.95134 0.79078 0.0
O42 O 0.99788 0.72352 0.06748 0.0
Cd43 Cd 0.02929 0.76447 0.03174 0.0
Cd44 Cd 0.03027 0.7722 0.24176 0.0
O45 O 1.00927 0.7229 0.2425 0.0
O46 O 0.04974 0.75522 0.88601 0.0
O47 O 0.07975 0.75271 0.03834 0.0
C48 C 0.07831 0.74834 0.93474 0.0
C49 C 0.0791 0.7893 0.33758 0.0
C50 C 0.99528 0.70921 0.15972 0.0
C51 C 0.99334 0.82652 0.11826 0.0
O52 O 0.9973 0.81208 0.20973 0.0
O53 O 1.00695 0.81341 0.0338 0.0
O54 O 0.0508 0.78173 0.38683 0.0
O55 O 0.08041 0.78524 0.23385 0.0
O56 O 0.82033 1.01056 0.85737 0.0
Cd57 Cd 0.78483 0.0426 0.78389 0.0
Cd58 Cd 0.75651 0.0425 0.98342 0.0
O59 O 0.80414 0.02215 0.02503 0.0
O60 O 0.807 0.06579 0.65514 0.0
O61 O 0.7929 0.09297 0.806 0.0
C62 C 0.80683 0.09383 0.71115 0.0
C63 C 0.73317 0.09302 0.05595 0.0
C64 C 0.82494 1.00781 0.95913 0.0
C65 C 0.71717 1.00613 0.81015 0.0
O66 O 0.7219 1.00925 0.9117 0.0
O67 O 0.73748 0.02084 0.74345 0.0
O68 O 0.73394 0.06507 0.11226 0.0
O69 O 0.74692 0.09251 0.96081 0.0
O70 O 0.0354 0.22948 0.19032 0.0
Cd71 Cd 1.00592 0.27106 0.23575 0.0
Cd72 Cd 1.00505 0.27968 0.01664 0.0
O73 O 0.027 0.23084 0.01323 0.0
O74 O 0.99025 0.26144 0.38813 0.0
O75 O 0.95518 0.26113 0.24708 0.0
C76 C 0.95995 0.25595 0.34926 0.0
C77 C 0.95181 0.29565 0.94422 0.0
C78 C 0.03944 0.2162 0.09691 0.0
C79 C 0.0425 0.33314 0.14835 0.0
O80 O 0.03715 0.32011 0.05521 0.0
O81 O 0.02981 0.3191 0.23274 0.0
O82 O 0.97835 0.29199 0.8821 0.0
O83 O 0.95523 0.28802 0.04554 0.0
O84 O 0.81721 0.53145 0.42331 0.0
Cd85 Cd 0.7781 0.50211 0.48865 0.0
Cd86 Cd 0.76132 0.48944 0.28358 0.0
O87 O 0.80942 0.51133 0.25809 0.0
O88 O 0.7922 0.48514 0.63493 0.0
O89 O 0.78707 0.45116 0.49158 0.0
C90 C 0.79517 0.45496 0.59247 0.0
C91 C 0.74439 0.44028 0.188 0.0
C92 C 0.82662 0.52946 0.32479 0.0
C93 C 0.71189 0.53259 0.41349 0.0
O94 O 0.72128 0.52224 0.3203 0.0
O95 O 0.72977 0.5251 0.49666 0.0
O96 O 0.7488 0.46931 0.13994 0.0
O97 O 0.75075 0.4386 0.29053 0.0
O98 O 0.501 0.22442 0.58148 0.0
Cd99 Cd 0.53191 0.26546 0.54185 0.0
Cd100 Cd 0.53282 0.27099 0.76161 0.0
O101 O 0.509 0.22311 0.75872 0.0
O102 O 0.54681 0.25711 0.38826 0.0
O103 O 0.58225 0.25429 0.52814 0.0
C104 C 0.57705 0.25036 0.42559 0.0
C105 C 0.5864 0.28374 0.83721 0.0
C106 C 0.49627 0.21007 0.67288 0.0
C107 C 0.49777 0.32758 0.63678 0.0
O108 O 0.5025 0.31317 0.72814 0.0
O109 O 0.50991 0.31415 0.55067 0.0
O110 O 0.5595 0.28062 0.89806 0.0
O111 O 0.58303 0.27736 0.73499 0.0
H112 H 0.45448 0.72177 0.03894 0.0
H113 H 0.40526 0.72776 0.72366 0.0
H114 H 0.35657 0.69377 0.79256 0.0
H115 H 0.4336 0.6378 0.09765 0.0
H116 H 0.42473 0.64394 0.23978 0.0
H117 H 0.45386 0.67242 0.17085 0.0
H118 H 0.41737 0.72479 0.23031 0.0
H119 H 0.38812 0.69649 0.3003 0.0
H120 H 0.37209 0.72587 0.19932 0.0
H121 H 0.31848 0.65127 0.88421 0.0
H122 H 0.29039 0.60762 1.00007 0.0
H123 H 0.36051 0.63217 0.26174 0.0
C124 C 0.43305 0.71664 0.98527 0.0
C125 C 0.4338 0.72745 0.87572 0.0
C126 C 0.40533 0.71996 0.80792 0.0
C127 C 0.37747 0.7006 0.84632 0.0
C128 C 0.37797 0.68946 0.95355 0.0
C129 C 0.40463 0.69776 0.02295 0.0
C130 C 0.39941 0.6812 0.13322 0.0
C131 C 0.4297 0.65743 0.16198 0.0
C132 C 0.39391 0.70873 0.22098 0.0
C133 C 0.36665 0.66089 0.11296 0.0
C134 C 0.35468 0.66619 0.00873 0.0
C135 C 0.327 0.64762 0.96693 0.0
C136 C 0.31128 0.62283 0.03295 0.0
C137 C 0.32288 0.61722 0.14004 0.0
C138 C 0.35055 0.63686 0.18111 0.0
H139 H 0.43496 0.81362 0.23676 0.0
H140 H 0.3915 0.815 0.56091 0.0
H141 H 0.34316 0.8502 0.49515 0.0
H142 H 0.41776 0.89746 0.17089 0.0
H143 H 0.40635 0.8901 0.03119 0.0
H144 H 0.43491 0.86089 0.09923 0.0
H145 H 0.39471 0.80993 0.05247 0.0
H146 H 0.36606 0.83898 0.9832 0.0
H147 H 0.34995 0.81186 0.0902 0.0
H148 H 0.30568 0.89336 0.40323 0.0
H149 H 0.27867 0.93735 0.2862 0.0
H150 H 0.343 0.90521 0.01779 0.0
C151 C 0.41479 0.82056 0.29322 0.0
C152 C 0.41708 0.81154 0.40407 0.0
C153 C 0.39029 0.82141 0.47557 0.0
C154 C 0.36267 0.84145 0.43897 0.0
C155 C 0.36176 0.85088 0.33009 0.0
C156 C 0.38672 0.84022 0.25762 0.0
C157 C 0.38071 0.85564 0.14627 0.0
C158 C 0.41177 0.87731 0.10984 0.0
C159 C 0.37236 0.82742 0.06312 0.0
C160 C 0.34952 0.87796 0.1689 0.0
C161 C 0.33891 0.87469 0.27545 0.0
C162 C 0.31311 0.89546 0.31893 0.0
C163 C 0.29802 0.92044 0.25221 0.0
C164 C 0.30836 0.92406 0.14291 0.0
C165 C 0.33396 0.90213 0.10028 0.0
H166 H 0.12405 0.83958 0.27139 0.0
H167 H 0.0973 0.77472 0.54318 0.0
H168 H 0.14105 0.80422 0.65618 0.0
H169 H 0.21802 0.85197 0.33625 0.0
H170 H 0.21685 0.8966 0.29787 0.0
H171 H 0.18899 0.86612 0.23145 0.0
H172 H 0.13606 0.90326 0.28273 0.0
H173 H 0.16374 0.93364 0.34941 0.0
H174 H 0.12874 0.91413 0.42296 0.0
H175 H 0.18333 0.84252 0.74344 0.0
H176 H 0.21674 0.89236 0.8071 0.0
H177 H 0.21284 0.93632 0.4839 0.0
C178 C 0.12844 0.83077 0.35349 0.0
C179 C 0.10818 0.80417 0.39854 0.0
C180 C 0.11323 0.7945 0.50755 0.0
C181 C 0.138 0.81094 0.57173 0.0
C182 C 0.15723 0.83737 0.52598 0.0
C183 C 0.15257 0.84758 0.41964 0.0
C184 C 0.17288 0.88006 0.39581 0.0
C185 C 0.20084 0.87327 0.31027 0.0
C186 C 0.14892 0.9095 0.36071 0.0
C187 C 0.18869 0.88694 0.50621 0.0
C188 C 0.1801 0.8614 0.57902 0.0
C189 C 0.19048 0.86257 0.68703 0.0
C190 C 0.2095 0.89101 0.72243 0.0
C191 C 0.21736 0.91828 0.65064 0.0
C192 C 0.20732 0.91581 0.54061 0.0
H193 H 0.12333 0.69805 0.99993 0.0
H194 H 0.09693 0.76365 0.7297 0.0
H195 H 0.14137 0.7349 0.61697 0.0
H196 H 0.21728 0.68721 0.93927 0.0
H197 H 0.21674 0.64238 0.97553 0.0
H198 H 0.1879 0.672 0.04169 0.0
H199 H 0.13595 0.63426 0.98567 0.0
H200 H 0.16457 0.60462 0.91945 0.0
H201 H 0.12971 0.62383 0.84461 0.0
H202 H 0.1851 0.69768 0.53037 0.0
H203 H 0.2204 0.649 0.46734 0.0
H204 H 0.21496 0.60357 0.78822 0.0
C205 C 0.12787 0.70715 0.91821 0.0
C206 C 0.10756 0.73377 0.87359 0.0
C207 C 0.11287 0.74383 0.76501 0.0
C208 C 0.13801 0.72782 0.70101 0.0
C209 C 0.15733 0.7014 0.7464 0.0
C210 C 0.15235 0.69076 0.85217 0.0
C211 C 0.17307 0.65854 0.8758 0.0
C212 C 0.20037 0.66546 0.96327 0.0
C213 C 0.14941 0.62855 0.90825 0.0
C214 C 0.18968 0.65238 0.76605 0.0
C215 C 0.18097 0.67799 0.69366 0.0
C216 C 0.19228 0.67756 0.58645 0.0
C217 C 0.21239 0.6498 0.55141 0.0
C218 C 0.22042 0.62244 0.62268 0.0
C219 C 0.20933 0.62414 0.73191 0.0
H220 H 0.82587 0.11001 0.50221 0.0
H221 H 0.82838 0.14839 0.83234 0.0
H222 H 0.86363 0.19763 0.77276 0.0
H223 H 0.91003 0.13005 0.43205 0.0
H224 H 0.90079 0.14338 0.2952 0.0
H225 H 0.87315 0.11292 0.36178 0.0
H226 H 0.82056 0.15222 0.32629 0.0
H227 H 0.84807 0.18283 0.25912 0.0
H228 H 0.82155 0.19627 0.37129 0.0
H229 H 0.906 0.23747 0.68254 0.0
H230 H 0.94744 0.26796 0.56414 0.0
H231 H 0.91293 0.20763 0.2897 0.0
C232 C 0.83331 0.12913 0.56151 0.0
C233 C 0.82441 0.1253 0.67198 0.0
C234 C 0.83471 0.15084 0.74718 0.0
C235 C 0.85479 0.17892 0.71414 0.0
C236 C 0.86375 0.18158 0.60508 0.0
C237 C 0.85277 0.15775 0.52945 0.0
C238 C 0.86682 0.16604 0.41779 0.0
C239 C 0.88901 0.13634 0.37421 0.0
C240 C 0.8375 0.17487 0.33898 0.0
C241 C 0.88849 0.19742 0.44325 0.0
C242 C 0.88646 0.20594 0.55188 0.0
C243 C 0.90709 0.23162 0.59683 0.0
C244 C 0.93059 0.24875 0.52921 0.0
C245 C 0.93267 0.24073 0.41756 0.0
C246 C 0.91094 0.21511 0.37405 0.0
H247 H 0.93437 0.31229 0.73344 0.0
H248 H 0.89717 0.31722 0.06502 0.0
H249 H 0.84881 0.3534 0.00592 0.0
H250 H 0.91842 0.39595 0.66413 0.0
H251 H 0.90379 0.38818 0.52766 0.0
H252 H 0.93269 0.35834 0.59153 0.0
H253 H 0.88993 0.30912 0.55528 0.0
H254 H 0.86028 0.33846 0.4922 0.0
H255 H 0.84635 0.31215 0.6042 0.0
H256 H 0.8121 0.39764 0.91963 0.0
H257 H 0.78366 0.44163 0.80553 0.0
H258 H 0.84057 0.40535 0.52607 0.0
C259 C 0.91547 0.32016 0.793 0.0
C260 C 0.91967 0.3119 0.90405 0.0
C261 C 0.89454 0.32301 0.97956 0.0
C262 C 0.86691 0.34365 0.94677 0.0
C263 C 0.86423 0.35244 0.83767 0.0
C264 C 0.8873 0.34042 0.76124 0.0
C265 C 0.87948 0.35539 0.65018 0.0
C266 C 0.91043 0.37567 0.60585 0.0
C267 C 0.86832 0.32709 0.57081 0.0
C268 C 0.84959 0.37898 0.6775 0.0
C269 C 0.84122 0.37675 0.78615 0.0
C270 C 0.81733 0.3988 0.83363 0.0
C271 C 0.8015 0.42376 0.76855 0.0
C272 C 0.80929 0.42621 0.65688 0.0
C273 C 0.83327 0.40317 0.61054 0.0
H274 H 0.69629 0.39363 0.25545 0.0
H275 H 0.75913 0.42268 0.98101 0.0
H276 H 0.73191 0.37726 0.87011 0.0
H277 H 0.6864 0.29888 0.19311 0.0
H278 H 0.64233 0.3008 0.23811 0.0
H279 H 0.67377 0.32899 0.29695 0.0
H280 H 0.63318 0.37993 0.24527 0.0
H281 H 0.60356 0.35094 0.18085 0.0
H282 H 0.62172 0.38611 0.10499 0.0
H283 H 0.69406 0.33339 0.78459 0.0
H284 H 0.64437 0.29948 0.72259 0.0
H285 H 0.60168 0.3022 0.04776 0.0
C286 C 0.70511 0.38944 0.1732 0.0
C287 C 0.7307 0.41065 0.12723 0.0
C288 C 0.74034 0.40585 0.01786 0.0
C289 C 0.72499 0.38016 0.95461 0.0
C290 C 0.69935 0.35996 1.00146 0.0
C291 C 0.68912 0.36461 0.10787 0.0
C292 C 0.65742 0.34337 0.13336 0.0
C293 C 0.66552 0.31637 0.22044 0.0
C294 C 0.6272 0.36648 0.1681 0.0
C295 C 0.65082 0.3268 0.02388 0.0
C296 C 0.67592 0.33603 0.94995 0.0
C297 C 0.67444 0.3257 0.84194 0.0
C298 C 0.64604 0.30639 0.80747 0.0
C299 C 0.61905 0.29811 0.88018 0.0
C300 C 0.62204 0.30774 0.99048 0.0
H301 H 0.71635 0.11 0.26595 0.0
H302 H 0.70736 0.14527 0.9336 0.0
H303 H 0.67026 0.19304 0.99404 0.0
H304 H 0.63243 0.1261 0.34657 0.0
H305 H 0.64275 0.14127 0.48074 0.0
H306 H 0.67114 0.11175 0.41306 0.0
H307 H 0.72188 0.15423 0.43745 0.0
H308 H 0.69363 0.18388 0.50588 0.0
H309 H 0.71775 0.19771 0.38893 0.0
H310 H 0.62657 0.23067 0.08624 0.0
H311 H 0.58522 0.25999 0.20759 0.0
H312 H 0.62734 0.20493 0.48251 0.0
C313 C 0.70709 0.12818 0.2063 0.0
C314 C 0.71465 0.12388 0.09505 0.0
C315 C 0.70205 0.14816 0.01932 0.0
C316 C 0.6809 0.17536 0.05283 0.0
C317 C 0.67326 0.17846 0.16275 0.0
C318 C 0.68659 0.15601 0.23874 0.0
C319 C 0.67368 0.16456 0.35154 0.0
C320 C 0.65382 0.13411 0.4008 0.0
C321 C 0.70352 0.17577 0.42529 0.0
C322 C 0.64994 0.19442 0.32645 0.0
C323 C 0.64992 0.20193 0.21693 0.0
C324 C 0.6271 0.22574 0.17256 0.0
C325 C 0.60364 0.24218 0.24189 0.0
C326 C 0.60382 0.23546 0.3546 0.0
C327 C 0.62757 0.21155 0.39723 0.0
H328 H 0.36934 0.46289 0.36486 0.0
H329 H 0.34847 0.50051 0.6897 0.0
H330 H 0.39344 0.4622 0.76219 0.0
H331 H 0.38065 0.37638 0.43837 0.0
H332 H 0.41464 0.36783 0.34264 0.0
H333 H 0.38332 0.40065 0.31422 0.0
H334 H 0.43213 0.44532 0.29035 0.0
H335 H 0.46366 0.41258 0.31857 0.0
H336 H 0.46295 0.45149 0.39778 0.0
H337 H 0.43742 0.41718 0.8016 0.0
H338 H 0.47694 0.36776 0.80613 0.0
H339 H 0.46947 0.3585 0.45607 0.0
C340 C 0.37466 0.46355 0.45099 0.0
C341 C 0.35544 0.48492 0.52151 0.0
C342 C 0.36282 0.48447 0.63398 0.0
C343 C 0.38842 0.46286 0.67594 0.0
C344 C 0.40648 0.44178 0.60454 0.0
C345 C 0.40001 0.44194 0.49443 0.0
C346 C 0.42162 0.41514 0.43644 0.0
C347 C 0.39868 0.38842 0.3796 0.0
C348 C 0.44658 0.43216 0.35603 0.0
C349 C 0.44077 0.39948 0.53148 0.0
C350 C 0.43183 0.41548 0.62747 0.0
C351 C 0.44486 0.40466 0.72685 0.0
C352 C 0.46727 0.37646 0.72853 0.0
C353 C 0.47648 0.35922 0.63147 0.0
C354 C 0.46332 0.37132 0.53154 0.0
H355 H 0.6796 0.95835 0.92421 0.0
H356 H 0.69089 1.00328 0.60408 0.0
H357 H 0.64549 0.96468 0.53487 0.0
H358 H 0.66875 0.87256 0.83418 0.0
H359 H 0.6378 0.86115 0.9369 0.0
H360 H 0.66919 0.89408 0.9636 0.0
H361 H 0.62041 0.93687 0.01086 0.0
H362 H 0.58882 0.90404 0.98435 0.0
H363 H 0.58655 0.94455 0.91402 0.0
H364 H 0.60068 0.91991 0.49865 0.0
H365 H 0.56098 0.87074 0.4951 0.0
H366 H 0.57933 0.85336 0.8381 0.0
C367 C 0.6722 0.96044 0.83985 0.0
C368 C 0.68871 0.98409 0.76969 0.0
C369 C 0.67863 0.98549 0.65945 0.0
C370 C 0.65279 0.96372 0.61946 0.0
C371 C 0.63731 0.94053 0.69053 0.0
C372 C 0.64667 0.93866 0.79833 0.0
C373 C 0.62728 0.91014 0.85608 0.0
C374 C 0.65225 0.88287 0.90026 0.0
C375 C 0.60441 0.92478 0.94669 0.0
C376 C 0.6058 0.89603 0.76357 0.0
C377 C 0.61181 0.91419 0.66914 0.0
C378 C 0.59568 0.9056 0.57218 0.0
C379 C 0.57312 0.87752 0.57115 0.0
C380 C 0.56687 0.85801 0.66634 0.0
C381 C 0.58329 0.86777 0.76408 0.0
H382 H 0.07068 0.18872 0.91486 0.0
H383 H 0.05513 0.17146 0.25917 0.0
H384 H 0.09315 0.121 0.25119 0.0
H385 H 0.07618 0.09693 0.83583 0.0
H386 H 0.10945 0.10479 0.73707 0.0
H387 H 0.07815 0.13766 0.76661 0.0
H388 H 0.1273 0.18026 0.8118 0.0
H389 H 0.15869 0.14754 0.78286 0.0
H390 H 0.15879 0.16876 0.91274 0.0
H391 H 0.13646 0.07576 0.21133 0.0
H392 H 0.18213 0.03793 0.14078 0.0
H393 H 0.1702 0.08345 0.82166 0.0
C394 C 0.07472 0.17388 0.98797 0.0
C395 C 0.05978 0.18406 0.08759 0.0
C396 C 0.06626 0.16428 0.1819 0.0
C397 C 0.08776 0.13545 0.17822 0.0
C398 C 0.10265 0.12653 0.07957 0.0
C399 C 0.09636 0.14497 0.98591 0.0
C400 C 0.11742 0.13098 0.89207 0.0
C401 C 0.09389 0.11674 0.8026 0.0
C402 C 0.142 0.15853 0.84728 0.0
C403 C 0.137 0.10235 0.94839 0.0
C404 C 0.12784 0.10013 0.05635 0.0
C405 C 0.14358 0.07695 0.1266 0.0
C406 C 0.16959 0.05562 0.08577 0.0
C407 C 0.1797 0.05753 0.97556 0.0
C408 C 0.16278 0.081 0.90592 0.0
H409 H 0.96376 0.68252 0.34151 0.0
H410 H 0.9804 0.66371 0.99866 0.0
H411 H 0.94321 0.61253 0.0085 0.0
H412 H 0.95886 0.59141 0.42688 0.0
H413 H 0.92503 0.59966 0.52342 0.0
H414 H 0.95613 0.63263 0.49295 0.0
H415 H 0.90679 0.67436 0.44215 0.0
H416 H 0.87561 0.64155 0.47222 0.0
H417 H 0.87589 0.66172 0.34073 0.0
H418 H 0.90107 0.56619 0.05093 0.0
H419 H 0.85538 0.52854 0.12218 0.0
H420 H 0.86463 0.57751 0.43729 0.0
C421 C 0.96014 0.66718 0.26917 0.0
C422 C 0.97518 0.677 0.16943 0.0
C423 C 0.96919 0.6567 0.07595 0.0
C424 C 0.9482 0.62747 0.08078 0.0
C425 C 0.93325 0.61884 0.17967 0.0
C426 C 0.93889 0.63803 0.27229 0.0
C427 C 0.91755 0.62457 0.36616 0.0
C428 C 0.94079 0.61127 0.45777 0.0
C429 C 0.89248 0.6522 0.4077 0.0
C430 C 0.89855 0.59532 0.31111 0.0
C431 C 0.90835 0.59224 0.20391 0.0
C432 C 0.8934 0.56812 0.13506 0.0
C433 C 0.86739 0.54686 0.17635 0.0
C434 C 0.85637 0.54991 0.28549 0.0
C435 C 0.87264 0.57423 0.35384 0.0
H436 H 0.36076 0.07829 0.92777 0.0
H437 H 0.34708 0.03829 0.60196 0.0
H438 H 0.39423 0.07534 0.53722 0.0
H439 H 0.37498 0.16392 0.85029 0.0
H440 H 0.40678 0.17295 0.95269 0.0
H441 H 0.37451 0.14069 0.97671 0.0
H442 H 0.42211 0.09576 0.01516 0.0
H443 H 0.45459 0.12795 0.9914 0.0
H444 H 0.45523 0.08838 0.91547 0.0
H445 H 0.43925 0.11934 0.50432 0.0
H446 H 0.47905 0.16846 0.50396 0.0
H447 H 0.46407 0.18103 0.85063 0.0
C448 C 0.36813 0.07683 0.84323 0.0
C449 C 0.35031 0.05519 0.77002 0.0
C450 C 0.36033 0.05458 0.65961 0.0
C451 C 0.38719 0.07545 0.62209 0.0
C452 C 0.40383 0.09684 0.69588 0.0
C453 C 0.39479 0.09772 0.80415 0.0
C454 C 0.41533 0.12479 0.86467 0.0
C455 C 0.39147 0.15221 0.91395 0.0
C456 C 0.43818 0.10822 0.95184 0.0
C457 C 0.4368 0.13944 0.77293 0.0
C458 C 0.42991 0.12264 0.67661 0.0
C459 C 0.44513 0.13248 0.57938 0.0
C460 C 0.46765 0.16053 0.58008 0.0
C461 C 0.4748 0.1786 0.67732 0.0
C462 C 0.45951 0.16748 0.77531 0.0
H463 H 0.86627 0.96312 0.84504 0.0
H464 H 0.84751 1.00268 0.16891 0.0
H465 H 0.89171 0.96346 0.24146 0.0
H466 H 0.87581 0.87661 0.92131 0.0
H467 H 0.90929 0.86695 0.82489 0.0
H468 H 0.87864 0.90036 0.79617 0.0
H469 H 0.92834 0.94386 0.76919 0.0
H470 H 0.95921 0.91051 0.79754 0.0
H471 H 0.95964 0.9497 0.87541 0.0
H472 H 0.93449 0.91736 0.28116 0.0
H473 H 0.97315 0.86733 0.28626 0.0
H474 H 0.96466 0.85695 0.93677 0.0
C475 C 0.87187 0.96401 0.93096 0.0
C476 C 0.85346 0.9862 1.00119 0.0
C477 C 0.86125 0.98605 0.11338 0.0
C478 C 0.88639 0.96389 0.15537 0.0
C479 C 0.90361 0.94201 0.08425 0.0
C480 C 0.89681 0.94192 0.97438 0.0
C481 C 0.91763 0.91443 0.91666 0.0
C482 C 0.89392 0.88803 0.86154 0.0
C483 C 0.9427 0.9306 0.83486 0.0
C484 C 0.93674 0.89866 0.0116 0.0
C485 C 0.92839 0.91518 0.1073 0.0
C486 C 0.94147 0.90444 0.20665 0.0
C487 C 0.96337 0.87587 0.20862 0.0
C488 C 0.97209 0.85818 0.11189 0.0
C489 C 0.95885 0.87012 0.01192 0.0
H490 H 0.07208 0.36086 0.33261 0.0
H491 H 0.06487 0.37454 0.984 0.0
H492 H 0.10608 0.42247 0.99421 0.0
H493 H 0.0814 0.45264 0.40173 0.0
H494 H 0.11187 0.44425 0.5086 0.0
H495 H 0.07951 0.41276 0.47573 0.0
H496 H 0.12706 0.36707 0.44652 0.0
H497 H 0.15952 0.3984 0.47886 0.0
H498 H 0.16134 0.3756 0.35179 0.0
H499 H 0.15124 0.46597 0.03897 0.0
H500 H 0.19672 0.50274 0.11626 0.0
H501 H 0.17496 0.46168 0.4363 0.0
C502 C 0.07868 0.37434 0.2587 0.0
C503 C 0.06505 0.36388 0.15748 0.0
C504 C 0.07486 0.38194 0.06254 0.0
C505 C 0.09825 0.40931 0.06745 0.0
C506 C 0.11168 0.41853 0.16795 0.0
C507 C 0.10218 0.40175 0.26205 0.0
C508 C 0.12182 0.41576 0.3588 0.0
C509 C 0.09717 0.43234 0.44107 0.0
C510 C 0.14373 0.38753 0.41209 0.0
C511 C 0.14422 0.44258 0.30396 0.0
C512 C 0.13779 0.44384 0.19393 0.0
C513 C 0.15626 0.46547 0.12523 0.0
C514 C 0.18215 0.48622 0.16993 0.0
C515 C 0.18941 0.48531 0.28248 0.0
C516 C 0.16983 0.46334 0.35019 0.0
H517 H 0.59115 0.67645 0.67748 0.0
H518 H 0.53628 0.6798 0.37108 0.0
H519 H 0.57143 0.63149 0.3038 0.0
H520 H 0.67323 0.6603 0.56619 0.0
H521 H 0.68705 0.63199 0.67324 0.0
H522 H 0.65576 0.66493 0.70082 0.0
H523 H 0.61345 0.619 0.77391 0.0
H524 H 0.64466 0.58588 0.74657 0.0
H525 H 0.60208 0.58293 0.68953 0.0
H526 H 0.6147 0.58529 0.2656 0.0
H527 H 0.66344 0.54492 0.25783 0.0
H528 H 0.69067 0.57136 0.58888 0.0
C529 C 0.58613 0.66673 0.59677 0.0
C530 C 0.56075 0.68192 0.52977 0.0
C531 C 0.55546 0.66865 0.4241 0.0
C532 C 0.57526 0.64112 0.3852 0.0
C533 C 0.60029 0.62706 0.45285 0.0
C534 C 0.60577 0.63935 0.55645 0.0
C535 C 0.6355 0.62081 0.61058 0.0
C536 C 0.6646 0.64601 0.63936 0.0
C537 C 0.62317 0.60098 0.7111 0.0
C538 C 0.64623 0.59651 0.52061 0.0
C539 C 0.62539 0.60041 0.43066 0.0
C540 C 0.631 0.58182 0.33584 0.0
C541 C 0.65885 0.55896 0.33225 0.0
C542 C 0.68092 0.55479 0.42284 0.0
C543 C 0.67411 0.5736 0.51869 0.0
loop_
_geom_bond_atom_site_label_1
_geom_bond_atom_site_label_2
_geom_bond_distance
_geom_bond_site_symmetry_2
_ccdc_geom_bond_type
O0 Cd1 2.223 . S
O0 C8 1.315 . S
Cd1 O0 2.223 . S
Cd1 O4 2.297 . S
Cd1 O5 2.439 . S
Cd1 O11 2.240 . S
Cd2 O3 2.240 . S
Cd2 O10 2.223 . S
Cd2 O12 2.297 . S
Cd2 O13 2.439 . S
O3 Cd2 2.240 . S
O3 C8 1.279 . S
O4 Cd1 2.297 . S
O4 C6 1.247 . S
O5 Cd1 2.439 . S
O5 C6 1.208 . S
C6 O4 1.247 . S
C6 O5 1.208 . S
C7 O12 1.247 . S
C7 O13 1.208 . S
C8 O0 1.315 . S
C8 O3 1.279 . S
C9 O10 1.315 . S
C9 O11 1.279 . S
O10 Cd2 2.223 . S
O10 C9 1.315 . S
O11 Cd1 2.240 . S
O11 C9 1.279 . S
O12 Cd2 2.297 . S
O12 C7 1.247 . S
O13 Cd2 2.439 . S
O13 C7 1.208 . S
O14 Cd15 2.223 . S
O14 C22 1.315 . S
Cd15 O14 2.223 . S
Cd15 O18 2.297 . S
Cd15 O19 2.439 . S
Cd15 O25 2.240 . S
Cd16 O17 2.240 . S
Cd16 O24 2.223 . S
Cd16 O26 2.297 . S
Cd16 O27 2.439 . S
O17 Cd16 2.240 . S
O17 C22 1.279 . S
O18 Cd15 2.297 . S
O18 C20 1.247 . S
O19 Cd15 2.439 . S
O19 C20 1.208 . S
C20 O18 1.247 . S
C20 O19 1.208 . S
C21 O26 1.247 . S
C21 O27 1.208 . S
C22 O14 1.315 . S
C22 O17 1.279 . S
C23 O24 1.315 . S
C23 O25 1.279 . S
O24 Cd16 2.223 . S
O24 C23 1.315 . S
O25 Cd15 2.240 . S
O25 C23 1.279 . S
O26 Cd16 2.297 . S
O26 C21 1.247 . S
O27 Cd16 2.439 . S
O27 C21 1.208 . S
O28 Cd29 2.223 1_556 S
O28 C36 1.315 . S
Cd29 O28 2.223 1_554 S
Cd29 O32 2.297 1_545 S
Cd29 O33 2.439 1_544 S
Cd29 O39 2.240 1_554 S
Cd30 O31 2.240 . S
Cd30 O38 2.223 . S
Cd30 O40 2.297 1_545 S
Cd30 O41 2.439 1_545 S
O31 Cd30 2.240 . S
O31 C36 1.279 . S
O32 Cd29 2.297 1_565 S
O32 C34 1.247 . S
O33 Cd29 2.439 1_566 S
O33 C34 1.208 1_556 S
C34 O32 1.247 . S
C34 O33 1.208 1_554 S
C35 O40 1.247 . S
C35 O41 1.208 . S
C36 O28 1.315 . S
C36 O31 1.279 . S
C37 O38 1.315 . S
C37 O39 1.279 . S
O38 Cd30 2.223 . S
O38 C37 1.315 . S
O39 Cd29 2.240 1_556 S
O39 C37 1.279 . S
O40 Cd30 2.297 1_565 S
O40 C35 1.247 . S
O41 Cd30 2.439 1_565 S
O41 C35 1.208 . S
O42 Cd43 2.223 1_554 S
O42 C50 1.315 . S
Cd43 O42 2.223 1_556 S
Cd43 O46 2.297 1_655 S
Cd43 O47 2.439 1_656 S
Cd43 O53 2.240 1_556 S
Cd44 O45 2.240 . S
Cd44 O52 2.223 . S
Cd44 O54 2.297 1_655 S
Cd44 O55 2.439 1_655 S
O45 Cd44 2.240 . S
O45 C50 1.279 . S
O46 Cd43 2.297 1_455 S
O46 C48 1.247 . S
O47 Cd43 2.439 1_454 S
O47 C48 1.208 1_554 S
C48 O46 1.247 . S
C48 O47 1.208 1_556 S
C49 O54 1.247 . S
C49 O55 1.208 . S
C50 O42 1.315 . S
C50 O45 1.279 . S
C51 O52 1.315 . S
C51 O53 1.279 . S
O52 Cd44 2.223 . S
O52 C51 1.315 . S
O53 Cd43 2.240 1_554 S
O53 C51 1.279 . S
O54 Cd44 2.297 1_455 S
O54 C49 1.247 . S
O55 Cd44 2.439 1_455 S
O55 C49 1.208 . S
O56 Cd57 2.223 . S
O56 C64 1.315 . S
Cd57 O56 2.223 . S
Cd57 O60 2.297 1_565 S
Cd57 O61 2.439 1_565 S
Cd57 O67 2.240 . S
Cd58 O59 2.240 1_554 S
Cd58 O66 2.223 1_554 S
Cd58 O68 2.297 1_565 S
Cd58 O69 2.439 1_564 S
O59 Cd58 2.240 1_556 S
O59 C64 1.279 . S
O60 Cd57 2.297 1_545 S
O60 C62 1.247 . S
O61 Cd57 2.439 1_545 S
O61 C62 1.208 . S
C62 O60 1.247 . S
C62 O61 1.208 . S
C63 O68 1.247 . S
C63 O69 1.208 1_554 S
C64 O56 1.315 . S
C64 O59 1.279 . S
C65 O66 1.315 . S
C65 O67 1.279 . S
O66 Cd58 2.223 1_556 S
O66 C65 1.315 . S
O67 Cd57 2.240 . S
O67 C65 1.279 . S
O68 Cd58 2.297 1_545 S
O68 C63 1.247 . S
O69 Cd58 2.439 1_546 S
O69 C63 1.208 1_556 S
O70 Cd71 2.223 . S
O70 C78 1.315 . S
Cd71 O70 2.223 . S
Cd71 O74 2.297 1_455 S
Cd71 O75 2.439 1_455 S
Cd71 O81 2.240 . S
Cd72 O73 2.240 1_556 S
Cd72 O80 2.223 1_556 S
Cd72 O82 2.297 1_455 S
Cd72 O83 2.439 1_456 S
O73 Cd72 2.240 1_554 S
O73 C78 1.279 . S
O74 Cd71 2.297 1_655 S
O74 C76 1.247 . S
O75 Cd71 2.439 1_655 S
O75 C76 1.208 . S
C76 O74 1.247 . S
C76 O75 1.208 . S
C77 O82 1.247 . S
C77 O83 1.208 1_556 S
C78 O70 1.315 . S
C78 O73 1.279 . S
C79 O80 1.315 . S
C79 O81 1.279 . S
O80 Cd72 2.223 1_554 S
O80 C79 1.315 . S
O81 Cd71 2.240 . S
O81 C79 1.279 . S
O82 Cd72 2.297 1_655 S
O82 C77 1.247 . S
O83 Cd72 2.439 1_654 S
O83 C77 1.208 1_554 S
O84 Cd85 2.223 . S
O84 C92 1.315 . S
Cd85 O84 2.223 . S
Cd85 O88 2.297 . S
Cd85 O89 2.439 . S
Cd85 O95 2.240 . S
Cd86 O87 2.240 . S
Cd86 O94 2.223 . S
Cd86 O96 2.297 . S
Cd86 O97 2.439 . S
O87 Cd86 2.240 . S
O87 C92 1.279 . S
O88 Cd85 2.297 . S
O88 C90 1.247 . S
O89 Cd85 2.439 . S
O89 C90 1.208 . S
C90 O88 1.247 . S
C90 O89 1.208 . S
C91 O96 1.247 . S
C91 O97 1.208 . S
C92 O84 1.315 . S
C92 O87 1.279 . S
C93 O94 1.315 . S
C93 O95 1.279 . S
O94 Cd86 2.223 . S
O94 C93 1.315 . S
O95 Cd85 2.240 . S
O95 C93 1.279 . S
O96 Cd86 2.297 . S
O96 C91 1.247 . S
O97 Cd86 2.439 . S
O97 C91 1.208 . S
O98 Cd99 2.223 . S
O98 C106 1.315 . S
Cd99 O98 2.223 . S
Cd99 O102 2.297 . S
Cd99 O103 2.439 . S
Cd99 O109 2.240 . S
Cd100 O101 2.240 . S
Cd100 O108 2.223 . S
Cd100 O110 2.297 . S
Cd100 O111 2.439 . S
O101 Cd100 2.240 . S
O101 C106 1.279 . S
O102 Cd99 2.297 . S
O102 C104 1.247 . S
O103 Cd99 2.439 . S
O103 C104 1.208 . S
C104 O102 1.247 . S
C104 O103 1.208 . S
C105 O110 1.247 . S
C105 O111 1.208 . S
C106 O98 1.315 . S
C106 O101 1.279 . S
C107 O108 1.315 . S
C107 O109 1.279 . S
O108 Cd100 2.223 . S
O108 C107 1.315 . S
O109 Cd99 2.240 . S
O109 C107 1.279 . S
O110 Cd100 2.297 . S
O110 C105 1.247 . S
O111 Cd100 2.439 . S
O111 C105 1.208 . S
H112 C124 0.930 . S
H113 C126 0.930 . S
H114 C127 0.930 . S
H115 C131 0.959 . S
H116 C131 0.959 . S
H117 C131 0.961 . S
H118 C132 0.960 . S
H119 C132 0.961 . S
H120 C132 0.959 . S
H121 C135 0.929 . S
H122 C136 0.931 . S
H123 C138 0.930 . S
C124 H112 0.930 . S
C124 C125 1.399 . S
C124 C129 1.399 . S
C125 C124 1.399 . S
C125 C126 1.376 . S
C126 H113 0.930 . S
C126 C125 1.376 . S
C126 C127 1.388 . S
C127 H114 0.930 . S
C127 C126 1.388 . S
C127 C128 1.390 . S
C128 C127 1.390 . S
C128 C129 1.394 . S
C128 C134 1.465 . S
C129 C124 1.399 . S
C129 C128 1.394 . S
C129 C130 1.516 1_556 S
C130 C129 1.516 1_554 S
C130 C131 1.502 . S
C130 C132 1.561 . S
C130 C133 1.526 . S
C131 H115 0.959 . S
C131 H116 0.959 . S
C131 H117 0.961 . S
C131 C130 1.502 . S
C132 H118 0.960 . S
C132 H119 0.961 . S
C132 H120 0.959 . S
C132 C130 1.561 . S
C133 C130 1.526 . S
C133 C134 1.396 1_554 S
C133 C138 1.390 . S
C134 C128 1.465 . S
C134 C133 1.396 1_556 S
C134 C135 1.399 . S
C135 H121 0.929 . S
C135 C134 1.399 . S
C135 C136 1.385 1_556 S
C136 H122 0.931 . S
C136 C135 1.385 1_554 S
C136 C137 1.389 . S
C137 C136 1.389 . S
C137 C138 1.387 . S
C138 H123 0.930 . S
C138 C133 1.390 . S
C138 C137 1.387 . S
H139 C151 0.930 . S
H140 C153 0.930 . S
H141 C154 0.930 . S
H142 C158 0.959 . S
H143 C158 0.959 . S
H144 C158 0.961 . S
H145 C159 0.960 . S
H146 C159 0.961 . S
H147 C159 0.959 . S
H148 C162 0.929 . S
H149 C163 0.931 . S
H150 C165 0.930 . S
C151 H139 0.930 . S
C151 C152 1.399 . S
C151 C156 1.399 . S
C152 C151 1.399 . S
C152 C153 1.376 . S
C153 H140 0.930 . S
C153 C152 1.376 . S
C153 C154 1.388 . S
C154 H141 0.930 . S
C154 C153 1.388 . S
C154 C155 1.390 . S
C155 C154 1.390 . S
C155 C156 1.394 . S
C155 C161 1.465 . S
C156 C151 1.399 . S
C156 C155 1.394 . S
C156 C157 1.516 . S
C157 C156 1.516 . S
C157 C158 1.502 . S
C157 C159 1.561 . S
C157 C160 1.526 . S
C158 H142 0.959 . S
C158 H143 0.959 . S
C158 H144 0.961 . S
C158 C157 1.502 . S
C159 H145 0.960 . S
C159 H146 0.961 . S
C159 H147 0.959 . S
C159 C157 1.561 . S
C160 C157 1.526 . S
C160 C161 1.396 . S
C160 C165 1.390 . S
C161 C155 1.465 . S
C161 C160 1.396 . S
C161 C162 1.399 . S
C162 H148 0.929 . S
C162 C161 1.399 . S
C162 C163 1.385 . S
C163 H149 0.931 . S
C163 C162 1.385 . S
C163 C164 1.389 . S
C164 C163 1.389 . S
C164 C165 1.387 . S
C165 H150 0.930 . S
C165 C160 1.390 . S
C165 C164 1.387 . S
H166 C178 0.930 . S
H167 C180 0.930 . S
H168 C181 0.930 . S
H169 C185 0.959 . S
H170 C185 0.959 . S
H171 C185 0.961 . S
H172 C186 0.960 . S
H173 C186 0.961 . S
H174 C186 0.959 . S
H175 C189 0.929 . S
H176 C190 0.931 . S
H177 C192 0.930 . S
C178 H166 0.930 . S
C178 C179 1.399 . S
C178 C183 1.399 . S
C179 C178 1.399 . S
C179 C180 1.376 . S
C180 H167 0.930 . S
C180 C179 1.376 . S
C180 C181 1.388 . S
C181 H168 0.930 . S
C181 C180 1.388 . S
C181 C182 1.390 . S
C182 C181 1.390 . S
C182 C183 1.394 . S
C182 C188 1.465 . S
C183 C178 1.399 . S
C183 C182 1.394 . S
C183 C184 1.516 . S
C184 C183 1.516 . S
C184 C185 1.502 . S
C184 C186 1.561 . S
C184 C187 1.526 . S
C185 H169 0.959 . S
C185 H170 0.959 . S
C185 H171 0.961 . S
C185 C184 1.502 . S
C186 H172 0.960 . S
C186 H173 0.961 . S
C186 H174 0.959 . S
C186 C184 1.561 . S
C187 C184 1.526 . S
C187 C188 1.396 . S
C187 C192 1.390 . S
C188 C182 1.465 . S
C188 C187 1.396 . S
C188 C189 1.399 . S
C189 H175 0.929 . S
C189 C188 1.399 . S
C189 C190 1.385 . S
C190 H176 0.931 . S
C190 C189 1.385 . S
C190 C191 1.389 . S
C191 C190 1.389 . S
C191 C192 1.387 . S
C192 H177 0.930 . S
C192 C187 1.390 . S
C192 C191 1.387 . S
H193 C205 0.930 . S
H194 C207 0.930 . S
H195 C208 0.930 . S
H196 C212 0.959 . S
H197 C212 0.959 . S
H198 C212 0.961 . S
H199 C213 0.960 . S
H200 C213 0.961 . S
H201 C213 0.959 . S
H202 C216 0.929 . S
H203 C217 0.931 . S
H204 C219 0.930 . S
C205 H193 0.930 . S
C205 C206 1.399 . S
C205 C210 1.399 . S
C206 C205 1.399 . S
C206 C207 1.376 . S
C207 H194 0.930 . S
C207 C206 1.376 . S
C207 C208 1.388 . S
C208 H195 0.930 . S
C208 C207 1.388 . S
C208 C209 1.390 . S
C209 C208 1.390 . S
C209 C210 1.394 . S
C209 C215 1.465 . S
C210 C205 1.399 . S
C210 C209 1.394 . S
C210 C211 1.516 . S
C211 C210 1.516 . S
C211 C212 1.502 . S
C211 C213 1.561 . S
C211 C214 1.526 . S
C212 H196 0.959 . S
C212 H197 0.959 . S
C212 H198 0.961 . S
C212 C211 1.502 . S
C213 H199 0.960 . S
C213 H200 0.961 . S
C213 H201 0.959 . S
C213 C211 1.561 . S
C214 C211 1.526 . S
C214 C215 1.396 . S
C214 C219 1.390 . S
C215 C209 1.465 . S
C215 C214 1.396 . S
C215 C216 1.399 . S
C216 H202 0.929 . S
C216 C215 1.399 . S
C216 C217 1.385 . S
C217 H203 0.931 . S
C217 C216 1.385 . S
C217 C218 1.389 . S
C218 C217 1.389 . S
C218 C219 1.387 . S
C219 H204 0.930 . S
C219 C214 1.390 . S
C219 C218 1.387 . S
H220 C232 0.930 . S
H221 C234 0.930 . S
H222 C235 0.930 . S
H223 C239 0.959 . S
H224 C239 0.959 . S
H225 C239 0.961 . S
H226 C240 0.960 . S
H227 C240 0.961 . S
H228 C240 0.959 . S
H229 C243 0.929 . S
H230 C244 0.931 . S
H231 C246 0.930 . S
C232 H220 0.930 . S
C232 C233 1.399 . S
C232 C237 1.399 . S
C233 C232 1.399 . S
C233 C234 1.376 . S
C234 H221 0.930 . S
C234 C233 1.376 . S
C234 C235 1.388 . S
C235 H222 0.930 . S
C235 C234 1.388 . S
C235 C236 1.390 . S
C236 C235 1.390 . S
C236 C237 1.394 . S
C236 C242 1.465 . S
C237 C232 1.399 . S
C237 C236 1.394 . S
C237 C238 1.516 . S
C238 C237 1.516 . S
C238 C239 1.502 . S
C238 C240 1.561 . S
C238 C241 1.526 . S
C239 H223 0.959 . S
C239 H224 0.959 . S
C239 H225 0.961 . S
C239 C238 1.502 . S
C240 H226 0.960 . S
C240 H227 0.961 . S
C240 H228 0.959 . S
C240 C238 1.561 . S
C241 C238 1.526 . S
C241 C242 1.396 . S
C241 C246 1.390 . S
C242 C236 1.465 . S
C242 C241 1.396 . S
C242 C243 1.399 . S
C243 H229 0.929 . S
C243 C242 1.399 . S
C243 C244 1.385 . S
C244 H230 0.931 . S
C244 C243 1.385 . S
C244 C245 1.389 . S
C245 C244 1.389 . S
C245 C246 1.387 . S
C246 H231 0.930 . S
C246 C241 1.390 . S
C246 C245 1.387 . S
H247 C259 0.930 . S
H248 C261 0.930 1_554 S
H249 C262 0.930 . S
H250 C266 0.959 . S
H251 C266 0.959 . S
H252 C266 0.961 . S
H253 C267 0.960 . S
H254 C267 0.961 . S
H255 C267 0.959 . S
H256 C270 0.929 . S
H257 C271 0.931 . S
H258 C273 0.930 . S
C259 H247 0.930 . S
C259 C260 1.399 . S
C259 C264 1.399 . S
C260 C259 1.399 . S
C260 C261 1.376 . S
C261 H248 0.930 1_556 S
C261 C260 1.376 . S
C261 C262 1.388 . S
C262 H249 0.930 . S
C262 C261 1.388 . S
C262 C263 1.390 . S
C263 C262 1.390 . S
C263 C264 1.394 . S
C263 C269 1.465 . S
C264 C259 1.399 . S
C264 C263 1.394 . S
C264 C265 1.516 . S
C265 C264 1.516 . S
C265 C266 1.502 . S
C265 C267 1.561 . S
C265 C268 1.526 . S
C266 H250 0.959 . S
C266 H251 0.959 . S
C266 H252 0.961 . S
C266 C265 1.502 . S
C267 H253 0.960 . S
C267 H254 0.961 . S
C267 H255 0.959 . S
C267 C265 1.561 . S
C268 C265 1.526 . S
C268 C269 1.396 . S
C268 C273 1.390 . S
C269 C263 1.465 . S
C269 C268 1.396 . S
C269 C270 1.399 . S
C270 H256 0.929 . S
C270 C269 1.399 . S
C270 C271 1.385 . S
C271 H257 0.931 . S
C271 C270 1.385 . S
C271 C272 1.389 . S
C272 C271 1.389 . S
C272 C273 1.387 . S
C273 H258 0.930 . S
C273 C268 1.390 . S
C273 C272 1.387 . S
H274 C286 0.930 . S
H275 C288 0.930 . S
H276 C289 0.930 . S
H277 C293 0.959 . S
H278 C293 0.959 . S
H279 C293 0.961 . S
H280 C294 0.960 . S
H281 C294 0.961 . S
H282 C294 0.959 . S
H283 C297 0.929 . S
H284 C298 0.931 . S
H285 C300 0.930 . S
C286 H274 0.930 . S
C286 C287 1.399 . S
C286 C291 1.399 . S
C287 C286 1.399 . S
C287 C288 1.376 . S
C288 H275 0.930 . S
C288 C287 1.376 . S
C288 C289 1.388 1_554 S
C289 H276 0.930 . S
C289 C288 1.388 1_556 S
C289 C290 1.390 . S
C290 C289 1.390 . S
C290 C291 1.394 1_556 S
C290 C296 1.465 . S
C291 C286 1.399 . S
C291 C290 1.394 1_554 S
C291 C292 1.516 . S
C292 C291 1.516 . S
C292 C293 1.502 . S
C292 C294 1.561 . S
C292 C295 1.526 1_554 S
C293 H277 0.959 . S
C293 H278 0.959 . S
C293 H279 0.961 . S
C293 C292 1.502 . S
C294 H280 0.960 . S
C294 H281 0.961 . S
C294 H282 0.959 . S
C294 C292 1.561 . S
C295 C292 1.526 1_556 S
C295 C296 1.396 . S
C295 C300 1.390 . S
C296 C290 1.465 . S
C296 C295 1.396 . S
C296 C297 1.399 . S
C297 H283 0.929 . S
C297 C296 1.399 . S
C297 C298 1.385 . S
C298 H284 0.931 . S
C298 C297 1.385 . S
C298 C299 1.389 . S
C299 C298 1.389 . S
C299 C300 1.387 . S
C300 H285 0.930 . S
C300 C295 1.390 . S
C300 C299 1.387 . S
H301 C313 0.930 . S
H302 C315 0.930 1_556 S
H303 C316 0.930 . S
H304 C320 0.959 . S
H305 C320 0.959 . S
H306 C320 0.961 . S
H307 C321 0.960 . S
H308 C321 0.961 . S
H309 C321 0.959 . S
H310 C324 0.929 . S
H311 C325 0.931 . S
H312 C327 0.930 . S
C313 H301 0.930 . S
C313 C314 1.399 . S
C313 C318 1.399 . S
C314 C313 1.399 . S
C314 C315 1.376 . S
C315 H302 0.930 1_554 S
C315 C314 1.376 . S
C315 C316 1.388 . S
C316 H303 0.930 . S
C316 C315 1.388 . S
C316 C317 1.390 . S
C317 C316 1.390 . S
C317 C318 1.394 . S
C317 C323 1.465 . S
C318 C313 1.399 . S
C318 C317 1.394 . S
C318 C319 1.516 . S
C319 C318 1.516 . S
C319 C320 1.502 . S
C319 C321 1.561 . S
C319 C322 1.526 . S
C320 H304 0.959 . S
C320 H305 0.959 . S
C320 H306 0.961 . S
C320 C319 1.502 . S
C321 H307 0.960 . S
C321 H308 0.961 . S
C321 H309 0.959 . S
C321 C319 1.561 . S
C322 C319 1.526 . S
C322 C323 1.396 . S
C322 C327 1.390 . S
C323 C317 1.465 . S
C323 C322 1.396 . S
C323 C324 1.399 . S
C324 H310 0.929 . S
C324 C323 1.399 . S
C324 C325 1.385 . S
C325 H311 0.931 . S
C325 C324 1.385 . S
C325 C326 1.389 . S
C326 C325 1.389 . S
C326 C327 1.387 . S
C327 H312 0.930 . S
C327 C322 1.390 . S
C327 C326 1.387 . S
H328 C340 0.930 . S
H329 C342 0.930 . S
H330 C343 0.930 . S
H331 C347 0.959 . S
H332 C347 0.959 . S
H333 C347 0.961 . S
H334 C348 0.960 . S
H335 C348 0.961 . S
H336 C348 0.959 . S
H337 C351 0.929 . S
H338 C352 0.931 . S
H339 C354 0.930 . S
C340 H328 0.930 . S
C340 C341 1.399 . S
C340 C345 1.399 . S
C341 C340 1.399 . S
C341 C342 1.376 . S
C342 H329 0.930 . S
C342 C341 1.376 . S
C342 C343 1.388 . S
C343 H330 0.930 . S
C343 C342 1.388 . S
C343 C344 1.390 . S
C344 C343 1.390 . S
C344 C345 1.394 . S
C344 C350 1.465 . S
C345 C340 1.399 . S
C345 C344 1.394 . S
C345 C346 1.516 . S
C346 C345 1.516 . S
C346 C347 1.502 . S
C346 C348 1.561 . S
C346 C349 1.526 . S
C347 H331 0.959 . S
C347 H332 0.959 . S
C347 H333 0.961 . S
C347 C346 1.502 . S
C348 H334 0.960 . S
C348 H335 0.961 . S
C348 H336 0.959 . S
C348 C346 1.561 . S
C349 C346 1.526 . S
C349 C350 1.396 . S
C349 C354 1.390 . S
C350 C344 1.465 . S
C350 C349 1.396 . S
C350 C351 1.399 . S
C351 H337 0.929 . S
C351 C350 1.399 . S
C351 C352 1.385 . S
C352 H338 0.931 . S
C352 C351 1.385 . S
C352 C353 1.389 . S
C353 C352 1.389 . S
C353 C354 1.387 . S
C354 H339 0.930 . S
C354 C349 1.390 . S
C354 C353 1.387 . S
H355 C367 0.930 . S
H356 C369 0.930 . S
H357 C370 0.930 . S
H358 C374 0.959 . S
H359 C374 0.959 . S
H360 C374 0.961 . S
H361 C375 0.960 1_554 S
H362 C375 0.961 . S
H363 C375 0.959 . S
H364 C378 0.929 . S
H365 C379 0.931 . S
H366 C381 0.930 . S
C367 H355 0.930 . S
C367 C368 1.399 . S
C367 C372 1.399 . S
C368 C367 1.399 . S
C368 C369 1.376 . S
C369 H356 0.930 . S
C369 C368 1.376 . S
C369 C370 1.388 . S
C370 H357 0.930 . S
C370 C369 1.388 . S
C370 C371 1.390 . S
C371 C370 1.390 . S
C371 C372 1.394 . S
C371 C377 1.465 . S
C372 C367 1.399 . S
C372 C371 1.394 . S
C372 C373 1.516 . S
C373 C372 1.516 . S
C373 C374 1.502 . S
C373 C375 1.561 . S
C373 C376 1.526 . S
C374 H358 0.959 . S
C374 H359 0.959 . S
C374 H360 0.961 . S
C374 C373 1.502 . S
C375 H361 0.960 1_556 S
C375 H362 0.961 . S
C375 H363 0.959 . S
C375 C373 1.561 . S
C376 C373 1.526 . S
C376 C377 1.396 . S
C376 C381 1.390 . S
C377 C371 1.465 . S
C377 C376 1.396 . S
C377 C378 1.399 . S
C378 H364 0.929 . S
C378 C377 1.399 . S
C378 C379 1.385 . S
C379 H365 0.931 . S
C379 C378 1.385 . S
C379 C380 1.389 . S
C380 C379 1.389 . S
C380 C381 1.387 . S
C381 H366 0.930 . S
C381 C376 1.390 . S
C381 C380 1.387 . S
H382 C394 0.930 1_556 S
H383 C396 0.930 . S
H384 C397 0.930 . S
H385 C401 0.959 . S
H386 C401 0.959 . S
H387 C401 0.961 . S
H388 C402 0.960 . S
H389 C402 0.961 . S
H390 C402 0.959 1_554 S
H391 C405 0.929 . S
H392 C406 0.931 . S
H393 C408 0.930 . S
C394 H382 0.930 1_554 S
C394 C395 1.399 . S
C394 C399 1.399 1_554 S
C395 C394 1.399 . S
C395 C396 1.376 . S
C396 H383 0.930 . S
C396 C395 1.376 . S
C396 C397 1.388 . S
C397 H384 0.930 . S
C397 C396 1.388 . S
C397 C398 1.390 . S
C398 C397 1.390 . S
C398 C399 1.394 1_554 S
C398 C404 1.465 . S
C399 C394 1.399 1_556 S
C399 C398 1.394 1_556 S
C399 C400 1.516 . S
C400 C399 1.516 . S
C400 C401 1.502 . S
C400 C402 1.561 . S
C400 C403 1.526 . S
C401 H385 0.959 . S
C401 H386 0.959 . S
C401 H387 0.961 . S
C401 C400 1.502 . S
C402 H388 0.960 . S
C402 H389 0.961 . S
C402 H390 0.959 1_556 S
C402 C400 1.561 . S
C403 C400 1.526 . S
C403 C404 1.396 1_556 S
C403 C408 1.390 . S
C404 C398 1.465 . S
C404 C403 1.396 1_554 S
C404 C405 1.399 . S
C405 H391 0.929 . S
C405 C404 1.399 . S
C405 C406 1.385 . S
C406 H392 0.931 . S
C406 C405 1.385 . S
C406 C407 1.389 1_554 S
C407 C406 1.389 1_556 S
C407 C408 1.387 . S
C408 H393 0.930 . S
C408 C403 1.390 . S
C408 C407 1.387 . S
H409 C421 0.930 . S
H410 C423 0.930 . S
H411 C424 0.930 . S
H412 C428 0.959 . S
H413 C428 0.959 . S
H414 C428 0.961 . S
H415 C429 0.960 . S
H416 C429 0.961 . S
H417 C429 0.959 . S
H418 C432 0.929 . S
H419 C433 0.931 . S
H420 C435 0.930 . S
C421 H409 0.930 . S
C421 C422 1.399 . S
C421 C426 1.399 . S
C422 C421 1.399 . S
C422 C423 1.376 . S
C423 H410 0.930 . S
C423 C422 1.376 . S
C423 C424 1.388 . S
C424 H411 0.930 . S
C424 C423 1.388 . S
C424 C425 1.390 . S
C425 C424 1.390 . S
C425 C426 1.394 . S
C425 C431 1.465 . S
C426 C421 1.399 . S
C426 C425 1.394 . S
C426 C427 1.516 . S
C427 C426 1.516 . S
C427 C428 1.502 . S
C427 C429 1.561 . S
C427 C430 1.526 . S
C428 H412 0.959 . S
C428 H413 0.959 . S
C428 H414 0.961 . S
C428 C427 1.502 . S
C429 H415 0.960 . S
C429 H416 0.961 . S
C429 H417 0.959 . S
C429 C427 1.561 . S
C430 C427 1.526 . S
C430 C431 1.396 . S
C430 C435 1.390 . S
C431 C425 1.465 . S
C431 C430 1.396 . S
C431 C432 1.399 . S
C432 H418 0.929 . S
C432 C431 1.399 . S
C432 C433 1.385 . S
C433 H419 0.931 . S
C433 C432 1.385 . S
C433 C434 1.389 . S
C434 C433 1.389 . S
C434 C435 1.387 . S
C435 H420 0.930 . S
C435 C430 1.390 . S
C435 C434 1.387 . S
H436 C448 0.930 . S
H437 C450 0.930 . S
H438 C451 0.930 . S
H439 C455 0.959 . S
H440 C455 0.959 . S
H441 C455 0.961 . S
H442 C456 0.960 1_554 S
H443 C456 0.961 . S
H444 C456 0.959 . S
H445 C459 0.929 . S
H446 C460 0.931 . S
H447 C462 0.930 . S
C448 H436 0.930 . S
C448 C449 1.399 . S
C448 C453 1.399 . S
C449 C448 1.399 . S
C449 C450 1.376 . S
C450 H437 0.930 . S
C450 C449 1.376 . S
C450 C451 1.388 . S
C451 H438 0.930 . S
C451 C450 1.388 . S
C451 C452 1.390 . S
C452 C451 1.390 . S
C452 C453 1.394 . S
C452 C458 1.465 . S
C453 C448 1.399 . S
C453 C452 1.394 . S
C453 C454 1.516 . S
C454 C453 1.516 . S
C454 C455 1.502 . S
C454 C456 1.561 . S
C454 C457 1.526 . S
C455 H439 0.959 . S
C455 H440 0.959 . S
C455 H441 0.961 . S
C455 C454 1.502 . S
C456 H442 0.960 1_556 S
C456 H443 0.961 . S
C456 H444 0.959 . S
C456 C454 1.561 . S
C457 C454 1.526 . S
C457 C458 1.396 . S
C457 C462 1.390 . S
C458 C452 1.465 . S
C458 C457 1.396 . S
C458 C459 1.399 . S
C459 H445 0.929 . S
C459 C458 1.399 . S
C459 C460 1.385 . S
C460 H446 0.931 . S
C460 C459 1.385 . S
C460 C461 1.389 . S
C461 C460 1.389 . S
C461 C462 1.387 . S
C462 H447 0.930 . S
C462 C457 1.390 . S
C462 C461 1.387 . S
H463 C475 0.930 . S
H464 C477 0.930 . S
H465 C478 0.930 . S
H466 C482 0.959 . S
H467 C482 0.959 . S
H468 C482 0.961 . S
H469 C483 0.960 . S
H470 C483 0.961 . S
H471 C483 0.959 . S
H472 C486 0.929 . S
H473 C487 0.931 . S
H474 C489 0.930 . S
C475 H463 0.930 . S
C475 C476 1.399 . S
C475 C480 1.399 . S
C476 C475 1.399 . S
C476 C477 1.376 1_556 S
C477 H464 0.930 . S
C477 C476 1.376 1_554 S
C477 C478 1.388 . S
C478 H465 0.930 . S
C478 C477 1.388 . S
C478 C479 1.390 . S
C479 C478 1.390 . S
C479 C480 1.394 1_554 S
C479 C485 1.465 . S
C480 C475 1.399 . S
C480 C479 1.394 1_556 S
C480 C481 1.516 . S
C481 C480 1.516 . S
C481 C482 1.502 . S
C481 C483 1.561 . S
C481 C484 1.526 . S
C482 H466 0.959 . S
C482 H467 0.959 . S
C482 H468 0.961 . S
C482 C481 1.502 . S
C483 H469 0.960 . S
C483 H470 0.961 . S
C483 H471 0.959 . S
C483 C481 1.561 . S
C484 C481 1.526 . S
C484 C485 1.396 1_556 S
C484 C489 1.390 . S
C485 C479 1.465 . S
C485 C484 1.396 1_554 S
C485 C486 1.399 . S
C486 H472 0.929 . S
C486 C485 1.399 . S
C486 C487 1.385 . S
C487 H473 0.931 . S
C487 C486 1.385 . S
C487 C488 1.389 . S
C488 C487 1.389 . S
C488 C489 1.387 1_554 S
C489 H474 0.930 . S
C489 C484 1.390 . S
C489 C488 1.387 1_556 S
H490 C502 0.930 . S
H491 C504 0.930 . S
H492 C505 0.930 . S
H493 C509 0.959 . S
H494 C509 0.959 . S
H495 C509 0.961 . S
H496 C510 0.960 . S
H497 C510 0.961 . S
H498 C510 0.959 . S
H499 C513 0.929 . S
H500 C514 0.931 . S
H501 C516 0.930 . S
C502 H490 0.930 . S
C502 C503 1.399 . S
C502 C507 1.399 . S
C503 C502 1.399 . S
C503 C504 1.376 . S
C504 H491 0.930 . S
C504 C503 1.376 . S
C504 C505 1.388 . S
C505 H492 0.930 . S
C505 C504 1.388 . S
C505 C506 1.390 . S
C506 C505 1.390 . S
C506 C507 1.394 . S
C506 C512 1.465 . S
C507 C502 1.399 . S
C507 C506 1.394 . S
C507 C508 1.516 . S
C508 C507 1.516 . S
C508 C509 1.502 . S
C508 C510 1.561 . S
C508 C511 1.526 . S
C509 H493 0.959 . S
C509 H494 0.959 . S
C509 H495 0.961 . S
C509 C508 1.502 . S
C510 H496 0.960 . S
C510 H497 0.961 . S
C510 H498 0.959 . S
C510 C508 1.561 . S
C511 C508 1.526 . S
C511 C512 1.396 . S
C511 C516 1.390 . S
C512 C506 1.465 . S
C512 C511 1.396 . S
C512 C513 1.399 . S
C513 H499 0.929 . S
C513 C512 1.399 . S
C513 C514 1.385 . S
C514 H500 0.931 . S
C514 C513 1.385 . S
C514 C515 1.389 . S
C515 C514 1.389 . S
C515 C516 1.387 . S
C516 H501 0.930 . S
C516 C511 1.390 . S
C516 C515 1.387 . S
H517 C529 0.930 . S
H518 C531 0.930 . S
H519 C532 0.930 . S
H520 C536 0.959 . S
H521 C536 0.959 . S
H522 C536 0.961 . S
H523 C537 0.960 . S
H524 C537 0.961 . S
H525 C537 0.959 . S
H526 C540 0.929 . S
H527 C541 0.931 . S
H528 C543 0.930 . S
C529 H517 0.930 . S
C529 C530 1.399 . S
C529 C534 1.399 . S
C530 C529 1.399 . S
C530 C531 1.376 . S
C531 H518 0.930 . S
C531 C530 1.376 . S
C531 C532 1.388 . S
C532 H519 0.930 . S
C532 C531 1.388 . S
C532 C533 1.390 . S
C533 C532 1.390 . S
C533 C534 1.394 . S
C533 C539 1.465 . S
C534 C529 1.399 . S
C534 C533 1.394 . S
C534 C535 1.516 . S
C535 C534 1.516 . S
C535 C536 1.502 . S
C535 C537 1.561 . S
C535 C538 1.526 . S
C536 H520 0.959 . S
C536 H521 0.959 . S
C536 H522 0.961 . S
C536 C535 1.502 . S
C537 H523 0.960 . S
C537 H524 0.961 . S
C537 H525 0.959 . S
C537 C535 1.561 . S
C538 C535 1.526 . S
C538 C539 1.396 . S
C538 C543 1.390 . S
C539 C533 1.465 . S
C539 C538 1.396 . S
C539 C540 1.399 . S
C540 H526 0.929 . S
C540 C539 1.399 . S
C540 C541 1.385 . S
C541 H527 0.931 . S
C541 C540 1.385 . S
C541 C542 1.389 . S
C542 C541 1.389 . S
C542 C543 1.387 . S
C543 H528 0.930 . S
C543 C538 1.390 . S
C543 C542 1.387 . S
C125 C20 1.541 . S
C137 C6 1.498 . S
C152 C21 1.536 . S
C164 C34 1.494 . S
C179 C49 1.495 . S
C191 C35 1.543 . S
C206 C48 1.510 . S
C218 C7 1.517 . S
C233 C62 1.531 . S
C245 C76 1.497 . S
C260 C77 1.535 . S
C272 C90 1.494 . S
C287 C91 1.491 . S
C299 C105 1.539 . S
C314 C63 1.538 . S
C326 C104 1.503 . S
C341 C8 1.553 . S
C353 C107 1.530 . S
C368 C65 1.535 . S
C380 C23 1.513 . S
C395 C78 1.511 . S
C407 C37 1.543 . S
C422 C50 1.523 . S
C434 C92 1.554 . S
C449 C36 1.529 . S
C461 C106 1.516 . S
C476 C64 1.535 . S
C488 C51 1.513 . S
C503 C79 1.511 . S
C515 C9 1.542 . S
C530 C22 1.530 . S
C542 C93 1.515 . S
