# Generated by pormake.
# Topology uno, (4)-cn, num edge types: 1
# Building blocks:
#     Node 0, Type 0, BuildingBlock: KOZSID_clean_sbu_0, # of connection points: 4
#     Node 1, Type 0, BuildingBlock: KOZSID_clean_sbu_0, # of connection points: 4
#     Node 2, Type 0, BuildingBlock: KOZSID_clean_sbu_0, # of connection points: 4
#     Node 3, Type 0, BuildingBlock: KOZSID_clean_sbu_0, # of connection points: 4
#     Node 4, Type 0, BuildingBlock: KOZSID_clean_sbu_0, # of connection points: 4
#     Node 5, Type 0, BuildingBlock: KOZSID_clean_sbu_0, # of connection points: 4
#     Node 6, Type 0, BuildingBlock: KOZSID_clean_sbu_0, # of connection points: 4
#     Node 7, Type 0, BuildingBlock: KOZSID_clean_sbu_0, # of connection points: 4
#     Node 8, Type 0, BuildingBlock: KOZSID_clean_sbu_0, # of connection points: 4
#     Node 9, Type 0, BuildingBlock: KOZSID_clean_sbu_0, # of connection points: 4
#     Node 10, Type 0, BuildingBlock: KOZSID_clean_sbu_0, # of connection points: 4
#     Node 11, Type 0, BuildingBlock: KOZSID_clean_sbu_0, # of connection points: 4
#     Node 12, Type 0, BuildingBlock: KOZSID_clean_sbu_0, # of connection points: 4
#     Node 13, Type 0, BuildingBlock: KOZSID_clean_sbu_0, # of connection points: 4
#     Node 14, Type 0, BuildingBlock: KOZSID_clean_sbu_0, # of connection points: 4
#     Node 15, Type 0, BuildingBlock: KOZSID_clean_sbu_0, # of connection points: 4
#     Node 16, Type 0, BuildingBlock: KOZSID_clean_sbu_0, # of connection points: 4
#     Node 17, Type 0, BuildingBlock: KOZSID_clean_sbu_0, # of connection points: 4
#     Node 18, Type 0, BuildingBlock: KOZSID_clean_sbu_0, # of connection points: 4
#     Node 19, Type 0, BuildingBlock: KOZSID_clean_sbu_0, # of connection points: 4
#     Node 20, Type 0, BuildingBlock: KOZSID_clean_sbu_0, # of connection points: 4
#     Node 21, Type 0, BuildingBlock: KOZSID_clean_sbu_0, # of connection points: 4
#     Node 22, Type 0, BuildingBlock: KOZSID_clean_sbu_0, # of connection points: 4
#     Node 23, Type 0, BuildingBlock: KOZSID_clean_sbu_0, # of connection points: 4
#     Edge 24, Type (0, 0), BuildingBlock: AJUNOK_clean_linker_0, # of connection points: 2
#     Edge 25, Type (0, 0), BuildingBlock: AJUNOK_clean_linker_0, # of connection points: 2
#     Edge 26, Type (0, 0), BuildingBlock: AJUNOK_clean_linker_0, # of connection points: 2
#     Edge 27, Type (0, 0), BuildingBlock: AJUNOK_clean_linker_0, # of connection points: 2
#     Edge 28, Type (0, 0), BuildingBlock: AJUNOK_clean_linker_0, # of connection points: 2
#     Edge 29, Type (0, 0), BuildingBlock: AJUNOK_clean_linker_0, # of connection points: 2
#     Edge 30, Type (0, 0), BuildingBlock: AJUNOK_clean_linker_0, # of connection points: 2
#     Edge 31, Type (0, 0), BuildingBlock: AJUNOK_clean_linker_0, # of connection points: 2
#     Edge 32, Type (0, 0), BuildingBlock: AJUNOK_clean_linker_0, # of connection points: 2
#     Edge 33, Type (0, 0), BuildingBlock: AJUNOK_clean_linker_0, # of connection points: 2
#     Edge 34, Type (0, 0), BuildingBlock: AJUNOK_clean_linker_0, # of connection points: 2
#     Edge 35, Type (0, 0), BuildingBlock: AJUNOK_clean_linker_0, # of connection points: 2
#     Edge 36, Type (0, 0), BuildingBlock: AJUNOK_clean_linker_0, # of connection points: 2
#     Edge 37, Type (0, 0), BuildingBlock: AJUNOK_clean_linker_0, # of connection points: 2
#     Edge 38, Type (0, 0), BuildingBlock: AJUNOK_clean_linker_0, # of connection points: 2
#     Edge 39, Type (0, 0), BuildingBlock: AJUNOK_clean_linker_0, # of connection points: 2
#     Edge 40, Type (0, 0), BuildingBlock: AJUNOK_clean_linker_0, # of connection points: 2
#     Edge 41, Type (0, 0), BuildingBlock: AJUNOK_clean_linker_0, # of connection points: 2
#     Edge 42, Type (0, 0), BuildingBlock: AJUNOK_clean_linker_0, # of connection points: 2
#     Edge 43, Type (0, 0), BuildingBlock: AJUNOK_clean_linker_0, # of connection points: 2
#     Edge 44, Type (0, 0), BuildingBlock: AJUNOK_clean_linker_0, # of connection points: 2
#     Edge 45, Type (0, 0), BuildingBlock: AJUNOK_clean_linker_0, # of connection points: 2
#     Edge 46, Type (0, 0), BuildingBlock: AJUNOK_clean_linker_0, # of connection points: 2
#     Edge 47, Type (0, 0), BuildingBlock: AJUNOK_clean_linker_0, # of connection points: 2
#     Edge 48, Type (0, 0), BuildingBlock: AJUNOK_clean_linker_0, # of connection points: 2
#     Edge 49, Type (0, 0), BuildingBlock: AJUNOK_clean_linker_0, # of connection points: 2
#     Edge 50, Type (0, 0), BuildingBlock: AJUNOK_clean_linker_0, # of connection points: 2
#     Edge 51, Type (0, 0), BuildingBlock: AJUNOK_clean_linker_0, # of connection points: 2
#     Edge 52, Type (0, 0), BuildingBlock: AJUNOK_clean_linker_0, # of connection points: 2
#     Edge 53, Type (0, 0), BuildingBlock: AJUNOK_clean_linker_0, # of connection points: 2
#     Edge 54, Type (0, 0), BuildingBlock: AJUNOK_clean_linker_0, # of connection points: 2
#     Edge 55, Type (0, 0), BuildingBlock: AJUNOK_clean_linker_0, # of connection points: 2
#     Edge 56, Type (0, 0), BuildingBlock: AJUNOK_clean_linker_0, # of connection points: 2
#     Edge 57, Type (0, 0), BuildingBlock: AJUNOK_clean_linker_0, # of connection points: 2
#     Edge 58, Type (0, 0), BuildingBlock: AJUNOK_clean_linker_0, # of connection points: 2
#     Edge 59, Type (0, 0), BuildingBlock: AJUNOK_clean_linker_0, # of connection points: 2
#     Edge 60, Type (0, 0), BuildingBlock: AJUNOK_clean_linker_0, # of connection points: 2
#     Edge 61, Type (0, 0), BuildingBlock: AJUNOK_clean_linker_0, # of connection points: 2
#     Edge 62, Type (0, 0), BuildingBlock: AJUNOK_clean_linker_0, # of connection points: 2
#     Edge 63, Type (0, 0), BuildingBlock: AJUNOK_clean_linker_0, # of connection points: 2
#     Edge 64, Type (0, 0), BuildingBlock: AJUNOK_clean_linker_0, # of connection points: 2
#     Edge 65, Type (0, 0), BuildingBlock: AJUNOK_clean_linker_0, # of connection points: 2
#     Edge 66, Type (0, 0), BuildingBlock: AJUNOK_clean_linker_0, # of connection points: 2
#     Edge 67, Type (0, 0), BuildingBlock: AJUNOK_clean_linker_0, # of connection points: 2
#     Edge 68, Type (0, 0), BuildingBlock: AJUNOK_clean_linker_0, # of connection points: 2
#     Edge 69, Type (0, 0), BuildingBlock: AJUNOK_clean_linker_0, # of connection points: 2
#     Edge 70, Type (0, 0), BuildingBlock: AJUNOK_clean_linker_0, # of connection points: 2
#     Edge 71, Type (0, 0), BuildingBlock: AJUNOK_clean_linker_0, # of connection points: 2
# Relax obj value: 0.400
# Max RMSD: 0.288
# Mean RMSD: 0.251
data_MOF--net-uno--node1-KOZSID_clean_sbu_0--edge1-AJUNOK_clean_linker_0
_symmetry_space_group_name_H-M    P1
_symmetry_Int_Tables_number       1
_symmetry_cell_setting            triclinic
loop_
_symmetry_equiv_pos_as_xyz
'x, y, z'
_cell_length_a     50.892452
_cell_length_b     49.428158
_cell_length_c     49.509865
_cell_angle_alpha  89.754091
_cell_angle_beta   90.112119
_cell_angle_gamma 93.15983
loop_
_atom_site_label
_atom_site_type_symbol
_atom_site_fract_x
_atom_site_fract_y
_atom_site_fract_z
_atom_type_partial_charge
C0 C 0.07594 0.29354 0.18989 0.0
C1 C 0.05957 0.29272 0.16757 0.0
C2 C 0.06819 0.27256 0.15116 0.0
C3 C 0.08902 0.26189 0.16456 0.0
N4 N 0.09348 0.27388 0.18855 0.0
Co5 Co 0.12334 0.26805 0.21328 0.0
N6 N 0.14463 0.25246 0.18454 0.0
C7 C 0.13624 0.24643 0.15937 0.0
C8 C 0.15659 0.24108 0.14234 0.0
C9 C 0.17893 0.24331 0.15803 0.0
C10 C 0.17096 0.24931 0.18403 0.0
N11 N 0.15232 0.26159 0.23914 0.0
C12 C 0.177 0.25321 0.23494 0.0
C13 C 0.18939 0.24916 0.25968 0.0
C14 C 0.17193 0.25478 0.27955 0.0
C15 C 0.14976 0.26186 0.26627 0.0
N16 N 0.10238 0.28534 0.24128 0.0
C17 C 0.10511 0.2832 0.26812 0.0
C18 C 0.08961 0.30049 0.28188 0.0
C19 C 0.07676 0.31461 0.26231 0.0
C20 C 0.08523 0.30507 0.23776 0.0
N21 N 0.10789 0.23121 0.22225 0.0
C22 C 0.08886 0.17669 0.23055 0.0
C23 C 0.07172 0.19824 0.23113 0.0
C24 C 0.08162 0.22536 0.2268 0.0
C25 C 0.1155 0.1834 0.22628 0.0
C26 C 0.12442 0.21026 0.22234 0.0
N27 N 0.13987 0.30366 0.20318 0.0
C28 C 0.18126 0.32942 0.20593 0.0
C29 C 0.18128 0.33255 0.1777 0.0
C30 C 0.15764 0.32667 0.164 0.0
C31 C 0.13727 0.31232 0.17704 0.0
C32 C 0.15984 0.31534 0.21846 0.0
H33 H 0.12143 0.30523 0.16423 0.0
H34 H 0.16104 0.31125 0.23983 0.0
H35 H 0.0681 0.24149 0.22679 0.0
H36 H 0.145 0.21373 0.21904 0.0
C37 C 0.10986 0.24948 0.1518 0.0
C38 C 0.07642 0.31419 0.21122 0.0
C39 C 0.18729 0.24487 0.20835 0.0
C40 C 0.12722 0.27127 0.2786 0.0
H41 H 0.04422 0.30631 0.16297 0.0
H42 H 0.06219 0.26861 0.13053 0.0
H43 H 0.15542 0.23626 0.12105 0.0
H44 H 0.1985 0.23859 0.15177 0.0
H45 H 0.20864 0.2421 0.26374 0.0
H46 H 0.1751 0.25387 0.30115 0.0
H47 H 0.08936 0.3041 0.30342 0.0
H48 H 0.06333 0.33049 0.26563 0.0
H49 H 0.05084 0.19417 0.23437 0.0
H50 H 0.12972 0.16786 0.22618 0.0
H51 H 0.19847 0.33543 0.21782 0.0
H52 H 0.15597 0.32935 0.14236 0.0
C53 C 0.94002 0.78825 0.48688 0.0
C54 C 0.9312 0.78311 0.46077 0.0
C55 C 0.95196 0.78937 0.44398 0.0
C56 C 0.97222 0.79809 0.46065 0.0
N57 N 0.96599 0.79698 0.48714 0.0
Co58 Co 0.98886 0.8116 0.51777 0.0
N59 N 0.01848 0.82296 0.49295 0.0
C60 C 0.01812 0.82167 0.46577 0.0
C61 C 0.04107 0.83163 0.45401 0.0
C62 C 0.057 0.8398 0.47506 0.0
C63 C 0.0428 0.83425 0.4985 0.0
N64 N 0.01129 0.82532 0.54873 0.0
C65 C 0.03692 0.83431 0.54924 0.0
C66 C 0.04547 0.84 0.57537 0.0
C67 C 0.02445 0.83454 0.59191 0.0
C68 C 0.00438 0.82587 0.57502 0.0
N69 N 0.95899 0.80066 0.54259 0.0
C70 C 0.9587 0.80301 0.56973 0.0
C71 C 0.93528 0.79441 0.58139 0.0
C72 C 0.91929 0.78678 0.56034 0.0
C73 C 0.93393 0.79145 0.53702 0.0
N74 N 0.00496 0.77604 0.52184 0.0
C75 C 0.05394 0.75224 0.52531 0.0
C76 C 0.03875 0.75627 0.54861 0.0
C77 C 0.01423 0.76802 0.54641 0.0
C78 C 0.04102 0.75485 0.50043 0.0
C79 C 0.01602 0.76532 0.49939 0.0
N80 N 0.97513 0.84814 0.51243 0.0
C81 C 0.96149 0.86738 0.47054 0.0
C82 C 0.98533 0.88296 0.46936 0.0
C83 C 0.99965 0.88633 0.49341 0.0
C84 C 0.99305 0.86959 0.51552 0.0
C85 C 0.95599 0.85133 0.49342 0.0
H86 H 0.00548 0.87135 0.53305 0.0
H87 H 0.93813 0.83884 0.49353 0.0
H88 H 0.00423 0.77289 0.56471 0.0
H89 H 0.00762 0.76786 0.4798 0.0
C90 C 0.9963 0.81004 0.45215 0.0
C91 C 0.92219 0.78975 0.51013 0.0
C92 C 0.05287 0.84093 0.52547 0.0
C93 C 0.97991 0.81534 0.58346 0.0
H94 H 0.9114 0.77728 0.45427 0.0
H95 H 0.95177 0.78927 0.42211 0.0
H96 H 0.0457 0.83273 0.43269 0.0
H97 H 0.07679 0.84886 0.47344 0.0
H98 H 0.06483 0.84766 0.58174 0.0
H99 H 0.024 0.83613 0.6137 0.0
H100 H 0.93009 0.7948 0.60258 0.0
H101 H 0.89877 0.77991 0.5618 0.0
H102 H 0.04605 0.75167 0.56853 0.0
H103 H 0.05061 0.75077 0.48153 0.0
H104 H 0.94835 0.86594 0.45331 0.0
H105 H 0.01732 0.89945 0.4943 0.0
C106 C 0.46007 0.70582 0.7186 0.0
C107 C 0.48283 0.71116 0.70366 0.0
C108 C 0.48077 0.73641 0.69207 0.0
C109 C 0.4575 0.7456 0.70155 0.0
N110 N 0.4455 0.72808 0.71893 0.0
Co111 Co 0.41186 0.73283 0.73805 0.0
N112 N 0.40118 0.76126 0.71269 0.0
C113 C 0.41778 0.77528 0.69582 0.0
C114 C 0.40636 0.79662 0.68357 0.0
C115 C 0.38129 0.79634 0.69372 0.0
C116 C 0.37855 0.77461 0.71165 0.0
N117 N 0.37773 0.73499 0.75699 0.0
C118 C 0.35566 0.74687 0.74916 0.0
C119 C 0.3353 0.74086 0.76729 0.0
C120 C 0.34571 0.72651 0.78813 0.0
C121 C 0.37153 0.72385 0.78126 0.0
N122 N 0.42318 0.70513 0.76366 0.0
C123 C 0.41512 0.70195 0.7893 0.0
C124 C 0.42912 0.68329 0.80309 0.0
C125 C 0.44649 0.67381 0.78457 0.0
C126 C 0.44109 0.68625 0.76015 0.0
N127 N 0.42793 0.76335 0.7606 0.0
C128 C 0.44237 0.81909 0.76802 0.0
C129 C 0.41815 0.80793 0.77698 0.0
C130 C 0.41157 0.7803 0.77358 0.0
C131 C 0.46076 0.80102 0.75898 0.0
C132 C 0.45349 0.77306 0.75669 0.0
N133 N 0.39549 0.70492 0.71447 0.0
C134 C 0.35735 0.67563 0.70502 0.0
C135 C 0.36085 0.68038 0.6773 0.0
C136 C 0.38379 0.69434 0.66854 0.0
C137 C 0.40061 0.70673 0.68737 0.0
C138 C 0.37558 0.68741 0.72336 0.0
H139 H 0.41616 0.72002 0.67953 0.0
H140 H 0.37214 0.68437 0.74466 0.0
H141 H 0.39235 0.77374 0.78026 0.0
H142 H 0.46837 0.75982 0.75031 0.0
C143 C 0.44386 0.76767 0.69186 0.0
C144 C 0.45269 0.68041 0.73366 0.0
C145 C 0.35536 0.76906 0.72931 0.0
C146 C 0.39032 0.71058 0.79653 0.0
H147 H 0.49887 0.69795 0.70086 0.0
H148 H 0.49405 0.74623 0.67755 0.0
H149 H 0.41534 0.81106 0.66941 0.0
H150 H 0.36717 0.81123 0.68908 0.0
H151 H 0.31563 0.74813 0.76668 0.0
H152 H 0.33576 0.71941 0.80634 0.0
H153 H 0.4259 0.676 0.82352 0.0
H154 H 0.46072 0.65877 0.78841 0.0
H155 H 0.40363 0.82078 0.78529 0.0
H156 H 0.48042 0.80843 0.75336 0.0
H157 H 0.33984 0.66459 0.71246 0.0
H158 H 0.38711 0.69854 0.64727 0.0
C159 C 0.57577 0.22417 0.98947 0.0
C160 C 0.58249 0.23192 0.96338 0.0
C161 C 0.56171 0.22385 0.94719 0.0
C162 C 0.54358 0.21133 0.96421 0.0
N163 N 0.55105 0.21178 0.99039 0.0
Co164 Co 0.53235 0.1915 0.02097 0.0
N165 N 0.50376 0.17621 0.99688 0.0
C166 C 0.50155 0.1807 0.97013 0.0
C167 C 0.47955 0.16798 0.95891 0.0
C168 C 0.46713 0.15437 0.97981 0.0
C169 C 0.48227 0.15968 0.00271 0.0
N170 N 0.51458 0.17165 0.05197 0.0
C171 C 0.49157 0.15659 0.05284 0.0
C172 C 0.48521 0.14844 0.07902 0.0
C173 C 0.50514 0.15839 0.0952 0.0
C174 C 0.52236 0.17208 0.07807 0.0
N175 N 0.5612 0.20682 0.04507 0.0
C176 C 0.56248 0.2046 0.07219 0.0
C177 C 0.58535 0.21577 0.08316 0.0
C178 C 0.59995 0.22509 0.06165 0.0
C179 C 0.58507 0.21895 0.0388 0.0
N180 N 0.50931 0.2226 0.02741 0.0
C181 C 0.45625 0.23722 0.02499 0.0
C182 C 0.46758 0.22923 0.04944 0.0
C183 C 0.49435 0.22321 0.05044 0.0
C184 C 0.47356 0.24274 0.00342 0.0
C185 C 0.50003 0.23614 0.00538 0.0
N186 N 0.55268 0.15915 0.01298 0.0
C187 C 0.53408 0.11777 0.99407 0.0
C188 C 0.54442 0.12552 0.9687 0.0
C189 C 0.56466 0.14601 0.96851 0.0
C190 C 0.5701 0.16068 0.99203 0.0
C191 C 0.53965 0.13446 0.01646 0.0
H192 H 0.58583 0.1758 0.99131 0.0
H193 H 0.53074 0.12903 0.03547 0.0
H194 H 0.50203 0.21703 0.06955 0.0
H195 H 0.51197 0.24008 0.98791 0.0
C196 C 0.52061 0.19669 0.95624 0.0
C197 C 0.5952 0.2235 0.01155 0.0
C198 C 0.47633 0.14762 0.02927 0.0
C199 C 0.54424 0.18803 0.08617 0.0
H200 H 0.6013 0.24034 0.95652 0.0
H201 H 0.56076 0.22517 0.92538 0.0
H202 H 0.4735 0.16816 0.93794 0.0
H203 H 0.44926 0.14158 0.9782 0.0
H204 H 0.468 0.1364 0.08567 0.0
H205 H 0.50658 0.15648 0.11693 0.0
H206 H 0.59141 0.21554 0.10413 0.0
H207 H 0.61974 0.23429 0.0625 0.0
H208 H 0.45575 0.22696 0.06755 0.0
H209 H 0.46644 0.25063 0.98449 0.0
H210 H 0.52053 0.10025 0.99623 0.0
H211 H 0.57487 0.15257 0.95036 0.0
C212 C 0.01928 0.94789 0.26333 0.0
C213 C 0.99361 0.95092 0.25506 0.0
C214 C 0.98625 0.97529 0.26559 0.0
C215 C 0.00781 0.98596 0.27971 0.0
N216 N 0.02806 0.96969 0.27807 0.0
Co217 Co 0.06121 0.97383 0.29849 0.0
N218 N 0.046 0.99613 0.32653 0.0
C219 C 0.02371 0.00928 0.32416 0.0
C220 C 0.0175 0.02166 0.34804 0.0
C221 C 0.03723 0.0158 0.3661 0.0
C222 C 0.05448 1.00016 0.35224 0.0
N223 N 0.09511 0.97756 0.31761 0.0
C224 C 0.09998 0.98439 0.34343 0.0
C225 C 0.1269 0.98625 0.34851 0.0
C226 C 0.13906 0.98029 0.32468 0.0
C227 C 0.11896 0.97523 0.30651 0.0
N228 N 0.07634 0.95086 0.27083 0.0
C229 C 0.10201 0.94985 0.26469 0.0
C230 C 0.10663 0.92858 0.24793 0.0
C231 C 0.08248 0.91548 0.24361 0.0
C232 C 0.06412 0.92992 0.25742 0.0
N233 N 0.07109 0.00771 0.27822 0.0
C234 C 0.07358 0.06113 0.25695 0.0
C235 C 0.0832 0.05558 0.28268 0.0
C236 C 0.08184 0.02916 0.29279 0.0
C237 C 0.06455 0.03889 0.24106 0.0
C238 C 0.06342 0.0123 0.2521 0.0
N239 N 0.04995 0.94191 0.32058 0.0
C240 C 0.05965 0.91233 0.3578 0.0
C241 C 0.03338 0.91248 0.36638 0.0
C242 C 0.01527 0.92465 0.35009 0.0
C243 C 0.02387 0.93938 0.32772 0.0
C244 C 0.06747 0.92678 0.33424 0.0
H245 H 0.00924 0.951 0.31838 0.0
H246 H 0.08797 0.92761 0.32855 0.0
H247 H 0.08796 0.02668 0.3134 0.0
H248 H 0.05514 0.99573 0.24006 0.0
C249 C 0.00708 0.00463 0.30138 0.0
C250 C 0.03525 0.92432 0.25757 0.0
C251 C 0.07948 0.99034 0.36282 0.0
C252 C 0.1212 0.96288 0.28123 0.0
H253 H 0.98126 0.93656 0.24363 0.0
H254 H 0.9667 0.98285 0.26521 0.0
H255 H 1.00007 0.03246 0.35231 0.0
H256 H 0.03866 0.02213 0.38697 0.0
H257 H 0.13672 0.99133 0.36738 0.0
H258 H 0.15992 0.97857 0.32142 0.0
H259 H 0.12554 0.92164 0.2419 0.0
H260 H 0.07951 0.89676 0.23268 0.0
H261 H 0.09112 0.07182 0.29545 0.0
H262 H 0.05736 0.04212 0.22077 0.0
H263 H 0.07416 0.9026 0.36992 0.0
H264 H 0.99481 0.92502 0.35608 0.0
C265 C 0.18913 0.74867 0.53151 0.0
C266 C 0.18749 0.77563 0.52429 0.0
C267 C 0.21073 0.78863 0.53188 0.0
C268 C 0.22515 0.76898 0.54351 0.0
N269 N 0.21298 0.74406 0.54289 0.0
Co270 Co 0.22759 0.70975 0.55743 0.0
N271 N 0.26041 0.7292 0.57102 0.0
C272 C 0.26698 0.75582 0.56804 0.0
C273 C 0.2912 0.7634 0.57858 0.0
C274 C 0.3006 0.74012 0.58893 0.0
C275 C 0.28149 0.71959 0.58409 0.0
N276 N 0.24103 0.67536 0.57272 0.0
C277 C 0.26371 0.67068 0.58598 0.0
C278 C 0.26475 0.6436 0.59339 0.0
C279 C 0.24234 0.63065 0.58384 0.0
C280 C 0.22881 0.6505 0.57159 0.0
N281 N 0.19474 0.69027 0.54305 0.0
C282 C 0.18916 0.66329 0.54404 0.0
C283 C 0.1649 0.65534 0.5341 0.0
C284 C 0.15392 0.67868 0.52661 0.0
C285 C 0.17233 0.69978 0.53216 0.0
N286 N 0.24741 0.70456 0.52306 0.0
C287 C 0.29949 0.71548 0.50537 0.0
C288 C 0.29103 0.68955 0.51457 0.0
C289 C 0.26463 0.68417 0.5221 0.0
C290 C 0.27984 0.73338 0.49933 0.0
C291 C 0.25367 0.72688 0.50724 0.0
N292 N 0.21053 0.7163 0.59256 0.0
C293 C 0.19203 0.7566 0.60871 0.0
C294 C 0.21414 0.76141 0.6253 0.0
C295 C 0.22963 0.73946 0.63074 0.0
C296 C 0.22623 0.71616 0.615 0.0
C297 C 0.18997 0.73276 0.5934 0.0
H298 H 0.23938 0.70035 0.61846 0.0
H299 H 0.17372 0.72933 0.57995 0.0
H300 H 0.25915 0.66417 0.52951 0.0
H301 H 0.23929 0.74131 0.50249 0.0
C302 C 0.24999 0.773 0.55523 0.0
C303 C 0.16688 0.72855 0.52872 0.0
C304 C 0.28383 0.69155 0.59333 0.0
C305 C 0.2054 0.64629 0.55767 0.0
H306 H 0.17098 0.78494 0.51495 0.0
H307 H 0.21627 0.80996 0.52957 0.0
H308 H 0.30087 0.78346 0.57875 0.0
H309 H 0.31935 0.73839 0.59898 0.0
H310 H 0.27993 0.63406 0.60467 0.0
H311 H 0.23666 0.60928 0.58549 0.0
H312 H 0.15566 0.63508 0.53379 0.0
H313 H 0.1341 0.67962 0.51906 0.0
H314 H 0.30489 0.67387 0.51713 0.0
H315 H 0.28477 0.75294 0.49021 0.0
H316 H 0.17763 0.77171 0.60635 0.0
H317 H 0.24577 0.74107 0.64502 0.0
C318 C 0.50766 0.05021 0.77487 0.0
C319 C 0.53375 0.04622 0.76911 0.0
C320 C 0.53798 0.01971 0.77621 0.0
C321 C 0.51426 0.00893 0.78593 0.0
N322 N 0.49547 0.02703 0.78472 0.0
Co323 Co 0.46035 0.02352 0.80186 0.0
N324 N 0.47037 0.99369 0.82559 0.0
C325 C 0.49052 0.97768 0.8213 0.0
C326 C 0.49195 0.95806 0.841 0.0
C327 C 0.47144 0.96216 0.85844 0.0
C328 C 0.45866 0.98413 0.84843 0.0
N329 N 0.42567 0.02268 0.81967 0.0
C330 C 0.41842 0.01174 0.84362 0.0
C331 C 0.39213 0.01603 0.84903 0.0
C332 C 0.38269 0.02973 0.82725 0.0
C333 C 0.40367 0.03326 0.81 0.0
N334 N 0.45013 0.05277 0.77733 0.0
C335 C 0.42549 0.05869 0.77046 0.0
C336 C 0.42496 0.08172 0.7549 0.0
C337 C 0.45072 0.0911 0.75243 0.0
C338 C 0.46566 0.07299 0.76642 0.0
N339 N 0.44754 0.99431 0.77606 0.0
C340 C 0.44594 0.93811 0.76494 0.0
C341 C 0.4253 0.9497 0.77842 0.0
C342 C 0.42629 0.97752 0.78352 0.0
C343 C 0.46453 0.95603 0.7523 0.0
C344 C 0.46432 0.98423 0.75733 0.0
N345 N 0.47388 0.04981 0.82879 0.0
C346 C 0.47083 0.08821 0.85839 0.0
C347 C 0.49484 0.08232 0.87067 0.0
C348 C 0.50763 0.0599 0.86176 0.0
C349 C 0.49715 0.04437 0.84094 0.0
C350 C 0.46067 0.07164 0.83722 0.0
H351 H 0.50801 0.02739 0.83527 0.0
H352 H 0.44214 0.07612 0.82798 0.0
H353 H 0.41062 0.9841 0.79578 0.0
H354 H 0.47932 0.99727 0.74789 0.0
C355 C 0.51039 0.98546 0.80231 0.0
C356 C 0.49426 0.07578 0.77048 0.0
C357 C 0.43532 0.99548 0.86039 0.0
C358 C 0.40428 0.04852 0.78611 0.0
H359 H 0.54826 0.06107 0.76134 0.0
H360 H 0.55665 0.01023 0.77627 0.0
H361 H 0.50686 0.94342 0.84325 0.0
H362 H 0.46661 0.95058 0.87653 0.0
H363 H 0.38077 0.00967 0.86659 0.0
H364 H 0.36308 0.03677 0.82464 0.0
H365 H 0.40781 0.09219 0.74868 0.0
H366 H 0.45728 0.10986 0.74271 0.0
H367 H 0.40917 0.93705 0.7867 0.0
H368 H 0.48006 0.94831 0.7401 0.0
H369 H 0.4601 0.10527 0.86509 0.0
H370 H 0.52559 0.05383 0.87126 0.0
C371 C 0.31887 0.2316 0.02017 0.0
C372 C 0.31445 0.20434 0.01426 0.0
C373 C 0.29202 0.19556 0.02794 0.0
C374 C 0.28348 0.21811 0.0407 0.0
N375 N 0.29881 0.24049 0.03554 0.0
Co376 Co 0.29048 0.27823 0.04559 0.0
N377 N 0.26499 0.2654 0.07367 0.0
C378 C 0.25379 0.24009 0.0753 0.0
C379 C 0.23395 0.23772 0.09402 0.0
C380 C 0.23233 0.2632 0.10451 0.0
C381 C 0.2515 0.27977 0.09179 0.0
N382 N 0.28347 0.31625 0.05533 0.0
C383 C 0.27064 0.32615 0.07687 0.0
C384 C 0.27124 0.35428 0.07601 0.0
C385 C 0.28339 0.36205 0.05232 0.0
C386 C 0.29011 0.33841 0.0404 0.0
N387 N 0.31491 0.29049 0.01618 0.0
C388 C 0.3143 0.31434 0.00317 0.0
C389 C 0.32894 0.3153 0.97988 0.0
C390 C 0.33966 0.29048 0.97831 0.0
C391 C 0.33187 0.27627 1.00141 0.0
N392 N 0.25968 0.27668 0.02011 0.0
C393 C 0.20847 0.26017 1.0018 0.0
C394 C 0.21279 0.28324 0.01762 0.0
C395 C 0.23817 0.29109 0.02644 0.0
C396 C 0.2307 0.24735 0.99254 0.0
C397 C 0.25619 0.25665 1.00106 0.0
N398 N 0.31954 0.27921 0.07287 0.0
C399 C 0.3373 0.2378 0.08694 0.0
C400 C 0.31967 0.23679 0.10868 0.0
C401 C 0.30949 0.26135 0.11659 0.0
C402 C 0.31215 0.28351 0.09892 0.0
C403 C 0.33854 0.26105 0.07056 0.0
H404 H 0.30453 0.30236 0.1049 0.0
H405 H 0.35356 0.26403 0.0557 0.0
H406 H 0.2393 0.30754 0.04038 0.0
H407 H 0.27275 0.24617 0.99368 0.0
C408 C 0.26256 0.2192 0.059 0.0
C409 C 0.34077 0.2494 0.00908 0.0
C410 C 0.25556 0.30921 0.09666 0.0
C411 C 0.30292 0.33619 0.01556 0.0
H412 H 0.32621 0.19214 1.00141 0.0
H413 H 0.28323 0.17514 0.02872 0.0
H414 H 0.2218 0.21977 0.09912 0.0
H415 H 0.2181 0.26914 0.11921 0.0
H416 H 0.26312 0.36787 0.09044 0.0
H417 H 0.2868 0.38249 0.04469 0.0
H418 H 0.33211 0.33224 0.96613 0.0
H419 H 0.3524 0.28386 0.96245 0.0
H420 H 0.19632 0.29411 0.02494 0.0
H421 H 0.22838 0.22984 0.97951 0.0
H422 H 0.34917 0.22092 0.0825 0.0
H423 H 0.29794 0.26293 0.13468 0.0
C424 C 0.28835 0.04029 0.20687 0.0
C425 C 0.31364 0.03144 0.20852 0.0
C426 C 0.32638 0.04662 0.22854 0.0
C427 C 0.30826 0.06399 0.23816 0.0
N428 N 0.28499 0.05984 0.22553 0.0
Co429 Co 0.25477 0.08254 0.22884 0.0
N430 N 0.27649 0.1145 0.24091 0.0
C431 C 0.30111 0.11409 0.25051 0.0
C432 C 0.3117 0.13993 0.25497 0.0
C433 C 0.29232 0.15723 0.2478 0.0
C434 C 0.27082 0.14108 0.23906 0.0
N435 N 0.22355 0.10353 0.23354 0.0
C436 C 0.22255 0.12981 0.23976 0.0
C437 C 0.19769 0.13558 0.24895 0.0
C438 C 0.18258 0.11166 0.24797 0.0
C439 C 0.19922 0.0928 0.23866 0.0
N440 N 0.23331 0.05148 0.21462 0.0
C441 C 0.20722 0.04682 0.21791 0.0
C442 C 0.19714 0.02717 0.20072 0.0
C443 C 0.21813 0.01936 0.18573 0.0
C444 C 0.24034 0.03412 0.1951 0.0
N445 N 0.24937 0.07061 0.26707 0.0
C446 C 0.23812 0.05856 0.32215 0.0
C447 C 0.23914 0.03774 0.30276 0.0
C448 C 0.24505 0.04419 0.2753 0.0
C449 C 0.24445 0.08495 0.31337 0.0
C450 C 0.24905 0.09054 0.28626 0.0
N451 N 0.26137 0.0964 0.19193 0.0
C452 C 0.24863 0.12751 0.15732 0.0
C453 C 0.27518 0.13553 0.15304 0.0
C454 C 0.29435 0.12074 0.16512 0.0
C455 C 0.28715 0.10159 0.18453 0.0
C456 C 0.24209 0.10721 0.17671 0.0
H457 H 0.30319 0.09374 0.19547 0.0
H458 H 0.22165 0.1022 0.18126 0.0
H459 H 0.24554 0.028 0.26074 0.0
H460 H 0.25161 0.11161 0.28116 0.0
C461 C 0.31458 0.08968 0.24999 0.0
C462 C 0.26811 0.03142 0.18657 0.0
C463 C 0.24379 0.14984 0.23319 0.0
C464 C 0.19233 0.066 0.23101 0.0
H465 H 0.32232 0.01676 0.1956 0.0
H466 H 0.34719 0.04704 0.23319 0.0
H467 H 0.33146 0.14567 0.26171 0.0
H468 H 0.29403 0.17899 0.24947 0.0
H469 H 0.19097 0.15523 0.25439 0.0
H470 H 0.16182 0.10868 0.25245 0.0
H471 H 0.1766 0.02115 0.19748 0.0
H472 H 0.21631 0.0055 0.16909 0.0
H473 H 0.23483 0.01683 0.30857 0.0
H474 H 0.24523 0.10174 0.32739 0.0
H475 H 0.23327 0.13819 0.14743 0.0
H476 H 0.31506 0.12616 0.16197 0.0
C477 C 0.2305 0.98985 0.54916 0.0
C478 C 0.25416 0.97732 0.54793 0.0
C479 C 0.25736 0.96972 0.52152 0.0
C480 C 0.23552 0.97799 0.50809 0.0
N481 N 0.21905 0.99088 0.52428 0.0
Co482 Co 0.18341 0.00272 0.51433 0.0
N483 N 0.18252 0.98206 0.47987 0.0
C484 C 0.20363 0.97185 0.46795 0.0
C485 C 0.19827 0.96183 0.44263 0.0
C486 C 0.1723 0.96634 0.43809 0.0
C487 C 0.16312 0.97876 0.46107 0.0
N488 N 0.14674 0.013 0.50651 0.0
C489 C 0.12937 0.0036 0.48761 0.0
C490 C 0.10496 0.01446 0.491 0.0
C491 C 0.10761 0.0325 0.51176 0.0
C492 C 0.13316 0.03116 0.52021 0.0
N493 N 0.18483 0.02429 0.54837 0.0
C494 C 0.16837 0.04359 0.5553 0.0
C495 C 0.17209 0.05264 0.58122 0.0
C496 C 0.19158 0.03779 0.59158 0.0
C497 C 0.19932 0.02084 0.5711 0.0
N498 N 0.19845 0.03396 0.49219 0.0
C499 C 0.21363 0.04862 0.43873 0.0
C500 C 0.18831 0.05271 0.44843 0.0
C501 C 0.1817 0.04683 0.4753 0.0
C502 C 0.23233 0.04131 0.45801 0.0
C503 C 0.2245 0.03508 0.48483 0.0
N504 N 0.16842 0.97089 0.53361 0.0
C505 C 0.13051 0.94945 0.55521 0.0
C506 C 0.13578 0.92464 0.5431 0.0
C507 C 0.15966 0.9229 0.52951 0.0
C508 C 0.17598 0.94602 0.52577 0.0
C509 C 0.14713 0.97242 0.55017 0.0
H510 H 0.19332 0.94393 0.5139 0.0
H511 H 0.14154 0.99163 0.55781 0.0
H512 H 0.16201 0.05078 0.48105 0.0
H513 H 0.23944 0.02939 0.49884 0.0
C514 C 0.22768 0.97061 0.48181 0.0
C515 C 0.21964 1.00095 0.57416 0.0
C516 C 0.13647 0.98874 0.46349 0.0
C517 C 0.14479 0.04584 0.54139 0.0
H518 H 0.26742 0.97362 0.5645 0.0
H519 H 0.27303 0.95823 0.51344 0.0
H520 H 0.21164 0.95245 0.42902 0.0
H521 H 0.1616 0.96152 0.41968 0.0
H522 H 0.08751 0.01089 0.4787 0.0
H523 H 0.09278 0.04523 0.51958 0.0
H524 H 0.15997 0.06604 0.59234 0.0
H525 H 0.19791 0.03839 0.6124 0.0
H526 H 0.1729 0.05896 0.43519 0.0
H527 H 0.25271 0.03964 0.45232 0.0
H528 H 0.11271 0.95158 0.56678 0.0
H529 H 0.16483 0.90457 0.51943 0.0
C530 C 0.24037 0.96632 0.70676 0.0
C531 C 0.21481 0.97338 0.71123 0.0
C532 C 0.20645 0.96 0.73457 0.0
C533 C 0.22735 0.94551 0.74319 0.0
N534 N 0.24813 0.94956 0.72669 0.0
Co535 Co 0.28064 0.92983 0.72776 0.0
N536 N 0.26393 0.899 0.74748 0.0
C537 C 0.24157 0.89943 0.7618 0.0
C538 C 0.2346 0.8743 0.77257 0.0
C539 C 0.2539 0.85747 0.7644 0.0
C540 C 0.27161 0.87324 0.749 0.0
N541 N 0.31381 0.9112 0.72822 0.0
C542 C 0.31753 0.88466 0.73144 0.0
C543 C 0.34425 0.87999 0.73072 0.0
C544 C 0.35741 0.90477 0.7272 0.0
C545 C 0.33812 0.9231 0.72585 0.0
N546 N 0.29726 0.96054 0.70753 0.0
C547 C 0.32313 0.96765 0.70652 0.0
C548 C 0.32873 0.98748 0.68755 0.0
C549 C 0.30501 0.99279 0.67591 0.0
C550 C 0.28597 0.97623 0.68883 0.0
N551 N 0.29027 0.94634 0.76328 0.0
C552 C 0.29243 0.96077 0.81875 0.0
C553 C 0.30225 0.93662 0.80957 0.0
C554 C 0.30096 0.92986 0.78227 0.0
C555 C 0.28292 0.97853 0.79904 0.0
C556 C 0.28224 0.97105 0.7714 0.0
N557 N 0.26973 0.91124 0.6941 0.0
C558 C 0.28022 0.87805 0.66085 0.0
C559 C 0.25404 0.86757 0.66127 0.0
C560 C 0.23552 0.88123 0.67552 0.0
C561 C 0.2437 0.90272 0.69186 0.0
C562 C 0.28756 0.90063 0.67698 0.0
H563 H 0.22889 0.90999 0.70485 0.0
H564 H 0.30801 0.90773 0.67753 0.0
H565 H 0.30695 0.91002 0.77715 0.0
H566 H 0.27403 0.98462 0.75686 0.0
C567 C 0.22562 0.92204 0.75986 0.0
C568 C 0.25733 0.97541 0.68374 0.0
C569 C 0.29622 0.86418 0.73704 0.0
C570 C 0.34148 0.94994 0.7166 0.0
H571 H 0.20322 0.986 0.69848 0.0
H572 H 0.18669 0.95898 0.74269 0.0
H573 H 0.21699 0.86851 0.78388 0.0
H574 H 0.25479 0.83614 0.76909 0.0
H575 H 0.35338 0.86081 0.7325 0.0
H576 H 0.37839 0.90868 0.72455 0.0
H577 H 0.348 0.99519 0.68095 0.0
H578 H 0.30263 0.00637 0.6591 0.0
H579 H 0.30961 0.92201 0.82367 0.0
H580 H 0.27565 0.99781 0.80492 0.0
H581 H 0.29502 0.86798 0.64958 0.0
H582 H 0.2151 0.87373 0.67609 0.0
C583 C 0.29661 0.02451 0.0518 0.0
C584 C 0.28415 0.04866 0.05421 0.0
C585 C 0.29226 0.06463 0.03289 0.0
C586 C 0.30892 0.04933 0.01846 0.0
N587 N 0.31131 0.02424 0.02869 0.0
Co588 Co 0.33408 0.9959 0.01334 0.0
N589 N 0.3437 0.01835 0.98087 0.0
C590 C 0.33723 0.04404 0.97632 0.0
C591 C 0.34535 0.05398 0.95164 0.0
C592 C 0.35799 0.03339 0.93988 0.0
C593 C 0.35714 0.01207 0.95828 0.0
N594 N 0.35662 0.96722 0.99845 0.0
C595 C 0.36861 0.96527 0.97411 0.0
C596 C 0.38226 0.94173 0.97239 0.0
C597 C 0.37863 0.92837 0.99632 0.0
C598 C 0.36325 0.9445 0.01126 0.0
N599 N 0.32485 0.97359 0.04649 0.0
C600 C 0.33566 0.95015 0.05335 0.0
C601 C 0.33027 0.94152 0.07907 0.0
C602 C 0.31543 0.96076 0.08974 0.0
C603 C 0.3118 0.9799 0.06956 0.0
N604 N 0.30382 0.97994 0.99192 0.0
C605 C 0.28923 0.97 0.9377 0.0
C606 C 0.29939 0.94954 0.95387 0.0
C607 C 0.30535 0.95452 0.98129 0.0
C608 C 0.28187 0.99339 0.95094 0.0
C609 C 0.28851 0.99748 0.97824 0.0
N610 N 0.36505 0.01313 0.03199 0.0
C611 C 0.38132 0.05173 0.05797 0.0
C612 C 0.40406 0.05378 0.04215 0.0
C613 C 0.40848 0.03327 0.02387 0.0
C614 C 0.38894 0.01319 0.01922 0.0
C615 C 0.36244 0.03055 0.05318 0.0
H616 H 0.39288 0.9996 0.00329 0.0
H617 H 0.34515 0.02974 0.06551 0.0
H618 H 0.31431 0.93884 0.99269 0.0
H619 H 0.28401 0.01656 0.98674 0.0
C620 C 0.3216 0.05729 0.99455 0.0
C621 C 0.29736 0.00458 0.07407 0.0
C622 C 0.37073 0.98695 0.95399 0.0
C623 C 0.35315 0.93807 0.03645 0.0
H624 H 0.2715 0.05464 0.07042 0.0
H625 H 0.28691 0.08511 0.02861 0.0
H626 H 0.34203 0.07365 0.94299 0.0
H627 H 0.36702 0.03407 0.9201 0.0
H628 H 0.39433 0.93514 0.956 0.0
H629 H 0.38626 0.90917 1.00211 0.0
H630 H 0.33771 0.92418 0.08943 0.0
H631 H 0.30946 0.96109 0.11063 0.0
H632 H 0.30409 0.93038 0.94506 0.0
H633 H 0.27312 0.00955 0.93986 0.0
H634 H 0.37773 0.06685 0.07309 0.0
H635 H 0.42607 0.03393 0.0115 0.0
C636 C 0.72941 0.22095 0.98254 0.0
C637 C 0.72717 0.19559 0.97073 0.0
C638 C 0.74809 0.19439 0.95297 0.0
C639 C 0.76205 0.21909 0.95466 0.0
N640 N 0.75107 0.23513 0.97284 0.0
Co641 Co 0.75937 0.27415 0.97772 0.0
N642 N 0.77431 0.27848 0.94157 0.0
C643 C 0.78348 0.25868 0.92633 0.0
C644 C 0.79121 0.2684 0.90126 0.0
C645 C 0.78646 0.29574 0.90128 0.0
C646 C 0.77607 0.30119 0.92641 0.0
N647 N 0.76651 0.31303 0.98384 0.0
C648 C 0.76918 0.33284 0.9653 0.0
C649 C 0.77372 0.35787 0.97751 0.0
C650 C 0.7738 0.35306 0.00498 0.0
C651 C 0.76933 0.32544 0.00786 0.0
N652 N 0.74408 0.26965 0.01386 0.0
C653 C 0.74879 0.2857 0.03537 0.0
C654 C 0.73235 0.27843 0.05661 0.0
C655 C 0.71626 0.25699 0.04745 0.0
C656 C 0.72385 0.25236 0.02113 0.0
N657 N 0.79555 0.26723 0.99052 0.0
C658 C 0.84875 0.25243 0.98939 0.0
C659 C 0.84152 0.27771 0.98026 0.0
C660 C 0.81543 0.28481 0.98138 0.0
C661 C 0.82879 0.23539 1.00139 0.0
C662 C 0.80229 0.24311 1.00164 0.0
N663 N 0.72496 0.2812 0.96204 0.0
C664 C 0.68669 0.30733 0.95517 0.0
C665 C 0.68008 0.29185 0.93217 0.0
C666 C 0.69585 0.27112 0.92487 0.0
C667 C 0.71802 0.26646 0.93957 0.0
C668 C 0.70964 0.30173 0.9699 0.0
H669 H 0.72997 0.25121 0.93176 0.0
H670 H 0.71493 0.31375 0.98745 0.0
H671 H 0.81136 0.30384 0.97215 0.0
H672 H 0.78714 0.22892 0.0093 0.0
C673 C 0.77805 0.23113 0.93384 0.0
C674 C 0.71132 0.23217 0.00278 0.0
C675 C 0.76835 0.32769 0.93633 0.0
C676 C 0.76173 0.31146 0.03175 0.0
H677 H 0.71162 0.18008 0.9736 0.0
H678 H 0.75098 0.1785 0.93848 0.0
H679 H 0.79782 0.25678 0.88435 0.0
H680 H 0.78982 0.30983 0.8847 0.0
H681 H 0.77645 0.3774 0.96765 0.0
H682 H 0.77545 0.36808 0.02083 0.0
H683 H 0.73042 0.28908 0.0755 0.0
H684 H 0.70016 0.24674 0.05832 0.0
H685 H 0.85589 0.29193 0.97129 0.0
H686 H 0.83331 0.21571 0.00925 0.0
H687 H 0.67459 0.32349 0.96146 0.0
H688 H 0.6913 0.25864 0.90732 0.0
C689 C 0.049 0.44784 0.18094 0.0
C690 C 0.07283 0.45193 0.1675 0.0
C691 C 0.07069 0.4744 0.15105 0.0
C692 C 0.04575 0.48306 0.15504 0.0
N693 N 0.03255 0.46739 0.17327 0.0
Co694 Co 0.99475 0.46837 0.18133 0.0
N695 N 0.98695 0.48589 0.14689 0.0
C696 C 0.00434 0.50057 0.13168 0.0
C697 C 0.99284 0.50953 0.1083 0.0
C698 C 0.96684 0.4998 0.10934 0.0
C699 C 0.96391 0.48533 0.1333 0.0
N700 N 0.95707 0.46777 0.18995 0.0
C701 C 0.93647 0.46827 0.17283 0.0
C702 C 0.91293 0.46686 0.18698 0.0
C703 C 0.91944 0.46555 0.214 0.0
C704 C 0.94651 0.4662 0.21481 0.0
N705 N 1.00273 0.45125 0.21598 0.0
C706 C 0.98851 0.45236 0.23872 0.0
C707 C 0.99941 0.43806 0.25948 0.0
C708 C 0.0215 0.42722 0.24875 0.0
C709 C 0.02266 0.4353 0.22192 0.0
N710 N 0.99988 0.50504 0.19713 0.0
C711 C 0.01089 0.56109 0.2049 0.0
C712 C 0.9866 0.55118 0.1948 0.0
C713 C 0.98147 0.52342 0.19122 0.0
C714 C 0.02887 0.5421 0.21328 0.0
C715 C 0.02298 0.51409 0.20919 0.0
N716 N 0.98979 0.43328 0.16376 0.0
C717 C 0.97652 0.38587 0.16278 0.0
C718 C 0.9912 0.38316 0.13912 0.0
C719 C 1.00224 0.40615 0.12649 0.0
C720 C 1.00133 0.43083 0.13904 0.0
C721 C 0.97618 0.41148 0.17505 0.0
H722 H 0.01148 0.44766 0.12916 0.0
H723 H 0.96621 0.41347 0.19414 0.0
H724 H 0.96312 0.51719 0.18167 0.0
H725 H 0.03762 0.49991 0.21442 0.0
C726 C 0.03168 0.49919 0.13683 0.0
C727 C 0.04178 0.42662 0.20182 0.0
C728 C 0.93928 0.47192 0.14354 0.0
C729 C 0.96228 0.46014 0.23731 0.0
H730 H 0.08989 0.44003 0.16856 0.0
H731 H 0.08489 0.48196 0.13622 0.0
H732 H 1.00248 0.52032 0.09168 0.0
H733 H 0.95192 0.5027 0.09415 0.0
H734 H 0.89324 0.46685 0.1787 0.0
H735 H 0.90599 0.46314 0.23085 0.0
H736 H 0.99115 0.43403 0.27932 0.0
H737 H 0.03444 0.41382 0.25896 0.0
H738 H 0.97182 0.56497 0.18875 0.0
H739 H 0.04773 0.54887 0.22173 0.0
H740 H 0.96692 0.36831 0.17242 0.0
H741 H 0.01293 0.40483 0.10766 0.0
C742 C 0.7919 0.81972 0.49115 0.0
C743 C 0.79618 0.84763 0.49042 0.0
C744 C 0.78121 0.85681 0.46946 0.0
C745 C 0.76862 0.83413 0.45835 0.0
N746 N 0.77376 0.81147 0.47225 0.0
Co747 Co 0.76441 0.77353 0.46124 0.0
N748 N 0.75679 0.78396 0.42329 0.0
C749 C 0.75832 0.80941 0.41323 0.0
C750 C 0.75918 0.80993 0.3855 0.0
C751 C 0.75874 0.78323 0.37769 0.0
C752 C 0.75707 0.7678 0.40115 0.0
N753 N 0.75374 0.73562 0.45196 0.0
C754 C 0.74645 0.72548 0.42782 0.0
C755 C 0.73648 0.69882 0.43012 0.0
C756 C 0.7385 0.69186 0.45684 0.0
C757 C 0.74931 0.71467 0.46921 0.0
N758 N 0.77463 0.76254 0.49836 0.0
C759 C 0.77089 0.73794 0.51011 0.0
C760 C 0.78406 0.73593 0.53424 0.0
C761 C 0.79794 0.76031 0.53727 0.0
C762 C 0.79215 0.77576 0.51487 0.0
N763 N 0.72646 0.77791 0.47178 0.0
C764 C 0.67031 0.77453 0.47469 0.0
C765 C 0.68569 0.75892 0.49166 0.0
C766 C 0.7134 0.76144 0.49039 0.0
C767 C 0.68378 0.79336 0.45798 0.0
C768 C 0.71131 0.79485 0.45705 0.0
N769 N 0.80109 0.76986 0.44853 0.0
C770 C 0.83152 0.74286 0.42441 0.0
C771 C 0.84317 0.76632 0.4124 0.0
C772 C 0.83587 0.79123 0.42152 0.0
C773 C 0.81499 0.79258 0.43906 0.0
C774 C 0.81076 0.74515 0.44306 0.0
H775 H 0.80943 0.81265 0.44237 0.0
H776 H 0.80167 0.72695 0.45177 0.0
H777 H 0.72367 0.74943 0.50435 0.0
H778 H 0.71961 0.80964 0.44358 0.0
C779 C 0.76256 0.83191 0.43055 0.0
C780 C 0.80715 0.80057 0.50709 0.0
C781 C 0.75537 0.73794 0.40254 0.0
C782 C 0.75851 0.71629 0.49589 0.0
H783 H 0.80986 0.86011 0.50219 0.0
H784 H 0.78248 0.87708 0.46103 0.0
H785 H 0.76154 0.82757 0.37253 0.0
H786 H 0.76033 0.77628 0.35717 0.0
H787 H 0.73055 0.68526 0.41383 0.0
H788 H 0.73408 0.67213 0.46582 0.0
H789 H 0.7853 0.71812 0.54688 0.0
H790 H 0.81225 0.76544 0.55288 0.0
H791 H 0.67654 0.7442 0.50544 0.0
H792 H 0.67309 0.80694 0.44534 0.0
H793 H 0.83756 0.72306 0.41856 0.0
H794 H 0.84454 0.80995 0.41311 0.0
C795 C 0.0039 0.78838 0.26045 0.0
C796 C 0.02665 0.78937 0.27595 0.0
C797 C 0.02768 0.7644 0.28851 0.0
C798 C 0.00559 0.74942 0.27998 0.0
N799 N 0.99112 0.76359 0.26284 0.0
Co800 Co 0.95713 0.75066 0.24712 0.0
N801 N 0.94986 0.72378 0.27595 0.0
C802 C 0.96853 0.7132 0.29128 0.0
C803 C 0.95853 0.69209 0.30684 0.0
C804 C 0.93203 0.68957 0.30082 0.0
C805 C 0.92675 0.71015 0.28255 0.0
N806 N 0.92399 0.73789 0.22957 0.0
C807 C 0.90459 0.721 0.23926 0.0
C808 C 0.88976 0.7095 0.21812 0.0
C809 C 0.89903 0.72161 0.19476 0.0
C810 C 0.91975 0.73863 0.20277 0.0
N811 N 0.96392 0.77822 0.21867 0.0
C812 C 0.95295 0.77803 0.19391 0.0
C813 C 0.95734 0.80227 0.18063 0.0
C814 C 0.97203 0.81848 0.19808 0.0
C815 C 0.97674 0.80291 0.22085 0.0
N816 N 0.97526 0.72225 0.22683 0.0
C817 C 1.00185 0.67545 0.21321 0.0
C818 C 0.97517 0.67394 0.2189 0.0
C819 C 0.96255 0.69703 0.22577 0.0
C820 C 0.01504 0.70127 0.21254 0.0
C821 C 1.00122 0.7246 0.21913 0.0
N822 N 0.93862 0.77637 0.26983 0.0
C823 C 0.89531 0.78382 0.28733 0.0
C824 C 0.90491 0.7826 0.31403 0.0
C825 C 0.93217 0.78307 0.3174 0.0
C826 C 0.9485 0.78075 0.29532 0.0
C827 C 0.91266 0.78107 0.26541 0.0
H828 H 0.9687 0.77857 0.30038 0.0
H829 H 0.90454 0.77999 0.24524 0.0
H830 H 0.94284 0.69332 0.23257 0.0
H831 H 0.01184 0.74414 0.21952 0.0
C832 C 0.99436 0.72546 0.292 0.0
C833 C 0.99475 0.81082 0.24341 0.0
C834 C 0.90133 0.71425 0.26806 0.0
C835 C 0.93381 0.7578 0.18671 0.0
H836 H 0.04065 0.80648 0.27836 0.0
H837 H 0.0419 0.75861 0.30344 0.0
H838 H 0.96924 0.67959 0.32055 0.0
H839 H 0.91933 0.6728 0.3076 0.0
H840 H 0.87387 0.69408 0.21942 0.0
H841 H 0.89144 0.7185 0.17452 0.0
H842 H 0.94908 0.80825 0.16149 0.0
H843 H 0.97777 0.83952 0.19443 0.0
H844 H 0.96419 0.6545 0.21957 0.0
H845 H 0.03583 0.70333 0.20786 0.0
H846 H 0.87458 0.78555 0.28328 0.0
H847 H 0.94116 0.78256 0.33721 0.0
C848 C 0.52063 0.21174 0.78022 0.0
C849 C 0.49517 0.20791 0.78999 0.0
C850 C 0.48781 0.23268 0.79866 0.0
C851 C 0.50909 0.25029 0.79374 0.0
N852 N 0.52936 0.23832 0.782 0.0
Co853 Co 0.56487 0.25614 0.77375 0.0
N854 N 0.55689 0.29046 0.79254 0.0
C855 C 0.53309 0.29679 0.80179 0.0
C856 C 0.53282 0.32278 0.81143 0.0
C857 C 0.55795 0.33365 0.80791 0.0
C858 C 0.57219 0.31358 0.79638 0.0
N859 N 0.60117 0.27244 0.76675 0.0
C860 C 0.6134 0.29522 0.77667 0.0
C861 C 0.6399 0.29717 0.7696 0.0
C862 C 0.64413 0.27552 0.75356 0.0
C863 C 0.62027 0.2614 0.75225 0.0
N864 N 0.57275 0.22203 0.75422 0.0
C865 C 0.59412 0.21829 0.73881 0.0
C866 C 0.59555 0.19232 0.72965 0.0
C867 C 0.57402 0.17849 0.74007 0.0
C868 C 0.5602 0.19698 0.75468 0.0
N869 N 0.55148 0.2735 0.7401 0.0
C870 C 0.53897 0.32644 0.7259 0.0
C871 C 0.56349 0.31669 0.71931 0.0
C872 C 0.56885 0.28975 0.72534 0.0
C873 C 0.51916 0.30716 0.73372 0.0
C874 C 0.52569 0.28032 0.73928 0.0
N875 N 0.57799 0.2418 0.80807 0.0
C876 C 0.61867 0.24329 0.83261 0.0
C877 C 0.6067 0.25672 0.85387 0.0
C878 C 0.57929 0.25675 0.85418 0.0
C879 C 0.5652 0.24831 0.83126 0.0
C880 C 0.60362 0.23516 0.81007 0.0
H881 H 0.54445 0.25082 0.83142 0.0
H882 H 0.6135 0.22682 0.79308 0.0
H883 H 0.58808 0.28335 0.72041 0.0
H884 H 0.51008 0.26612 0.74538 0.0
C885 C 0.51176 0.27752 0.80175 0.0
C886 C 0.53562 0.18962 0.76909 0.0
C887 C 0.59999 0.31745 0.78882 0.0
C888 C 0.61538 0.23711 0.73876 0.0
H889 H 0.4833 0.18908 0.79103 0.0
H890 H 0.46944 0.23712 0.80823 0.0
H891 H 0.51633 0.33267 0.81998 0.0
H892 H 0.56498 0.35404 0.81304 0.0
H893 H 0.65442 0.31321 0.77459 0.0
H894 H 0.6624 0.27064 0.74406 0.0
H895 H 0.61152 0.1839 0.71864 0.0
H896 H 0.56975 0.15693 0.73795 0.0
H897 H 0.57882 0.33009 0.71068 0.0
H898 H 0.49926 0.31299 0.73724 0.0
H899 H 0.63967 0.24077 0.83255 0.0
H900 H 0.56896 0.26546 0.87087 0.0
C901 C 0.47602 0.54605 0.69317 0.0
C902 C 0.45007 0.53704 0.68923 0.0
C903 C 0.45062 0.51176 0.67727 0.0
C904 C 0.47687 0.50658 0.67458 0.0
N905 N 0.49242 0.52708 0.68442 0.0
Co906 Co 0.53101 0.53122 0.6809 0.0
N907 N 0.53177 0.50568 0.6507 0.0
C908 C 0.5129 0.48647 0.64487 0.0
C909 C 0.51904 0.4724 0.62195 0.0
C910 C 0.54311 0.48363 0.6133 0.0
C911 C 0.55037 0.50401 0.63141 0.0
N912 N 0.56936 0.53735 0.67757 0.0
C913 C 0.58463 0.53347 0.65597 0.0
C914 C 0.6109 0.53997 0.66191 0.0
C915 C 0.61178 0.54812 0.68844 0.0
C916 C 0.5861 0.54612 0.69711 0.0
N917 N 0.53057 0.55625 0.71166 0.0
C918 C 0.55074 0.5626 0.72849 0.0
C919 C 0.54445 0.58153 0.74733 0.0
C920 C 0.51895 0.58751 0.7417 0.0
C921 C 0.51104 0.57175 0.71969 0.0
N922 N 0.53574 0.49957 0.70508 0.0
C923 C 0.53402 0.44467 0.72164 0.0
C924 C 0.55562 0.45621 0.70764 0.0
C925 C 0.55603 0.48327 0.69942 0.0
C926 C 0.51436 0.46188 0.72959 0.0
C927 C 0.51599 0.48949 0.72175 0.0
N928 N 0.52569 0.56041 0.65489 0.0
C929 C 0.53443 0.60454 0.63498 0.0
C930 C 0.51614 0.59811 0.61422 0.0
C931 C 0.50399 0.57231 0.61371 0.0
C932 C 0.50843 0.55432 0.63428 0.0
C933 C 0.539 0.5852 0.65527 0.0
H934 H 0.4976 0.5352 0.63312 0.0
H935 H 0.55294 0.59016 0.67124 0.0
H936 H 0.57178 0.48976 0.68611 0.0
H937 H 0.50023 0.50203 0.7275 0.0
C938 C 0.48768 0.48735 0.6571 0.0
C939 C 0.48527 0.57185 0.70637 0.0
C940 C 0.57485 0.52147 0.63071 0.0
C941 C 0.57645 0.55663 0.72123 0.0
H942 H 0.43272 0.54777 0.69404 0.0
H943 H 0.43389 0.49962 0.66968 0.0
H944 H 0.50679 0.45706 0.61169 0.0
H945 H 0.55381 0.47784 0.59556 0.0
H946 H 0.62764 0.53868 0.64861 0.0
H947 H 0.62893 0.55558 0.69966 0.0
H948 H 0.55748 0.59151 0.76195 0.0
H949 H 0.50789 0.60232 0.75211 0.0
H950 H 0.57135 0.44381 0.70121 0.0
H951 H 0.49755 0.45394 0.74106 0.0
H952 H 0.54445 0.62441 0.63591 0.0
H953 H 0.49058 0.56602 0.59761 0.0
C954 C 0.984 0.24428 0.96939 0.0
C955 C 0.98849 0.25106 0.94247 0.0
C956 C 0.01202 0.26663 0.94155 0.0
C957 C 0.02131 0.26773 0.96769 0.0
N958 N 0.00516 0.25325 0.9843 0.0
Co959 Co 0.00885 0.25006 0.02351 0.0
N960 N 0.02967 0.28429 0.02605 0.0
C961 C 0.04362 0.29636 0.00587 0.0
C962 C 0.05505 0.32092 0.014 0.0
C963 C 0.04768 0.32392 0.04069 0.0
C964 C 0.03224 0.30089 0.04748 0.0
N965 N 0.01051 0.24629 0.06283 0.0
C966 C 0.01389 0.26611 0.08114 0.0
C967 C 0.01213 0.25568 0.10715 0.0
C968 C 0.00793 0.228 0.10458 0.0
C969 C 0.00712 0.22321 0.07721 0.0
N970 N 0.98867 0.21531 0.02053 0.0
C971 C 0.9888 0.1944 0.0379 0.0
C972 C 0.97198 0.17318 0.02968 0.0
C973 C 0.96057 0.18179 0.00604 0.0
C974 C 0.97103 0.20783 1.00132 0.0
N975 N 0.04293 0.23233 0.01995 0.0
C976 C 0.09695 0.22839 0.00814 0.0
C977 C 0.08876 0.23634 0.03362 0.0
C978 C 0.062 0.23835 0.03904 0.0
C979 C 0.07743 0.21964 0.9895 0.0
C980 C 0.05048 0.22096 0.99615 0.0
N981 N 0.97682 0.2702 0.02669 0.0
C982 C 0.93529 0.28102 0.04634 0.0
C983 C 0.93526 0.30465 0.0304 0.0
C984 C 0.95581 0.3102 0.01256 0.0
C985 C 0.97612 0.29308 0.01111 0.0
C986 C 0.95667 0.26402 0.04436 0.0
H987 H 0.99159 0.29896 0.99731 0.0
H988 H 0.95703 0.2461 0.05691 0.0
H989 H 0.05742 0.24767 0.05788 0.0
H990 H 0.03594 0.21499 0.98108 0.0
C991 C 0.03986 0.28723 0.9788 0.0
C992 C 0.9617 0.22695 0.98113 0.0
C993 C 0.02009 0.29443 0.07393 0.0
C994 C 0.99815 0.19891 0.06444 0.0
H995 H 0.97667 0.24518 0.92514 0.0
H996 H 0.02045 0.27706 0.92408 0.0
H997 H 0.06594 0.33573 1.00162 0.0
H998 H 0.05269 0.34122 0.05335 0.0
H999 H 0.01361 0.26689 0.12586 0.0
H1000 H 0.00449 0.21341 0.12072 0.0
H1001 H 0.96661 0.15483 0.04084 0.0
H1002 H 0.94501 0.17112 0.99476 0.0
H1003 H 0.10311 0.24326 0.04863 0.0
H1004 H 0.08291 0.21297 0.96959 0.0
H1005 H 0.91934 0.27602 0.06023 0.0
H1006 H 0.95629 0.32803 0.99967 0.0
C1007 C 0.53498 0.75633 0.45419 0.0
C1008 C 0.5375 0.75285 0.42653 0.0
C1009 C 0.51676 0.73561 0.41854 0.0
C1010 C 0.50252 0.72956 0.44156 0.0
N1011 N 0.51251 0.74301 0.46328 0.0
Co1012 Co 0.50327 0.73593 0.50179 0.0
N1013 N 0.48423 0.70113 0.49329 0.0
C1014 C 0.4759 0.69262 0.46873 0.0
C1015 C 0.46524 0.66639 0.46953 0.0
C1016 C 0.46739 0.65809 0.49603 0.0
C1017 C 0.4792 0.67976 0.50991 0.0
N1018 N 0.49638 0.72907 0.54067 0.0
C1019 C 0.48931 0.70545 0.55282 0.0
C1020 C 0.48837 0.70823 0.5807 0.0
C1021 C 0.4957 0.73476 0.58615 0.0
C1022 C 0.50085 0.74646 0.56137 0.0
N1023 N 0.52197 0.77104 0.51001 0.0
C1024 C 0.52078 0.78561 0.53282 0.0
C1025 C 0.53654 0.80914 0.53171 0.0
C1026 C 0.54903 0.80867 0.50712 0.0
C1027 C 0.54033 0.78466 0.49487 0.0
N1028 N 0.46838 0.75365 0.49828 0.0
C1029 C 0.41245 0.7504 0.49885 0.0
C1030 C 0.42703 0.75924 0.52151 0.0
C1031 C 0.45465 0.76093 0.52073 0.0
C1032 C 0.42644 0.74893 0.4746 0.0
C1033 C 0.45413 0.75193 0.47466 0.0
N1034 N 0.53604 0.71643 0.50474 0.0
C1035 C 0.57477 0.70194 0.52798 0.0
C1036 C 0.57985 0.68452 0.50653 0.0
C1037 C 0.5628 0.68322 0.48473 0.0
C1038 C 0.54117 0.69877 0.48442 0.0
C1039 C 0.55251 0.71781 0.52669 0.0
H1040 H 0.52841 0.69563 0.46757 0.0
H1041 H 0.54869 0.73106 0.54331 0.0
H1042 H 0.46423 0.76743 0.53885 0.0
H1043 H 0.46345 0.75195 0.45543 0.0
C1044 C 0.48471 0.70674 0.44518 0.0
C1045 C 0.5535 0.77211 0.47228 0.0
C1046 C 0.48626 0.67981 0.53857 0.0
C1047 C 0.51136 0.77299 0.55663 0.0
H1048 H 0.55266 0.76113 0.41327 0.0
H1049 H 0.51381 0.72675 0.39874 0.0
H1050 H 0.45863 0.65403 0.45258 0.0
H1051 H 0.46175 0.63821 0.50404 0.0
H1052 H 0.48383 0.69249 0.59551 0.0
H1053 H 0.4981 0.74404 0.60582 0.0
H1054 H 0.54084 0.82327 0.54797 0.0
H1055 H 0.56482 0.82261 0.50034 0.0
H1056 H 0.4173 0.76401 0.54019 0.0
H1057 H 0.41631 0.7444 0.45577 0.0
H1058 H 0.58758 0.70309 0.54547 0.0
H1059 H 0.56584 0.6696 0.46803 0.0
C1060 C 0.7429 0.54164 0.45641 0.0
C1061 C 0.76708 0.55589 0.45741 0.0
C1062 C 0.77086 0.56379 0.48379 0.0
C1063 C 0.74877 0.554 0.49741 0.0
N1064 N 0.7315 0.54001 0.48132 0.0
Co1065 Co 0.69536 0.52532 0.49173 0.0
N1066 N 0.69614 0.54501 0.52669 0.0
C1067 C 0.71757 0.55768 0.53799 0.0
C1068 C 0.71275 0.56757 0.56327 0.0
C1069 C 0.68677 0.5605 0.56832 0.0
C1070 C 0.67715 0.54667 0.54575 0.0
N1071 N 0.65871 0.51127 0.50034 0.0
C1072 C 0.64235 0.51814 0.5203 0.0
C1073 C 0.61781 0.50447 0.51787 0.0
C1074 C 0.61919 0.48765 0.49621 0.0
C1075 C 0.6442 0.49227 0.48645 0.0
N1076 N 0.69487 0.50502 0.45697 0.0
C1077 C 0.67778 0.4845 0.4498 0.0
C1078 C 0.68225 0.47462 0.42446 0.0
C1079 C 0.70319 0.49014 0.41473 0.0
C1080 C 0.71025 0.50868 0.43478 0.0
N1081 N 0.71008 0.49434 0.5122 0.0
C1082 C 0.72339 0.48069 0.56569 0.0
C1083 C 0.69907 0.47199 0.55464 0.0
C1084 C 0.69324 0.47805 0.52766 0.0
C1085 C 0.74258 0.49144 0.54778 0.0
C1086 C 0.73582 0.4965 0.52066 0.0
N1087 N 0.68064 0.55728 0.47443 0.0
C1088 C 0.63986 0.57855 0.46664 0.0
C1089 C 0.65076 0.60302 0.4772 0.0
C1090 C 0.67776 0.60515 0.48205 0.0
C1091 C 0.69234 0.58226 0.48012 0.0
C1092 C 0.65547 0.55608 0.46457 0.0
H1093 H 0.71235 0.58477 0.48651 0.0
H1094 H 0.64636 0.5372 0.45758 0.0
H1095 H 0.67417 0.47111 0.52056 0.0
H1096 H 0.75123 0.50402 0.50736 0.0
C1097 C 0.74142 0.561 0.52371 0.0
C1098 C 0.7311 0.52992 0.43161 0.0
C1099 C 0.65027 0.5344 0.54373 0.0
C1100 C 0.65454 0.47958 0.46415 0.0
H1101 H 0.78028 0.56056 0.44071 0.0
H1102 H 0.78708 0.57645 0.49173 0.0
H1103 H 0.72644 0.57866 0.57646 0.0
H1104 H 0.67617 0.56474 0.58662 0.0
H1105 H 0.60096 0.50573 0.53102 0.0
H1106 H 0.60388 0.47361 0.48862 0.0
H1107 H 0.67047 0.45936 0.41356 0.0
H1108 H 0.71169 0.48862 0.39481 0.0
H1109 H 0.68397 0.46197 0.5671 0.0
H1110 H 0.76241 0.49649 0.55477 0.0
H1111 H 0.61916 0.57635 0.4615 0.0
H1112 H 0.68724 0.62366 0.48987 0.0
C1113 C 0.78426 0.46153 0.79062 0.0
C1114 C 0.80887 0.45619 0.78046 0.0
C1115 C 0.80464 0.44011 0.75782 0.0
C1116 C 0.77777 0.43746 0.75448 0.0
N1117 N 0.76545 0.45138 0.77334 0.0
Co1118 Co 0.72731 0.45381 0.77668 0.0
N1119 N 0.72002 0.41917 0.75839 0.0
C1120 C 0.73651 0.40759 0.74125 0.0
C1121 C 0.72602 0.38305 0.73211 0.0
C1122 C 0.70159 0.37951 0.74418 0.0
C1123 C 0.69832 0.40227 0.75996 0.0
N1124 N 0.68935 0.45666 0.78179 0.0
C1125 C 0.67019 0.43673 0.78193 0.0
C1126 C 0.64582 0.44733 0.78602 0.0
C1127 C 0.65027 0.47497 0.78849 0.0
C1128 C 0.67703 0.47971 0.78571 0.0
N1129 N 0.73491 0.48883 0.79417 0.0
C1130 C 0.71883 0.50937 0.79562 0.0
C1131 C 0.73037 0.53116 0.80932 0.0
C1132 C 0.75494 0.52335 0.81704 0.0
C1133 C 0.75684 0.49712 0.80778 0.0
N1134 N 0.72516 0.47141 0.74068 0.0
C1135 C 0.72741 0.47959 0.68419 0.0
C1136 C 0.70484 0.46792 0.69657 0.0
C1137 C 0.70413 0.46394 0.72448 0.0
C1138 C 0.74776 0.49001 0.70112 0.0
C1139 C 0.74614 0.48593 0.72939 0.0
N1140 N 0.72969 0.43457 0.81101 0.0
C1141 C 0.72357 0.4292 0.85898 0.0
C1142 C 0.73936 0.40678 0.85866 0.0
C1143 C 0.74871 0.39775 0.83417 0.0
C1144 C 0.7437 0.41176 0.81083 0.0
C1145 C 0.71898 0.44303 0.83462 0.0
H1146 H 0.75216 0.40438 0.79264 0.0
H1147 H 0.70757 0.46083 0.83487 0.0
H1148 H 0.68723 0.45255 0.7324 0.0
H1149 H 0.76264 0.49278 0.74183 0.0
C1150 C 0.76319 0.41755 0.73921 0.0
C1151 C 0.77806 0.47902 0.81415 0.0
C1152 C 0.67452 0.40834 0.77549 0.0
C1153 C 0.69166 0.50427 0.79091 0.0
H1154 H 0.82792 0.46364 0.78766 0.0
H1155 H 0.81943 0.43068 0.74597 0.0
H1156 H 0.73548 0.36871 0.71943 0.0
H1157 H 0.68805 0.36206 0.74174 0.0
H1158 H 0.62685 0.43631 0.78673 0.0
H1159 H 0.63582 0.48966 0.79267 0.0
H1160 H 0.72124 0.54951 0.81516 0.0
H1161 H 0.76908 0.53479 0.82945 0.0
H1162 H 0.68817 0.4605 0.68455 0.0
H1163 H 0.76539 0.49982 0.69254 0.0
H1164 H 0.71566 0.43635 0.87777 0.0
H1165 H 0.7603 0.38003 0.83306 0.0
C1166 C 0.7895 0.46037 0.95304 0.0
C1167 C 0.76505 0.44711 0.94906 0.0
C1168 C 0.75637 0.43821 0.97387 0.0
C1169 C 0.77601 0.44612 0.99163 0.0
N1170 N 0.79661 0.45983 0.9797 0.0
Co1171 Co 0.83155 0.46993 0.99721 0.0
N1172 N 0.82178 0.45074 0.03172 0.0
C1173 C 0.79786 0.43929 0.03791 0.0
C1174 C 0.79643 0.42909 0.06374 0.0
C1175 C 0.82086 0.43465 0.07469 0.0
C1176 C 0.83586 0.44791 0.05484 0.0
N1177 N 0.86717 0.47917 0.0133 0.0
C1178 C 0.87771 0.4718 0.03713 0.0
C1179 C 0.90372 0.48176 0.03964 0.0
C1180 C 0.90957 0.49638 0.01686 0.0
C1181 C 0.88705 0.49434 1.00171 0.0
N1182 N 0.84114 0.48977 0.96294 0.0
C1183 C 0.86255 0.50663 0.95893 0.0
C1184 C 0.86339 0.51862 0.93393 0.0
C1185 C 0.84143 0.50837 0.92092 0.0
C1186 C 0.82864 0.49023 0.93866 0.0
N1187 N 0.81777 0.50323 0.01386 0.0
C1188 C 0.80702 0.52839 0.06374 0.0
C1189 C 0.83112 0.53341 0.05024 0.0
C1190 C 0.83528 0.52218 0.02476 0.0
C1191 C 0.787 0.51438 0.04895 0.0
C1192 C 0.79263 0.50254 0.02393 0.0
N1193 N 0.84525 0.43604 0.9834 0.0
C1194 C 0.88512 0.41214 0.98378 0.0
C1195 C 0.87159 0.38946 0.99537 0.0
C1196 C 0.84415 0.38878 0.99553 0.0
C1197 C 0.83137 0.4121 0.98881 0.0
C1198 C 0.87133 0.43504 0.97712 0.0
H1199 H 0.81052 0.41111 0.99119 0.0
H1200 H 0.8823 0.45269 0.96959 0.0
H1201 H 0.85386 0.52714 0.01543 0.0
H1202 H 0.77678 0.49152 0.01395 0.0
C1203 C 0.77757 0.43776 0.01869 0.0
C1204 C 0.80556 0.47288 0.93098 0.0
C1205 C 0.86325 0.45774 0.0589 0.0
C1206 C 0.88341 0.50739 0.97714 0.0
H1207 H 0.75484 0.4434 0.93015 0.0
H1208 H 0.73854 0.426 0.97817 0.0
H1209 H 0.77964 0.41879 0.07344 0.0
H1210 H 0.82698 0.42965 0.09497 0.0
H1211 H 0.91692 0.47948 0.05656 0.0
H1212 H 0.92787 0.5076 0.01215 0.0
H1213 H 0.87883 0.53212 0.92563 0.0
H1214 H 0.83601 0.513 0.90034 0.0
H1215 H 0.84765 0.54434 0.05955 0.0
H1216 H 0.76729 0.51155 0.05705 0.0
H1217 H 0.90627 0.41275 0.98124 0.0
H1218 H 0.83267 0.3712 0.00294 0.0
C1219 C 0.7411 0.54878 0.29456 0.0
C1220 C 0.71446 0.54212 0.29155 0.0
C1221 C 0.70559 0.55887 0.27135 0.0
C1222 C 0.7274 0.57432 0.26261 0.0
N1223 N 0.74908 0.5675 0.27586 0.0
Co1224 Co 0.78439 0.58479 0.2719 0.0
N1225 N 0.77103 0.61908 0.25882 0.0
C1226 C 0.74639 0.62251 0.25018 0.0
C1227 C 0.74171 0.64959 0.24791 0.0
C1228 C 0.76489 0.66356 0.25536 0.0
C1229 C 0.78288 0.64428 0.26134 0.0
N1230 N 0.82015 0.60015 0.26684 0.0
C1231 C 0.82824 0.6261 0.26275 0.0
C1232 C 0.85465 0.62799 0.2554 0.0
C1233 C 0.86305 0.60196 0.25526 0.0
C1234 C 0.84134 0.58568 0.26229 0.0
N1235 N 0.79756 0.55146 0.28684 0.0
C1236 C 0.82072 0.54115 0.28126 0.0
C1237 C 0.82329 0.51669 0.29413 0.0
C1238 C 0.80038 0.51201 0.30884 0.0
C1239 C 0.78549 0.53441 0.30489 0.0
N1240 N 0.78625 0.57129 0.23418 0.0
C1241 C 0.79238 0.5557 0.17938 0.0
C1242 C 0.78687 0.53627 0.19996 0.0
C1243 C 0.78333 0.54451 0.22708 0.0
C1244 C 0.79308 0.58293 0.18713 0.0
C1245 C 0.79137 0.59008 0.21417 0.0
N1246 N 0.78215 0.6001 0.30825 0.0
C1247 C 0.80373 0.63102 0.33956 0.0
C1248 C 0.7803 0.6445 0.34213 0.0
C1249 C 0.75714 0.63162 0.33266 0.0
C1250 C 0.75847 0.60969 0.31566 0.0
C1251 C 0.80425 0.60851 0.32233 0.0
H1252 H 0.74037 0.60339 0.30593 0.0
H1253 H 0.82288 0.59995 0.31815 0.0
H1254 H 0.77878 0.52924 0.24231 0.0
H1255 H 0.7946 0.61127 0.21859 0.0
C1256 C 0.72719 0.60052 0.25081 0.0
C1257 C 0.75893 0.53879 0.31575 0.0
C1258 C 0.81152 0.64899 0.26733 0.0
C1259 C 0.84069 0.55767 0.26861 0.0
H1260 H 0.70248 0.52826 0.30397 0.0
H1261 H 0.68527 0.56146 0.26593 0.0
H1262 H 0.72313 0.65827 0.24335 0.0
H1263 H 0.76749 0.68527 0.257 0.0
H1264 H 0.86664 0.64626 0.25107 0.0
H1265 H 0.88279 0.59583 0.25144 0.0
H1266 H 0.8401 0.50421 0.29374 0.0
H1267 H 0.79527 0.49406 0.32066 0.0
H1268 H 0.7856 0.51486 0.19533 0.0
H1269 H 0.7951 0.59917 0.17247 0.0
H1270 H 0.82175 0.63905 0.34886 0.0
H1271 H 0.73817 0.63983 0.33636 0.0
C1272 C 0.22245 0.34016 0.11512 0.0
C1273 C 0.24183 0.32152 0.11982 0.0
C1274 C 0.20546 0.34742 0.13575 0.0
C1275 C 0.20592 0.33485 0.16138 0.0
H1276 H 0.21913 0.34778 0.09493 0.0
H1277 H 0.19003 0.36083 0.1307 0.0
S1278 S 0.25546 0.28732 0.18464 0.0
N1279 N 0.26342 0.29412 0.15296 0.0
N1280 N 0.22967 0.30507 0.19098 0.0
C1281 C 0.22673 0.31795 0.16694 0.0
C1282 C 0.24487 0.3117 0.14623 0.0
C1283 C 0.99649 0.87325 0.42118 0.0
C1284 C 0.99718 0.8916 0.44298 0.0
C1285 C 0.01004 0.87921 0.39706 0.0
C1286 C 0.02449 0.90394 0.39362 0.0
H1287 H 0.9855 0.85397 0.42272 0.0
H1288 H 0.0085 0.86477 0.38065 0.0
S1289 S 0.02889 0.96099 0.44209 0.0
N1290 N 0.01165 0.9367 0.45823 0.0
N1291 N 0.0359 0.94832 0.41233 0.0
C1292 C 0.02444 0.92296 0.41464 0.0
C1293 C 0.01109 0.91672 0.43942 0.0
C1294 C 0.2993 0.69755 0.64085 0.0
C1295 C 0.30253 0.68575 0.61541 0.0
C1296 C 0.31708 0.6934 0.66185 0.0
C1297 C 0.33876 0.67741 0.65803 0.0
H1298 H 0.28331 0.71066 0.64432 0.0
H1299 H 0.3148 0.70419 0.68064 0.0
S1300 S 0.35419 0.6395 0.5962 0.0
N1301 N 0.32748 0.65538 0.58825 0.0
N1302 N 0.36137 0.64804 0.6277 0.0
C1303 C 0.34147 0.66442 0.63311 0.0
C1304 C 0.32324 0.6685 0.61177 0.0
C1305 C 0.50487 0.10846 0.94181 0.0
C1306 C 0.53232 0.11463 0.94306 0.0
C1307 C 0.49232 0.1002 0.91772 0.0
C1308 C 0.50669 0.0976 0.89384 0.0
H1309 H 0.49279 0.10996 0.95962 0.0
H1310 H 0.47143 0.09471 0.91809 0.0
S1311 S 0.57868 0.11088 0.88534 0.0
N1312 N 0.5734 0.11642 0.91765 0.0
N1313 N 0.54948 0.10289 0.87223 0.0
C1314 C 0.53391 0.10445 0.89441 0.0
C1315 C 0.54681 0.11227 0.91901 0.0
C1316 C 0.2442 0.20149 0.22871 0.0
C1317 C 0.2356 0.17552 0.21965 0.0
C1318 C 0.23052 0.2246 0.22166 0.0
C1319 C 0.20614 0.22229 0.20798 0.0
H1320 H 0.26034 0.20407 0.24275 0.0
H1321 H 0.23782 0.24412 0.22924 0.0
S1322 S 0.17699 0.15938 0.1763 0.0
N1323 N 0.20435 0.15033 0.19063 0.0
N1324 N 0.17571 0.19181 0.18313 0.0
C1325 C 0.19845 0.19676 0.19718 0.0
C1326 C 0.21384 0.17399 0.20177 0.0
C1327 C 0.06921 0.88899 0.52978 0.0
C1328 C 0.07485 0.86159 0.5287 0.0
C1329 C 0.08889 0.90903 0.53529 0.0
C1330 C 0.11496 0.90239 0.54064 0.0
H1331 H 0.04936 0.89501 0.52662 0.0
H1332 H 0.0836 0.92995 0.53472 0.0
S1333 S 0.13923 0.83284 0.54182 0.0
N1334 N 0.10777 0.82836 0.53378 0.0
N1335 N 0.14482 0.86578 0.54591 0.0
C1336 C 0.12064 0.87474 0.54034 0.0
C1337 C 0.10057 0.85441 0.534 0.0
C1338 C 0.30524 0.82143 0.71334 0.0
C1339 C 0.30361 0.83563 0.73777 0.0
C1340 C 0.32046 0.79867 0.71123 0.0
C1341 C 0.33594 0.79047 0.73302 0.0
H1342 H 0.29638 0.82918 0.69522 0.0
H1343 H 0.32156 0.78859 0.69191 0.0
S1344 S 0.33891 0.82177 0.80122 0.0
N1345 N 0.31758 0.83936 0.78441 0.0
N1346 N 0.34838 0.79861 0.77997 0.0
C1347 C 0.33388 0.80424 0.75779 0.0
C1348 C 0.3172 0.82633 0.76027 0.0
C1349 C 0.413 0.1033 0.03423 0.0
C1350 C 0.42217 0.07811 0.04216 0.0
C1351 C 0.43066 0.12561 0.02933 0.0
C1352 C 0.4579 0.12337 0.03225 0.0
H1353 H 0.39218 0.10548 0.03087 0.0
H1354 H 0.42304 0.14465 0.02307 0.0
S1355 S 0.49149 0.06203 0.05366 0.0
N1356 N 0.45992 0.05237 0.05342 0.0
N1357 N 0.49302 0.09418 0.0444 0.0
C1358 C 0.46713 0.09837 0.04061 0.0
C1359 C 0.44927 0.07578 0.04555 0.0
C1360 C 0.09312 0.96626 0.40417 0.0
C1361 C 0.08742 0.99089 0.39163 0.0
C1362 C 0.10815 0.96567 0.4279 0.0
C1363 C 0.11898 0.98971 0.43929 0.0
H1364 H 0.08706 0.94722 0.39475 0.0
H1365 H 0.11225 0.94627 0.43677 0.0
S1366 S 0.11126 0.05943 0.41343 0.0
N1367 N 0.0941 0.03981 0.39213 0.0
N1368 N 0.12317 0.03887 0.43621 0.0
C1369 C 0.11323 0.01452 0.42712 0.0
C1370 C 0.09731 0.01509 0.40338 0.0
C1371 C 0.23381 0.79297 0.66045 0.0
C1372 C 0.2228 0.78915 0.63455 0.0
C1373 C 0.24475 0.81829 0.66849 0.0
C1374 C 0.24588 0.84057 0.65072 0.0
H1375 H 0.23369 0.77634 0.67478 0.0
H1376 H 0.25169 0.82065 0.68906 0.0
S1377 S 0.21807 0.84252 0.5818 0.0
N1378 N 0.21234 0.81082 0.59179 0.0
N1379 N 0.23346 0.85817 0.60714 0.0
C1380 C 0.23451 0.83742 0.62513 0.0
C1381 C 0.22289 0.81178 0.61699 0.0
C1382 C 0.38849 0.96635 0.91199 0.0
C1383 C 0.39106 0.98592 0.93249 0.0
C1384 C 0.40565 0.96715 0.88988 0.0
C1385 C 0.42561 0.98779 0.88753 0.0
H1386 H 0.37254 0.95098 0.91254 0.0
H1387 H 0.40177 0.95315 0.87338 0.0
S1388 S 0.44343 0.04077 0.93789 0.0
N1389 N 0.41771 0.02373 0.95111 0.0
N1390 N 0.44907 0.02614 0.90868 0.0
C1391 C 0.4298 0.00598 0.9089 0.0
C1392 C 0.41267 0.00487 0.93162 0.0
C1393 C 0.2898 0.16466 0.11385 0.0
C1394 C 0.28384 0.16208 0.14138 0.0
C1395 C 0.30269 0.18844 0.10374 0.0
C1396 C 0.30975 0.21055 0.12072 0.0
H1397 H 0.28514 0.14798 0.10023 0.0
H1398 H 0.30695 0.18955 0.0824 0.0
S1399 S 0.30247 0.21157 0.19511 0.0
N1400 N 0.28868 0.182 0.18594 0.0
N1401 N 0.31253 0.22669 0.16693 0.0
C1402 C 0.30468 0.20766 0.14845 0.0
C1403 C 0.29177 0.18346 0.15873 0.0
C1404 C 0.72726 0.37516 0.8963 0.0
C1405 C 0.74654 0.39158 0.88294 0.0
C1406 C 0.73453 0.35444 0.91376 0.0
C1407 C 0.76115 0.34955 0.91804 0.0
H1408 H 0.70659 0.37721 0.89193 0.0
H1409 H 0.71929 0.34166 0.92328 0.0
S1410 S 0.81887 0.38828 0.88996 0.0
N1411 N 0.79329 0.40266 0.87664 0.0
N1412 N 0.80666 0.36384 0.90981 0.0
C1413 C 0.7805 0.36668 0.90609 0.0
C1414 C 0.77323 0.38774 0.88846 0.0
C1415 C 0.91399 0.44193 0.11099 0.0
C1416 C 0.91645 0.46637 0.12539 0.0
C1417 C 0.8941 0.43755 0.09151 0.0
C1418 C 0.87625 0.45755 0.08582 0.0
H1419 H 0.92822 0.42666 0.11396 0.0
H1420 H 0.89381 0.41934 0.07946 0.0
S1421 S 0.87302 0.52373 0.12007 0.0
N1422 N 0.89827 0.50972 0.13444 0.0
N1423 N 0.86102 0.50158 0.09772 0.0
C1424 C 0.87747 0.48119 0.1015 0.0
C1425 C 0.89766 0.48565 0.12125 0.0
C1426 C 0.78551 0.70113 0.39271 0.0
C1427 C 0.76746 0.71956 0.38282 0.0
C1428 C 0.7914 0.67794 0.37848 0.0
C1429 C 0.7793 0.67204 0.35372 0.0
H1430 H 0.79305 0.70288 0.41297 0.0
H1431 H 0.80369 0.66346 0.38807 0.0
S1432 S 0.73359 0.71504 0.31658 0.0
N1433 N 0.73899 0.73087 0.34552 0.0
N1434 N 0.75175 0.68841 0.31749 0.0
C1435 C 0.76327 0.6915 0.34216 0.0
C1436 C 0.75683 0.71492 0.35703 0.0
C1437 C 0.84442 0.67206 0.29779 0.0
C1438 C 0.82568 0.67457 0.27695 0.0
C1439 C 0.86776 0.68847 0.29856 0.0
C1440 C 0.87345 0.70754 0.27807 0.0
H1441 H 0.84321 0.65474 0.31109 0.0
H1442 H 0.88152 0.68466 0.31434 0.0
S1443 S 0.82377 0.73402 0.23121 0.0
N1444 N 0.81017 0.70505 0.24245 0.0
N1445 N 0.85205 0.73839 0.24743 0.0
C1446 C 0.85146 0.71566 0.26304 0.0
C1447 C 0.82822 0.69812 0.26105 0.0
C1448 C 0.62023 0.35499 0.76091 0.0
C1449 C 0.61357 0.34482 0.78677 0.0
C1450 C 0.63921 0.37623 0.75747 0.0
C1451 C 0.65275 0.38758 0.77973 0.0
H1452 H 0.61193 0.34521 0.74309 0.0
H1453 H 0.64411 0.38305 0.73718 0.0
S1454 S 0.64013 0.37113 0.85179 0.0
N1455 N 0.61992 0.34979 0.83513 0.0
N1456 N 0.65614 0.3897 0.82863 0.0
C1457 C 0.64505 0.37904 0.80579 0.0
C1458 C 0.6254 0.35755 0.80932 0.0
C1459 C 0.52001 0.65189 0.55918 0.0
C1460 C 0.49336 0.65529 0.55324 0.0
C1461 C 0.52738 0.63352 0.57908 0.0
C1462 C 0.50827 0.61792 0.59354 0.0
H1463 H 0.5352 0.66439 0.54921 0.0
H1464 H 0.54809 0.6317 0.5833 0.0
S1465 S 0.43565 0.62029 0.58577 0.0
N1466 N 0.4479 0.64233 0.56336 0.0
N1467 N 0.46129 0.60737 0.60049 0.0
C1468 C 0.48145 0.62084 0.58722 0.0
C1469 C 0.4741 0.63962 0.56709 0.0
C1470 C 0.63347 0.2807 0.92205 0.0
C1471 C 0.65692 0.29516 0.91483 0.0
C1472 C 0.61652 0.26927 0.90222 0.0
C1473 C 0.62264 0.27195 0.87457 0.0
H1474 H 0.62981 0.2757 0.94304 0.0
H1475 H 0.59961 0.25663 0.90857 0.0
S1476 S 0.67894 0.31306 0.84542 0.0
N1477 N 0.68316 0.31545 0.87843 0.0
N1478 N 0.65136 0.29436 0.8411 0.0
C1479 C 0.6444 0.28917 0.86719 0.0
C1480 C 0.66138 0.30097 0.88735 0.0
C1481 C 0.97867 0.34117 0.11372 0.0
C1482 C 0.99774 0.35697 0.1279 0.0
C1483 C 0.98618 0.32057 0.09649 0.0
C1484 C 0.01288 0.31563 0.0928 0.0
H1485 H 0.95813 0.34578 0.11473 0.0
H1486 H 0.97113 0.30907 0.08525 0.0
S1487 S 0.06996 0.35003 0.12714 0.0
N1488 N 0.04415 0.36514 0.13874 0.0
N1489 N 0.05813 0.32643 0.10618 0.0
C1490 C 0.03195 0.33031 0.10791 0.0
C1491 C 0.02437 0.351 0.1256 0.0
C1492 C 0.88346 0.78304 0.38779 0.0
C1493 C 0.86021 0.76638 0.38814 0.0
C1494 C 0.89665 0.78937 0.36363 0.0
C1495 C 0.88774 0.77872 0.33858 0.0
H1496 H 0.89092 0.79226 0.4063 0.0
H1497 H 0.91396 0.80306 0.36477 0.0
S1498 S 0.8262 0.73565 0.32861 0.0
N1499 N 0.82752 0.74092 0.36147 0.0
N1500 N 0.85291 0.75146 0.31604 0.0
C1501 C 0.86422 0.76213 0.33873 0.0
C1502 C 0.85053 0.75606 0.36347 0.0
C1503 C 0.60952 0.50365 0.60114 0.0
C1504 C 0.59225 0.52405 0.60685 0.0
C1505 C 0.6294 0.50783 0.58175 0.0
C1506 C 0.63259 0.53253 0.56755 0.0
H1507 H 0.60799 0.48464 0.61215 0.0
H1508 H 0.64201 0.49146 0.57733 0.0
S1509 S 0.5929 0.5924 0.57583 0.0
N1510 N 0.58007 0.56998 0.59762 0.0
N1511 N 0.61712 0.57756 0.56064 0.0
C1512 C 0.61563 0.5531 0.57329 0.0
C1513 C 0.5955 0.5489 0.59309 0.0
C1514 C 0.89209 0.31882 0.01428 0.0
C1515 C 0.91442 0.32424 0.03041 0.0
C1516 C 0.87782 0.33997 0.00363 0.0
C1517 C 0.88572 0.36728 0.00844 0.0
H1518 H 0.88708 0.29825 0.00808 0.0
H1519 H 0.86139 0.33505 0.99032 0.0
S1520 S 0.9407 0.39183 0.05296 0.0
N1521 N 0.94201 0.35852 0.05336 0.0
N1522 N 0.91542 0.39833 0.03344 0.0
C1523 C 0.90685 0.37282 0.02632 0.0
C1524 C 0.92105 0.35128 0.03739 0.0
C1525 C 0.61192 0.61846 0.50265 0.0
C1526 C 0.63401 0.62496 0.48631 0.0
C1527 C 0.59603 0.63864 0.51221 0.0
C1528 C 0.60163 0.66608 0.50581 0.0
H1529 H 0.60663 0.59754 0.50776 0.0
H1530 H 0.57826 0.63259 0.52323 0.0
S1531 S 0.65711 0.69407 0.46411 0.0
N1532 N 0.66091 0.66109 0.4647 0.0
N1533 N 0.63075 0.69888 0.48253 0.0
C1534 C 0.62408 0.67301 0.49031 0.0
C1535 C 0.64033 0.6525 0.48059 0.0
C1536 C 0.08651 0.09918 0.22426 0.0
C1537 C 0.0731 0.09018 0.24773 0.0
C1538 C 0.09013 0.12707 0.21807 0.0
C1539 C 0.08029 0.14728 0.23489 0.0
H1540 H 0.09548 0.08468 0.21133 0.0
H1541 H 0.10161 0.13293 0.20038 0.0
S1542 S 0.04146 0.13419 0.29737 0.0
N1543 N 0.0481 0.10369 0.28674 0.0
N1544 N 0.05499 0.15575 0.27518 0.0
C1545 C 0.06553 0.13839 0.25755 0.0
C1546 C 0.06199 0.11003 0.26395 0.0
C1547 C 0.12208 0.72788 0.50574 0.0
C1548 C 0.1387 0.73704 0.52695 0.0
C1549 C 0.0949 0.73207 0.50577 0.0
C1550 C 0.08296 0.74674 0.52648 0.0
H1551 H 0.13004 0.71657 0.48925 0.0
H1552 H 0.08322 0.72325 0.48945 0.0
S1553 S 0.11873 0.77914 0.58465 0.0
N1554 N 0.14159 0.76381 0.56793 0.0
N1555 N 0.09131 0.77312 0.56738 0.0
C1556 C 0.09982 0.75754 0.54696 0.0
C1557 C 0.1274 0.75265 0.54718 0.0
C1558 C 0.45267 0.89246 0.74265 0.0
C1559 C 0.44826 0.90783 0.766 0.0
C1560 C 0.45224 0.86377 0.74361 0.0
C1561 C 0.44747 0.84933 0.76795 0.0
H1562 H 0.45542 0.90257 0.72333 0.0
H1563 H 0.45448 0.85276 0.72496 0.0
S1564 S 0.43864 0.87993 0.83537 0.0
N1565 N 0.44203 0.90618 0.81471 0.0
N1566 N 0.44068 0.85284 0.81624 0.0
C1567 C 0.44438 0.86454 0.79155 0.0
C1568 C 0.44495 0.89355 0.79064 0.0
C1569 C 0.38996 0.26465 0.00419 0.0
C1570 C 0.37048 0.24449 0.01231 0.0
C1571 C 0.41712 0.26212 0.00827 0.0
C1572 C 0.42693 0.23972 0.02166 0.0
H1573 H 0.38485 0.28341 0.99512 0.0
H1574 H 0.43061 0.2784 1.00135 0.0
S1575 S 0.38639 0.18164 0.04988 0.0
N1576 N 0.36471 0.20124 0.03631 0.0
N1577 N 0.41538 0.19709 0.04412 0.0
C1578 C 0.40827 0.2196 0.03069 0.0
C1579 C 0.3804 0.22183 0.02608 0.0
C1580 C 0.29246 0.04098 0.14256 0.0
C1581 C 0.27573 0.0234 0.15818 0.0
C1582 C 0.29895 0.03504 0.11556 0.0
C1583 C 0.28837 0.01159 0.10241 0.0
H1584 H 0.30081 0.05954 0.1513 0.0
H1585 H 0.31261 0.04888 0.10495 0.0
S1586 S 0.24635 0.95704 0.13484 0.0
N1587 N 0.25283 0.97891 0.15939 0.0
N1588 N 0.2603 0.97055 0.10751 0.0
C1589 C 0.27142 0.99396 0.11772 0.0
C1590 C 0.26641 0.99905 0.14579 0.0
C1591 C 0.23611 0.03307 0.39589 0.0
C1592 C 0.21994 0.05143 0.40891 0.0
C1593 C 0.24113 0.03449 0.36775 0.0
C1594 C 0.23001 0.0542 0.35125 0.0
H1595 H 0.24489 0.01728 0.40751 0.0
H1596 H 0.25432 0.02048 0.35899 0.0
S1597 S 0.18542 0.10648 0.37455 0.0
N1598 N 0.19335 0.09043 0.4024 0.0
N1599 N 0.20046 0.09121 0.34992 0.0
C1600 C 0.21308 0.072 0.36386 0.0
C1601 C 0.20869 0.07114 0.39245 0.0
C1602 C 0.23437 0.96262 0.6398 0.0
C1603 C 0.24649 0.98278 0.65646 0.0
C1604 C 0.2264 0.96842 0.61309 0.0
C1605 C 0.23059 0.99452 0.60175 0.0
H1606 H 0.23128 0.94211 0.64738 0.0
H1607 H 0.21667 0.95241 0.60127 0.0
S1608 S 0.26138 0.0545 0.63679 0.0
N1609 N 0.26058 0.03037 0.65999 0.0
N1610 N 0.24899 0.0403 0.60909 0.0
C1611 C 0.24329 0.01461 0.61802 0.0
C1612 C 0.2502 0.00905 0.64553 0.0
C1613 C 0.31293 0.95922 0.86533 0.0
C1614 C 0.29155 0.96589 0.84882 0.0
C1615 C 0.31162 0.96021 0.89372 0.0
C1616 C 0.28905 0.96822 0.90727 0.0
H1617 H 0.3309 0.95283 0.85624 0.0
H1618 H 0.3286 0.95483 0.90524 0.0
S1619 S 0.2273 0.98753 0.874 0.0
N1620 N 0.24673 0.98053 0.84856 0.0
N1621 N 0.24459 0.98298 0.90177 0.0
C1622 C 0.26764 0.97548 0.89112 0.0
C1623 C 0.26884 0.97423 0.86206 0.0
C1624 C 0.14468 0.21724 0.01286 0.0
C1625 C 0.12544 0.23291 1.00086 0.0
C1626 C 0.1718 0.22492 0.011 0.0
C1627 C 0.18076 0.24892 0.99761 0.0
H1628 H 0.13863 0.19959 0.02482 0.0
H1629 H 0.18573 0.21294 0.02167 0.0
S1630 S 0.13849 0.29685 0.96258 0.0
N1631 N 0.11746 0.27306 0.97443 0.0
N1632 N 0.16805 0.28782 0.97158 0.0
C1633 C 0.16175 0.26426 0.98486 0.0
C1634 C 0.13425 0.25619 0.98633 0.0
C1635 C 0.66611 0.25074 0.99839 0.0
C1636 C 0.68158 0.22819 1.00241 0.0
C1637 C 0.6384 0.24882 0.99993 0.0
C1638 C 0.62464 0.22435 0.00671 0.0
H1639 H 0.67552 0.27042 0.99503 0.0
H1640 H 0.62772 0.26696 0.99693 0.0
S1641 S 0.65542 0.15999 0.02388 0.0
N1642 N 0.68066 0.18096 0.01599 0.0
N1643 N 0.62887 0.17743 0.02014 0.0
C1644 C 0.63978 0.20175 0.01189 0.0
C1645 C 0.66806 0.20361 0.00952 0.0
C1646 C 0.08521 0.36424 0.20126 0.0
C1647 C 0.06718 0.34231 0.20693 0.0
C1648 C 0.07715 0.39117 0.19928 0.0
C1649 C 0.05059 0.3975 0.2026 0.0
H1650 H 0.10589 0.36064 0.19902 0.0
H1651 H 0.09229 0.40705 0.19665 0.0
S1652 S 0.99626 0.3469 0.22078 0.0
N1653 N 0.02215 0.32856 0.21754 0.0
N1654 N 0.0068 0.37842 0.21427 0.0
C1655 C 0.03261 0.37537 0.20894 0.0
C1656 C 0.04088 0.34808 0.21085 0.0
C1657 C 0.8759 0.77378 0.49648 0.0
C1658 C 0.89321 0.79422 0.50696 0.0
C1659 C 0.8485 0.77646 0.49623 0.0
C1660 C 0.83688 0.79981 0.50616 0.0
H1661 H 0.8835 0.75507 0.48932 0.0
H1662 H 0.83625 0.75953 0.48891 0.0
S1663 S 0.87354 0.85778 0.53904 0.0
N1664 N 0.89675 0.83801 0.52914 0.0
N1665 N 0.84539 0.84243 0.52963 0.0
C1666 C 0.85402 0.82014 0.51728 0.0
C1667 C 0.88203 0.8175 0.5174 0.0
C1668 C 0.33873 0.73885 0.48114 0.0
C1669 C 0.32832 0.72412 0.50353 0.0
C1670 C 0.36568 0.74744 0.47972 0.0
C1671 C 0.38347 0.74202 0.50077 0.0
H1672 H 0.32599 0.74359 0.46443 0.0
H1673 H 0.37252 0.75867 0.46203 0.0
S1674 S 0.36601 0.70532 0.56448 0.0
N1675 N 0.33795 0.70569 0.54779 0.0
N1676 N 0.3882 0.72077 0.54478 0.0
C1677 C 0.37315 0.72747 0.52332 0.0
C1678 C 0.34581 0.71881 0.52477 0.0
C1679 C 0.00994 0.88165 0.27363 0.0
C1680 C 0.02318 0.89614 0.25264 0.0
C1681 C 1.00121 0.85412 0.27063 0.0
C1682 C 0.00583 0.83971 0.24672 0.0
H1683 H 0.00663 0.89155 0.29269 0.0
H1684 H 0.99073 0.84402 0.28717 0.0
S1685 S 0.03986 0.86817 0.18579 0.0
N1686 N 0.03835 0.89433 0.20624 0.0
N1687 N 0.02659 0.84188 0.20251 0.0
C1688 C 0.01973 0.85384 0.22594 0.0
C1689 C 0.02705 0.8822 0.22834 0.0
C1690 C 0.51464 0.11746 0.79363 0.0
C1691 C 0.50805 0.10354 0.76952 0.0
C1692 C 0.52309 0.14526 0.79349 0.0
C1693 C 0.52482 0.16041 0.76927 0.0
H1694 H 0.51267 0.10694 0.81281 0.0
H1695 H 0.52826 0.155 0.81247 0.0
S1696 S 0.50943 0.13362 0.70077 0.0
N1697 N 0.50467 0.10698 0.72078 0.0
N1698 N 0.51836 0.15925 0.72066 0.0
C1699 C 0.51796 0.1467 0.74514 0.0
C1700 C 0.51032 0.11831 0.74521 0.0
C1701 C 0.55401 0.37368 0.73975 0.0
C1702 C 0.53527 0.35644 0.72638 0.0
C1703 C 0.55271 0.40202 0.73935 0.0
C1704 C 0.53216 0.41459 0.72604 0.0
H1705 H 0.57 0.36512 0.75055 0.0
H1706 H 0.56828 0.41427 0.74907 0.0
S1707 S 0.47708 0.37907 0.68901 0.0
N1708 N 0.49479 0.35429 0.70018 0.0
N1709 N 0.49201 0.40754 0.69983 0.0
C1710 C 0.51253 0.39767 0.7136 0.0
C1711 C 0.51407 0.36866 0.71375 0.0
C1712 C 0.89044 0.23277 0.00747 0.0
C1713 C 0.87695 0.24463 0.98611 0.0
C1714 C 0.91731 0.22741 0.00544 0.0
C1715 C 0.93262 0.2337 0.98197 0.0
H1716 H 0.88033 0.22817 0.0263 0.0
H1717 H 0.92613 0.21867 0.02308 0.0
S1718 S 0.90568 0.26284 0.91898 0.0
N1719 N 0.88032 0.26069 0.93971 0.0
N1720 N 0.93054 0.25138 0.9362 0.0
C1721 C 0.91904 0.24524 0.96027 0.0
C1722 C 0.89148 0.25043 0.96224 0.0
C1723 C 0.01931 0.63307 0.23238 0.0
C1724 C 0.01437 0.64911 0.20944 0.0
C1725 C 0.02063 0.60465 0.23059 0.0
C1726 C 0.01668 0.59116 0.20581 0.0
H1727 H 0.01986 0.64228 0.25221 0.0
H1728 H 0.02258 0.59302 0.249 0.0
S1729 S 0.00617 0.62403 0.13939 0.0
N1730 N 0.00792 0.64948 0.16096 0.0
N1731 N 0.0105 0.59643 0.15743 0.0
C1732 C 0.01382 0.60723 0.18248 0.0
C1733 C 0.01263 0.63606 0.18433 0.0
C1734 C 0.59874 0.77289 0.44916 0.0
C1735 C 0.58342 0.77066 0.47287 0.0
C1736 C 0.62651 0.77337 0.4499 0.0
C1737 C 0.64062 0.772 0.47441 0.0
H1738 H 0.58964 0.77561 0.4298 0.0
H1739 H 0.63705 0.77524 0.43094 0.0
S1740 S 0.61103 0.76733 0.54277 0.0
N1741 N 0.58563 0.76747 0.52209 0.0
N1742 N 0.63717 0.76921 0.52314 0.0
C1743 C 0.62581 0.76978 0.49828 0.0
C1744 C 0.59757 0.76906 0.49759 0.0
C1745 C 0.76251 0.52382 0.39283 0.0
C1746 C 0.74095 0.53659 0.40358 0.0
C1747 C 0.76846 0.52523 0.36498 0.0
C1748 C 0.75279 0.53893 0.34612 0.0
H1749 H 0.77436 0.51176 0.40591 0.0
H1750 H 0.78533 0.5148 0.35862 0.0
S1751 S 0.69594 0.57931 0.36577 0.0
N1752 N 0.70525 0.56551 0.39437 0.0
N1753 N 0.71624 0.56888 0.34255 0.0
C1754 C 0.73189 0.55313 0.35737 0.0
C1755 C 0.72599 0.55167 0.38579 0.0
C1756 C 0.73567 0.50285 0.61031 0.0
C1757 C 0.72795 0.4793 0.59562 0.0
C1758 C 0.7365 0.50279 0.63888 0.0
C1759 C 0.72962 0.47915 0.65388 0.0
H1760 H 0.74 0.52177 0.59968 0.0
H1761 H 0.74153 0.5216 0.64928 0.0
S1762 S 0.71197 0.41125 0.62501 0.0
N1763 N 0.71593 0.43119 0.59831 0.0
N1764 N 0.7178 0.43086 0.65151 0.0
C1765 C 0.72332 0.45518 0.63928 0.0
C1766 C 0.72237 0.45531 0.61036 0.0
C1767 C 0.77373 0.4803 0.89228 0.0
C1768 C 0.79776 0.47099 0.90138 0.0
C1769 C 0.76763 0.48177 0.86454 0.0
C1770 C 0.78532 0.47451 0.84393 0.0
H1771 H 0.75971 0.48738 0.90669 0.0
H1772 H 0.74858 0.48902 0.85948 0.0
S1773 S 0.85137 0.44839 0.85761 0.0
N1774 N 0.83943 0.45386 0.88793 0.0
N1775 N 0.82831 0.4567 0.83613 0.0
C1776 C 0.80933 0.46451 0.85306 0.0
C1777 C 0.81548 0.46294 0.88149 0.0
C1778 C 0.78371 0.52587 0.13795 0.0
C1779 C 0.79719 0.54837 0.15011 0.0
C1780 C 0.78683 0.51985 0.11029 0.0
C1781 C 0.80308 0.53637 0.09299 0.0
H1782 H 0.77033 0.51283 0.14976 0.0
H1783 H 0.7765 0.50178 0.10255 0.0
S1784 S 0.84368 0.59742 0.11465 0.0
N1785 N 0.82972 0.58575 0.14267 0.0
N1786 N 0.83221 0.57706 0.09059 0.0
C1787 C 0.81643 0.55915 0.10487 0.0
C1788 C 0.81435 0.56444 0.13327 0.0
C1789 C 0.44992 0.62835 0.74039 0.0
C1790 C 0.45602 0.65126 0.7236 0.0
C1791 C 0.45709 0.60202 0.7337 0.0
C1792 C 0.46964 0.59672 0.70924 0.0
H1793 H 0.43977 0.63014 0.75925 0.0
H1794 H 0.45407 0.58593 0.74849 0.0
S1795 S 0.47882 0.64537 0.65254 0.0
N1796 N 0.46681 0.66349 0.67699 0.0
N1797 N 0.48139 0.61465 0.66516 0.0
C1798 C 0.47212 0.6181 0.69049 0.0
C1799 C 0.46478 0.64502 0.69729 0.0
loop_
_geom_bond_atom_site_label_1
_geom_bond_atom_site_label_2
_geom_bond_distance
_geom_bond_site_symmetry_2
_ccdc_geom_bond_type
C0 C1 1.443 . S
C0 N4 1.376 . S
C0 C38 1.389 . S
C1 C0 1.443 . S
C1 C2 1.340 . S
C1 H41 0.951 . S
C2 C1 1.340 . S
C2 C3 1.439 . S
C2 H42 0.950 . S
C3 C2 1.439 . S
C3 N4 1.374 . S
C3 C37 1.395 . S
N4 C0 1.376 . S
N4 C3 1.374 . S
N4 Co5 2.008 . S
Co5 N4 2.008 . S
Co5 N6 1.995 . S
Co5 N11 2.008 . S
Co5 N16 1.995 . S
Co5 N21 2.282 . S
Co5 N27 2.282 . S
N6 Co5 1.995 . S
N6 C7 1.376 . S
N6 C10 1.383 . S
C7 N6 1.376 . S
C7 C8 1.446 . S
C7 C37 1.391 . S
C8 C7 1.446 . S
C8 C9 1.339 . S
C8 H43 0.949 . S
C9 C8 1.339 . S
C9 C10 1.439 . S
C9 H44 0.950 . S
C10 N6 1.383 . S
C10 C9 1.439 . S
C10 C39 1.392 . S
N11 Co5 2.008 . S
N11 C12 1.376 . S
N11 C15 1.374 . S
C12 N11 1.376 . S
C12 C13 1.443 . S
C12 C39 1.389 . S
C13 C12 1.443 . S
C13 C14 1.340 . S
C13 H45 0.951 . S
C14 C13 1.340 . S
C14 C15 1.439 . S
C14 H46 0.950 . S
C15 N11 1.374 . S
C15 C14 1.439 . S
C15 C40 1.395 . S
N16 Co5 1.995 . S
N16 C17 1.376 . S
N16 C20 1.383 . S
C17 N16 1.376 . S
C17 C18 1.446 . S
C17 C40 1.391 . S
C18 C17 1.446 . S
C18 C19 1.339 . S
C18 H47 0.949 . S
C19 C18 1.339 . S
C19 C20 1.439 . S
C19 H48 0.950 . S
C20 N16 1.383 . S
C20 C19 1.439 . S
C20 C38 1.392 . S
N21 Co5 2.282 . S
N21 C24 1.332 . S
N21 C26 1.332 . S
C22 C23 1.386 . S
C22 C25 1.388 . S
C23 C22 1.386 . S
C23 C24 1.382 . S
C23 H49 0.950 . S
C24 N21 1.332 . S
C24 C23 1.382 . S
C24 H35 0.952 . S
C25 C22 1.388 . S
C25 C26 1.382 . S
C25 H50 0.950 . S
C26 N21 1.332 . S
C26 C25 1.382 . S
C26 H36 0.948 . S
N27 Co5 2.282 . S
N27 C31 1.332 . S
N27 C32 1.332 . S
C28 C29 1.388 . S
C28 C32 1.382 . S
C28 H51 0.950 . S
C29 C28 1.388 . S
C29 C30 1.386 . S
C30 C29 1.386 . S
C30 C31 1.382 . S
C30 H52 0.950 . S
C31 N27 1.332 . S
C31 C30 1.382 . S
C31 H33 0.952 . S
C32 N27 1.332 . S
C32 C28 1.382 . S
C32 H34 0.948 . S
H33 C31 0.952 . S
H34 C32 0.948 . S
H35 C24 0.952 . S
H36 C26 0.948 . S
C37 C3 1.395 . S
C37 C7 1.391 . S
C38 C0 1.389 . S
C38 C20 1.392 . S
C39 C10 1.392 . S
C39 C12 1.389 . S
C40 C15 1.395 . S
C40 C17 1.391 . S
H41 C1 0.951 . S
H42 C2 0.950 . S
H43 C8 0.949 . S
H44 C9 0.950 . S
H45 C13 0.951 . S
H46 C14 0.950 . S
H47 C18 0.949 . S
H48 C19 0.950 . S
H49 C23 0.950 . S
H50 C25 0.950 . S
H51 C28 0.950 . S
H52 C30 0.950 . S
C53 C54 1.443 . S
C53 N57 1.376 . S
C53 C91 1.389 . S
C54 C53 1.443 . S
C54 C55 1.340 . S
C54 H94 0.951 . S
C55 C54 1.340 . S
C55 C56 1.439 . S
C55 H95 0.950 . S
C56 C55 1.439 . S
C56 N57 1.374 . S
C56 C90 1.395 1_655 S
N57 C53 1.376 . S
N57 C56 1.374 . S
N57 Co58 2.008 1_655 S
Co58 N57 2.008 1_455 S
Co58 N59 1.995 . S
Co58 N64 2.008 . S
Co58 N69 1.995 1_455 S
Co58 N74 2.282 . S
Co58 N80 2.282 1_455 S
N59 Co58 1.995 . S
N59 C60 1.376 . S
N59 C63 1.383 . S
C60 N59 1.376 . S
C60 C61 1.446 . S
C60 C90 1.391 . S
C61 C60 1.446 . S
C61 C62 1.339 . S
C61 H96 0.949 . S
C62 C61 1.339 . S
C62 C63 1.439 . S
C62 H97 0.950 . S
C63 N59 1.383 . S
C63 C62 1.439 . S
C63 C92 1.392 . S
N64 Co58 2.008 . S
N64 C65 1.376 . S
N64 C68 1.374 . S
C65 N64 1.376 . S
C65 C66 1.443 . S
C65 C92 1.389 . S
C66 C65 1.443 . S
C66 C67 1.340 . S
C66 H98 0.951 . S
C67 C66 1.340 . S
C67 C68 1.439 . S
C67 H99 0.950 . S
C68 N64 1.374 . S
C68 C67 1.439 . S
C68 C93 1.395 1_455 S
N69 Co58 1.995 1_655 S
N69 C70 1.376 . S
N69 C73 1.383 . S
C70 N69 1.376 . S
C70 C71 1.446 . S
C70 C93 1.391 . S
C71 C70 1.446 . S
C71 C72 1.339 . S
C71 H100 0.949 . S
C72 C71 1.339 . S
C72 C73 1.439 . S
C72 H101 0.950 . S
C73 N69 1.383 . S
C73 C72 1.439 . S
C73 C91 1.392 . S
N74 Co58 2.282 . S
N74 C77 1.332 . S
N74 C79 1.332 . S
C75 C76 1.386 . S
C75 C78 1.388 . S
C76 C75 1.386 . S
C76 C77 1.382 . S
C76 H102 0.950 . S
C77 N74 1.332 . S
C77 C76 1.382 . S
C77 H88 0.952 1_455 S
C78 C75 1.388 . S
C78 C79 1.382 . S
C78 H103 0.950 . S
C79 N74 1.332 . S
C79 C78 1.382 . S
C79 H89 0.948 . S
N80 Co58 2.282 1_655 S
N80 C84 1.332 . S
N80 C85 1.332 . S
C81 C82 1.388 . S
C81 C85 1.382 . S
C81 H104 0.950 . S
C82 C81 1.388 . S
C82 C83 1.386 . S
C83 C82 1.386 . S
C83 C84 1.382 . S
C83 H105 0.950 . S
C84 N80 1.332 . S
C84 C83 1.382 . S
C84 H86 0.952 1_655 S
C85 N80 1.332 . S
C85 C81 1.382 . S
C85 H87 0.948 . S
H86 C84 0.952 1_455 S
H87 C85 0.948 . S
H88 C77 0.952 1_655 S
H89 C79 0.948 . S
C90 C56 1.395 1_455 S
C90 C60 1.391 . S
C91 C53 1.389 . S
C91 C73 1.392 . S
C92 C63 1.392 . S
C92 C65 1.389 . S
C93 C68 1.395 1_655 S
C93 C70 1.391 . S
H94 C54 0.951 . S
H95 C55 0.950 . S
H96 C61 0.949 . S
H97 C62 0.950 . S
H98 C66 0.951 . S
H99 C67 0.950 . S
H100 C71 0.949 . S
H101 C72 0.950 . S
H102 C76 0.950 . S
H103 C78 0.950 . S
H104 C81 0.950 . S
H105 C83 0.950 . S
C106 C107 1.443 . S
C106 N110 1.376 . S
C106 C144 1.389 . S
C107 C106 1.443 . S
C107 C108 1.340 . S
C107 H147 0.951 . S
C108 C107 1.340 . S
C108 C109 1.439 . S
C108 H148 0.950 . S
C109 C108 1.439 . S
C109 N110 1.374 . S
C109 C143 1.395 . S
N110 C106 1.376 . S
N110 C109 1.374 . S
N110 Co111 2.008 . S
Co111 N110 2.008 . S
Co111 N112 1.995 . S
Co111 N117 2.008 . S
Co111 N122 1.995 . S
Co111 N127 2.282 . S
Co111 N133 2.282 . S
N112 Co111 1.995 . S
N112 C113 1.376 . S
N112 C116 1.383 . S
C113 N112 1.376 . S
C113 C114 1.446 . S
C113 C143 1.391 . S
C114 C113 1.446 . S
C114 C115 1.339 . S
C114 H149 0.949 . S
C115 C114 1.339 . S
C115 C116 1.439 . S
C115 H150 0.950 . S
C116 N112 1.383 . S
C116 C115 1.439 . S
C116 C145 1.392 . S
N117 Co111 2.008 . S
N117 C118 1.376 . S
N117 C121 1.374 . S
C118 N117 1.376 . S
C118 C119 1.443 . S
C118 C145 1.389 . S
C119 C118 1.443 . S
C119 C120 1.340 . S
C119 H151 0.951 . S
C120 C119 1.340 . S
C120 C121 1.439 . S
C120 H152 0.950 . S
C121 N117 1.374 . S
C121 C120 1.439 . S
C121 C146 1.395 . S
N122 Co111 1.995 . S
N122 C123 1.376 . S
N122 C126 1.383 . S
C123 N122 1.376 . S
C123 C124 1.446 . S
C123 C146 1.391 . S
C124 C123 1.446 . S
C124 C125 1.339 . S
C124 H153 0.949 . S
C125 C124 1.339 . S
C125 C126 1.439 . S
C125 H154 0.950 . S
C126 N122 1.383 . S
C126 C125 1.439 . S
C126 C144 1.392 . S
N127 Co111 2.282 . S
N127 C130 1.332 . S
N127 C132 1.332 . S
C128 C129 1.386 . S
C128 C131 1.388 . S
C129 C128 1.386 . S
C129 C130 1.382 . S
C129 H155 0.950 . S
C130 N127 1.332 . S
C130 C129 1.382 . S
C130 H141 0.952 . S
C131 C128 1.388 . S
C131 C132 1.382 . S
C131 H156 0.950 . S
C132 N127 1.332 . S
C132 C131 1.382 . S
C132 H142 0.948 . S
N133 Co111 2.282 . S
N133 C137 1.332 . S
N133 C138 1.332 . S
C134 C135 1.388 . S
C134 C138 1.382 . S
C134 H157 0.950 . S
C135 C134 1.388 . S
C135 C136 1.386 . S
C136 C135 1.386 . S
C136 C137 1.382 . S
C136 H158 0.950 . S
C137 N133 1.332 . S
C137 C136 1.382 . S
C137 H139 0.952 . S
C138 N133 1.332 . S
C138 C134 1.382 . S
C138 H140 0.948 . S
H139 C137 0.952 . S
H140 C138 0.948 . S
H141 C130 0.952 . S
H142 C132 0.948 . S
C143 C109 1.395 . S
C143 C113 1.391 . S
C144 C106 1.389 . S
C144 C126 1.392 . S
C145 C116 1.392 . S
C145 C118 1.389 . S
C146 C121 1.395 . S
C146 C123 1.391 . S
H147 C107 0.951 . S
H148 C108 0.950 . S
H149 C114 0.949 . S
H150 C115 0.950 . S
H151 C119 0.951 . S
H152 C120 0.950 . S
H153 C124 0.949 . S
H154 C125 0.950 . S
H155 C129 0.950 . S
H156 C131 0.950 . S
H157 C134 0.950 . S
H158 C136 0.950 . S
C159 C160 1.443 . S
C159 N163 1.376 . S
C159 C197 1.389 . S
C160 C159 1.443 . S
C160 C161 1.340 . S
C160 H200 0.951 . S
C161 C160 1.340 . S
C161 C162 1.439 . S
C161 H201 0.950 . S
C162 C161 1.439 . S
C162 N163 1.374 . S
C162 C196 1.395 . S
N163 C159 1.376 . S
N163 C162 1.374 . S
N163 Co164 2.008 . S
Co164 N163 2.008 . S
Co164 N165 1.995 . S
Co164 N170 2.008 1_556 S
Co164 N175 1.995 1_556 S
Co164 N180 2.282 1_556 S
Co164 N186 2.282 . S
N165 Co164 1.995 . S
N165 C166 1.376 . S
N165 C169 1.383 . S
C166 N165 1.376 . S
C166 C167 1.446 . S
C166 C196 1.391 . S
C167 C166 1.446 . S
C167 C168 1.339 . S
C167 H202 0.949 . S
C168 C167 1.339 . S
C168 C169 1.439 . S
C168 H203 0.950 . S
C169 N165 1.383 . S
C169 C168 1.439 . S
C169 C198 1.392 1_556 S
N170 Co164 2.008 1_554 S
N170 C171 1.376 . S
N170 C174 1.374 . S
C171 N170 1.376 . S
C171 C172 1.443 . S
C171 C198 1.389 . S
C172 C171 1.443 . S
C172 C173 1.340 . S
C172 H204 0.951 . S
C173 C172 1.340 . S
C173 C174 1.439 . S
C173 H205 0.950 . S
C174 N170 1.374 . S
C174 C173 1.439 . S
C174 C199 1.395 . S
N175 Co164 1.995 1_554 S
N175 C176 1.376 . S
N175 C179 1.383 . S
C176 N175 1.376 . S
C176 C177 1.446 . S
C176 C199 1.391 . S
C177 C176 1.446 . S
C177 C178 1.339 . S
C177 H206 0.949 . S
C178 C177 1.339 . S
C178 C179 1.439 . S
C178 H207 0.950 . S
C179 N175 1.383 . S
C179 C178 1.439 . S
C179 C197 1.392 1_554 S
N180 Co164 2.282 1_554 S
N180 C183 1.332 . S
N180 C185 1.332 . S
C181 C182 1.386 . S
C181 C184 1.388 . S
C182 C181 1.386 . S
C182 C183 1.382 . S
C182 H208 0.950 . S
C183 N180 1.332 . S
C183 C182 1.382 . S
C183 H194 0.952 . S
C184 C181 1.388 . S
C184 C185 1.382 . S
C184 H209 0.950 . S
C185 N180 1.332 . S
C185 C184 1.382 . S
C185 H195 0.948 1_554 S
N186 Co164 2.282 . S
N186 C190 1.332 . S
N186 C191 1.332 . S
C187 C188 1.388 . S
C187 C191 1.382 . S
C187 H210 0.950 . S
C188 C187 1.388 . S
C188 C189 1.386 . S
C189 C188 1.386 . S
C189 C190 1.382 . S
C189 H211 0.950 . S
C190 N186 1.332 . S
C190 C189 1.382 . S
C190 H192 0.952 . S
C191 N186 1.332 . S
C191 C187 1.382 . S
C191 H193 0.948 1_556 S
H192 C190 0.952 . S
H193 C191 0.948 1_554 S
H194 C183 0.952 . S
H195 C185 0.948 1_556 S
C196 C162 1.395 . S
C196 C166 1.391 . S
C197 C159 1.389 . S
C197 C179 1.392 1_556 S
C198 C169 1.392 1_554 S
C198 C171 1.389 . S
C199 C174 1.395 . S
C199 C176 1.391 . S
H200 C160 0.951 . S
H201 C161 0.950 . S
H202 C167 0.949 . S
H203 C168 0.950 . S
H204 C172 0.951 . S
H205 C173 0.950 . S
H206 C177 0.949 . S
H207 C178 0.950 . S
H208 C182 0.950 . S
H209 C184 0.950 . S
H210 C187 0.950 . S
H211 C189 0.950 . S
C212 C213 1.443 . S
C212 N216 1.371 1_565 S
C212 C250 1.389 . S
C213 C212 1.443 . S
C213 C214 1.340 1_565 S
C213 H253 0.951 . S
C214 C213 1.340 1_545 S
C214 C215 1.439 . S
C214 H254 0.950 . S
C215 C214 1.439 . S
C215 N216 1.379 . S
C215 C249 1.395 . S
N216 C212 1.371 1_545 S
N216 C215 1.379 . S
N216 Co217 2.007 1_645 S
Co217 N216 2.007 1_465 S
Co217 N218 1.995 1_465 S
Co217 N223 2.007 . S
Co217 N228 1.995 . S
Co217 N233 2.282 1_565 S
Co217 N239 2.282 1_455 S
N218 Co217 1.995 1_645 S
N218 C219 1.376 . S
N218 C222 1.383 1_655 S
C219 N218 1.376 . S
C219 C220 1.446 . S
C219 C249 1.391 . S
C220 C219 1.446 . S
C220 C221 1.339 1_655 S
C220 H255 0.949 . S
C221 C220 1.339 1_455 S
C221 C222 1.439 . S
C221 H256 0.950 . S
C222 N218 1.383 1_455 S
C222 C221 1.439 . S
C222 C251 1.392 . S
N223 Co217 2.007 . S
N223 C224 1.366 1_565 S
N223 C227 1.383 . S
C224 N223 1.366 1_545 S
C224 C225 1.443 . S
C224 C251 1.389 . S
C225 C224 1.443 . S
C225 C226 1.340 1_545 S
C225 H257 0.951 . S
C226 C225 1.340 1_565 S
C226 C227 1.439 . S
C226 H258 0.950 . S
C227 N223 1.383 . S
C227 C226 1.439 . S
C227 C252 1.395 . S
N228 Co217 1.995 . S
N228 C229 1.376 . S
N228 C232 1.383 1_455 S
C229 N228 1.376 . S
C229 C230 1.446 . S
C229 C252 1.391 . S
C230 C229 1.446 . S
C230 C231 1.339 1_455 S
C230 H259 0.949 . S
C231 C230 1.339 1_655 S
C231 C232 1.439 . S
C231 H260 0.950 . S
C232 N228 1.383 1_655 S
C232 C231 1.439 . S
C232 C250 1.392 . S
N233 Co217 2.282 1_545 S
N233 C236 1.332 . S
N233 C238 1.332 . S
C234 C235 1.386 . S
C234 C237 1.388 . S
C235 C234 1.386 . S
C235 C236 1.382 . S
C235 H261 0.950 . S
C236 N233 1.332 . S
C236 C235 1.382 . S
C236 H247 0.952 . S
C237 C234 1.388 . S
C237 C238 1.382 . S
C237 H262 0.950 . S
C238 N233 1.332 . S
C238 C237 1.382 . S
C238 H248 0.948 1_455 S
N239 Co217 2.282 1_655 S
N239 C243 1.332 . S
N239 C244 1.332 . S
C240 C241 1.388 . S
C240 C244 1.382 . S
C240 H263 0.950 . S
C241 C240 1.388 . S
C241 C242 1.386 . S
C242 C241 1.386 . S
C242 C243 1.382 . S
C242 H264 0.950 . S
C243 N239 1.332 . S
C243 C242 1.382 . S
C243 H245 0.952 . S
C244 N239 1.332 . S
C244 C240 1.382 . S
C244 H246 0.948 1_655 S
H245 C243 0.952 . S
H246 C244 0.948 1_455 S
H247 C236 0.952 . S
H248 C238 0.948 1_655 S
C249 C215 1.395 . S
C249 C219 1.391 . S
C250 C212 1.389 . S
C250 C232 1.392 . S
C251 C222 1.392 . S
C251 C224 1.389 . S
C252 C227 1.395 . S
C252 C229 1.391 . S
H253 C213 0.951 . S
H254 C214 0.950 . S
H255 C220 0.949 . S
H256 C221 0.950 . S
H257 C225 0.951 . S
H258 C226 0.950 . S
H259 C230 0.949 . S
H260 C231 0.950 . S
H261 C235 0.950 . S
H262 C237 0.950 . S
H263 C240 0.950 . S
H264 C242 0.950 . S
C265 C266 1.443 . S
C265 N269 1.376 . S
C265 C303 1.389 . S
C266 C265 1.443 . S
C266 C267 1.340 . S
C266 H306 0.951 . S
C267 C266 1.340 . S
C267 C268 1.439 . S
C267 H307 0.950 . S
C268 C267 1.439 . S
C268 N269 1.374 . S
C268 C302 1.395 . S
N269 C265 1.376 . S
N269 C268 1.374 . S
N269 Co270 2.008 . S
Co270 N269 2.008 . S
Co270 N271 1.995 . S
Co270 N276 2.008 . S
Co270 N281 1.995 . S
Co270 N286 2.282 . S
Co270 N292 2.282 . S
N271 Co270 1.995 . S
N271 C272 1.376 . S
N271 C275 1.383 . S
C272 N271 1.376 . S
C272 C273 1.446 . S
C272 C302 1.391 . S
C273 C272 1.446 . S
C273 C274 1.339 . S
C273 H308 0.949 . S
C274 C273 1.339 . S
C274 C275 1.439 . S
C274 H309 0.950 . S
C275 N271 1.383 . S
C275 C274 1.439 . S
C275 C304 1.392 . S
N276 Co270 2.008 . S
N276 C277 1.376 . S
N276 C280 1.374 . S
C277 N276 1.376 . S
C277 C278 1.443 . S
C277 C304 1.389 . S
C278 C277 1.443 . S
C278 C279 1.340 . S
C278 H310 0.951 . S
C279 C278 1.340 . S
C279 C280 1.439 . S
C279 H311 0.950 . S
C280 N276 1.374 . S
C280 C279 1.439 . S
C280 C305 1.395 . S
N281 Co270 1.995 . S
N281 C282 1.376 . S
N281 C285 1.383 . S
C282 N281 1.376 . S
C282 C283 1.446 . S
C282 C305 1.391 . S
C283 C282 1.446 . S
C283 C284 1.339 . S
C283 H312 0.949 . S
C284 C283 1.339 . S
C284 C285 1.439 . S
C284 H313 0.950 . S
C285 N281 1.383 . S
C285 C284 1.439 . S
C285 C303 1.392 . S
N286 Co270 2.282 . S
N286 C289 1.332 . S
N286 C291 1.332 . S
C287 C288 1.386 . S
C287 C290 1.388 . S
C288 C287 1.386 . S
C288 C289 1.382 . S
C288 H314 0.950 . S
C289 N286 1.332 . S
C289 C288 1.382 . S
C289 H300 0.952 . S
C290 C287 1.388 . S
C290 C291 1.382 . S
C290 H315 0.950 . S
C291 N286 1.332 . S
C291 C290 1.382 . S
C291 H301 0.948 . S
N292 Co270 2.282 . S
N292 C296 1.332 . S
N292 C297 1.332 . S
C293 C294 1.388 . S
C293 C297 1.382 . S
C293 H316 0.950 . S
C294 C293 1.388 . S
C294 C295 1.386 . S
C295 C294 1.386 . S
C295 C296 1.382 . S
C295 H317 0.950 . S
C296 N292 1.332 . S
C296 C295 1.382 . S
C296 H298 0.952 . S
C297 N292 1.332 . S
C297 C293 1.382 . S
C297 H299 0.948 . S
H298 C296 0.952 . S
H299 C297 0.948 . S
H300 C289 0.952 . S
H301 C291 0.948 . S
C302 C268 1.395 . S
C302 C272 1.391 . S
C303 C265 1.389 . S
C303 C285 1.392 . S
C304 C275 1.392 . S
C304 C277 1.389 . S
C305 C280 1.395 . S
C305 C282 1.391 . S
H306 C266 0.951 . S
H307 C267 0.950 . S
H308 C273 0.949 . S
H309 C274 0.950 . S
H310 C278 0.951 . S
H311 C279 0.950 . S
H312 C283 0.949 . S
H313 C284 0.950 . S
H314 C288 0.950 . S
H315 C290 0.950 . S
H316 C293 0.950 . S
H317 C295 0.950 . S
C318 C319 1.443 . S
C318 N322 1.396 . S
C318 C356 1.389 . S
C319 C318 1.443 . S
C319 C320 1.329 1_545 S
C319 H359 0.951 . S
C320 C319 1.329 1_565 S
C320 C321 1.444 . S
C320 H360 0.956 . S
C321 C320 1.444 . S
C321 N322 1.359 1_565 S
C321 C355 1.395 . S
N322 C318 1.396 . S
N322 C321 1.359 1_545 S
N322 Co323 2.010 . S
Co323 N322 2.010 . S
Co323 N324 1.995 1_545 S
Co323 N329 2.009 1_545 S
Co323 N334 1.995 . S
Co323 N339 2.282 1_545 S
Co323 N345 2.282 . S
N324 Co323 1.995 1_565 S
N324 C325 1.376 . S
N324 C328 1.383 . S
C325 N324 1.376 . S
C325 C326 1.446 . S
C325 C355 1.391 . S
C326 C325 1.446 . S
C326 C327 1.339 . S
C326 H361 0.949 . S
C327 C326 1.339 . S
C327 C328 1.439 . S
C327 H362 0.950 . S
C328 N324 1.383 . S
C328 C327 1.439 . S
C328 C357 1.392 . S
N329 Co323 2.009 1_565 S
N329 C330 1.391 . S
N329 C333 1.363 1_565 S
C330 N329 1.391 . S
C330 C331 1.443 . S
C330 C357 1.389 . S
C331 C330 1.443 . S
C331 C332 1.323 1_565 S
C331 H363 0.951 . S
C332 C331 1.323 1_545 S
C332 C333 1.446 . S
C332 H364 0.959 . S
C333 N329 1.363 1_545 S
C333 C332 1.446 . S
C333 C358 1.395 . S
N334 Co323 1.995 . S
N334 C335 1.376 . S
N334 C338 1.383 . S
C335 N334 1.376 . S
C335 C336 1.446 . S
C335 C358 1.391 . S
C336 C335 1.446 . S
C336 C337 1.339 . S
C336 H365 0.949 . S
C337 C336 1.339 . S
C337 C338 1.439 . S
C337 H366 0.950 . S
C338 N334 1.383 . S
C338 C337 1.439 . S
C338 C356 1.392 . S
N339 Co323 2.282 1_565 S
N339 C342 1.332 . S
N339 C344 1.332 . S
C340 C341 1.386 . S
C340 C343 1.388 . S
C341 C340 1.386 . S
C341 C342 1.382 . S
C341 H367 0.950 . S
C342 N339 1.332 . S
C342 C341 1.382 . S
C342 H353 0.952 . S
C343 C340 1.388 . S
C343 C344 1.382 . S
C343 H368 0.950 . S
C344 N339 1.332 . S
C344 C343 1.382 . S
C344 H354 0.948 . S
N345 Co323 2.282 . S
N345 C349 1.332 . S
N345 C350 1.332 . S
C346 C347 1.388 . S
C346 C350 1.382 . S
C346 H369 0.950 . S
C347 C346 1.388 . S
C347 C348 1.386 . S
C348 C347 1.386 . S
C348 C349 1.382 . S
C348 H370 0.950 . S
C349 N345 1.332 . S
C349 C348 1.382 . S
C349 H351 0.952 . S
C350 N345 1.332 . S
C350 C346 1.382 . S
C350 H352 0.948 . S
H351 C349 0.952 . S
H352 C350 0.948 . S
H353 C342 0.952 . S
H354 C344 0.948 . S
C355 C321 1.395 . S
C355 C325 1.391 . S
C356 C318 1.389 . S
C356 C338 1.392 . S
C357 C328 1.392 . S
C357 C330 1.389 . S
C358 C333 1.395 . S
C358 C335 1.391 . S
H359 C319 0.951 . S
H360 C320 0.956 . S
H361 C326 0.949 . S
H362 C327 0.950 . S
H363 C331 0.951 . S
H364 C332 0.959 . S
H365 C336 0.949 . S
H366 C337 0.950 . S
H367 C341 0.950 . S
H368 C343 0.950 . S
H369 C346 0.950 . S
H370 C348 0.950 . S
C371 C372 1.443 . S
C371 N375 1.376 . S
C371 C409 1.389 . S
C372 C371 1.443 . S
C372 C373 1.340 . S
C372 H412 0.951 . S
C373 C372 1.340 . S
C373 C374 1.439 . S
C373 H413 0.950 . S
C374 C373 1.439 . S
C374 N375 1.374 . S
C374 C408 1.395 . S
N375 C371 1.376 . S
N375 C374 1.374 . S
N375 Co376 2.008 . S
Co376 N375 2.008 . S
Co376 N377 1.995 . S
Co376 N382 2.008 . S
Co376 N387 1.995 . S
Co376 N392 2.282 . S
Co376 N398 2.282 . S
N377 Co376 1.995 . S
N377 C378 1.376 . S
N377 C381 1.383 . S
C378 N377 1.376 . S
C378 C379 1.446 . S
C378 C408 1.391 . S
C379 C378 1.446 . S
C379 C380 1.339 . S
C379 H414 0.949 . S
C380 C379 1.339 . S
C380 C381 1.439 . S
C380 H415 0.950 . S
C381 N377 1.383 . S
C381 C380 1.439 . S
C381 C410 1.392 . S
N382 Co376 2.008 . S
N382 C383 1.376 . S
N382 C386 1.374 . S
C383 N382 1.376 . S
C383 C384 1.443 . S
C383 C410 1.389 . S
C384 C383 1.443 . S
C384 C385 1.340 . S
C384 H416 0.951 . S
C385 C384 1.340 . S
C385 C386 1.439 . S
C385 H417 0.950 . S
C386 N382 1.374 . S
C386 C385 1.439 . S
C386 C411 1.395 . S
N387 Co376 1.995 . S
N387 C388 1.376 . S
N387 C391 1.383 . S
C388 N387 1.376 . S
C388 C389 1.446 . S
C388 C411 1.391 . S
C389 C388 1.446 . S
C389 C390 1.339 . S
C389 H418 0.949 . S
C390 C389 1.339 . S
C390 C391 1.439 . S
C390 H419 0.950 . S
C391 N387 1.383 . S
C391 C390 1.439 . S
C391 C409 1.392 . S
N392 Co376 2.282 . S
N392 C395 1.332 . S
N392 C397 1.332 . S
C393 C394 1.386 . S
C393 C396 1.388 . S
C394 C393 1.386 . S
C394 C395 1.382 . S
C394 H420 0.950 . S
C395 N392 1.332 . S
C395 C394 1.382 . S
C395 H406 0.952 . S
C396 C393 1.388 . S
C396 C397 1.382 . S
C396 H421 0.950 . S
C397 N392 1.332 . S
C397 C396 1.382 . S
C397 H407 0.948 . S
N398 Co376 2.282 . S
N398 C402 1.332 . S
N398 C403 1.332 . S
C399 C400 1.388 . S
C399 C403 1.382 . S
C399 H422 0.950 . S
C400 C399 1.388 . S
C400 C401 1.386 . S
C401 C400 1.386 . S
C401 C402 1.382 . S
C401 H423 0.950 . S
C402 N398 1.332 . S
C402 C401 1.382 . S
C402 H404 0.952 . S
C403 N398 1.332 . S
C403 C399 1.382 . S
C403 H405 0.948 . S
H404 C402 0.952 . S
H405 C403 0.948 . S
H406 C395 0.952 . S
H407 C397 0.948 . S
C408 C374 1.395 . S
C408 C378 1.391 . S
C409 C371 1.389 . S
C409 C391 1.392 . S
C410 C381 1.392 . S
C410 C383 1.389 . S
C411 C386 1.395 . S
C411 C388 1.391 . S
H412 C372 0.951 . S
H413 C373 0.950 . S
H414 C379 0.949 . S
H415 C380 0.950 . S
H416 C384 0.951 . S
H417 C385 0.950 . S
H418 C389 0.949 . S
H419 C390 0.950 . S
H420 C394 0.950 . S
H421 C396 0.950 . S
H422 C399 0.950 . S
H423 C401 0.950 . S
C424 C425 1.443 . S
C424 N428 1.376 . S
C424 C462 1.389 . S
C425 C424 1.443 . S
C425 C426 1.340 . S
C425 H465 0.951 . S
C426 C425 1.340 . S
C426 C427 1.439 . S
C426 H466 0.950 . S
C427 C426 1.439 . S
C427 N428 1.374 . S
C427 C461 1.395 . S
N428 C424 1.376 . S
N428 C427 1.374 . S
N428 Co429 2.008 . S
Co429 N428 2.008 . S
Co429 N430 1.995 . S
Co429 N435 2.008 . S
Co429 N440 1.995 . S
Co429 N445 2.282 . S
Co429 N451 2.282 . S
N430 Co429 1.995 . S
N430 C431 1.376 . S
N430 C434 1.383 . S
C431 N430 1.376 . S
C431 C432 1.446 . S
C431 C461 1.391 . S
C432 C431 1.446 . S
C432 C433 1.339 . S
C432 H467 0.949 . S
C433 C432 1.339 . S
C433 C434 1.439 . S
C433 H468 0.950 . S
C434 N430 1.383 . S
C434 C433 1.439 . S
C434 C463 1.392 . S
N435 Co429 2.008 . S
N435 C436 1.376 . S
N435 C439 1.374 . S
C436 N435 1.376 . S
C436 C437 1.443 . S
C436 C463 1.389 . S
C437 C436 1.443 . S
C437 C438 1.340 . S
C437 H469 0.951 . S
C438 C437 1.340 . S
C438 C439 1.439 . S
C438 H470 0.950 . S
C439 N435 1.374 . S
C439 C438 1.439 . S
C439 C464 1.395 . S
N440 Co429 1.995 . S
N440 C441 1.376 . S
N440 C444 1.383 . S
C441 N440 1.376 . S
C441 C442 1.446 . S
C441 C464 1.391 . S
C442 C441 1.446 . S
C442 C443 1.339 . S
C442 H471 0.949 . S
C443 C442 1.339 . S
C443 C444 1.439 . S
C443 H472 0.950 . S
C444 N440 1.383 . S
C444 C443 1.439 . S
C444 C462 1.392 . S
N445 Co429 2.282 . S
N445 C448 1.332 . S
N445 C450 1.332 . S
C446 C447 1.386 . S
C446 C449 1.388 . S
C447 C446 1.386 . S
C447 C448 1.382 . S
C447 H473 0.950 . S
C448 N445 1.332 . S
C448 C447 1.382 . S
C448 H459 0.952 . S
C449 C446 1.388 . S
C449 C450 1.382 . S
C449 H474 0.950 . S
C450 N445 1.332 . S
C450 C449 1.382 . S
C450 H460 0.948 . S
N451 Co429 2.282 . S
N451 C455 1.332 . S
N451 C456 1.332 . S
C452 C453 1.388 . S
C452 C456 1.382 . S
C452 H475 0.950 . S
C453 C452 1.388 . S
C453 C454 1.386 . S
C454 C453 1.386 . S
C454 C455 1.382 . S
C454 H476 0.950 . S
C455 N451 1.332 . S
C455 C454 1.382 . S
C455 H457 0.952 . S
C456 N451 1.332 . S
C456 C452 1.382 . S
C456 H458 0.948 . S
H457 C455 0.952 . S
H458 C456 0.948 . S
H459 C448 0.952 . S
H460 C450 0.948 . S
C461 C427 1.395 . S
C461 C431 1.391 . S
C462 C424 1.389 . S
C462 C444 1.392 . S
C463 C434 1.392 . S
C463 C436 1.389 . S
C464 C439 1.395 . S
C464 C441 1.391 . S
H465 C425 0.951 . S
H466 C426 0.950 . S
H467 C432 0.949 . S
H468 C433 0.950 . S
H469 C437 0.951 . S
H470 C438 0.950 . S
H471 C442 0.949 . S
H472 C443 0.950 . S
H473 C447 0.950 . S
H474 C449 0.950 . S
H475 C452 0.950 . S
H476 C454 0.950 . S
C477 C478 1.443 . S
C477 N481 1.376 . S
C477 C515 1.389 . S
C478 C477 1.443 . S
C478 C479 1.340 . S
C478 H518 0.951 . S
C479 C478 1.340 . S
C479 C480 1.439 . S
C479 H519 0.950 . S
C480 C479 1.439 . S
C480 N481 1.374 . S
C480 C514 1.395 . S
N481 C477 1.376 . S
N481 C480 1.374 . S
N481 Co482 2.008 . S
Co482 N481 2.008 . S
Co482 N483 1.995 . S
Co482 N488 2.008 1_565 S
Co482 N493 1.995 1_565 S
Co482 N498 2.282 1_565 S
Co482 N504 2.282 . S
N483 Co482 1.995 . S
N483 C484 1.376 . S
N483 C487 1.383 . S
C484 N483 1.376 . S
C484 C485 1.446 . S
C484 C514 1.391 . S
C485 C484 1.446 . S
C485 C486 1.339 . S
C485 H520 0.949 . S
C486 C485 1.339 . S
C486 C487 1.439 . S
C486 H521 0.950 . S
C487 N483 1.383 . S
C487 C486 1.439 . S
C487 C516 1.392 1_565 S
N488 Co482 2.008 1_545 S
N488 C489 1.376 . S
N488 C492 1.374 . S
C489 N488 1.376 . S
C489 C490 1.443 . S
C489 C516 1.389 . S
C490 C489 1.443 . S
C490 C491 1.340 . S
C490 H522 0.951 . S
C491 C490 1.340 . S
C491 C492 1.439 . S
C491 H523 0.950 . S
C492 N488 1.374 . S
C492 C491 1.439 . S
C492 C517 1.395 . S
N493 Co482 1.995 1_545 S
N493 C494 1.376 . S
N493 C497 1.383 1_545 S
C494 N493 1.376 . S
C494 C495 1.446 . S
C494 C517 1.391 . S
C495 C494 1.446 . S
C495 C496 1.339 . S
C495 H524 0.949 . S
C496 C495 1.339 . S
C496 C497 1.439 1_545 S
C496 H525 0.950 . S
C497 N493 1.383 1_565 S
C497 C496 1.439 1_565 S
C497 C515 1.392 . S
N498 Co482 2.282 1_545 S
N498 C501 1.332 . S
N498 C503 1.332 . S
C499 C500 1.386 . S
C499 C502 1.388 . S
C500 C499 1.386 . S
C500 C501 1.382 . S
C500 H526 0.950 . S
C501 N498 1.332 . S
C501 C500 1.382 . S
C501 H512 0.952 . S
C502 C499 1.388 . S
C502 C503 1.382 . S
C502 H527 0.950 . S
C503 N498 1.332 . S
C503 C502 1.382 . S
C503 H513 0.948 1_545 S
N504 Co482 2.282 . S
N504 C508 1.332 . S
N504 C509 1.332 . S
C505 C506 1.388 . S
C505 C509 1.382 . S
C505 H528 0.950 . S
C506 C505 1.388 . S
C506 C507 1.386 . S
C507 C506 1.386 . S
C507 C508 1.382 . S
C507 H529 0.950 . S
C508 N504 1.332 . S
C508 C507 1.382 . S
C508 H510 0.952 . S
C509 N504 1.332 . S
C509 C505 1.382 . S
C509 H511 0.948 . S
H510 C508 0.952 . S
H511 C509 0.948 . S
H512 C501 0.952 . S
H513 C503 0.948 1_565 S
C514 C480 1.395 . S
C514 C484 1.391 . S
C515 C477 1.389 . S
C515 C497 1.392 . S
C516 C487 1.392 1_545 S
C516 C489 1.389 . S
C517 C492 1.395 . S
C517 C494 1.391 . S
H518 C478 0.951 . S
H519 C479 0.950 . S
H520 C485 0.949 . S
H521 C486 0.950 . S
H522 C490 0.951 . S
H523 C491 0.950 . S
H524 C495 0.949 . S
H525 C496 0.950 . S
H526 C500 0.950 . S
H527 C502 0.950 . S
H528 C505 0.950 . S
H529 C507 0.950 . S
C530 C531 1.443 . S
C530 N534 1.376 . S
C530 C568 1.389 . S
C531 C530 1.443 . S
C531 C532 1.340 . S
C531 H571 0.951 . S
C532 C531 1.340 . S
C532 C533 1.439 . S
C532 H572 0.950 . S
C533 C532 1.439 . S
C533 N534 1.374 . S
C533 C567 1.395 . S
N534 C530 1.376 . S
N534 C533 1.374 . S
N534 Co535 2.008 . S
Co535 N534 2.008 . S
Co535 N536 1.995 . S
Co535 N541 2.008 . S
Co535 N546 1.995 . S
Co535 N551 2.282 . S
Co535 N557 2.282 . S
N536 Co535 1.995 . S
N536 C537 1.376 . S
N536 C540 1.383 . S
C537 N536 1.376 . S
C537 C538 1.446 . S
C537 C567 1.391 . S
C538 C537 1.446 . S
C538 C539 1.339 . S
C538 H573 0.949 . S
C539 C538 1.339 . S
C539 C540 1.439 . S
C539 H574 0.950 . S
C540 N536 1.383 . S
C540 C539 1.439 . S
C540 C569 1.392 . S
N541 Co535 2.008 . S
N541 C542 1.376 . S
N541 C545 1.374 . S
C542 N541 1.376 . S
C542 C543 1.443 . S
C542 C569 1.389 . S
C543 C542 1.443 . S
C543 C544 1.340 . S
C543 H575 0.951 . S
C544 C543 1.340 . S
C544 C545 1.439 . S
C544 H576 0.950 . S
C545 N541 1.374 . S
C545 C544 1.439 . S
C545 C570 1.395 . S
N546 Co535 1.995 . S
N546 C547 1.376 . S
N546 C550 1.383 . S
C547 N546 1.376 . S
C547 C548 1.446 . S
C547 C570 1.391 . S
C548 C547 1.446 . S
C548 C549 1.339 . S
C548 H577 0.949 . S
C549 C548 1.339 . S
C549 C550 1.439 . S
C549 H578 0.950 . S
C550 N546 1.383 . S
C550 C549 1.439 . S
C550 C568 1.392 . S
N551 Co535 2.282 . S
N551 C554 1.332 . S
N551 C556 1.332 . S
C552 C553 1.386 . S
C552 C555 1.388 . S
C553 C552 1.386 . S
C553 C554 1.382 . S
C553 H579 0.950 . S
C554 N551 1.332 . S
C554 C553 1.382 . S
C554 H565 0.952 . S
C555 C552 1.388 . S
C555 C556 1.382 . S
C555 H580 0.950 . S
C556 N551 1.332 . S
C556 C555 1.382 . S
C556 H566 0.948 . S
N557 Co535 2.282 . S
N557 C561 1.332 . S
N557 C562 1.332 . S
C558 C559 1.388 . S
C558 C562 1.382 . S
C558 H581 0.950 . S
C559 C558 1.388 . S
C559 C560 1.386 . S
C560 C559 1.386 . S
C560 C561 1.382 . S
C560 H582 0.950 . S
C561 N557 1.332 . S
C561 C560 1.382 . S
C561 H563 0.952 . S
C562 N557 1.332 . S
C562 C558 1.382 . S
C562 H564 0.948 . S
H563 C561 0.952 . S
H564 C562 0.948 . S
H565 C554 0.952 . S
H566 C556 0.948 . S
C567 C533 1.395 . S
C567 C537 1.391 . S
C568 C530 1.389 . S
C568 C550 1.392 . S
C569 C540 1.392 . S
C569 C542 1.389 . S
C570 C545 1.395 . S
C570 C547 1.391 . S
H571 C531 0.951 . S
H572 C532 0.950 . S
H573 C538 0.949 . S
H574 C539 0.950 . S
H575 C543 0.951 . S
H576 C544 0.950 . S
H577 C548 0.949 . S
H578 C549 0.950 . S
H579 C553 0.950 . S
H580 C555 0.950 . S
H581 C558 0.950 . S
H582 C560 0.950 . S
C583 C584 1.443 . S
C583 N587 1.376 . S
C583 C621 1.389 . S
C584 C583 1.443 . S
C584 C585 1.340 . S
C584 H624 0.951 . S
C585 C584 1.340 . S
C585 C586 1.439 1_554 S
C585 H625 0.950 . S
C586 C585 1.439 1_556 S
C586 N587 1.374 1_556 S
C586 C620 1.395 . S
N587 C583 1.376 . S
N587 C586 1.374 1_554 S
N587 Co588 2.008 1_554 S
Co588 N587 2.008 1_556 S
Co588 N589 1.995 . S
Co588 N594 2.008 1_545 S
Co588 N599 1.995 1_546 S
Co588 N604 2.282 1_545 S
Co588 N610 2.282 1_556 S
N589 Co588 1.995 . S
N589 C590 1.376 . S
N589 C593 1.383 . S
C590 N589 1.376 . S
C590 C591 1.446 . S
C590 C620 1.391 . S
C591 C590 1.446 . S
C591 C592 1.339 . S
C591 H626 0.949 . S
C592 C591 1.339 . S
C592 C593 1.439 . S
C592 H627 0.950 . S
C593 N589 1.383 . S
C593 C592 1.439 . S
C593 C622 1.392 1_545 S
N594 Co588 2.008 1_565 S
N594 C595 1.376 . S
N594 C598 1.374 1_556 S
C595 N594 1.376 . S
C595 C596 1.443 . S
C595 C622 1.389 . S
C596 C595 1.443 . S
C596 C597 1.340 . S
C596 H628 0.951 . S
C597 C596 1.340 . S
C597 C598 1.439 1_556 S
C597 H629 0.950 . S
C598 N594 1.374 1_554 S
C598 C597 1.439 1_554 S
C598 C623 1.395 . S
N599 Co588 1.995 1_564 S
N599 C600 1.376 . S
N599 C603 1.383 1_565 S
C600 N599 1.376 . S
C600 C601 1.446 . S
C600 C623 1.391 . S
C601 C600 1.446 . S
C601 C602 1.339 . S
C601 H630 0.949 . S
C602 C601 1.339 . S
C602 C603 1.439 1_565 S
C602 H631 0.950 . S
C603 N599 1.383 1_545 S
C603 C602 1.439 1_545 S
C603 C621 1.392 . S
N604 Co588 2.282 1_565 S
N604 C607 1.332 . S
N604 C609 1.332 . S
C605 C606 1.386 . S
C605 C608 1.388 . S
C606 C605 1.386 . S
C606 C607 1.382 . S
C606 H632 0.950 . S
C607 N604 1.332 . S
C607 C606 1.382 . S
C607 H618 0.952 1_556 S
C608 C605 1.388 . S
C608 C609 1.382 . S
C608 H633 0.950 . S
C609 N604 1.332 . S
C609 C608 1.382 . S
C609 H619 0.948 1_565 S
N610 Co588 2.282 1_554 S
N610 C614 1.332 . S
N610 C615 1.332 . S
C611 C612 1.388 . S
C611 C615 1.382 . S
C611 H634 0.950 . S
C612 C611 1.388 . S
C612 C613 1.386 . S
C613 C612 1.386 . S
C613 C614 1.382 . S
C613 H635 0.950 . S
C614 N610 1.332 . S
C614 C613 1.382 . S
C614 H616 0.952 1_554 S
C615 N610 1.332 . S
C615 C611 1.382 . S
C615 H617 0.948 . S
H616 C614 0.952 1_556 S
H617 C615 0.948 . S
H618 C607 0.952 1_554 S
H619 C609 0.948 1_545 S
C620 C586 1.395 . S
C620 C590 1.391 . S
C621 C583 1.389 . S
C621 C603 1.392 . S
C622 C593 1.392 1_565 S
C622 C595 1.389 . S
C623 C598 1.395 . S
C623 C600 1.391 . S
H624 C584 0.951 . S
H625 C585 0.950 . S
H626 C591 0.949 . S
H627 C592 0.950 . S
H628 C596 0.951 . S
H629 C597 0.950 . S
H630 C601 0.949 . S
H631 C602 0.950 . S
H632 C606 0.950 . S
H633 C608 0.950 . S
H634 C611 0.950 . S
H635 C613 0.950 . S
C636 C637 1.443 . S
C636 N640 1.376 . S
C636 C674 1.389 . S
C637 C636 1.443 . S
C637 C638 1.340 . S
C637 H677 0.951 . S
C638 C637 1.340 . S
C638 C639 1.439 . S
C638 H678 0.950 . S
C639 C638 1.439 . S
C639 N640 1.374 . S
C639 C673 1.395 . S
N640 C636 1.376 . S
N640 C639 1.374 . S
N640 Co641 2.008 . S
Co641 N640 2.008 . S
Co641 N642 1.995 . S
Co641 N647 2.008 . S
Co641 N652 1.995 . S
Co641 N657 2.282 . S
Co641 N663 2.282 . S
N642 Co641 1.995 . S
N642 C643 1.376 . S
N642 C646 1.383 . S
C643 N642 1.376 . S
C643 C644 1.446 . S
C643 C673 1.391 . S
C644 C643 1.446 . S
C644 C645 1.339 . S
C644 H679 0.949 . S
C645 C644 1.339 . S
C645 C646 1.439 . S
C645 H680 0.950 . S
C646 N642 1.383 . S
C646 C645 1.439 . S
C646 C675 1.392 . S
N647 Co641 2.008 . S
N647 C648 1.376 . S
N647 C651 1.374 . S
C648 N647 1.376 . S
C648 C649 1.443 . S
C648 C675 1.389 . S
C649 C648 1.443 . S
C649 C650 1.340 . S
C649 H681 0.951 . S
C650 C649 1.340 . S
C650 C651 1.439 . S
C650 H682 0.950 . S
C651 N647 1.374 . S
C651 C650 1.439 . S
C651 C676 1.395 . S
N652 Co641 1.995 . S
N652 C653 1.376 . S
N652 C656 1.383 . S
C653 N652 1.376 . S
C653 C654 1.446 . S
C653 C676 1.391 . S
C654 C653 1.446 . S
C654 C655 1.339 . S
C654 H683 0.949 . S
C655 C654 1.339 . S
C655 C656 1.439 . S
C655 H684 0.950 . S
C656 N652 1.383 . S
C656 C655 1.439 . S
C656 C674 1.392 . S
N657 Co641 2.282 . S
N657 C660 1.332 . S
N657 C662 1.332 . S
C658 C659 1.386 . S
C658 C661 1.388 . S
C659 C658 1.386 . S
C659 C660 1.382 . S
C659 H685 0.950 . S
C660 N657 1.332 . S
C660 C659 1.382 . S
C660 H671 0.952 . S
C661 C658 1.388 . S
C661 C662 1.382 . S
C661 H686 0.950 . S
C662 N657 1.332 . S
C662 C661 1.382 . S
C662 H672 0.948 . S
N663 Co641 2.282 . S
N663 C667 1.332 . S
N663 C668 1.332 . S
C664 C665 1.388 . S
C664 C668 1.382 . S
C664 H687 0.950 . S
C665 C664 1.388 . S
C665 C666 1.386 . S
C666 C665 1.386 . S
C666 C667 1.382 . S
C666 H688 0.950 . S
C667 N663 1.332 . S
C667 C666 1.382 . S
C667 H669 0.952 . S
C668 N663 1.332 . S
C668 C664 1.382 . S
C668 H670 0.948 . S
H669 C667 0.952 . S
H670 C668 0.948 . S
H671 C660 0.952 . S
H672 C662 0.948 . S
C673 C639 1.395 . S
C673 C643 1.391 . S
C674 C636 1.389 . S
C674 C656 1.392 . S
C675 C646 1.392 . S
C675 C648 1.389 . S
C676 C651 1.395 . S
C676 C653 1.391 . S
H677 C637 0.951 . S
H678 C638 0.950 . S
H679 C644 0.949 . S
H680 C645 0.950 . S
H681 C649 0.951 . S
H682 C650 0.950 . S
H683 C654 0.949 . S
H684 C655 0.950 . S
H685 C659 0.950 . S
H686 C661 0.950 . S
H687 C664 0.950 . S
H688 C666 0.950 . S
C689 C690 1.443 . S
C689 N693 1.376 . S
C689 C727 1.389 . S
C690 C689 1.443 . S
C690 C691 1.340 . S
C690 H730 0.951 . S
C691 C690 1.340 . S
C691 C692 1.439 . S
C691 H731 0.950 . S
C692 C691 1.439 . S
C692 N693 1.374 . S
C692 C726 1.395 . S
N693 C689 1.376 . S
N693 C692 1.374 . S
N693 Co694 2.008 1_455 S
Co694 N693 2.008 1_655 S
Co694 N695 1.995 1_655 S
Co694 N700 2.008 . S
Co694 N705 1.995 . S
Co694 N710 2.282 . S
Co694 N716 2.282 1_655 S
N695 Co694 1.995 1_455 S
N695 C696 1.407 . S
N695 C699 1.351 1_455 S
C696 N695 1.407 . S
C696 C697 1.446 . S
C696 C726 1.391 . S
C697 C696 1.446 . S
C697 C698 1.339 1_455 S
C697 H732 0.949 . S
C698 C697 1.339 1_655 S
C698 C699 1.439 . S
C698 H733 0.950 . S
C699 N695 1.351 1_655 S
C699 C698 1.439 . S
C699 C728 1.392 . S
N700 Co694 2.008 . S
N700 C701 1.376 . S
N700 C704 1.374 . S
C701 N700 1.376 . S
C701 C702 1.443 . S
C701 C728 1.389 . S
C702 C701 1.443 . S
C702 C703 1.340 . S
C702 H734 0.951 . S
C703 C702 1.340 . S
C703 C704 1.439 . S
C703 H735 0.950 . S
C704 N700 1.374 . S
C704 C703 1.439 . S
C704 C729 1.395 . S
N705 Co694 1.995 . S
N705 C706 1.376 . S
N705 C709 1.383 1_655 S
C706 N705 1.376 . S
C706 C707 1.446 . S
C706 C729 1.391 . S
C707 C706 1.446 . S
C707 C708 1.339 1_655 S
C707 H736 0.949 . S
C708 C707 1.339 1_455 S
C708 C709 1.439 . S
C708 H737 0.950 . S
C709 N705 1.383 1_455 S
C709 C708 1.439 . S
C709 C727 1.392 . S
N710 Co694 2.282 . S
N710 C713 1.332 . S
N710 C715 1.332 1_655 S
C711 C712 1.386 . S
C711 C714 1.388 . S
C712 C711 1.386 . S
C712 C713 1.382 . S
C712 H738 0.950 . S
C713 N710 1.332 . S
C713 C712 1.382 . S
C713 H724 0.952 . S
C714 C711 1.388 . S
C714 C715 1.382 1_655 S
C714 H739 0.950 1_655 S
C715 N710 1.332 1_455 S
C715 C714 1.382 1_455 S
C715 H725 0.948 . S
N716 Co694 2.282 1_455 S
N716 C720 1.332 . S
N716 C721 1.332 1_455 S
C717 C718 1.388 . S
C717 C721 1.382 1_455 S
C717 H740 0.950 1_455 S
C718 C717 1.388 . S
C718 C719 1.386 . S
C719 C718 1.386 . S
C719 C720 1.382 . S
C719 H741 0.950 . S
C720 N716 1.332 . S
C720 C719 1.382 . S
C720 H722 0.952 . S
C721 N716 1.332 1_655 S
C721 C717 1.382 1_655 S
C721 H723 0.948 . S
H722 C720 0.952 . S
H723 C721 0.948 . S
H724 C713 0.952 . S
H725 C715 0.948 . S
C726 C692 1.395 . S
C726 C696 1.391 . S
C727 C689 1.389 . S
C727 C709 1.392 . S
C728 C699 1.392 . S
C728 C701 1.389 . S
C729 C704 1.395 . S
C729 C706 1.391 . S
H730 C690 0.951 . S
H731 C691 0.950 . S
H732 C697 0.949 . S
H733 C698 0.950 . S
H734 C702 0.951 . S
H735 C703 0.950 . S
H736 C707 0.949 . S
H737 C708 0.950 . S
H738 C712 0.950 . S
H739 C714 0.950 1_455 S
H740 C717 0.950 1_655 S
H741 C719 0.950 . S
C742 C743 1.443 . S
C742 N746 1.376 . S
C742 C780 1.389 . S
C743 C742 1.443 . S
C743 C744 1.340 . S
C743 H783 0.951 . S
C744 C743 1.340 . S
C744 C745 1.439 . S
C744 H784 0.950 . S
C745 C744 1.439 . S
C745 N746 1.374 . S
C745 C779 1.395 . S
N746 C742 1.376 . S
N746 C745 1.374 . S
N746 Co747 2.008 . S
Co747 N746 2.008 . S
Co747 N748 1.995 . S
Co747 N753 2.008 . S
Co747 N758 1.995 . S
Co747 N763 2.282 . S
Co747 N769 2.282 . S
N748 Co747 1.995 . S
N748 C749 1.376 . S
N748 C752 1.383 . S
C749 N748 1.376 . S
C749 C750 1.446 . S
C749 C779 1.391 . S
C750 C749 1.446 . S
C750 C751 1.339 . S
C750 H785 0.949 . S
C751 C750 1.339 . S
C751 C752 1.439 . S
C751 H786 0.950 . S
C752 N748 1.383 . S
C752 C751 1.439 . S
C752 C781 1.392 . S
N753 Co747 2.008 . S
N753 C754 1.376 . S
N753 C757 1.374 . S
C754 N753 1.376 . S
C754 C755 1.443 . S
C754 C781 1.389 . S
C755 C754 1.443 . S
C755 C756 1.340 . S
C755 H787 0.951 . S
C756 C755 1.340 . S
C756 C757 1.439 . S
C756 H788 0.950 . S
C757 N753 1.374 . S
C757 C756 1.439 . S
C757 C782 1.395 . S
N758 Co747 1.995 . S
N758 C759 1.376 . S
N758 C762 1.383 . S
C759 N758 1.376 . S
C759 C760 1.446 . S
C759 C782 1.391 . S
C760 C759 1.446 . S
C760 C761 1.339 . S
C760 H789 0.949 . S
C761 C760 1.339 . S
C761 C762 1.439 . S
C761 H790 0.950 . S
C762 N758 1.383 . S
C762 C761 1.439 . S
C762 C780 1.392 . S
N763 Co747 2.282 . S
N763 C766 1.332 . S
N763 C768 1.332 . S
C764 C765 1.386 . S
C764 C767 1.388 . S
C765 C764 1.386 . S
C765 C766 1.382 . S
C765 H791 0.950 . S
C766 N763 1.332 . S
C766 C765 1.382 . S
C766 H777 0.952 . S
C767 C764 1.388 . S
C767 C768 1.382 . S
C767 H792 0.950 . S
C768 N763 1.332 . S
C768 C767 1.382 . S
C768 H778 0.948 . S
N769 Co747 2.282 . S
N769 C773 1.332 . S
N769 C774 1.332 . S
C770 C771 1.388 . S
C770 C774 1.382 . S
C770 H793 0.950 . S
C771 C770 1.388 . S
C771 C772 1.386 . S
C772 C771 1.386 . S
C772 C773 1.382 . S
C772 H794 0.950 . S
C773 N769 1.332 . S
C773 C772 1.382 . S
C773 H775 0.952 . S
C774 N769 1.332 . S
C774 C770 1.382 . S
C774 H776 0.948 . S
H775 C773 0.952 . S
H776 C774 0.948 . S
H777 C766 0.952 . S
H778 C768 0.948 . S
C779 C745 1.395 . S
C779 C749 1.391 . S
C780 C742 1.389 . S
C780 C762 1.392 . S
C781 C752 1.392 . S
C781 C754 1.389 . S
C782 C757 1.395 . S
C782 C759 1.391 . S
H783 C743 0.951 . S
H784 C744 0.950 . S
H785 C750 0.949 . S
H786 C751 0.950 . S
H787 C755 0.951 . S
H788 C756 0.950 . S
H789 C760 0.949 . S
H790 C761 0.950 . S
H791 C765 0.950 . S
H792 C767 0.950 . S
H793 C770 0.950 . S
H794 C772 0.950 . S
C795 C796 1.443 . S
C795 N799 1.376 . S
C795 C833 1.389 . S
C796 C795 1.443 . S
C796 C797 1.340 . S
C796 H836 0.951 . S
C797 C796 1.340 . S
C797 C798 1.439 . S
C797 H837 0.950 . S
C798 C797 1.439 . S
C798 N799 1.374 . S
C798 C832 1.395 . S
N799 C795 1.376 . S
N799 C798 1.374 . S
N799 Co800 2.008 . S
Co800 N799 2.008 . S
Co800 N801 1.995 . S
Co800 N806 2.008 . S
Co800 N811 1.995 . S
Co800 N816 2.282 . S
Co800 N822 2.282 . S
N801 Co800 1.995 . S
N801 C802 1.376 . S
N801 C805 1.383 . S
C802 N801 1.376 . S
C802 C803 1.446 . S
C802 C832 1.391 . S
C803 C802 1.446 . S
C803 C804 1.339 . S
C803 H838 0.949 . S
C804 C803 1.339 . S
C804 C805 1.439 . S
C804 H839 0.950 . S
C805 N801 1.383 . S
C805 C804 1.439 . S
C805 C834 1.392 . S
N806 Co800 2.008 . S
N806 C807 1.376 . S
N806 C810 1.374 . S
C807 N806 1.376 . S
C807 C808 1.443 . S
C807 C834 1.389 . S
C808 C807 1.443 . S
C808 C809 1.340 . S
C808 H840 0.951 . S
C809 C808 1.340 . S
C809 C810 1.439 . S
C809 H841 0.950 . S
C810 N806 1.374 . S
C810 C809 1.439 . S
C810 C835 1.395 . S
N811 Co800 1.995 . S
N811 C812 1.376 . S
N811 C815 1.383 . S
C812 N811 1.376 . S
C812 C813 1.446 . S
C812 C835 1.391 . S
C813 C812 1.446 . S
C813 C814 1.339 . S
C813 H842 0.949 . S
C814 C813 1.339 . S
C814 C815 1.439 . S
C814 H843 0.950 . S
C815 N811 1.383 . S
C815 C814 1.439 . S
C815 C833 1.392 . S
N816 Co800 2.282 . S
N816 C819 1.332 . S
N816 C821 1.332 . S
C817 C818 1.386 . S
C817 C820 1.388 . S
C818 C817 1.386 . S
C818 C819 1.382 . S
C818 H844 0.950 . S
C819 N816 1.332 . S
C819 C818 1.382 . S
C819 H830 0.952 . S
C820 C817 1.388 . S
C820 C821 1.382 . S
C820 H845 0.950 . S
C821 N816 1.332 . S
C821 C820 1.382 . S
C821 H831 0.948 . S
N822 Co800 2.282 . S
N822 C826 1.332 . S
N822 C827 1.332 . S
C823 C824 1.388 . S
C823 C827 1.382 . S
C823 H846 0.950 . S
C824 C823 1.388 . S
C824 C825 1.386 . S
C825 C824 1.386 . S
C825 C826 1.382 . S
C825 H847 0.950 . S
C826 N822 1.332 . S
C826 C825 1.382 . S
C826 H828 0.952 . S
C827 N822 1.332 . S
C827 C823 1.382 . S
C827 H829 0.948 . S
H828 C826 0.952 . S
H829 C827 0.948 . S
H830 C819 0.952 . S
H831 C821 0.948 . S
C832 C798 1.395 . S
C832 C802 1.391 . S
C833 C795 1.389 . S
C833 C815 1.392 . S
C834 C805 1.392 . S
C834 C807 1.389 . S
C835 C810 1.395 . S
C835 C812 1.391 . S
H836 C796 0.951 . S
H837 C797 0.950 . S
H838 C803 0.949 . S
H839 C804 0.950 . S
H840 C808 0.951 . S
H841 C809 0.950 . S
H842 C813 0.949 . S
H843 C814 0.950 . S
H844 C818 0.950 . S
H845 C820 0.950 . S
H846 C823 0.950 . S
H847 C825 0.950 . S
C848 C849 1.443 . S
C848 N852 1.376 . S
C848 C886 1.389 . S
C849 C848 1.443 . S
C849 C850 1.340 . S
C849 H889 0.951 . S
C850 C849 1.340 . S
C850 C851 1.439 . S
C850 H890 0.950 . S
C851 C850 1.439 . S
C851 N852 1.374 . S
C851 C885 1.395 . S
N852 C848 1.376 . S
N852 C851 1.374 . S
N852 Co853 2.008 . S
Co853 N852 2.008 . S
Co853 N854 1.995 . S
Co853 N859 2.008 . S
Co853 N864 1.995 . S
Co853 N869 2.282 . S
Co853 N875 2.282 . S
N854 Co853 1.995 . S
N854 C855 1.376 . S
N854 C858 1.383 . S
C855 N854 1.376 . S
C855 C856 1.446 . S
C855 C885 1.391 . S
C856 C855 1.446 . S
C856 C857 1.339 . S
C856 H891 0.949 . S
C857 C856 1.339 . S
C857 C858 1.439 . S
C857 H892 0.950 . S
C858 N854 1.383 . S
C858 C857 1.439 . S
C858 C887 1.392 . S
N859 Co853 2.008 . S
N859 C860 1.376 . S
N859 C863 1.374 . S
C860 N859 1.376 . S
C860 C861 1.443 . S
C860 C887 1.389 . S
C861 C860 1.443 . S
C861 C862 1.340 . S
C861 H893 0.951 . S
C862 C861 1.340 . S
C862 C863 1.439 . S
C862 H894 0.950 . S
C863 N859 1.374 . S
C863 C862 1.439 . S
C863 C888 1.395 . S
N864 Co853 1.995 . S
N864 C865 1.376 . S
N864 C868 1.383 . S
C865 N864 1.376 . S
C865 C866 1.446 . S
C865 C888 1.391 . S
C866 C865 1.446 . S
C866 C867 1.339 . S
C866 H895 0.949 . S
C867 C866 1.339 . S
C867 C868 1.439 . S
C867 H896 0.950 . S
C868 N864 1.383 . S
C868 C867 1.439 . S
C868 C886 1.392 . S
N869 Co853 2.282 . S
N869 C872 1.332 . S
N869 C874 1.332 . S
C870 C871 1.386 . S
C870 C873 1.388 . S
C871 C870 1.386 . S
C871 C872 1.382 . S
C871 H897 0.950 . S
C872 N869 1.332 . S
C872 C871 1.382 . S
C872 H883 0.952 . S
C873 C870 1.388 . S
C873 C874 1.382 . S
C873 H898 0.950 . S
C874 N869 1.332 . S
C874 C873 1.382 . S
C874 H884 0.948 . S
N875 Co853 2.282 . S
N875 C879 1.332 . S
N875 C880 1.332 . S
C876 C877 1.388 . S
C876 C880 1.382 . S
C876 H899 0.950 . S
C877 C876 1.388 . S
C877 C878 1.386 . S
C878 C877 1.386 . S
C878 C879 1.382 . S
C878 H900 0.950 . S
C879 N875 1.332 . S
C879 C878 1.382 . S
C879 H881 0.952 . S
C880 N875 1.332 . S
C880 C876 1.382 . S
C880 H882 0.948 . S
H881 C879 0.952 . S
H882 C880 0.948 . S
H883 C872 0.952 . S
H884 C874 0.948 . S
C885 C851 1.395 . S
C885 C855 1.391 . S
C886 C848 1.389 . S
C886 C868 1.392 . S
C887 C858 1.392 . S
C887 C860 1.389 . S
C888 C863 1.395 . S
C888 C865 1.391 . S
H889 C849 0.951 . S
H890 C850 0.950 . S
H891 C856 0.949 . S
H892 C857 0.950 . S
H893 C861 0.951 . S
H894 C862 0.950 . S
H895 C866 0.949 . S
H896 C867 0.950 . S
H897 C871 0.950 . S
H898 C873 0.950 . S
H899 C876 0.950 . S
H900 C878 0.950 . S
C901 C902 1.443 . S
C901 N905 1.376 . S
C901 C939 1.389 . S
C902 C901 1.443 . S
C902 C903 1.340 . S
C902 H942 0.951 . S
C903 C902 1.340 . S
C903 C904 1.439 . S
C903 H943 0.950 . S
C904 C903 1.439 . S
C904 N905 1.374 . S
C904 C938 1.395 . S
N905 C901 1.376 . S
N905 C904 1.374 . S
N905 Co906 2.008 . S
Co906 N905 2.008 . S
Co906 N907 1.995 . S
Co906 N912 2.008 . S
Co906 N917 1.995 . S
Co906 N922 2.282 . S
Co906 N928 2.282 . S
N907 Co906 1.995 . S
N907 C908 1.376 . S
N907 C911 1.383 . S
C908 N907 1.376 . S
C908 C909 1.446 . S
C908 C938 1.391 . S
C909 C908 1.446 . S
C909 C910 1.339 . S
C909 H944 0.949 . S
C910 C909 1.339 . S
C910 C911 1.439 . S
C910 H945 0.950 . S
C911 N907 1.383 . S
C911 C910 1.439 . S
C911 C940 1.392 . S
N912 Co906 2.008 . S
N912 C913 1.376 . S
N912 C916 1.374 . S
C913 N912 1.376 . S
C913 C914 1.443 . S
C913 C940 1.389 . S
C914 C913 1.443 . S
C914 C915 1.340 . S
C914 H946 0.951 . S
C915 C914 1.340 . S
C915 C916 1.439 . S
C915 H947 0.950 . S
C916 N912 1.374 . S
C916 C915 1.439 . S
C916 C941 1.395 . S
N917 Co906 1.995 . S
N917 C918 1.376 . S
N917 C921 1.383 . S
C918 N917 1.376 . S
C918 C919 1.446 . S
C918 C941 1.391 . S
C919 C918 1.446 . S
C919 C920 1.339 . S
C919 H948 0.949 . S
C920 C919 1.339 . S
C920 C921 1.439 . S
C920 H949 0.950 . S
C921 N917 1.383 . S
C921 C920 1.439 . S
C921 C939 1.392 . S
N922 Co906 2.282 . S
N922 C925 1.332 . S
N922 C927 1.332 . S
C923 C924 1.386 . S
C923 C926 1.388 . S
C924 C923 1.386 . S
C924 C925 1.382 . S
C924 H950 0.950 . S
C925 N922 1.332 . S
C925 C924 1.382 . S
C925 H936 0.952 . S
C926 C923 1.388 . S
C926 C927 1.382 . S
C926 H951 0.950 . S
C927 N922 1.332 . S
C927 C926 1.382 . S
C927 H937 0.948 . S
N928 Co906 2.282 . S
N928 C932 1.332 . S
N928 C933 1.332 . S
C929 C930 1.388 . S
C929 C933 1.382 . S
C929 H952 0.950 . S
C930 C929 1.388 . S
C930 C931 1.386 . S
C931 C930 1.386 . S
C931 C932 1.382 . S
C931 H953 0.950 . S
C932 N928 1.332 . S
C932 C931 1.382 . S
C932 H934 0.952 . S
C933 N928 1.332 . S
C933 C929 1.382 . S
C933 H935 0.948 . S
H934 C932 0.952 . S
H935 C933 0.948 . S
H936 C925 0.952 . S
H937 C927 0.948 . S
C938 C904 1.395 . S
C938 C908 1.391 . S
C939 C901 1.389 . S
C939 C921 1.392 . S
C940 C911 1.392 . S
C940 C913 1.389 . S
C941 C916 1.395 . S
C941 C918 1.391 . S
H942 C902 0.951 . S
H943 C903 0.950 . S
H944 C909 0.949 . S
H945 C910 0.950 . S
H946 C914 0.951 . S
H947 C915 0.950 . S
H948 C919 0.949 . S
H949 C920 0.950 . S
H950 C924 0.950 . S
H951 C926 0.950 . S
H952 C929 0.950 . S
H953 C931 0.950 . S
C954 C955 1.443 . S
C954 N958 1.376 . S
C954 C992 1.389 . S
C955 C954 1.443 . S
C955 C956 1.340 . S
C955 H995 0.951 . S
C956 C955 1.340 . S
C956 C957 1.439 1_655 S
C956 H996 0.954 . S
C957 C956 1.439 1_455 S
C957 N958 1.374 1_455 S
C957 C991 1.395 . S
N958 C954 1.376 . S
N958 C957 1.374 1_655 S
N958 Co959 2.008 1_556 S
Co959 N958 2.008 1_554 S
Co959 N960 1.995 1_654 S
Co959 N965 2.008 1_655 S
Co959 N970 1.995 . S
Co959 N975 2.282 1_655 S
Co959 N981 2.282 1_554 S
N960 Co959 1.995 1_456 S
N960 C961 1.376 . S
N960 C964 1.383 1_556 S
C961 N960 1.376 . S
C961 C962 1.446 . S
C961 C991 1.391 . S
C962 C961 1.446 . S
C962 C963 1.339 1_556 S
C962 H997 0.949 . S
C963 C962 1.339 1_554 S
C963 C964 1.439 . S
C963 H998 0.950 . S
C964 N960 1.383 1_554 S
C964 C963 1.439 . S
C964 C993 1.392 . S
N965 Co959 2.008 1_455 S
N965 C966 1.376 . S
N965 C969 1.374 1_455 S
C966 N965 1.376 . S
C966 C967 1.443 . S
C966 C993 1.389 . S
C967 C966 1.443 . S
C967 C968 1.340 . S
C967 H999 0.951 . S
C968 C967 1.340 . S
C968 C969 1.439 1_455 S
C968 H1000 0.953 . S
C969 N965 1.374 1_655 S
C969 C968 1.439 1_655 S
C969 C994 1.395 . S
N970 Co959 1.995 . S
N970 C971 1.376 . S
N970 C974 1.383 1_554 S
C971 N970 1.376 . S
C971 C972 1.446 . S
C971 C994 1.391 . S
C972 C971 1.446 . S
C972 C973 1.339 1_554 S
C972 H1001 0.949 . S
C973 C972 1.339 1_556 S
C973 C974 1.439 . S
C973 H1002 0.950 . S
C974 N970 1.383 1_556 S
C974 C973 1.439 . S
C974 C992 1.392 . S
N975 Co959 2.282 1_455 S
N975 C978 1.332 . S
N975 C980 1.332 1_554 S
C976 C977 1.386 . S
C976 C979 1.401 . S
C977 C976 1.386 . S
C977 C978 1.382 . S
C977 H1003 0.950 . S
C978 N975 1.332 . S
C978 C977 1.382 . S
C978 H989 0.952 . S
C979 C976 1.401 . S
C979 C980 1.378 1_554 S
C979 H1004 0.942 1_554 S
C980 N975 1.332 1_556 S
C980 C979 1.378 1_556 S
C980 H990 0.948 . S
N981 Co959 2.282 1_556 S
N981 C985 1.332 . S
N981 C986 1.332 1_556 S
C982 C983 1.394 . S
C982 C986 1.380 1_556 S
C982 H1005 0.946 1_556 S
C983 C982 1.394 . S
C983 C984 1.386 . S
C984 C983 1.386 . S
C984 C985 1.382 . S
C984 H1006 0.950 . S
C985 N981 1.332 . S
C985 C984 1.382 . S
C985 H987 0.952 . S
C986 N981 1.332 1_554 S
C986 C982 1.380 1_554 S
C986 H988 0.948 . S
H987 C985 0.952 . S
H988 C986 0.948 . S
H989 C978 0.952 . S
H990 C980 0.948 . S
C991 C957 1.395 . S
C991 C961 1.391 . S
C992 C954 1.389 . S
C992 C974 1.392 . S
C993 C964 1.392 . S
C993 C966 1.389 . S
C994 C969 1.395 . S
C994 C971 1.391 . S
H995 C955 0.951 . S
H996 C956 0.954 . S
H997 C962 0.949 . S
H998 C963 0.950 . S
H999 C967 0.951 . S
H1000 C968 0.953 . S
H1001 C972 0.949 . S
H1002 C973 0.950 . S
H1003 C977 0.950 . S
H1004 C979 0.942 1_556 S
H1005 C982 0.946 1_554 S
H1006 C984 0.950 . S
C1007 C1008 1.443 . S
C1007 N1011 1.376 . S
C1007 C1045 1.389 . S
C1008 C1007 1.443 . S
C1008 C1009 1.340 . S
C1008 H1048 0.951 . S
C1009 C1008 1.340 . S
C1009 C1010 1.439 . S
C1009 H1049 0.950 . S
C1010 C1009 1.439 . S
C1010 N1011 1.374 . S
C1010 C1044 1.395 . S
N1011 C1007 1.376 . S
N1011 C1010 1.374 . S
N1011 Co1012 2.008 . S
Co1012 N1011 2.008 . S
Co1012 N1013 1.995 . S
Co1012 N1018 2.008 . S
Co1012 N1023 1.995 . S
Co1012 N1028 2.282 . S
Co1012 N1034 2.282 . S
N1013 Co1012 1.995 . S
N1013 C1014 1.376 . S
N1013 C1017 1.383 . S
C1014 N1013 1.376 . S
C1014 C1015 1.446 . S
C1014 C1044 1.391 . S
C1015 C1014 1.446 . S
C1015 C1016 1.339 . S
C1015 H1050 0.949 . S
C1016 C1015 1.339 . S
C1016 C1017 1.439 . S
C1016 H1051 0.950 . S
C1017 N1013 1.383 . S
C1017 C1016 1.439 . S
C1017 C1046 1.392 . S
N1018 Co1012 2.008 . S
N1018 C1019 1.376 . S
N1018 C1022 1.374 . S
C1019 N1018 1.376 . S
C1019 C1020 1.443 . S
C1019 C1046 1.389 . S
C1020 C1019 1.443 . S
C1020 C1021 1.340 . S
C1020 H1052 0.951 . S
C1021 C1020 1.340 . S
C1021 C1022 1.439 . S
C1021 H1053 0.950 . S
C1022 N1018 1.374 . S
C1022 C1021 1.439 . S
C1022 C1047 1.395 . S
N1023 Co1012 1.995 . S
N1023 C1024 1.376 . S
N1023 C1027 1.383 . S
C1024 N1023 1.376 . S
C1024 C1025 1.446 . S
C1024 C1047 1.391 . S
C1025 C1024 1.446 . S
C1025 C1026 1.339 . S
C1025 H1054 0.949 . S
C1026 C1025 1.339 . S
C1026 C1027 1.439 . S
C1026 H1055 0.950 . S
C1027 N1023 1.383 . S
C1027 C1026 1.439 . S
C1027 C1045 1.392 . S
N1028 Co1012 2.282 . S
N1028 C1031 1.332 . S
N1028 C1033 1.332 . S
C1029 C1030 1.386 . S
C1029 C1032 1.388 . S
C1030 C1029 1.386 . S
C1030 C1031 1.382 . S
C1030 H1056 0.950 . S
C1031 N1028 1.332 . S
C1031 C1030 1.382 . S
C1031 H1042 0.952 . S
C1032 C1029 1.388 . S
C1032 C1033 1.382 . S
C1032 H1057 0.950 . S
C1033 N1028 1.332 . S
C1033 C1032 1.382 . S
C1033 H1043 0.948 . S
N1034 Co1012 2.282 . S
N1034 C1038 1.332 . S
N1034 C1039 1.332 . S
C1035 C1036 1.388 . S
C1035 C1039 1.382 . S
C1035 H1058 0.950 . S
C1036 C1035 1.388 . S
C1036 C1037 1.386 . S
C1037 C1036 1.386 . S
C1037 C1038 1.382 . S
C1037 H1059 0.950 . S
C1038 N1034 1.332 . S
C1038 C1037 1.382 . S
C1038 H1040 0.952 . S
C1039 N1034 1.332 . S
C1039 C1035 1.382 . S
C1039 H1041 0.948 . S
H1040 C1038 0.952 . S
H1041 C1039 0.948 . S
H1042 C1031 0.952 . S
H1043 C1033 0.948 . S
C1044 C1010 1.395 . S
C1044 C1014 1.391 . S
C1045 C1007 1.389 . S
C1045 C1027 1.392 . S
C1046 C1017 1.392 . S
C1046 C1019 1.389 . S
C1047 C1022 1.395 . S
C1047 C1024 1.391 . S
H1048 C1008 0.951 . S
H1049 C1009 0.950 . S
H1050 C1015 0.949 . S
H1051 C1016 0.950 . S
H1052 C1020 0.951 . S
H1053 C1021 0.950 . S
H1054 C1025 0.949 . S
H1055 C1026 0.950 . S
H1056 C1030 0.950 . S
H1057 C1032 0.950 . S
H1058 C1035 0.950 . S
H1059 C1037 0.950 . S
C1060 C1061 1.443 . S
C1060 N1064 1.376 . S
C1060 C1098 1.389 . S
C1061 C1060 1.443 . S
C1061 C1062 1.340 . S
C1061 H1101 0.951 . S
C1062 C1061 1.340 . S
C1062 C1063 1.439 . S
C1062 H1102 0.950 . S
C1063 C1062 1.439 . S
C1063 N1064 1.374 . S
C1063 C1097 1.395 . S
N1064 C1060 1.376 . S
N1064 C1063 1.374 . S
N1064 Co1065 2.008 . S
Co1065 N1064 2.008 . S
Co1065 N1066 1.995 . S
Co1065 N1071 2.008 . S
Co1065 N1076 1.995 . S
Co1065 N1081 2.282 . S
Co1065 N1087 2.282 . S
N1066 Co1065 1.995 . S
N1066 C1067 1.376 . S
N1066 C1070 1.383 . S
C1067 N1066 1.376 . S
C1067 C1068 1.446 . S
C1067 C1097 1.391 . S
C1068 C1067 1.446 . S
C1068 C1069 1.339 . S
C1068 H1103 0.949 . S
C1069 C1068 1.339 . S
C1069 C1070 1.439 . S
C1069 H1104 0.950 . S
C1070 N1066 1.383 . S
C1070 C1069 1.439 . S
C1070 C1099 1.392 . S
N1071 Co1065 2.008 . S
N1071 C1072 1.376 . S
N1071 C1075 1.374 . S
C1072 N1071 1.376 . S
C1072 C1073 1.443 . S
C1072 C1099 1.389 . S
C1073 C1072 1.443 . S
C1073 C1074 1.340 . S
C1073 H1105 0.951 . S
C1074 C1073 1.340 . S
C1074 C1075 1.439 . S
C1074 H1106 0.950 . S
C1075 N1071 1.374 . S
C1075 C1074 1.439 . S
C1075 C1100 1.395 . S
N1076 Co1065 1.995 . S
N1076 C1077 1.376 . S
N1076 C1080 1.383 . S
C1077 N1076 1.376 . S
C1077 C1078 1.446 . S
C1077 C1100 1.391 . S
C1078 C1077 1.446 . S
C1078 C1079 1.339 . S
C1078 H1107 0.949 . S
C1079 C1078 1.339 . S
C1079 C1080 1.439 . S
C1079 H1108 0.950 . S
C1080 N1076 1.383 . S
C1080 C1079 1.439 . S
C1080 C1098 1.392 . S
N1081 Co1065 2.282 . S
N1081 C1084 1.332 . S
N1081 C1086 1.332 . S
C1082 C1083 1.386 . S
C1082 C1085 1.388 . S
C1083 C1082 1.386 . S
C1083 C1084 1.382 . S
C1083 H1109 0.950 . S
C1084 N1081 1.332 . S
C1084 C1083 1.382 . S
C1084 H1095 0.952 . S
C1085 C1082 1.388 . S
C1085 C1086 1.382 . S
C1085 H1110 0.950 . S
C1086 N1081 1.332 . S
C1086 C1085 1.382 . S
C1086 H1096 0.948 . S
N1087 Co1065 2.282 . S
N1087 C1091 1.332 . S
N1087 C1092 1.332 . S
C1088 C1089 1.388 . S
C1088 C1092 1.382 . S
C1088 H1111 0.950 . S
C1089 C1088 1.388 . S
C1089 C1090 1.386 . S
C1090 C1089 1.386 . S
C1090 C1091 1.382 . S
C1090 H1112 0.950 . S
C1091 N1087 1.332 . S
C1091 C1090 1.382 . S
C1091 H1093 0.952 . S
C1092 N1087 1.332 . S
C1092 C1088 1.382 . S
C1092 H1094 0.948 . S
H1093 C1091 0.952 . S
H1094 C1092 0.948 . S
H1095 C1084 0.952 . S
H1096 C1086 0.948 . S
C1097 C1063 1.395 . S
C1097 C1067 1.391 . S
C1098 C1060 1.389 . S
C1098 C1080 1.392 . S
C1099 C1070 1.392 . S
C1099 C1072 1.389 . S
C1100 C1075 1.395 . S
C1100 C1077 1.391 . S
H1101 C1061 0.951 . S
H1102 C1062 0.950 . S
H1103 C1068 0.949 . S
H1104 C1069 0.950 . S
H1105 C1073 0.951 . S
H1106 C1074 0.950 . S
H1107 C1078 0.949 . S
H1108 C1079 0.950 . S
H1109 C1083 0.950 . S
H1110 C1085 0.950 . S
H1111 C1088 0.950 . S
H1112 C1090 0.950 . S
C1113 C1114 1.443 . S
C1113 N1117 1.376 . S
C1113 C1151 1.389 . S
C1114 C1113 1.443 . S
C1114 C1115 1.340 . S
C1114 H1154 0.951 . S
C1115 C1114 1.340 . S
C1115 C1116 1.439 . S
C1115 H1155 0.950 . S
C1116 C1115 1.439 . S
C1116 N1117 1.374 . S
C1116 C1150 1.395 . S
N1117 C1113 1.376 . S
N1117 C1116 1.374 . S
N1117 Co1118 2.008 . S
Co1118 N1117 2.008 . S
Co1118 N1119 1.995 . S
Co1118 N1124 2.008 . S
Co1118 N1129 1.995 . S
Co1118 N1134 2.282 . S
Co1118 N1140 2.282 . S
N1119 Co1118 1.995 . S
N1119 C1120 1.376 . S
N1119 C1123 1.383 . S
C1120 N1119 1.376 . S
C1120 C1121 1.446 . S
C1120 C1150 1.391 . S
C1121 C1120 1.446 . S
C1121 C1122 1.339 . S
C1121 H1156 0.949 . S
C1122 C1121 1.339 . S
C1122 C1123 1.439 . S
C1122 H1157 0.950 . S
C1123 N1119 1.383 . S
C1123 C1122 1.439 . S
C1123 C1152 1.392 . S
N1124 Co1118 2.008 . S
N1124 C1125 1.376 . S
N1124 C1128 1.374 . S
C1125 N1124 1.376 . S
C1125 C1126 1.443 . S
C1125 C1152 1.389 . S
C1126 C1125 1.443 . S
C1126 C1127 1.340 . S
C1126 H1158 0.951 . S
C1127 C1126 1.340 . S
C1127 C1128 1.439 . S
C1127 H1159 0.950 . S
C1128 N1124 1.374 . S
C1128 C1127 1.439 . S
C1128 C1153 1.395 . S
N1129 Co1118 1.995 . S
N1129 C1130 1.376 . S
N1129 C1133 1.383 . S
C1130 N1129 1.376 . S
C1130 C1131 1.446 . S
C1130 C1153 1.391 . S
C1131 C1130 1.446 . S
C1131 C1132 1.339 . S
C1131 H1160 0.949 . S
C1132 C1131 1.339 . S
C1132 C1133 1.439 . S
C1132 H1161 0.950 . S
C1133 N1129 1.383 . S
C1133 C1132 1.439 . S
C1133 C1151 1.392 . S
N1134 Co1118 2.282 . S
N1134 C1137 1.332 . S
N1134 C1139 1.332 . S
C1135 C1136 1.386 . S
C1135 C1138 1.388 . S
C1136 C1135 1.386 . S
C1136 C1137 1.382 . S
C1136 H1162 0.950 . S
C1137 N1134 1.332 . S
C1137 C1136 1.382 . S
C1137 H1148 0.952 . S
C1138 C1135 1.388 . S
C1138 C1139 1.382 . S
C1138 H1163 0.950 . S
C1139 N1134 1.332 . S
C1139 C1138 1.382 . S
C1139 H1149 0.948 . S
N1140 Co1118 2.282 . S
N1140 C1144 1.332 . S
N1140 C1145 1.332 . S
C1141 C1142 1.388 . S
C1141 C1145 1.382 . S
C1141 H1164 0.950 . S
C1142 C1141 1.388 . S
C1142 C1143 1.386 . S
C1143 C1142 1.386 . S
C1143 C1144 1.382 . S
C1143 H1165 0.950 . S
C1144 N1140 1.332 . S
C1144 C1143 1.382 . S
C1144 H1146 0.952 . S
C1145 N1140 1.332 . S
C1145 C1141 1.382 . S
C1145 H1147 0.948 . S
H1146 C1144 0.952 . S
H1147 C1145 0.948 . S
H1148 C1137 0.952 . S
H1149 C1139 0.948 . S
C1150 C1116 1.395 . S
C1150 C1120 1.391 . S
C1151 C1113 1.389 . S
C1151 C1133 1.392 . S
C1152 C1123 1.392 . S
C1152 C1125 1.389 . S
C1153 C1128 1.395 . S
C1153 C1130 1.391 . S
H1154 C1114 0.951 . S
H1155 C1115 0.950 . S
H1156 C1121 0.949 . S
H1157 C1122 0.950 . S
H1158 C1126 0.951 . S
H1159 C1127 0.950 . S
H1160 C1131 0.949 . S
H1161 C1132 0.950 . S
H1162 C1136 0.950 . S
H1163 C1138 0.950 . S
H1164 C1141 0.950 . S
H1165 C1143 0.950 . S
C1166 C1167 1.443 . S
C1166 N1170 1.376 . S
C1166 C1204 1.389 . S
C1167 C1166 1.443 . S
C1167 C1168 1.340 . S
C1167 H1207 0.951 . S
C1168 C1167 1.340 . S
C1168 C1169 1.439 1_556 S
C1168 H1208 0.950 . S
C1169 C1168 1.439 1_554 S
C1169 N1170 1.374 1_554 S
C1169 C1203 1.395 . S
N1170 C1166 1.376 . S
N1170 C1169 1.374 1_556 S
N1170 Co1171 2.008 1_556 S
Co1171 N1170 2.008 1_554 S
Co1171 N1172 1.995 . S
Co1171 N1177 2.008 . S
Co1171 N1182 1.995 1_554 S
Co1171 N1187 2.282 . S
Co1171 N1193 2.282 1_554 S
N1172 Co1171 1.995 . S
N1172 C1173 1.376 . S
N1172 C1176 1.383 . S
C1173 N1172 1.376 . S
C1173 C1174 1.446 . S
C1173 C1203 1.391 . S
C1174 C1173 1.446 . S
C1174 C1175 1.339 . S
C1174 H1209 0.949 . S
C1175 C1174 1.339 . S
C1175 C1176 1.439 . S
C1175 H1210 0.950 . S
C1176 N1172 1.383 . S
C1176 C1175 1.439 . S
C1176 C1205 1.392 . S
N1177 Co1171 2.008 . S
N1177 C1178 1.376 . S
N1177 C1181 1.374 1_554 S
C1178 N1177 1.376 . S
C1178 C1179 1.443 . S
C1178 C1205 1.389 . S
C1179 C1178 1.443 . S
C1179 C1180 1.340 . S
C1179 H1211 0.951 . S
C1180 C1179 1.340 . S
C1180 C1181 1.439 1_554 S
C1180 H1212 0.950 . S
C1181 N1177 1.374 1_556 S
C1181 C1180 1.439 1_556 S
C1181 C1206 1.395 . S
N1182 Co1171 1.995 1_556 S
N1182 C1183 1.376 . S
N1182 C1186 1.383 . S
C1183 N1182 1.376 . S
C1183 C1184 1.446 . S
C1183 C1206 1.391 . S
C1184 C1183 1.446 . S
C1184 C1185 1.339 . S
C1184 H1213 0.949 . S
C1185 C1184 1.339 . S
C1185 C1186 1.439 . S
C1185 H1214 0.950 . S
C1186 N1182 1.383 . S
C1186 C1185 1.439 . S
C1186 C1204 1.392 . S
N1187 Co1171 2.282 . S
N1187 C1190 1.332 . S
N1187 C1192 1.332 . S
C1188 C1189 1.386 . S
C1188 C1191 1.388 . S
C1189 C1188 1.386 . S
C1189 C1190 1.382 . S
C1189 H1215 0.950 . S
C1190 N1187 1.332 . S
C1190 C1189 1.382 . S
C1190 H1201 0.952 1_554 S
C1191 C1188 1.388 . S
C1191 C1192 1.382 . S
C1191 H1216 0.950 . S
C1192 N1187 1.332 . S
C1192 C1191 1.382 . S
C1192 H1202 0.948 . S
N1193 Co1171 2.282 1_556 S
N1193 C1197 1.332 . S
N1193 C1198 1.332 . S
C1194 C1195 1.388 . S
C1194 C1198 1.382 . S
C1194 H1217 0.950 . S
C1195 C1194 1.388 . S
C1195 C1196 1.386 . S
C1196 C1195 1.386 . S
C1196 C1197 1.382 . S
C1196 H1218 0.950 . S
C1197 N1193 1.332 . S
C1197 C1196 1.382 . S
C1197 H1199 0.952 1_556 S
C1198 N1193 1.332 . S
C1198 C1194 1.382 . S
C1198 H1200 0.948 . S
H1199 C1197 0.952 1_554 S
H1200 C1198 0.948 . S
H1201 C1190 0.952 1_556 S
H1202 C1192 0.948 . S
C1203 C1169 1.395 . S
C1203 C1173 1.391 . S
C1204 C1166 1.389 . S
C1204 C1186 1.392 . S
C1205 C1176 1.392 . S
C1205 C1178 1.389 . S
C1206 C1181 1.395 . S
C1206 C1183 1.391 . S
H1207 C1167 0.951 . S
H1208 C1168 0.950 . S
H1209 C1174 0.949 . S
H1210 C1175 0.950 . S
H1211 C1179 0.951 . S
H1212 C1180 0.950 . S
H1213 C1184 0.949 . S
H1214 C1185 0.950 . S
H1215 C1189 0.950 . S
H1216 C1191 0.950 . S
H1217 C1194 0.950 . S
H1218 C1196 0.950 . S
C1219 C1220 1.443 . S
C1219 N1223 1.376 . S
C1219 C1257 1.389 . S
C1220 C1219 1.443 . S
C1220 C1221 1.340 . S
C1220 H1260 0.951 . S
C1221 C1220 1.340 . S
C1221 C1222 1.439 . S
C1221 H1261 0.950 . S
C1222 C1221 1.439 . S
C1222 N1223 1.374 . S
C1222 C1256 1.395 . S
N1223 C1219 1.376 . S
N1223 C1222 1.374 . S
N1223 Co1224 2.008 . S
Co1224 N1223 2.008 . S
Co1224 N1225 1.995 . S
Co1224 N1230 2.008 . S
Co1224 N1235 1.995 . S
Co1224 N1240 2.282 . S
Co1224 N1246 2.282 . S
N1225 Co1224 1.995 . S
N1225 C1226 1.376 . S
N1225 C1229 1.383 . S
C1226 N1225 1.376 . S
C1226 C1227 1.446 . S
C1226 C1256 1.391 . S
C1227 C1226 1.446 . S
C1227 C1228 1.339 . S
C1227 H1262 0.949 . S
C1228 C1227 1.339 . S
C1228 C1229 1.439 . S
C1228 H1263 0.950 . S
C1229 N1225 1.383 . S
C1229 C1228 1.439 . S
C1229 C1258 1.392 . S
N1230 Co1224 2.008 . S
N1230 C1231 1.376 . S
N1230 C1234 1.374 . S
C1231 N1230 1.376 . S
C1231 C1232 1.443 . S
C1231 C1258 1.389 . S
C1232 C1231 1.443 . S
C1232 C1233 1.340 . S
C1232 H1264 0.951 . S
C1233 C1232 1.340 . S
C1233 C1234 1.439 . S
C1233 H1265 0.950 . S
C1234 N1230 1.374 . S
C1234 C1233 1.439 . S
C1234 C1259 1.395 . S
N1235 Co1224 1.995 . S
N1235 C1236 1.376 . S
N1235 C1239 1.383 . S
C1236 N1235 1.376 . S
C1236 C1237 1.446 . S
C1236 C1259 1.391 . S
C1237 C1236 1.446 . S
C1237 C1238 1.339 . S
C1237 H1266 0.949 . S
C1238 C1237 1.339 . S
C1238 C1239 1.439 . S
C1238 H1267 0.950 . S
C1239 N1235 1.383 . S
C1239 C1238 1.439 . S
C1239 C1257 1.392 . S
N1240 Co1224 2.282 . S
N1240 C1243 1.332 . S
N1240 C1245 1.332 . S
C1241 C1242 1.386 . S
C1241 C1244 1.388 . S
C1242 C1241 1.386 . S
C1242 C1243 1.382 . S
C1242 H1268 0.950 . S
C1243 N1240 1.332 . S
C1243 C1242 1.382 . S
C1243 H1254 0.952 . S
C1244 C1241 1.388 . S
C1244 C1245 1.382 . S
C1244 H1269 0.950 . S
C1245 N1240 1.332 . S
C1245 C1244 1.382 . S
C1245 H1255 0.948 . S
N1246 Co1224 2.282 . S
N1246 C1250 1.332 . S
N1246 C1251 1.332 . S
C1247 C1248 1.388 . S
C1247 C1251 1.382 . S
C1247 H1270 0.950 . S
C1248 C1247 1.388 . S
C1248 C1249 1.386 . S
C1249 C1248 1.386 . S
C1249 C1250 1.382 . S
C1249 H1271 0.950 . S
C1250 N1246 1.332 . S
C1250 C1249 1.382 . S
C1250 H1252 0.952 . S
C1251 N1246 1.332 . S
C1251 C1247 1.382 . S
C1251 H1253 0.948 . S
H1252 C1250 0.952 . S
H1253 C1251 0.948 . S
H1254 C1243 0.952 . S
H1255 C1245 0.948 . S
C1256 C1222 1.395 . S
C1256 C1226 1.391 . S
C1257 C1219 1.389 . S
C1257 C1239 1.392 . S
C1258 C1229 1.392 . S
C1258 C1231 1.389 . S
C1259 C1234 1.395 . S
C1259 C1236 1.391 . S
H1260 C1220 0.951 . S
H1261 C1221 0.950 . S
H1262 C1227 0.949 . S
H1263 C1228 0.950 . S
H1264 C1232 0.951 . S
H1265 C1233 0.950 . S
H1266 C1237 0.949 . S
H1267 C1238 0.950 . S
H1268 C1242 0.950 . S
H1269 C1244 0.950 . S
H1270 C1247 0.950 . S
H1271 C1249 0.950 . S
C1272 C1273 1.369 . S
C1272 C1274 1.419 . S
C1272 H1276 0.930 . S
C1273 C1272 1.369 . S
C1273 C1282 1.429 . S
C1274 C1272 1.419 . S
C1274 C1275 1.363 . S
C1274 H1277 0.929 . S
C1275 C1274 1.363 . S
C1275 C1281 1.428 . S
H1276 C1272 0.930 . S
H1277 C1274 0.929 . S
S1278 N1279 1.613 . S
S1278 N1280 1.610 . S
N1279 S1278 1.613 . S
N1279 C1282 1.350 . S
N1280 S1278 1.610 . S
N1280 C1281 1.351 . S
C1281 C1275 1.428 . S
C1281 N1280 1.351 . S
C1281 C1282 1.434 . S
C1282 C1273 1.429 . S
C1282 N1279 1.350 . S
C1282 C1281 1.434 . S
C1283 C1284 1.369 . S
C1283 C1285 1.419 . S
C1283 H1287 0.930 . S
C1284 C1283 1.369 . S
C1284 C1293 1.429 . S
C1285 C1283 1.419 . S
C1285 C1286 1.363 . S
C1285 H1288 0.929 . S
C1286 C1285 1.363 . S
C1286 C1292 1.428 . S
H1287 C1283 0.930 . S
H1288 C1285 0.929 . S
S1289 N1290 1.613 . S
S1289 N1291 1.610 . S
N1290 S1289 1.613 . S
N1290 C1293 1.350 . S
N1291 S1289 1.610 . S
N1291 C1292 1.351 . S
C1292 C1286 1.428 . S
C1292 N1291 1.351 . S
C1292 C1293 1.434 . S
C1293 C1284 1.429 . S
C1293 N1290 1.350 . S
C1293 C1292 1.434 . S
C1294 C1295 1.369 . S
C1294 C1296 1.419 . S
C1294 H1298 0.930 . S
C1295 C1294 1.369 . S
C1295 C1304 1.429 . S
C1296 C1294 1.419 . S
C1296 C1297 1.363 . S
C1296 H1299 0.929 . S
C1297 C1296 1.363 . S
C1297 C1303 1.428 . S
H1298 C1294 0.930 . S
H1299 C1296 0.929 . S
S1300 N1301 1.613 . S
S1300 N1302 1.610 . S
N1301 S1300 1.613 . S
N1301 C1304 1.350 . S
N1302 S1300 1.610 . S
N1302 C1303 1.351 . S
C1303 C1297 1.428 . S
C1303 N1302 1.351 . S
C1303 C1304 1.434 . S
C1304 C1295 1.429 . S
C1304 N1301 1.350 . S
C1304 C1303 1.434 . S
C1305 C1306 1.369 . S
C1305 C1307 1.419 . S
C1305 H1309 0.930 . S
C1306 C1305 1.369 . S
C1306 C1315 1.429 . S
C1307 C1305 1.419 . S
C1307 C1308 1.363 . S
C1307 H1310 0.929 . S
C1308 C1307 1.363 . S
C1308 C1314 1.428 . S
H1309 C1305 0.930 . S
H1310 C1307 0.929 . S
S1311 N1312 1.613 . S
S1311 N1313 1.610 . S
N1312 S1311 1.613 . S
N1312 C1315 1.350 . S
N1313 S1311 1.610 . S
N1313 C1314 1.351 . S
C1314 C1308 1.428 . S
C1314 N1313 1.351 . S
C1314 C1315 1.434 . S
C1315 C1306 1.429 . S
C1315 N1312 1.350 . S
C1315 C1314 1.434 . S
C1316 C1317 1.369 . S
C1316 C1318 1.419 . S
C1316 H1320 0.930 . S
C1317 C1316 1.369 . S
C1317 C1326 1.429 . S
C1318 C1316 1.419 . S
C1318 C1319 1.363 . S
C1318 H1321 0.929 . S
C1319 C1318 1.363 . S
C1319 C1325 1.428 . S
H1320 C1316 0.930 . S
H1321 C1318 0.929 . S
S1322 N1323 1.613 . S
S1322 N1324 1.610 . S
N1323 S1322 1.613 . S
N1323 C1326 1.350 . S
N1324 S1322 1.610 . S
N1324 C1325 1.351 . S
C1325 C1319 1.428 . S
C1325 N1324 1.351 . S
C1325 C1326 1.434 . S
C1326 C1317 1.429 . S
C1326 N1323 1.350 . S
C1326 C1325 1.434 . S
C1327 C1328 1.369 . S
C1327 C1329 1.419 . S
C1327 H1331 0.930 . S
C1328 C1327 1.369 . S
C1328 C1337 1.429 . S
C1329 C1327 1.419 . S
C1329 C1330 1.363 . S
C1329 H1332 0.929 . S
C1330 C1329 1.363 . S
C1330 C1336 1.428 . S
H1331 C1327 0.930 . S
H1332 C1329 0.929 . S
S1333 N1334 1.613 . S
S1333 N1335 1.610 . S
N1334 S1333 1.613 . S
N1334 C1337 1.350 . S
N1335 S1333 1.610 . S
N1335 C1336 1.351 . S
C1336 C1330 1.428 . S
C1336 N1335 1.351 . S
C1336 C1337 1.434 . S
C1337 C1328 1.429 . S
C1337 N1334 1.350 . S
C1337 C1336 1.434 . S
C1338 C1339 1.369 . S
C1338 C1340 1.419 . S
C1338 H1342 0.930 . S
C1339 C1338 1.369 . S
C1339 C1348 1.429 . S
C1340 C1338 1.419 . S
C1340 C1341 1.363 . S
C1340 H1343 0.929 . S
C1341 C1340 1.363 . S
C1341 C1347 1.428 . S
H1342 C1338 0.930 . S
H1343 C1340 0.929 . S
S1344 N1345 1.613 . S
S1344 N1346 1.610 . S
N1345 S1344 1.613 . S
N1345 C1348 1.350 . S
N1346 S1344 1.610 . S
N1346 C1347 1.351 . S
C1347 C1341 1.428 . S
C1347 N1346 1.351 . S
C1347 C1348 1.434 . S
C1348 C1339 1.429 . S
C1348 N1345 1.350 . S
C1348 C1347 1.434 . S
C1349 C1350 1.369 . S
C1349 C1351 1.419 . S
C1349 H1353 0.930 . S
C1350 C1349 1.369 . S
C1350 C1359 1.429 . S
C1351 C1349 1.419 . S
C1351 C1352 1.363 . S
C1351 H1354 0.929 . S
C1352 C1351 1.363 . S
C1352 C1358 1.428 . S
H1353 C1349 0.930 . S
H1354 C1351 0.929 . S
S1355 N1356 1.613 . S
S1355 N1357 1.610 . S
N1356 S1355 1.613 . S
N1356 C1359 1.350 . S
N1357 S1355 1.610 . S
N1357 C1358 1.351 . S
C1358 C1352 1.428 . S
C1358 N1357 1.351 . S
C1358 C1359 1.434 . S
C1359 C1350 1.429 . S
C1359 N1356 1.350 . S
C1359 C1358 1.434 . S
C1360 C1361 1.369 . S
C1360 C1362 1.419 . S
C1360 H1364 0.930 . S
C1361 C1360 1.369 . S
C1361 C1370 1.429 . S
C1362 C1360 1.419 . S
C1362 C1363 1.363 . S
C1362 H1365 0.929 1_545 S
C1363 C1362 1.363 . S
C1363 C1369 1.428 . S
H1364 C1360 0.930 . S
H1365 C1362 0.929 1_565 S
S1366 N1367 1.613 . S
S1366 N1368 1.610 . S
N1367 S1366 1.613 . S
N1367 C1370 1.350 . S
N1368 S1366 1.610 . S
N1368 C1369 1.351 . S
C1369 C1363 1.428 . S
C1369 N1368 1.351 . S
C1369 C1370 1.434 . S
C1370 C1361 1.429 . S
C1370 N1367 1.350 . S
C1370 C1369 1.434 . S
C1371 C1372 1.369 . S
C1371 C1373 1.419 . S
C1371 H1375 0.930 . S
C1372 C1371 1.369 . S
C1372 C1381 1.429 . S
C1373 C1371 1.419 . S
C1373 C1374 1.363 . S
C1373 H1376 0.929 . S
C1374 C1373 1.363 . S
C1374 C1380 1.428 . S
H1375 C1371 0.930 . S
H1376 C1373 0.929 . S
S1377 N1378 1.613 . S
S1377 N1379 1.610 . S
N1378 S1377 1.613 . S
N1378 C1381 1.350 . S
N1379 S1377 1.610 . S
N1379 C1380 1.351 . S
C1380 C1374 1.428 . S
C1380 N1379 1.351 . S
C1380 C1381 1.434 . S
C1381 C1372 1.429 . S
C1381 N1378 1.350 . S
C1381 C1380 1.434 . S
C1382 C1383 1.369 . S
C1382 C1384 1.419 . S
C1382 H1386 0.930 . S
C1383 C1382 1.369 . S
C1383 C1392 1.429 1_565 S
C1384 C1382 1.419 . S
C1384 C1385 1.363 . S
C1384 H1387 0.929 . S
C1385 C1384 1.363 . S
C1385 C1391 1.428 . S
H1386 C1382 0.930 . S
H1387 C1384 0.929 . S
S1388 N1389 1.613 . S
S1388 N1390 1.610 . S
N1389 S1388 1.613 . S
N1389 C1392 1.350 . S
N1390 S1388 1.610 . S
N1390 C1391 1.351 1_545 S
C1391 C1385 1.428 . S
C1391 N1390 1.351 1_565 S
C1391 C1392 1.434 1_565 S
C1392 C1383 1.429 1_545 S
C1392 N1389 1.350 . S
C1392 C1391 1.434 1_545 S
C1393 C1394 1.369 . S
C1393 C1395 1.419 . S
C1393 H1397 0.930 . S
C1394 C1393 1.369 . S
C1394 C1403 1.429 . S
C1395 C1393 1.419 . S
C1395 C1396 1.363 . S
C1395 H1398 0.929 . S
C1396 C1395 1.363 . S
C1396 C1402 1.428 . S
H1397 C1393 0.930 . S
H1398 C1395 0.929 . S
S1399 N1400 1.613 . S
S1399 N1401 1.610 . S
N1400 S1399 1.613 . S
N1400 C1403 1.350 . S
N1401 S1399 1.610 . S
N1401 C1402 1.351 . S
C1402 C1396 1.428 . S
C1402 N1401 1.351 . S
C1402 C1403 1.434 . S
C1403 C1394 1.429 . S
C1403 N1400 1.350 . S
C1403 C1402 1.434 . S
C1404 C1405 1.369 . S
C1404 C1406 1.419 . S
C1404 H1408 0.930 . S
C1405 C1404 1.369 . S
C1405 C1414 1.429 . S
C1406 C1404 1.419 . S
C1406 C1407 1.363 . S
C1406 H1409 0.929 . S
C1407 C1406 1.363 . S
C1407 C1413 1.428 . S
H1408 C1404 0.930 . S
H1409 C1406 0.929 . S
S1410 N1411 1.613 . S
S1410 N1412 1.610 . S
N1411 S1410 1.613 . S
N1411 C1414 1.350 . S
N1412 S1410 1.610 . S
N1412 C1413 1.351 . S
C1413 C1407 1.428 . S
C1413 N1412 1.351 . S
C1413 C1414 1.434 . S
C1414 C1405 1.429 . S
C1414 N1411 1.350 . S
C1414 C1413 1.434 . S
C1415 C1416 1.369 . S
C1415 C1417 1.419 . S
C1415 H1419 0.930 . S
C1416 C1415 1.369 . S
C1416 C1425 1.429 . S
C1417 C1415 1.419 . S
C1417 C1418 1.363 . S
C1417 H1420 0.929 . S
C1418 C1417 1.363 . S
C1418 C1424 1.428 . S
H1419 C1415 0.930 . S
H1420 C1417 0.929 . S
S1421 N1422 1.613 . S
S1421 N1423 1.610 . S
N1422 S1421 1.613 . S
N1422 C1425 1.350 . S
N1423 S1421 1.610 . S
N1423 C1424 1.351 . S
C1424 C1418 1.428 . S
C1424 N1423 1.351 . S
C1424 C1425 1.434 . S
C1425 C1416 1.429 . S
C1425 N1422 1.350 . S
C1425 C1424 1.434 . S
C1426 C1427 1.369 . S
C1426 C1428 1.419 . S
C1426 H1430 0.930 . S
C1427 C1426 1.369 . S
C1427 C1436 1.429 . S
C1428 C1426 1.419 . S
C1428 C1429 1.363 . S
C1428 H1431 0.929 . S
C1429 C1428 1.363 . S
C1429 C1435 1.428 . S
H1430 C1426 0.930 . S
H1431 C1428 0.929 . S
S1432 N1433 1.613 . S
S1432 N1434 1.610 . S
N1433 S1432 1.613 . S
N1433 C1436 1.350 . S
N1434 S1432 1.610 . S
N1434 C1435 1.351 . S
C1435 C1429 1.428 . S
C1435 N1434 1.351 . S
C1435 C1436 1.434 . S
C1436 C1427 1.429 . S
C1436 N1433 1.350 . S
C1436 C1435 1.434 . S
C1437 C1438 1.369 . S
C1437 C1439 1.419 . S
C1437 H1441 0.930 . S
C1438 C1437 1.369 . S
C1438 C1447 1.429 . S
C1439 C1437 1.419 . S
C1439 C1440 1.363 . S
C1439 H1442 0.929 . S
C1440 C1439 1.363 . S
C1440 C1446 1.428 . S
H1441 C1437 0.930 . S
H1442 C1439 0.929 . S
S1443 N1444 1.613 . S
S1443 N1445 1.610 . S
N1444 S1443 1.613 . S
N1444 C1447 1.350 . S
N1445 S1443 1.610 . S
N1445 C1446 1.351 . S
C1446 C1440 1.428 . S
C1446 N1445 1.351 . S
C1446 C1447 1.434 . S
C1447 C1438 1.429 . S
C1447 N1444 1.350 . S
C1447 C1446 1.434 . S
C1448 C1449 1.369 . S
C1448 C1450 1.419 . S
C1448 H1452 0.930 . S
C1449 C1448 1.369 . S
C1449 C1458 1.429 . S
C1450 C1448 1.419 . S
C1450 C1451 1.363 . S
C1450 H1453 0.929 . S
C1451 C1450 1.363 . S
C1451 C1457 1.428 . S
H1452 C1448 0.930 . S
H1453 C1450 0.929 . S
S1454 N1455 1.613 . S
S1454 N1456 1.610 . S
N1455 S1454 1.613 . S
N1455 C1458 1.350 . S
N1456 S1454 1.610 . S
N1456 C1457 1.351 . S
C1457 C1451 1.428 . S
C1457 N1456 1.351 . S
C1457 C1458 1.434 . S
C1458 C1449 1.429 . S
C1458 N1455 1.350 . S
C1458 C1457 1.434 . S
C1459 C1460 1.369 . S
C1459 C1461 1.419 . S
C1459 H1463 0.930 . S
C1460 C1459 1.369 . S
C1460 C1469 1.429 . S
C1461 C1459 1.419 . S
C1461 C1462 1.363 . S
C1461 H1464 0.929 . S
C1462 C1461 1.363 . S
C1462 C1468 1.428 . S
H1463 C1459 0.930 . S
H1464 C1461 0.929 . S
S1465 N1466 1.613 . S
S1465 N1467 1.610 . S
N1466 S1465 1.613 . S
N1466 C1469 1.350 . S
N1467 S1465 1.610 . S
N1467 C1468 1.351 . S
C1468 C1462 1.428 . S
C1468 N1467 1.351 . S
C1468 C1469 1.434 . S
C1469 C1460 1.429 . S
C1469 N1466 1.350 . S
C1469 C1468 1.434 . S
C1470 C1471 1.369 . S
C1470 C1472 1.419 . S
C1470 H1474 0.930 . S
C1471 C1470 1.369 . S
C1471 C1480 1.429 . S
C1472 C1470 1.419 . S
C1472 C1473 1.363 . S
C1472 H1475 0.929 . S
C1473 C1472 1.363 . S
C1473 C1479 1.428 . S
H1474 C1470 0.930 . S
H1475 C1472 0.929 . S
S1476 N1477 1.613 . S
S1476 N1478 1.610 . S
N1477 S1476 1.613 . S
N1477 C1480 1.350 . S
N1478 S1476 1.610 . S
N1478 C1479 1.351 . S
C1479 C1473 1.428 . S
C1479 N1478 1.351 . S
C1479 C1480 1.434 . S
C1480 C1471 1.429 . S
C1480 N1477 1.350 . S
C1480 C1479 1.434 . S
C1481 C1482 1.369 . S
C1481 C1483 1.419 . S
C1481 H1485 0.930 . S
C1482 C1481 1.369 . S
C1482 C1491 1.429 . S
C1483 C1481 1.419 . S
C1483 C1484 1.363 . S
C1483 H1486 0.929 . S
C1484 C1483 1.363 . S
C1484 C1490 1.428 . S
H1485 C1481 0.930 . S
H1486 C1483 0.929 . S
S1487 N1488 1.613 . S
S1487 N1489 1.610 . S
N1488 S1487 1.613 . S
N1488 C1491 1.350 . S
N1489 S1487 1.610 . S
N1489 C1490 1.351 . S
C1490 C1484 1.428 . S
C1490 N1489 1.351 . S
C1490 C1491 1.434 . S
C1491 C1482 1.429 . S
C1491 N1488 1.350 . S
C1491 C1490 1.434 . S
C1492 C1493 1.369 . S
C1492 C1494 1.419 . S
C1492 H1496 0.930 . S
C1493 C1492 1.369 . S
C1493 C1502 1.429 . S
C1494 C1492 1.419 . S
C1494 C1495 1.363 . S
C1494 H1497 0.929 . S
C1495 C1494 1.363 . S
C1495 C1501 1.428 . S
H1496 C1492 0.930 . S
H1497 C1494 0.929 . S
S1498 N1499 1.613 . S
S1498 N1500 1.610 . S
N1499 S1498 1.613 . S
N1499 C1502 1.350 . S
N1500 S1498 1.610 . S
N1500 C1501 1.351 . S
C1501 C1495 1.428 . S
C1501 N1500 1.351 . S
C1501 C1502 1.434 . S
C1502 C1493 1.429 . S
C1502 N1499 1.350 . S
C1502 C1501 1.434 . S
C1503 C1504 1.369 . S
C1503 C1505 1.419 . S
C1503 H1507 0.930 . S
C1504 C1503 1.369 . S
C1504 C1513 1.429 . S
C1505 C1503 1.419 . S
C1505 C1506 1.363 . S
C1505 H1508 0.929 . S
C1506 C1505 1.363 . S
C1506 C1512 1.428 . S
H1507 C1503 0.930 . S
H1508 C1505 0.929 . S
S1509 N1510 1.613 . S
S1509 N1511 1.610 . S
N1510 S1509 1.613 . S
N1510 C1513 1.350 . S
N1511 S1509 1.610 . S
N1511 C1512 1.351 . S
C1512 C1506 1.428 . S
C1512 N1511 1.351 . S
C1512 C1513 1.434 . S
C1513 C1504 1.429 . S
C1513 N1510 1.350 . S
C1513 C1512 1.434 . S
C1514 C1515 1.369 . S
C1514 C1516 1.419 . S
C1514 H1518 0.930 . S
C1515 C1514 1.369 . S
C1515 C1524 1.429 . S
C1516 C1514 1.419 . S
C1516 C1517 1.363 . S
C1516 H1519 0.929 . S
C1517 C1516 1.363 . S
C1517 C1523 1.428 . S
H1518 C1514 0.930 . S
H1519 C1516 0.929 . S
S1520 N1521 1.613 . S
S1520 N1522 1.610 1_554 S
N1521 S1520 1.613 . S
N1521 C1524 1.350 1_554 S
N1522 S1520 1.610 1_556 S
N1522 C1523 1.351 . S
C1523 C1517 1.428 . S
C1523 N1522 1.351 . S
C1523 C1524 1.434 . S
C1524 C1515 1.429 . S
C1524 N1521 1.350 1_556 S
C1524 C1523 1.434 . S
C1525 C1526 1.369 . S
C1525 C1527 1.419 . S
C1525 H1529 0.930 . S
C1526 C1525 1.369 . S
C1526 C1535 1.429 . S
C1527 C1525 1.419 . S
C1527 C1528 1.363 . S
C1527 H1530 0.929 . S
C1528 C1527 1.363 . S
C1528 C1534 1.428 . S
H1529 C1525 0.930 . S
H1530 C1527 0.929 . S
S1531 N1532 1.613 . S
S1531 N1533 1.610 . S
N1532 S1531 1.613 . S
N1532 C1535 1.350 . S
N1533 S1531 1.610 . S
N1533 C1534 1.351 . S
C1534 C1528 1.428 . S
C1534 N1533 1.351 . S
C1534 C1535 1.434 . S
C1535 C1526 1.429 . S
C1535 N1532 1.350 . S
C1535 C1534 1.434 . S
C1536 C1537 1.369 . S
C1536 C1538 1.419 . S
C1536 H1540 0.930 . S
C1537 C1536 1.369 . S
C1537 C1546 1.429 . S
C1538 C1536 1.419 . S
C1538 C1539 1.363 . S
C1538 H1541 0.929 . S
C1539 C1538 1.363 . S
C1539 C1545 1.428 . S
H1540 C1536 0.930 . S
H1541 C1538 0.929 . S
S1542 N1543 1.613 . S
S1542 N1544 1.610 . S
N1543 S1542 1.613 . S
N1543 C1546 1.350 . S
N1544 S1542 1.610 . S
N1544 C1545 1.351 . S
C1545 C1539 1.428 . S
C1545 N1544 1.351 . S
C1545 C1546 1.434 . S
C1546 C1537 1.429 . S
C1546 N1543 1.350 . S
C1546 C1545 1.434 . S
C1547 C1548 1.369 . S
C1547 C1549 1.419 . S
C1547 H1551 0.930 . S
C1548 C1547 1.369 . S
C1548 C1557 1.429 . S
C1549 C1547 1.419 . S
C1549 C1550 1.363 . S
C1549 H1552 0.929 . S
C1550 C1549 1.363 . S
C1550 C1556 1.428 . S
H1551 C1547 0.930 . S
H1552 C1549 0.929 . S
S1553 N1554 1.613 . S
S1553 N1555 1.610 . S
N1554 S1553 1.613 . S
N1554 C1557 1.350 . S
N1555 S1553 1.610 . S
N1555 C1556 1.351 . S
C1556 C1550 1.428 . S
C1556 N1555 1.351 . S
C1556 C1557 1.434 . S
C1557 C1548 1.429 . S
C1557 N1554 1.350 . S
C1557 C1556 1.434 . S
C1558 C1559 1.369 . S
C1558 C1560 1.419 . S
C1558 H1562 0.930 . S
C1559 C1558 1.369 . S
C1559 C1568 1.429 . S
C1560 C1558 1.419 . S
C1560 C1561 1.363 . S
C1560 H1563 0.929 . S
C1561 C1560 1.363 . S
C1561 C1567 1.428 . S
H1562 C1558 0.930 . S
H1563 C1560 0.929 . S
S1564 N1565 1.613 . S
S1564 N1566 1.610 . S
N1565 S1564 1.613 . S
N1565 C1568 1.350 . S
N1566 S1564 1.610 . S
N1566 C1567 1.351 . S
C1567 C1561 1.428 . S
C1567 N1566 1.351 . S
C1567 C1568 1.434 . S
C1568 C1559 1.429 . S
C1568 N1565 1.350 . S
C1568 C1567 1.434 . S
C1569 C1570 1.369 . S
C1569 C1571 1.419 . S
C1569 H1573 0.930 . S
C1570 C1569 1.369 . S
C1570 C1579 1.429 . S
C1571 C1569 1.419 . S
C1571 C1572 1.363 . S
C1571 H1574 0.929 . S
C1572 C1571 1.363 . S
C1572 C1578 1.428 . S
H1573 C1569 0.930 . S
H1574 C1571 0.929 . S
S1575 N1576 1.613 . S
S1575 N1577 1.610 . S
N1576 S1575 1.613 . S
N1576 C1579 1.350 . S
N1577 S1575 1.610 . S
N1577 C1578 1.351 . S
C1578 C1572 1.428 . S
C1578 N1577 1.351 . S
C1578 C1579 1.434 . S
C1579 C1570 1.429 . S
C1579 N1576 1.350 . S
C1579 C1578 1.434 . S
C1580 C1581 1.369 . S
C1580 C1582 1.419 . S
C1580 H1584 0.930 . S
C1581 C1580 1.369 . S
C1581 C1590 1.429 . S
C1582 C1580 1.419 . S
C1582 C1583 1.363 . S
C1582 H1585 0.929 . S
C1583 C1582 1.363 . S
C1583 C1589 1.428 . S
H1584 C1580 0.930 . S
H1585 C1582 0.929 . S
S1586 N1587 1.613 . S
S1586 N1588 1.610 . S
N1587 S1586 1.613 . S
N1587 C1590 1.350 . S
N1588 S1586 1.610 . S
N1588 C1589 1.351 . S
C1589 C1583 1.428 . S
C1589 N1588 1.351 . S
C1589 C1590 1.434 . S
C1590 C1581 1.429 . S
C1590 N1587 1.350 . S
C1590 C1589 1.434 . S
C1591 C1592 1.369 . S
C1591 C1593 1.419 . S
C1591 H1595 0.930 . S
C1592 C1591 1.369 . S
C1592 C1601 1.429 . S
C1593 C1591 1.419 . S
C1593 C1594 1.363 . S
C1593 H1596 0.929 . S
C1594 C1593 1.363 . S
C1594 C1600 1.428 . S
H1595 C1591 0.930 . S
H1596 C1593 0.929 . S
S1597 N1598 1.613 . S
S1597 N1599 1.610 . S
N1598 S1597 1.613 . S
N1598 C1601 1.350 . S
N1599 S1597 1.610 . S
N1599 C1600 1.351 . S
C1600 C1594 1.428 . S
C1600 N1599 1.351 . S
C1600 C1601 1.434 . S
C1601 C1592 1.429 . S
C1601 N1598 1.350 . S
C1601 C1600 1.434 . S
C1602 C1603 1.369 . S
C1602 C1604 1.419 . S
C1602 H1606 0.930 . S
C1603 C1602 1.369 . S
C1603 C1612 1.429 . S
C1604 C1602 1.419 . S
C1604 C1605 1.363 . S
C1604 H1607 0.929 . S
C1605 C1604 1.363 . S
C1605 C1611 1.428 . S
H1606 C1602 0.930 . S
H1607 C1604 0.929 . S
S1608 N1609 1.613 . S
S1608 N1610 1.610 . S
N1609 S1608 1.613 . S
N1609 C1612 1.350 . S
N1610 S1608 1.610 . S
N1610 C1611 1.351 . S
C1611 C1605 1.428 . S
C1611 N1610 1.351 . S
C1611 C1612 1.434 . S
C1612 C1603 1.429 . S
C1612 N1609 1.350 . S
C1612 C1611 1.434 . S
C1613 C1614 1.369 . S
C1613 C1615 1.419 . S
C1613 H1617 0.930 . S
C1614 C1613 1.369 . S
C1614 C1623 1.429 . S
C1615 C1613 1.419 . S
C1615 C1616 1.363 . S
C1615 H1618 0.929 . S
C1616 C1615 1.363 . S
C1616 C1622 1.428 . S
H1617 C1613 0.930 . S
H1618 C1615 0.929 . S
S1619 N1620 1.613 1_545 S
S1619 N1621 1.610 1_545 S
N1620 S1619 1.613 1_565 S
N1620 C1623 1.350 . S
N1621 S1619 1.610 1_565 S
N1621 C1622 1.351 . S
C1622 C1616 1.428 . S
C1622 N1621 1.351 . S
C1622 C1623 1.434 . S
C1623 C1614 1.429 . S
C1623 N1620 1.350 . S
C1623 C1622 1.434 . S
C1624 C1625 1.369 . S
C1624 C1626 1.419 . S
C1624 H1628 0.930 . S
C1625 C1624 1.369 . S
C1625 C1634 1.429 . S
C1626 C1624 1.419 . S
C1626 C1627 1.363 . S
C1626 H1629 0.929 . S
C1627 C1626 1.363 . S
C1627 C1633 1.428 . S
H1628 C1624 0.930 . S
H1629 C1626 0.929 . S
S1630 N1631 1.613 1_556 S
S1630 N1632 1.610 1_556 S
N1631 S1630 1.613 1_554 S
N1631 C1634 1.350 . S
N1632 S1630 1.610 1_554 S
N1632 C1633 1.351 . S
C1633 C1627 1.428 . S
C1633 N1632 1.351 . S
C1633 C1634 1.434 . S
C1634 C1625 1.429 . S
C1634 N1631 1.350 . S
C1634 C1633 1.434 . S
C1635 C1636 1.369 . S
C1635 C1637 1.419 . S
C1635 H1639 0.930 . S
C1636 C1635 1.369 . S
C1636 C1645 1.429 . S
C1637 C1635 1.419 . S
C1637 C1638 1.363 . S
C1637 H1640 0.929 . S
C1638 C1637 1.363 . S
C1638 C1644 1.428 . S
H1639 C1635 0.930 . S
H1640 C1637 0.929 . S
S1641 N1642 1.613 . S
S1641 N1643 1.610 . S
N1642 S1641 1.613 . S
N1642 C1645 1.350 . S
N1643 S1641 1.610 . S
N1643 C1644 1.351 . S
C1644 C1638 1.428 . S
C1644 N1643 1.351 . S
C1644 C1645 1.434 . S
C1645 C1636 1.429 . S
C1645 N1642 1.350 . S
C1645 C1644 1.434 . S
C1646 C1647 1.369 . S
C1646 C1648 1.419 . S
C1646 H1650 0.930 . S
C1647 C1646 1.369 . S
C1647 C1656 1.429 . S
C1648 C1646 1.419 . S
C1648 C1649 1.363 . S
C1648 H1651 0.929 . S
C1649 C1648 1.363 . S
C1649 C1655 1.428 . S
H1650 C1646 0.930 . S
H1651 C1648 0.929 . S
S1652 N1653 1.613 . S
S1652 N1654 1.610 . S
N1653 S1652 1.613 . S
N1653 C1656 1.350 . S
N1654 S1652 1.610 . S
N1654 C1655 1.351 . S
C1655 C1649 1.428 . S
C1655 N1654 1.351 . S
C1655 C1656 1.434 . S
C1656 C1647 1.429 . S
C1656 N1653 1.350 . S
C1656 C1655 1.434 . S
C1657 C1658 1.369 . S
C1657 C1659 1.419 . S
C1657 H1661 0.930 . S
C1658 C1657 1.369 . S
C1658 C1667 1.429 . S
C1659 C1657 1.419 . S
C1659 C1660 1.363 . S
C1659 H1662 0.929 . S
C1660 C1659 1.363 . S
C1660 C1666 1.428 . S
H1661 C1657 0.930 . S
H1662 C1659 0.929 . S
S1663 N1664 1.613 . S
S1663 N1665 1.610 . S
N1664 S1663 1.613 . S
N1664 C1667 1.350 . S
N1665 S1663 1.610 . S
N1665 C1666 1.351 . S
C1666 C1660 1.428 . S
C1666 N1665 1.351 . S
C1666 C1667 1.434 . S
C1667 C1658 1.429 . S
C1667 N1664 1.350 . S
C1667 C1666 1.434 . S
C1668 C1669 1.369 . S
C1668 C1670 1.419 . S
C1668 H1672 0.930 . S
C1669 C1668 1.369 . S
C1669 C1678 1.429 . S
C1670 C1668 1.419 . S
C1670 C1671 1.363 . S
C1670 H1673 0.929 . S
C1671 C1670 1.363 . S
C1671 C1677 1.428 . S
H1672 C1668 0.930 . S
H1673 C1670 0.929 . S
S1674 N1675 1.613 . S
S1674 N1676 1.610 . S
N1675 S1674 1.613 . S
N1675 C1678 1.350 . S
N1676 S1674 1.610 . S
N1676 C1677 1.351 . S
C1677 C1671 1.428 . S
C1677 N1676 1.351 . S
C1677 C1678 1.434 . S
C1678 C1669 1.429 . S
C1678 N1675 1.350 . S
C1678 C1677 1.434 . S
C1679 C1680 1.369 . S
C1679 C1681 1.419 . S
C1679 H1683 0.930 . S
C1680 C1679 1.369 . S
C1680 C1689 1.429 . S
C1681 C1679 1.419 . S
C1681 C1682 1.363 . S
C1681 H1684 0.929 . S
C1682 C1681 1.363 . S
C1682 C1688 1.428 . S
H1683 C1679 0.930 . S
H1684 C1681 0.929 . S
S1685 N1686 1.613 . S
S1685 N1687 1.610 . S
N1686 S1685 1.613 . S
N1686 C1689 1.350 . S
N1687 S1685 1.610 . S
N1687 C1688 1.351 . S
C1688 C1682 1.428 . S
C1688 N1687 1.351 . S
C1688 C1689 1.434 . S
C1689 C1680 1.429 . S
C1689 N1686 1.350 . S
C1689 C1688 1.434 . S
C1690 C1691 1.369 . S
C1690 C1692 1.419 . S
C1690 H1694 0.930 . S
C1691 C1690 1.369 . S
C1691 C1700 1.429 . S
C1692 C1690 1.419 . S
C1692 C1693 1.363 . S
C1692 H1695 0.929 . S
C1693 C1692 1.363 . S
C1693 C1699 1.428 . S
H1694 C1690 0.930 . S
H1695 C1692 0.929 . S
S1696 N1697 1.613 . S
S1696 N1698 1.610 . S
N1697 S1696 1.613 . S
N1697 C1700 1.350 . S
N1698 S1696 1.610 . S
N1698 C1699 1.351 . S
C1699 C1693 1.428 . S
C1699 N1698 1.351 . S
C1699 C1700 1.434 . S
C1700 C1691 1.429 . S
C1700 N1697 1.350 . S
C1700 C1699 1.434 . S
C1701 C1702 1.369 . S
C1701 C1703 1.419 . S
C1701 H1705 0.930 . S
C1702 C1701 1.369 . S
C1702 C1711 1.429 . S
C1703 C1701 1.419 . S
C1703 C1704 1.363 . S
C1703 H1706 0.929 . S
C1704 C1703 1.363 . S
C1704 C1710 1.428 . S
H1705 C1701 0.930 . S
H1706 C1703 0.929 . S
S1707 N1708 1.613 . S
S1707 N1709 1.610 . S
N1708 S1707 1.613 . S
N1708 C1711 1.350 . S
N1709 S1707 1.610 . S
N1709 C1710 1.351 . S
C1710 C1704 1.428 . S
C1710 N1709 1.351 . S
C1710 C1711 1.434 . S
C1711 C1702 1.429 . S
C1711 N1708 1.350 . S
C1711 C1710 1.434 . S
C1712 C1713 1.369 . S
C1712 C1714 1.419 . S
C1712 H1716 0.930 1_556 S
C1713 C1712 1.369 . S
C1713 C1722 1.429 . S
C1714 C1712 1.419 . S
C1714 C1715 1.363 . S
C1714 H1717 0.929 . S
C1715 C1714 1.363 . S
C1715 C1721 1.428 . S
H1716 C1712 0.930 1_554 S
H1717 C1714 0.929 . S
S1718 N1719 1.613 . S
S1718 N1720 1.610 . S
N1719 S1718 1.613 . S
N1719 C1722 1.350 . S
N1720 S1718 1.610 . S
N1720 C1721 1.351 . S
C1721 C1715 1.428 . S
C1721 N1720 1.351 . S
C1721 C1722 1.434 . S
C1722 C1713 1.429 . S
C1722 N1719 1.350 . S
C1722 C1721 1.434 . S
C1723 C1724 1.369 . S
C1723 C1725 1.419 . S
C1723 H1727 0.930 . S
C1724 C1723 1.369 . S
C1724 C1733 1.429 . S
C1725 C1723 1.419 . S
C1725 C1726 1.363 . S
C1725 H1728 0.929 . S
C1726 C1725 1.363 . S
C1726 C1732 1.428 . S
H1727 C1723 0.930 . S
H1728 C1725 0.929 . S
S1729 N1730 1.613 . S
S1729 N1731 1.610 . S
N1730 S1729 1.613 . S
N1730 C1733 1.350 . S
N1731 S1729 1.610 . S
N1731 C1732 1.351 . S
C1732 C1726 1.428 . S
C1732 N1731 1.351 . S
C1732 C1733 1.434 . S
C1733 C1724 1.429 . S
C1733 N1730 1.350 . S
C1733 C1732 1.434 . S
C1734 C1735 1.369 . S
C1734 C1736 1.419 . S
C1734 H1738 0.930 . S
C1735 C1734 1.369 . S
C1735 C1744 1.429 . S
C1736 C1734 1.419 . S
C1736 C1737 1.363 . S
C1736 H1739 0.929 . S
C1737 C1736 1.363 . S
C1737 C1743 1.428 . S
H1738 C1734 0.930 . S
H1739 C1736 0.929 . S
S1740 N1741 1.613 . S
S1740 N1742 1.610 . S
N1741 S1740 1.613 . S
N1741 C1744 1.350 . S
N1742 S1740 1.610 . S
N1742 C1743 1.351 . S
C1743 C1737 1.428 . S
C1743 N1742 1.351 . S
C1743 C1744 1.434 . S
C1744 C1735 1.429 . S
C1744 N1741 1.350 . S
C1744 C1743 1.434 . S
C1745 C1746 1.369 . S
C1745 C1747 1.419 . S
C1745 H1749 0.930 . S
C1746 C1745 1.369 . S
C1746 C1755 1.429 . S
C1747 C1745 1.419 . S
C1747 C1748 1.363 . S
C1747 H1750 0.929 . S
C1748 C1747 1.363 . S
C1748 C1754 1.428 . S
H1749 C1745 0.930 . S
H1750 C1747 0.929 . S
S1751 N1752 1.613 . S
S1751 N1753 1.610 . S
N1752 S1751 1.613 . S
N1752 C1755 1.350 . S
N1753 S1751 1.610 . S
N1753 C1754 1.351 . S
C1754 C1748 1.428 . S
C1754 N1753 1.351 . S
C1754 C1755 1.434 . S
C1755 C1746 1.429 . S
C1755 N1752 1.350 . S
C1755 C1754 1.434 . S
C1756 C1757 1.369 . S
C1756 C1758 1.419 . S
C1756 H1760 0.930 . S
C1757 C1756 1.369 . S
C1757 C1766 1.429 . S
C1758 C1756 1.419 . S
C1758 C1759 1.363 . S
C1758 H1761 0.929 . S
C1759 C1758 1.363 . S
C1759 C1765 1.428 . S
H1760 C1756 0.930 . S
H1761 C1758 0.929 . S
S1762 N1763 1.613 . S
S1762 N1764 1.610 . S
N1763 S1762 1.613 . S
N1763 C1766 1.350 . S
N1764 S1762 1.610 . S
N1764 C1765 1.351 . S
C1765 C1759 1.428 . S
C1765 N1764 1.351 . S
C1765 C1766 1.434 . S
C1766 C1757 1.429 . S
C1766 N1763 1.350 . S
C1766 C1765 1.434 . S
C1767 C1768 1.369 . S
C1767 C1769 1.419 . S
C1767 H1771 0.930 . S
C1768 C1767 1.369 . S
C1768 C1777 1.429 . S
C1769 C1767 1.419 . S
C1769 C1770 1.363 . S
C1769 H1772 0.929 . S
C1770 C1769 1.363 . S
C1770 C1776 1.428 . S
H1771 C1767 0.930 . S
H1772 C1769 0.929 . S
S1773 N1774 1.613 . S
S1773 N1775 1.610 . S
N1774 S1773 1.613 . S
N1774 C1777 1.350 . S
N1775 S1773 1.610 . S
N1775 C1776 1.351 . S
C1776 C1770 1.428 . S
C1776 N1775 1.351 . S
C1776 C1777 1.434 . S
C1777 C1768 1.429 . S
C1777 N1774 1.350 . S
C1777 C1776 1.434 . S
C1778 C1779 1.369 . S
C1778 C1780 1.419 . S
C1778 H1782 0.930 . S
C1779 C1778 1.369 . S
C1779 C1788 1.429 . S
C1780 C1778 1.419 . S
C1780 C1781 1.363 . S
C1780 H1783 0.929 . S
C1781 C1780 1.363 . S
C1781 C1787 1.428 . S
H1782 C1778 0.930 . S
H1783 C1780 0.929 . S
S1784 N1785 1.613 . S
S1784 N1786 1.610 . S
N1785 S1784 1.613 . S
N1785 C1788 1.350 . S
N1786 S1784 1.610 . S
N1786 C1787 1.351 . S
C1787 C1781 1.428 . S
C1787 N1786 1.351 . S
C1787 C1788 1.434 . S
C1788 C1779 1.429 . S
C1788 N1785 1.350 . S
C1788 C1787 1.434 . S
C1789 C1790 1.369 . S
C1789 C1791 1.419 . S
C1789 H1793 0.930 . S
C1790 C1789 1.369 . S
C1790 C1799 1.429 . S
C1791 C1789 1.419 . S
C1791 C1792 1.363 . S
C1791 H1794 0.929 . S
C1792 C1791 1.363 . S
C1792 C1798 1.428 . S
H1793 C1789 0.930 . S
H1794 C1791 0.929 . S
S1795 N1796 1.613 . S
S1795 N1797 1.610 . S
N1796 S1795 1.613 . S
N1796 C1799 1.350 . S
N1797 S1795 1.610 . S
N1797 C1798 1.351 . S
C1798 C1792 1.428 . S
C1798 N1797 1.351 . S
C1798 C1799 1.434 . S
C1799 C1790 1.429 . S
C1799 N1796 1.350 . S
C1799 C1798 1.434 . S
C1273 C410 1.728 . S
C1275 C29 1.601 . S
C1284 C82 1.056 . S
C1286 C241 1.053 . S
C1295 C304 1.613 . S
C1297 C135 1.531 . S
C1306 C188 1.123 . S
C1308 C347 1.151 . S
C1317 C463 2.203 . S
C1319 C39 2.321 . S
C1328 C92 1.496 . S
C1330 C506 1.497 . S
C1339 C569 2.180 . S
C1341 C145 2.306 . S
C1350 C612 1.437 . S
C1352 C198 1.430 . S
C1361 C251 1.799 . S
C1363 C516 1.851 . S
C1372 C294 1.413 . S
C1374 C559 1.532 . S
C1383 C622 1.927 . S
C1385 C357 1.841 . S
C1394 C453 1.544 . S
C1396 C400 1.444 . S
C1405 C1142 1.714 . S
C1407 C675 1.624 . S
C1416 C728 1.853 . S
C1418 C1205 1.809 . S
C1427 C781 1.356 . S
C1429 C1248 1.417 . S
C1438 C1258 1.978 . S
C1440 C834 2.024 . S
C1449 C887 2.058 . S
C1451 C1152 2.058 . S
C1460 C1046 1.448 . S
C1462 C930 1.484 . S
C1471 C665 1.400 . S
C1473 C877 1.377 . S
C1482 C718 1.022 . S
C1484 C993 1.011 . S
C1493 C771 1.573 . S
C1495 C824 1.533 . S
C1504 C940 2.021 . S
C1506 C1099 2.016 . S
C1515 C983 1.246 . S
C1517 C1195 1.212 . S
C1526 C1089 1.108 . S
C1528 C1036 1.085 . S
C1537 C234 2.378 . S
C1539 C22 2.293 . S
C1548 C303 2.010 . S
C1550 C75 1.900 . S
C1559 C340 2.513 . S
C1561 C128 2.417 . S
C1570 C409 2.547 . S
C1572 C181 2.458 . S
C1581 C462 2.882 . S
C1583 C621 2.985 . S
C1592 C499 2.319 . S
C1594 C446 2.383 . S
C1603 C568 2.688 . S
C1605 C515 2.783 . S
C1614 C552 1.935 . S
C1616 C605 1.843 . S
C1625 C976 3.050 . S
C1627 C393 2.888 . S
C1636 C674 2.687 . S
C1638 C197 2.827 . S
C1647 C38 2.446 . S
C1649 C727 2.405 . S
C1658 C91 3.275 . S
C1660 C780 3.153 . S
C1669 C287 2.738 . S
C1671 C1029 2.850 . S
C1680 C250 2.112 . S
C1682 C833 2.164 . S
C1691 C356 2.109 . S
C1693 C886 2.179 . S
C1702 C870 2.323 . S
C1704 C923 2.408 . S
C1713 C658 1.837 . S
C1715 C992 1.773 . S
C1724 C817 2.330 . S
C1726 C711 2.479 . S
C1735 C1045 3.056 . S
C1737 C764 3.077 . S
C1746 C1098 2.574 . S
C1748 C1257 2.545 . S
C1757 C1082 2.305 . S
C1759 C1135 2.382 . S
C1768 C1204 2.743 . S
C1770 C1151 2.705 . S
C1779 C1241 1.900 . S
C1781 C1188 1.783 . S
C1790 C144 2.772 . S
C1792 C939 2.694 . S
