# Generated by pormake.
# Topology wiv, (6)-cn, num edge types: 1
# Building blocks:
#     Node 0, Type 0, BuildingBlock: KUMJIN_clean_sbu_0, # of connection points: 6
#     Node 1, Type 0, BuildingBlock: KUMJIN_clean_sbu_0, # of connection points: 6
#     Node 2, Type 0, BuildingBlock: KUMJIN_clean_sbu_0, # of connection points: 6
#     Node 3, Type 0, BuildingBlock: KUMJIN_clean_sbu_0, # of connection points: 6
#     Node 4, Type 0, BuildingBlock: KUMJIN_clean_sbu_0, # of connection points: 6
#     Node 5, Type 0, BuildingBlock: KUMJIN_clean_sbu_0, # of connection points: 6
#     Node 6, Type 0, BuildingBlock: KUMJIN_clean_sbu_0, # of connection points: 6
#     Node 7, Type 0, BuildingBlock: KUMJIN_clean_sbu_0, # of connection points: 6
#     Node 8, Type 0, BuildingBlock: KUMJIN_clean_sbu_0, # of connection points: 6
#     Node 9, Type 0, BuildingBlock: KUMJIN_clean_sbu_0, # of connection points: 6
#     Node 10, Type 0, BuildingBlock: KUMJIN_clean_sbu_0, # of connection points: 6
#     Node 11, Type 0, BuildingBlock: KUMJIN_clean_sbu_0, # of connection points: 6
#     Node 12, Type 0, BuildingBlock: KUMJIN_clean_sbu_0, # of connection points: 6
#     Node 13, Type 0, BuildingBlock: KUMJIN_clean_sbu_0, # of connection points: 6
#     Node 14, Type 0, BuildingBlock: KUMJIN_clean_sbu_0, # of connection points: 6
#     Node 15, Type 0, BuildingBlock: KUMJIN_clean_sbu_0, # of connection points: 6
#     Edge 16, Type (0, 0), BuildingBlock: XIVTED_clean_linker_0, # of connection points: 2
#     Edge 17, Type (0, 0), BuildingBlock: XIVTED_clean_linker_0, # of connection points: 2
#     Edge 18, Type (0, 0), BuildingBlock: XIVTED_clean_linker_0, # of connection points: 2
#     Edge 19, Type (0, 0), BuildingBlock: XIVTED_clean_linker_0, # of connection points: 2
#     Edge 20, Type (0, 0), BuildingBlock: XIVTED_clean_linker_0, # of connection points: 2
#     Edge 21, Type (0, 0), BuildingBlock: XIVTED_clean_linker_0, # of connection points: 2
#     Edge 22, Type (0, 0), BuildingBlock: XIVTED_clean_linker_0, # of connection points: 2
#     Edge 23, Type (0, 0), BuildingBlock: XIVTED_clean_linker_0, # of connection points: 2
#     Edge 24, Type (0, 0), BuildingBlock: XIVTED_clean_linker_0, # of connection points: 2
#     Edge 25, Type (0, 0), BuildingBlock: XIVTED_clean_linker_0, # of connection points: 2
#     Edge 26, Type (0, 0), BuildingBlock: XIVTED_clean_linker_0, # of connection points: 2
#     Edge 27, Type (0, 0), BuildingBlock: XIVTED_clean_linker_0, # of connection points: 2
#     Edge 28, Type (0, 0), BuildingBlock: XIVTED_clean_linker_0, # of connection points: 2
#     Edge 29, Type (0, 0), BuildingBlock: XIVTED_clean_linker_0, # of connection points: 2
#     Edge 30, Type (0, 0), BuildingBlock: XIVTED_clean_linker_0, # of connection points: 2
#     Edge 31, Type (0, 0), BuildingBlock: XIVTED_clean_linker_0, # of connection points: 2
#     Edge 32, Type (0, 0), BuildingBlock: XIVTED_clean_linker_0, # of connection points: 2
#     Edge 33, Type (0, 0), BuildingBlock: XIVTED_clean_linker_0, # of connection points: 2
#     Edge 34, Type (0, 0), BuildingBlock: XIVTED_clean_linker_0, # of connection points: 2
#     Edge 35, Type (0, 0), BuildingBlock: XIVTED_clean_linker_0, # of connection points: 2
#     Edge 36, Type (0, 0), BuildingBlock: XIVTED_clean_linker_0, # of connection points: 2
#     Edge 37, Type (0, 0), BuildingBlock: XIVTED_clean_linker_0, # of connection points: 2
#     Edge 38, Type (0, 0), BuildingBlock: XIVTED_clean_linker_0, # of connection points: 2
#     Edge 39, Type (0, 0), BuildingBlock: XIVTED_clean_linker_0, # of connection points: 2
#     Edge 40, Type (0, 0), BuildingBlock: XIVTED_clean_linker_0, # of connection points: 2
#     Edge 41, Type (0, 0), BuildingBlock: XIVTED_clean_linker_0, # of connection points: 2
#     Edge 42, Type (0, 0), BuildingBlock: XIVTED_clean_linker_0, # of connection points: 2
#     Edge 43, Type (0, 0), BuildingBlock: XIVTED_clean_linker_0, # of connection points: 2
#     Edge 44, Type (0, 0), BuildingBlock: XIVTED_clean_linker_0, # of connection points: 2
#     Edge 45, Type (0, 0), BuildingBlock: XIVTED_clean_linker_0, # of connection points: 2
#     Edge 46, Type (0, 0), BuildingBlock: XIVTED_clean_linker_0, # of connection points: 2
#     Edge 47, Type (0, 0), BuildingBlock: XIVTED_clean_linker_0, # of connection points: 2
#     Edge 48, Type (0, 0), BuildingBlock: XIVTED_clean_linker_0, # of connection points: 2
#     Edge 49, Type (0, 0), BuildingBlock: XIVTED_clean_linker_0, # of connection points: 2
#     Edge 50, Type (0, 0), BuildingBlock: XIVTED_clean_linker_0, # of connection points: 2
#     Edge 51, Type (0, 0), BuildingBlock: XIVTED_clean_linker_0, # of connection points: 2
#     Edge 52, Type (0, 0), BuildingBlock: XIVTED_clean_linker_0, # of connection points: 2
#     Edge 53, Type (0, 0), BuildingBlock: XIVTED_clean_linker_0, # of connection points: 2
#     Edge 54, Type (0, 0), BuildingBlock: XIVTED_clean_linker_0, # of connection points: 2
#     Edge 55, Type (0, 0), BuildingBlock: XIVTED_clean_linker_0, # of connection points: 2
#     Edge 56, Type (0, 0), BuildingBlock: XIVTED_clean_linker_0, # of connection points: 2
#     Edge 57, Type (0, 0), BuildingBlock: XIVTED_clean_linker_0, # of connection points: 2
#     Edge 58, Type (0, 0), BuildingBlock: XIVTED_clean_linker_0, # of connection points: 2
#     Edge 59, Type (0, 0), BuildingBlock: XIVTED_clean_linker_0, # of connection points: 2
#     Edge 60, Type (0, 0), BuildingBlock: XIVTED_clean_linker_0, # of connection points: 2
#     Edge 61, Type (0, 0), BuildingBlock: XIVTED_clean_linker_0, # of connection points: 2
#     Edge 62, Type (0, 0), BuildingBlock: XIVTED_clean_linker_0, # of connection points: 2
#     Edge 63, Type (0, 0), BuildingBlock: XIVTED_clean_linker_0, # of connection points: 2
# Relax obj value: 0.131
# Max RMSD: 0.207
# Mean RMSD: 0.207
data_MOF--net-wiv--node1-KUMJIN_clean_sbu_0--edge1-XIVTED_clean_linker_0
_symmetry_space_group_name_H-M    P1
_symmetry_Int_Tables_number       1
_symmetry_cell_setting            triclinic
loop_
_symmetry_equiv_pos_as_xyz
'x, y, z'
_cell_length_a     51.628127
_cell_length_b     51.59698
_cell_length_c     23.709364
_cell_angle_alpha  90.027227
_cell_angle_beta   89.863237
_cell_angle_gamma 90.017588
loop_
_atom_site_label
_atom_site_type_symbol
_atom_site_fract_x
_atom_site_fract_y
_atom_site_fract_z
_atom_type_partial_charge
Eu0 Eu 0.32877 0.10957 0.17845 0.0
C1 C 0.42853 0.0675 0.06555 0.0
C2 C 0.46408 0.09481 0.09573 0.0
C3 C 0.47201 0.0496 0.07276 0.0
C4 C 0.43752 0.0913 0.08384 0.0
C5 C 0.44575 0.04647 0.05898 0.0
C6 C 0.48115 0.07373 0.0911 0.0
C7 C 0.41017 0.02125 1.02225 0.0
N8 N 0.40307 0.06511 0.05245 0.0
C9 C 0.39387 0.04265 0.02923 0.0
C10 C 0.43617 0.02307 0.03772 0.0
Eu11 Eu 0.37646 0.10196 0.06812 0.0
N12 N 0.42056 0.11133 0.08755 0.0
C13 C 0.42927 0.13577 0.09902 0.0
C14 C 0.4728 0.11955 0.11057 0.0
C15 C 0.45536 0.14019 0.11145 0.0
H16 H 0.37381 0.04092 1.01731 0.0
H17 H 0.46198 0.15951 0.12184 0.0
H18 H 0.50156 0.07601 0.10049 0.0
H19 H 0.40266 1.00335 1.00494 0.0
H20 H 0.41611 0.15191 0.09983 0.0
H21 H 0.24893 0.05364 0.08875 0.0
H22 H 0.49302 0.12303 0.12016 0.0
H23 H 0.32594 0.16521 0.25231 0.0
H24 H 0.29298 0.0605 0.12613 0.0
H25 H 0.2949 0.2008 0.26955 0.0
H26 H 0.48548 0.03363 0.06836 0.0
H27 H 0.2174 0.08967 0.08918 0.0
H28 H 0.20602 0.13476 0.12012 0.0
H29 H 0.44877 1.00647 0.03212 0.0
H30 H 0.21836 0.17465 0.17014 0.0
N31 N 0.28674 0.10034 0.14485 0.0
C32 C 0.27939 0.0764 0.12629 0.0
C33 C 0.23666 0.09278 0.10559 0.0
C34 C 0.24365 0.11663 0.12916 0.0
C35 C 0.25443 0.07241 0.10526 0.0
C36 C 0.2692 0.11988 0.14891 0.0
H37 H 0.2513 0.19928 0.22664 0.0
N38 N 0.30053 0.14446 0.19806 0.0
C39 C 0.28948 0.18463 0.24298 0.0
C40 C 0.27622 0.14251 0.17668 0.0
C41 C 0.30702 0.1645 0.23305 0.0
C42 C 0.2649 0.18372 0.21857 0.0
C43 C 0.25781 0.16227 0.18585 0.0
O44 O 0.34104 0.10411 0.26592 0.0
O45 O 0.37112 0.1068 0.16034 0.0
O46 O 0.38019 0.06731 0.12848 0.0
O47 O 0.33797 0.06662 0.16135 0.0
O48 O 0.36026 0.13433 0.21924 0.0
O49 O 0.30408 0.08924 0.23952 0.0
O50 O 0.36854 0.09658 0.97851 0.0
O51 O 0.33347 0.10736 0.08341 0.0
O52 O 0.33022 0.14852 0.13569 0.0
O53 O 0.37013 0.14566 0.08958 0.0
O54 O 0.3442 0.07675 0.03332 0.0
O55 O 0.39181 0.12916 1.00536 0.0
C56 C 0.37986 0.12394 0.19379 0.0
C57 C 0.308 0.1047 0.33406 0.0
C58 C 0.31122 0.11223 0.43558 0.0
C59 C 0.32134 0.10181 0.38535 0.0
C60 C 0.28766 0.12579 0.43411 0.0
C61 C 0.28467 0.11871 0.33321 0.0
C62 C 0.27465 0.12925 0.38302 0.0
C63 C 0.36106 0.05552 0.15593 0.0
C64 C 0.31937 0.09378 0.28201 0.0
C65 C 0.2327 0.15957 0.16394 0.0
C66 C 0.22566 0.13685 0.13547 0.0
C67 C 0.32454 0.08994 0.05046 0.0
C68 C 0.3988 0.11217 0.91283 0.0
C69 C 0.38728 0.11199 0.85912 0.0
C70 C 0.4021 0.10696 0.81033 0.0
C71 C 0.42881 0.10226 0.8164 0.0
C72 C 0.42538 0.10725 0.91795 0.0
C73 C 0.44029 0.10242 0.86981 0.0
C74 C 0.35033 0.15936 0.11039 0.0
C75 C 0.38225 0.1164 0.96263 0.0
H76 H 0.33952 0.0913 0.38626 0.0
H77 H 0.27952 0.13398 0.47234 0.0
H78 H 0.2741 0.12142 0.29428 0.0
H79 H 0.25659 0.13988 0.38212 0.0
H80 H 0.36672 0.11592 0.85549 0.0
H81 H 0.44078 0.09801 0.78 0.0
H82 H 0.43455 0.10698 0.95899 0.0
H83 H 0.46081 0.09856 0.87393 0.0
Eu84 Eu 0.10477 0.63629 0.97139 0.0
C85 C 0.14319 0.73773 0.86675 0.0
C86 C 0.11636 0.76901 0.9158 0.0
C87 C 0.15993 0.78082 0.88638 0.0
C88 C 0.12018 0.74396 0.89352 0.0
C89 C 0.163 0.75636 0.8612 0.0
C90 C 0.13668 0.78708 0.91387 0.0
C91 C 0.18635 0.726 0.80229 0.0
N92 N 0.1456 0.71389 0.84326 0.0
C93 C 0.16619 0.70814 0.80916 0.0
C94 C 0.18495 0.75006 0.82922 0.0
Eu95 Eu 0.11161 0.68424 0.86064 0.0
N96 N 0.10092 0.72608 0.89444 0.0
C97 C 0.07662 0.73274 0.91207 0.0
C98 C 0.09198 0.7754 0.93764 0.0
C99 C 0.07187 0.75734 0.9347 0.0
H100 H 0.1674 0.68943 0.78881 0.0
H101 H 0.05276 0.76228 0.95015 0.0
H102 H 0.13428 0.8062 0.93205 0.0
H103 H 0.20298 0.72114 0.77651 0.0
H104 H 0.06101 0.71884 0.9104 0.0
H105 H 0.16406 0.55167 0.91877 0.0
H106 H 0.08827 0.79444 0.95515 0.0
H107 H 0.04393 0.6379 0.02332 0.0
H108 H 0.15552 0.59751 0.9395 0.0
H109 H 1.0071 0.60826 0.03743 0.0
H110 H 0.17514 0.79523 0.88353 0.0
H111 H 0.12837 0.51976 0.92258 0.0
H112 H 0.08169 0.51026 0.94372 0.0
H113 H 0.20059 0.76386 0.82386 0.0
H114 H 0.03907 0.52559 0.97623 0.0
N115 N 0.11512 0.59223 0.9532 0.0
C116 C 0.13968 0.58401 0.94124 0.0
C117 C 0.12446 0.53997 0.93163 0.0
C118 C 0.09961 0.54823 0.94685 0.0
C119 C 0.14465 0.55791 0.92955 0.0
C120 C 0.09553 0.57481 0.95797 0.0
H121 H 0.0112 0.56198 1.01176 0.0
N122 N 0.06867 0.6089 0.98869 0.0
C123 C 0.0251 0.60102 1.02001 0.0
C124 C 0.0716 0.58339 0.9764 0.0
C125 C 0.04608 0.61777 1.01204 0.0
C126 C 0.02747 0.57493 1.00539 0.0
C127 C 0.05101 0.56572 0.98398 0.0
O128 O 0.09951 0.64523 0.06064 0.0
O129 O 0.10954 0.67928 0.95532 0.0
O130 O 0.15019 0.68368 0.90504 0.0
O131 O 0.14819 0.64311 0.94824 0.0
O132 O 0.07903 0.66826 1.00563 0.0
O133 O 0.13252 0.62239 0.03441 0.0
O134 O 0.11284 0.67572 0.7705 0.0
O135 O 0.10908 0.64191 0.87923 0.0
O136 O 0.06985 0.63188 0.91207 0.0
O137 O 0.0689 0.67381 0.87722 0.0
O138 O 0.13581 0.65254 0.81872 0.0
O139 O 0.08554 0.70402 0.80177 0.0
C140 C 0.09197 0.68803 0.98812 0.0
C141 C 0.11669 0.61709 0.1286 0.0
C142 C 0.11269 0.6163 0.23161 0.0
C143 C 0.11654 0.63001 0.18089 0.0
C144 C 0.10909 0.58928 0.22892 0.0
C145 C 0.11285 0.59022 0.12685 0.0
C146 C 0.10916 0.57641 0.17693 0.0
C147 C 0.16148 0.66346 0.92873 0.0
C148 C 0.11986 0.63248 0.07681 0.0
C149 C 0.05471 0.53942 0.97104 0.0
C150 C 0.07896 0.53069 0.95251 0.0
C151 C 0.12568 0.63301 0.84471 0.0
C152 C 0.10109 0.70862 0.70707 0.0
C153 C 0.10181 0.6964 0.65406 0.0
C154 C 0.10738 0.71054 0.60472 0.0
C155 C 0.11208 0.73732 0.60923 0.0
C156 C 0.10622 0.73528 0.71082 0.0
C157 C 0.1116 0.74952 0.66199 0.0
C158 C 0.05792 0.65075 0.88416 0.0
C159 C 0.0954 0.69277 0.75734 0.0
H160 H 0.1196 0.6508 0.18193 0.0
H161 H 0.10575 0.57811 0.2669 0.0
H162 H 0.11255 0.57998 0.08694 0.0
H163 H 0.10615 0.55566 0.17544 0.0
H164 H 0.09779 0.67581 0.65126 0.0
H165 H 0.11657 0.74874 0.57214 0.0
H166 H 0.10612 0.74504 0.75129 0.0
H167 H 0.11554 0.77007 0.66506 0.0
Eu168 Eu 0.68117 0.9045 0.18179 0.0
C169 C 0.5815 0.94667 0.06843 0.0
C170 C 0.54577 0.91952 0.09854 0.0
C171 C 0.53805 0.9647 0.07514 0.0
C172 C 0.57238 0.92294 0.08685 0.0
C173 C 0.56436 0.96773 0.0616 0.0
C174 C 0.52876 0.94063 0.09356 0.0
C175 C 0.60017 0.99284 0.02522 0.0
N176 N 0.60703 0.94897 0.05556 0.0
C177 C 0.61638 0.9714 0.03243 0.0
C178 C 0.5741 0.99109 0.04037 0.0
Eu179 Eu 0.63347 0.91204 0.07156 0.0
N180 N 0.58928 0.90289 0.09102 0.0
C181 C 0.58049 0.87852 0.10287 0.0
C182 C 0.53693 0.89485 0.1136 0.0
C183 C 0.55433 0.87419 0.11504 0.0
H184 H 0.6365 0.97311 1.02074 0.0
H185 H 0.54764 0.85492 0.12571 0.0
H186 H 0.50832 0.93842 0.1028 0.0
H187 H 0.6078 0.0107 1.00796 0.0
H188 H 0.59362 0.86237 0.10419 0.0
H189 H 0.76127 0.96084 0.09384 0.0
H190 H 0.51667 0.89144 0.12304 0.0
H191 H 0.68388 0.84884 0.25529 0.0
H192 H 0.71699 0.95366 0.1301 0.0
H193 H 0.71497 0.81337 0.27283 0.0
H194 H 0.52463 0.9807 0.07052 0.0
H195 H 0.793 0.92498 0.09454 0.0
H196 H 0.80434 0.87984 0.125 0.0
H197 H 0.56156 0.00772 0.03458 0.0
H198 H 0.79186 0.83982 0.1744 0.0
N199 N 0.72328 0.9138 0.1483 0.0
C200 C 0.73065 0.93782 0.13026 0.0
C201 C 0.7736 0.9217 0.11034 0.0
C202 C 0.76655 0.89775 0.13334 0.0
C203 C 0.75574 0.94199 0.10989 0.0
C204 C 0.74088 0.89433 0.15247 0.0
H205 H 0.75875 0.81504 0.23034 0.0
N206 N 0.70941 0.86962 0.20115 0.0
C207 C 0.72043 0.82953 0.24626 0.0
C208 C 0.73379 0.87166 0.17999 0.0
C209 C 0.70286 0.8496 0.23615 0.0
C210 C 0.74511 0.83053 0.22208 0.0
C211 C 0.75226 0.85199 0.18942 0.0
O212 O 0.66893 0.90988 0.26943 0.0
O213 O 0.63893 0.90722 0.16363 0.0
O214 O 0.6296 0.94663 0.13187 0.0
O215 O 0.67178 0.94744 0.16474 0.0
O216 O 0.64956 0.87995 0.22312 0.0
O217 O 0.70569 0.92517 0.24246 0.0
O218 O 0.6415 0.91697 0.98182 0.0
O219 O 0.67645 0.90682 0.08691 0.0
O220 O 0.67953 0.86545 0.13915 0.0
O221 O 0.63969 0.86842 0.09313 0.0
O222 O 0.66568 0.93721 0.03632 0.0
O223 O 0.61819 0.88451 1.00957 0.0
C224 C 0.63007 0.89025 0.19734 0.0
C225 C 0.70206 0.90957 0.3369 0.0
C226 C 0.69875 0.90138 0.4383 0.0
C227 C 0.68883 0.91234 0.38846 0.0
C228 C 0.72216 0.88751 0.43591 0.0
C229 C 0.7253 0.89543 0.33533 0.0
C230 C 0.73519 0.88441 0.38461 0.0
C231 C 0.64868 0.95849 0.15914 0.0
C232 C 0.6905 0.92046 0.28519 0.0
C233 C 0.77749 0.85482 0.16798 0.0
C234 C 0.78459 0.87762 0.13985 0.0
C235 C 0.68536 0.92429 0.05405 0.0
C236 C 0.61121 0.90108 0.91681 0.0
C237 C 0.62292 0.90171 0.86327 0.0
C238 C 0.60818 0.90646 0.81444 0.0
C239 C 0.58132 0.91031 0.82021 0.0
C240 C 0.58447 0.9052 0.92176 0.0
C241 C 0.56962 0.90968 0.87352 0.0
C242 C 0.65941 0.85467 0.11387 0.0
C243 C 0.62774 0.8971 0.96652 0.0
H244 H 0.67078 0.92308 0.38976 0.0
H245 H 0.73016 0.87873 0.47354 0.0
H246 H 0.73583 0.89287 0.2962 0.0
H247 H 0.75313 0.87358 0.38311 0.0
H248 H 0.64359 0.89837 0.85979 0.0
H249 H 0.5694 0.91428 0.7837 0.0
H250 H 0.57512 0.90509 0.96271 0.0
H251 H 0.54898 0.91291 0.87747 0.0
Eu252 Eu 0.91097 0.38039 0.97686 0.0
C253 C 0.87344 0.27935 0.86485 0.0
C254 C 0.89694 0.24789 0.92037 0.0
C255 C 0.85468 0.23689 0.88215 0.0
C256 C 0.89491 0.27274 0.89619 0.0
C257 C 0.85347 0.26122 0.85571 0.0
C258 C 0.87624 0.23037 0.91508 0.0
C259 C 0.83356 0.29201 0.79239 0.0
N260 N 0.87276 0.30314 0.84077 0.0
C261 C 0.85372 0.30943 0.80328 0.0
C262 C 0.83321 0.26794 0.81939 0.0
Eu263 Eu 0.90623 0.33235 0.86547 0.0
N264 N 0.91453 0.29009 0.90001 0.0
C265 C 0.93788 0.28287 0.9218 0.0
C266 C 0.92007 0.24114 0.94732 0.0
C267 C 0.94088 0.25845 0.94665 0.0
H268 H 0.85373 0.32815 0.78295 0.0
H269 H 0.95913 0.25312 0.96577 0.0
H270 H 0.87714 0.21139 0.93439 0.0
H271 H 0.81821 0.29724 0.76355 0.0
H272 H 0.95393 0.29629 0.92216 0.0
H273 H 0.85144 0.46427 0.92093 0.0
H274 H 0.92239 0.22231 0.96682 0.0
H275 H 0.97141 0.37943 0.03001 0.0
H276 H 0.86021 0.41859 0.94271 0.0
H277 H 0.00797 0.4094 0.04431 0.0
H278 H 0.83934 0.2228 0.87644 0.0
H279 H 0.88683 0.4965 0.92518 0.0
H280 H 0.9333 0.50646 0.94719 0.0
H281 H 0.81754 0.25452 0.81106 0.0
H282 H 0.97581 0.49158 0.98089 0.0
N283 N 0.90039 0.42429 0.95773 0.0
C284 C 0.87589 0.43224 0.94477 0.0
C285 C 0.89083 0.47636 0.93477 0.0
C286 C 0.91562 0.46838 0.95083 0.0
C287 C 0.8708 0.45825 0.93243 0.0
C288 C 0.9198 0.44189 0.96265 0.0
H289 H 1.00372 0.45555 1.01769 0.0
N290 N 0.94671 0.40814 0.99448 0.0
C291 C 0.99003 0.41644 0.02645 0.0
C292 C 0.94367 0.43358 0.98171 0.0
C293 C 0.96921 0.39952 1.01841 0.0
C294 C 0.98757 0.44246 1.0113 0.0
C295 C 0.96409 0.45142 0.9893 0.0
O296 O 0.91634 0.37297 0.06679 0.0
O297 O 0.90651 0.33724 0.96084 0.0
O298 O 0.86641 0.33324 0.90468 0.0
O299 O 0.86784 0.37306 0.95169 0.0
O300 O 0.93625 0.34864 1.01279 0.0
O301 O 0.882 0.39321 0.03857 0.0
O302 O 0.90752 0.34037 0.77498 0.0
O303 O 0.90788 0.37459 0.88486 0.0
O304 O 0.94639 0.38482 0.91832 0.0
O305 O 0.94828 0.3423 0.88847 0.0
O306 O 0.88293 0.36415 0.82129 0.0
O307 O 0.93631 0.31514 0.81183 0.0
C308 C 0.92354 0.32874 0.99528 0.0
C309 C 0.89644 0.40056 0.13335 0.0
C310 C 0.90116 0.40255 0.23614 0.0
C311 C 0.9006 0.38822 0.18556 0.0
C312 C 0.89762 0.42954 0.23363 0.0
C313 C 0.89332 0.42755 0.13174 0.0
C314 C 0.89389 0.44191 0.18175 0.0
C315 C 0.85483 0.35309 0.92943 0.0
C316 C 0.89507 0.38458 0.0818 0.0
C317 C 0.9603 0.47763 0.97572 0.0
C318 C 0.93611 0.48609 0.95652 0.0
C319 C 0.89209 0.38361 0.849 0.0
C320 C 0.92815 0.31096 0.71229 0.0
C321 C 0.92375 0.32416 0.66111 0.0
C322 C 0.92668 0.31148 0.60881 0.0
C323 C 0.93397 0.28522 0.60851 0.0
C324 C 0.93521 0.2847 0.71083 0.0
C325 C 0.93814 0.27198 0.65914 0.0
C326 C 0.95888 0.36563 0.89258 0.0
C327 C 0.9276 0.3258 0.7657 0.0
H328 H 0.90294 0.36734 0.18686 0.0
H329 H 0.89811 0.44113 0.27172 0.0
H330 H 0.89034 0.4375 0.09204 0.0
H331 H 0.89142 0.46273 0.18033 0.0
H332 H 0.91892 0.3446 0.66202 0.0
H333 H 0.93612 0.27478 0.56912 0.0
H334 H 0.9388 0.27409 0.74943 0.0
H335 H 0.9436 0.25173 0.65828 0.0
Eu336 Eu 0.3306 0.40243 0.11364 0.0
C337 C 0.43066 0.44342 0.22687 0.0
C338 C 0.46593 0.41561 0.1971 0.0
C339 C 0.4744 0.46072 0.21993 0.0
C340 C 0.43938 0.41948 0.20875 0.0
C341 C 0.44814 0.46421 0.23351 0.0
C342 C 0.48328 0.43646 0.20176 0.0
C343 C 0.41279 0.48993 0.26998 0.0
N344 N 0.40518 0.44616 0.2398 0.0
C345 C 0.39622 0.46874 0.26295 0.0
C346 C 0.43881 0.48776 0.25466 0.0
Eu347 Eu 0.37812 0.40969 0.22406 0.0
N348 N 0.42215 0.39968 0.20493 0.0
C349 C 0.43055 0.37512 0.19349 0.0
C350 C 0.47436 0.39074 0.18241 0.0
C351 C 0.45663 0.37034 0.18134 0.0
H352 H 0.37613 0.47073 0.27474 0.0
H353 H 0.46301 0.35093 0.17099 0.0
H354 H 0.50368 0.43389 0.19252 0.0
H355 H 0.40547 0.50793 0.28722 0.0
H356 H 0.41717 0.35915 0.19251 0.0
H357 H 0.25118 0.45949 0.20239 0.0
H358 H 0.49456 0.38698 0.17299 0.0
H359 H 0.32752 0.34634 0.04161 0.0
H360 H 0.29527 0.45202 0.16541 0.0
H361 H 0.2962 0.3109 0.0253 0.0
H362 H 0.48808 0.47652 0.22436 0.0
H363 H 0.21919 0.42384 0.20214 0.0
H364 H 0.20744 0.37871 0.17215 0.0
H365 H 0.45162 0.50419 0.2603 0.0
H366 H 0.21954 0.33844 0.12323 0.0
N367 N 0.28858 0.41223 0.14695 0.0
C368 C 0.28148 0.43629 0.1653 0.0
C369 C 0.23848 0.42046 0.18591 0.0
C370 C 0.24528 0.39644 0.16279 0.0
C371 C 0.2565 0.44062 0.18613 0.0
C372 C 0.27084 0.39286 0.14319 0.0
H373 H 0.25244 0.31313 0.06777 0.0
N374 N 0.30209 0.36769 0.09489 0.0
C375 C 0.29083 0.32731 0.05124 0.0
C376 C 0.27772 0.37001 0.11604 0.0
C377 C 0.30852 0.34736 0.06062 0.0
C378 C 0.26616 0.32862 0.0754 0.0
C379 C 0.25916 0.35036 0.10736 0.0
O380 O 0.34271 0.40659 0.02569 0.0
O381 O 0.37287 0.40505 0.13194 0.0
O382 O 0.38226 0.4444 0.16387 0.0
O383 O 0.34023 0.44537 0.13013 0.0
O384 O 0.3622 0.37753 0.07307 0.0
O385 O 0.30654 0.42333 0.05255 0.0
O386 O 0.3701 0.41525 0.31365 0.0
O387 O 0.33519 0.40466 0.20851 0.0
O388 O 0.3312 0.36383 0.15772 0.0
O389 O 0.37135 0.36605 0.20244 0.0
O390 O 0.34599 0.43515 0.25878 0.0
O391 O 0.39275 0.38219 0.2868 0.0
C392 C 0.38171 0.38792 0.09861 0.0
C393 C 0.30948 0.40693 0.95857 0.0
C394 C 0.31209 0.39868 0.85726 0.0
C395 C 0.32257 0.40932 0.90676 0.0
C396 C 0.28838 0.38539 0.85996 0.0
C397 C 0.28598 0.39323 0.9607 0.0
C398 C 0.27559 0.38244 0.9116 0.0
C399 C 0.36335 0.45633 0.13616 0.0
C400 C 0.32147 0.41778 1.00984 0.0
C401 C 0.234 0.35342 0.12906 0.0
C402 C 0.2271 0.37637 0.15689 0.0
C403 C 0.32629 0.42212 0.2414 0.0
C404 C 0.39991 0.39905 0.37924 0.0
C405 C 0.38835 0.39905 0.43298 0.0
C406 C 0.40314 0.40383 0.48177 0.0
C407 C 0.42988 0.40841 0.47565 0.0
C408 C 0.42653 0.40384 0.37404 0.0
C409 C 0.44142 0.4084 0.42217 0.0
C410 C 0.3512 0.35266 0.1824 0.0
C411 C 0.38337 0.39515 0.32952 0.0
H412 H 0.3409 0.41957 0.90491 0.0
H413 H 0.27996 0.37702 0.82228 0.0
H414 H 0.27559 0.39092 1.00009 0.0
H415 H 0.2574 0.37203 0.91348 0.0
H416 H 0.36776 0.39521 0.43665 0.0
H417 H 0.44184 0.41247 0.51206 0.0
H418 H 0.43573 0.40422 0.33295 0.0
H419 H 0.46196 0.41217 0.418 0.0
Eu420 Eu 0.41174 0.63495 0.81885 0.0
C421 C 0.37727 0.7368 0.92974 0.0
C422 C 0.40415 0.76727 0.8787 0.0
C423 C 0.3616 0.78045 0.91213 0.0
C424 C 0.39995 0.74236 0.90131 0.0
C425 C 0.35819 0.75603 0.93725 0.0
C426 C 0.38443 0.78596 0.88233 0.0
C427 C 0.33481 0.72609 0.99704 0.0
N428 N 0.37455 0.71296 0.95289 0.0
C429 C 0.35421 0.70761 0.98798 0.0
C430 C 0.3366 0.75029 0.97085 0.0
Eu431 Eu 0.40706 0.68207 0.93197 0.0
N432 N 0.41857 0.72388 0.89892 0.0
C433 C 0.4428 0.7298 0.87968 0.0
C434 C 0.42834 0.77284 0.85483 0.0
C435 C 0.44794 0.75422 0.85657 0.0
H436 H 0.35259 0.68875 1.00752 0.0
H437 H 0.46693 0.75856 0.8396 0.0
H438 H 0.38702 0.80502 0.86404 0.0
H439 H 0.31841 0.72159 0.02382 0.0
H440 H 0.45798 0.71543 0.88009 0.0
H441 H 0.35304 0.55004 0.87206 0.0
H442 H 0.43233 0.79163 0.83652 0.0
H443 H 0.47196 0.63692 0.76335 0.0
H444 H 0.3614 0.59603 0.8523 0.0
H445 H 0.50856 0.60737 0.74611 0.0
H446 H 0.34699 0.79539 0.9166 0.0
H447 H 0.38866 0.51816 0.86526 0.0
H448 H 0.43506 0.50879 0.84108 0.0
H449 H 0.32154 0.76456 0.97782 0.0
H450 H 0.47727 0.52432 0.80651 0.0
N451 N 0.40158 0.59079 0.83611 0.0
C452 C 0.37717 0.58251 0.84921 0.0
C453 C 0.39247 0.53842 0.8566 0.0
C454 C 0.41713 0.54677 0.84016 0.0
C455 C 0.37232 0.55634 0.86037 0.0
C456 C 0.42109 0.57341 0.8296 0.0
H457 H 0.50472 0.56092 0.77047 0.0
N458 N 0.4476 0.6077 0.79836 0.0
C459 C 0.49076 0.60002 0.76429 0.0
C460 C 0.44478 0.58209 0.80993 0.0
C461 C 0.4699 0.61671 0.77403 0.0
C462 C 0.48854 0.57383 0.77817 0.0
C463 C 0.46525 0.56448 0.80061 0.0
O464 O 0.4159 0.64424 0.72951 0.0
O465 O 0.40741 0.6779 0.83681 0.0
O466 O 0.36762 0.68191 0.8908 0.0
O467 O 0.36874 0.64192 0.84471 0.0
O468 O 0.43717 0.66708 0.7842 0.0
O469 O 0.38301 0.62157 0.75741 0.0
O470 O 0.40433 0.67638 0.02317 0.0
O471 O 0.40833 0.63994 0.91132 0.0
O472 O 0.44712 0.62925 0.87617 0.0
O473 O 0.4494 0.67072 0.9131 0.0
O474 O 0.38316 0.65034 0.9749 0.0
O475 O 0.43754 0.69632 0.98794 0.0
C476 C 0.42451 0.6868 0.80298 0.0
C477 C 0.39757 0.61641 0.66211 0.0
C478 C 0.40194 0.61608 0.55921 0.0
C479 C 0.39946 0.62969 0.61043 0.0
C480 C 0.40244 0.58881 0.56064 0.0
C481 C 0.3984 0.58925 0.66268 0.0
C482 C 0.40075 0.57557 0.61203 0.0
C483 C 0.35587 0.66206 0.86645 0.0
C484 C 0.39526 0.63164 0.71441 0.0
C485 C 0.46171 0.5381 0.813 0.0
C486 C 0.43769 0.52927 0.83273 0.0
C487 C 0.39225 0.63094 0.94685 0.0
C488 C 0.42642 0.70521 0.08421 0.0
C489 C 0.42215 0.69389 0.13744 0.0
C490 C 0.42421 0.70862 0.18733 0.0
C491 C 0.43084 0.73499 0.18288 0.0
C492 C 0.43258 0.73165 0.08081 0.0
C493 C 0.43492 0.74636 0.13003 0.0
C494 C 0.45975 0.64748 0.90462 0.0
C495 C 0.42589 0.68845 0.03377 0.0
H496 H 0.39875 0.65069 0.61017 0.0
H497 H 0.40459 0.57772 0.52212 0.0
H498 H 0.3973 0.57867 0.70207 0.0
H499 H 0.4014 0.5546 0.61259 0.0
H500 H 0.41796 0.67334 0.13991 0.0
H501 H 0.43258 0.74697 0.22019 0.0
H502 H 0.43591 0.74084 0.04036 0.0
H503 H 0.43991 0.7667 0.12723 0.0
Eu504 Eu 0.68454 0.61059 0.11841 0.0
C505 C 0.5865 0.56487 0.23023 0.0
C506 C 0.54971 0.58787 0.19171 0.0
C507 C 0.54495 0.54299 0.22079 0.0
C508 C 0.57612 0.58706 0.20695 0.0
C509 C 0.57089 0.54271 0.23844 0.0
C510 C 0.53437 0.56554 0.19747 0.0
C511 C 0.60702 0.52237 0.28519 0.0
N512 N 0.61167 0.56525 0.24682 0.0
C513 C 0.6217 0.54479 0.27639 0.0
C514 C 0.58162 0.52117 0.26543 0.0
Eu515 Eu 0.63568 0.60383 0.22781 0.0
N516 N 0.59139 0.60837 0.20244 0.0
C517 C 0.58083 0.63167 0.1877 0.0
C518 C 0.53926 0.61134 0.17306 0.0
C519 C 0.55477 0.63345 0.17219 0.0
H520 H 0.64119 0.54534 0.29239 0.0
H521 H 0.54673 0.65188 0.1593 0.0
H522 H 0.51413 0.56573 0.18545 0.0
H523 H 0.6153 0.50604 0.30739 0.0
H524 H 0.59247 0.64899 0.1869 0.0
H525 H 0.74493 0.52775 0.18989 0.0
H526 H 0.51908 0.61277 0.16096 0.0
H527 H 0.7068 0.67037 0.08261 0.0
H528 H 0.70762 0.54742 0.14702 0.0
H529 H 0.74416 0.69832 0.10318 0.0
H530 H 0.53274 0.52609 0.22628 0.0
H531 H 0.78143 0.55457 0.22247 0.0
H532 H 0.80146 0.59812 0.23259 0.0
H533 H 0.57028 0.50379 0.27252 0.0
H534 H 0.80076 0.64466 0.21173 0.0
N535 N 0.72155 0.58662 0.15226 0.0
C536 C 0.72288 0.56023 0.15918 0.0
C537 C 0.76493 0.56372 0.20257 0.0
C538 C 0.76412 0.59047 0.1944 0.0
C539 C 0.74439 0.54855 0.18418 0.0
C540 C 0.74213 0.60155 0.16814 0.0
H541 H 0.78023 0.68177 0.16126 0.0
N542 N 0.72104 0.6382 0.12989 0.0
C543 C 0.74362 0.67869 0.11925 0.0
C544 C 0.74176 0.62796 0.15693 0.0
C545 C 0.72248 0.66269 0.10767 0.0
C546 C 0.76389 0.6693 0.15209 0.0
C547 C 0.76342 0.64354 0.17036 0.0
O548 O 0.68004 0.63411 0.04237 0.0
O549 O 0.64244 0.61713 0.14002 0.0
O550 O 0.63422 0.5662 0.17387 0.0
O551 O 0.67195 0.56832 0.11921 0.0
O552 O 0.64972 0.59875 0.06462 0.0
O553 O 0.70506 0.59991 0.04083 0.0
O554 O 0.6467 0.60651 0.31703 0.0
O555 O 0.67875 0.61039 0.21278 0.0
O556 O 0.67799 0.65051 0.1562 0.0
O557 O 0.63835 0.64718 0.20191 0.0
O558 O 0.6685 0.57994 0.26397 0.0
O559 O 0.61411 0.62821 0.28738 0.0
C560 C 0.6317 0.60793 0.09635 0.0
C561 C 0.70691 0.62859 0.96069 0.0
C562 C 0.70486 0.63464 0.85846 0.0
C563 C 0.6938 0.62579 0.90918 0.0
C564 C 0.72931 0.64666 0.86017 0.0
C565 C 0.73118 0.64069 0.96181 0.0
C566 C 0.74224 0.64981 0.91162 0.0
C567 C 0.65123 0.55572 0.13804 0.0
C568 C 0.69434 0.61863 1.01193 0.0
C569 C 0.78433 0.63281 0.1998 0.0
C570 C 0.78476 0.6063 0.21149 0.0
C571 C 0.68789 0.5933 0.24615 0.0
C572 C 0.61364 0.61455 0.38338 0.0
C573 C 0.62628 0.61716 0.43565 0.0
C574 C 0.61334 0.61133 0.48652 0.0
C575 C 0.58751 0.60275 0.48422 0.0
C576 C 0.58798 0.60557 0.38208 0.0
C577 C 0.57503 0.59977 0.43233 0.0
C578 C 0.65784 0.66121 0.18132 0.0
C579 C 0.62763 0.62143 0.33108 0.0
H580 H 0.67508 0.61625 0.90853 0.0
H581 H 0.73832 0.65376 0.82185 0.0
H582 H 0.74161 0.64289 1.00109 0.0
H583 H 0.76106 0.65906 0.91248 0.0
H584 H 0.64611 0.6241 0.43672 0.0
H585 H 0.5771 0.59793 0.52253 0.0
H586 H 0.57793 0.6031 0.34237 0.0
H587 H 0.55523 0.59291 0.43107 0.0
Eu588 Eu 0.60344 0.37726 0.82261 0.0
C589 C 0.64428 0.27699 0.93003 0.0
C590 C 0.61859 0.24425 0.88252 0.0
C591 C 0.66166 0.2336 0.91652 0.0
C592 C 0.62168 0.26982 0.90253 0.0
C593 C 0.6642 0.25873 0.93865 0.0
C594 C 0.63893 0.22639 0.88839 0.0
C595 C 0.68645 0.29058 0.99563 0.0
N596 N 0.64609 0.30132 0.9516 0.0
C597 C 0.66614 0.30796 0.98629 0.0
C598 C 0.68567 0.26599 0.97101 0.0
Eu599 Eu 0.61104 0.32939 0.93253 0.0
N600 N 0.60202 0.28723 0.89896 0.0
C601 C 0.5781 0.27969 0.88083 0.0
C602 C 0.59477 0.23711 0.85917 0.0
C603 C 0.57425 0.2547 0.85958 0.0
H604 H 0.66675 0.3269 1.00563 0.0
H605 H 0.55549 0.24907 0.8434 0.0
H606 H 0.63694 0.20672 0.87295 0.0
H607 H 0.70265 0.29613 1.0219 0.0
H608 H 0.5621 0.29315 0.88112 0.0
H609 H 0.66146 0.4622 0.87889 0.0
H610 H 0.59175 0.21781 0.84255 0.0
H611 H 0.54276 0.3754 0.77035 0.0
H612 H 0.65363 0.41649 0.85553 0.0
H613 H 0.50548 0.40461 0.75831 0.0
H614 H 0.67685 0.21937 0.92232 0.0
H615 H 0.62523 0.49351 0.87794 0.0
H616 H 0.57835 0.50248 0.85822 0.0
H617 H 0.70137 0.25251 0.97861 0.0
H618 H 0.536 0.48688 0.82511 0.0
N619 N 0.61312 0.42126 0.8431 0.0
C620 C 0.63757 0.42975 0.85496 0.0
C621 C 0.62164 0.47336 0.8677 0.0
C622 C 0.59689 0.46488 0.85246 0.0
C623 C 0.64214 0.45577 0.86817 0.0
C624 C 0.59323 0.43839 0.83977 0.0
H625 H 0.50877 0.45055 0.78718 0.0
N626 N 0.56694 0.40428 0.80706 0.0
C627 C 0.52332 0.41189 0.77624 0.0
C628 C 0.56945 0.42966 0.82101 0.0
C629 C 0.54456 0.39539 0.78306 0.0
C630 C 0.52524 0.43779 0.79267 0.0
C631 C 0.54859 0.44708 0.81466 0.0
O632 O 0.59825 0.36896 0.73307 0.0
O633 O 0.60865 0.33419 0.8376 0.0
O634 O 0.64987 0.33072 0.8892 0.0
O635 O 0.64714 0.37077 0.84393 0.0
O636 O 0.57799 0.34526 0.78796 0.0
O637 O 0.6305 0.3927 0.7596 0.0
O638 O 0.60616 0.34139 1.02041 0.0
O639 O 0.60785 0.37167 0.91467 0.0
O640 O 0.56837 0.38053 0.88215 0.0
O641 O 0.56813 0.33831 0.91519 0.0
O642 O 0.63537 0.36128 0.97351 0.0
O643 O 0.59022 0.30493 0.99329 0.0
C644 C 0.59099 0.32549 0.80503 0.0
C645 C 0.61346 0.39922 0.66709 0.0
C646 C 0.60806 0.40221 0.56463 0.0
C647 C 0.61325 0.38754 0.61346 0.0
C648 C 0.60321 0.42892 0.57059 0.0
C649 C 0.60837 0.42581 0.67209 0.0
C650 C 0.60336 0.44056 0.62392 0.0
C651 C 0.66078 0.35083 0.86419 0.0
C652 C 0.6179 0.38286 0.71698 0.0
C653 C 0.55185 0.47325 0.8293 0.0
C654 C 0.57596 0.48213 0.84819 0.0
C655 C 0.62471 0.38074 0.94821 0.0
C656 C 0.60568 0.30818 0.08791 0.0
C657 C 0.60284 0.32141 0.13946 0.0
C658 C 0.61287 0.31094 0.18958 0.0
C659 C 0.62596 0.28711 0.18778 0.0
C660 C 0.61928 0.2846 0.08669 0.0
C661 C 0.62938 0.27419 0.13645 0.0
C662 C 0.55672 0.36121 0.90923 0.0
C663 C 0.59518 0.31998 0.03607 0.0
H664 H 0.61727 0.36698 0.6099 0.0
H665 H 0.59883 0.44077 0.53416 0.0
H666 H 0.60811 0.4351 0.71306 0.0
H667 H 0.59938 0.46107 0.62794 0.0
H668 H 0.5927 0.33981 0.14063 0.0
H669 H 0.63381 0.2787 0.22594 0.0
H670 H 0.62199 0.27415 0.04751 0.0
H671 H 0.63967 0.25592 0.13531 0.0
Eu672 Eu 0.8319 0.61046 0.68009 0.0
C673 C 0.93292 0.57165 0.56389 0.0
C674 C 0.9679 0.59966 0.59413 0.0
C675 C 0.97686 0.55482 0.56963 0.0
C676 C 0.94139 0.59556 0.58263 0.0
C677 C 0.95064 0.55111 0.55631 0.0
C678 C 0.98548 0.57905 0.58852 0.0
C679 C 0.91553 0.52522 0.51957 0.0
N680 N 0.90747 0.56869 0.5513 0.0
C681 C 0.89873 0.54616 0.52759 0.0
C682 C 0.94155 0.5276 0.53453 0.0
Eu683 Eu 0.87999 0.60468 0.56879 0.0
N684 N 0.92394 0.61512 0.58732 0.0
C685 C 0.93206 0.63968 0.59953 0.0
C686 C 0.97605 0.62451 0.60964 0.0
C687 C 0.95809 0.64468 0.61158 0.0
H688 H 0.87865 0.54401 0.51608 0.0
H689 H 0.96426 0.66409 0.62253 0.0
H690 H 1.00586 0.58179 0.5976 0.0
H691 H 0.90838 0.50726 0.50186 0.0
H692 H 0.91852 0.65548 0.60118 0.0
H693 H 0.75411 0.55451 0.58246 0.0
H694 H 0.99621 0.62843 0.61898 0.0
H695 H 0.82608 0.66423 0.75883 0.0
H696 H 0.79645 0.56086 0.62872 0.0
H697 H 0.79477 0.70007 0.77258 0.0
H698 H 0.99072 0.53921 0.56447 0.0
H699 H 0.72394 0.59137 0.57277 0.0
H700 H 0.71243 0.63757 0.59937 0.0
H701 H 0.95453 0.51137 0.52813 0.0
H702 H 0.72279 0.6767 0.65433 0.0
N703 N 0.79005 0.60086 0.64526 0.0
C704 C 0.78309 0.5769 0.6262 0.0
C705 C 0.7421 0.59412 0.59461 0.0
C706 C 0.74839 0.61795 0.61933 0.0
C707 C 0.75914 0.57325 0.59983 0.0
C708 C 0.77273 0.62057 0.64536 0.0
H709 H 0.7531 0.6998 0.72101 0.0
N710 N 0.80217 0.64407 0.70064 0.0
C711 C 0.79011 0.68415 0.74466 0.0
C712 C 0.77883 0.64281 0.67478 0.0
C713 C 0.80772 0.66381 0.73707 0.0
C714 C 0.76664 0.68396 0.71536 0.0
C715 C 0.76062 0.66296 0.68031 0.0
O716 O 0.83954 0.61071 0.77069 0.0
O717 O 0.87413 0.60853 0.66082 0.0
O718 O 0.88445 0.5695 0.62793 0.0
O719 O 0.84212 0.56812 0.65965 0.0
O720 O 0.86355 0.63425 0.7233 0.0
O721 O 0.81422 0.58149 0.73578 0.0
O722 O 0.87117 0.5996 0.47949 0.0
O723 O 0.83701 0.60931 0.58506 0.0
O724 O 0.83282 0.64982 0.63887 0.0
O725 O 0.87286 0.64804 0.59286 0.0
O726 O 0.84817 0.57905 0.53407 0.0
O727 O 0.8939 0.63263 0.50586 0.0
C728 C 0.88302 0.62473 0.69606 0.0
C729 C 0.80868 0.5928 0.8332 0.0
C730 C 0.8071 0.59629 0.93623 0.0
C731 C 0.82131 0.59508 0.88554 0.0
C732 C 0.77995 0.5948 0.93388 0.0
C733 C 0.78154 0.59146 0.83176 0.0
C734 C 0.76733 0.5922 0.882 0.0
C735 C 0.86535 0.55734 0.65477 0.0
C736 C 0.82453 0.59111 0.78142 0.0
C737 C 0.7369 0.6612 0.65161 0.0
C738 C 0.73096 0.63886 0.62044 0.0
C739 C 0.82836 0.59191 0.55169 0.0
C740 C 0.89942 0.61687 0.41154 0.0
C741 C 0.88654 0.61534 0.35931 0.0
C742 C 0.90043 0.61125 0.30879 0.0
C743 C 0.92758 0.60897 0.31165 0.0
C744 C 0.92643 0.61431 0.41334 0.0
C745 C 0.94039 0.6105 0.36348 0.0
C746 C 0.85278 0.66122 0.61417 0.0
C747 C 0.88393 0.61999 0.46336 0.0
H748 H 0.84228 0.59615 0.88672 0.0
H749 H 0.7685 0.59529 0.97222 0.0
H750 H 0.77134 0.58968 0.79206 0.0
H751 H 0.74642 0.59081 0.88075 0.0
H752 H 0.86559 0.61672 0.35836 0.0
H753 H 0.93899 0.6062 0.27375 0.0
H754 H 0.93667 0.6151 0.45314 0.0
H755 H 0.96126 0.60863 0.36501 0.0
Eu756 Eu 0.60115 0.13691 0.47379 0.0
C757 C 0.63637 0.23845 0.3579 0.0
C758 C 0.61345 0.26918 0.41661 0.0
C759 C 0.65424 0.28149 0.37275 0.0
C760 C 0.61563 0.24439 0.39214 0.0
C761 C 0.65535 0.25727 0.34569 0.0
C762 C 0.63346 0.28731 0.4088 0.0
C763 C 0.67327 0.22776 0.27665 0.0
N764 N 0.63677 0.2149 0.33275 0.0
C765 C 0.65417 0.20962 0.29088 0.0
C766 C 0.67421 0.25149 0.30506 0.0
Eu767 Eu 0.60491 0.1846 0.36105 0.0
N768 N 0.59644 0.22665 0.39722 0.0
C769 C 0.57312 0.23357 0.41995 0.0
C770 C 0.59064 0.27539 0.44564 0.0
C771 C 0.57005 0.25781 0.44565 0.0
H772 H 0.65373 0.19113 0.2695 0.0
H773 H 0.55191 0.26281 0.46586 0.0
H774 H 0.63239 0.30633 0.42806 0.0
H775 H 0.68738 0.22332 0.24423 0.0
H776 H 0.55722 0.21997 0.42065 0.0
H777 H 0.66333 0.05444 0.4205 0.0
H778 H 0.58825 0.29412 0.46567 0.0
H779 H 0.54067 0.13653 0.52665 0.0
H780 H 0.65328 0.1 0.44076 0.0
H781 H 0.50489 0.10558 0.54172 0.0
H782 H 0.66886 0.2961 0.36468 0.0
H783 H 0.62882 0.02128 0.42526 0.0
H784 H 0.58258 0.01016 0.44722 0.0
H785 H 0.68904 0.26548 0.29409 0.0
H786 H 0.53955 0.024 0.48034 0.0
N787 N 0.61313 0.09327 0.45566 0.0
C788 C 0.63792 0.08593 0.44318 0.0
C789 C 0.62423 0.04136 0.43425 0.0
C790 C 0.59915 0.04875 0.44986 0.0
C791 C 0.64376 0.06 0.43164 0.0
C792 C 0.59418 0.07517 0.46089 0.0
H793 H 0.51052 0.05943 0.51619 0.0
N794 N 0.56616 0.10832 0.49173 0.0
C795 C 0.52306 0.09896 0.52399 0.0
C796 C 0.56999 0.08291 0.4796 0.0
C797 C 0.54341 0.11643 0.51553 0.0
C798 C 0.5263 0.07294 0.50945 0.0
C799 C 0.55008 0.06454 0.48766 0.0
O800 O 0.59518 0.14497 0.5633 0.0
O801 O 0.60533 0.17995 0.45665 0.0
O802 O 0.6459 0.18283 0.39412 0.0
O803 O 0.64406 0.14513 0.44926 0.0
O804 O 0.57544 0.16851 0.50888 0.0
O805 O 0.62984 0.12475 0.53649 0.0
O806 O 0.60239 0.17624 0.27071 0.0
O807 O 0.60428 0.14254 0.38178 0.0
O808 O 0.56587 0.1315 0.41551 0.0
O809 O 0.5632 0.17392 0.38565 0.0
O810 O 0.62825 0.15301 0.3161 0.0
O811 O 0.57378 0.20099 0.30958 0.0
C812 C 0.58828 0.18836 0.49132 0.0
C813 C 0.61486 0.11824 0.6312 0.0
C814 C 0.61056 0.11723 0.73421 0.0
C815 C 0.61221 0.13117 0.68323 0.0
C816 C 0.61161 0.08999 0.73212 0.0
C817 C 0.61558 0.09108 0.63007 0.0
C818 C 0.61402 0.07708 0.68042 0.0
C819 C 0.65723 0.1639 0.42282 0.0
C820 C 0.61649 0.13375 0.57913 0.0
C821 C 0.55467 0.03837 0.47482 0.0
C822 C 0.57916 0.03049 0.45594 0.0
C823 C 0.61989 0.13361 0.34525 0.0
C824 C 0.58191 0.20668 0.21063 0.0
C825 C 0.58632 0.19458 0.1581 0.0
C826 C 0.58412 0.20855 0.10716 0.0
C827 C 0.57729 0.23492 0.10983 0.0
C828 C 0.57546 0.2331 0.21199 0.0
C829 C 0.57303 0.24702 0.1618 0.0
C830 C 0.55305 0.15039 0.3897 0.0
C831 C 0.58225 0.19083 0.26266 0.0
H832 H 0.61173 0.15218 0.68395 0.0
H833 H 0.61012 0.07861 0.77037 0.0
H834 H 0.61731 0.08074 0.59045 0.0
H835 H 0.61458 0.05612 0.6794 0.0
H836 H 0.59071 0.17404 0.15695 0.0
H837 H 0.57556 0.24637 0.07176 0.0
H838 H 0.57195 0.24293 0.25165 0.0
H839 H 0.5679 0.26735 0.16316 0.0
Eu840 Eu 0.18456 0.40352 0.68204 0.0
C841 C 0.08355 0.44334 0.5674 0.0
C842 C 0.04841 0.4156 0.59814 0.0
C843 C 0.03973 0.46047 0.5736 0.0
C844 C 0.07494 0.41951 0.58632 0.0
C845 C 0.06598 0.46399 0.55997 0.0
C846 C 0.03096 0.43632 0.59267 0.0
C847 C 0.10125 0.48959 0.52275 0.0
N848 N 0.10901 0.44609 0.55448 0.0
C849 C 0.1179 0.46855 0.53063 0.0
C850 C 0.07522 0.48741 0.53801 0.0
Eu851 Eu 0.13631 0.40996 0.57172 0.0
N852 N 0.09227 0.39986 0.59088 0.0
C853 C 0.08398 0.37537 0.60329 0.0
C854 C 0.0401 0.39083 0.61384 0.0
C855 C 0.05793 0.37055 0.61566 0.0
H856 H 0.138 0.47055 0.5189 0.0
H857 H 0.05164 0.35119 0.62676 0.0
H858 H 0.01056 0.43372 0.60199 0.0
H859 H 0.10852 0.50749 0.50492 0.0
H860 H 0.09741 0.35948 0.60489 0.0
H861 H 0.2625 0.46046 0.58658 0.0
H862 H 0.01991 0.38704 0.62341 0.0
H863 H 0.18966 0.34887 0.7572 0.0
H864 H 0.21956 0.45327 0.62959 0.0
H865 H 0.22134 0.31361 0.77279 0.0
H866 H 0.02597 0.47616 0.56855 0.0
H867 H 0.29419 0.42457 0.58187 0.0
H868 H 0.3066 0.37936 0.6117 0.0
H869 H 0.06234 0.50373 0.53172 0.0
H870 H 0.29586 0.33978 0.66485 0.0
N871 N 0.22662 0.41354 0.64799 0.0
C872 C 0.23331 0.43753 0.6285 0.0
C873 C 0.27545 0.42137 0.6013 0.0
C874 C 0.26932 0.39756 0.62626 0.0
C875 C 0.25764 0.44168 0.60398 0.0
C876 C 0.24445 0.3943 0.64986 0.0
H877 H 0.2643 0.31533 0.72627 0.0
N878 N 0.21447 0.37005 0.70237 0.0
C879 C 0.22633 0.32986 0.74602 0.0
C880 C 0.23829 0.37192 0.67869 0.0
C881 C 0.2085 0.34987 0.73734 0.0
C882 C 0.25053 0.33086 0.71956 0.0
C883 C 0.2569 0.35223 0.68589 0.0
O884 O 0.17883 0.40151 0.77347 0.0
O885 O 0.14229 0.40592 0.66359 0.0
O886 O 0.13235 0.44534 0.6307 0.0
O887 O 0.1747 0.44591 0.66184 0.0
O888 O 0.15266 0.38006 0.72562 0.0
O889 O 0.19952 0.434 0.73728 0.0
O890 O 0.14421 0.41533 0.48194 0.0
O891 O 0.17933 0.40488 0.58706 0.0
O892 O 0.18337 0.36435 0.63965 0.0
O893 O 0.14301 0.36655 0.59562 0.0
O894 O 0.16833 0.43527 0.53644 0.0
O895 O 0.12307 0.38139 0.50971 0.0
C896 C 0.13325 0.38985 0.69896 0.0
C897 C 0.2068 0.42465 0.83523 0.0
C898 C 0.20828 0.42371 0.93878 0.0
C899 C 0.19479 0.42 0.88771 0.0
C900 C 0.23413 0.43231 0.93622 0.0
C901 C 0.2327 0.43288 0.8339 0.0
C902 C 0.24617 0.43681 0.88421 0.0
C903 C 0.15167 0.45711 0.65745 0.0
C904 C 0.19102 0.42308 0.78339 0.0
C905 C 0.28137 0.35482 0.66041 0.0
C906 C 0.28748 0.37736 0.63014 0.0
C907 C 0.18806 0.42227 0.55367 0.0
C908 C 0.11692 0.39583 0.41456 0.0
C909 C 0.12995 0.39937 0.36289 0.0
C910 C 0.11624 0.40008 0.31166 0.0
C911 C 0.08914 0.39731 0.31294 0.0
C912 C 0.08986 0.39346 0.41501 0.0
C913 C 0.07609 0.39419 0.36431 0.0
C914 C 0.1631 0.35312 0.61588 0.0
C915 C 0.13232 0.39426 0.46672 0.0
H916 H 0.17457 0.41433 0.88866 0.0
H917 H 0.24523 0.43524 0.97438 0.0
H918 H 0.24239 0.43669 0.79418 0.0
H919 H 0.2661 0.4433 0.88293 0.0
H920 H 0.15089 0.40109 0.36254 0.0
H921 H 0.07802 0.39794 0.27429 0.0
H922 H 0.07941 0.39095 0.45433 0.0
H923 H 0.05521 0.3923 0.3648 0.0
Eu924 Eu 0.4098 0.87922 0.47749 0.0
C925 C 0.36909 0.77855 0.37082 0.0
C926 C 0.39478 0.74598 0.41882 0.0
C927 C 0.35187 0.73507 0.38424 0.0
C928 C 0.39163 0.77153 0.39874 0.0
C929 C 0.34931 0.76014 0.36186 0.0
C930 C 0.37452 0.72803 0.41281 0.0
C931 C 0.32729 0.79163 0.30365 0.0
N932 N 0.36729 0.80279 0.34884 0.0
C933 C 0.34744 0.80917 0.3134 0.0
C934 C 0.32802 0.76716 0.32873 0.0
Eu935 Eu 0.40222 0.83102 0.368 0.0
N936 N 0.41125 0.789 0.40233 0.0
C937 C 0.4352 0.78154 0.42041 0.0
C938 C 0.41862 0.73892 0.4422 0.0
C939 C 0.4391 0.75658 0.44176 0.0
H940 H 0.34688 0.828 0.2936 0.0
H941 H 0.45787 0.75101 0.4579 0.0
H942 H 0.37655 0.70839 0.42833 0.0
H943 H 0.31127 0.79698 0.27672 0.0
H944 H 0.45118 0.79502 0.42001 0.0
H945 H 0.35301 0.9651 0.42296 0.0
H946 H 0.4217 0.71961 0.45873 0.0
H947 H 0.47085 0.87626 0.52817 0.0
H948 H 0.36028 0.91918 0.44533 0.0
H949 H 0.50852 0.9049 0.54023 0.0
H950 H 0.33678 0.72075 0.3782 0.0
H951 H 0.38967 0.99594 0.42435 0.0
H952 H 0.43669 1.00421 0.44393 0.0
H953 H 0.31246 0.75355 0.32079 0.0
H954 H 0.4789 0.98789 0.47618 0.0
N955 N 0.40084 0.92339 0.45751 0.0
C956 C 0.3765 0.93225 0.446 0.0
C957 C 0.393 0.9757 0.43409 0.0
C958 C 0.41765 0.96682 0.44897 0.0
C959 C 0.37226 0.95838 0.43338 0.0
C960 C 0.42096 0.94024 0.46108 0.0
H961 H 0.50575 0.95103 0.5127 0.0
N962 N 0.44684 0.90563 0.49282 0.0
C963 C 0.49071 0.91251 0.52287 0.0
C964 C 0.44465 0.93111 0.47947 0.0
C965 C 0.46922 0.89633 0.51606 0.0
C966 C 0.48908 0.93852 0.50721 0.0
C967 C 0.46578 0.94822 0.48588 0.0
O968 O 0.41458 0.87131 0.56728 0.0
O969 O 0.40456 0.83603 0.46295 0.0
O970 O 0.36308 0.8331 0.41007 0.0
O971 O 0.36618 0.87305 0.45598 0.0
O972 O 0.43492 0.8472 0.51328 0.0
O973 O 0.3825 0.895 0.53961 0.0
O974 O 0.40915 0.84347 0.28094 0.0
O975 O 0.40477 0.87338 0.3855 0.0
O976 O 0.44444 0.8826 0.41698 0.0
O977 O 0.445 0.84008 0.38608 0.0
O978 O 0.37767 0.8624 0.32604 0.0
O979 O 0.42198 0.80574 0.30716 0.0
C980 C 0.42206 0.82737 0.49599 0.0
C981 C 0.3991 0.90186 0.63245 0.0
C982 C 0.40471 0.90491 0.73484 0.0
C983 C 0.3997 0.89018 0.68598 0.0
C984 C 0.40883 0.93174 0.72905 0.0
C985 C 0.40348 0.92858 0.62755 0.0
C986 C 0.40821 0.94342 0.67578 0.0
C987 C 0.35237 0.85334 0.43517 0.0
C988 C 0.3949 0.88534 0.58266 0.0
C989 C 0.46285 0.9745 0.47189 0.0
C990 C 0.43883 0.98378 0.45348 0.0
C991 C 0.38784 0.88208 0.35157 0.0
C992 C 0.40719 0.81061 0.21247 0.0
C993 C 0.4104 0.82411 0.16134 0.0
C994 C 0.39934 0.81472 0.11107 0.0
C995 C 0.38488 0.79163 0.11263 0.0
C996 C 0.39245 0.78772 0.21311 0.0
C997 C 0.38133 0.77838 0.16344 0.0
C998 C 0.45618 0.86317 0.39049 0.0
C999 C 0.41846 0.82136 0.26475 0.0
H1000 H 0.39617 0.86953 0.68943 0.0
H1001 H 0.41302 0.94366 0.76551 0.0
H1002 H 0.40341 0.93791 0.58662 0.0
H1003 H 0.41164 0.96404 0.67184 0.0
H1004 H 0.42161 0.84188 0.16068 0.0
H1005 H 0.37602 0.78403 0.07468 0.0
H1006 H 0.38955 0.77698 0.25182 0.0
H1007 H 0.37006 0.76069 0.16426 0.0
Eu1008 Eu 0.83 0.90699 0.6179 0.0
C1009 C 0.93062 0.94374 0.73866 0.0
C1010 C 0.96567 0.91582 0.70823 0.0
C1011 C 0.97468 0.96042 0.73466 0.0
C1012 C 0.9391 0.91996 0.71915 0.0
C1013 C 0.94837 0.96414 0.74743 0.0
C1014 C 0.98332 0.9363 0.7151 0.0
C1015 C 0.91309 0.98994 0.78393 0.0
N1016 N 0.90507 0.94672 0.75059 0.0
C1017 C 0.89625 0.96915 0.77471 0.0
C1018 C 0.93922 0.98753 0.7697 0.0
Eu1019 Eu 0.87749 0.91103 0.73062 0.0
N1020 N 0.92157 0.90055 0.71313 0.0
C1021 C 0.92967 0.87605 0.7003 0.0
C1022 C 0.97382 0.89106 0.69202 0.0
C1023 C 0.95577 0.871 0.68885 0.0
H1024 H 0.87608 0.97136 0.78561 0.0
H1025 H 0.96192 0.85165 0.6774 0.0
H1026 H 1.00375 0.93353 0.70647 0.0
H1027 H 0.90589 0.00782 0.80196 0.0
H1028 H 0.91607 0.86033 0.69771 0.0
H1029 H 0.75411 0.96725 0.71127 0.0
H1030 H 0.99403 0.8871 0.68311 0.0
H1031 H 0.82287 0.85265 0.54228 0.0
H1032 H 0.79709 0.95808 0.67018 0.0
H1033 H 0.78983 0.81862 0.52646 0.0
H1034 H 0.98857 0.97592 0.74073 0.0
H1035 H 0.72086 0.93281 0.71486 0.0
H1036 H 0.70708 0.88764 0.68716 0.0
H1037 H 0.95223 1.00367 0.77698 0.0
H1038 H 0.71639 0.84756 0.63455 0.0
N1039 N 0.78836 0.91871 0.65149 0.0
C1040 C 0.78263 0.94297 0.67079 0.0
C1041 C 0.73957 0.92873 0.69622 0.0
C1042 C 0.74493 0.90453 0.67223 0.0
C1043 C 0.7583 0.94824 0.69423 0.0
C1044 C 0.76977 0.90019 0.64933 0.0
H1045 H 0.74698 0.82194 0.57306 0.0
N1046 N 0.79892 0.87465 0.59736 0.0
C1047 C 0.78548 0.83502 0.55332 0.0
C1048 C 0.77515 0.87749 0.62084 0.0
C1049 C 0.80408 0.85433 0.56211 0.0
C1050 C 0.76135 0.83692 0.57985 0.0
C1051 C 0.75579 0.85853 0.61354 0.0
O1052 O 0.83584 0.90458 0.5267 0.0
O1053 O 0.87199 0.90801 0.63853 0.0
O1054 O 0.88342 0.94629 0.67287 0.0
O1055 O 0.84181 0.94916 0.63727 0.0
O1056 O 0.86174 0.88341 0.57391 0.0
O1057 O 0.81582 0.93768 0.56225 0.0
O1058 O 0.86881 0.91538 0.82026 0.0
O1059 O 0.83452 0.90724 0.713 0.0
O1060 O 0.83029 0.86731 0.65833 0.0
O1061 O 0.87036 0.86814 0.70385 0.0
O1062 O 0.84572 0.93671 0.76584 0.0
O1063 O 0.88987 0.88157 0.79136 0.0
C1064 C 0.88103 0.89233 0.60241 0.0
C1065 C 0.80762 0.92723 0.46526 0.0
C1066 C 0.80515 0.92498 0.36201 0.0
C1067 C 0.81925 0.92238 0.41253 0.0
C1068 C 0.77907 0.93277 0.36529 0.0
C1069 C 0.78148 0.93457 0.46748 0.0
C1070 C 0.76739 0.93745 0.41763 0.0
C1071 C 0.86524 0.95918 0.6449 0.0
C1072 C 0.8239 0.92624 0.51634 0.0
C1073 C 0.73142 0.86207 0.63889 0.0
C1074 C 0.7261 0.88493 0.66874 0.0
C1075 C 0.82586 0.92441 0.74692 0.0
C1076 C 0.89603 0.89542 0.88683 0.0
C1077 C 0.88305 0.89901 0.93848 0.0
C1078 C 0.8968 0.89984 0.98962 0.0
C1079 C 0.92389 0.89705 0.98829 0.0
C1080 C 0.92309 0.89304 0.88626 0.0
C1081 C 0.9369 0.89382 0.93689 0.0
C1082 C 0.85019 0.8554 0.68201 0.0
C1083 C 0.88058 0.89414 0.83475 0.0
H1084 H 0.83962 0.91731 0.41093 0.0
H1085 H 0.76756 0.93492 0.32747 0.0
H1086 H 0.77205 0.93842 0.50749 0.0
H1087 H 0.74727 0.9433 0.41952 0.0
H1088 H 0.86212 0.90076 0.93888 0.0
H1089 H 0.93505 0.89777 0.0269 0.0
H1090 H 0.93351 0.89053 0.8469 0.0
H1091 H 0.95778 0.89193 0.93633 0.0
Eu1092 Eu 0.90913 0.1381 0.31728 0.0
C1093 C 0.91383 0.24078 0.39349 0.0
C1094 C 0.95376 0.25496 0.4371 0.0
C1095 C 0.93167 0.28307 0.37057 0.0
C1096 C 0.93474 0.2358 0.4282 0.0
C1097 C 0.91166 0.26481 0.36564 0.0
C1098 C 0.95272 0.27815 0.4062 0.0
C1099 C 0.86943 0.25153 0.33282 0.0
N1100 N 0.89495 0.22262 0.38914 0.0
C1101 C 0.87259 0.22784 0.36064 0.0
C1102 C 0.88924 0.26994 0.33448 0.0
Eu1103 Eu 0.90301 0.18235 0.43354 0.0
N1104 N 0.93541 0.21302 0.45664 0.0
C1105 C 0.9522 0.2097 0.50057 0.0
C1106 C 0.97258 0.25065 0.47848 0.0
C1107 C 0.97136 0.22822 0.5114 0.0
H1108 H 0.85738 0.21357 0.35801 0.0
H1109 H 0.98522 0.22513 0.54491 0.0
H1110 H 0.96759 0.29279 0.4111 0.0
H1111 H 0.85187 0.25541 0.30944 0.0
H1112 H 0.95133 0.19222 0.52569 0.0
H1113 H 0.85518 0.05158 0.37958 0.0
H1114 H 0.98742 0.26498 0.48692 0.0
H1115 H 0.96761 0.14122 0.25422 0.0
H1116 H 0.86115 0.0976 0.35537 0.0
H1117 H 1.00562 0.11322 0.23813 0.0
H1118 H 0.93064 0.30131 0.34821 0.0
H1119 H 0.89252 0.02159 0.37701 0.0
H1120 H 0.93943 0.01416 0.35368 0.0
H1121 H 0.88686 0.28818 0.31248 0.0
H1122 H 0.9804 0.03093 0.31498 0.0
N1123 N 0.90162 0.09402 0.34009 0.0
C1124 C 0.87763 0.08479 0.35378 0.0
C1125 C 0.89527 0.04181 0.36622 0.0
C1126 C 0.9195 0.05107 0.34898 0.0
C1127 C 0.87414 0.05865 0.36753 0.0
C1128 C 0.92202 0.07758 0.33542 0.0
H1129 H 1.00514 0.06772 0.27101 0.0
N1130 N 0.9462 0.11226 0.29814 0.0
C1131 C 0.98878 0.10564 0.25983 0.0
C1132 C 0.945 0.08695 0.31353 0.0
C1133 C 0.9672 0.12147 0.26909 0.0
C1134 C 0.98844 0.07998 0.27851 0.0
C1135 C 0.96621 0.07018 0.30478 0.0
O1136 O 0.91024 0.15033 0.22874 0.0
O1137 O 0.90252 0.18048 0.33783 0.0
O1138 O 0.86181 0.17247 0.40979 0.0
O1139 O 0.86521 0.14352 0.33455 0.0
O1140 O 0.93416 0.17147 0.28808 0.0
O1141 O 0.8853 0.11898 0.25316 0.0
O1142 O 0.87456 0.20458 0.48283 0.0
O1143 O 0.89653 0.14105 0.40703 0.0
O1144 O 0.94668 0.13555 0.37044 0.0
O1145 O 0.9463 0.17494 0.41853 0.0
O1146 O 0.91714 0.14676 0.48102 0.0
O1147 O 0.89794 0.17572 0.52378 0.0
C1148 C 0.92031 0.19039 0.30666 0.0
C1149 C 0.90212 0.11872 0.15959 0.0
C1150 C 0.907 0.11867 0.05683 0.0
C1151 C 0.90013 0.13144 0.10724 0.0
C1152 C 0.91608 0.09301 0.0597 0.0
C1153 C 0.91154 0.09323 0.16152 0.0
C1154 C 0.91844 0.08049 0.11172 0.0
C1155 C 0.85134 0.15747 0.37098 0.0
C1156 C 0.89445 0.13256 0.21142 0.0
C1157 C 0.96424 0.04406 0.32087 0.0
C1158 C 0.94092 0.03452 0.34294 0.0
C1159 C 0.90716 0.12945 0.44831 0.0
C1160 C 0.88246 0.2095 0.5822 0.0
C1161 C 0.88628 0.19698 0.63429 0.0
C1162 C 0.88679 0.21107 0.68514 0.0
C1163 C 0.88317 0.23805 0.68329 0.0
C1164 C 0.87897 0.23649 0.58133 0.0
C1165 C 0.87918 0.25059 0.63173 0.0
C1166 C 0.95825 0.15339 0.40229 0.0
C1167 C 0.88055 0.19358 0.53043 0.0
H1168 H 0.89284 0.15113 0.10574 0.0
H1169 H 0.92168 0.08273 1.02174 0.0
H1170 H 0.91352 0.08318 0.20138 0.0
H1171 H 0.92566 0.06081 0.11343 0.0
H1172 H 0.88889 0.17613 0.63517 0.0
H1173 H 0.8831 0.24941 0.72175 0.0
H1174 H 0.87582 0.24665 0.54198 0.0
H1175 H 0.87627 0.27136 0.63085 0.0
Eu1176 Eu 0.18311 0.10675 0.60898 0.0
C1177 C 0.0817 0.06985 0.72633 0.0
C1178 C 0.04712 0.09804 0.69495 0.0
C1179 C 0.03754 0.05352 0.72104 0.0
C1180 C 0.07356 0.0937 0.70669 0.0
C1181 C 0.06371 0.04959 0.73458 0.0
C1182 C 0.02926 0.0777 0.70125 0.0
C1183 C 0.09846 0.02356 0.77234 0.0
N1184 N 0.1071 0.06667 0.73909 0.0
C1185 C 0.11553 0.04423 0.76365 0.0
C1186 C 0.07248 0.02615 0.75721 0.0
Eu1187 Eu 0.13511 0.10212 0.72024 0.0
N1188 N 0.09129 0.11298 0.70123 0.0
C1189 C 0.08351 0.13752 0.6879 0.0
C1190 C 0.03932 0.12285 0.67843 0.0
C1191 C 0.05756 0.14275 0.67561 0.0
H1192 H 0.13558 0.04193 0.77527 0.0
H1193 H 0.05168 0.16213 0.66378 0.0
H1194 H 0.00893 0.08063 0.69199 0.0
H1195 H 0.10535 1.00566 0.7907 0.0
H1196 H 0.09727 0.15312 0.68545 0.0
H1197 H 0.26 0.04902 0.70536 0.0
H1198 H 0.01922 0.12696 0.66888 0.0
H1199 H 0.18938 0.16071 0.53163 0.0
H1200 H 0.21721 0.05668 0.66243 0.0
H1201 H 0.22168 0.19535 0.51508 0.0
H1202 H 0.02348 0.03814 0.7267 0.0
H1203 H 0.29225 0.08445 0.70919 0.0
H1204 H 0.30528 0.12947 0.67898 0.0
H1205 H 0.05928 0.01012 0.76412 0.0
H1206 H 0.29534 0.16886 0.62459 0.0
N1207 N 0.22496 0.09618 0.643 0.0
C1208 C 0.23122 0.0722 0.66306 0.0
C1209 C 0.27358 0.08785 0.68976 0.0
C1210 C 0.26785 0.11164 0.6644 0.0
C1211 C 0.25546 0.06778 0.68757 0.0
C1212 C 0.24309 0.11514 0.64065 0.0
H1213 H 0.26443 0.19332 0.56202 0.0
N1214 N 0.21364 0.13953 0.58735 0.0
C1215 C 0.22631 0.17922 0.54241 0.0
C1216 C 0.23737 0.13744 0.61118 0.0
C1217 C 0.20813 0.15955 0.55164 0.0
C1218 C 0.25039 0.17804 0.56912 0.0
C1219 C 0.2563 0.15681 0.60351 0.0
O1220 O 0.17701 0.10838 0.51776 0.0
O1221 O 0.1407 0.10525 0.62788 0.0
O1222 O 0.13035 0.0664 0.66276 0.0
O1223 O 0.17246 0.06449 0.62968 0.0
O1224 O 0.15175 0.13082 0.56565 0.0
O1225 O 0.19803 0.07613 0.55376 0.0
O1226 O 0.1431 0.09713 0.80999 0.0
O1227 O 0.17819 0.10631 0.70416 0.0
O1228 O 0.18287 0.14624 0.65006 0.0
O1229 O 0.14265 0.14524 0.69523 0.0
O1230 O 0.16672 0.07643 0.75574 0.0
O1231 O 0.1222 0.1311 0.78184 0.0
C1232 C 0.13207 0.12153 0.59244 0.0
C1233 C 0.20529 0.08574 0.45578 0.0
C1234 C 0.207 0.08745 0.35227 0.0
C1235 C 0.19335 0.09062 0.40344 0.0
C1236 C 0.23294 0.07915 0.35456 0.0
C1237 C 0.23127 0.07782 0.45686 0.0
C1238 C 0.24491 0.07442 0.40643 0.0
C1239 C 0.14926 0.05382 0.6362 0.0
C1240 C 0.18941 0.08695 0.50771 0.0
C1241 C 0.28062 0.15404 0.62931 0.0
C1242 C 0.28628 0.13161 0.66025 0.0
C1243 C 0.18667 0.08903 0.73802 0.0
C1244 C 0.11603 0.11707 0.8774 0.0
C1245 C 0.12906 0.11336 0.92889 0.0
C1246 C 0.11539 0.11283 0.98034 0.0
C1247 C 0.08834 0.11597 0.97945 0.0
C1248 C 0.08901 0.11981 0.87737 0.0
C1249 C 0.07529 0.11928 0.92828 0.0
C1250 C 0.16298 0.15808 0.6741 0.0
C1251 C 0.13139 0.11834 0.82497 0.0
H1252 H 0.17308 0.09609 0.40265 0.0
H1253 H 0.24415 0.07663 0.31629 0.0
H1254 H 0.24093 0.07389 0.49645 0.0
H1255 H 0.26491 0.06817 0.40751 0.0
H1256 H 0.14997 0.11134 0.92892 0.0
H1257 H 0.07724 0.11549 1.01827 0.0
H1258 H 0.07855 0.12244 0.83821 0.0
H1259 H 0.05444 0.12145 0.92811 0.0
Eu1260 Eu 0.10135 0.87813 0.32245 0.0
C1261 C 0.12254 0.77057 0.37256 0.0
C1262 C 0.08204 0.75197 0.3404 0.0
C1263 C 0.12238 0.72955 0.32143 0.0
C1264 C 0.09575 0.77208 0.368 0.0
C1265 C 0.1359 0.7487 0.35125 0.0
C1266 C 0.09556 0.73132 0.31556 0.0
C1267 C 0.17491 0.76494 0.39418 0.0
N1268 N 0.13546 0.78969 0.40009 0.0
C1269 C 0.16103 0.78632 0.41393 0.0
C1270 C 0.16243 0.74633 0.36157 0.0
Eu1271 Eu 0.11062 0.82682 0.42632 0.0
N1272 N 0.08304 0.79287 0.39056 0.0
C1273 C 0.05645 0.79324 0.39026 0.0
C1274 C 0.05507 0.75304 0.3385 0.0
C1275 C 0.04225 0.77355 0.36427 0.0
H1276 H 0.17101 0.80036 0.43971 0.0
H1277 H 0.0213 0.77434 0.36381 0.0
H1278 H 0.0853 0.71616 0.29319 0.0
H1279 H 0.19526 0.76288 0.4041 0.0
H1280 H 0.04536 0.8084 0.40929 0.0
H1281 H 0.15668 0.96421 0.384 0.0
H1282 H 0.04395 0.73797 0.31786 0.0
H1283 H 0.0405 0.87493 0.27116 0.0
H1284 H 0.15037 0.91861 0.35818 0.0
H1285 H 1.00238 0.90317 0.26081 0.0
H1286 H 0.13243 0.71295 0.30386 0.0
H1287 H 0.11943 0.99429 0.38504 0.0
H1288 H 0.07233 1.00198 0.36597 0.0
H1289 H 0.17326 0.72979 0.34611 0.0
H1290 H 0.03047 0.98547 0.33206 0.0
N1291 N 0.10963 0.92207 0.34651 0.0
C1292 C 0.13383 0.93126 0.35857 0.0
C1293 C 0.11648 0.97415 0.37378 0.0
C1294 C 0.09201 0.96503 0.35821 0.0
C1295 C 0.13755 0.95726 0.37313 0.0
C1296 C 0.08918 0.93859 0.34412 0.0
H1297 H 1.00434 0.94882 0.29223 0.0
N1298 N 0.06382 0.90404 0.30967 0.0
C1299 C 0.02 0.91074 0.27917 0.0
C1300 C 0.06563 0.92935 0.32486 0.0
C1301 C 0.04171 0.89479 0.28507 0.0
C1302 C 0.02118 0.93649 0.297 0.0
C1303 C 0.04426 0.94621 0.31946 0.0
O1304 O 0.09638 0.87044 0.23264 0.0
O1305 O 0.10851 0.83481 0.33256 0.0
O1306 O 0.1504 0.83563 0.39105 0.0
O1307 O 0.14545 0.87368 0.33879 0.0
O1308 O 0.07681 0.84591 0.2857 0.0
O1309 O 0.12636 0.89687 0.25951 0.0
O1310 O 0.0964 0.83126 0.51351 0.0
O1311 O 0.10799 0.86946 0.41291 0.0
O1312 O 0.0664 0.88093 0.38282 0.0
O1313 O 0.06927 0.84258 0.43494 0.0
O1314 O 0.13575 0.8577 0.46967 0.0
O1315 O 0.12174 0.79976 0.49291 0.0
C1316 C 0.09095 0.82637 0.29947 0.0
C1317 C 0.1084 0.9023 0.16743 0.0
C1318 C 0.10367 0.90526 0.06483 0.0
C1319 C 0.11056 0.89121 0.11349 0.0
C1320 C 0.0944 0.93074 0.07139 0.0
C1321 C 0.09906 0.92767 0.17308 0.0
C1322 C 0.09214 0.9418 0.12513 0.0
C1323 C 0.15999 0.85512 0.36156 0.0
C1324 C 0.11457 0.8862 0.21677 0.0
C1325 C 0.04673 0.97229 0.33551 0.0
C1326 C 0.07055 0.98168 0.35487 0.0
C1327 C 0.1246 0.87777 0.44785 0.0
C1328 C 0.12952 0.82123 0.57914 0.0
C1329 C 0.12048 0.82688 0.63406 0.0
C1330 C 0.13801 0.83494 0.67642 0.0
C1331 C 0.16441 0.83765 0.6625 0.0
C1332 C 0.15608 0.824 0.56712 0.0
C1333 C 0.17329 0.83216 0.60843 0.0
C1334 C 0.05673 0.86396 0.41959 0.0
C1335 C 0.1116 0.81339 0.53337 0.0
H1336 H 0.11717 0.87134 0.10969 0.0
H1337 H 0.08922 0.94229 0.03501 0.0
H1338 H 0.09693 0.93642 0.21436 0.0
H1339 H 0.08497 0.9614 0.12961 0.0
H1340 H 0.10007 0.82481 0.64377 0.0
H1341 H 0.17829 0.84448 0.69331 0.0
H1342 H 0.16361 0.82024 0.52538 0.0
H1343 H 0.19363 0.83446 0.59833 0.0
H1344 H 0.3431 0.90446 0.31748 0.0
H1345 H 0.40758 0.02994 0.17358 0.0
H1346 H 0.42459 0.92071 0.33243 0.0
H1347 H 0.32559 0.02227 0.20448 0.0
H1348 H 0.41481 0.98913 0.22497 0.0
H1349 H 0.3369 0.94643 0.27123 0.0
C1350 C 0.35969 0.91704 0.31157 0.0
C1351 C 0.38431 0.90914 0.32992 0.0
C1352 C 0.39524 0.99638 0.22046 0.0
C1353 C 0.3775 0.95735 0.2747 0.0
C1354 C 0.39104 0.01966 0.19069 0.0
C1355 C 0.36585 0.02977 0.18413 0.0
C1356 C 0.37413 0.98268 0.24351 0.0
C1357 C 0.34534 0.01544 0.20799 0.0
C1358 C 0.35615 0.94106 0.28495 0.0
C1359 C 0.40518 0.92616 0.32008 0.0
N1360 N 0.34991 0.99278 0.23609 0.0
N1361 N 0.40134 0.94932 0.29287 0.0
H1362 H 0.90536 0.6692 0.73214 0.0
H1363 H 0.03232 0.6041 0.86659 0.0
H1364 H 0.92209 0.58807 0.71015 0.0
H1365 H 0.02417 0.68627 0.83856 0.0
H1366 H 0.99107 0.59702 0.81671 0.0
H1367 H 0.94769 0.67509 0.77672 0.0
C1368 C 0.91813 0.65264 0.73611 0.0
C1369 C 0.91026 0.62822 0.71628 0.0
C1370 C 0.99833 0.61659 0.82153 0.0
C1371 C 0.95887 0.63464 0.76963 0.0
C1372 C 0.02185 0.62069 0.85044 0.0
C1373 C 0.03195 0.64589 0.85726 0.0
C1374 C 0.98443 0.63782 0.79977 0.0
C1375 C 0.01738 0.6665 0.83472 0.0
C1376 C 0.94234 0.65599 0.76179 0.0
C1377 C 0.92752 0.60736 0.72366 0.0
N1378 N 0.99452 0.66202 0.80752 0.0
N1379 N 0.95088 0.61099 0.75004 0.0
H1380 H 0.60199 0.98351 0.17773 0.0
H1381 H 0.66482 0.11214 0.30929 0.0
H1382 H 0.68403 0.99252 0.20526 0.0
H1383 H 0.58435 0.09336 0.33403 0.0
H1384 H 0.67166 0.06958 0.26589 0.0
H1385 H 0.59449 0.02463 0.22779 0.0
C1386 C 0.61848 0.99415 0.19385 0.0
C1387 C 0.64377 0.98434 0.18675 0.0
C1388 C 0.65252 0.07453 0.28125 0.0
C1389 C 0.63518 0.03179 0.24449 0.0
C1390 C 0.64862 0.09886 0.30626 0.0
C1391 C 0.62411 0.10622 0.32652 0.0
C1392 C 0.63158 0.05739 0.27442 0.0
C1393 C 0.60371 0.08833 0.32026 0.0
C1394 C 0.61412 0.0176 0.22287 0.0
C1395 C 0.66422 0.99912 0.20929 0.0
N1396 N 0.60784 0.06489 0.29443 0.0
N1397 N 0.6595 0.02198 0.2366 0.0
H1398 H 0.98404 0.41224 0.87117 0.0
H1399 H 0.11062 0.3457 0.73609 0.0
H1400 H 0.99285 0.32977 0.84877 0.0
H1401 H 0.09445 0.42687 0.71335 0.0
H1402 H 0.06844 0.3403 0.78192 0.0
H1403 H 0.0251 0.41889 0.81982 0.0
C1404 C 0.99462 0.3955 0.85597 0.0
C1405 C 0.98477 0.37034 0.86486 0.0
C1406 C 0.07386 0.3593 0.76657 0.0
C1407 C 0.03206 0.37792 0.80559 0.0
C1408 C 0.098 0.36238 0.74016 0.0
C1409 C 0.10601 0.38666 0.71979 0.0
C1410 C 0.05752 0.38081 0.77456 0.0
C1411 C 0.08892 0.40768 0.72729 0.0
C1412 C 0.01803 0.39936 0.82622 0.0
C1413 C 0.99946 0.34952 0.84342 0.0
N1414 N 0.06562 0.40432 0.75435 0.0
N1415 N 0.02219 0.35377 0.8153 0.0
H1416 H 0.41019 0.48137 0.11793 0.0
H1417 H 0.34734 0.60913 0.98195 0.0
H1418 H 0.32824 0.49026 0.08903 0.0
H1419 H 0.42813 0.59102 0.96009 0.0
H1420 H 0.34062 0.56677 0.02621 0.0
H1421 H 0.41785 0.52233 0.06722 0.0
C1422 C 0.39375 0.49194 0.10139 0.0
C1423 C 0.36844 0.48213 0.10832 0.0
C1424 C 0.35981 0.57181 1.01135 0.0
C1425 C 0.37722 0.5294 0.04976 0.0
C1426 C 0.36365 0.59604 0.98583 0.0
C1427 C 0.38823 0.60357 0.96619 0.0
C1428 C 0.38085 0.5549 1.0193 0.0
C1429 C 0.40874 0.58589 0.97347 0.0
C1430 C 0.39821 0.51531 0.07199 0.0
C1431 C 0.34808 0.49684 0.0852 0.0
N1432 N 0.40464 0.56254 0.99978 0.0
N1433 N 0.35289 0.51959 0.05752 0.0
H1434 H 0.60976 0.65575 0.07841 0.0
H1435 H 0.48543 0.60041 0.91095 0.0
H1436 H 0.5949 0.5743 0.05686 0.0
H1437 H 0.49354 0.68059 0.95926 0.0
H1438 H 0.52641 0.59076 0.95898 0.0
H1439 H 0.56846 0.66547 0.0311 0.0
C1440 C 0.59756 0.6399 0.06455 0.0
C1441 C 0.60541 0.61414 0.07343 0.0
C1442 C 0.51928 0.61049 0.95898 0.0
C1443 C 0.55829 0.62511 1.017 0.0
C1444 C 0.49584 0.61609 0.93116 0.0
C1445 C 0.48575 0.64145 0.93054 0.0
C1446 C 0.53314 0.63037 0.98639 0.0
C1447 C 0.50034 0.66076 0.95821 0.0
C1448 C 0.57403 0.64544 0.03712 0.0
C1449 C 0.58929 0.59441 0.05233 0.0
N1450 N 0.52311 0.65485 0.98467 0.0
N1451 N 0.5666 0.60026 0.02543 0.0
H1452 H 0.68527 0.5252 0.07868 0.0
H1453 H 0.58624 0.41781 0.96614 0.0
H1454 H 0.6057 0.52615 0.13462 0.0
H1455 H 0.66804 0.40457 0.9862 0.0
H1456 H 0.59123 0.46021 1.01399 0.0
H1457 H 0.67766 0.48406 0.03208 0.0
C1458 C 0.66618 0.51673 0.08209 0.0
C1459 C 0.64631 0.52936 0.11229 0.0
C1460 C 0.60805 0.44802 1.00769 0.0
C1461 C 0.63716 0.48165 0.05595 0.0
C1462 C 0.60527 0.42395 0.97982 0.0
C1463 C 0.62686 0.40771 0.97126 0.0
C1464 C 0.63265 0.45608 0.02659 0.0
C1465 C 0.65092 0.41648 0.99126 0.0
C1466 C 0.66182 0.49307 0.05484 0.0
C1467 C 0.62182 0.51714 0.11296 0.0
N1468 N 0.65317 0.43995 1.01726 0.0
N1469 N 0.6179 0.49413 0.08499 0.0
H1470 H 0.41994 0.42534 0.0837 0.0
H1471 H 0.52346 0.32479 0.95351 0.0
H1472 H 0.40465 0.34402 0.06002 0.0
H1473 H 0.53031 0.40728 0.92832 0.0
H1474 H 0.48217 0.33179 1.00195 0.0
H1475 H 0.46254 0.41952 0.03767 0.0
C1476 C 0.42568 0.40621 0.06961 0.0
C1477 C 0.40879 0.38503 0.07659 0.0
C1478 C 0.49261 0.34841 0.98573 0.0
C1479 C 0.45744 0.37827 0.02297 0.0
C1480 C 0.5163 0.34442 0.95785 0.0
C1481 C 0.53059 0.36541 0.93615 0.0
C1482 C 0.48291 0.37368 0.99314 0.0
C1483 C 0.52004 0.39041 0.94376 0.0
C1484 C 0.44991 0.40293 0.04281 0.0
C1485 C 0.41708 0.36083 0.0561 0.0
N1486 N 0.49703 0.39383 0.97176 0.0
N1487 N 0.44069 0.35811 0.03076 0.0
H1488 H 0.92913 0.42262 0.838 0.0
H1489 H 0.82917 0.52352 0.69733 0.0
H1490 H 0.84856 0.4061 0.80833 0.0
H1491 H 0.91179 0.53204 0.6777 0.0
H1492 H 0.83622 0.4829 0.7478 0.0
H1493 H 0.92351 0.46502 0.79094 0.0
C1494 C 0.91018 0.42808 0.82257 0.0
C1495 C 0.88915 0.41087 0.82806 0.0
C1496 C 0.85288 0.49352 0.73239 0.0
C1497 C 0.88267 0.45924 0.77308 0.0
C1498 C 0.84886 0.51686 0.70328 0.0
C1499 C 0.86986 0.53144 0.68252 0.0
C1500 C 0.87818 0.48443 0.74203 0.0
C1501 C 0.89492 0.52151 0.69232 0.0
C1502 C 0.90704 0.45218 0.7951 0.0
C1503 C 0.86523 0.41878 0.80569 0.0
N1504 N 0.89837 0.4988 0.72149 0.0
N1505 N 0.86264 0.44223 0.77971 0.0
H1506 H 0.5285 0.10336 0.36901 0.0
H1507 H 0.40228 0.16838 0.22954 0.0
H1508 H 0.51874 0.18563 0.34534 0.0
H1509 H 0.41835 0.08689 0.21193 0.0
H1510 H 0.44409 0.17422 0.27621 0.0
H1511 H 0.48765 0.09602 0.31762 0.0
C1512 C 0.51776 0.11991 0.35352 0.0
C1513 C 0.52729 0.14522 0.36204 0.0
C1514 C 0.43873 0.15504 0.26186 0.0
C1515 C 0.48026 0.13687 0.3027 0.0
C1516 C 0.4148 0.15171 0.23497 0.0
C1517 C 0.40687 0.12721 0.21579 0.0
C1518 C 0.45497 0.1336 0.27143 0.0
C1519 C 0.42382 0.10623 0.22498 0.0
C1520 C 0.49447 0.11567 0.32377 0.0
C1521 C 0.5124 0.16578 0.34026 0.0
N1522 N 0.44694 0.10987 0.25239 0.0
N1523 N 0.48982 0.16116 0.3121 0.0
H1524 H 0.17007 0.61211 0.80569 0.0
H1525 H 0.18768 0.48648 0.71324 0.0
H1526 H 0.08986 0.59265 0.83191 0.0
H1527 H 0.10682 0.4872 0.66795 0.0
H1528 H 0.18181 0.52703 0.76328 0.0
H1529 H 0.17689 0.57035 0.76037 0.0
C1530 C 0.15394 0.59872 0.80296 0.0
C1531 C 0.12955 0.60579 0.82414 0.0
C1532 C 0.16533 0.51884 0.74154 0.0
C1533 C 0.13718 0.55701 0.77146 0.0
C1534 C 0.16865 0.4953 0.71297 0.0
C1535 C 0.14784 0.48318 0.68524 0.0
C1536 C 0.14096 0.53108 0.74263 0.0
C1537 C 0.1236 0.49581 0.68788 0.0
C1538 C 0.15788 0.57461 0.77718 0.0
C1539 C 0.1092 0.58779 0.81767 0.0
N1540 N 0.12084 0.51895 0.71597 0.0
N1541 N 0.11344 0.56434 0.79176 0.0
H1542 H 0.59192 0.92765 0.21298 0.0
H1543 H 0.48925 0.8268 0.34542 0.0
H1544 H 0.60717 0.84625 0.23506 0.0
H1545 H 0.48224 0.90931 0.37025 0.0
H1546 H 0.53018 0.83389 0.29567 0.0
H1547 H 0.54949 0.92174 0.25975 0.0
C1548 C 0.58619 0.90849 0.22683 0.0
C1549 C 0.60301 0.88731 0.21925 0.0
C1550 C 0.51979 0.8505 0.31208 0.0
C1551 C 0.55461 0.88044 0.27372 0.0
C1552 C 0.49631 0.84645 0.34073 0.0
C1553 C 0.48209 0.86743 0.36271 0.0
C1554 C 0.52934 0.8758 0.30423 0.0
C1555 C 0.49247 0.89246 0.35459 0.0
C1556 C 0.56206 0.90515 0.25405 0.0
C1557 C 0.59476 0.86306 0.23945 0.0
N1558 N 0.51529 0.89593 0.32591 0.0
N1559 N 0.57128 0.86028 0.26525 0.0
H1560 H 0.91274 0.9838 0.63628 0.0
H1561 H 0.85908 0.10835 0.4676 0.0
H1562 H 0.83252 0.99327 0.59031 0.0
H1563 H 0.94026 0.09187 0.48613 0.0
H1564 H 0.8488 0.06736 0.51567 0.0
H1565 H 0.923 0.02424 0.58639 0.0
C1566 C 0.89719 0.99441 0.6162 0.0
C1567 C 0.87163 0.98488 0.61802 0.0
C1568 C 0.86889 0.07248 0.50876 0.0
C1569 C 0.88341 0.03159 0.56003 0.0
C1570 C 0.87474 0.09584 0.48086 0.0
C1571 C 0.90056 0.10316 0.47092 0.0
C1572 C 0.889 0.05642 0.52844 0.0
C1573 C 0.92008 0.08666 0.49138 0.0
C1574 C 0.90313 0.01752 0.58731 0.0
C1575 C 0.85249 0.99966 0.59046 0.0
N1576 N 0.91395 0.06416 0.5189 0.0
N1577 N 0.85874 0.02211 0.56294 0.0
H1578 H 0.09195 0.08558 0.58119 0.0
H1579 H 0.99504 0.18854 0.43614 0.0
H1580 H 0.11094 0.16565 0.55109 0.0
H1581 H 0.98191 0.10624 0.42564 0.0
H1582 H 0.03571 0.18035 0.48569 0.0
H1583 H 0.04985 0.09246 0.53379 0.0
C1584 C 0.08712 0.10468 0.56554 0.0
C1585 C 0.10495 0.12518 0.57107 0.0
C1586 C 0.02406 0.16398 0.47254 0.0
C1587 C 0.0569 0.13313 0.51557 0.0
C1588 C 1.00067 0.16869 0.4442 0.0
C1589 C 0.98469 0.14814 0.42667 0.0
C1590 C 0.03187 0.13842 0.48443 0.0
C1591 C 0.99352 0.12277 0.43791 0.0
C1592 C 0.06318 0.10856 0.53788 0.0
C1593 C 0.09779 0.14934 0.54844 0.0
N1594 N 0.01629 0.11865 0.46631 0.0
N1595 N 0.07451 0.15262 0.52222 0.0
H1596 H 0.16882 0.90025 0.48607 0.0
H1597 H 0.10265 0.02793 0.61906 0.0
H1598 H 0.08733 0.91573 0.468 0.0
H1599 H 0.18492 0.01924 0.59363 0.0
H1600 H 0.09584 0.98596 0.57146 0.0
H1601 H 0.1743 0.94246 0.53193 0.0
C1602 C 0.15207 0.91268 0.49125 0.0
C1603 C 0.12771 0.90457 0.47168 0.0
C1604 C 0.11538 0.99324 0.57643 0.0
C1605 C 0.13367 0.95311 0.52649 0.0
C1606 C 0.11933 0.0172 0.60401 0.0
C1607 C 0.14447 0.0274 0.61083 0.0
C1608 C 0.13671 0.97898 0.55595 0.0
C1609 C 0.16518 0.01242 0.58973 0.0
C1610 C 0.1552 0.93684 0.51767 0.0
C1611 C 0.1066 0.92137 0.48106 0.0
N1612 N 0.16085 0.98918 0.56373 0.0
N1613 N 0.11004 0.94471 0.50784 0.0
H1614 H 0.02791 0.90955 0.42138 0.0
H1615 H 0.90381 0.84754 0.56938 0.0
H1616 H 0.02706 0.83123 0.48506 0.0
H1617 H 0.91998 0.92895 0.58835 0.0
H1618 H 0.9468 0.84143 0.52723 0.0
H1619 H 0.98649 0.91755 0.47043 0.0
C1620 C 0.01905 0.89394 0.44506 0.0
C1621 C 0.03113 0.86948 0.44795 0.0
C1622 C 0.94112 0.86063 0.54101 0.0
C1623 C 0.98343 0.8786 0.50421 0.0
C1624 C 0.91658 0.86411 0.56523 0.0
C1625 C 0.90844 0.88867 0.58361 0.0
C1626 C 0.95758 0.88202 0.53279 0.0
C1627 C 0.92566 0.90956 0.576 0.0
C1628 C 0.99545 0.89863 0.47346 0.0
C1629 C 0.01861 0.85027 0.48035 0.0
N1630 N 0.94928 0.90583 0.55068 0.0
N1631 N 0.99553 0.85514 0.50641 0.0
H1632 H 0.39364 0.19124 0.1122 0.0
H1633 H 0.31017 0.31942 0.17856 0.0
H1634 H 0.31023 0.19372 0.11931 0.0
H1635 H 0.39365 0.31973 0.17606 0.0
H1636 H 0.31056 0.27318 0.15768 0.0
H1637 H 0.3948 0.23793 0.13301 0.0
C1638 C 0.37557 0.20158 0.11708 0.0
C1639 C 0.3518 0.18831 0.11385 0.0
C1640 C 0.32888 0.28318 0.1621 0.0
C1641 C 0.353 0.24189 0.13895 0.0
C1642 C 0.32867 0.3097 0.17435 0.0
C1643 C 0.35192 0.3237 0.17935 0.0
C1644 C 0.35254 0.27015 0.15441 0.0
C1645 C 0.37525 0.30982 0.17336 0.0
C1646 C 0.37626 0.22826 0.12964 0.0
C1647 C 0.32905 0.20292 0.12164 0.0
N1648 N 0.37497 0.28391 0.16088 0.0
N1649 N 0.33024 0.22868 0.13392 0.0
H1650 H 0.32277 0.61974 0.86354 0.0
H1651 H 0.19492 0.70454 0.92451 0.0
H1652 H 0.32251 0.70294 0.88032 0.0
H1653 H 0.19441 0.621 0.9242 0.0
H1654 H 0.24151 0.70389 0.90683 0.0
H1655 H 0.2759 0.61939 0.88164 0.0
C1656 C 0.31291 0.63797 0.87026 0.0
C1657 C 0.32687 0.6614 0.87042 0.0
C1658 C 0.23134 0.68563 0.91101 0.0
C1659 C 0.27294 0.66111 0.89202 0.0
C1660 C 0.20462 0.68598 0.92127 0.0
C1661 C 0.19048 0.66278 0.92607 0.0
C1662 C 0.24441 0.66188 0.90503 0.0
C1663 C 0.20437 0.63938 0.92155 0.0
C1664 C 0.2861 0.63773 0.88117 0.0
C1665 C 0.3128 0.68434 0.8802 0.0
N1666 N 0.23044 0.63953 0.91095 0.0
N1667 N 0.28683 0.6836 0.89059 0.0
H1668 H 0.616 0.82286 0.1109 0.0
H1669 H 0.69771 0.6953 0.18984 0.0
H1670 H 0.69916 0.82011 0.12606 0.0
H1671 H 0.6151 0.69304 0.16534 0.0
H1672 H 0.69749 0.74162 0.17006 0.0
H1673 H 0.61425 0.77611 0.13063 0.0
C1674 C 0.63392 0.81248 0.11751 0.0
C1675 C 0.65777 0.82572 0.117 0.0
C1676 C 0.6793 0.73118 0.16915 0.0
C1677 C 0.65585 0.77205 0.14077 0.0
C1678 C 0.67943 0.70462 0.18055 0.0
C1679 C 0.65645 0.6901 0.17887 0.0
C1680 C 0.65596 0.74374 0.15572 0.0
C1681 C 0.63327 0.70345 0.16756 0.0
C1682 C 0.63287 0.78575 0.12935 0.0
C1683 C 0.68027 0.81101 0.12658 0.0
N1684 N 0.63362 0.72946 0.15603 0.0
N1685 N 0.67873 0.78522 0.13824 0.0
H1686 H 0.82161 0.39547 0.93268 0.0
H1687 H 0.69453 0.31015 0.86835 0.0
H1688 H 0.82155 0.31233 0.91463 0.0
H1689 H 0.69337 0.39368 0.86847 0.0
H1690 H 0.74097 0.31117 0.88675 0.0
H1691 H 0.77484 0.39579 0.91343 0.0
C1692 C 0.81183 0.37725 0.92549 0.0
C1693 C 0.82583 0.35384 0.92532 0.0
C1694 C 0.73072 0.32935 0.88233 0.0
C1695 C 0.77202 0.35409 0.90238 0.0
C1696 C 0.70408 0.32879 0.87157 0.0
C1697 C 0.68978 0.35187 0.86652 0.0
C1698 C 0.74358 0.35321 0.88864 0.0
C1699 C 0.70347 0.37538 0.87125 0.0
C1700 C 0.78507 0.37748 0.91391 0.0
C1701 C 0.81183 0.33091 0.9149 0.0
N1702 N 0.72949 0.37545 0.8824 0.0
N1703 N 0.78594 0.33164 0.90389 0.0
H1704 H 0.89522 0.69428 0.61541 0.0
H1705 H 0.80922 0.82213 0.66966 0.0
H1706 H 0.81179 0.69464 0.62313 0.0
H1707 H 0.89254 0.82225 0.68076 0.0
H1708 H 0.81027 0.77571 0.64976 0.0
H1709 H 0.89518 0.74117 0.63399 0.0
C1710 C 0.87688 0.70418 0.62004 0.0
C1711 C 0.85348 0.69025 0.61753 0.0
C1712 C 0.82838 0.78577 0.65683 0.0
C1713 C 0.85329 0.74416 0.63984 0.0
C1714 C 0.8278 0.81241 0.66831 0.0
C1715 C 0.85083 0.82641 0.67705 0.0
C1716 C 0.85222 0.77264 0.65356 0.0
C1717 C 0.87425 0.81243 0.67497 0.0
C1718 C 0.87689 0.73099 0.6313 0.0
C1719 C 0.83036 0.70435 0.62494 0.0
N1720 N 0.87436 0.78647 0.66315 0.0
N1721 N 0.83088 0.7303 0.63574 0.0
H1722 H 0.81478 0.17044 0.29155 0.0
H1723 H 0.69049 0.12782 0.47105 0.0
H1724 H 0.82291 0.13921 0.45894 0.0
H1725 H 0.69093 0.19611 0.36636 0.0
H1726 H 0.73755 0.12383 0.45621 0.0
H1727 H 0.76733 0.17124 0.30503 0.0
C1728 C 0.80653 0.16317 0.33051 0.0
C1729 C 0.82273 0.15445 0.37392 0.0
C1730 C 0.72716 0.13959 0.4363 0.0
C1731 C 0.76865 0.15526 0.3897 0.0
C1732 C 0.70027 0.14195 0.44484 0.0
C1733 C 0.68626 0.16214 0.41912 0.0
C1734 C 0.74016 0.15718 0.40078 0.0
C1735 C 0.70041 0.17987 0.38594 0.0
C1736 C 0.77953 0.16386 0.33844 0.0
C1737 C 0.81106 0.14579 0.42418 0.0
N1738 N 0.72632 0.17681 0.37722 0.0
N1739 N 0.7848 0.14625 0.43061 0.0
H1740 H 0.12033 0.32045 0.61493 0.0
H1741 H 0.20436 0.19092 0.6628 0.0
H1742 H 0.20366 0.31913 0.6257 0.0
H1743 H 0.12106 0.19189 0.67557 0.0
H1744 H 0.20398 0.23758 0.64582 0.0
H1745 H 0.11968 0.27343 0.63145 0.0
C1746 C 0.13851 0.31034 0.61992 0.0
C1747 C 0.16208 0.32406 0.6188 0.0
C1748 C 0.18573 0.22771 0.65262 0.0
C1749 C 0.16146 0.26991 0.63856 0.0
C1750 C 0.18592 0.20092 0.66243 0.0
C1751 C 0.16269 0.18715 0.67076 0.0
C1752 C 0.1621 0.24123 0.65058 0.0
C1753 C 0.13949 0.2015 0.66996 0.0
C1754 C 0.13811 0.28343 0.62995 0.0
C1755 C 0.18496 0.30963 0.62646 0.0
N1756 N 0.13977 0.22762 0.65971 0.0
N1757 N 0.18406 0.28357 0.63596 0.0
H1758 H 0.32092 0.89706 0.43667 0.0
H1759 H 0.19465 0.81639 0.34459 0.0
H1760 H 0.3176 0.81383 0.42208 0.0
H1761 H 0.19102 0.89791 0.38268 0.0
H1762 H 0.24087 0.81665 0.36554 0.0
H1763 H 0.27449 0.89914 0.41414 0.0
C1764 C 0.31047 0.8792 0.42963 0.0
C1765 C 0.32347 0.85523 0.43105 0.0
C1766 C 0.23015 0.83461 0.36901 0.0
C1767 C 0.27024 0.85753 0.40384 0.0
C1768 C 0.20369 0.83447 0.35675 0.0
C1769 C 0.18881 0.85711 0.36193 0.0
C1770 C 0.2422 0.85761 0.38691 0.0
C1771 C 0.20173 0.88006 0.37735 0.0
C1772 C 0.28394 0.88043 0.41618 0.0
C1773 C 0.30869 0.83281 0.42083 0.0
N1774 N 0.22763 0.8797 0.38969 0.0
N1775 N 0.28313 0.83454 0.4074 0.0
H1776 H 0.21 0.04972 0.79397 0.0
H1777 H 0.29642 0.13381 1.01285 0.0
H1778 H 0.21454 0.13267 0.77857 0.0
H1779 H 0.30137 0.05113 0.9918 0.0
H1780 H 0.26444 0.13529 0.93468 0.0
H1781 H 0.24164 0.05121 0.87028 0.0
C1782 C 0.21796 0.06835 0.80602 0.0
C1783 C 0.2096 0.09099 0.77833 0.0
C1784 C 0.2724 0.11681 0.94747 0.0
C1785 C 0.24605 0.09306 0.86936 0.0
C1786 C 0.29051 0.11592 0.99276 0.0
C1787 C 0.3017 0.09221 1.00998 0.0
C1788 C 0.26509 0.09382 0.91899 0.0
C1789 C 0.29338 0.06986 0.98087 0.0
C1790 C 0.23606 0.06921 0.85028 0.0
C1791 C 0.22058 0.11456 0.7974 0.0
N1792 N 0.27586 0.07123 0.93771 0.0
N1793 N 0.23796 0.11498 0.84168 0.0
H1794 H 0.13539 0.7173 0.02304 0.0
H1795 H 0.05149 0.80263 0.24465 0.0
H1796 H 0.05308 0.71049 0.04793 0.0
H1797 H 0.13464 0.80016 0.25507 0.0
H1798 H 0.05286 0.77082 0.16841 0.0
H1799 H 0.13679 0.74977 0.10036 0.0
C1800 C 0.11755 0.7229 0.04383 0.0
C1801 C 0.09398 0.71107 0.02801 0.0
C1802 C 0.07093 0.77694 0.18726 0.0
C1803 C 0.09551 0.7482 0.11788 0.0
C1804 C 0.07014 0.79516 0.23138 0.0
C1805 C 0.09289 0.80404 0.2577 0.0
C1806 C 0.09479 0.76745 0.16702 0.0
C1807 C 0.11648 0.7937 0.2372 0.0
C1808 C 0.1184 0.74129 0.08859 0.0
C1809 C 0.07169 0.71899 0.05786 0.0
N1810 N 0.11682 0.77618 0.19317 0.0
N1811 N 0.07301 0.7368 0.10054 0.0
H1812 H 0.71029 0.96391 1.00234 0.0
H1813 H 0.79581 0.88096 0.77936 0.0
H1814 H 0.71229 0.88066 1.01117 0.0
H1815 H 0.8036 0.96296 0.80798 0.0
H1816 H 0.76306 0.87921 0.85627 0.0
H1817 H 0.74258 0.96279 0.92694 0.0
C1818 C 0.71783 0.94529 0.98904 0.0
C1819 C 0.70858 0.92244 1.01453 0.0
C1820 C 0.77182 0.89761 0.84541 0.0
C1821 C 0.74572 0.92083 0.92466 0.0
C1822 C 0.79036 0.89867 0.80084 0.0
C1823 C 0.80255 0.92225 0.78618 0.0
C1824 C 0.76512 0.9203 0.87566 0.0
C1825 C 0.79482 0.94435 0.81696 0.0
C1826 C 0.7363 0.94464 0.94533 0.0
C1827 C 0.71903 0.89889 0.99399 0.0
N1828 N 0.77687 0.94283 0.85939 0.0
N1829 N 0.73676 0.89869 0.95026 0.0
H1830 H 0.88128 0.29521 1.01956 0.0
H1831 H 0.95649 0.22727 0.28179 0.0
H1832 H 0.96013 0.3108 0.06754 0.0
H1833 H 0.87922 0.20449 0.23609 0.0
H1834 H 0.95626 0.25935 0.20554 0.0
H1835 H 0.87858 0.26274 0.09669 0.0
C1836 C 0.89812 0.29167 0.04555 0.0
C1837 C 0.92107 0.30598 0.03613 0.0
C1838 C 0.93911 0.24766 0.21222 0.0
C1839 C 0.91789 0.26897 0.12633 0.0
C1840 C 0.93917 0.2294 0.25651 0.0
C1841 C 0.91758 0.21348 0.26724 0.0
C1842 C 0.91746 0.25011 0.17634 0.0
C1843 C 0.89606 0.21678 0.23105 0.0
C1844 C 0.89651 0.2732 0.09013 0.0
C1845 C 0.94201 0.30046 0.07243 0.0
N1846 N 0.89655 0.23455 0.1876 0.0
N1847 N 0.93988 0.28279 0.11524 0.0
H1848 H 0.29787 0.37827 0.27791 0.0
H1849 H 0.21191 0.46173 0.49924 0.0
H1850 H 0.30324 0.46083 0.30072 0.0
H1851 H 0.21552 0.37864 0.51183 0.0
H1852 H 0.24364 0.46047 0.42283 0.0
H1853 H 0.26577 0.37657 0.35608 0.0
C1854 C 0.29202 0.3961 0.29839 0.0
C1855 C 0.30336 0.41983 0.28172 0.0
C1856 C 0.23784 0.44239 0.44224 0.0
C1857 C 0.26664 0.41796 0.37267 0.0
C1858 C 0.21969 0.44312 0.48654 0.0
C1859 C 0.21104 0.42036 0.51342 0.0
C1860 C 0.24758 0.41857 0.42235 0.0
C1861 C 0.22179 0.39682 0.49359 0.0
C1862 C 0.27385 0.39508 0.34368 0.0
C1863 C 0.29512 0.44209 0.31127 0.0
N1864 N 0.23923 0.39653 0.44928 0.0
N1865 N 0.27754 0.4406 0.35444 0.0
H1866 H 0.38065 0.71622 0.7709 0.0
H1867 H 0.462 0.80321 0.54783 0.0
H1868 H 0.46264 0.70956 0.74125 0.0
H1869 H 0.37886 0.79965 0.5391 0.0
H1870 H 0.46142 0.77088 0.62303 0.0
H1871 H 0.37832 0.74892 0.69416 0.0
C1872 C 0.39824 0.72189 0.74922 0.0
C1873 C 0.42199 0.71002 0.76359 0.0
C1874 C 0.44318 0.77683 0.60472 0.0
C1875 C 0.41938 0.74747 0.67425 0.0
C1876 C 0.44351 0.79533 0.56113 0.0
C1877 C 0.42053 0.80417 0.53567 0.0
C1878 C 0.41956 0.76694 0.62538 0.0
C1879 C 0.39719 0.79327 0.55623 0.0
C1880 C 0.39685 0.74042 0.70474 0.0
C1881 C 0.44391 0.71807 0.73253 0.0
N1882 N 0.39729 0.7755 0.59986 0.0
N1883 N 0.44207 0.73602 0.69022 0.0
H1884 H 0.71593 0.63721 0.28317 0.0
H1885 H 0.80549 0.55275 0.49447 0.0
H1886 H 0.71218 0.55434 0.30161 0.0
H1887 H 0.79989 0.6355 0.51341 0.0
H1888 H 0.77334 0.55438 0.41928 0.0
H1889 H 0.74887 0.63857 0.35937 0.0
C1890 C 0.72232 0.61926 0.30223 0.0
C1891 C 0.71127 0.59552 0.28483 0.0
C1892 C 0.77882 0.5723 0.4398 0.0
C1893 C 0.74885 0.59699 0.37361 0.0
C1894 C 0.79723 0.57135 0.48335 0.0
C1895 C 0.80543 0.59391 0.51162 0.0
C1896 C 0.76834 0.59614 0.42216 0.0
C1897 C 0.79402 0.61746 0.49393 0.0
C1898 C 0.74097 0.62008 0.3464 0.0
C1899 C 0.72012 0.57308 0.31266 0.0
N1900 N 0.7763 0.61798 0.45037 0.0
N1901 N 0.73813 0.57438 0.35481 0.0
H1902 H 0.63218 0.21762 0.52429 0.0
H1903 H 0.55106 0.30056 0.75493 0.0
H1904 H 0.55044 0.20972 0.55585 0.0
H1905 H 0.63435 0.2992 0.75916 0.0
H1906 H 0.55164 0.2689 0.67837 0.0
H1907 H 0.63464 0.24941 0.60291 0.0
C1908 C 0.61468 0.22281 0.54688 0.0
C1909 C 0.59096 0.21089 0.53249 0.0
C1910 C 0.56993 0.27517 0.696 0.0
C1911 C 0.59371 0.24723 0.62384 0.0
C1912 C 0.56959 0.29326 0.74039 0.0
C1913 C 0.59262 0.30249 0.76494 0.0
C1914 C 0.59357 0.26614 0.67368 0.0
C1915 C 0.61601 0.29242 0.74278 0.0
C1916 C 0.61615 0.24082 0.59236 0.0
C1917 C 0.56915 0.21829 0.56461 0.0
N1918 N 0.61589 0.27505 0.6984 0.0
N1919 N 0.57105 0.23572 0.60789 0.0
H1920 H 0.29441 0.08881 0.53209 0.0
H1921 H 0.42123 0.12575 0.70988 0.0
H1922 H 0.36005 0.12883 0.46096 0.0
H1923 H 0.35461 0.08693 0.7807 0.0
H1924 H 0.40037 0.12497 0.61742 0.0
H1925 H 0.31799 0.08463 0.62128 0.0
C1926 C 0.31372 0.0969 0.5356 0.0
C1927 C 0.32534 0.10926 0.48945 0.0
C1928 C 0.39034 0.11657 0.65316 0.0
C1929 C 0.35178 0.10583 0.59218 0.0
C1930 C 0.4023 0.11689 0.70603 0.0
C1931 C 0.38969 0.10645 0.75347 0.0
C1932 C 0.36553 0.10568 0.64737 0.0
C1933 C 0.36497 0.09558 0.74572 0.0
C1934 C 0.32707 0.09469 0.58655 0.0
C1935 C 0.35047 0.11918 0.49579 0.0
N1936 N 0.35374 0.09551 0.69385 0.0
N1937 N 0.36275 0.11754 0.54642 0.0
H1938 H 0.08664 0.7266 0.50394 0.0
H1939 H 0.13368 0.6008 0.33262 0.0
H1940 H 0.13023 0.66409 0.57839 0.0
H1941 H 0.09058 0.66346 0.25724 0.0
H1942 H 0.13235 0.62358 0.42297 0.0
H1943 H 0.08734 0.70356 0.41377 0.0
C1944 C 0.09663 0.70818 0.50115 0.0
C1945 C 0.10835 0.69725 0.54893 0.0
C1946 C 0.12318 0.63237 0.38669 0.0
C1947 C 0.10974 0.67102 0.44514 0.0
C1948 C 0.12381 0.61928 0.33504 0.0
C1949 C 0.11222 0.63015 0.28698 0.0
C1950 C 0.11078 0.65655 0.3907 0.0
C1951 C 0.10007 0.65441 0.2928 0.0
C1952 C 0.09708 0.69506 0.44953 0.0
C1953 C 0.12071 0.67313 0.54286 0.0
N1954 N 0.09962 0.6667 0.34361 0.0
N1955 N 0.12115 0.66091 0.492 0.0
H1956 H 0.64718 0.89283 0.45815 0.0
H1957 H 0.65495 0.92844 0.78657 0.0
H1958 H 0.71778 0.91556 0.54161 0.0
H1959 H 0.59048 0.88733 0.71308 0.0
H1960 H 0.67611 0.929 0.69437 0.0
H1961 H 0.62421 0.89565 0.54859 0.0
C1962 C 0.65778 0.89863 0.49547 0.0
C1963 C 0.68443 0.9039 0.49245 0.0
C1964 C 0.65744 0.91971 0.69853 0.0
C1965 C 0.65828 0.90726 0.59593 0.0
C1966 C 0.64531 0.91933 0.75122 0.0
C1967 C 0.62094 0.90758 0.75795 0.0
C1968 C 0.64527 0.90821 0.65195 0.0
C1969 C 0.60917 0.89673 0.70999 0.0
C1970 C 0.6447 0.90011 0.54707 0.0
C1971 C 0.69727 0.91112 0.54214 0.0
N1972 N 0.62148 0.89721 0.65914 0.0
N1973 N 0.68405 0.91271 0.59171 0.0
H1974 H 0.93804 0.36641 0.26306 0.0
H1975 H 0.88823 0.34618 0.58123 0.0
H1976 H 0.87412 0.4089 0.33508 0.0
H1977 H 0.95659 0.30964 0.51325 0.0
H1978 H 0.88233 0.36901 0.49153 0.0
H1979 H 0.94503 0.34539 0.3543 0.0
C1980 C 0.9253 0.37111 0.29797 0.0
C1981 C 0.90541 0.38939 0.29134 0.0
C1982 C 0.89864 0.35601 0.4962 0.0
C1983 C 0.91291 0.36489 0.39589 0.0
C1984 C 0.90206 0.34302 0.54752 0.0
C1985 C 0.92284 0.32576 0.55471 0.0
C1986 C 0.91614 0.35181 0.45159 0.0
C1987 C 0.94002 0.32234 0.50929 0.0
C1988 C 0.92928 0.35908 0.35011 0.0
C1989 C 0.88976 0.39502 0.33836 0.0
N1990 N 0.9363 0.3352 0.45986 0.0
N1991 N 0.89371 0.38271 0.38842 0.0
H1992 H 0.42203 0.38464 0.58185 0.0
H1993 H 0.29499 0.42133 0.76033 0.0
H1994 H 0.3557 0.42393 0.51176 0.0
H1995 H 0.36082 0.38186 0.83134 0.0
H1996 H 0.31854 0.42531 0.67084 0.0
H1997 H 0.40097 0.38514 0.67432 0.0
C1998 C 0.40312 0.39354 0.58587 0.0
C1999 C 0.39065 0.4042 0.53864 0.0
C2000 C 0.32764 0.41536 0.70558 0.0
C2001 C 0.36627 0.40463 0.6447 0.0
C2002 C 0.31431 0.41327 0.75669 0.0
C2003 C 0.32602 0.40116 0.80291 0.0
C2004 C 0.35242 0.40439 0.69989 0.0
C2005 C 0.35117 0.39131 0.79644 0.0
C2006 C 0.39105 0.3937 0.63873 0.0
C2007 C 0.36595 0.41512 0.54658 0.0
N2008 N 0.36344 0.39286 0.74567 0.0
N2009 N 0.35461 0.41502 0.59842 0.0
H2010 H 0.45076 0.71729 0.28628 0.0
H2011 H 0.37825 0.60504 0.4584 0.0
H2012 H 0.38824 0.67169 0.21743 0.0
H2013 H 0.43084 0.65949 0.53541 0.0
H2014 H 0.38282 0.6282 0.36888 0.0
H2015 H 0.44473 0.69559 0.37687 0.0
C2016 C 0.43556 0.70294 0.29022 0.0
C2017 C 0.42008 0.69628 0.24369 0.0
C2018 C 0.39331 0.63514 0.40538 0.0
C2019 C 0.41313 0.67121 0.34787 0.0
C2020 C 0.39083 0.62182 0.45646 0.0
C2021 C 0.40421 0.63027 0.5046 0.0
C2022 C 0.40951 0.65698 0.40201 0.0
C2023 C 0.41997 0.65238 0.49962 0.0
C2024 C 0.43219 0.69048 0.34208 0.0
C2025 C 0.40097 0.67719 0.25159 0.0
N2026 N 0.42229 0.66484 0.44926 0.0
N2027 N 0.39809 0.66532 0.30248 0.0
H2028 H 0.65378 0.64452 0.83554 0.0
H2029 H 0.66186 0.59451 0.51546 0.0
H2030 H 0.72399 0.61646 0.75779 0.0
H2031 H 0.59516 0.63392 0.58385 0.0
H2032 H 0.68324 0.59867 0.6071 0.0
H2033 H 0.6309 0.63796 0.74622 0.0
C2034 C 0.66436 0.63688 0.79969 0.0
C2035 C 0.69087 0.63111 0.80412 0.0
C2036 C 0.66416 0.6068 0.60171 0.0
C2037 C 0.66473 0.62338 0.70173 0.0
C2038 C 0.65188 0.60436 0.54951 0.0
C2039 C 0.62675 0.61406 0.5418 0.0
C2040 C 0.65158 0.61951 0.6464 0.0
C2041 C 0.61453 0.62612 0.58793 0.0
C2042 C 0.6513 0.63321 0.74867 0.0
C2043 C 0.70362 0.62143 0.75619 0.0
N2044 N 0.62711 0.62866 0.63808 0.0
N2045 N 0.6904 0.61773 0.70722 0.0
H2046 H 0.62685 0.42115 0.46409 0.0
H2047 H 0.58839 0.29474 0.28544 0.0
H2048 H 0.58807 0.35461 0.53526 0.0
H2049 H 0.63086 0.35918 0.21592 0.0
H2050 H 0.58431 0.31844 0.37476 0.0
H2051 H 0.626 0.40016 0.37164 0.0
C2052 C 0.61799 0.4022 0.46031 0.0
C2053 C 0.60756 0.38966 0.50783 0.0
C2054 C 0.59489 0.32722 0.34035 0.0
C2055 C 0.60668 0.36537 0.40172 0.0
C2056 C 0.59704 0.3138 0.28934 0.0
C2057 C 0.61006 0.32506 0.24362 0.0
C2058 C 0.60675 0.35158 0.34646 0.0
C2059 C 0.6207 0.34988 0.25042 0.0
C2060 C 0.61763 0.39017 0.40745 0.0
C2061 C 0.59668 0.36492 0.50018 0.0
N2062 N 0.61909 0.3622 0.3011 0.0
N2063 N 0.59654 0.35363 0.44829 0.0
H2064 H 0.79614 0.6298 0.02292 0.0
H2065 H 0.91097 0.57804 0.22094 0.0
H2066 H 0.84892 0.56886 0.97489 0.0
H2067 H 0.85836 0.63904 0.27016 0.0
H2068 H 0.8887 0.57478 0.1305 0.0
H2069 H 0.81935 0.63437 0.11234 0.0
C2070 C 0.8124 0.61715 0.03156 0.0
C2071 C 0.8206 0.5989 0.99138 0.0
C2072 C 0.88202 0.58892 0.161 0.0
C2073 C 0.84667 0.6034 0.09477 0.0
C2074 C 0.89485 0.59091 0.21269 0.0
C2075 C 0.8867 0.60895 0.25349 0.0
C2076 C 0.86079 0.60509 0.14954 0.0
C2077 C 0.86527 0.62467 0.24045 0.0
C2078 C 0.82556 0.61967 0.0828 0.0
C2079 C 0.84205 0.58329 1.0045 0.0
N2080 N 0.85315 0.62242 0.18969 0.0
N2081 N 0.85421 0.58579 0.0551 0.0
H2082 H 0.63477 0.10697 0.83495 0.0
H2083 H 0.55718 0.21564 1.00827 0.0
H2084 H 0.57931 0.15884 0.75931 0.0
H2085 H 0.62056 0.17174 0.07836 0.0
H2086 H 0.56396 0.19395 0.91797 0.0
H2087 H 0.6288 0.12927 0.92523 0.0
C2088 C 0.62126 0.12299 0.83733 0.0
C2089 C 0.60751 0.13098 0.78929 0.0
C2090 C 0.57651 0.18916 0.95295 0.0
C2091 C 0.60056 0.15668 0.89286 0.0
C2092 C 0.57271 0.20163 1.00468 0.0
C2093 C 0.5883 0.19558 0.05141 0.0
C2094 C 0.59616 0.1705 0.94736 0.0
C2095 C 0.6078 0.17684 0.04397 0.0
C2096 C 0.61796 0.13581 0.88888 0.0
C2097 C 0.59053 0.15212 0.79494 0.0
N2098 N 0.61116 0.16501 0.99308 0.0
N2099 N 0.58744 0.16409 0.84571 0.0
H2100 H 0.15395 0.4356 0.28585 0.0
H2101 H 0.17341 0.38553 0.96789 0.0
H2102 H 0.11018 0.37279 0.21313 0.0
H2103 H 0.21328 0.45181 0.03717 0.0
H2104 H 0.15112 0.37972 0.05806 0.0
H2105 H 0.17632 0.44145 0.1956 0.0
C2106 C 0.14925 0.42286 0.25101 0.0
C2107 C 0.13018 0.40365 0.2571 0.0
C2108 C 0.16474 0.39555 0.05353 0.0
C2109 C 0.15621 0.40983 0.15378 0.0
C2110 C 0.17742 0.39897 1.00185 0.0
C2111 C 0.1952 0.41934 0.99438 0.0
C2112 C 0.16976 0.4126 0.09843 0.0
C2113 C 0.19995 0.43571 0.04072 0.0
C2114 C 0.16206 0.42618 0.19947 0.0
C2115 C 0.12462 0.38795 0.21023 0.0
N2116 N 0.18728 0.43203 0.09051 0.0
N2117 N 0.13766 0.39128 0.16075 0.0
H2118 H 0.39192 0.86655 0.09177 0.0
H2119 H 0.42595 0.85774 0.76227 0.0
H2120 H 0.41358 0.79561 1.00777 0.0
H2121 H 0.38642 0.92308 0.8368 0.0
H2122 H 0.4267 0.83676 0.85452 0.0
H2123 H 0.39491 0.88946 1.00131 0.0
C2124 C 0.39755 0.85587 0.05436 0.0
C2125 C 0.4024 0.82912 0.05719 0.0
C2126 C 0.41773 0.85561 0.85061 0.0
C2127 C 0.40595 0.85519 0.95369 0.0
C2128 C 0.41722 0.86762 0.79786 0.0
C2129 C 0.40586 0.89219 0.79136 0.0
C2130 C 0.40678 0.86809 0.89755 0.0
C2131 C 0.39552 0.90424 0.83965 0.0
C2132 C 0.39912 0.86891 1.00274 0.0
C2133 C 0.40944 0.81619 1.00738 0.0
N2134 N 0.39614 0.89205 0.89057 0.0
N2135 N 0.4111 0.82936 0.95783 0.0
H2136 H 0.84055 0.88723 0.33403 0.0
H2137 H 0.85885 0.9352 1.01452 0.0
H2138 H 0.79873 0.95165 0.26222 0.0
H2139 H 0.90309 0.87314 0.08875 0.0
H2140 H 0.83627 0.94121 0.10444 0.0
H2141 H 0.86263 0.88097 0.24383 0.0
C2142 C 0.83606 0.90016 0.29945 0.0
C2143 C 0.81785 0.92018 0.30624 0.0
C2144 C 0.85068 0.92607 0.10096 0.0
C2145 C 0.84305 0.91292 0.20218 0.0
C2146 C 0.86361 0.92266 0.04962 0.0
C2147 C 0.88286 0.9036 0.04407 0.0
C2148 C 0.85663 0.91 0.14698 0.0
C2149 C 0.88851 0.88818 0.09126 0.0
C2150 C 0.84862 0.89648 0.24777 0.0
C2151 C 0.81245 0.93586 0.25918 0.0
N2152 N 0.87538 0.89162 0.14055 0.0
N2153 N 0.82504 0.93197 0.20938 0.0
H2154 H 0.88578 0.09963 0.95948 0.0
H2155 H 0.91834 0.22514 0.77317 0.0
H2156 H 0.92264 0.16779 0.02757 0.0
H2157 H 0.86423 0.16598 0.72174 0.0
H2158 H 0.92494 0.20184 0.86209 0.0
H2159 H 0.8819 0.12156 0.86834 0.0
C2160 C 0.89318 0.11918 0.95515 0.0
C2161 C 0.90451 0.13191 1.00128 0.0
C2162 C 0.9114 0.19415 0.8316 0.0
C2163 C 0.90025 0.15712 0.89684 0.0
C2164 C 0.90765 0.2074 0.78081 0.0
C2165 C 0.89069 0.1975 0.7399 0.0
C2166 C 0.89765 0.17116 0.84228 0.0
C2167 C 0.87765 0.17422 0.75183 0.0
C2168 C 0.89087 0.13172 0.90317 0.0
C2169 C 0.91355 0.15734 0.99332 0.0
N2170 N 0.8813 0.16194 0.80194 0.0
N2171 N 0.91136 0.16903 0.94207 0.0
H2172 H 0.15273 0.07688 1.00549 0.0
H2173 H 0.17201 0.12561 0.32435 0.0
H2174 H 0.10968 0.14003 0.07915 0.0
H2175 H 0.21232 0.05998 0.25309 0.0
H2176 H 0.14987 0.13188 0.23437 0.0
H2177 H 0.17501 0.07061 0.09549 0.0
C2178 C 0.14817 0.08961 0.04047 0.0
C2179 C 0.12933 0.10904 0.03471 0.0
C2180 C 0.16355 0.11609 0.23841 0.0
C2181 C 0.15524 0.10237 0.13777 0.0
C2182 C 0.17615 0.11241 0.28997 0.0
C2183 C 0.194 0.09209 0.29682 0.0
C2184 C 0.16872 0.09934 0.19301 0.0
C2185 C 0.19892 0.07603 0.25001 0.0
C2186 C 0.16092 0.08605 0.09188 0.0
C2187 C 0.12394 0.12471 0.08178 0.0
N2188 N 0.18631 0.07994 0.20036 0.0
N2189 N 0.13691 0.12113 0.13112 0.0
H2190 H 0.1624 0.82263 0.77493 0.0
H2191 H 0.07144 0.90992 0.97246 0.0
H2192 H 0.09457 0.86187 0.71195 0.0
H2193 H 0.14245 0.87345 0.02628 0.0
H2194 H 0.07733 0.89066 0.87872 0.0
H2195 H 0.15316 0.83928 0.86859 0.0
C2196 C 0.14533 0.83453 0.78089 0.0
C2197 C 0.12953 0.84124 0.73502 0.0
C2198 C 0.09153 0.88682 0.91119 0.0
C2199 C 0.11812 0.85955 0.84376 0.0
C2200 C 0.0883 0.89795 0.96467 0.0
C2201 C 0.1065 0.89339 1.00764 0.0
C2202 C 0.11314 0.87101 0.90046 0.0
C2203 C 0.12769 0.87731 0.99507 0.0
C2204 C 0.13992 0.84386 0.83472 0.0
C2205 C 0.1073 0.85618 0.74597 0.0
N2206 N 0.13041 0.86682 0.94283 0.0
N2207 N 0.10232 0.86497 0.79921 0.0
loop_
_geom_bond_atom_site_label_1
_geom_bond_atom_site_label_2
_geom_bond_distance
_geom_bond_site_symmetry_2
_ccdc_geom_bond_type
Eu0 N31 2.657 . S
Eu0 N38 2.609 . S
Eu0 O44 2.558 . S
Eu0 O45 2.612 . S
Eu0 O47 2.339 . S
Eu0 O48 2.563 . S
Eu0 O49 2.419 . S
Eu0 O51 2.380 . S
Eu0 O52 2.432 . S
Eu0 C64 2.848 . S
C1 C4 1.429 . S
C1 C5 1.411 . S
C1 N8 1.377 . S
C2 C4 1.420 . S
C2 C6 1.423 . S
C2 C14 1.392 . S
C3 C5 1.420 . S
C3 C6 1.351 . S
C3 H26 0.931 . S
C4 C1 1.429 . S
C4 C2 1.420 . S
C4 N12 1.362 . S
C5 C1 1.411 . S
C5 C3 1.420 . S
C5 C10 1.395 . S
C6 C2 1.423 . S
C6 C3 1.351 . S
C6 H18 0.930 . S
C7 C9 1.400 . S
C7 C10 1.386 . S
C7 H19 0.930 . S
N8 C1 1.377 . S
N8 C9 1.321 . S
N8 Eu11 2.609 . S
C9 C7 1.400 . S
C9 N8 1.321 . S
C9 H16 0.930 . S
C10 C5 1.395 . S
C10 C7 1.386 . S
C10 H29 0.930 . S
Eu11 N8 2.609 . S
Eu11 N12 2.657 . S
Eu11 O45 2.380 . S
Eu11 O46 2.432 . S
Eu11 O50 2.558 1_554 S
Eu11 O51 2.612 . S
Eu11 O53 2.339 . S
Eu11 O54 2.563 . S
Eu11 O55 2.419 1_554 S
Eu11 C75 2.848 1_554 S
N12 C4 1.362 . S
N12 Eu11 2.657 . S
N12 C13 1.334 . S
C13 N12 1.334 . S
C13 C15 1.413 . S
C13 H20 0.929 . S
C14 C2 1.392 . S
C14 C15 1.367 . S
C14 H22 0.930 . S
C15 C13 1.413 . S
C15 C14 1.367 . S
C15 H17 0.930 . S
H16 C9 0.930 . S
H17 C15 0.930 . S
H18 C6 0.930 . S
H19 C7 0.930 . S
H20 C13 0.929 . S
H21 C35 0.930 . S
H22 C14 0.930 . S
H23 C41 0.930 . S
H24 C32 0.929 . S
H25 C39 0.930 . S
H26 C3 0.931 . S
H27 C33 0.930 . S
H28 C66 0.930 . S
H29 C10 0.930 . S
H30 C65 0.931 . S
N31 Eu0 2.657 . S
N31 C32 1.334 . S
N31 C36 1.362 . S
C32 H24 0.929 . S
C32 N31 1.334 . S
C32 C35 1.413 . S
C33 H27 0.930 . S
C33 C34 1.392 . S
C33 C35 1.367 . S
C34 C33 1.392 . S
C34 C36 1.420 . S
C34 C66 1.423 . S
C35 H21 0.930 . S
C35 C32 1.413 . S
C35 C33 1.367 . S
C36 N31 1.362 . S
C36 C34 1.420 . S
C36 C40 1.429 . S
H37 C42 0.930 . S
N38 Eu0 2.609 . S
N38 C40 1.377 . S
N38 C41 1.321 . S
C39 H25 0.930 . S
C39 C41 1.400 . S
C39 C42 1.386 . S
C40 C36 1.429 . S
C40 N38 1.377 . S
C40 C43 1.411 . S
C41 H23 0.930 . S
C41 N38 1.321 . S
C41 C39 1.400 . S
C42 H37 0.930 . S
C42 C39 1.386 . S
C42 C43 1.395 . S
C43 C40 1.411 . S
C43 C42 1.395 . S
C43 C65 1.420 . S
O44 Eu0 2.558 . S
O44 C64 1.257 . S
O45 Eu0 2.612 . S
O45 Eu11 2.380 . S
O45 C56 1.276 . S
O46 Eu11 2.432 . S
O46 C63 1.264 . S
O47 Eu0 2.339 . S
O47 C63 1.254 . S
O48 Eu0 2.563 . S
O48 C56 1.235 . S
O49 Eu0 2.419 . S
O49 C64 1.249 . S
O50 Eu11 2.558 1_556 S
O50 C75 1.257 . S
O51 Eu0 2.380 . S
O51 Eu11 2.612 . S
O51 C67 1.276 . S
O52 Eu0 2.432 . S
O52 C74 1.264 . S
O53 Eu11 2.339 . S
O53 C74 1.254 . S
O54 Eu11 2.563 . S
O54 C67 1.235 . S
O55 Eu11 2.419 1_556 S
O55 C75 1.249 . S
C56 O45 1.276 . S
C56 O48 1.235 . S
C57 C59 1.393 . S
C57 C61 1.395 . S
C57 C64 1.492 . S
C58 C59 1.392 . S
C58 C60 1.386 . S
C59 C57 1.393 . S
C59 C58 1.392 . S
C59 H76 0.930 . S
C60 C58 1.386 . S
C60 C62 1.395 . S
C60 H77 0.930 . S
C61 C57 1.395 . S
C61 C62 1.379 . S
C61 H78 0.930 . S
C62 C60 1.395 . S
C62 C61 1.379 . S
C62 H79 0.930 . S
C63 O46 1.264 . S
C63 O47 1.254 . S
C64 Eu0 2.848 . S
C64 O44 1.257 . S
C64 O49 1.249 . S
C64 C57 1.492 . S
C65 H30 0.931 . S
C65 C43 1.420 . S
C65 C66 1.351 . S
C66 H28 0.930 . S
C66 C34 1.423 . S
C66 C65 1.351 . S
C67 O51 1.276 . S
C67 O54 1.235 . S
C68 C69 1.393 . S
C68 C72 1.395 . S
C68 C75 1.492 . S
C69 C68 1.393 . S
C69 C70 1.392 . S
C69 H80 0.930 . S
C70 C69 1.392 . S
C70 C71 1.386 . S
C71 C70 1.386 . S
C71 C73 1.395 . S
C71 H81 0.930 . S
C72 C68 1.395 . S
C72 C73 1.379 . S
C72 H82 0.930 . S
C73 C71 1.395 . S
C73 C72 1.379 . S
C73 H83 0.930 . S
C74 O52 1.264 . S
C74 O53 1.254 . S
C75 Eu11 2.848 1_556 S
C75 O50 1.257 . S
C75 O55 1.249 . S
C75 C68 1.492 . S
H76 C59 0.930 . S
H77 C60 0.930 . S
H78 C61 0.930 . S
H79 C62 0.930 . S
H80 C69 0.930 . S
H81 C71 0.930 . S
H82 C72 0.930 . S
H83 C73 0.930 . S
Eu84 N115 2.657 . S
Eu84 N122 2.609 . S
Eu84 O128 2.558 1_556 S
Eu84 O129 2.612 . S
Eu84 O131 2.339 . S
Eu84 O132 2.563 . S
Eu84 O133 2.419 1_556 S
Eu84 O135 2.380 . S
Eu84 O136 2.432 . S
Eu84 C148 2.848 1_556 S
C85 C88 1.429 . S
C85 C89 1.411 . S
C85 N92 1.377 . S
C86 C88 1.420 . S
C86 C90 1.423 . S
C86 C98 1.392 . S
C87 C89 1.420 . S
C87 C90 1.351 . S
C87 H110 0.931 . S
C88 C85 1.429 . S
C88 C86 1.420 . S
C88 N96 1.362 . S
C89 C85 1.411 . S
C89 C87 1.420 . S
C89 C94 1.395 . S
C90 C86 1.423 . S
C90 C87 1.351 . S
C90 H102 0.930 . S
C91 C93 1.400 . S
C91 C94 1.386 . S
C91 H103 0.930 . S
N92 C85 1.377 . S
N92 C93 1.321 . S
N92 Eu95 2.609 . S
C93 C91 1.400 . S
C93 N92 1.321 . S
C93 H100 0.930 . S
C94 C89 1.395 . S
C94 C91 1.386 . S
C94 H113 0.930 . S
Eu95 N92 2.609 . S
Eu95 N96 2.657 . S
Eu95 O129 2.380 . S
Eu95 O130 2.432 . S
Eu95 O134 2.558 . S
Eu95 O135 2.612 . S
Eu95 O137 2.339 . S
Eu95 O138 2.563 . S
Eu95 O139 2.419 . S
Eu95 C159 2.848 . S
N96 C88 1.362 . S
N96 Eu95 2.657 . S
N96 C97 1.334 . S
C97 N96 1.334 . S
C97 C99 1.413 . S
C97 H104 0.929 . S
C98 C86 1.392 . S
C98 C99 1.367 . S
C98 H106 0.930 . S
C99 C97 1.413 . S
C99 C98 1.367 . S
C99 H101 0.930 . S
H100 C93 0.930 . S
H101 C99 0.930 . S
H102 C90 0.930 . S
H103 C91 0.930 . S
H104 C97 0.929 . S
H105 C119 0.930 . S
H106 C98 0.930 . S
H107 C125 0.930 . S
H108 C116 0.929 . S
H109 C123 0.930 . S
H110 C87 0.931 . S
H111 C117 0.930 . S
H112 C150 0.930 . S
H113 C94 0.930 . S
H114 C149 0.931 . S
N115 Eu84 2.657 . S
N115 C116 1.334 . S
N115 C120 1.362 . S
C116 H108 0.929 . S
C116 N115 1.334 . S
C116 C119 1.413 . S
C117 H111 0.930 . S
C117 C118 1.392 . S
C117 C119 1.367 . S
C118 C117 1.392 . S
C118 C120 1.420 . S
C118 C150 1.423 . S
C119 H105 0.930 . S
C119 C116 1.413 . S
C119 C117 1.367 . S
C120 N115 1.362 . S
C120 C118 1.420 . S
C120 C124 1.429 . S
H121 C126 0.930 . S
N122 Eu84 2.609 . S
N122 C124 1.377 . S
N122 C125 1.321 . S
C123 H109 0.930 . S
C123 C125 1.400 . S
C123 C126 1.386 . S
C124 C120 1.429 . S
C124 N122 1.377 . S
C124 C127 1.411 . S
C125 H107 0.930 . S
C125 N122 1.321 . S
C125 C123 1.400 . S
C126 H121 0.930 . S
C126 C123 1.386 . S
C126 C127 1.395 . S
C127 C124 1.411 . S
C127 C126 1.395 . S
C127 C149 1.420 . S
O128 Eu84 2.558 1_554 S
O128 C148 1.257 . S
O129 Eu84 2.612 . S
O129 Eu95 2.380 . S
O129 C140 1.276 . S
O130 Eu95 2.432 . S
O130 C147 1.264 . S
O131 Eu84 2.339 . S
O131 C147 1.254 . S
O132 Eu84 2.563 . S
O132 C140 1.235 . S
O133 Eu84 2.419 1_554 S
O133 C148 1.249 . S
O134 Eu95 2.558 . S
O134 C159 1.257 . S
O135 Eu84 2.380 . S
O135 Eu95 2.612 . S
O135 C151 1.276 . S
O136 Eu84 2.432 . S
O136 C158 1.264 . S
O137 Eu95 2.339 . S
O137 C158 1.254 . S
O138 Eu95 2.563 . S
O138 C151 1.235 . S
O139 Eu95 2.419 . S
O139 C159 1.249 . S
C140 O129 1.276 . S
C140 O132 1.235 . S
C141 C143 1.393 . S
C141 C145 1.395 . S
C141 C148 1.492 . S
C142 C143 1.392 . S
C142 C144 1.386 . S
C143 C141 1.393 . S
C143 C142 1.392 . S
C143 H160 0.930 . S
C144 C142 1.386 . S
C144 C146 1.395 . S
C144 H161 0.930 . S
C145 C141 1.395 . S
C145 C146 1.379 . S
C145 H162 0.930 . S
C146 C144 1.395 . S
C146 C145 1.379 . S
C146 H163 0.930 . S
C147 O130 1.264 . S
C147 O131 1.254 . S
C148 Eu84 2.848 1_554 S
C148 O128 1.257 . S
C148 O133 1.249 . S
C148 C141 1.492 . S
C149 H114 0.931 . S
C149 C127 1.420 . S
C149 C150 1.351 . S
C150 H112 0.930 . S
C150 C118 1.423 . S
C150 C149 1.351 . S
C151 O135 1.276 . S
C151 O138 1.235 . S
C152 C153 1.393 . S
C152 C156 1.395 . S
C152 C159 1.492 . S
C153 C152 1.393 . S
C153 C154 1.392 . S
C153 H164 0.930 . S
C154 C153 1.392 . S
C154 C155 1.386 . S
C155 C154 1.386 . S
C155 C157 1.395 . S
C155 H165 0.930 . S
C156 C152 1.395 . S
C156 C157 1.379 . S
C156 H166 0.930 . S
C157 C155 1.395 . S
C157 C156 1.379 . S
C157 H167 0.930 . S
C158 O136 1.264 . S
C158 O137 1.254 . S
C159 Eu95 2.848 . S
C159 O134 1.257 . S
C159 O139 1.249 . S
C159 C152 1.492 . S
H160 C143 0.930 . S
H161 C144 0.930 . S
H162 C145 0.930 . S
H163 C146 0.930 . S
H164 C153 0.930 . S
H165 C155 0.930 . S
H166 C156 0.930 . S
H167 C157 0.930 . S
Eu168 N199 2.657 . S
Eu168 N206 2.609 . S
Eu168 O212 2.558 . S
Eu168 O213 2.612 . S
Eu168 O215 2.339 . S
Eu168 O216 2.563 . S
Eu168 O217 2.419 . S
Eu168 O219 2.380 . S
Eu168 O220 2.432 . S
Eu168 C232 2.848 . S
C169 C172 1.429 . S
C169 C173 1.411 . S
C169 N176 1.377 . S
C170 C172 1.420 . S
C170 C174 1.423 . S
C170 C182 1.392 . S
C171 C173 1.420 . S
C171 C174 1.351 . S
C171 H194 0.931 . S
C172 C169 1.429 . S
C172 C170 1.420 . S
C172 N180 1.362 . S
C173 C169 1.411 . S
C173 C171 1.420 . S
C173 C178 1.395 . S
C174 C170 1.423 . S
C174 C171 1.351 . S
C174 H186 0.930 . S
C175 C177 1.400 . S
C175 C178 1.386 . S
C175 H187 0.930 . S
N176 C169 1.377 . S
N176 C177 1.321 . S
N176 Eu179 2.609 . S
C177 C175 1.400 . S
C177 N176 1.321 . S
C177 H184 0.930 . S
C178 C173 1.395 . S
C178 C175 1.386 . S
C178 H197 0.930 . S
Eu179 N176 2.609 . S
Eu179 N180 2.657 . S
Eu179 O213 2.380 . S
Eu179 O214 2.432 . S
Eu179 O218 2.558 1_554 S
Eu179 O219 2.612 . S
Eu179 O221 2.339 . S
Eu179 O222 2.563 . S
Eu179 O223 2.419 1_554 S
Eu179 C243 2.848 1_554 S
N180 C172 1.362 . S
N180 Eu179 2.657 . S
N180 C181 1.334 . S
C181 N180 1.334 . S
C181 C183 1.413 . S
C181 H188 0.929 . S
C182 C170 1.392 . S
C182 C183 1.367 . S
C182 H190 0.930 . S
C183 C181 1.413 . S
C183 C182 1.367 . S
C183 H185 0.930 . S
H184 C177 0.930 . S
H185 C183 0.930 . S
H186 C174 0.930 . S
H187 C175 0.930 . S
H188 C181 0.929 . S
H189 C203 0.930 . S
H190 C182 0.930 . S
H191 C209 0.930 . S
H192 C200 0.929 . S
H193 C207 0.930 . S
H194 C171 0.931 . S
H195 C201 0.930 . S
H196 C234 0.930 . S
H197 C178 0.930 . S
H198 C233 0.931 . S
N199 Eu168 2.657 . S
N199 C200 1.334 . S
N199 C204 1.362 . S
C200 H192 0.929 . S
C200 N199 1.334 . S
C200 C203 1.413 . S
C201 H195 0.930 . S
C201 C202 1.392 . S
C201 C203 1.367 . S
C202 C201 1.392 . S
C202 C204 1.420 . S
C202 C234 1.423 . S
C203 H189 0.930 . S
C203 C200 1.413 . S
C203 C201 1.367 . S
C204 N199 1.362 . S
C204 C202 1.420 . S
C204 C208 1.429 . S
H205 C210 0.930 . S
N206 Eu168 2.609 . S
N206 C208 1.377 . S
N206 C209 1.321 . S
C207 H193 0.930 . S
C207 C209 1.400 . S
C207 C210 1.386 . S
C208 C204 1.429 . S
C208 N206 1.377 . S
C208 C211 1.411 . S
C209 H191 0.930 . S
C209 N206 1.321 . S
C209 C207 1.400 . S
C210 H205 0.930 . S
C210 C207 1.386 . S
C210 C211 1.395 . S
C211 C208 1.411 . S
C211 C210 1.395 . S
C211 C233 1.420 . S
O212 Eu168 2.558 . S
O212 C232 1.257 . S
O213 Eu168 2.612 . S
O213 Eu179 2.380 . S
O213 C224 1.276 . S
O214 Eu179 2.432 . S
O214 C231 1.264 . S
O215 Eu168 2.339 . S
O215 C231 1.254 . S
O216 Eu168 2.563 . S
O216 C224 1.235 . S
O217 Eu168 2.419 . S
O217 C232 1.249 . S
O218 Eu179 2.558 1_556 S
O218 C243 1.257 . S
O219 Eu168 2.380 . S
O219 Eu179 2.612 . S
O219 C235 1.276 . S
O220 Eu168 2.432 . S
O220 C242 1.264 . S
O221 Eu179 2.339 . S
O221 C242 1.254 . S
O222 Eu179 2.563 . S
O222 C235 1.235 . S
O223 Eu179 2.419 1_556 S
O223 C243 1.249 . S
C224 O213 1.276 . S
C224 O216 1.235 . S
C225 C227 1.393 . S
C225 C229 1.395 . S
C225 C232 1.492 . S
C226 C227 1.392 . S
C226 C228 1.386 . S
C227 C225 1.393 . S
C227 C226 1.392 . S
C227 H244 0.930 . S
C228 C226 1.386 . S
C228 C230 1.395 . S
C228 H245 0.930 . S
C229 C225 1.395 . S
C229 C230 1.379 . S
C229 H246 0.930 . S
C230 C228 1.395 . S
C230 C229 1.379 . S
C230 H247 0.930 . S
C231 O214 1.264 . S
C231 O215 1.254 . S
C232 Eu168 2.848 . S
C232 O212 1.257 . S
C232 O217 1.249 . S
C232 C225 1.492 . S
C233 H198 0.931 . S
C233 C211 1.420 . S
C233 C234 1.351 . S
C234 H196 0.930 . S
C234 C202 1.423 . S
C234 C233 1.351 . S
C235 O219 1.276 . S
C235 O222 1.235 . S
C236 C237 1.393 . S
C236 C240 1.395 . S
C236 C243 1.492 . S
C237 C236 1.393 . S
C237 C238 1.392 . S
C237 H248 0.930 . S
C238 C237 1.392 . S
C238 C239 1.386 . S
C239 C238 1.386 . S
C239 C241 1.395 . S
C239 H249 0.930 . S
C240 C236 1.395 . S
C240 C241 1.379 . S
C240 H250 0.930 . S
C241 C239 1.395 . S
C241 C240 1.379 . S
C241 H251 0.930 . S
C242 O220 1.264 . S
C242 O221 1.254 . S
C243 Eu179 2.848 1_556 S
C243 O218 1.257 . S
C243 O223 1.249 . S
C243 C236 1.492 . S
H244 C227 0.930 . S
H245 C228 0.930 . S
H246 C229 0.930 . S
H247 C230 0.930 . S
H248 C237 0.930 . S
H249 C239 0.930 . S
H250 C240 0.930 . S
H251 C241 0.930 . S
Eu252 N283 2.657 . S
Eu252 N290 2.609 . S
Eu252 O296 2.558 1_556 S
Eu252 O297 2.612 . S
Eu252 O299 2.339 . S
Eu252 O300 2.563 . S
Eu252 O301 2.419 1_556 S
Eu252 O303 2.380 . S
Eu252 O304 2.432 . S
Eu252 C316 2.848 1_556 S
C253 C256 1.429 . S
C253 C257 1.411 . S
C253 N260 1.377 . S
C254 C256 1.420 . S
C254 C258 1.423 . S
C254 C266 1.392 . S
C255 C257 1.420 . S
C255 C258 1.351 . S
C255 H278 0.931 . S
C256 C253 1.429 . S
C256 C254 1.420 . S
C256 N264 1.362 . S
C257 C253 1.411 . S
C257 C255 1.420 . S
C257 C262 1.395 . S
C258 C254 1.423 . S
C258 C255 1.351 . S
C258 H270 0.930 . S
C259 C261 1.400 . S
C259 C262 1.386 . S
C259 H271 0.930 . S
N260 C253 1.377 . S
N260 C261 1.321 . S
N260 Eu263 2.609 . S
C261 C259 1.400 . S
C261 N260 1.321 . S
C261 H268 0.930 . S
C262 C257 1.395 . S
C262 C259 1.386 . S
C262 H281 0.930 . S
Eu263 N260 2.609 . S
Eu263 N264 2.657 . S
Eu263 O297 2.380 . S
Eu263 O298 2.432 . S
Eu263 O302 2.558 . S
Eu263 O303 2.612 . S
Eu263 O305 2.339 . S
Eu263 O306 2.563 . S
Eu263 O307 2.419 . S
Eu263 C327 2.848 . S
N264 C256 1.362 . S
N264 Eu263 2.657 . S
N264 C265 1.334 . S
C265 N264 1.334 . S
C265 C267 1.413 . S
C265 H272 0.929 . S
C266 C254 1.392 . S
C266 C267 1.367 . S
C266 H274 0.930 . S
C267 C265 1.413 . S
C267 C266 1.367 . S
C267 H269 0.930 . S
H268 C261 0.930 . S
H269 C267 0.930 . S
H270 C258 0.930 . S
H271 C259 0.930 . S
H272 C265 0.929 . S
H273 C287 0.930 . S
H274 C266 0.930 . S
H275 C293 0.930 . S
H276 C284 0.929 . S
H277 C291 0.930 . S
H278 C255 0.931 . S
H279 C285 0.930 . S
H280 C318 0.930 . S
H281 C262 0.930 . S
H282 C317 0.931 . S
N283 Eu252 2.657 . S
N283 C284 1.334 . S
N283 C288 1.362 . S
C284 H276 0.929 . S
C284 N283 1.334 . S
C284 C287 1.413 . S
C285 H279 0.930 . S
C285 C286 1.392 . S
C285 C287 1.367 . S
C286 C285 1.392 . S
C286 C288 1.420 . S
C286 C318 1.423 . S
C287 H273 0.930 . S
C287 C284 1.413 . S
C287 C285 1.367 . S
C288 N283 1.362 . S
C288 C286 1.420 . S
C288 C292 1.429 . S
H289 C294 0.930 . S
N290 Eu252 2.609 . S
N290 C292 1.377 . S
N290 C293 1.321 . S
C291 H277 0.930 . S
C291 C293 1.400 . S
C291 C294 1.386 . S
C292 C288 1.429 . S
C292 N290 1.377 . S
C292 C295 1.411 . S
C293 H275 0.930 . S
C293 N290 1.321 . S
C293 C291 1.400 . S
C294 H289 0.930 . S
C294 C291 1.386 . S
C294 C295 1.395 . S
C295 C292 1.411 . S
C295 C294 1.395 . S
C295 C317 1.420 . S
O296 Eu252 2.558 1_554 S
O296 C316 1.257 . S
O297 Eu252 2.612 . S
O297 Eu263 2.380 . S
O297 C308 1.276 . S
O298 Eu263 2.432 . S
O298 C315 1.264 . S
O299 Eu252 2.339 . S
O299 C315 1.254 . S
O300 Eu252 2.563 . S
O300 C308 1.235 . S
O301 Eu252 2.419 1_554 S
O301 C316 1.249 . S
O302 Eu263 2.558 . S
O302 C327 1.257 . S
O303 Eu252 2.380 . S
O303 Eu263 2.612 . S
O303 C319 1.276 . S
O304 Eu252 2.432 . S
O304 C326 1.264 . S
O305 Eu263 2.339 . S
O305 C326 1.254 . S
O306 Eu263 2.563 . S
O306 C319 1.235 . S
O307 Eu263 2.419 . S
O307 C327 1.249 . S
C308 O297 1.276 . S
C308 O300 1.235 . S
C309 C311 1.393 . S
C309 C313 1.395 . S
C309 C316 1.492 . S
C310 C311 1.392 . S
C310 C312 1.386 . S
C311 C309 1.393 . S
C311 C310 1.392 . S
C311 H328 0.930 . S
C312 C310 1.386 . S
C312 C314 1.395 . S
C312 H329 0.930 . S
C313 C309 1.395 . S
C313 C314 1.379 . S
C313 H330 0.930 . S
C314 C312 1.395 . S
C314 C313 1.379 . S
C314 H331 0.930 . S
C315 O298 1.264 . S
C315 O299 1.254 . S
C316 Eu252 2.848 1_554 S
C316 O296 1.257 . S
C316 O301 1.249 . S
C316 C309 1.492 . S
C317 H282 0.931 . S
C317 C295 1.420 . S
C317 C318 1.351 . S
C318 H280 0.930 . S
C318 C286 1.423 . S
C318 C317 1.351 . S
C319 O303 1.276 . S
C319 O306 1.235 . S
C320 C321 1.393 . S
C320 C324 1.395 . S
C320 C327 1.492 . S
C321 C320 1.393 . S
C321 C322 1.392 . S
C321 H332 0.930 . S
C322 C321 1.392 . S
C322 C323 1.386 . S
C323 C322 1.386 . S
C323 C325 1.395 . S
C323 H333 0.930 . S
C324 C320 1.395 . S
C324 C325 1.379 . S
C324 H334 0.930 . S
C325 C323 1.395 . S
C325 C324 1.379 . S
C325 H335 0.930 . S
C326 O304 1.264 . S
C326 O305 1.254 . S
C327 Eu263 2.848 . S
C327 O302 1.257 . S
C327 O307 1.249 . S
C327 C320 1.492 . S
H328 C311 0.930 . S
H329 C312 0.930 . S
H330 C313 0.930 . S
H331 C314 0.930 . S
H332 C321 0.930 . S
H333 C323 0.930 . S
H334 C324 0.930 . S
H335 C325 0.930 . S
Eu336 N367 2.657 . S
Eu336 N374 2.609 . S
Eu336 O380 2.558 1_554 S
Eu336 O381 2.612 . S
Eu336 O383 2.339 . S
Eu336 O384 2.563 . S
Eu336 O385 2.419 1_554 S
Eu336 O387 2.380 . S
Eu336 O388 2.432 . S
Eu336 C400 2.848 1_554 S
C337 C340 1.429 . S
C337 C341 1.411 . S
C337 N344 1.377 . S
C338 C340 1.420 . S
C338 C342 1.423 . S
C338 C350 1.392 . S
C339 C341 1.420 . S
C339 C342 1.351 . S
C339 H362 0.931 . S
C340 C337 1.429 . S
C340 C338 1.420 . S
C340 N348 1.362 . S
C341 C337 1.411 . S
C341 C339 1.420 . S
C341 C346 1.395 . S
C342 C338 1.423 . S
C342 C339 1.351 . S
C342 H354 0.930 . S
C343 C345 1.400 . S
C343 C346 1.386 . S
C343 H355 0.930 . S
N344 C337 1.377 . S
N344 C345 1.321 . S
N344 Eu347 2.609 . S
C345 C343 1.400 . S
C345 N344 1.321 . S
C345 H352 0.930 . S
C346 C341 1.395 . S
C346 C343 1.386 . S
C346 H365 0.930 . S
Eu347 N344 2.609 . S
Eu347 N348 2.657 . S
Eu347 O381 2.380 . S
Eu347 O382 2.432 . S
Eu347 O386 2.558 . S
Eu347 O387 2.612 . S
Eu347 O389 2.339 . S
Eu347 O390 2.563 . S
Eu347 O391 2.419 . S
Eu347 C411 2.848 . S
N348 C340 1.362 . S
N348 Eu347 2.657 . S
N348 C349 1.334 . S
C349 N348 1.334 . S
C349 C351 1.413 . S
C349 H356 0.929 . S
C350 C338 1.392 . S
C350 C351 1.367 . S
C350 H358 0.930 . S
C351 C349 1.413 . S
C351 C350 1.367 . S
C351 H353 0.930 . S
H352 C345 0.930 . S
H353 C351 0.930 . S
H354 C342 0.930 . S
H355 C343 0.930 . S
H356 C349 0.929 . S
H357 C371 0.930 . S
H358 C350 0.930 . S
H359 C377 0.930 . S
H360 C368 0.929 . S
H361 C375 0.930 . S
H362 C339 0.931 . S
H363 C369 0.930 . S
H364 C402 0.930 . S
H365 C346 0.930 . S
H366 C401 0.931 . S
N367 Eu336 2.657 . S
N367 C368 1.334 . S
N367 C372 1.362 . S
C368 H360 0.929 . S
C368 N367 1.334 . S
C368 C371 1.413 . S
C369 H363 0.930 . S
C369 C370 1.392 . S
C369 C371 1.367 . S
C370 C369 1.392 . S
C370 C372 1.420 . S
C370 C402 1.423 . S
C371 H357 0.930 . S
C371 C368 1.413 . S
C371 C369 1.367 . S
C372 N367 1.362 . S
C372 C370 1.420 . S
C372 C376 1.429 . S
H373 C378 0.930 . S
N374 Eu336 2.609 . S
N374 C376 1.377 . S
N374 C377 1.321 . S
C375 H361 0.930 . S
C375 C377 1.400 . S
C375 C378 1.386 . S
C376 C372 1.429 . S
C376 N374 1.377 . S
C376 C379 1.411 . S
C377 H359 0.930 . S
C377 N374 1.321 . S
C377 C375 1.400 . S
C378 H373 0.930 . S
C378 C375 1.386 . S
C378 C379 1.395 . S
C379 C376 1.411 . S
C379 C378 1.395 . S
C379 C401 1.420 . S
O380 Eu336 2.558 1_556 S
O380 C400 1.257 . S
O381 Eu336 2.612 . S
O381 Eu347 2.380 . S
O381 C392 1.276 . S
O382 Eu347 2.432 . S
O382 C399 1.264 . S
O383 Eu336 2.339 . S
O383 C399 1.254 . S
O384 Eu336 2.563 . S
O384 C392 1.235 . S
O385 Eu336 2.419 1_556 S
O385 C400 1.249 . S
O386 Eu347 2.558 . S
O386 C411 1.257 . S
O387 Eu336 2.380 . S
O387 Eu347 2.612 . S
O387 C403 1.276 . S
O388 Eu336 2.432 . S
O388 C410 1.264 . S
O389 Eu347 2.339 . S
O389 C410 1.254 . S
O390 Eu347 2.563 . S
O390 C403 1.235 . S
O391 Eu347 2.419 . S
O391 C411 1.249 . S
C392 O381 1.276 . S
C392 O384 1.235 . S
C393 C395 1.393 . S
C393 C397 1.395 . S
C393 C400 1.492 . S
C394 C395 1.392 . S
C394 C396 1.386 . S
C395 C393 1.393 . S
C395 C394 1.392 . S
C395 H412 0.930 . S
C396 C394 1.386 . S
C396 C398 1.395 . S
C396 H413 0.930 . S
C397 C393 1.395 . S
C397 C398 1.379 . S
C397 H414 0.930 . S
C398 C396 1.395 . S
C398 C397 1.379 . S
C398 H415 0.930 . S
C399 O382 1.264 . S
C399 O383 1.254 . S
C400 Eu336 2.848 1_556 S
C400 O380 1.257 . S
C400 O385 1.249 . S
C400 C393 1.492 . S
C401 H366 0.931 . S
C401 C379 1.420 . S
C401 C402 1.351 . S
C402 H364 0.930 . S
C402 C370 1.423 . S
C402 C401 1.351 . S
C403 O387 1.276 . S
C403 O390 1.235 . S
C404 C405 1.393 . S
C404 C408 1.395 . S
C404 C411 1.492 . S
C405 C404 1.393 . S
C405 C406 1.392 . S
C405 H416 0.930 . S
C406 C405 1.392 . S
C406 C407 1.386 . S
C407 C406 1.386 . S
C407 C409 1.395 . S
C407 H417 0.930 . S
C408 C404 1.395 . S
C408 C409 1.379 . S
C408 H418 0.930 . S
C409 C407 1.395 . S
C409 C408 1.379 . S
C409 H419 0.930 . S
C410 O388 1.264 . S
C410 O389 1.254 . S
C411 Eu347 2.848 . S
C411 O386 1.257 . S
C411 O391 1.249 . S
C411 C404 1.492 . S
H412 C395 0.930 . S
H413 C396 0.930 . S
H414 C397 0.930 . S
H415 C398 0.930 . S
H416 C405 0.930 . S
H417 C407 0.930 . S
H418 C408 0.930 . S
H419 C409 0.930 . S
Eu420 N451 2.657 . S
Eu420 N458 2.609 . S
Eu420 O464 2.558 . S
Eu420 O465 2.612 . S
Eu420 O467 2.339 . S
Eu420 O468 2.563 . S
Eu420 O469 2.419 . S
Eu420 O471 2.380 . S
Eu420 O472 2.432 . S
Eu420 C484 2.848 . S
C421 C424 1.429 . S
C421 C425 1.411 . S
C421 N428 1.377 . S
C422 C424 1.420 . S
C422 C426 1.423 . S
C422 C434 1.392 . S
C423 C425 1.420 . S
C423 C426 1.351 . S
C423 H446 0.931 . S
C424 C421 1.429 . S
C424 C422 1.420 . S
C424 N432 1.362 . S
C425 C421 1.411 . S
C425 C423 1.420 . S
C425 C430 1.395 . S
C426 C422 1.423 . S
C426 C423 1.351 . S
C426 H438 0.930 . S
C427 C429 1.400 . S
C427 C430 1.386 . S
C427 H439 0.930 . S
N428 C421 1.377 . S
N428 C429 1.321 . S
N428 Eu431 2.609 . S
C429 C427 1.400 . S
C429 N428 1.321 . S
C429 H436 0.930 . S
C430 C425 1.395 . S
C430 C427 1.386 . S
C430 H449 0.930 . S
Eu431 N428 2.609 . S
Eu431 N432 2.657 . S
Eu431 O465 2.380 . S
Eu431 O466 2.432 . S
Eu431 O470 2.558 1_556 S
Eu431 O471 2.612 . S
Eu431 O473 2.339 . S
Eu431 O474 2.563 . S
Eu431 O475 2.419 1_556 S
Eu431 C495 2.848 1_556 S
N432 C424 1.362 . S
N432 Eu431 2.657 . S
N432 C433 1.334 . S
C433 N432 1.334 . S
C433 C435 1.413 . S
C433 H440 0.929 . S
C434 C422 1.392 . S
C434 C435 1.367 . S
C434 H442 0.930 . S
C435 C433 1.413 . S
C435 C434 1.367 . S
C435 H437 0.930 . S
H436 C429 0.930 . S
H437 C435 0.930 . S
H438 C426 0.930 . S
H439 C427 0.930 . S
H440 C433 0.929 . S
H441 C455 0.930 . S
H442 C434 0.930 . S
H443 C461 0.930 . S
H444 C452 0.929 . S
H445 C459 0.930 . S
H446 C423 0.931 . S
H447 C453 0.930 . S
H448 C486 0.930 . S
H449 C430 0.930 . S
H450 C485 0.931 . S
N451 Eu420 2.657 . S
N451 C452 1.334 . S
N451 C456 1.362 . S
C452 H444 0.929 . S
C452 N451 1.334 . S
C452 C455 1.413 . S
C453 H447 0.930 . S
C453 C454 1.392 . S
C453 C455 1.367 . S
C454 C453 1.392 . S
C454 C456 1.420 . S
C454 C486 1.423 . S
C455 H441 0.930 . S
C455 C452 1.413 . S
C455 C453 1.367 . S
C456 N451 1.362 . S
C456 C454 1.420 . S
C456 C460 1.429 . S
H457 C462 0.930 . S
N458 Eu420 2.609 . S
N458 C460 1.377 . S
N458 C461 1.321 . S
C459 H445 0.930 . S
C459 C461 1.400 . S
C459 C462 1.386 . S
C460 C456 1.429 . S
C460 N458 1.377 . S
C460 C463 1.411 . S
C461 H443 0.930 . S
C461 N458 1.321 . S
C461 C459 1.400 . S
C462 H457 0.930 . S
C462 C459 1.386 . S
C462 C463 1.395 . S
C463 C460 1.411 . S
C463 C462 1.395 . S
C463 C485 1.420 . S
O464 Eu420 2.558 . S
O464 C484 1.257 . S
O465 Eu420 2.612 . S
O465 Eu431 2.380 . S
O465 C476 1.276 . S
O466 Eu431 2.432 . S
O466 C483 1.264 . S
O467 Eu420 2.339 . S
O467 C483 1.254 . S
O468 Eu420 2.563 . S
O468 C476 1.235 . S
O469 Eu420 2.419 . S
O469 C484 1.249 . S
O470 Eu431 2.558 1_554 S
O470 C495 1.257 . S
O471 Eu420 2.380 . S
O471 Eu431 2.612 . S
O471 C487 1.276 . S
O472 Eu420 2.432 . S
O472 C494 1.264 . S
O473 Eu431 2.339 . S
O473 C494 1.254 . S
O474 Eu431 2.563 . S
O474 C487 1.235 . S
O475 Eu431 2.419 1_554 S
O475 C495 1.249 . S
C476 O465 1.276 . S
C476 O468 1.235 . S
C477 C479 1.393 . S
C477 C481 1.395 . S
C477 C484 1.492 . S
C478 C479 1.392 . S
C478 C480 1.386 . S
C479 C477 1.393 . S
C479 C478 1.392 . S
C479 H496 0.930 . S
C480 C478 1.386 . S
C480 C482 1.395 . S
C480 H497 0.930 . S
C481 C477 1.395 . S
C481 C482 1.379 . S
C481 H498 0.930 . S
C482 C480 1.395 . S
C482 C481 1.379 . S
C482 H499 0.930 . S
C483 O466 1.264 . S
C483 O467 1.254 . S
C484 Eu420 2.848 . S
C484 O464 1.257 . S
C484 O469 1.249 . S
C484 C477 1.492 . S
C485 H450 0.931 . S
C485 C463 1.420 . S
C485 C486 1.351 . S
C486 H448 0.930 . S
C486 C454 1.423 . S
C486 C485 1.351 . S
C487 O471 1.276 . S
C487 O474 1.235 . S
C488 C489 1.393 . S
C488 C492 1.395 . S
C488 C495 1.492 . S
C489 C488 1.393 . S
C489 C490 1.392 . S
C489 H500 0.930 . S
C490 C489 1.392 . S
C490 C491 1.386 . S
C491 C490 1.386 . S
C491 C493 1.395 . S
C491 H501 0.930 . S
C492 C488 1.395 . S
C492 C493 1.379 . S
C492 H502 0.930 . S
C493 C491 1.395 . S
C493 C492 1.379 . S
C493 H503 0.930 . S
C494 O472 1.264 . S
C494 O473 1.254 . S
C495 Eu431 2.848 1_554 S
C495 O470 1.257 . S
C495 O475 1.249 . S
C495 C488 1.492 . S
H496 C479 0.930 . S
H497 C480 0.930 . S
H498 C481 0.930 . S
H499 C482 0.930 . S
H500 C489 0.930 . S
H501 C491 0.930 . S
H502 C492 0.930 . S
H503 C493 0.930 . S
Eu504 N535 2.657 . S
Eu504 N542 2.609 . S
Eu504 O548 2.558 1_554 S
Eu504 O549 2.612 . S
Eu504 O551 2.339 . S
Eu504 O552 2.563 . S
Eu504 O553 2.419 1_554 S
Eu504 O555 2.380 . S
Eu504 O556 2.432 . S
Eu504 C568 2.848 1_554 S
C505 C508 1.429 . S
C505 C509 1.411 . S
C505 N512 1.377 . S
C506 C508 1.420 . S
C506 C510 1.423 . S
C506 C518 1.392 . S
C507 C509 1.420 . S
C507 C510 1.351 . S
C507 H530 0.931 . S
C508 C505 1.429 . S
C508 C506 1.420 . S
C508 N516 1.362 . S
C509 C505 1.411 . S
C509 C507 1.420 . S
C509 C514 1.395 . S
C510 C506 1.423 . S
C510 C507 1.351 . S
C510 H522 0.930 . S
C511 C513 1.400 . S
C511 C514 1.386 . S
C511 H523 0.930 . S
N512 C505 1.377 . S
N512 C513 1.321 . S
N512 Eu515 2.609 . S
C513 C511 1.400 . S
C513 N512 1.321 . S
C513 H520 0.930 . S
C514 C509 1.395 . S
C514 C511 1.386 . S
C514 H533 0.930 . S
Eu515 N512 2.609 . S
Eu515 N516 2.657 . S
Eu515 O549 2.380 . S
Eu515 O550 2.432 . S
Eu515 O554 2.558 . S
Eu515 O555 2.612 . S
Eu515 O557 2.339 . S
Eu515 O558 2.563 . S
Eu515 O559 2.419 . S
Eu515 C579 2.848 . S
N516 C508 1.362 . S
N516 Eu515 2.657 . S
N516 C517 1.334 . S
C517 N516 1.334 . S
C517 C519 1.413 . S
C517 H524 0.929 . S
C518 C506 1.392 . S
C518 C519 1.367 . S
C518 H526 0.930 . S
C519 C517 1.413 . S
C519 C518 1.367 . S
C519 H521 0.930 . S
H520 C513 0.930 . S
H521 C519 0.930 . S
H522 C510 0.930 . S
H523 C511 0.930 . S
H524 C517 0.929 . S
H525 C539 0.930 . S
H526 C518 0.930 . S
H527 C545 0.930 . S
H528 C536 0.929 . S
H529 C543 0.930 . S
H530 C507 0.931 . S
H531 C537 0.930 . S
H532 C570 0.930 . S
H533 C514 0.930 . S
H534 C569 0.931 . S
N535 Eu504 2.657 . S
N535 C536 1.334 . S
N535 C540 1.362 . S
C536 H528 0.929 . S
C536 N535 1.334 . S
C536 C539 1.413 . S
C537 H531 0.930 . S
C537 C538 1.392 . S
C537 C539 1.367 . S
C538 C537 1.392 . S
C538 C540 1.420 . S
C538 C570 1.423 . S
C539 H525 0.930 . S
C539 C536 1.413 . S
C539 C537 1.367 . S
C540 N535 1.362 . S
C540 C538 1.420 . S
C540 C544 1.429 . S
H541 C546 0.930 . S
N542 Eu504 2.609 . S
N542 C544 1.377 . S
N542 C545 1.321 . S
C543 H529 0.930 . S
C543 C545 1.400 . S
C543 C546 1.386 . S
C544 C540 1.429 . S
C544 N542 1.377 . S
C544 C547 1.411 . S
C545 H527 0.930 . S
C545 N542 1.321 . S
C545 C543 1.400 . S
C546 H541 0.930 . S
C546 C543 1.386 . S
C546 C547 1.395 . S
C547 C544 1.411 . S
C547 C546 1.395 . S
C547 C569 1.420 . S
O548 Eu504 2.558 1_556 S
O548 C568 1.257 . S
O549 Eu504 2.612 . S
O549 Eu515 2.380 . S
O549 C560 1.276 . S
O550 Eu515 2.432 . S
O550 C567 1.264 . S
O551 Eu504 2.339 . S
O551 C567 1.254 . S
O552 Eu504 2.563 . S
O552 C560 1.235 . S
O553 Eu504 2.419 1_556 S
O553 C568 1.249 . S
O554 Eu515 2.558 . S
O554 C579 1.257 . S
O555 Eu504 2.380 . S
O555 Eu515 2.612 . S
O555 C571 1.276 . S
O556 Eu504 2.432 . S
O556 C578 1.264 . S
O557 Eu515 2.339 . S
O557 C578 1.254 . S
O558 Eu515 2.563 . S
O558 C571 1.235 . S
O559 Eu515 2.419 . S
O559 C579 1.249 . S
C560 O549 1.276 . S
C560 O552 1.235 . S
C561 C563 1.393 . S
C561 C565 1.395 . S
C561 C568 1.492 . S
C562 C563 1.392 . S
C562 C564 1.386 . S
C563 C561 1.393 . S
C563 C562 1.392 . S
C563 H580 0.930 . S
C564 C562 1.386 . S
C564 C566 1.395 . S
C564 H581 0.930 . S
C565 C561 1.395 . S
C565 C566 1.379 . S
C565 H582 0.930 . S
C566 C564 1.395 . S
C566 C565 1.379 . S
C566 H583 0.930 . S
C567 O550 1.264 . S
C567 O551 1.254 . S
C568 Eu504 2.848 1_556 S
C568 O548 1.257 . S
C568 O553 1.249 . S
C568 C561 1.492 . S
C569 H534 0.931 . S
C569 C547 1.420 . S
C569 C570 1.351 . S
C570 H532 0.930 . S
C570 C538 1.423 . S
C570 C569 1.351 . S
C571 O555 1.276 . S
C571 O558 1.235 . S
C572 C573 1.393 . S
C572 C576 1.395 . S
C572 C579 1.492 . S
C573 C572 1.393 . S
C573 C574 1.392 . S
C573 H584 0.930 . S
C574 C573 1.392 . S
C574 C575 1.386 . S
C575 C574 1.386 . S
C575 C577 1.395 . S
C575 H585 0.930 . S
C576 C572 1.395 . S
C576 C577 1.379 . S
C576 H586 0.930 . S
C577 C575 1.395 . S
C577 C576 1.379 . S
C577 H587 0.930 . S
C578 O556 1.264 . S
C578 O557 1.254 . S
C579 Eu515 2.848 . S
C579 O554 1.257 . S
C579 O559 1.249 . S
C579 C572 1.492 . S
H580 C563 0.930 . S
H581 C564 0.930 . S
H582 C565 0.930 . S
H583 C566 0.930 . S
H584 C573 0.930 . S
H585 C575 0.930 . S
H586 C576 0.930 . S
H587 C577 0.930 . S
Eu588 N619 2.657 . S
Eu588 N626 2.609 . S
Eu588 O632 2.558 . S
Eu588 O633 2.612 . S
Eu588 O635 2.339 . S
Eu588 O636 2.563 . S
Eu588 O637 2.419 . S
Eu588 O639 2.380 . S
Eu588 O640 2.432 . S
Eu588 C652 2.848 . S
C589 C592 1.429 . S
C589 C593 1.411 . S
C589 N596 1.377 . S
C590 C592 1.420 . S
C590 C594 1.423 . S
C590 C602 1.392 . S
C591 C593 1.420 . S
C591 C594 1.351 . S
C591 H614 0.931 . S
C592 C589 1.429 . S
C592 C590 1.420 . S
C592 N600 1.362 . S
C593 C589 1.411 . S
C593 C591 1.420 . S
C593 C598 1.395 . S
C594 C590 1.423 . S
C594 C591 1.351 . S
C594 H606 0.930 . S
C595 C597 1.400 . S
C595 C598 1.386 . S
C595 H607 0.930 . S
N596 C589 1.377 . S
N596 C597 1.321 . S
N596 Eu599 2.609 . S
C597 C595 1.400 . S
C597 N596 1.321 . S
C597 H604 0.930 . S
C598 C593 1.395 . S
C598 C595 1.386 . S
C598 H617 0.930 . S
Eu599 N596 2.609 . S
Eu599 N600 2.657 . S
Eu599 O633 2.380 . S
Eu599 O634 2.432 . S
Eu599 O638 2.558 1_556 S
Eu599 O639 2.612 . S
Eu599 O641 2.339 . S
Eu599 O642 2.563 . S
Eu599 O643 2.419 1_556 S
Eu599 C663 2.848 1_556 S
N600 C592 1.362 . S
N600 Eu599 2.657 . S
N600 C601 1.334 . S
C601 N600 1.334 . S
C601 C603 1.413 . S
C601 H608 0.929 . S
C602 C590 1.392 . S
C602 C603 1.367 . S
C602 H610 0.930 . S
C603 C601 1.413 . S
C603 C602 1.367 . S
C603 H605 0.930 . S
H604 C597 0.930 . S
H605 C603 0.930 . S
H606 C594 0.930 . S
H607 C595 0.930 . S
H608 C601 0.929 . S
H609 C623 0.930 . S
H610 C602 0.930 . S
H611 C629 0.930 . S
H612 C620 0.929 . S
H613 C627 0.930 . S
H614 C591 0.931 . S
H615 C621 0.930 . S
H616 C654 0.930 . S
H617 C598 0.930 . S
H618 C653 0.931 . S
N619 Eu588 2.657 . S
N619 C620 1.334 . S
N619 C624 1.362 . S
C620 H612 0.929 . S
C620 N619 1.334 . S
C620 C623 1.413 . S
C621 H615 0.930 . S
C621 C622 1.392 . S
C621 C623 1.367 . S
C622 C621 1.392 . S
C622 C624 1.420 . S
C622 C654 1.423 . S
C623 H609 0.930 . S
C623 C620 1.413 . S
C623 C621 1.367 . S
C624 N619 1.362 . S
C624 C622 1.420 . S
C624 C628 1.429 . S
H625 C630 0.930 . S
N626 Eu588 2.609 . S
N626 C628 1.377 . S
N626 C629 1.321 . S
C627 H613 0.930 . S
C627 C629 1.400 . S
C627 C630 1.386 . S
C628 C624 1.429 . S
C628 N626 1.377 . S
C628 C631 1.411 . S
C629 H611 0.930 . S
C629 N626 1.321 . S
C629 C627 1.400 . S
C630 H625 0.930 . S
C630 C627 1.386 . S
C630 C631 1.395 . S
C631 C628 1.411 . S
C631 C630 1.395 . S
C631 C653 1.420 . S
O632 Eu588 2.558 . S
O632 C652 1.257 . S
O633 Eu588 2.612 . S
O633 Eu599 2.380 . S
O633 C644 1.276 . S
O634 Eu599 2.432 . S
O634 C651 1.264 . S
O635 Eu588 2.339 . S
O635 C651 1.254 . S
O636 Eu588 2.563 . S
O636 C644 1.235 . S
O637 Eu588 2.419 . S
O637 C652 1.249 . S
O638 Eu599 2.558 1_554 S
O638 C663 1.257 . S
O639 Eu588 2.380 . S
O639 Eu599 2.612 . S
O639 C655 1.276 . S
O640 Eu588 2.432 . S
O640 C662 1.264 . S
O641 Eu599 2.339 . S
O641 C662 1.254 . S
O642 Eu599 2.563 . S
O642 C655 1.235 . S
O643 Eu599 2.419 1_554 S
O643 C663 1.249 . S
C644 O633 1.276 . S
C644 O636 1.235 . S
C645 C647 1.393 . S
C645 C649 1.395 . S
C645 C652 1.492 . S
C646 C647 1.392 . S
C646 C648 1.386 . S
C647 C645 1.393 . S
C647 C646 1.392 . S
C647 H664 0.930 . S
C648 C646 1.386 . S
C648 C650 1.395 . S
C648 H665 0.930 . S
C649 C645 1.395 . S
C649 C650 1.379 . S
C649 H666 0.930 . S
C650 C648 1.395 . S
C650 C649 1.379 . S
C650 H667 0.930 . S
C651 O634 1.264 . S
C651 O635 1.254 . S
C652 Eu588 2.848 . S
C652 O632 1.257 . S
C652 O637 1.249 . S
C652 C645 1.492 . S
C653 H618 0.931 . S
C653 C631 1.420 . S
C653 C654 1.351 . S
C654 H616 0.930 . S
C654 C622 1.423 . S
C654 C653 1.351 . S
C655 O639 1.276 . S
C655 O642 1.235 . S
C656 C657 1.393 . S
C656 C660 1.395 . S
C656 C663 1.492 . S
C657 C656 1.393 . S
C657 C658 1.392 . S
C657 H668 0.930 . S
C658 C657 1.392 . S
C658 C659 1.386 . S
C659 C658 1.386 . S
C659 C661 1.395 . S
C659 H669 0.930 . S
C660 C656 1.395 . S
C660 C661 1.379 . S
C660 H670 0.930 . S
C661 C659 1.395 . S
C661 C660 1.379 . S
C661 H671 0.930 . S
C662 O640 1.264 . S
C662 O641 1.254 . S
C663 Eu599 2.848 1_554 S
C663 O638 1.257 . S
C663 O643 1.249 . S
C663 C656 1.492 . S
H664 C647 0.930 . S
H665 C648 0.930 . S
H666 C649 0.930 . S
H667 C650 0.930 . S
H668 C657 0.930 . S
H669 C659 0.930 . S
H670 C660 0.930 . S
H671 C661 0.930 . S
Eu672 N703 2.657 . S
Eu672 N710 2.609 . S
Eu672 O716 2.558 . S
Eu672 O717 2.612 . S
Eu672 O719 2.339 . S
Eu672 O720 2.563 . S
Eu672 O721 2.419 . S
Eu672 O723 2.380 . S
Eu672 O724 2.432 . S
Eu672 C736 2.848 . S
C673 C676 1.429 . S
C673 C677 1.411 . S
C673 N680 1.377 . S
C674 C676 1.420 . S
C674 C678 1.423 . S
C674 C686 1.392 . S
C675 C677 1.420 . S
C675 C678 1.351 . S
C675 H698 0.931 . S
C676 C673 1.429 . S
C676 C674 1.420 . S
C676 N684 1.362 . S
C677 C673 1.411 . S
C677 C675 1.420 . S
C677 C682 1.395 . S
C678 C674 1.423 . S
C678 C675 1.351 . S
C678 H690 0.930 . S
C679 C681 1.400 . S
C679 C682 1.386 . S
C679 H691 0.930 . S
N680 C673 1.377 . S
N680 C681 1.321 . S
N680 Eu683 2.609 . S
C681 C679 1.400 . S
C681 N680 1.321 . S
C681 H688 0.930 . S
C682 C677 1.395 . S
C682 C679 1.386 . S
C682 H701 0.930 . S
Eu683 N680 2.609 . S
Eu683 N684 2.657 . S
Eu683 O717 2.380 . S
Eu683 O718 2.432 . S
Eu683 O722 2.558 . S
Eu683 O723 2.612 . S
Eu683 O725 2.339 . S
Eu683 O726 2.563 . S
Eu683 O727 2.419 . S
Eu683 C747 2.848 . S
N684 C676 1.362 . S
N684 Eu683 2.657 . S
N684 C685 1.334 . S
C685 N684 1.334 . S
C685 C687 1.413 . S
C685 H692 0.929 . S
C686 C674 1.392 . S
C686 C687 1.367 . S
C686 H694 0.930 . S
C687 C685 1.413 . S
C687 C686 1.367 . S
C687 H689 0.930 . S
H688 C681 0.930 . S
H689 C687 0.930 . S
H690 C678 0.930 . S
H691 C679 0.930 . S
H692 C685 0.929 . S
H693 C707 0.930 . S
H694 C686 0.930 . S
H695 C713 0.930 . S
H696 C704 0.929 . S
H697 C711 0.930 . S
H698 C675 0.931 . S
H699 C705 0.930 . S
H700 C738 0.930 . S
H701 C682 0.930 . S
H702 C737 0.931 . S
N703 Eu672 2.657 . S
N703 C704 1.334 . S
N703 C708 1.362 . S
C704 H696 0.929 . S
C704 N703 1.334 . S
C704 C707 1.413 . S
C705 H699 0.930 . S
C705 C706 1.392 . S
C705 C707 1.367 . S
C706 C705 1.392 . S
C706 C708 1.420 . S
C706 C738 1.423 . S
C707 H693 0.930 . S
C707 C704 1.413 . S
C707 C705 1.367 . S
C708 N703 1.362 . S
C708 C706 1.420 . S
C708 C712 1.429 . S
H709 C714 0.930 . S
N710 Eu672 2.609 . S
N710 C712 1.377 . S
N710 C713 1.321 . S
C711 H697 0.930 . S
C711 C713 1.400 . S
C711 C714 1.386 . S
C712 C708 1.429 . S
C712 N710 1.377 . S
C712 C715 1.411 . S
C713 H695 0.930 . S
C713 N710 1.321 . S
C713 C711 1.400 . S
C714 H709 0.930 . S
C714 C711 1.386 . S
C714 C715 1.395 . S
C715 C712 1.411 . S
C715 C714 1.395 . S
C715 C737 1.420 . S
O716 Eu672 2.558 . S
O716 C736 1.257 . S
O717 Eu672 2.612 . S
O717 Eu683 2.380 . S
O717 C728 1.276 . S
O718 Eu683 2.432 . S
O718 C735 1.264 . S
O719 Eu672 2.339 . S
O719 C735 1.254 . S
O720 Eu672 2.563 . S
O720 C728 1.235 . S
O721 Eu672 2.419 . S
O721 C736 1.249 . S
O722 Eu683 2.558 . S
O722 C747 1.257 . S
O723 Eu672 2.380 . S
O723 Eu683 2.612 . S
O723 C739 1.276 . S
O724 Eu672 2.432 . S
O724 C746 1.264 . S
O725 Eu683 2.339 . S
O725 C746 1.254 . S
O726 Eu683 2.563 . S
O726 C739 1.235 . S
O727 Eu683 2.419 . S
O727 C747 1.249 . S
C728 O717 1.276 . S
C728 O720 1.235 . S
C729 C731 1.393 . S
C729 C733 1.395 . S
C729 C736 1.492 . S
C730 C731 1.392 . S
C730 C732 1.386 . S
C731 C729 1.393 . S
C731 C730 1.392 . S
C731 H748 0.930 . S
C732 C730 1.386 . S
C732 C734 1.395 . S
C732 H749 0.930 1_556 S
C733 C729 1.395 . S
C733 C734 1.379 . S
C733 H750 0.930 . S
C734 C732 1.395 . S
C734 C733 1.379 . S
C734 H751 0.930 . S
C735 O718 1.264 . S
C735 O719 1.254 . S
C736 Eu672 2.848 . S
C736 O716 1.257 . S
C736 O721 1.249 . S
C736 C729 1.492 . S
C737 H702 0.931 . S
C737 C715 1.420 . S
C737 C738 1.351 . S
C738 H700 0.930 . S
C738 C706 1.423 . S
C738 C737 1.351 . S
C739 O723 1.276 . S
C739 O726 1.235 . S
C740 C741 1.393 . S
C740 C744 1.395 . S
C740 C747 1.492 . S
C741 C740 1.393 . S
C741 C742 1.392 . S
C741 H752 0.930 . S
C742 C741 1.392 . S
C742 C743 1.386 . S
C743 C742 1.386 . S
C743 C745 1.395 . S
C743 H753 0.930 . S
C744 C740 1.395 . S
C744 C745 1.379 . S
C744 H754 0.930 . S
C745 C743 1.395 . S
C745 C744 1.379 . S
C745 H755 0.930 . S
C746 O724 1.264 . S
C746 O725 1.254 . S
C747 Eu683 2.848 . S
C747 O722 1.257 . S
C747 O727 1.249 . S
C747 C740 1.492 . S
H748 C731 0.930 . S
H749 C732 0.930 1_554 S
H750 C733 0.930 . S
H751 C734 0.930 . S
H752 C741 0.930 . S
H753 C743 0.930 . S
H754 C744 0.930 . S
H755 C745 0.930 . S
Eu756 N787 2.657 . S
Eu756 N794 2.609 . S
Eu756 O800 2.558 . S
Eu756 O801 2.612 . S
Eu756 O803 2.339 . S
Eu756 O804 2.563 . S
Eu756 O805 2.419 . S
Eu756 O807 2.380 . S
Eu756 O808 2.432 . S
Eu756 C820 2.848 . S
C757 C760 1.429 . S
C757 C761 1.411 . S
C757 N764 1.377 . S
C758 C760 1.420 . S
C758 C762 1.423 . S
C758 C770 1.392 . S
C759 C761 1.420 . S
C759 C762 1.351 . S
C759 H782 0.931 . S
C760 C757 1.429 . S
C760 C758 1.420 . S
C760 N768 1.362 . S
C761 C757 1.411 . S
C761 C759 1.420 . S
C761 C766 1.395 . S
C762 C758 1.423 . S
C762 C759 1.351 . S
C762 H774 0.930 . S
C763 C765 1.400 . S
C763 C766 1.386 . S
C763 H775 0.930 . S
N764 C757 1.377 . S
N764 C765 1.321 . S
N764 Eu767 2.609 . S
C765 C763 1.400 . S
C765 N764 1.321 . S
C765 H772 0.930 . S
C766 C761 1.395 . S
C766 C763 1.386 . S
C766 H785 0.930 . S
Eu767 N764 2.609 . S
Eu767 N768 2.657 . S
Eu767 O801 2.380 . S
Eu767 O802 2.432 . S
Eu767 O806 2.558 . S
Eu767 O807 2.612 . S
Eu767 O809 2.339 . S
Eu767 O810 2.563 . S
Eu767 O811 2.419 . S
Eu767 C831 2.848 . S
N768 C760 1.362 . S
N768 Eu767 2.657 . S
N768 C769 1.334 . S
C769 N768 1.334 . S
C769 C771 1.413 . S
C769 H776 0.929 . S
C770 C758 1.392 . S
C770 C771 1.367 . S
C770 H778 0.930 . S
C771 C769 1.413 . S
C771 C770 1.367 . S
C771 H773 0.930 . S
H772 C765 0.930 . S
H773 C771 0.930 . S
H774 C762 0.930 . S
H775 C763 0.930 . S
H776 C769 0.929 . S
H777 C791 0.930 . S
H778 C770 0.930 . S
H779 C797 0.930 . S
H780 C788 0.929 . S
H781 C795 0.930 . S
H782 C759 0.931 . S
H783 C789 0.930 . S
H784 C822 0.930 . S
H785 C766 0.930 . S
H786 C821 0.931 . S
N787 Eu756 2.657 . S
N787 C788 1.334 . S
N787 C792 1.362 . S
C788 H780 0.929 . S
C788 N787 1.334 . S
C788 C791 1.413 . S
C789 H783 0.930 . S
C789 C790 1.392 . S
C789 C791 1.367 . S
C790 C789 1.392 . S
C790 C792 1.420 . S
C790 C822 1.423 . S
C791 H777 0.930 . S
C791 C788 1.413 . S
C791 C789 1.367 . S
C792 N787 1.362 . S
C792 C790 1.420 . S
C792 C796 1.429 . S
H793 C798 0.930 . S
N794 Eu756 2.609 . S
N794 C796 1.377 . S
N794 C797 1.321 . S
C795 H781 0.930 . S
C795 C797 1.400 . S
C795 C798 1.386 . S
C796 C792 1.429 . S
C796 N794 1.377 . S
C796 C799 1.411 . S
C797 H779 0.930 . S
C797 N794 1.321 . S
C797 C795 1.400 . S
C798 H793 0.930 . S
C798 C795 1.386 . S
C798 C799 1.395 . S
C799 C796 1.411 . S
C799 C798 1.395 . S
C799 C821 1.420 . S
O800 Eu756 2.558 . S
O800 C820 1.257 . S
O801 Eu756 2.612 . S
O801 Eu767 2.380 . S
O801 C812 1.276 . S
O802 Eu767 2.432 . S
O802 C819 1.264 . S
O803 Eu756 2.339 . S
O803 C819 1.254 . S
O804 Eu756 2.563 . S
O804 C812 1.235 . S
O805 Eu756 2.419 . S
O805 C820 1.249 . S
O806 Eu767 2.558 . S
O806 C831 1.257 . S
O807 Eu756 2.380 . S
O807 Eu767 2.612 . S
O807 C823 1.276 . S
O808 Eu756 2.432 . S
O808 C830 1.264 . S
O809 Eu767 2.339 . S
O809 C830 1.254 . S
O810 Eu767 2.563 . S
O810 C823 1.235 . S
O811 Eu767 2.419 . S
O811 C831 1.249 . S
C812 O801 1.276 . S
C812 O804 1.235 . S
C813 C815 1.393 . S
C813 C817 1.395 . S
C813 C820 1.492 . S
C814 C815 1.392 . S
C814 C816 1.386 . S
C815 C813 1.393 . S
C815 C814 1.392 . S
C815 H832 0.930 . S
C816 C814 1.386 . S
C816 C818 1.395 . S
C816 H833 0.930 . S
C817 C813 1.395 . S
C817 C818 1.379 . S
C817 H834 0.930 . S
C818 C816 1.395 . S
C818 C817 1.379 . S
C818 H835 0.930 . S
C819 O802 1.264 . S
C819 O803 1.254 . S
C820 Eu756 2.848 . S
C820 O800 1.257 . S
C820 O805 1.249 . S
C820 C813 1.492 . S
C821 H786 0.931 . S
C821 C799 1.420 . S
C821 C822 1.351 . S
C822 H784 0.930 . S
C822 C790 1.423 . S
C822 C821 1.351 . S
C823 O807 1.276 . S
C823 O810 1.235 . S
C824 C825 1.393 . S
C824 C828 1.395 . S
C824 C831 1.492 . S
C825 C824 1.393 . S
C825 C826 1.392 . S
C825 H836 0.930 . S
C826 C825 1.392 . S
C826 C827 1.386 . S
C827 C826 1.386 . S
C827 C829 1.395 . S
C827 H837 0.930 1_554 S
C828 C824 1.395 . S
C828 C829 1.379 . S
C828 H838 0.930 . S
C829 C827 1.395 . S
C829 C828 1.379 . S
C829 H839 0.930 . S
C830 O808 1.264 . S
C830 O809 1.254 . S
C831 Eu767 2.848 . S
C831 O806 1.257 . S
C831 O811 1.249 . S
C831 C824 1.492 . S
H832 C815 0.930 . S
H833 C816 0.930 . S
H834 C817 0.930 . S
H835 C818 0.930 . S
H836 C825 0.930 . S
H837 C827 0.930 1_556 S
H838 C828 0.930 . S
H839 C829 0.930 . S
Eu840 N871 2.657 . S
Eu840 N878 2.609 . S
Eu840 O884 2.558 . S
Eu840 O885 2.612 . S
Eu840 O887 2.339 . S
Eu840 O888 2.563 . S
Eu840 O889 2.419 . S
Eu840 O891 2.380 . S
Eu840 O892 2.432 . S
Eu840 C904 2.848 . S
C841 C844 1.429 . S
C841 C845 1.411 . S
C841 N848 1.377 . S
C842 C844 1.420 . S
C842 C846 1.423 . S
C842 C854 1.392 . S
C843 C845 1.420 . S
C843 C846 1.351 . S
C843 H866 0.931 . S
C844 C841 1.429 . S
C844 C842 1.420 . S
C844 N852 1.362 . S
C845 C841 1.411 . S
C845 C843 1.420 . S
C845 C850 1.395 . S
C846 C842 1.423 . S
C846 C843 1.351 . S
C846 H858 0.930 . S
C847 C849 1.400 . S
C847 C850 1.386 . S
C847 H859 0.930 . S
N848 C841 1.377 . S
N848 C849 1.321 . S
N848 Eu851 2.609 . S
C849 C847 1.400 . S
C849 N848 1.321 . S
C849 H856 0.930 . S
C850 C845 1.395 . S
C850 C847 1.386 . S
C850 H869 0.930 . S
Eu851 N848 2.609 . S
Eu851 N852 2.657 . S
Eu851 O885 2.380 . S
Eu851 O886 2.432 . S
Eu851 O890 2.558 . S
Eu851 O891 2.612 . S
Eu851 O893 2.339 . S
Eu851 O894 2.563 . S
Eu851 O895 2.419 . S
Eu851 C915 2.848 . S
N852 C844 1.362 . S
N852 Eu851 2.657 . S
N852 C853 1.334 . S
C853 N852 1.334 . S
C853 C855 1.413 . S
C853 H860 0.929 . S
C854 C842 1.392 . S
C854 C855 1.367 . S
C854 H862 0.930 . S
C855 C853 1.413 . S
C855 C854 1.367 . S
C855 H857 0.930 . S
H856 C849 0.930 . S
H857 C855 0.930 . S
H858 C846 0.930 . S
H859 C847 0.930 . S
H860 C853 0.929 . S
H861 C875 0.930 . S
H862 C854 0.930 . S
H863 C881 0.930 . S
H864 C872 0.929 . S
H865 C879 0.930 . S
H866 C843 0.931 . S
H867 C873 0.930 . S
H868 C906 0.930 . S
H869 C850 0.930 . S
H870 C905 0.931 . S
N871 Eu840 2.657 . S
N871 C872 1.334 . S
N871 C876 1.362 . S
C872 H864 0.929 . S
C872 N871 1.334 . S
C872 C875 1.413 . S
C873 H867 0.930 . S
C873 C874 1.392 . S
C873 C875 1.367 . S
C874 C873 1.392 . S
C874 C876 1.420 . S
C874 C906 1.423 . S
C875 H861 0.930 . S
C875 C872 1.413 . S
C875 C873 1.367 . S
C876 N871 1.362 . S
C876 C874 1.420 . S
C876 C880 1.429 . S
H877 C882 0.930 . S
N878 Eu840 2.609 . S
N878 C880 1.377 . S
N878 C881 1.321 . S
C879 H865 0.930 . S
C879 C881 1.400 . S
C879 C882 1.386 . S
C880 C876 1.429 . S
C880 N878 1.377 . S
C880 C883 1.411 . S
C881 H863 0.930 . S
C881 N878 1.321 . S
C881 C879 1.400 . S
C882 H877 0.930 . S
C882 C879 1.386 . S
C882 C883 1.395 . S
C883 C880 1.411 . S
C883 C882 1.395 . S
C883 C905 1.420 . S
O884 Eu840 2.558 . S
O884 C904 1.257 . S
O885 Eu840 2.612 . S
O885 Eu851 2.380 . S
O885 C896 1.276 . S
O886 Eu851 2.432 . S
O886 C903 1.264 . S
O887 Eu840 2.339 . S
O887 C903 1.254 . S
O888 Eu840 2.563 . S
O888 C896 1.235 . S
O889 Eu840 2.419 . S
O889 C904 1.249 . S
O890 Eu851 2.558 . S
O890 C915 1.257 . S
O891 Eu840 2.380 . S
O891 Eu851 2.612 . S
O891 C907 1.276 . S
O892 Eu840 2.432 . S
O892 C914 1.264 . S
O893 Eu851 2.339 . S
O893 C914 1.254 . S
O894 Eu851 2.563 . S
O894 C907 1.235 . S
O895 Eu851 2.419 . S
O895 C915 1.249 . S
C896 O885 1.276 . S
C896 O888 1.235 . S
C897 C899 1.393 . S
C897 C901 1.395 . S
C897 C904 1.492 . S
C898 C899 1.392 . S
C898 C900 1.386 . S
C899 C897 1.393 . S
C899 C898 1.392 . S
C899 H916 0.930 . S
C900 C898 1.386 . S
C900 C902 1.395 . S
C900 H917 0.930 1_556 S
C901 C897 1.395 . S
C901 C902 1.379 . S
C901 H918 0.930 . S
C902 C900 1.395 . S
C902 C901 1.379 . S
C902 H919 0.930 . S
C903 O886 1.264 . S
C903 O887 1.254 . S
C904 Eu840 2.848 . S
C904 O884 1.257 . S
C904 O889 1.249 . S
C904 C897 1.492 . S
C905 H870 0.931 . S
C905 C883 1.420 . S
C905 C906 1.351 . S
C906 H868 0.930 . S
C906 C874 1.423 . S
C906 C905 1.351 . S
C907 O891 1.276 . S
C907 O894 1.235 . S
C908 C909 1.393 . S
C908 C912 1.395 . S
C908 C915 1.492 . S
C909 C908 1.393 . S
C909 C910 1.392 . S
C909 H920 0.930 . S
C910 C909 1.392 . S
C910 C911 1.386 . S
C911 C910 1.386 . S
C911 C913 1.395 . S
C911 H921 0.930 . S
C912 C908 1.395 . S
C912 C913 1.379 . S
C912 H922 0.930 . S
C913 C911 1.395 . S
C913 C912 1.379 . S
C913 H923 0.930 . S
C914 O892 1.264 . S
C914 O893 1.254 . S
C915 Eu851 2.848 . S
C915 O890 1.257 . S
C915 O895 1.249 . S
C915 C908 1.492 . S
H916 C899 0.930 . S
H917 C900 0.930 1_554 S
H918 C901 0.930 . S
H919 C902 0.930 . S
H920 C909 0.930 . S
H921 C911 0.930 . S
H922 C912 0.930 . S
H923 C913 0.930 . S
Eu924 N955 2.657 . S
Eu924 N962 2.609 . S
Eu924 O968 2.558 . S
Eu924 O969 2.612 . S
Eu924 O971 2.339 . S
Eu924 O972 2.563 . S
Eu924 O973 2.419 . S
Eu924 O975 2.380 . S
Eu924 O976 2.432 . S
Eu924 C988 2.848 . S
C925 C928 1.429 . S
C925 C929 1.411 . S
C925 N932 1.377 . S
C926 C928 1.420 . S
C926 C930 1.423 . S
C926 C938 1.392 . S
C927 C929 1.420 . S
C927 C930 1.351 . S
C927 H950 0.931 . S
C928 C925 1.429 . S
C928 C926 1.420 . S
C928 N936 1.362 . S
C929 C925 1.411 . S
C929 C927 1.420 . S
C929 C934 1.395 . S
C930 C926 1.423 . S
C930 C927 1.351 . S
C930 H942 0.930 . S
C931 C933 1.400 . S
C931 C934 1.386 . S
C931 H943 0.930 . S
N932 C925 1.377 . S
N932 C933 1.321 . S
N932 Eu935 2.609 . S
C933 C931 1.400 . S
C933 N932 1.321 . S
C933 H940 0.930 . S
C934 C929 1.395 . S
C934 C931 1.386 . S
C934 H953 0.930 . S
Eu935 N932 2.609 . S
Eu935 N936 2.657 . S
Eu935 O969 2.380 . S
Eu935 O970 2.432 . S
Eu935 O974 2.558 . S
Eu935 O975 2.612 . S
Eu935 O977 2.339 . S
Eu935 O978 2.563 . S
Eu935 O979 2.419 . S
Eu935 C999 2.848 . S
N936 C928 1.362 . S
N936 Eu935 2.657 . S
N936 C937 1.334 . S
C937 N936 1.334 . S
C937 C939 1.413 . S
C937 H944 0.929 . S
C938 C926 1.392 . S
C938 C939 1.367 . S
C938 H946 0.930 . S
C939 C937 1.413 . S
C939 C938 1.367 . S
C939 H941 0.930 . S
H940 C933 0.930 . S
H941 C939 0.930 . S
H942 C930 0.930 . S
H943 C931 0.930 . S
H944 C937 0.929 . S
H945 C959 0.930 . S
H946 C938 0.930 . S
H947 C965 0.930 . S
H948 C956 0.929 . S
H949 C963 0.930 . S
H950 C927 0.931 . S
H951 C957 0.930 . S
H952 C990 0.930 . S
H953 C934 0.930 . S
H954 C989 0.931 . S
N955 Eu924 2.657 . S
N955 C956 1.334 . S
N955 C960 1.362 . S
C956 H948 0.929 . S
C956 N955 1.334 . S
C956 C959 1.413 . S
C957 H951 0.930 . S
C957 C958 1.392 . S
C957 C959 1.367 . S
C958 C957 1.392 . S
C958 C960 1.420 . S
C958 C990 1.423 . S
C959 H945 0.930 . S
C959 C956 1.413 . S
C959 C957 1.367 . S
C960 N955 1.362 . S
C960 C958 1.420 . S
C960 C964 1.429 . S
H961 C966 0.930 . S
N962 Eu924 2.609 . S
N962 C964 1.377 . S
N962 C965 1.321 . S
C963 H949 0.930 . S
C963 C965 1.400 . S
C963 C966 1.386 . S
C964 C960 1.429 . S
C964 N962 1.377 . S
C964 C967 1.411 . S
C965 H947 0.930 . S
C965 N962 1.321 . S
C965 C963 1.400 . S
C966 H961 0.930 . S
C966 C963 1.386 . S
C966 C967 1.395 . S
C967 C964 1.411 . S
C967 C966 1.395 . S
C967 C989 1.420 . S
O968 Eu924 2.558 . S
O968 C988 1.257 . S
O969 Eu924 2.612 . S
O969 Eu935 2.380 . S
O969 C980 1.276 . S
O970 Eu935 2.432 . S
O970 C987 1.264 . S
O971 Eu924 2.339 . S
O971 C987 1.254 . S
O972 Eu924 2.563 . S
O972 C980 1.235 . S
O973 Eu924 2.419 . S
O973 C988 1.249 . S
O974 Eu935 2.558 . S
O974 C999 1.257 . S
O975 Eu924 2.380 . S
O975 Eu935 2.612 . S
O975 C991 1.276 . S
O976 Eu924 2.432 . S
O976 C998 1.264 . S
O977 Eu935 2.339 . S
O977 C998 1.254 . S
O978 Eu935 2.563 . S
O978 C991 1.235 . S
O979 Eu935 2.419 . S
O979 C999 1.249 . S
C980 O969 1.276 . S
C980 O972 1.235 . S
C981 C983 1.393 . S
C981 C985 1.395 . S
C981 C988 1.492 . S
C982 C983 1.392 . S
C982 C984 1.386 . S
C983 C981 1.393 . S
C983 C982 1.392 . S
C983 H1000 0.930 . S
C984 C982 1.386 . S
C984 C986 1.395 . S
C984 H1001 0.930 . S
C985 C981 1.395 . S
C985 C986 1.379 . S
C985 H1002 0.930 . S
C986 C984 1.395 . S
C986 C985 1.379 . S
C986 H1003 0.930 . S
C987 O970 1.264 . S
C987 O971 1.254 . S
C988 Eu924 2.848 . S
C988 O968 1.257 . S
C988 O973 1.249 . S
C988 C981 1.492 . S
C989 H954 0.931 . S
C989 C967 1.420 . S
C989 C990 1.351 . S
C990 H952 0.930 . S
C990 C958 1.423 . S
C990 C989 1.351 . S
C991 O975 1.276 . S
C991 O978 1.235 . S
C992 C993 1.393 . S
C992 C996 1.395 . S
C992 C999 1.492 . S
C993 C992 1.393 . S
C993 C994 1.392 . S
C993 H1004 0.930 . S
C994 C993 1.392 . S
C994 C995 1.386 . S
C995 C994 1.386 . S
C995 C997 1.395 . S
C995 H1005 0.930 1_554 S
C996 C992 1.395 . S
C996 C997 1.379 . S
C996 H1006 0.930 . S
C997 C995 1.395 . S
C997 C996 1.379 . S
C997 H1007 0.930 . S
C998 O976 1.264 . S
C998 O977 1.254 . S
C999 Eu935 2.848 . S
C999 O974 1.257 . S
C999 O979 1.249 . S
C999 C992 1.492 . S
H1000 C983 0.930 . S
H1001 C984 0.930 . S
H1002 C985 0.930 . S
H1003 C986 0.930 . S
H1004 C993 0.930 . S
H1005 C995 0.930 1_556 S
H1006 C996 0.930 . S
H1007 C997 0.930 . S
Eu1008 N1039 2.657 . S
Eu1008 N1046 2.609 . S
Eu1008 O1052 2.558 . S
Eu1008 O1053 2.612 . S
Eu1008 O1055 2.339 . S
Eu1008 O1056 2.563 . S
Eu1008 O1057 2.419 . S
Eu1008 O1059 2.380 . S
Eu1008 O1060 2.432 . S
Eu1008 C1072 2.848 . S
C1009 C1012 1.429 . S
C1009 C1013 1.411 . S
C1009 N1016 1.377 . S
C1010 C1012 1.420 . S
C1010 C1014 1.423 . S
C1010 C1022 1.392 . S
C1011 C1013 1.420 . S
C1011 C1014 1.351 . S
C1011 H1034 0.931 . S
C1012 C1009 1.429 . S
C1012 C1010 1.420 . S
C1012 N1020 1.362 . S
C1013 C1009 1.411 . S
C1013 C1011 1.420 . S
C1013 C1018 1.395 . S
C1014 C1010 1.423 . S
C1014 C1011 1.351 . S
C1014 H1026 0.930 . S
C1015 C1017 1.400 . S
C1015 C1018 1.386 . S
C1015 H1027 0.930 . S
N1016 C1009 1.377 . S
N1016 C1017 1.321 . S
N1016 Eu1019 2.609 . S
C1017 C1015 1.400 . S
C1017 N1016 1.321 . S
C1017 H1024 0.930 . S
C1018 C1013 1.395 . S
C1018 C1015 1.386 . S
C1018 H1037 0.930 . S
Eu1019 N1016 2.609 . S
Eu1019 N1020 2.657 . S
Eu1019 O1053 2.380 . S
Eu1019 O1054 2.432 . S
Eu1019 O1058 2.558 . S
Eu1019 O1059 2.612 . S
Eu1019 O1061 2.339 . S
Eu1019 O1062 2.563 . S
Eu1019 O1063 2.419 . S
Eu1019 C1083 2.848 . S
N1020 C1012 1.362 . S
N1020 Eu1019 2.657 . S
N1020 C1021 1.334 . S
C1021 N1020 1.334 . S
C1021 C1023 1.413 . S
C1021 H1028 0.929 . S
C1022 C1010 1.392 . S
C1022 C1023 1.367 . S
C1022 H1030 0.930 . S
C1023 C1021 1.413 . S
C1023 C1022 1.367 . S
C1023 H1025 0.930 . S
H1024 C1017 0.930 . S
H1025 C1023 0.930 . S
H1026 C1014 0.930 . S
H1027 C1015 0.930 . S
H1028 C1021 0.929 . S
H1029 C1043 0.930 . S
H1030 C1022 0.930 . S
H1031 C1049 0.930 . S
H1032 C1040 0.929 . S
H1033 C1047 0.930 . S
H1034 C1011 0.931 . S
H1035 C1041 0.930 . S
H1036 C1074 0.930 . S
H1037 C1018 0.930 . S
H1038 C1073 0.931 . S
N1039 Eu1008 2.657 . S
N1039 C1040 1.334 . S
N1039 C1044 1.362 . S
C1040 H1032 0.929 . S
C1040 N1039 1.334 . S
C1040 C1043 1.413 . S
C1041 H1035 0.930 . S
C1041 C1042 1.392 . S
C1041 C1043 1.367 . S
C1042 C1041 1.392 . S
C1042 C1044 1.420 . S
C1042 C1074 1.423 . S
C1043 H1029 0.930 . S
C1043 C1040 1.413 . S
C1043 C1041 1.367 . S
C1044 N1039 1.362 . S
C1044 C1042 1.420 . S
C1044 C1048 1.429 . S
H1045 C1050 0.930 . S
N1046 Eu1008 2.609 . S
N1046 C1048 1.377 . S
N1046 C1049 1.321 . S
C1047 H1033 0.930 . S
C1047 C1049 1.400 . S
C1047 C1050 1.386 . S
C1048 C1044 1.429 . S
C1048 N1046 1.377 . S
C1048 C1051 1.411 . S
C1049 H1031 0.930 . S
C1049 N1046 1.321 . S
C1049 C1047 1.400 . S
C1050 H1045 0.930 . S
C1050 C1047 1.386 . S
C1050 C1051 1.395 . S
C1051 C1048 1.411 . S
C1051 C1050 1.395 . S
C1051 C1073 1.420 . S
O1052 Eu1008 2.558 . S
O1052 C1072 1.257 . S
O1053 Eu1008 2.612 . S
O1053 Eu1019 2.380 . S
O1053 C1064 1.276 . S
O1054 Eu1019 2.432 . S
O1054 C1071 1.264 . S
O1055 Eu1008 2.339 . S
O1055 C1071 1.254 . S
O1056 Eu1008 2.563 . S
O1056 C1064 1.235 . S
O1057 Eu1008 2.419 . S
O1057 C1072 1.249 . S
O1058 Eu1019 2.558 . S
O1058 C1083 1.257 . S
O1059 Eu1008 2.380 . S
O1059 Eu1019 2.612 . S
O1059 C1075 1.276 . S
O1060 Eu1008 2.432 . S
O1060 C1082 1.264 . S
O1061 Eu1019 2.339 . S
O1061 C1082 1.254 . S
O1062 Eu1019 2.563 . S
O1062 C1075 1.235 . S
O1063 Eu1019 2.419 . S
O1063 C1083 1.249 . S
C1064 O1053 1.276 . S
C1064 O1056 1.235 . S
C1065 C1067 1.393 . S
C1065 C1069 1.395 . S
C1065 C1072 1.492 . S
C1066 C1067 1.392 . S
C1066 C1068 1.386 . S
C1067 C1065 1.393 . S
C1067 C1066 1.392 . S
C1067 H1084 0.930 . S
C1068 C1066 1.386 . S
C1068 C1070 1.395 . S
C1068 H1085 0.930 . S
C1069 C1065 1.395 . S
C1069 C1070 1.379 . S
C1069 H1086 0.930 . S
C1070 C1068 1.395 . S
C1070 C1069 1.379 . S
C1070 H1087 0.930 . S
C1071 O1054 1.264 . S
C1071 O1055 1.254 . S
C1072 Eu1008 2.848 . S
C1072 O1052 1.257 . S
C1072 O1057 1.249 . S
C1072 C1065 1.492 . S
C1073 H1038 0.931 . S
C1073 C1051 1.420 . S
C1073 C1074 1.351 . S
C1074 H1036 0.930 . S
C1074 C1042 1.423 . S
C1074 C1073 1.351 . S
C1075 O1059 1.276 . S
C1075 O1062 1.235 . S
C1076 C1077 1.393 . S
C1076 C1080 1.395 . S
C1076 C1083 1.492 . S
C1077 C1076 1.393 . S
C1077 C1078 1.392 . S
C1077 H1088 0.930 . S
C1078 C1077 1.392 . S
C1078 C1079 1.386 . S
C1079 C1078 1.386 . S
C1079 C1081 1.395 . S
C1079 H1089 0.930 1_556 S
C1080 C1076 1.395 . S
C1080 C1081 1.379 . S
C1080 H1090 0.930 . S
C1081 C1079 1.395 . S
C1081 C1080 1.379 . S
C1081 H1091 0.930 . S
C1082 O1060 1.264 . S
C1082 O1061 1.254 . S
C1083 Eu1019 2.848 . S
C1083 O1058 1.257 . S
C1083 O1063 1.249 . S
C1083 C1076 1.492 . S
H1084 C1067 0.930 . S
H1085 C1068 0.930 . S
H1086 C1069 0.930 . S
H1087 C1070 0.930 . S
H1088 C1077 0.930 . S
H1089 C1079 0.930 1_554 S
H1090 C1080 0.930 . S
H1091 C1081 0.930 . S
Eu1092 N1123 2.657 . S
Eu1092 N1130 2.609 . S
Eu1092 O1136 2.558 . S
Eu1092 O1137 2.612 . S
Eu1092 O1139 2.339 . S
Eu1092 O1140 2.563 . S
Eu1092 O1141 2.419 . S
Eu1092 O1143 2.380 . S
Eu1092 O1144 2.432 . S
Eu1092 C1156 2.848 . S
C1093 C1096 1.429 . S
C1093 C1097 1.411 . S
C1093 N1100 1.377 . S
C1094 C1096 1.420 . S
C1094 C1098 1.423 . S
C1094 C1106 1.392 . S
C1095 C1097 1.420 . S
C1095 C1098 1.351 . S
C1095 H1118 0.931 . S
C1096 C1093 1.429 . S
C1096 C1094 1.420 . S
C1096 N1104 1.362 . S
C1097 C1093 1.411 . S
C1097 C1095 1.420 . S
C1097 C1102 1.395 . S
C1098 C1094 1.423 . S
C1098 C1095 1.351 . S
C1098 H1110 0.930 . S
C1099 C1101 1.400 . S
C1099 C1102 1.386 . S
C1099 H1111 0.930 . S
N1100 C1093 1.377 . S
N1100 C1101 1.321 . S
N1100 Eu1103 2.609 . S
C1101 C1099 1.400 . S
C1101 N1100 1.321 . S
C1101 H1108 0.930 . S
C1102 C1097 1.395 . S
C1102 C1099 1.386 . S
C1102 H1121 0.930 . S
Eu1103 N1100 2.609 . S
Eu1103 N1104 2.657 . S
Eu1103 O1137 2.380 . S
Eu1103 O1138 2.432 . S
Eu1103 O1142 2.558 . S
Eu1103 O1143 2.612 . S
Eu1103 O1145 2.339 . S
Eu1103 O1146 2.563 . S
Eu1103 O1147 2.419 . S
Eu1103 C1167 2.848 . S
N1104 C1096 1.362 . S
N1104 Eu1103 2.657 . S
N1104 C1105 1.334 . S
C1105 N1104 1.334 . S
C1105 C1107 1.413 . S
C1105 H1112 0.929 . S
C1106 C1094 1.392 . S
C1106 C1107 1.367 . S
C1106 H1114 0.930 . S
C1107 C1105 1.413 . S
C1107 C1106 1.367 . S
C1107 H1109 0.930 . S
H1108 C1101 0.930 . S
H1109 C1107 0.930 . S
H1110 C1098 0.930 . S
H1111 C1099 0.930 . S
H1112 C1105 0.929 . S
H1113 C1127 0.930 . S
H1114 C1106 0.930 . S
H1115 C1133 0.930 . S
H1116 C1124 0.929 . S
H1117 C1131 0.930 . S
H1118 C1095 0.931 . S
H1119 C1125 0.930 . S
H1120 C1158 0.930 . S
H1121 C1102 0.930 . S
H1122 C1157 0.931 . S
N1123 Eu1092 2.657 . S
N1123 C1124 1.334 . S
N1123 C1128 1.362 . S
C1124 H1116 0.929 . S
C1124 N1123 1.334 . S
C1124 C1127 1.413 . S
C1125 H1119 0.930 . S
C1125 C1126 1.392 . S
C1125 C1127 1.367 . S
C1126 C1125 1.392 . S
C1126 C1128 1.420 . S
C1126 C1158 1.423 . S
C1127 H1113 0.930 . S
C1127 C1124 1.413 . S
C1127 C1125 1.367 . S
C1128 N1123 1.362 . S
C1128 C1126 1.420 . S
C1128 C1132 1.429 . S
H1129 C1134 0.930 . S
N1130 Eu1092 2.609 . S
N1130 C1132 1.377 . S
N1130 C1133 1.321 . S
C1131 H1117 0.930 . S
C1131 C1133 1.400 . S
C1131 C1134 1.386 . S
C1132 C1128 1.429 . S
C1132 N1130 1.377 . S
C1132 C1135 1.411 . S
C1133 H1115 0.930 . S
C1133 N1130 1.321 . S
C1133 C1131 1.400 . S
C1134 H1129 0.930 . S
C1134 C1131 1.386 . S
C1134 C1135 1.395 . S
C1135 C1132 1.411 . S
C1135 C1134 1.395 . S
C1135 C1157 1.420 . S
O1136 Eu1092 2.558 . S
O1136 C1156 1.257 . S
O1137 Eu1092 2.612 . S
O1137 Eu1103 2.380 . S
O1137 C1148 1.276 . S
O1138 Eu1103 2.432 . S
O1138 C1155 1.264 . S
O1139 Eu1092 2.339 . S
O1139 C1155 1.254 . S
O1140 Eu1092 2.563 . S
O1140 C1148 1.235 . S
O1141 Eu1092 2.419 . S
O1141 C1156 1.249 . S
O1142 Eu1103 2.558 . S
O1142 C1167 1.257 . S
O1143 Eu1092 2.380 . S
O1143 Eu1103 2.612 . S
O1143 C1159 1.276 . S
O1144 Eu1092 2.432 . S
O1144 C1166 1.264 . S
O1145 Eu1103 2.339 . S
O1145 C1166 1.254 . S
O1146 Eu1103 2.563 . S
O1146 C1159 1.235 . S
O1147 Eu1103 2.419 . S
O1147 C1167 1.249 . S
C1148 O1137 1.276 . S
C1148 O1140 1.235 . S
C1149 C1151 1.393 . S
C1149 C1153 1.395 . S
C1149 C1156 1.492 . S
C1150 C1151 1.392 . S
C1150 C1152 1.386 . S
C1151 C1149 1.393 . S
C1151 C1150 1.392 . S
C1151 H1168 0.930 . S
C1152 C1150 1.386 . S
C1152 C1154 1.395 . S
C1152 H1169 0.930 1_554 S
C1153 C1149 1.395 . S
C1153 C1154 1.379 . S
C1153 H1170 0.930 . S
C1154 C1152 1.395 . S
C1154 C1153 1.379 . S
C1154 H1171 0.930 . S
C1155 O1138 1.264 . S
C1155 O1139 1.254 . S
C1156 Eu1092 2.848 . S
C1156 O1136 1.257 . S
C1156 O1141 1.249 . S
C1156 C1149 1.492 . S
C1157 H1122 0.931 . S
C1157 C1135 1.420 . S
C1157 C1158 1.351 . S
C1158 H1120 0.930 . S
C1158 C1126 1.423 . S
C1158 C1157 1.351 . S
C1159 O1143 1.276 . S
C1159 O1146 1.235 . S
C1160 C1161 1.393 . S
C1160 C1164 1.395 . S
C1160 C1167 1.492 . S
C1161 C1160 1.393 . S
C1161 C1162 1.392 . S
C1161 H1172 0.930 . S
C1162 C1161 1.392 . S
C1162 C1163 1.386 . S
C1163 C1162 1.386 . S
C1163 C1165 1.395 . S
C1163 H1173 0.930 . S
C1164 C1160 1.395 . S
C1164 C1165 1.379 . S
C1164 H1174 0.930 . S
C1165 C1163 1.395 . S
C1165 C1164 1.379 . S
C1165 H1175 0.930 . S
C1166 O1144 1.264 . S
C1166 O1145 1.254 . S
C1167 Eu1103 2.848 . S
C1167 O1142 1.257 . S
C1167 O1147 1.249 . S
C1167 C1160 1.492 . S
H1168 C1151 0.930 . S
H1169 C1152 0.930 1_556 S
H1170 C1153 0.930 . S
H1171 C1154 0.930 . S
H1172 C1161 0.930 . S
H1173 C1163 0.930 . S
H1174 C1164 0.930 . S
H1175 C1165 0.930 . S
Eu1176 N1207 2.657 . S
Eu1176 N1214 2.609 . S
Eu1176 O1220 2.558 . S
Eu1176 O1221 2.612 . S
Eu1176 O1223 2.339 . S
Eu1176 O1224 2.563 . S
Eu1176 O1225 2.419 . S
Eu1176 O1227 2.380 . S
Eu1176 O1228 2.432 . S
Eu1176 C1240 2.848 . S
C1177 C1180 1.429 . S
C1177 C1181 1.411 . S
C1177 N1184 1.377 . S
C1178 C1180 1.420 . S
C1178 C1182 1.423 . S
C1178 C1190 1.392 . S
C1179 C1181 1.420 . S
C1179 C1182 1.351 . S
C1179 H1202 0.931 . S
C1180 C1177 1.429 . S
C1180 C1178 1.420 . S
C1180 N1188 1.362 . S
C1181 C1177 1.411 . S
C1181 C1179 1.420 . S
C1181 C1186 1.395 . S
C1182 C1178 1.423 . S
C1182 C1179 1.351 . S
C1182 H1194 0.930 . S
C1183 C1185 1.400 . S
C1183 C1186 1.386 . S
C1183 H1195 0.930 . S
N1184 C1177 1.377 . S
N1184 C1185 1.321 . S
N1184 Eu1187 2.609 . S
C1185 C1183 1.400 . S
C1185 N1184 1.321 . S
C1185 H1192 0.930 . S
C1186 C1181 1.395 . S
C1186 C1183 1.386 . S
C1186 H1205 0.930 . S
Eu1187 N1184 2.609 . S
Eu1187 N1188 2.657 . S
Eu1187 O1221 2.380 . S
Eu1187 O1222 2.432 . S
Eu1187 O1226 2.558 . S
Eu1187 O1227 2.612 . S
Eu1187 O1229 2.339 . S
Eu1187 O1230 2.563 . S
Eu1187 O1231 2.419 . S
Eu1187 C1251 2.848 . S
N1188 C1180 1.362 . S
N1188 Eu1187 2.657 . S
N1188 C1189 1.334 . S
C1189 N1188 1.334 . S
C1189 C1191 1.413 . S
C1189 H1196 0.929 . S
C1190 C1178 1.392 . S
C1190 C1191 1.367 . S
C1190 H1198 0.930 . S
C1191 C1189 1.413 . S
C1191 C1190 1.367 . S
C1191 H1193 0.930 . S
H1192 C1185 0.930 . S
H1193 C1191 0.930 . S
H1194 C1182 0.930 . S
H1195 C1183 0.930 . S
H1196 C1189 0.929 . S
H1197 C1211 0.930 . S
H1198 C1190 0.930 . S
H1199 C1217 0.930 . S
H1200 C1208 0.929 . S
H1201 C1215 0.930 . S
H1202 C1179 0.931 . S
H1203 C1209 0.930 . S
H1204 C1242 0.930 . S
H1205 C1186 0.930 . S
H1206 C1241 0.931 . S
N1207 Eu1176 2.657 . S
N1207 C1208 1.334 . S
N1207 C1212 1.362 . S
C1208 H1200 0.929 . S
C1208 N1207 1.334 . S
C1208 C1211 1.413 . S
C1209 H1203 0.930 . S
C1209 C1210 1.392 . S
C1209 C1211 1.367 . S
C1210 C1209 1.392 . S
C1210 C1212 1.420 . S
C1210 C1242 1.423 . S
C1211 H1197 0.930 . S
C1211 C1208 1.413 . S
C1211 C1209 1.367 . S
C1212 N1207 1.362 . S
C1212 C1210 1.420 . S
C1212 C1216 1.429 . S
H1213 C1218 0.930 . S
N1214 Eu1176 2.609 . S
N1214 C1216 1.377 . S
N1214 C1217 1.321 . S
C1215 H1201 0.930 . S
C1215 C1217 1.400 . S
C1215 C1218 1.386 . S
C1216 C1212 1.429 . S
C1216 N1214 1.377 . S
C1216 C1219 1.411 . S
C1217 H1199 0.930 . S
C1217 N1214 1.321 . S
C1217 C1215 1.400 . S
C1218 H1213 0.930 . S
C1218 C1215 1.386 . S
C1218 C1219 1.395 . S
C1219 C1216 1.411 . S
C1219 C1218 1.395 . S
C1219 C1241 1.420 . S
O1220 Eu1176 2.558 . S
O1220 C1240 1.257 . S
O1221 Eu1176 2.612 . S
O1221 Eu1187 2.380 . S
O1221 C1232 1.276 . S
O1222 Eu1187 2.432 . S
O1222 C1239 1.264 . S
O1223 Eu1176 2.339 . S
O1223 C1239 1.254 . S
O1224 Eu1176 2.563 . S
O1224 C1232 1.235 . S
O1225 Eu1176 2.419 . S
O1225 C1240 1.249 . S
O1226 Eu1187 2.558 . S
O1226 C1251 1.257 . S
O1227 Eu1176 2.380 . S
O1227 Eu1187 2.612 . S
O1227 C1243 1.276 . S
O1228 Eu1176 2.432 . S
O1228 C1250 1.264 . S
O1229 Eu1187 2.339 . S
O1229 C1250 1.254 . S
O1230 Eu1187 2.563 . S
O1230 C1243 1.235 . S
O1231 Eu1187 2.419 . S
O1231 C1251 1.249 . S
C1232 O1221 1.276 . S
C1232 O1224 1.235 . S
C1233 C1235 1.393 . S
C1233 C1237 1.395 . S
C1233 C1240 1.492 . S
C1234 C1235 1.392 . S
C1234 C1236 1.386 . S
C1235 C1233 1.393 . S
C1235 C1234 1.392 . S
C1235 H1252 0.930 . S
C1236 C1234 1.386 . S
C1236 C1238 1.395 . S
C1236 H1253 0.930 . S
C1237 C1233 1.395 . S
C1237 C1238 1.379 . S
C1237 H1254 0.930 . S
C1238 C1236 1.395 . S
C1238 C1237 1.379 . S
C1238 H1255 0.930 . S
C1239 O1222 1.264 . S
C1239 O1223 1.254 . S
C1240 Eu1176 2.848 . S
C1240 O1220 1.257 . S
C1240 O1225 1.249 . S
C1240 C1233 1.492 . S
C1241 H1206 0.931 . S
C1241 C1219 1.420 . S
C1241 C1242 1.351 . S
C1242 H1204 0.930 . S
C1242 C1210 1.423 . S
C1242 C1241 1.351 . S
C1243 O1227 1.276 . S
C1243 O1230 1.235 . S
C1244 C1245 1.393 . S
C1244 C1248 1.395 . S
C1244 C1251 1.492 . S
C1245 C1244 1.393 . S
C1245 C1246 1.392 . S
C1245 H1256 0.930 . S
C1246 C1245 1.392 . S
C1246 C1247 1.386 . S
C1247 C1246 1.386 . S
C1247 C1249 1.395 . S
C1247 H1257 0.930 1_556 S
C1248 C1244 1.395 . S
C1248 C1249 1.379 . S
C1248 H1258 0.930 . S
C1249 C1247 1.395 . S
C1249 C1248 1.379 . S
C1249 H1259 0.930 . S
C1250 O1228 1.264 . S
C1250 O1229 1.254 . S
C1251 Eu1187 2.848 . S
C1251 O1226 1.257 . S
C1251 O1231 1.249 . S
C1251 C1244 1.492 . S
H1252 C1235 0.930 . S
H1253 C1236 0.930 . S
H1254 C1237 0.930 . S
H1255 C1238 0.930 . S
H1256 C1245 0.930 . S
H1257 C1247 0.930 1_554 S
H1258 C1248 0.930 . S
H1259 C1249 0.930 . S
Eu1260 N1291 2.657 . S
Eu1260 N1298 2.609 . S
Eu1260 O1304 2.558 . S
Eu1260 O1305 2.612 . S
Eu1260 O1307 2.339 . S
Eu1260 O1308 2.563 . S
Eu1260 O1309 2.419 . S
Eu1260 O1311 2.380 . S
Eu1260 O1312 2.432 . S
Eu1260 C1324 2.848 . S
C1261 C1264 1.429 . S
C1261 C1265 1.411 . S
C1261 N1268 1.377 . S
C1262 C1264 1.420 . S
C1262 C1266 1.423 . S
C1262 C1274 1.392 . S
C1263 C1265 1.420 . S
C1263 C1266 1.351 . S
C1263 H1286 0.931 . S
C1264 C1261 1.429 . S
C1264 C1262 1.420 . S
C1264 N1272 1.362 . S
C1265 C1261 1.411 . S
C1265 C1263 1.420 . S
C1265 C1270 1.395 . S
C1266 C1262 1.423 . S
C1266 C1263 1.351 . S
C1266 H1278 0.930 . S
C1267 C1269 1.400 . S
C1267 C1270 1.386 . S
C1267 H1279 0.930 . S
N1268 C1261 1.377 . S
N1268 C1269 1.321 . S
N1268 Eu1271 2.609 . S
C1269 C1267 1.400 . S
C1269 N1268 1.321 . S
C1269 H1276 0.930 . S
C1270 C1265 1.395 . S
C1270 C1267 1.386 . S
C1270 H1289 0.930 . S
Eu1271 N1268 2.609 . S
Eu1271 N1272 2.657 . S
Eu1271 O1305 2.380 . S
Eu1271 O1306 2.432 . S
Eu1271 O1310 2.558 . S
Eu1271 O1311 2.612 . S
Eu1271 O1313 2.339 . S
Eu1271 O1314 2.563 . S
Eu1271 O1315 2.419 . S
Eu1271 C1335 2.848 . S
N1272 C1264 1.362 . S
N1272 Eu1271 2.657 . S
N1272 C1273 1.334 . S
C1273 N1272 1.334 . S
C1273 C1275 1.413 . S
C1273 H1280 0.929 . S
C1274 C1262 1.392 . S
C1274 C1275 1.367 . S
C1274 H1282 0.930 . S
C1275 C1273 1.413 . S
C1275 C1274 1.367 . S
C1275 H1277 0.930 . S
H1276 C1269 0.930 . S
H1277 C1275 0.930 . S
H1278 C1266 0.930 . S
H1279 C1267 0.930 . S
H1280 C1273 0.929 . S
H1281 C1295 0.930 . S
H1282 C1274 0.930 . S
H1283 C1301 0.930 . S
H1284 C1292 0.929 . S
H1285 C1299 0.930 . S
H1286 C1263 0.931 . S
H1287 C1293 0.930 . S
H1288 C1326 0.930 . S
H1289 C1270 0.930 . S
H1290 C1325 0.931 . S
N1291 Eu1260 2.657 . S
N1291 C1292 1.334 . S
N1291 C1296 1.362 . S
C1292 H1284 0.929 . S
C1292 N1291 1.334 . S
C1292 C1295 1.413 . S
C1293 H1287 0.930 . S
C1293 C1294 1.392 . S
C1293 C1295 1.367 . S
C1294 C1293 1.392 . S
C1294 C1296 1.420 . S
C1294 C1326 1.423 . S
C1295 H1281 0.930 . S
C1295 C1292 1.413 . S
C1295 C1293 1.367 . S
C1296 N1291 1.362 . S
C1296 C1294 1.420 . S
C1296 C1300 1.429 . S
H1297 C1302 0.930 . S
N1298 Eu1260 2.609 . S
N1298 C1300 1.377 . S
N1298 C1301 1.321 . S
C1299 H1285 0.930 . S
C1299 C1301 1.400 . S
C1299 C1302 1.386 . S
C1300 C1296 1.429 . S
C1300 N1298 1.377 . S
C1300 C1303 1.411 . S
C1301 H1283 0.930 . S
C1301 N1298 1.321 . S
C1301 C1299 1.400 . S
C1302 H1297 0.930 . S
C1302 C1299 1.386 . S
C1302 C1303 1.395 . S
C1303 C1300 1.411 . S
C1303 C1302 1.395 . S
C1303 C1325 1.420 . S
O1304 Eu1260 2.558 . S
O1304 C1324 1.257 . S
O1305 Eu1260 2.612 . S
O1305 Eu1271 2.380 . S
O1305 C1316 1.276 . S
O1306 Eu1271 2.432 . S
O1306 C1323 1.264 . S
O1307 Eu1260 2.339 . S
O1307 C1323 1.254 . S
O1308 Eu1260 2.563 . S
O1308 C1316 1.235 . S
O1309 Eu1260 2.419 . S
O1309 C1324 1.249 . S
O1310 Eu1271 2.558 . S
O1310 C1335 1.257 . S
O1311 Eu1260 2.380 . S
O1311 Eu1271 2.612 . S
O1311 C1327 1.276 . S
O1312 Eu1260 2.432 . S
O1312 C1334 1.264 . S
O1313 Eu1271 2.339 . S
O1313 C1334 1.254 . S
O1314 Eu1271 2.563 . S
O1314 C1327 1.235 . S
O1315 Eu1271 2.419 . S
O1315 C1335 1.249 . S
C1316 O1305 1.276 . S
C1316 O1308 1.235 . S
C1317 C1319 1.393 . S
C1317 C1321 1.395 . S
C1317 C1324 1.492 . S
C1318 C1319 1.392 . S
C1318 C1320 1.386 . S
C1319 C1317 1.393 . S
C1319 C1318 1.392 . S
C1319 H1336 0.930 . S
C1320 C1318 1.386 . S
C1320 C1322 1.395 . S
C1320 H1337 0.930 1_554 S
C1321 C1317 1.395 . S
C1321 C1322 1.379 . S
C1321 H1338 0.930 . S
C1322 C1320 1.395 . S
C1322 C1321 1.379 . S
C1322 H1339 0.930 . S
C1323 O1306 1.264 . S
C1323 O1307 1.254 . S
C1324 Eu1260 2.848 . S
C1324 O1304 1.257 . S
C1324 O1309 1.249 . S
C1324 C1317 1.492 . S
C1325 H1290 0.931 . S
C1325 C1303 1.420 . S
C1325 C1326 1.351 . S
C1326 H1288 0.930 . S
C1326 C1294 1.423 . S
C1326 C1325 1.351 . S
C1327 O1311 1.276 . S
C1327 O1314 1.235 . S
C1328 C1329 1.393 . S
C1328 C1332 1.395 . S
C1328 C1335 1.492 . S
C1329 C1328 1.393 . S
C1329 C1330 1.392 . S
C1329 H1340 0.930 . S
C1330 C1329 1.392 . S
C1330 C1331 1.386 . S
C1331 C1330 1.386 . S
C1331 C1333 1.395 . S
C1331 H1341 0.930 . S
C1332 C1328 1.395 . S
C1332 C1333 1.379 . S
C1332 H1342 0.930 . S
C1333 C1331 1.395 . S
C1333 C1332 1.379 . S
C1333 H1343 0.930 . S
C1334 O1312 1.264 . S
C1334 O1313 1.254 . S
C1335 Eu1271 2.848 . S
C1335 O1310 1.257 . S
C1335 O1315 1.249 . S
C1335 C1328 1.492 . S
H1336 C1319 0.930 . S
H1337 C1320 0.930 1_556 S
H1338 C1321 0.930 . S
H1339 C1322 0.930 . S
H1340 C1329 0.930 . S
H1341 C1331 0.930 . S
H1342 C1332 0.930 . S
H1343 C1333 0.930 . S
H1344 C1350 0.930 . S
H1345 C1354 0.930 . S
H1346 C1359 0.929 . S
H1347 C1357 0.929 . S
H1348 C1352 0.929 . S
H1349 C1358 0.929 . S
C1350 H1344 0.930 . S
C1350 C1351 1.367 . S
C1350 C1358 1.378 . S
C1351 C1350 1.367 . S
C1351 C1359 1.433 . S
C1352 H1348 0.929 . S
C1352 C1354 1.378 . S
C1352 C1356 1.350 1_545 S
C1353 C1356 1.463 . S
C1353 C1358 1.350 . S
C1353 N1361 1.427 . S
C1354 H1345 0.930 . S
C1354 C1352 1.378 . S
C1354 C1355 1.367 . S
C1355 C1354 1.367 . S
C1355 C1357 1.433 . S
C1356 C1352 1.350 1_565 S
C1356 C1353 1.463 . S
C1356 N1360 1.427 . S
C1357 H1347 0.929 . S
C1357 C1355 1.433 . S
C1357 N1360 1.384 1_545 S
C1358 H1349 0.929 . S
C1358 C1350 1.378 . S
C1358 C1353 1.350 . S
C1359 H1346 0.929 . S
C1359 C1351 1.433 . S
C1359 N1361 1.384 . S
N1360 C1356 1.427 . S
N1360 C1357 1.384 1_565 S
N1361 C1353 1.427 . S
N1361 C1359 1.384 . S
H1362 C1368 0.930 . S
H1363 C1372 0.930 . S
H1364 C1377 0.929 . S
H1365 C1375 0.929 . S
H1366 C1370 0.929 . S
H1367 C1376 0.929 . S
C1368 H1362 0.930 . S
C1368 C1369 1.367 . S
C1368 C1376 1.378 . S
C1369 C1368 1.367 . S
C1369 C1377 1.433 . S
C1370 H1366 0.929 . S
C1370 C1372 1.378 1_655 S
C1370 C1374 1.350 . S
C1371 C1374 1.463 . S
C1371 C1376 1.350 . S
C1371 N1379 1.427 . S
C1372 H1363 0.930 . S
C1372 C1370 1.378 1_455 S
C1372 C1373 1.367 . S
C1373 C1372 1.367 . S
C1373 C1375 1.433 . S
C1374 C1370 1.350 . S
C1374 C1371 1.463 . S
C1374 N1378 1.427 1_655 S
C1375 H1365 0.929 . S
C1375 C1373 1.433 . S
C1375 N1378 1.384 . S
C1376 H1367 0.929 . S
C1376 C1368 1.378 . S
C1376 C1371 1.350 . S
C1377 H1364 0.929 . S
C1377 C1369 1.433 . S
C1377 N1379 1.384 . S
N1378 C1374 1.427 1_455 S
N1378 C1375 1.384 . S
N1379 C1371 1.427 . S
N1379 C1377 1.384 . S
H1380 C1386 0.930 . S
H1381 C1390 0.930 . S
H1382 C1395 0.929 . S
H1383 C1393 0.929 . S
H1384 C1388 0.929 . S
H1385 C1394 0.929 . S
C1386 H1380 0.930 . S
C1386 C1387 1.367 . S
C1386 C1394 1.378 . S
C1387 C1386 1.367 . S
C1387 C1395 1.433 . S
C1388 H1384 0.929 . S
C1388 C1390 1.378 . S
C1388 C1392 1.350 . S
C1389 C1392 1.463 . S
C1389 C1394 1.350 1_545 S
C1389 N1397 1.427 . S
C1390 H1381 0.930 . S
C1390 C1388 1.378 . S
C1390 C1391 1.367 . S
C1391 C1390 1.367 . S
C1391 C1393 1.433 . S
C1392 C1388 1.350 . S
C1392 C1389 1.463 . S
C1392 N1396 1.427 . S
C1393 H1383 0.929 . S
C1393 C1391 1.433 . S
C1393 N1396 1.384 . S
C1394 H1385 0.929 . S
C1394 C1386 1.378 . S
C1394 C1389 1.350 1_565 S
C1395 H1382 0.929 . S
C1395 C1387 1.433 . S
C1395 N1397 1.384 1_565 S
N1396 C1392 1.427 . S
N1396 C1393 1.384 . S
N1397 C1389 1.427 . S
N1397 C1395 1.384 1_545 S
H1398 C1404 0.930 . S
H1399 C1408 0.930 . S
H1400 C1413 0.929 . S
H1401 C1411 0.929 . S
H1402 C1406 0.929 . S
H1403 C1412 0.929 . S
C1404 H1398 0.930 . S
C1404 C1405 1.367 . S
C1404 C1412 1.378 . S
C1405 C1404 1.367 . S
C1405 C1413 1.433 . S
C1406 H1402 0.929 . S
C1406 C1408 1.378 . S
C1406 C1410 1.350 . S
C1407 C1410 1.463 . S
C1407 C1412 1.350 1_455 S
C1407 N1415 1.427 . S
C1408 H1399 0.930 . S
C1408 C1406 1.378 . S
C1408 C1409 1.367 . S
C1409 C1408 1.367 . S
C1409 C1411 1.433 . S
C1410 C1406 1.350 . S
C1410 C1407 1.463 . S
C1410 N1414 1.427 . S
C1411 H1401 0.929 . S
C1411 C1409 1.433 . S
C1411 N1414 1.384 . S
C1412 H1403 0.929 . S
C1412 C1404 1.378 . S
C1412 C1407 1.350 1_655 S
C1413 H1400 0.929 . S
C1413 C1405 1.433 . S
C1413 N1415 1.384 1_655 S
N1414 C1410 1.427 . S
N1414 C1411 1.384 . S
N1415 C1407 1.427 . S
N1415 C1413 1.384 1_455 S
H1416 C1422 0.930 . S
H1417 C1426 0.930 . S
H1418 C1431 0.929 1_556 S
H1419 C1429 0.929 . S
H1420 C1424 0.929 . S
H1421 C1430 0.929 . S
C1422 H1416 0.930 . S
C1422 C1423 1.367 . S
C1422 C1430 1.378 . S
C1423 C1422 1.367 . S
C1423 C1431 1.433 . S
C1424 H1420 0.929 . S
C1424 C1426 1.378 . S
C1424 C1428 1.352 1_556 S
C1425 C1428 1.462 . S
C1425 C1430 1.350 . S
C1425 N1433 1.427 1_554 S
C1426 H1417 0.930 . S
C1426 C1424 1.378 . S
C1426 C1427 1.367 . S
C1427 C1426 1.367 . S
C1427 C1429 1.433 1_556 S
C1428 C1424 1.352 1_554 S
C1428 C1425 1.462 . S
C1428 N1432 1.426 . S
C1429 H1419 0.929 . S
C1429 C1427 1.433 1_554 S
C1429 N1432 1.384 . S
C1430 H1421 0.929 . S
C1430 C1422 1.378 . S
C1430 C1425 1.350 . S
C1431 H1418 0.929 1_554 S
C1431 C1423 1.433 . S
C1431 N1433 1.384 1_554 S
N1432 C1428 1.426 . S
N1432 C1429 1.384 . S
N1433 C1425 1.427 1_556 S
N1433 C1431 1.384 1_556 S
H1434 C1440 0.930 . S
H1435 C1444 0.930 . S
H1436 C1449 0.928 . S
H1437 C1447 0.929 . S
H1438 C1442 0.929 . S
H1439 C1448 0.929 . S
C1440 H1434 0.930 . S
C1440 C1441 1.367 . S
C1440 C1448 1.378 . S
C1441 C1440 1.367 . S
C1441 C1449 1.435 1_554 S
C1442 H1438 0.929 . S
C1442 C1444 1.378 . S
C1442 C1446 1.350 . S
C1443 C1446 1.467 . S
C1443 C1448 1.342 1_556 S
C1443 N1451 1.431 . S
C1444 H1435 0.930 . S
C1444 C1442 1.378 . S
C1444 C1445 1.367 . S
C1445 C1444 1.367 . S
C1445 C1447 1.433 . S
C1446 C1442 1.350 . S
C1446 C1443 1.467 . S
C1446 N1450 1.427 . S
C1447 H1437 0.929 . S
C1447 C1445 1.433 . S
C1447 N1450 1.384 . S
C1448 H1439 0.929 . S
C1448 C1440 1.378 . S
C1448 C1443 1.342 1_554 S
C1449 H1436 0.928 . S
C1449 C1441 1.435 1_556 S
C1449 N1451 1.383 . S
N1450 C1446 1.427 . S
N1450 C1447 1.384 . S
N1451 C1443 1.431 . S
N1451 C1449 1.383 . S
H1452 C1458 0.930 1_556 S
H1453 C1462 0.930 . S
H1454 C1467 0.929 . S
H1455 C1465 0.929 . S
H1456 C1460 0.929 . S
H1457 C1466 0.929 . S
C1458 H1452 0.930 1_554 S
C1458 C1459 1.367 . S
C1458 C1466 1.378 1_554 S
C1459 C1458 1.367 . S
C1459 C1467 1.433 . S
C1460 H1456 0.929 . S
C1460 C1462 1.378 . S
C1460 C1464 1.350 . S
C1461 C1464 1.463 . S
C1461 C1466 1.350 1_554 S
C1461 N1469 1.427 . S
C1462 H1453 0.930 . S
C1462 C1460 1.378 . S
C1462 C1463 1.367 1_554 S
C1463 C1462 1.367 1_556 S
C1463 C1465 1.433 . S
C1464 C1460 1.350 . S
C1464 C1461 1.463 . S
C1464 N1468 1.427 1_554 S
C1465 H1455 0.929 . S
C1465 C1463 1.433 . S
C1465 N1468 1.384 . S
C1466 H1457 0.929 . S
C1466 C1458 1.378 1_556 S
C1466 C1461 1.350 1_556 S
C1467 H1454 0.929 . S
C1467 C1459 1.433 . S
C1467 N1469 1.384 . S
N1468 C1464 1.427 1_556 S
N1468 C1465 1.384 . S
N1469 C1461 1.427 . S
N1469 C1467 1.384 . S
H1470 C1476 0.930 . S
H1471 C1480 0.930 . S
H1472 C1485 0.929 . S
H1473 C1483 0.929 . S
H1474 C1478 0.924 1_554 S
H1475 C1484 0.929 . S
C1476 H1470 0.930 . S
C1476 C1477 1.367 1_556 S
C1476 C1484 1.378 . S
C1477 C1476 1.367 1_554 S
C1477 C1485 1.433 . S
C1478 H1474 0.924 1_556 S
C1478 C1480 1.380 . S
C1478 C1482 1.352 . S
C1479 C1482 1.463 . S
C1479 C1484 1.350 . S
C1479 N1487 1.427 1_556 S
C1480 H1471 0.930 . S
C1480 C1478 1.380 . S
C1480 C1481 1.367 . S
C1481 C1480 1.367 . S
C1481 C1483 1.433 . S
C1482 C1478 1.352 . S
C1482 C1479 1.463 . S
C1482 N1486 1.427 . S
C1483 H1473 0.929 . S
C1483 C1481 1.433 . S
C1483 N1486 1.384 . S
C1484 H1475 0.929 . S
C1484 C1476 1.378 . S
C1484 C1479 1.350 . S
C1485 H1472 0.929 . S
C1485 C1477 1.433 . S
C1485 N1487 1.384 . S
N1486 C1482 1.427 . S
N1486 C1483 1.384 . S
N1487 C1479 1.427 1_554 S
N1487 C1485 1.384 . S
H1488 C1494 0.930 . S
H1489 C1498 0.930 . S
H1490 C1503 0.929 . S
H1491 C1501 0.929 . S
H1492 C1496 0.929 . S
H1493 C1502 0.929 . S
C1494 H1488 0.930 . S
C1494 C1495 1.367 . S
C1494 C1502 1.378 . S
C1495 C1494 1.367 . S
C1495 C1503 1.433 . S
C1496 H1492 0.929 . S
C1496 C1498 1.378 . S
C1496 C1500 1.350 . S
C1497 C1500 1.463 . S
C1497 C1502 1.350 . S
C1497 N1505 1.427 . S
C1498 H1489 0.930 . S
C1498 C1496 1.378 . S
C1498 C1499 1.367 . S
C1499 C1498 1.367 . S
C1499 C1501 1.433 . S
C1500 C1496 1.350 . S
C1500 C1497 1.463 . S
C1500 N1504 1.427 . S
C1501 H1491 0.929 . S
C1501 C1499 1.433 . S
C1501 N1504 1.384 . S
C1502 H1493 0.929 . S
C1502 C1494 1.378 . S
C1502 C1497 1.350 . S
C1503 H1490 0.929 . S
C1503 C1495 1.433 . S
C1503 N1505 1.384 . S
N1504 C1500 1.427 . S
N1504 C1501 1.384 . S
N1505 C1497 1.427 . S
N1505 C1503 1.384 . S
H1506 C1512 0.930 . S
H1507 C1516 0.930 . S
H1508 C1521 0.929 . S
H1509 C1519 0.929 . S
H1510 C1514 0.929 . S
H1511 C1520 0.929 . S
C1512 H1506 0.930 . S
C1512 C1513 1.367 . S
C1512 C1520 1.378 . S
C1513 C1512 1.367 . S
C1513 C1521 1.433 . S
C1514 H1510 0.929 . S
C1514 C1516 1.378 . S
C1514 C1518 1.350 . S
C1515 C1518 1.463 . S
C1515 C1520 1.350 . S
C1515 N1523 1.427 . S
C1516 H1507 0.930 . S
C1516 C1514 1.378 . S
C1516 C1517 1.367 . S
C1517 C1516 1.367 . S
C1517 C1519 1.433 . S
C1518 C1514 1.350 . S
C1518 C1515 1.463 . S
C1518 N1522 1.427 . S
C1519 H1509 0.929 . S
C1519 C1517 1.433 . S
C1519 N1522 1.384 . S
C1520 H1511 0.929 . S
C1520 C1512 1.378 . S
C1520 C1515 1.350 . S
C1521 H1508 0.929 . S
C1521 C1513 1.433 . S
C1521 N1523 1.384 . S
N1522 C1518 1.427 . S
N1522 C1519 1.384 . S
N1523 C1515 1.427 . S
N1523 C1521 1.384 . S
H1524 C1530 0.930 . S
H1525 C1534 0.930 . S
H1526 C1539 0.929 . S
H1527 C1537 0.929 . S
H1528 C1532 0.929 . S
H1529 C1538 0.929 . S
C1530 H1524 0.930 . S
C1530 C1531 1.367 . S
C1530 C1538 1.378 . S
C1531 C1530 1.367 . S
C1531 C1539 1.433 . S
C1532 H1528 0.929 . S
C1532 C1534 1.378 . S
C1532 C1536 1.350 . S
C1533 C1536 1.463 . S
C1533 C1538 1.350 . S
C1533 N1541 1.427 . S
C1534 H1525 0.930 . S
C1534 C1532 1.378 . S
C1534 C1535 1.367 . S
C1535 C1534 1.367 . S
C1535 C1537 1.433 . S
C1536 C1532 1.350 . S
C1536 C1533 1.463 . S
C1536 N1540 1.427 . S
C1537 H1527 0.929 . S
C1537 C1535 1.433 . S
C1537 N1540 1.384 . S
C1538 H1529 0.929 . S
C1538 C1530 1.378 . S
C1538 C1533 1.350 . S
C1539 H1526 0.929 . S
C1539 C1531 1.433 . S
C1539 N1541 1.384 . S
N1540 C1536 1.427 . S
N1540 C1537 1.384 . S
N1541 C1533 1.427 . S
N1541 C1539 1.384 . S
H1542 C1548 0.930 . S
H1543 C1552 0.930 . S
H1544 C1557 0.929 . S
H1545 C1555 0.929 . S
H1546 C1550 0.929 . S
H1547 C1556 0.929 . S
C1548 H1542 0.930 . S
C1548 C1549 1.367 . S
C1548 C1556 1.378 . S
C1549 C1548 1.367 . S
C1549 C1557 1.433 . S
C1550 H1546 0.929 . S
C1550 C1552 1.378 . S
C1550 C1554 1.350 . S
C1551 C1554 1.463 . S
C1551 C1556 1.350 . S
C1551 N1559 1.427 . S
C1552 H1543 0.930 . S
C1552 C1550 1.378 . S
C1552 C1553 1.367 . S
C1553 C1552 1.367 . S
C1553 C1555 1.433 . S
C1554 C1550 1.350 . S
C1554 C1551 1.463 . S
C1554 N1558 1.427 . S
C1555 H1545 0.929 . S
C1555 C1553 1.433 . S
C1555 N1558 1.384 . S
C1556 H1547 0.929 . S
C1556 C1548 1.378 . S
C1556 C1551 1.350 . S
C1557 H1544 0.929 . S
C1557 C1549 1.433 . S
C1557 N1559 1.384 . S
N1558 C1554 1.427 . S
N1558 C1555 1.384 . S
N1559 C1551 1.427 . S
N1559 C1557 1.384 . S
H1560 C1566 0.930 . S
H1561 C1570 0.930 . S
H1562 C1575 0.929 . S
H1563 C1573 0.929 . S
H1564 C1568 0.929 . S
H1565 C1574 0.929 . S
C1566 H1560 0.930 . S
C1566 C1567 1.367 . S
C1566 C1574 1.378 1_565 S
C1567 C1566 1.367 . S
C1567 C1575 1.433 . S
C1568 H1564 0.929 . S
C1568 C1570 1.378 . S
C1568 C1572 1.350 . S
C1569 C1572 1.463 . S
C1569 C1574 1.350 . S
C1569 N1577 1.427 1_545 S
C1570 H1561 0.930 . S
C1570 C1568 1.378 . S
C1570 C1571 1.367 . S
C1571 C1570 1.367 . S
C1571 C1573 1.433 . S
C1572 C1568 1.350 . S
C1572 C1569 1.463 . S
C1572 N1576 1.427 . S
C1573 H1563 0.929 . S
C1573 C1571 1.433 . S
C1573 N1576 1.384 . S
C1574 H1565 0.929 . S
C1574 C1566 1.378 1_545 S
C1574 C1569 1.350 . S
C1575 H1562 0.929 . S
C1575 C1567 1.433 . S
C1575 N1577 1.384 . S
N1576 C1572 1.427 . S
N1576 C1573 1.384 . S
N1577 C1569 1.427 1_565 S
N1577 C1575 1.384 . S
H1578 C1584 0.930 . S
H1579 C1588 0.930 . S
H1580 C1593 0.929 . S
H1581 C1591 0.929 . S
H1582 C1586 0.916 1_455 S
H1583 C1592 0.929 . S
C1584 H1578 0.930 . S
C1584 C1585 1.367 . S
C1584 C1592 1.378 . S
C1585 C1584 1.367 . S
C1585 C1593 1.433 . S
C1586 H1582 0.916 1_655 S
C1586 C1588 1.378 . S
C1586 C1590 1.350 1_655 S
C1587 C1590 1.463 . S
C1587 C1592 1.350 . S
C1587 N1595 1.427 . S
C1588 H1579 0.930 . S
C1588 C1586 1.378 . S
C1588 C1589 1.367 . S
C1589 C1588 1.367 . S
C1589 C1591 1.433 . S
C1590 C1586 1.350 1_455 S
C1590 C1587 1.463 . S
C1590 N1594 1.427 . S
C1591 H1581 0.929 . S
C1591 C1589 1.433 . S
C1591 N1594 1.384 1_655 S
C1592 H1583 0.929 . S
C1592 C1584 1.378 . S
C1592 C1587 1.350 . S
C1593 H1580 0.929 . S
C1593 C1585 1.433 . S
C1593 N1595 1.384 . S
N1594 C1590 1.427 . S
N1594 C1591 1.384 1_455 S
N1595 C1587 1.427 . S
N1595 C1593 1.384 . S
H1596 C1602 0.930 . S
H1597 C1606 0.930 . S
H1598 C1611 0.929 . S
H1599 C1609 0.929 . S
H1600 C1604 0.929 . S
H1601 C1610 0.929 . S
C1602 H1596 0.930 . S
C1602 C1603 1.367 . S
C1602 C1610 1.378 . S
C1603 C1602 1.367 . S
C1603 C1611 1.433 . S
C1604 H1600 0.929 . S
C1604 C1606 1.378 . S
C1604 C1608 1.350 1_545 S
C1605 C1608 1.463 . S
C1605 C1610 1.350 . S
C1605 N1613 1.427 . S
C1606 H1597 0.930 . S
C1606 C1604 1.378 . S
C1606 C1607 1.367 . S
C1607 C1606 1.367 . S
C1607 C1609 1.433 . S
C1608 C1604 1.350 1_565 S
C1608 C1605 1.463 . S
C1608 N1612 1.427 . S
C1609 H1599 0.929 . S
C1609 C1607 1.433 . S
C1609 N1612 1.384 1_545 S
C1610 H1601 0.929 . S
C1610 C1602 1.378 . S
C1610 C1605 1.350 . S
C1611 H1598 0.929 . S
C1611 C1603 1.433 . S
C1611 N1613 1.384 . S
N1612 C1608 1.427 . S
N1612 C1609 1.384 1_565 S
N1613 C1605 1.427 . S
N1613 C1611 1.384 . S
H1614 C1620 0.930 . S
H1615 C1624 0.930 . S
H1616 C1629 0.929 . S
H1617 C1627 0.929 . S
H1618 C1622 0.929 . S
H1619 C1628 0.929 . S
C1620 H1614 0.930 . S
C1620 C1621 1.367 . S
C1620 C1628 1.378 1_455 S
C1621 C1620 1.367 . S
C1621 C1629 1.433 . S
C1622 H1618 0.929 . S
C1622 C1624 1.378 . S
C1622 C1626 1.350 . S
C1623 C1626 1.463 . S
C1623 C1628 1.350 . S
C1623 N1631 1.427 1_655 S
C1624 H1615 0.930 . S
C1624 C1622 1.378 . S
C1624 C1625 1.367 . S
C1625 C1624 1.367 . S
C1625 C1627 1.433 . S
C1626 C1622 1.350 . S
C1626 C1623 1.463 . S
C1626 N1630 1.427 . S
C1627 H1617 0.929 . S
C1627 C1625 1.433 . S
C1627 N1630 1.384 . S
C1628 H1619 0.929 . S
C1628 C1620 1.378 1_655 S
C1628 C1623 1.350 . S
C1629 H1616 0.929 . S
C1629 C1621 1.433 . S
C1629 N1631 1.384 . S
N1630 C1626 1.427 . S
N1630 C1627 1.384 . S
N1631 C1623 1.427 1_455 S
N1631 C1629 1.384 . S
H1632 C1638 0.930 . S
H1633 C1642 0.930 . S
H1634 C1647 0.929 . S
H1635 C1645 0.929 . S
H1636 C1640 0.929 . S
H1637 C1646 0.929 . S
C1638 H1632 0.930 . S
C1638 C1639 1.367 . S
C1638 C1646 1.378 . S
C1639 C1638 1.367 . S
C1639 C1647 1.433 . S
C1640 H1636 0.929 . S
C1640 C1642 1.378 . S
C1640 C1644 1.350 . S
C1641 C1644 1.463 . S
C1641 C1646 1.350 . S
C1641 N1649 1.427 . S
C1642 H1633 0.930 . S
C1642 C1640 1.378 . S
C1642 C1643 1.367 . S
C1643 C1642 1.367 . S
C1643 C1645 1.433 . S
C1644 C1640 1.350 . S
C1644 C1641 1.463 . S
C1644 N1648 1.427 . S
C1645 H1635 0.929 . S
C1645 C1643 1.433 . S
C1645 N1648 1.384 . S
C1646 H1637 0.929 . S
C1646 C1638 1.378 . S
C1646 C1641 1.350 . S
C1647 H1634 0.929 . S
C1647 C1639 1.433 . S
C1647 N1649 1.384 . S
N1648 C1644 1.427 . S
N1648 C1645 1.384 . S
N1649 C1641 1.427 . S
N1649 C1647 1.384 . S
H1650 C1656 0.930 . S
H1651 C1660 0.930 . S
H1652 C1665 0.929 . S
H1653 C1663 0.929 . S
H1654 C1658 0.929 . S
H1655 C1664 0.929 . S
C1656 H1650 0.930 . S
C1656 C1657 1.367 . S
C1656 C1664 1.378 . S
C1657 C1656 1.367 . S
C1657 C1665 1.433 . S
C1658 H1654 0.929 . S
C1658 C1660 1.378 . S
C1658 C1662 1.350 . S
C1659 C1662 1.463 . S
C1659 C1664 1.350 . S
C1659 N1667 1.427 . S
C1660 H1651 0.930 . S
C1660 C1658 1.378 . S
C1660 C1661 1.367 . S
C1661 C1660 1.367 . S
C1661 C1663 1.433 . S
C1662 C1658 1.350 . S
C1662 C1659 1.463 . S
C1662 N1666 1.427 . S
C1663 H1653 0.929 . S
C1663 C1661 1.433 . S
C1663 N1666 1.384 . S
C1664 H1655 0.929 . S
C1664 C1656 1.378 . S
C1664 C1659 1.350 . S
C1665 H1652 0.929 . S
C1665 C1657 1.433 . S
C1665 N1667 1.384 . S
N1666 C1662 1.427 . S
N1666 C1663 1.384 . S
N1667 C1659 1.427 . S
N1667 C1665 1.384 . S
H1668 C1674 0.930 . S
H1669 C1678 0.930 . S
H1670 C1683 0.929 . S
H1671 C1681 0.929 . S
H1672 C1676 0.929 . S
H1673 C1682 0.929 . S
C1674 H1668 0.930 . S
C1674 C1675 1.367 . S
C1674 C1682 1.378 . S
C1675 C1674 1.367 . S
C1675 C1683 1.433 . S
C1676 H1672 0.929 . S
C1676 C1678 1.378 . S
C1676 C1680 1.350 . S
C1677 C1680 1.463 . S
C1677 C1682 1.350 . S
C1677 N1685 1.427 . S
C1678 H1669 0.930 . S
C1678 C1676 1.378 . S
C1678 C1679 1.367 . S
C1679 C1678 1.367 . S
C1679 C1681 1.433 . S
C1680 C1676 1.350 . S
C1680 C1677 1.463 . S
C1680 N1684 1.427 . S
C1681 H1671 0.929 . S
C1681 C1679 1.433 . S
C1681 N1684 1.384 . S
C1682 H1673 0.929 . S
C1682 C1674 1.378 . S
C1682 C1677 1.350 . S
C1683 H1670 0.929 . S
C1683 C1675 1.433 . S
C1683 N1685 1.384 . S
N1684 C1680 1.427 . S
N1684 C1681 1.384 . S
N1685 C1677 1.427 . S
N1685 C1683 1.384 . S
H1686 C1692 0.930 . S
H1687 C1696 0.930 . S
H1688 C1701 0.929 . S
H1689 C1699 0.929 . S
H1690 C1694 0.929 . S
H1691 C1700 0.929 . S
C1692 H1686 0.930 . S
C1692 C1693 1.367 . S
C1692 C1700 1.378 . S
C1693 C1692 1.367 . S
C1693 C1701 1.433 . S
C1694 H1690 0.929 . S
C1694 C1696 1.378 . S
C1694 C1698 1.350 . S
C1695 C1698 1.463 . S
C1695 C1700 1.350 . S
C1695 N1703 1.427 . S
C1696 H1687 0.930 . S
C1696 C1694 1.378 . S
C1696 C1697 1.367 . S
C1697 C1696 1.367 . S
C1697 C1699 1.433 . S
C1698 C1694 1.350 . S
C1698 C1695 1.463 . S
C1698 N1702 1.427 . S
C1699 H1689 0.929 . S
C1699 C1697 1.433 . S
C1699 N1702 1.384 . S
C1700 H1691 0.929 . S
C1700 C1692 1.378 . S
C1700 C1695 1.350 . S
C1701 H1688 0.929 . S
C1701 C1693 1.433 . S
C1701 N1703 1.384 . S
N1702 C1698 1.427 . S
N1702 C1699 1.384 . S
N1703 C1695 1.427 . S
N1703 C1701 1.384 . S
H1704 C1710 0.930 . S
H1705 C1714 0.930 . S
H1706 C1719 0.929 . S
H1707 C1717 0.929 . S
H1708 C1712 0.929 . S
H1709 C1718 0.929 . S
C1710 H1704 0.930 . S
C1710 C1711 1.367 . S
C1710 C1718 1.378 . S
C1711 C1710 1.367 . S
C1711 C1719 1.433 . S
C1712 H1708 0.929 . S
C1712 C1714 1.378 . S
C1712 C1716 1.350 . S
C1713 C1716 1.463 . S
C1713 C1718 1.350 . S
C1713 N1721 1.427 . S
C1714 H1705 0.930 . S
C1714 C1712 1.378 . S
C1714 C1715 1.367 . S
C1715 C1714 1.367 . S
C1715 C1717 1.433 . S
C1716 C1712 1.350 . S
C1716 C1713 1.463 . S
C1716 N1720 1.427 . S
C1717 H1707 0.929 . S
C1717 C1715 1.433 . S
C1717 N1720 1.384 . S
C1718 H1709 0.929 . S
C1718 C1710 1.378 . S
C1718 C1713 1.350 . S
C1719 H1706 0.929 . S
C1719 C1711 1.433 . S
C1719 N1721 1.384 . S
N1720 C1716 1.427 . S
N1720 C1717 1.384 . S
N1721 C1713 1.427 . S
N1721 C1719 1.384 . S
H1722 C1728 0.930 . S
H1723 C1732 0.930 . S
H1724 C1737 0.929 . S
H1725 C1735 0.929 . S
H1726 C1730 0.929 . S
H1727 C1736 0.929 . S
C1728 H1722 0.930 . S
C1728 C1729 1.367 . S
C1728 C1736 1.378 . S
C1729 C1728 1.367 . S
C1729 C1737 1.433 . S
C1730 H1726 0.929 . S
C1730 C1732 1.378 . S
C1730 C1734 1.350 . S
C1731 C1734 1.463 . S
C1731 C1736 1.350 . S
C1731 N1739 1.427 . S
C1732 H1723 0.930 . S
C1732 C1730 1.378 . S
C1732 C1733 1.367 . S
C1733 C1732 1.367 . S
C1733 C1735 1.433 . S
C1734 C1730 1.350 . S
C1734 C1731 1.463 . S
C1734 N1738 1.427 . S
C1735 H1725 0.929 . S
C1735 C1733 1.433 . S
C1735 N1738 1.384 . S
C1736 H1727 0.929 . S
C1736 C1728 1.378 . S
C1736 C1731 1.350 . S
C1737 H1724 0.929 . S
C1737 C1729 1.433 . S
C1737 N1739 1.384 . S
N1738 C1734 1.427 . S
N1738 C1735 1.384 . S
N1739 C1731 1.427 . S
N1739 C1737 1.384 . S
H1740 C1746 0.930 . S
H1741 C1750 0.930 . S
H1742 C1755 0.929 . S
H1743 C1753 0.929 . S
H1744 C1748 0.929 . S
H1745 C1754 0.929 . S
C1746 H1740 0.930 . S
C1746 C1747 1.367 . S
C1746 C1754 1.378 . S
C1747 C1746 1.367 . S
C1747 C1755 1.433 . S
C1748 H1744 0.929 . S
C1748 C1750 1.378 . S
C1748 C1752 1.350 . S
C1749 C1752 1.463 . S
C1749 C1754 1.350 . S
C1749 N1757 1.427 . S
C1750 H1741 0.930 . S
C1750 C1748 1.378 . S
C1750 C1751 1.367 . S
C1751 C1750 1.367 . S
C1751 C1753 1.433 . S
C1752 C1748 1.350 . S
C1752 C1749 1.463 . S
C1752 N1756 1.427 . S
C1753 H1743 0.929 . S
C1753 C1751 1.433 . S
C1753 N1756 1.384 . S
C1754 H1745 0.929 . S
C1754 C1746 1.378 . S
C1754 C1749 1.350 . S
C1755 H1742 0.929 . S
C1755 C1747 1.433 . S
C1755 N1757 1.384 . S
N1756 C1752 1.427 . S
N1756 C1753 1.384 . S
N1757 C1749 1.427 . S
N1757 C1755 1.384 . S
H1758 C1764 0.930 . S
H1759 C1768 0.930 . S
H1760 C1773 0.929 . S
H1761 C1771 0.929 . S
H1762 C1766 0.929 . S
H1763 C1772 0.929 . S
C1764 H1758 0.930 . S
C1764 C1765 1.367 . S
C1764 C1772 1.378 . S
C1765 C1764 1.367 . S
C1765 C1773 1.433 . S
C1766 H1762 0.929 . S
C1766 C1768 1.378 . S
C1766 C1770 1.350 . S
C1767 C1770 1.463 . S
C1767 C1772 1.350 . S
C1767 N1775 1.427 . S
C1768 H1759 0.930 . S
C1768 C1766 1.378 . S
C1768 C1769 1.367 . S
C1769 C1768 1.367 . S
C1769 C1771 1.433 . S
C1770 C1766 1.350 . S
C1770 C1767 1.463 . S
C1770 N1774 1.427 . S
C1771 H1761 0.929 . S
C1771 C1769 1.433 . S
C1771 N1774 1.384 . S
C1772 H1763 0.929 . S
C1772 C1764 1.378 . S
C1772 C1767 1.350 . S
C1773 H1760 0.929 . S
C1773 C1765 1.433 . S
C1773 N1775 1.384 . S
N1774 C1770 1.427 . S
N1774 C1771 1.384 . S
N1775 C1767 1.427 . S
N1775 C1773 1.384 . S
H1776 C1782 0.930 . S
H1777 C1786 0.930 . S
H1778 C1791 0.929 . S
H1779 C1789 0.929 . S
H1780 C1784 0.929 . S
H1781 C1790 0.929 . S
C1782 H1776 0.930 . S
C1782 C1783 1.367 . S
C1782 C1790 1.378 . S
C1783 C1782 1.367 . S
C1783 C1791 1.433 . S
C1784 H1780 0.929 . S
C1784 C1786 1.378 . S
C1784 C1788 1.350 . S
C1785 C1788 1.463 . S
C1785 C1790 1.350 . S
C1785 N1793 1.427 . S
C1786 H1777 0.930 . S
C1786 C1784 1.378 . S
C1786 C1787 1.367 . S
C1787 C1786 1.367 . S
C1787 C1789 1.433 . S
C1788 C1784 1.350 . S
C1788 C1785 1.463 . S
C1788 N1792 1.427 . S
C1789 H1779 0.929 . S
C1789 C1787 1.433 . S
C1789 N1792 1.384 . S
C1790 H1781 0.929 . S
C1790 C1782 1.378 . S
C1790 C1785 1.350 . S
C1791 H1778 0.929 . S
C1791 C1783 1.433 . S
C1791 N1793 1.384 . S
N1792 C1788 1.427 . S
N1792 C1789 1.384 . S
N1793 C1785 1.427 . S
N1793 C1791 1.384 . S
H1794 C1800 0.930 . S
H1795 C1804 0.930 . S
H1796 C1809 0.929 1_556 S
H1797 C1807 0.929 . S
H1798 C1802 0.929 . S
H1799 C1808 0.929 . S
C1800 H1794 0.930 . S
C1800 C1801 1.367 . S
C1800 C1808 1.378 . S
C1801 C1800 1.367 . S
C1801 C1809 1.433 . S
C1802 H1798 0.929 . S
C1802 C1804 1.378 . S
C1802 C1806 1.350 . S
C1803 C1806 1.463 . S
C1803 C1808 1.350 . S
C1803 N1811 1.427 . S
C1804 H1795 0.930 . S
C1804 C1802 1.378 . S
C1804 C1805 1.367 . S
C1805 C1804 1.367 . S
C1805 C1807 1.433 . S
C1806 C1802 1.350 . S
C1806 C1803 1.463 . S
C1806 N1810 1.427 . S
C1807 H1797 0.929 . S
C1807 C1805 1.433 . S
C1807 N1810 1.384 . S
C1808 H1799 0.929 . S
C1808 C1800 1.378 . S
C1808 C1803 1.350 . S
C1809 H1796 0.929 1_554 S
C1809 C1801 1.433 . S
C1809 N1811 1.384 . S
N1810 C1806 1.427 . S
N1810 C1807 1.384 . S
N1811 C1803 1.427 . S
N1811 C1809 1.384 . S
H1812 C1818 0.930 . S
H1813 C1822 0.930 . S
H1814 C1827 0.929 1_554 S
H1815 C1825 0.929 . S
H1816 C1820 0.929 . S
H1817 C1826 0.929 . S
C1818 H1812 0.930 . S
C1818 C1819 1.367 . S
C1818 C1826 1.378 . S
C1819 C1818 1.367 . S
C1819 C1827 1.433 . S
C1820 H1816 0.929 . S
C1820 C1822 1.378 . S
C1820 C1824 1.350 . S
C1821 C1824 1.463 . S
C1821 C1826 1.350 . S
C1821 N1829 1.427 . S
C1822 H1813 0.930 . S
C1822 C1820 1.378 . S
C1822 C1823 1.367 . S
C1823 C1822 1.367 . S
C1823 C1825 1.433 . S
C1824 C1820 1.350 . S
C1824 C1821 1.463 . S
C1824 N1828 1.427 . S
C1825 H1815 0.929 . S
C1825 C1823 1.433 . S
C1825 N1828 1.384 . S
C1826 H1817 0.929 . S
C1826 C1818 1.378 . S
C1826 C1821 1.350 . S
C1827 H1814 0.929 1_556 S
C1827 C1819 1.433 . S
C1827 N1829 1.384 . S
N1828 C1824 1.427 . S
N1828 C1825 1.384 . S
N1829 C1821 1.427 . S
N1829 C1827 1.384 . S
H1830 C1836 0.930 1_556 S
H1831 C1840 0.930 . S
H1832 C1845 0.929 . S
H1833 C1843 0.929 . S
H1834 C1838 0.929 . S
H1835 C1844 0.929 . S
C1836 H1830 0.930 1_554 S
C1836 C1837 1.367 . S
C1836 C1844 1.378 . S
C1837 C1836 1.367 . S
C1837 C1845 1.433 . S
C1838 H1834 0.929 . S
C1838 C1840 1.378 . S
C1838 C1842 1.350 . S
C1839 C1842 1.463 . S
C1839 C1844 1.350 . S
C1839 N1847 1.427 . S
C1840 H1831 0.930 . S
C1840 C1838 1.378 . S
C1840 C1841 1.367 . S
C1841 C1840 1.367 . S
C1841 C1843 1.433 . S
C1842 C1838 1.350 . S
C1842 C1839 1.463 . S
C1842 N1846 1.427 . S
C1843 H1833 0.929 . S
C1843 C1841 1.433 . S
C1843 N1846 1.384 . S
C1844 H1835 0.929 . S
C1844 C1836 1.378 . S
C1844 C1839 1.350 . S
C1845 H1832 0.929 . S
C1845 C1837 1.433 . S
C1845 N1847 1.384 . S
N1846 C1842 1.427 . S
N1846 C1843 1.384 . S
N1847 C1839 1.427 . S
N1847 C1845 1.384 . S
H1848 C1854 0.930 . S
H1849 C1858 0.930 . S
H1850 C1863 0.929 . S
H1851 C1861 0.929 . S
H1852 C1856 0.929 . S
H1853 C1862 0.929 . S
C1854 H1848 0.930 . S
C1854 C1855 1.367 . S
C1854 C1862 1.378 . S
C1855 C1854 1.367 . S
C1855 C1863 1.433 . S
C1856 H1852 0.929 . S
C1856 C1858 1.378 . S
C1856 C1860 1.350 . S
C1857 C1860 1.463 . S
C1857 C1862 1.350 . S
C1857 N1865 1.427 . S
C1858 H1849 0.930 . S
C1858 C1856 1.378 . S
C1858 C1859 1.367 . S
C1859 C1858 1.367 . S
C1859 C1861 1.433 . S
C1860 C1856 1.350 . S
C1860 C1857 1.463 . S
C1860 N1864 1.427 . S
C1861 H1851 0.929 . S
C1861 C1859 1.433 . S
C1861 N1864 1.384 . S
C1862 H1853 0.929 . S
C1862 C1854 1.378 . S
C1862 C1857 1.350 . S
C1863 H1850 0.929 . S
C1863 C1855 1.433 . S
C1863 N1865 1.384 . S
N1864 C1860 1.427 . S
N1864 C1861 1.384 . S
N1865 C1857 1.427 . S
N1865 C1863 1.384 . S
H1866 C1872 0.930 . S
H1867 C1876 0.930 . S
H1868 C1881 0.929 . S
H1869 C1879 0.929 . S
H1870 C1874 0.929 . S
H1871 C1880 0.929 . S
C1872 H1866 0.930 . S
C1872 C1873 1.367 . S
C1872 C1880 1.378 . S
C1873 C1872 1.367 . S
C1873 C1881 1.433 . S
C1874 H1870 0.929 . S
C1874 C1876 1.378 . S
C1874 C1878 1.350 . S
C1875 C1878 1.463 . S
C1875 C1880 1.350 . S
C1875 N1883 1.427 . S
C1876 H1867 0.930 . S
C1876 C1874 1.378 . S
C1876 C1877 1.367 . S
C1877 C1876 1.367 . S
C1877 C1879 1.433 . S
C1878 C1874 1.350 . S
C1878 C1875 1.463 . S
C1878 N1882 1.427 . S
C1879 H1869 0.929 . S
C1879 C1877 1.433 . S
C1879 N1882 1.384 . S
C1880 H1871 0.929 . S
C1880 C1872 1.378 . S
C1880 C1875 1.350 . S
C1881 H1868 0.929 . S
C1881 C1873 1.433 . S
C1881 N1883 1.384 . S
N1882 C1878 1.427 . S
N1882 C1879 1.384 . S
N1883 C1875 1.427 . S
N1883 C1881 1.384 . S
H1884 C1890 0.930 . S
H1885 C1894 0.930 . S
H1886 C1899 0.929 . S
H1887 C1897 0.929 . S
H1888 C1892 0.929 . S
H1889 C1898 0.929 . S
C1890 H1884 0.930 . S
C1890 C1891 1.367 . S
C1890 C1898 1.378 . S
C1891 C1890 1.367 . S
C1891 C1899 1.433 . S
C1892 H1888 0.929 . S
C1892 C1894 1.378 . S
C1892 C1896 1.350 . S
C1893 C1896 1.463 . S
C1893 C1898 1.350 . S
C1893 N1901 1.427 . S
C1894 H1885 0.930 . S
C1894 C1892 1.378 . S
C1894 C1895 1.367 . S
C1895 C1894 1.367 . S
C1895 C1897 1.433 . S
C1896 C1892 1.350 . S
C1896 C1893 1.463 . S
C1896 N1900 1.427 . S
C1897 H1887 0.929 . S
C1897 C1895 1.433 . S
C1897 N1900 1.384 . S
C1898 H1889 0.929 . S
C1898 C1890 1.378 . S
C1898 C1893 1.350 . S
C1899 H1886 0.929 . S
C1899 C1891 1.433 . S
C1899 N1901 1.384 . S
N1900 C1896 1.427 . S
N1900 C1897 1.384 . S
N1901 C1893 1.427 . S
N1901 C1899 1.384 . S
H1902 C1908 0.930 . S
H1903 C1912 0.930 . S
H1904 C1917 0.929 . S
H1905 C1915 0.929 . S
H1906 C1910 0.929 . S
H1907 C1916 0.929 . S
C1908 H1902 0.930 . S
C1908 C1909 1.367 . S
C1908 C1916 1.378 . S
C1909 C1908 1.367 . S
C1909 C1917 1.433 . S
C1910 H1906 0.929 . S
C1910 C1912 1.378 . S
C1910 C1914 1.350 . S
C1911 C1914 1.463 . S
C1911 C1916 1.350 . S
C1911 N1919 1.427 . S
C1912 H1903 0.930 . S
C1912 C1910 1.378 . S
C1912 C1913 1.367 . S
C1913 C1912 1.367 . S
C1913 C1915 1.433 . S
C1914 C1910 1.350 . S
C1914 C1911 1.463 . S
C1914 N1918 1.427 . S
C1915 H1905 0.929 . S
C1915 C1913 1.433 . S
C1915 N1918 1.384 . S
C1916 H1907 0.929 . S
C1916 C1908 1.378 . S
C1916 C1911 1.350 . S
C1917 H1904 0.929 . S
C1917 C1909 1.433 . S
C1917 N1919 1.384 . S
N1918 C1914 1.427 . S
N1918 C1915 1.384 . S
N1919 C1911 1.427 . S
N1919 C1917 1.384 . S
H1920 C1926 0.930 . S
H1921 C1930 0.930 . S
H1922 C1935 0.929 . S
H1923 C1933 0.929 . S
H1924 C1928 0.929 . S
H1925 C1934 0.929 . S
C1926 H1920 0.930 . S
C1926 C1927 1.367 . S
C1926 C1934 1.378 . S
C1927 C1926 1.367 . S
C1927 C1935 1.433 . S
C1928 H1924 0.929 . S
C1928 C1930 1.378 . S
C1928 C1932 1.350 . S
C1929 C1932 1.463 . S
C1929 C1934 1.350 . S
C1929 N1937 1.427 . S
C1930 H1921 0.930 . S
C1930 C1928 1.378 . S
C1930 C1931 1.367 . S
C1931 C1930 1.367 . S
C1931 C1933 1.433 . S
C1932 C1928 1.350 . S
C1932 C1929 1.463 . S
C1932 N1936 1.427 . S
C1933 H1923 0.929 . S
C1933 C1931 1.433 . S
C1933 N1936 1.384 . S
C1934 H1925 0.929 . S
C1934 C1926 1.378 . S
C1934 C1929 1.350 . S
C1935 H1922 0.929 . S
C1935 C1927 1.433 . S
C1935 N1937 1.384 . S
N1936 C1932 1.427 . S
N1936 C1933 1.384 . S
N1937 C1929 1.427 . S
N1937 C1935 1.384 . S
H1938 C1944 0.930 . S
H1939 C1948 0.930 . S
H1940 C1953 0.929 . S
H1941 C1951 0.929 . S
H1942 C1946 0.929 . S
H1943 C1952 0.929 . S
C1944 H1938 0.930 . S
C1944 C1945 1.367 . S
C1944 C1952 1.378 . S
C1945 C1944 1.367 . S
C1945 C1953 1.433 . S
C1946 H1942 0.929 . S
C1946 C1948 1.378 . S
C1946 C1950 1.350 . S
C1947 C1950 1.463 . S
C1947 C1952 1.350 . S
C1947 N1955 1.427 . S
C1948 H1939 0.930 . S
C1948 C1946 1.378 . S
C1948 C1949 1.367 . S
C1949 C1948 1.367 . S
C1949 C1951 1.433 . S
C1950 C1946 1.350 . S
C1950 C1947 1.463 . S
C1950 N1954 1.427 . S
C1951 H1941 0.929 . S
C1951 C1949 1.433 . S
C1951 N1954 1.384 . S
C1952 H1943 0.929 . S
C1952 C1944 1.378 . S
C1952 C1947 1.350 . S
C1953 H1940 0.929 . S
C1953 C1945 1.433 . S
C1953 N1955 1.384 . S
N1954 C1950 1.427 . S
N1954 C1951 1.384 . S
N1955 C1947 1.427 . S
N1955 C1953 1.384 . S
H1956 C1962 0.930 . S
H1957 C1966 0.930 . S
H1958 C1971 0.929 . S
H1959 C1969 0.929 . S
H1960 C1964 0.929 . S
H1961 C1970 0.929 . S
C1962 H1956 0.930 . S
C1962 C1963 1.367 . S
C1962 C1970 1.378 . S
C1963 C1962 1.367 . S
C1963 C1971 1.433 . S
C1964 H1960 0.929 . S
C1964 C1966 1.378 . S
C1964 C1968 1.350 . S
C1965 C1968 1.463 . S
C1965 C1970 1.350 . S
C1965 N1973 1.427 . S
C1966 H1957 0.930 . S
C1966 C1964 1.378 . S
C1966 C1967 1.367 . S
C1967 C1966 1.367 . S
C1967 C1969 1.433 . S
C1968 C1964 1.350 . S
C1968 C1965 1.463 . S
C1968 N1972 1.427 . S
C1969 H1959 0.929 . S
C1969 C1967 1.433 . S
C1969 N1972 1.384 . S
C1970 H1961 0.929 . S
C1970 C1962 1.378 . S
C1970 C1965 1.350 . S
C1971 H1958 0.929 . S
C1971 C1963 1.433 . S
C1971 N1973 1.384 . S
N1972 C1968 1.427 . S
N1972 C1969 1.384 . S
N1973 C1965 1.427 . S
N1973 C1971 1.384 . S
H1974 C1980 0.930 . S
H1975 C1984 0.930 . S
H1976 C1989 0.929 . S
H1977 C1987 0.929 . S
H1978 C1982 0.929 . S
H1979 C1988 0.929 . S
C1980 H1974 0.930 . S
C1980 C1981 1.367 . S
C1980 C1988 1.378 . S
C1981 C1980 1.367 . S
C1981 C1989 1.433 . S
C1982 H1978 0.929 . S
C1982 C1984 1.378 . S
C1982 C1986 1.350 . S
C1983 C1986 1.463 . S
C1983 C1988 1.350 . S
C1983 N1991 1.427 . S
C1984 H1975 0.930 . S
C1984 C1982 1.378 . S
C1984 C1985 1.367 . S
C1985 C1984 1.367 . S
C1985 C1987 1.433 . S
C1986 C1982 1.350 . S
C1986 C1983 1.463 . S
C1986 N1990 1.427 . S
C1987 H1977 0.929 . S
C1987 C1985 1.433 . S
C1987 N1990 1.384 . S
C1988 H1979 0.929 . S
C1988 C1980 1.378 . S
C1988 C1983 1.350 . S
C1989 H1976 0.929 . S
C1989 C1981 1.433 . S
C1989 N1991 1.384 . S
N1990 C1986 1.427 . S
N1990 C1987 1.384 . S
N1991 C1983 1.427 . S
N1991 C1989 1.384 . S
H1992 C1998 0.930 . S
H1993 C2002 0.930 . S
H1994 C2007 0.929 . S
H1995 C2005 0.929 . S
H1996 C2000 0.929 . S
H1997 C2006 0.929 . S
C1998 H1992 0.930 . S
C1998 C1999 1.367 . S
C1998 C2006 1.378 . S
C1999 C1998 1.367 . S
C1999 C2007 1.433 . S
C2000 H1996 0.929 . S
C2000 C2002 1.378 . S
C2000 C2004 1.350 . S
C2001 C2004 1.463 . S
C2001 C2006 1.350 . S
C2001 N2009 1.427 . S
C2002 H1993 0.930 . S
C2002 C2000 1.378 . S
C2002 C2003 1.367 . S
C2003 C2002 1.367 . S
C2003 C2005 1.433 . S
C2004 C2000 1.350 . S
C2004 C2001 1.463 . S
C2004 N2008 1.427 . S
C2005 H1995 0.929 . S
C2005 C2003 1.433 . S
C2005 N2008 1.384 . S
C2006 H1997 0.929 . S
C2006 C1998 1.378 . S
C2006 C2001 1.350 . S
C2007 H1994 0.929 . S
C2007 C1999 1.433 . S
C2007 N2009 1.384 . S
N2008 C2004 1.427 . S
N2008 C2005 1.384 . S
N2009 C2001 1.427 . S
N2009 C2007 1.384 . S
H2010 C2016 0.930 . S
H2011 C2020 0.930 . S
H2012 C2025 0.929 . S
H2013 C2023 0.929 . S
H2014 C2018 0.929 . S
H2015 C2024 0.929 . S
C2016 H2010 0.930 . S
C2016 C2017 1.367 . S
C2016 C2024 1.378 . S
C2017 C2016 1.367 . S
C2017 C2025 1.433 . S
C2018 H2014 0.929 . S
C2018 C2020 1.378 . S
C2018 C2022 1.350 . S
C2019 C2022 1.463 . S
C2019 C2024 1.350 . S
C2019 N2027 1.427 . S
C2020 H2011 0.930 . S
C2020 C2018 1.378 . S
C2020 C2021 1.367 . S
C2021 C2020 1.367 . S
C2021 C2023 1.433 . S
C2022 C2018 1.350 . S
C2022 C2019 1.463 . S
C2022 N2026 1.427 . S
C2023 H2013 0.929 . S
C2023 C2021 1.433 . S
C2023 N2026 1.384 . S
C2024 H2015 0.929 . S
C2024 C2016 1.378 . S
C2024 C2019 1.350 . S
C2025 H2012 0.929 . S
C2025 C2017 1.433 . S
C2025 N2027 1.384 . S
N2026 C2022 1.427 . S
N2026 C2023 1.384 . S
N2027 C2019 1.427 . S
N2027 C2025 1.384 . S
H2028 C2034 0.930 . S
H2029 C2038 0.930 . S
H2030 C2043 0.929 . S
H2031 C2041 0.929 . S
H2032 C2036 0.929 . S
H2033 C2042 0.929 . S
C2034 H2028 0.930 . S
C2034 C2035 1.367 . S
C2034 C2042 1.378 . S
C2035 C2034 1.367 . S
C2035 C2043 1.433 . S
C2036 H2032 0.929 . S
C2036 C2038 1.378 . S
C2036 C2040 1.350 . S
C2037 C2040 1.463 . S
C2037 C2042 1.350 . S
C2037 N2045 1.427 . S
C2038 H2029 0.930 . S
C2038 C2036 1.378 . S
C2038 C2039 1.367 . S
C2039 C2038 1.367 . S
C2039 C2041 1.433 . S
C2040 C2036 1.350 . S
C2040 C2037 1.463 . S
C2040 N2044 1.427 . S
C2041 H2031 0.929 . S
C2041 C2039 1.433 . S
C2041 N2044 1.384 . S
C2042 H2033 0.929 . S
C2042 C2034 1.378 . S
C2042 C2037 1.350 . S
C2043 H2030 0.929 . S
C2043 C2035 1.433 . S
C2043 N2045 1.384 . S
N2044 C2040 1.427 . S
N2044 C2041 1.384 . S
N2045 C2037 1.427 . S
N2045 C2043 1.384 . S
H2046 C2052 0.930 . S
H2047 C2056 0.930 . S
H2048 C2061 0.929 . S
H2049 C2059 0.929 . S
H2050 C2054 0.929 . S
H2051 C2060 0.929 . S
C2052 H2046 0.930 . S
C2052 C2053 1.367 . S
C2052 C2060 1.378 . S
C2053 C2052 1.367 . S
C2053 C2061 1.433 . S
C2054 H2050 0.929 . S
C2054 C2056 1.378 . S
C2054 C2058 1.350 . S
C2055 C2058 1.463 . S
C2055 C2060 1.350 . S
C2055 N2063 1.427 . S
C2056 H2047 0.930 . S
C2056 C2054 1.378 . S
C2056 C2057 1.367 . S
C2057 C2056 1.367 . S
C2057 C2059 1.433 . S
C2058 C2054 1.350 . S
C2058 C2055 1.463 . S
C2058 N2062 1.427 . S
C2059 H2049 0.929 . S
C2059 C2057 1.433 . S
C2059 N2062 1.384 . S
C2060 H2051 0.929 . S
C2060 C2052 1.378 . S
C2060 C2055 1.350 . S
C2061 H2048 0.929 . S
C2061 C2053 1.433 . S
C2061 N2063 1.384 . S
N2062 C2058 1.427 . S
N2062 C2059 1.384 . S
N2063 C2055 1.427 . S
N2063 C2061 1.384 . S
H2064 C2070 0.930 1_556 S
H2065 C2074 0.930 . S
H2066 C2079 0.929 . S
H2067 C2077 0.929 . S
H2068 C2072 0.929 . S
H2069 C2078 0.929 . S
C2070 H2064 0.930 1_554 S
C2070 C2071 1.367 1_554 S
C2070 C2078 1.378 . S
C2071 C2070 1.367 1_556 S
C2071 C2079 1.433 1_556 S
C2072 H2068 0.929 . S
C2072 C2074 1.378 . S
C2072 C2076 1.350 . S
C2073 C2076 1.463 . S
C2073 C2078 1.350 . S
C2073 N2081 1.427 . S
C2074 H2065 0.930 . S
C2074 C2072 1.378 . S
C2074 C2075 1.367 . S
C2075 C2074 1.367 . S
C2075 C2077 1.433 . S
C2076 C2072 1.350 . S
C2076 C2073 1.463 . S
C2076 N2080 1.427 . S
C2077 H2067 0.929 . S
C2077 C2075 1.433 . S
C2077 N2080 1.384 . S
C2078 H2069 0.929 . S
C2078 C2070 1.378 . S
C2078 C2073 1.350 . S
C2079 H2066 0.929 . S
C2079 C2071 1.433 1_554 S
C2079 N2081 1.384 . S
N2080 C2076 1.427 . S
N2080 C2077 1.384 . S
N2081 C2073 1.427 . S
N2081 C2079 1.384 . S
H2082 C2088 0.930 . S
H2083 C2092 0.930 . S
H2084 C2097 0.929 . S
H2085 C2095 0.929 1_554 S
H2086 C2090 0.929 . S
H2087 C2096 0.929 . S
C2088 H2082 0.930 . S
C2088 C2089 1.367 . S
C2088 C2096 1.378 . S
C2089 C2088 1.367 . S
C2089 C2097 1.433 . S
C2090 H2086 0.929 . S
C2090 C2092 1.378 . S
C2090 C2094 1.350 . S
C2091 C2094 1.463 . S
C2091 C2096 1.350 . S
C2091 N2099 1.427 . S
C2092 H2083 0.930 . S
C2092 C2090 1.378 . S
C2092 C2093 1.367 1_556 S
C2093 C2092 1.367 1_554 S
C2093 C2095 1.433 1_554 S
C2094 C2090 1.350 . S
C2094 C2091 1.463 . S
C2094 N2098 1.427 . S
C2095 H2085 0.929 1_556 S
C2095 C2093 1.433 1_556 S
C2095 N2098 1.384 . S
C2096 H2087 0.929 . S
C2096 C2088 1.378 . S
C2096 C2091 1.350 . S
C2097 H2084 0.929 . S
C2097 C2089 1.433 . S
C2097 N2099 1.384 . S
N2098 C2094 1.427 . S
N2098 C2095 1.384 . S
N2099 C2091 1.427 . S
N2099 C2097 1.384 . S
H2100 C2106 0.930 . S
H2101 C2110 0.930 1_556 S
H2102 C2115 0.929 . S
H2103 C2113 0.929 . S
H2104 C2108 0.929 . S
H2105 C2114 0.929 . S
C2106 H2100 0.930 . S
C2106 C2107 1.367 . S
C2106 C2114 1.378 . S
C2107 C2106 1.367 . S
C2107 C2115 1.433 . S
C2108 H2104 0.929 . S
C2108 C2110 1.378 . S
C2108 C2112 1.350 . S
C2109 C2112 1.463 . S
C2109 C2114 1.350 . S
C2109 N2117 1.427 . S
C2110 H2101 0.930 1_554 S
C2110 C2108 1.378 . S
C2110 C2111 1.367 1_554 S
C2111 C2110 1.367 1_556 S
C2111 C2113 1.433 1_556 S
C2112 C2108 1.350 . S
C2112 C2109 1.463 . S
C2112 N2116 1.427 . S
C2113 H2103 0.929 . S
C2113 C2111 1.433 1_554 S
C2113 N2116 1.384 . S
C2114 H2105 0.929 . S
C2114 C2106 1.378 . S
C2114 C2109 1.350 . S
C2115 H2102 0.929 . S
C2115 C2107 1.433 . S
C2115 N2117 1.384 . S
N2116 C2112 1.427 . S
N2116 C2113 1.384 . S
N2117 C2109 1.427 . S
N2117 C2115 1.384 . S
H2118 C2124 0.930 1_554 S
H2119 C2128 0.930 . S
H2120 C2133 0.929 . S
H2121 C2131 0.929 . S
H2122 C2126 0.929 . S
H2123 C2132 0.929 . S
C2124 H2118 0.930 1_556 S
C2124 C2125 1.367 1_556 S
C2124 C2132 1.378 . S
C2125 C2124 1.367 1_554 S
C2125 C2133 1.433 1_554 S
C2126 H2122 0.929 . S
C2126 C2128 1.378 . S
C2126 C2130 1.350 . S
C2127 C2130 1.463 . S
C2127 C2132 1.350 . S
C2127 N2135 1.427 . S
C2128 H2119 0.930 . S
C2128 C2126 1.378 . S
C2128 C2129 1.367 . S
C2129 C2128 1.367 . S
C2129 C2131 1.433 . S
C2130 C2126 1.350 . S
C2130 C2127 1.463 . S
C2130 N2134 1.427 . S
C2131 H2121 0.929 . S
C2131 C2129 1.433 . S
C2131 N2134 1.384 . S
C2132 H2123 0.929 . S
C2132 C2124 1.378 . S
C2132 C2127 1.350 . S
C2133 H2120 0.929 . S
C2133 C2125 1.433 1_556 S
C2133 N2135 1.384 . S
N2134 C2130 1.427 . S
N2134 C2131 1.384 . S
N2135 C2127 1.427 . S
N2135 C2133 1.384 . S
H2136 C2142 0.930 . S
H2137 C2146 0.930 1_556 S
H2138 C2151 0.929 . S
H2139 C2149 0.929 . S
H2140 C2144 0.929 . S
H2141 C2150 0.929 . S
C2142 H2136 0.930 . S
C2142 C2143 1.367 . S
C2142 C2150 1.378 . S
C2143 C2142 1.367 . S
C2143 C2151 1.433 . S
C2144 H2140 0.929 . S
C2144 C2146 1.378 . S
C2144 C2148 1.350 . S
C2145 C2148 1.463 . S
C2145 C2150 1.350 . S
C2145 N2153 1.427 . S
C2146 H2137 0.930 1_554 S
C2146 C2144 1.378 . S
C2146 C2147 1.367 1_554 S
C2147 C2146 1.367 1_556 S
C2147 C2149 1.433 1_556 S
C2148 C2144 1.350 . S
C2148 C2145 1.463 . S
C2148 N2152 1.427 . S
C2149 H2139 0.929 . S
C2149 C2147 1.433 1_554 S
C2149 N2152 1.384 . S
C2150 H2141 0.929 . S
C2150 C2142 1.378 . S
C2150 C2145 1.350 . S
C2151 H2138 0.929 . S
C2151 C2143 1.433 . S
C2151 N2153 1.384 . S
N2152 C2148 1.427 . S
N2152 C2149 1.384 . S
N2153 C2145 1.427 . S
N2153 C2151 1.384 . S
H2154 C2160 0.930 . S
H2155 C2164 0.930 . S
H2156 C2169 0.929 1_554 S
H2157 C2167 0.929 . S
H2158 C2162 0.929 . S
H2159 C2168 0.929 . S
C2160 H2154 0.930 . S
C2160 C2161 1.367 1_556 S
C2160 C2168 1.378 . S
C2161 C2160 1.367 1_554 S
C2161 C2169 1.433 1_554 S
C2162 H2158 0.929 . S
C2162 C2164 1.378 . S
C2162 C2166 1.350 . S
C2163 C2166 1.463 . S
C2163 C2168 1.350 . S
C2163 N2171 1.427 . S
C2164 H2155 0.930 . S
C2164 C2162 1.378 . S
C2164 C2165 1.367 . S
C2165 C2164 1.367 . S
C2165 C2167 1.433 . S
C2166 C2162 1.350 . S
C2166 C2163 1.463 . S
C2166 N2170 1.427 . S
C2167 H2157 0.929 . S
C2167 C2165 1.433 . S
C2167 N2170 1.384 . S
C2168 H2159 0.929 . S
C2168 C2160 1.378 . S
C2168 C2163 1.350 . S
C2169 H2156 0.929 1_556 S
C2169 C2161 1.433 1_556 S
C2169 N2171 1.384 . S
N2170 C2166 1.427 . S
N2170 C2167 1.384 . S
N2171 C2163 1.427 . S
N2171 C2169 1.384 . S
H2172 C2178 0.930 1_556 S
H2173 C2182 0.930 . S
H2174 C2187 0.929 . S
H2175 C2185 0.929 . S
H2176 C2180 0.929 . S
H2177 C2186 0.929 . S
C2178 H2172 0.930 1_554 S
C2178 C2179 1.367 1_554 S
C2178 C2186 1.378 . S
C2179 C2178 1.367 1_556 S
C2179 C2187 1.433 1_556 S
C2180 H2176 0.929 . S
C2180 C2182 1.378 . S
C2180 C2184 1.350 . S
C2181 C2184 1.463 . S
C2181 C2186 1.350 . S
C2181 N2189 1.427 . S
C2182 H2173 0.930 . S
C2182 C2180 1.378 . S
C2182 C2183 1.367 . S
C2183 C2182 1.367 . S
C2183 C2185 1.433 . S
C2184 C2180 1.350 . S
C2184 C2181 1.463 . S
C2184 N2188 1.427 . S
C2185 H2175 0.929 . S
C2185 C2183 1.433 . S
C2185 N2188 1.384 . S
C2186 H2177 0.929 . S
C2186 C2178 1.378 . S
C2186 C2181 1.350 . S
C2187 H2174 0.929 . S
C2187 C2179 1.433 1_554 S
C2187 N2189 1.384 . S
N2188 C2184 1.427 . S
N2188 C2185 1.384 . S
N2189 C2181 1.427 . S
N2189 C2187 1.384 . S
H2190 C2196 0.930 . S
H2191 C2200 0.930 1_554 S
H2192 C2205 0.929 . S
H2193 C2203 0.929 . S
H2194 C2198 0.929 . S
H2195 C2204 0.929 . S
C2196 H2190 0.930 . S
C2196 C2197 1.367 . S
C2196 C2204 1.378 . S
C2197 C2196 1.367 . S
C2197 C2205 1.433 . S
C2198 H2194 0.929 . S
C2198 C2200 1.378 . S
C2198 C2202 1.350 . S
C2199 C2202 1.463 . S
C2199 C2204 1.350 . S
C2199 N2207 1.427 . S
C2200 H2191 0.930 1_556 S
C2200 C2198 1.378 . S
C2200 C2201 1.367 1_556 S
C2201 C2200 1.367 1_554 S
C2201 C2203 1.433 1_554 S
C2202 C2198 1.350 . S
C2202 C2199 1.463 . S
C2202 N2206 1.427 . S
C2203 H2193 0.929 . S
C2203 C2201 1.433 1_556 S
C2203 N2206 1.384 . S
C2204 H2195 0.929 . S
C2204 C2196 1.378 . S
C2204 C2199 1.350 . S
C2205 H2192 0.929 . S
C2205 C2197 1.433 . S
C2205 N2207 1.384 . S
N2206 C2202 1.427 . S
N2206 C2203 1.384 . S
N2207 C2199 1.427 . S
N2207 C2205 1.384 . S
C1351 C991 1.617 . S
C1355 C63 1.663 . S
C1369 C728 1.622 . S
C1373 C158 1.659 . S
C1387 C231 1.662 . S
C1391 C823 1.618 . S
C1405 C326 1.663 . S
C1409 C896 1.617 . S
C1423 C399 1.656 . S
C1427 C487 1.626 . S
C1441 C560 1.621 . S
C1445 C494 1.659 . S
C1459 C567 1.659 . S
C1463 C655 1.623 . S
C1477 C392 1.625 . S
C1481 C662 1.658 . S
C1495 C319 1.629 . S
C1499 C735 1.655 . S
C1513 C830 1.659 . S
C1517 C56 1.622 . S
C1531 C151 1.620 . S
C1535 C903 1.661 . S
C1549 C224 1.629 . S
C1553 C998 1.655 . S
C1567 C1071 1.657 . S
C1571 C1159 1.625 . S
C1585 C1232 1.623 . S
C1589 C1166 1.659 . S
C1603 C1327 1.619 . S
C1607 C1239 1.661 . S
C1621 C1334 1.657 . S
C1625 C1064 1.625 . S
C1639 C74 1.299 . S
C1643 C410 1.305 . S
C1657 C483 1.301 . S
C1661 C147 1.313 . S
C1675 C242 1.299 . S
C1679 C578 1.307 . S
C1693 C315 1.300 . S
C1697 C651 1.310 . S
C1711 C746 1.299 . S
C1715 C1082 1.304 . S
C1729 C1155 1.325 . S
C1733 C819 1.318 . S
C1747 C914 1.309 . S
C1751 C1250 1.321 . S
C1765 C987 1.299 . S
C1769 C1323 1.308 . S
C1783 C1243 2.145 . S
C1787 C67 2.150 1_556 S
C1801 C140 2.143 1_554 S
C1805 C1316 2.139 . S
C1819 C235 2.140 1_556 S
C1823 C1075 2.143 . S
C1837 C308 2.154 1_554 S
C1841 C1148 2.154 . S
C1855 C403 2.148 . S
C1859 C907 2.143 . S
C1873 C476 2.145 . S
C1877 C980 2.141 . S
C1891 C571 2.154 . S
C1895 C739 2.152 . S
C1909 C812 2.140 . S
C1913 C644 2.138 . S
C1927 C58 1.096 . S
C1931 C70 1.096 . S
C1945 C154 1.097 . S
C1949 C142 1.097 . S
C1963 C226 1.127 . S
C1967 C238 1.127 . S
C1981 C310 1.101 . S
C1985 C322 1.101 . S
C1999 C406 1.118 . S
C2003 C394 1.118 . S
C2017 C490 1.101 . S
C2021 C478 1.101 . S
C2035 C562 1.130 . S
C2039 C574 1.130 . S
C2053 C646 1.113 . S
C2057 C658 1.113 . S
C2071 C730 1.095 . S
C2075 C742 1.095 . S
C2089 C814 1.121 . S
C2093 C826 1.121 . S
C2107 C910 1.108 . S
C2111 C898 1.108 . S
C2125 C994 1.095 . S
C2129 C982 1.095 . S
C2143 C1066 1.117 . S
C2147 C1078 1.117 . S
C2161 C1150 1.104 . S
C2165 C1162 1.104 . S
C2179 C1246 1.102 . S
C2183 C1234 1.102 . S
C2197 C1330 1.095 . S
C2201 C1318 1.095 . S
