# Generated by pormake.
# Topology can, (4)-cn, num edge types: 1
# Building blocks:
#     Node 0, Type 0, BuildingBlock: QUQFOY_clean_sbu_3, # of connection points: 4
#     Node 1, Type 0, BuildingBlock: QUQFOY_clean_sbu_3, # of connection points: 4
#     Node 2, Type 0, BuildingBlock: QUQFOY_clean_sbu_3, # of connection points: 4
#     Node 3, Type 0, BuildingBlock: QUQFOY_clean_sbu_3, # of connection points: 4
#     Node 4, Type 0, BuildingBlock: QUQFOY_clean_sbu_3, # of connection points: 4
#     Node 5, Type 0, BuildingBlock: QUQFOY_clean_sbu_3, # of connection points: 4
#     Node 6, Type 0, BuildingBlock: QUQFOY_clean_sbu_3, # of connection points: 4
#     Node 7, Type 0, BuildingBlock: QUQFOY_clean_sbu_3, # of connection points: 4
#     Node 8, Type 0, BuildingBlock: QUQFOY_clean_sbu_3, # of connection points: 4
#     Node 9, Type 0, BuildingBlock: QUQFOY_clean_sbu_3, # of connection points: 4
#     Node 10, Type 0, BuildingBlock: QUQFOY_clean_sbu_3, # of connection points: 4
#     Node 11, Type 0, BuildingBlock: QUQFOY_clean_sbu_3, # of connection points: 4
#     Edge 12, Type (0, 0), BuildingBlock: OJICUG_clean_linker_0, # of connection points: 2
#     Edge 13, Type (0, 0), BuildingBlock: OJICUG_clean_linker_0, # of connection points: 2
#     Edge 14, Type (0, 0), BuildingBlock: OJICUG_clean_linker_0, # of connection points: 2
#     Edge 15, Type (0, 0), BuildingBlock: OJICUG_clean_linker_0, # of connection points: 2
#     Edge 16, Type (0, 0), BuildingBlock: OJICUG_clean_linker_0, # of connection points: 2
#     Edge 17, Type (0, 0), BuildingBlock: OJICUG_clean_linker_0, # of connection points: 2
#     Edge 18, Type (0, 0), BuildingBlock: OJICUG_clean_linker_0, # of connection points: 2
#     Edge 19, Type (0, 0), BuildingBlock: OJICUG_clean_linker_0, # of connection points: 2
#     Edge 20, Type (0, 0), BuildingBlock: OJICUG_clean_linker_0, # of connection points: 2
#     Edge 21, Type (0, 0), BuildingBlock: OJICUG_clean_linker_0, # of connection points: 2
#     Edge 22, Type (0, 0), BuildingBlock: OJICUG_clean_linker_0, # of connection points: 2
#     Edge 23, Type (0, 0), BuildingBlock: OJICUG_clean_linker_0, # of connection points: 2
#     Edge 24, Type (0, 0), BuildingBlock: OJICUG_clean_linker_0, # of connection points: 2
#     Edge 25, Type (0, 0), BuildingBlock: OJICUG_clean_linker_0, # of connection points: 2
#     Edge 26, Type (0, 0), BuildingBlock: OJICUG_clean_linker_0, # of connection points: 2
#     Edge 27, Type (0, 0), BuildingBlock: OJICUG_clean_linker_0, # of connection points: 2
#     Edge 28, Type (0, 0), BuildingBlock: OJICUG_clean_linker_0, # of connection points: 2
#     Edge 29, Type (0, 0), BuildingBlock: OJICUG_clean_linker_0, # of connection points: 2
#     Edge 30, Type (0, 0), BuildingBlock: OJICUG_clean_linker_0, # of connection points: 2
#     Edge 31, Type (0, 0), BuildingBlock: OJICUG_clean_linker_0, # of connection points: 2
#     Edge 32, Type (0, 0), BuildingBlock: OJICUG_clean_linker_0, # of connection points: 2
#     Edge 33, Type (0, 0), BuildingBlock: OJICUG_clean_linker_0, # of connection points: 2
#     Edge 34, Type (0, 0), BuildingBlock: OJICUG_clean_linker_0, # of connection points: 2
#     Edge 35, Type (0, 0), BuildingBlock: OJICUG_clean_linker_0, # of connection points: 2
# Relax obj value: 0.050
# Max RMSD: 0.037
# Mean RMSD: 0.037
data_MOF--net-can--node1-QUQFOY_clean_sbu_3--edge1-OJICUG_clean_linker_0
_symmetry_space_group_name_H-M    P1
_symmetry_Int_Tables_number       1
_symmetry_cell_setting            triclinic
loop_
_symmetry_equiv_pos_as_xyz
'x, y, z'
_cell_length_a     42.400454
_cell_length_b     42.356521
_cell_length_c     21.153011
_cell_angle_alpha  89.864555
_cell_angle_beta   90.10394
_cell_angle_gamma 120.07488
loop_
_atom_site_label
_atom_site_type_symbol
_atom_site_fract_x
_atom_site_fract_y
_atom_site_fract_z
_atom_type_partial_charge
C0 C -0.01575 0.3335 0.3467 0.0
O1 O 0.95552 0.32256 0.31383 0.0
Cd2 Cd 0.95685 0.34035 0.20542 0.0
O3 O 0.01554 0.35288 0.32194 0.0
Cd4 Cd 0.04512 0.37868 0.22087 0.0
C5 C 0.00933 0.43403 0.22398 0.0
O6 O 0.00123 0.33103 0.15344 0.0
O7 O 0.04369 0.37902 0.10666 0.0
O8 O 0.08312 0.35331 0.24179 0.0
C9 C 0.0157 0.3476 0.10229 0.0
O10 O 0.97882 0.40552 0.21261 0.0
C11 C 0.11314 0.38286 0.23533 0.0
O12 O 0.03822 0.43223 0.23136 0.0
O13 O 0.11174 0.41165 0.22416 0.0
C14 C 0.62841 -0.00986 0.83698 0.0
O15 O 0.61302 0.96109 0.80425 0.0
Cd16 Cd 0.60467 0.96042 0.69079 0.0
O17 O 0.64196 0.02119 0.8104 0.0
Cd18 Cd 0.65148 0.04884 0.70554 0.0
C19 C 0.56027 0.00975 0.68397 0.0
O20 O 0.66103 0.00556 0.64551 0.0
O21 O 0.65862 0.04829 0.59314 0.0
O22 O 0.71259 0.08919 0.73761 0.0
C23 C 0.66249 0.02051 0.59261 0.0
O24 O 0.55961 0.97953 0.67731 0.0
C25 C 0.71227 0.11846 0.72634 0.0
O26 O 0.58981 0.03894 0.69732 0.0
O27 O 0.68245 0.11552 0.70724 0.0
C28 C 0.63391 0.65048 0.34003 0.0
O29 O 0.6459 0.63319 0.30858 0.0
Cd30 Cd 0.62671 0.61225 0.20256 0.0
O31 O 0.61241 0.65962 0.31471 0.0
Cd32 Cd 0.58379 0.6577 0.21319 0.0
C33 C 0.53334 0.56629 0.22647 0.0
O34 O 0.63211 0.66321 0.14571 0.0
O35 O 0.58168 0.65162 0.09976 0.0
O36 O 0.60606 0.72116 0.22383 0.0
C37 C 0.61429 0.65842 0.09498 0.0
O38 O 0.56268 0.56599 0.215 0.0
C39 C 0.57546 0.71948 0.21855 0.0
O40 O 0.53316 0.59621 0.23045 0.0
O41 O 0.54734 0.68801 0.21354 0.0
C42 C 0.98142 0.64363 0.83991 0.0
O43 O 0.01041 0.65543 0.80756 0.0
Cd44 Cd 0.01074 0.6406 0.69788 0.0
O45 O 0.95034 0.62492 0.81402 0.0
Cd46 Cd 0.92253 0.60195 0.71043 0.0
C47 C 0.95841 0.54668 0.71136 0.0
O48 O 0.9672 0.65127 0.64554 0.0
O49 O 0.92541 0.60371 0.5967 0.0
O50 O 0.88341 0.62597 0.73181 0.0
C51 C 0.95306 0.63543 0.59369 0.0
O52 O -0.01099 0.57535 0.70122 0.0
C53 C 0.85379 0.59635 0.72264 0.0
O54 O 0.92951 0.54842 0.71884 0.0
O55 O 0.85596 0.56817 0.70987 0.0
C56 C 0.31219 -0.00828 0.33792 0.0
O57 O 0.33184 0.02052 0.30631 0.0
Cd58 Cd 0.35891 0.01816 0.20824 0.0
O59 O 0.30468 0.96079 0.31613 0.0
Cd60 Cd 0.31398 0.93393 0.22142 0.0
C61 C 0.40245 0.97104 0.25199 0.0
O62 O 0.31415 0.97368 0.13862 0.0
O63 O 0.33919 0.94103 0.11778 0.0
O64 O 0.25041 0.89175 0.20957 0.0
C65 C 0.32797 0.962 0.09827 0.0
O66 O 0.4046 0.00077 0.23374 0.0
C67 C 0.25266 0.86314 0.21525 0.0
O68 O 0.37172 0.94189 0.25657 0.0
O69 O 0.28405 0.86728 0.22555 0.0
C70 C 0.33582 0.33218 0.85347 0.0
O71 O 0.32259 0.34777 0.82013 0.0
Cd72 Cd 0.3367 0.36078 0.70936 0.0
O73 O 0.35591 0.32127 0.82847 0.0
Cd74 Cd 0.38058 0.31645 0.72701 0.0
C75 C 0.43083 0.40822 0.71866 0.0
O76 O 0.32887 0.30595 0.66309 0.0
O77 O 0.37551 0.31095 0.61296 0.0
O78 O 0.36208 0.25662 0.76454 0.0
C79 C 0.34351 0.30607 0.6108 0.0
O80 O 0.40097 0.40774 0.7084 0.0
C81 C 0.39152 0.25721 0.75114 0.0
O82 O 0.4313 0.37884 0.72938 0.0
O83 O 0.41717 0.28652 0.72763 0.0
C84 C 0.62346 0.98356 0.10989 0.0
O85 O 0.63811 0.01259 0.14269 0.0
Cd86 Cd 0.62979 0.01304 0.25589 0.0
O87 O 0.60471 0.95262 0.13632 0.0
Cd88 Cd 0.58528 0.92467 0.24072 0.0
C89 C 0.53584 0.96652 0.26107 0.0
O90 O 0.63898 0.96644 0.30075 0.0
O91 O 0.59321 0.92461 0.35318 0.0
O92 O 0.60434 0.88381 0.205 0.0
C93 C 0.62538 0.95162 0.35363 0.0
O94 O 0.56606 -0.00391 0.26795 0.0
C95 C 0.57495 0.85469 0.21795 0.0
O96 O 0.5349 0.93668 0.24804 0.0
O97 O 0.54876 0.8579 0.23978 0.0
C98 C 0.64072 0.64917 0.60992 0.0
O99 O 0.6223 0.65934 0.64264 0.0
Cd100 Cd 0.60516 0.64065 0.75059 0.0
O101 O 0.65271 0.62978 0.63442 0.0
Cd102 Cd 0.6555 0.60268 0.73462 0.0
C103 C 0.56414 0.54726 0.73047 0.0
O104 O 0.65849 0.64933 0.80361 0.0
O105 O 0.65319 0.60096 0.84858 0.0
O106 O 0.71907 0.62715 0.71638 0.0
C107 C 0.65614 0.6321 0.85411 0.0
O108 O 0.56183 0.57551 0.74241 0.0
C109 C 0.71858 0.59705 0.72168 0.0
O110 O 0.59498 0.54943 0.72299 0.0
O111 O 0.68783 0.56854 0.73077 0.0
C112 C -0.01009 0.64608 0.11132 0.0
O113 O 0.96118 0.62984 0.14463 0.0
Cd114 Cd 0.96295 0.6162 0.25483 0.0
O115 O 0.02109 0.65761 0.13625 0.0
Cd116 Cd 0.05137 0.66319 0.23733 0.0
C117 C 0.01243 0.57162 0.2417 0.0
O118 O 0.00909 0.67103 0.30237 0.0
O119 O 0.05142 0.66665 0.35165 0.0
O120 O 0.0905 0.72427 0.20292 0.0
C121 C 0.02374 0.67057 0.35441 0.0
O122 O -0.0174 0.57108 0.25252 0.0
C123 C 0.12016 0.72487 0.21452 0.0
O124 O 0.0419 0.60158 0.2321 0.0
O125 O 0.11799 0.69568 0.23552 0.0
C126 C 0.3164 -0.00283 0.60347 0.0
O127 O 0.30571 0.96738 0.63289 0.0
Cd128 Cd 0.33359 0.9653 0.73009 0.0
O129 O 0.34063 0.02708 0.62742 0.0
Cd130 Cd 0.37554 0.04907 0.72528 0.0
C131 C 0.42496 0.01059 0.6913 0.0
O132 O 0.33362 0.00785 0.80422 0.0
O133 O 0.3912 0.0367 0.8277 0.0
O134 O 0.35601 0.09195 0.74474 0.0
C135 C 0.35843 0.01705 0.84552 0.0
O136 O 0.39637 0.9809 0.70644 0.0
C137 C 0.38723 0.12026 0.741 0.0
O138 O 0.42477 0.04052 0.68964 0.0
O139 O 0.41396 0.11579 0.72786 0.0
C140 C 0.32783 0.33213 0.12503 0.0
O141 O 0.3451 0.32045 0.15764 0.0
Cd142 Cd 0.35916 0.33426 0.26811 0.0
O143 O 0.31485 0.35025 0.15087 0.0
Cd144 Cd 0.30919 0.37243 0.25452 0.0
C145 C 0.40056 0.42802 0.25616 0.0
O146 O 0.3044 0.32294 0.31927 0.0
O147 O 0.30922 0.37 0.36824 0.0
O148 O 0.2462 0.34945 0.23194 0.0
C149 C 0.30555 0.33845 0.37119 0.0
O150 O 0.4028 0.39955 0.26646 0.0
C151 C 0.24697 0.37949 0.24042 0.0
O152 O 0.36978 0.42589 0.24786 0.0
O153 O 0.27759 0.40725 0.25366 0.0
C154 C 0.97544 0.32999 0.61715 0.0
O155 O 0.00444 0.34703 0.64961 0.0
Cd156 Cd 0.00432 0.36489 0.75722 0.0
O157 O 0.94448 0.31949 0.64213 0.0
Cd158 Cd 0.91631 0.31786 0.74372 0.0
C159 C 0.95514 0.40927 0.73688 0.0
O160 O 0.95918 0.31224 0.81124 0.0
O161 O 0.91893 0.32123 0.85783 0.0
O162 O 0.87669 0.25447 0.72638 0.0
C163 C 0.94556 0.31564 0.86228 0.0
O164 O -0.01494 0.41008 0.74831 0.0
C165 C 0.84717 0.25492 0.73243 0.0
O166 O 0.92547 0.37907 0.7307 0.0
O167 O 0.84951 0.2857 0.74148 0.0
C168 C 0.01835 0.34348 -0.01428 0.0
C169 C -0.00241 0.3343 0.0413 0.0
H170 H 0.01771 0.34361 0.88454 0.0
C171 C 0.95944 0.31561 0.03766 0.0
H172 H 0.04786 0.35787 -0.01225 0.0
C173 C 0.9423 0.30839 -0.0211 0.0
C174 C 0.96313 0.31879 0.92333 0.0
H175 H 0.94297 0.30849 0.0801 0.0
H176 H 0.91288 0.29553 0.97688 0.0
C177 C 0.00117 0.33525 0.92696 0.0
C178 C 0.63281 0.94769 0.46935 0.0
C179 C 0.6425 0.96877 0.41386 0.0
H180 H 0.63267 0.94787 0.57056 0.0
C181 C 0.66427 0.00681 0.41784 0.0
H182 H 0.61619 0.91823 0.46719 0.0
C183 C 0.67306 0.02373 0.47684 0.0
C184 C 0.66093 0.00275 0.53235 0.0
H185 H 0.67203 0.02361 0.37566 0.0
H186 H 0.68763 0.05326 0.47902 0.0
C187 C 0.64235 0.96458 0.52835 0.0
C188 C 0.65227 0.64177 0.02968 0.0
C189 C 0.62906 0.65635 0.03375 0.0
H190 H 0.67872 0.62213 0.96825 0.0
C191 C 0.61795 0.66642 -0.02151 0.0
H192 H 0.66102 0.63374 0.07187 0.0
C193 C 0.62894 0.66082 0.91955 0.0
C194 C 0.65018 0.64405 0.91541 0.0
H195 H 0.60016 0.67788 -0.01912 0.0
H196 H 0.61912 0.66765 0.8773 0.0
C197 C 0.6623 0.63512 0.97071 0.0
C198 C 0.02652 0.67865 0.47093 0.0
C199 C 0.00584 0.66752 0.41512 0.0
H200 H 0.02567 0.67797 0.57215 0.0
C201 C 0.9677 0.64968 0.4185 0.0
H202 H 0.05602 0.69256 0.46919 0.0
C203 C 0.95041 0.64058 0.47716 0.0
C204 C 0.97109 0.65013 0.53297 0.0
H205 H 0.95123 0.64073 0.376 0.0
H206 H 0.92091 0.62501 0.4789 0.0
C207 C 0.00923 0.67045 0.5296 0.0
C208 C 0.37434 -0.00533 0.94155 0.0
C209 C 0.35004 0.00249 0.90972 0.0
H210 H 0.38578 0.97487 0.02648 0.0
C211 C 0.31821 -0.00316 0.93996 0.0
H212 H 0.399 -0.00124 0.91879 0.0
C213 C 0.31115 0.98414 0.00215 0.0
C214 C 0.33529 0.9759 0.03359 0.0
H215 H 0.29927 0.00293 0.916 0.0
H216 H 0.28667 0.98025 0.0253 0.0
C217 C 0.36674 0.98094 0.0028 0.0
C218 C 0.29773 0.33321 0.4877 0.0
C219 C 0.30908 0.32389 0.43202 0.0
H220 H 0.29892 0.3337 0.58885 0.0
C221 C 0.32762 0.30429 0.43571 0.0
H222 H 0.28324 0.34822 0.48573 0.0
C223 C 0.33732 0.29677 0.49452 0.0
C224 C 0.32769 0.30788 0.55018 0.0
H225 H 0.33673 0.29695 0.39329 0.0
H226 H 0.35354 0.28355 0.49646 0.0
C227 C 0.30654 0.32479 0.5465 0.0
C228 C 0.01748 0.66663 0.93977 0.0
C229 C -0.01646 0.64873 0.90917 0.0
H230 H 0.04609 0.68012 0.02764 0.0
C231 C 0.95156 0.63307 0.94584 0.0
H232 H 0.04262 0.67919 0.91296 0.0
C233 C 0.95351 0.6335 0.01174 0.0
C234 C -0.01252 0.64962 0.04224 0.0
H235 H 0.92493 0.61926 0.92372 0.0
H236 H 0.9284 0.62004 0.03859 0.0
C237 C 0.01943 0.66709 0.0056 0.0
C238 C 0.28321 0.96206 0.44004 0.0
C239 C 0.30341 -0.00585 0.40449 0.0
H240 H 0.27101 0.93785 0.53192 0.0
C241 C 0.32047 0.02792 0.43569 0.0
H242 H 0.26904 0.93564 0.41723 0.0
C243 C 0.32154 0.02917 0.50157 0.0
C244 C 0.30557 -0.00333 0.53703 0.0
H245 H 0.33571 0.05318 0.40957 0.0
H246 H 0.33747 0.05543 0.52433 0.0
C247 C 0.2843 0.96331 0.50587 0.0
C248 C 0.34484 0.31132 0.95914 0.0
C249 C 0.32979 0.3283 0.92252 0.0
H250 H 0.35577 0.29888 0.05178 0.0
C251 C 0.31096 0.34332 0.95299 0.0
H252 H 0.35926 0.29916 0.93713 0.0
C253 C 0.30888 0.34304 0.01887 0.0
C254 C 0.32562 0.32777 0.05558 0.0
H255 H 0.29884 0.35636 0.92615 0.0
H256 H 0.29521 0.35595 0.04097 0.0
C257 C 0.34278 0.31106 0.02496 0.0
C258 C 0.01149 0.34018 0.5182 0.0
C259 C 0.97755 0.32533 0.54845 0.0
H260 H 0.04021 0.35401 0.43051 0.0
C261 C 0.9456 0.30896 0.51165 0.0
H262 H 0.03659 0.35267 0.54519 0.0
C263 C 0.94764 0.30978 0.44581 0.0
C264 C 0.98167 0.32695 0.41555 0.0
H265 H 0.91896 0.29692 0.53353 0.0
H266 H 0.92258 0.29843 0.4188 0.0
C267 C 0.01353 0.34095 0.45238 0.0
C268 C 0.6463 0.02052 0.94282 0.0
C269 C 0.62933 0.98828 0.90677 0.0
H270 H 0.6579 0.0444 0.03506 0.0
C271 C 0.61203 0.95453 0.93821 0.0
H272 H 0.66002 0.04703 0.92013 0.0
C273 C 0.61083 0.95307 0.00417 0.0
C274 C 0.62694 0.98533 0.04019 0.0
H275 H 0.59878 0.9292 0.91193 0.0
H276 H 0.59672 0.92657 0.02684 0.0
C277 C 0.64513 0.01906 0.00879 0.0
C278 C 0.66216 0.64348 0.43891 0.0
C279 C 0.64159 0.65661 0.40835 0.0
H280 H 0.67846 0.63132 0.52688 0.0
C281 C 0.62522 0.67226 0.44473 0.0
H282 H 0.67548 0.63167 0.41223 0.0
C283 C 0.62684 0.67201 0.51059 0.0
C284 C 0.64491 0.65614 0.54121 0.0
H285 H 0.60953 0.68304 0.42257 0.0
H286 H 0.61232 0.6825 0.53735 0.0
C287 C 0.66383 0.64328 0.50472 0.0
C288 C 0.97889 0.50361 0.23798 0.0
C289 C 0.01221 0.53666 0.23843 0.0
H290 H 0.95191 0.44557 0.23279 0.0
C291 C 0.04487 0.53578 0.23477 0.0
H292 H 0.9532 0.50325 0.2406 0.0
C293 C 0.04413 0.50245 0.23061 0.0
C294 C 0.0107 0.46947 0.2294 0.0
H295 H 0.07099 0.56079 0.23514 0.0
H296 H 0.06968 0.50256 0.2277 0.0
C297 C 0.97814 0.47046 0.23325 0.0
C298 C 0.49294 0.04368 0.68195 0.0
C299 C 0.4595 0.01071 0.68145 0.0
H300 H 0.55111 0.06929 0.68343 0.0
C301 C 0.45955 0.97767 0.67687 0.0
H302 H 0.49383 0.06962 0.68545 0.0
C303 C 0.49235 0.97749 0.67547 0.0
C304 C 0.5258 0.01035 0.67918 0.0
H305 H 0.43424 0.95181 0.676 0.0
H306 H 0.49137 0.95146 0.67354 0.0
C307 C 0.52579 0.0435 0.68111 0.0
C308 C 0.50038 0.49881 0.2422 0.0
C309 C 0.49923 0.53124 0.23576 0.0
H310 H 0.47032 0.44104 0.25429 0.0
C311 C 0.46534 0.52966 0.23793 0.0
H312 H 0.52604 0.49906 0.24116 0.0
C313 C 0.43319 0.49619 0.24524 0.0
C314 C 0.4344 0.46374 0.25106 0.0
H315 H 0.46357 0.5542 0.23316 0.0
H316 H 0.40744 0.49575 0.24598 0.0
C317 C 0.46837 0.46549 0.25001 0.0
C318 C -0.01044 0.51009 0.7187 0.0
C319 C 0.95702 0.51121 0.71657 0.0
H320 H 0.01445 0.47726 0.72708 0.0
C321 C 0.92357 0.47835 0.72066 0.0
H322 H 0.01582 0.53486 0.71584 0.0
C323 C 0.92278 0.44506 0.72686 0.0
C324 C 0.95542 0.44412 0.72967 0.0
H325 H 0.89802 0.47831 0.71908 0.0
H326 H 0.89664 0.42017 0.73001 0.0
C327 C -0.01122 0.47699 0.72542 0.0
C328 C 0.47005 0.00215 0.265 0.0
C329 C 0.43623 0.96973 0.26217 0.0
H330 H 0.52797 0.02655 0.26742 0.0
C331 C 0.43532 0.93609 0.26378 0.0
H332 H 0.47165 0.02849 0.26421 0.0
C333 C 0.46767 0.93495 0.26498 0.0
C334 C 0.50153 0.96742 0.26527 0.0
H335 H 0.40967 0.91061 0.26164 0.0
H336 H 0.46612 0.90864 0.26433 0.0
C337 C 0.50234 0.00101 0.26685 0.0
C338 C 0.5314 0.47891 0.72526 0.0
C339 C 0.53033 0.51154 0.72559 0.0
H340 H 0.50074 0.42052 0.72315 0.0
C341 C 0.49642 0.50985 0.72216 0.0
H342 H 0.55713 0.47933 0.72789 0.0
C343 C 0.46427 0.47631 0.71902 0.0
C344 C 0.4652 0.44362 0.71979 0.0
H345 H 0.49463 0.53448 0.72197 0.0
H346 H 0.43862 0.47607 0.71684 0.0
C347 C 0.49911 0.44524 0.7227 0.0
C348 C 0.1814 0.41555 0.23872 0.0
C349 C 0.14778 0.38284 0.23757 0.0
H350 H 0.23962 0.44022 0.24076 0.0
C351 C 0.14721 0.34943 0.23657 0.0
H352 H 0.18254 0.44167 0.23934 0.0
C353 C 0.17955 0.34862 0.23643 0.0
C354 C 0.21321 0.38118 0.23803 0.0
H355 H 0.12171 0.32376 0.23525 0.0
H356 H 0.17808 0.32234 0.23575 0.0
C357 C 0.21396 0.41472 0.23938 0.0
C358 C 0.77892 0.22016 0.725 0.0
C359 C 0.8121 0.2206 0.7319 0.0
H360 H 0.72075 0.18703 0.71748 0.0
C361 C 0.81188 0.18758 0.73939 0.0
H362 H 0.77844 0.24534 0.7194 0.0
C363 C 0.77925 0.15466 0.73938 0.0
C364 C 0.74605 0.15392 0.73104 0.0
H365 H 0.837 0.18708 0.7455 0.0
H366 H 0.7802 0.12971 0.74469 0.0
C367 C 0.74604 0.18692 0.72406 0.0
C368 C 0.54125 0.7534 0.22788 0.0
C369 C 0.57365 0.75316 0.21544 0.0
H370 H 0.51613 0.78624 0.23877 0.0
C371 C 0.60528 0.78586 0.19969 0.0
H372 H 0.51646 0.7284 0.23977 0.0
C373 C 0.60496 0.81842 0.19797 0.0
C374 C 0.57311 0.81918 0.21287 0.0
H375 H 0.63051 0.78639 0.18887 0.0
H376 H 0.63011 0.84319 0.18665 0.0
C377 C 0.54105 0.78636 0.22711 0.0
C378 C 0.81872 0.62874 0.72525 0.0
C379 C 0.81879 0.59566 0.7235 0.0
H380 H 0.78705 0.65498 0.72507 0.0
C381 C 0.7855 0.56266 0.72031 0.0
H382 H 0.84395 0.65464 0.72731 0.0
C383 C 0.75262 0.56285 0.71935 0.0
C384 C 0.75273 0.59607 0.72072 0.0
H385 H 0.78487 0.53679 0.71872 0.0
H386 H 0.72722 0.53711 0.71736 0.0
C387 C 0.78608 0.62894 0.72353 0.0
C388 C 0.18736 0.82415 0.18821 0.0
C389 C 0.21986 0.82694 0.21035 0.0
H390 H 0.13062 0.78959 0.17108 0.0
C391 C 0.22017 0.79525 0.22905 0.0
H392 H 0.1864 0.84805 0.17268 0.0
C393 C 0.18793 0.76148 0.22828 0.0
C394 C 0.15515 0.75907 0.20842 0.0
H395 H 0.24499 0.79671 0.246 0.0
H396 H 0.18847 0.73755 0.24494 0.0
C397 C 0.15539 0.79058 0.18705 0.0
C398 C 0.36435 0.19244 0.78298 0.0
C399 C 0.39388 0.22386 0.75707 0.0
H400 H 0.3393 0.13513 0.7981 0.0
C401 C 0.42334 0.22179 0.73139 0.0
H402 H 0.34141 0.19323 0.80373 0.0
C403 C 0.42216 0.18822 0.72837 0.0
C404 C 0.39139 0.15648 0.75058 0.0
H405 H 0.44649 0.24568 0.71124 0.0
H406 H 0.44446 0.18686 0.70621 0.0
C407 C 0.36306 0.15909 0.77954 0.0
loop_
_geom_bond_atom_site_label_1
_geom_bond_atom_site_label_2
_geom_bond_distance
_geom_bond_site_symmetry_2
_ccdc_geom_bond_type
C0 O1 1.306 1_455 S
C0 O3 1.160 . S
O1 C0 1.306 1_655 S
O1 Cd2 2.228 . S
Cd2 O1 2.228 . S
Cd2 O6 2.273 1_655 S
Cd2 O10 2.277 1_655 S
O3 C0 1.160 . S
O3 Cd4 2.203 . S
Cd4 O3 2.203 . S
Cd4 O6 2.411 . S
Cd4 O7 2.333 . S
Cd4 O8 2.352 . S
Cd4 O12 2.277 . S
Cd4 O13 2.356 . S
C5 O10 1.209 . S
C5 O12 1.226 . S
O6 Cd2 2.273 1_455 S
O6 Cd4 2.411 . S
O6 C9 1.320 . S
O7 Cd4 2.333 . S
O7 C9 1.214 . S
O8 Cd4 2.352 . S
O8 C11 1.258 . S
C9 O6 1.320 . S
C9 O7 1.214 . S
O10 Cd2 2.277 1_455 S
O10 C5 1.209 . S
C11 O8 1.258 . S
C11 O13 1.282 . S
O12 Cd4 2.277 . S
O12 C5 1.226 . S
O13 Cd4 2.356 . S
O13 C11 1.282 . S
C14 O15 1.306 1_545 S
C14 O17 1.160 . S
O15 C14 1.306 1_565 S
O15 Cd16 2.228 . S
Cd16 O15 2.228 . S
Cd16 O20 2.273 1_565 S
Cd16 O24 2.277 1_565 S
O17 C14 1.160 . S
O17 Cd18 2.203 . S
Cd18 O17 2.203 . S
Cd18 O20 2.411 . S
Cd18 O21 2.333 . S
Cd18 O22 2.352 . S
Cd18 O26 2.277 . S
Cd18 O27 2.356 . S
C19 O24 1.209 . S
C19 O26 1.226 . S
O20 Cd16 2.273 1_545 S
O20 Cd18 2.411 . S
O20 C23 1.320 . S
O21 Cd18 2.333 . S
O21 C23 1.214 . S
O22 Cd18 2.352 . S
O22 C25 1.258 . S
C23 O20 1.320 . S
C23 O21 1.214 . S
O24 Cd16 2.277 1_545 S
O24 C19 1.209 . S
C25 O22 1.258 . S
C25 O27 1.282 . S
O26 Cd18 2.277 . S
O26 C19 1.226 . S
O27 Cd18 2.356 . S
O27 C25 1.282 . S
C28 O29 1.306 . S
C28 O31 1.160 . S
O29 C28 1.306 . S
O29 Cd30 2.228 . S
Cd30 O29 2.228 . S
Cd30 O34 2.273 . S
Cd30 O38 2.277 . S
O31 C28 1.160 . S
O31 Cd32 2.203 . S
Cd32 O31 2.203 . S
Cd32 O34 2.411 . S
Cd32 O35 2.333 . S
Cd32 O36 2.352 . S
Cd32 O40 2.277 . S
Cd32 O41 2.356 . S
C33 O38 1.209 . S
C33 O40 1.226 . S
O34 Cd30 2.273 . S
O34 Cd32 2.411 . S
O34 C37 1.320 . S
O35 Cd32 2.333 . S
O35 C37 1.214 . S
O36 Cd32 2.352 . S
O36 C39 1.258 . S
C37 O34 1.320 . S
C37 O35 1.214 . S
O38 Cd30 2.277 . S
O38 C33 1.209 . S
C39 O36 1.258 . S
C39 O41 1.282 . S
O40 Cd32 2.277 . S
O40 C33 1.226 . S
O41 Cd32 2.356 . S
O41 C39 1.282 . S
C42 O43 1.306 1_655 S
C42 O45 1.160 . S
O43 C42 1.306 1_455 S
O43 Cd44 2.228 . S
Cd44 O43 2.228 . S
Cd44 O48 2.273 1_455 S
Cd44 O52 2.277 1_455 S
O45 C42 1.160 . S
O45 Cd46 2.203 . S
Cd46 O45 2.203 . S
Cd46 O48 2.411 . S
Cd46 O49 2.333 . S
Cd46 O50 2.352 . S
Cd46 O54 2.277 . S
Cd46 O55 2.356 . S
C47 O52 1.209 . S
C47 O54 1.226 . S
O48 Cd44 2.273 1_655 S
O48 Cd46 2.411 . S
O48 C51 1.320 . S
O49 Cd46 2.333 . S
O49 C51 1.214 . S
O50 Cd46 2.352 . S
O50 C53 1.258 . S
C51 O48 1.320 . S
C51 O49 1.214 . S
O52 Cd44 2.277 1_655 S
O52 C47 1.209 . S
C53 O50 1.258 . S
C53 O55 1.282 . S
O54 Cd46 2.277 . S
O54 C47 1.226 . S
O55 Cd46 2.356 . S
O55 C53 1.282 . S
C56 O57 1.306 1_565 S
C56 O59 1.160 . S
O57 C56 1.306 1_545 S
O57 Cd58 2.228 . S
Cd58 O57 2.228 . S
Cd58 O62 2.273 1_545 S
Cd58 O66 2.277 1_545 S
O59 C56 1.160 . S
O59 Cd60 2.203 . S
Cd60 O59 2.203 . S
Cd60 O62 2.411 . S
Cd60 O63 2.333 . S
Cd60 O64 2.352 . S
Cd60 O68 2.277 . S
Cd60 O69 2.356 . S
C61 O66 1.209 . S
C61 O68 1.226 . S
O62 Cd58 2.273 1_565 S
O62 Cd60 2.411 . S
O62 C65 1.320 . S
O63 Cd60 2.333 . S
O63 C65 1.214 . S
O64 Cd60 2.352 . S
O64 C67 1.258 . S
C65 O62 1.320 . S
C65 O63 1.214 . S
O66 Cd58 2.277 1_565 S
O66 C61 1.209 . S
C67 O64 1.258 . S
C67 O69 1.282 . S
O68 Cd60 2.277 . S
O68 C61 1.226 . S
O69 Cd60 2.356 . S
O69 C67 1.282 . S
C70 O71 1.306 . S
C70 O73 1.160 . S
O71 C70 1.306 . S
O71 Cd72 2.228 . S
Cd72 O71 2.228 . S
Cd72 O76 2.273 . S
Cd72 O80 2.277 . S
O73 C70 1.160 . S
O73 Cd74 2.203 . S
Cd74 O73 2.203 . S
Cd74 O76 2.411 . S
Cd74 O77 2.333 . S
Cd74 O78 2.352 . S
Cd74 O82 2.277 . S
Cd74 O83 2.356 . S
C75 O80 1.209 . S
C75 O82 1.226 . S
O76 Cd72 2.273 . S
O76 Cd74 2.411 . S
O76 C79 1.320 . S
O77 Cd74 2.333 . S
O77 C79 1.214 . S
O78 Cd74 2.352 . S
O78 C81 1.258 . S
C79 O76 1.320 . S
C79 O77 1.214 . S
O80 Cd72 2.277 . S
O80 C75 1.209 . S
C81 O78 1.258 . S
C81 O83 1.282 . S
O82 Cd74 2.277 . S
O82 C75 1.226 . S
O83 Cd74 2.356 . S
O83 C81 1.282 . S
C84 O85 1.306 1_565 S
C84 O87 1.160 . S
O85 C84 1.306 1_545 S
O85 Cd86 2.228 . S
Cd86 O85 2.228 . S
Cd86 O90 2.273 1_545 S
Cd86 O94 2.277 1_545 S
O87 C84 1.160 . S
O87 Cd88 2.203 . S
Cd88 O87 2.203 . S
Cd88 O90 2.411 . S
Cd88 O91 2.333 . S
Cd88 O92 2.352 . S
Cd88 O96 2.277 . S
Cd88 O97 2.356 . S
C89 O94 1.209 . S
C89 O96 1.226 . S
O90 Cd86 2.273 1_565 S
O90 Cd88 2.411 . S
O90 C93 1.320 . S
O91 Cd88 2.333 . S
O91 C93 1.214 . S
O92 Cd88 2.352 . S
O92 C95 1.258 . S
C93 O90 1.320 . S
C93 O91 1.214 . S
O94 Cd86 2.277 1_565 S
O94 C89 1.209 . S
C95 O92 1.258 . S
C95 O97 1.282 . S
O96 Cd88 2.277 . S
O96 C89 1.226 . S
O97 Cd88 2.356 . S
O97 C95 1.282 . S
C98 O99 1.306 . S
C98 O101 1.160 . S
O99 C98 1.306 . S
O99 Cd100 2.228 . S
Cd100 O99 2.228 . S
Cd100 O104 2.273 . S
Cd100 O108 2.277 . S
O101 C98 1.160 . S
O101 Cd102 2.203 . S
Cd102 O101 2.203 . S
Cd102 O104 2.411 . S
Cd102 O105 2.333 . S
Cd102 O106 2.352 . S
Cd102 O110 2.277 . S
Cd102 O111 2.356 . S
C103 O108 1.209 . S
C103 O110 1.226 . S
O104 Cd100 2.273 . S
O104 Cd102 2.411 . S
O104 C107 1.320 . S
O105 Cd102 2.333 . S
O105 C107 1.214 . S
O106 Cd102 2.352 . S
O106 C109 1.258 . S
C107 O104 1.320 . S
C107 O105 1.214 . S
O108 Cd100 2.277 . S
O108 C103 1.209 . S
C109 O106 1.258 . S
C109 O111 1.282 . S
O110 Cd102 2.277 . S
O110 C103 1.226 . S
O111 Cd102 2.356 . S
O111 C109 1.282 . S
C112 O113 1.306 1_455 S
C112 O115 1.160 . S
O113 C112 1.306 1_655 S
O113 Cd114 2.228 . S
Cd114 O113 2.228 . S
Cd114 O118 2.273 1_655 S
Cd114 O122 2.277 1_655 S
O115 C112 1.160 . S
O115 Cd116 2.203 . S
Cd116 O115 2.203 . S
Cd116 O118 2.411 . S
Cd116 O119 2.333 . S
Cd116 O120 2.352 . S
Cd116 O124 2.277 . S
Cd116 O125 2.356 . S
C117 O122 1.209 . S
C117 O124 1.226 . S
O118 Cd114 2.273 1_455 S
O118 Cd116 2.411 . S
O118 C121 1.320 . S
O119 Cd116 2.333 . S
O119 C121 1.214 . S
O120 Cd116 2.352 . S
O120 C123 1.258 . S
C121 O118 1.320 . S
C121 O119 1.214 . S
O122 Cd114 2.277 1_455 S
O122 C117 1.209 . S
C123 O120 1.258 . S
C123 O125 1.282 . S
O124 Cd116 2.277 . S
O124 C117 1.226 . S
O125 Cd116 2.356 . S
O125 C123 1.282 . S
C126 O127 1.306 1_545 S
C126 O129 1.160 . S
O127 C126 1.306 1_565 S
O127 Cd128 2.228 . S
Cd128 O127 2.228 . S
Cd128 O132 2.273 1_565 S
Cd128 O136 2.277 1_565 S
O129 C126 1.160 . S
O129 Cd130 2.203 . S
Cd130 O129 2.203 . S
Cd130 O132 2.411 . S
Cd130 O133 2.333 . S
Cd130 O134 2.352 . S
Cd130 O138 2.277 . S
Cd130 O139 2.356 . S
C131 O136 1.209 . S
C131 O138 1.226 . S
O132 Cd128 2.273 1_545 S
O132 Cd130 2.411 . S
O132 C135 1.320 . S
O133 Cd130 2.333 . S
O133 C135 1.214 . S
O134 Cd130 2.352 . S
O134 C137 1.258 . S
C135 O132 1.320 . S
C135 O133 1.214 . S
O136 Cd128 2.277 1_545 S
O136 C131 1.209 . S
C137 O134 1.258 . S
C137 O139 1.282 . S
O138 Cd130 2.277 . S
O138 C131 1.226 . S
O139 Cd130 2.356 . S
O139 C137 1.282 . S
C140 O141 1.306 . S
C140 O143 1.160 . S
O141 C140 1.306 . S
O141 Cd142 2.228 . S
Cd142 O141 2.228 . S
Cd142 O146 2.273 . S
Cd142 O150 2.277 . S
O143 C140 1.160 . S
O143 Cd144 2.203 . S
Cd144 O143 2.203 . S
Cd144 O146 2.411 . S
Cd144 O147 2.333 . S
Cd144 O148 2.352 . S
Cd144 O152 2.277 . S
Cd144 O153 2.356 . S
C145 O150 1.209 . S
C145 O152 1.226 . S
O146 Cd142 2.273 . S
O146 Cd144 2.411 . S
O146 C149 1.320 . S
O147 Cd144 2.333 . S
O147 C149 1.214 . S
O148 Cd144 2.352 . S
O148 C151 1.258 . S
C149 O146 1.320 . S
C149 O147 1.214 . S
O150 Cd142 2.277 . S
O150 C145 1.209 . S
C151 O148 1.258 . S
C151 O153 1.282 . S
O152 Cd144 2.277 . S
O152 C145 1.226 . S
O153 Cd144 2.356 . S
O153 C151 1.282 . S
C154 O155 1.306 1_655 S
C154 O157 1.160 . S
O155 C154 1.306 1_455 S
O155 Cd156 2.228 . S
Cd156 O155 2.228 . S
Cd156 O160 2.273 1_455 S
Cd156 O164 2.277 1_455 S
O157 C154 1.160 . S
O157 Cd158 2.203 . S
Cd158 O157 2.203 . S
Cd158 O160 2.411 . S
Cd158 O161 2.333 . S
Cd158 O162 2.352 . S
Cd158 O166 2.277 . S
Cd158 O167 2.356 . S
C159 O164 1.209 . S
C159 O166 1.226 . S
O160 Cd156 2.273 1_655 S
O160 Cd158 2.411 . S
O160 C163 1.320 . S
O161 Cd158 2.333 . S
O161 C163 1.214 . S
O162 Cd158 2.352 . S
O162 C165 1.258 . S
C163 O160 1.320 . S
C163 O161 1.214 . S
O164 Cd156 2.277 1_655 S
O164 C159 1.209 . S
C165 O162 1.258 . S
C165 O167 1.282 . S
O166 Cd158 2.277 . S
O166 C159 1.226 . S
O167 Cd158 2.356 . S
O167 C165 1.282 . S
C168 C169 1.387 . S
C168 H172 0.950 . S
C168 C177 1.390 1_554 S
C169 C168 1.387 . S
C169 C171 1.387 1_455 S
H170 C177 0.950 . S
C171 C169 1.387 1_655 S
C171 C173 1.390 1_554 S
C171 H175 0.950 . S
H172 C168 0.950 . S
C173 C171 1.390 1_556 S
C173 C174 1.387 . S
C173 H176 0.950 . S
C174 C173 1.387 . S
C174 C177 1.387 1_655 S
H175 C171 0.950 . S
H176 C173 0.950 . S
C177 C168 1.390 1_556 S
C177 H170 0.950 . S
C177 C174 1.387 1_455 S
C178 C179 1.387 . S
C178 H182 0.950 . S
C178 C187 1.390 1_565 S
C179 C178 1.387 . S
C179 C181 1.387 . S
H180 C187 0.950 . S
C181 C179 1.387 . S
C181 C183 1.390 1_565 S
C181 H185 0.950 . S
H182 C178 0.950 . S
C183 C181 1.390 1_545 S
C183 C184 1.387 . S
C183 H186 0.950 . S
C184 C183 1.387 . S
C184 C187 1.387 . S
H185 C181 0.950 . S
H186 C183 0.950 . S
C187 C178 1.390 1_545 S
C187 H180 0.950 . S
C187 C184 1.387 . S
C188 C189 1.387 . S
C188 H192 0.950 . S
C188 C197 1.390 1_554 S
C189 C188 1.387 . S
C189 C191 1.387 . S
H190 C197 0.950 . S
C191 C189 1.387 . S
C191 C193 1.390 1_554 S
C191 H195 0.950 . S
H192 C188 0.950 . S
C193 C191 1.390 1_556 S
C193 C194 1.387 . S
C193 H196 0.950 . S
C194 C193 1.387 . S
C194 C197 1.387 . S
H195 C191 0.950 . S
H196 C193 0.950 . S
C197 C188 1.390 1_556 S
C197 H190 0.950 . S
C197 C194 1.387 . S
C198 C199 1.387 . S
C198 H202 0.950 . S
C198 C207 1.390 . S
C199 C198 1.387 . S
C199 C201 1.387 1_455 S
H200 C207 0.950 . S
C201 C199 1.387 1_655 S
C201 C203 1.390 . S
C201 H205 0.950 . S
H202 C198 0.950 . S
C203 C201 1.390 . S
C203 C204 1.387 . S
C203 H206 0.950 . S
C204 C203 1.387 . S
C204 C207 1.387 1_655 S
H205 C201 0.950 . S
H206 C203 0.950 . S
C207 C198 1.390 . S
C207 H200 0.950 . S
C207 C204 1.387 1_455 S
C208 C209 1.387 . S
C208 H212 0.950 . S
C208 C217 1.390 1_546 S
C209 C208 1.387 . S
C209 C211 1.387 . S
H210 C217 0.950 . S
C211 C209 1.387 . S
C211 C213 1.390 1_546 S
C211 H215 0.950 . S
H212 C208 0.950 . S
C213 C211 1.390 1_564 S
C213 C214 1.387 . S
C213 H216 0.950 . S
C214 C213 1.387 . S
C214 C217 1.387 . S
H215 C211 0.950 . S
H216 C213 0.950 . S
C217 C208 1.390 1_564 S
C217 H210 0.950 . S
C217 C214 1.387 . S
C218 C219 1.387 . S
C218 H222 0.950 . S
C218 C227 1.390 . S
C219 C218 1.387 . S
C219 C221 1.387 . S
H220 C227 0.950 . S
C221 C219 1.387 . S
C221 C223 1.390 . S
C221 H225 0.950 . S
H222 C218 0.950 . S
C223 C221 1.390 . S
C223 C224 1.387 . S
C223 H226 0.950 . S
C224 C223 1.387 . S
C224 C227 1.387 . S
H225 C221 0.950 . S
H226 C223 0.950 . S
C227 C218 1.390 . S
C227 H220 0.950 . S
C227 C224 1.387 . S
C228 C229 1.387 1_455 S
C228 H232 0.950 . S
C228 C237 1.390 1_556 S
C229 C228 1.387 1_655 S
C229 C231 1.387 . S
H230 C237 0.950 . S
C231 C229 1.387 . S
C231 C233 1.390 1_556 S
C231 H235 0.950 . S
H232 C228 0.950 . S
C233 C231 1.390 1_554 S
C233 C234 1.387 1_655 S
C233 H236 0.950 . S
C234 C233 1.387 1_455 S
C234 C237 1.387 . S
H235 C231 0.950 . S
H236 C233 0.950 . S
C237 C228 1.390 1_554 S
C237 H230 0.950 . S
C237 C234 1.387 . S
C238 C239 1.387 . S
C238 H242 0.950 . S
C238 C247 1.390 1_565 S
C239 C238 1.387 . S
C239 C241 1.387 . S
H240 C247 0.950 . S
C241 C239 1.387 . S
C241 C243 1.390 1_565 S
C241 H245 0.950 . S
H242 C238 0.950 . S
C243 C241 1.390 1_545 S
C243 C244 1.387 . S
C243 H246 0.950 . S
C244 C243 1.387 . S
C244 C247 1.387 . S
H245 C241 0.950 . S
H246 C243 0.950 . S
C247 C238 1.390 1_545 S
C247 H240 0.950 . S
C247 C244 1.387 . S
C248 C249 1.387 . S
C248 H252 0.950 . S
C248 C257 1.390 1_556 S
C249 C248 1.387 . S
C249 C251 1.387 . S
H250 C257 0.950 . S
C251 C249 1.387 . S
C251 C253 1.390 1_556 S
C251 H255 0.950 . S
H252 C248 0.950 . S
C253 C251 1.390 1_554 S
C253 C254 1.387 . S
C253 H256 0.950 . S
C254 C253 1.387 . S
C254 C257 1.387 . S
H255 C251 0.950 . S
H256 C253 0.950 . S
C257 C248 1.390 1_554 S
C257 H250 0.950 . S
C257 C254 1.387 . S
C258 C259 1.387 1_455 S
C258 H262 0.950 . S
C258 C267 1.390 . S
C259 C258 1.387 1_655 S
C259 C261 1.387 . S
H260 C267 0.950 . S
C261 C259 1.387 . S
C261 C263 1.390 . S
C261 H265 0.950 . S
H262 C258 0.950 . S
C263 C261 1.390 . S
C263 C264 1.387 1_655 S
C263 H266 0.950 . S
C264 C263 1.387 1_455 S
C264 C267 1.387 . S
H265 C261 0.950 . S
H266 C263 0.950 . S
C267 C258 1.390 . S
C267 H260 0.950 . S
C267 C264 1.387 . S
C268 C269 1.387 . S
C268 H272 0.950 . S
C268 C277 1.390 1_546 S
C269 C268 1.387 . S
C269 C271 1.387 . S
H270 C277 0.950 . S
C271 C269 1.387 . S
C271 C273 1.390 1_546 S
C271 H275 0.950 . S
H272 C268 0.950 . S
C273 C271 1.390 1_564 S
C273 C274 1.387 . S
C273 H276 0.950 . S
C274 C273 1.387 . S
C274 C277 1.387 . S
H275 C271 0.950 . S
H276 C273 0.950 . S
C277 C268 1.390 1_564 S
C277 H270 0.950 . S
C277 C274 1.387 . S
C278 C279 1.387 . S
C278 H282 0.950 . S
C278 C287 1.390 . S
C279 C278 1.387 . S
C279 C281 1.387 . S
H280 C287 0.950 . S
C281 C279 1.387 . S
C281 C283 1.390 . S
C281 H285 0.950 . S
H282 C278 0.950 . S
C283 C281 1.390 . S
C283 C284 1.387 . S
C283 H286 0.950 . S
C284 C283 1.387 . S
C284 C287 1.387 . S
H285 C281 0.950 . S
H286 C283 0.950 . S
C287 C278 1.390 . S
C287 H280 0.950 . S
C287 C284 1.387 . S
C288 C289 1.387 . S
C288 H292 0.950 . S
C288 C297 1.390 . S
C289 C288 1.387 . S
C289 C291 1.387 . S
H290 C297 0.950 . S
C291 C289 1.387 . S
C291 C293 1.390 . S
C291 H295 0.950 . S
H292 C288 0.950 . S
C293 C291 1.390 . S
C293 C294 1.387 . S
C293 H296 0.950 . S
C294 C293 1.387 . S
C294 C297 1.387 . S
H295 C291 0.950 . S
H296 C293 0.950 . S
C297 C288 1.390 . S
C297 H290 0.950 . S
C297 C294 1.387 . S
C298 C299 1.387 . S
C298 H302 0.950 . S
C298 C307 1.390 . S
C299 C298 1.387 . S
C299 C301 1.387 . S
H300 C307 0.950 . S
C301 C299 1.387 . S
C301 C303 1.390 . S
C301 H305 0.950 1_545 S
H302 C298 0.950 . S
C303 C301 1.390 . S
C303 C304 1.387 . S
C303 H306 0.950 1_545 S
C304 C303 1.387 . S
C304 C307 1.387 . S
H305 C301 0.950 1_565 S
H306 C303 0.950 1_565 S
C307 C298 1.390 . S
C307 H300 0.950 . S
C307 C304 1.387 . S
C308 C309 1.387 . S
C308 H312 0.950 . S
C308 C317 1.390 . S
C309 C308 1.387 . S
C309 C311 1.387 . S
H310 C317 0.950 . S
C311 C309 1.387 . S
C311 C313 1.390 . S
C311 H315 0.950 . S
H312 C308 0.950 . S
C313 C311 1.390 . S
C313 C314 1.387 . S
C313 H316 0.950 . S
C314 C313 1.387 . S
C314 C317 1.387 . S
H315 C311 0.950 . S
H316 C313 0.950 . S
C317 C308 1.390 . S
C317 H310 0.950 . S
C317 C314 1.387 . S
C318 C319 1.387 . S
C318 H322 0.950 . S
C318 C327 1.390 . S
C319 C318 1.387 . S
C319 C321 1.387 . S
H320 C327 0.950 . S
C321 C319 1.387 . S
C321 C323 1.390 . S
C321 H325 0.950 . S
H322 C318 0.950 . S
C323 C321 1.390 . S
C323 C324 1.387 . S
C323 H326 0.950 . S
C324 C323 1.387 . S
C324 C327 1.387 . S
H325 C321 0.950 . S
H326 C323 0.950 . S
C327 C318 1.390 . S
C327 H320 0.950 . S
C327 C324 1.387 . S
C328 C329 1.387 . S
C328 H332 0.950 1_565 S
C328 C337 1.390 . S
C329 C328 1.387 . S
C329 C331 1.387 . S
H330 C337 0.950 1_545 S
C331 C329 1.387 . S
C331 C333 1.390 . S
C331 H335 0.950 . S
H332 C328 0.950 1_545 S
C333 C331 1.390 . S
C333 C334 1.387 . S
C333 H336 0.950 . S
C334 C333 1.387 . S
C334 C337 1.387 . S
H335 C331 0.950 . S
H336 C333 0.950 . S
C337 C328 1.390 . S
C337 H330 0.950 1_565 S
C337 C334 1.387 . S
C338 C339 1.387 . S
C338 H342 0.950 . S
C338 C347 1.390 . S
C339 C338 1.387 . S
C339 C341 1.387 . S
H340 C347 0.950 . S
C341 C339 1.387 . S
C341 C343 1.390 . S
C341 H345 0.950 . S
H342 C338 0.950 . S
C343 C341 1.390 . S
C343 C344 1.387 . S
C343 H346 0.950 . S
C344 C343 1.387 . S
C344 C347 1.387 . S
H345 C341 0.950 . S
H346 C343 0.950 . S
C347 C338 1.390 . S
C347 H340 0.950 . S
C347 C344 1.387 . S
C348 C349 1.387 . S
C348 H352 0.950 . S
C348 C357 1.390 . S
C349 C348 1.387 . S
C349 C351 1.387 . S
H350 C357 0.950 . S
C351 C349 1.387 . S
C351 C353 1.390 . S
C351 H355 0.950 . S
H352 C348 0.950 . S
C353 C351 1.390 . S
C353 C354 1.387 . S
C353 H356 0.950 . S
C354 C353 1.387 . S
C354 C357 1.387 . S
H355 C351 0.950 . S
H356 C353 0.950 . S
C357 C348 1.390 . S
C357 H350 0.950 . S
C357 C354 1.387 . S
C358 C359 1.387 . S
C358 H362 0.950 . S
C358 C367 1.390 . S
C359 C358 1.387 . S
C359 C361 1.387 . S
H360 C367 0.950 . S
C361 C359 1.387 . S
C361 C363 1.390 . S
C361 H365 0.950 . S
H362 C358 0.950 . S
C363 C361 1.390 . S
C363 C364 1.387 . S
C363 H366 0.950 . S
C364 C363 1.387 . S
C364 C367 1.387 . S
H365 C361 0.950 . S
H366 C363 0.950 . S
C367 C358 1.390 . S
C367 H360 0.950 . S
C367 C364 1.387 . S
C368 C369 1.387 . S
C368 H372 0.950 . S
C368 C377 1.390 . S
C369 C368 1.387 . S
C369 C371 1.387 . S
H370 C377 0.950 . S
C371 C369 1.387 . S
C371 C373 1.390 . S
C371 H375 0.950 . S
H372 C368 0.950 . S
C373 C371 1.390 . S
C373 C374 1.387 . S
C373 H376 0.950 . S
C374 C373 1.387 . S
C374 C377 1.387 . S
H375 C371 0.950 . S
H376 C373 0.950 . S
C377 C368 1.390 . S
C377 H370 0.950 . S
C377 C374 1.387 . S
C378 C379 1.387 . S
C378 H382 0.950 . S
C378 C387 1.390 . S
C379 C378 1.387 . S
C379 C381 1.387 . S
H380 C387 0.950 . S
C381 C379 1.387 . S
C381 C383 1.390 . S
C381 H385 0.950 . S
H382 C378 0.950 . S
C383 C381 1.390 . S
C383 C384 1.387 . S
C383 H386 0.950 . S
C384 C383 1.387 . S
C384 C387 1.387 . S
H385 C381 0.950 . S
H386 C383 0.950 . S
C387 C378 1.390 . S
C387 H380 0.950 . S
C387 C384 1.387 . S
C388 C389 1.387 . S
C388 H392 0.950 . S
C388 C397 1.390 . S
C389 C388 1.387 . S
C389 C391 1.387 . S
H390 C397 0.950 . S
C391 C389 1.387 . S
C391 C393 1.390 . S
C391 H395 0.950 . S
H392 C388 0.950 . S
C393 C391 1.390 . S
C393 C394 1.387 . S
C393 H396 0.950 . S
C394 C393 1.387 . S
C394 C397 1.387 . S
H395 C391 0.950 . S
H396 C393 0.950 . S
C397 C388 1.390 . S
C397 H390 0.950 . S
C397 C394 1.387 . S
C398 C399 1.387 . S
C398 H402 0.950 . S
C398 C407 1.390 . S
C399 C398 1.387 . S
C399 C401 1.387 . S
H400 C407 0.950 . S
C401 C399 1.387 . S
C401 C403 1.390 . S
C401 H405 0.950 . S
H402 C398 0.950 . S
C403 C401 1.390 . S
C403 C404 1.387 . S
C403 H406 0.950 . S
C404 C403 1.387 . S
C404 C407 1.387 . S
H405 C401 0.950 . S
H406 C403 0.950 . S
C407 C398 1.390 . S
C407 H400 0.950 . S
C407 C404 1.387 . S
C169 C9 1.424 . S
C174 C163 1.424 . S
C179 C93 1.422 . S
C184 C23 1.422 . S
C189 C37 1.422 . S
C194 C107 1.422 . S
C199 C121 1.422 . S
C204 C51 1.423 . S
C209 C135 1.424 . S
C214 C65 1.424 . S
C219 C149 1.424 . S
C224 C79 1.424 . S
C229 C42 1.375 . S
C234 C112 1.375 . S
C239 C56 1.375 . S
C244 C126 1.375 . S
C249 C70 1.375 . S
C254 C140 1.374 . S
C259 C154 1.374 . S
C264 C0 1.376 . S
C269 C14 1.375 . S
C274 C84 1.375 . S
C279 C28 1.374 . S
C284 C98 1.375 . S
C289 C117 1.623 . S
C294 C5 1.623 . S
C299 C131 1.623 . S
C304 C19 1.623 . S
C309 C33 1.623 . S
C314 C145 1.623 . S
C319 C47 1.623 . S
C324 C159 1.623 . S
C329 C61 1.623 . S
C334 C89 1.623 . S
C339 C103 1.623 . S
C344 C75 1.623 . S
C349 C11 1.584 . S
C354 C151 1.584 . S
C359 C165 1.585 . S
C364 C25 1.583 . S
C369 C39 1.583 . S
C374 C95 1.584 . S
C379 C53 1.584 . S
C384 C109 1.584 . S
C389 C67 1.584 . S
C394 C123 1.583 . S
C399 C81 1.583 . S
C404 C137 1.584 . S
