# Generated by pormake.
# Topology uml, (4)-cn, num edge types: 1
# Building blocks:
#     Node 0, Type 0, BuildingBlock: NAWXER_clean_sbu_0, # of connection points: 4
#     Node 1, Type 0, BuildingBlock: NAWXER_clean_sbu_0, # of connection points: 4
#     Node 2, Type 0, BuildingBlock: NAWXER_clean_sbu_0, # of connection points: 4
#     Node 3, Type 0, BuildingBlock: NAWXER_clean_sbu_0, # of connection points: 4
#     Node 4, Type 0, BuildingBlock: NAWXER_clean_sbu_0, # of connection points: 4
#     Node 5, Type 0, BuildingBlock: NAWXER_clean_sbu_0, # of connection points: 4
#     Node 6, Type 0, BuildingBlock: NAWXER_clean_sbu_0, # of connection points: 4
#     Node 7, Type 0, BuildingBlock: NAWXER_clean_sbu_0, # of connection points: 4
#     Node 8, Type 0, BuildingBlock: NAWXER_clean_sbu_0, # of connection points: 4
#     Node 9, Type 0, BuildingBlock: NAWXER_clean_sbu_0, # of connection points: 4
#     Node 10, Type 0, BuildingBlock: NAWXER_clean_sbu_0, # of connection points: 4
#     Node 11, Type 0, BuildingBlock: NAWXER_clean_sbu_0, # of connection points: 4
#     Node 12, Type 0, BuildingBlock: NAWXER_clean_sbu_0, # of connection points: 4
#     Node 13, Type 0, BuildingBlock: NAWXER_clean_sbu_0, # of connection points: 4
#     Node 14, Type 0, BuildingBlock: NAWXER_clean_sbu_0, # of connection points: 4
#     Node 15, Type 0, BuildingBlock: NAWXER_clean_sbu_0, # of connection points: 4
#     Node 16, Type 0, BuildingBlock: NAWXER_clean_sbu_0, # of connection points: 4
#     Node 17, Type 0, BuildingBlock: NAWXER_clean_sbu_0, # of connection points: 4
#     Node 18, Type 0, BuildingBlock: NAWXER_clean_sbu_0, # of connection points: 4
#     Node 19, Type 0, BuildingBlock: NAWXER_clean_sbu_0, # of connection points: 4
#     Node 20, Type 0, BuildingBlock: NAWXER_clean_sbu_0, # of connection points: 4
#     Node 21, Type 0, BuildingBlock: NAWXER_clean_sbu_0, # of connection points: 4
#     Node 22, Type 0, BuildingBlock: NAWXER_clean_sbu_0, # of connection points: 4
#     Node 23, Type 0, BuildingBlock: NAWXER_clean_sbu_0, # of connection points: 4
#     Node 24, Type 0, BuildingBlock: NAWXER_clean_sbu_0, # of connection points: 4
#     Node 25, Type 0, BuildingBlock: NAWXER_clean_sbu_0, # of connection points: 4
#     Node 26, Type 0, BuildingBlock: NAWXER_clean_sbu_0, # of connection points: 4
#     Node 27, Type 0, BuildingBlock: NAWXER_clean_sbu_0, # of connection points: 4
#     Node 28, Type 0, BuildingBlock: NAWXER_clean_sbu_0, # of connection points: 4
#     Node 29, Type 0, BuildingBlock: NAWXER_clean_sbu_0, # of connection points: 4
#     Node 30, Type 0, BuildingBlock: NAWXER_clean_sbu_0, # of connection points: 4
#     Node 31, Type 0, BuildingBlock: NAWXER_clean_sbu_0, # of connection points: 4
#     Node 32, Type 0, BuildingBlock: NAWXER_clean_sbu_0, # of connection points: 4
#     Node 33, Type 0, BuildingBlock: NAWXER_clean_sbu_0, # of connection points: 4
#     Node 34, Type 0, BuildingBlock: NAWXER_clean_sbu_0, # of connection points: 4
#     Node 35, Type 0, BuildingBlock: NAWXER_clean_sbu_0, # of connection points: 4
#     Edge 36, Type (0, 0), BuildingBlock: KIFKEQ_clean_linker_1, # of connection points: 2
#     Edge 37, Type (0, 0), BuildingBlock: KIFKEQ_clean_linker_1, # of connection points: 2
#     Edge 38, Type (0, 0), BuildingBlock: KIFKEQ_clean_linker_1, # of connection points: 2
#     Edge 39, Type (0, 0), BuildingBlock: KIFKEQ_clean_linker_1, # of connection points: 2
#     Edge 40, Type (0, 0), BuildingBlock: KIFKEQ_clean_linker_1, # of connection points: 2
#     Edge 41, Type (0, 0), BuildingBlock: KIFKEQ_clean_linker_1, # of connection points: 2
#     Edge 42, Type (0, 0), BuildingBlock: KIFKEQ_clean_linker_1, # of connection points: 2
#     Edge 43, Type (0, 0), BuildingBlock: KIFKEQ_clean_linker_1, # of connection points: 2
#     Edge 44, Type (0, 0), BuildingBlock: KIFKEQ_clean_linker_1, # of connection points: 2
#     Edge 45, Type (0, 0), BuildingBlock: KIFKEQ_clean_linker_1, # of connection points: 2
#     Edge 46, Type (0, 0), BuildingBlock: KIFKEQ_clean_linker_1, # of connection points: 2
#     Edge 47, Type (0, 0), BuildingBlock: KIFKEQ_clean_linker_1, # of connection points: 2
#     Edge 48, Type (0, 0), BuildingBlock: KIFKEQ_clean_linker_1, # of connection points: 2
#     Edge 49, Type (0, 0), BuildingBlock: KIFKEQ_clean_linker_1, # of connection points: 2
#     Edge 50, Type (0, 0), BuildingBlock: KIFKEQ_clean_linker_1, # of connection points: 2
#     Edge 51, Type (0, 0), BuildingBlock: KIFKEQ_clean_linker_1, # of connection points: 2
#     Edge 52, Type (0, 0), BuildingBlock: KIFKEQ_clean_linker_1, # of connection points: 2
#     Edge 53, Type (0, 0), BuildingBlock: KIFKEQ_clean_linker_1, # of connection points: 2
#     Edge 54, Type (0, 0), BuildingBlock: KIFKEQ_clean_linker_1, # of connection points: 2
#     Edge 55, Type (0, 0), BuildingBlock: KIFKEQ_clean_linker_1, # of connection points: 2
#     Edge 56, Type (0, 0), BuildingBlock: KIFKEQ_clean_linker_1, # of connection points: 2
#     Edge 57, Type (0, 0), BuildingBlock: KIFKEQ_clean_linker_1, # of connection points: 2
#     Edge 58, Type (0, 0), BuildingBlock: KIFKEQ_clean_linker_1, # of connection points: 2
#     Edge 59, Type (0, 0), BuildingBlock: KIFKEQ_clean_linker_1, # of connection points: 2
#     Edge 60, Type (0, 0), BuildingBlock: KIFKEQ_clean_linker_1, # of connection points: 2
#     Edge 61, Type (0, 0), BuildingBlock: KIFKEQ_clean_linker_1, # of connection points: 2
#     Edge 62, Type (0, 0), BuildingBlock: KIFKEQ_clean_linker_1, # of connection points: 2
#     Edge 63, Type (0, 0), BuildingBlock: KIFKEQ_clean_linker_1, # of connection points: 2
#     Edge 64, Type (0, 0), BuildingBlock: KIFKEQ_clean_linker_1, # of connection points: 2
#     Edge 65, Type (0, 0), BuildingBlock: KIFKEQ_clean_linker_1, # of connection points: 2
#     Edge 66, Type (0, 0), BuildingBlock: KIFKEQ_clean_linker_1, # of connection points: 2
#     Edge 67, Type (0, 0), BuildingBlock: KIFKEQ_clean_linker_1, # of connection points: 2
#     Edge 68, Type (0, 0), BuildingBlock: KIFKEQ_clean_linker_1, # of connection points: 2
#     Edge 69, Type (0, 0), BuildingBlock: KIFKEQ_clean_linker_1, # of connection points: 2
#     Edge 70, Type (0, 0), BuildingBlock: KIFKEQ_clean_linker_1, # of connection points: 2
#     Edge 71, Type (0, 0), BuildingBlock: KIFKEQ_clean_linker_1, # of connection points: 2
#     Edge 72, Type (0, 0), BuildingBlock: KIFKEQ_clean_linker_1, # of connection points: 2
#     Edge 73, Type (0, 0), BuildingBlock: KIFKEQ_clean_linker_1, # of connection points: 2
#     Edge 74, Type (0, 0), BuildingBlock: KIFKEQ_clean_linker_1, # of connection points: 2
#     Edge 75, Type (0, 0), BuildingBlock: KIFKEQ_clean_linker_1, # of connection points: 2
#     Edge 76, Type (0, 0), BuildingBlock: KIFKEQ_clean_linker_1, # of connection points: 2
#     Edge 77, Type (0, 0), BuildingBlock: KIFKEQ_clean_linker_1, # of connection points: 2
#     Edge 78, Type (0, 0), BuildingBlock: KIFKEQ_clean_linker_1, # of connection points: 2
#     Edge 79, Type (0, 0), BuildingBlock: KIFKEQ_clean_linker_1, # of connection points: 2
#     Edge 80, Type (0, 0), BuildingBlock: KIFKEQ_clean_linker_1, # of connection points: 2
#     Edge 81, Type (0, 0), BuildingBlock: KIFKEQ_clean_linker_1, # of connection points: 2
#     Edge 82, Type (0, 0), BuildingBlock: KIFKEQ_clean_linker_1, # of connection points: 2
#     Edge 83, Type (0, 0), BuildingBlock: KIFKEQ_clean_linker_1, # of connection points: 2
#     Edge 84, Type (0, 0), BuildingBlock: KIFKEQ_clean_linker_1, # of connection points: 2
#     Edge 85, Type (0, 0), BuildingBlock: KIFKEQ_clean_linker_1, # of connection points: 2
#     Edge 86, Type (0, 0), BuildingBlock: KIFKEQ_clean_linker_1, # of connection points: 2
#     Edge 87, Type (0, 0), BuildingBlock: KIFKEQ_clean_linker_1, # of connection points: 2
#     Edge 88, Type (0, 0), BuildingBlock: KIFKEQ_clean_linker_1, # of connection points: 2
#     Edge 89, Type (0, 0), BuildingBlock: KIFKEQ_clean_linker_1, # of connection points: 2
#     Edge 90, Type (0, 0), BuildingBlock: KIFKEQ_clean_linker_1, # of connection points: 2
#     Edge 91, Type (0, 0), BuildingBlock: KIFKEQ_clean_linker_1, # of connection points: 2
#     Edge 92, Type (0, 0), BuildingBlock: KIFKEQ_clean_linker_1, # of connection points: 2
#     Edge 93, Type (0, 0), BuildingBlock: KIFKEQ_clean_linker_1, # of connection points: 2
#     Edge 94, Type (0, 0), BuildingBlock: KIFKEQ_clean_linker_1, # of connection points: 2
#     Edge 95, Type (0, 0), BuildingBlock: KIFKEQ_clean_linker_1, # of connection points: 2
#     Edge 96, Type (0, 0), BuildingBlock: KIFKEQ_clean_linker_1, # of connection points: 2
#     Edge 97, Type (0, 0), BuildingBlock: KIFKEQ_clean_linker_1, # of connection points: 2
#     Edge 98, Type (0, 0), BuildingBlock: KIFKEQ_clean_linker_1, # of connection points: 2
#     Edge 99, Type (0, 0), BuildingBlock: KIFKEQ_clean_linker_1, # of connection points: 2
#     Edge 100, Type (0, 0), BuildingBlock: KIFKEQ_clean_linker_1, # of connection points: 2
#     Edge 101, Type (0, 0), BuildingBlock: KIFKEQ_clean_linker_1, # of connection points: 2
#     Edge 102, Type (0, 0), BuildingBlock: KIFKEQ_clean_linker_1, # of connection points: 2
#     Edge 103, Type (0, 0), BuildingBlock: KIFKEQ_clean_linker_1, # of connection points: 2
#     Edge 104, Type (0, 0), BuildingBlock: KIFKEQ_clean_linker_1, # of connection points: 2
#     Edge 105, Type (0, 0), BuildingBlock: KIFKEQ_clean_linker_1, # of connection points: 2
#     Edge 106, Type (0, 0), BuildingBlock: KIFKEQ_clean_linker_1, # of connection points: 2
#     Edge 107, Type (0, 0), BuildingBlock: KIFKEQ_clean_linker_1, # of connection points: 2
# Relax obj value: 0.036
# Max RMSD: 0.159
# Mean RMSD: 0.157
data_MOF--net-uml--node1-NAWXER_clean_sbu_0--edge1-KIFKEQ_clean_linker_1
_symmetry_space_group_name_H-M    P1
_symmetry_Int_Tables_number       1
_symmetry_cell_setting            triclinic
loop_
_symmetry_equiv_pos_as_xyz
'x, y, z'
_cell_length_a     99.639682
_cell_length_b     99.628144
_cell_length_c     29.676132
_cell_angle_alpha  90.000574
_cell_angle_beta   89.997778
_cell_angle_gamma 119.9872
loop_
_atom_site_label
_atom_site_type_symbol
_atom_site_fract_x
_atom_site_fract_y
_atom_site_fract_z
_atom_type_partial_charge
C0 C 0.35455 0.12999 0.17567 0.0
C1 C 0.37694 0.09666 0.15333 0.0
O2 O 0.34428 0.11558 0.1732 0.0
Zn3 Zn 0.34356 0.09371 0.16812 0.0
O4 O 0.36883 0.13396 0.17626 0.0
Zn5 Zn 0.36602 0.11333 0.17043 0.0
O6 O 0.35531 0.10655 0.10427 0.0
O7 O 0.33207 0.08596 0.11319 0.0
O8 O 0.38415 0.11108 0.16216 0.0
O9 O 0.3621 0.08907 0.15543 0.0
O10 O 0.33387 0.08299 0.22315 0.0
O11 O 0.35694 0.10319 0.2353 0.0
C12 C 0.34247 0.09595 0.08741 0.0
C13 C 0.34445 0.09164 0.25056 0.0
C14 C 0.90943 0.24908 0.08721 0.0
C15 C 0.91283 0.25409 0.25058 0.0
O16 O 0.89832 0.25045 0.10415 0.0
Zn17 Zn 0.89087 0.25331 0.17025 0.0
O18 O 0.91962 0.24907 0.11301 0.0
Zn19 Zn 0.91114 0.25171 0.16822 0.0
O20 O 0.8898 0.2298 0.17206 0.0
O21 O 0.87073 0.23497 0.17511 0.0
O22 O 0.92184 0.25273 0.22317 0.0
O23 O 0.90103 0.25458 0.23531 0.0
O24 O 0.89179 0.273 0.16269 0.0
O25 O 0.9147 0.27474 0.15831 0.0
C26 C 0.87525 0.2251 0.17428 0.0
C27 C 0.9063 0.28114 0.15608 0.0
C28 C 0.75654 0.66114 0.08604 0.0
C29 C 0.75042 0.65958 0.24925 0.0
O30 O 0.75421 0.64832 0.10325 0.0
Zn31 Zn 0.75026 0.63775 0.16949 0.0
O32 O 0.75708 0.67167 0.11152 0.0
Zn33 Zn 0.75331 0.66034 0.16683 0.0
O34 O 0.77432 0.65939 0.172 0.0
O35 O 0.768 0.63479 0.17543 0.0
O36 O 0.75247 0.6702 0.22178 0.0
O37 O 0.74934 0.64702 0.23409 0.0
O38 O 0.72976 0.61976 0.16156 0.0
O39 O 0.73008 0.64195 0.15473 0.0
C40 C 0.77837 0.64905 0.17466 0.0
C41 C 0.72267 0.62711 0.15286 0.0
C42 C 0.12862 0.3518 0.33313 0.0
C43 C 0.09781 0.37706 0.35095 0.0
O44 O 0.11405 0.342 0.33543 0.0
Zn45 Zn 0.09272 0.34275 0.3388 0.0
O46 O 0.13322 0.36621 0.33188 0.0
Zn47 Zn 0.11315 0.3645 0.33688 0.0
O48 O 0.10582 0.35402 0.40287 0.0
O49 O 0.08395 0.3318 0.39419 0.0
O50 O 0.11233 0.38335 0.34484 0.0
O51 O 0.08935 0.36227 0.34842 0.0
O52 O 0.08209 0.33313 0.2836 0.0
O53 O 0.10303 0.3557 0.27167 0.0
C54 C 0.09449 0.3417 0.41979 0.0
C55 C 0.0912 0.34347 0.25625 0.0
C56 C 0.66107 0.75319 0.41861 0.0
C57 C 0.65943 0.74799 0.25528 0.0
O58 O 0.64872 0.75204 0.40144 0.0
Zn59 Zn 0.6385 0.74932 0.33542 0.0
O60 O 0.67122 0.753 0.39302 0.0
Zn61 Zn 0.66025 0.75056 0.33758 0.0
O62 O 0.66121 0.77264 0.33372 0.0
O63 O 0.63713 0.76792 0.33044 0.0
O64 O 0.6698 0.7493 0.28264 0.0
O65 O 0.64725 0.74774 0.27056 0.0
O66 O 0.61956 0.72976 0.34312 0.0
O67 O 0.64055 0.7277 0.34734 0.0
C68 C 0.65157 0.7776 0.33144 0.0
C69 C 0.62576 0.72146 0.34959 0.0
C70 C 0.22576 0.87378 0.33043 0.0
C71 C 0.28157 0.90677 0.3513 0.0
O72 O 0.23001 0.88822 0.33286 0.0
Zn73 Zn 0.25127 0.91 0.33741 0.0
O74 O 0.23597 0.86969 0.3294 0.0
Zn75 Zn 0.25393 0.89025 0.33489 0.0
O76 O 0.25025 0.89713 0.4011 0.0
O77 O 0.24777 0.91783 0.39258 0.0
O78 O 0.27425 0.89234 0.34271 0.0
O79 O 0.2744 0.91445 0.3494 0.0
O80 O 0.25224 0.9207 0.28237 0.0
O81 O 0.255 0.90042 0.27018 0.0
C82 C 0.24816 0.90779 0.41818 0.0
C83 C 0.25412 0.91201 0.25496 0.0
C84 C 0.65118 0.87367 0.83602 0.0
C85 C 0.62892 0.90721 0.85625 0.0
O86 O 0.63692 0.86972 0.83541 0.0
Zn87 Zn 0.6397 0.8904 0.84036 0.0
O88 O 0.66146 0.88807 0.83814 0.0
Zn89 Zn 0.66229 0.90992 0.84264 0.0
O90 O 0.67378 0.91753 0.89767 0.0
O91 O 0.65011 0.89751 0.90657 0.0
O92 O 0.64378 0.91473 0.85448 0.0
O93 O 0.62164 0.89277 0.84763 0.0
O94 O 0.64888 0.90044 0.77563 0.0
O95 O 0.67208 0.92049 0.78753 0.0
C96 C 0.66303 0.90794 0.92335 0.0
C97 C 0.66142 0.91188 0.76026 0.0
C98 C 0.09466 0.75343 0.92358 0.0
C99 C 0.09168 0.74826 0.76031 0.0
O100 O 0.08463 0.75358 0.89739 0.0
Zn101 Zn 0.09315 0.75069 0.84248 0.0
O102 O 0.10572 0.75191 0.90708 0.0
Zn103 Zn 0.11335 0.74898 0.84161 0.0
O104 O 0.13355 0.7672 0.83816 0.0
O105 O 0.11458 0.77255 0.83759 0.0
O106 O 0.10348 0.74783 0.77594 0.0
O107 O 0.08253 0.74951 0.78743 0.0
O108 O 0.08945 0.72761 0.853 0.0
O109 O 0.11233 0.72927 0.8495 0.0
C110 C 0.12912 0.77714 0.83682 0.0
C111 C 0.09781 0.72117 0.85574 0.0
C112 C 0.25361 0.34266 0.76052 0.0
C113 C 0.24801 0.34124 0.9238 0.0
O114 O 0.25167 0.33211 0.7881 0.0
Zn115 Zn 0.25094 0.34204 0.84296 0.0
O116 O 0.25471 0.35524 0.77559 0.0
Zn117 Zn 0.25391 0.36455 0.84034 0.0
O118 O 0.27435 0.38264 0.84776 0.0
O119 O 0.27419 0.36052 0.85465 0.0
O120 O 0.25023 0.35405 0.90676 0.0
O121 O 0.24738 0.33072 0.8981 0.0
O122 O 0.22985 0.34288 0.83839 0.0
O123 O 0.23615 0.36747 0.83489 0.0
C124 C 0.28152 0.37537 0.85638 0.0
C125 C 0.2258 0.35322 0.83586 0.0
C126 C 0.9109 0.66202 0.59158 0.0
C127 C 0.91413 0.66025 0.75508 0.0
O128 O 0.92151 0.67188 0.61708 0.0
Zn129 Zn 0.91267 0.66101 0.67255 0.0
O130 O 0.89951 0.64978 0.60858 0.0
Zn131 Zn 0.89212 0.63935 0.6745 0.0
O132 O 0.87215 0.63785 0.67942 0.0
O133 O 0.89146 0.66199 0.67579 0.0
O134 O 0.90225 0.64809 0.73961 0.0
O135 O 0.92331 0.67057 0.7278 0.0
O136 O 0.91581 0.64134 0.66304 0.0
O137 O 0.89273 0.62039 0.66662 0.0
C138 C 0.87686 0.65228 0.67809 0.0
C139 C 0.90724 0.62656 0.66055 0.0
C140 C 0.3441 0.25444 0.75501 0.0
C141 C 0.34173 0.24923 0.59159 0.0
O142 O 0.33375 0.25335 0.72794 0.0
Zn143 Zn 0.34313 0.25218 0.6726 0.0
O144 O 0.35625 0.25474 0.73924 0.0
Zn145 Zn 0.36486 0.25353 0.67345 0.0
O146 O 0.38368 0.27314 0.66529 0.0
O147 O 0.36263 0.27511 0.66234 0.0
O148 O 0.35414 0.25032 0.60803 0.0
O149 O 0.33189 0.24982 0.61757 0.0
O150 O 0.34244 0.23008 0.67675 0.0
O151 O 0.36674 0.23532 0.677 0.0
C152 C 0.37741 0.2814 0.65941 0.0
C153 C 0.35236 0.22543 0.67763 0.0
C154 C 0.77827 0.12939 0.67731 0.0
C155 C 0.72223 0.09817 0.65915 0.0
O156 O 0.76839 0.1339 0.67838 0.0
Zn157 Zn 0.75007 0.11371 0.67338 0.0
O158 O 0.77358 0.11484 0.675 0.0
Zn159 Zn 0.75174 0.09346 0.67114 0.0
O160 O 0.75445 0.08509 0.61576 0.0
O161 O 0.75305 0.10639 0.60721 0.0
O162 O 0.7287 0.08983 0.66129 0.0
O163 O 0.73031 0.11268 0.66578 0.0
O164 O 0.7488 0.10349 0.73836 0.0
O165 O 0.75075 0.08274 0.72606 0.0
C166 C 0.75448 0.09533 0.59011 0.0
C167 C 0.74933 0.0917 0.75355 0.0
C168 C 0.01058 0.42397 0.58384 0.0
C169 C 0.00907 0.42744 0.4204 0.0
O170 O 0.02293 0.43574 0.56867 0.0
Zn171 Zn 0.03192 0.44586 0.50355 0.0
O172 O 1.00024 0.41499 0.55631 0.0
Zn173 Zn 0.01002 0.42568 0.50143 0.0
O174 O 0.02939 0.42197 0.49148 0.0
O175 O 0.05063 0.44482 0.49613 0.0
O176 O 0.99887 0.41729 0.44625 0.0
O177 O 0.0216 0.4385 0.43731 0.0
O178 O 0.03392 0.46609 0.50849 0.0
O179 O 0.00963 0.44713 0.50538 0.0
C180 C 0.04421 0.43031 0.48937 0.0
C181 C 0.01955 0.46166 0.50767 0.0
C182 C 0.53957 0.55899 0.50992 0.0
C183 C 0.57153 0.61481 0.48927 0.0
O184 O 0.55407 0.56338 0.50886 0.0
Zn185 Zn 0.57569 0.58503 0.50315 0.0
O186 O 0.53533 0.56907 0.50835 0.0
Zn187 Zn 0.55568 0.58707 0.50421 0.0
O188 O 0.56298 0.58369 0.43865 0.0
O189 O 0.58392 0.58174 0.44821 0.0
O190 O 0.55701 0.6069 0.49588 0.0
O191 O 0.57972 0.60819 0.49203 0.0
O192 O 0.5864 0.58623 0.5581 0.0
O193 O 0.56565 0.58825 0.56985 0.0
C194 C 0.57388 0.5819 0.42209 0.0
C195 C 0.5774 0.58769 0.58534 0.0
C196 C 0.42317 0.99451 0.42315 0.0
C197 C 0.41619 0.99196 0.586 0.0
O198 O 0.42074 0.98159 0.43978 0.0
Zn199 Zn 0.41659 0.97067 0.50527 0.0
O200 O 0.42369 0.00492 0.44912 0.0
Zn201 Zn 0.41956 0.99319 0.50392 0.0
O202 O 0.44061 0.99233 0.511 0.0
O203 O 0.43429 0.96771 0.51042 0.0
O204 O 0.41818 0.00264 0.55888 0.0
O205 O 0.41536 0.97954 0.57047 0.0
O206 O 0.39623 0.95264 0.49637 0.0
O207 O 0.39638 0.97477 0.4904 0.0
C208 C 0.44463 0.98195 0.51245 0.0
C209 C 0.38909 0.95993 0.48779 0.0
C210 C 0.79807 0.68781 0.6596 0.0
C211 C 0.76372 0.70887 0.68368 0.0
O212 O 0.78374 0.67722 0.66098 0.0
Zn213 Zn 0.7616 0.6759 0.66775 0.0
O214 O 0.80168 0.70197 0.6614 0.0
Zn215 Zn 0.78087 0.69858 0.66638 0.0
O216 O 0.77424 0.68763 0.73192 0.0
O217 O 0.75413 0.66414 0.72255 0.0
O218 O 0.77814 0.71636 0.67515 0.0
O219 O 0.75639 0.69403 0.68115 0.0
O220 O 0.75089 0.66632 0.61275 0.0
O221 O 0.77091 0.68958 0.60113 0.0
C222 C 0.76391 0.67463 0.74853 0.0
C223 C 0.75946 0.67706 0.58561 0.0
C224 C 0.32641 0.08264 0.58683 0.0
C225 C 0.32829 0.08867 0.75009 0.0
O226 O 0.31393 0.08173 0.60207 0.0
Zn227 Zn 0.30483 0.08274 0.66696 0.0
O228 O 0.33696 0.0845 0.61427 0.0
Zn229 Zn 0.32725 0.08546 0.66935 0.0
O230 O 0.30864 0.06232 0.68172 0.0
O231 O 0.28664 0.06239 0.67498 0.0
O232 O 0.33868 0.08905 0.72433 0.0
O233 O 0.31549 0.08653 0.73318 0.0
O234 O 0.30212 0.10063 0.66152 0.0
O235 O 0.32663 0.10668 0.66481 0.0
C236 C 0.29379 0.05512 0.68373 0.0
C237 C 0.31641 0.11088 0.66247 0.0
C238 C 0.94888 0.23932 0.68244 0.0
C239 C 0.893 0.20729 0.66303 0.0
O240 O 0.94223 0.2475 0.67963 0.0
Zn241 Zn 0.91904 0.24342 0.66888 0.0
O242 O 0.94096 0.22478 0.67617 0.0
Zn243 Zn 0.92111 0.22343 0.66805 0.0
O244 O 0.92224 0.2333 0.60236 0.0
O245 O 0.92012 0.25401 0.61384 0.0
O246 O 0.9031 0.20307 0.6644 0.0
O247 O 0.89739 0.22179 0.66384 0.0
O248 O 0.9159 0.25179 0.72372 0.0
O249 O 0.91793 0.23091 0.7335 0.0
C250 C 0.92164 0.24501 0.58673 0.0
C251 C 0.91617 0.24184 0.74995 0.0
C252 C 0.32689 0.2461 0.09182 0.0
C253 C 0.3296 0.24318 0.25513 0.0
O254 O 0.33729 0.25537 0.11877 0.0
Zn255 Zn 0.32802 0.24479 0.17417 0.0
O256 O 0.31478 0.23425 0.10772 0.0
Zn257 Zn 0.30628 0.22442 0.17359 0.0
O258 O 0.28751 0.22526 0.18228 0.0
O259 O 0.30857 0.24826 0.18505 0.0
O260 O 0.31715 0.23188 0.23882 0.0
O261 O 0.33939 0.25361 0.22906 0.0
O262 O 0.32867 0.22337 0.16936 0.0
O263 O 0.30437 0.20432 0.16966 0.0
C264 C 0.2938 0.23978 0.18825 0.0
C265 C 0.31875 0.2088 0.16847 0.0
C266 C 0.76223 0.0891 0.25275 0.0
C267 C 0.75807 0.08251 0.08977 0.0
O268 O 0.75243 0.08973 0.22664 0.0
Zn269 Zn 0.76009 0.08564 0.17193 0.0
O270 O 0.77272 0.08664 0.23624 0.0
Zn271 Zn 0.77956 0.08259 0.17063 0.0
O272 O 0.80025 0.10018 0.16583 0.0
O273 O 0.78208 0.10667 0.16523 0.0
O274 O 0.76961 0.08159 0.10527 0.0
O275 O 0.74936 0.08445 0.11696 0.0
O276 O 0.75521 0.06237 0.18514 0.0
O277 O 0.77718 0.06221 0.17909 0.0
C278 C 0.79646 0.1106 0.1639 0.0
C279 C 0.76275 0.05506 0.18758 0.0
C280 C 0.89292 0.68468 0.16842 0.0
C281 C 0.94879 0.70959 0.18928 0.0
O282 O 0.90281 0.69905 0.16994 0.0
Zn283 Zn 0.92101 0.69716 0.17406 0.0
O284 O 0.89757 0.67475 0.16917 0.0
Zn285 Zn 0.91963 0.67541 0.17418 0.0
O286 O 0.91698 0.66388 0.22879 0.0
O287 O 0.91746 0.68609 0.23901 0.0
O288 O 0.9425 0.69483 0.18567 0.0
O289 O 0.94058 0.71591 0.18343 0.0
O290 O 0.92258 0.6889 0.10807 0.0
O291 O 0.92114 0.66634 0.11867 0.0
C292 C 0.91628 0.6736 0.25504 0.0
C293 C 0.92238 0.67684 0.09195 0.0
C294 C 0.5761 0.99564 0.92655 0.0
C295 C 0.57996 0.99331 0.08959 0.0
O296 O 0.5859 0.00607 0.95261 0.0
Zn297 Zn 0.57806 0.99443 0.00741 0.0
O298 O 0.56552 0.98276 0.94313 0.0
Zn299 Zn 0.55849 0.97196 0.00872 0.0
O300 O 0.53787 0.96909 0.01296 0.0
O301 O 0.55616 0.9937 0.01324 0.0
O302 O 0.5684 0.98087 0.07404 0.0
O303 O 0.58871 0.00396 0.06247 0.0
O304 O 0.58278 0.97592 0.99478 0.0
O305 O 0.56073 0.95385 1.00052 0.0
C306 C 0.54176 0.98333 0.01436 0.0
C307 C 0.57519 0.96108 0.99234 0.0
C308 C 0.04453 0.6144 0.99473 0.0
C309 C 0.01975 0.55833 0.01177 0.0
O310 O 0.05095 0.60629 1.00123 0.0
Zn311 Zn 0.03222 0.58654 0.00847 0.0
O312 O 0.02972 0.60793 0.99684 0.0
Zn313 Zn 0.01032 0.58487 0.00638 0.0
O314 O 1.00055 0.58571 0.06134 0.0
O315 O 0.02323 0.58762 0.07362 0.0
O316 O 0.00987 0.56301 0.00966 0.0
O317 O 0.03413 0.56822 0.01296 0.0
O318 O 0.02195 0.58374 0.94225 0.0
O319 O 0.99925 0.58229 0.95115 0.0
C320 C 0.01089 0.58704 0.08883 0.0
C321 C 0.00946 0.58235 0.92532 0.0
C322 C 0.44521 0.46062 0.01187 0.0
C323 C 0.3894 0.42834 0.99028 0.0
O324 O 0.43511 0.46486 0.01276 0.0
Zn325 Zn 0.41707 0.44449 0.00699 0.0
O326 O 0.44082 0.44614 0.00939 0.0
Zn327 Zn 0.41928 0.42449 1.00493 0.0
O328 O 0.4223 0.41622 0.94985 0.0
O329 O 0.42095 0.43758 0.94104 0.0
O330 O 0.39635 0.42046 0.99266 0.0
O331 O 0.39691 0.44278 0.99855 0.0
O332 O 0.41575 0.43436 0.07195 0.0
O333 O 0.41807 0.4138 0.06029 0.0
C334 C 0.42257 0.42659 0.92424 0.0
C335 C 0.41638 0.42267 0.08748 0.0
C336 C 0.68616 0.79425 0.84469 0.0
C337 C 0.70869 0.76112 0.82168 0.0
O338 O 0.67584 0.77983 0.84335 0.0
Zn339 Zn 0.67524 0.758 0.83691 0.0
O340 O 0.70041 0.79821 0.84303 0.0
Zn341 Zn 0.69766 0.77766 0.83832 0.0
O342 O 0.68688 0.77069 0.77275 0.0
O343 O 0.66362 0.75022 0.78203 0.0
O344 O 0.71583 0.77557 0.83003 0.0
O345 O 0.69385 0.75344 0.82407 0.0
O346 O 0.66576 0.74724 0.8919 0.0
O347 O 0.68878 0.76763 0.90347 0.0
C348 C 0.67404 0.7601 0.75607 0.0
C349 C 0.6764 0.75601 0.91902 0.0
C350 C 0.24543 0.92067 0.91865 0.0
C351 C 0.24107 0.91415 0.75561 0.0
O352 O 0.23379 0.92144 0.9033 0.0
Zn353 Zn 0.22354 0.92013 0.83853 0.0
O354 O 0.25412 0.91875 0.89135 0.0
Zn355 Zn 0.24333 0.91752 0.8363 0.0
O356 O 0.2477 0.94057 0.82348 0.0
O357 O 0.22559 0.94043 0.82996 0.0
O358 O 0.25113 0.91385 0.78134 0.0
O359 O 0.23039 0.91625 0.77252 0.0
O360 O 0.20302 0.90212 0.84455 0.0
O361 O 0.22162 0.89625 0.84162 0.0
C362 C 0.24001 0.94772 0.8212 0.0
C363 C 0.20717 0.89195 0.84411 0.0
C364 C 0.08826 0.32942 0.75623 0.0
C365 C 0.08219 0.32631 0.91943 0.0
O366 O 0.08698 0.31688 0.77232 0.0
Zn367 Zn 0.08334 0.30583 0.83738 0.0
O368 O 0.08761 0.33917 0.78246 0.0
Zn369 Zn 0.08484 0.32762 0.83711 0.0
O370 O 0.10683 0.32811 0.84223 0.0
O371 O 0.10142 0.30376 0.84155 0.0
O372 O 0.08343 0.33678 0.89261 0.0
O373 O 0.08191 0.3142 0.90339 0.0
O374 O 0.06372 0.28714 0.82819 0.0
O375 O 0.0619 0.30828 0.8256 0.0
C376 C 0.11138 0.31811 0.84305 0.0
C377 C 0.05556 0.29351 0.82214 0.0
C378 C 0.42898 0.00771 0.08565 0.0
C379 C 0.42473 0.00926 0.92234 0.0
O380 O 0.43969 0.02039 0.06837 0.0
Zn381 Zn 0.4466 0.03083 1.00211 0.0
O382 O 0.41886 0.99728 0.0602 0.0
Zn383 Zn 0.42673 0.00849 1.00482 0.0
O384 O 0.44838 0.00877 1.00028 0.0
O385 O 0.46706 0.03318 0.99667 0.0
O386 O 0.41598 0.99875 0.94982 0.0
O387 O 0.43637 0.0217 0.9375 0.0
O388 O 0.44467 0.04918 0.00978 0.0
O389 O 0.42248 0.02732 0.01654 0.0
C390 C 0.46285 0.01884 0.99778 0.0
C391 C 0.43024 0.04216 0.01836 0.0
C392 C 0.98303 0.44362 0.99637 0.0
C393 C 0.95908 0.38776 0.01599 0.0
O394 O 0.99313 0.43922 0.99714 0.0
Zn395 Zn 0.99304 0.41752 1.00216 0.0
O396 O 0.96871 0.43354 0.99775 0.0
Zn397 Zn 0.97103 0.41552 1.00136 0.0
O398 O 0.98173 0.41873 0.06687 0.0
O399 O 0.0046 0.42067 0.05691 0.0
O400 O 0.9525 0.39571 0.00957 0.0
O401 O 0.97389 0.39435 0.01315 0.0
O402 O 0.00251 0.41639 0.94708 0.0
O403 O 0.97975 0.4144 0.93555 0.0
C404 C 0.99443 0.42047 0.08322 0.0
C405 C 0.99204 0.41495 0.91993 0.0
C406 C 0.58115 0.57478 0.08477 0.0
C407 C 0.58695 0.57874 0.9215 0.0
O408 O 0.58354 0.56427 0.06804 0.0
Zn409 Zn 0.58733 0.55739 1.00209 0.0
O410 O 0.58045 0.58456 0.0588 0.0
Zn411 Zn 0.58428 0.57683 1.00385 0.0
O412 O 0.5632 0.55481 0.99807 0.0
O413 O 0.56977 0.53669 0.99792 0.0
O414 O 0.58517 0.58749 0.94893 0.0
O415 O 0.58797 0.56723 0.93679 0.0
O416 O 0.60771 0.55972 0.00957 0.0
O417 O 0.60762 0.58172 0.01611 0.0
C418 C 0.55931 0.54044 0.99675 0.0
C419 C 0.61491 0.57416 0.01804 0.0
C420 C 0.99496 0.57463 0.58812 0.0
C421 C 0.9925 0.57795 0.42494 0.0
O422 O 0.00514 0.58458 0.56181 0.0
Zn423 Zn 0.99354 0.5763 0.50708 0.0
O424 O 0.98223 0.56373 0.57178 0.0
Zn425 Zn 0.97148 0.55634 0.50632 0.0
O426 O 0.96905 0.53597 0.5023 0.0
O427 O 0.9935 0.55463 0.50142 0.0
O428 O 0.9802 0.56624 0.44056 0.0
O429 O 0.003 0.58695 0.45208 0.0
O430 O 0.97446 0.58041 0.51835 0.0
O431 O 0.95301 0.55772 0.51472 0.0
C432 C 0.98335 0.54014 0.50051 0.0
C433 C 0.95964 0.57224 0.52124 0.0
C434 C 0.42801 0.42053 0.58767 0.0
C435 C 0.42455 0.41448 0.42442 0.0
O436 O 0.41741 0.41969 0.56194 0.0
Zn437 Zn 0.42613 0.41723 0.50682 0.0
O438 O 0.43934 0.41948 0.57101 0.0
Zn439 Zn 0.44662 0.41597 0.50544 0.0
O440 O 0.46665 0.43436 0.49971 0.0
O441 O 0.4474 0.43929 0.50246 0.0
O442 O 0.43643 0.41424 0.44015 0.0
O443 O 0.41543 0.41584 0.45144 0.0
O444 O 0.42285 0.39444 0.51755 0.0
O445 O 0.44585 0.39636 0.51449 0.0
C446 C 0.46198 0.44412 0.50018 0.0
C447 C 0.43133 0.38814 0.5206 0.0
C448 C 0.61546 0.0443 0.52041 0.0
C449 C 0.55938 0.01885 0.5017 0.0
O450 O 0.60724 0.05059 0.51379 0.0
Zn451 Zn 0.58762 0.03172 0.50602 0.0
O452 O 0.60915 0.0295 0.51816 0.0
Zn453 Zn 0.58624 0.00991 0.50817 0.0
O454 O 0.58744 1.00032 0.45324 0.0
O455 O 0.5891 0.0229 0.44112 0.0
O456 O 0.56424 0.00913 0.50404 0.0
O457 O 0.56913 0.03328 0.50087 0.0
O458 O 0.58474 0.02144 0.57205 0.0
O459 O 0.58363 0.99887 0.56355 0.0
C460 C 0.58876 0.01068 0.42585 0.0
C461 C 0.58347 0.00902 0.58917 0.0
C462 C 0.24466 0.32459 0.42432 0.0
C463 C 0.24119 0.32709 0.26112 0.0
O464 O 0.2536 0.33514 0.39724 0.0
Zn465 Zn 0.24298 0.32568 0.34213 0.0
O466 O 0.23298 0.31226 0.40865 0.0
Zn467 Zn 0.22309 0.30354 0.34297 0.0
O468 O 0.22462 0.28516 0.33434 0.0
O469 O 0.24724 0.30671 0.33077 0.0
O470 O 0.23036 0.31434 0.27759 0.0
O471 O 0.25119 0.33729 0.2873 0.0
O472 O 0.22125 0.32549 0.34766 0.0
O473 O 0.20266 0.30101 0.34705 0.0
C474 C 0.23916 0.29189 0.32783 0.0
C475 C 0.20678 0.3153 0.34859 0.0
C476 C 0.67809 0.92013 0.42373 0.0
C477 C 0.67562 0.91399 0.26085 0.0
O478 O 0.66729 0.91797 0.39685 0.0
Zn479 Zn 0.6768 0.91696 0.34163 0.0
O480 O 0.6906 0.92124 0.40791 0.0
Zn481 Zn 0.69951 0.92038 0.34246 0.0
O482 O 0.71733 0.94088 0.33445 0.0
O483 O 0.69502 0.9404 0.32874 0.0
O484 O 0.68872 0.91682 0.277 0.0
O485 O 0.66489 0.91258 0.28707 0.0
O486 O 0.67804 0.89615 0.34774 0.0
O487 O 0.70271 0.90275 0.34624 0.0
C488 C 0.70987 0.94788 0.32626 0.0
C489 C 0.68853 0.89229 0.34844 0.0
C490 C 0.05536 0.76323 0.32941 0.0
C491 C 0.11131 0.79501 0.34682 0.0
O492 O 0.06336 0.77777 0.33563 0.0
Zn493 Zn 0.08317 0.77898 0.34301 0.0
O494 O 0.06193 0.75498 0.33191 0.0
Zn495 Zn 0.08512 0.75893 0.34192 0.0
O496 O 0.08421 0.7484 0.39694 0.0
O497 O 0.08225 0.76918 0.40863 0.0
O498 O 0.10687 0.78049 0.34609 0.0
O499 O 0.10125 0.79927 0.34604 0.0
O500 O 0.08601 0.77137 0.27736 0.0
O501 O 0.08795 0.75042 0.28692 0.0
C502 C 0.08286 0.75747 0.42416 0.0
C503 C 0.08763 0.76037 0.26078 0.0
H504 H 0.30611 0.07857 0.51899 0.0
H505 H 0.35213 0.08605 0.54297 0.0
H506 H 0.31061 0.07971 0.43801 0.0
H507 H 0.35653 0.08696 0.46189 0.0
H508 H 0.31873 0.06936 0.29446 0.0
H509 H 0.31434 0.0659 0.37556 0.0
H510 H 0.36031 0.10448 0.39935 0.0
H511 H 0.3648 0.10782 0.31835 0.0
C512 C 0.31713 0.0803 0.50702 0.0
C513 C 0.32877 0.08228 0.53756 0.0
C514 C 0.31968 0.08087 0.46053 0.0
C515 C 0.33395 0.08347 0.44341 0.0
C516 C 0.34548 0.08514 0.47394 0.0
C517 C 0.34292 0.08452 0.52045 0.0
C518 C 0.32796 0.07704 0.31697 0.0
C519 C 0.34211 0.0889 0.29983 0.0
C520 C 0.32539 0.0751 0.36348 0.0
C521 C 0.33694 0.08495 0.39398 0.0
C522 C 0.35122 0.09659 0.37684 0.0
C523 C 0.35377 0.09855 0.33034 0.0
H524 H 0.92543 0.22846 0.51921 0.0
H525 H 0.91845 0.26736 0.54253 0.0
H526 H 0.92429 0.23174 0.4381 0.0
H527 H 0.9175 0.27072 0.46144 0.0
H528 H 0.89641 0.25793 0.31828 0.0
H529 H 0.89965 0.25665 0.39929 0.0
H530 H 0.93842 0.24954 0.37562 0.0
H531 H 0.93509 0.25064 0.2945 0.0
C532 C 0.9238 0.23779 0.50707 0.0
C533 C 0.92197 0.2476 0.53743 0.0
C534 C 0.92323 0.23972 0.46055 0.0
C535 C 0.92076 0.25146 0.4433 0.0
C536 C 0.91922 0.26145 0.47365 0.0
C537 C 0.91986 0.25956 0.52015 0.0
C538 C 0.9057 0.2562 0.3303 0.0
C539 C 0.91546 0.25435 0.29984 0.0
C540 C 0.9076 0.25554 0.37678 0.0
C541 C 0.91928 0.25295 0.39392 0.0
C542 C 0.9292 0.25136 0.36349 0.0
C543 C 0.92735 0.25209 0.31699 0.0
H544 H 0.73704 0.65155 0.54135 0.0
H545 H 0.77575 0.69753 0.51815 0.0
H546 H 0.73353 0.64737 0.46023 0.0
H547 H 0.77237 0.69324 0.43708 0.0
H548 H 0.7541 0.6854 0.29326 0.0
H549 H 0.755 0.68973 0.37441 0.0
H550 H 0.74721 0.64357 0.39785 0.0
H551 H 0.74605 0.63914 0.31688 0.0
C552 C 0.74477 0.6608 0.51899 0.0
C553 C 0.75672 0.67486 0.53632 0.0
C554 C 0.7428 0.65836 0.47246 0.0
C555 C 0.75271 0.66994 0.44212 0.0
C556 C 0.76443 0.68414 0.45946 0.0
C557 C 0.76642 0.68657 0.506 0.0
C558 C 0.75245 0.67612 0.31571 0.0
C559 C 0.75004 0.66193 0.2985 0.0
C560 C 0.75306 0.67865 0.36225 0.0
C561 C 0.75123 0.66702 0.39267 0.0
C562 C 0.74848 0.65272 0.37542 0.0
C563 C 0.74791 0.65021 0.32893 0.0
H564 H 0.07866 0.30585 0.98637 0.0
H565 H 0.08521 0.35164 0.96455 0.0
H566 H 0.07989 0.31006 0.06763 0.0
H567 H 0.08628 0.35575 0.04578 0.0
H568 H 0.10754 0.36387 0.18872 0.0
H569 H 0.10428 0.3595 0.10763 0.0
H570 H 0.06576 0.31344 0.13077 0.0
H571 H 0.0691 0.31773 0.21197 0.0
C572 C 0.08022 0.31676 0.99887 0.0
C573 C 0.08188 0.32842 0.96887 0.0
C574 C 0.08085 0.31914 0.04548 0.0
C575 C 0.08324 0.33326 0.06321 0.0
C576 C 0.08462 0.34481 0.03322 0.0
C577 C 0.08391 0.34241 0.98663 0.0
C578 C 0.09831 0.35284 0.17657 0.0
C579 C 0.08861 0.34115 0.20692 0.0
C580 C 0.09639 0.35036 0.13004 0.0
C581 C 0.08477 0.33611 0.1127 0.0
C582 C 0.07493 0.32449 0.14303 0.0
C583 C 0.07679 0.327 0.18958 0.0
H584 H 0.68479 0.75067 0.21111 0.0
H585 H 0.63912 0.74424 0.18788 0.0
H586 H 0.68895 0.75129 0.12992 0.0
H587 H 0.64338 0.74506 0.10684 0.0
H588 H 0.65076 0.73392 0.96357 0.0
H589 H 0.64664 0.73063 0.04478 0.0
H590 H 0.69283 0.76901 0.06725 0.0
H591 H 0.69706 0.77218 0.98612 0.0
C592 C 0.67561 0.74931 0.18874 0.0
C593 C 0.66164 0.74745 0.20604 0.0
C594 C 0.67804 0.74976 0.1422 0.0
C595 C 0.66652 0.74828 0.11191 0.0
C596 C 0.65242 0.74607 0.12923 0.0
C597 C 0.65002 0.74568 0.17573 0.0
C598 C 0.6601 0.74158 0.9858 0.0
C599 C 0.67423 0.75335 0.96829 0.0
C600 C 0.65769 0.73974 0.03236 0.0
C601 C 0.66938 0.7496 0.06249 0.0
C602 C 0.68364 0.76112 0.04498 0.0
C603 C 0.68603 0.76299 0.99844 0.0
H604 H 0.25841 0.89586 0.18738 0.0
H605 H 0.2507 0.93429 0.2109 0.0
H606 H 0.25742 0.89923 0.10638 0.0
H607 H 0.24994 0.93779 0.12974 0.0
H608 H 0.22916 0.92488 0.98607 0.0
H609 H 0.2325 0.92391 0.06712 0.0
H610 H 0.2713 0.91681 0.04405 0.0
H611 H 0.26784 0.91754 0.96288 0.0
C612 C 0.25666 0.90513 0.17531 0.0
C613 C 0.25457 0.91476 0.20571 0.0
C614 C 0.25618 0.90712 0.12881 0.0
C615 C 0.25357 0.91876 0.11155 0.0
C616 C 0.25179 0.92859 0.14194 0.0
C617 C 0.25231 0.92663 0.18847 0.0
C618 C 0.23848 0.92322 0.99822 0.0
C619 C 0.24819 0.92122 0.96791 0.0
C620 C 0.24045 0.92275 0.04475 0.0
C621 C 0.25214 0.92023 0.0621 0.0
C622 C 0.26206 0.91857 0.03179 0.0
C623 C 0.26013 0.91908 0.98524 0.0
H624 H 0.64085 0.89572 0.69305 0.0
H625 H 0.68713 0.93398 0.71583 0.0
H626 H 0.64509 0.89893 0.61201 0.0
H627 H 0.69126 0.93734 0.63459 0.0
H628 H 0.69872 0.92428 0.49065 0.0
H629 H 0.69462 0.9234 0.57181 0.0
H630 H 0.64871 0.91642 0.54978 0.0
H631 H 0.65269 0.91705 0.46856 0.0
C632 C 0.65188 0.90492 0.6808 0.0
C633 C 0.66367 0.91455 0.71099 0.0
C634 C 0.65428 0.90682 0.63428 0.0
C635 C 0.66853 0.91838 0.61679 0.0
C636 C 0.68022 0.9282 0.64697 0.0
C637 C 0.67781 0.92633 0.69354 0.0
C638 C 0.68778 0.92267 0.50307 0.0
C639 C 0.67601 0.92067 0.47304 0.0
C640 C 0.68547 0.92225 0.54965 0.0
C641 C 0.67132 0.91979 0.56731 0.0
C642 C 0.65967 0.91812 0.53728 0.0
C643 C 0.66199 0.91857 0.4907 0.0
H644 H 0.08641 0.7353 0.46815 0.0
H645 H 0.07908 0.77397 0.49184 0.0
H646 H 0.08751 0.73197 0.54923 0.0
H647 H 0.08035 0.77071 0.5729 0.0
H648 H 0.10842 0.74476 0.69282 0.0
H649 H 0.10529 0.74612 0.61172 0.0
H650 H 0.06617 0.7527 0.63496 0.0
H651 H 0.06936 0.7515 0.71606 0.0
C652 C 0.08496 0.74305 0.49061 0.0
C653 C 0.08268 0.75493 0.47345 0.0
C654 C 0.08568 0.74119 0.53709 0.0
C655 C 0.08407 0.7511 0.56752 0.0
C656 C 0.08148 0.76278 0.55038 0.0
C657 C 0.08083 0.76469 0.50389 0.0
C658 C 0.09908 0.74639 0.68066 0.0
C659 C 0.08917 0.74806 0.71099 0.0
C660 C 0.09724 0.7471 0.63415 0.0
C661 C 0.08551 0.74957 0.61689 0.0
C662 C 0.07544 0.75098 0.64719 0.0
C663 C 0.07722 0.75019 0.69369 0.0
H664 H 0.22786 0.30438 0.49184 0.0
H665 H 0.26728 0.34993 0.4686 0.0
H666 H 0.23111 0.30879 0.57293 0.0
H667 H 0.27063 0.35423 0.54969 0.0
H668 H 0.24948 0.31661 0.71694 0.0
H669 H 0.24846 0.3121 0.63588 0.0
H670 H 0.25693 0.35845 0.61158 0.0
H671 H 0.25817 0.36305 0.69252 0.0
C672 C 0.23731 0.31527 0.50399 0.0
C673 C 0.24726 0.32682 0.47364 0.0
C674 C 0.23922 0.31777 0.55052 0.0
C675 C 0.2511 0.33189 0.56782 0.0
C676 C 0.26124 0.34331 0.53748 0.0
C677 C 0.25936 0.34079 0.49097 0.0
C678 C 0.25125 0.32589 0.69433 0.0
C679 C 0.25388 0.34019 0.71129 0.0
C680 C 0.25056 0.32326 0.64785 0.0
C681 C 0.25256 0.33489 0.61723 0.0
C682 C 0.25551 0.34929 0.6342 0.0
C683 C 0.25614 0.35191 0.68066 0.0
H684 H 0.89773 0.63977 0.82229 0.0
H685 H 0.93619 0.68594 0.79969 0.0
H686 H 0.90086 0.64403 0.9034 0.0
H687 H 0.93939 0.69012 0.88097 0.0
H688 H 0.91963 0.65166 0.04665 0.0
H689 H 0.91881 0.64772 0.96538 0.0
H690 H 0.92504 0.69337 0.94394 0.0
H691 H 0.92602 0.6974 0.02524 0.0
C692 C 0.90694 0.65078 0.83459 0.0
C693 C 0.91668 0.66252 0.80442 0.0
C694 C 0.90878 0.65319 0.88114 0.0
C695 C 0.92036 0.66743 0.89867 0.0
C696 C 0.93025 0.67909 0.86853 0.0
C697 C 0.92847 0.67665 0.82194 0.0
C698 C 0.92094 0.66092 0.02465 0.0
C699 C 0.92284 0.67484 0.04253 0.0
C700 C 0.92038 0.65861 0.97805 0.0
C701 C 0.92179 0.6702 0.94817 0.0
C702 C 0.92406 0.68426 0.96601 0.0
C703 C 0.92455 0.68654 0.01265 0.0
H704 H 0.35239 0.26826 0.04693 0.0
H705 H 0.30647 0.22932 0.02473 0.0
H706 H 0.35658 0.27131 0.9657 0.0
H707 H 0.31075 0.23231 0.94352 0.0
H708 H 0.31854 0.25108 0.79963 0.0
H709 H 0.31431 0.25006 0.88082 0.0
H710 H 0.36016 0.25697 0.90349 0.0
H711 H 0.36447 0.25814 0.82231 0.0
C712 C 0.34315 0.2604 0.02476 0.0
C713 C 0.32909 0.24852 0.04242 0.0
C714 C 0.3456 0.2621 0.97819 0.0
C715 C 0.33403 0.25202 0.94812 0.0
C716 C 0.31985 0.24036 0.96574 0.0
C717 C 0.31742 0.2386 0.01233 0.0
C718 C 0.32777 0.25249 0.82189 0.0
C719 C 0.34185 0.25467 0.80439 0.0
C720 C 0.3253 0.25181 0.86845 0.0
C721 C 0.33687 0.25339 0.89864 0.0
C722 C 0.35106 0.25587 0.88117 0.0
C723 C 0.3535 0.25646 0.8346 0.0
H724 H 0.75247 0.06922 0.79733 0.0
H725 H 0.74562 0.10816 0.82141 0.0
H726 H 0.75339 0.06572 0.87842 0.0
H727 H 0.74674 0.10476 0.90238 0.0
H728 H 0.73593 0.08608 0.04559 0.0
H729 H 0.73259 0.08708 0.96448 0.0
H730 H 0.77105 0.07945 0.94113 0.0
H731 H 0.77428 0.07824 0.02221 0.0
C732 C 0.75108 0.07699 0.81988 0.0
C733 C 0.749 0.08899 0.80281 0.0
C734 C 0.75171 0.07503 0.86637 0.0
C735 C 0.75019 0.08498 0.8969 0.0
C736 C 0.74778 0.09678 0.87983 0.0
C737 C 0.74722 0.09878 0.83335 0.0
C738 C 0.7436 0.08449 0.02319 0.0
C739 C 0.75541 0.08213 0.04047 0.0
C740 C 0.74174 0.08515 0.97668 0.0
C741 C 0.7516 0.08341 0.94631 0.0
C742 C 0.76316 0.08068 0.96357 0.0
C743 C 0.76506 0.08007 0.0101 0.0
H744 H 0.97186 0.41143 0.85214 0.0
H745 H 0.01756 0.41802 0.87594 0.0
H746 H 0.97641 0.41267 0.77105 0.0
H747 H 0.02201 0.41908 0.79492 0.0
H748 H 0.98468 0.40187 0.62743 0.0
H749 H 0.98006 0.39855 0.70848 0.0
H750 H 0.02603 0.43703 0.73283 0.0
H751 H 0.03075 0.44027 0.65189 0.0
C752 C 0.98282 0.413 0.84012 0.0
C753 C 0.99436 0.41468 0.87061 0.0
C754 C 0.9854 0.41364 0.79361 0.0
C755 C 0.9996 0.41603 0.7765 0.0
C756 C 0.01102 0.41743 0.80699 0.0
C757 C 0.00843 0.41673 0.85346 0.0
C758 C 0.99386 0.40955 0.65005 0.0
C759 C 0.00809 0.42136 0.6331 0.0
C760 C 0.99116 0.4077 0.69652 0.0
C761 C 0.00265 0.41755 0.72714 0.0
C762 C 0.01699 0.42914 0.7102 0.0
C763 C 0.01966 0.43105 0.66375 0.0
H764 H 0.59995 0.58474 0.62925 0.0
H765 H 0.56071 0.59111 0.6532 0.0
H766 H 0.60337 0.58369 0.71027 0.0
H767 H 0.56403 0.58987 0.73424 0.0
H768 H 0.59114 0.56261 0.85351 0.0
H769 H 0.58969 0.56583 0.77254 0.0
H770 H 0.58163 0.60398 0.79675 0.0
H771 H 0.58288 0.60066 0.87779 0.0
C772 C 0.59209 0.58599 0.65176 0.0
C773 C 0.58003 0.58798 0.63465 0.0
C774 C 0.594 0.58529 0.69823 0.0
C775 C 0.58394 0.58663 0.72876 0.0
C776 C 0.57209 0.58896 0.71168 0.0
C777 C 0.57014 0.58959 0.66518 0.0
C778 C 0.58916 0.57176 0.84161 0.0
C779 C 0.58708 0.58134 0.87222 0.0
C780 C 0.5884 0.57365 0.79514 0.0
C781 C 0.5855 0.58514 0.77814 0.0
C782 C 0.58368 0.59489 0.80874 0.0
C783 C 0.5845 0.59304 0.85521 0.0
H784 H 0.44092 0.02966 0.85475 0.0
H785 H 0.40245 0.98356 0.87831 0.0
H786 H 0.43758 0.02527 0.77376 0.0
H787 H 0.39898 0.97927 0.79714 0.0
H788 H 0.41195 0.97142 0.65333 0.0
H789 H 0.41288 0.97568 0.73443 0.0
H790 H 0.41999 0.0216 0.71152 0.0
H791 H 0.41929 0.01745 0.63037 0.0
C792 C 0.43165 0.01864 0.84268 0.0
C793 C 0.42199 0.00694 0.87309 0.0
C794 C 0.42968 0.01616 0.79619 0.0
C795 C 0.41803 0.00191 0.77894 0.0
C796 C 0.40819 0.99031 0.80933 0.0
C797 C 0.41012 0.99281 0.85587 0.0
C798 C 0.4136 0.98239 0.66554 0.0
C799 C 0.41561 0.99412 0.63528 0.0
C800 C 0.41405 0.9848 0.71209 0.0
C801 C 0.41656 0.99901 0.72949 0.0
C802 C 0.41824 0.01061 0.69923 0.0
C803 C 0.41774 0.00818 0.65268 0.0
H804 H 0.59248 0.03095 0.35836 0.0
H805 H 0.58574 0.98516 0.38172 0.0
H806 H 0.59137 0.02656 0.27734 0.0
H807 H 0.58483 0.98087 0.30054 0.0
H808 H 0.56375 0.97275 0.15695 0.0
H809 H 0.56706 0.97704 0.23807 0.0
H810 H 0.60556 0.02313 0.21506 0.0
H811 H 0.60215 0.01893 0.13391 0.0
C812 C 0.59091 0.02 0.34624 0.0
C813 C 0.58915 0.0084 0.37659 0.0
C814 C 0.59036 0.01752 0.29974 0.0
C815 C 0.58798 0.00335 0.28246 0.0
C816 C 0.5865 0.99184 0.31278 0.0
C817 C 0.58711 0.99435 0.35931 0.0
C818 C 0.57299 0.98376 0.16915 0.0
C819 C 0.58263 0.99552 0.13888 0.0
C820 C 0.57494 0.98619 0.21569 0.0
C821 C 0.58654 1.00045 0.23304 0.0
C822 C 0.59638 0.01209 0.20277 0.0
C823 C 0.59448 0.00964 0.15624 0.0
H824 H 0.01808 0.60027 0.38084 0.0
H825 H 0.97224 0.56137 0.35727 0.0
H826 H 0.02251 0.60356 0.29979 0.0
H827 H 0.97677 0.56458 0.27619 0.0
H828 H 0.98508 0.58348 0.13246 0.0
H829 H 0.98052 0.58233 0.21351 0.0
H830 H 0.02638 0.58948 0.23781 0.0
H831 H 0.03103 0.5908 0.15685 0.0
C832 C 0.00891 0.59246 0.35841 0.0
C833 C 0.99481 0.58052 0.37563 0.0
C834 C 0.0115 0.5943 0.31193 0.0
C835 C 1.00003 0.5843 0.28151 0.0
C836 C 0.98579 0.57258 0.29868 0.0
C837 C 0.98322 0.5707 0.3452 0.0
C838 C 0.99425 0.58492 0.15507 0.0
C839 C 0.00842 0.58721 0.13809 0.0
C840 C 0.99158 0.58416 0.20153 0.0
C841 C 0.00306 0.58576 0.23214 0.0
C842 C 0.01735 0.58836 0.21518 0.0
C843 C 0.01999 0.58905 0.16872 0.0
H844 H 0.41184 0.43883 0.15454 0.0
H845 H 0.41997 0.40061 0.13227 0.0
H846 H 0.41276 0.43563 0.23569 0.0
H847 H 0.42069 0.3973 0.21356 0.0
H848 H 0.44126 0.41067 0.35754 0.0
H849 H 0.43809 0.41155 0.27634 0.0
H850 H 0.39878 0.41792 0.29808 0.0
H851 H 0.40204 0.41723 0.37938 0.0
C852 C 0.41368 0.42964 0.16692 0.0
C853 C 0.41588 0.42002 0.13682 0.0
C854 C 0.41412 0.42775 0.2135 0.0
C855 C 0.41684 0.41623 0.23115 0.0
C856 C 0.41876 0.40641 0.20106 0.0
C857 C 0.41825 0.40825 0.15445 0.0
C858 C 0.43187 0.41215 0.34505 0.0
C859 C 0.42194 0.41393 0.37504 0.0
C860 C 0.43 0.41257 0.29845 0.0
C861 C 0.41821 0.41485 0.28068 0.0
C862 C 0.4081 0.41634 0.31066 0.0
C863 C 0.40992 0.41585 0.35728 0.0
H864 H 0.34763 0.21365 0.14811 0.0
H865 H 0.30195 0.17806 0.1893 0.0
H866 H 0.35646 0.19483 0.14957 0.0
H867 H 0.31089 0.15943 0.19293 0.0
H868 H 0.32634 0.12572 0.15182 0.0
H869 H 0.31804 0.14479 0.14849 0.0
H870 H 0.36298 0.17993 0.19695 0.0
H871 H 0.37153 0.16083 0.19815 0.0
C872 C 0.33949 0.20181 0.15767 0.0
C873 C 0.32406 0.19732 0.16829 0.0
C874 C 0.34459 0.19103 0.15891 0.0
C875 C 0.33443 0.17554 0.17138 0.0
C876 C 0.319 0.17113 0.18224 0.0
C877 C 0.31387 0.18185 0.18036 0.0
C878 C 0.33446 0.13751 0.16194 0.0
C879 C 0.34959 0.14174 0.17544 0.0
C880 C 0.32966 0.14847 0.16026 0.0
C881 C 0.33977 0.16395 0.17273 0.0
C882 C 0.35492 0.16819 0.18646 0.0
C883 C 0.35981 0.15722 0.1875 0.0
H884 H 0.82723 0.12392 0.18517 0.0
H885 H 0.7926 0.13491 0.14038 0.0
H886 H 0.84627 0.15147 0.1891 0.0
H887 H 0.81173 0.16238 0.14225 0.0
H888 H 0.84436 0.21061 0.19509 0.0
H889 H 0.82567 0.18295 0.19247 0.0
H890 H 0.86171 0.174 0.14714 0.0
H891 H 0.88046 0.20154 0.15181 0.0
C892 C 0.82376 0.13222 0.17546 0.0
C893 C 0.8084 0.12723 0.1626 0.0
C894 C 0.83469 0.14805 0.17756 0.0
C895 C 0.83057 0.15925 0.16627 0.0
C896 C 0.81528 0.15417 0.15226 0.0
C897 C 0.80432 0.13838 0.15075 0.0
C898 C 0.84828 0.20271 0.1848 0.0
C899 C 0.86389 0.20827 0.17377 0.0
C900 C 0.83754 0.18683 0.18291 0.0
C901 C 0.8421 0.17615 0.16932 0.0
C902 C 0.85777 0.18178 0.15845 0.0
C903 C 0.86853 0.19762 0.16092 0.0
H904 H 0.87894 0.70145 0.18918 0.0
H905 H 0.86892 0.65579 0.14785 0.0
H906 H 0.85138 0.69251 0.19256 0.0
H907 H 0.84126 0.64695 0.14908 0.0
H908 H 0.79212 0.63196 0.19729 0.0
H909 H 0.81976 0.64044 0.19631 0.0
H910 H 0.82971 0.6854 0.14761 0.0
H911 H 0.80237 0.67718 0.15069 0.0
C912 C 0.87084 0.68954 0.18016 0.0
C913 C 0.87613 0.67935 0.16809 0.0
C914 C 0.85499 0.6844 0.1819 0.0
C915 C 0.84398 0.66898 0.17091 0.0
C916 C 0.84932 0.65882 0.15849 0.0
C917 C 0.86521 0.66392 0.15738 0.0
C918 C 0.80026 0.64367 0.18663 0.0
C919 C 0.79506 0.65392 0.17444 0.0
C920 C 0.81611 0.64852 0.18572 0.0
C921 C 0.82707 0.66366 0.17202 0.0
C922 C 0.82174 0.67379 0.15938 0.0
C923 C 0.80599 0.66903 0.16091 0.0
H924 H 0.12334 0.32317 0.35757 0.0
H925 H 0.15949 0.36795 0.31188 0.0
H926 H 0.14202 0.31433 0.36345 0.0
H927 H 0.17812 0.35892 0.31569 0.0
H928 H 0.21109 0.34388 0.36944 0.0
H929 H 0.19217 0.35252 0.36629 0.0
H930 H 0.15722 0.30683 0.32227 0.0
H931 H 0.17601 0.29808 0.32751 0.0
C932 C 0.13526 0.33107 0.34816 0.0
C933 C 0.13993 0.34627 0.33425 0.0
C934 C 0.146 0.32597 0.35133 0.0
C935 C 0.16166 0.33588 0.3401 0.0
C936 C 0.16625 0.35103 0.32552 0.0
C937 C 0.15554 0.35619 0.32294 0.0
C938 C 0.19933 0.33566 0.35942 0.0
C939 C 0.19505 0.32028 0.34883 0.0
C940 C 0.18848 0.34065 0.35719 0.0
C941 C 0.17312 0.33044 0.34368 0.0
C942 C 0.16884 0.315 0.33347 0.0
C943 C 0.17965 0.30996 0.33631 0.0
H944 H 0.63557 0.79265 0.31235 0.0
H945 H 0.68062 0.80076 0.35335 0.0
H946 H 0.64495 0.82037 0.31657 0.0
H947 H 0.68983 0.82836 0.35954 0.0
H948 H 0.70581 0.87893 0.32498 0.0
H949 H 0.69708 0.85134 0.31922 0.0
H950 H 0.65195 0.8405 0.36883 0.0
H951 H 0.66051 0.86799 0.37264 0.0
C952 C 0.64746 0.80035 0.32243 0.0
C953 C 0.65734 0.79449 0.33244 0.0
C954 C 0.65284 0.81626 0.32524 0.0
C955 C 0.66816 0.82669 0.33875 0.0
C956 C 0.67805 0.82078 0.3484 0.0
C957 C 0.67273 0.8049 0.34504 0.0
C958 C 0.69407 0.87063 0.33496 0.0
C959 C 0.68384 0.87565 0.34909 0.0
C960 C 0.68904 0.85479 0.33176 0.0
C961 C 0.67373 0.8436 0.34317 0.0
C962 C 0.66369 0.84871 0.35864 0.0
C963 C 0.66865 0.86451 0.36126 0.0
H964 H 0.20208 0.87839 0.35505 0.0
H965 H 0.2116 0.84282 0.30928 0.0
H966 H 0.17474 0.85942 0.36063 0.0
H967 H 0.18396 0.82382 0.31274 0.0
H968 H 0.1356 0.79052 0.36624 0.0
H969 H 0.16318 0.8094 0.36237 0.0
H970 H 0.15239 0.84435 0.31871 0.0
H971 H 0.12488 0.82565 0.32475 0.0
C972 C 0.19829 0.86652 0.3455 0.0
C973 C 0.20903 0.86213 0.33157 0.0
C974 C 0.18254 0.85562 0.34849 0.0
C975 C 0.17701 0.84003 0.33696 0.0
C976 C 0.18777 0.83565 0.32261 0.0
C977 C 0.20361 0.84656 0.32024 0.0
C978 C 0.13915 0.80228 0.35612 0.0
C979 C 0.12805 0.80661 0.34605 0.0
C980 C 0.15499 0.81309 0.35348 0.0
C981 C 0.16012 0.82846 0.34008 0.0
C982 C 0.14895 0.83274 0.32998 0.0
C983 C 0.13313 0.82199 0.33327 0.0
H984 H 0.67951 0.87809 0.85923 0.0
H985 H 0.63415 0.84272 0.8149 0.0
H986 H 0.68784 0.85905 0.86323 0.0
H987 H 0.64272 0.82365 0.8168 0.0
H988 H 0.65776 0.79009 0.86709 0.0
H989 H 0.64928 0.80915 0.86541 0.0
H990 H 0.69481 0.84395 0.81989 0.0
H991 H 0.70343 0.82502 0.82368 0.0
C992 C 0.67135 0.86625 0.84972 0.0
C993 C 0.65616 0.86193 0.83663 0.0
C994 C 0.67618 0.85531 0.85178 0.0
C995 C 0.66602 0.83975 0.84017 0.0
C996 C 0.65082 0.83545 0.82672 0.0
C997 C 0.64591 0.8464 0.82527 0.0
C998 C 0.66598 0.80185 0.85705 0.0
C999 C 0.68129 0.80606 0.84569 0.0
C1000 C 0.66108 0.81277 0.85566 0.0
C1001 C 0.6713 0.82813 0.84228 0.0
C1002 C 0.68665 0.83232 0.83111 0.0
C1003 C 0.69161 0.82145 0.83312 0.0
H1004 H 0.17629 0.87779 0.86623 0.0
H1005 H 0.21186 0.8682 0.82106 0.0
H1006 H 0.15744 0.85007 0.8651 0.0
H1007 H 0.19304 0.84076 0.8178 0.0
H1008 H 0.15987 0.79121 0.85803 0.0
H1009 H 0.17838 0.81883 0.86181 0.0
H1010 H 0.14289 0.82872 0.81739 0.0
H1011 H 0.12421 0.80106 0.81578 0.0
C1012 C 0.18006 0.86977 0.85586 0.0
C1013 C 0.19558 0.87519 0.84405 0.0
C1014 C 0.16924 0.85388 0.85485 0.0
C1015 C 0.17366 0.84307 0.8414 0.0
C1016 C 0.18921 0.8486 0.8293 0.0
C1017 C 0.20002 0.86441 0.83094 0.0
C1018 C 0.15605 0.79929 0.8489 0.0
C1019 C 0.14058 0.79393 0.83653 0.0
C1020 C 0.16669 0.81517 0.85087 0.0
C1021 C 0.16221 0.82612 0.83983 0.0
C1022 C 0.14674 0.82071 0.82695 0.0
C1023 C 0.13604 0.80482 0.82561 0.0
H1024 H 0.1355 0.34693 0.86354 0.0
H1025 H 0.12517 0.30115 0.82255 0.0
H1026 H 0.16312 0.3556 0.86226 0.0
H1027 H 0.1527 0.30992 0.81912 0.0
H1028 H 0.20179 0.32513 0.86028 0.0
H1029 H 0.17446 0.31699 0.86375 0.0
H1030 H 0.18447 0.36194 0.81469 0.0
H1031 H 0.21208 0.37032 0.81332 0.0
C1032 C 0.13914 0.33873 0.85408 0.0
C1033 C 0.12814 0.32332 0.84344 0.0
C1034 C 0.155 0.34373 0.85294 0.0
C1035 C 0.16024 0.33349 0.84057 0.0
C1036 C 0.14917 0.31809 0.82973 0.0
C1037 C 0.13334 0.31305 0.83149 0.0
C1038 C 0.19818 0.33329 0.85008 0.0
C1039 C 0.20911 0.34837 0.83633 0.0
C1040 C 0.18244 0.32858 0.85184 0.0
C1041 C 0.17713 0.33874 0.83923 0.0
C1042 C 0.1881 0.35385 0.8253 0.0
C1043 C 0.20393 0.35864 0.82416 0.0
H1044 H 0.7946 0.65977 0.63663 0.0
H1045 H 0.82876 0.70554 0.68161 0.0
H1046 H 0.81382 0.65158 0.64049 0.0
H1047 H 0.84791 0.69719 0.68744 0.0
H1048 H 0.88237 0.68108 0.65438 0.0
H1049 H 0.86371 0.68995 0.64747 0.0
H1050 H 0.82733 0.6452 0.69316 0.0
H1051 H 0.84593 0.63617 0.6981 0.0
C1052 C 0.80624 0.66809 0.64741 0.0
C1053 C 0.81016 0.68331 0.65884 0.0
C1054 C 0.81725 0.66335 0.65006 0.0
C1055 C 0.83243 0.67364 0.66483 0.0
C1056 C 0.83641 0.68897 0.67544 0.0
C1057 C 0.82542 0.69377 0.67221 0.0
C1058 C 0.8704 0.67316 0.66314 0.0
C1059 C 0.86563 0.6579 0.67671 0.0
C1060 C 0.85968 0.67827 0.65935 0.0
C1061 C 0.84394 0.6683 0.66954 0.0
C1062 C 0.83927 0.65312 0.68403 0.0
C1063 C 0.84995 0.64796 0.68727 0.0
H1064 H 0.3234 0.20127 0.69653 0.0
H1065 H 0.36921 0.21162 0.65593 0.0
H1066 H 0.31454 0.17362 0.69303 0.0
H1067 H 0.36026 0.1841 0.65024 0.0
H1068 H 0.34458 0.13458 0.68757 0.0
H1069 H 0.35291 0.16192 0.69289 0.0
H1070 H 0.30817 0.15263 0.64404 0.0
H1071 H 0.29958 0.12499 0.64086 0.0
C1072 C 0.33156 0.19763 0.68669 0.0
C1073 C 0.34704 0.20864 0.67682 0.0
C1074 C 0.32645 0.18176 0.68426 0.0
C1075 C 0.33664 0.17652 0.67131 0.0
C1076 C 0.35211 0.18761 0.66125 0.0
C1077 C 0.35727 0.20345 0.66433 0.0
C1078 C 0.33651 0.13835 0.67776 0.0
C1079 C 0.32142 0.1276 0.6636 0.0
C1080 C 0.34133 0.1541 0.68059 0.0
C1081 C 0.33129 0.15962 0.66864 0.0
C1082 C 0.31618 0.14884 0.65418 0.0
C1083 C 0.31127 0.13299 0.65198 0.0
H1084 H 0.80166 0.12416 0.65337 0.0
H1085 H 0.79292 0.1603 0.69846 0.0
H1086 H 0.82917 0.14281 0.64799 0.0
H1087 H 0.82061 0.17893 0.69519 0.0
H1088 H 0.86885 0.21181 0.6422 0.0
H1089 H 0.84126 0.193 0.64522 0.0
H1090 H 0.85171 0.15789 0.68964 0.0
H1091 H 0.87928 0.17655 0.6845 0.0
C1092 C 0.80565 0.13607 0.66276 0.0
C1093 C 0.79509 0.14074 0.67638 0.0
C1094 C 0.82148 0.14679 0.65989 0.0
C1095 C 0.82723 0.16245 0.67117 0.0
C1096 C 0.81664 0.16706 0.68539 0.0
C1097 C 0.80075 0.15635 0.68765 0.0
C1098 C 0.86524 0.20003 0.6523 0.0
C1099 C 0.87626 0.19566 0.66297 0.0
C1100 C 0.84939 0.18926 0.65446 0.0
C1101 C 0.84415 0.17388 0.66796 0.0
C1102 C 0.85524 0.16952 0.67839 0.0
C1103 C 0.87109 0.18025 0.67561 0.0
H1104 H 0.99096 0.45673 0.48454 0.0
H1105 H 0.03602 0.49247 0.5297 0.0
H1106 H 0.98226 0.47555 0.48086 0.0
H1107 H 0.02712 0.51124 0.52813 0.0
H1108 H 0.01191 0.54461 0.47849 0.0
H1109 H 0.02054 0.52566 0.47956 0.0
H1110 H 0.97503 0.49051 0.52419 0.0
H1111 H 0.96627 0.50933 0.521 0.0
C1112 C 0.99896 0.46859 0.49427 0.0
C1113 C 0.01419 0.4731 0.50743 0.0
C1114 C 0.99394 0.4794 0.49239 0.0
C1115 C 0.00394 0.49498 0.50423 0.0
C1116 C 0.01915 0.49943 0.51792 0.0
C1117 C 0.02424 0.48865 0.5192 0.0
C1118 C 0.00373 0.5328 0.48824 0.0
C1119 C 0.98839 0.52846 0.49954 0.0
C1120 C 0.00871 0.52194 0.48926 0.0
C1121 C 0.99854 0.50651 0.50222 0.0
C1122 C 0.98316 0.50219 0.51332 0.0
C1123 C 0.97812 0.51301 0.51168 0.0
H1124 H 0.4928 0.45883 0.47827 0.0
H1125 H 0.4566 0.46751 0.52319 0.0
H1126 H 0.51131 0.48655 0.48045 0.0
H1127 H 0.47516 0.49509 0.52747 0.0
H1128 H 0.50877 0.54514 0.48906 0.0
H1129 H 0.49012 0.51752 0.48506 0.0
H1130 H 0.5254 0.50736 0.52981 0.0
H1131 H 0.54418 0.53497 0.53169 0.0
C1132 C 0.48881 0.46666 0.48881 0.0
C1133 C 0.47322 0.46097 0.50038 0.0
C1134 C 0.49945 0.48257 0.49045 0.0
C1135 C 0.49481 0.49316 0.50434 0.0
C1136 C 0.47917 0.48739 0.51585 0.0
C1137 C 0.4685 0.47153 0.5136 0.0
C1138 C 0.51251 0.53699 0.49826 0.0
C1139 C 0.52795 0.54224 0.51063 0.0
C1140 C 0.50179 0.52112 0.49614 0.0
C1141 C 0.5062 0.5101 0.50697 0.0
C1142 C 0.52162 0.51543 0.52025 0.0
C1143 C 0.53238 0.53129 0.52175 0.0
H1144 H 0.54456 0.03496 0.48105 0.0
H1145 H 0.53606 0.98995 0.52399 0.0
H1146 H 0.51684 0.02568 0.48379 0.0
H1147 H 0.50847 0.98085 0.52877 0.0
H1148 H 0.45822 0.96474 0.49105 0.0
H1149 H 0.48584 0.97353 0.48698 0.0
H1150 H 0.49627 0.0188 0.53424 0.0
H1151 H 0.46874 0.01017 0.53628 0.0
C1152 C 0.53677 0.0231 0.49128 0.0
C1153 C 0.54252 0.0132 0.50219 0.0
C1154 C 0.52086 0.01779 0.49324 0.0
C1155 C 0.51032 0.0025 0.50679 0.0
C1156 C 0.51613 0.9926 0.51751 0.0
C1157 C 0.53201 0.99786 0.51497 0.0
C1158 C 0.46643 0.97653 0.50085 0.0
C1159 C 0.46129 0.98676 0.51385 0.0
C1160 C 0.4823 0.98159 0.49865 0.0
C1161 C 0.49339 0.99695 0.50998 0.0
C1162 C 0.48815 0.00702 0.52419 0.0
C1163 C 0.47232 0.00202 0.52579 0.0
H1164 H 0.45792 0.99032 0.02122 0.0
H1165 H 0.49388 0.03552 0.97769 0.0
H1166 H 0.47676 0.98176 0.02715 0.0
H1167 H 0.51274 0.02673 0.98156 0.0
H1168 H 0.54572 0.0117 0.03605 0.0
H1169 H 0.5267 0.02019 0.03222 0.0
H1170 H 0.49221 0.97461 0.98612 0.0
H1171 H 0.5111 0.96598 0.99205 0.0
C1172 C 0.46985 0.99839 0.01226 0.0
C1173 C 0.47439 0.01362 0.99892 0.0
C1174 C 0.48067 0.99343 0.01545 0.0
C1175 C 0.49634 0.0035 1.0048 0.0
C1176 C 0.50085 0.01871 0.99085 0.0
C1177 C 0.49002 0.02374 0.98825 0.0
C1178 C 0.53403 0.00346 0.02545 0.0
C1179 C 0.5299 0.98814 0.01449 0.0
C1180 C 0.52314 0.00838 0.0228 0.0
C1181 C 0.50788 0.99816 0.00852 0.0
C1182 C 0.50375 0.98278 0.99792 0.0
C1183 C 0.5146 0.97781 1.00119 0.0
H1184 H 0.03603 0.54368 0.03261 0.0
H1185 H 0.99117 0.53496 0.98744 0.0
H1186 H 0.02701 0.516 0.02897 0.0
H1187 H 0.98236 0.50747 0.98169 0.0
H1188 H 0.966 0.45733 0.01788 0.0
H1189 H 0.97489 0.48489 0.02319 0.0
H1190 H 0.02047 0.49538 0.97886 0.0
H1191 H 0.0117 0.46779 0.97568 0.0
C1192 C 0.02427 0.53585 0.0217 0.0
C1193 C 0.0143 0.54151 0.01053 0.0
C1194 C 0.01911 0.51997 0.01922 0.0
C1195 C 0.00393 0.5094 1.00489 0.0
C1196 C 0.99401 0.51514 0.99368 0.0
C1197 C 0.9991 0.53097 0.99677 0.0
C1198 C 0.97789 0.46553 0.00904 0.0
C1199 C 0.98814 0.46037 0.99639 0.0
C1200 C 0.98301 0.48138 0.01191 0.0
C1201 C 0.99845 0.49248 1.00155 0.0
C1202 C 0.0086 0.48725 0.98803 0.0
C1203 C 0.00353 0.4714 0.98578 0.0
H1204 H 0.46898 0.45594 0.98829 0.0
H1205 H 0.45932 0.49152 0.03291 0.0
H1206 H 0.49636 0.47499 0.98271 0.0
H1207 H 0.4869 0.51056 0.02941 0.0
H1208 H 0.5347 0.54408 0.97534 0.0
H1209 H 0.50728 0.52478 0.97875 0.0
H1210 H 0.51892 0.49058 0.02394 0.0
H1211 H 0.54636 0.50976 0.01843 0.0
C1212 C 0.47274 0.46782 0.99756 0.0
C1213 C 0.46196 0.47222 0.01107 0.0
C1214 C 0.4885 0.47877 0.99457 0.0
C1215 C 0.49395 0.49439 0.00558 0.0
C1216 C 0.48315 0.49872 0.01979 0.0
C1217 C 0.46733 0.48779 0.02218 0.0
C1218 C 0.53139 0.5324 0.98567 0.0
C1219 C 0.5427 0.52844 0.99651 0.0
C1220 C 0.51564 0.52134 0.98806 0.0
C1221 C 0.51078 0.50608 1.00198 0.0
C1222 C 0.52215 0.50212 0.01243 0.0
C1223 C 0.53792 0.51313 0.00942 0.0
H1224 H 0.4412 0.07365 0.01868 0.0
H1225 H 0.40207 0.02981 0.05862 0.0
H1226 H 0.4287 0.08717 0.05156 0.0
H1227 H 0.39006 0.04314 0.09309 0.0
H1228 H 0.36424 0.06878 0.11121 0.0
H1229 H 0.37728 0.05653 0.07629 0.0
H1230 H 0.42149 0.09426 0.12039 0.0
H1231 H 0.4083 0.10703 0.15372 0.0
C1232 C 0.42994 0.06691 0.03435 0.0
C1233 C 0.42257 0.05064 0.03549 0.0
C1234 C 0.42284 0.07465 0.05366 0.0
C1235 C 0.40829 0.06629 0.07497 0.0
C1236 C 0.40105 0.05003 0.07612 0.0
C1237 C 0.408 0.04233 0.05636 0.0
C1238 C 0.37674 0.07446 0.11392 0.0
C1239 C 0.3852 0.08884 0.1357 0.0
C1240 C 0.38426 0.06737 0.09389 0.0
C1241 C 0.40049 0.07428 0.09568 0.0
C1242 C 0.409 0.08866 0.1178 0.0
C1243 C 0.40144 0.09591 0.13736 0.0
H1244 H 0.89168 0.29547 0.1184 0.0
H1245 H 0.93686 0.30337 0.15682 0.0
H1246 H 0.90368 0.32077 0.08193 0.0
H1247 H 0.94885 0.32892 0.12235 0.0
H1248 H 0.9679 0.36588 0.01619 0.0
H1249 H 0.95459 0.34034 0.05082 0.0
H1250 H 0.91706 0.34786 0.09009 0.0
H1251 H 0.93011 0.37313 0.05347 0.0
C1252 C 0.90416 0.30277 0.11999 0.0
C1253 C 0.91332 0.29739 0.14036 0.0
C1254 C 0.91107 0.31731 0.09903 0.0
C1255 C 0.9273 0.32689 0.09846 0.0
C1256 C 0.93637 0.32174 0.12082 0.0
C1257 C 0.92948 0.30714 0.14115 0.0
C1258 C 0.9567 0.36197 0.03166 0.0
C1259 C 0.95008 0.37153 0.03206 0.0
C1260 C 0.94913 0.34738 0.05208 0.0
C1261 C 0.93483 0.34205 0.07413 0.0
C1262 C 0.92798 0.35145 0.07322 0.0
C1263 C 0.93547 0.36598 0.05219 0.0
H1264 H 0.70159 0.59579 0.15259 0.0
H1265 H 0.70744 0.64008 0.11248 0.0
H1266 H 0.67561 0.5828 0.11954 0.0
H1267 H 0.68209 0.62724 0.07784 0.0
H1268 H 0.63049 0.60226 0.05907 0.0
H1269 H 0.65584 0.61429 0.09384 0.0
H1270 H 0.66159 0.57602 0.05053 0.0
H1271 H 0.63565 0.56353 0.0174 0.0
C1272 C 0.69733 0.60274 0.13684 0.0
C1273 C 0.70654 0.61898 0.13566 0.0
C1274 C 0.6825 0.5953 0.11743 0.0
C1275 C 0.67665 0.60393 0.09596 0.0
C1276 C 0.68595 0.62017 0.09487 0.0
C1277 C 0.7006 0.62757 0.11473 0.0
C1278 C 0.63719 0.59643 0.05651 0.0
C1279 C 0.63106 0.58196 0.03512 0.0
C1280 C 0.65182 0.60339 0.07644 0.0
C1281 C 0.66091 0.59622 0.07496 0.0
C1282 C 0.65487 0.58181 0.05299 0.0
C1283 C 0.64006 0.57471 0.03352 0.0
H1284 H 0.07338 0.44491 0.45316 0.0
H1285 H 0.0356 0.39968 0.48886 0.0
H1286 H 0.08673 0.4329 0.41695 0.0
H1287 H 0.04918 0.38767 0.4546 0.0
H1288 H 0.06731 0.36888 0.34869 0.0
H1289 H 0.05519 0.38235 0.38284 0.0
H1290 H 0.10016 0.41915 0.42547 0.0
H1291 H 0.11231 0.40591 0.38937 0.0
C1292 C 0.06809 0.43241 0.45418 0.0
C1293 C 0.0534 0.42324 0.47373 0.0
C1294 C 0.07575 0.4255 0.43338 0.0
C1295 C 0.06897 0.40926 0.43209 0.0
C1296 C 0.05459 0.40018 0.45363 0.0
C1297 C 0.04686 0.40707 0.47384 0.0
C1298 C 0.07463 0.37996 0.36478 0.0
C1299 C 0.09077 0.38631 0.36634 0.0
C1300 C 0.06766 0.38762 0.38492 0.0
C1301 C 0.07662 0.40174 0.40785 0.0
C1302 C 0.09285 0.40837 0.40796 0.0
C1303 C 0.09985 0.40078 0.38721 0.0
H1304 H 0.63372 0.69898 0.34785 0.0
H1305 H 0.59689 0.70737 0.38777 0.0
H1306 H 0.62003 0.67341 0.38216 0.0
H1307 H 0.58345 0.68203 0.42404 0.0
H1308 H 0.55725 0.62959 0.45229 0.0
H1309 H 0.56951 0.65488 0.41571 0.0
H1310 H 0.61453 0.6621 0.45391 0.0
H1311 H 0.60226 0.63656 0.48855 0.0
C1312 C 0.62264 0.69531 0.3638 0.0
C1313 C 0.6164 0.70521 0.36509 0.0
C1314 C 0.61486 0.6807 0.38403 0.0
C1315 C 0.60073 0.67568 0.40679 0.0
C1316 C 0.59423 0.6854 0.40665 0.0
C1317 C 0.60193 0.69995 0.38581 0.0
C1318 C 0.56976 0.63668 0.45334 0.0
C1319 C 0.57878 0.63104 0.47318 0.0
C1320 C 0.57681 0.65121 0.43233 0.0
C1321 C 0.59306 0.66052 0.43112 0.0
C1322 C 0.60202 0.65511 0.45289 0.0
C1323 C 0.59498 0.64052 0.4733 0.0
H1324 H 0.30221 0.89597 0.35156 0.0
H1325 H 0.29723 0.93494 0.39174 0.0
H1326 H 0.32817 0.90851 0.38474 0.0
H1327 H 0.32254 0.94699 0.42652 0.0
H1328 H 0.37401 0.9728 0.44592 0.0
H1329 H 0.34877 0.95986 0.41057 0.0
H1330 H 0.3422 0.91552 0.45381 0.0
H1331 H 0.36808 0.92861 0.48753 0.0
C1332 C 0.30666 0.9072 0.36734 0.0
C1333 C 0.2977 0.91451 0.3685 0.0
C1334 C 0.32147 0.91433 0.38683 0.0
C1335 C 0.32756 0.92883 0.40835 0.0
C1336 C 0.3185 0.93603 0.40943 0.0
C1337 C 0.30388 0.92906 0.3895 0.0
C1338 C 0.36717 0.96029 0.44833 0.0
C1339 C 0.37304 0.95176 0.46995 0.0
C1340 C 0.35259 0.95283 0.42806 0.0
C1341 C 0.34328 0.93659 0.42944 0.0
C1342 C 0.34909 0.92802 0.45148 0.0
C1343 C 0.36386 0.93552 0.47127 0.0
H1344 H 0.56456 0.92969 0.99149 0.0
H1345 H 0.60342 0.9738 0.95218 0.0
H1346 H 0.57723 0.91645 0.95806 0.0
H1347 H 0.61563 0.96072 0.91713 0.0
H1348 H 0.5976 0.8969 0.8555 0.0
H1349 H 0.58438 0.90962 0.8889 0.0
H1350 H 0.62857 0.9474 0.93297 0.0
H1351 H 0.64164 0.93518 0.89798 0.0
C1352 C 0.5758 0.93655 0.97583 0.0
C1353 C 0.58304 0.95281 0.97499 0.0
C1354 C 0.58301 0.92896 0.95619 0.0
C1355 C 0.59752 0.93747 0.93483 0.0
C1356 C 0.60466 0.95373 0.93407 0.0
C1357 C 0.5976 0.96128 0.95417 0.0
C1358 C 0.60445 0.90803 0.87183 0.0
C1359 C 0.62068 0.9151 0.87355 0.0
C1360 C 0.59687 0.91525 0.89145 0.0
C1361 C 0.60537 0.92961 0.91368 0.0
C1362 C 0.6216 0.93657 0.91534 0.0
C1363 C 0.62914 0.9295 0.89526 0.0
H1364 H 0.11234 0.70671 0.8932 0.0
H1365 H 0.06719 0.69906 0.85546 0.0
H1366 H 0.10028 0.6814 0.9296 0.0
H1367 H 0.05514 0.6735 0.88991 0.0
H1368 H 0.03605 0.63651 0.99574 0.0
H1369 H 0.04951 0.66211 0.96153 0.0
H1370 H 0.08674 0.65428 0.9212 0.0
H1371 H 0.07353 0.62892 0.95738 0.0
C1372 C 0.09985 0.69947 0.89177 0.0
C1373 C 0.09072 0.70492 0.87158 0.0
C1374 C 0.09291 0.68492 0.91268 0.0
C1375 C 0.07668 0.67541 0.91343 0.0
C1376 C 0.06763 0.68064 0.89129 0.0
C1377 C 0.07455 0.69524 0.87098 0.0
C1378 C 0.04722 0.64036 0.98015 0.0
C1379 C 0.05371 0.63068 0.97927 0.0
C1380 C 0.05488 0.65499 0.95997 0.0
C1381 C 0.06912 0.66024 0.93768 0.0
C1382 C 0.07586 0.65074 0.93822 0.0
C1383 C 0.06829 0.63617 0.95902 0.0
H1384 H 0.3736 0.40029 0.94943 0.0
H1385 H 0.36897 0.43941 0.99008 0.0
H1386 H 0.34827 0.38838 0.91491 0.0
H1387 H 0.34296 0.42701 0.95716 0.0
H1388 H 0.30257 0.40671 0.85561 0.0
H1389 H 0.3286 0.41987 0.88841 0.0
H1390 H 0.32215 0.37562 0.93212 0.0
H1391 H 0.29678 0.36262 0.89772 0.0
C1392 C 0.36703 0.40624 0.95183 0.0
C1393 C 0.37329 0.42076 0.97295 0.0
C1394 C 0.35239 0.39934 0.93204 0.0
C1395 C 0.3434 0.40661 0.93342 0.0
C1396 C 0.3496 0.42113 0.9549 0.0
C1397 C 0.36444 0.42818 0.97423 0.0
C1398 C 0.30685 0.39984 0.87175 0.0
C1399 C 0.29766 0.3836 0.8735 0.0
C1400 C 0.32171 0.40738 0.89101 0.0
C1401 C 0.32759 0.39884 0.91288 0.0
C1402 C 0.31827 0.38261 0.91469 0.0
C1403 C 0.30362 0.37512 0.89497 0.0
H1404 H 0.89248 0.59772 0.62217 0.0
H1405 H 0.93766 0.63445 0.66279 0.0
H1406 H 0.9044 0.58427 0.58606 0.0
H1407 H 0.94955 0.62074 0.62863 0.0
H1408 H 0.96871 0.60301 0.52229 0.0
H1409 H 0.95546 0.61529 0.55691 0.0
H1410 H 0.91755 0.57027 0.59456 0.0
H1411 H 0.93056 0.55799 0.558 0.0
C1412 C 0.90494 0.60274 0.62433 0.0
C1413 C 0.91413 0.61718 0.64518 0.0
C1414 C 0.9118 0.59502 0.60357 0.0
C1415 C 0.92801 0.6015 0.60367 0.0
C1416 C 0.93709 0.61559 0.62658 0.0
C1417 C 0.93026 0.62338 0.64672 0.0
C1418 C 0.95745 0.59573 0.53741 0.0
C1419 C 0.9507 0.57953 0.53738 0.0
C1420 C 0.9499 0.60278 0.55782 0.0
C1421 C 0.93551 0.59383 0.57941 0.0
C1422 C 0.92854 0.57757 0.57807 0.0
C1423 C 0.93601 0.57051 0.55707 0.0
H1424 H 0.44582 0.3738 0.55931 0.0
H1425 H 0.40082 0.36591 0.51877 0.0
H1426 H 0.43362 0.34844 0.59567 0.0
H1427 H 0.38866 0.34037 0.55325 0.0
H1428 H 0.36909 0.30364 0.65964 0.0
H1429 H 0.38279 0.32924 0.62548 0.0
H1430 H 0.42001 0.32118 0.58681 0.0
H1431 H 0.40654 0.29579 0.62283 0.0
C1432 C 0.43334 0.3665 0.55727 0.0
C1433 C 0.42428 0.37189 0.53634 0.0
C1434 C 0.42633 0.35194 0.57816 0.0
C1435 C 0.41009 0.34238 0.57816 0.0
C1436 C 0.40114 0.34755 0.55522 0.0
C1437 C 0.40813 0.36214 0.53491 0.0
C1438 C 0.3803 0.30743 0.64441 0.0
C1439 C 0.3867 0.29767 0.6439 0.0
C1440 C 0.3881 0.32205 0.62429 0.0
C1441 C 0.40241 0.32723 0.60248 0.0
C1442 C 0.40908 0.31767 0.60344 0.0
C1443 C 0.40135 0.30309 0.62413 0.0
H1444 H 0.63777 0.03609 0.51959 0.0
H1445 H 0.62973 0.0733 0.5579 0.0
H1446 H 0.66333 0.04973 0.55392 0.0
H1447 H 0.65508 0.0867 0.59418 0.0
H1448 H 0.70764 0.11262 0.62189 0.0
H1449 H 0.68227 0.10043 0.58573 0.0
H1450 H 0.67459 0.0554 0.62577 0.0
H1451 H 0.70018 0.06756 0.65998 0.0
C1452 C 0.64151 0.04724 0.5352 0.0
C1453 C 0.63171 0.0536 0.53603 0.0
C1454 C 0.65611 0.055 0.55544 0.0
C1455 C 0.66124 0.06922 0.57774 0.0
C1456 C 0.65163 0.07584 0.57716 0.0
C1457 C 0.63707 0.06815 0.55631 0.0
C1458 C 0.70043 0.10013 0.62346 0.0
C1459 C 0.70595 0.09105 0.64363 0.0
C1460 C 0.68585 0.09312 0.60268 0.0
C1461 C 0.6764 0.07687 0.60205 0.0
C1462 C 0.68169 0.06789 0.62427 0.0
C1463 C 0.69631 0.07488 0.64444 0.0
H1464 H 0.7401 0.77197 0.82124 0.0
H1465 H 0.69621 0.73299 0.78092 0.0
H1466 H 0.75357 0.75959 0.7875 0.0
H1467 H 0.70953 0.72107 0.74554 0.0
H1468 H 0.73564 0.69563 0.72499 0.0
H1469 H 0.72307 0.70829 0.76055 0.0
H1470 H 0.7606 0.75289 0.7181 0.0
H1471 H 0.77364 0.74009 0.68418 0.0
C1472 C 0.73334 0.76076 0.80529 0.0
C1473 C 0.71708 0.75341 0.80423 0.0
C1474 C 0.74106 0.75373 0.78548 0.0
C1475 C 0.73269 0.73928 0.76369 0.0
C1476 C 0.71642 0.732 0.76278 0.0
C1477 C 0.70874 0.7389 0.78306 0.0
C1478 C 0.74119 0.70814 0.7228 0.0
C1479 C 0.75562 0.71684 0.70141 0.0
C1480 C 0.73393 0.71543 0.74318 0.0
C1481 C 0.74072 0.73166 0.74216 0.0
C1482 C 0.75509 0.74039 0.72021 0.0
C1483 C 0.76251 0.73306 0.70029 0.0
H1484 H 0.22936 0.9685 0.82057 0.0
H1485 H 0.26798 0.96305 0.77965 0.0
H1486 H 0.24198 0.99438 0.78677 0.0
H1487 H 0.28009 0.98826 0.74427 0.0
H1488 H 0.30637 0.03969 0.72511 0.0
H1489 H 0.29321 0.01446 0.76034 0.0
H1490 H 0.24905 0.00846 0.7176 0.0
H1491 H 0.26238 0.03437 0.68396 0.0
C1492 C 0.24053 0.97283 0.80448 0.0
C1493 C 0.24774 0.96378 0.80337 0.0
C1494 C 0.2477 0.98759 0.78464 0.0
C1495 C 0.26213 0.99353 0.76281 0.0
C1496 C 0.2692 0.98435 0.76163 0.0
C1497 C 0.26219 0.96978 0.78192 0.0
C1498 C 0.29386 0.03298 0.72274 0.0
C1499 C 0.28545 0.03903 0.7013 0.0
C1500 C 0.28626 0.0184 0.74295 0.0
C1501 C 0.27001 0.00925 0.74169 0.0
C1502 C 0.26156 0.01523 0.71981 0.0
C1503 C 0.2692 0.03001 0.70006 0.0
H1504 H 0.03333 0.30186 0.82239 0.0
H1505 H 0.04134 0.26465 0.78399 0.0
H1506 H 0.00778 0.28826 0.78787 0.0
H1507 H 0.01606 0.25132 0.74749 0.0
H1508 H 0.96368 0.22516 0.71987 0.0
H1509 H 0.98901 0.23753 0.75614 0.0
H1510 H 0.99623 0.28244 0.71648 0.0
H1511 H 0.97064 0.27006 0.68219 0.0
C1512 C 0.02959 0.29073 0.80669 0.0
C1513 C 0.03936 0.28434 0.80596 0.0
C1514 C 0.015 0.28299 0.78634 0.0
C1515 C 0.00987 0.26876 0.76405 0.0
C1516 C 0.01949 0.26216 0.76457 0.0
C1517 C 0.03402 0.26981 0.78552 0.0
C1518 C 0.97078 0.23767 0.71843 0.0
C1519 C 0.96513 0.24663 0.69828 0.0
C1520 C 0.98534 0.24478 0.73925 0.0
C1521 C 0.99467 0.26104 0.73994 0.0
C1522 C 0.98924 0.26993 0.71789 0.0
C1523 C 0.97462 0.26283 0.69767 0.0
H1524 H 0.26493 0.22507 0.22632 0.0
H1525 H 0.30197 0.27032 0.18747 0.0
H1526 H 0.25149 0.23695 0.26256 0.0
H1527 H 0.28825 0.28219 0.22173 0.0
H1528 H 0.26995 0.30108 0.32744 0.0
H1529 H 0.28242 0.28797 0.293 0.0
H1530 H 0.23757 0.25008 0.25394 0.0
H1531 H 0.22512 0.26292 0.29037 0.0
C1532 C 0.27003 0.23754 0.22461 0.0
C1533 C 0.28454 0.24675 0.20415 0.0
C1534 C 0.26231 0.24438 0.24543 0.0
C1535 C 0.26884 0.2606 0.24577 0.0
C1536 C 0.28304 0.26972 0.22341 0.0
C1537 C 0.29084 0.2629 0.20321 0.0
C1538 C 0.26275 0.28985 0.31205 0.0
C1539 C 0.24655 0.28305 0.31168 0.0
C1540 C 0.26991 0.28239 0.29174 0.0
C1541 C 0.26106 0.26804 0.26984 0.0
C1542 C 0.2448 0.26103 0.27071 0.0
C1543 C 0.23763 0.26841 0.29163 0.0
H1544 H 0.74111 0.96907 0.32591 0.0
H1545 H 0.69674 0.96287 0.28517 0.0
H1546 H 0.75401 0.99488 0.29191 0.0
H1547 H 0.70951 0.98809 0.24956 0.0
H1548 H 0.77331 0.03428 0.18833 0.0
H1549 H 0.76075 0.00848 0.22237 0.0
H1550 H 0.72249 0.01446 0.26406 0.0
H1551 H 0.73459 0.03967 0.22839 0.0
C1552 C 0.73412 0.97323 0.30982 0.0
C1553 C 0.71789 0.96397 0.30872 0.0
C1554 C 0.74151 0.98796 0.28985 0.0
C1555 C 0.73285 0.99367 0.26786 0.0
C1556 C 0.71661 0.98433 0.26694 0.0
C1557 C 0.70925 0.96977 0.28736 0.0
C1558 C 0.76212 0.02995 0.20429 0.0
C1559 C 0.7549 0.03898 0.2052 0.0
C1560 C 0.75498 0.01522 0.22428 0.0
C1561 C 0.74056 0.00929 0.24611 0.0
C1562 C 0.7334 0.0184 0.24683 0.0
C1563 C 0.7404 0.03296 0.22638 0.0
H1564 H 0.03349 0.73253 0.32921 0.0
H1565 H 0.04061 0.7776 0.29286 0.0
H1566 H 0.00792 0.72033 0.29484 0.0
H1567 H 0.0153 0.7654 0.25655 0.0
H1568 H 0.96293 0.73833 0.22825 0.0
H1569 H 0.98817 0.75157 0.26499 0.0
H1570 H 0.99659 0.71485 0.22305 0.0
H1571 H 0.97109 0.70135 0.18824 0.0
C1572 C 0.02955 0.73984 0.31404 0.0
C1573 C 0.03909 0.75602 0.31377 0.0
C1574 C 0.01494 0.73284 0.29377 0.0
C1575 C 0.00957 0.74183 0.27203 0.0
C1576 C 0.01893 0.75807 0.27316 0.0
C1577 C 0.03348 0.76509 0.29402 0.0
C1578 C 0.97027 0.7332 0.22641 0.0
C1579 C 0.96498 0.71876 0.20547 0.0
C1580 C 0.98478 0.7408 0.24752 0.0
C1581 C 0.99442 0.73421 0.2477 0.0
C1582 C 0.98935 0.72009 0.22486 0.0
C1583 C 0.97478 0.71242 0.20435 0.0
H1584 H 0.36304 0.11463 0.02354 0.0
H1585 H 0.31677 0.07554 0.03952 0.0
H1586 H 0.35965 0.11313 0.94212 0.0
H1587 H 0.3135 0.07394 0.95782 0.0
H1588 H 0.30772 0.08685 0.81384 0.0
H1589 H 0.3111 0.08884 0.89524 0.0
H1590 H 0.35723 0.09571 0.87981 0.0
H1591 H 0.35396 0.09393 0.79811 0.0
C1592 C 0.35213 0.10572 0.00972 0.0
C1593 C 0.34016 0.09521 0.03805 0.0
C1594 C 0.35025 0.1048 0.96301 0.0
C1595 C 0.33634 0.09339 0.94357 0.0
C1596 C 0.3243 0.08296 0.97187 0.0
C1597 C 0.3262 0.08384 0.01865 0.0
C1598 C 0.31862 0.08884 0.82771 0.0
C1599 C 0.33058 0.09025 0.79945 0.0
C1600 C 0.3205 0.08987 0.87441 0.0
C1601 C 0.3344 0.09239 0.89392 0.0
C1602 C 0.34643 0.09392 0.8657 0.0
C1603 C 0.34453 0.09283 0.81893 0.0
H1604 H 0.93039 0.24466 0.03917 0.0
H1605 H 0.89076 0.251 0.0234 0.0
H1606 H 0.93212 0.24323 0.95741 0.0
H1607 H 0.89242 0.24938 0.94194 0.0
H1608 H 0.91117 0.26256 0.79734 0.0
H1609 H 0.90979 0.26449 0.8791 0.0
H1610 H 0.91695 0.22545 0.89563 0.0
H1611 H 0.9185 0.22359 0.81428 0.0
C1612 C 0.92203 0.2457 0.01833 0.0
C1613 C 0.91043 0.24792 0.0378 0.0
C1614 C 0.92298 0.24482 0.97154 0.0
C1615 C 0.91241 0.24621 0.94332 0.0
C1616 C 0.90084 0.24846 0.9628 0.0
C1617 C 0.89984 0.24927 0.00952 0.0
C1618 C 0.91242 0.25438 0.81843 0.0
C1619 C 0.91493 0.24292 0.7993 0.0
C1620 C 0.91158 0.25546 0.86521 0.0
C1621 C 0.9133 0.24514 0.89372 0.0
C1622 C 0.91578 0.23368 0.87455 0.0
C1623 C 0.91655 0.23256 0.82788 0.0
H1624 H 0.75469 0.64036 0.02298 0.0
H1625 H 0.7618 0.68666 0.03723 0.0
H1626 H 0.75668 0.64348 0.9415 0.0
H1627 H 0.76356 0.68967 0.95545 0.0
H1628 H 0.74357 0.64887 0.79651 0.0
H1629 H 0.74191 0.64571 0.87828 0.0
H1630 H 0.78101 0.69194 0.89368 0.0
H1631 H 0.78256 0.69521 0.81229 0.0
C1632 C 0.75668 0.65122 0.00876 0.0
C1633 C 0.75811 0.66328 0.03664 0.0
C1634 C 0.75771 0.65295 0.96202 0.0
C1635 C 0.76023 0.6668 0.94207 0.0
C1636 C 0.76177 0.67891 0.96991 0.0
C1637 C 0.7607 0.67717 0.01672 0.0
C1638 C 0.75184 0.65833 0.81735 0.0
C1639 C 0.76318 0.67229 0.79787 0.0
C1640 C 0.75093 0.6565 0.86416 0.0
C1641 C 0.7613 0.66861 0.89239 0.0
C1642 C 0.77271 0.68249 0.87285 0.0
C1643 C 0.77366 0.68431 0.82615 0.0
H1644 H 0.07895 0.34608 0.70502 0.0
H1645 H 0.10121 0.31844 0.69687 0.0
H1646 H 0.08023 0.34871 0.62258 0.0
H1647 H 0.10287 0.32151 0.61484 0.0
H1648 H 0.11853 0.35309 0.47887 0.0
H1649 H 0.11727 0.35037 0.56102 0.0
H1650 H 0.06742 0.32319 0.55417 0.0
H1651 H 0.06862 0.32547 0.47167 0.0
C1652 C 0.08427 0.34076 0.68569 0.0
C1653 C 0.08998 0.33206 0.70718 0.0
C1654 C 0.0849 0.34218 0.63873 0.0
C1655 C 0.09158 0.33525 0.61287 0.0
C1656 C 0.09765 0.32691 0.63435 0.0
C1657 C 0.09669 0.32517 0.6811 0.0
C1658 C 0.10731 0.34646 0.49487 0.0
C1659 C 0.09366 0.33945 0.46901 0.0
C1660 C 0.10662 0.34493 0.54169 0.0
C1661 C 0.09226 0.33668 0.56344 0.0
C1662 C 0.0786 0.32967 0.53782 0.0
C1663 C 0.0793 0.33089 0.49082 0.0
H1664 H 0.69492 0.77827 0.6923 0.0
H1665 H 0.64827 0.73983 0.70809 0.0
H1666 H 0.69179 0.77652 0.61086 0.0
H1667 H 0.64523 0.738 0.62625 0.0
H1668 H 0.64051 0.75174 0.48169 0.0
H1669 H 0.64354 0.75335 0.56318 0.0
H1670 H 0.68907 0.75858 0.54928 0.0
H1671 H 0.68615 0.75715 0.4674 0.0
C1672 C 0.68398 0.76945 0.67843 0.0
C1673 C 0.67182 0.75919 0.70671 0.0
C1674 C 0.68225 0.76838 0.63172 0.0
C1675 C 0.6683 0.75709 0.61221 0.0
C1676 C 0.65608 0.74691 0.64041 0.0
C1677 C 0.65783 0.74793 0.68723 0.0
C1678 C 0.6512 0.75326 0.49591 0.0
C1679 C 0.66312 0.75435 0.46804 0.0
C1680 C 0.65286 0.75407 0.54265 0.0
C1681 C 0.66651 0.75605 0.56258 0.0
C1682 C 0.67847 0.75719 0.53478 0.0
C1683 C 0.67678 0.75631 0.48794 0.0
H1684 H 0.26162 0.90914 0.70743 0.0
H1685 H 0.22226 0.91593 0.69204 0.0
H1686 H 0.26324 0.90765 0.62565 0.0
H1687 H 0.22379 0.91424 0.61058 0.0
H1688 H 0.24291 0.92813 0.46668 0.0
H1689 H 0.24123 0.92951 0.54847 0.0
H1690 H 0.24829 0.89034 0.56295 0.0
H1691 H 0.25018 0.88904 0.48149 0.0
C1692 C 0.25327 0.91022 0.68667 0.0
C1693 C 0.24182 0.91265 0.70625 0.0
C1694 C 0.25416 0.90931 0.63986 0.0
C1695 C 0.24366 0.91087 0.61174 0.0
C1696 C 0.23217 0.91321 0.63136 0.0
C1697 C 0.23124 0.91406 0.67808 0.0
C1698 C 0.24408 0.9198 0.48731 0.0
C1699 C 0.24668 0.90848 0.46757 0.0
C1700 C 0.24305 0.92055 0.53412 0.0
C1701 C 0.24466 0.91005 0.56208 0.0
C1702 C 0.24721 0.89871 0.54231 0.0
C1703 C 0.24818 0.89792 0.49558 0.0
H1704 H 0.69711 0.93108 0.19822 0.0
H1705 H 0.64941 0.8951 0.21329 0.0
H1706 H 0.69403 0.93017 0.11693 0.0
H1707 H 0.64649 0.89316 0.13158 0.0
H1708 H 0.6411 0.9024 0.98588 0.0
H1709 H 0.64403 0.90438 0.06729 0.0
H1710 H 0.6921 0.91667 0.05285 0.0
H1711 H 0.68929 0.91585 0.97119 0.0
C1712 C 0.686 0.9228 0.18385 0.0
C1713 C 0.67349 0.91314 0.21174 0.0
C1714 C 0.68424 0.92215 0.13716 0.0
C1715 C 0.67003 0.9115 0.11716 0.0
C1716 C 0.65753 0.90175 0.14545 0.0
C1717 C 0.65918 0.90274 0.19231 0.0
C1718 C 0.65229 0.90557 1.00034 0.0
C1719 C 0.66499 0.909 0.97253 0.0
C1720 C 0.65397 0.90658 0.04708 0.0
C1721 C 0.6683 0.91062 0.06716 0.0
C1722 C 0.68096 0.91387 0.03893 0.0
C1723 C 0.67937 0.9133 0.99208 0.0
H1724 H 0.08516 0.77859 0.19665 0.0
H1725 H 0.09239 0.73954 0.21314 0.0
H1726 H 0.08665 0.77676 0.11525 0.0
H1727 H 0.09369 0.73763 0.13136 0.0
H1728 H 0.11311 0.75141 0.98779 0.0
H1729 H 0.11123 0.75287 0.06916 0.0
H1730 H 0.07163 0.75916 0.05288 0.0
H1731 H 0.0736 0.75787 0.9711 0.0
C1732 C 0.08705 0.7696 0.18293 0.0
C1733 C 0.0887 0.75922 0.2114 0.0
C1734 C 0.08779 0.76849 0.13625 0.0
C1735 C 0.09024 0.75704 0.11696 0.0
C1736 C 0.09193 0.74667 0.14535 0.0
C1737 C 0.09113 0.74773 0.19214 0.0
C1738 C 0.10401 0.75313 1.00146 0.0
C1739 C 0.09351 0.75456 0.97294 0.0
C1740 C 0.10287 0.75385 0.04813 0.0
C1741 C 0.09126 0.75608 0.06737 0.0
C1742 C 0.08079 0.75757 0.03893 0.0
C1743 C 0.08188 0.75678 0.99215 0.0
H1744 H 0.22231 0.30687 0.19705 0.0
H1745 H 0.26209 0.35268 0.21352 0.0
H1746 H 0.22388 0.31037 0.11576 0.0
H1747 H 0.26375 0.35607 0.13177 0.0
H1748 H 0.24254 0.31553 0.97184 0.0
H1749 H 0.2411 0.31238 0.05355 0.0
H1750 H 0.24902 0.3589 0.06914 0.0
H1751 H 0.25066 0.36215 0.98763 0.0
C1752 C 0.2314 0.3177 0.18336 0.0
C1753 C 0.24208 0.32951 0.21181 0.0
C1754 C 0.23235 0.31964 0.13671 0.0
C1755 C 0.24397 0.33345 0.11738 0.0
C1756 C 0.25458 0.34534 0.14576 0.0
C1757 C 0.25367 0.34338 0.19254 0.0
C1758 C 0.24394 0.32507 0.99269 0.0
C1759 C 0.24669 0.33907 0.97321 0.0
C1760 C 0.24306 0.32325 0.03947 0.0
C1761 C 0.24496 0.33541 0.06774 0.0
C1762 C 0.24769 0.3494 0.04826 0.0
C1763 C 0.24852 0.3512 1.00152 0.0
H1764 H 0.93674 0.67753 0.53912 0.0
H1765 H 0.88673 0.65124 0.5332 0.0
H1766 H 0.93775 0.67961 0.45656 0.0
H1767 H 0.88781 0.65376 0.45103 0.0
H1768 H 0.90282 0.68403 0.31428 0.0
H1769 H 0.90143 0.68118 0.39636 0.0
H1770 H 0.92538 0.65521 0.38878 0.0
H1771 H 0.92639 0.65762 0.30629 0.0
C1772 C 0.926 0.67236 0.52022 0.0
C1773 C 0.91166 0.66423 0.54238 0.0
C1774 C 0.92659 0.67346 0.4732 0.0
C1775 C 0.91285 0.66677 0.44791 0.0
C1776 C 0.89853 0.65896 0.47006 0.0
C1777 C 0.89794 0.65754 0.51689 0.0
C1778 C 0.90767 0.6776 0.33011 0.0
C1779 C 0.91467 0.671 0.30408 0.0
C1780 C 0.90687 0.67599 0.37689 0.0
C1781 C 0.91339 0.66808 0.39844 0.0
C1782 C 0.92036 0.66143 0.3726 0.0
C1783 C 0.92083 0.66271 0.32562 0.0
H1784 H 0.32563 0.25912 0.54 0.0
H1785 H 0.35263 0.23616 0.53244 0.0
H1786 H 0.32325 0.25803 0.45749 0.0
H1787 H 0.34981 0.23469 0.45035 0.0
H1788 H 0.31878 0.21922 0.3143 0.0
H1789 H 0.32163 0.2206 0.39638 0.0
H1790 H 0.34816 0.27048 0.38913 0.0
H1791 H 0.34575 0.26917 0.30663 0.0
C1792 C 0.33088 0.2537 0.52076 0.0
C1793 C 0.3393 0.24772 0.54245 0.0
C1794 C 0.32961 0.25318 0.47377 0.0
C1795 C 0.33642 0.24634 0.44806 0.0
C1796 C 0.34451 0.24004 0.46973 0.0
C1797 C 0.3461 0.24089 0.51652 0.0
C1798 C 0.32531 0.23048 0.33019 0.0
C1799 C 0.33209 0.2441 0.30424 0.0
C1800 C 0.32692 0.23123 0.37698 0.0
C1801 C 0.33501 0.24563 0.39862 0.0
C1802 C 0.34181 0.25927 0.37287 0.0
C1803 C 0.34052 0.25851 0.32588 0.0
H1804 H 0.75887 0.07442 0.54167 0.0
H1805 H 0.75306 0.11439 0.52668 0.0
H1806 H 0.76064 0.07301 0.45991 0.0
H1807 H 0.75502 0.11307 0.44524 0.0
H1808 H 0.74197 0.09476 0.30019 0.0
H1809 H 0.74004 0.09612 0.38192 0.0
H1810 H 0.77854 0.0881 0.39843 0.0
H1811 H 0.78038 0.08655 0.31704 0.0
C1812 C 0.75803 0.08292 0.521 0.0
C1813 C 0.75584 0.09451 0.5407 0.0
C1814 C 0.7591 0.08216 0.4742 0.0
C1815 C 0.75795 0.09293 0.44619 0.0
C1816 C 0.75576 0.1045 0.46591 0.0
C1817 C 0.75474 0.1053 0.51263 0.0
C1818 C 0.75005 0.09334 0.32126 0.0
C1819 C 0.76132 0.09055 0.30209 0.0
C1820 C 0.74898 0.09417 0.36804 0.0
C1821 C 0.75912 0.09216 0.39656 0.0
C1822 C 0.77043 0.08947 0.37735 0.0
C1823 C 0.77154 0.0887 0.33066 0.0
H1824 H 0.02019 0.42542 0.13028 0.0
H1825 H 0.97403 0.41838 0.14787 0.0
H1826 H 0.02367 0.42692 0.21197 0.0
H1827 H 0.97761 0.42006 0.22918 0.0
H1828 H 0.98354 0.40664 0.37267 0.0
H1829 H 0.98021 0.40492 0.29098 0.0
H1830 H 0.02619 0.44435 0.27486 0.0
H1831 H 0.02962 0.446 0.3563 0.0
C1832 C 0.01083 0.42425 0.1515 0.0
C1833 C 0.99685 0.42178 0.13256 0.0
C1834 C 0.01284 0.42518 0.19825 0.0
C1835 C 1.00089 0.42357 0.22695 0.0
C1836 C 0.98695 0.42114 0.20797 0.0
C1837 C 0.98496 0.42029 0.16132 0.0
C1838 C 0.99293 0.41495 0.35171 0.0
C1839 C 0.00683 0.42646 0.37101 0.0
C1840 C 0.991 0.414 0.30495 0.0
C1841 C 0.00295 0.4245 0.27655 0.0
C1842 C 0.01685 0.43598 0.29585 0.0
C1843 C 0.01875 0.43698 0.34256 0.0
H1844 H 0.57548 0.59497 0.1325 0.0
H1845 H 0.58377 0.55659 0.14886 0.0
H1846 H 0.5739 0.59667 0.2142 0.0
H1847 H 0.58198 0.55819 0.23028 0.0
H1848 H 0.59487 0.57737 0.37448 0.0
H1849 H 0.59663 0.57576 0.29276 0.0
H1850 H 0.55671 0.58151 0.2766 0.0
H1851 H 0.55504 0.58332 0.35794 0.0
C1852 C 0.57689 0.58686 0.15346 0.0
C1853 C 0.57973 0.57564 0.13415 0.0
C1854 C 0.57592 0.58779 0.20024 0.0
C1855 C 0.57784 0.57757 0.22864 0.0
C1856 C 0.58065 0.56635 0.20931 0.0
C1857 C 0.58156 0.56538 0.1626 0.0
C1858 C 0.58646 0.57826 0.35349 0.0
C1859 C 0.57483 0.58047 0.37274 0.0
C1860 C 0.58743 0.57728 0.30671 0.0
C1861 C 0.57682 0.57855 0.27828 0.0
C1862 C 0.56517 0.5807 0.29758 0.0
C1863 C 0.56417 0.58162 0.34425 0.0
H1864 H 0.42844 0.02022 0.37519 0.0
H1865 H 0.42111 0.97388 0.35938 0.0
H1866 H 0.42977 0.02333 0.29338 0.0
H1867 H 0.42264 0.97709 0.27796 0.0
H1868 H 0.40853 0.98232 0.13461 0.0
H1869 H 0.40728 0.97938 0.21644 0.0
H1870 H 0.44678 0.02545 0.23006 0.0
H1871 H 0.44793 0.0285 0.14857 0.0
C1872 C 0.42722 0.01075 0.35434 0.0
C1873 C 0.42467 0.99682 0.37381 0.0
C1874 C 0.42803 0.01254 0.30752 0.0
C1875 C 0.42625 1.00042 0.27929 0.0
C1876 C 0.42383 0.98655 0.29881 0.0
C1877 C 0.42307 0.98478 0.34552 0.0
C1878 C 0.41695 0.99181 0.15506 0.0
C1879 C 0.42833 0.00563 0.13506 0.0
C1880 C 0.41628 0.9901 0.20189 0.0
C1881 C 0.42693 0.0022 0.22963 0.0
C1882 C 0.4383 0.016 0.2096 0.0
C1883 C 0.43901 0.01769 0.16286 0.0
H1884 H 0.59641 0.02145 0.87881 0.0
H1885 H 0.558 0.9748 0.86255 0.0
H1886 H 0.59831 0.02458 0.79702 0.0
H1887 H 0.55982 0.97803 0.78113 0.0
H1888 H 0.57934 0.98384 0.63778 0.0
H1889 H 0.57777 0.98081 0.71961 0.0
H1890 H 0.5831 0.02638 0.73387 0.0
H1891 H 0.58486 0.02952 0.65241 0.0
C1892 C 0.58833 0.01191 0.85786 0.0
C1893 C 0.57705 0.9979 0.87719 0.0
C1894 C 0.58939 0.01372 0.81106 0.0
C1895 C 0.57924 0.00152 0.78272 0.0
C1896 C 0.56794 0.98755 0.80209 0.0
C1897 C 0.56683 0.98576 0.84879 0.0
C1898 C 0.58017 0.9932 0.65839 0.0
C1899 C 0.58221 0.0069 0.63858 0.0
C1900 C 0.5792 0.99144 0.7052 0.0
C1901 C 0.58034 0.00338 0.7331 0.0
C1902 C 0.58238 0.01706 0.71327 0.0
C1903 C 0.58328 0.0188 0.66654 0.0
H1904 H 0.97454 0.55637 0.65278 0.0
H1905 H 0.02076 0.59539 0.63515 0.0
H1906 H 0.9781 0.55831 0.7341 0.0
H1907 H 0.02421 0.59741 0.71684 0.0
H1908 H 0.03003 0.58432 0.86136 0.0
H1909 H 0.02665 0.58253 0.77992 0.0
H1910 H 0.98072 0.57614 0.7957 0.0
H1911 H 0.984 0.57775 0.87742 0.0
C1912 C 0.98547 0.56537 0.66622 0.0
C1913 C 0.99738 0.57572 0.63745 0.0
C1914 C 0.98745 0.56654 0.71287 0.0
C1915 C 1.0014 0.57804 0.73184 0.0
C1916 C 0.01337 0.58834 0.70313 0.0
C1917 C 0.01137 0.58721 0.65638 0.0
C1918 C 0.01919 0.58251 0.84754 0.0
C1919 C 0.00726 0.58114 0.87591 0.0
C1920 C 0.01731 0.58159 0.80084 0.0
C1921 C 0.00344 0.57922 0.78144 0.0
C1922 C 0.99149 0.57782 0.80975 0.0
C1923 C 0.99339 0.57881 0.85652 0.0
H1924 H 0.4022 0.41092 0.6398 0.0
H1925 H 0.45216 0.43374 0.64626 0.0
H1926 H 0.40114 0.41222 0.7223 0.0
H1927 H 0.45103 0.4354 0.72839 0.0
H1928 H 0.43463 0.45067 0.86521 0.0
H1929 H 0.43603 0.44947 0.783 0.0
H1930 H 0.41478 0.39973 0.78989 0.0
H1931 H 0.41376 0.40087 0.8724 0.0
C1932 C 0.41292 0.41637 0.65878 0.0
C1933 C 0.42726 0.42223 0.63679 0.0
C1934 C 0.4123 0.41701 0.70577 0.0
C1935 C 0.42601 0.42385 0.73117 0.0
C1936 C 0.44034 0.43006 0.70922 0.0
C1937 C 0.44096 0.4291 0.66242 0.0
C1938 C 0.43036 0.43949 0.8492 0.0
C1939 C 0.42413 0.42586 0.87505 0.0
C1940 C 0.43116 0.43883 0.80235 0.0
C1941 C 0.42541 0.42451 0.78062 0.0
C1942 C 0.4192 0.41087 0.80625 0.0
C1943 C 0.41873 0.41155 0.85325 0.0
loop_
_geom_bond_atom_site_label_1
_geom_bond_atom_site_label_2
_geom_bond_distance
_geom_bond_site_symmetry_2
_ccdc_geom_bond_type
C0 O2 1.247 . S
C0 O4 1.258 . S
C1 O8 1.247 . S
C1 O9 1.258 . S
O2 C0 1.247 . S
O2 Zn3 2.028 . S
Zn3 O2 2.028 . S
Zn3 O7 2.035 . S
Zn3 O9 2.035 . S
Zn3 O10 2.028 . S
O4 C0 1.258 . S
O4 Zn5 2.035 . S
Zn5 O4 2.035 . S
Zn5 O6 2.028 . S
Zn5 O8 2.028 . S
Zn5 O11 2.035 . S
O6 Zn5 2.028 . S
O6 C12 1.247 . S
O7 Zn3 2.035 . S
O7 C12 1.258 . S
O8 C1 1.247 . S
O8 Zn5 2.028 . S
O9 C1 1.258 . S
O9 Zn3 2.035 . S
O10 Zn3 2.028 . S
O10 C13 1.247 . S
O11 Zn5 2.035 . S
O11 C13 1.258 . S
C12 O6 1.247 . S
C12 O7 1.258 . S
C13 O10 1.247 . S
C13 O11 1.258 . S
C14 O16 1.247 . S
C14 O18 1.258 . S
C15 O22 1.247 . S
C15 O23 1.258 . S
O16 C14 1.247 . S
O16 Zn17 2.028 . S
Zn17 O16 2.028 . S
Zn17 O21 2.035 . S
Zn17 O23 2.035 . S
Zn17 O24 2.028 . S
O18 C14 1.258 . S
O18 Zn19 2.035 . S
Zn19 O18 2.035 . S
Zn19 O20 2.028 . S
Zn19 O22 2.028 . S
Zn19 O25 2.035 . S
O20 Zn19 2.028 . S
O20 C26 1.247 . S
O21 Zn17 2.035 . S
O21 C26 1.258 . S
O22 C15 1.247 . S
O22 Zn19 2.028 . S
O23 C15 1.258 . S
O23 Zn17 2.035 . S
O24 Zn17 2.028 . S
O24 C27 1.247 . S
O25 Zn19 2.035 . S
O25 C27 1.258 . S
C26 O20 1.247 . S
C26 O21 1.258 . S
C27 O24 1.247 . S
C27 O25 1.258 . S
C28 O30 1.247 . S
C28 O32 1.258 . S
C29 O36 1.247 . S
C29 O37 1.258 . S
O30 C28 1.247 . S
O30 Zn31 2.028 . S
Zn31 O30 2.028 . S
Zn31 O35 2.035 . S
Zn31 O37 2.035 . S
Zn31 O38 2.028 . S
O32 C28 1.258 . S
O32 Zn33 2.035 . S
Zn33 O32 2.035 . S
Zn33 O34 2.028 . S
Zn33 O36 2.028 . S
Zn33 O39 2.035 . S
O34 Zn33 2.028 . S
O34 C40 1.247 . S
O35 Zn31 2.035 . S
O35 C40 1.258 . S
O36 C29 1.247 . S
O36 Zn33 2.028 . S
O37 C29 1.258 . S
O37 Zn31 2.035 . S
O38 Zn31 2.028 . S
O38 C41 1.247 . S
O39 Zn33 2.035 . S
O39 C41 1.258 . S
C40 O34 1.247 . S
C40 O35 1.258 . S
C41 O38 1.247 . S
C41 O39 1.258 . S
C42 O44 1.247 . S
C42 O46 1.258 . S
C43 O50 1.247 . S
C43 O51 1.258 . S
O44 C42 1.247 . S
O44 Zn45 2.028 . S
Zn45 O44 2.028 . S
Zn45 O49 2.035 . S
Zn45 O51 2.035 . S
Zn45 O52 2.028 . S
O46 C42 1.258 . S
O46 Zn47 2.035 . S
Zn47 O46 2.035 . S
Zn47 O48 2.028 . S
Zn47 O50 2.028 . S
Zn47 O53 2.035 . S
O48 Zn47 2.028 . S
O48 C54 1.247 . S
O49 Zn45 2.035 . S
O49 C54 1.258 . S
O50 C43 1.247 . S
O50 Zn47 2.028 . S
O51 C43 1.258 . S
O51 Zn45 2.035 . S
O52 Zn45 2.028 . S
O52 C55 1.247 . S
O53 Zn47 2.035 . S
O53 C55 1.258 . S
C54 O48 1.247 . S
C54 O49 1.258 . S
C55 O52 1.247 . S
C55 O53 1.258 . S
C56 O58 1.247 . S
C56 O60 1.258 . S
C57 O64 1.247 . S
C57 O65 1.258 . S
O58 C56 1.247 . S
O58 Zn59 2.028 . S
Zn59 O58 2.028 . S
Zn59 O63 2.035 . S
Zn59 O65 2.035 . S
Zn59 O66 2.028 . S
O60 C56 1.258 . S
O60 Zn61 2.035 . S
Zn61 O60 2.035 . S
Zn61 O62 2.028 . S
Zn61 O64 2.028 . S
Zn61 O67 2.035 . S
O62 Zn61 2.028 . S
O62 C68 1.247 . S
O63 Zn59 2.035 . S
O63 C68 1.258 . S
O64 C57 1.247 . S
O64 Zn61 2.028 . S
O65 C57 1.258 . S
O65 Zn59 2.035 . S
O66 Zn59 2.028 . S
O66 C69 1.247 . S
O67 Zn61 2.035 . S
O67 C69 1.258 . S
C68 O62 1.247 . S
C68 O63 1.258 . S
C69 O66 1.247 . S
C69 O67 1.258 . S
C70 O72 1.247 . S
C70 O74 1.258 . S
C71 O78 1.247 . S
C71 O79 1.258 . S
O72 C70 1.247 . S
O72 Zn73 2.028 . S
Zn73 O72 2.028 . S
Zn73 O77 2.035 . S
Zn73 O79 2.035 . S
Zn73 O80 2.028 . S
O74 C70 1.258 . S
O74 Zn75 2.035 . S
Zn75 O74 2.035 . S
Zn75 O76 2.028 . S
Zn75 O78 2.028 . S
Zn75 O81 2.035 . S
O76 Zn75 2.028 . S
O76 C82 1.247 . S
O77 Zn73 2.035 . S
O77 C82 1.258 . S
O78 C71 1.247 . S
O78 Zn75 2.028 . S
O79 C71 1.258 . S
O79 Zn73 2.035 . S
O80 Zn73 2.028 . S
O80 C83 1.247 . S
O81 Zn75 2.035 . S
O81 C83 1.258 . S
C82 O76 1.247 . S
C82 O77 1.258 . S
C83 O80 1.247 . S
C83 O81 1.258 . S
C84 O86 1.247 . S
C84 O88 1.258 . S
C85 O92 1.247 . S
C85 O93 1.258 . S
O86 C84 1.247 . S
O86 Zn87 2.028 . S
Zn87 O86 2.028 . S
Zn87 O91 2.035 . S
Zn87 O93 2.035 . S
Zn87 O94 2.028 . S
O88 C84 1.258 . S
O88 Zn89 2.035 . S
Zn89 O88 2.035 . S
Zn89 O90 2.028 . S
Zn89 O92 2.028 . S
Zn89 O95 2.035 . S
O90 Zn89 2.028 . S
O90 C96 1.247 . S
O91 Zn87 2.035 . S
O91 C96 1.258 . S
O92 C85 1.247 . S
O92 Zn89 2.028 . S
O93 C85 1.258 . S
O93 Zn87 2.035 . S
O94 Zn87 2.028 . S
O94 C97 1.247 . S
O95 Zn89 2.035 . S
O95 C97 1.258 . S
C96 O90 1.247 . S
C96 O91 1.258 . S
C97 O94 1.247 . S
C97 O95 1.258 . S
C98 O100 1.247 . S
C98 O102 1.258 . S
C99 O106 1.247 . S
C99 O107 1.258 . S
O100 C98 1.247 . S
O100 Zn101 2.028 . S
Zn101 O100 2.028 . S
Zn101 O105 2.035 . S
Zn101 O107 2.035 . S
Zn101 O108 2.028 . S
O102 C98 1.258 . S
O102 Zn103 2.035 . S
Zn103 O102 2.035 . S
Zn103 O104 2.028 . S
Zn103 O106 2.028 . S
Zn103 O109 2.035 . S
O104 Zn103 2.028 . S
O104 C110 1.247 . S
O105 Zn101 2.035 . S
O105 C110 1.258 . S
O106 C99 1.247 . S
O106 Zn103 2.028 . S
O107 C99 1.258 . S
O107 Zn101 2.035 . S
O108 Zn101 2.028 . S
O108 C111 1.247 . S
O109 Zn103 2.035 . S
O109 C111 1.258 . S
C110 O104 1.247 . S
C110 O105 1.258 . S
C111 O108 1.247 . S
C111 O109 1.258 . S
C112 O114 1.247 . S
C112 O116 1.258 . S
C113 O120 1.247 . S
C113 O121 1.258 . S
O114 C112 1.247 . S
O114 Zn115 2.028 . S
Zn115 O114 2.028 . S
Zn115 O119 2.035 . S
Zn115 O121 2.035 . S
Zn115 O122 2.028 . S
O116 C112 1.258 . S
O116 Zn117 2.035 . S
Zn117 O116 2.035 . S
Zn117 O118 2.028 . S
Zn117 O120 2.028 . S
Zn117 O123 2.035 . S
O118 Zn117 2.028 . S
O118 C124 1.247 . S
O119 Zn115 2.035 . S
O119 C124 1.258 . S
O120 C113 1.247 . S
O120 Zn117 2.028 . S
O121 C113 1.258 . S
O121 Zn115 2.035 . S
O122 Zn115 2.028 . S
O122 C125 1.247 . S
O123 Zn117 2.035 . S
O123 C125 1.258 . S
C124 O118 1.247 . S
C124 O119 1.258 . S
C125 O122 1.247 . S
C125 O123 1.258 . S
C126 O128 1.247 . S
C126 O130 1.258 . S
C127 O134 1.247 . S
C127 O135 1.258 . S
O128 C126 1.247 . S
O128 Zn129 2.028 . S
Zn129 O128 2.028 . S
Zn129 O133 2.035 . S
Zn129 O135 2.035 . S
Zn129 O136 2.028 . S
O130 C126 1.258 . S
O130 Zn131 2.035 . S
Zn131 O130 2.035 . S
Zn131 O132 2.028 . S
Zn131 O134 2.028 . S
Zn131 O137 2.035 . S
O132 Zn131 2.028 . S
O132 C138 1.247 . S
O133 Zn129 2.035 . S
O133 C138 1.258 . S
O134 C127 1.247 . S
O134 Zn131 2.028 . S
O135 C127 1.258 . S
O135 Zn129 2.035 . S
O136 Zn129 2.028 . S
O136 C139 1.247 . S
O137 Zn131 2.035 . S
O137 C139 1.258 . S
C138 O132 1.247 . S
C138 O133 1.258 . S
C139 O136 1.247 . S
C139 O137 1.258 . S
C140 O142 1.247 . S
C140 O144 1.258 . S
C141 O148 1.247 . S
C141 O149 1.258 . S
O142 C140 1.247 . S
O142 Zn143 2.028 . S
Zn143 O142 2.028 . S
Zn143 O147 2.035 . S
Zn143 O149 2.035 . S
Zn143 O150 2.028 . S
O144 C140 1.258 . S
O144 Zn145 2.035 . S
Zn145 O144 2.035 . S
Zn145 O146 2.028 . S
Zn145 O148 2.028 . S
Zn145 O151 2.035 . S
O146 Zn145 2.028 . S
O146 C152 1.247 . S
O147 Zn143 2.035 . S
O147 C152 1.258 . S
O148 C141 1.247 . S
O148 Zn145 2.028 . S
O149 C141 1.258 . S
O149 Zn143 2.035 . S
O150 Zn143 2.028 . S
O150 C153 1.247 . S
O151 Zn145 2.035 . S
O151 C153 1.258 . S
C152 O146 1.247 . S
C152 O147 1.258 . S
C153 O150 1.247 . S
C153 O151 1.258 . S
C154 O156 1.247 . S
C154 O158 1.258 . S
C155 O162 1.247 . S
C155 O163 1.258 . S
O156 C154 1.247 . S
O156 Zn157 2.028 . S
Zn157 O156 2.028 . S
Zn157 O161 2.035 . S
Zn157 O163 2.035 . S
Zn157 O164 2.028 . S
O158 C154 1.258 . S
O158 Zn159 2.035 . S
Zn159 O158 2.035 . S
Zn159 O160 2.028 . S
Zn159 O162 2.028 . S
Zn159 O165 2.035 . S
O160 Zn159 2.028 . S
O160 C166 1.247 . S
O161 Zn157 2.035 . S
O161 C166 1.258 . S
O162 C155 1.247 . S
O162 Zn159 2.028 . S
O163 C155 1.258 . S
O163 Zn157 2.035 . S
O164 Zn157 2.028 . S
O164 C167 1.247 . S
O165 Zn159 2.035 . S
O165 C167 1.258 . S
C166 O160 1.247 . S
C166 O161 1.258 . S
C167 O164 1.247 . S
C167 O165 1.258 . S
C168 O170 1.247 . S
C168 O172 1.258 1_455 S
C169 O176 1.247 1_455 S
C169 O177 1.258 . S
O170 C168 1.247 . S
O170 Zn171 2.028 . S
Zn171 O170 2.028 . S
Zn171 O175 2.035 . S
Zn171 O177 2.035 . S
Zn171 O178 2.028 . S
O172 C168 1.258 1_655 S
O172 Zn173 2.035 . S
Zn173 O172 2.035 . S
Zn173 O174 2.028 . S
Zn173 O176 2.028 . S
Zn173 O179 2.035 . S
O174 Zn173 2.028 . S
O174 C180 1.247 1_655 S
O175 Zn171 2.035 . S
O175 C180 1.258 . S
O176 C169 1.247 1_655 S
O176 Zn173 2.028 . S
O177 C169 1.258 . S
O177 Zn171 2.035 . S
O178 Zn171 2.028 . S
O178 C181 1.247 1_455 S
O179 Zn173 2.035 . S
O179 C181 1.258 . S
C180 O174 1.247 1_455 S
C180 O175 1.258 . S
C181 O178 1.247 1_655 S
C181 O179 1.258 . S
C182 O184 1.247 . S
C182 O186 1.258 . S
C183 O190 1.247 . S
C183 O191 1.258 . S
O184 C182 1.247 . S
O184 Zn185 2.028 . S
Zn185 O184 2.028 . S
Zn185 O189 2.035 . S
Zn185 O191 2.035 . S
Zn185 O192 2.028 . S
O186 C182 1.258 . S
O186 Zn187 2.035 . S
Zn187 O186 2.035 . S
Zn187 O188 2.028 . S
Zn187 O190 2.028 . S
Zn187 O193 2.035 . S
O188 Zn187 2.028 . S
O188 C194 1.247 . S
O189 Zn185 2.035 . S
O189 C194 1.258 . S
O190 C183 1.247 . S
O190 Zn187 2.028 . S
O191 C183 1.258 . S
O191 Zn185 2.035 . S
O192 Zn185 2.028 . S
O192 C195 1.247 . S
O193 Zn187 2.035 . S
O193 C195 1.258 . S
C194 O188 1.247 . S
C194 O189 1.258 . S
C195 O192 1.247 . S
C195 O193 1.258 . S
C196 O198 1.247 . S
C196 O200 1.258 1_565 S
C197 O204 1.247 1_565 S
C197 O205 1.258 . S
O198 C196 1.247 . S
O198 Zn199 2.028 . S
Zn199 O198 2.028 . S
Zn199 O203 2.035 . S
Zn199 O205 2.035 . S
Zn199 O206 2.028 . S
O200 C196 1.258 1_545 S
O200 Zn201 2.035 . S
Zn201 O200 2.035 . S
Zn201 O202 2.028 . S
Zn201 O204 2.028 . S
Zn201 O207 2.035 . S
O202 Zn201 2.028 . S
O202 C208 1.247 . S
O203 Zn199 2.035 . S
O203 C208 1.258 1_565 S
O204 C197 1.247 1_545 S
O204 Zn201 2.028 . S
O205 C197 1.258 . S
O205 Zn199 2.035 . S
O206 Zn199 2.028 . S
O206 C209 1.247 . S
O207 Zn201 2.035 . S
O207 C209 1.258 1_545 S
C208 O202 1.247 . S
C208 O203 1.258 1_545 S
C209 O206 1.247 . S
C209 O207 1.258 1_565 S
C210 O212 1.247 . S
C210 O214 1.258 . S
C211 O218 1.247 . S
C211 O219 1.258 . S
O212 C210 1.247 . S
O212 Zn213 2.028 . S
Zn213 O212 2.028 . S
Zn213 O217 2.035 . S
Zn213 O219 2.035 . S
Zn213 O220 2.028 . S
O214 C210 1.258 . S
O214 Zn215 2.035 . S
Zn215 O214 2.035 . S
Zn215 O216 2.028 . S
Zn215 O218 2.028 . S
Zn215 O221 2.035 . S
O216 Zn215 2.028 . S
O216 C222 1.247 . S
O217 Zn213 2.035 . S
O217 C222 1.258 . S
O218 C211 1.247 . S
O218 Zn215 2.028 . S
O219 C211 1.258 . S
O219 Zn213 2.035 . S
O220 Zn213 2.028 . S
O220 C223 1.247 . S
O221 Zn215 2.035 . S
O221 C223 1.258 . S
C222 O216 1.247 . S
C222 O217 1.258 . S
C223 O220 1.247 . S
C223 O221 1.258 . S
C224 O226 1.247 . S
C224 O228 1.258 . S
C225 O232 1.247 . S
C225 O233 1.258 . S
O226 C224 1.247 . S
O226 Zn227 2.028 . S
Zn227 O226 2.028 . S
Zn227 O231 2.035 . S
Zn227 O233 2.035 . S
Zn227 O234 2.028 . S
O228 C224 1.258 . S
O228 Zn229 2.035 . S
Zn229 O228 2.035 . S
Zn229 O230 2.028 . S
Zn229 O232 2.028 . S
Zn229 O235 2.035 . S
O230 Zn229 2.028 . S
O230 C236 1.247 . S
O231 Zn227 2.035 . S
O231 C236 1.258 . S
O232 C225 1.247 . S
O232 Zn229 2.028 . S
O233 C225 1.258 . S
O233 Zn227 2.035 . S
O234 Zn227 2.028 . S
O234 C237 1.247 . S
O235 Zn229 2.035 . S
O235 C237 1.258 . S
C236 O230 1.247 . S
C236 O231 1.258 . S
C237 O234 1.247 . S
C237 O235 1.258 . S
C238 O240 1.247 . S
C238 O242 1.258 . S
C239 O246 1.247 . S
C239 O247 1.258 . S
O240 C238 1.247 . S
O240 Zn241 2.028 . S
Zn241 O240 2.028 . S
Zn241 O245 2.035 . S
Zn241 O247 2.035 . S
Zn241 O248 2.028 . S
O242 C238 1.258 . S
O242 Zn243 2.035 . S
Zn243 O242 2.035 . S
Zn243 O244 2.028 . S
Zn243 O246 2.028 . S
Zn243 O249 2.035 . S
O244 Zn243 2.028 . S
O244 C250 1.247 . S
O245 Zn241 2.035 . S
O245 C250 1.258 . S
O246 C239 1.247 . S
O246 Zn243 2.028 . S
O247 C239 1.258 . S
O247 Zn241 2.035 . S
O248 Zn241 2.028 . S
O248 C251 1.247 . S
O249 Zn243 2.035 . S
O249 C251 1.258 . S
C250 O244 1.247 . S
C250 O245 1.258 . S
C251 O248 1.247 . S
C251 O249 1.258 . S
C252 O254 1.247 . S
C252 O256 1.258 . S
C253 O260 1.247 . S
C253 O261 1.258 . S
O254 C252 1.247 . S
O254 Zn255 2.028 . S
Zn255 O254 2.028 . S
Zn255 O259 2.035 . S
Zn255 O261 2.035 . S
Zn255 O262 2.028 . S
O256 C252 1.258 . S
O256 Zn257 2.035 . S
Zn257 O256 2.035 . S
Zn257 O258 2.028 . S
Zn257 O260 2.028 . S
Zn257 O263 2.035 . S
O258 Zn257 2.028 . S
O258 C264 1.247 . S
O259 Zn255 2.035 . S
O259 C264 1.258 . S
O260 C253 1.247 . S
O260 Zn257 2.028 . S
O261 C253 1.258 . S
O261 Zn255 2.035 . S
O262 Zn255 2.028 . S
O262 C265 1.247 . S
O263 Zn257 2.035 . S
O263 C265 1.258 . S
C264 O258 1.247 . S
C264 O259 1.258 . S
C265 O262 1.247 . S
C265 O263 1.258 . S
C266 O268 1.247 . S
C266 O270 1.258 . S
C267 O274 1.247 . S
C267 O275 1.258 . S
O268 C266 1.247 . S
O268 Zn269 2.028 . S
Zn269 O268 2.028 . S
Zn269 O273 2.035 . S
Zn269 O275 2.035 . S
Zn269 O276 2.028 . S
O270 C266 1.258 . S
O270 Zn271 2.035 . S
Zn271 O270 2.035 . S
Zn271 O272 2.028 . S
Zn271 O274 2.028 . S
Zn271 O277 2.035 . S
O272 Zn271 2.028 . S
O272 C278 1.247 . S
O273 Zn269 2.035 . S
O273 C278 1.258 . S
O274 C267 1.247 . S
O274 Zn271 2.028 . S
O275 C267 1.258 . S
O275 Zn269 2.035 . S
O276 Zn269 2.028 . S
O276 C279 1.247 . S
O277 Zn271 2.035 . S
O277 C279 1.258 . S
C278 O272 1.247 . S
C278 O273 1.258 . S
C279 O276 1.247 . S
C279 O277 1.258 . S
C280 O282 1.247 . S
C280 O284 1.258 . S
C281 O288 1.247 . S
C281 O289 1.258 . S
O282 C280 1.247 . S
O282 Zn283 2.028 . S
Zn283 O282 2.028 . S
Zn283 O287 2.035 . S
Zn283 O289 2.035 . S
Zn283 O290 2.028 . S
O284 C280 1.258 . S
O284 Zn285 2.035 . S
Zn285 O284 2.035 . S
Zn285 O286 2.028 . S
Zn285 O288 2.028 . S
Zn285 O291 2.035 . S
O286 Zn285 2.028 . S
O286 C292 1.247 . S
O287 Zn283 2.035 . S
O287 C292 1.258 . S
O288 C281 1.247 . S
O288 Zn285 2.028 . S
O289 C281 1.258 . S
O289 Zn283 2.035 . S
O290 Zn283 2.028 . S
O290 C293 1.247 . S
O291 Zn285 2.035 . S
O291 C293 1.258 . S
C292 O286 1.247 . S
C292 O287 1.258 . S
C293 O290 1.247 . S
C293 O291 1.258 . S
C294 O296 1.247 1_565 S
C294 O298 1.258 . S
C295 O302 1.247 . S
C295 O303 1.258 1_565 S
O296 C294 1.247 1_545 S
O296 Zn297 2.016 1_556 S
Zn297 O296 2.016 1_554 S
Zn297 O301 2.036 . S
Zn297 O303 2.047 . S
Zn297 O304 1.969 1_544 S
O298 C294 1.258 . S
O298 Zn299 2.041 . S
Zn299 O298 2.041 . S
Zn299 O300 2.027 1_556 S
Zn299 O302 2.022 1_556 S
Zn299 O305 2.036 . S
O300 Zn299 2.027 1_554 S
O300 C306 1.247 1_565 S
O301 Zn297 2.036 . S
O301 C306 1.258 . S
O302 C295 1.247 . S
O302 Zn299 2.022 1_554 S
O303 C295 1.258 1_545 S
O303 Zn297 2.047 . S
O304 Zn297 1.969 1_566 S
O304 C307 1.312 . S
O305 Zn299 2.036 . S
O305 C307 1.258 . S
C306 O300 1.247 1_545 S
C306 O301 1.258 . S
C307 O304 1.312 . S
C307 O305 1.258 . S
C308 O310 1.247 . S
C308 O312 1.323 . S
C309 O316 1.247 . S
C309 O317 1.258 1_655 S
O310 C308 1.247 . S
O310 Zn311 2.030 . S
Zn311 O310 2.030 . S
Zn311 O315 2.014 1_556 S
Zn311 O317 2.033 1_556 S
Zn311 O318 2.049 . S
O312 C308 1.323 . S
O312 Zn313 2.042 1_456 S
Zn313 O312 2.042 1_654 S
Zn313 O314 2.028 . S
Zn313 O316 2.028 . S
Zn313 O319 2.035 1_554 S
O314 Zn313 2.028 . S
O314 C320 1.247 1_655 S
O315 Zn311 2.014 1_554 S
O315 C320 1.258 . S
O316 C309 1.247 . S
O316 Zn313 2.028 . S
O317 C309 1.258 1_455 S
O317 Zn311 2.033 1_554 S
O318 Zn311 2.049 . S
O318 C321 1.247 . S
O319 Zn313 2.035 1_556 S
O319 C321 1.258 1_655 S
C320 O314 1.247 1_455 S
C320 O315 1.258 . S
C321 O318 1.247 . S
C321 O319 1.258 1_455 S
C322 O324 1.247 . S
C322 O326 1.258 . S
C323 O330 1.247 . S
C323 O331 1.258 . S
O324 C322 1.247 . S
O324 Zn325 2.027 1_554 S
Zn325 O324 2.027 1_556 S
Zn325 O329 2.041 . S
Zn325 O331 2.036 . S
Zn325 O332 2.022 1_556 S
O326 C322 1.258 . S
O326 Zn327 2.036 . S
Zn327 O326 2.036 . S
Zn327 O328 2.016 1_554 S
Zn327 O330 2.027 1_554 S
Zn327 O333 2.047 . S
O328 Zn327 2.016 1_556 S
O328 C334 1.247 . S
O329 Zn325 2.041 . S
O329 C334 1.258 . S
O330 C323 1.247 . S
O330 Zn327 2.027 1_556 S
O331 C323 1.258 . S
O331 Zn325 2.036 . S
O332 Zn325 2.022 1_554 S
O332 C335 1.247 . S
O333 Zn327 2.047 . S
O333 C335 1.258 . S
C334 O328 1.247 . S
C334 O329 1.258 . S
C335 O332 1.247 . S
C335 O333 1.258 . S
C336 O338 1.247 . S
C336 O340 1.258 . S
C337 O344 1.247 . S
C337 O345 1.258 . S
O338 C336 1.247 . S
O338 Zn339 2.028 . S
Zn339 O338 2.028 . S
Zn339 O343 2.035 . S
Zn339 O345 2.035 . S
Zn339 O346 2.028 . S
O340 C336 1.258 . S
O340 Zn341 2.035 . S
Zn341 O340 2.035 . S
Zn341 O342 2.028 . S
Zn341 O344 2.028 . S
Zn341 O347 2.035 . S
O342 Zn341 2.028 . S
O342 C348 1.247 . S
O343 Zn339 2.035 . S
O343 C348 1.258 . S
O344 C337 1.247 . S
O344 Zn341 2.028 . S
O345 C337 1.258 . S
O345 Zn339 2.035 . S
O346 Zn339 2.028 . S
O346 C349 1.247 . S
O347 Zn341 2.035 . S
O347 C349 1.258 . S
C348 O342 1.247 . S
C348 O343 1.258 . S
C349 O346 1.247 . S
C349 O347 1.258 . S
C350 O352 1.247 . S
C350 O354 1.258 . S
C351 O358 1.247 . S
C351 O359 1.258 . S
O352 C350 1.247 . S
O352 Zn353 2.028 . S
Zn353 O352 2.028 . S
Zn353 O357 2.035 . S
Zn353 O359 2.035 . S
Zn353 O360 2.028 . S
O354 C350 1.258 . S
O354 Zn355 2.035 . S
Zn355 O354 2.035 . S
Zn355 O356 2.028 . S
Zn355 O358 2.028 . S
Zn355 O361 2.035 . S
O356 Zn355 2.028 . S
O356 C362 1.247 . S
O357 Zn353 2.035 . S
O357 C362 1.258 . S
O358 C351 1.247 . S
O358 Zn355 2.028 . S
O359 C351 1.258 . S
O359 Zn353 2.035 . S
O360 Zn353 2.028 . S
O360 C363 1.247 . S
O361 Zn355 2.035 . S
O361 C363 1.258 . S
C362 O356 1.247 . S
C362 O357 1.258 . S
C363 O360 1.247 . S
C363 O361 1.258 . S
C364 O366 1.247 . S
C364 O368 1.258 . S
C365 O372 1.247 . S
C365 O373 1.258 . S
O366 C364 1.247 . S
O366 Zn367 2.028 . S
Zn367 O366 2.028 . S
Zn367 O371 2.035 . S
Zn367 O373 2.035 . S
Zn367 O374 2.028 . S
O368 C364 1.258 . S
O368 Zn369 2.035 . S
Zn369 O368 2.035 . S
Zn369 O370 2.028 . S
Zn369 O372 2.028 . S
Zn369 O375 2.035 . S
O370 Zn369 2.028 . S
O370 C376 1.247 . S
O371 Zn367 2.035 . S
O371 C376 1.258 . S
O372 C365 1.247 . S
O372 Zn369 2.028 . S
O373 C365 1.258 . S
O373 Zn367 2.035 . S
O374 Zn367 2.028 . S
O374 C377 1.247 . S
O375 Zn369 2.035 . S
O375 C377 1.258 . S
C376 O370 1.247 . S
C376 O371 1.258 . S
C377 O374 1.247 . S
C377 O375 1.258 . S
C378 O380 1.247 . S
C378 O382 1.258 1_545 S
C379 O386 1.247 1_545 S
C379 O387 1.258 . S
O380 C378 1.247 . S
O380 Zn381 2.049 . S
Zn381 O380 2.049 . S
Zn381 O385 2.033 1_554 S
Zn381 O387 2.014 1_554 S
Zn381 O388 2.030 . S
O382 C378 1.258 1_565 S
O382 Zn383 2.035 1_554 S
Zn383 O382 2.035 1_556 S
Zn383 O384 2.028 . S
Zn383 O386 2.028 . S
Zn383 O389 1.975 1_566 S
O384 Zn383 2.028 . S
O384 C390 1.247 . S
O385 Zn381 2.033 1_556 S
O385 C390 1.258 1_545 S
O386 C379 1.247 1_565 S
O386 Zn383 2.028 . S
O387 C379 1.258 . S
O387 Zn381 2.014 1_556 S
O388 Zn381 2.030 . S
O388 C391 1.247 . S
O389 Zn383 1.975 1_544 S
O389 C391 1.327 . S
C390 O384 1.247 . S
C390 O385 1.258 1_565 S
C391 O388 1.247 . S
C391 O389 1.327 . S
C392 O394 1.247 . S
C392 O396 1.258 1_455 S
C393 O400 1.247 . S
C393 O401 1.309 . S
O394 C392 1.247 . S
O394 Zn395 2.028 . S
Zn395 O394 2.028 . S
Zn395 O399 2.035 1_556 S
Zn395 O401 2.040 1_456 S
Zn395 O402 2.028 . S
O396 C392 1.258 1_655 S
O396 Zn397 2.033 1_556 S
Zn397 O396 2.033 1_554 S
Zn397 O398 2.049 . S
Zn397 O400 2.030 . S
Zn397 O403 2.014 1_554 S
O398 Zn397 2.049 . S
O398 C404 1.247 . S
O399 Zn395 2.035 1_554 S
O399 C404 1.258 1_455 S
O400 C393 1.247 . S
O400 Zn397 2.030 . S
O401 C393 1.309 . S
O401 Zn395 2.040 1_654 S
O402 Zn395 2.028 . S
O402 C405 1.247 1_455 S
O403 Zn397 2.014 1_556 S
O403 C405 1.258 . S
C404 O398 1.247 . S
C404 O399 1.258 1_655 S
C405 O402 1.247 1_655 S
C405 O403 1.258 . S
C406 O408 1.247 . S
C406 O410 1.258 . S
C407 O414 1.247 . S
C407 O415 1.258 . S
O408 C406 1.247 . S
O408 Zn409 2.049 . S
Zn409 O408 2.049 . S
Zn409 O413 2.033 1_554 S
Zn409 O415 2.014 1_554 S
Zn409 O416 2.030 . S
O410 C406 1.258 . S
O410 Zn411 2.035 1_554 S
Zn411 O410 2.035 1_556 S
Zn411 O412 2.028 . S
Zn411 O414 2.028 . S
Zn411 O417 2.035 1_556 S
O412 Zn411 2.028 . S
O412 C418 1.247 . S
O413 Zn409 2.033 1_556 S
O413 C418 1.258 . S
O414 C407 1.247 . S
O414 Zn411 2.028 . S
O415 C407 1.258 . S
O415 Zn409 2.014 1_556 S
O416 Zn409 2.030 . S
O416 C419 1.247 . S
O417 Zn411 2.035 1_554 S
O417 C419 1.258 . S
C418 O412 1.247 . S
C418 O413 1.258 . S
C419 O416 1.247 . S
C419 O417 1.258 . S
C420 O422 1.247 1_655 S
C420 O424 1.258 . S
C421 O428 1.247 . S
C421 O429 1.258 1_655 S
O422 C420 1.247 1_455 S
O422 Zn423 2.028 . S
Zn423 O422 2.028 . S
Zn423 O427 2.035 . S
Zn423 O429 2.035 . S
Zn423 O430 2.028 . S
O424 C420 1.258 . S
O424 Zn425 2.035 . S
Zn425 O424 2.035 . S
Zn425 O426 2.028 . S
Zn425 O428 2.028 . S
Zn425 O431 2.035 . S
O426 Zn425 2.028 . S
O426 C432 1.247 1_655 S
O427 Zn423 2.035 . S
O427 C432 1.258 . S
O428 C421 1.247 . S
O428 Zn425 2.028 . S
O429 C421 1.258 1_455 S
O429 Zn423 2.035 . S
O430 Zn423 2.028 . S
O430 C433 1.247 1_455 S
O431 Zn425 2.035 . S
O431 C433 1.258 . S
C432 O426 1.247 1_455 S
C432 O427 1.258 . S
C433 O430 1.247 1_655 S
C433 O431 1.258 . S
C434 O436 1.247 . S
C434 O438 1.258 . S
C435 O442 1.247 . S
C435 O443 1.258 . S
O436 C434 1.247 . S
O436 Zn437 2.028 . S
Zn437 O436 2.028 . S
Zn437 O441 2.035 . S
Zn437 O443 2.035 . S
Zn437 O444 2.028 . S
O438 C434 1.258 . S
O438 Zn439 2.035 . S
Zn439 O438 2.035 . S
Zn439 O440 2.028 . S
Zn439 O442 2.028 . S
Zn439 O445 2.035 . S
O440 Zn439 2.028 . S
O440 C446 1.247 . S
O441 Zn437 2.035 . S
O441 C446 1.258 . S
O442 C435 1.247 . S
O442 Zn439 2.028 . S
O443 C435 1.258 . S
O443 Zn437 2.035 . S
O444 Zn437 2.028 . S
O444 C447 1.247 . S
O445 Zn439 2.035 . S
O445 C447 1.258 . S
C446 O440 1.247 . S
C446 O441 1.258 . S
C447 O444 1.247 . S
C447 O445 1.258 . S
C448 O450 1.247 . S
C448 O452 1.258 1_545 S
C449 O456 1.247 . S
C449 O457 1.258 1_565 S
O450 C448 1.247 . S
O450 Zn451 2.028 . S
Zn451 O450 2.028 . S
Zn451 O455 2.035 . S
Zn451 O457 2.035 . S
Zn451 O458 2.028 . S
O452 C448 1.258 1_565 S
O452 Zn453 2.035 . S
Zn453 O452 2.035 . S
Zn453 O454 2.028 . S
Zn453 O456 2.028 . S
Zn453 O459 2.035 . S
O454 Zn453 2.028 . S
O454 C460 1.247 1_565 S
O455 Zn451 2.035 . S
O455 C460 1.258 . S
O456 C449 1.247 . S
O456 Zn453 2.028 . S
O457 C449 1.258 1_545 S
O457 Zn451 2.035 . S
O458 Zn451 2.028 . S
O458 C461 1.247 . S
O459 Zn453 2.035 . S
O459 C461 1.258 1_565 S
C460 O454 1.247 1_545 S
C460 O455 1.258 . S
C461 O458 1.247 . S
C461 O459 1.258 1_545 S
C462 O464 1.247 . S
C462 O466 1.258 . S
C463 O470 1.247 . S
C463 O471 1.258 . S
O464 C462 1.247 . S
O464 Zn465 2.028 . S
Zn465 O464 2.028 . S
Zn465 O469 2.035 . S
Zn465 O471 2.035 . S
Zn465 O472 2.028 . S
O466 C462 1.258 . S
O466 Zn467 2.035 . S
Zn467 O466 2.035 . S
Zn467 O468 2.028 . S
Zn467 O470 2.028 . S
Zn467 O473 2.035 . S
O468 Zn467 2.028 . S
O468 C474 1.247 . S
O469 Zn465 2.035 . S
O469 C474 1.258 . S
O470 C463 1.247 . S
O470 Zn467 2.028 . S
O471 C463 1.258 . S
O471 Zn465 2.035 . S
O472 Zn465 2.028 . S
O472 C475 1.247 . S
O473 Zn467 2.035 . S
O473 C475 1.258 . S
C474 O468 1.247 . S
C474 O469 1.258 . S
C475 O472 1.247 . S
C475 O473 1.258 . S
C476 O478 1.247 . S
C476 O480 1.258 . S
C477 O484 1.247 . S
C477 O485 1.258 . S
O478 C476 1.247 . S
O478 Zn479 2.028 . S
Zn479 O478 2.028 . S
Zn479 O483 2.035 . S
Zn479 O485 2.035 . S
Zn479 O486 2.028 . S
O480 C476 1.258 . S
O480 Zn481 2.035 . S
Zn481 O480 2.035 . S
Zn481 O482 2.028 . S
Zn481 O484 2.028 . S
Zn481 O487 2.035 . S
O482 Zn481 2.028 . S
O482 C488 1.247 . S
O483 Zn479 2.035 . S
O483 C488 1.258 . S
O484 C477 1.247 . S
O484 Zn481 2.028 . S
O485 C477 1.258 . S
O485 Zn479 2.035 . S
O486 Zn479 2.028 . S
O486 C489 1.247 . S
O487 Zn481 2.035 . S
O487 C489 1.258 . S
C488 O482 1.247 . S
C488 O483 1.258 . S
C489 O486 1.247 . S
C489 O487 1.258 . S
C490 O492 1.247 . S
C490 O494 1.258 . S
C491 O498 1.247 . S
C491 O499 1.258 . S
O492 C490 1.247 . S
O492 Zn493 2.028 . S
Zn493 O492 2.028 . S
Zn493 O497 2.035 . S
Zn493 O499 2.035 . S
Zn493 O500 2.028 . S
O494 C490 1.258 . S
O494 Zn495 2.035 . S
Zn495 O494 2.035 . S
Zn495 O496 2.028 . S
Zn495 O498 2.028 . S
Zn495 O501 2.035 . S
O496 Zn495 2.028 . S
O496 C502 1.247 . S
O497 Zn493 2.035 . S
O497 C502 1.258 . S
O498 C491 1.247 . S
O498 Zn495 2.028 . S
O499 C491 1.258 . S
O499 Zn493 2.035 . S
O500 Zn493 2.028 . S
O500 C503 1.247 . S
O501 Zn495 2.035 . S
O501 C503 1.258 . S
C502 O496 1.247 . S
C502 O497 1.258 . S
C503 O500 1.247 . S
C503 O501 1.258 . S
H504 C512 0.950 . S
H505 C517 0.950 . S
H506 C514 0.950 . S
H507 C516 0.950 . S
H508 C518 0.950 . S
H509 C520 0.950 . S
H510 C522 0.950 . S
H511 C523 0.950 . S
C512 H504 0.950 . S
C512 C513 1.386 . S
C512 C514 1.391 . S
C513 C512 1.386 . S
C513 C517 1.393 . S
C514 H506 0.950 . S
C514 C512 1.391 . S
C514 C515 1.400 . S
C515 C514 1.400 . S
C515 C516 1.398 . S
C515 C521 1.491 . S
C516 H507 0.950 . S
C516 C515 1.398 . S
C516 C517 1.391 . S
C517 H505 0.950 . S
C517 C513 1.393 . S
C517 C516 1.391 . S
C518 H508 0.950 . S
C518 C519 1.386 . S
C518 C520 1.391 . S
C519 C518 1.386 . S
C519 C523 1.393 . S
C520 H509 0.950 . S
C520 C518 1.391 . S
C520 C521 1.400 . S
C521 C515 1.491 . S
C521 C520 1.400 . S
C521 C522 1.398 . S
C522 H510 0.950 . S
C522 C521 1.398 . S
C522 C523 1.391 . S
C523 H511 0.950 . S
C523 C519 1.393 . S
C523 C522 1.391 . S
H524 C532 0.950 . S
H525 C537 0.950 . S
H526 C534 0.950 . S
H527 C536 0.950 . S
H528 C538 0.950 . S
H529 C540 0.950 . S
H530 C542 0.950 . S
H531 C543 0.950 . S
C532 H524 0.950 . S
C532 C533 1.386 . S
C532 C534 1.391 . S
C533 C532 1.386 . S
C533 C537 1.393 . S
C534 H526 0.950 . S
C534 C532 1.391 . S
C534 C535 1.400 . S
C535 C534 1.400 . S
C535 C536 1.398 . S
C535 C541 1.491 . S
C536 H527 0.950 . S
C536 C535 1.398 . S
C536 C537 1.391 . S
C537 H525 0.950 . S
C537 C533 1.393 . S
C537 C536 1.391 . S
C538 H528 0.950 . S
C538 C539 1.386 . S
C538 C540 1.391 . S
C539 C538 1.386 . S
C539 C543 1.393 . S
C540 H529 0.950 . S
C540 C538 1.391 . S
C540 C541 1.400 . S
C541 C535 1.491 . S
C541 C540 1.400 . S
C541 C542 1.398 . S
C542 H530 0.950 . S
C542 C541 1.398 . S
C542 C543 1.391 . S
C543 H531 0.950 . S
C543 C539 1.393 . S
C543 C542 1.391 . S
H544 C552 0.950 . S
H545 C557 0.950 . S
H546 C554 0.950 . S
H547 C556 0.950 . S
H548 C558 0.950 . S
H549 C560 0.950 . S
H550 C562 0.950 . S
H551 C563 0.950 . S
C552 H544 0.950 . S
C552 C553 1.386 . S
C552 C554 1.391 . S
C553 C552 1.386 . S
C553 C557 1.393 . S
C554 H546 0.950 . S
C554 C552 1.391 . S
C554 C555 1.400 . S
C555 C554 1.400 . S
C555 C556 1.398 . S
C555 C561 1.491 . S
C556 H547 0.950 . S
C556 C555 1.398 . S
C556 C557 1.391 . S
C557 H545 0.950 . S
C557 C553 1.393 . S
C557 C556 1.391 . S
C558 H548 0.950 . S
C558 C559 1.386 . S
C558 C560 1.391 . S
C559 C558 1.386 . S
C559 C563 1.393 . S
C560 H549 0.950 . S
C560 C558 1.391 . S
C560 C561 1.400 . S
C561 C555 1.491 . S
C561 C560 1.400 . S
C561 C562 1.398 . S
C562 H550 0.950 . S
C562 C561 1.398 . S
C562 C563 1.391 . S
C563 H551 0.950 . S
C563 C559 1.393 . S
C563 C562 1.391 . S
H564 C572 0.950 . S
H565 C577 0.950 . S
H566 C574 0.950 . S
H567 C576 0.950 . S
H568 C578 0.950 . S
H569 C580 0.950 . S
H570 C582 0.950 . S
H571 C583 0.950 . S
C572 H564 0.950 . S
C572 C573 1.386 . S
C572 C574 1.391 1_556 S
C573 C572 1.386 . S
C573 C577 1.393 . S
C574 H566 0.950 . S
C574 C572 1.391 1_554 S
C574 C575 1.400 . S
C575 C574 1.400 . S
C575 C576 1.398 . S
C575 C581 1.491 . S
C576 H567 0.950 . S
C576 C575 1.398 . S
C576 C577 1.391 1_554 S
C577 H565 0.950 . S
C577 C573 1.393 . S
C577 C576 1.391 1_556 S
C578 H568 0.950 . S
C578 C579 1.386 . S
C578 C580 1.391 . S
C579 C578 1.386 . S
C579 C583 1.393 . S
C580 H569 0.950 . S
C580 C578 1.391 . S
C580 C581 1.400 . S
C581 C575 1.491 . S
C581 C580 1.400 . S
C581 C582 1.398 . S
C582 H570 0.950 . S
C582 C581 1.398 . S
C582 C583 1.391 . S
C583 H571 0.950 . S
C583 C579 1.393 . S
C583 C582 1.391 . S
H584 C592 0.950 . S
H585 C597 0.950 . S
H586 C594 0.950 . S
H587 C596 0.950 . S
H588 C598 0.950 . S
H589 C600 0.950 . S
H590 C602 0.950 . S
H591 C603 0.950 . S
C592 H584 0.950 . S
C592 C593 1.386 . S
C592 C594 1.391 . S
C593 C592 1.386 . S
C593 C597 1.393 . S
C594 H586 0.950 . S
C594 C592 1.391 . S
C594 C595 1.400 . S
C595 C594 1.400 . S
C595 C596 1.398 . S
C595 C601 1.491 . S
C596 H587 0.950 . S
C596 C595 1.398 . S
C596 C597 1.391 . S
C597 H585 0.950 . S
C597 C593 1.393 . S
C597 C596 1.391 . S
C598 H588 0.950 . S
C598 C599 1.386 . S
C598 C600 1.391 1_556 S
C599 C598 1.386 . S
C599 C603 1.393 . S
C600 H589 0.950 . S
C600 C598 1.391 1_554 S
C600 C601 1.400 . S
C601 C595 1.491 . S
C601 C600 1.400 . S
C601 C602 1.398 . S
C602 H590 0.950 . S
C602 C601 1.398 . S
C602 C603 1.391 1_554 S
C603 H591 0.950 . S
C603 C599 1.393 . S
C603 C602 1.391 1_556 S
H604 C612 0.950 . S
H605 C617 0.950 . S
H606 C614 0.950 . S
H607 C616 0.950 . S
H608 C618 0.950 . S
H609 C620 0.950 . S
H610 C622 0.950 . S
H611 C623 0.950 . S
C612 H604 0.950 . S
C612 C613 1.386 . S
C612 C614 1.391 . S
C613 C612 1.386 . S
C613 C617 1.393 . S
C614 H606 0.950 . S
C614 C612 1.391 . S
C614 C615 1.400 . S
C615 C614 1.400 . S
C615 C616 1.398 . S
C615 C621 1.491 . S
C616 H607 0.950 . S
C616 C615 1.398 . S
C616 C617 1.391 . S
C617 H605 0.950 . S
C617 C613 1.393 . S
C617 C616 1.391 . S
C618 H608 0.950 . S
C618 C619 1.386 . S
C618 C620 1.391 1_556 S
C619 C618 1.386 . S
C619 C623 1.393 . S
C620 H609 0.950 . S
C620 C618 1.391 1_554 S
C620 C621 1.400 . S
C621 C615 1.491 . S
C621 C620 1.400 . S
C621 C622 1.398 . S
C622 H610 0.950 . S
C622 C621 1.398 . S
C622 C623 1.391 1_554 S
C623 H611 0.950 . S
C623 C619 1.393 . S
C623 C622 1.391 1_556 S
H624 C632 0.950 . S
H625 C637 0.950 . S
H626 C634 0.950 . S
H627 C636 0.950 . S
H628 C638 0.950 . S
H629 C640 0.950 . S
H630 C642 0.950 . S
H631 C643 0.950 . S
C632 H624 0.950 . S
C632 C633 1.386 . S
C632 C634 1.391 . S
C633 C632 1.386 . S
C633 C637 1.393 . S
C634 H626 0.950 . S
C634 C632 1.391 . S
C634 C635 1.400 . S
C635 C634 1.400 . S
C635 C636 1.398 . S
C635 C641 1.491 . S
C636 H627 0.950 . S
C636 C635 1.398 . S
C636 C637 1.391 . S
C637 H625 0.950 . S
C637 C633 1.393 . S
C637 C636 1.391 . S
C638 H628 0.950 . S
C638 C639 1.386 . S
C638 C640 1.391 . S
C639 C638 1.386 . S
C639 C643 1.393 . S
C640 H629 0.950 . S
C640 C638 1.391 . S
C640 C641 1.400 . S
C641 C635 1.491 . S
C641 C640 1.400 . S
C641 C642 1.398 . S
C642 H630 0.950 . S
C642 C641 1.398 . S
C642 C643 1.391 . S
C643 H631 0.950 . S
C643 C639 1.393 . S
C643 C642 1.391 . S
H644 C652 0.950 . S
H645 C657 0.950 . S
H646 C654 0.950 . S
H647 C656 0.950 . S
H648 C658 0.950 . S
H649 C660 0.950 . S
H650 C662 0.950 . S
H651 C663 0.950 . S
C652 H644 0.950 . S
C652 C653 1.386 . S
C652 C654 1.391 . S
C653 C652 1.386 . S
C653 C657 1.393 . S
C654 H646 0.950 . S
C654 C652 1.391 . S
C654 C655 1.400 . S
C655 C654 1.400 . S
C655 C656 1.398 . S
C655 C661 1.491 . S
C656 H647 0.950 . S
C656 C655 1.398 . S
C656 C657 1.391 . S
C657 H645 0.950 . S
C657 C653 1.393 . S
C657 C656 1.391 . S
C658 H648 0.950 . S
C658 C659 1.386 . S
C658 C660 1.391 . S
C659 C658 1.386 . S
C659 C663 1.393 . S
C660 H649 0.950 . S
C660 C658 1.391 . S
C660 C661 1.400 . S
C661 C655 1.491 . S
C661 C660 1.400 . S
C661 C662 1.398 . S
C662 H650 0.950 . S
C662 C661 1.398 . S
C662 C663 1.391 . S
C663 H651 0.950 . S
C663 C659 1.393 . S
C663 C662 1.391 . S
H664 C672 0.950 . S
H665 C677 0.950 . S
H666 C674 0.950 . S
H667 C676 0.950 . S
H668 C678 0.950 . S
H669 C680 0.950 . S
H670 C682 0.950 . S
H671 C683 0.950 . S
C672 H664 0.950 . S
C672 C673 1.386 . S
C672 C674 1.391 . S
C673 C672 1.386 . S
C673 C677 1.393 . S
C674 H666 0.950 . S
C674 C672 1.391 . S
C674 C675 1.400 . S
C675 C674 1.400 . S
C675 C676 1.398 . S
C675 C681 1.491 . S
C676 H667 0.950 . S
C676 C675 1.398 . S
C676 C677 1.391 . S
C677 H665 0.950 . S
C677 C673 1.393 . S
C677 C676 1.391 . S
C678 H668 0.950 . S
C678 C679 1.386 . S
C678 C680 1.391 . S
C679 C678 1.386 . S
C679 C683 1.393 . S
C680 H669 0.950 . S
C680 C678 1.391 . S
C680 C681 1.400 . S
C681 C675 1.491 . S
C681 C680 1.400 . S
C681 C682 1.398 . S
C682 H670 0.950 . S
C682 C681 1.398 . S
C682 C683 1.391 . S
C683 H671 0.950 . S
C683 C679 1.393 . S
C683 C682 1.391 . S
H684 C692 0.950 . S
H685 C697 0.950 . S
H686 C694 0.950 . S
H687 C696 0.950 . S
H688 C698 0.950 . S
H689 C700 0.950 . S
H690 C702 0.950 . S
H691 C703 0.950 . S
C692 H684 0.950 . S
C692 C693 1.386 . S
C692 C694 1.391 . S
C693 C692 1.386 . S
C693 C697 1.393 . S
C694 H686 0.950 . S
C694 C692 1.391 . S
C694 C695 1.400 . S
C695 C694 1.400 . S
C695 C696 1.398 . S
C695 C701 1.491 . S
C696 H687 0.950 . S
C696 C695 1.398 . S
C696 C697 1.391 . S
C697 H685 0.950 . S
C697 C693 1.393 . S
C697 C696 1.391 . S
C698 H688 0.950 . S
C698 C699 1.386 . S
C698 C700 1.391 1_554 S
C699 C698 1.386 . S
C699 C703 1.393 . S
C700 H689 0.950 . S
C700 C698 1.391 1_556 S
C700 C701 1.400 . S
C701 C695 1.491 . S
C701 C700 1.400 . S
C701 C702 1.398 . S
C702 H690 0.950 . S
C702 C701 1.398 . S
C702 C703 1.391 1_556 S
C703 H691 0.950 . S
C703 C699 1.393 . S
C703 C702 1.391 1_554 S
H704 C712 0.950 . S
H705 C717 0.950 . S
H706 C714 0.950 . S
H707 C716 0.950 . S
H708 C718 0.950 . S
H709 C720 0.950 . S
H710 C722 0.950 . S
H711 C723 0.950 . S
C712 H704 0.950 . S
C712 C713 1.386 . S
C712 C714 1.391 1_554 S
C713 C712 1.386 . S
C713 C717 1.393 . S
C714 H706 0.950 . S
C714 C712 1.391 1_556 S
C714 C715 1.400 . S
C715 C714 1.400 . S
C715 C716 1.398 . S
C715 C721 1.491 . S
C716 H707 0.950 . S
C716 C715 1.398 . S
C716 C717 1.391 1_556 S
C717 H705 0.950 . S
C717 C713 1.393 . S
C717 C716 1.391 1_554 S
C718 H708 0.950 . S
C718 C719 1.386 . S
C718 C720 1.391 . S
C719 C718 1.386 . S
C719 C723 1.393 . S
C720 H709 0.950 . S
C720 C718 1.391 . S
C720 C721 1.400 . S
C721 C715 1.491 . S
C721 C720 1.400 . S
C721 C722 1.398 . S
C722 H710 0.950 . S
C722 C721 1.398 . S
C722 C723 1.391 . S
C723 H711 0.950 . S
C723 C719 1.393 . S
C723 C722 1.391 . S
H724 C732 0.950 . S
H725 C737 0.950 . S
H726 C734 0.950 . S
H727 C736 0.950 . S
H728 C738 0.950 . S
H729 C740 0.950 . S
H730 C742 0.950 . S
H731 C743 0.950 . S
C732 H724 0.950 . S
C732 C733 1.386 . S
C732 C734 1.391 . S
C733 C732 1.386 . S
C733 C737 1.393 . S
C734 H726 0.950 . S
C734 C732 1.391 . S
C734 C735 1.400 . S
C735 C734 1.400 . S
C735 C736 1.398 . S
C735 C741 1.491 . S
C736 H727 0.950 . S
C736 C735 1.398 . S
C736 C737 1.391 . S
C737 H725 0.950 . S
C737 C733 1.393 . S
C737 C736 1.391 . S
C738 H728 0.950 . S
C738 C739 1.386 . S
C738 C740 1.391 1_554 S
C739 C738 1.386 . S
C739 C743 1.393 . S
C740 H729 0.950 . S
C740 C738 1.391 1_556 S
C740 C741 1.400 . S
C741 C735 1.491 . S
C741 C740 1.400 . S
C741 C742 1.398 . S
C742 H730 0.950 . S
C742 C741 1.398 . S
C742 C743 1.391 1_556 S
C743 H731 0.950 . S
C743 C739 1.393 . S
C743 C742 1.391 1_554 S
H744 C752 0.950 . S
H745 C757 0.950 . S
H746 C754 0.950 . S
H747 C756 0.968 . S
H748 C758 0.950 . S
H749 C760 0.960 . S
H750 C762 0.979 . S
H751 C763 0.950 . S
C752 H744 0.950 . S
C752 C753 1.386 . S
C752 C754 1.391 . S
C753 C752 1.386 . S
C753 C757 1.393 . S
C754 H746 0.950 . S
C754 C752 1.391 . S
C754 C755 1.400 . S
C755 C754 1.400 . S
C755 C756 1.398 . S
C755 C761 1.494 . S
C756 H747 0.968 . S
C756 C755 1.398 . S
C756 C757 1.391 . S
C757 H745 0.950 . S
C757 C753 1.393 . S
C757 C756 1.391 . S
C758 H748 0.950 . S
C758 C759 1.386 . S
C758 C760 1.398 . S
C759 C758 1.386 . S
C759 C763 1.393 . S
C760 H749 0.960 . S
C760 C758 1.398 . S
C760 C761 1.350 1_455 S
C761 C755 1.494 . S
C761 C760 1.350 1_655 S
C761 C762 1.395 . S
C762 H750 0.979 . S
C762 C761 1.395 . S
C762 C763 1.386 1_655 S
C763 H751 0.950 . S
C763 C759 1.393 . S
C763 C762 1.386 1_455 S
H764 C772 0.950 . S
H765 C777 0.950 . S
H766 C774 0.950 . S
H767 C776 0.950 . S
H768 C778 0.950 . S
H769 C780 0.950 . S
H770 C782 0.950 . S
H771 C783 0.950 . S
C772 H764 0.950 . S
C772 C773 1.386 . S
C772 C774 1.391 . S
C773 C772 1.386 . S
C773 C777 1.393 . S
C774 H766 0.950 . S
C774 C772 1.391 . S
C774 C775 1.400 . S
C775 C774 1.400 . S
C775 C776 1.398 . S
C775 C781 1.491 . S
C776 H767 0.950 . S
C776 C775 1.398 . S
C776 C777 1.391 . S
C777 H765 0.950 . S
C777 C773 1.393 . S
C777 C776 1.391 . S
C778 H768 0.950 . S
C778 C779 1.386 . S
C778 C780 1.391 . S
C779 C778 1.386 . S
C779 C783 1.393 . S
C780 H769 0.950 . S
C780 C778 1.391 . S
C780 C781 1.400 . S
C781 C775 1.491 . S
C781 C780 1.400 . S
C781 C782 1.398 . S
C782 H770 0.950 . S
C782 C781 1.398 . S
C782 C783 1.391 . S
C783 H771 0.950 . S
C783 C779 1.393 . S
C783 C782 1.391 . S
H784 C792 0.950 . S
H785 C797 0.950 . S
H786 C794 0.950 . S
H787 C796 0.950 . S
H788 C798 0.950 . S
H789 C800 0.950 . S
H790 C802 0.950 . S
H791 C803 0.950 . S
C792 H784 0.950 . S
C792 C793 1.386 . S
C792 C794 1.391 . S
C793 C792 1.386 . S
C793 C797 1.393 1_545 S
C794 H786 0.950 . S
C794 C792 1.391 . S
C794 C795 1.400 . S
C795 C794 1.400 . S
C795 C796 1.398 1_545 S
C795 C801 1.494 . S
C796 H787 0.950 . S
C796 C795 1.398 1_565 S
C796 C797 1.391 . S
C797 H785 0.950 . S
C797 C793 1.393 1_565 S
C797 C796 1.391 . S
C798 H788 0.950 . S
C798 C799 1.386 . S
C798 C800 1.391 . S
C799 C798 1.386 . S
C799 C803 1.393 1_565 S
C800 H789 0.950 . S
C800 C798 1.391 . S
C800 C801 1.382 1_565 S
C801 C795 1.494 . S
C801 C800 1.382 1_545 S
C801 C802 1.415 . S
C802 H790 0.950 . S
C802 C801 1.415 . S
C802 C803 1.391 . S
C803 H791 0.950 . S
C803 C799 1.393 1_545 S
C803 C802 1.391 . S
H804 C812 0.950 . S
H805 C817 0.950 . S
H806 C814 0.950 . S
H807 C816 0.950 . S
H808 C818 0.950 . S
H809 C820 0.950 . S
H810 C822 0.950 . S
H811 C823 0.950 . S
C812 H804 0.950 . S
C812 C813 1.386 . S
C812 C814 1.391 . S
C813 C812 1.386 . S
C813 C817 1.393 1_545 S
C814 H806 0.950 . S
C814 C812 1.391 . S
C814 C815 1.398 1_545 S
C815 C814 1.398 1_565 S
C815 C816 1.400 . S
C815 C821 1.491 . S
C816 H807 0.950 . S
C816 C815 1.400 . S
C816 C817 1.391 . S
C817 H805 0.950 . S
C817 C813 1.393 1_565 S
C817 C816 1.391 . S
C818 H808 0.950 . S
C818 C819 1.386 . S
C818 C820 1.391 . S
C819 C818 1.386 . S
C819 C823 1.393 1_565 S
C820 H809 0.950 . S
C820 C818 1.391 . S
C820 C821 1.400 . S
C821 C815 1.491 . S
C821 C820 1.400 . S
C821 C822 1.398 1_565 S
C822 H810 0.950 . S
C822 C821 1.398 1_545 S
C822 C823 1.391 . S
C823 H811 0.950 . S
C823 C819 1.393 1_545 S
C823 C822 1.391 . S
H824 C832 0.950 . S
H825 C837 0.950 . S
H826 C834 0.950 . S
H827 C836 0.950 . S
H828 C838 0.950 . S
H829 C840 0.950 . S
H830 C842 0.950 . S
H831 C843 0.950 . S
C832 H824 0.950 . S
C832 C833 1.386 1_455 S
C832 C834 1.391 . S
C833 C832 1.386 1_655 S
C833 C837 1.393 . S
C834 H826 0.950 . S
C834 C832 1.391 . S
C834 C835 1.406 . S
C835 C834 1.406 . S
C835 C836 1.391 1_455 S
C835 C841 1.492 . S
C836 H827 0.950 . S
C836 C835 1.391 1_655 S
C836 C837 1.391 . S
C837 H825 0.950 . S
C837 C833 1.393 . S
C837 C836 1.391 . S
C838 H828 0.950 . S
C838 C839 1.386 1_655 S
C838 C840 1.391 . S
C839 C838 1.386 1_455 S
C839 C843 1.393 . S
C840 H829 0.950 . S
C840 C838 1.391 . S
C840 C841 1.400 1_655 S
C841 C835 1.492 . S
C841 C840 1.400 1_455 S
C841 C842 1.398 . S
C842 H830 0.950 . S
C842 C841 1.398 . S
C842 C843 1.391 . S
C843 H831 0.950 . S
C843 C839 1.393 . S
C843 C842 1.391 . S
H844 C852 0.950 . S
H845 C857 0.950 . S
H846 C854 0.950 . S
H847 C856 0.950 . S
H848 C858 0.950 . S
H849 C860 0.950 . S
H850 C862 0.950 . S
H851 C863 0.950 . S
C852 H844 0.950 . S
C852 C853 1.386 . S
C852 C854 1.391 . S
C853 C852 1.386 . S
C853 C857 1.393 . S
C854 H846 0.950 . S
C854 C852 1.391 . S
C854 C855 1.400 . S
C855 C854 1.400 . S
C855 C856 1.398 . S
C855 C861 1.491 . S
C856 H847 0.950 . S
C856 C855 1.398 . S
C856 C857 1.391 . S
C857 H845 0.950 . S
C857 C853 1.393 . S
C857 C856 1.391 . S
C858 H848 0.950 . S
C858 C859 1.386 . S
C858 C860 1.391 . S
C859 C858 1.386 . S
C859 C863 1.393 . S
C860 H849 0.950 . S
C860 C858 1.391 . S
C860 C861 1.400 . S
C861 C855 1.491 . S
C861 C860 1.400 . S
C861 C862 1.398 . S
C862 H850 0.950 . S
C862 C861 1.398 . S
C862 C863 1.391 . S
C863 H851 0.950 . S
C863 C859 1.393 . S
C863 C862 1.391 . S
H864 C872 0.950 . S
H865 C877 0.950 . S
H866 C874 0.950 . S
H867 C876 0.950 . S
H868 C878 0.950 . S
H869 C880 0.950 . S
H870 C882 0.950 . S
H871 C883 0.950 . S
C872 H864 0.950 . S
C872 C873 1.386 . S
C872 C874 1.391 . S
C873 C872 1.386 . S
C873 C877 1.393 . S
C874 H866 0.950 . S
C874 C872 1.391 . S
C874 C875 1.400 . S
C875 C874 1.400 . S
C875 C876 1.398 . S
C875 C881 1.491 . S
C876 H867 0.950 . S
C876 C875 1.398 . S
C876 C877 1.391 . S
C877 H865 0.950 . S
C877 C873 1.393 . S
C877 C876 1.391 . S
C878 H868 0.950 . S
C878 C879 1.386 . S
C878 C880 1.391 . S
C879 C878 1.386 . S
C879 C883 1.393 . S
C880 H869 0.950 . S
C880 C878 1.391 . S
C880 C881 1.400 . S
C881 C875 1.491 . S
C881 C880 1.400 . S
C881 C882 1.398 . S
C882 H870 0.950 . S
C882 C881 1.398 . S
C882 C883 1.391 . S
C883 H871 0.950 . S
C883 C879 1.393 . S
C883 C882 1.391 . S
H884 C892 0.950 . S
H885 C897 0.950 . S
H886 C894 0.950 . S
H887 C896 0.950 . S
H888 C898 0.950 . S
H889 C900 0.950 . S
H890 C902 0.950 . S
H891 C903 0.950 . S
C892 H884 0.950 . S
C892 C893 1.386 . S
C892 C894 1.391 . S
C893 C892 1.386 . S
C893 C897 1.393 . S
C894 H886 0.950 . S
C894 C892 1.391 . S
C894 C895 1.400 . S
C895 C894 1.400 . S
C895 C896 1.398 . S
C895 C901 1.491 . S
C896 H887 0.950 . S
C896 C895 1.398 . S
C896 C897 1.391 . S
C897 H885 0.950 . S
C897 C893 1.393 . S
C897 C896 1.391 . S
C898 H888 0.950 . S
C898 C899 1.386 . S
C898 C900 1.391 . S
C899 C898 1.386 . S
C899 C903 1.393 . S
C900 H889 0.950 . S
C900 C898 1.391 . S
C900 C901 1.400 . S
C901 C895 1.491 . S
C901 C900 1.400 . S
C901 C902 1.398 . S
C902 H890 0.950 . S
C902 C901 1.398 . S
C902 C903 1.391 . S
C903 H891 0.950 . S
C903 C899 1.393 . S
C903 C902 1.391 . S
H904 C912 0.950 . S
H905 C917 0.950 . S
H906 C914 0.950 . S
H907 C916 0.950 . S
H908 C918 0.950 . S
H909 C920 0.950 . S
H910 C922 0.950 . S
H911 C923 0.950 . S
C912 H904 0.950 . S
C912 C913 1.386 . S
C912 C914 1.391 . S
C913 C912 1.386 . S
C913 C917 1.393 . S
C914 H906 0.950 . S
C914 C912 1.391 . S
C914 C915 1.400 . S
C915 C914 1.400 . S
C915 C916 1.398 . S
C915 C921 1.491 . S
C916 H907 0.950 . S
C916 C915 1.398 . S
C916 C917 1.391 . S
C917 H905 0.950 . S
C917 C913 1.393 . S
C917 C916 1.391 . S
C918 H908 0.950 . S
C918 C919 1.386 . S
C918 C920 1.391 . S
C919 C918 1.386 . S
C919 C923 1.393 . S
C920 H909 0.950 . S
C920 C918 1.391 . S
C920 C921 1.400 . S
C921 C915 1.491 . S
C921 C920 1.400 . S
C921 C922 1.398 . S
C922 H910 0.950 . S
C922 C921 1.398 . S
C922 C923 1.391 . S
C923 H911 0.950 . S
C923 C919 1.393 . S
C923 C922 1.391 . S
H924 C932 0.950 . S
H925 C937 0.950 . S
H926 C934 0.950 . S
H927 C936 0.950 . S
H928 C938 0.950 . S
H929 C940 0.950 . S
H930 C942 0.950 . S
H931 C943 0.950 . S
C932 H924 0.950 . S
C932 C933 1.386 . S
C932 C934 1.391 . S
C933 C932 1.386 . S
C933 C937 1.393 . S
C934 H926 0.950 . S
C934 C932 1.391 . S
C934 C935 1.400 . S
C935 C934 1.400 . S
C935 C936 1.398 . S
C935 C941 1.491 . S
C936 H927 0.950 . S
C936 C935 1.398 . S
C936 C937 1.391 . S
C937 H925 0.950 . S
C937 C933 1.393 . S
C937 C936 1.391 . S
C938 H928 0.950 . S
C938 C939 1.386 . S
C938 C940 1.391 . S
C939 C938 1.386 . S
C939 C943 1.393 . S
C940 H929 0.950 . S
C940 C938 1.391 . S
C940 C941 1.400 . S
C941 C935 1.491 . S
C941 C940 1.400 . S
C941 C942 1.398 . S
C942 H930 0.950 . S
C942 C941 1.398 . S
C942 C943 1.391 . S
C943 H931 0.950 . S
C943 C939 1.393 . S
C943 C942 1.391 . S
H944 C952 0.950 . S
H945 C957 0.950 . S
H946 C954 0.950 . S
H947 C956 0.950 . S
H948 C958 0.950 . S
H949 C960 0.950 . S
H950 C962 0.950 . S
H951 C963 0.950 . S
C952 H944 0.950 . S
C952 C953 1.386 . S
C952 C954 1.391 . S
C953 C952 1.386 . S
C953 C957 1.393 . S
C954 H946 0.950 . S
C954 C952 1.391 . S
C954 C955 1.400 . S
C955 C954 1.400 . S
C955 C956 1.398 . S
C955 C961 1.491 . S
C956 H947 0.950 . S
C956 C955 1.398 . S
C956 C957 1.391 . S
C957 H945 0.950 . S
C957 C953 1.393 . S
C957 C956 1.391 . S
C958 H948 0.950 . S
C958 C959 1.386 . S
C958 C960 1.391 . S
C959 C958 1.386 . S
C959 C963 1.393 . S
C960 H949 0.950 . S
C960 C958 1.391 . S
C960 C961 1.400 . S
C961 C955 1.491 . S
C961 C960 1.400 . S
C961 C962 1.398 . S
C962 H950 0.950 . S
C962 C961 1.398 . S
C962 C963 1.391 . S
C963 H951 0.950 . S
C963 C959 1.393 . S
C963 C962 1.391 . S
H964 C972 0.950 . S
H965 C977 0.950 . S
H966 C974 0.950 . S
H967 C976 0.950 . S
H968 C978 0.950 . S
H969 C980 0.950 . S
H970 C982 0.950 . S
H971 C983 0.950 . S
C972 H964 0.950 . S
C972 C973 1.386 . S
C972 C974 1.391 . S
C973 C972 1.386 . S
C973 C977 1.393 . S
C974 H966 0.950 . S
C974 C972 1.391 . S
C974 C975 1.400 . S
C975 C974 1.400 . S
C975 C976 1.398 . S
C975 C981 1.491 . S
C976 H967 0.950 . S
C976 C975 1.398 . S
C976 C977 1.391 . S
C977 H965 0.950 . S
C977 C973 1.393 . S
C977 C976 1.391 . S
C978 H968 0.950 . S
C978 C979 1.386 . S
C978 C980 1.391 . S
C979 C978 1.386 . S
C979 C983 1.393 . S
C980 H969 0.950 . S
C980 C978 1.391 . S
C980 C981 1.400 . S
C981 C975 1.491 . S
C981 C980 1.400 . S
C981 C982 1.398 . S
C982 H970 0.950 . S
C982 C981 1.398 . S
C982 C983 1.391 . S
C983 H971 0.950 . S
C983 C979 1.393 . S
C983 C982 1.391 . S
H984 C992 0.950 . S
H985 C997 0.950 . S
H986 C994 0.950 . S
H987 C996 0.950 . S
H988 C998 0.950 . S
H989 C1000 0.950 . S
H990 C1002 0.950 . S
H991 C1003 0.950 . S
C992 H984 0.950 . S
C992 C993 1.386 . S
C992 C994 1.391 . S
C993 C992 1.386 . S
C993 C997 1.393 . S
C994 H986 0.950 . S
C994 C992 1.391 . S
C994 C995 1.400 . S
C995 C994 1.400 . S
C995 C996 1.398 . S
C995 C1001 1.491 . S
C996 H987 0.950 . S
C996 C995 1.398 . S
C996 C997 1.391 . S
C997 H985 0.950 . S
C997 C993 1.393 . S
C997 C996 1.391 . S
C998 H988 0.950 . S
C998 C999 1.386 . S
C998 C1000 1.391 . S
C999 C998 1.386 . S
C999 C1003 1.393 . S
C1000 H989 0.950 . S
C1000 C998 1.391 . S
C1000 C1001 1.400 . S
C1001 C995 1.491 . S
C1001 C1000 1.400 . S
C1001 C1002 1.398 . S
C1002 H990 0.950 . S
C1002 C1001 1.398 . S
C1002 C1003 1.391 . S
C1003 H991 0.950 . S
C1003 C999 1.393 . S
C1003 C1002 1.391 . S
H1004 C1012 0.950 . S
H1005 C1017 0.950 . S
H1006 C1014 0.950 . S
H1007 C1016 0.950 . S
H1008 C1018 0.950 . S
H1009 C1020 0.950 . S
H1010 C1022 0.950 . S
H1011 C1023 0.950 . S
C1012 H1004 0.950 . S
C1012 C1013 1.386 . S
C1012 C1014 1.391 . S
C1013 C1012 1.386 . S
C1013 C1017 1.393 . S
C1014 H1006 0.950 . S
C1014 C1012 1.391 . S
C1014 C1015 1.400 . S
C1015 C1014 1.400 . S
C1015 C1016 1.398 . S
C1015 C1021 1.491 . S
C1016 H1007 0.950 . S
C1016 C1015 1.398 . S
C1016 C1017 1.391 . S
C1017 H1005 0.950 . S
C1017 C1013 1.393 . S
C1017 C1016 1.391 . S
C1018 H1008 0.950 . S
C1018 C1019 1.386 . S
C1018 C1020 1.391 . S
C1019 C1018 1.386 . S
C1019 C1023 1.393 . S
C1020 H1009 0.950 . S
C1020 C1018 1.391 . S
C1020 C1021 1.400 . S
C1021 C1015 1.491 . S
C1021 C1020 1.400 . S
C1021 C1022 1.398 . S
C1022 H1010 0.950 . S
C1022 C1021 1.398 . S
C1022 C1023 1.391 . S
C1023 H1011 0.950 . S
C1023 C1019 1.393 . S
C1023 C1022 1.391 . S
H1024 C1032 0.950 . S
H1025 C1037 0.950 . S
H1026 C1034 0.950 . S
H1027 C1036 0.950 . S
H1028 C1038 0.950 . S
H1029 C1040 0.950 . S
H1030 C1042 0.950 . S
H1031 C1043 0.950 . S
C1032 H1024 0.950 . S
C1032 C1033 1.386 . S
C1032 C1034 1.391 . S
C1033 C1032 1.386 . S
C1033 C1037 1.393 . S
C1034 H1026 0.950 . S
C1034 C1032 1.391 . S
C1034 C1035 1.400 . S
C1035 C1034 1.400 . S
C1035 C1036 1.398 . S
C1035 C1041 1.491 . S
C1036 H1027 0.950 . S
C1036 C1035 1.398 . S
C1036 C1037 1.391 . S
C1037 H1025 0.950 . S
C1037 C1033 1.393 . S
C1037 C1036 1.391 . S
C1038 H1028 0.950 . S
C1038 C1039 1.386 . S
C1038 C1040 1.391 . S
C1039 C1038 1.386 . S
C1039 C1043 1.393 . S
C1040 H1029 0.950 . S
C1040 C1038 1.391 . S
C1040 C1041 1.400 . S
C1041 C1035 1.491 . S
C1041 C1040 1.400 . S
C1041 C1042 1.398 . S
C1042 H1030 0.950 . S
C1042 C1041 1.398 . S
C1042 C1043 1.391 . S
C1043 H1031 0.950 . S
C1043 C1039 1.393 . S
C1043 C1042 1.391 . S
H1044 C1052 0.950 . S
H1045 C1057 0.950 . S
H1046 C1054 0.950 . S
H1047 C1056 0.950 . S
H1048 C1058 0.950 . S
H1049 C1060 0.950 . S
H1050 C1062 0.950 . S
H1051 C1063 0.950 . S
C1052 H1044 0.950 . S
C1052 C1053 1.386 . S
C1052 C1054 1.391 . S
C1053 C1052 1.386 . S
C1053 C1057 1.393 . S
C1054 H1046 0.950 . S
C1054 C1052 1.391 . S
C1054 C1055 1.400 . S
C1055 C1054 1.400 . S
C1055 C1056 1.398 . S
C1055 C1061 1.491 . S
C1056 H1047 0.950 . S
C1056 C1055 1.398 . S
C1056 C1057 1.391 . S
C1057 H1045 0.950 . S
C1057 C1053 1.393 . S
C1057 C1056 1.391 . S
C1058 H1048 0.950 . S
C1058 C1059 1.386 . S
C1058 C1060 1.391 . S
C1059 C1058 1.386 . S
C1059 C1063 1.393 . S
C1060 H1049 0.950 . S
C1060 C1058 1.391 . S
C1060 C1061 1.400 . S
C1061 C1055 1.491 . S
C1061 C1060 1.400 . S
C1061 C1062 1.398 . S
C1062 H1050 0.950 . S
C1062 C1061 1.398 . S
C1062 C1063 1.391 . S
C1063 H1051 0.950 . S
C1063 C1059 1.393 . S
C1063 C1062 1.391 . S
H1064 C1072 0.950 . S
H1065 C1077 0.950 . S
H1066 C1074 0.950 . S
H1067 C1076 0.950 . S
H1068 C1078 0.950 . S
H1069 C1080 0.950 . S
H1070 C1082 0.950 . S
H1071 C1083 0.950 . S
C1072 H1064 0.950 . S
C1072 C1073 1.386 . S
C1072 C1074 1.391 . S
C1073 C1072 1.386 . S
C1073 C1077 1.393 . S
C1074 H1066 0.950 . S
C1074 C1072 1.391 . S
C1074 C1075 1.400 . S
C1075 C1074 1.400 . S
C1075 C1076 1.398 . S
C1075 C1081 1.491 . S
C1076 H1067 0.950 . S
C1076 C1075 1.398 . S
C1076 C1077 1.391 . S
C1077 H1065 0.950 . S
C1077 C1073 1.393 . S
C1077 C1076 1.391 . S
C1078 H1068 0.950 . S
C1078 C1079 1.386 . S
C1078 C1080 1.391 . S
C1079 C1078 1.386 . S
C1079 C1083 1.393 . S
C1080 H1069 0.950 . S
C1080 C1078 1.391 . S
C1080 C1081 1.400 . S
C1081 C1075 1.491 . S
C1081 C1080 1.400 . S
C1081 C1082 1.398 . S
C1082 H1070 0.950 . S
C1082 C1081 1.398 . S
C1082 C1083 1.391 . S
C1083 H1071 0.950 . S
C1083 C1079 1.393 . S
C1083 C1082 1.391 . S
H1084 C1092 0.950 . S
H1085 C1097 0.950 . S
H1086 C1094 0.950 . S
H1087 C1096 0.950 . S
H1088 C1098 0.950 . S
H1089 C1100 0.950 . S
H1090 C1102 0.950 . S
H1091 C1103 0.950 . S
C1092 H1084 0.950 . S
C1092 C1093 1.386 . S
C1092 C1094 1.391 . S
C1093 C1092 1.386 . S
C1093 C1097 1.393 . S
C1094 H1086 0.950 . S
C1094 C1092 1.391 . S
C1094 C1095 1.400 . S
C1095 C1094 1.400 . S
C1095 C1096 1.398 . S
C1095 C1101 1.491 . S
C1096 H1087 0.950 . S
C1096 C1095 1.398 . S
C1096 C1097 1.391 . S
C1097 H1085 0.950 . S
C1097 C1093 1.393 . S
C1097 C1096 1.391 . S
C1098 H1088 0.950 . S
C1098 C1099 1.386 . S
C1098 C1100 1.391 . S
C1099 C1098 1.386 . S
C1099 C1103 1.393 . S
C1100 H1089 0.950 . S
C1100 C1098 1.391 . S
C1100 C1101 1.400 . S
C1101 C1095 1.491 . S
C1101 C1100 1.400 . S
C1101 C1102 1.398 . S
C1102 H1090 0.950 . S
C1102 C1101 1.398 . S
C1102 C1103 1.391 . S
C1103 H1091 0.950 . S
C1103 C1099 1.393 . S
C1103 C1102 1.391 . S
H1104 C1112 0.950 . S
H1105 C1117 0.950 . S
H1106 C1114 0.950 . S
H1107 C1116 0.950 . S
H1108 C1118 0.950 . S
H1109 C1120 0.950 . S
H1110 C1122 0.950 . S
H1111 C1123 0.950 . S
C1112 H1104 0.950 . S
C1112 C1113 1.386 . S
C1112 C1114 1.391 . S
C1113 C1112 1.386 . S
C1113 C1117 1.393 1_655 S
C1114 H1106 0.950 . S
C1114 C1112 1.391 . S
C1114 C1115 1.432 . S
C1115 C1114 1.432 . S
C1115 C1116 1.339 1_655 S
C1115 C1121 1.559 1_655 S
C1116 H1107 0.950 . S
C1116 C1115 1.339 1_455 S
C1116 C1117 1.391 . S
C1117 H1105 0.950 . S
C1117 C1113 1.393 1_455 S
C1117 C1116 1.391 . S
C1118 H1108 0.950 . S
C1118 C1119 1.386 . S
C1118 C1120 1.391 . S
C1119 C1118 1.386 . S
C1119 C1123 1.393 1_455 S
C1120 H1109 0.950 . S
C1120 C1118 1.391 . S
C1120 C1121 1.441 . S
C1121 C1115 1.559 1_455 S
C1121 C1120 1.441 . S
C1121 C1122 1.324 1_455 S
C1122 H1110 0.950 . S
C1122 C1121 1.324 1_655 S
C1122 C1123 1.391 . S
C1123 H1111 0.950 . S
C1123 C1119 1.393 1_655 S
C1123 C1122 1.391 . S
H1124 C1132 0.950 . S
H1125 C1137 0.950 . S
H1126 C1134 0.950 . S
H1127 C1136 0.950 . S
H1128 C1138 0.950 . S
H1129 C1140 0.950 . S
H1130 C1142 0.950 . S
H1131 C1143 0.950 . S
C1132 H1124 0.950 . S
C1132 C1133 1.386 . S
C1132 C1134 1.391 . S
C1133 C1132 1.386 . S
C1133 C1137 1.393 . S
C1134 H1126 0.950 . S
C1134 C1132 1.391 . S
C1134 C1135 1.400 . S
C1135 C1134 1.400 . S
C1135 C1136 1.398 . S
C1135 C1141 1.491 . S
C1136 H1127 0.950 . S
C1136 C1135 1.398 . S
C1136 C1137 1.391 . S
C1137 H1125 0.950 . S
C1137 C1133 1.393 . S
C1137 C1136 1.391 . S
C1138 H1128 0.950 . S
C1138 C1139 1.386 . S
C1138 C1140 1.391 . S
C1139 C1138 1.386 . S
C1139 C1143 1.393 . S
C1140 H1129 0.950 . S
C1140 C1138 1.391 . S
C1140 C1141 1.400 . S
C1141 C1135 1.491 . S
C1141 C1140 1.400 . S
C1141 C1142 1.398 . S
C1142 H1130 0.950 . S
C1142 C1141 1.398 . S
C1142 C1143 1.391 . S
C1143 H1131 0.950 . S
C1143 C1139 1.393 . S
C1143 C1142 1.391 . S
H1144 C1152 0.950 . S
H1145 C1157 0.950 . S
H1146 C1154 0.950 . S
H1147 C1156 0.950 . S
H1148 C1158 0.950 . S
H1149 C1160 0.950 . S
H1150 C1162 0.950 . S
H1151 C1163 0.950 . S
C1152 H1144 0.950 . S
C1152 C1153 1.386 1_545 S
C1152 C1154 1.391 . S
C1153 C1152 1.386 1_565 S
C1153 C1157 1.393 . S
C1154 H1146 0.950 . S
C1154 C1152 1.391 . S
C1154 C1155 1.400 1_545 S
C1155 C1154 1.400 1_565 S
C1155 C1156 1.398 . S
C1155 C1161 1.491 1_565 S
C1156 H1147 0.950 . S
C1156 C1155 1.398 . S
C1156 C1157 1.391 . S
C1157 H1145 0.950 . S
C1157 C1153 1.393 . S
C1157 C1156 1.391 . S
C1158 H1148 0.950 . S
C1158 C1159 1.386 1_565 S
C1158 C1160 1.391 . S
C1159 C1158 1.386 1_545 S
C1159 C1163 1.393 . S
C1160 H1149 0.950 . S
C1160 C1158 1.391 . S
C1160 C1161 1.400 1_565 S
C1161 C1155 1.491 1_545 S
C1161 C1160 1.400 1_545 S
C1161 C1162 1.398 . S
C1162 H1150 0.950 . S
C1162 C1161 1.398 . S
C1162 C1163 1.391 . S
C1163 H1151 0.950 . S
C1163 C1159 1.393 . S
C1163 C1162 1.391 . S
H1164 C1172 0.950 . S
H1165 C1177 0.950 . S
H1166 C1174 0.950 . S
H1167 C1176 0.950 . S
H1168 C1178 0.950 . S
H1169 C1180 0.950 . S
H1170 C1182 0.950 . S
H1171 C1183 0.950 . S
C1172 H1164 0.950 . S
C1172 C1173 1.386 . S
C1172 C1174 1.391 . S
C1173 C1172 1.386 . S
C1173 C1177 1.393 1_566 S
C1174 H1166 0.950 . S
C1174 C1172 1.391 . S
C1174 C1175 1.417 . S
C1175 C1174 1.417 . S
C1175 C1176 1.365 1_566 S
C1175 C1181 1.527 1_566 S
C1176 H1167 0.950 . S
C1176 C1175 1.365 1_544 S
C1176 C1177 1.391 . S
C1177 H1165 0.950 . S
C1177 C1173 1.393 1_544 S
C1177 C1176 1.391 . S
C1178 H1168 0.950 . S
C1178 C1179 1.386 . S
C1178 C1180 1.391 . S
C1179 C1178 1.386 . S
C1179 C1183 1.393 1_544 S
C1180 H1169 0.950 . S
C1180 C1178 1.391 . S
C1180 C1181 1.420 . S
C1181 C1175 1.527 1_544 S
C1181 C1180 1.420 . S
C1181 C1182 1.359 1_544 S
C1182 H1170 0.950 . S
C1182 C1181 1.359 1_566 S
C1182 C1183 1.391 . S
C1183 H1171 0.950 . S
C1183 C1179 1.393 1_566 S
C1183 C1182 1.391 . S
H1184 C1192 0.950 . S
H1185 C1197 0.950 . S
H1186 C1194 0.950 . S
H1187 C1196 0.950 . S
H1188 C1198 0.950 . S
H1189 C1200 0.950 . S
H1190 C1202 0.950 . S
H1191 C1203 0.950 . S
C1192 H1184 0.950 . S
C1192 C1193 1.386 1_456 S
C1192 C1194 1.391 . S
C1193 C1192 1.386 1_654 S
C1193 C1197 1.393 . S
C1194 H1186 0.950 . S
C1194 C1192 1.391 . S
C1194 C1195 1.390 1_456 S
C1195 C1194 1.390 1_654 S
C1195 C1196 1.429 . S
C1195 C1201 1.443 1_654 S
C1196 H1187 0.950 . S
C1196 C1195 1.429 . S
C1196 C1197 1.391 . S
C1197 H1185 0.950 . S
C1197 C1193 1.393 . S
C1197 C1196 1.391 . S
C1198 H1188 0.950 . S
C1198 C1199 1.386 1_654 S
C1198 C1200 1.391 . S
C1199 C1198 1.386 1_456 S
C1199 C1203 1.393 . S
C1200 H1189 0.950 . S
C1200 C1198 1.391 . S
C1200 C1201 1.384 1_654 S
C1201 C1195 1.443 1_456 S
C1201 C1200 1.384 1_456 S
C1201 C1202 1.446 . S
C1202 H1190 0.950 . S
C1202 C1201 1.446 . S
C1202 C1203 1.391 . S
C1203 H1191 0.950 . S
C1203 C1199 1.393 . S
C1203 C1202 1.391 . S
H1204 C1212 0.950 . S
H1205 C1217 0.950 1_556 S
H1206 C1214 0.950 . S
H1207 C1216 0.950 . S
H1208 C1218 0.950 . S
H1209 C1220 0.950 . S
H1210 C1222 0.950 . S
H1211 C1223 0.950 1_554 S
C1212 H1204 0.950 . S
C1212 C1213 1.386 . S
C1212 C1214 1.391 . S
C1213 C1212 1.386 . S
C1213 C1217 1.393 . S
C1214 H1206 0.950 . S
C1214 C1212 1.391 . S
C1214 C1215 1.400 . S
C1215 C1214 1.400 . S
C1215 C1216 1.398 1_554 S
C1215 C1221 1.491 1_554 S
C1216 H1207 0.950 . S
C1216 C1215 1.398 1_556 S
C1216 C1217 1.391 1_556 S
C1217 H1205 0.950 1_554 S
C1217 C1213 1.393 . S
C1217 C1216 1.391 1_554 S
C1218 H1208 0.950 . S
C1218 C1219 1.386 . S
C1218 C1220 1.391 . S
C1219 C1218 1.386 . S
C1219 C1223 1.393 . S
C1220 H1209 0.950 . S
C1220 C1218 1.391 . S
C1220 C1221 1.400 . S
C1221 C1215 1.491 1_556 S
C1221 C1220 1.400 . S
C1221 C1222 1.398 1_556 S
C1222 H1210 0.950 . S
C1222 C1221 1.398 1_554 S
C1222 C1223 1.391 1_554 S
C1223 H1211 0.950 1_556 S
C1223 C1219 1.393 . S
C1223 C1222 1.391 1_556 S
H1224 C1232 0.950 . S
H1225 C1237 0.950 1_556 S
H1226 C1234 0.950 . S
H1227 C1236 0.950 . S
H1228 C1238 0.950 . S
H1229 C1240 0.950 . S
H1230 C1242 0.950 . S
H1231 C1243 0.950 . S
C1232 H1224 0.950 . S
C1232 C1233 1.386 . S
C1232 C1234 1.391 . S
C1233 C1232 1.386 . S
C1233 C1237 1.393 . S
C1234 H1226 0.950 . S
C1234 C1232 1.391 . S
C1234 C1235 1.400 . S
C1235 C1234 1.400 . S
C1235 C1236 1.398 . S
C1235 C1241 1.491 . S
C1236 H1227 0.950 . S
C1236 C1235 1.398 . S
C1236 C1237 1.391 . S
C1237 H1225 0.950 1_554 S
C1237 C1233 1.393 . S
C1237 C1236 1.391 . S
C1238 H1228 0.950 . S
C1238 C1239 1.386 . S
C1238 C1240 1.391 . S
C1239 C1238 1.386 . S
C1239 C1243 1.393 . S
C1240 H1229 0.950 . S
C1240 C1238 1.391 . S
C1240 C1241 1.400 . S
C1241 C1235 1.491 . S
C1241 C1240 1.400 . S
C1241 C1242 1.398 . S
C1242 H1230 0.950 . S
C1242 C1241 1.398 . S
C1242 C1243 1.391 . S
C1243 H1231 0.950 . S
C1243 C1239 1.393 . S
C1243 C1242 1.391 . S
H1244 C1252 0.950 . S
H1245 C1257 0.950 . S
H1246 C1254 0.950 . S
H1247 C1256 0.950 . S
H1248 C1258 0.950 . S
H1249 C1260 0.950 . S
H1250 C1262 0.950 . S
H1251 C1263 0.950 1_556 S
C1252 H1244 0.950 . S
C1252 C1253 1.386 . S
C1252 C1254 1.391 . S
C1253 C1252 1.386 . S
C1253 C1257 1.393 . S
C1254 H1246 0.950 . S
C1254 C1252 1.391 . S
C1254 C1255 1.400 . S
C1255 C1254 1.400 . S
C1255 C1256 1.398 . S
C1255 C1261 1.491 . S
C1256 H1247 0.950 . S
C1256 C1255 1.398 . S
C1256 C1257 1.391 . S
C1257 H1245 0.950 . S
C1257 C1253 1.393 . S
C1257 C1256 1.391 . S
C1258 H1248 0.950 . S
C1258 C1259 1.386 . S
C1258 C1260 1.391 . S
C1259 C1258 1.386 . S
C1259 C1263 1.393 . S
C1260 H1249 0.950 . S
C1260 C1258 1.391 . S
C1260 C1261 1.400 . S
C1261 C1255 1.491 . S
C1261 C1260 1.400 . S
C1261 C1262 1.398 . S
C1262 H1250 0.950 . S
C1262 C1261 1.398 . S
C1262 C1263 1.391 . S
C1263 H1251 0.950 1_554 S
C1263 C1259 1.393 . S
C1263 C1262 1.391 . S
H1264 C1272 0.950 . S
H1265 C1277 0.950 . S
H1266 C1274 0.950 . S
H1267 C1276 0.950 . S
H1268 C1278 0.950 . S
H1269 C1280 0.950 . S
H1270 C1282 0.950 . S
H1271 C1283 0.950 1_556 S
C1272 H1264 0.950 . S
C1272 C1273 1.386 . S
C1272 C1274 1.391 . S
C1273 C1272 1.386 . S
C1273 C1277 1.393 . S
C1274 H1266 0.950 . S
C1274 C1272 1.391 . S
C1274 C1275 1.400 . S
C1275 C1274 1.400 . S
C1275 C1276 1.398 . S
C1275 C1281 1.491 . S
C1276 H1267 0.950 . S
C1276 C1275 1.398 . S
C1276 C1277 1.391 . S
C1277 H1265 0.950 . S
C1277 C1273 1.393 . S
C1277 C1276 1.391 . S
C1278 H1268 0.950 . S
C1278 C1279 1.386 . S
C1278 C1280 1.391 . S
C1279 C1278 1.386 . S
C1279 C1283 1.393 . S
C1280 H1269 0.950 . S
C1280 C1278 1.391 . S
C1280 C1281 1.400 . S
C1281 C1275 1.491 . S
C1281 C1280 1.400 . S
C1281 C1282 1.398 . S
C1282 H1270 0.950 . S
C1282 C1281 1.398 . S
C1282 C1283 1.391 . S
C1283 H1271 0.950 1_554 S
C1283 C1279 1.393 . S
C1283 C1282 1.391 . S
H1284 C1292 0.950 . S
H1285 C1297 0.950 . S
H1286 C1294 0.950 . S
H1287 C1296 0.950 . S
H1288 C1298 0.950 . S
H1289 C1300 0.950 . S
H1290 C1302 0.950 . S
H1291 C1303 0.950 . S
C1292 H1284 0.950 . S
C1292 C1293 1.386 . S
C1292 C1294 1.391 . S
C1293 C1292 1.386 . S
C1293 C1297 1.393 . S
C1294 H1286 0.950 . S
C1294 C1292 1.391 . S
C1294 C1295 1.400 . S
C1295 C1294 1.400 . S
C1295 C1296 1.398 . S
C1295 C1301 1.491 . S
C1296 H1287 0.950 . S
C1296 C1295 1.398 . S
C1296 C1297 1.391 . S
C1297 H1285 0.950 . S
C1297 C1293 1.393 . S
C1297 C1296 1.391 . S
C1298 H1288 0.950 . S
C1298 C1299 1.386 . S
C1298 C1300 1.391 . S
C1299 C1298 1.386 . S
C1299 C1303 1.393 . S
C1300 H1289 0.950 . S
C1300 C1298 1.391 . S
C1300 C1301 1.400 . S
C1301 C1295 1.491 . S
C1301 C1300 1.400 . S
C1301 C1302 1.398 . S
C1302 H1290 0.950 . S
C1302 C1301 1.398 . S
C1302 C1303 1.391 . S
C1303 H1291 0.950 . S
C1303 C1299 1.393 . S
C1303 C1302 1.391 . S
H1304 C1312 0.950 . S
H1305 C1317 0.950 . S
H1306 C1314 0.950 . S
H1307 C1316 0.950 . S
H1308 C1318 0.950 . S
H1309 C1320 0.950 . S
H1310 C1322 0.950 . S
H1311 C1323 0.950 . S
C1312 H1304 0.950 . S
C1312 C1313 1.386 . S
C1312 C1314 1.391 . S
C1313 C1312 1.386 . S
C1313 C1317 1.393 . S
C1314 H1306 0.950 . S
C1314 C1312 1.391 . S
C1314 C1315 1.400 . S
C1315 C1314 1.400 . S
C1315 C1316 1.398 . S
C1315 C1321 1.491 . S
C1316 H1307 0.950 . S
C1316 C1315 1.398 . S
C1316 C1317 1.391 . S
C1317 H1305 0.950 . S
C1317 C1313 1.393 . S
C1317 C1316 1.391 . S
C1318 H1308 0.950 . S
C1318 C1319 1.386 . S
C1318 C1320 1.391 . S
C1319 C1318 1.386 . S
C1319 C1323 1.393 . S
C1320 H1309 0.950 . S
C1320 C1318 1.391 . S
C1320 C1321 1.400 . S
C1321 C1315 1.491 . S
C1321 C1320 1.400 . S
C1321 C1322 1.398 . S
C1322 H1310 0.950 . S
C1322 C1321 1.398 . S
C1322 C1323 1.391 . S
C1323 H1311 0.950 . S
C1323 C1319 1.393 . S
C1323 C1322 1.391 . S
H1324 C1332 0.950 . S
H1325 C1337 0.950 . S
H1326 C1334 0.950 . S
H1327 C1336 0.950 . S
H1328 C1338 0.950 . S
H1329 C1340 0.950 . S
H1330 C1342 0.950 . S
H1331 C1343 0.950 . S
C1332 H1324 0.950 . S
C1332 C1333 1.386 . S
C1332 C1334 1.391 . S
C1333 C1332 1.386 . S
C1333 C1337 1.393 . S
C1334 H1326 0.950 . S
C1334 C1332 1.391 . S
C1334 C1335 1.400 . S
C1335 C1334 1.400 . S
C1335 C1336 1.398 . S
C1335 C1341 1.491 . S
C1336 H1327 0.950 . S
C1336 C1335 1.398 . S
C1336 C1337 1.391 . S
C1337 H1325 0.950 . S
C1337 C1333 1.393 . S
C1337 C1336 1.391 . S
C1338 H1328 0.950 . S
C1338 C1339 1.386 . S
C1338 C1340 1.391 . S
C1339 C1338 1.386 . S
C1339 C1343 1.393 . S
C1340 H1329 0.950 . S
C1340 C1338 1.391 . S
C1340 C1341 1.400 . S
C1341 C1335 1.491 . S
C1341 C1340 1.400 . S
C1341 C1342 1.398 . S
C1342 H1330 0.950 . S
C1342 C1341 1.398 . S
C1342 C1343 1.391 . S
C1343 H1331 0.950 . S
C1343 C1339 1.393 . S
C1343 C1342 1.391 . S
H1344 C1352 0.940 1_554 S
H1345 C1357 0.950 . S
H1346 C1354 0.950 1_554 S
H1347 C1356 0.950 . S
H1348 C1358 0.950 . S
H1349 C1360 0.950 . S
H1350 C1362 0.950 . S
H1351 C1363 0.950 . S
C1352 H1344 0.940 1_556 S
C1352 C1353 1.391 . S
C1352 C1354 1.395 . S
C1353 C1352 1.391 . S
C1353 C1357 1.393 . S
C1354 H1346 0.950 1_556 S
C1354 C1352 1.395 . S
C1354 C1355 1.400 . S
C1355 C1354 1.400 . S
C1355 C1356 1.398 . S
C1355 C1361 1.491 . S
C1356 H1347 0.950 . S
C1356 C1355 1.398 . S
C1356 C1357 1.391 . S
C1357 H1345 0.950 . S
C1357 C1353 1.393 . S
C1357 C1356 1.391 . S
C1358 H1348 0.950 . S
C1358 C1359 1.386 . S
C1358 C1360 1.391 . S
C1359 C1358 1.386 . S
C1359 C1363 1.393 . S
C1360 H1349 0.950 . S
C1360 C1358 1.391 . S
C1360 C1361 1.400 . S
C1361 C1355 1.491 . S
C1361 C1360 1.400 . S
C1361 C1362 1.398 . S
C1362 H1350 0.950 . S
C1362 C1361 1.398 . S
C1362 C1363 1.391 . S
C1363 H1351 0.950 . S
C1363 C1359 1.393 . S
C1363 C1362 1.391 . S
H1364 C1372 0.950 . S
H1365 C1377 0.950 . S
H1366 C1374 0.950 . S
H1367 C1376 0.950 . S
H1368 C1378 0.950 . S
H1369 C1380 0.950 . S
H1370 C1382 0.950 . S
H1371 C1383 0.950 . S
C1372 H1364 0.950 . S
C1372 C1373 1.386 . S
C1372 C1374 1.391 . S
C1373 C1372 1.386 . S
C1373 C1377 1.393 . S
C1374 H1366 0.950 . S
C1374 C1372 1.391 . S
C1374 C1375 1.400 . S
C1375 C1374 1.400 . S
C1375 C1376 1.398 . S
C1375 C1381 1.491 . S
C1376 H1367 0.950 . S
C1376 C1375 1.398 . S
C1376 C1377 1.391 . S
C1377 H1365 0.950 . S
C1377 C1373 1.393 . S
C1377 C1376 1.391 . S
C1378 H1368 0.950 . S
C1378 C1379 1.386 . S
C1378 C1380 1.391 . S
C1379 C1378 1.386 . S
C1379 C1383 1.393 . S
C1380 H1369 0.950 . S
C1380 C1378 1.391 . S
C1380 C1381 1.400 . S
C1381 C1375 1.491 . S
C1381 C1380 1.400 . S
C1381 C1382 1.398 . S
C1382 H1370 0.950 . S
C1382 C1381 1.398 . S
C1382 C1383 1.391 . S
C1383 H1371 0.950 . S
C1383 C1379 1.393 . S
C1383 C1382 1.391 . S
H1384 C1392 0.950 . S
H1385 C1397 0.950 1_554 S
H1386 C1394 0.950 . S
H1387 C1396 0.950 . S
H1388 C1398 0.950 . S
H1389 C1400 0.950 . S
H1390 C1402 0.950 . S
H1391 C1403 0.950 . S
C1392 H1384 0.950 . S
C1392 C1393 1.386 . S
C1392 C1394 1.391 . S
C1393 C1392 1.386 . S
C1393 C1397 1.393 . S
C1394 H1386 0.950 . S
C1394 C1392 1.391 . S
C1394 C1395 1.400 . S
C1395 C1394 1.400 . S
C1395 C1396 1.398 . S
C1395 C1401 1.491 . S
C1396 H1387 0.950 . S
C1396 C1395 1.398 . S
C1396 C1397 1.391 . S
C1397 H1385 0.950 1_556 S
C1397 C1393 1.393 . S
C1397 C1396 1.391 . S
C1398 H1388 0.950 . S
C1398 C1399 1.386 . S
C1398 C1400 1.391 . S
C1399 C1398 1.386 . S
C1399 C1403 1.393 . S
C1400 H1389 0.950 . S
C1400 C1398 1.391 . S
C1400 C1401 1.400 . S
C1401 C1395 1.491 . S
C1401 C1400 1.400 . S
C1401 C1402 1.398 . S
C1402 H1390 0.950 . S
C1402 C1401 1.398 . S
C1402 C1403 1.391 . S
C1403 H1391 0.950 . S
C1403 C1399 1.393 . S
C1403 C1402 1.391 . S
H1404 C1412 0.950 . S
H1405 C1417 0.950 . S
H1406 C1414 0.950 . S
H1407 C1416 0.950 . S
H1408 C1418 0.950 . S
H1409 C1420 0.950 . S
H1410 C1422 0.950 . S
H1411 C1423 0.950 . S
C1412 H1404 0.950 . S
C1412 C1413 1.386 . S
C1412 C1414 1.391 . S
C1413 C1412 1.386 . S
C1413 C1417 1.393 . S
C1414 H1406 0.950 . S
C1414 C1412 1.391 . S
C1414 C1415 1.400 . S
C1415 C1414 1.400 . S
C1415 C1416 1.398 . S
C1415 C1421 1.491 . S
C1416 H1407 0.950 . S
C1416 C1415 1.398 . S
C1416 C1417 1.391 . S
C1417 H1405 0.950 . S
C1417 C1413 1.393 . S
C1417 C1416 1.391 . S
C1418 H1408 0.950 . S
C1418 C1419 1.386 . S
C1418 C1420 1.391 . S
C1419 C1418 1.386 . S
C1419 C1423 1.393 . S
C1420 H1409 0.950 . S
C1420 C1418 1.391 . S
C1420 C1421 1.400 . S
C1421 C1415 1.491 . S
C1421 C1420 1.400 . S
C1421 C1422 1.398 . S
C1422 H1410 0.950 . S
C1422 C1421 1.398 . S
C1422 C1423 1.391 . S
C1423 H1411 0.950 . S
C1423 C1419 1.393 . S
C1423 C1422 1.391 . S
H1424 C1432 0.950 . S
H1425 C1437 0.950 . S
H1426 C1434 0.950 . S
H1427 C1436 0.950 . S
H1428 C1438 0.950 . S
H1429 C1440 0.950 . S
H1430 C1442 0.950 . S
H1431 C1443 0.950 . S
C1432 H1424 0.950 . S
C1432 C1433 1.386 . S
C1432 C1434 1.391 . S
C1433 C1432 1.386 . S
C1433 C1437 1.393 . S
C1434 H1426 0.950 . S
C1434 C1432 1.391 . S
C1434 C1435 1.400 . S
C1435 C1434 1.400 . S
C1435 C1436 1.398 . S
C1435 C1441 1.491 . S
C1436 H1427 0.950 . S
C1436 C1435 1.398 . S
C1436 C1437 1.391 . S
C1437 H1425 0.950 . S
C1437 C1433 1.393 . S
C1437 C1436 1.391 . S
C1438 H1428 0.950 . S
C1438 C1439 1.386 . S
C1438 C1440 1.391 . S
C1439 C1438 1.386 . S
C1439 C1443 1.393 . S
C1440 H1429 0.950 . S
C1440 C1438 1.391 . S
C1440 C1441 1.400 . S
C1441 C1435 1.491 . S
C1441 C1440 1.400 . S
C1441 C1442 1.398 . S
C1442 H1430 0.950 . S
C1442 C1441 1.398 . S
C1442 C1443 1.391 . S
C1443 H1431 0.950 . S
C1443 C1439 1.393 . S
C1443 C1442 1.391 . S
H1444 C1452 0.950 . S
H1445 C1457 0.950 . S
H1446 C1454 0.950 . S
H1447 C1456 0.950 . S
H1448 C1458 0.950 . S
H1449 C1460 0.950 . S
H1450 C1462 0.950 . S
H1451 C1463 0.950 . S
C1452 H1444 0.950 . S
C1452 C1453 1.386 . S
C1452 C1454 1.391 . S
C1453 C1452 1.386 . S
C1453 C1457 1.393 . S
C1454 H1446 0.950 . S
C1454 C1452 1.391 . S
C1454 C1455 1.400 . S
C1455 C1454 1.400 . S
C1455 C1456 1.398 . S
C1455 C1461 1.491 . S
C1456 H1447 0.950 . S
C1456 C1455 1.398 . S
C1456 C1457 1.391 . S
C1457 H1445 0.950 . S
C1457 C1453 1.393 . S
C1457 C1456 1.391 . S
C1458 H1448 0.950 . S
C1458 C1459 1.386 . S
C1458 C1460 1.391 . S
C1459 C1458 1.386 . S
C1459 C1463 1.393 . S
C1460 H1449 0.950 . S
C1460 C1458 1.391 . S
C1460 C1461 1.400 . S
C1461 C1455 1.491 . S
C1461 C1460 1.400 . S
C1461 C1462 1.398 . S
C1462 H1450 0.950 . S
C1462 C1461 1.398 . S
C1462 C1463 1.391 . S
C1463 H1451 0.950 . S
C1463 C1459 1.393 . S
C1463 C1462 1.391 . S
H1464 C1472 0.950 . S
H1465 C1477 0.950 . S
H1466 C1474 0.950 . S
H1467 C1476 0.950 . S
H1468 C1478 0.950 . S
H1469 C1480 0.950 . S
H1470 C1482 0.950 . S
H1471 C1483 0.950 . S
C1472 H1464 0.950 . S
C1472 C1473 1.386 . S
C1472 C1474 1.391 . S
C1473 C1472 1.386 . S
C1473 C1477 1.393 . S
C1474 H1466 0.950 . S
C1474 C1472 1.391 . S
C1474 C1475 1.400 . S
C1475 C1474 1.400 . S
C1475 C1476 1.398 . S
C1475 C1481 1.491 . S
C1476 H1467 0.950 . S
C1476 C1475 1.398 . S
C1476 C1477 1.391 . S
C1477 H1465 0.950 . S
C1477 C1473 1.393 . S
C1477 C1476 1.391 . S
C1478 H1468 0.950 . S
C1478 C1479 1.386 . S
C1478 C1480 1.391 . S
C1479 C1478 1.386 . S
C1479 C1483 1.393 . S
C1480 H1469 0.950 . S
C1480 C1478 1.391 . S
C1480 C1481 1.400 . S
C1481 C1475 1.491 . S
C1481 C1480 1.400 . S
C1481 C1482 1.398 . S
C1482 H1470 0.950 . S
C1482 C1481 1.398 . S
C1482 C1483 1.391 . S
C1483 H1471 0.950 . S
C1483 C1479 1.393 . S
C1483 C1482 1.391 . S
H1484 C1492 0.950 . S
H1485 C1497 0.950 . S
H1486 C1494 0.950 . S
H1487 C1496 0.950 . S
H1488 C1498 0.950 . S
H1489 C1500 0.950 . S
H1490 C1502 0.950 . S
H1491 C1503 0.950 . S
C1492 H1484 0.950 . S
C1492 C1493 1.386 . S
C1492 C1494 1.391 . S
C1493 C1492 1.386 . S
C1493 C1497 1.393 . S
C1494 H1486 0.950 . S
C1494 C1492 1.391 . S
C1494 C1495 1.400 . S
C1495 C1494 1.400 . S
C1495 C1496 1.398 . S
C1495 C1501 1.491 1_565 S
C1496 H1487 0.950 . S
C1496 C1495 1.398 . S
C1496 C1497 1.391 . S
C1497 H1485 0.950 . S
C1497 C1493 1.393 . S
C1497 C1496 1.391 . S
C1498 H1488 0.950 . S
C1498 C1499 1.386 . S
C1498 C1500 1.391 . S
C1499 C1498 1.386 . S
C1499 C1503 1.393 . S
C1500 H1489 0.950 . S
C1500 C1498 1.391 . S
C1500 C1501 1.400 . S
C1501 C1495 1.491 1_545 S
C1501 C1500 1.400 . S
C1501 C1502 1.398 . S
C1502 H1490 0.950 . S
C1502 C1501 1.398 . S
C1502 C1503 1.391 . S
C1503 H1491 0.950 . S
C1503 C1499 1.393 . S
C1503 C1502 1.391 . S
H1504 C1512 0.950 . S
H1505 C1517 0.950 . S
H1506 C1514 0.950 . S
H1507 C1516 0.950 . S
H1508 C1518 0.950 . S
H1509 C1520 0.950 . S
H1510 C1522 0.950 . S
H1511 C1523 0.950 . S
C1512 H1504 0.950 . S
C1512 C1513 1.386 . S
C1512 C1514 1.391 . S
C1513 C1512 1.386 . S
C1513 C1517 1.393 . S
C1514 H1506 0.950 . S
C1514 C1512 1.391 . S
C1514 C1515 1.400 . S
C1515 C1514 1.400 . S
C1515 C1516 1.398 . S
C1515 C1521 1.491 1_455 S
C1516 H1507 0.950 . S
C1516 C1515 1.398 . S
C1516 C1517 1.391 . S
C1517 H1505 0.950 . S
C1517 C1513 1.393 . S
C1517 C1516 1.391 . S
C1518 H1508 0.950 . S
C1518 C1519 1.386 . S
C1518 C1520 1.391 . S
C1519 C1518 1.386 . S
C1519 C1523 1.393 . S
C1520 H1509 0.950 . S
C1520 C1518 1.391 . S
C1520 C1521 1.400 . S
C1521 C1515 1.491 1_655 S
C1521 C1520 1.400 . S
C1521 C1522 1.398 . S
C1522 H1510 0.950 . S
C1522 C1521 1.398 . S
C1522 C1523 1.391 . S
C1523 H1511 0.950 . S
C1523 C1519 1.393 . S
C1523 C1522 1.391 . S
H1524 C1532 0.950 . S
H1525 C1537 0.950 . S
H1526 C1534 0.950 . S
H1527 C1536 0.950 . S
H1528 C1538 0.950 . S
H1529 C1540 0.950 . S
H1530 C1542 0.950 . S
H1531 C1543 0.950 . S
C1532 H1524 0.950 . S
C1532 C1533 1.386 . S
C1532 C1534 1.391 . S
C1533 C1532 1.386 . S
C1533 C1537 1.393 . S
C1534 H1526 0.950 . S
C1534 C1532 1.391 . S
C1534 C1535 1.400 . S
C1535 C1534 1.400 . S
C1535 C1536 1.398 . S
C1535 C1541 1.491 . S
C1536 H1527 0.950 . S
C1536 C1535 1.398 . S
C1536 C1537 1.391 . S
C1537 H1525 0.950 . S
C1537 C1533 1.393 . S
C1537 C1536 1.391 . S
C1538 H1528 0.950 . S
C1538 C1539 1.386 . S
C1538 C1540 1.391 . S
C1539 C1538 1.386 . S
C1539 C1543 1.393 . S
C1540 H1529 0.950 . S
C1540 C1538 1.391 . S
C1540 C1541 1.400 . S
C1541 C1535 1.491 . S
C1541 C1540 1.400 . S
C1541 C1542 1.398 . S
C1542 H1530 0.950 . S
C1542 C1541 1.398 . S
C1542 C1543 1.391 . S
C1543 H1531 0.950 . S
C1543 C1539 1.393 . S
C1543 C1542 1.391 . S
H1544 C1552 0.950 . S
H1545 C1557 0.950 . S
H1546 C1554 0.950 . S
H1547 C1556 0.950 . S
H1548 C1558 0.950 . S
H1549 C1560 0.950 . S
H1550 C1562 0.950 . S
H1551 C1563 0.950 . S
C1552 H1544 0.950 . S
C1552 C1553 1.386 . S
C1552 C1554 1.391 . S
C1553 C1552 1.386 . S
C1553 C1557 1.393 . S
C1554 H1546 0.950 . S
C1554 C1552 1.391 . S
C1554 C1555 1.400 . S
C1555 C1554 1.400 . S
C1555 C1556 1.398 . S
C1555 C1561 1.491 1_565 S
C1556 H1547 0.950 . S
C1556 C1555 1.398 . S
C1556 C1557 1.391 . S
C1557 H1545 0.950 . S
C1557 C1553 1.393 . S
C1557 C1556 1.391 . S
C1558 H1548 0.950 . S
C1558 C1559 1.386 . S
C1558 C1560 1.391 . S
C1559 C1558 1.386 . S
C1559 C1563 1.393 . S
C1560 H1549 0.950 . S
C1560 C1558 1.391 . S
C1560 C1561 1.400 . S
C1561 C1555 1.491 1_545 S
C1561 C1560 1.400 . S
C1561 C1562 1.398 . S
C1562 H1550 0.950 . S
C1562 C1561 1.398 . S
C1562 C1563 1.391 . S
C1563 H1551 0.950 . S
C1563 C1559 1.393 . S
C1563 C1562 1.391 . S
H1564 C1572 0.950 . S
H1565 C1577 0.950 . S
H1566 C1574 0.950 . S
H1567 C1576 0.950 . S
H1568 C1578 0.950 . S
H1569 C1580 0.950 . S
H1570 C1582 0.950 . S
H1571 C1583 0.950 . S
C1572 H1564 0.950 . S
C1572 C1573 1.386 . S
C1572 C1574 1.391 . S
C1573 C1572 1.386 . S
C1573 C1577 1.393 . S
C1574 H1566 0.950 . S
C1574 C1572 1.391 . S
C1574 C1575 1.400 . S
C1575 C1574 1.400 . S
C1575 C1576 1.398 . S
C1575 C1581 1.491 1_455 S
C1576 H1567 0.950 . S
C1576 C1575 1.398 . S
C1576 C1577 1.391 . S
C1577 H1565 0.950 . S
C1577 C1573 1.393 . S
C1577 C1576 1.391 . S
C1578 H1568 0.950 . S
C1578 C1579 1.386 . S
C1578 C1580 1.391 . S
C1579 C1578 1.386 . S
C1579 C1583 1.393 . S
C1580 H1569 0.950 . S
C1580 C1578 1.391 . S
C1580 C1581 1.400 . S
C1581 C1575 1.491 1_655 S
C1581 C1580 1.400 . S
C1581 C1582 1.398 . S
C1582 H1570 0.950 . S
C1582 C1581 1.398 . S
C1582 C1583 1.391 . S
C1583 H1571 0.950 . S
C1583 C1579 1.393 . S
C1583 C1582 1.391 . S
H1584 C1592 0.950 . S
H1585 C1597 0.950 . S
H1586 C1594 0.950 . S
H1587 C1596 0.950 . S
H1588 C1598 0.950 . S
H1589 C1600 0.950 . S
H1590 C1602 0.950 . S
H1591 C1603 0.950 . S
C1592 H1584 0.950 . S
C1592 C1593 1.386 . S
C1592 C1594 1.391 1_554 S
C1593 C1592 1.386 . S
C1593 C1597 1.393 . S
C1594 H1586 0.950 . S
C1594 C1592 1.391 1_556 S
C1594 C1595 1.400 . S
C1595 C1594 1.400 . S
C1595 C1596 1.398 . S
C1595 C1601 1.491 . S
C1596 H1587 0.950 . S
C1596 C1595 1.398 . S
C1596 C1597 1.391 1_556 S
C1597 H1585 0.950 . S
C1597 C1593 1.393 . S
C1597 C1596 1.391 1_554 S
C1598 H1588 0.950 . S
C1598 C1599 1.386 . S
C1598 C1600 1.391 . S
C1599 C1598 1.386 . S
C1599 C1603 1.393 . S
C1600 H1589 0.950 . S
C1600 C1598 1.391 . S
C1600 C1601 1.400 . S
C1601 C1595 1.491 . S
C1601 C1600 1.400 . S
C1601 C1602 1.398 . S
C1602 H1590 0.950 . S
C1602 C1601 1.398 . S
C1602 C1603 1.391 . S
C1603 H1591 0.950 . S
C1603 C1599 1.393 . S
C1603 C1602 1.391 . S
H1604 C1612 0.950 . S
H1605 C1617 0.950 . S
H1606 C1614 0.950 . S
H1607 C1616 0.950 . S
H1608 C1618 0.950 . S
H1609 C1620 0.950 . S
H1610 C1622 0.950 . S
H1611 C1623 0.950 . S
C1612 H1604 0.950 . S
C1612 C1613 1.386 . S
C1612 C1614 1.391 1_554 S
C1613 C1612 1.386 . S
C1613 C1617 1.393 . S
C1614 H1606 0.950 . S
C1614 C1612 1.391 1_556 S
C1614 C1615 1.400 . S
C1615 C1614 1.400 . S
C1615 C1616 1.398 . S
C1615 C1621 1.491 . S
C1616 H1607 0.950 . S
C1616 C1615 1.398 . S
C1616 C1617 1.391 1_556 S
C1617 H1605 0.950 . S
C1617 C1613 1.393 . S
C1617 C1616 1.391 1_554 S
C1618 H1608 0.950 . S
C1618 C1619 1.386 . S
C1618 C1620 1.391 . S
C1619 C1618 1.386 . S
C1619 C1623 1.393 . S
C1620 H1609 0.950 . S
C1620 C1618 1.391 . S
C1620 C1621 1.400 . S
C1621 C1615 1.491 . S
C1621 C1620 1.400 . S
C1621 C1622 1.398 . S
C1622 H1610 0.950 . S
C1622 C1621 1.398 . S
C1622 C1623 1.391 . S
C1623 H1611 0.950 . S
C1623 C1619 1.393 . S
C1623 C1622 1.391 . S
H1624 C1632 0.950 . S
H1625 C1637 0.950 . S
H1626 C1634 0.950 . S
H1627 C1636 0.950 . S
H1628 C1638 0.950 . S
H1629 C1640 0.950 . S
H1630 C1642 0.950 . S
H1631 C1643 0.950 . S
C1632 H1624 0.950 . S
C1632 C1633 1.386 . S
C1632 C1634 1.391 1_554 S
C1633 C1632 1.386 . S
C1633 C1637 1.393 . S
C1634 H1626 0.950 . S
C1634 C1632 1.391 1_556 S
C1634 C1635 1.400 . S
C1635 C1634 1.400 . S
C1635 C1636 1.398 . S
C1635 C1641 1.491 . S
C1636 H1627 0.950 . S
C1636 C1635 1.398 . S
C1636 C1637 1.391 1_556 S
C1637 H1625 0.950 . S
C1637 C1633 1.393 . S
C1637 C1636 1.391 1_554 S
C1638 H1628 0.950 . S
C1638 C1639 1.386 . S
C1638 C1640 1.391 . S
C1639 C1638 1.386 . S
C1639 C1643 1.393 . S
C1640 H1629 0.950 . S
C1640 C1638 1.391 . S
C1640 C1641 1.400 . S
C1641 C1635 1.491 . S
C1641 C1640 1.400 . S
C1641 C1642 1.398 . S
C1642 H1630 0.950 . S
C1642 C1641 1.398 . S
C1642 C1643 1.391 . S
C1643 H1631 0.950 . S
C1643 C1639 1.393 . S
C1643 C1642 1.391 . S
H1644 C1652 0.950 . S
H1645 C1657 0.950 . S
H1646 C1654 0.950 . S
H1647 C1656 0.950 . S
H1648 C1658 0.950 . S
H1649 C1660 0.950 . S
H1650 C1662 0.950 . S
H1651 C1663 0.950 . S
C1652 H1644 0.950 . S
C1652 C1653 1.386 . S
C1652 C1654 1.391 . S
C1653 C1652 1.386 . S
C1653 C1657 1.393 . S
C1654 H1646 0.950 . S
C1654 C1652 1.391 . S
C1654 C1655 1.400 . S
C1655 C1654 1.400 . S
C1655 C1656 1.398 . S
C1655 C1661 1.491 . S
C1656 H1647 0.950 . S
C1656 C1655 1.398 . S
C1656 C1657 1.391 . S
C1657 H1645 0.950 . S
C1657 C1653 1.393 . S
C1657 C1656 1.391 . S
C1658 H1648 0.950 . S
C1658 C1659 1.386 . S
C1658 C1660 1.391 . S
C1659 C1658 1.386 . S
C1659 C1663 1.393 . S
C1660 H1649 0.950 . S
C1660 C1658 1.391 . S
C1660 C1661 1.400 . S
C1661 C1655 1.491 . S
C1661 C1660 1.400 . S
C1661 C1662 1.398 . S
C1662 H1650 0.950 . S
C1662 C1661 1.398 . S
C1662 C1663 1.391 . S
C1663 H1651 0.950 . S
C1663 C1659 1.393 . S
C1663 C1662 1.391 . S
H1664 C1672 0.950 . S
H1665 C1677 0.950 . S
H1666 C1674 0.950 . S
H1667 C1676 0.950 . S
H1668 C1678 0.950 . S
H1669 C1680 0.950 . S
H1670 C1682 0.950 . S
H1671 C1683 0.950 . S
C1672 H1664 0.950 . S
C1672 C1673 1.386 . S
C1672 C1674 1.391 . S
C1673 C1672 1.386 . S
C1673 C1677 1.393 . S
C1674 H1666 0.950 . S
C1674 C1672 1.391 . S
C1674 C1675 1.400 . S
C1675 C1674 1.400 . S
C1675 C1676 1.398 . S
C1675 C1681 1.491 . S
C1676 H1667 0.950 . S
C1676 C1675 1.398 . S
C1676 C1677 1.391 . S
C1677 H1665 0.950 . S
C1677 C1673 1.393 . S
C1677 C1676 1.391 . S
C1678 H1668 0.950 . S
C1678 C1679 1.386 . S
C1678 C1680 1.391 . S
C1679 C1678 1.386 . S
C1679 C1683 1.393 . S
C1680 H1669 0.950 . S
C1680 C1678 1.391 . S
C1680 C1681 1.400 . S
C1681 C1675 1.491 . S
C1681 C1680 1.400 . S
C1681 C1682 1.398 . S
C1682 H1670 0.950 . S
C1682 C1681 1.398 . S
C1682 C1683 1.391 . S
C1683 H1671 0.950 . S
C1683 C1679 1.393 . S
C1683 C1682 1.391 . S
H1684 C1692 0.950 . S
H1685 C1697 0.950 . S
H1686 C1694 0.950 . S
H1687 C1696 0.950 . S
H1688 C1698 0.950 . S
H1689 C1700 0.950 . S
H1690 C1702 0.950 . S
H1691 C1703 0.950 . S
C1692 H1684 0.950 . S
C1692 C1693 1.386 . S
C1692 C1694 1.391 . S
C1693 C1692 1.386 . S
C1693 C1697 1.393 . S
C1694 H1686 0.950 . S
C1694 C1692 1.391 . S
C1694 C1695 1.400 . S
C1695 C1694 1.400 . S
C1695 C1696 1.398 . S
C1695 C1701 1.491 . S
C1696 H1687 0.950 . S
C1696 C1695 1.398 . S
C1696 C1697 1.391 . S
C1697 H1685 0.950 . S
C1697 C1693 1.393 . S
C1697 C1696 1.391 . S
C1698 H1688 0.950 . S
C1698 C1699 1.386 . S
C1698 C1700 1.391 . S
C1699 C1698 1.386 . S
C1699 C1703 1.393 . S
C1700 H1689 0.950 . S
C1700 C1698 1.391 . S
C1700 C1701 1.400 . S
C1701 C1695 1.491 . S
C1701 C1700 1.400 . S
C1701 C1702 1.398 . S
C1702 H1690 0.950 . S
C1702 C1701 1.398 . S
C1702 C1703 1.391 . S
C1703 H1691 0.950 . S
C1703 C1699 1.393 . S
C1703 C1702 1.391 . S
H1704 C1712 0.950 . S
H1705 C1717 0.950 . S
H1706 C1714 0.950 . S
H1707 C1716 0.950 . S
H1708 C1718 0.950 . S
H1709 C1720 0.950 . S
H1710 C1722 0.950 . S
H1711 C1723 0.950 . S
C1712 H1704 0.950 . S
C1712 C1713 1.386 . S
C1712 C1714 1.391 . S
C1713 C1712 1.386 . S
C1713 C1717 1.393 . S
C1714 H1706 0.950 . S
C1714 C1712 1.391 . S
C1714 C1715 1.400 . S
C1715 C1714 1.400 . S
C1715 C1716 1.398 . S
C1715 C1721 1.491 . S
C1716 H1707 0.950 . S
C1716 C1715 1.398 . S
C1716 C1717 1.391 . S
C1717 H1705 0.950 . S
C1717 C1713 1.393 . S
C1717 C1716 1.391 . S
C1718 H1708 0.950 . S
C1718 C1719 1.386 . S
C1718 C1720 1.391 1_556 S
C1719 C1718 1.386 . S
C1719 C1723 1.393 . S
C1720 H1709 0.950 . S
C1720 C1718 1.391 1_554 S
C1720 C1721 1.400 . S
C1721 C1715 1.491 . S
C1721 C1720 1.400 . S
C1721 C1722 1.398 . S
C1722 H1710 0.950 . S
C1722 C1721 1.398 . S
C1722 C1723 1.391 1_554 S
C1723 H1711 0.950 . S
C1723 C1719 1.393 . S
C1723 C1722 1.391 1_556 S
H1724 C1732 0.950 . S
H1725 C1737 0.950 . S
H1726 C1734 0.950 . S
H1727 C1736 0.950 . S
H1728 C1738 0.950 . S
H1729 C1740 0.950 . S
H1730 C1742 0.950 . S
H1731 C1743 0.950 . S
C1732 H1724 0.950 . S
C1732 C1733 1.386 . S
C1732 C1734 1.391 . S
C1733 C1732 1.386 . S
C1733 C1737 1.393 . S
C1734 H1726 0.950 . S
C1734 C1732 1.391 . S
C1734 C1735 1.400 . S
C1735 C1734 1.400 . S
C1735 C1736 1.398 . S
C1735 C1741 1.491 . S
C1736 H1727 0.950 . S
C1736 C1735 1.398 . S
C1736 C1737 1.391 . S
C1737 H1725 0.950 . S
C1737 C1733 1.393 . S
C1737 C1736 1.391 . S
C1738 H1728 0.950 . S
C1738 C1739 1.386 . S
C1738 C1740 1.391 1_556 S
C1739 C1738 1.386 . S
C1739 C1743 1.393 . S
C1740 H1729 0.950 . S
C1740 C1738 1.391 1_554 S
C1740 C1741 1.400 . S
C1741 C1735 1.491 . S
C1741 C1740 1.400 . S
C1741 C1742 1.398 . S
C1742 H1730 0.950 . S
C1742 C1741 1.398 . S
C1742 C1743 1.391 1_554 S
C1743 H1731 0.950 . S
C1743 C1739 1.393 . S
C1743 C1742 1.391 1_556 S
H1744 C1752 0.950 . S
H1745 C1757 0.950 . S
H1746 C1754 0.950 . S
H1747 C1756 0.950 . S
H1748 C1758 0.950 . S
H1749 C1760 0.950 . S
H1750 C1762 0.950 . S
H1751 C1763 0.950 . S
C1752 H1744 0.950 . S
C1752 C1753 1.386 . S
C1752 C1754 1.391 . S
C1753 C1752 1.386 . S
C1753 C1757 1.393 . S
C1754 H1746 0.950 . S
C1754 C1752 1.391 . S
C1754 C1755 1.400 . S
C1755 C1754 1.400 . S
C1755 C1756 1.398 . S
C1755 C1761 1.491 . S
C1756 H1747 0.950 . S
C1756 C1755 1.398 . S
C1756 C1757 1.391 . S
C1757 H1745 0.950 . S
C1757 C1753 1.393 . S
C1757 C1756 1.391 . S
C1758 H1748 0.950 . S
C1758 C1759 1.386 . S
C1758 C1760 1.391 1_556 S
C1759 C1758 1.386 . S
C1759 C1763 1.393 . S
C1760 H1749 0.950 . S
C1760 C1758 1.391 1_554 S
C1760 C1761 1.400 . S
C1761 C1755 1.491 . S
C1761 C1760 1.400 . S
C1761 C1762 1.398 . S
C1762 H1750 0.950 . S
C1762 C1761 1.398 . S
C1762 C1763 1.391 1_554 S
C1763 H1751 0.950 . S
C1763 C1759 1.393 . S
C1763 C1762 1.391 1_556 S
H1764 C1772 0.950 . S
H1765 C1777 0.950 . S
H1766 C1774 0.950 . S
H1767 C1776 0.950 . S
H1768 C1778 0.950 . S
H1769 C1780 0.950 . S
H1770 C1782 0.950 . S
H1771 C1783 0.950 . S
C1772 H1764 0.950 . S
C1772 C1773 1.386 . S
C1772 C1774 1.391 . S
C1773 C1772 1.386 . S
C1773 C1777 1.393 . S
C1774 H1766 0.950 . S
C1774 C1772 1.391 . S
C1774 C1775 1.400 . S
C1775 C1774 1.400 . S
C1775 C1776 1.398 . S
C1775 C1781 1.491 . S
C1776 H1767 0.950 . S
C1776 C1775 1.398 . S
C1776 C1777 1.391 . S
C1777 H1765 0.950 . S
C1777 C1773 1.393 . S
C1777 C1776 1.391 . S
C1778 H1768 0.950 . S
C1778 C1779 1.386 . S
C1778 C1780 1.391 . S
C1779 C1778 1.386 . S
C1779 C1783 1.393 . S
C1780 H1769 0.950 . S
C1780 C1778 1.391 . S
C1780 C1781 1.400 . S
C1781 C1775 1.491 . S
C1781 C1780 1.400 . S
C1781 C1782 1.398 . S
C1782 H1770 0.950 . S
C1782 C1781 1.398 . S
C1782 C1783 1.391 . S
C1783 H1771 0.950 . S
C1783 C1779 1.393 . S
C1783 C1782 1.391 . S
H1784 C1792 0.950 . S
H1785 C1797 0.950 . S
H1786 C1794 0.950 . S
H1787 C1796 0.950 . S
H1788 C1798 0.950 . S
H1789 C1800 0.950 . S
H1790 C1802 0.950 . S
H1791 C1803 0.950 . S
C1792 H1784 0.950 . S
C1792 C1793 1.386 . S
C1792 C1794 1.391 . S
C1793 C1792 1.386 . S
C1793 C1797 1.393 . S
C1794 H1786 0.950 . S
C1794 C1792 1.391 . S
C1794 C1795 1.400 . S
C1795 C1794 1.400 . S
C1795 C1796 1.398 . S
C1795 C1801 1.491 . S
C1796 H1787 0.950 . S
C1796 C1795 1.398 . S
C1796 C1797 1.391 . S
C1797 H1785 0.950 . S
C1797 C1793 1.393 . S
C1797 C1796 1.391 . S
C1798 H1788 0.950 . S
C1798 C1799 1.386 . S
C1798 C1800 1.391 . S
C1799 C1798 1.386 . S
C1799 C1803 1.393 . S
C1800 H1789 0.950 . S
C1800 C1798 1.391 . S
C1800 C1801 1.400 . S
C1801 C1795 1.491 . S
C1801 C1800 1.400 . S
C1801 C1802 1.398 . S
C1802 H1790 0.950 . S
C1802 C1801 1.398 . S
C1802 C1803 1.391 . S
C1803 H1791 0.950 . S
C1803 C1799 1.393 . S
C1803 C1802 1.391 . S
H1804 C1812 0.950 . S
H1805 C1817 0.950 . S
H1806 C1814 0.950 . S
H1807 C1816 0.950 . S
H1808 C1818 0.950 . S
H1809 C1820 0.950 . S
H1810 C1822 0.950 . S
H1811 C1823 0.950 . S
C1812 H1804 0.950 . S
C1812 C1813 1.386 . S
C1812 C1814 1.391 . S
C1813 C1812 1.386 . S
C1813 C1817 1.393 . S
C1814 H1806 0.950 . S
C1814 C1812 1.391 . S
C1814 C1815 1.400 . S
C1815 C1814 1.400 . S
C1815 C1816 1.398 . S
C1815 C1821 1.491 . S
C1816 H1807 0.950 . S
C1816 C1815 1.398 . S
C1816 C1817 1.391 . S
C1817 H1805 0.950 . S
C1817 C1813 1.393 . S
C1817 C1816 1.391 . S
C1818 H1808 0.950 . S
C1818 C1819 1.386 . S
C1818 C1820 1.391 . S
C1819 C1818 1.386 . S
C1819 C1823 1.393 . S
C1820 H1809 0.950 . S
C1820 C1818 1.391 . S
C1820 C1821 1.400 . S
C1821 C1815 1.491 . S
C1821 C1820 1.400 . S
C1821 C1822 1.398 . S
C1822 H1810 0.950 . S
C1822 C1821 1.398 . S
C1822 C1823 1.391 . S
C1823 H1811 0.950 . S
C1823 C1819 1.393 . S
C1823 C1822 1.391 . S
H1824 C1832 0.950 . S
H1825 C1837 0.950 . S
H1826 C1834 0.950 . S
H1827 C1836 0.950 . S
H1828 C1838 0.950 . S
H1829 C1840 0.950 . S
H1830 C1842 0.950 . S
H1831 C1843 0.950 . S
C1832 H1824 0.950 . S
C1832 C1833 1.386 1_455 S
C1832 C1834 1.391 . S
C1833 C1832 1.386 1_655 S
C1833 C1837 1.393 . S
C1834 H1826 0.950 . S
C1834 C1832 1.391 . S
C1834 C1835 1.400 1_455 S
C1835 C1834 1.400 1_655 S
C1835 C1836 1.398 . S
C1835 C1841 1.495 . S
C1836 H1827 0.950 . S
C1836 C1835 1.398 . S
C1836 C1837 1.391 . S
C1837 H1825 0.950 . S
C1837 C1833 1.393 . S
C1837 C1836 1.391 . S
C1838 H1828 0.950 . S
C1838 C1839 1.386 1_655 S
C1838 C1840 1.391 . S
C1839 C1838 1.386 1_455 S
C1839 C1843 1.393 . S
C1840 H1829 0.950 . S
C1840 C1838 1.391 . S
C1840 C1841 1.432 . S
C1841 C1835 1.495 . S
C1841 C1840 1.432 . S
C1841 C1842 1.363 1_655 S
C1842 H1830 0.950 . S
C1842 C1841 1.363 1_455 S
C1842 C1843 1.391 . S
C1843 H1831 0.950 . S
C1843 C1839 1.393 . S
C1843 C1842 1.391 . S
H1844 C1852 0.950 . S
H1845 C1857 0.950 . S
H1846 C1854 0.950 . S
H1847 C1856 0.950 . S
H1848 C1858 0.950 . S
H1849 C1860 0.950 . S
H1850 C1862 0.950 . S
H1851 C1863 0.950 . S
C1852 H1844 0.950 . S
C1852 C1853 1.386 . S
C1852 C1854 1.391 . S
C1853 C1852 1.386 . S
C1853 C1857 1.393 . S
C1854 H1846 0.950 . S
C1854 C1852 1.391 . S
C1854 C1855 1.400 . S
C1855 C1854 1.400 . S
C1855 C1856 1.398 . S
C1855 C1861 1.491 . S
C1856 H1847 0.950 . S
C1856 C1855 1.398 . S
C1856 C1857 1.391 . S
C1857 H1845 0.950 . S
C1857 C1853 1.393 . S
C1857 C1856 1.391 . S
C1858 H1848 0.950 . S
C1858 C1859 1.386 . S
C1858 C1860 1.391 . S
C1859 C1858 1.386 . S
C1859 C1863 1.393 . S
C1860 H1849 0.950 . S
C1860 C1858 1.391 . S
C1860 C1861 1.400 . S
C1861 C1855 1.491 . S
C1861 C1860 1.400 . S
C1861 C1862 1.398 . S
C1862 H1850 0.950 . S
C1862 C1861 1.398 . S
C1862 C1863 1.391 . S
C1863 H1851 0.950 . S
C1863 C1859 1.393 . S
C1863 C1862 1.391 . S
H1864 C1872 0.950 . S
H1865 C1877 0.950 . S
H1866 C1874 0.950 . S
H1867 C1876 0.950 . S
H1868 C1878 0.950 . S
H1869 C1880 0.950 . S
H1870 C1882 0.950 . S
H1871 C1883 0.950 . S
C1872 H1864 0.950 . S
C1872 C1873 1.386 1_545 S
C1872 C1874 1.391 . S
C1873 C1872 1.386 1_565 S
C1873 C1877 1.393 . S
C1874 H1866 0.950 . S
C1874 C1872 1.391 . S
C1874 C1875 1.406 . S
C1875 C1874 1.406 . S
C1875 C1876 1.390 1_545 S
C1875 C1881 1.492 . S
C1876 H1867 0.950 . S
C1876 C1875 1.390 1_565 S
C1876 C1877 1.391 . S
C1877 H1865 0.950 . S
C1877 C1873 1.393 . S
C1877 C1876 1.391 . S
C1878 H1868 0.950 . S
C1878 C1879 1.386 1_565 S
C1878 C1880 1.391 . S
C1879 C1878 1.386 1_545 S
C1879 C1883 1.393 . S
C1880 H1869 0.950 . S
C1880 C1878 1.391 . S
C1880 C1881 1.400 1_565 S
C1881 C1875 1.492 . S
C1881 C1880 1.400 1_545 S
C1881 C1882 1.398 . S
C1882 H1870 0.950 . S
C1882 C1881 1.398 . S
C1882 C1883 1.391 . S
C1883 H1871 0.950 . S
C1883 C1879 1.393 . S
C1883 C1882 1.391 . S
H1884 C1892 0.949 . S
H1885 C1897 0.950 . S
H1886 C1894 0.950 . S
H1887 C1896 0.950 . S
H1888 C1898 0.950 . S
H1889 C1900 0.950 . S
H1890 C1902 0.950 . S
H1891 C1903 0.950 . S
C1892 H1884 0.949 . S
C1892 C1893 1.386 1_545 S
C1892 C1894 1.392 . S
C1893 C1892 1.386 1_565 S
C1893 C1897 1.393 . S
C1894 H1886 0.950 . S
C1894 C1892 1.392 . S
C1894 C1895 1.400 1_545 S
C1895 C1894 1.400 1_565 S
C1895 C1896 1.398 . S
C1895 C1901 1.490 . S
C1896 H1887 0.950 . S
C1896 C1895 1.398 . S
C1896 C1897 1.391 . S
C1897 H1885 0.950 . S
C1897 C1893 1.393 . S
C1897 C1896 1.391 . S
C1898 H1888 0.950 . S
C1898 C1899 1.386 1_565 S
C1898 C1900 1.391 . S
C1899 C1898 1.386 1_545 S
C1899 C1903 1.393 . S
C1900 H1889 0.950 . S
C1900 C1898 1.391 . S
C1900 C1901 1.401 . S
C1901 C1895 1.490 . S
C1901 C1900 1.401 . S
C1901 C1902 1.398 1_565 S
C1902 H1890 0.950 . S
C1902 C1901 1.398 1_545 S
C1902 C1903 1.391 . S
C1903 H1891 0.950 . S
C1903 C1899 1.393 . S
C1903 C1902 1.391 . S
H1904 C1912 0.950 . S
H1905 C1917 0.950 . S
H1906 C1914 0.950 . S
H1907 C1916 0.950 . S
H1908 C1918 0.950 . S
H1909 C1920 0.950 . S
H1910 C1922 0.950 . S
H1911 C1923 0.950 . S
C1912 H1904 0.950 . S
C1912 C1913 1.386 . S
C1912 C1914 1.391 . S
C1913 C1912 1.386 . S
C1913 C1917 1.393 1_655 S
C1914 H1906 0.950 . S
C1914 C1912 1.391 . S
C1914 C1915 1.370 1_655 S
C1915 C1914 1.370 1_455 S
C1915 C1916 1.427 . S
C1915 C1921 1.495 . S
C1916 H1907 0.950 . S
C1916 C1915 1.427 . S
C1916 C1917 1.391 . S
C1917 H1905 0.950 . S
C1917 C1913 1.393 1_455 S
C1917 C1916 1.391 . S
C1918 H1908 0.950 . S
C1918 C1919 1.386 . S
C1918 C1920 1.391 . S
C1919 C1918 1.386 . S
C1919 C1923 1.393 1_455 S
C1920 H1909 0.950 . S
C1920 C1918 1.391 . S
C1920 C1921 1.400 . S
C1921 C1915 1.495 . S
C1921 C1920 1.400 . S
C1921 C1922 1.398 1_455 S
C1922 H1910 0.950 . S
C1922 C1921 1.398 1_655 S
C1922 C1923 1.391 . S
C1923 H1911 0.950 . S
C1923 C1919 1.393 1_655 S
C1923 C1922 1.391 . S
H1924 C1932 0.950 . S
H1925 C1937 0.950 . S
H1926 C1934 0.950 . S
H1927 C1936 0.950 . S
H1928 C1938 0.950 . S
H1929 C1940 0.950 . S
H1930 C1942 0.950 . S
H1931 C1943 0.950 . S
C1932 H1924 0.950 . S
C1932 C1933 1.386 . S
C1932 C1934 1.391 . S
C1933 C1932 1.386 . S
C1933 C1937 1.393 . S
C1934 H1926 0.950 . S
C1934 C1932 1.391 . S
C1934 C1935 1.400 . S
C1935 C1934 1.400 . S
C1935 C1936 1.398 . S
C1935 C1941 1.491 . S
C1936 H1927 0.950 . S
C1936 C1935 1.398 . S
C1936 C1937 1.391 . S
C1937 H1925 0.950 . S
C1937 C1933 1.393 . S
C1937 C1936 1.391 . S
C1938 H1928 0.950 . S
C1938 C1939 1.386 . S
C1938 C1940 1.391 . S
C1939 C1938 1.386 . S
C1939 C1943 1.393 . S
C1940 H1929 0.950 . S
C1940 C1938 1.391 . S
C1940 C1941 1.400 . S
C1941 C1935 1.491 . S
C1941 C1940 1.400 . S
C1941 C1942 1.398 . S
C1942 H1930 0.950 . S
C1942 C1941 1.398 . S
C1942 C1943 1.391 . S
C1943 H1931 0.950 . S
C1943 C1939 1.393 . S
C1943 C1942 1.391 . S
C513 C224 1.841 . S
C519 C13 1.840 . S
C533 C250 1.845 . S
C539 C15 1.842 . S
C553 C223 1.841 . S
C559 C29 1.844 . S
C573 C365 1.812 . S
C579 C55 1.809 . S
C593 C57 1.806 . S
C599 C349 1.810 . S
C613 C83 1.808 . S
C619 C350 1.808 . S
C633 C97 1.842 . S
C639 C476 1.844 . S
C653 C502 1.841 . S
C659 C99 1.841 . S
C673 C462 1.844 . S
C679 C112 1.844 . S
C693 C127 1.810 . S
C699 C293 1.812 . S
C713 C252 1.811 . S
C719 C140 1.808 . S
C733 C167 1.812 . S
C739 C267 1.810 . S
C753 C405 1.728 . S
C759 C168 1.727 . S
C773 C195 1.734 . S
C779 C407 1.730 . S
C793 C379 1.731 . S
C799 C197 1.726 . S
C813 C460 1.731 . S
C819 C295 1.731 . S
C833 C421 1.734 . S
C839 C320 1.729 . S
C853 C335 1.731 . S
C859 C435 1.731 . S
C873 C265 1.764 . S
C879 C0 1.763 . S
C893 C278 1.779 . S
C899 C26 1.780 . S
C913 C280 1.778 . S
C919 C40 1.779 . S
C933 C42 1.780 . S
C939 C475 1.779 . S
C953 C68 1.772 . S
C959 C489 1.771 . S
C973 C70 1.770 . S
C979 C491 1.769 . S
C993 C84 1.760 . S
C999 C336 1.764 . S
C1013 C363 1.771 . S
C1019 C110 1.770 . S
C1033 C376 1.779 . S
C1039 C125 1.778 . S
C1053 C210 1.776 . S
C1059 C138 1.775 . S
C1073 C153 1.764 . S
C1079 C237 1.761 . S
C1093 C154 1.761 . S
C1099 C239 1.761 . S
C1113 C181 1.764 . S
C1119 C432 1.764 . S
C1133 C446 1.771 . S
C1139 C182 1.773 . S
C1153 C449 1.774 . S
C1159 C208 1.774 . S
C1173 C390 1.781 . S
C1179 C306 1.779 . S
C1193 C309 1.784 . S
C1199 C392 1.784 . S
C1213 C322 1.772 . S
C1219 C418 1.774 . S
C1233 C391 1.790 . S
C1239 C1 1.794 . S
C1253 C27 1.786 . S
C1259 C393 1.796 . S
C1273 C41 1.788 . S
C1279 C419 1.796 . S
C1293 C180 1.763 . S
C1299 C43 1.753 . S
C1313 C69 1.756 . S
C1319 C183 1.755 . S
C1333 C71 1.760 . S
C1339 C209 1.758 . S
C1353 C307 1.787 . S
C1359 C85 1.795 . S
C1373 C111 1.787 . S
C1379 C308 1.788 . S
C1393 C323 1.797 . S
C1399 C124 1.788 . S
C1413 C139 1.763 . S
C1419 C433 1.753 . S
C1433 C447 1.754 . S
C1439 C152 1.760 . S
C1453 C448 1.762 . S
C1459 C155 1.755 . S
C1473 C337 1.777 . S
C1479 C211 1.769 . S
C1493 C362 1.778 . S
C1499 C236 1.774 . S
C1513 C377 1.771 . S
C1519 C238 1.770 . S
C1533 C264 1.772 . S
C1539 C474 1.768 . S
C1553 C488 1.767 . S
C1559 C279 1.778 . S
C1573 C490 1.778 . S
C1579 C281 1.771 . S
C1593 C12 0.937 . S
C1599 C225 0.931 . S
C1613 C14 0.930 . S
C1619 C251 0.933 . S
C1633 C28 0.938 . S
C1639 C222 0.939 . S
C1653 C364 0.964 . S
C1659 C54 0.964 . S
C1673 C348 0.966 . S
C1679 C56 0.963 . S
C1693 C351 0.963 . S
C1699 C82 0.967 . S
C1713 C477 0.929 . S
C1719 C96 0.935 . S
C1733 C503 0.935 . S
C1739 C98 0.939 . S
C1753 C463 0.932 . S
C1759 C113 0.930 . S
C1773 C126 0.972 . S
C1779 C292 0.972 . S
C1793 C141 0.970 . S
C1799 C253 0.973 . S
C1813 C166 0.965 . S
C1819 C266 0.963 . S
C1833 C404 1.048 . S
C1839 C169 1.055 . S
C1853 C406 1.052 . S
C1859 C194 1.061 . S
C1873 C196 1.054 . S
C1879 C378 1.061 . S
C1893 C294 1.058 . S
C1899 C461 1.060 . S
C1913 C420 1.050 . S
C1919 C321 1.057 . S
C1933 C434 1.056 . S
C1939 C334 1.061 . S
