# Generated by pormake.
# Topology wgw, (6)-cn, num edge types: 1
# Building blocks:
#     Node 0, Type 0, BuildingBlock: OJICUG_clean_sbu_0, # of connection points: 6
#     Node 1, Type 0, BuildingBlock: OJICUG_clean_sbu_0, # of connection points: 6
#     Node 2, Type 0, BuildingBlock: OJICUG_clean_sbu_0, # of connection points: 6
#     Node 3, Type 0, BuildingBlock: OJICUG_clean_sbu_0, # of connection points: 6
#     Node 4, Type 0, BuildingBlock: OJICUG_clean_sbu_0, # of connection points: 6
#     Node 5, Type 0, BuildingBlock: OJICUG_clean_sbu_0, # of connection points: 6
#     Node 6, Type 0, BuildingBlock: OJICUG_clean_sbu_0, # of connection points: 6
#     Node 7, Type 0, BuildingBlock: OJICUG_clean_sbu_0, # of connection points: 6
#     Edge 8, Type (0, 0), BuildingBlock: OJICUG_clean_linker_0, # of connection points: 2
#     Edge 9, Type (0, 0), BuildingBlock: OJICUG_clean_linker_0, # of connection points: 2
#     Edge 10, Type (0, 0), BuildingBlock: OJICUG_clean_linker_0, # of connection points: 2
#     Edge 11, Type (0, 0), BuildingBlock: OJICUG_clean_linker_0, # of connection points: 2
#     Edge 12, Type (0, 0), BuildingBlock: OJICUG_clean_linker_0, # of connection points: 2
#     Edge 13, Type (0, 0), BuildingBlock: OJICUG_clean_linker_0, # of connection points: 2
#     Edge 14, Type (0, 0), BuildingBlock: OJICUG_clean_linker_0, # of connection points: 2
#     Edge 15, Type (0, 0), BuildingBlock: OJICUG_clean_linker_0, # of connection points: 2
#     Edge 16, Type (0, 0), BuildingBlock: OJICUG_clean_linker_0, # of connection points: 2
#     Edge 17, Type (0, 0), BuildingBlock: OJICUG_clean_linker_0, # of connection points: 2
#     Edge 18, Type (0, 0), BuildingBlock: OJICUG_clean_linker_0, # of connection points: 2
#     Edge 19, Type (0, 0), BuildingBlock: OJICUG_clean_linker_0, # of connection points: 2
#     Edge 20, Type (0, 0), BuildingBlock: OJICUG_clean_linker_0, # of connection points: 2
#     Edge 21, Type (0, 0), BuildingBlock: OJICUG_clean_linker_0, # of connection points: 2
#     Edge 22, Type (0, 0), BuildingBlock: OJICUG_clean_linker_0, # of connection points: 2
#     Edge 23, Type (0, 0), BuildingBlock: OJICUG_clean_linker_0, # of connection points: 2
#     Edge 24, Type (0, 0), BuildingBlock: OJICUG_clean_linker_0, # of connection points: 2
#     Edge 25, Type (0, 0), BuildingBlock: OJICUG_clean_linker_0, # of connection points: 2
#     Edge 26, Type (0, 0), BuildingBlock: OJICUG_clean_linker_0, # of connection points: 2
#     Edge 27, Type (0, 0), BuildingBlock: OJICUG_clean_linker_0, # of connection points: 2
#     Edge 28, Type (0, 0), BuildingBlock: OJICUG_clean_linker_0, # of connection points: 2
#     Edge 29, Type (0, 0), BuildingBlock: OJICUG_clean_linker_0, # of connection points: 2
#     Edge 30, Type (0, 0), BuildingBlock: OJICUG_clean_linker_0, # of connection points: 2
#     Edge 31, Type (0, 0), BuildingBlock: OJICUG_clean_linker_0, # of connection points: 2
# Relax obj value: 0.221
# Max RMSD: 0.288
# Mean RMSD: 0.288
data_MOF--net-wgw--node1-OJICUG_clean_sbu_0--edge1-OJICUG_clean_linker_0
_symmetry_space_group_name_H-M    P1
_symmetry_Int_Tables_number       1
_symmetry_cell_setting            triclinic
loop_
_symmetry_equiv_pos_as_xyz
'x, y, z'
_cell_length_a     21.860795
_cell_length_b     21.884553
_cell_length_c     32.685391
_cell_angle_alpha  90.004643
_cell_angle_beta   90.005069
_cell_angle_gamma 90.001902
loop_
_atom_site_label
_atom_site_type_symbol
_atom_site_fract_x
_atom_site_fract_y
_atom_site_fract_z
_atom_type_partial_charge
Sc0 Sc 0.11036 0.47263 0.13965 0.0
Sc1 Sc 0.04311 0.43644 0.23405 0.0
Sc2 Sc 0.00681 0.35153 0.14618 0.0
O3 O 0.05425 0.41984 0.17336 0.0
C4 C 0.01297 0.4424 0.07048 0.0
C5 C 0.03052 0.56697 0.191 0.0
C6 C 0.90743 0.41038 0.20172 0.0
C7 C 0.18001 0.48056 0.2253 0.0
C8 C 0.14604 0.33304 0.11827 0.0
C9 C 0.03527 0.29607 0.23601 0.0
O10 O 0.05575 0.47308 0.08613 0.0
O11 O 0.0237 0.5294 0.22031 0.0
O12 O 0.92122 0.39057 0.16632 0.0
O13 O 0.17478 0.48554 0.18699 0.0
O14 O 0.09233 0.31229 0.12541 0.0
O15 O 0.05808 0.34361 0.2521 0.0
O16 O 0.15966 0.39004 0.12092 0.0
O17 O 0.13776 0.45879 0.24759 0.0
O18 O 0.01249 0.29493 0.2002 0.0
O19 O 0.06154 0.55504 0.15875 0.0
O20 O 0.99074 0.39583 0.08798 0.0
O21 O 0.94665 0.4197 0.22977 0.0
Sc22 Sc 0.13311 0.00342 0.65486 0.0
Sc23 Sc 0.02795 0.01811 0.73596 0.0
Sc24 Sc 0.01316 0.11025 0.64857 0.0
O25 O 0.05838 0.04407 0.6799 0.0
C26 C 0.15353 0.14696 0.63773 0.0
C27 C 0.17108 0.01089 0.74905 0.0
C28 C -0.00106 0.15756 0.74097 0.0
C29 C 0.05969 0.89158 0.6931 0.0
C30 C 0.05358 0.02227 0.5751 0.0
C31 C 0.9052 0.03087 0.68304 0.0
O32 O 0.17216 0.09166 0.63921 0.0
O33 O 0.11734 0.01325 0.76352 0.0
O34 O 0.99217 0.16217 0.70255 0.0
O35 O 0.10049 0.91205 0.6689 0.0
O36 O 0.02496 0.06751 0.59001 0.0
O37 O 0.93558 0.01722 0.71488 0.0
O38 O 0.09254 0.99206 0.59545 0.0
O39 O 0.03102 0.92448 0.7186 0.0
O40 O 0.92663 0.06282 0.65382 0.0
O41 O 0.18285 0.00867 0.71108 0.0
O42 O 0.09731 0.16165 0.64183 0.0
O43 O 0.01917 0.11 0.7585 0.0
Sc44 Sc 0.481 0.13563 0.14626 0.0
Sc45 Sc 0.44421 0.05069 0.23398 0.0
Sc46 Sc 0.3775 0.01451 0.13941 0.0
O47 O 0.43343 0.06729 0.17328 0.0
C48 C 0.34189 0.15415 0.11811 0.0
C49 C 0.45213 0.19101 0.23604 0.0
C50 C 0.3074 0.00659 0.2249 0.0
C51 C 0.58005 0.07674 0.20202 0.0
C52 C 0.47521 0.04487 0.07047 0.0
C53 C 0.45706 0.92015 0.19094 0.0
O54 O 0.39557 0.1749 0.12537 0.0
O55 O 0.42913 0.14349 0.25203 0.0
O56 O 0.31285 0.00155 0.18661 0.0
O57 O 0.56648 0.09654 0.16658 0.0
O58 O 0.43238 0.01414 0.08601 0.0
O59 O 0.46367 0.95771 0.22027 0.0
O60 O 0.49733 0.09143 0.08805 0.0
O61 O 0.54066 0.06744 0.22995 0.0
O62 O 0.42625 0.9321 0.15859 0.0
O63 O 0.47514 0.19216 0.2003 0.0
O64 O 0.32828 0.09714 0.12065 0.0
O65 O 0.34952 0.02838 0.24728 0.0
Sc66 Sc 0.47596 0.3774 0.64883 0.0
Sc67 Sc 0.46135 0.46973 0.73617 0.0
Sc68 Sc 0.35608 0.48431 0.65511 0.0
O69 O 0.43082 0.44366 0.68014 0.0
C70 C 0.4355 0.46528 0.57534 0.0
C71 C 0.58403 0.45683 0.68319 0.0
C72 C 0.42957 0.5962 0.69323 0.0
C73 C 0.49028 0.33023 0.74126 0.0
C74 C 0.33555 0.34078 0.63799 0.0
C75 C 0.31823 0.47696 0.74932 0.0
O76 O 0.46419 0.42011 0.59026 0.0
O77 O 0.55369 0.47066 0.71501 0.0
O78 O 0.38878 0.57569 0.66904 0.0
O79 O 0.49687 0.32549 0.70283 0.0
O80 O 0.31694 0.39607 0.63953 0.0
O81 O 0.37198 0.47455 0.76378 0.0
O82 O 0.39177 0.32606 0.64207 0.0
O83 O 0.47026 0.3779 0.75877 0.0
O84 O 0.30643 0.47921 0.71136 0.0
O85 O 0.56256 0.42472 0.65406 0.0
O86 O 0.39652 0.49549 0.59567 0.0
O87 O 0.45821 0.56334 0.71876 0.0
Sc88 Sc 0.50687 0.63557 0.33917 0.0
Sc89 Sc 0.54313 0.55059 0.25134 0.0
Sc90 Sc 0.61035 0.51442 0.34575 0.0
O91 O 0.55426 0.56722 0.31202 0.0
C92 C 0.64611 0.65401 0.3671 0.0
C93 C 0.5353 0.69097 0.24933 0.0
C94 C 0.68 0.50645 0.2601 0.0
C95 C 0.40745 0.57667 0.28365 0.0
C96 C 0.513 0.54478 0.41491 0.0
C97 C 0.5305 0.42008 0.29442 0.0
O98 O 0.59241 0.67477 0.35995 0.0
O99 O 0.55805 0.64341 0.23324 0.0
O100 O 0.67474 0.50143 0.2984 0.0
O101 O 0.42125 0.59657 0.31903 0.0
O102 O 0.55577 0.51407 0.39929 0.0
O103 O 0.52375 0.45762 0.26509 0.0
O104 O 0.49077 0.59132 0.39738 0.0
O105 O 0.44666 0.56728 0.25562 0.0
O106 O 0.56148 0.43203 0.32669 0.0
O107 O 0.51257 0.69215 0.28515 0.0
O108 O 0.65971 0.59701 0.36445 0.0
O109 O 0.63778 0.52829 0.2378 0.0
Sc110 Sc 0.85606 0.50343 0.83033 0.0
Sc111 Sc 0.96137 0.5181 0.74932 0.0
Sc112 Sc 0.97598 0.61028 0.83672 0.0
O113 O 0.93083 0.54408 0.80535 0.0
C114 C 0.83558 0.64695 0.8475 0.0
C115 C 0.81824 0.51088 0.73612 0.0
C116 C 0.99033 0.65758 0.74432 0.0
C117 C 0.92955 0.39158 0.79215 0.0
C118 C 0.93544 0.52229 0.91014 0.0
C119 C 0.08403 0.53092 0.80234 0.0
O120 O 0.81696 0.59166 0.84597 0.0
O121 O 0.87201 0.51324 0.72168 0.0
O122 O -0.00301 0.66223 0.78276 0.0
O123 O 0.88871 0.41206 0.81631 0.0
O124 O 0.96412 0.56751 0.89526 0.0
O125 O 0.05371 0.5172 0.77048 0.0
O126 O 0.8965 0.4921 0.88976 0.0
O127 O 0.95827 0.42447 0.76667 0.0
O128 O 0.06255 0.56292 0.83151 0.0
O129 O 0.80643 0.50866 0.77408 0.0
O130 O 0.8918 0.66166 0.84344 0.0
O131 O 0.97021 0.60998 0.72678 0.0
Sc132 Sc 0.87751 0.97254 0.34598 0.0
Sc133 Sc 0.9442 0.93632 0.25143 0.0
Sc134 Sc 0.98105 0.85148 0.33918 0.0
O135 O 0.93344 0.91976 0.31213 0.0
C136 C 0.97525 0.94231 0.41493 0.0
C137 C 0.95705 0.06688 0.29442 0.0
C138 C 0.08006 0.91032 0.28339 0.0
C139 C 0.80738 0.9804 0.2605 0.0
C140 C 0.84196 0.8329 0.36733 0.0
C141 C 0.95215 0.79602 0.24941 0.0
O142 O 0.93243 0.97302 0.39936 0.0
O143 O 0.96372 0.02929 0.26511 0.0
O144 O 0.0665 0.89062 0.31886 0.0
O145 O 0.81281 0.9854 0.29879 0.0
O146 O 0.89564 0.81216 0.36006 0.0
O147 O 0.92907 0.8435 0.23343 0.0
O148 O 0.82834 0.88991 0.36478 0.0
O149 O 0.84953 0.95867 0.23811 0.0
O150 O 0.97523 0.79491 0.28514 0.0
O151 O 0.9262 0.05497 0.32675 0.0
O152 O -0.00264 0.89572 0.39738 0.0
O153 O 0.04065 0.91952 0.25545 0.0
Sc154 Sc 0.51318 0.87743 0.83668 0.0
Sc155 Sc 0.52796 0.96975 0.74936 0.0
Sc156 Sc 0.6331 0.98431 0.8305 0.0
O157 O 0.55839 0.94368 0.80541 0.0
C158 C 0.55353 0.96529 0.91022 0.0
C159 C 0.40521 0.95688 0.80224 0.0
C160 C 0.5597 0.09622 0.79233 0.0
C161 C 0.49899 0.83026 0.74423 0.0
C162 C 0.65357 0.84077 0.84756 0.0
C163 C 0.67109 0.97697 0.7363 0.0
O164 O 0.52488 0.92012 0.89526 0.0
O165 O 0.4356 0.97068 0.77044 0.0
O166 O 0.60044 0.07571 0.81656 0.0
O167 O 0.49233 0.82554 0.78266 0.0
O168 O 0.6722 0.89606 0.84608 0.0
O169 O 0.61736 0.97456 0.72182 0.0
O170 O 0.59735 0.82607 0.84346 0.0
O171 O 0.51908 0.87791 0.72674 0.0
O172 O 0.68284 0.97921 0.77428 0.0
O173 O 0.42661 0.92478 0.83139 0.0
O174 O 0.59254 -0.00449 0.88993 0.0
O175 O 0.53109 0.06336 0.76678 0.0
C176 C 0.30806 0.52395 0.29909 0.0
C177 C 0.34402 0.56104 0.27343 0.0
H178 H 0.22733 0.46787 0.30386 0.0
C179 C 0.32364 0.57424 0.2339 0.0
H180 H 0.32363 0.51258 0.32961 0.0
C181 C 0.27025 0.54834 0.21916 0.0
C182 C 0.23544 0.50826 0.24353 0.0
H183 H 0.35051 0.60284 0.21363 0.0
H184 H 0.25698 0.5593 0.18808 0.0
C185 C 0.25371 0.49772 0.28419 0.0
C186 C 0.90012 0.28334 0.78117 0.0
C187 C 0.94473 0.32644 0.79177 0.0
H188 H 0.88345 0.19424 0.75619 0.0
C189 C 0.00666 0.30916 0.79273 0.0
H190 H 0.85232 0.29621 0.77961 0.0
C191 C 0.02434 0.25099 0.77993 0.0
C192 C 0.98022 0.21 0.76559 0.0
H193 H 0.0417 0.34218 0.80056 0.0
H194 H 0.07258 0.23996 0.77798 0.0
C195 C 0.91793 0.22543 0.76768 0.0
C196 C 0.21659 0.93961 0.21846 0.0
C197 C 0.25184 0.97903 0.24303 0.0
H198 H 0.13613 0.88546 0.21283 0.0
C199 C 0.234 0.98889 0.28386 0.0
H200 H 0.22948 0.9292 0.18722 0.0
C201 C 0.17972 0.96257 0.29877 0.0
C202 C 0.14337 0.92609 0.27297 0.0
H203 H 0.26073 0.01821 0.30367 0.0
H204 H 0.16453 0.9734 0.32947 0.0
C205 C 0.16329 0.9136 0.23322 0.0
C206 C 0.57124 0.26247 0.76815 0.0
C207 C 0.50894 0.27781 0.76591 0.0
H208 H 0.63689 0.19176 0.78015 0.0
C209 C 0.4648 0.2367 0.78005 0.0
H210 H 0.60573 0.29375 0.7568 0.0
C211 C 0.48249 0.17852 0.79283 0.0
C212 C 0.54445 0.16134 0.79201 0.0
H213 H 0.41656 0.24765 0.77797 0.0
H214 H 0.44746 0.14543 0.80051 0.0
C215 C 0.58906 0.20454 0.78161 0.0
C216 C 0.75369 0.48934 0.20121 0.0
C217 C 0.73543 0.47877 0.24187 0.0
H218 H 0.8236 0.47451 0.15578 0.0
C219 C 0.77026 0.43869 0.26623 0.0
H220 H 0.72731 0.5192 0.18155 0.0
C221 C 0.82364 0.4128 0.25148 0.0
C222 C 0.84401 0.42602 0.21195 0.0
H223 H 0.75699 0.42771 0.2973 0.0
H224 H 0.85052 0.38419 0.27175 0.0
C225 C 0.80804 0.46311 0.18631 0.0
C226 C 0.98258 0.80917 0.69256 0.0
C227 C 0.04452 0.82644 0.6935 0.0
H228 H 0.91667 0.73999 0.70735 0.0
C229 C 0.08913 0.78335 0.70409 0.0
H230 H 0.94755 0.84219 0.68474 0.0
C231 C 0.07133 0.72544 0.7176 0.0
C232 C 0.00903 0.71002 0.71971 0.0
H233 H 0.13694 0.79621 0.70564 0.0
H234 H 0.10581 0.69426 0.72908 0.0
C235 C 0.96491 0.75101 0.70538 0.0
C236 C 0.66329 0.07342 0.25218 0.0
C237 C 0.64338 0.06097 0.21242 0.0
H238 H 0.72948 0.05779 0.29818 0.0
C239 C 0.67971 0.02449 0.18662 0.0
H240 H 0.63614 0.10156 0.27258 0.0
C241 C 0.73398 -0.00185 0.20153 0.0
C242 C 0.75183 0.00798 0.24237 0.0
H243 H 0.66451 0.01368 0.15592 0.0
H244 H 0.7607 0.96883 0.18171 0.0
C245 C 0.71659 0.0474 0.26694 0.0
C246 C 0.50682 0.67848 0.69276 0.0
C247 C 0.44485 0.66133 0.69353 0.0
H248 H 0.57276 0.7476 0.70764 0.0
C249 C 0.40024 0.70457 0.70385 0.0
H250 H 0.54185 0.64536 0.68513 0.0
C251 C 0.41805 0.76252 0.71728 0.0
C252 C 0.48036 0.77783 0.71958 0.0
H253 H 0.35239 0.6918 0.70526 0.0
H254 H 0.38355 0.79383 0.72857 0.0
C255 C 0.52451 0.73668 0.70551 0.0
C256 C 0.71898 0.54984 0.7129 0.0
C257 C 0.7659 0.50694 0.70847 0.0
H258 H 0.6236 0.56767 0.70656 0.0
C259 C 0.7552 0.45289 0.6864 0.0
H260 H 0.72648 0.59159 0.73005 0.0
C261 C 0.69588 0.43869 0.67323 0.0
C262 C 0.64751 0.47861 0.68227 0.0
H263 H 0.79097 0.41893 0.68329 0.0
H264 H 0.68693 0.39412 0.66009 0.0
C265 C 0.66024 0.53596 0.69962 0.0
C266 C 0.95046 0.63077 0.22362 0.0
C267 C 0.00066 0.6269 0.19667 0.0
H268 H 0.89533 0.68861 0.26142 0.0
C269 C 0.02564 0.68086 0.18058 0.0
H270 H 0.92927 0.5899 0.23587 0.0
C271 C 0.0048 0.73767 0.19471 0.0
C272 C 0.95898 0.74064 0.22484 0.0
H273 H 0.06417 0.67917 0.15978 0.0
H274 H 0.02803 0.77884 0.18481 0.0
C275 C 0.93037 0.68711 0.23797 0.0
C276 C 0.79333 0.04897 0.67319 0.0
C277 C 0.84172 0.00908 0.68222 0.0
H278 H 0.69828 0.06878 0.68335 0.0
C279 C 0.82907 0.95181 0.69971 0.0
H280 H 0.80225 0.09347 0.65995 0.0
C281 C 0.77038 0.93801 0.71313 0.0
C282 C 0.72345 0.98089 0.70868 0.0
H283 H 0.86574 0.92013 0.70664 0.0
H284 H 0.76294 0.89633 0.73036 0.0
C285 C 0.73406 0.03484 0.68649 0.0
C286 C 0.53683 0.85635 0.22386 0.0
C287 C 0.48691 0.86023 0.19667 0.0
H288 H 0.59169 0.79848 0.26181 0.0
C289 C 0.46223 0.80627 0.18036 0.0
H290 H 0.55782 0.8972 0.2363 0.0
C291 C 0.48305 0.74944 0.19448 0.0
C292 C 0.52855 0.74644 0.22483 0.0
H293 H 0.42393 0.80796 0.15937 0.0
H294 H 0.46003 0.70826 0.18437 0.0
C295 C 0.55688 0.79999 0.23821 0.0
C296 C 0.25519 0.53492 0.79905 0.0
C297 C 0.26587 0.48089 0.77695 0.0
H298 H 0.18695 0.59364 0.82542 0.0
C299 C 0.21896 0.43798 0.77253 0.0
H300 H 0.29097 0.56887 0.80217 0.0
C301 C 0.16023 0.45183 0.78585 0.0
C302 C 0.14752 0.50915 0.80324 0.0
H303 H 0.22644 0.39625 0.75536 0.0
H304 H 0.12358 0.42012 0.77892 0.0
C305 C 0.19589 0.54908 0.81227 0.0
C306 C 0.05685 0.18706 0.24714 0.0
C307 C 0.0285 0.2406 0.2605 0.0
H308 H 0.05782 0.08986 0.24907 0.0
C309 C 0.98298 0.2376 0.29084 0.0
H310 H 0.09166 0.18859 0.22355 0.0
C311 C 0.96218 0.18077 0.30496 0.0
C312 C 0.98688 0.12682 0.28867 0.0
H313 H 0.95995 0.27878 0.30094 0.0
H314 H 0.92387 0.17907 0.32594 0.0
C315 C 0.03681 0.13071 0.26149 0.0
C316 C 0.29333 0.93877 0.81209 0.0
C317 C 0.34173 0.97868 0.80308 0.0
H318 H 0.19827 0.919 0.80194 0.0
C319 C 0.32906 0.03598 0.78565 0.0
H320 H 0.30225 0.89424 0.82528 0.0
C321 C 0.27037 0.04983 0.77227 0.0
C322 C 0.22343 0.00694 0.77668 0.0
H323 H 0.36573 0.06767 0.77874 0.0
H324 H 0.26293 0.09153 0.75507 0.0
C325 C 0.23406 0.95295 0.79882 0.0
C326 C 0.45047 0.35628 0.26177 0.0
C327 C 0.50062 0.36016 0.28876 0.0
H328 H 0.39538 0.29843 0.22394 0.0
C329 C 0.52552 0.3062 0.30491 0.0
H330 H 0.42932 0.39714 0.24946 0.0
C331 C 0.50467 0.24938 0.29079 0.0
C332 C 0.45891 0.2464 0.26061 0.0
H333 H 0.56401 0.30789 0.32575 0.0
H334 H 0.52785 0.20821 0.30074 0.0
C335 C 0.43037 0.29994 0.24742 0.0
C336 C 0.18305 0.22454 0.10961 0.0
C337 C 0.196 0.28765 0.11093 0.0
H338 H 0.21826 0.13317 0.11035 0.0
C339 C 0.25764 0.30605 0.10963 0.0
H340 H 0.13626 0.20832 0.11037 0.0
C341 C 0.30487 0.26267 0.1096 0.0
C342 C 0.29192 0.19955 0.11082 0.0
H343 H 0.26966 0.35404 0.11052 0.0
H344 H 0.35166 0.27889 0.11037 0.0
C345 C 0.23029 0.18116 0.10953 0.0
C346 C 0.26293 0.18276 0.63303 0.0
C347 C 0.2 0.19653 0.63372 0.0
H348 H 0.35473 0.21683 0.63362 0.0
C349 C 0.18226 0.25835 0.63313 0.0
H350 H 0.27855 0.1358 0.63346 0.0
C351 C 0.22615 0.305 0.63317 0.0
C352 C 0.28908 0.29122 0.63388 0.0
H353 H 0.13435 0.27092 0.63361 0.0
H354 H 0.21053 0.35196 0.63372 0.0
C355 C 0.30682 0.22941 0.63314 0.0
C356 C 0.73037 0.80587 0.37592 0.0
C357 C 0.792 0.78748 0.3746 0.0
H358 H 0.63635 0.77872 0.37508 0.0
C359 C 0.80494 0.72436 0.37578 0.0
H360 H 0.71835 0.85387 0.37513 0.0
C361 C 0.75771 0.68098 0.37572 0.0
C362 C 0.69608 0.69939 0.37445 0.0
H363 H 0.85173 0.70815 0.37499 0.0
H364 H 0.76973 0.63299 0.3748 0.0
C365 C 0.68314 0.7625 0.37582 0.0
C366 C 0.76297 0.80498 0.85233 0.0
C367 C 0.70004 0.7912 0.85161 0.0
H368 H 0.85477 0.7709 0.85181 0.0
C369 C 0.6823 0.72938 0.85224 0.0
H370 H 0.77859 0.85194 0.85187 0.0
C371 C 0.72618 0.68273 0.85226 0.0
C372 C 0.78911 0.69651 0.85157 0.0
H373 H 0.63438 0.71681 0.85174 0.0
H374 H 0.71056 0.63577 0.85174 0.0
C375 C 0.80685 0.75833 0.85228 0.0
C376 C 0.98973 0.53915 0.97618 0.0
C377 C 0.9507 0.50284 0.9523 0.0
H378 H 0.03932 0.54888 0.03172 0.0
C379 C 0.92942 0.44706 0.96843 0.0
H380 H 0.00664 0.58259 0.96502 0.0
C381 C 0.94848 0.42733 0.00721 0.0
C382 C 0.98916 0.46305 0.03039 0.0
H383 H 0.89923 0.41798 0.95078 0.0
H384 H 0.93242 0.38371 0.01859 0.0
C385 C 0.00865 0.51958 0.01459 0.0
C386 C 0.05925 0.94695 0.51682 0.0
C387 C 0.03818 0.00281 0.53296 0.0
H388 H 0.05588 0.88352 0.46671 0.0
C389 C -0.00084 0.03918 0.50911 0.0
H390 H 0.08942 0.91783 0.53445 0.0
C391 C 0.98004 0.0196 0.47075 0.0
C392 C -0.0007 0.96298 0.45496 0.0
H393 H 0.98241 0.08269 0.52027 0.0
H394 H 0.94938 0.04894 0.45365 0.0
C395 C 0.03999 0.9272 0.47809 0.0
C396 C 0.49904 0.94825 0.97617 0.0
C397 C 0.53811 0.98466 0.95237 0.0
H398 H 0.44923 0.93838 0.0316 0.0
C399 C 0.55923 0.04045 0.96859 0.0
H400 H 0.48225 0.90479 0.96495 0.0
C401 C 0.53997 0.0601 0.00734 0.0
C402 C 0.49925 0.02429 0.03042 0.0
H403 H 0.58944 0.0696 0.95101 0.0
H404 H 0.55591 0.10374 0.01878 0.0
C405 C 0.47992 0.96774 0.01455 0.0
C406 C 0.50873 0.46775 0.47089 0.0
C407 C 0.48921 0.52422 0.45502 0.0
H408 H 0.50675 0.40488 0.52054 0.0
C409 C 0.44851 0.55998 0.47816 0.0
H410 H 0.53942 0.43843 0.45381 0.0
C411 C 0.42946 0.54036 0.51695 0.0
C412 C 0.45076 0.48464 0.53316 0.0
H413 H 0.43242 0.60356 0.46671 0.0
H414 H 0.39925 0.56946 0.53456 0.0
C415 C 0.48982 0.44828 0.50933 0.0
loop_
_geom_bond_atom_site_label_1
_geom_bond_atom_site_label_2
_geom_bond_distance
_geom_bond_site_symmetry_2
_ccdc_geom_bond_type
Sc0 O3 2.025 . S
Sc0 O10 2.105 . S
Sc0 O13 2.105 . S
Sc0 O16 2.105 . S
Sc0 O19 2.105 . S
Sc1 O3 2.025 . S
Sc1 O11 2.105 . S
Sc1 O15 2.105 . S
Sc1 O17 2.105 . S
Sc1 O21 2.105 1_455 S
Sc2 O3 2.025 . S
Sc2 O12 2.105 1_455 S
Sc2 O14 2.105 . S
Sc2 O18 2.105 . S
Sc2 O20 2.103 1_455 S
O3 Sc0 2.025 . S
O3 Sc1 2.025 . S
O3 Sc2 2.025 . S
C4 O10 1.268 . S
C4 O20 1.262 1_455 S
C5 O11 1.268 . S
C5 O19 1.268 . S
C6 O12 1.268 . S
C6 O21 1.268 . S
C7 O13 1.268 . S
C7 O17 1.268 . S
C8 O14 1.268 . S
C8 O16 1.268 . S
C9 O15 1.268 . S
C9 O18 1.268 . S
O10 Sc0 2.105 . S
O10 C4 1.268 . S
O11 Sc1 2.105 . S
O11 C5 1.268 . S
O12 Sc2 2.105 1_655 S
O12 C6 1.268 . S
O13 Sc0 2.105 . S
O13 C7 1.268 . S
O14 Sc2 2.105 . S
O14 C8 1.268 . S
O15 Sc1 2.105 . S
O15 C9 1.268 . S
O16 Sc0 2.105 . S
O16 C8 1.268 . S
O17 Sc1 2.105 . S
O17 C7 1.268 . S
O18 Sc2 2.105 . S
O18 C9 1.268 . S
O19 Sc0 2.105 . S
O19 C5 1.268 . S
O20 Sc2 2.103 1_655 S
O20 C4 1.262 1_655 S
O21 Sc1 2.105 1_655 S
O21 C6 1.268 . S
Sc22 O25 2.025 . S
Sc22 O32 2.105 . S
Sc22 O35 2.105 1_545 S
Sc22 O38 2.103 1_545 S
Sc22 O41 2.105 . S
Sc23 O25 2.025 . S
Sc23 O33 2.105 . S
Sc23 O37 2.105 1_455 S
Sc23 O39 2.105 1_545 S
Sc23 O43 2.105 . S
Sc24 O25 2.025 . S
Sc24 O34 2.105 . S
Sc24 O36 2.103 1_455 S
Sc24 O40 2.105 1_455 S
Sc24 O42 2.105 . S
O25 Sc22 2.025 . S
O25 Sc23 2.025 . S
O25 Sc24 2.025 . S
C26 O32 1.268 . S
C26 O42 1.268 . S
C27 O33 1.268 . S
C27 O41 1.268 . S
C28 O34 1.268 . S
C28 O43 1.268 . S
C29 O35 1.268 . S
C29 O39 1.268 . S
C30 O36 1.262 1_455 S
C30 O38 1.262 1_545 S
C31 O37 1.268 . S
C31 O40 1.268 . S
O32 Sc22 2.105 . S
O32 C26 1.268 . S
O33 Sc23 2.105 . S
O33 C27 1.268 . S
O34 Sc24 2.105 . S
O34 C28 1.268 . S
O35 Sc22 2.105 1_565 S
O35 C29 1.268 . S
O36 Sc24 2.103 1_655 S
O36 C30 1.262 1_655 S
O37 Sc23 2.105 1_655 S
O37 C31 1.268 . S
O38 Sc22 2.103 1_565 S
O38 C30 1.262 1_565 S
O39 Sc23 2.105 1_565 S
O39 C29 1.268 . S
O40 Sc24 2.105 1_655 S
O40 C31 1.268 . S
O41 Sc22 2.105 . S
O41 C27 1.268 . S
O42 Sc24 2.105 . S
O42 C26 1.268 . S
O43 Sc23 2.105 . S
O43 C28 1.268 . S
Sc44 O47 2.025 . S
Sc44 O54 2.105 . S
Sc44 O57 2.105 . S
Sc44 O60 2.105 . S
Sc44 O63 2.105 . S
Sc45 O47 2.025 . S
Sc45 O55 2.105 . S
Sc45 O59 2.105 1_545 S
Sc45 O61 2.105 . S
Sc45 O65 2.105 . S
Sc46 O47 2.025 . S
Sc46 O56 2.105 . S
Sc46 O58 2.103 1_545 S
Sc46 O62 2.105 1_545 S
Sc46 O64 2.105 . S
O47 Sc44 2.025 . S
O47 Sc45 2.025 . S
O47 Sc46 2.025 . S
C48 O54 1.268 . S
C48 O64 1.268 . S
C49 O55 1.268 . S
C49 O63 1.268 . S
C50 O56 1.268 . S
C50 O65 1.268 . S
C51 O57 1.268 . S
C51 O61 1.268 . S
C52 O58 1.262 1_545 S
C52 O60 1.268 . S
C53 O59 1.268 . S
C53 O62 1.268 . S
O54 Sc44 2.105 . S
O54 C48 1.268 . S
O55 Sc45 2.105 . S
O55 C49 1.268 . S
O56 Sc46 2.105 . S
O56 C50 1.268 . S
O57 Sc44 2.105 . S
O57 C51 1.268 . S
O58 Sc46 2.103 1_565 S
O58 C52 1.262 1_565 S
O59 Sc45 2.105 1_565 S
O59 C53 1.268 . S
O60 Sc44 2.105 . S
O60 C52 1.268 . S
O61 Sc45 2.105 . S
O61 C51 1.268 . S
O62 Sc46 2.105 1_565 S
O62 C53 1.268 . S
O63 Sc44 2.105 . S
O63 C49 1.268 . S
O64 Sc46 2.105 . S
O64 C48 1.268 . S
O65 Sc45 2.105 . S
O65 C50 1.268 . S
Sc66 O69 2.025 . S
Sc66 O76 2.105 . S
Sc66 O79 2.105 . S
Sc66 O82 2.105 . S
Sc66 O85 2.105 . S
Sc67 O69 2.025 . S
Sc67 O77 2.105 . S
Sc67 O81 2.105 . S
Sc67 O83 2.105 . S
Sc67 O87 2.105 . S
Sc68 O69 2.025 . S
Sc68 O78 2.105 . S
Sc68 O80 2.105 . S
Sc68 O84 2.105 . S
Sc68 O86 2.105 . S
O69 Sc66 2.025 . S
O69 Sc67 2.025 . S
O69 Sc68 2.025 . S
C70 O76 1.268 . S
C70 O86 1.268 . S
C71 O77 1.268 . S
C71 O85 1.268 . S
C72 O78 1.268 . S
C72 O87 1.268 . S
C73 O79 1.268 . S
C73 O83 1.268 . S
C74 O80 1.268 . S
C74 O82 1.268 . S
C75 O81 1.268 . S
C75 O84 1.268 . S
O76 Sc66 2.105 . S
O76 C70 1.268 . S
O77 Sc67 2.105 . S
O77 C71 1.268 . S
O78 Sc68 2.105 . S
O78 C72 1.268 . S
O79 Sc66 2.105 . S
O79 C73 1.268 . S
O80 Sc68 2.105 . S
O80 C74 1.268 . S
O81 Sc67 2.105 . S
O81 C75 1.268 . S
O82 Sc66 2.105 . S
O82 C74 1.268 . S
O83 Sc67 2.105 . S
O83 C73 1.268 . S
O84 Sc68 2.105 . S
O84 C75 1.268 . S
O85 Sc66 2.105 . S
O85 C71 1.268 . S
O86 Sc68 2.105 . S
O86 C70 1.268 . S
O87 Sc67 2.105 . S
O87 C72 1.268 . S
Sc88 O91 2.025 . S
Sc88 O98 2.105 . S
Sc88 O101 2.105 . S
Sc88 O104 2.105 . S
Sc88 O107 2.105 . S
Sc89 O91 2.025 . S
Sc89 O99 2.105 . S
Sc89 O103 2.105 . S
Sc89 O105 2.105 . S
Sc89 O109 2.105 . S
Sc90 O91 2.025 . S
Sc90 O100 2.105 . S
Sc90 O102 2.105 . S
Sc90 O106 2.105 . S
Sc90 O108 2.105 . S
O91 Sc88 2.025 . S
O91 Sc89 2.025 . S
O91 Sc90 2.025 . S
C92 O98 1.268 . S
C92 O108 1.268 . S
C93 O99 1.268 . S
C93 O107 1.268 . S
C94 O100 1.268 . S
C94 O109 1.268 . S
C95 O101 1.268 . S
C95 O105 1.268 . S
C96 O102 1.268 . S
C96 O104 1.268 . S
C97 O103 1.268 . S
C97 O106 1.268 . S
O98 Sc88 2.105 . S
O98 C92 1.268 . S
O99 Sc89 2.105 . S
O99 C93 1.268 . S
O100 Sc90 2.105 . S
O100 C94 1.268 . S
O101 Sc88 2.105 . S
O101 C95 1.268 . S
O102 Sc90 2.105 . S
O102 C96 1.268 . S
O103 Sc89 2.105 . S
O103 C97 1.268 . S
O104 Sc88 2.105 . S
O104 C96 1.268 . S
O105 Sc89 2.105 . S
O105 C95 1.268 . S
O106 Sc90 2.105 . S
O106 C97 1.268 . S
O107 Sc88 2.105 . S
O107 C93 1.268 . S
O108 Sc90 2.105 . S
O108 C92 1.268 . S
O109 Sc89 2.105 . S
O109 C94 1.268 . S
Sc110 O113 2.025 . S
Sc110 O120 2.105 . S
Sc110 O123 2.105 . S
Sc110 O126 2.105 . S
Sc110 O129 2.105 . S
Sc111 O113 2.025 . S
Sc111 O121 2.105 . S
Sc111 O125 2.105 1_655 S
Sc111 O127 2.105 . S
Sc111 O131 2.105 . S
Sc112 O113 2.025 . S
Sc112 O122 2.105 . S
Sc112 O124 2.103 1_655 S
Sc112 O128 2.105 1_655 S
Sc112 O130 2.105 . S
O113 Sc110 2.025 . S
O113 Sc111 2.025 . S
O113 Sc112 2.025 . S
C114 O120 1.268 . S
C114 O130 1.268 . S
C115 O121 1.268 . S
C115 O129 1.268 . S
C116 O122 1.268 . S
C116 O131 1.268 . S
C117 O123 1.268 . S
C117 O127 1.268 . S
C118 O124 1.262 1_655 S
C118 O126 1.268 . S
C119 O125 1.268 . S
C119 O128 1.268 . S
O120 Sc110 2.105 . S
O120 C114 1.268 . S
O121 Sc111 2.105 . S
O121 C115 1.268 . S
O122 Sc112 2.105 . S
O122 C116 1.268 . S
O123 Sc110 2.105 . S
O123 C117 1.268 . S
O124 Sc112 2.103 1_455 S
O124 C118 1.262 1_455 S
O125 Sc111 2.105 1_455 S
O125 C119 1.268 . S
O126 Sc110 2.105 . S
O126 C118 1.268 . S
O127 Sc111 2.105 . S
O127 C117 1.268 . S
O128 Sc112 2.105 1_455 S
O128 C119 1.268 . S
O129 Sc110 2.105 . S
O129 C115 1.268 . S
O130 Sc112 2.105 . S
O130 C114 1.268 . S
O131 Sc111 2.105 . S
O131 C116 1.268 . S
Sc132 O135 2.025 . S
Sc132 O142 2.103 1_565 S
Sc132 O145 2.105 . S
Sc132 O148 2.105 . S
Sc132 O151 2.105 1_565 S
Sc133 O135 2.025 . S
Sc133 O143 2.105 1_565 S
Sc133 O147 2.105 . S
Sc133 O149 2.105 . S
Sc133 O153 2.105 1_655 S
Sc134 O135 2.025 . S
Sc134 O144 2.105 1_655 S
Sc134 O146 2.105 . S
Sc134 O150 2.105 . S
Sc134 O152 2.103 1_655 S
O135 Sc132 2.025 . S
O135 Sc133 2.025 . S
O135 Sc134 2.025 . S
C136 O142 1.262 1_565 S
C136 O152 1.262 1_655 S
C137 O143 1.268 . S
C137 O151 1.268 . S
C138 O144 1.268 . S
C138 O153 1.268 . S
C139 O145 1.268 . S
C139 O149 1.268 . S
C140 O146 1.268 . S
C140 O148 1.268 . S
C141 O147 1.268 . S
C141 O150 1.268 . S
O142 Sc132 2.103 1_545 S
O142 C136 1.262 1_545 S
O143 Sc133 2.105 1_545 S
O143 C137 1.268 . S
O144 Sc134 2.105 1_455 S
O144 C138 1.268 . S
O145 Sc132 2.105 . S
O145 C139 1.268 . S
O146 Sc134 2.105 . S
O146 C140 1.268 . S
O147 Sc133 2.105 . S
O147 C141 1.268 . S
O148 Sc132 2.105 . S
O148 C140 1.268 . S
O149 Sc133 2.105 . S
O149 C139 1.268 . S
O150 Sc134 2.105 . S
O150 C141 1.268 . S
O151 Sc132 2.105 1_545 S
O151 C137 1.268 . S
O152 Sc134 2.103 1_455 S
O152 C136 1.262 1_455 S
O153 Sc133 2.105 1_455 S
O153 C138 1.268 . S
Sc154 O157 2.025 . S
Sc154 O164 2.105 . S
Sc154 O167 2.105 . S
Sc154 O170 2.105 . S
Sc154 O173 2.105 . S
Sc155 O157 2.025 . S
Sc155 O165 2.105 . S
Sc155 O169 2.105 . S
Sc155 O171 2.105 . S
Sc155 O175 2.105 1_565 S
Sc156 O157 2.025 . S
Sc156 O166 2.105 1_565 S
Sc156 O168 2.105 . S
Sc156 O172 2.105 . S
Sc156 O174 2.103 1_565 S
O157 Sc154 2.025 . S
O157 Sc155 2.025 . S
O157 Sc156 2.025 . S
C158 O164 1.268 . S
C158 O174 1.262 1_565 S
C159 O165 1.268 . S
C159 O173 1.268 . S
C160 O166 1.268 . S
C160 O175 1.268 . S
C161 O167 1.268 . S
C161 O171 1.268 . S
C162 O168 1.268 . S
C162 O170 1.268 . S
C163 O169 1.268 . S
C163 O172 1.268 . S
O164 Sc154 2.105 . S
O164 C158 1.268 . S
O165 Sc155 2.105 . S
O165 C159 1.268 . S
O166 Sc156 2.105 1_545 S
O166 C160 1.268 . S
O167 Sc154 2.105 . S
O167 C161 1.268 . S
O168 Sc156 2.105 . S
O168 C162 1.268 . S
O169 Sc155 2.105 . S
O169 C163 1.268 . S
O170 Sc154 2.105 . S
O170 C162 1.268 . S
O171 Sc155 2.105 . S
O171 C161 1.268 . S
O172 Sc156 2.105 . S
O172 C163 1.268 . S
O173 Sc154 2.105 . S
O173 C159 1.268 . S
O174 Sc156 2.103 1_545 S
O174 C158 1.262 1_545 S
O175 Sc155 2.105 1_545 S
O175 C160 1.268 . S
C176 C177 1.387 . S
C176 H180 0.950 . S
C176 C185 1.390 . S
C177 C176 1.387 . S
C177 C179 1.387 . S
H178 C185 0.950 . S
C179 C177 1.387 . S
C179 C181 1.390 . S
C179 H183 0.950 . S
H180 C176 0.950 . S
C181 C179 1.390 . S
C181 C182 1.387 . S
C181 H184 0.950 . S
C182 C181 1.387 . S
C182 C185 1.387 . S
H183 C179 0.950 . S
H184 C181 0.950 . S
C185 C176 1.390 . S
C185 H178 0.950 . S
C185 C182 1.387 . S
C186 C187 1.387 . S
C186 H190 0.950 . S
C186 C195 1.390 . S
C187 C186 1.387 . S
C187 C189 1.387 1_655 S
H188 C195 0.950 . S
C189 C187 1.387 1_455 S
C189 C191 1.390 . S
C189 H193 0.950 . S
H190 C186 0.950 . S
C191 C189 1.390 . S
C191 C192 1.387 . S
C191 H194 0.950 . S
C192 C191 1.387 . S
C192 C195 1.387 1_455 S
H193 C189 0.950 . S
H194 C191 0.950 . S
C195 C186 1.390 . S
C195 H188 0.950 . S
C195 C192 1.387 1_655 S
C196 C197 1.387 1_565 S
C196 H200 0.950 . S
C196 C205 1.390 . S
C197 C196 1.387 1_545 S
C197 C199 1.387 . S
H198 C205 0.950 . S
C199 C197 1.387 . S
C199 C201 1.390 . S
C199 H203 0.950 . S
H200 C196 0.950 . S
C201 C199 1.390 . S
C201 C202 1.387 1_545 S
C201 H204 0.950 . S
C202 C201 1.387 1_565 S
C202 C205 1.387 . S
H203 C199 0.950 . S
H204 C201 0.950 . S
C205 C196 1.390 . S
C205 H198 0.950 . S
C205 C202 1.387 . S
C206 C207 1.387 . S
C206 H210 0.950 . S
C206 C215 1.390 . S
C207 C206 1.387 . S
C207 C209 1.387 . S
H208 C215 0.950 . S
C209 C207 1.387 . S
C209 C211 1.390 . S
C209 H213 0.950 . S
H210 C206 0.950 . S
C211 C209 1.390 . S
C211 C212 1.387 . S
C211 H214 0.950 . S
C212 C211 1.387 . S
C212 C215 1.387 . S
H213 C209 0.950 . S
H214 C211 0.950 . S
C215 C206 1.390 . S
C215 H208 0.950 . S
C215 C212 1.387 . S
C216 C217 1.387 . S
C216 H220 0.950 . S
C216 C225 1.390 . S
C217 C216 1.387 . S
C217 C219 1.387 . S
H218 C225 0.950 . S
C219 C217 1.387 . S
C219 C221 1.390 . S
C219 H223 0.950 . S
H220 C216 0.950 . S
C221 C219 1.390 . S
C221 C222 1.387 . S
C221 H224 0.950 . S
C222 C221 1.387 . S
C222 C225 1.387 . S
H223 C219 0.950 . S
H224 C221 0.950 . S
C225 C216 1.390 . S
C225 H218 0.950 . S
C225 C222 1.387 . S
C226 C227 1.387 1_655 S
C226 H230 0.950 . S
C226 C235 1.390 . S
C227 C226 1.387 1_455 S
C227 C229 1.387 . S
H228 C235 0.950 . S
C229 C227 1.387 . S
C229 C231 1.390 . S
C229 H233 0.950 . S
H230 C226 0.950 . S
C231 C229 1.390 . S
C231 C232 1.387 1_455 S
C231 H234 0.950 . S
C232 C231 1.387 1_655 S
C232 C235 1.387 . S
H233 C229 0.950 . S
H234 C231 0.950 . S
C235 C226 1.390 . S
C235 H228 0.950 . S
C235 C232 1.387 . S
C236 C237 1.387 . S
C236 H240 0.950 . S
C236 C245 1.390 . S
C237 C236 1.387 . S
C237 C239 1.387 1_545 S
H238 C245 0.950 . S
C239 C237 1.387 1_565 S
C239 C241 1.390 . S
C239 H243 0.950 . S
H240 C236 0.950 . S
C241 C239 1.390 . S
C241 C242 1.387 . S
C241 H244 0.950 . S
C242 C241 1.387 . S
C242 C245 1.387 1_565 S
H243 C239 0.950 . S
H244 C241 0.950 . S
C245 C236 1.390 . S
C245 H238 0.950 . S
C245 C242 1.387 1_545 S
C246 C247 1.387 . S
C246 H250 0.950 . S
C246 C255 1.390 . S
C247 C246 1.387 . S
C247 C249 1.387 . S
H248 C255 0.950 . S
C249 C247 1.387 . S
C249 C251 1.390 . S
C249 H253 0.950 . S
H250 C246 0.950 . S
C251 C249 1.390 . S
C251 C252 1.387 . S
C251 H254 0.950 . S
C252 C251 1.387 . S
C252 C255 1.387 . S
H253 C249 0.950 . S
H254 C251 0.950 . S
C255 C246 1.390 . S
C255 H248 0.950 . S
C255 C252 1.387 . S
C256 C257 1.387 . S
C256 H260 0.950 . S
C256 C265 1.390 . S
C257 C256 1.387 . S
C257 C259 1.387 . S
H258 C265 0.950 . S
C259 C257 1.387 . S
C259 C261 1.390 . S
C259 H263 0.950 . S
H260 C256 0.950 . S
C261 C259 1.390 . S
C261 C262 1.387 . S
C261 H264 0.950 . S
C262 C261 1.387 . S
C262 C265 1.387 . S
H263 C259 0.950 . S
H264 C261 0.950 . S
C265 C256 1.390 . S
C265 H258 0.950 . S
C265 C262 1.387 . S
C266 C267 1.387 1_655 S
C266 H270 0.950 . S
C266 C275 1.390 . S
C267 C266 1.387 1_455 S
C267 C269 1.387 . S
H268 C275 0.950 . S
C269 C267 1.387 . S
C269 C271 1.390 . S
C269 H273 0.950 . S
H270 C266 0.950 . S
C271 C269 1.390 . S
C271 C272 1.387 1_455 S
C271 H274 0.950 . S
C272 C271 1.387 1_655 S
C272 C275 1.387 . S
H273 C269 0.950 . S
H274 C271 0.950 . S
C275 C266 1.390 . S
C275 H268 0.950 . S
C275 C272 1.387 . S
C276 C277 1.387 . S
C276 H280 0.950 . S
C276 C285 1.390 . S
C277 C276 1.387 . S
C277 C279 1.387 1_545 S
H278 C285 0.950 . S
C279 C277 1.387 1_565 S
C279 C281 1.390 . S
C279 H283 0.950 . S
H280 C276 0.950 . S
C281 C279 1.390 . S
C281 C282 1.387 . S
C281 H284 0.950 . S
C282 C281 1.387 . S
C282 C285 1.387 1_565 S
H283 C279 0.950 . S
H284 C281 0.950 . S
C285 C276 1.390 . S
C285 H278 0.950 . S
C285 C282 1.387 1_545 S
C286 C287 1.387 . S
C286 H290 0.950 . S
C286 C295 1.390 . S
C287 C286 1.387 . S
C287 C289 1.387 . S
H288 C295 0.950 . S
C289 C287 1.387 . S
C289 C291 1.390 . S
C289 H293 0.950 . S
H290 C286 0.950 . S
C291 C289 1.390 . S
C291 C292 1.387 . S
C291 H294 0.950 . S
C292 C291 1.387 . S
C292 C295 1.387 . S
H293 C289 0.950 . S
H294 C291 0.950 . S
C295 C286 1.390 . S
C295 H288 0.950 . S
C295 C292 1.387 . S
C296 C297 1.387 . S
C296 H300 0.950 . S
C296 C305 1.390 . S
C297 C296 1.387 . S
C297 C299 1.387 . S
H298 C305 0.950 . S
C299 C297 1.387 . S
C299 C301 1.390 . S
C299 H303 0.950 . S
H300 C296 0.950 . S
C301 C299 1.390 . S
C301 C302 1.387 . S
C301 H304 0.950 . S
C302 C301 1.387 . S
C302 C305 1.387 . S
H303 C299 0.950 . S
H304 C301 0.950 . S
C305 C296 1.390 . S
C305 H298 0.950 . S
C305 C302 1.387 . S
C306 C307 1.387 . S
C306 H310 0.950 . S
C306 C315 1.390 1_455 S
C307 C306 1.387 . S
C307 C309 1.387 . S
H308 C315 0.950 . S
C309 C307 1.387 . S
C309 C311 1.390 1_455 S
C309 H313 0.950 . S
H310 C306 0.950 . S
C311 C309 1.390 1_655 S
C311 C312 1.387 . S
C311 H314 0.950 . S
C312 C311 1.387 . S
C312 C315 1.387 . S
H313 C309 0.950 . S
H314 C311 0.950 . S
C315 C306 1.390 1_655 S
C315 H308 0.950 . S
C315 C312 1.387 . S
C316 C317 1.387 . S
C316 H320 0.950 . S
C316 C325 1.390 . S
C317 C316 1.387 . S
C317 C319 1.387 1_565 S
H318 C325 0.950 . S
C319 C317 1.387 1_545 S
C319 C321 1.390 . S
C319 H323 0.950 . S
H320 C316 0.950 . S
C321 C319 1.390 . S
C321 C322 1.387 . S
C321 H324 0.950 . S
C322 C321 1.387 . S
C322 C325 1.387 1_545 S
H323 C319 0.950 . S
H324 C321 0.950 . S
C325 C316 1.390 . S
C325 H318 0.950 . S
C325 C322 1.387 1_565 S
C326 C327 1.387 . S
C326 H330 0.950 . S
C326 C335 1.390 . S
C327 C326 1.387 . S
C327 C329 1.387 . S
H328 C335 0.950 . S
C329 C327 1.387 . S
C329 C331 1.390 . S
C329 H333 0.950 . S
H330 C326 0.950 . S
C331 C329 1.390 . S
C331 C332 1.387 . S
C331 H334 0.950 . S
C332 C331 1.387 . S
C332 C335 1.387 . S
H333 C329 0.950 . S
H334 C331 0.950 . S
C335 C326 1.390 . S
C335 H328 0.950 . S
C335 C332 1.387 . S
C336 C337 1.387 . S
C336 H340 0.950 . S
C336 C345 1.390 . S
C337 C336 1.387 . S
C337 C339 1.387 . S
H338 C345 0.950 . S
C339 C337 1.387 . S
C339 C341 1.390 . S
C339 H343 0.950 . S
H340 C336 0.950 . S
C341 C339 1.390 . S
C341 C342 1.387 . S
C341 H344 0.950 . S
C342 C341 1.387 . S
C342 C345 1.387 . S
H343 C339 0.950 . S
H344 C341 0.950 . S
C345 C336 1.390 . S
C345 H338 0.950 . S
C345 C342 1.387 . S
C346 C347 1.387 . S
C346 H350 0.950 . S
C346 C355 1.390 . S
C347 C346 1.387 . S
C347 C349 1.387 . S
H348 C355 0.950 . S
C349 C347 1.387 . S
C349 C351 1.390 . S
C349 H353 0.950 . S
H350 C346 0.950 . S
C351 C349 1.390 . S
C351 C352 1.387 . S
C351 H354 0.950 . S
C352 C351 1.387 . S
C352 C355 1.387 . S
H353 C349 0.950 . S
H354 C351 0.950 . S
C355 C346 1.390 . S
C355 H348 0.950 . S
C355 C352 1.387 . S
C356 C357 1.387 . S
C356 H360 0.950 . S
C356 C365 1.390 . S
C357 C356 1.387 . S
C357 C359 1.387 . S
H358 C365 0.950 . S
C359 C357 1.387 . S
C359 C361 1.390 . S
C359 H363 0.950 . S
H360 C356 0.950 . S
C361 C359 1.390 . S
C361 C362 1.387 . S
C361 H364 0.950 . S
C362 C361 1.387 . S
C362 C365 1.387 . S
H363 C359 0.950 . S
H364 C361 0.950 . S
C365 C356 1.390 . S
C365 H358 0.950 . S
C365 C362 1.387 . S
C366 C367 1.387 . S
C366 H370 0.950 . S
C366 C375 1.390 . S
C367 C366 1.387 . S
C367 C369 1.387 . S
H368 C375 0.950 . S
C369 C367 1.387 . S
C369 C371 1.390 . S
C369 H373 0.950 . S
H370 C366 0.950 . S
C371 C369 1.390 . S
C371 C372 1.387 . S
C371 H374 0.950 . S
C372 C371 1.387 . S
C372 C375 1.387 . S
H373 C369 0.950 . S
H374 C371 0.950 . S
C375 C366 1.390 . S
C375 H368 0.950 . S
C375 C372 1.387 . S
C376 C377 1.387 1_455 S
C376 H380 0.950 . S
C376 C385 1.390 1_556 S
C377 C376 1.387 1_655 S
C377 C379 1.387 . S
H378 C385 0.950 . S
C379 C377 1.387 . S
C379 C381 1.390 1_556 S
C379 H383 0.950 . S
H380 C376 0.950 . S
C381 C379 1.390 1_554 S
C381 C382 1.387 1_655 S
C381 H384 0.950 . S
C382 C381 1.387 1_455 S
C382 C385 1.387 . S
H383 C379 0.950 . S
H384 C381 0.950 . S
C385 C376 1.390 1_554 S
C385 H378 0.950 . S
C385 C382 1.387 . S
C386 C387 1.387 1_665 S
C386 H390 0.950 . S
C386 C395 1.390 . S
C387 C386 1.387 1_445 S
C387 C389 1.387 . S
H388 C395 0.950 . S
C389 C387 1.387 . S
C389 C391 1.390 . S
C389 H393 0.950 . S
H390 C386 0.950 . S
C391 C389 1.390 . S
C391 C392 1.387 1_445 S
C391 H394 0.950 . S
C392 C391 1.387 1_665 S
C392 C395 1.387 . S
H393 C389 0.950 . S
H394 C391 0.950 . S
C395 C386 1.390 . S
C395 H388 0.950 . S
C395 C392 1.387 . S
C396 C397 1.387 . S
C396 H400 0.950 . S
C396 C405 1.390 1_556 S
C397 C396 1.387 . S
C397 C399 1.387 1_565 S
H398 C405 0.950 . S
C399 C397 1.387 1_545 S
C399 C401 1.390 1_556 S
C399 H403 0.950 . S
H400 C396 0.950 . S
C401 C399 1.390 1_554 S
C401 C402 1.387 . S
C401 H404 0.950 . S
C402 C401 1.387 . S
C402 C405 1.387 1_545 S
H403 C399 0.950 . S
H404 C401 0.950 . S
C405 C396 1.390 1_554 S
C405 H398 0.950 . S
C405 C402 1.387 1_565 S
C406 C407 1.387 . S
C406 H410 0.950 . S
C406 C415 1.390 . S
C407 C406 1.387 . S
C407 C409 1.387 . S
H408 C415 0.950 . S
C409 C407 1.387 . S
C409 C411 1.390 . S
C409 H413 0.950 . S
H410 C406 0.950 . S
C411 C409 1.390 . S
C411 C412 1.387 . S
C411 H414 0.950 . S
C412 C411 1.387 . S
C412 C415 1.387 . S
H413 C409 0.950 . S
H414 C411 0.950 . S
C415 C406 1.390 . S
C415 H408 0.950 . S
C415 C412 1.387 . S
C177 C95 1.449 . S
C182 C7 1.406 . S
C187 C117 1.451 . S
C192 C28 1.408 . S
C197 C50 1.409 . S
C202 C138 1.450 . S
C207 C73 1.409 . S
C212 C160 1.450 . S
C217 C94 1.406 . S
C222 C6 1.449 . S
C227 C29 1.449 . S
C232 C116 1.409 . S
C237 C51 1.451 . S
C242 C139 1.408 . S
C247 C72 1.449 . S
C252 C161 1.409 . S
C257 C115 1.408 . S
C262 C71 1.451 . S
C267 C5 1.450 . S
C272 C141 1.409 . S
C277 C31 1.449 . S
C282 C163 1.406 . S
C287 C53 1.451 . S
C292 C93 1.406 . S
C297 C75 1.407 . S
C302 C119 1.449 . S
C307 C9 1.405 . S
C312 C137 1.450 . S
C317 C159 1.449 . S
C322 C27 1.407 . S
C327 C97 1.450 . S
C332 C49 1.409 . S
C337 C8 1.740 . S
C342 C48 1.740 . S
C347 C26 1.740 . S
C352 C74 1.740 . S
C357 C140 1.740 . S
C362 C92 1.740 . S
C367 C162 1.740 . S
C372 C114 1.740 . S
C377 C118 1.444 . S
C382 C4 1.444 . S
C387 C30 1.443 . S
C392 C136 1.443 . S
C397 C158 1.444 . S
C402 C52 1.444 . S
C407 C96 1.445 . S
C412 C70 1.445 . S
