# Generated by pormake.
# Topology unl, (4)-cn, num edge types: 1
# Building blocks:
#     Node 0, Type 0, BuildingBlock: CEKHIL_clean_sbu_0, # of connection points: 4
#     Node 1, Type 0, BuildingBlock: CEKHIL_clean_sbu_0, # of connection points: 4
#     Node 2, Type 0, BuildingBlock: CEKHIL_clean_sbu_0, # of connection points: 4
#     Node 3, Type 0, BuildingBlock: CEKHIL_clean_sbu_0, # of connection points: 4
#     Node 4, Type 0, BuildingBlock: CEKHIL_clean_sbu_0, # of connection points: 4
#     Node 5, Type 0, BuildingBlock: CEKHIL_clean_sbu_0, # of connection points: 4
#     Node 6, Type 0, BuildingBlock: CEKHIL_clean_sbu_0, # of connection points: 4
#     Node 7, Type 0, BuildingBlock: CEKHIL_clean_sbu_0, # of connection points: 4
#     Node 8, Type 0, BuildingBlock: CEKHIL_clean_sbu_0, # of connection points: 4
#     Node 9, Type 0, BuildingBlock: CEKHIL_clean_sbu_0, # of connection points: 4
#     Node 10, Type 0, BuildingBlock: CEKHIL_clean_sbu_0, # of connection points: 4
#     Node 11, Type 0, BuildingBlock: CEKHIL_clean_sbu_0, # of connection points: 4
#     Node 12, Type 0, BuildingBlock: CEKHIL_clean_sbu_0, # of connection points: 4
#     Node 13, Type 0, BuildingBlock: CEKHIL_clean_sbu_0, # of connection points: 4
#     Node 14, Type 0, BuildingBlock: CEKHIL_clean_sbu_0, # of connection points: 4
#     Node 15, Type 0, BuildingBlock: CEKHIL_clean_sbu_0, # of connection points: 4
#     Node 16, Type 0, BuildingBlock: CEKHIL_clean_sbu_0, # of connection points: 4
#     Node 17, Type 0, BuildingBlock: CEKHIL_clean_sbu_0, # of connection points: 4
#     Node 18, Type 0, BuildingBlock: CEKHIL_clean_sbu_0, # of connection points: 4
#     Node 19, Type 0, BuildingBlock: CEKHIL_clean_sbu_0, # of connection points: 4
#     Node 20, Type 0, BuildingBlock: CEKHIL_clean_sbu_0, # of connection points: 4
#     Node 21, Type 0, BuildingBlock: CEKHIL_clean_sbu_0, # of connection points: 4
#     Node 22, Type 0, BuildingBlock: CEKHIL_clean_sbu_0, # of connection points: 4
#     Node 23, Type 0, BuildingBlock: CEKHIL_clean_sbu_0, # of connection points: 4
#     Node 24, Type 0, BuildingBlock: CEKHIL_clean_sbu_0, # of connection points: 4
#     Node 25, Type 0, BuildingBlock: CEKHIL_clean_sbu_0, # of connection points: 4
#     Node 26, Type 0, BuildingBlock: CEKHIL_clean_sbu_0, # of connection points: 4
#     Node 27, Type 0, BuildingBlock: CEKHIL_clean_sbu_0, # of connection points: 4
#     Node 28, Type 0, BuildingBlock: CEKHIL_clean_sbu_0, # of connection points: 4
#     Node 29, Type 0, BuildingBlock: CEKHIL_clean_sbu_0, # of connection points: 4
#     Node 30, Type 0, BuildingBlock: CEKHIL_clean_sbu_0, # of connection points: 4
#     Node 31, Type 0, BuildingBlock: CEKHIL_clean_sbu_0, # of connection points: 4
#     Node 32, Type 0, BuildingBlock: CEKHIL_clean_sbu_0, # of connection points: 4
#     Node 33, Type 0, BuildingBlock: CEKHIL_clean_sbu_0, # of connection points: 4
#     Node 34, Type 0, BuildingBlock: CEKHIL_clean_sbu_0, # of connection points: 4
#     Node 35, Type 0, BuildingBlock: CEKHIL_clean_sbu_0, # of connection points: 4
#     Edge 36, Type (0, 0), BuildingBlock: KIFKEQ_clean_linker_1, # of connection points: 2
#     Edge 37, Type (0, 0), BuildingBlock: KIFKEQ_clean_linker_1, # of connection points: 2
#     Edge 38, Type (0, 0), BuildingBlock: KIFKEQ_clean_linker_1, # of connection points: 2
#     Edge 39, Type (0, 0), BuildingBlock: KIFKEQ_clean_linker_1, # of connection points: 2
#     Edge 40, Type (0, 0), BuildingBlock: KIFKEQ_clean_linker_1, # of connection points: 2
#     Edge 41, Type (0, 0), BuildingBlock: KIFKEQ_clean_linker_1, # of connection points: 2
#     Edge 42, Type (0, 0), BuildingBlock: KIFKEQ_clean_linker_1, # of connection points: 2
#     Edge 43, Type (0, 0), BuildingBlock: KIFKEQ_clean_linker_1, # of connection points: 2
#     Edge 44, Type (0, 0), BuildingBlock: KIFKEQ_clean_linker_1, # of connection points: 2
#     Edge 45, Type (0, 0), BuildingBlock: KIFKEQ_clean_linker_1, # of connection points: 2
#     Edge 46, Type (0, 0), BuildingBlock: KIFKEQ_clean_linker_1, # of connection points: 2
#     Edge 47, Type (0, 0), BuildingBlock: KIFKEQ_clean_linker_1, # of connection points: 2
#     Edge 48, Type (0, 0), BuildingBlock: KIFKEQ_clean_linker_1, # of connection points: 2
#     Edge 49, Type (0, 0), BuildingBlock: KIFKEQ_clean_linker_1, # of connection points: 2
#     Edge 50, Type (0, 0), BuildingBlock: KIFKEQ_clean_linker_1, # of connection points: 2
#     Edge 51, Type (0, 0), BuildingBlock: KIFKEQ_clean_linker_1, # of connection points: 2
#     Edge 52, Type (0, 0), BuildingBlock: KIFKEQ_clean_linker_1, # of connection points: 2
#     Edge 53, Type (0, 0), BuildingBlock: KIFKEQ_clean_linker_1, # of connection points: 2
#     Edge 54, Type (0, 0), BuildingBlock: KIFKEQ_clean_linker_1, # of connection points: 2
#     Edge 55, Type (0, 0), BuildingBlock: KIFKEQ_clean_linker_1, # of connection points: 2
#     Edge 56, Type (0, 0), BuildingBlock: KIFKEQ_clean_linker_1, # of connection points: 2
#     Edge 57, Type (0, 0), BuildingBlock: KIFKEQ_clean_linker_1, # of connection points: 2
#     Edge 58, Type (0, 0), BuildingBlock: KIFKEQ_clean_linker_1, # of connection points: 2
#     Edge 59, Type (0, 0), BuildingBlock: KIFKEQ_clean_linker_1, # of connection points: 2
#     Edge 60, Type (0, 0), BuildingBlock: KIFKEQ_clean_linker_1, # of connection points: 2
#     Edge 61, Type (0, 0), BuildingBlock: KIFKEQ_clean_linker_1, # of connection points: 2
#     Edge 62, Type (0, 0), BuildingBlock: KIFKEQ_clean_linker_1, # of connection points: 2
#     Edge 63, Type (0, 0), BuildingBlock: KIFKEQ_clean_linker_1, # of connection points: 2
#     Edge 64, Type (0, 0), BuildingBlock: KIFKEQ_clean_linker_1, # of connection points: 2
#     Edge 65, Type (0, 0), BuildingBlock: KIFKEQ_clean_linker_1, # of connection points: 2
#     Edge 66, Type (0, 0), BuildingBlock: KIFKEQ_clean_linker_1, # of connection points: 2
#     Edge 67, Type (0, 0), BuildingBlock: KIFKEQ_clean_linker_1, # of connection points: 2
#     Edge 68, Type (0, 0), BuildingBlock: KIFKEQ_clean_linker_1, # of connection points: 2
#     Edge 69, Type (0, 0), BuildingBlock: KIFKEQ_clean_linker_1, # of connection points: 2
#     Edge 70, Type (0, 0), BuildingBlock: KIFKEQ_clean_linker_1, # of connection points: 2
#     Edge 71, Type (0, 0), BuildingBlock: KIFKEQ_clean_linker_1, # of connection points: 2
#     Edge 72, Type (0, 0), BuildingBlock: KIFKEQ_clean_linker_1, # of connection points: 2
#     Edge 73, Type (0, 0), BuildingBlock: KIFKEQ_clean_linker_1, # of connection points: 2
#     Edge 74, Type (0, 0), BuildingBlock: KIFKEQ_clean_linker_1, # of connection points: 2
#     Edge 75, Type (0, 0), BuildingBlock: KIFKEQ_clean_linker_1, # of connection points: 2
#     Edge 76, Type (0, 0), BuildingBlock: KIFKEQ_clean_linker_1, # of connection points: 2
#     Edge 77, Type (0, 0), BuildingBlock: KIFKEQ_clean_linker_1, # of connection points: 2
#     Edge 78, Type (0, 0), BuildingBlock: KIFKEQ_clean_linker_1, # of connection points: 2
#     Edge 79, Type (0, 0), BuildingBlock: KIFKEQ_clean_linker_1, # of connection points: 2
#     Edge 80, Type (0, 0), BuildingBlock: KIFKEQ_clean_linker_1, # of connection points: 2
#     Edge 81, Type (0, 0), BuildingBlock: KIFKEQ_clean_linker_1, # of connection points: 2
#     Edge 82, Type (0, 0), BuildingBlock: KIFKEQ_clean_linker_1, # of connection points: 2
#     Edge 83, Type (0, 0), BuildingBlock: KIFKEQ_clean_linker_1, # of connection points: 2
#     Edge 84, Type (0, 0), BuildingBlock: KIFKEQ_clean_linker_1, # of connection points: 2
#     Edge 85, Type (0, 0), BuildingBlock: KIFKEQ_clean_linker_1, # of connection points: 2
#     Edge 86, Type (0, 0), BuildingBlock: KIFKEQ_clean_linker_1, # of connection points: 2
#     Edge 87, Type (0, 0), BuildingBlock: KIFKEQ_clean_linker_1, # of connection points: 2
#     Edge 88, Type (0, 0), BuildingBlock: KIFKEQ_clean_linker_1, # of connection points: 2
#     Edge 89, Type (0, 0), BuildingBlock: KIFKEQ_clean_linker_1, # of connection points: 2
#     Edge 90, Type (0, 0), BuildingBlock: KIFKEQ_clean_linker_1, # of connection points: 2
#     Edge 91, Type (0, 0), BuildingBlock: KIFKEQ_clean_linker_1, # of connection points: 2
#     Edge 92, Type (0, 0), BuildingBlock: KIFKEQ_clean_linker_1, # of connection points: 2
#     Edge 93, Type (0, 0), BuildingBlock: KIFKEQ_clean_linker_1, # of connection points: 2
#     Edge 94, Type (0, 0), BuildingBlock: KIFKEQ_clean_linker_1, # of connection points: 2
#     Edge 95, Type (0, 0), BuildingBlock: KIFKEQ_clean_linker_1, # of connection points: 2
#     Edge 96, Type (0, 0), BuildingBlock: KIFKEQ_clean_linker_1, # of connection points: 2
#     Edge 97, Type (0, 0), BuildingBlock: KIFKEQ_clean_linker_1, # of connection points: 2
#     Edge 98, Type (0, 0), BuildingBlock: KIFKEQ_clean_linker_1, # of connection points: 2
#     Edge 99, Type (0, 0), BuildingBlock: KIFKEQ_clean_linker_1, # of connection points: 2
#     Edge 100, Type (0, 0), BuildingBlock: KIFKEQ_clean_linker_1, # of connection points: 2
#     Edge 101, Type (0, 0), BuildingBlock: KIFKEQ_clean_linker_1, # of connection points: 2
#     Edge 102, Type (0, 0), BuildingBlock: KIFKEQ_clean_linker_1, # of connection points: 2
#     Edge 103, Type (0, 0), BuildingBlock: KIFKEQ_clean_linker_1, # of connection points: 2
#     Edge 104, Type (0, 0), BuildingBlock: KIFKEQ_clean_linker_1, # of connection points: 2
#     Edge 105, Type (0, 0), BuildingBlock: KIFKEQ_clean_linker_1, # of connection points: 2
#     Edge 106, Type (0, 0), BuildingBlock: KIFKEQ_clean_linker_1, # of connection points: 2
#     Edge 107, Type (0, 0), BuildingBlock: KIFKEQ_clean_linker_1, # of connection points: 2
# Relax obj value: 0.039
# Max RMSD: 0.122
# Mean RMSD: 0.122
data_MOF--net-unl--node1-CEKHIL_clean_sbu_0--edge1-KIFKEQ_clean_linker_1
_symmetry_space_group_name_H-M    P1
_symmetry_Int_Tables_number       1
_symmetry_cell_setting            triclinic
loop_
_symmetry_equiv_pos_as_xyz
'x, y, z'
_cell_length_a     65.36116
_cell_length_b     65.374752
_cell_length_c     41.630951
_cell_angle_alpha  89.977164
_cell_angle_beta   90.012641
_cell_angle_gamma 120.03336
loop_
_atom_site_label
_atom_site_type_symbol
_atom_site_fract_x
_atom_site_fract_y
_atom_site_fract_z
_atom_type_partial_charge
Co0 Co 0.21919 0.12266 0.11044 0.0
O1 O 0.24007 0.11858 0.13917 0.0
O2 O 0.24949 0.15151 0.11278 0.0
C3 C 0.20672 0.08838 0.08328 0.0
O4 O 0.20294 0.13346 0.07809 0.0
Co5 Co 0.16502 0.08717 0.10914 0.0
O6 O 0.16618 0.10345 0.06836 0.0
C7 C 0.18595 0.12232 0.16177 0.0
C8 C 0.25598 0.14009 0.13198 0.0
C9 C 0.18341 0.12399 0.06219 0.0
O10 O 0.20614 0.13291 0.14739 0.0
O11 O 0.16839 0.10294 0.15172 0.0
O12 O 0.2267 0.10698 0.07599 0.0
O13 O 0.19604 0.09056 0.10795 0.0
Co14 Co 0.88574 0.09621 0.10886 0.0
O15 O 0.88767 0.11919 0.13961 0.0
O16 O 0.85641 0.09683 0.10953 0.0
C17 C 0.92115 0.12021 0.08531 0.0
O18 O 0.87738 0.07124 0.07379 0.0
Co19 Co 0.92244 0.07906 0.10829 0.0
O20 O 0.90812 0.06537 0.0662 0.0
C21 C 0.88233 0.05804 0.1544 0.0
C22 C 0.86651 0.11367 0.13064 0.0
C23 C 0.8878 0.06193 0.0583 0.0
O24 O 0.87388 0.07069 0.14318 0.0
O25 O 0.90177 0.05983 0.14475 0.0
O26 O 0.9026 0.1214 0.07726 0.0
O27 O 0.91822 0.10618 0.10891 0.0
Co28 Co 0.90916 0.79336 0.11185 0.0
O29 O 0.88325 0.77168 0.13853 0.0
O30 O 0.90805 0.76309 0.11419 0.0
C31 C 0.88799 0.80597 0.08323 0.0
O32 O 0.93726 0.811 0.08131 0.0
Co33 Co 0.92626 0.84715 0.11453 0.0
O34 O 0.94441 0.84827 0.07577 0.0
C35 C 0.94052 0.82543 0.16579 0.0
C36 C 0.88933 0.75607 0.13203 0.0
C37 C 0.94818 0.83158 0.06795 0.0
O38 O 0.9312 0.80569 0.15033 0.0
O39 O 0.93851 0.84309 0.1568 0.0
O40 O 0.88741 0.78643 0.07565 0.0
O41 O 0.89945 0.81591 0.10919 0.0
Co42 Co 0.1244 0.21586 0.38761 0.0
O43 O 0.12026 0.23654 0.35857 0.0
O44 O 0.15328 0.24609 0.38486 0.0
C45 C 0.09029 0.20375 0.41496 0.0
O46 O 0.13516 0.19977 0.42027 0.0
Co47 Co 0.08879 0.16177 0.3895 0.0
O48 O 0.10487 0.16327 0.4306 0.0
C49 C 0.12409 0.18218 0.33694 0.0
C50 C 0.14179 0.25247 0.3656 0.0
C51 C 0.12548 0.18042 0.4366 0.0
O52 O 0.13454 0.20252 0.35092 0.0
O53 O 0.10475 0.16466 0.3472 0.0
O54 O 0.10896 0.22375 0.4219 0.0
O55 O 0.09228 0.19283 0.39041 0.0
Co56 Co 0.79173 0.90837 0.38715 0.0
O57 O 0.77095 0.88336 0.35828 0.0
O58 O 0.76155 0.90706 0.38414 0.0
C59 C 0.80389 0.88654 0.41498 0.0
O60 O 0.8077 0.9354 0.41959 0.0
Co61 Co 0.84585 0.92707 0.39004 0.0
O62 O 0.84392 0.94134 0.4311 0.0
C63 C 0.82585 0.9422 0.33705 0.0
C64 C 0.75508 0.8891 0.36507 0.0
C65 C 0.8268 0.94494 0.43646 0.0
O66 O 0.80518 0.93168 0.35016 0.0
O67 O 0.84341 0.94082 0.34816 0.0
O68 O 0.78385 0.88517 0.42174 0.0
O69 O 0.81483 0.89939 0.39038 0.0
Co70 Co 0.09806 0.88475 0.38823 0.0
O71 O 0.12356 0.88904 0.36062 0.0
O72 O 0.0993 0.85566 0.38543 0.0
C73 C 0.11964 0.91858 0.41649 0.0
O74 O 0.07048 0.87432 0.41977 0.0
Co75 Co 0.08083 0.92146 0.38665 0.0
O76 O 0.06356 0.90456 0.42597 0.0
C77 C 0.06637 0.88576 0.33507 0.0
C78 C 0.11778 0.86743 0.3672 0.0
C79 C 0.0599 0.88412 0.43372 0.0
O80 O 0.07538 0.87498 0.35041 0.0
O81 O 0.06875 0.90555 0.34416 0.0
O82 O 0.12059 0.89975 0.42365 0.0
O83 O 0.10762 0.91694 0.39108 0.0
Co84 Co 0.79299 0.88662 0.88583 0.0
O85 O 0.77097 0.88935 0.85786 0.0
O86 O 0.76293 0.85721 0.88527 0.0
C87 C 0.80517 0.92131 0.91183 0.0
O88 O 0.81097 0.87763 0.91792 0.0
Co89 Co 0.84666 0.92374 0.8827 0.0
O90 O 0.84808 0.90818 0.92287 0.0
C91 C 0.82505 0.88672 0.83264 0.0
C92 C 0.75561 0.86789 0.86598 0.0
C93 C 0.83149 0.88787 0.93148 0.0
O94 O 0.80551 0.87601 0.84856 0.0
O95 O 0.84241 0.90684 0.84089 0.0
O96 O 0.78583 0.90244 0.9204 0.0
O97 O 0.81522 0.91905 0.88649 0.0
Co98 Co 0.12204 0.90868 0.89119 0.0
O99 O 0.11678 0.88384 0.86153 0.0
O100 O 0.15042 0.90644 0.88692 0.0
C101 C 0.08788 0.88679 0.91882 0.0
O102 O 0.13395 0.93527 0.92445 0.0
Co103 Co 0.0876 0.92835 0.89703 0.0
O104 O 0.10394 0.94092 0.93858 0.0
C105 C 0.12466 0.94658 0.84603 0.0
C106 C 0.13821 0.88871 0.86773 0.0
C107 C 0.12477 0.94447 0.9427 0.0
O108 O 0.13251 0.93292 0.85525 0.0
O109 O 0.10668 0.94637 0.85869 0.0
O110 O 0.10641 0.88509 0.92527 0.0
O111 O 0.09009 0.90026 0.89486 0.0
Co112 Co 0.09862 0.21549 0.88996 0.0
O113 O 0.12289 0.2346 0.85919 0.0
O114 O 0.10077 0.246 0.88503 0.0
C115 C 0.12088 0.20358 0.91731 0.0
O116 O 0.07274 0.20152 0.92437 0.0
Co117 Co 0.07862 0.16139 0.89746 0.0
O118 O 0.06719 0.16605 0.93936 0.0
C119 C 0.06013 0.17949 0.84599 0.0
C120 C 0.11811 0.25124 0.86525 0.0
C121 C 0.06392 0.1835 0.94332 0.0
O122 O 0.07368 0.2011 0.85494 0.0
O123 O 0.06058 0.16191 0.85888 0.0
O124 O 0.12303 0.22409 0.92302 0.0
O125 O 0.10683 0.19185 0.89405 0.0
Co126 Co 0.8856 0.79026 0.60959 0.0
O127 O 0.88922 0.76891 0.63788 0.0
O128 O 0.85634 0.76031 0.6119 0.0
C129 C 0.91967 0.80202 0.58206 0.0
O130 O 0.87526 0.80711 0.57772 0.0
Co131 Co 0.92205 0.84407 0.60831 0.0
O132 O 0.90592 0.84339 0.56755 0.0
C133 C 0.8865 0.82394 0.66077 0.0
C134 C 0.86755 0.75339 0.63082 0.0
C135 C 0.8851 0.82657 0.56168 0.0
O136 O 0.87592 0.80358 0.64686 0.0
O137 O 0.90591 0.84135 0.65045 0.0
O138 O 0.90064 0.78247 0.57461 0.0
O139 O 0.91795 0.81275 0.60703 0.0
Co140 Co 0.21553 0.09617 0.61249 0.0
O141 O 0.23607 0.12111 0.6416 0.0
O142 O 0.24574 0.09755 0.61592 0.0
C143 C 0.2037 0.11818 0.58447 0.0
O144 O 0.19978 0.06924 0.57984 0.0
Co145 Co 0.16147 0.07755 0.60879 0.0
O146 O 0.16369 0.06342 0.56775 0.0
C147 C 0.18098 0.06209 0.66206 0.0
C148 C 0.25207 0.11552 0.63493 0.0
C149 C 0.18082 0.05978 0.56267 0.0
O150 O 0.20177 0.07271 0.64932 0.0
O151 O 0.16351 0.06351 0.65067 0.0
O152 O 0.22374 0.11947 0.57801 0.0
O153 O 0.19249 0.10524 0.60889 0.0
Co154 Co 0.91242 0.12019 0.61041 0.0
O155 O 0.88705 0.11464 0.63918 0.0
O156 O 0.91056 0.14871 0.61519 0.0
C157 C 0.89097 0.08678 0.58138 0.0
O158 O 0.93963 0.13238 0.5781 0.0
Co159 Co 0.93185 0.08552 0.60556 0.0
O160 O 0.94555 0.10241 0.56467 0.0
C161 C 0.94664 0.11967 0.65971 0.0
C162 C 0.89236 0.13628 0.63357 0.0
C163 C 0.94906 0.1232 0.56031 0.0
O164 O 0.93558 0.12954 0.64747 0.0
O165 O 0.94578 0.1012 0.64769 0.0
O166 O 0.88946 0.10548 0.57546 0.0
O167 O 0.90386 0.08832 0.60576 0.0
Co168 Co 0.88251 0.45376 0.4418 0.0
O169 O 0.90258 0.4501 0.47233 0.0
O170 O 0.91293 0.48267 0.44454 0.0
C171 C 0.87076 0.41889 0.41656 0.0
O172 O 0.8669 0.46366 0.40708 0.0
Co173 Co 0.82839 0.41785 0.43918 0.0
O174 O 0.83043 0.43317 0.39742 0.0
C175 C 0.84744 0.45678 0.48711 0.0
C176 C 0.91886 0.47136 0.4648 0.0
C177 C 0.84753 0.45366 0.39068 0.0
O178 O 0.86872 0.46508 0.4766 0.0
O179 O 0.8297 0.43781 0.47642 0.0
O180 O 0.89083 0.43738 0.40938 0.0
O181 O 0.8595 0.42155 0.44015 0.0
Co182 Co 0.55576 0.43224 0.44325 0.0
O183 O 0.55938 0.45735 0.47127 0.0
O184 O 0.52659 0.43311 0.44508 0.0
C185 C 0.58995 0.45419 0.41577 0.0
O186 O 0.54545 0.40496 0.41156 0.0
Co187 Co 0.59194 0.41454 0.443 0.0
O188 O 0.57611 0.39925 0.40202 0.0
C189 C 0.55603 0.39936 0.4949 0.0
C190 C 0.53777 0.45126 0.46397 0.0
C191 C 0.55537 0.39533 0.39577 0.0
O192 O 0.54571 0.40928 0.48066 0.0
O193 O 0.57544 0.40118 0.48496 0.0
O194 O 0.57107 0.45494 0.40818 0.0
O195 O 0.58807 0.44187 0.44098 0.0
Co196 Co 0.57647 0.12265 0.44573 0.0
O197 O 0.55187 0.10165 0.47476 0.0
O198 O 0.57566 0.09267 0.44827 0.0
C199 C 0.55359 0.13404 0.41901 0.0
O200 O 0.60322 0.13905 0.41304 0.0
Co201 Co 0.59394 0.17641 0.4425 0.0
O202 O 0.6083 0.17487 0.40127 0.0
C203 C 0.61044 0.1572 0.4951 0.0
C204 C 0.55778 0.08599 0.46758 0.0
C205 C 0.61239 0.15806 0.39603 0.0
O206 O 0.59997 0.1364 0.4824 0.0
O207 O 0.6086 0.17449 0.48391 0.0
O208 O 0.55305 0.11451 0.41141 0.0
O209 O 0.56665 0.14513 0.44336 0.0
Co210 Co 0.78837 0.54689 0.72001 0.0
O211 O 0.78312 0.56697 0.69133 0.0
O212 O 0.817 0.57727 0.71568 0.0
C213 C 0.75473 0.53474 0.74858 0.0
O214 O 0.80024 0.53156 0.75229 0.0
Co215 Co 0.75343 0.49272 0.7241 0.0
O216 O 0.77013 0.49552 0.76503 0.0
C217 C 0.78791 0.51248 0.67034 0.0
C218 C 0.80477 0.58319 0.69716 0.0
C219 C 0.79091 0.51275 0.76974 0.0
O220 O 0.7979 0.53329 0.68294 0.0
O221 O 0.76927 0.49484 0.682 0.0
O222 O 0.7734 0.55491 0.75488 0.0
O223 O 0.75645 0.52358 0.72414 0.0
Co224 Co 0.45968 0.24418 0.7211 0.0
O225 O 0.43852 0.21875 0.69343 0.0
O226 O 0.42934 0.24292 0.71835 0.0
C227 C 0.47187 0.22251 0.74922 0.0
O228 O 0.47675 0.27164 0.75282 0.0
Co229 Co 0.51364 0.26154 0.71981 0.0
O230 O 0.51386 0.27849 0.75937 0.0
C231 C 0.49242 0.27584 0.66797 0.0
C232 C 0.42265 0.22446 0.70011 0.0
C233 C 0.49703 0.28209 0.76705 0.0
O234 O 0.47263 0.2669 0.68332 0.0
O235 O 0.50983 0.2735 0.67718 0.0
O236 O 0.4521 0.22158 0.75641 0.0
O237 O 0.48233 0.23464 0.72391 0.0
Co238 Co 0.76577 0.21612 0.72122 0.0
O239 O 0.78945 0.219 0.69103 0.0
O240 O 0.76623 0.18679 0.71902 0.0
C241 C 0.78947 0.25075 0.74675 0.0
O242 O 0.73995 0.20648 0.75517 0.0
Co243 Co 0.74872 0.25272 0.72532 0.0
O244 O 0.7357 0.23763 0.76743 0.0
C245 C 0.72814 0.21423 0.67636 0.0
C246 C 0.78362 0.19753 0.69883 0.0
C247 C 0.73139 0.21665 0.77266 0.0
O248 O 0.74102 0.20561 0.68607 0.0
O249 O 0.72959 0.23307 0.68797 0.0
O250 O 0.79014 0.23181 0.75423 0.0
O251 O 0.77586 0.24858 0.72297 0.0
Co252 Co 0.46216 0.21923 0.22356 0.0
O253 O 0.44219 0.22352 0.1935 0.0
O254 O 0.4316 0.19058 0.22051 0.0
C255 C 0.47454 0.25385 0.24984 0.0
O256 O 0.4775 0.20858 0.25767 0.0
Co257 Co 0.51647 0.25448 0.22611 0.0
O258 O 0.51427 0.23851 0.26738 0.0
C259 C 0.4968 0.21603 0.17754 0.0
C260 C 0.42581 0.2022 0.20062 0.0
C261 C 0.49693 0.21813 0.27393 0.0
O262 O 0.47559 0.20796 0.1882 0.0
O263 O 0.51474 0.23475 0.18839 0.0
O264 O 0.45426 0.23551 0.25667 0.0
O265 O 0.48556 0.25129 0.22587 0.0
Co266 Co 0.78807 0.2408 0.22272 0.0
O267 O 0.78286 0.21646 0.19212 0.0
O268 O 0.81635 0.23852 0.21819 0.0
C269 C 0.75378 0.21876 0.24991 0.0
O270 O 0.8 0.26672 0.25695 0.0
Co271 Co 0.75418 0.26108 0.2296 0.0
O272 O 0.77021 0.27258 0.27154 0.0
C273 C 0.79117 0.27948 0.17867 0.0
C274 C 0.80425 0.22118 0.19841 0.0
C275 C 0.79088 0.27572 0.27567 0.0
O276 O 0.79892 0.26569 0.18765 0.0
O277 O 0.77322 0.27927 0.19138 0.0
O278 O 0.77205 0.21649 0.25582 0.0
O279 O 0.75623 0.23276 0.22652 0.0
Co280 Co 0.7662 0.54788 0.21908 0.0
O281 O 0.79093 0.56985 0.19097 0.0
O282 O 0.76654 0.57775 0.21785 0.0
C283 C 0.78906 0.53628 0.24547 0.0
O284 O 0.73917 0.53003 0.2512 0.0
Co285 Co 0.75001 0.49432 0.21759 0.0
O286 O 0.73295 0.49317 0.25748 0.0
C287 C 0.73397 0.51493 0.16672 0.0
C288 C 0.78459 0.58509 0.19865 0.0
C289 C 0.729 0.50972 0.26533 0.0
O290 O 0.74318 0.53488 0.18168 0.0
O291 O 0.73656 0.49767 0.17597 0.0
O292 O 0.78922 0.5555 0.2538 0.0
O293 O 0.77669 0.52589 0.22031 0.0
Co294 Co 0.55407 0.12568 0.94305 0.0
O295 O 0.55938 0.10564 0.97179 0.0
O296 O 0.52547 0.09527 0.94751 0.0
C297 C 0.58769 0.13786 0.91444 0.0
O298 O 0.54211 0.14098 0.91077 0.0
Co299 Co 0.58894 0.17988 0.93879 0.0
O300 O 0.57211 0.17708 0.89799 0.0
C301 C 0.55467 0.16011 0.99278 0.0
C302 C 0.53772 0.08939 0.96607 0.0
C303 C 0.55135 0.15981 0.89334 0.0
O304 O 0.54459 0.1393 0.98014 0.0
O305 O 0.57329 0.17773 0.98106 0.0
O306 O 0.56903 0.11767 0.90818 0.0
O307 O 0.58595 0.14903 0.93886 0.0
Co308 Co 0.88039 0.42711 0.94318 0.0
O309 O 0.90081 0.4522 0.97186 0.0
O310 O 0.91061 0.42835 0.94731 0.0
C311 C 0.86882 0.4491 0.91469 0.0
O312 O 0.86432 0.40005 0.91068 0.0
Co313 Co 0.82639 0.40937 0.94112 0.0
O314 O 0.82764 0.39357 0.90125 0.0
C315 C 0.84608 0.39398 0.99392 0.0
C316 C 0.91681 0.44653 0.96592 0.0
C317 C 0.84467 0.38999 0.89492 0.0
O318 O 0.86659 0.40398 0.98036 0.0
O319 O 0.82871 0.39584 0.98321 0.0
O320 O 0.88878 0.45018 0.90831 0.0
O321 O 0.8577 0.43652 0.93938 0.0
Co322 Co 0.57699 0.45566 0.94288 0.0
O323 O 0.55317 0.45224 0.9733 0.0
O324 O 0.5759 0.48466 0.94539 0.0
C325 C 0.55379 0.42101 0.91707 0.0
O326 O 0.6028 0.46585 0.90877 0.0
Co327 Co 0.59512 0.41996 0.9385 0.0
O328 O 0.6076 0.43508 0.89625 0.0
C329 C 0.61543 0.45863 0.98716 0.0
C330 C 0.55862 0.47363 0.96567 0.0
C331 C 0.61152 0.45593 0.89108 0.0
O332 O 0.60188 0.46658 0.9779 0.0
O333 O 0.61459 0.44013 0.97531 0.0
O334 O 0.55264 0.43974 0.90995 0.0
O335 O 0.56749 0.42332 0.94083 0.0
Co336 Co 0.54775 0.78627 0.7796 0.0
O337 O 0.56875 0.78197 0.80763 0.0
O338 O 0.57803 0.81536 0.7827 0.0
C339 C 0.53575 0.75244 0.75153 0.0
O340 O 0.5309 0.79677 0.7476 0.0
Co341 Co 0.49377 0.74966 0.77983 0.0
O342 O 0.49401 0.76636 0.74005 0.0
C343 C 0.51442 0.78542 0.83164 0.0
C344 C 0.58461 0.80361 0.80117 0.0
C345 C 0.51082 0.78691 0.73285 0.0
O346 O 0.53459 0.79593 0.81716 0.0
O347 O 0.49693 0.76592 0.82181 0.0
O348 O 0.55556 0.77131 0.74449 0.0
O349 O 0.5251 0.75407 0.77663 0.0
Co350 Co 0.21718 0.76137 0.7782 0.0
O351 O 0.2196 0.78452 0.80905 0.0
O352 O 0.18812 0.76255 0.77914 0.0
C353 C 0.25261 0.78497 0.7544 0.0
O354 O 0.20837 0.73635 0.74304 0.0
Co355 Co 0.25335 0.74352 0.77734 0.0
O356 O 0.23888 0.73014 0.7352 0.0
C357 C 0.21326 0.72281 0.82347 0.0
C358 C 0.19852 0.77937 0.80021 0.0
C359 C 0.21863 0.72692 0.7274 0.0
O360 O 0.20509 0.73579 0.81249 0.0
O361 O 0.23252 0.72429 0.81366 0.0
O362 O 0.23421 0.7865 0.74656 0.0
O363 O 0.24955 0.77089 0.77799 0.0
Co364 Co 0.24473 0.45833 0.77624 0.0
O365 O 0.2201 0.43677 0.80487 0.0
O366 O 0.24394 0.42826 0.7777 0.0
C367 C 0.22219 0.47032 0.74986 0.0
O368 O 0.27151 0.47557 0.74358 0.0
Co369 Co 0.26185 0.51223 0.77705 0.0
O370 O 0.27826 0.5126 0.73695 0.0
C371 C 0.27739 0.4914 0.82817 0.0
C372 C 0.22605 0.42123 0.79711 0.0
C373 C 0.28179 0.49577 0.72916 0.0
O374 O 0.26814 0.47142 0.81327 0.0
O375 O 0.27491 0.5087 0.81882 0.0
O376 O 0.22127 0.45066 0.74203 0.0
O377 O 0.23492 0.48083 0.7747 0.0
Co378 Co 0.45416 0.88237 0.05531 0.0
O379 O 0.45228 0.90383 0.02528 0.0
O380 O 0.4837 0.91221 0.05468 0.0
C381 C 0.419 0.87107 0.07959 0.0
O382 O 0.46245 0.86517 0.08952 0.0
Co383 Co 0.41683 0.82868 0.05515 0.0
O384 O 0.43139 0.82868 0.09684 0.0
C385 C 0.45717 0.84766 0.00934 0.0
C386 C 0.47359 0.91925 0.034 0.0
C387 C 0.45189 0.84528 0.10465 0.0
O388 O 0.4656 0.86882 0.02034 0.0
O389 O 0.43776 0.83 0.01911 0.0
O390 O 0.4378 0.89055 0.08785 0.0
O391 O 0.42157 0.86023 0.05538 0.0
Co392 Co 0.12339 0.57337 0.05638 0.0
O393 O 0.10234 0.54813 0.02817 0.0
O394 O 0.09318 0.57211 0.05376 0.0
C395 C 0.13556 0.55155 0.08419 0.0
O396 O 0.13987 0.60074 0.08817 0.0
Co397 Co 0.17737 0.59157 0.05832 0.0
O398 O 0.17601 0.60634 0.09928 0.0
C399 C 0.15706 0.60654 0.00545 0.0
C400 C 0.08656 0.55396 0.03497 0.0
C401 C 0.1591 0.61026 0.10474 0.0
O402 O 0.13651 0.59622 0.01889 0.0
O403 O 0.17467 0.60515 0.01635 0.0
O404 O 0.11584 0.55069 0.09155 0.0
O405 O 0.14624 0.56405 0.05923 0.0
Co406 Co 0.43215 0.55367 0.05575 0.0
O407 O 0.45673 0.55757 0.02669 0.0
O408 O 0.43374 0.5248 0.05369 0.0
C409 C 0.45438 0.58833 0.082 0.0
O410 O 0.40569 0.54362 0.08899 0.0
Co411 Co 0.41393 0.58951 0.05587 0.0
O412 O 0.39979 0.57427 0.0974 0.0
C413 C 0.3947 0.55013 0.00866 0.0
C414 C 0.45148 0.53625 0.0342 0.0
C415 C 0.39612 0.55375 0.10458 0.0
O416 O 0.40798 0.54235 0.01968 0.0
O417 O 0.39532 0.56888 0.019 0.0
O418 O 0.4557 0.56976 0.08957 0.0
O419 O 0.44142 0.58593 0.0573 0.0
Co420 Co 0.1251 0.55133 0.55609 0.0
O421 O 0.10473 0.55464 0.52544 0.0
O422 O 0.09486 0.52243 0.55391 0.0
C423 C 0.13678 0.58631 0.58107 0.0
O424 O 0.14059 0.54122 0.59053 0.0
Co425 Co 0.17901 0.5868 0.56072 0.0
O426 O 0.17633 0.57179 0.60306 0.0
C427 C 0.16047 0.548 0.51219 0.0
C428 C 0.08867 0.53336 0.53339 0.0
C429 C 0.15924 0.55101 0.60826 0.0
O430 O 0.13895 0.54007 0.52139 0.0
O431 O 0.17815 0.56653 0.52399 0.0
O432 O 0.11689 0.5677 0.58859 0.0
O433 O 0.14813 0.58364 0.55761 0.0
Co434 Co 0.45621 0.57613 0.55454 0.0
O435 O 0.45204 0.552 0.52433 0.0
O436 O 0.48506 0.5747 0.55103 0.0
C437 C 0.42169 0.55324 0.58084 0.0
O438 O 0.46698 0.60208 0.58858 0.0
Co439 Co 0.42094 0.59477 0.55978 0.0
O440 O 0.43623 0.60668 0.60208 0.0
C441 C 0.45926 0.61477 0.5106 0.0
C442 C 0.47349 0.55725 0.53118 0.0
C443 C 0.45713 0.6106 0.6068 0.0
O444 O 0.46698 0.60092 0.5194 0.0
O445 O 0.44103 0.61424 0.52292 0.0
O446 O 0.44036 0.55192 0.58774 0.0
O447 O 0.42401 0.567 0.55718 0.0
Co448 Co 0.42948 0.88015 0.55816 0.0
O449 O 0.45394 0.89982 0.52815 0.0
O450 O 0.43128 0.91057 0.55402 0.0
C451 C 0.45204 0.86847 0.5852 0.0
O452 O 0.40327 0.86527 0.59194 0.0
Co453 Co 0.41039 0.82624 0.56395 0.0
O454 O 0.39843 0.82992 0.60603 0.0
C455 C 0.39162 0.84463 0.51316 0.0
C456 C 0.44889 0.91621 0.53454 0.0
C457 C 0.39465 0.84702 0.61043 0.0
O458 O 0.40504 0.86614 0.52255 0.0
O459 O 0.3921 0.82695 0.52567 0.0
O460 O 0.4534 0.88852 0.59179 0.0
O461 O 0.43839 0.85696 0.56147 0.0
Co462 Co 0.2214 0.45981 0.27878 0.0
O463 O 0.22569 0.43847 0.30597 0.0
O464 O 0.19225 0.42952 0.2814 0.0
C465 C 0.25529 0.47194 0.25075 0.0
O466 O 0.21087 0.47703 0.24761 0.0
Co467 Co 0.25807 0.51362 0.27946 0.0
O468 O 0.24126 0.51391 0.24003 0.0
C469 C 0.22248 0.49265 0.33157 0.0
C470 C 0.20404 0.42272 0.2994 0.0
C471 C 0.22062 0.49716 0.23303 0.0
O472 O 0.21191 0.47255 0.31696 0.0
O473 O 0.24191 0.51021 0.32163 0.0
O474 O 0.23624 0.45249 0.24302 0.0
O475 O 0.25366 0.48229 0.27618 0.0
Co476 Co 0.54691 0.76479 0.27784 0.0
O477 O 0.56885 0.79041 0.30463 0.0
O478 O 0.57707 0.76562 0.27947 0.0
C479 C 0.53447 0.78653 0.25037 0.0
O480 O 0.52905 0.73704 0.24686 0.0
Co481 Co 0.49313 0.74789 0.28027 0.0
O482 O 0.49209 0.73062 0.24066 0.0
C483 C 0.51476 0.73334 0.3315 0.0
C484 C 0.58433 0.78426 0.29752 0.0
C485 C 0.50868 0.72668 0.2329 0.0
O486 O 0.53457 0.74259 0.31617 0.0
O487 O 0.49716 0.73538 0.32229 0.0
O488 O 0.55382 0.78692 0.24211 0.0
O489 O 0.5245 0.77469 0.27606 0.0
Co490 Co 0.24356 0.78618 0.27735 0.0
O491 O 0.21907 0.78258 0.30672 0.0
O492 O 0.24257 0.8153 0.27997 0.0
C493 C 0.22102 0.75195 0.25033 0.0
O494 O 0.27004 0.79633 0.24403 0.0
Co495 Co 0.26114 0.74982 0.27584 0.0
O496 O 0.27659 0.76612 0.23538 0.0
C497 C 0.27731 0.78575 0.32768 0.0
C498 C 0.22482 0.80411 0.29951 0.0
C499 C 0.28 0.78658 0.22843 0.0
O500 O 0.26734 0.79625 0.31395 0.0
O501 O 0.27509 0.76628 0.3174 0.0
O502 O 0.21986 0.7707 0.24336 0.0
O503 O 0.23397 0.75393 0.27482 0.0
H504 H 0.16028 0.05494 0.07888 0.0
H505 H 0.22927 0.07247 0.04386 0.0
H506 H 0.1424 0.01938 0.04667 0.0
H507 H 0.21168 0.03572 0.0132 0.0
H508 H 0.16917 0.98155 0.93414 0.0
H509 H 0.19011 0.0159 0.96889 0.0
H510 H 0.13499 0.98186 0.04033 0.0
H511 H 0.11336 0.94859 0.00413 0.0
C512 C 0.17168 0.05097 0.06457 0.0
C513 C 0.19616 0.06654 0.0638 0.0
C514 C 0.16145 0.0303 0.04628 0.0
C515 C 0.17547 0.02419 0.02735 0.0
C516 C 0.20012 0.03979 0.02695 0.0
C517 C 0.21029 0.06085 0.04467 0.0
C518 C 0.16185 0.98136 0.95757 0.0
C519 C 0.13967 0.96253 0.96651 0.0
C520 C 0.17386 1.00107 0.97763 0.0
C521 C 0.16417 1.00213 0.00745 0.0
C522 C 0.14272 0.9823 0.01718 0.0
C523 C 0.13042 0.96298 0.99669 0.0
H524 H 0.93688 0.15921 0.04709 0.0
H525 H 0.95591 0.10888 0.08222 0.0
H526 H 0.97368 0.17921 0.01668 0.0
H527 H 0.99161 0.12743 0.05022 0.0
H528 H 0.06144 0.16936 0.00521 0.0
H529 H 0.02885 0.15794 0.04261 0.0
H530 H 0.99293 0.17733 0.97191 0.0
H531 H 0.02658 0.19052 0.93593 0.0
C532 C 0.94889 0.15233 0.04807 0.0
C533 C 0.94352 0.13248 0.067 0.0
C534 C 0.96997 0.16369 0.03046 0.0
C535 C 0.98594 0.15511 0.03074 0.0
C536 C 0.98033 0.13516 0.04982 0.0
C537 C 0.9596 0.12422 0.06801 0.0
C538 C 0.0468 0.17176 0.99821 0.0
C539 C 0.04649 0.18087 0.96785 0.0
C540 C 0.02787 0.16486 0.0194 0.0
C541 C 0.00771 0.16603 0.01023 0.0
C542 C 0.00806 0.17628 0.98025 0.0
C543 C 0.02737 0.18386 0.95947 0.0
H544 H 0.86917 0.90652 0.97233 0.0
H545 H 0.80665 0.84066 0.9477 0.0
H546 H 0.88087 0.88588 0.0099 0.0
H547 H 0.81829 0.81992 0.98607 0.0
H548 H 0.86511 0.79002 0.02565 0.0
H549 H 0.8492 0.80901 0.99112 0.0
H550 H 0.87066 0.86518 0.06057 0.0
H551 H 0.88691 0.84648 0.09466 0.0
C552 C 0.85774 0.88763 0.97517 0.0
C553 C 0.83699 0.87527 0.95679 0.0
C554 C 0.8644 0.8758 0.99696 0.0
C555 C 0.85056 0.85121 0.00103 0.0
C556 C 0.82949 0.83884 0.98326 0.0
C557 C 0.82272 0.85075 0.96147 0.0
C558 C 0.86634 0.80638 0.03356 0.0
C559 C 0.87745 0.81685 0.06276 0.0
C560 C 0.85706 0.81718 0.01389 0.0
C561 C 0.85871 0.83869 0.02298 0.0
C562 C 0.86938 0.84882 0.05257 0.0
C563 C 0.87864 0.83805 0.07218 0.0
H564 H 0.9866 0.16747 0.56798 0.0
H565 H 0.95191 0.1114 0.49875 0.0
H566 H 0.02025 0.1881 0.53192 0.0
H567 H 0.98443 0.1327 0.46131 0.0
H568 H 0.0567 0.15739 0.41999 0.0
H569 H 0.02177 0.13983 0.45348 0.0
H570 H 0.03898 0.20938 0.4868 0.0
H571 H 0.07512 0.22666 0.45483 0.0
C572 C 0.98589 0.16002 0.54448 0.0
C573 C 0.96682 0.13787 0.53608 0.0
C574 C 0.00518 0.17184 0.52366 0.0
C575 C 0.0055 0.16199 0.49365 0.0
C576 C 0.98542 0.14055 0.48456 0.0
C577 C 0.96654 0.12844 0.50576 0.0
C578 C 0.05305 0.16892 0.43452 0.0
C579 C 0.06869 0.19338 0.4349 0.0
C580 C 0.03274 0.15887 0.45356 0.0
C581 C 0.0271 0.17307 0.47286 0.0
C582 C 0.04273 0.1977 0.47279 0.0
C583 C 0.06343 0.20769 0.45432 0.0
H584 H 0.85055 0.90099 0.42161 0.0
H585 H 0.78146 0.84811 0.45454 0.0
H586 H 0.86868 0.88468 0.45584 0.0
H587 H 0.79937 0.83016 0.4871 0.0
H588 H 0.84043 0.81892 0.56811 0.0
H589 H 0.81995 0.83222 0.53228 0.0
H590 H 0.87757 0.85601 0.46424 0.0
H591 H 0.89867 0.84458 0.50166 0.0
C592 C 0.83918 0.88558 0.43588 0.0
C593 C 0.81459 0.87591 0.43549 0.0
C594 C 0.84958 0.87592 0.45536 0.0
C595 C 0.83565 0.85574 0.47428 0.0
C596 C 0.81088 0.84588 0.47346 0.0
C597 C 0.80052 0.85605 0.45461 0.0
C598 C 0.84847 0.82678 0.54527 0.0
C599 C 0.87112 0.83087 0.53762 0.0
C600 C 0.83672 0.83437 0.52454 0.0
C601 C 0.8471 0.84566 0.49525 0.0
C602 C 0.86922 0.84828 0.48694 0.0
C603 C 0.88126 0.84141 0.50815 0.0
H604 H 0.15763 0.93383 0.45651 0.0
H605 H 0.10634 0.95175 0.42202 0.0
H606 H 0.17624 0.96981 0.48874 0.0
H607 H 0.12341 0.9865 0.4559 0.0
H608 H 0.16474 0.05644 0.50174 0.0
H609 H 0.15305 0.02386 0.46432 0.0
H610 H 0.17419 0.98857 0.53371 0.0
H611 H 0.18771 0.02231 0.56963 0.0
C612 C 0.15018 0.94537 0.45617 0.0
C613 C 0.13059 0.94004 0.43672 0.0
C614 C 0.16075 0.96599 0.47482 0.0
C615 C 0.15155 0.98144 0.47511 0.0
C616 C 0.13165 0.97569 0.45582 0.0
C617 C 0.12157 0.95549 0.43656 0.0
C618 C 0.16737 0.04191 0.50848 0.0
C619 C 0.17718 0.04186 0.53839 0.0
C620 C 0.16032 0.02297 0.48729 0.0
C621 C 0.16203 0.00302 0.49601 0.0
C622 C 0.17273 0.00353 0.52567 0.0
C623 C 0.18048 0.02288 0.54643 0.0
H624 H 0.90633 0.04454 0.01472 0.0
H625 H 0.84037 0.03932 0.0436 0.0
H626 H 0.88529 0.01189 0.97781 0.0
H627 H 0.8192 0.00672 0.00574 0.0
H628 H 0.79013 0.92943 0.96932 0.0
H629 H 0.80918 0.96542 0.0017 0.0
H630 H 0.86306 0.9993 0.92895 0.0
H631 H 0.84438 0.96321 0.89712 0.0
C632 C 0.88733 0.03669 0.01282 0.0
C633 C 0.87505 0.04452 0.03236 0.0
C634 C 0.87524 0.01799 0.99141 0.0
C635 C 0.8505 0.00655 0.98885 0.0
C636 C 0.83824 0.01494 0.00744 0.0
C637 C 0.85039 0.03379 0.02889 0.0
C638 C 0.80598 0.94463 0.96022 0.0
C639 C 0.81588 0.94342 0.93082 0.0
C640 C 0.8168 0.96533 0.97864 0.0
C641 C 0.83773 0.98527 0.96801 0.0
C642 C 0.84719 0.98418 0.93813 0.0
C643 C 0.83643 0.9635 0.91982 0.0
H644 H 0.96948 0.8056 0.05208 0.0
H645 H 0.96978 0.87024 0.02908 0.0
H646 H 1.00238 0.81674 0.01466 0.0
H647 H 1.00255 0.88139 0.99266 0.0
H648 H 0.04691 0.88682 0.90789 0.0
H649 H 0.01192 0.87083 0.9417 0.0
H650 H 0.04498 0.84649 0.00976 0.0
H651 H 0.08003 0.86216 0.97531 0.0
C652 C 0.97638 0.82204 0.03893 0.0
C653 C 0.96692 0.83699 0.04367 0.0
C654 C 0.99536 0.82852 0.0177 0.0
C655 C 0.00511 0.84996 0.0006 0.0
C656 C 0.99531 0.8646 0.005 0.0
C657 C 0.97653 0.85822 0.02616 0.0
C658 C 0.04672 0.87796 0.92998 0.0
C659 C 0.06634 0.87595 0.93906 0.0
C660 C 0.02666 0.86885 0.94945 0.0
C661 C 0.02569 0.85757 0.97864 0.0
C662 C 0.04506 0.85492 0.98732 0.0
C663 C 0.0652 0.86402 0.96771 0.0
H664 H 0.10661 0.15708 0.92529 0.0
H665 H 0.16041 0.22675 0.95494 0.0
H666 H 0.12395 0.1396 0.95879 0.0
H667 H 0.17926 0.2094 0.98686 0.0
H668 H 0.19182 0.16899 0.06812 0.0
H669 H 0.17813 0.18929 0.03253 0.0
H670 H 0.15325 0.13116 0.96524 0.0
H671 H 0.16517 0.1103 0.00237 0.0
C672 C 0.12241 0.16871 0.93869 0.0
C673 C 0.13207 0.19329 0.93756 0.0
C674 C 0.13267 0.15867 0.95772 0.0
C675 C 0.15338 0.17294 0.97549 0.0
C676 C 0.16318 0.19767 0.97404 0.0
C677 C 0.15247 0.2077 0.95558 0.0
C678 C 0.18371 0.16083 0.04545 0.0
C679 C 0.17943 0.13809 0.03796 0.0
C680 C 0.17587 0.17246 0.02489 0.0
C681 C 0.16406 0.16182 0.99598 0.0
C682 C 0.16138 0.13968 0.9877 0.0
C683 C 0.16854 0.12779 0.00872 0.0
H684 H 0.92676 0.78598 0.52455 0.0
H685 H 0.96182 0.84138 0.59492 0.0
H686 H 0.9622 0.80462 0.49085 0.0
H687 H 0.99725 0.85962 0.56183 0.0
H688 H 0.04103 0.90215 0.47558 0.0
H689 H 0.00828 0.88106 0.5122 0.0
H690 H 1.00398 0.81517 0.48556 0.0
H691 H 0.03685 0.83645 0.44789 0.0
C692 C 0.9421 0.80199 0.53296 0.0
C693 C 0.9414 0.81235 0.56222 0.0
C694 C 0.96247 0.81258 0.51377 0.0
C695 C 0.98256 0.83373 0.5235 0.0
C696 C 0.98199 0.84359 0.55329 0.0
C697 C 0.96168 0.83308 0.57234 0.0
C698 C 0.03331 0.88317 0.47756 0.0
C699 C 0.04158 0.87102 0.45858 0.0
C700 C 0.01455 0.87106 0.49885 0.0
C701 C 1.00344 0.84639 0.50192 0.0
C702 C 0.01201 0.83417 0.48354 0.0
C703 C 0.03097 0.84638 0.46219 0.0
H704 H 0.17006 0.18766 0.4309 0.0
H705 H 0.11175 0.16346 0.49699 0.0
H706 H 0.1899 0.17397 0.46729 0.0
H707 H 0.13221 0.15159 0.5349 0.0
H708 H 0.15729 0.1048 0.57751 0.0
H709 H 0.14004 0.12208 0.54329 0.0
H710 H 0.21004 0.17559 0.51286 0.0
H711 H 0.22702 0.15676 0.54544 0.0
C712 C 0.1619 0.18011 0.45381 0.0
C713 C 0.1394 0.17651 0.46119 0.0
C714 C 0.17328 0.17226 0.47484 0.0
C715 C 0.16263 0.16117 0.50413 0.0
C716 C 0.14073 0.15916 0.51222 0.0
C717 C 0.12908 0.1663 0.49074 0.0
C718 C 0.16898 0.12021 0.56343 0.0
C719 C 0.19349 0.12935 0.56404 0.0
C720 C 0.1591 0.13042 0.54397 0.0
C721 C 0.17351 0.15058 0.52525 0.0
C722 C 0.19819 0.15991 0.52633 0.0
C723 C 0.20802 0.14922 0.54519 0.0
H724 H 0.85222 0.0717 0.54271 0.0
H725 H 0.90409 0.05364 0.57415 0.0
H726 H 0.83273 0.03555 0.5108 0.0
H727 H 0.88606 0.01871 0.54069 0.0
H728 H 0.84329 0.94842 0.49713 0.0
H729 H 0.85564 0.9813 0.53422 0.0
H730 H 0.83395 0.01639 0.46531 0.0
H731 H 0.81984 0.98238 0.42967 0.0
C732 C 0.8596 0.06011 0.54244 0.0
C733 C 0.87962 0.06544 0.56095 0.0
C734 C 0.84852 0.0394 0.52401 0.0
C735 C 0.85757 0.02382 0.5231 0.0
C736 C 0.87793 0.02962 0.54134 0.0
C737 C 0.88857 0.04993 0.56033 0.0
C738 C 0.84067 0.96297 0.49043 0.0
C739 C 0.8306 0.96292 0.4607 0.0
C740 C 0.84809 0.98206 0.51142 0.0
C741 C 0.84648 1.00204 0.50265 0.0
C742 C 0.83539 1.00141 0.47329 0.0
C743 C 0.82729 0.98191 0.45272 0.0
H744 H 0.83534 0.31277 0.26793 0.0
H745 H 0.77932 0.27869 0.33742 0.0
H746 H 0.85602 0.34669 0.30343 0.0
H747 H 0.8007 0.31156 0.37435 0.0
H748 H 0.82457 0.38469 0.41236 0.0
H749 H 0.8074 0.34894 0.38056 0.0
H750 H 0.87721 0.36621 0.34829 0.0
H751 H 0.8941 0.4031 0.37855 0.0
C752 C 0.82795 0.31222 0.29142 0.0
C753 C 0.80576 0.29325 0.3 0.0
C754 C 0.83979 0.33168 0.31191 0.0
C755 C 0.82992 0.33232 0.34176 0.0
C756 C 0.80854 0.31229 0.35118 0.0
C757 C 0.7964 0.29321 0.33028 0.0
C758 C 0.83624 0.38087 0.39844 0.0
C759 C 0.86065 0.39676 0.3978 0.0
C760 C 0.82642 0.3601 0.3804 0.0
C761 C 0.84081 0.35426 0.36185 0.0
C762 C 0.8654 0.3701 0.36174 0.0
C763 C 0.87516 0.39123 0.37923 0.0
H764 H 0.59738 0.47767 0.35851 0.0
H765 H 0.63132 0.45492 0.42738 0.0
H766 H 0.6324 0.49337 0.32413 0.0
H767 H 0.66635 0.47096 0.39352 0.0
H768 H 0.70909 0.4719 0.30591 0.0
H769 H 0.67659 0.46054 0.34301 0.0
H770 H 0.67446 0.52373 0.31902 0.0
H771 H 0.70702 0.53503 0.28104 0.0
C772 C 0.61239 0.47622 0.36644 0.0
C773 C 0.6115 0.46487 0.39553 0.0
C774 C 0.63252 0.48536 0.34685 0.0
C775 C 0.65218 0.48333 0.35595 0.0
C776 C 0.65142 0.4725 0.38549 0.0
C777 C 0.63134 0.46337 0.40498 0.0
C778 C 0.7019 0.48355 0.3086 0.0
C779 C 0.71071 0.50438 0.2903 0.0
C780 C 0.68328 0.47707 0.33012 0.0
C781 C 0.67285 0.4912 0.33406 0.0
C782 C 0.68193 0.51232 0.31632 0.0
C783 C 0.70073 0.5189 0.29476 0.0
H784 H 0.54759 0.17087 0.43539 0.0
H785 H 0.53219 0.11977 0.36007 0.0
H786 H 0.52974 0.18912 0.40377 0.0
H787 H 0.5149 0.1386 0.32771 0.0
H788 H 0.4725 0.17002 0.28424 0.0
H789 H 0.48299 0.14774 0.32162 0.0
H790 H 0.54119 0.21325 0.35698 0.0
H791 H 0.53047 0.23526 0.32067 0.0
C792 C 0.54038 0.16353 0.41201 0.0
C793 C 0.54153 0.14405 0.40006 0.0
C794 C 0.53018 0.17404 0.39382 0.0
C795 C 0.5211 0.16552 0.36301 0.0
C796 C 0.52152 0.14549 0.35146 0.0
C797 C 0.53159 0.13481 0.36986 0.0
C798 C 0.48721 0.17962 0.30051 0.0
C799 C 0.50069 0.20443 0.29935 0.0
C800 C 0.49338 0.16685 0.32167 0.0
C801 C 0.51301 0.17867 0.34223 0.0
C802 C 0.52579 0.2035 0.34186 0.0
C803 C 0.51971 0.21617 0.32079 0.0
H804 H 0.64844 0.50061 0.89766 0.0
H805 H 0.61579 0.44268 0.83074 0.0
H806 H 0.68272 0.52072 0.86263 0.0
H807 H 0.64899 0.46343 0.79414 0.0
H808 H 0.72196 0.48835 0.75578 0.0
H809 H 0.68663 0.47108 0.78846 0.0
H810 H 0.70227 0.54105 0.81747 0.0
H811 H 0.73884 0.55809 0.78641 0.0
C812 C 0.64829 0.49261 0.87481 0.0
C813 C 0.62958 0.4701 0.86687 0.0
C814 C 0.66797 0.50414 0.85458 0.0
C815 C 0.66909 0.49364 0.82554 0.0
C816 C 0.64938 0.47181 0.81672 0.0
C817 C 0.6301 0.46 0.83742 0.0
C818 C 0.7179 0.50004 0.76925 0.0
C819 C 0.7332 0.52456 0.76865 0.0
C820 C 0.69736 0.49014 0.78778 0.0
C821 C 0.6911 0.50455 0.80554 0.0
C822 C 0.70646 0.52923 0.80464 0.0
C823 C 0.72742 0.53908 0.78671 0.0
H824 H 0.44884 0.18469 0.78946 0.0
H825 H 0.51814 0.23485 0.75387 0.0
H826 H 0.46583 0.16546 0.82116 0.0
H827 H 0.5355 0.21711 0.78714 0.0
H828 H 0.56315 0.1747 0.83183 0.0
H829 H 0.54219 0.18664 0.79486 0.0
H830 H 0.48709 0.16741 0.86585 0.0
H831 H 0.50734 0.15367 0.90141 0.0
C832 C 0.46777 0.19175 0.78875 0.0
C833 C 0.48217 0.21121 0.76917 0.0
C834 C 0.4776 0.18082 0.80708 0.0
C835 C 0.50218 0.1895 0.80686 0.0
C836 C 0.51648 0.20927 0.78744 0.0
C837 C 0.50657 0.21974 0.76853 0.0
C838 C 0.54623 0.1725 0.83902 0.0
C839 C 0.53677 0.16321 0.86929 0.0
C840 C 0.53433 0.1797 0.81808 0.0
C841 C 0.51308 0.17866 0.82742 0.0
C842 C 0.5032 0.16837 0.85739 0.0
C843 C 0.5148 0.16047 0.87792 0.0
H844 H 0.86971 0.36708 0.88312 0.0
H845 H 0.80977 0.37223 0.84998 0.0
H846 H 0.85954 0.33478 0.84503 0.0
H847 H 0.79944 0.33999 0.81298 0.0
H848 H 0.79403 0.29334 0.73209 0.0
H849 H 0.81119 0.32893 0.76482 0.0
H850 H 0.8285 0.29333 0.83826 0.0
H851 H 0.81187 0.25778 0.80485 0.0
C852 C 0.85457 0.36155 0.86752 0.0
C853 C 0.84052 0.37221 0.86976 0.0
C854 C 0.84862 0.34291 0.84591 0.0
C855 C 0.82864 0.33473 0.82594 0.0
C856 C 0.81513 0.34597 0.82758 0.0
C857 C 0.82099 0.36442 0.84909 0.0
C858 C 0.80166 0.29314 0.75511 0.0
C859 C 0.80137 0.27268 0.76605 0.0
C860 C 0.81144 0.31354 0.77395 0.0
C861 C 0.82099 0.31395 0.80439 0.0
C862 C 0.82148 0.29371 0.81485 0.0
C863 C 0.8118 0.27329 0.79582 0.0
H864 H 0.51037 0.35871 0.40122 0.0
H865 H 0.56965 0.3907 0.33634 0.0
H866 H 0.49005 0.32503 0.36525 0.0
H867 H 0.54874 0.35825 0.29873 0.0
H868 H 0.52129 0.28576 0.25695 0.0
H869 H 0.53939 0.32045 0.29077 0.0
H870 H 0.47002 0.30686 0.31959 0.0
H871 H 0.4521 0.2708 0.28752 0.0
C872 C 0.5187 0.3588 0.37868 0.0
C873 C 0.54157 0.37715 0.37153 0.0
C874 C 0.50702 0.33951 0.35786 0.0
C875 C 0.51774 0.33846 0.32897 0.0
C876 C 0.54012 0.35776 0.32112 0.0
C877 C 0.55206 0.37662 0.34243 0.0
C878 C 0.50991 0.29014 0.27058 0.0
C879 C 0.48528 0.27549 0.26972 0.0
C880 C 0.5203 0.31034 0.28982 0.0
C881 C 0.50633 0.31693 0.308 0.0
C882 C 0.48155 0.30235 0.30657 0.0
C883 C 0.47118 0.2817 0.28799 0.0
H884 H 0.72171 0.23329 0.25737 0.0
H885 H 0.73733 0.17957 0.28817 0.0
H886 H 0.68706 0.21649 0.29123 0.0
H887 H 0.70129 0.16124 0.32044 0.0
H888 H 0.64911 0.14987 0.40205 0.0
H889 H 0.68285 0.16313 0.36614 0.0
H890 H 0.64927 0.18745 0.29853 0.0
H891 H 0.61672 0.17596 0.33596 0.0
C892 C 0.71751 0.21761 0.2711 0.0
C893 C 0.73232 0.20783 0.27021 0.0
C894 C 0.69732 0.20768 0.29034 0.0
C895 C 0.69088 0.18716 0.30857 0.0
C896 C 0.70567 0.1772 0.30729 0.0
C897 C 0.7263 0.1876 0.28863 0.0
C898 C 0.64893 0.15779 0.37926 0.0
C899 C 0.63046 0.16204 0.37177 0.0
C900 C 0.66827 0.16537 0.35851 0.0
C901 C 0.66926 0.17686 0.32938 0.0
C902 C 0.6498 0.17956 0.32114 0.0
C903 C 0.63089 0.17266 0.34234 0.0
H904 H 0.87151 0.50164 0.37931 0.0
H905 H 0.81369 0.43575 0.34428 0.0
H906 H 0.86038 0.52328 0.34175 0.0
H907 H 0.80231 0.45715 0.30778 0.0
H908 H 0.79449 0.49898 0.22925 0.0
H909 H 0.81261 0.48087 0.26071 0.0
H910 H 0.82833 0.53199 0.33622 0.0
H911 H 0.81077 0.5506 0.3041 0.0
C912 C 0.85669 0.49176 0.3633 0.0
C913 C 0.84344 0.46696 0.36496 0.0
C914 C 0.85015 0.50416 0.34203 0.0
C915 C 0.83034 0.49199 0.32184 0.0
C916 C 0.81782 0.46717 0.32262 0.0
C917 C 0.82428 0.45485 0.3438 0.0
C918 C 0.80194 0.50646 0.25248 0.0
C919 C 0.80101 0.52608 0.26433 0.0
C920 C 0.81229 0.49603 0.27059 0.0
C921 C 0.82178 0.50482 0.30117 0.0
C922 C 0.82144 0.5249 0.31264 0.0
C923 C 0.8112 0.53546 0.29436 0.0
H924 H 0.60395 0.11456 0.87719 0.0
H925 H 0.62007 0.1843 0.90669 0.0
H926 H 0.64059 0.13171 0.84629 0.0
H927 H 0.65545 0.20166 0.87413 0.0
H928 H 0.72659 0.23033 0.83251 0.0
H929 H 0.69323 0.20966 0.86888 0.0
H930 H 0.66018 0.15184 0.80107 0.0
H931 H 0.6946 0.17188 0.7663 0.0
C932 C 0.6152 0.1336 0.87665 0.0
C933 C 0.6092 0.14809 0.89437 0.0
C934 C 0.63621 0.14351 0.85882 0.0
C935 C 0.65138 0.16822 0.85765 0.0
C936 C 0.64488 0.18259 0.87503 0.0
C937 C 0.62431 0.17264 0.89349 0.0
C938 C 0.71238 0.21293 0.82592 0.0
C939 C 0.71313 0.20265 0.79675 0.0
C940 C 0.69301 0.20116 0.84649 0.0
C941 C 0.67346 0.17918 0.8378 0.0
C942 C 0.67481 0.16853 0.80903 0.0
C943 C 0.69456 0.18003 0.78894 0.0
H944 H 0.89252 0.48725 0.87505 0.0
H945 H 0.82269 0.43688 0.90881 0.0
H946 H 0.87598 0.50685 0.8431 0.0
H947 H 0.80587 0.45502 0.87539 0.0
H948 H 0.77889 0.49796 0.8312 0.0
H949 H 0.79964 0.48593 0.86839 0.0
H950 H 0.85501 0.50506 0.79786 0.0
H951 H 0.83494 0.51887 0.76203 0.0
C952 C 0.87359 0.48023 0.87531 0.0
C953 C 0.8589 0.4606 0.89445 0.0
C954 C 0.86403 0.49137 0.85687 0.0
C955 C 0.83947 0.48276 0.85659 0.0
C956 C 0.82488 0.4628 0.87552 0.0
C957 C 0.8345 0.45211 0.89451 0.0
C958 C 0.79582 0.50011 0.82416 0.0
C959 C 0.80539 0.50936 0.79392 0.0
C960 C 0.80761 0.49287 0.84522 0.0
C961 C 0.82883 0.49383 0.83603 0.0
C962 C 0.83888 0.50415 0.80615 0.0
C963 C 0.82739 0.51207 0.78548 0.0
H964 H 0.55178 0.37916 0.9294 0.0
H965 H 0.52964 0.41354 0.8604 0.0
H966 H 0.53482 0.34385 0.89606 0.0
H967 H 0.51313 0.3783 0.82643 0.0
H968 H 0.47169 0.3042 0.78218 0.0
H969 H 0.48271 0.33649 0.82058 0.0
H970 H 0.54521 0.33347 0.84606 0.0
H971 H 0.5341 0.30124 0.80872 0.0
C972 C 0.54325 0.37916 0.90709 0.0
C973 C 0.54225 0.39922 0.8974 0.0
C974 C 0.53358 0.35893 0.88789 0.0
C975 C 0.52279 0.35827 0.85836 0.0
C976 C 0.52111 0.3781 0.84914 0.0
C977 C 0.53072 0.39836 0.86849 0.0
C978 C 0.48759 0.31023 0.79636 0.0
C979 C 0.50202 0.30013 0.79221 0.0
C980 C 0.49401 0.32887 0.81816 0.0
C981 C 0.51487 0.33762 0.83643 0.0
C982 C 0.52886 0.32702 0.83281 0.0
C983 C 0.52254 0.30858 0.8111 0.0
H984 H 0.50143 0.64813 0.59998 0.0
H985 H 0.44436 0.61367 0.6679 0.0
H986 H 0.52143 0.68195 0.63575 0.0
H987 H 0.46507 0.64642 0.70519 0.0
H988 H 0.48944 0.71883 0.74593 0.0
H989 H 0.47221 0.68373 0.71272 0.0
H990 H 0.54211 0.70106 0.68075 0.0
H991 H 0.55902 0.73733 0.71232 0.0
C992 C 0.49362 0.6475 0.62318 0.0
C993 C 0.47138 0.62841 0.63124 0.0
C994 C 0.50509 0.66691 0.64385 0.0
C995 C 0.49481 0.66738 0.67343 0.0
C996 C 0.47326 0.64731 0.68226 0.0
C997 C 0.46149 0.62829 0.66115 0.0
C998 C 0.5011 0.71515 0.73172 0.0
C999 C 0.52554 0.73086 0.73159 0.0
C1000 C 0.49124 0.69476 0.71286 0.0
C1001 C 0.50565 0.68909 0.69402 0.0
C1002 C 0.53027 0.70481 0.69435 0.0
C1003 C 0.54005 0.72559 0.7126 0.0
H1004 H 0.39166 0.83127 0.67158 0.0
H1005 H 0.35757 0.85459 0.60411 0.0
H1006 H 0.35929 0.81992 0.70933 0.0
H1007 H 0.3241 0.84148 0.64039 0.0
H1008 H 0.26896 0.82424 0.71663 0.0
H1009 H 0.3055 0.84353 0.68562 0.0
H1010 H 0.32181 0.79022 0.71742 0.0
H1011 H 0.28644 0.7724 0.7501 0.0
C1012 C 0.37721 0.83409 0.66501 0.0
C1013 C 0.37707 0.84383 0.63507 0.0
C1014 C 0.35841 0.82725 0.68641 0.0
C1015 C 0.33853 0.82914 0.67789 0.0
C1016 C 0.33901 0.83989 0.64827 0.0
C1017 C 0.35821 0.84741 0.6273 0.0
C1018 C 0.28057 0.81686 0.7171 0.0
C1019 C 0.27484 0.79681 0.73576 0.0
C1020 C 0.3015 0.82782 0.69912 0.0
C1021 C 0.31693 0.81859 0.69873 0.0
C1022 C 0.31097 0.79842 0.71753 0.0
C1023 C 0.29041 0.78792 0.73612 0.0
H1024 H 0.17643 0.56389 0.6689 0.0
H1025 H 0.1514 0.50638 0.60134 0.0
H1026 H 0.18833 0.54274 0.7056 0.0
H1027 H 0.16511 0.48593 0.6364 0.0
H1028 H 0.18319 0.44764 0.71143 0.0
H1029 H 0.16395 0.46514 0.68084 0.0
H1030 H 0.21775 0.53461 0.71263 0.0
H1031 H 0.23543 0.5168 0.74494 0.0
C1032 C 0.17337 0.54658 0.66209 0.0
C1033 C 0.16294 0.53669 0.63246 0.0
C1034 C 0.18054 0.53454 0.68285 0.0
C1035 C 0.17833 0.51269 0.67392 0.0
C1036 C 0.16697 0.50247 0.64462 0.0
C1037 C 0.1591 0.51421 0.62434 0.0
C1038 C 0.1907 0.46664 0.7119 0.0
C1039 C 0.21078 0.48085 0.73059 0.0
C1040 C 0.17978 0.47678 0.6942 0.0
C1041 C 0.18907 0.50146 0.69407 0.0
C1042 C 0.20942 0.51554 0.71262 0.0
C1043 C 0.21987 0.50534 0.73098 0.0
H1044 H 0.37696 0.83188 0.06531 0.0
H1045 H 0.41109 0.88651 0.1369 0.0
H1046 H 0.34126 0.81298 0.09796 0.0
H1047 H 0.37553 0.86723 0.17012 0.0
H1048 H 0.30202 0.83423 0.21475 0.0
H1049 H 0.33403 0.85611 0.1762 0.0
H1050 H 0.3301 0.79086 0.14682 0.0
H1051 H 0.2981 0.76915 0.18434 0.0
C1052 C 0.37681 0.83989 0.08802 0.0
C1053 C 0.39691 0.86057 0.09866 0.0
C1054 C 0.35637 0.82901 0.10682 0.0
C1055 C 0.35554 0.83843 0.13686 0.0
C1056 C 0.37542 0.85959 0.147 0.0
C1057 C 0.39588 0.87056 0.12807 0.0
C1058 C 0.30776 0.82456 0.19965 0.0
C1059 C 0.29753 0.79993 0.20283 0.0
C1060 C 0.32624 0.83712 0.17776 0.0
C1061 C 0.33474 0.82528 0.15844 0.0
C1062 C 0.32388 0.80059 0.16092 0.0
C1063 C 0.30557 0.78811 0.18273 0.0
H1064 H 0.1752 0.54937 0.07132 0.0
H1065 H 0.12015 0.52904 0.14227 0.0
H1066 H 0.19423 0.53325 0.10483 0.0
H1067 H 0.1396 0.5133 0.17638 0.0
H1068 H 0.17289 0.47186 0.21964 0.0
H1069 H 0.15091 0.48259 0.18206 0.0
H1070 H 0.21602 0.54481 0.15435 0.0
H1071 H 0.23783 0.53401 0.19097 0.0
C1072 C 0.16714 0.54144 0.09412 0.0
C1073 C 0.14628 0.54067 0.10427 0.0
C1074 C 0.17811 0.53225 0.1134 0.0
C1075 C 0.16858 0.52216 0.14346 0.0
C1076 C 0.1473 0.52076 0.15325 0.0
C1077 C 0.13625 0.52992 0.13382 0.0
C1078 C 0.1825 0.48764 0.20518 0.0
C1079 C 0.20714 0.50208 0.20844 0.0
C1080 C 0.16989 0.4939 0.18386 0.0
C1081 C 0.18169 0.51458 0.16518 0.0
C1082 C 0.20636 0.5286 0.16797 0.0
C1083 C 0.21888 0.52245 0.18923 0.0
H1084 H 0.53483 0.70582 0.216 0.0
H1085 H 0.47022 0.70576 0.19353 0.0
H1086 H 0.52395 0.6736 0.17761 0.0
H1087 H 0.4593 0.67359 0.15607 0.0
H1088 H 0.45383 0.62913 0.07093 0.0
H1089 H 0.46961 0.66412 0.10487 0.0
H1090 H 0.49443 0.63134 0.17267 0.0
H1091 H 0.47902 0.59644 0.13824 0.0
C1092 C 0.51844 0.69911 0.20276 0.0
C1093 C 0.5034 0.7084 0.20799 0.0
C1094 C 0.51212 0.68053 0.18095 0.0
C1095 C 0.49074 0.67098 0.16374 0.0
C1096 C 0.47604 0.68068 0.1685 0.0
C1097 C 0.48227 0.69909 0.19026 0.0
C1098 C 0.46278 0.62943 0.09297 0.0
C1099 C 0.46502 0.60995 0.10201 0.0
C1100 C 0.47176 0.64947 0.11251 0.0
C1101 C 0.48315 0.6505 0.14165 0.0
C1102 C 0.48597 0.63124 0.15026 0.0
C1103 C 0.47699 0.61117 0.13064 0.0
H1104 H 0.12084 0.59463 0.63778 0.0
H1105 H 0.17576 0.62831 0.56644 0.0
H1106 H 0.13954 0.63072 0.67002 0.0
H1107 H 0.19401 0.6645 0.59797 0.0
H1108 H 0.23703 0.70969 0.68348 0.0
H1109 H 0.21596 0.67715 0.64654 0.0
H1110 H 0.1499 0.67194 0.67475 0.0
H1111 H 0.17114 0.70444 0.71279 0.0
C1112 C 0.13673 0.60984 0.6288 0.0
C1113 C 0.14698 0.60854 0.59977 0.0
C1114 C 0.14736 0.6306 0.64715 0.0
C1115 C 0.1684 0.65053 0.63674 0.0
C1116 C 0.17809 0.64939 0.60707 0.0
C1117 C 0.16758 0.62864 0.58891 0.0
C1118 C 0.21803 0.70187 0.68164 0.0
C1119 C 0.2058 0.70964 0.70135 0.0
C1120 C 0.20591 0.68322 0.66019 0.0
C1121 C 0.18117 0.67178 0.65767 0.0
C1122 C 0.16893 0.68014 0.6764 0.0
C1123 C 0.18113 0.69894 0.69795 0.0
H1124 H 0.30405 0.47055 0.71435 0.0
H1125 H 0.3008 0.53269 0.68723 0.0
H1126 H 0.33665 0.48176 0.67641 0.0
H1127 H 0.33335 0.54402 0.65035 0.0
H1128 H 0.37984 0.55098 0.56791 0.0
H1129 H 0.34428 0.53378 0.60071 0.0
H1130 H 0.37847 0.51239 0.67115 0.0
H1131 H 0.41401 0.52913 0.63766 0.0
C1132 C 0.31007 0.48642 0.7001 0.0
C1133 C 0.29981 0.50073 0.70397 0.0
C1134 C 0.32889 0.49296 0.67859 0.0
C1135 C 0.33768 0.51383 0.66034 0.0
C1136 C 0.32689 0.52767 0.66361 0.0
C1137 C 0.30825 0.52122 0.68504 0.0
C1138 C 0.37975 0.54248 0.59029 0.0
C1139 C 0.39981 0.54161 0.60034 0.0
C1140 C 0.35936 0.53267 0.60918 0.0
C1141 C 0.35854 0.52189 0.63877 0.0
C1142 C 0.37839 0.52037 0.64837 0.0
C1143 C 0.39882 0.5301 0.62931 0.0
H1144 H 0.53532 0.83472 0.71944 0.0
H1145 H 0.47463 0.76891 0.68986 0.0
H1146 H 0.5239 0.85607 0.68168 0.0
H1147 H 0.46306 0.79003 0.65328 0.0
H1148 H 0.45548 0.82963 0.57179 0.0
H1149 H 0.47324 0.81175 0.60438 0.0
H1150 H 0.49277 0.86639 0.67581 0.0
H1151 H 0.47553 0.88476 0.64246 0.0
C1152 C 0.51975 0.82479 0.7047 0.0
C1153 C 0.50588 0.8001 0.70783 0.0
C1154 C 0.51308 0.83703 0.68329 0.0
C1155 C 0.49252 0.8248 0.66442 0.0
C1156 C 0.47916 0.80007 0.66699 0.0
C1157 C 0.48575 0.78793 0.68827 0.0
C1158 C 0.46368 0.83793 0.59436 0.0
C1159 C 0.46388 0.85847 0.60471 0.0
C1160 C 0.47382 0.82763 0.61313 0.0
C1161 C 0.48423 0.83745 0.64295 0.0
C1162 C 0.48509 0.85846 0.65287 0.0
C1163 C 0.47506 0.86889 0.63389 0.0
H1164 H 0.26216 0.45725 0.19209 0.0
H1165 H 0.29802 0.50965 0.26594 0.0
H1166 H 0.2981 0.47573 0.1594 0.0
H1167 H 0.33397 0.52763 0.23392 0.0
H1168 H 0.3796 0.57199 0.14964 0.0
H1169 H 0.34672 0.55084 0.18611 0.0
H1170 H 0.33909 0.48451 0.1541 0.0
H1171 H 0.37199 0.50587 0.1166 0.0
C1172 C 0.27778 0.47256 0.20146 0.0
C1173 C 0.27719 0.48218 0.23139 0.0
C1174 C 0.29843 0.48303 0.18287 0.0
C1175 C 0.31892 0.50327 0.19393 0.0
C1176 C 0.31843 0.51234 0.22438 0.0
C1177 C 0.29781 0.50199 0.24279 0.0
C1178 C 0.37114 0.5529 0.15051 0.0
C1179 C 0.37838 0.54064 0.12999 0.0
C1180 C 0.35231 0.54074 0.17167 0.0
C1181 C 0.34016 0.51594 0.17303 0.0
C1182 C 0.3479 0.50362 0.15336 0.0
C1183 C 0.3669 0.51586 0.13213 0.0
H1184 H 0.49533 0.7893 0.2648 0.0
H1185 H 0.54936 0.80918 0.1924 0.0
H1186 H 0.47667 0.80658 0.23276 0.0
H1187 H 0.5303 0.82605 0.1598 0.0
H1188 H 0.49941 0.86962 0.11886 0.0
H1189 H 0.52054 0.8577 0.15608 0.0
H1190 H 0.45435 0.79678 0.18381 0.0
H1191 H 0.43333 0.80884 0.1475 0.0
C1192 C 0.50323 0.79736 0.24199 0.0
C1193 C 0.52372 0.79772 0.23102 0.0
C1194 C 0.49248 0.80722 0.22356 0.0
C1195 C 0.50188 0.8176 0.19359 0.0
C1196 C 0.52273 0.81844 0.18292 0.0
C1197 C 0.53355 0.8086 0.20147 0.0
C1198 C 0.48935 0.85393 0.13337 0.0
C1199 C 0.46466 0.84016 0.13007 0.0
C1200 C 0.50149 0.84697 0.15444 0.0
C1201 C 0.48917 0.8262 0.17282 0.0
C1202 C 0.46442 0.813 0.17035 0.0
C1203 C 0.45235 0.81988 0.14931 0.0
H1204 H 0.23448 0.71896 0.24425 0.0
H1205 H 0.18248 0.73631 0.2111 0.0
H1206 H 0.21739 0.68423 0.21048 0.0
H1207 H 0.16381 0.70026 0.17895 0.0
H1208 H 0.15202 0.64763 0.09798 0.0
H1209 H 0.16562 0.68146 0.13378 0.0
H1210 H 0.18795 0.64679 0.20251 0.0
H1211 H 0.17617 0.61414 0.16519 0.0
C1212 C 0.21909 0.7151 0.23005 0.0
C1213 C 0.20989 0.73041 0.23023 0.0
C1214 C 0.20899 0.69489 0.21083 0.0
C1215 C 0.18886 0.68894 0.19195 0.0
C1216 C 0.17947 0.70423 0.19258 0.0
C1217 C 0.19006 0.72488 0.21119 0.0
C1218 C 0.15957 0.64725 0.12099 0.0
C1219 C 0.16318 0.62842 0.12886 0.0
C1220 C 0.16735 0.66663 0.14168 0.0
C1221 C 0.17838 0.66733 0.17113 0.0
C1222 C 0.18043 0.64754 0.17969 0.0
C1223 C 0.17335 0.62858 0.15855 0.0
H1224 H 0.10211 0.14943 0.29024 0.0
H1225 H 0.17124 0.20456 0.32015 0.0
H1226 H 0.11997 0.13732 0.24891 0.0
H1227 H 0.18937 0.19198 0.27866 0.0
H1228 H 0.15514 0.09982 0.2103 0.0
H1229 H 0.14255 0.11704 0.25197 0.0
H1230 H 0.19354 0.18703 0.21905 0.0
H1231 H 0.20664 0.16957 0.17726 0.0
C1232 C 0.12117 0.15909 0.28785 0.0
C1233 C 0.13525 0.17776 0.3088 0.0
C1234 C 0.13145 0.15203 0.26425 0.0
C1235 C 0.15614 0.16325 0.26105 0.0
C1236 C 0.17029 0.1829 0.28065 0.0
C1237 C 0.15992 0.19012 0.30434 0.0
C1238 C 0.16393 0.11889 0.21212 0.0
C1239 C 0.18167 0.13332 0.1902 0.0
C1240 C 0.15659 0.12879 0.2359 0.0
C1241 C 0.16657 0.15341 0.23827 0.0
C1242 C 0.18542 0.16799 0.21772 0.0
C1243 C 0.19295 0.158 0.19387 0.0
H1244 H 0.79794 0.95872 0.31043 0.0
H1245 H 0.86464 0.9607 0.29869 0.0
H1246 H 0.80777 0.98568 0.26437 0.0
H1247 H 0.87438 0.98747 0.25403 0.0
H1248 H 0.87901 0.01536 0.15747 0.0
H1249 H 0.86128 0.9857 0.19923 0.0
H1250 H 0.83752 0.02835 0.24803 0.0
H1251 H 0.85487 0.05812 0.20496 0.0
C1252 C 0.81454 0.96472 0.298 0.0
C1253 C 0.83042 0.9574 0.30828 0.0
C1254 C 0.82023 0.98029 0.27184 0.0
C1255 C 0.84176 0.98855 0.25534 0.0
C1256 C 0.85744 0.98112 0.2657 0.0
C1257 C 0.85187 0.96579 0.29161 0.0
C1258 C 0.86983 0.01839 0.17693 0.0
C1259 C 0.86878 0.0393 0.17834 0.0
C1260 C 0.85967 1.00137 0.20091 0.0
C1261 C 0.84849 0.0049 0.22738 0.0
C1262 C 0.84606 0.02514 0.22794 0.0
C1263 C 0.85605 0.04221 0.20343 0.0
H1264 H 0.96512 0.80252 0.18068 0.0
H1265 H 0.95202 0.85758 0.21366 0.0
H1266 H 0.9968 0.81488 0.22073 0.0
H1267 H 0.98313 0.86958 0.25337 0.0
H1268 H 0.05767 0.90749 0.28583 0.0
H1269 H 0.02649 0.88971 0.24596 0.0
H1270 H 0.00722 0.82024 0.28122 0.0
H1271 H 0.039 0.83822 0.3214 0.0
C1272 C 0.96859 0.81685 0.19691 0.0
C1273 C 0.95626 0.82929 0.19365 0.0
C1274 C 0.98677 0.82396 0.21974 0.0
C1275 C 0.99287 0.8436 0.23961 0.0
C1276 C 0.97935 0.85483 0.23778 0.0
C1277 C 0.96137 0.84783 0.21512 0.0
C1278 C 0.04707 0.8884 0.28487 0.0
C1279 C 0.05064 0.8743 0.3071 0.0
C1280 C 0.02906 0.8782 0.26213 0.0
C1281 C 0.01395 0.8536 0.26102 0.0
C1282 C 0.0185 0.83927 0.28165 0.0
C1283 C 0.03673 0.84956 0.30454 0.0
H1284 H 0.83942 0.8013 0.67819 0.0
H1285 H 0.90843 0.85757 0.70653 0.0
H1286 H 0.82123 0.81436 0.71901 0.0
H1287 H 0.89048 0.87021 0.74706 0.0
H1288 H 0.85457 0.90797 0.78238 0.0
H1289 H 0.86701 0.88987 0.7418 0.0
H1290 H 0.81783 0.82071 0.77916 0.0
H1291 H 0.80493 0.83903 0.82001 0.0
C1292 C 0.85072 0.81609 0.69352 0.0
C1293 C 0.87536 0.82862 0.68877 0.0
C1294 C 0.8403 0.82359 0.71682 0.0
C1295 C 0.85438 0.84369 0.73569 0.0
C1296 C 0.87906 0.8551 0.73227 0.0
C1297 C 0.88938 0.84774 0.70912 0.0
C1298 C 0.84612 0.88888 0.78179 0.0
C1299 C 0.82899 0.87498 0.80474 0.0
C1300 C 0.85338 0.87849 0.75861 0.0
C1301 C 0.84389 0.85388 0.7578 0.0
C1302 C 0.82557 0.83974 0.77931 0.0
C1303 C 0.81815 0.85022 0.80261 0.0
H1304 H 0.14237 0.04429 0.70073 0.0
H1305 H 0.20812 0.04447 0.68811 0.0
H1306 H 0.13215 0.01718 0.74514 0.0
H1307 H 0.19781 0.01717 0.73386 0.0
H1308 H 0.15039 0.94528 0.79386 0.0
H1309 H 0.16736 0.97464 0.75024 0.0
H1310 H 0.14547 0.01854 0.79976 0.0
H1311 H 0.1282 0.9894 0.84212 0.0
C1312 C 0.15482 0.03871 0.70755 0.0
C1313 C 0.17615 0.04671 0.69073 0.0
C1314 C 0.14897 0.02318 0.73329 0.0
C1315 C 0.16424 0.01513 0.74331 0.0
C1316 C 0.18565 0.02301 0.72664 0.0
C1317 C 0.19162 0.0388 0.70067 0.0
C1318 C 0.14944 0.96133 0.79537 0.0
C1319 C 0.1374 0.96473 0.82096 0.0
C1320 C 0.15924 0.97817 0.77055 0.0
C1321 C 0.15731 0.9987 0.77122 0.0
C1322 C 0.14668 1.00264 0.79799 0.0
C1323 C 0.13675 0.98588 0.82231 0.0
H1324 H 0.96185 0.16335 0.68791 0.0
H1325 H 0.96649 0.09987 0.69654 0.0
H1326 H 0.98862 0.18035 0.73415 0.0
H1327 H 0.99305 0.1168 0.74154 0.0
H1328 H 0.0184 0.13893 0.84017 0.0
H1329 H 0.98983 0.12671 0.79703 0.0
H1330 H 0.03179 0.19429 0.7506 0.0
H1331 H 0.06062 0.20697 0.7949 0.0
C1332 C 0.96841 0.15298 0.69967 0.0
C1333 C 0.96185 0.13016 0.68852 0.0
C1334 C 0.98388 0.1628 0.72593 0.0
C1335 C 0.99281 0.14985 0.74167 0.0
C1336 C 0.9862 0.12712 0.73039 0.0
C1337 C 0.97098 0.11743 0.70434 0.0
C1338 C 0.02163 0.15133 0.82089 0.0
C1339 C 0.04211 0.17374 0.8206 0.0
C1340 C 0.00518 0.14429 0.79612 0.0
C1341 C 0.00878 0.15931 0.77001 0.0
C1342 C 0.02856 0.1823 0.7704 0.0
C1343 C 0.0451 0.18952 0.79562 0.0
H1344 H 0.7676 0.4736 0.63215 0.0
H1345 H 0.83223 0.54049 0.64356 0.0
H1346 H 0.78468 0.46393 0.58743 0.0
H1347 H 0.84939 0.53071 0.59755 0.0
H1348 H 0.87483 0.4837 0.53819 0.0
H1349 H 0.86233 0.50077 0.58149 0.0
H1350 H 0.79603 0.47745 0.53246 0.0
H1351 H 0.80805 0.46007 0.49041 0.0
C1352 C 0.78545 0.48641 0.62499 0.0
C1353 C 0.79847 0.5079 0.64155 0.0
C1354 C 0.79523 0.48087 0.59908 0.0
C1355 C 0.81833 0.49664 0.58868 0.0
C1356 C 0.83155 0.5182 0.60508 0.0
C1357 C 0.82164 0.52385 0.63121 0.0
C1358 C 0.85774 0.48253 0.53667 0.0
C1359 C 0.84216 0.47003 0.51142 0.0
C1360 C 0.85062 0.49237 0.5613 0.0
C1361 C 0.82797 0.49 0.56071 0.0
C1362 C 0.8133 0.47902 0.53413 0.0
C1363 C 0.82021 0.46904 0.51 0.0
H1364 H 0.52239 0.28366 0.61846 0.0
H1365 H 0.47243 0.30326 0.65366 0.0
H1366 H 0.53536 0.31397 0.5774 0.0
H1367 H 0.48586 0.33426 0.61238 0.0
H1368 H 0.50877 0.37511 0.51151 0.0
H1369 H 0.49005 0.34395 0.55239 0.0
H1370 H 0.55889 0.35703 0.582 0.0
H1371 H 0.57736 0.38751 0.54139 0.0
C1372 C 0.51397 0.29431 0.61721 0.0
C1373 C 0.49659 0.29123 0.63962 0.0
C1374 C 0.52154 0.31184 0.59378 0.0
C1375 C 0.51212 0.32699 0.59217 0.0
C1376 C 0.49355 0.32295 0.61312 0.0
C1377 C 0.48582 0.30516 0.63667 0.0
C1378 C 0.51986 0.37156 0.52718 0.0
C1379 C 0.54455 0.38356 0.52286 0.0
C1380 C 0.50914 0.35369 0.55052 0.0
C1381 C 0.52294 0.34759 0.56987 0.0
C1382 C 0.54767 0.36075 0.56684 0.0
C1383 C 0.55829 0.37838 0.54364 0.0
H1384 H 0.63013 0.19691 0.53175 0.0
H1385 H 0.62697 0.12951 0.5224 0.0
H1386 H 0.65762 0.20731 0.57564 0.0
H1387 H 0.65463 0.14001 0.56771 0.0
H1388 H 0.7274 0.18634 0.62577 0.0
H1389 H 0.69745 0.16928 0.58292 0.0
H1390 H 0.65652 0.19549 0.63077 0.0
H1391 H 0.68632 0.21289 0.67231 0.0
C1392 C 0.63511 0.18413 0.5392 0.0
C1393 C 0.62616 0.16228 0.52342 0.0
C1394 C 0.65087 0.1901 0.56466 0.0
C1395 C 0.65817 0.17441 0.57548 0.0
C1396 C 0.64936 0.15249 0.55986 0.0
C1397 C 0.63339 0.14642 0.53412 0.0
C1398 C 0.71188 0.18823 0.62708 0.0
C1399 C 0.70951 0.20149 0.65191 0.0
C1400 C 0.69469 0.17837 0.60271 0.0
C1401 C 0.67485 0.18147 0.6031 0.0
C1402 C 0.6719 0.19336 0.62919 0.0
C1403 C 0.68903 0.20336 0.65304 0.0
H1404 H 0.51034 0.13232 0.01962 0.0
H1405 H 0.57538 0.19879 0.03127 0.0
H1406 H 0.49348 0.14213 0.06597 0.0
H1407 H 0.55862 0.20849 0.07634 0.0
H1408 H 0.53571 0.21196 0.17378 0.0
H1409 H 0.54725 0.19448 0.13129 0.0
H1410 H 0.48113 0.17257 0.08253 0.0
H1411 H 0.46911 0.18976 0.12626 0.0
C1412 C 0.52108 0.14886 0.0321 0.0
C1413 C 0.54427 0.1647 0.02173 0.0
C1414 C 0.51135 0.15454 0.05841 0.0
C1415 C 0.52478 0.17599 0.07497 0.0
C1416 C 0.54791 0.19163 0.06454 0.0
C1417 C 0.5575 0.18608 0.03844 0.0
C1418 C 0.52348 0.20328 0.15415 0.0
C1419 C 0.50174 0.20273 0.15293 0.0
C1420 C 0.53011 0.19324 0.12978 0.0
C1421 C 0.51536 0.18264 0.10316 0.0
C1422 C 0.49289 0.18068 0.10275 0.0
C1423 C 0.48606 0.19059 0.12762 0.0
H1424 H 0.80746 0.37582 0.03263 0.0
H1425 H 0.87372 0.37699 0.02008 0.0
H1426 H 0.79771 0.34904 0.07731 0.0
H1427 H 0.86387 0.35001 0.06611 0.0
H1428 H 0.81696 0.27819 0.12665 0.0
H1429 H 0.83367 0.30736 0.0828 0.0
H1430 H 0.81154 0.35119 0.132 0.0
H1431 H 0.79456 0.32224 0.17464 0.0
C1432 C 0.82013 0.37055 0.03953 0.0
C1433 C 0.84147 0.37874 0.02266 0.0
C1434 C 0.81454 0.3552 0.06541 0.0
C1435 C 0.8301 0.34754 0.07553 0.0
C1436 C 0.8515 0.35558 0.0588 0.0
C1437 C 0.85721 0.37116 0.03266 0.0
C1438 C 0.81593 0.2942 0.12807 0.0
C1439 C 0.8039 0.29763 0.15363 0.0
C1440 C 0.82558 0.31092 0.10311 0.0
C1441 C 0.82347 0.33135 0.10363 0.0
C1442 C 0.81289 0.33536 0.13038 0.0
C1443 C 0.80312 0.31871 0.15486 0.0
H1444 H 0.6143 0.48275 0.04112 0.0
H1445 H 0.65937 0.46486 0.98674 0.0
H1446 H 0.64474 0.50011 0.08329 0.0
H1447 H 0.68975 0.48278 0.02756 0.0
H1448 H 0.71918 0.47903 0.12379 0.0
H1449 H 0.69162 0.46913 0.08006 0.0
H1450 H 0.68594 0.53094 0.09995 0.0
H1451 H 0.7136 0.54077 0.14511 0.0
C1452 C 0.63083 0.48292 0.03795 0.0
C1453 C 0.63425 0.47193 0.01111 0.0
C1454 C 0.6483 0.49295 0.06194 0.0
C1455 C 0.6695 0.49236 0.05913 0.0
C1456 C 0.67339 0.4829 0.03104 0.0
C1457 C 0.65596 0.47264 0.00758 0.0
C1458 C 0.71228 0.49072 0.11895 0.0
C1459 C 0.7187 0.51074 0.13813 0.0
C1460 C 0.69651 0.48509 0.09356 0.0
C1461 C 0.68666 0.49933 0.08621 0.0
C1462 C 0.69315 0.51956 0.10507 0.0
C1463 C 0.70915 0.52529 0.13071 0.0
H1464 H 0.46314 0.8099 0.01041 0.0
H1465 H 0.48257 0.87337 0.95632 0.0
H1466 H 0.48145 0.7974 0.97023 0.0
H1467 H 0.50034 0.86027 0.91474 0.0
H1468 H 0.54084 0.83137 0.85396 0.0
H1469 H 0.531 0.84932 0.89893 0.0
H1470 H 0.46809 0.7823 0.91738 0.0
H1471 H 0.47798 0.76452 0.87384 0.0
C1472 C 0.4714 0.82121 0.9898 0.0
C1473 C 0.47099 0.84235 0.9861 0.0
C1474 C 0.48187 0.81403 0.96671 0.0
C1475 C 0.49183 0.82751 0.93882 0.0
C1476 C 0.49278 0.84946 0.93594 0.0
C1477 C 0.48254 0.85692 0.95959 0.0
C1478 C 0.52512 0.82047 0.86802 0.0
C1479 C 0.51025 0.79646 0.86026 0.0
C1480 C 0.51938 0.8308 0.89355 0.0
C1481 C 0.49884 0.81723 0.91193 0.0
C1482 C 0.48429 0.79323 0.90425 0.0
C1483 C 0.48992 0.78302 0.87897 0.0
H1484 H 0.20832 0.67943 0.82492 0.0
H1485 H 0.18706 0.72348 0.87528 0.0
H1486 H 0.19056 0.64957 0.86646 0.0
H1487 H 0.1697 0.6935 0.9181 0.0
H1488 H 0.12975 0.6243 0.98055 0.0
H1489 H 0.13939 0.65131 0.93462 0.0
H1490 H 0.20431 0.65026 0.9205 0.0
H1491 H 0.19472 0.62343 0.96513 0.0
C1492 C 0.19974 0.68268 0.84496 0.0
C1493 C 0.19951 0.704 0.84723 0.0
C1494 C 0.18958 0.66556 0.86881 0.0
C1495 C 0.17922 0.66937 0.89601 0.0
C1496 C 0.17759 0.69006 0.89744 0.0
C1497 C 0.18758 0.70723 0.87307 0.0
C1498 C 0.14592 0.62965 0.96731 0.0
C1499 C 0.1614 0.62158 0.97655 0.0
C1500 C 0.15151 0.64527 0.94122 0.0
C1501 C 0.17253 0.65281 0.92373 0.0
C1502 C 0.18777 0.64452 0.93297 0.0
C1503 C 0.18229 0.62916 0.95884 0.0
H1504 H 0.35011 0.54187 0.00897 0.0
H1505 H 0.39713 0.52645 0.955 0.0
H1506 H 0.31997 0.52298 0.96801 0.0
H1507 H 0.36693 0.50814 0.91261 0.0
H1508 H 0.29844 0.46616 0.84983 0.0
H1509 H 0.3259 0.47629 0.89538 0.0
H1510 H 0.31842 0.53703 0.91552 0.0
H1511 H 0.29111 0.52684 0.87151 0.0
C1512 C 0.35397 0.53439 0.9882 0.0
C1513 C 0.37614 0.5361 0.98477 0.0
C1514 C 0.33669 0.52357 0.96467 0.0
C1515 C 0.34122 0.51458 0.93659 0.0
C1516 C 0.3629 0.51493 0.93395 0.0
C1517 C 0.38022 0.52549 0.95805 0.0
C1518 C 0.30246 0.48145 0.86438 0.0
C1519 C 0.29249 0.49563 0.85696 0.0
C1520 C 0.31833 0.48736 0.89024 0.0
C1521 C 0.32424 0.50738 0.90928 0.0
C1522 C 0.31398 0.52123 0.90189 0.0
C1523 C 0.29835 0.51543 0.87632 0.0
H1524 H 0.19862 0.54248 0.51206 0.0
H1525 H 0.13485 0.52326 0.45875 0.0
H1526 H 0.21116 0.52482 0.47102 0.0
H1527 H 0.14797 0.50608 0.41641 0.0
H1528 H 0.1767 0.466 0.35442 0.0
H1529 H 0.15896 0.47556 0.39992 0.0
H1530 H 0.22595 0.53857 0.41804 0.0
H1531 H 0.24355 0.52897 0.37393 0.0
C1532 C 0.18725 0.53444 0.49143 0.0
C1533 C 0.166 0.53472 0.48824 0.0
C1534 C 0.19446 0.52432 0.46786 0.0
C1535 C 0.18088 0.51455 0.44001 0.0
C1536 C 0.15886 0.5135 0.43757 0.0
C1537 C 0.15139 0.52341 0.46167 0.0
C1538 C 0.18765 0.48169 0.3685 0.0
C1539 C 0.21159 0.49666 0.36049 0.0
C1540 C 0.17743 0.48726 0.39434 0.0
C1541 C 0.19105 0.50775 0.41277 0.0
C1542 C 0.21499 0.52241 0.40485 0.0
C1543 C 0.22509 0.51694 0.37926 0.0
H1544 H 0.46672 0.65913 0.51229 0.0
H1545 H 0.48228 0.61332 0.45562 0.0
H1546 H 0.48471 0.68973 0.47175 0.0
H1547 H 0.49968 0.64399 0.41374 0.0
H1548 H 0.54036 0.71243 0.3518 0.0
H1549 H 0.53088 0.68483 0.39694 0.0
H1550 H 0.47062 0.69248 0.42004 0.0
H1551 H 0.48022 0.72 0.37628 0.0
C1552 C 0.47401 0.65561 0.49101 0.0
C1553 C 0.47262 0.63364 0.48675 0.0
C1554 C 0.48431 0.67316 0.46771 0.0
C1555 C 0.49312 0.66914 0.43908 0.0
C1556 C 0.49304 0.64765 0.43552 0.0
C1557 C 0.48298 0.63005 0.45934 0.0
C1558 C 0.52534 0.70846 0.36694 0.0
C1559 C 0.51108 0.71849 0.36038 0.0
C1560 C 0.51979 0.69249 0.39256 0.0
C1561 C 0.50005 0.6865 0.41225 0.0
C1562 C 0.4862 0.69694 0.40586 0.0
C1563 C 0.49165 0.71269 0.38047 0.0
H1564 H 0.34943 0.8046 0.50761 0.0
H1565 H 0.39259 0.87232 0.46206 0.0
H1566 H 0.32065 0.79293 0.46481 0.0
H1567 H 0.36364 0.86015 0.41796 0.0
H1568 H 0.29391 0.83018 0.35473 0.0
H1569 H 0.3209 0.84711 0.40086 0.0
H1570 H 0.32323 0.78251 0.40981 0.0
H1571 H 0.29647 0.76567 0.36521 0.0
C1572 C 0.35282 0.81703 0.48831 0.0
C1573 C 0.37361 0.83918 0.48785 0.0
C1574 C 0.33626 0.81031 0.46373 0.0
C1575 C 0.34008 0.82537 0.43755 0.0
C1576 C 0.36021 0.84814 0.43779 0.0
C1577 C 0.37683 0.85505 0.46289 0.0
C1578 C 0.30006 0.81959 0.36682 0.0
C1579 C 0.29281 0.79647 0.35624 0.0
C1580 C 0.31565 0.82936 0.39304 0.0
C1581 C 0.32403 0.81607 0.40923 0.0
C1582 C 0.31679 0.7931 0.39841 0.0
C1583 C 0.30143 0.78346 0.37252 0.0
H1584 H 0.27233 0.12517 0.18189 0.0
H1585 H 0.29558 0.17748 0.10662 0.0
H1586 H 0.31319 0.14012 0.19811 0.0
H1587 H 0.33653 0.19165 0.12142 0.0
H1588 H 0.40685 0.22679 0.17344 0.0
H1589 H 0.36609 0.2125 0.15822 0.0
H1590 H 0.3484 0.14155 0.18488 0.0
H1591 H 0.38918 0.15634 0.2019 0.0
C1592 C 0.28623 0.13988 0.16877 0.0
C1593 C 0.28072 0.15024 0.1431 0.0
C1594 C 0.30975 0.14831 0.17781 0.0
C1595 C 0.32845 0.16707 0.16103 0.0
C1596 C 0.32278 0.17749 0.13542 0.0
C1597 C 0.29923 0.16932 0.12678 0.0
C1598 C 0.39429 0.2081 0.17587 0.0
C1599 C 0.40127 0.19269 0.18885 0.0
C1600 C 0.37081 0.19982 0.16696 0.0
C1601 C 0.35366 0.17578 0.17021 0.0
C1602 C 0.36085 0.16026 0.18257 0.0
C1603 C 0.38432 0.16866 0.19205 0.0
H1604 H 0.84976 0.22973 0.19995 0.0
H1605 H 0.77931 0.17805 0.16971 0.0
H1606 H 0.86409 0.2034 0.18322 0.0
H1607 H 0.79324 0.1512 0.15448 0.0
H1608 H 0.8296 0.11608 0.10363 0.0
H1609 H 0.81496 0.14257 0.11815 0.0
H1610 H 0.86391 0.16887 0.1979 0.0
H1611 H 0.87923 0.14322 0.18225 0.0
C1612 C 0.83734 0.21273 0.18971 0.0
C1613 C 0.81343 0.20603 0.18609 0.0
C1614 C 0.84548 0.19746 0.18041 0.0
C1615 C 0.82983 0.17491 0.16772 0.0
C1616 C 0.80596 0.16845 0.16369 0.0
C1617 C 0.79791 0.18386 0.17255 0.0
C1618 C 0.83705 0.12737 0.12444 0.0
C1619 C 0.85559 0.12757 0.14175 0.0
C1620 C 0.82863 0.14259 0.13286 0.0
C1621 C 0.83833 0.15816 0.15912 0.0
C1622 C 0.85636 0.15767 0.17704 0.0
C1623 C 0.86499 0.14273 0.16832 0.0
H1624 H 0.78509 0.62402 0.22385 0.0
H1625 H 0.81615 0.60248 0.14926 0.0
H1626 H 0.81103 0.66526 0.20917 0.0
H1627 H 0.84126 0.64351 0.13335 0.0
H1628 H 0.89985 0.72027 0.13112 0.0
H1629 H 0.87445 0.67922 0.14761 0.0
H1630 H 0.81917 0.69457 0.1717 0.0
H1631 H 0.84494 0.73557 0.15687 0.0
C1632 C 0.79716 0.62809 0.2039 0.0
C1633 C 0.79855 0.60999 0.18773 0.0
C1634 C 0.81207 0.65179 0.19535 0.0
C1635 C 0.82849 0.65798 0.17005 0.0
C1636 C 0.82935 0.63967 0.15341 0.0
C1637 C 0.81472 0.61604 0.1623 0.0
C1638 C 0.88234 0.71484 0.1402 0.0
C1639 C 0.87449 0.73122 0.1428 0.0
C1640 C 0.86762 0.69122 0.14941 0.0
C1641 C 0.84455 0.68332 0.16098 0.0
C1642 C 0.83686 0.69987 0.16356 0.0
C1643 C 0.85167 0.72348 0.15484 0.0
H1644 H 0.22863 0.4028 0.32329 0.0
H1645 H 0.15785 0.3864 0.29869 0.0
H1646 H 0.21416 0.36191 0.33755 0.0
H1647 H 0.14291 0.34533 0.31475 0.0
H1648 H 0.12606 0.26883 0.3166 0.0
H1649 H 0.14085 0.30973 0.30055 0.0
H1650 H 0.19379 0.33292 0.37535 0.0
H1651 H 0.17973 0.292 0.39001 0.0
C1652 C 0.20983 0.39048 0.32145 0.0
C1653 C 0.19437 0.39789 0.30995 0.0
C1654 C 0.20146 0.36693 0.32984 0.0
C1655 C 0.17727 0.35008 0.32754 0.0
C1656 C 0.16171 0.35761 0.31639 0.0
C1657 C 0.1702 0.38121 0.30745 0.0
C1658 C 0.14104 0.28271 0.32931 0.0
C1659 C 0.15184 0.27718 0.35442 0.0
C1660 C 0.14938 0.30623 0.32037 0.0
C1661 C 0.16852 0.32488 0.33666 0.0
C1662 C 0.17933 0.31919 0.36172 0.0
C1663 C 0.17124 0.29566 0.37027 0.0
H1664 H 0.60547 0.82914 0.32034 0.0
H1665 H 0.61977 0.77315 0.29721 0.0
H1666 H 0.64652 0.85473 0.33473 0.0
H1667 H 0.66096 0.79842 0.31344 0.0
H1668 H 0.73834 0.85641 0.31666 0.0
H1669 H 0.69741 0.83114 0.29995 0.0
H1670 H 0.67491 0.86266 0.37307 0.0
H1671 H 0.71586 0.88867 0.38834 0.0
C1672 C 0.61736 0.82214 0.31883 0.0
C1673 C 0.6093 0.79904 0.30775 0.0
C1674 C 0.64101 0.83685 0.32731 0.0
C1675 C 0.65731 0.82878 0.32556 0.0
C1676 C 0.64915 0.8055 0.31469 0.0
C1677 C 0.62546 0.79088 0.30564 0.0
C1678 C 0.72462 0.85807 0.32888 0.0
C1679 C 0.73036 0.87467 0.35366 0.0
C1680 C 0.70106 0.84338 0.31954 0.0
C1681 C 0.68258 0.84464 0.33512 0.0
C1682 C 0.6885 0.86136 0.35993 0.0
C1683 C 0.71206 0.87629 0.36886 0.0
H1684 H 0.22358 0.84235 0.2753 0.0
H1685 H 0.19297 0.78878 0.34882 0.0
H1686 H 0.19708 0.8568 0.29032 0.0
H1687 H 0.16726 0.80393 0.3652 0.0
H1688 H 0.10793 0.82126 0.36806 0.0
H1689 H 0.13385 0.80621 0.35164 0.0
H1690 H 0.18843 0.87729 0.32781 0.0
H1691 H 0.16214 0.89187 0.34247 0.0
C1692 C 0.21149 0.83395 0.29513 0.0
C1693 C 0.21043 0.81445 0.31088 0.0
C1694 C 0.19626 0.84228 0.3039 0.0
C1695 C 0.1798 0.83158 0.32906 0.0
C1696 C 0.17922 0.81238 0.34527 0.0
C1697 C 0.19419 0.80383 0.33614 0.0
C1698 C 0.1254 0.83357 0.35901 0.0
C1699 C 0.13288 0.85772 0.35637 0.0
C1700 C 0.14042 0.82501 0.34986 0.0
C1701 C 0.16344 0.84047 0.33833 0.0
C1702 C 0.17077 0.86465 0.33583 0.0
C1703 C 0.15567 0.87309 0.34446 0.0
H1704 H 0.71656 0.8302 0.89243 0.0
H1705 H 0.73819 0.88175 0.81632 0.0
H1706 H 0.67526 0.81541 0.8785 0.0
H1707 H 0.69709 0.8663 0.80117 0.0
H1708 H 0.60434 0.7794 0.82735 0.0
H1709 H 0.6453 0.7941 0.84191 0.0
H1710 H 0.66198 0.86484 0.81579 0.0
H1711 H 0.62096 0.84969 0.79957 0.0
C1712 C 0.71249 0.83806 0.8723 0.0
C1713 C 0.73064 0.85713 0.85549 0.0
C1714 C 0.68875 0.82956 0.8642 0.0
C1715 C 0.68258 0.83967 0.83871 0.0
C1716 C 0.70093 0.85836 0.82141 0.0
C1717 C 0.72459 0.86708 0.82986 0.0
C1718 C 0.61671 0.79814 0.82487 0.0
C1719 C 0.60936 0.81338 0.81229 0.0
C1720 C 0.6403 0.80664 0.83342 0.0
C1721 C 0.65723 0.83074 0.8301 0.0
C1722 C 0.64969 0.84609 0.81813 0.0
C1723 C 0.62609 0.83748 0.80909 0.0
H1724 H 0.21197 0.80923 0.8516 0.0
H1725 H 0.16189 0.78242 0.77348 0.0
H1726 H 0.19728 0.83541 0.86734 0.0
H1727 H 0.1479 0.80942 0.78807 0.0
H1728 H 0.11304 0.84548 0.8395 0.0
H1729 H 0.12659 0.81834 0.82447 0.0
H1730 H 0.19763 0.87011 0.85312 0.0
H1731 H 0.18363 0.89679 0.86971 0.0
C1732 C 0.19777 0.80892 0.83779 0.0
C1733 C 0.18804 0.79368 0.81137 0.0
C1734 C 0.18951 0.82418 0.84658 0.0
C1735 C 0.17151 0.82488 0.82885 0.0
C1736 C 0.16153 0.80927 0.80267 0.0
C1737 C 0.16958 0.79376 0.7942 0.0
C1738 C 0.1316 0.85115 0.8424 0.0
C1739 C 0.14726 0.87332 0.85583 0.0
C1740 C 0.13944 0.83556 0.83362 0.0
C1741 C 0.16326 0.84182 0.8376 0.0
C1742 C 0.17905 0.86433 0.8503 0.0
C1743 C 0.17111 0.87981 0.85952 0.0
H1744 H 0.19503 0.40424 0.84714 0.0
H1745 H 0.22434 0.38193 0.77113 0.0
H1746 H 0.16924 0.36327 0.86272 0.0
H1747 H 0.19766 0.34074 0.78547 0.0
H1748 H 0.16157 0.26968 0.83738 0.0
H1749 H 0.18832 0.31044 0.82186 0.0
H1750 H 0.13536 0.32858 0.84828 0.0
H1751 H 0.10915 0.28795 0.86542 0.0
C1752 C 0.19593 0.39052 0.83372 0.0
C1753 C 0.21178 0.39635 0.80797 0.0
C1754 C 0.1809 0.36692 0.8424 0.0
C1755 C 0.18097 0.3484 0.8252 0.0
C1756 C 0.19717 0.35435 0.79966 0.0
C1757 C 0.2125 0.37803 0.79133 0.0
C1758 C 0.15557 0.28235 0.83965 0.0
C1759 C 0.13323 0.27556 0.8527 0.0
C1760 C 0.17093 0.30581 0.8306 0.0
C1761 C 0.16424 0.32311 0.8339 0.0
C1762 C 0.14151 0.31604 0.84605 0.0
C1763 C 0.12629 0.29263 0.85558 0.0
H1764 H 0.82929 0.71428 0.60591 0.0
H1765 H 0.88249 0.73641 0.67985 0.0
H1766 H 0.81469 0.67312 0.62017 0.0
H1767 H 0.86721 0.6954 0.69542 0.0
H1768 H 0.85075 0.61944 0.69659 0.0
H1769 H 0.86548 0.66029 0.68017 0.0
H1770 H 0.79413 0.6434 0.65738 0.0
H1771 H 0.7798 0.6025 0.67211 0.0
C1772 C 0.83756 0.71034 0.62566 0.0
C1773 C 0.85703 0.72858 0.64174 0.0
C1774 C 0.82916 0.68669 0.63396 0.0
C1775 C 0.83978 0.68069 0.65893 0.0
C1776 C 0.85887 0.69912 0.67557 0.0
C1777 C 0.8675 0.72272 0.6669 0.0
C1778 C 0.83831 0.62447 0.68773 0.0
C1779 C 0.81414 0.60772 0.68553 0.0
C1780 C 0.84668 0.64798 0.67861 0.0
C1781 C 0.83103 0.65541 0.66758 0.0
C1782 C 0.80686 0.63846 0.66517 0.0
C1783 C 0.79858 0.61492 0.67378 0.0
H1784 H 0.26853 0.14808 0.68346 0.0
H1785 H 0.2916 0.11702 0.61082 0.0
H1786 H 0.30947 0.17437 0.69928 0.0
H1787 H 0.33254 0.14407 0.62517 0.0
H1788 H 0.40278 0.17991 0.67628 0.0
H1789 H 0.36185 0.15327 0.66239 0.0
H1790 H 0.34507 0.20777 0.68519 0.0
H1791 H 0.38618 0.23409 0.70093 0.0
C1792 C 0.28239 0.14689 0.67087 0.0
C1793 C 0.27681 0.13034 0.64606 0.0
C1794 C 0.30595 0.16218 0.67967 0.0
C1795 C 0.3246 0.16161 0.66351 0.0
C1796 C 0.31885 0.14488 0.63874 0.0
C1797 C 0.29529 0.12934 0.63036 0.0
C1798 C 0.39041 0.18631 0.67819 0.0
C1799 C 0.3978 0.20919 0.68961 0.0
C1800 C 0.36681 0.17099 0.67001 0.0
C1801 C 0.34987 0.1782 0.67243 0.0
C1802 C 0.35738 0.20131 0.68348 0.0
C1803 C 0.38103 0.21655 0.69222 0.0
H1804 H 0.90134 0.18198 0.63329 0.0
H1805 H 0.84827 0.11095 0.65921 0.0
H1806 H 0.87469 0.19619 0.64916 0.0
H1807 H 0.8212 0.12476 0.67346 0.0
H1808 H 0.78512 0.15983 0.72442 0.0
H1809 H 0.81192 0.14553 0.71032 0.0
H1810 H 0.84068 0.1968 0.63339 0.0
H1811 H 0.81466 0.21179 0.64873 0.0
C1812 C 0.88398 0.16941 0.64238 0.0
C1813 C 0.87697 0.14538 0.64511 0.0
C1814 C 0.86854 0.17748 0.65117 0.0
C1815 C 0.84557 0.16164 0.66244 0.0
C1816 C 0.83878 0.13762 0.66544 0.0
C1817 C 0.85432 0.12965 0.65712 0.0
C1818 C 0.79702 0.16786 0.7043 0.0
C1819 C 0.79778 0.18693 0.6877 0.0
C1820 C 0.81242 0.15964 0.69611 0.0
C1821 C 0.82874 0.17006 0.67077 0.0
C1822 C 0.82886 0.18866 0.65354 0.0
C1823 C 0.81372 0.1971 0.66207 0.0
H1824 H 0.07257 0.54747 0.48221 0.0
H1825 H 0.04892 0.49667 0.55947 0.0
H1826 H 0.03171 0.53263 0.4659 0.0
H1827 H 0.00805 0.48265 0.54452 0.0
H1828 H 0.95578 0.51711 0.46189 0.0
H1829 H 0.99665 0.53188 0.47863 0.0
H1830 H 0.97844 0.46129 0.5081 0.0
H1831 H 0.93768 0.44708 0.49316 0.0
C1832 C 0.05859 0.5331 0.49571 0.0
C1833 C 0.06398 0.52313 0.52198 0.0
C1834 C 0.03509 0.52475 0.48661 0.0
C1835 C 0.01631 0.50646 0.50392 0.0
C1836 C 0.02186 0.49642 0.53011 0.0
C1837 C 0.04537 0.5045 0.53882 0.0
C1838 C 0.96055 0.50488 0.47232 0.0
C1839 C 0.94345 0.48098 0.4764 0.0
C1840 C 0.98406 0.51326 0.48162 0.0
C1841 C 0.99112 0.49783 0.49472 0.0
C1842 C 0.97383 0.47392 0.4988 0.0
C1843 C 0.95034 0.46569 0.49005 0.0
H1844 H 0.51955 0.56721 0.53206 0.0
H1845 H 0.44927 0.5136 0.50407 0.0
H1846 H 0.5348 0.54162 0.51521 0.0
H1847 H 0.46404 0.4875 0.48899 0.0
H1848 H 0.50002 0.45259 0.43816 0.0
H1849 H 0.48523 0.47896 0.45243 0.0
H1850 H 0.53659 0.50817 0.52923 0.0
H1851 H 0.55212 0.48269 0.51356 0.0
C1852 C 0.50737 0.54994 0.52233 0.0
C1853 C 0.48325 0.5425 0.51927 0.0
C1854 C 0.51603 0.53509 0.51296 0.0
C1855 C 0.5007 0.51225 0.50084 0.0
C1856 C 0.47657 0.50502 0.4976 0.0
C1857 C 0.46802 0.52 0.50642 0.0
C1858 C 0.50801 0.46455 0.45822 0.0
C1859 C 0.52722 0.46556 0.47473 0.0
C1860 C 0.49949 0.47969 0.46655 0.0
C1861 C 0.5097 0.49595 0.49201 0.0
C1862 C 0.52857 0.49641 0.50901 0.0
C1863 C 0.53734 0.48157 0.50028 0.0
H1864 H 0.52663 0.06944 0.51754 0.0
H1865 H 0.55573 0.04656 0.44192 0.0
H1866 H 0.50043 0.02851 0.53313 0.0
H1867 H 0.52867 0.00552 0.45617 0.0
H1868 H 0.49252 0.93481 0.50764 0.0
H1869 H 0.51943 0.97557 0.49277 0.0
H1870 H 0.46641 0.99377 0.51862 0.0
H1871 H 0.43996 0.953 0.53525 0.0
C1872 C 0.52741 0.05561 0.50424 0.0
C1873 C 0.54333 0.06122 0.47862 0.0
C1874 C 0.51215 0.03206 0.51291 0.0
C1875 C 0.5121 0.01345 0.4958 0.0
C1876 C 0.52832 0.01921 0.47034 0.0
C1877 C 0.54387 0.0428 0.46206 0.0
C1878 C 0.48653 0.94748 0.50995 0.0
C1879 C 0.46408 0.94066 0.52263 0.0
C1880 C 0.50198 0.97094 0.50125 0.0
C1881 C 0.49529 0.98823 0.50448 0.0
C1882 C 0.4725 0.98119 0.51641 0.0
C1883 C 0.45717 0.95773 0.52564 0.0
H1884 H 0.5624 0.07042 0.99334 0.0
H1885 H 0.4919 0.05288 0.96519 0.0
H1886 H 0.54798 0.02956 0.00863 0.0
H1887 H 0.4771 0.01209 0.98196 0.0
H1888 H 0.4607 0.93631 0.98287 0.0
H1889 H 0.47645 0.97732 0.96703 0.0
H1890 H 0.52629 0.99958 0.04567 0.0
H1891 H 0.51117 0.95837 0.06043 0.0
C1892 C 0.5437 0.05788 0.99092 0.0
C1893 C 0.52829 0.06491 0.97799 0.0
C1894 C 0.53537 0.03438 0.99984 0.0
C1895 C 0.51132 0.01728 0.99647 0.0
C1896 C 0.49582 0.02453 0.98428 0.0
C1897 C 0.50423 0.04801 0.97494 0.0
C1898 C 0.47521 0.94997 0.99654 0.0
C1899 C 0.48472 0.94408 0.02286 0.0
C1900 C 0.48409 0.97357 0.98769 0.0
C1901 C 0.50251 0.992 0.00524 0.0
C1902 C 0.51231 0.986 0.03126 0.0
C1903 C 0.50362 0.96232 0.03982 0.0
H1904 H 0.95305 0.43668 0.96627 0.0
H1905 H 0.9362 0.49061 0.99141 0.0
H1906 H 0.99384 0.4626 0.98344 0.0
H1907 H 0.97693 0.51693 0.0068 0.0
H1908 H 0.04703 0.55242 0.0594 0.0
H1909 H 0.00606 0.52567 0.04449 0.0
H1910 H 0.02934 0.49612 0.96959 0.0
H1911 H 0.07018 0.52204 0.98588 0.0
C1912 C 0.95808 0.45408 0.97542 0.0
C1913 C 0.94136 0.46151 0.97763 0.0
C1914 C 0.98155 0.4691 0.98498 0.0
C1915 C 0.98895 0.49207 0.99648 0.0
C1916 C 0.97203 0.49932 0.99875 0.0
C1917 C 0.94857 0.4842 0.98972 0.0
C1918 C 0.04336 0.54032 0.0396 0.0
C1919 C 0.06183 0.53937 0.0238 0.0
C1920 C 0.01981 0.52495 0.03092 0.0
C1921 C 0.01414 0.50851 0.00578 0.0
C1922 C 0.0328 0.50805 0.98952 0.0
C1923 C 0.05631 0.52314 0.9986 0.0
H1924 H 0.52817 0.45926 0.01657 0.0
H1925 H 0.55613 0.51078 0.94022 0.0
H1926 H 0.50237 0.47427 0.03313 0.0
H1927 H 0.5295 0.52499 0.95541 0.0
H1928 H 0.49509 0.56058 0.00729 0.0
H1929 H 0.52149 0.5462 0.99248 0.0
H1930 H 0.46824 0.47545 0.02009 0.0
H1931 H 0.44225 0.49036 0.03669 0.0
C1932 C 0.52879 0.47382 0.00333 0.0
C1933 C 0.5443 0.48394 0.97723 0.0
C1934 C 0.51376 0.48228 0.01256 0.0
C1935 C 0.51357 0.50082 0.99558 0.0
C1936 C 0.52931 0.51101 0.96957 0.0
C1937 C 0.54461 0.50282 0.96072 0.0
C1938 C 0.48893 0.54191 0.01006 0.0
C1939 C 0.46652 0.52659 0.0231 0.0
C1940 C 0.50409 0.53358 0.00136 0.0
C1941 C 0.49716 0.50957 0.00491 0.0
C1942 C 0.47449 0.49413 0.01751 0.0
C1943 C 0.45943 0.5026 0.02675 0.0
loop_
_geom_bond_atom_site_label_1
_geom_bond_atom_site_label_2
_geom_bond_distance
_geom_bond_site_symmetry_2
_ccdc_geom_bond_type
Co0 O1 2.216 . S
Co0 O2 2.091 . S
Co0 O4 2.004 . S
Co0 O10 2.021 . S
Co0 O12 2.137 . S
Co0 O13 2.244 . S
O1 Co0 2.216 . S
O1 C8 1.247 . S
O2 Co0 2.091 . S
O2 C8 1.261 . S
C3 O12 1.247 . S
C3 O13 1.272 . S
O4 Co0 2.004 . S
O4 C9 1.259 . S
Co5 O6 2.061 . S
Co5 O11 2.052 . S
Co5 O13 2.135 . S
O6 Co5 2.061 . S
O6 C9 1.235 . S
C7 O10 1.238 . S
C7 O11 1.241 . S
C8 O1 1.247 . S
C8 O2 1.261 . S
C9 O4 1.259 . S
C9 O6 1.235 . S
O10 Co0 2.021 . S
O10 C7 1.238 . S
O11 Co5 2.052 . S
O11 C7 1.241 . S
O12 Co0 2.137 . S
O12 C3 1.247 . S
O13 Co0 2.244 . S
O13 C3 1.272 . S
O13 Co5 2.135 . S
Co14 O15 2.216 . S
Co14 O16 2.091 . S
Co14 O18 2.004 . S
Co14 O24 2.021 . S
Co14 O26 2.137 . S
Co14 O27 2.244 . S
O15 Co14 2.216 . S
O15 C22 1.247 . S
O16 Co14 2.091 . S
O16 C22 1.261 . S
C17 O26 1.247 . S
C17 O27 1.272 . S
O18 Co14 2.004 . S
O18 C23 1.259 . S
Co19 O20 2.061 . S
Co19 O25 2.052 . S
Co19 O27 2.135 . S
O20 Co19 2.061 . S
O20 C23 1.235 . S
C21 O24 1.238 . S
C21 O25 1.241 . S
C22 O15 1.247 . S
C22 O16 1.261 . S
C23 O18 1.259 . S
C23 O20 1.235 . S
O24 Co14 2.021 . S
O24 C21 1.238 . S
O25 Co19 2.052 . S
O25 C21 1.241 . S
O26 Co14 2.137 . S
O26 C17 1.247 . S
O27 Co14 2.244 . S
O27 C17 1.272 . S
O27 Co19 2.135 . S
Co28 O29 2.216 . S
Co28 O30 2.091 . S
Co28 O32 2.004 . S
Co28 O38 2.021 . S
Co28 O40 2.137 . S
Co28 O41 2.244 . S
O29 Co28 2.216 . S
O29 C36 1.247 . S
O30 Co28 2.091 . S
O30 C36 1.261 . S
C31 O40 1.247 . S
C31 O41 1.272 . S
O32 Co28 2.004 . S
O32 C37 1.259 . S
Co33 O34 2.061 . S
Co33 O39 2.052 . S
Co33 O41 2.135 . S
O34 Co33 2.061 . S
O34 C37 1.235 . S
C35 O38 1.238 . S
C35 O39 1.241 . S
C36 O29 1.247 . S
C36 O30 1.261 . S
C37 O32 1.259 . S
C37 O34 1.235 . S
O38 Co28 2.021 . S
O38 C35 1.238 . S
O39 Co33 2.052 . S
O39 C35 1.241 . S
O40 Co28 2.137 . S
O40 C31 1.247 . S
O41 Co28 2.244 . S
O41 C31 1.272 . S
O41 Co33 2.135 . S
Co42 O43 2.216 . S
Co42 O44 2.091 . S
Co42 O46 2.004 . S
Co42 O52 2.021 . S
Co42 O54 2.137 . S
Co42 O55 2.244 . S
O43 Co42 2.216 . S
O43 C50 1.247 . S
O44 Co42 2.091 . S
O44 C50 1.261 . S
C45 O54 1.247 . S
C45 O55 1.272 . S
O46 Co42 2.004 . S
O46 C51 1.259 . S
Co47 O48 2.061 . S
Co47 O53 2.052 . S
Co47 O55 2.135 . S
O48 Co47 2.061 . S
O48 C51 1.235 . S
C49 O52 1.238 . S
C49 O53 1.241 . S
C50 O43 1.247 . S
C50 O44 1.261 . S
C51 O46 1.259 . S
C51 O48 1.235 . S
O52 Co42 2.021 . S
O52 C49 1.238 . S
O53 Co47 2.052 . S
O53 C49 1.241 . S
O54 Co42 2.137 . S
O54 C45 1.247 . S
O55 Co42 2.244 . S
O55 C45 1.272 . S
O55 Co47 2.135 . S
Co56 O57 2.216 . S
Co56 O58 2.091 . S
Co56 O60 2.004 . S
Co56 O66 2.021 . S
Co56 O68 2.137 . S
Co56 O69 2.244 . S
O57 Co56 2.216 . S
O57 C64 1.247 . S
O58 Co56 2.091 . S
O58 C64 1.261 . S
C59 O68 1.247 . S
C59 O69 1.272 . S
O60 Co56 2.004 . S
O60 C65 1.259 . S
Co61 O62 2.061 . S
Co61 O67 2.052 . S
Co61 O69 2.135 . S
O62 Co61 2.061 . S
O62 C65 1.235 . S
C63 O66 1.238 . S
C63 O67 1.241 . S
C64 O57 1.247 . S
C64 O58 1.261 . S
C65 O60 1.259 . S
C65 O62 1.235 . S
O66 Co56 2.021 . S
O66 C63 1.238 . S
O67 Co61 2.052 . S
O67 C63 1.241 . S
O68 Co56 2.137 . S
O68 C59 1.247 . S
O69 Co56 2.244 . S
O69 C59 1.272 . S
O69 Co61 2.135 . S
Co70 O71 2.216 . S
Co70 O72 2.091 . S
Co70 O74 2.004 . S
Co70 O80 2.021 . S
Co70 O82 2.137 . S
Co70 O83 2.244 . S
O71 Co70 2.216 . S
O71 C78 1.247 . S
O72 Co70 2.091 . S
O72 C78 1.261 . S
C73 O82 1.247 . S
C73 O83 1.272 . S
O74 Co70 2.004 . S
O74 C79 1.259 . S
Co75 O76 2.061 . S
Co75 O81 2.052 . S
Co75 O83 2.135 . S
O76 Co75 2.061 . S
O76 C79 1.235 . S
C77 O80 1.238 . S
C77 O81 1.241 . S
C78 O71 1.247 . S
C78 O72 1.261 . S
C79 O74 1.259 . S
C79 O76 1.235 . S
O80 Co70 2.021 . S
O80 C77 1.238 . S
O81 Co75 2.052 . S
O81 C77 1.241 . S
O82 Co70 2.137 . S
O82 C73 1.247 . S
O83 Co70 2.244 . S
O83 C73 1.272 . S
O83 Co75 2.135 . S
Co84 O85 2.216 . S
Co84 O86 2.091 . S
Co84 O88 2.004 . S
Co84 O94 2.021 . S
Co84 O96 2.137 . S
Co84 O97 2.244 . S
O85 Co84 2.216 . S
O85 C92 1.247 . S
O86 Co84 2.091 . S
O86 C92 1.261 . S
C87 O96 1.247 . S
C87 O97 1.272 . S
O88 Co84 2.004 . S
O88 C93 1.259 . S
Co89 O90 2.061 . S
Co89 O95 2.052 . S
Co89 O97 2.135 . S
O90 Co89 2.061 . S
O90 C93 1.235 . S
C91 O94 1.238 . S
C91 O95 1.241 . S
C92 O85 1.247 . S
C92 O86 1.261 . S
C93 O88 1.259 . S
C93 O90 1.235 . S
O94 Co84 2.021 . S
O94 C91 1.238 . S
O95 Co89 2.052 . S
O95 C91 1.241 . S
O96 Co84 2.137 . S
O96 C87 1.247 . S
O97 Co84 2.244 . S
O97 C87 1.272 . S
O97 Co89 2.135 . S
Co98 O99 2.216 . S
Co98 O100 2.091 . S
Co98 O102 2.004 . S
Co98 O108 2.021 . S
Co98 O110 2.137 . S
Co98 O111 2.244 . S
O99 Co98 2.216 . S
O99 C106 1.247 . S
O100 Co98 2.091 . S
O100 C106 1.261 . S
C101 O110 1.247 . S
C101 O111 1.272 . S
O102 Co98 2.004 . S
O102 C107 1.259 . S
Co103 O104 2.061 . S
Co103 O109 2.052 . S
Co103 O111 2.135 . S
O104 Co103 2.061 . S
O104 C107 1.235 . S
C105 O108 1.238 . S
C105 O109 1.241 . S
C106 O99 1.247 . S
C106 O100 1.261 . S
C107 O102 1.259 . S
C107 O104 1.235 . S
O108 Co98 2.021 . S
O108 C105 1.238 . S
O109 Co103 2.052 . S
O109 C105 1.241 . S
O110 Co98 2.137 . S
O110 C101 1.247 . S
O111 Co98 2.244 . S
O111 C101 1.272 . S
O111 Co103 2.135 . S
Co112 O113 2.216 . S
Co112 O114 2.091 . S
Co112 O116 2.004 . S
Co112 O122 2.021 . S
Co112 O124 2.137 . S
Co112 O125 2.244 . S
O113 Co112 2.216 . S
O113 C120 1.247 . S
O114 Co112 2.091 . S
O114 C120 1.261 . S
C115 O124 1.247 . S
C115 O125 1.272 . S
O116 Co112 2.004 . S
O116 C121 1.259 . S
Co117 O118 2.061 . S
Co117 O123 2.052 . S
Co117 O125 2.135 . S
O118 Co117 2.061 . S
O118 C121 1.235 . S
C119 O122 1.238 . S
C119 O123 1.241 . S
C120 O113 1.247 . S
C120 O114 1.261 . S
C121 O116 1.259 . S
C121 O118 1.235 . S
O122 Co112 2.021 . S
O122 C119 1.238 . S
O123 Co117 2.052 . S
O123 C119 1.241 . S
O124 Co112 2.137 . S
O124 C115 1.247 . S
O125 Co112 2.244 . S
O125 C115 1.272 . S
O125 Co117 2.135 . S
Co126 O127 2.216 . S
Co126 O128 2.091 . S
Co126 O130 2.004 . S
Co126 O136 2.021 . S
Co126 O138 2.137 . S
Co126 O139 2.244 . S
O127 Co126 2.216 . S
O127 C134 1.247 . S
O128 Co126 2.091 . S
O128 C134 1.261 . S
C129 O138 1.247 . S
C129 O139 1.272 . S
O130 Co126 2.004 . S
O130 C135 1.259 . S
Co131 O132 2.061 . S
Co131 O137 2.052 . S
Co131 O139 2.135 . S
O132 Co131 2.061 . S
O132 C135 1.235 . S
C133 O136 1.238 . S
C133 O137 1.241 . S
C134 O127 1.247 . S
C134 O128 1.261 . S
C135 O130 1.259 . S
C135 O132 1.235 . S
O136 Co126 2.021 . S
O136 C133 1.238 . S
O137 Co131 2.052 . S
O137 C133 1.241 . S
O138 Co126 2.137 . S
O138 C129 1.247 . S
O139 Co126 2.244 . S
O139 C129 1.272 . S
O139 Co131 2.135 . S
Co140 O141 2.216 . S
Co140 O142 2.091 . S
Co140 O144 2.004 . S
Co140 O150 2.021 . S
Co140 O152 2.137 . S
Co140 O153 2.244 . S
O141 Co140 2.216 . S
O141 C148 1.247 . S
O142 Co140 2.091 . S
O142 C148 1.261 . S
C143 O152 1.247 . S
C143 O153 1.272 . S
O144 Co140 2.004 . S
O144 C149 1.259 . S
Co145 O146 2.061 . S
Co145 O151 2.052 . S
Co145 O153 2.135 . S
O146 Co145 2.061 . S
O146 C149 1.235 . S
C147 O150 1.238 . S
C147 O151 1.241 . S
C148 O141 1.247 . S
C148 O142 1.261 . S
C149 O144 1.259 . S
C149 O146 1.235 . S
O150 Co140 2.021 . S
O150 C147 1.238 . S
O151 Co145 2.052 . S
O151 C147 1.241 . S
O152 Co140 2.137 . S
O152 C143 1.247 . S
O153 Co140 2.244 . S
O153 C143 1.272 . S
O153 Co145 2.135 . S
Co154 O155 2.216 . S
Co154 O156 2.091 . S
Co154 O158 2.004 . S
Co154 O164 2.021 . S
Co154 O166 2.137 . S
Co154 O167 2.244 . S
O155 Co154 2.216 . S
O155 C162 1.247 . S
O156 Co154 2.091 . S
O156 C162 1.261 . S
C157 O166 1.247 . S
C157 O167 1.272 . S
O158 Co154 2.004 . S
O158 C163 1.259 . S
Co159 O160 2.061 . S
Co159 O165 2.052 . S
Co159 O167 2.135 . S
O160 Co159 2.061 . S
O160 C163 1.235 . S
C161 O164 1.238 . S
C161 O165 1.241 . S
C162 O155 1.247 . S
C162 O156 1.261 . S
C163 O158 1.259 . S
C163 O160 1.235 . S
O164 Co154 2.021 . S
O164 C161 1.238 . S
O165 Co159 2.052 . S
O165 C161 1.241 . S
O166 Co154 2.137 . S
O166 C157 1.247 . S
O167 Co154 2.244 . S
O167 C157 1.272 . S
O167 Co159 2.135 . S
Co168 O169 2.216 . S
Co168 O170 2.091 . S
Co168 O172 2.004 . S
Co168 O178 2.021 . S
Co168 O180 2.137 . S
Co168 O181 2.244 . S
O169 Co168 2.216 . S
O169 C176 1.247 . S
O170 Co168 2.091 . S
O170 C176 1.261 . S
C171 O180 1.247 . S
C171 O181 1.272 . S
O172 Co168 2.004 . S
O172 C177 1.259 . S
Co173 O174 2.061 . S
Co173 O179 2.052 . S
Co173 O181 2.135 . S
O174 Co173 2.061 . S
O174 C177 1.235 . S
C175 O178 1.238 . S
C175 O179 1.241 . S
C176 O169 1.247 . S
C176 O170 1.261 . S
C177 O172 1.259 . S
C177 O174 1.235 . S
O178 Co168 2.021 . S
O178 C175 1.238 . S
O179 Co173 2.052 . S
O179 C175 1.241 . S
O180 Co168 2.137 . S
O180 C171 1.247 . S
O181 Co168 2.244 . S
O181 C171 1.272 . S
O181 Co173 2.135 . S
Co182 O183 2.216 . S
Co182 O184 2.091 . S
Co182 O186 2.004 . S
Co182 O192 2.021 . S
Co182 O194 2.137 . S
Co182 O195 2.244 . S
O183 Co182 2.216 . S
O183 C190 1.247 . S
O184 Co182 2.091 . S
O184 C190 1.261 . S
C185 O194 1.247 . S
C185 O195 1.272 . S
O186 Co182 2.004 . S
O186 C191 1.259 . S
Co187 O188 2.061 . S
Co187 O193 2.052 . S
Co187 O195 2.135 . S
O188 Co187 2.061 . S
O188 C191 1.235 . S
C189 O192 1.238 . S
C189 O193 1.241 . S
C190 O183 1.247 . S
C190 O184 1.261 . S
C191 O186 1.259 . S
C191 O188 1.235 . S
O192 Co182 2.021 . S
O192 C189 1.238 . S
O193 Co187 2.052 . S
O193 C189 1.241 . S
O194 Co182 2.137 . S
O194 C185 1.247 . S
O195 Co182 2.244 . S
O195 C185 1.272 . S
O195 Co187 2.135 . S
Co196 O197 2.216 . S
Co196 O198 2.091 . S
Co196 O200 2.004 . S
Co196 O206 2.021 . S
Co196 O208 2.137 . S
Co196 O209 2.244 . S
O197 Co196 2.216 . S
O197 C204 1.247 . S
O198 Co196 2.091 . S
O198 C204 1.261 . S
C199 O208 1.247 . S
C199 O209 1.272 . S
O200 Co196 2.004 . S
O200 C205 1.259 . S
Co201 O202 2.061 . S
Co201 O207 2.052 . S
Co201 O209 2.135 . S
O202 Co201 2.061 . S
O202 C205 1.235 . S
C203 O206 1.238 . S
C203 O207 1.241 . S
C204 O197 1.247 . S
C204 O198 1.261 . S
C205 O200 1.259 . S
C205 O202 1.235 . S
O206 Co196 2.021 . S
O206 C203 1.238 . S
O207 Co201 2.052 . S
O207 C203 1.241 . S
O208 Co196 2.137 . S
O208 C199 1.247 . S
O209 Co196 2.244 . S
O209 C199 1.272 . S
O209 Co201 2.135 . S
Co210 O211 2.216 . S
Co210 O212 2.091 . S
Co210 O214 2.004 . S
Co210 O220 2.021 . S
Co210 O222 2.137 . S
Co210 O223 2.244 . S
O211 Co210 2.216 . S
O211 C218 1.247 . S
O212 Co210 2.091 . S
O212 C218 1.261 . S
C213 O222 1.247 . S
C213 O223 1.272 . S
O214 Co210 2.004 . S
O214 C219 1.259 . S
Co215 O216 2.061 . S
Co215 O221 2.052 . S
Co215 O223 2.135 . S
O216 Co215 2.061 . S
O216 C219 1.235 . S
C217 O220 1.238 . S
C217 O221 1.241 . S
C218 O211 1.247 . S
C218 O212 1.261 . S
C219 O214 1.259 . S
C219 O216 1.235 . S
O220 Co210 2.021 . S
O220 C217 1.238 . S
O221 Co215 2.052 . S
O221 C217 1.241 . S
O222 Co210 2.137 . S
O222 C213 1.247 . S
O223 Co210 2.244 . S
O223 C213 1.272 . S
O223 Co215 2.135 . S
Co224 O225 2.216 . S
Co224 O226 2.091 . S
Co224 O228 2.004 . S
Co224 O234 2.021 . S
Co224 O236 2.137 . S
Co224 O237 2.244 . S
O225 Co224 2.216 . S
O225 C232 1.247 . S
O226 Co224 2.091 . S
O226 C232 1.261 . S
C227 O236 1.247 . S
C227 O237 1.272 . S
O228 Co224 2.004 . S
O228 C233 1.259 . S
Co229 O230 2.061 . S
Co229 O235 2.052 . S
Co229 O237 2.135 . S
O230 Co229 2.061 . S
O230 C233 1.235 . S
C231 O234 1.238 . S
C231 O235 1.241 . S
C232 O225 1.247 . S
C232 O226 1.261 . S
C233 O228 1.259 . S
C233 O230 1.235 . S
O234 Co224 2.021 . S
O234 C231 1.238 . S
O235 Co229 2.052 . S
O235 C231 1.241 . S
O236 Co224 2.137 . S
O236 C227 1.247 . S
O237 Co224 2.244 . S
O237 C227 1.272 . S
O237 Co229 2.135 . S
Co238 O239 2.216 . S
Co238 O240 2.091 . S
Co238 O242 2.004 . S
Co238 O248 2.021 . S
Co238 O250 2.137 . S
Co238 O251 2.244 . S
O239 Co238 2.216 . S
O239 C246 1.247 . S
O240 Co238 2.091 . S
O240 C246 1.261 . S
C241 O250 1.247 . S
C241 O251 1.272 . S
O242 Co238 2.004 . S
O242 C247 1.259 . S
Co243 O244 2.061 . S
Co243 O249 2.052 . S
Co243 O251 2.135 . S
O244 Co243 2.061 . S
O244 C247 1.235 . S
C245 O248 1.238 . S
C245 O249 1.241 . S
C246 O239 1.247 . S
C246 O240 1.261 . S
C247 O242 1.259 . S
C247 O244 1.235 . S
O248 Co238 2.021 . S
O248 C245 1.238 . S
O249 Co243 2.052 . S
O249 C245 1.241 . S
O250 Co238 2.137 . S
O250 C241 1.247 . S
O251 Co238 2.244 . S
O251 C241 1.272 . S
O251 Co243 2.135 . S
Co252 O253 2.216 . S
Co252 O254 2.091 . S
Co252 O256 2.004 . S
Co252 O262 2.021 . S
Co252 O264 2.137 . S
Co252 O265 2.244 . S
O253 Co252 2.216 . S
O253 C260 1.247 . S
O254 Co252 2.091 . S
O254 C260 1.261 . S
C255 O264 1.247 . S
C255 O265 1.272 . S
O256 Co252 2.004 . S
O256 C261 1.259 . S
Co257 O258 2.061 . S
Co257 O263 2.052 . S
Co257 O265 2.135 . S
O258 Co257 2.061 . S
O258 C261 1.235 . S
C259 O262 1.238 . S
C259 O263 1.241 . S
C260 O253 1.247 . S
C260 O254 1.261 . S
C261 O256 1.259 . S
C261 O258 1.235 . S
O262 Co252 2.021 . S
O262 C259 1.238 . S
O263 Co257 2.052 . S
O263 C259 1.241 . S
O264 Co252 2.137 . S
O264 C255 1.247 . S
O265 Co252 2.244 . S
O265 C255 1.272 . S
O265 Co257 2.135 . S
Co266 O267 2.216 . S
Co266 O268 2.091 . S
Co266 O270 2.004 . S
Co266 O276 2.021 . S
Co266 O278 2.137 . S
Co266 O279 2.244 . S
O267 Co266 2.216 . S
O267 C274 1.247 . S
O268 Co266 2.091 . S
O268 C274 1.261 . S
C269 O278 1.247 . S
C269 O279 1.272 . S
O270 Co266 2.004 . S
O270 C275 1.259 . S
Co271 O272 2.061 . S
Co271 O277 2.052 . S
Co271 O279 2.135 . S
O272 Co271 2.061 . S
O272 C275 1.235 . S
C273 O276 1.238 . S
C273 O277 1.241 . S
C274 O267 1.247 . S
C274 O268 1.261 . S
C275 O270 1.259 . S
C275 O272 1.235 . S
O276 Co266 2.021 . S
O276 C273 1.238 . S
O277 Co271 2.052 . S
O277 C273 1.241 . S
O278 Co266 2.137 . S
O278 C269 1.247 . S
O279 Co266 2.244 . S
O279 C269 1.272 . S
O279 Co271 2.135 . S
Co280 O281 2.216 . S
Co280 O282 2.091 . S
Co280 O284 2.004 . S
Co280 O290 2.021 . S
Co280 O292 2.137 . S
Co280 O293 2.244 . S
O281 Co280 2.216 . S
O281 C288 1.247 . S
O282 Co280 2.091 . S
O282 C288 1.261 . S
C283 O292 1.247 . S
C283 O293 1.272 . S
O284 Co280 2.004 . S
O284 C289 1.259 . S
Co285 O286 2.061 . S
Co285 O291 2.052 . S
Co285 O293 2.135 . S
O286 Co285 2.061 . S
O286 C289 1.235 . S
C287 O290 1.238 . S
C287 O291 1.241 . S
C288 O281 1.247 . S
C288 O282 1.261 . S
C289 O284 1.259 . S
C289 O286 1.235 . S
O290 Co280 2.021 . S
O290 C287 1.238 . S
O291 Co285 2.052 . S
O291 C287 1.241 . S
O292 Co280 2.137 . S
O292 C283 1.247 . S
O293 Co280 2.244 . S
O293 C283 1.272 . S
O293 Co285 2.135 . S
Co294 O295 2.216 . S
Co294 O296 2.091 . S
Co294 O298 2.004 . S
Co294 O304 2.021 . S
Co294 O306 2.137 . S
Co294 O307 2.244 . S
O295 Co294 2.216 . S
O295 C302 1.247 . S
O296 Co294 2.091 . S
O296 C302 1.261 . S
C297 O306 1.247 . S
C297 O307 1.272 . S
O298 Co294 2.004 . S
O298 C303 1.259 . S
Co299 O300 2.061 . S
Co299 O305 2.052 . S
Co299 O307 2.135 . S
O300 Co299 2.061 . S
O300 C303 1.235 . S
C301 O304 1.238 . S
C301 O305 1.241 . S
C302 O295 1.247 . S
C302 O296 1.261 . S
C303 O298 1.259 . S
C303 O300 1.235 . S
O304 Co294 2.021 . S
O304 C301 1.238 . S
O305 Co299 2.052 . S
O305 C301 1.241 . S
O306 Co294 2.137 . S
O306 C297 1.247 . S
O307 Co294 2.244 . S
O307 C297 1.272 . S
O307 Co299 2.135 . S
Co308 O309 2.216 . S
Co308 O310 2.091 . S
Co308 O312 2.004 . S
Co308 O318 2.021 . S
Co308 O320 2.137 . S
Co308 O321 2.244 . S
O309 Co308 2.216 . S
O309 C316 1.247 . S
O310 Co308 2.091 . S
O310 C316 1.261 . S
C311 O320 1.247 . S
C311 O321 1.272 . S
O312 Co308 2.004 . S
O312 C317 1.259 . S
Co313 O314 2.061 . S
Co313 O319 2.052 . S
Co313 O321 2.135 . S
O314 Co313 2.061 . S
O314 C317 1.235 . S
C315 O318 1.238 . S
C315 O319 1.241 . S
C316 O309 1.247 . S
C316 O310 1.261 . S
C317 O312 1.259 . S
C317 O314 1.235 . S
O318 Co308 2.021 . S
O318 C315 1.238 . S
O319 Co313 2.052 . S
O319 C315 1.241 . S
O320 Co308 2.137 . S
O320 C311 1.247 . S
O321 Co308 2.244 . S
O321 C311 1.272 . S
O321 Co313 2.135 . S
Co322 O323 2.216 . S
Co322 O324 2.091 . S
Co322 O326 2.004 . S
Co322 O332 2.021 . S
Co322 O334 2.137 . S
Co322 O335 2.244 . S
O323 Co322 2.216 . S
O323 C330 1.247 . S
O324 Co322 2.091 . S
O324 C330 1.261 . S
C325 O334 1.247 . S
C325 O335 1.272 . S
O326 Co322 2.004 . S
O326 C331 1.259 . S
Co327 O328 2.061 . S
Co327 O333 2.052 . S
Co327 O335 2.135 . S
O328 Co327 2.061 . S
O328 C331 1.235 . S
C329 O332 1.238 . S
C329 O333 1.241 . S
C330 O323 1.247 . S
C330 O324 1.261 . S
C331 O326 1.259 . S
C331 O328 1.235 . S
O332 Co322 2.021 . S
O332 C329 1.238 . S
O333 Co327 2.052 . S
O333 C329 1.241 . S
O334 Co322 2.137 . S
O334 C325 1.247 . S
O335 Co322 2.244 . S
O335 C325 1.272 . S
O335 Co327 2.135 . S
Co336 O337 2.216 . S
Co336 O338 2.091 . S
Co336 O340 2.004 . S
Co336 O346 2.021 . S
Co336 O348 2.137 . S
Co336 O349 2.244 . S
O337 Co336 2.216 . S
O337 C344 1.247 . S
O338 Co336 2.091 . S
O338 C344 1.261 . S
C339 O348 1.247 . S
C339 O349 1.272 . S
O340 Co336 2.004 . S
O340 C345 1.259 . S
Co341 O342 2.061 . S
Co341 O347 2.052 . S
Co341 O349 2.135 . S
O342 Co341 2.061 . S
O342 C345 1.235 . S
C343 O346 1.238 . S
C343 O347 1.241 . S
C344 O337 1.247 . S
C344 O338 1.261 . S
C345 O340 1.259 . S
C345 O342 1.235 . S
O346 Co336 2.021 . S
O346 C343 1.238 . S
O347 Co341 2.052 . S
O347 C343 1.241 . S
O348 Co336 2.137 . S
O348 C339 1.247 . S
O349 Co336 2.244 . S
O349 C339 1.272 . S
O349 Co341 2.135 . S
Co350 O351 2.216 . S
Co350 O352 2.091 . S
Co350 O354 2.004 . S
Co350 O360 2.021 . S
Co350 O362 2.137 . S
Co350 O363 2.244 . S
O351 Co350 2.216 . S
O351 C358 1.247 . S
O352 Co350 2.091 . S
O352 C358 1.261 . S
C353 O362 1.247 . S
C353 O363 1.272 . S
O354 Co350 2.004 . S
O354 C359 1.259 . S
Co355 O356 2.061 . S
Co355 O361 2.052 . S
Co355 O363 2.135 . S
O356 Co355 2.061 . S
O356 C359 1.235 . S
C357 O360 1.238 . S
C357 O361 1.241 . S
C358 O351 1.247 . S
C358 O352 1.261 . S
C359 O354 1.259 . S
C359 O356 1.235 . S
O360 Co350 2.021 . S
O360 C357 1.238 . S
O361 Co355 2.052 . S
O361 C357 1.241 . S
O362 Co350 2.137 . S
O362 C353 1.247 . S
O363 Co350 2.244 . S
O363 C353 1.272 . S
O363 Co355 2.135 . S
Co364 O365 2.216 . S
Co364 O366 2.091 . S
Co364 O368 2.004 . S
Co364 O374 2.021 . S
Co364 O376 2.137 . S
Co364 O377 2.244 . S
O365 Co364 2.216 . S
O365 C372 1.247 . S
O366 Co364 2.091 . S
O366 C372 1.261 . S
C367 O376 1.247 . S
C367 O377 1.272 . S
O368 Co364 2.004 . S
O368 C373 1.259 . S
Co369 O370 2.061 . S
Co369 O375 2.052 . S
Co369 O377 2.135 . S
O370 Co369 2.061 . S
O370 C373 1.235 . S
C371 O374 1.238 . S
C371 O375 1.241 . S
C372 O365 1.247 . S
C372 O366 1.261 . S
C373 O368 1.259 . S
C373 O370 1.235 . S
O374 Co364 2.021 . S
O374 C371 1.238 . S
O375 Co369 2.052 . S
O375 C371 1.241 . S
O376 Co364 2.137 . S
O376 C367 1.247 . S
O377 Co364 2.244 . S
O377 C367 1.272 . S
O377 Co369 2.135 . S
Co378 O379 2.216 . S
Co378 O380 2.091 . S
Co378 O382 2.004 . S
Co378 O388 2.021 . S
Co378 O390 2.137 . S
Co378 O391 2.244 . S
O379 Co378 2.216 . S
O379 C386 1.247 . S
O380 Co378 2.091 . S
O380 C386 1.261 . S
C381 O390 1.247 . S
C381 O391 1.272 . S
O382 Co378 2.004 . S
O382 C387 1.259 . S
Co383 O384 2.061 . S
Co383 O389 2.052 . S
Co383 O391 2.135 . S
O384 Co383 2.061 . S
O384 C387 1.235 . S
C385 O388 1.238 . S
C385 O389 1.241 . S
C386 O379 1.247 . S
C386 O380 1.261 . S
C387 O382 1.259 . S
C387 O384 1.235 . S
O388 Co378 2.021 . S
O388 C385 1.238 . S
O389 Co383 2.052 . S
O389 C385 1.241 . S
O390 Co378 2.137 . S
O390 C381 1.247 . S
O391 Co378 2.244 . S
O391 C381 1.272 . S
O391 Co383 2.135 . S
Co392 O393 2.216 . S
Co392 O394 2.091 . S
Co392 O396 2.004 . S
Co392 O402 2.021 . S
Co392 O404 2.137 . S
Co392 O405 2.244 . S
O393 Co392 2.216 . S
O393 C400 1.247 . S
O394 Co392 2.091 . S
O394 C400 1.261 . S
C395 O404 1.247 . S
C395 O405 1.272 . S
O396 Co392 2.004 . S
O396 C401 1.259 . S
Co397 O398 2.061 . S
Co397 O403 2.052 . S
Co397 O405 2.135 . S
O398 Co397 2.061 . S
O398 C401 1.235 . S
C399 O402 1.238 . S
C399 O403 1.241 . S
C400 O393 1.247 . S
C400 O394 1.261 . S
C401 O396 1.259 . S
C401 O398 1.235 . S
O402 Co392 2.021 . S
O402 C399 1.238 . S
O403 Co397 2.052 . S
O403 C399 1.241 . S
O404 Co392 2.137 . S
O404 C395 1.247 . S
O405 Co392 2.244 . S
O405 C395 1.272 . S
O405 Co397 2.135 . S
Co406 O407 2.216 . S
Co406 O408 2.091 . S
Co406 O410 2.004 . S
Co406 O416 2.021 . S
Co406 O418 2.137 . S
Co406 O419 2.244 . S
O407 Co406 2.216 . S
O407 C414 1.247 . S
O408 Co406 2.091 . S
O408 C414 1.261 . S
C409 O418 1.247 . S
C409 O419 1.272 . S
O410 Co406 2.004 . S
O410 C415 1.259 . S
Co411 O412 2.061 . S
Co411 O417 2.052 . S
Co411 O419 2.135 . S
O412 Co411 2.061 . S
O412 C415 1.235 . S
C413 O416 1.238 . S
C413 O417 1.241 . S
C414 O407 1.247 . S
C414 O408 1.261 . S
C415 O410 1.259 . S
C415 O412 1.235 . S
O416 Co406 2.021 . S
O416 C413 1.238 . S
O417 Co411 2.052 . S
O417 C413 1.241 . S
O418 Co406 2.137 . S
O418 C409 1.247 . S
O419 Co406 2.244 . S
O419 C409 1.272 . S
O419 Co411 2.135 . S
Co420 O421 2.216 . S
Co420 O422 2.091 . S
Co420 O424 2.004 . S
Co420 O430 2.021 . S
Co420 O432 2.137 . S
Co420 O433 2.244 . S
O421 Co420 2.216 . S
O421 C428 1.247 . S
O422 Co420 2.091 . S
O422 C428 1.261 . S
C423 O432 1.247 . S
C423 O433 1.272 . S
O424 Co420 2.004 . S
O424 C429 1.259 . S
Co425 O426 2.061 . S
Co425 O431 2.052 . S
Co425 O433 2.135 . S
O426 Co425 2.061 . S
O426 C429 1.235 . S
C427 O430 1.238 . S
C427 O431 1.241 . S
C428 O421 1.247 . S
C428 O422 1.261 . S
C429 O424 1.259 . S
C429 O426 1.235 . S
O430 Co420 2.021 . S
O430 C427 1.238 . S
O431 Co425 2.052 . S
O431 C427 1.241 . S
O432 Co420 2.137 . S
O432 C423 1.247 . S
O433 Co420 2.244 . S
O433 C423 1.272 . S
O433 Co425 2.135 . S
Co434 O435 2.216 . S
Co434 O436 2.091 . S
Co434 O438 2.004 . S
Co434 O444 2.021 . S
Co434 O446 2.137 . S
Co434 O447 2.244 . S
O435 Co434 2.216 . S
O435 C442 1.247 . S
O436 Co434 2.091 . S
O436 C442 1.261 . S
C437 O446 1.247 . S
C437 O447 1.272 . S
O438 Co434 2.004 . S
O438 C443 1.259 . S
Co439 O440 2.061 . S
Co439 O445 2.052 . S
Co439 O447 2.135 . S
O440 Co439 2.061 . S
O440 C443 1.235 . S
C441 O444 1.238 . S
C441 O445 1.241 . S
C442 O435 1.247 . S
C442 O436 1.261 . S
C443 O438 1.259 . S
C443 O440 1.235 . S
O444 Co434 2.021 . S
O444 C441 1.238 . S
O445 Co439 2.052 . S
O445 C441 1.241 . S
O446 Co434 2.137 . S
O446 C437 1.247 . S
O447 Co434 2.244 . S
O447 C437 1.272 . S
O447 Co439 2.135 . S
Co448 O449 2.216 . S
Co448 O450 2.091 . S
Co448 O452 2.004 . S
Co448 O458 2.021 . S
Co448 O460 2.137 . S
Co448 O461 2.244 . S
O449 Co448 2.216 . S
O449 C456 1.247 . S
O450 Co448 2.091 . S
O450 C456 1.261 . S
C451 O460 1.247 . S
C451 O461 1.272 . S
O452 Co448 2.004 . S
O452 C457 1.259 . S
Co453 O454 2.061 . S
Co453 O459 2.052 . S
Co453 O461 2.135 . S
O454 Co453 2.061 . S
O454 C457 1.235 . S
C455 O458 1.238 . S
C455 O459 1.241 . S
C456 O449 1.247 . S
C456 O450 1.261 . S
C457 O452 1.259 . S
C457 O454 1.235 . S
O458 Co448 2.021 . S
O458 C455 1.238 . S
O459 Co453 2.052 . S
O459 C455 1.241 . S
O460 Co448 2.137 . S
O460 C451 1.247 . S
O461 Co448 2.244 . S
O461 C451 1.272 . S
O461 Co453 2.135 . S
Co462 O463 2.216 . S
Co462 O464 2.091 . S
Co462 O466 2.004 . S
Co462 O472 2.021 . S
Co462 O474 2.137 . S
Co462 O475 2.244 . S
O463 Co462 2.216 . S
O463 C470 1.247 . S
O464 Co462 2.091 . S
O464 C470 1.261 . S
C465 O474 1.247 . S
C465 O475 1.272 . S
O466 Co462 2.004 . S
O466 C471 1.259 . S
Co467 O468 2.061 . S
Co467 O473 2.052 . S
Co467 O475 2.135 . S
O468 Co467 2.061 . S
O468 C471 1.235 . S
C469 O472 1.238 . S
C469 O473 1.241 . S
C470 O463 1.247 . S
C470 O464 1.261 . S
C471 O466 1.259 . S
C471 O468 1.235 . S
O472 Co462 2.021 . S
O472 C469 1.238 . S
O473 Co467 2.052 . S
O473 C469 1.241 . S
O474 Co462 2.137 . S
O474 C465 1.247 . S
O475 Co462 2.244 . S
O475 C465 1.272 . S
O475 Co467 2.135 . S
Co476 O477 2.216 . S
Co476 O478 2.091 . S
Co476 O480 2.004 . S
Co476 O486 2.021 . S
Co476 O488 2.137 . S
Co476 O489 2.244 . S
O477 Co476 2.216 . S
O477 C484 1.247 . S
O478 Co476 2.091 . S
O478 C484 1.261 . S
C479 O488 1.247 . S
C479 O489 1.272 . S
O480 Co476 2.004 . S
O480 C485 1.259 . S
Co481 O482 2.061 . S
Co481 O487 2.052 . S
Co481 O489 2.135 . S
O482 Co481 2.061 . S
O482 C485 1.235 . S
C483 O486 1.238 . S
C483 O487 1.241 . S
C484 O477 1.247 . S
C484 O478 1.261 . S
C485 O480 1.259 . S
C485 O482 1.235 . S
O486 Co476 2.021 . S
O486 C483 1.238 . S
O487 Co481 2.052 . S
O487 C483 1.241 . S
O488 Co476 2.137 . S
O488 C479 1.247 . S
O489 Co476 2.244 . S
O489 C479 1.272 . S
O489 Co481 2.135 . S
Co490 O491 2.216 . S
Co490 O492 2.091 . S
Co490 O494 2.004 . S
Co490 O500 2.021 . S
Co490 O502 2.137 . S
Co490 O503 2.244 . S
O491 Co490 2.216 . S
O491 C498 1.247 . S
O492 Co490 2.091 . S
O492 C498 1.261 . S
C493 O502 1.247 . S
C493 O503 1.272 . S
O494 Co490 2.004 . S
O494 C499 1.259 . S
Co495 O496 2.061 . S
Co495 O501 2.052 . S
Co495 O503 2.135 . S
O496 Co495 2.061 . S
O496 C499 1.235 . S
C497 O500 1.238 . S
C497 O501 1.241 . S
C498 O491 1.247 . S
C498 O492 1.261 . S
C499 O494 1.259 . S
C499 O496 1.235 . S
O500 Co490 2.021 . S
O500 C497 1.238 . S
O501 Co495 2.052 . S
O501 C497 1.241 . S
O502 Co490 2.137 . S
O502 C493 1.247 . S
O503 Co490 2.244 . S
O503 C493 1.272 . S
O503 Co495 2.135 . S
H504 C512 0.950 . S
H505 C517 0.950 . S
H506 C514 0.950 . S
H507 C516 0.950 . S
H508 C518 0.924 1_565 S
H509 C520 0.950 . S
H510 C522 0.950 1_554 S
H511 C523 0.950 . S
C512 H504 0.950 . S
C512 C513 1.386 . S
C512 C514 1.391 . S
C513 C512 1.386 . S
C513 C517 1.393 . S
C514 H506 0.950 . S
C514 C512 1.391 . S
C514 C515 1.400 . S
C515 C514 1.400 . S
C515 C516 1.398 . S
C515 C521 1.491 1_554 S
C516 H507 0.950 . S
C516 C515 1.398 . S
C516 C517 1.391 . S
C517 H505 0.950 . S
C517 C513 1.393 . S
C517 C516 1.391 . S
C518 H508 0.924 1_545 S
C518 C519 1.378 1_545 S
C518 C520 1.411 . S
C519 C518 1.378 1_565 S
C519 C523 1.393 . S
C520 H509 0.950 . S
C520 C518 1.411 . S
C520 C521 1.400 . S
C521 C515 1.491 1_556 S
C521 C520 1.400 . S
C521 C522 1.398 . S
C522 H510 0.950 1_556 S
C522 C521 1.398 . S
C522 C523 1.391 1_545 S
C523 H511 0.950 . S
C523 C519 1.393 . S
C523 C522 1.391 1_565 S
H524 C532 0.950 . S
H525 C537 0.950 . S
H526 C534 0.950 1_556 S
H527 C536 0.950 . S
H528 C538 0.950 . S
H529 C540 0.968 . S
H530 C542 0.950 . S
H531 C543 0.950 . S
C532 H524 0.950 . S
C532 C533 1.386 . S
C532 C534 1.391 . S
C533 C532 1.386 . S
C533 C537 1.393 . S
C534 H526 0.950 1_554 S
C534 C532 1.391 . S
C534 C535 1.400 . S
C535 C534 1.400 . S
C535 C536 1.398 . S
C535 C541 1.491 1_554 S
C536 H527 0.950 . S
C536 C535 1.398 . S
C536 C537 1.391 . S
C537 H525 0.950 . S
C537 C533 1.393 . S
C537 C536 1.391 . S
C538 H528 0.950 . S
C538 C539 1.386 . S
C538 C540 1.422 1_556 S
C539 C538 1.386 . S
C539 C543 1.393 1_455 S
C540 H529 0.968 . S
C540 C538 1.422 1_554 S
C540 C541 1.354 1_454 S
C541 C535 1.491 1_556 S
C541 C540 1.354 1_656 S
C541 C542 1.398 . S
C542 H530 0.950 . S
C542 C541 1.398 . S
C542 C543 1.391 . S
C543 H531 0.950 . S
C543 C539 1.393 1_655 S
C543 C542 1.391 . S
H544 C552 0.950 . S
H545 C557 0.950 . S
H546 C554 0.950 . S
H547 C556 0.950 . S
H548 C558 0.950 . S
H549 C560 0.950 1_556 S
H550 C562 0.950 . S
H551 C563 0.950 . S
C552 H544 0.950 . S
C552 C553 1.386 . S
C552 C554 1.391 1_556 S
C553 C552 1.386 . S
C553 C557 1.393 . S
C554 H546 0.950 . S
C554 C552 1.391 1_554 S
C554 C555 1.400 1_554 S
C555 C554 1.400 1_556 S
C555 C556 1.398 . S
C555 C561 1.491 1_556 S
C556 H547 0.950 . S
C556 C555 1.398 . S
C556 C557 1.391 . S
C557 H545 0.950 . S
C557 C553 1.393 . S
C557 C556 1.391 . S
C558 H548 0.950 . S
C558 C559 1.386 . S
C558 C560 1.391 . S
C559 C558 1.386 . S
C559 C563 1.393 . S
C560 H549 0.950 1_554 S
C560 C558 1.391 . S
C560 C561 1.400 . S
C561 C555 1.491 1_554 S
C561 C560 1.400 . S
C561 C562 1.398 . S
C562 H550 0.950 . S
C562 C561 1.398 . S
C562 C563 1.391 . S
C563 H551 0.950 . S
C563 C559 1.393 . S
C563 C562 1.391 . S
H564 C572 0.950 . S
H565 C577 0.950 . S
H566 C574 0.950 . S
H567 C576 0.950 . S
H568 C578 0.950 . S
H569 C580 0.950 . S
H570 C582 0.950 . S
H571 C583 0.950 . S
C572 H564 0.950 . S
C572 C573 1.386 . S
C572 C574 1.391 1_655 S
C573 C572 1.386 . S
C573 C577 1.393 . S
C574 H566 0.950 . S
C574 C572 1.391 1_455 S
C574 C575 1.400 . S
C575 C574 1.400 . S
C575 C576 1.398 . S
C575 C581 1.491 . S
C576 H567 0.950 . S
C576 C575 1.398 . S
C576 C577 1.391 1_455 S
C577 H565 0.950 . S
C577 C573 1.393 . S
C577 C576 1.391 1_655 S
C578 H568 0.950 . S
C578 C579 1.386 . S
C578 C580 1.391 . S
C579 C578 1.386 . S
C579 C583 1.393 . S
C580 H569 0.950 . S
C580 C578 1.391 . S
C580 C581 1.400 . S
C581 C575 1.491 . S
C581 C580 1.400 . S
C581 C582 1.398 . S
C582 H570 0.950 . S
C582 C581 1.398 . S
C582 C583 1.391 . S
C583 H571 0.950 . S
C583 C579 1.393 . S
C583 C582 1.391 . S
H584 C592 0.950 . S
H585 C597 0.950 . S
H586 C594 0.950 . S
H587 C596 0.950 . S
H588 C598 0.950 . S
H589 C600 0.950 . S
H590 C602 0.950 . S
H591 C603 0.950 . S
C592 H584 0.950 . S
C592 C593 1.386 . S
C592 C594 1.391 . S
C593 C592 1.386 . S
C593 C597 1.393 . S
C594 H586 0.950 . S
C594 C592 1.391 . S
C594 C595 1.400 . S
C595 C594 1.400 . S
C595 C596 1.398 . S
C595 C601 1.491 . S
C596 H587 0.950 . S
C596 C595 1.398 . S
C596 C597 1.391 . S
C597 H585 0.950 . S
C597 C593 1.393 . S
C597 C596 1.391 . S
C598 H588 0.950 . S
C598 C599 1.386 . S
C598 C600 1.391 . S
C599 C598 1.386 . S
C599 C603 1.393 . S
C600 H589 0.950 . S
C600 C598 1.391 . S
C600 C601 1.400 . S
C601 C595 1.491 . S
C601 C600 1.400 . S
C601 C602 1.398 . S
C602 H590 0.950 . S
C602 C601 1.398 . S
C602 C603 1.391 . S
C603 H591 0.950 . S
C603 C599 1.393 . S
C603 C602 1.391 . S
H604 C612 0.950 . S
H605 C617 0.950 . S
H606 C614 0.950 . S
H607 C616 0.950 . S
H608 C618 0.950 . S
H609 C620 0.950 . S
H610 C622 0.950 . S
H611 C623 0.950 . S
C612 H604 0.950 . S
C612 C613 1.386 . S
C612 C614 1.391 . S
C613 C612 1.386 . S
C613 C617 1.393 . S
C614 H606 0.950 . S
C614 C612 1.391 . S
C614 C615 1.400 . S
C615 C614 1.400 . S
C615 C616 1.398 . S
C615 C621 1.491 . S
C616 H607 0.950 . S
C616 C615 1.398 . S
C616 C617 1.391 . S
C617 H605 0.950 . S
C617 C613 1.393 . S
C617 C616 1.391 . S
C618 H608 0.950 . S
C618 C619 1.386 . S
C618 C620 1.391 1_545 S
C619 C618 1.386 . S
C619 C623 1.393 . S
C620 H609 0.950 . S
C620 C618 1.391 1_565 S
C620 C621 1.400 . S
C621 C615 1.491 . S
C621 C620 1.400 . S
C621 C622 1.398 . S
C622 H610 0.950 . S
C622 C621 1.398 . S
C622 C623 1.391 1_565 S
C623 H611 0.950 . S
C623 C619 1.393 . S
C623 C622 1.391 1_545 S
H624 C632 0.950 . S
H625 C637 0.950 . S
H626 C634 0.950 . S
H627 C636 0.950 . S
H628 C638 0.950 . S
H629 C640 0.950 . S
H630 C642 0.950 1_554 S
H631 C643 0.950 . S
C632 H624 0.950 . S
C632 C633 1.386 . S
C632 C634 1.391 1_545 S
C633 C632 1.386 . S
C633 C637 1.393 . S
C634 H626 0.950 . S
C634 C632 1.391 1_565 S
C634 C635 1.400 . S
C635 C634 1.400 . S
C635 C636 1.398 1_554 S
C635 C641 1.491 1_554 S
C636 H627 0.950 . S
C636 C635 1.398 1_556 S
C636 C637 1.391 1_566 S
C637 H625 0.950 . S
C637 C633 1.393 . S
C637 C636 1.391 1_544 S
C638 H628 0.950 . S
C638 C639 1.386 . S
C638 C640 1.391 . S
C639 C638 1.386 . S
C639 C643 1.393 . S
C640 H629 0.950 . S
C640 C638 1.391 . S
C640 C641 1.400 . S
C641 C635 1.491 1_556 S
C641 C640 1.400 . S
C641 C642 1.398 . S
C642 H630 0.950 1_556 S
C642 C641 1.398 . S
C642 C643 1.391 . S
C643 H631 0.950 . S
C643 C639 1.393 . S
C643 C642 1.391 . S
H644 C652 0.950 . S
H645 C657 0.950 . S
H646 C654 0.950 . S
H647 C656 0.950 . S
H648 C658 0.950 . S
H649 C660 0.950 1_554 S
H650 C662 0.950 . S
H651 C663 0.950 . S
C652 H644 0.950 . S
C652 C653 1.386 . S
C652 C654 1.391 1_654 S
C653 C652 1.386 . S
C653 C657 1.393 . S
C654 H646 0.950 . S
C654 C652 1.391 1_456 S
C654 C655 1.400 1_556 S
C655 C654 1.400 1_554 S
C655 C656 1.398 . S
C655 C661 1.491 1_554 S
C656 H647 0.950 . S
C656 C655 1.398 . S
C656 C657 1.391 1_455 S
C657 H645 0.950 . S
C657 C653 1.393 . S
C657 C656 1.391 1_655 S
C658 H648 0.950 . S
C658 C659 1.386 . S
C658 C660 1.391 . S
C659 C658 1.386 . S
C659 C663 1.393 . S
C660 H649 0.950 1_556 S
C660 C658 1.391 . S
C660 C661 1.400 . S
C661 C655 1.491 1_556 S
C661 C660 1.400 . S
C661 C662 1.398 . S
C662 H650 0.950 . S
C662 C661 1.398 . S
C662 C663 1.391 . S
C663 H651 0.950 . S
C663 C659 1.393 . S
C663 C662 1.391 . S
H664 C672 0.950 . S
H665 C677 0.950 . S
H666 C674 0.950 . S
H667 C676 0.950 . S
H668 C678 0.950 . S
H669 C680 0.950 . S
H670 C682 0.950 . S
H671 C683 0.950 . S
C672 H664 0.950 . S
C672 C673 1.386 . S
C672 C674 1.391 . S
C673 C672 1.386 . S
C673 C677 1.393 . S
C674 H666 0.950 . S
C674 C672 1.391 . S
C674 C675 1.400 . S
C675 C674 1.400 . S
C675 C676 1.398 . S
C675 C681 1.491 1_556 S
C676 H667 0.950 . S
C676 C675 1.398 . S
C676 C677 1.391 . S
C677 H665 0.950 . S
C677 C673 1.393 . S
C677 C676 1.391 . S
C678 H668 0.950 . S
C678 C679 1.386 . S
C678 C680 1.391 . S
C679 C678 1.386 . S
C679 C683 1.393 . S
C680 H669 0.950 . S
C680 C678 1.391 . S
C680 C681 1.400 . S
C681 C675 1.491 1_554 S
C681 C680 1.400 . S
C681 C682 1.398 . S
C682 H670 0.950 . S
C682 C681 1.398 . S
C682 C683 1.391 . S
C683 H671 0.950 . S
C683 C679 1.393 . S
C683 C682 1.391 . S
H684 C692 0.950 . S
H685 C697 0.950 . S
H686 C694 0.950 . S
H687 C696 0.950 . S
H688 C698 0.950 . S
H689 C700 0.950 . S
H690 C702 0.950 . S
H691 C703 0.950 . S
C692 H684 0.950 . S
C692 C693 1.386 . S
C692 C694 1.391 . S
C693 C692 1.386 . S
C693 C697 1.393 . S
C694 H686 0.950 . S
C694 C692 1.391 . S
C694 C695 1.400 . S
C695 C694 1.400 . S
C695 C696 1.398 . S
C695 C701 1.491 . S
C696 H687 0.950 . S
C696 C695 1.398 . S
C696 C697 1.391 . S
C697 H685 0.950 . S
C697 C693 1.393 . S
C697 C696 1.391 . S
C698 H688 0.950 . S
C698 C699 1.386 . S
C698 C700 1.391 1_455 S
C699 C698 1.386 . S
C699 C703 1.393 . S
C700 H689 0.950 . S
C700 C698 1.391 1_655 S
C700 C701 1.400 . S
C701 C695 1.491 . S
C701 C700 1.400 . S
C701 C702 1.398 . S
C702 H690 0.950 . S
C702 C701 1.398 . S
C702 C703 1.391 1_655 S
C703 H691 0.950 . S
C703 C699 1.393 . S
C703 C702 1.391 1_455 S
H704 C712 0.950 . S
H705 C717 0.950 . S
H706 C714 0.950 . S
H707 C716 0.950 . S
H708 C718 0.950 . S
H709 C720 0.950 . S
H710 C722 0.950 . S
H711 C723 0.950 . S
C712 H704 0.950 . S
C712 C713 1.386 . S
C712 C714 1.391 . S
C713 C712 1.386 . S
C713 C717 1.393 . S
C714 H706 0.950 . S
C714 C712 1.391 . S
C714 C715 1.400 . S
C715 C714 1.400 . S
C715 C716 1.398 . S
C715 C721 1.491 . S
C716 H707 0.950 . S
C716 C715 1.398 . S
C716 C717 1.391 . S
C717 H705 0.950 . S
C717 C713 1.393 . S
C717 C716 1.391 . S
C718 H708 0.950 . S
C718 C719 1.386 . S
C718 C720 1.391 . S
C719 C718 1.386 . S
C719 C723 1.393 . S
C720 H709 0.950 . S
C720 C718 1.391 . S
C720 C721 1.400 . S
C721 C715 1.491 . S
C721 C720 1.400 . S
C721 C722 1.398 . S
C722 H710 0.950 . S
C722 C721 1.398 . S
C722 C723 1.391 . S
C723 H711 0.950 . S
C723 C719 1.393 . S
C723 C722 1.391 . S
H724 C732 0.950 . S
H725 C737 0.950 . S
H726 C734 0.950 . S
H727 C736 0.950 . S
H728 C738 0.950 . S
H729 C740 0.950 . S
H730 C742 0.950 . S
H731 C743 0.950 . S
C732 H724 0.950 . S
C732 C733 1.386 . S
C732 C734 1.391 . S
C733 C732 1.386 . S
C733 C737 1.393 . S
C734 H726 0.950 . S
C734 C732 1.391 . S
C734 C735 1.400 . S
C735 C734 1.400 . S
C735 C736 1.398 . S
C735 C741 1.491 . S
C736 H727 0.950 . S
C736 C735 1.398 . S
C736 C737 1.391 . S
C737 H725 0.950 . S
C737 C733 1.393 . S
C737 C736 1.391 . S
C738 H728 0.950 . S
C738 C739 1.386 . S
C738 C740 1.391 1_565 S
C739 C738 1.386 . S
C739 C743 1.393 . S
C740 H729 0.950 . S
C740 C738 1.391 1_545 S
C740 C741 1.400 . S
C741 C735 1.491 . S
C741 C740 1.400 . S
C741 C742 1.398 . S
C742 H730 0.950 . S
C742 C741 1.398 . S
C742 C743 1.391 1_545 S
C743 H731 0.950 . S
C743 C739 1.393 . S
C743 C742 1.391 1_565 S
H744 C752 0.950 . S
H745 C757 0.950 . S
H746 C754 0.950 . S
H747 C756 0.950 . S
H748 C758 0.950 . S
H749 C760 0.950 . S
H750 C762 0.950 . S
H751 C763 0.950 . S
C752 H744 0.950 . S
C752 C753 1.386 . S
C752 C754 1.391 . S
C753 C752 1.386 . S
C753 C757 1.393 . S
C754 H746 0.950 . S
C754 C752 1.391 . S
C754 C755 1.400 . S
C755 C754 1.400 . S
C755 C756 1.398 . S
C755 C761 1.491 . S
C756 H747 0.950 . S
C756 C755 1.398 . S
C756 C757 1.391 . S
C757 H745 0.950 . S
C757 C753 1.393 . S
C757 C756 1.391 . S
C758 H748 0.950 . S
C758 C759 1.386 . S
C758 C760 1.391 . S
C759 C758 1.386 . S
C759 C763 1.393 . S
C760 H749 0.950 . S
C760 C758 1.391 . S
C760 C761 1.400 . S
C761 C755 1.491 . S
C761 C760 1.400 . S
C761 C762 1.398 . S
C762 H750 0.950 . S
C762 C761 1.398 . S
C762 C763 1.391 . S
C763 H751 0.950 . S
C763 C759 1.393 . S
C763 C762 1.391 . S
H764 C772 0.950 . S
H765 C777 0.950 . S
H766 C774 0.950 . S
H767 C776 0.950 . S
H768 C778 0.950 . S
H769 C780 0.950 . S
H770 C782 0.950 . S
H771 C783 0.950 . S
C772 H764 0.950 . S
C772 C773 1.386 . S
C772 C774 1.391 . S
C773 C772 1.386 . S
C773 C777 1.393 . S
C774 H766 0.950 . S
C774 C772 1.391 . S
C774 C775 1.400 . S
C775 C774 1.400 . S
C775 C776 1.398 . S
C775 C781 1.491 . S
C776 H767 0.950 . S
C776 C775 1.398 . S
C776 C777 1.391 . S
C777 H765 0.950 . S
C777 C773 1.393 . S
C777 C776 1.391 . S
C778 H768 0.950 . S
C778 C779 1.386 . S
C778 C780 1.391 . S
C779 C778 1.386 . S
C779 C783 1.393 . S
C780 H769 0.950 . S
C780 C778 1.391 . S
C780 C781 1.400 . S
C781 C775 1.491 . S
C781 C780 1.400 . S
C781 C782 1.398 . S
C782 H770 0.950 . S
C782 C781 1.398 . S
C782 C783 1.391 . S
C783 H771 0.950 . S
C783 C779 1.393 . S
C783 C782 1.391 . S
H784 C792 0.950 . S
H785 C797 0.950 . S
H786 C794 0.950 . S
H787 C796 0.950 . S
H788 C798 0.950 . S
H789 C800 0.950 . S
H790 C802 0.950 . S
H791 C803 0.950 . S
C792 H784 0.950 . S
C792 C793 1.386 . S
C792 C794 1.391 . S
C793 C792 1.386 . S
C793 C797 1.393 . S
C794 H786 0.950 . S
C794 C792 1.391 . S
C794 C795 1.400 . S
C795 C794 1.400 . S
C795 C796 1.398 . S
C795 C801 1.491 . S
C796 H787 0.950 . S
C796 C795 1.398 . S
C796 C797 1.391 . S
C797 H785 0.950 . S
C797 C793 1.393 . S
C797 C796 1.391 . S
C798 H788 0.950 . S
C798 C799 1.386 . S
C798 C800 1.391 . S
C799 C798 1.386 . S
C799 C803 1.393 . S
C800 H789 0.950 . S
C800 C798 1.391 . S
C800 C801 1.400 . S
C801 C795 1.491 . S
C801 C800 1.400 . S
C801 C802 1.398 . S
C802 H790 0.950 . S
C802 C801 1.398 . S
C802 C803 1.391 . S
C803 H791 0.950 . S
C803 C799 1.393 . S
C803 C802 1.391 . S
H804 C812 0.950 . S
H805 C817 0.950 . S
H806 C814 0.950 . S
H807 C816 0.950 . S
H808 C818 0.950 . S
H809 C820 0.950 . S
H810 C822 0.950 . S
H811 C823 0.950 . S
C812 H804 0.950 . S
C812 C813 1.386 . S
C812 C814 1.391 . S
C813 C812 1.386 . S
C813 C817 1.393 . S
C814 H806 0.950 . S
C814 C812 1.391 . S
C814 C815 1.400 . S
C815 C814 1.400 . S
C815 C816 1.398 . S
C815 C821 1.491 . S
C816 H807 0.950 . S
C816 C815 1.398 . S
C816 C817 1.391 . S
C817 H805 0.950 . S
C817 C813 1.393 . S
C817 C816 1.391 . S
C818 H808 0.950 . S
C818 C819 1.386 . S
C818 C820 1.391 . S
C819 C818 1.386 . S
C819 C823 1.393 . S
C820 H809 0.950 . S
C820 C818 1.391 . S
C820 C821 1.400 . S
C821 C815 1.491 . S
C821 C820 1.400 . S
C821 C822 1.398 . S
C822 H810 0.950 . S
C822 C821 1.398 . S
C822 C823 1.391 . S
C823 H811 0.950 . S
C823 C819 1.393 . S
C823 C822 1.391 . S
H824 C832 0.950 . S
H825 C837 0.950 . S
H826 C834 0.950 . S
H827 C836 0.950 . S
H828 C838 0.950 . S
H829 C840 0.950 . S
H830 C842 0.950 . S
H831 C843 0.950 . S
C832 H824 0.950 . S
C832 C833 1.386 . S
C832 C834 1.391 . S
C833 C832 1.386 . S
C833 C837 1.393 . S
C834 H826 0.950 . S
C834 C832 1.391 . S
C834 C835 1.400 . S
C835 C834 1.400 . S
C835 C836 1.398 . S
C835 C841 1.491 . S
C836 H827 0.950 . S
C836 C835 1.398 . S
C836 C837 1.391 . S
C837 H825 0.950 . S
C837 C833 1.393 . S
C837 C836 1.391 . S
C838 H828 0.950 . S
C838 C839 1.386 . S
C838 C840 1.391 . S
C839 C838 1.386 . S
C839 C843 1.393 . S
C840 H829 0.950 . S
C840 C838 1.391 . S
C840 C841 1.400 . S
C841 C835 1.491 . S
C841 C840 1.400 . S
C841 C842 1.398 . S
C842 H830 0.950 . S
C842 C841 1.398 . S
C842 C843 1.391 . S
C843 H831 0.950 . S
C843 C839 1.393 . S
C843 C842 1.391 . S
H844 C852 0.950 . S
H845 C857 0.950 . S
H846 C854 0.950 . S
H847 C856 0.950 . S
H848 C858 0.950 . S
H849 C860 0.950 . S
H850 C862 0.950 . S
H851 C863 0.950 . S
C852 H844 0.950 . S
C852 C853 1.386 . S
C852 C854 1.391 . S
C853 C852 1.386 . S
C853 C857 1.393 . S
C854 H846 0.950 . S
C854 C852 1.391 . S
C854 C855 1.400 . S
C855 C854 1.400 . S
C855 C856 1.398 . S
C855 C861 1.491 . S
C856 H847 0.950 . S
C856 C855 1.398 . S
C856 C857 1.391 . S
C857 H845 0.950 . S
C857 C853 1.393 . S
C857 C856 1.391 . S
C858 H848 0.950 . S
C858 C859 1.386 . S
C858 C860 1.391 . S
C859 C858 1.386 . S
C859 C863 1.393 . S
C860 H849 0.950 . S
C860 C858 1.391 . S
C860 C861 1.400 . S
C861 C855 1.491 . S
C861 C860 1.400 . S
C861 C862 1.398 . S
C862 H850 0.950 . S
C862 C861 1.398 . S
C862 C863 1.391 . S
C863 H851 0.950 . S
C863 C859 1.393 . S
C863 C862 1.391 . S
H864 C872 0.950 . S
H865 C877 0.950 . S
H866 C874 0.950 . S
H867 C876 0.950 . S
H868 C878 0.950 . S
H869 C880 0.950 . S
H870 C882 0.950 . S
H871 C883 0.950 . S
C872 H864 0.950 . S
C872 C873 1.386 . S
C872 C874 1.391 . S
C873 C872 1.386 . S
C873 C877 1.393 . S
C874 H866 0.950 . S
C874 C872 1.391 . S
C874 C875 1.400 . S
C875 C874 1.400 . S
C875 C876 1.398 . S
C875 C881 1.491 . S
C876 H867 0.950 . S
C876 C875 1.398 . S
C876 C877 1.391 . S
C877 H865 0.950 . S
C877 C873 1.393 . S
C877 C876 1.391 . S
C878 H868 0.950 . S
C878 C879 1.386 . S
C878 C880 1.391 . S
C879 C878 1.386 . S
C879 C883 1.393 . S
C880 H869 0.950 . S
C880 C878 1.391 . S
C880 C881 1.400 . S
C881 C875 1.491 . S
C881 C880 1.400 . S
C881 C882 1.398 . S
C882 H870 0.950 . S
C882 C881 1.398 . S
C882 C883 1.391 . S
C883 H871 0.950 . S
C883 C879 1.393 . S
C883 C882 1.391 . S
H884 C892 0.950 . S
H885 C897 0.950 . S
H886 C894 0.950 . S
H887 C896 0.950 . S
H888 C898 0.950 . S
H889 C900 0.950 . S
H890 C902 0.950 . S
H891 C903 0.950 . S
C892 H884 0.950 . S
C892 C893 1.386 . S
C892 C894 1.391 . S
C893 C892 1.386 . S
C893 C897 1.393 . S
C894 H886 0.950 . S
C894 C892 1.391 . S
C894 C895 1.400 . S
C895 C894 1.400 . S
C895 C896 1.398 . S
C895 C901 1.491 . S
C896 H887 0.950 . S
C896 C895 1.398 . S
C896 C897 1.391 . S
C897 H885 0.950 . S
C897 C893 1.393 . S
C897 C896 1.391 . S
C898 H888 0.950 . S
C898 C899 1.386 . S
C898 C900 1.391 . S
C899 C898 1.386 . S
C899 C903 1.393 . S
C900 H889 0.950 . S
C900 C898 1.391 . S
C900 C901 1.400 . S
C901 C895 1.491 . S
C901 C900 1.400 . S
C901 C902 1.398 . S
C902 H890 0.950 . S
C902 C901 1.398 . S
C902 C903 1.391 . S
C903 H891 0.950 . S
C903 C899 1.393 . S
C903 C902 1.391 . S
H904 C912 0.950 . S
H905 C917 0.950 . S
H906 C914 0.950 . S
H907 C916 0.950 . S
H908 C918 0.950 . S
H909 C920 0.950 . S
H910 C922 0.950 . S
H911 C923 0.950 . S
C912 H904 0.950 . S
C912 C913 1.386 . S
C912 C914 1.391 . S
C913 C912 1.386 . S
C913 C917 1.393 . S
C914 H906 0.950 . S
C914 C912 1.391 . S
C914 C915 1.400 . S
C915 C914 1.400 . S
C915 C916 1.398 . S
C915 C921 1.491 . S
C916 H907 0.950 . S
C916 C915 1.398 . S
C916 C917 1.391 . S
C917 H905 0.950 . S
C917 C913 1.393 . S
C917 C916 1.391 . S
C918 H908 0.950 . S
C918 C919 1.386 . S
C918 C920 1.391 . S
C919 C918 1.386 . S
C919 C923 1.393 . S
C920 H909 0.950 . S
C920 C918 1.391 . S
C920 C921 1.400 . S
C921 C915 1.491 . S
C921 C920 1.400 . S
C921 C922 1.398 . S
C922 H910 0.950 . S
C922 C921 1.398 . S
C922 C923 1.391 . S
C923 H911 0.950 . S
C923 C919 1.393 . S
C923 C922 1.391 . S
H924 C932 0.950 . S
H925 C937 0.950 . S
H926 C934 0.950 . S
H927 C936 0.950 . S
H928 C938 0.950 . S
H929 C940 0.950 . S
H930 C942 0.950 . S
H931 C943 0.950 . S
C932 H924 0.950 . S
C932 C933 1.386 . S
C932 C934 1.391 . S
C933 C932 1.386 . S
C933 C937 1.393 . S
C934 H926 0.950 . S
C934 C932 1.391 . S
C934 C935 1.400 . S
C935 C934 1.400 . S
C935 C936 1.398 . S
C935 C941 1.491 . S
C936 H927 0.950 . S
C936 C935 1.398 . S
C936 C937 1.391 . S
C937 H925 0.950 . S
C937 C933 1.393 . S
C937 C936 1.391 . S
C938 H928 0.950 . S
C938 C939 1.386 . S
C938 C940 1.391 . S
C939 C938 1.386 . S
C939 C943 1.393 . S
C940 H929 0.950 . S
C940 C938 1.391 . S
C940 C941 1.400 . S
C941 C935 1.491 . S
C941 C940 1.400 . S
C941 C942 1.398 . S
C942 H930 0.950 . S
C942 C941 1.398 . S
C942 C943 1.391 . S
C943 H931 0.950 . S
C943 C939 1.393 . S
C943 C942 1.391 . S
H944 C952 0.950 . S
H945 C957 0.950 . S
H946 C954 0.950 . S
H947 C956 0.950 . S
H948 C958 0.950 . S
H949 C960 0.950 . S
H950 C962 0.950 . S
H951 C963 0.950 . S
C952 H944 0.950 . S
C952 C953 1.386 . S
C952 C954 1.391 . S
C953 C952 1.386 . S
C953 C957 1.393 . S
C954 H946 0.950 . S
C954 C952 1.391 . S
C954 C955 1.400 . S
C955 C954 1.400 . S
C955 C956 1.398 . S
C955 C961 1.491 . S
C956 H947 0.950 . S
C956 C955 1.398 . S
C956 C957 1.391 . S
C957 H945 0.950 . S
C957 C953 1.393 . S
C957 C956 1.391 . S
C958 H948 0.950 . S
C958 C959 1.386 . S
C958 C960 1.391 . S
C959 C958 1.386 . S
C959 C963 1.393 . S
C960 H949 0.950 . S
C960 C958 1.391 . S
C960 C961 1.400 . S
C961 C955 1.491 . S
C961 C960 1.400 . S
C961 C962 1.398 . S
C962 H950 0.950 . S
C962 C961 1.398 . S
C962 C963 1.391 . S
C963 H951 0.950 . S
C963 C959 1.393 . S
C963 C962 1.391 . S
H964 C972 0.950 . S
H965 C977 0.950 . S
H966 C974 0.950 . S
H967 C976 0.950 . S
H968 C978 0.950 . S
H969 C980 0.950 . S
H970 C982 0.950 . S
H971 C983 0.950 . S
C972 H964 0.950 . S
C972 C973 1.386 . S
C972 C974 1.391 . S
C973 C972 1.386 . S
C973 C977 1.393 . S
C974 H966 0.950 . S
C974 C972 1.391 . S
C974 C975 1.400 . S
C975 C974 1.400 . S
C975 C976 1.398 . S
C975 C981 1.491 . S
C976 H967 0.950 . S
C976 C975 1.398 . S
C976 C977 1.391 . S
C977 H965 0.950 . S
C977 C973 1.393 . S
C977 C976 1.391 . S
C978 H968 0.950 . S
C978 C979 1.386 . S
C978 C980 1.391 . S
C979 C978 1.386 . S
C979 C983 1.393 . S
C980 H969 0.950 . S
C980 C978 1.391 . S
C980 C981 1.400 . S
C981 C975 1.491 . S
C981 C980 1.400 . S
C981 C982 1.398 . S
C982 H970 0.950 . S
C982 C981 1.398 . S
C982 C983 1.391 . S
C983 H971 0.950 . S
C983 C979 1.393 . S
C983 C982 1.391 . S
H984 C992 0.950 . S
H985 C997 0.950 . S
H986 C994 0.950 . S
H987 C996 0.950 . S
H988 C998 0.950 . S
H989 C1000 0.950 . S
H990 C1002 0.950 . S
H991 C1003 0.950 . S
C992 H984 0.950 . S
C992 C993 1.386 . S
C992 C994 1.391 . S
C993 C992 1.386 . S
C993 C997 1.393 . S
C994 H986 0.950 . S
C994 C992 1.391 . S
C994 C995 1.400 . S
C995 C994 1.400 . S
C995 C996 1.398 . S
C995 C1001 1.491 . S
C996 H987 0.950 . S
C996 C995 1.398 . S
C996 C997 1.391 . S
C997 H985 0.950 . S
C997 C993 1.393 . S
C997 C996 1.391 . S
C998 H988 0.950 . S
C998 C999 1.386 . S
C998 C1000 1.391 . S
C999 C998 1.386 . S
C999 C1003 1.393 . S
C1000 H989 0.950 . S
C1000 C998 1.391 . S
C1000 C1001 1.400 . S
C1001 C995 1.491 . S
C1001 C1000 1.400 . S
C1001 C1002 1.398 . S
C1002 H990 0.950 . S
C1002 C1001 1.398 . S
C1002 C1003 1.391 . S
C1003 H991 0.950 . S
C1003 C999 1.393 . S
C1003 C1002 1.391 . S
H1004 C1012 0.950 . S
H1005 C1017 0.950 . S
H1006 C1014 0.950 . S
H1007 C1016 0.950 . S
H1008 C1018 0.950 . S
H1009 C1020 0.950 . S
H1010 C1022 0.950 . S
H1011 C1023 0.950 . S
C1012 H1004 0.950 . S
C1012 C1013 1.386 . S
C1012 C1014 1.391 . S
C1013 C1012 1.386 . S
C1013 C1017 1.393 . S
C1014 H1006 0.950 . S
C1014 C1012 1.391 . S
C1014 C1015 1.400 . S
C1015 C1014 1.400 . S
C1015 C1016 1.398 . S
C1015 C1021 1.491 . S
C1016 H1007 0.950 . S
C1016 C1015 1.398 . S
C1016 C1017 1.391 . S
C1017 H1005 0.950 . S
C1017 C1013 1.393 . S
C1017 C1016 1.391 . S
C1018 H1008 0.950 . S
C1018 C1019 1.386 . S
C1018 C1020 1.391 . S
C1019 C1018 1.386 . S
C1019 C1023 1.393 . S
C1020 H1009 0.950 . S
C1020 C1018 1.391 . S
C1020 C1021 1.400 . S
C1021 C1015 1.491 . S
C1021 C1020 1.400 . S
C1021 C1022 1.398 . S
C1022 H1010 0.950 . S
C1022 C1021 1.398 . S
C1022 C1023 1.391 . S
C1023 H1011 0.950 . S
C1023 C1019 1.393 . S
C1023 C1022 1.391 . S
H1024 C1032 0.950 . S
H1025 C1037 0.950 . S
H1026 C1034 0.950 . S
H1027 C1036 0.950 . S
H1028 C1038 0.950 . S
H1029 C1040 0.950 . S
H1030 C1042 0.950 . S
H1031 C1043 0.950 . S
C1032 H1024 0.950 . S
C1032 C1033 1.386 . S
C1032 C1034 1.391 . S
C1033 C1032 1.386 . S
C1033 C1037 1.393 . S
C1034 H1026 0.950 . S
C1034 C1032 1.391 . S
C1034 C1035 1.400 . S
C1035 C1034 1.400 . S
C1035 C1036 1.398 . S
C1035 C1041 1.491 . S
C1036 H1027 0.950 . S
C1036 C1035 1.398 . S
C1036 C1037 1.391 . S
C1037 H1025 0.950 . S
C1037 C1033 1.393 . S
C1037 C1036 1.391 . S
C1038 H1028 0.950 . S
C1038 C1039 1.386 . S
C1038 C1040 1.391 . S
C1039 C1038 1.386 . S
C1039 C1043 1.393 . S
C1040 H1029 0.950 . S
C1040 C1038 1.391 . S
C1040 C1041 1.400 . S
C1041 C1035 1.491 . S
C1041 C1040 1.400 . S
C1041 C1042 1.398 . S
C1042 H1030 0.950 . S
C1042 C1041 1.398 . S
C1042 C1043 1.391 . S
C1043 H1031 0.950 . S
C1043 C1039 1.393 . S
C1043 C1042 1.391 . S
H1044 C1052 0.950 . S
H1045 C1057 0.950 . S
H1046 C1054 0.950 . S
H1047 C1056 0.950 . S
H1048 C1058 0.950 . S
H1049 C1060 0.950 . S
H1050 C1062 0.950 . S
H1051 C1063 0.950 . S
C1052 H1044 0.950 . S
C1052 C1053 1.386 . S
C1052 C1054 1.391 . S
C1053 C1052 1.386 . S
C1053 C1057 1.393 . S
C1054 H1046 0.950 . S
C1054 C1052 1.391 . S
C1054 C1055 1.400 . S
C1055 C1054 1.400 . S
C1055 C1056 1.398 . S
C1055 C1061 1.491 . S
C1056 H1047 0.950 . S
C1056 C1055 1.398 . S
C1056 C1057 1.391 . S
C1057 H1045 0.950 . S
C1057 C1053 1.393 . S
C1057 C1056 1.391 . S
C1058 H1048 0.950 . S
C1058 C1059 1.386 . S
C1058 C1060 1.391 . S
C1059 C1058 1.386 . S
C1059 C1063 1.393 . S
C1060 H1049 0.950 . S
C1060 C1058 1.391 . S
C1060 C1061 1.400 . S
C1061 C1055 1.491 . S
C1061 C1060 1.400 . S
C1061 C1062 1.398 . S
C1062 H1050 0.950 . S
C1062 C1061 1.398 . S
C1062 C1063 1.391 . S
C1063 H1051 0.950 . S
C1063 C1059 1.393 . S
C1063 C1062 1.391 . S
H1064 C1072 0.950 . S
H1065 C1077 0.950 . S
H1066 C1074 0.950 . S
H1067 C1076 0.950 . S
H1068 C1078 0.950 . S
H1069 C1080 0.950 . S
H1070 C1082 0.950 . S
H1071 C1083 0.950 . S
C1072 H1064 0.950 . S
C1072 C1073 1.386 . S
C1072 C1074 1.391 . S
C1073 C1072 1.386 . S
C1073 C1077 1.393 . S
C1074 H1066 0.950 . S
C1074 C1072 1.391 . S
C1074 C1075 1.400 . S
C1075 C1074 1.400 . S
C1075 C1076 1.398 . S
C1075 C1081 1.491 . S
C1076 H1067 0.950 . S
C1076 C1075 1.398 . S
C1076 C1077 1.391 . S
C1077 H1065 0.950 . S
C1077 C1073 1.393 . S
C1077 C1076 1.391 . S
C1078 H1068 0.950 . S
C1078 C1079 1.386 . S
C1078 C1080 1.391 . S
C1079 C1078 1.386 . S
C1079 C1083 1.393 . S
C1080 H1069 0.950 . S
C1080 C1078 1.391 . S
C1080 C1081 1.400 . S
C1081 C1075 1.491 . S
C1081 C1080 1.400 . S
C1081 C1082 1.398 . S
C1082 H1070 0.950 . S
C1082 C1081 1.398 . S
C1082 C1083 1.391 . S
C1083 H1071 0.950 . S
C1083 C1079 1.393 . S
C1083 C1082 1.391 . S
H1084 C1092 0.950 . S
H1085 C1097 0.950 . S
H1086 C1094 0.950 . S
H1087 C1096 0.950 . S
H1088 C1098 0.950 . S
H1089 C1100 0.950 . S
H1090 C1102 0.950 . S
H1091 C1103 0.950 . S
C1092 H1084 0.950 . S
C1092 C1093 1.386 . S
C1092 C1094 1.391 . S
C1093 C1092 1.386 . S
C1093 C1097 1.393 . S
C1094 H1086 0.950 . S
C1094 C1092 1.391 . S
C1094 C1095 1.400 . S
C1095 C1094 1.400 . S
C1095 C1096 1.398 . S
C1095 C1101 1.491 . S
C1096 H1087 0.950 . S
C1096 C1095 1.398 . S
C1096 C1097 1.391 . S
C1097 H1085 0.950 . S
C1097 C1093 1.393 . S
C1097 C1096 1.391 . S
C1098 H1088 0.950 . S
C1098 C1099 1.386 . S
C1098 C1100 1.391 . S
C1099 C1098 1.386 . S
C1099 C1103 1.393 . S
C1100 H1089 0.950 . S
C1100 C1098 1.391 . S
C1100 C1101 1.400 . S
C1101 C1095 1.491 . S
C1101 C1100 1.400 . S
C1101 C1102 1.398 . S
C1102 H1090 0.950 . S
C1102 C1101 1.398 . S
C1102 C1103 1.391 . S
C1103 H1091 0.950 . S
C1103 C1099 1.393 . S
C1103 C1102 1.391 . S
H1104 C1112 0.950 . S
H1105 C1117 0.950 . S
H1106 C1114 0.950 . S
H1107 C1116 0.950 . S
H1108 C1118 0.950 . S
H1109 C1120 0.950 . S
H1110 C1122 0.950 . S
H1111 C1123 0.950 . S
C1112 H1104 0.950 . S
C1112 C1113 1.386 . S
C1112 C1114 1.391 . S
C1113 C1112 1.386 . S
C1113 C1117 1.393 . S
C1114 H1106 0.950 . S
C1114 C1112 1.391 . S
C1114 C1115 1.400 . S
C1115 C1114 1.400 . S
C1115 C1116 1.398 . S
C1115 C1121 1.491 . S
C1116 H1107 0.950 . S
C1116 C1115 1.398 . S
C1116 C1117 1.391 . S
C1117 H1105 0.950 . S
C1117 C1113 1.393 . S
C1117 C1116 1.391 . S
C1118 H1108 0.950 . S
C1118 C1119 1.386 . S
C1118 C1120 1.391 . S
C1119 C1118 1.386 . S
C1119 C1123 1.393 . S
C1120 H1109 0.950 . S
C1120 C1118 1.391 . S
C1120 C1121 1.400 . S
C1121 C1115 1.491 . S
C1121 C1120 1.400 . S
C1121 C1122 1.398 . S
C1122 H1110 0.950 . S
C1122 C1121 1.398 . S
C1122 C1123 1.391 . S
C1123 H1111 0.950 . S
C1123 C1119 1.393 . S
C1123 C1122 1.391 . S
H1124 C1132 0.950 . S
H1125 C1137 0.950 . S
H1126 C1134 0.950 . S
H1127 C1136 0.950 . S
H1128 C1138 0.950 . S
H1129 C1140 0.950 . S
H1130 C1142 0.950 . S
H1131 C1143 0.950 . S
C1132 H1124 0.950 . S
C1132 C1133 1.386 . S
C1132 C1134 1.391 . S
C1133 C1132 1.386 . S
C1133 C1137 1.393 . S
C1134 H1126 0.950 . S
C1134 C1132 1.391 . S
C1134 C1135 1.400 . S
C1135 C1134 1.400 . S
C1135 C1136 1.398 . S
C1135 C1141 1.491 . S
C1136 H1127 0.950 . S
C1136 C1135 1.398 . S
C1136 C1137 1.391 . S
C1137 H1125 0.950 . S
C1137 C1133 1.393 . S
C1137 C1136 1.391 . S
C1138 H1128 0.950 . S
C1138 C1139 1.386 . S
C1138 C1140 1.391 . S
C1139 C1138 1.386 . S
C1139 C1143 1.393 . S
C1140 H1129 0.950 . S
C1140 C1138 1.391 . S
C1140 C1141 1.400 . S
C1141 C1135 1.491 . S
C1141 C1140 1.400 . S
C1141 C1142 1.398 . S
C1142 H1130 0.950 . S
C1142 C1141 1.398 . S
C1142 C1143 1.391 . S
C1143 H1131 0.950 . S
C1143 C1139 1.393 . S
C1143 C1142 1.391 . S
H1144 C1152 0.950 . S
H1145 C1157 0.950 . S
H1146 C1154 0.950 . S
H1147 C1156 0.950 . S
H1148 C1158 0.950 . S
H1149 C1160 0.950 . S
H1150 C1162 0.950 . S
H1151 C1163 0.950 . S
C1152 H1144 0.950 . S
C1152 C1153 1.386 . S
C1152 C1154 1.391 . S
C1153 C1152 1.386 . S
C1153 C1157 1.393 . S
C1154 H1146 0.950 . S
C1154 C1152 1.391 . S
C1154 C1155 1.400 . S
C1155 C1154 1.400 . S
C1155 C1156 1.398 . S
C1155 C1161 1.491 . S
C1156 H1147 0.950 . S
C1156 C1155 1.398 . S
C1156 C1157 1.391 . S
C1157 H1145 0.950 . S
C1157 C1153 1.393 . S
C1157 C1156 1.391 . S
C1158 H1148 0.950 . S
C1158 C1159 1.386 . S
C1158 C1160 1.391 . S
C1159 C1158 1.386 . S
C1159 C1163 1.393 . S
C1160 H1149 0.950 . S
C1160 C1158 1.391 . S
C1160 C1161 1.400 . S
C1161 C1155 1.491 . S
C1161 C1160 1.400 . S
C1161 C1162 1.398 . S
C1162 H1150 0.950 . S
C1162 C1161 1.398 . S
C1162 C1163 1.391 . S
C1163 H1151 0.950 . S
C1163 C1159 1.393 . S
C1163 C1162 1.391 . S
H1164 C1172 0.950 . S
H1165 C1177 0.950 . S
H1166 C1174 0.950 . S
H1167 C1176 0.950 . S
H1168 C1178 0.950 . S
H1169 C1180 0.950 . S
H1170 C1182 0.950 . S
H1171 C1183 0.950 . S
C1172 H1164 0.950 . S
C1172 C1173 1.386 . S
C1172 C1174 1.391 . S
C1173 C1172 1.386 . S
C1173 C1177 1.393 . S
C1174 H1166 0.950 . S
C1174 C1172 1.391 . S
C1174 C1175 1.400 . S
C1175 C1174 1.400 . S
C1175 C1176 1.398 . S
C1175 C1181 1.491 . S
C1176 H1167 0.950 . S
C1176 C1175 1.398 . S
C1176 C1177 1.391 . S
C1177 H1165 0.950 . S
C1177 C1173 1.393 . S
C1177 C1176 1.391 . S
C1178 H1168 0.950 . S
C1178 C1179 1.386 . S
C1178 C1180 1.391 . S
C1179 C1178 1.386 . S
C1179 C1183 1.393 . S
C1180 H1169 0.950 . S
C1180 C1178 1.391 . S
C1180 C1181 1.400 . S
C1181 C1175 1.491 . S
C1181 C1180 1.400 . S
C1181 C1182 1.398 . S
C1182 H1170 0.950 . S
C1182 C1181 1.398 . S
C1182 C1183 1.391 . S
C1183 H1171 0.950 . S
C1183 C1179 1.393 . S
C1183 C1182 1.391 . S
H1184 C1192 0.950 . S
H1185 C1197 0.950 . S
H1186 C1194 0.950 . S
H1187 C1196 0.950 . S
H1188 C1198 0.950 . S
H1189 C1200 0.950 . S
H1190 C1202 0.950 . S
H1191 C1203 0.950 . S
C1192 H1184 0.950 . S
C1192 C1193 1.386 . S
C1192 C1194 1.391 . S
C1193 C1192 1.386 . S
C1193 C1197 1.393 . S
C1194 H1186 0.950 . S
C1194 C1192 1.391 . S
C1194 C1195 1.400 . S
C1195 C1194 1.400 . S
C1195 C1196 1.398 . S
C1195 C1201 1.491 . S
C1196 H1187 0.950 . S
C1196 C1195 1.398 . S
C1196 C1197 1.391 . S
C1197 H1185 0.950 . S
C1197 C1193 1.393 . S
C1197 C1196 1.391 . S
C1198 H1188 0.950 . S
C1198 C1199 1.386 . S
C1198 C1200 1.391 . S
C1199 C1198 1.386 . S
C1199 C1203 1.393 . S
C1200 H1189 0.950 . S
C1200 C1198 1.391 . S
C1200 C1201 1.400 . S
C1201 C1195 1.491 . S
C1201 C1200 1.400 . S
C1201 C1202 1.398 . S
C1202 H1190 0.950 . S
C1202 C1201 1.398 . S
C1202 C1203 1.391 . S
C1203 H1191 0.950 . S
C1203 C1199 1.393 . S
C1203 C1202 1.391 . S
H1204 C1212 0.950 . S
H1205 C1217 0.950 . S
H1206 C1214 0.950 . S
H1207 C1216 0.950 . S
H1208 C1218 0.950 . S
H1209 C1220 0.950 . S
H1210 C1222 0.950 . S
H1211 C1223 0.950 . S
C1212 H1204 0.950 . S
C1212 C1213 1.386 . S
C1212 C1214 1.391 . S
C1213 C1212 1.386 . S
C1213 C1217 1.393 . S
C1214 H1206 0.950 . S
C1214 C1212 1.391 . S
C1214 C1215 1.400 . S
C1215 C1214 1.400 . S
C1215 C1216 1.398 . S
C1215 C1221 1.491 . S
C1216 H1207 0.950 . S
C1216 C1215 1.398 . S
C1216 C1217 1.391 . S
C1217 H1205 0.950 . S
C1217 C1213 1.393 . S
C1217 C1216 1.391 . S
C1218 H1208 0.950 . S
C1218 C1219 1.386 . S
C1218 C1220 1.391 . S
C1219 C1218 1.386 . S
C1219 C1223 1.393 . S
C1220 H1209 0.950 . S
C1220 C1218 1.391 . S
C1220 C1221 1.400 . S
C1221 C1215 1.491 . S
C1221 C1220 1.400 . S
C1221 C1222 1.398 . S
C1222 H1210 0.950 . S
C1222 C1221 1.398 . S
C1222 C1223 1.391 . S
C1223 H1211 0.950 . S
C1223 C1219 1.393 . S
C1223 C1222 1.391 . S
H1224 C1232 0.950 . S
H1225 C1237 0.950 . S
H1226 C1234 0.950 . S
H1227 C1236 0.950 . S
H1228 C1238 0.950 . S
H1229 C1240 0.950 . S
H1230 C1242 0.950 . S
H1231 C1243 0.950 . S
C1232 H1224 0.950 . S
C1232 C1233 1.386 . S
C1232 C1234 1.391 . S
C1233 C1232 1.386 . S
C1233 C1237 1.393 . S
C1234 H1226 0.950 . S
C1234 C1232 1.391 . S
C1234 C1235 1.400 . S
C1235 C1234 1.400 . S
C1235 C1236 1.398 . S
C1235 C1241 1.491 . S
C1236 H1227 0.950 . S
C1236 C1235 1.398 . S
C1236 C1237 1.391 . S
C1237 H1225 0.950 . S
C1237 C1233 1.393 . S
C1237 C1236 1.391 . S
C1238 H1228 0.950 . S
C1238 C1239 1.386 . S
C1238 C1240 1.391 . S
C1239 C1238 1.386 . S
C1239 C1243 1.393 . S
C1240 H1229 0.950 . S
C1240 C1238 1.391 . S
C1240 C1241 1.400 . S
C1241 C1235 1.491 . S
C1241 C1240 1.400 . S
C1241 C1242 1.398 . S
C1242 H1230 0.950 . S
C1242 C1241 1.398 . S
C1242 C1243 1.391 . S
C1243 H1231 0.950 . S
C1243 C1239 1.393 . S
C1243 C1242 1.391 . S
H1244 C1252 0.950 . S
H1245 C1257 0.950 . S
H1246 C1254 0.966 . S
H1247 C1256 0.950 . S
H1248 C1258 0.950 . S
H1249 C1260 0.966 . S
H1250 C1262 0.950 . S
H1251 C1263 0.950 . S
C1252 H1244 0.950 . S
C1252 C1253 1.386 . S
C1252 C1254 1.382 1_565 S
C1253 C1252 1.386 . S
C1253 C1257 1.393 . S
C1254 H1246 0.966 . S
C1254 C1252 1.382 1_545 S
C1254 C1255 1.393 1_545 S
C1255 C1254 1.393 1_565 S
C1255 C1256 1.398 . S
C1255 C1261 1.491 1_565 S
C1256 H1247 0.950 . S
C1256 C1255 1.398 . S
C1256 C1257 1.391 . S
C1257 H1245 0.950 . S
C1257 C1253 1.393 . S
C1257 C1256 1.391 . S
C1258 H1248 0.950 . S
C1258 C1259 1.386 . S
C1258 C1260 1.382 1_545 S
C1259 C1258 1.386 . S
C1259 C1263 1.393 . S
C1260 H1249 0.966 . S
C1260 C1258 1.382 1_565 S
C1260 C1261 1.393 1_565 S
C1261 C1255 1.491 1_545 S
C1261 C1260 1.393 1_545 S
C1261 C1262 1.398 . S
C1262 H1250 0.950 . S
C1262 C1261 1.398 . S
C1262 C1263 1.391 . S
C1263 H1251 0.950 . S
C1263 C1259 1.393 . S
C1263 C1262 1.391 . S
H1264 C1272 0.950 . S
H1265 C1277 0.950 . S
H1266 C1274 0.950 . S
H1267 C1276 0.950 1_455 S
H1268 C1278 0.950 . S
H1269 C1280 0.950 . S
H1270 C1282 0.950 1_655 S
H1271 C1283 0.950 . S
C1272 H1264 0.950 . S
C1272 C1273 1.386 . S
C1272 C1274 1.391 . S
C1273 C1272 1.386 . S
C1273 C1277 1.393 . S
C1274 H1266 0.950 . S
C1274 C1272 1.391 . S
C1274 C1275 1.400 . S
C1275 C1274 1.400 . S
C1275 C1276 1.398 . S
C1275 C1281 1.491 1_655 S
C1276 H1267 0.950 1_655 S
C1276 C1275 1.398 . S
C1276 C1277 1.391 . S
C1277 H1265 0.950 . S
C1277 C1273 1.393 . S
C1277 C1276 1.391 . S
C1278 H1268 0.950 . S
C1278 C1279 1.386 . S
C1278 C1280 1.391 . S
C1279 C1278 1.386 . S
C1279 C1283 1.393 . S
C1280 H1269 0.950 . S
C1280 C1278 1.391 . S
C1280 C1281 1.400 . S
C1281 C1275 1.491 1_455 S
C1281 C1280 1.400 . S
C1281 C1282 1.398 . S
C1282 H1270 0.950 1_455 S
C1282 C1281 1.398 . S
C1282 C1283 1.391 . S
C1283 H1271 0.950 . S
C1283 C1279 1.393 . S
C1283 C1282 1.391 . S
H1284 C1292 0.950 . S
H1285 C1297 0.950 . S
H1286 C1294 0.950 . S
H1287 C1296 0.950 . S
H1288 C1298 0.950 . S
H1289 C1300 0.950 . S
H1290 C1302 0.950 . S
H1291 C1303 0.950 . S
C1292 H1284 0.950 . S
C1292 C1293 1.386 . S
C1292 C1294 1.391 . S
C1293 C1292 1.386 . S
C1293 C1297 1.393 . S
C1294 H1286 0.950 . S
C1294 C1292 1.391 . S
C1294 C1295 1.400 . S
C1295 C1294 1.400 . S
C1295 C1296 1.398 . S
C1295 C1301 1.491 . S
C1296 H1287 0.950 . S
C1296 C1295 1.398 . S
C1296 C1297 1.391 . S
C1297 H1285 0.950 . S
C1297 C1293 1.393 . S
C1297 C1296 1.391 . S
C1298 H1288 0.950 . S
C1298 C1299 1.386 . S
C1298 C1300 1.391 . S
C1299 C1298 1.386 . S
C1299 C1303 1.393 . S
C1300 H1289 0.950 . S
C1300 C1298 1.391 . S
C1300 C1301 1.400 . S
C1301 C1295 1.491 . S
C1301 C1300 1.400 . S
C1301 C1302 1.398 . S
C1302 H1290 0.950 . S
C1302 C1301 1.398 . S
C1302 C1303 1.391 . S
C1303 H1291 0.950 . S
C1303 C1299 1.393 . S
C1303 C1302 1.391 . S
H1304 C1312 0.950 . S
H1305 C1317 0.950 . S
H1306 C1314 0.950 . S
H1307 C1316 0.998 . S
H1308 C1318 0.950 . S
H1309 C1320 0.950 . S
H1310 C1322 0.998 . S
H1311 C1323 0.950 . S
C1312 H1304 0.950 . S
C1312 C1313 1.386 . S
C1312 C1314 1.391 . S
C1313 C1312 1.386 . S
C1313 C1317 1.393 . S
C1314 H1306 0.950 . S
C1314 C1312 1.391 . S
C1314 C1315 1.400 . S
C1315 C1314 1.400 . S
C1315 C1316 1.381 1_545 S
C1315 C1321 1.491 1_545 S
C1316 H1307 0.998 . S
C1316 C1315 1.381 1_565 S
C1316 C1317 1.363 1_565 S
C1317 H1305 0.950 . S
C1317 C1313 1.393 . S
C1317 C1316 1.363 1_545 S
C1318 H1308 0.950 . S
C1318 C1319 1.386 . S
C1318 C1320 1.391 . S
C1319 C1318 1.386 . S
C1319 C1323 1.393 . S
C1320 H1309 0.950 . S
C1320 C1318 1.391 . S
C1320 C1321 1.400 . S
C1321 C1315 1.491 1_565 S
C1321 C1320 1.400 . S
C1321 C1322 1.381 1_565 S
C1322 H1310 0.998 . S
C1322 C1321 1.381 1_545 S
C1322 C1323 1.363 1_545 S
C1323 H1311 0.950 . S
C1323 C1319 1.393 . S
C1323 C1322 1.363 1_565 S
H1324 C1332 0.950 . S
H1325 C1337 0.950 . S
H1326 C1334 0.941 1_455 S
H1327 C1336 0.950 . S
H1328 C1338 0.950 . S
H1329 C1340 0.941 1_655 S
H1330 C1342 0.950 . S
H1331 C1343 0.950 . S
C1332 H1324 0.950 . S
C1332 C1333 1.386 . S
C1332 C1334 1.398 . S
C1333 C1332 1.386 . S
C1333 C1337 1.393 . S
C1334 H1326 0.941 1_655 S
C1334 C1332 1.398 . S
C1334 C1335 1.402 . S
C1335 C1334 1.402 . S
C1335 C1336 1.398 . S
C1335 C1341 1.491 1_655 S
C1336 H1327 0.950 . S
C1336 C1335 1.398 . S
C1336 C1337 1.391 . S
C1337 H1325 0.950 . S
C1337 C1333 1.393 . S
C1337 C1336 1.391 . S
C1338 H1328 0.950 . S
C1338 C1339 1.386 . S
C1338 C1340 1.398 . S
C1339 C1338 1.386 . S
C1339 C1343 1.393 . S
C1340 H1329 0.941 1_455 S
C1340 C1338 1.398 . S
C1340 C1341 1.402 . S
C1341 C1335 1.491 1_455 S
C1341 C1340 1.402 . S
C1341 C1342 1.398 . S
C1342 H1330 0.950 . S
C1342 C1341 1.398 . S
C1342 C1343 1.391 . S
C1343 H1331 0.950 . S
C1343 C1339 1.393 . S
C1343 C1342 1.391 . S
H1344 C1352 0.950 . S
H1345 C1357 0.950 . S
H1346 C1354 0.950 . S
H1347 C1356 0.950 . S
H1348 C1358 0.950 . S
H1349 C1360 0.950 . S
H1350 C1362 0.950 . S
H1351 C1363 0.950 . S
C1352 H1344 0.950 . S
C1352 C1353 1.386 . S
C1352 C1354 1.391 . S
C1353 C1352 1.386 . S
C1353 C1357 1.393 . S
C1354 H1346 0.950 . S
C1354 C1352 1.391 . S
C1354 C1355 1.400 . S
C1355 C1354 1.400 . S
C1355 C1356 1.398 . S
C1355 C1361 1.491 . S
C1356 H1347 0.950 . S
C1356 C1355 1.398 . S
C1356 C1357 1.391 . S
C1357 H1345 0.950 . S
C1357 C1353 1.393 . S
C1357 C1356 1.391 . S
C1358 H1348 0.950 . S
C1358 C1359 1.386 . S
C1358 C1360 1.391 . S
C1359 C1358 1.386 . S
C1359 C1363 1.393 . S
C1360 H1349 0.950 . S
C1360 C1358 1.391 . S
C1360 C1361 1.400 . S
C1361 C1355 1.491 . S
C1361 C1360 1.400 . S
C1361 C1362 1.398 . S
C1362 H1350 0.950 . S
C1362 C1361 1.398 . S
C1362 C1363 1.391 . S
C1363 H1351 0.950 . S
C1363 C1359 1.393 . S
C1363 C1362 1.391 . S
H1364 C1372 0.950 . S
H1365 C1377 0.950 . S
H1366 C1374 0.950 . S
H1367 C1376 0.950 . S
H1368 C1378 0.950 . S
H1369 C1380 0.950 . S
H1370 C1382 0.950 . S
H1371 C1383 0.950 . S
C1372 H1364 0.950 . S
C1372 C1373 1.386 . S
C1372 C1374 1.391 . S
C1373 C1372 1.386 . S
C1373 C1377 1.393 . S
C1374 H1366 0.950 . S
C1374 C1372 1.391 . S
C1374 C1375 1.400 . S
C1375 C1374 1.400 . S
C1375 C1376 1.398 . S
C1375 C1381 1.491 . S
C1376 H1367 0.950 . S
C1376 C1375 1.398 . S
C1376 C1377 1.391 . S
C1377 H1365 0.950 . S
C1377 C1373 1.393 . S
C1377 C1376 1.391 . S
C1378 H1368 0.950 . S
C1378 C1379 1.386 . S
C1378 C1380 1.391 . S
C1379 C1378 1.386 . S
C1379 C1383 1.393 . S
C1380 H1369 0.950 . S
C1380 C1378 1.391 . S
C1380 C1381 1.400 . S
C1381 C1375 1.491 . S
C1381 C1380 1.400 . S
C1381 C1382 1.398 . S
C1382 H1370 0.950 . S
C1382 C1381 1.398 . S
C1382 C1383 1.391 . S
C1383 H1371 0.950 . S
C1383 C1379 1.393 . S
C1383 C1382 1.391 . S
H1384 C1392 0.950 . S
H1385 C1397 0.950 . S
H1386 C1394 0.950 . S
H1387 C1396 0.950 . S
H1388 C1398 0.950 . S
H1389 C1400 0.950 . S
H1390 C1402 0.950 . S
H1391 C1403 0.950 . S
C1392 H1384 0.950 . S
C1392 C1393 1.386 . S
C1392 C1394 1.391 . S
C1393 C1392 1.386 . S
C1393 C1397 1.393 . S
C1394 H1386 0.950 . S
C1394 C1392 1.391 . S
C1394 C1395 1.400 . S
C1395 C1394 1.400 . S
C1395 C1396 1.398 . S
C1395 C1401 1.491 . S
C1396 H1387 0.950 . S
C1396 C1395 1.398 . S
C1396 C1397 1.391 . S
C1397 H1385 0.950 . S
C1397 C1393 1.393 . S
C1397 C1396 1.391 . S
C1398 H1388 0.950 . S
C1398 C1399 1.386 . S
C1398 C1400 1.391 . S
C1399 C1398 1.386 . S
C1399 C1403 1.393 . S
C1400 H1389 0.950 . S
C1400 C1398 1.391 . S
C1400 C1401 1.400 . S
C1401 C1395 1.491 . S
C1401 C1400 1.400 . S
C1401 C1402 1.398 . S
C1402 H1390 0.950 . S
C1402 C1401 1.398 . S
C1402 C1403 1.391 . S
C1403 H1391 0.950 . S
C1403 C1399 1.393 . S
C1403 C1402 1.391 . S
H1404 C1412 0.950 1_556 S
H1405 C1417 0.950 . S
H1406 C1414 0.950 . S
H1407 C1416 0.950 . S
H1408 C1418 0.950 . S
H1409 C1420 0.950 . S
H1410 C1422 0.950 . S
H1411 C1423 0.950 . S
C1412 H1404 0.950 1_554 S
C1412 C1413 1.386 . S
C1412 C1414 1.391 . S
C1413 C1412 1.386 . S
C1413 C1417 1.393 . S
C1414 H1406 0.950 . S
C1414 C1412 1.391 . S
C1414 C1415 1.400 . S
C1415 C1414 1.400 . S
C1415 C1416 1.398 . S
C1415 C1421 1.491 . S
C1416 H1407 0.950 . S
C1416 C1415 1.398 . S
C1416 C1417 1.391 . S
C1417 H1405 0.950 . S
C1417 C1413 1.393 . S
C1417 C1416 1.391 . S
C1418 H1408 0.950 . S
C1418 C1419 1.386 . S
C1418 C1420 1.391 . S
C1419 C1418 1.386 . S
C1419 C1423 1.393 . S
C1420 H1409 0.950 . S
C1420 C1418 1.391 . S
C1420 C1421 1.400 . S
C1421 C1415 1.491 . S
C1421 C1420 1.400 . S
C1421 C1422 1.398 . S
C1422 H1410 0.950 . S
C1422 C1421 1.398 . S
C1422 C1423 1.391 . S
C1423 H1411 0.950 . S
C1423 C1419 1.393 . S
C1423 C1422 1.391 . S
H1424 C1432 0.950 . S
H1425 C1437 0.950 . S
H1426 C1434 0.950 . S
H1427 C1436 0.950 . S
H1428 C1438 0.950 . S
H1429 C1440 0.950 . S
H1430 C1442 0.950 . S
H1431 C1443 0.950 . S
C1432 H1424 0.950 . S
C1432 C1433 1.386 . S
C1432 C1434 1.391 . S
C1433 C1432 1.386 . S
C1433 C1437 1.393 . S
C1434 H1426 0.950 . S
C1434 C1432 1.391 . S
C1434 C1435 1.400 . S
C1435 C1434 1.400 . S
C1435 C1436 1.398 . S
C1435 C1441 1.491 . S
C1436 H1427 0.950 . S
C1436 C1435 1.398 . S
C1436 C1437 1.391 . S
C1437 H1425 0.950 . S
C1437 C1433 1.393 . S
C1437 C1436 1.391 . S
C1438 H1428 0.950 . S
C1438 C1439 1.386 . S
C1438 C1440 1.391 . S
C1439 C1438 1.386 . S
C1439 C1443 1.393 . S
C1440 H1429 0.950 . S
C1440 C1438 1.391 . S
C1440 C1441 1.400 . S
C1441 C1435 1.491 . S
C1441 C1440 1.400 . S
C1441 C1442 1.398 . S
C1442 H1430 0.950 . S
C1442 C1441 1.398 . S
C1442 C1443 1.391 . S
C1443 H1431 0.950 . S
C1443 C1439 1.393 . S
C1443 C1442 1.391 . S
H1444 C1452 0.950 . S
H1445 C1457 0.950 1_556 S
H1446 C1454 0.950 . S
H1447 C1456 0.950 . S
H1448 C1458 0.950 . S
H1449 C1460 0.950 . S
H1450 C1462 0.950 . S
H1451 C1463 0.950 . S
C1452 H1444 0.950 . S
C1452 C1453 1.386 . S
C1452 C1454 1.391 . S
C1453 C1452 1.386 . S
C1453 C1457 1.393 . S
C1454 H1446 0.950 . S
C1454 C1452 1.391 . S
C1454 C1455 1.400 . S
C1455 C1454 1.400 . S
C1455 C1456 1.398 . S
C1455 C1461 1.491 . S
C1456 H1447 0.950 . S
C1456 C1455 1.398 . S
C1456 C1457 1.391 . S
C1457 H1445 0.950 1_554 S
C1457 C1453 1.393 . S
C1457 C1456 1.391 . S
C1458 H1448 0.950 . S
C1458 C1459 1.386 . S
C1458 C1460 1.391 . S
C1459 C1458 1.386 . S
C1459 C1463 1.393 . S
C1460 H1449 0.950 . S
C1460 C1458 1.391 . S
C1460 C1461 1.400 . S
C1461 C1455 1.491 . S
C1461 C1460 1.400 . S
C1461 C1462 1.398 . S
C1462 H1450 0.950 . S
C1462 C1461 1.398 . S
C1462 C1463 1.391 . S
C1463 H1451 0.950 . S
C1463 C1459 1.393 . S
C1463 C1462 1.391 . S
H1464 C1472 0.950 1_554 S
H1465 C1477 0.950 . S
H1466 C1474 0.950 . S
H1467 C1476 0.950 . S
H1468 C1478 0.950 . S
H1469 C1480 0.950 . S
H1470 C1482 0.950 . S
H1471 C1483 0.950 . S
C1472 H1464 0.950 1_556 S
C1472 C1473 1.386 . S
C1472 C1474 1.391 . S
C1473 C1472 1.386 . S
C1473 C1477 1.393 . S
C1474 H1466 0.950 . S
C1474 C1472 1.391 . S
C1474 C1475 1.400 . S
C1475 C1474 1.400 . S
C1475 C1476 1.398 . S
C1475 C1481 1.491 . S
C1476 H1467 0.950 . S
C1476 C1475 1.398 . S
C1476 C1477 1.391 . S
C1477 H1465 0.950 . S
C1477 C1473 1.393 . S
C1477 C1476 1.391 . S
C1478 H1468 0.950 . S
C1478 C1479 1.386 . S
C1478 C1480 1.391 . S
C1479 C1478 1.386 . S
C1479 C1483 1.393 . S
C1480 H1469 0.950 . S
C1480 C1478 1.391 . S
C1480 C1481 1.400 . S
C1481 C1475 1.491 . S
C1481 C1480 1.400 . S
C1481 C1482 1.398 . S
C1482 H1470 0.950 . S
C1482 C1481 1.398 . S
C1482 C1483 1.391 . S
C1483 H1471 0.950 . S
C1483 C1479 1.393 . S
C1483 C1482 1.391 . S
H1484 C1492 0.950 . S
H1485 C1497 0.950 . S
H1486 C1494 0.950 . S
H1487 C1496 0.950 . S
H1488 C1498 0.950 1_554 S
H1489 C1500 0.950 . S
H1490 C1502 0.950 . S
H1491 C1503 0.950 . S
C1492 H1484 0.950 . S
C1492 C1493 1.386 . S
C1492 C1494 1.391 . S
C1493 C1492 1.386 . S
C1493 C1497 1.393 . S
C1494 H1486 0.950 . S
C1494 C1492 1.391 . S
C1494 C1495 1.400 . S
C1495 C1494 1.400 . S
C1495 C1496 1.398 . S
C1495 C1501 1.491 . S
C1496 H1487 0.950 . S
C1496 C1495 1.398 . S
C1496 C1497 1.391 . S
C1497 H1485 0.950 . S
C1497 C1493 1.393 . S
C1497 C1496 1.391 . S
C1498 H1488 0.950 1_556 S
C1498 C1499 1.386 . S
C1498 C1500 1.391 . S
C1499 C1498 1.386 . S
C1499 C1503 1.393 . S
C1500 H1489 0.950 . S
C1500 C1498 1.391 . S
C1500 C1501 1.400 . S
C1501 C1495 1.491 . S
C1501 C1500 1.400 . S
C1501 C1502 1.398 . S
C1502 H1490 0.950 . S
C1502 C1501 1.398 . S
C1502 C1503 1.391 . S
C1503 H1491 0.950 . S
C1503 C1499 1.393 . S
C1503 C1502 1.391 . S
H1504 C1512 0.950 1_554 S
H1505 C1517 0.950 . S
H1506 C1514 0.950 . S
H1507 C1516 0.950 . S
H1508 C1518 0.950 . S
H1509 C1520 0.950 . S
H1510 C1522 0.950 . S
H1511 C1523 0.950 . S
C1512 H1504 0.950 1_556 S
C1512 C1513 1.386 . S
C1512 C1514 1.391 . S
C1513 C1512 1.386 . S
C1513 C1517 1.393 . S
C1514 H1506 0.950 . S
C1514 C1512 1.391 . S
C1514 C1515 1.400 . S
C1515 C1514 1.400 . S
C1515 C1516 1.398 . S
C1515 C1521 1.491 . S
C1516 H1507 0.950 . S
C1516 C1515 1.398 . S
C1516 C1517 1.391 . S
C1517 H1505 0.950 . S
C1517 C1513 1.393 . S
C1517 C1516 1.391 . S
C1518 H1508 0.950 . S
C1518 C1519 1.386 . S
C1518 C1520 1.391 . S
C1519 C1518 1.386 . S
C1519 C1523 1.393 . S
C1520 H1509 0.950 . S
C1520 C1518 1.391 . S
C1520 C1521 1.400 . S
C1521 C1515 1.491 . S
C1521 C1520 1.400 . S
C1521 C1522 1.398 . S
C1522 H1510 0.950 . S
C1522 C1521 1.398 . S
C1522 C1523 1.391 . S
C1523 H1511 0.950 . S
C1523 C1519 1.393 . S
C1523 C1522 1.391 . S
H1524 C1532 0.950 . S
H1525 C1537 0.950 . S
H1526 C1534 0.950 . S
H1527 C1536 0.950 . S
H1528 C1538 0.950 . S
H1529 C1540 0.950 . S
H1530 C1542 0.950 . S
H1531 C1543 0.950 . S
C1532 H1524 0.950 . S
C1532 C1533 1.386 . S
C1532 C1534 1.391 . S
C1533 C1532 1.386 . S
C1533 C1537 1.393 . S
C1534 H1526 0.950 . S
C1534 C1532 1.391 . S
C1534 C1535 1.400 . S
C1535 C1534 1.400 . S
C1535 C1536 1.398 . S
C1535 C1541 1.491 . S
C1536 H1527 0.950 . S
C1536 C1535 1.398 . S
C1536 C1537 1.391 . S
C1537 H1525 0.950 . S
C1537 C1533 1.393 . S
C1537 C1536 1.391 . S
C1538 H1528 0.950 . S
C1538 C1539 1.386 . S
C1538 C1540 1.391 . S
C1539 C1538 1.386 . S
C1539 C1543 1.393 . S
C1540 H1529 0.950 . S
C1540 C1538 1.391 . S
C1540 C1541 1.400 . S
C1541 C1535 1.491 . S
C1541 C1540 1.400 . S
C1541 C1542 1.398 . S
C1542 H1530 0.950 . S
C1542 C1541 1.398 . S
C1542 C1543 1.391 . S
C1543 H1531 0.950 . S
C1543 C1539 1.393 . S
C1543 C1542 1.391 . S
H1544 C1552 0.950 . S
H1545 C1557 0.950 . S
H1546 C1554 0.950 . S
H1547 C1556 0.950 . S
H1548 C1558 0.950 . S
H1549 C1560 0.950 . S
H1550 C1562 0.950 . S
H1551 C1563 0.950 . S
C1552 H1544 0.950 . S
C1552 C1553 1.386 . S
C1552 C1554 1.391 . S
C1553 C1552 1.386 . S
C1553 C1557 1.393 . S
C1554 H1546 0.950 . S
C1554 C1552 1.391 . S
C1554 C1555 1.400 . S
C1555 C1554 1.400 . S
C1555 C1556 1.398 . S
C1555 C1561 1.491 . S
C1556 H1547 0.950 . S
C1556 C1555 1.398 . S
C1556 C1557 1.391 . S
C1557 H1545 0.950 . S
C1557 C1553 1.393 . S
C1557 C1556 1.391 . S
C1558 H1548 0.950 . S
C1558 C1559 1.386 . S
C1558 C1560 1.391 . S
C1559 C1558 1.386 . S
C1559 C1563 1.393 . S
C1560 H1549 0.950 . S
C1560 C1558 1.391 . S
C1560 C1561 1.400 . S
C1561 C1555 1.491 . S
C1561 C1560 1.400 . S
C1561 C1562 1.398 . S
C1562 H1550 0.950 . S
C1562 C1561 1.398 . S
C1562 C1563 1.391 . S
C1563 H1551 0.950 . S
C1563 C1559 1.393 . S
C1563 C1562 1.391 . S
H1564 C1572 0.950 . S
H1565 C1577 0.950 . S
H1566 C1574 0.950 . S
H1567 C1576 0.950 . S
H1568 C1578 0.950 . S
H1569 C1580 0.950 . S
H1570 C1582 0.950 . S
H1571 C1583 0.950 . S
C1572 H1564 0.950 . S
C1572 C1573 1.386 . S
C1572 C1574 1.391 . S
C1573 C1572 1.386 . S
C1573 C1577 1.393 . S
C1574 H1566 0.950 . S
C1574 C1572 1.391 . S
C1574 C1575 1.400 . S
C1575 C1574 1.400 . S
C1575 C1576 1.398 . S
C1575 C1581 1.491 . S
C1576 H1567 0.950 . S
C1576 C1575 1.398 . S
C1576 C1577 1.391 . S
C1577 H1565 0.950 . S
C1577 C1573 1.393 . S
C1577 C1576 1.391 . S
C1578 H1568 0.950 . S
C1578 C1579 1.386 . S
C1578 C1580 1.391 . S
C1579 C1578 1.386 . S
C1579 C1583 1.393 . S
C1580 H1569 0.950 . S
C1580 C1578 1.391 . S
C1580 C1581 1.400 . S
C1581 C1575 1.491 . S
C1581 C1580 1.400 . S
C1581 C1582 1.398 . S
C1582 H1570 0.950 . S
C1582 C1581 1.398 . S
C1582 C1583 1.391 . S
C1583 H1571 0.950 . S
C1583 C1579 1.393 . S
C1583 C1582 1.391 . S
H1584 C1592 0.950 . S
H1585 C1597 0.950 . S
H1586 C1594 0.950 . S
H1587 C1596 0.950 . S
H1588 C1598 0.950 . S
H1589 C1600 0.950 . S
H1590 C1602 0.950 . S
H1591 C1603 0.950 . S
C1592 H1584 0.950 . S
C1592 C1593 1.386 . S
C1592 C1594 1.391 . S
C1593 C1592 1.386 . S
C1593 C1597 1.393 . S
C1594 H1586 0.950 . S
C1594 C1592 1.391 . S
C1594 C1595 1.400 . S
C1595 C1594 1.400 . S
C1595 C1596 1.398 . S
C1595 C1601 1.491 . S
C1596 H1587 0.950 . S
C1596 C1595 1.398 . S
C1596 C1597 1.391 . S
C1597 H1585 0.950 . S
C1597 C1593 1.393 . S
C1597 C1596 1.391 . S
C1598 H1588 0.950 . S
C1598 C1599 1.386 . S
C1598 C1600 1.391 . S
C1599 C1598 1.386 . S
C1599 C1603 1.393 . S
C1600 H1589 0.950 . S
C1600 C1598 1.391 . S
C1600 C1601 1.400 . S
C1601 C1595 1.491 . S
C1601 C1600 1.400 . S
C1601 C1602 1.398 . S
C1602 H1590 0.950 . S
C1602 C1601 1.398 . S
C1602 C1603 1.391 . S
C1603 H1591 0.950 . S
C1603 C1599 1.393 . S
C1603 C1602 1.391 . S
H1604 C1612 0.950 . S
H1605 C1617 0.950 . S
H1606 C1614 0.950 . S
H1607 C1616 0.950 . S
H1608 C1618 0.950 . S
H1609 C1620 0.950 . S
H1610 C1622 0.950 . S
H1611 C1623 0.950 . S
C1612 H1604 0.950 . S
C1612 C1613 1.386 . S
C1612 C1614 1.391 . S
C1613 C1612 1.386 . S
C1613 C1617 1.393 . S
C1614 H1606 0.950 . S
C1614 C1612 1.391 . S
C1614 C1615 1.400 . S
C1615 C1614 1.400 . S
C1615 C1616 1.398 . S
C1615 C1621 1.491 . S
C1616 H1607 0.950 . S
C1616 C1615 1.398 . S
C1616 C1617 1.391 . S
C1617 H1605 0.950 . S
C1617 C1613 1.393 . S
C1617 C1616 1.391 . S
C1618 H1608 0.950 . S
C1618 C1619 1.386 . S
C1618 C1620 1.391 . S
C1619 C1618 1.386 . S
C1619 C1623 1.393 . S
C1620 H1609 0.950 . S
C1620 C1618 1.391 . S
C1620 C1621 1.400 . S
C1621 C1615 1.491 . S
C1621 C1620 1.400 . S
C1621 C1622 1.398 . S
C1622 H1610 0.950 . S
C1622 C1621 1.398 . S
C1622 C1623 1.391 . S
C1623 H1611 0.950 . S
C1623 C1619 1.393 . S
C1623 C1622 1.391 . S
H1624 C1632 0.950 . S
H1625 C1637 0.950 . S
H1626 C1634 0.950 . S
H1627 C1636 0.950 . S
H1628 C1638 0.950 . S
H1629 C1640 0.950 . S
H1630 C1642 0.950 . S
H1631 C1643 0.950 . S
C1632 H1624 0.950 . S
C1632 C1633 1.386 . S
C1632 C1634 1.391 . S
C1633 C1632 1.386 . S
C1633 C1637 1.393 . S
C1634 H1626 0.950 . S
C1634 C1632 1.391 . S
C1634 C1635 1.400 . S
C1635 C1634 1.400 . S
C1635 C1636 1.398 . S
C1635 C1641 1.491 . S
C1636 H1627 0.950 . S
C1636 C1635 1.398 . S
C1636 C1637 1.391 . S
C1637 H1625 0.950 . S
C1637 C1633 1.393 . S
C1637 C1636 1.391 . S
C1638 H1628 0.950 . S
C1638 C1639 1.386 . S
C1638 C1640 1.391 . S
C1639 C1638 1.386 . S
C1639 C1643 1.393 . S
C1640 H1629 0.950 . S
C1640 C1638 1.391 . S
C1640 C1641 1.400 . S
C1641 C1635 1.491 . S
C1641 C1640 1.400 . S
C1641 C1642 1.398 . S
C1642 H1630 0.950 . S
C1642 C1641 1.398 . S
C1642 C1643 1.391 . S
C1643 H1631 0.950 . S
C1643 C1639 1.393 . S
C1643 C1642 1.391 . S
H1644 C1652 0.950 . S
H1645 C1657 0.950 . S
H1646 C1654 0.950 . S
H1647 C1656 0.950 . S
H1648 C1658 0.950 . S
H1649 C1660 0.950 . S
H1650 C1662 0.950 . S
H1651 C1663 0.950 . S
C1652 H1644 0.950 . S
C1652 C1653 1.386 . S
C1652 C1654 1.391 . S
C1653 C1652 1.386 . S
C1653 C1657 1.393 . S
C1654 H1646 0.950 . S
C1654 C1652 1.391 . S
C1654 C1655 1.400 . S
C1655 C1654 1.400 . S
C1655 C1656 1.398 . S
C1655 C1661 1.491 . S
C1656 H1647 0.950 . S
C1656 C1655 1.398 . S
C1656 C1657 1.391 . S
C1657 H1645 0.950 . S
C1657 C1653 1.393 . S
C1657 C1656 1.391 . S
C1658 H1648 0.950 . S
C1658 C1659 1.386 . S
C1658 C1660 1.391 . S
C1659 C1658 1.386 . S
C1659 C1663 1.393 . S
C1660 H1649 0.950 . S
C1660 C1658 1.391 . S
C1660 C1661 1.400 . S
C1661 C1655 1.491 . S
C1661 C1660 1.400 . S
C1661 C1662 1.398 . S
C1662 H1650 0.950 . S
C1662 C1661 1.398 . S
C1662 C1663 1.391 . S
C1663 H1651 0.950 . S
C1663 C1659 1.393 . S
C1663 C1662 1.391 . S
H1664 C1672 0.950 . S
H1665 C1677 0.950 . S
H1666 C1674 0.950 . S
H1667 C1676 0.950 . S
H1668 C1678 0.950 . S
H1669 C1680 0.950 . S
H1670 C1682 0.950 . S
H1671 C1683 0.950 . S
C1672 H1664 0.950 . S
C1672 C1673 1.386 . S
C1672 C1674 1.391 . S
C1673 C1672 1.386 . S
C1673 C1677 1.393 . S
C1674 H1666 0.950 . S
C1674 C1672 1.391 . S
C1674 C1675 1.400 . S
C1675 C1674 1.400 . S
C1675 C1676 1.398 . S
C1675 C1681 1.491 . S
C1676 H1667 0.950 . S
C1676 C1675 1.398 . S
C1676 C1677 1.391 . S
C1677 H1665 0.950 . S
C1677 C1673 1.393 . S
C1677 C1676 1.391 . S
C1678 H1668 0.950 . S
C1678 C1679 1.386 . S
C1678 C1680 1.391 . S
C1679 C1678 1.386 . S
C1679 C1683 1.393 . S
C1680 H1669 0.950 . S
C1680 C1678 1.391 . S
C1680 C1681 1.400 . S
C1681 C1675 1.491 . S
C1681 C1680 1.400 . S
C1681 C1682 1.398 . S
C1682 H1670 0.950 . S
C1682 C1681 1.398 . S
C1682 C1683 1.391 . S
C1683 H1671 0.950 . S
C1683 C1679 1.393 . S
C1683 C1682 1.391 . S
H1684 C1692 0.950 . S
H1685 C1697 0.950 . S
H1686 C1694 0.950 . S
H1687 C1696 0.950 . S
H1688 C1698 0.950 . S
H1689 C1700 0.950 . S
H1690 C1702 0.950 . S
H1691 C1703 0.950 . S
C1692 H1684 0.950 . S
C1692 C1693 1.386 . S
C1692 C1694 1.391 . S
C1693 C1692 1.386 . S
C1693 C1697 1.393 . S
C1694 H1686 0.950 . S
C1694 C1692 1.391 . S
C1694 C1695 1.400 . S
C1695 C1694 1.400 . S
C1695 C1696 1.398 . S
C1695 C1701 1.491 . S
C1696 H1687 0.950 . S
C1696 C1695 1.398 . S
C1696 C1697 1.391 . S
C1697 H1685 0.950 . S
C1697 C1693 1.393 . S
C1697 C1696 1.391 . S
C1698 H1688 0.950 . S
C1698 C1699 1.386 . S
C1698 C1700 1.391 . S
C1699 C1698 1.386 . S
C1699 C1703 1.393 . S
C1700 H1689 0.950 . S
C1700 C1698 1.391 . S
C1700 C1701 1.400 . S
C1701 C1695 1.491 . S
C1701 C1700 1.400 . S
C1701 C1702 1.398 . S
C1702 H1690 0.950 . S
C1702 C1701 1.398 . S
C1702 C1703 1.391 . S
C1703 H1691 0.950 . S
C1703 C1699 1.393 . S
C1703 C1702 1.391 . S
H1704 C1712 0.950 . S
H1705 C1717 0.950 . S
H1706 C1714 0.950 . S
H1707 C1716 0.950 . S
H1708 C1718 0.950 . S
H1709 C1720 0.950 . S
H1710 C1722 0.950 . S
H1711 C1723 0.950 . S
C1712 H1704 0.950 . S
C1712 C1713 1.386 . S
C1712 C1714 1.391 . S
C1713 C1712 1.386 . S
C1713 C1717 1.393 . S
C1714 H1706 0.950 . S
C1714 C1712 1.391 . S
C1714 C1715 1.400 . S
C1715 C1714 1.400 . S
C1715 C1716 1.398 . S
C1715 C1721 1.491 . S
C1716 H1707 0.950 . S
C1716 C1715 1.398 . S
C1716 C1717 1.391 . S
C1717 H1705 0.950 . S
C1717 C1713 1.393 . S
C1717 C1716 1.391 . S
C1718 H1708 0.950 . S
C1718 C1719 1.386 . S
C1718 C1720 1.391 . S
C1719 C1718 1.386 . S
C1719 C1723 1.393 . S
C1720 H1709 0.950 . S
C1720 C1718 1.391 . S
C1720 C1721 1.400 . S
C1721 C1715 1.491 . S
C1721 C1720 1.400 . S
C1721 C1722 1.398 . S
C1722 H1710 0.950 . S
C1722 C1721 1.398 . S
C1722 C1723 1.391 . S
C1723 H1711 0.950 . S
C1723 C1719 1.393 . S
C1723 C1722 1.391 . S
H1724 C1732 0.950 . S
H1725 C1737 0.950 . S
H1726 C1734 0.950 . S
H1727 C1736 0.950 . S
H1728 C1738 0.950 . S
H1729 C1740 0.950 . S
H1730 C1742 0.950 . S
H1731 C1743 0.950 . S
C1732 H1724 0.950 . S
C1732 C1733 1.386 . S
C1732 C1734 1.391 . S
C1733 C1732 1.386 . S
C1733 C1737 1.393 . S
C1734 H1726 0.950 . S
C1734 C1732 1.391 . S
C1734 C1735 1.400 . S
C1735 C1734 1.400 . S
C1735 C1736 1.398 . S
C1735 C1741 1.491 . S
C1736 H1727 0.950 . S
C1736 C1735 1.398 . S
C1736 C1737 1.391 . S
C1737 H1725 0.950 . S
C1737 C1733 1.393 . S
C1737 C1736 1.391 . S
C1738 H1728 0.950 . S
C1738 C1739 1.386 . S
C1738 C1740 1.391 . S
C1739 C1738 1.386 . S
C1739 C1743 1.393 . S
C1740 H1729 0.950 . S
C1740 C1738 1.391 . S
C1740 C1741 1.400 . S
C1741 C1735 1.491 . S
C1741 C1740 1.400 . S
C1741 C1742 1.398 . S
C1742 H1730 0.950 . S
C1742 C1741 1.398 . S
C1742 C1743 1.391 . S
C1743 H1731 0.950 . S
C1743 C1739 1.393 . S
C1743 C1742 1.391 . S
H1744 C1752 0.950 . S
H1745 C1757 0.950 . S
H1746 C1754 0.950 . S
H1747 C1756 0.950 . S
H1748 C1758 0.950 . S
H1749 C1760 0.950 . S
H1750 C1762 0.950 . S
H1751 C1763 0.950 . S
C1752 H1744 0.950 . S
C1752 C1753 1.386 . S
C1752 C1754 1.391 . S
C1753 C1752 1.386 . S
C1753 C1757 1.393 . S
C1754 H1746 0.950 . S
C1754 C1752 1.391 . S
C1754 C1755 1.400 . S
C1755 C1754 1.400 . S
C1755 C1756 1.398 . S
C1755 C1761 1.491 . S
C1756 H1747 0.950 . S
C1756 C1755 1.398 . S
C1756 C1757 1.391 . S
C1757 H1745 0.950 . S
C1757 C1753 1.393 . S
C1757 C1756 1.391 . S
C1758 H1748 0.950 . S
C1758 C1759 1.386 . S
C1758 C1760 1.391 . S
C1759 C1758 1.386 . S
C1759 C1763 1.393 . S
C1760 H1749 0.950 . S
C1760 C1758 1.391 . S
C1760 C1761 1.400 . S
C1761 C1755 1.491 . S
C1761 C1760 1.400 . S
C1761 C1762 1.398 . S
C1762 H1750 0.950 . S
C1762 C1761 1.398 . S
C1762 C1763 1.391 . S
C1763 H1751 0.950 . S
C1763 C1759 1.393 . S
C1763 C1762 1.391 . S
H1764 C1772 0.950 . S
H1765 C1777 0.950 . S
H1766 C1774 0.950 . S
H1767 C1776 0.950 . S
H1768 C1778 0.950 . S
H1769 C1780 0.950 . S
H1770 C1782 0.950 . S
H1771 C1783 0.950 . S
C1772 H1764 0.950 . S
C1772 C1773 1.386 . S
C1772 C1774 1.391 . S
C1773 C1772 1.386 . S
C1773 C1777 1.393 . S
C1774 H1766 0.950 . S
C1774 C1772 1.391 . S
C1774 C1775 1.400 . S
C1775 C1774 1.400 . S
C1775 C1776 1.398 . S
C1775 C1781 1.491 . S
C1776 H1767 0.950 . S
C1776 C1775 1.398 . S
C1776 C1777 1.391 . S
C1777 H1765 0.950 . S
C1777 C1773 1.393 . S
C1777 C1776 1.391 . S
C1778 H1768 0.950 . S
C1778 C1779 1.386 . S
C1778 C1780 1.391 . S
C1779 C1778 1.386 . S
C1779 C1783 1.393 . S
C1780 H1769 0.950 . S
C1780 C1778 1.391 . S
C1780 C1781 1.400 . S
C1781 C1775 1.491 . S
C1781 C1780 1.400 . S
C1781 C1782 1.398 . S
C1782 H1770 0.950 . S
C1782 C1781 1.398 . S
C1782 C1783 1.391 . S
C1783 H1771 0.950 . S
C1783 C1779 1.393 . S
C1783 C1782 1.391 . S
H1784 C1792 0.950 . S
H1785 C1797 0.950 . S
H1786 C1794 0.950 . S
H1787 C1796 0.950 . S
H1788 C1798 0.950 . S
H1789 C1800 0.950 . S
H1790 C1802 0.950 . S
H1791 C1803 0.950 . S
C1792 H1784 0.950 . S
C1792 C1793 1.386 . S
C1792 C1794 1.391 . S
C1793 C1792 1.386 . S
C1793 C1797 1.393 . S
C1794 H1786 0.950 . S
C1794 C1792 1.391 . S
C1794 C1795 1.400 . S
C1795 C1794 1.400 . S
C1795 C1796 1.398 . S
C1795 C1801 1.491 . S
C1796 H1787 0.950 . S
C1796 C1795 1.398 . S
C1796 C1797 1.391 . S
C1797 H1785 0.950 . S
C1797 C1793 1.393 . S
C1797 C1796 1.391 . S
C1798 H1788 0.950 . S
C1798 C1799 1.386 . S
C1798 C1800 1.391 . S
C1799 C1798 1.386 . S
C1799 C1803 1.393 . S
C1800 H1789 0.950 . S
C1800 C1798 1.391 . S
C1800 C1801 1.400 . S
C1801 C1795 1.491 . S
C1801 C1800 1.400 . S
C1801 C1802 1.398 . S
C1802 H1790 0.950 . S
C1802 C1801 1.398 . S
C1802 C1803 1.391 . S
C1803 H1791 0.950 . S
C1803 C1799 1.393 . S
C1803 C1802 1.391 . S
H1804 C1812 0.950 . S
H1805 C1817 0.950 . S
H1806 C1814 0.950 . S
H1807 C1816 0.950 . S
H1808 C1818 0.950 . S
H1809 C1820 0.950 . S
H1810 C1822 0.950 . S
H1811 C1823 0.950 . S
C1812 H1804 0.950 . S
C1812 C1813 1.386 . S
C1812 C1814 1.391 . S
C1813 C1812 1.386 . S
C1813 C1817 1.393 . S
C1814 H1806 0.950 . S
C1814 C1812 1.391 . S
C1814 C1815 1.400 . S
C1815 C1814 1.400 . S
C1815 C1816 1.398 . S
C1815 C1821 1.491 . S
C1816 H1807 0.950 . S
C1816 C1815 1.398 . S
C1816 C1817 1.391 . S
C1817 H1805 0.950 . S
C1817 C1813 1.393 . S
C1817 C1816 1.391 . S
C1818 H1808 0.950 . S
C1818 C1819 1.386 . S
C1818 C1820 1.391 . S
C1819 C1818 1.386 . S
C1819 C1823 1.393 . S
C1820 H1809 0.950 . S
C1820 C1818 1.391 . S
C1820 C1821 1.400 . S
C1821 C1815 1.491 . S
C1821 C1820 1.400 . S
C1821 C1822 1.398 . S
C1822 H1810 0.950 . S
C1822 C1821 1.398 . S
C1822 C1823 1.391 . S
C1823 H1811 0.950 . S
C1823 C1819 1.393 . S
C1823 C1822 1.391 . S
H1824 C1832 0.950 . S
H1825 C1837 0.950 . S
H1826 C1834 0.950 . S
H1827 C1836 0.950 . S
H1828 C1838 0.950 . S
H1829 C1840 0.950 . S
H1830 C1842 0.950 . S
H1831 C1843 0.950 . S
C1832 H1824 0.950 . S
C1832 C1833 1.386 . S
C1832 C1834 1.391 . S
C1833 C1832 1.386 . S
C1833 C1837 1.393 . S
C1834 H1826 0.950 . S
C1834 C1832 1.391 . S
C1834 C1835 1.400 . S
C1835 C1834 1.400 . S
C1835 C1836 1.398 . S
C1835 C1841 1.491 1_455 S
C1836 H1827 0.950 . S
C1836 C1835 1.398 . S
C1836 C1837 1.391 . S
C1837 H1825 0.950 . S
C1837 C1833 1.393 . S
C1837 C1836 1.391 . S
C1838 H1828 0.950 . S
C1838 C1839 1.386 . S
C1838 C1840 1.391 . S
C1839 C1838 1.386 . S
C1839 C1843 1.393 . S
C1840 H1829 0.950 . S
C1840 C1838 1.391 . S
C1840 C1841 1.400 . S
C1841 C1835 1.491 1_655 S
C1841 C1840 1.400 . S
C1841 C1842 1.398 . S
C1842 H1830 0.950 . S
C1842 C1841 1.398 . S
C1842 C1843 1.391 . S
C1843 H1831 0.950 . S
C1843 C1839 1.393 . S
C1843 C1842 1.391 . S
H1844 C1852 0.950 . S
H1845 C1857 0.950 . S
H1846 C1854 0.950 . S
H1847 C1856 0.950 . S
H1848 C1858 0.950 . S
H1849 C1860 0.950 . S
H1850 C1862 0.950 . S
H1851 C1863 0.950 . S
C1852 H1844 0.950 . S
C1852 C1853 1.386 . S
C1852 C1854 1.391 . S
C1853 C1852 1.386 . S
C1853 C1857 1.393 . S
C1854 H1846 0.950 . S
C1854 C1852 1.391 . S
C1854 C1855 1.400 . S
C1855 C1854 1.400 . S
C1855 C1856 1.398 . S
C1855 C1861 1.491 . S
C1856 H1847 0.950 . S
C1856 C1855 1.398 . S
C1856 C1857 1.391 . S
C1857 H1845 0.950 . S
C1857 C1853 1.393 . S
C1857 C1856 1.391 . S
C1858 H1848 0.950 . S
C1858 C1859 1.386 . S
C1858 C1860 1.391 . S
C1859 C1858 1.386 . S
C1859 C1863 1.393 . S
C1860 H1849 0.950 . S
C1860 C1858 1.391 . S
C1860 C1861 1.400 . S
C1861 C1855 1.491 . S
C1861 C1860 1.400 . S
C1861 C1862 1.398 . S
C1862 H1850 0.950 . S
C1862 C1861 1.398 . S
C1862 C1863 1.391 . S
C1863 H1851 0.950 . S
C1863 C1859 1.393 . S
C1863 C1862 1.391 . S
H1864 C1872 0.950 . S
H1865 C1877 0.950 . S
H1866 C1874 0.950 . S
H1867 C1876 0.950 . S
H1868 C1878 0.950 . S
H1869 C1880 0.950 . S
H1870 C1882 0.950 . S
H1871 C1883 0.950 . S
C1872 H1864 0.950 . S
C1872 C1873 1.386 . S
C1872 C1874 1.391 . S
C1873 C1872 1.386 . S
C1873 C1877 1.393 . S
C1874 H1866 0.950 . S
C1874 C1872 1.391 . S
C1874 C1875 1.400 . S
C1875 C1874 1.400 . S
C1875 C1876 1.398 . S
C1875 C1881 1.491 1_545 S
C1876 H1867 0.950 . S
C1876 C1875 1.398 . S
C1876 C1877 1.391 . S
C1877 H1865 0.950 . S
C1877 C1873 1.393 . S
C1877 C1876 1.391 . S
C1878 H1868 0.950 . S
C1878 C1879 1.386 . S
C1878 C1880 1.391 . S
C1879 C1878 1.386 . S
C1879 C1883 1.393 . S
C1880 H1869 0.950 . S
C1880 C1878 1.391 . S
C1880 C1881 1.400 . S
C1881 C1875 1.491 1_565 S
C1881 C1880 1.400 . S
C1881 C1882 1.398 . S
C1882 H1870 0.950 . S
C1882 C1881 1.398 . S
C1882 C1883 1.391 . S
C1883 H1871 0.950 . S
C1883 C1879 1.393 . S
C1883 C1882 1.391 . S
H1884 C1892 0.950 1_554 S
H1885 C1897 0.950 . S
H1886 C1894 0.950 . S
H1887 C1896 0.950 1_565 S
H1888 C1898 0.950 1_556 S
H1889 C1900 0.950 . S
H1890 C1902 0.950 1_545 S
H1891 C1903 0.950 . S
C1892 H1884 0.950 1_556 S
C1892 C1893 1.386 . S
C1892 C1894 1.391 1_556 S
C1893 C1892 1.386 . S
C1893 C1897 1.393 . S
C1894 H1886 0.950 . S
C1894 C1892 1.391 1_554 S
C1894 C1895 1.400 1_554 S
C1895 C1894 1.400 1_556 S
C1895 C1896 1.398 . S
C1895 C1901 1.491 1_546 S
C1896 H1887 0.950 1_545 S
C1896 C1895 1.398 . S
C1896 C1897 1.391 . S
C1897 H1885 0.950 . S
C1897 C1893 1.393 . S
C1897 C1896 1.391 . S
C1898 H1888 0.950 1_554 S
C1898 C1899 1.386 . S
C1898 C1900 1.391 1_554 S
C1899 C1898 1.386 . S
C1899 C1903 1.393 . S
C1900 H1889 0.950 . S
C1900 C1898 1.391 1_556 S
C1900 C1901 1.400 1_556 S
C1901 C1895 1.491 1_564 S
C1901 C1900 1.400 1_554 S
C1901 C1902 1.398 . S
C1902 H1890 0.950 1_565 S
C1902 C1901 1.398 . S
C1902 C1903 1.391 . S
C1903 H1891 0.950 . S
C1903 C1899 1.393 . S
C1903 C1902 1.391 . S
H1904 C1912 0.950 . S
H1905 C1917 0.950 . S
H1906 C1914 0.950 1_455 S
H1907 C1916 0.950 1_554 S
H1908 C1918 0.950 . S
H1909 C1920 0.950 1_655 S
H1910 C1922 0.950 1_556 S
H1911 C1923 0.950 . S
C1912 H1904 0.950 . S
C1912 C1913 1.386 . S
C1912 C1914 1.391 . S
C1913 C1912 1.386 . S
C1913 C1917 1.393 . S
C1914 H1906 0.950 1_655 S
C1914 C1912 1.391 . S
C1914 C1915 1.400 . S
C1915 C1914 1.400 . S
C1915 C1916 1.398 . S
C1915 C1921 1.491 1_656 S
C1916 H1907 0.950 1_556 S
C1916 C1915 1.398 . S
C1916 C1917 1.391 . S
C1917 H1905 0.950 . S
C1917 C1913 1.393 . S
C1917 C1916 1.391 . S
C1918 H1908 0.950 . S
C1918 C1919 1.386 . S
C1918 C1920 1.391 . S
C1919 C1918 1.386 . S
C1919 C1923 1.393 . S
C1920 H1909 0.950 1_455 S
C1920 C1918 1.391 . S
C1920 C1921 1.400 . S
C1921 C1915 1.491 1_454 S
C1921 C1920 1.400 . S
C1921 C1922 1.398 . S
C1922 H1910 0.950 1_554 S
C1922 C1921 1.398 . S
C1922 C1923 1.391 . S
C1923 H1911 0.950 . S
C1923 C1919 1.393 . S
C1923 C1922 1.391 . S
H1924 C1932 0.950 1_554 S
H1925 C1937 0.950 . S
H1926 C1934 0.950 . S
H1927 C1936 0.950 . S
H1928 C1938 0.950 1_556 S
H1929 C1940 0.950 . S
H1930 C1942 0.950 . S
H1931 C1943 0.950 . S
C1932 H1924 0.950 1_556 S
C1932 C1933 1.386 . S
C1932 C1934 1.391 1_556 S
C1933 C1932 1.386 . S
C1933 C1937 1.393 . S
C1934 H1926 0.950 . S
C1934 C1932 1.391 1_554 S
C1934 C1935 1.400 1_554 S
C1935 C1934 1.400 1_556 S
C1935 C1936 1.398 . S
C1935 C1941 1.491 1_556 S
C1936 H1927 0.950 . S
C1936 C1935 1.398 . S
C1936 C1937 1.391 . S
C1937 H1925 0.950 . S
C1937 C1933 1.393 . S
C1937 C1936 1.391 . S
C1938 H1928 0.950 1_554 S
C1938 C1939 1.386 . S
C1938 C1940 1.391 1_554 S
C1939 C1938 1.386 . S
C1939 C1943 1.393 . S
C1940 H1929 0.950 . S
C1940 C1938 1.391 1_556 S
C1940 C1941 1.400 1_556 S
C1941 C1935 1.491 1_554 S
C1941 C1940 1.400 1_554 S
C1941 C1942 1.398 . S
C1942 H1930 0.950 . S
C1942 C1941 1.398 . S
C1942 C1943 1.391 . S
C1943 H1931 0.950 . S
C1943 C1939 1.393 . S
C1943 C1942 1.391 . S
C513 C3 1.304 . S
C519 C107 1.288 . S
C533 C17 1.309 . S
C539 C121 1.270 . S
C553 C93 1.291 . S
C559 C31 1.316 . S
C573 C163 1.278 . S
C579 C45 1.315 . S
C593 C59 1.306 . S
C599 C135 1.292 . S
C613 C73 1.316 . S
C619 C149 1.283 . S
C633 C23 1.290 . S
C639 C87 1.316 . S
C653 C37 1.276 . S
C659 C101 1.302 . S
C673 C115 1.315 . S
C679 C9 1.277 . S
C693 C129 1.302 . S
C699 C79 1.280 . S
C713 C51 1.291 . S
C719 C143 1.306 . S
C733 C157 1.304 . S
C739 C65 1.289 . S
C753 C275 1.270 . S
C759 C171 1.310 . S
C773 C185 1.316 . S
C779 C289 1.285 . S
C793 C199 1.315 . S
C799 C261 1.293 . S
C813 C331 1.272 . S
C819 C213 1.311 . S
C833 C227 1.315 . S
C839 C303 1.279 . S
C853 C317 1.271 . S
C859 C241 1.304 . S
C873 C191 1.280 . S
C879 C255 1.302 . S
C893 C269 1.308 . S
C899 C205 1.269 . S
C913 C177 1.295 . S
C919 C283 1.313 . S
C933 C297 1.303 . S
C939 C247 1.283 . S
C953 C311 1.303 . S
C959 C219 1.286 . S
C973 C325 1.302 . S
C979 C233 1.274 . S
C993 C443 1.269 . S
C999 C339 1.306 . S
C1013 C457 1.284 . S
C1019 C353 1.303 . S
C1033 C429 1.294 . S
C1039 C367 1.307 . S
C1053 C381 1.313 . S
C1059 C499 1.295 . S
C1073 C395 1.314 . S
C1079 C471 1.295 . S
C1093 C485 1.286 . S
C1099 C409 1.316 . S
C1113 C423 1.302 . S
C1119 C359 1.281 . S
C1133 C373 1.295 . S
C1139 C437 1.313 . S
C1153 C345 1.296 . S
C1159 C451 1.312 . S
C1173 C465 1.316 . S
C1179 C415 1.291 . S
C1193 C479 1.316 . S
C1199 C387 1.285 . S
C1213 C493 1.315 . S
C1219 C401 1.277 . S
C1233 C49 1.340 . S
C1239 C7 1.327 . S
C1253 C63 1.327 . S
C1259 C21 1.340 . S
C1273 C35 1.328 . S
C1279 C77 1.323 . S
C1293 C133 1.337 . S
C1299 C91 1.345 . S
C1313 C147 1.326 . S
C1319 C105 1.339 . S
C1333 C161 1.344 . S
C1339 C119 1.332 . S
C1353 C217 1.343 . S
C1359 C175 1.331 . S
C1373 C231 1.344 . S
C1379 C189 1.342 . S
C1393 C203 1.342 . S
C1399 C245 1.330 . S
C1413 C301 1.344 1_554 S
C1419 C259 1.332 . S
C1433 C315 1.323 1_554 S
C1439 C273 1.328 . S
C1453 C329 1.327 1_554 S
C1459 C287 1.340 . S
C1473 C385 1.332 1_556 S
C1479 C343 1.344 . S
C1493 C357 1.332 . S
C1499 C399 1.344 1_556 S
C1513 C413 1.331 1_556 S
C1519 C371 1.343 . S
C1533 C427 1.335 . S
C1539 C469 1.324 . S
C1553 C441 1.338 . S
C1559 C483 1.325 . S
C1573 C455 1.332 . S
C1579 C497 1.323 . S
C1593 C8 1.427 . S
C1599 C260 1.427 . S
C1613 C274 1.429 . S
C1619 C22 1.429 . S
C1633 C288 1.431 . S
C1639 C36 1.431 . S
C1653 C470 1.432 . S
C1659 C50 1.432 . S
C1673 C484 1.427 . S
C1679 C64 1.427 . S
C1693 C498 1.432 . S
C1699 C78 1.432 . S
C1713 C92 1.426 . S
C1719 C344 1.426 . S
C1733 C358 1.426 . S
C1739 C106 1.426 . S
C1753 C372 1.431 . S
C1759 C120 1.431 . S
C1773 C134 1.426 . S
C1779 C218 1.426 . S
C1793 C148 1.432 . S
C1799 C232 1.432 . S
C1813 C162 1.425 . S
C1819 C246 1.425 . S
C1833 C428 1.433 . S
C1839 C176 1.433 . S
C1853 C442 1.426 . S
C1859 C190 1.426 . S
C1873 C204 1.432 . S
C1879 C456 1.432 . S
C1893 C302 1.431 . S
C1899 C386 1.431 . S
C1913 C316 1.429 . S
C1919 C400 1.429 . S
C1933 C330 1.432 . S
C1939 C414 1.432 . S
