# Generated by pormake.
# Topology smm, (6)-cn, num edge types: 1
# Building blocks:
#     Node 0, Type 0, BuildingBlock: GEDQOX_clean_sbu_0, # of connection points: 6
#     Node 1, Type 0, BuildingBlock: GEDQOX_clean_sbu_0, # of connection points: 6
#     Node 2, Type 0, BuildingBlock: GEDQOX_clean_sbu_0, # of connection points: 6
#     Node 3, Type 0, BuildingBlock: GEDQOX_clean_sbu_0, # of connection points: 6
#     Node 4, Type 0, BuildingBlock: GEDQOX_clean_sbu_0, # of connection points: 6
#     Node 5, Type 0, BuildingBlock: GEDQOX_clean_sbu_0, # of connection points: 6
#     Node 6, Type 0, BuildingBlock: GEDQOX_clean_sbu_0, # of connection points: 6
#     Node 7, Type 0, BuildingBlock: GEDQOX_clean_sbu_0, # of connection points: 6
#     Node 8, Type 0, BuildingBlock: GEDQOX_clean_sbu_0, # of connection points: 6
#     Edge 9, Type (0, 0), BuildingBlock: EZIPEK_clean_linker_0, # of connection points: 2
#     Edge 10, Type (0, 0), BuildingBlock: EZIPEK_clean_linker_0, # of connection points: 2
#     Edge 11, Type (0, 0), BuildingBlock: EZIPEK_clean_linker_0, # of connection points: 2
#     Edge 12, Type (0, 0), BuildingBlock: EZIPEK_clean_linker_0, # of connection points: 2
#     Edge 13, Type (0, 0), BuildingBlock: EZIPEK_clean_linker_0, # of connection points: 2
#     Edge 14, Type (0, 0), BuildingBlock: EZIPEK_clean_linker_0, # of connection points: 2
#     Edge 15, Type (0, 0), BuildingBlock: EZIPEK_clean_linker_0, # of connection points: 2
#     Edge 16, Type (0, 0), BuildingBlock: EZIPEK_clean_linker_0, # of connection points: 2
#     Edge 17, Type (0, 0), BuildingBlock: EZIPEK_clean_linker_0, # of connection points: 2
#     Edge 18, Type (0, 0), BuildingBlock: EZIPEK_clean_linker_0, # of connection points: 2
#     Edge 19, Type (0, 0), BuildingBlock: EZIPEK_clean_linker_0, # of connection points: 2
#     Edge 20, Type (0, 0), BuildingBlock: EZIPEK_clean_linker_0, # of connection points: 2
#     Edge 21, Type (0, 0), BuildingBlock: EZIPEK_clean_linker_0, # of connection points: 2
#     Edge 22, Type (0, 0), BuildingBlock: EZIPEK_clean_linker_0, # of connection points: 2
#     Edge 23, Type (0, 0), BuildingBlock: EZIPEK_clean_linker_0, # of connection points: 2
#     Edge 24, Type (0, 0), BuildingBlock: EZIPEK_clean_linker_0, # of connection points: 2
#     Edge 25, Type (0, 0), BuildingBlock: EZIPEK_clean_linker_0, # of connection points: 2
#     Edge 26, Type (0, 0), BuildingBlock: EZIPEK_clean_linker_0, # of connection points: 2
#     Edge 27, Type (0, 0), BuildingBlock: EZIPEK_clean_linker_0, # of connection points: 2
#     Edge 28, Type (0, 0), BuildingBlock: EZIPEK_clean_linker_0, # of connection points: 2
#     Edge 29, Type (0, 0), BuildingBlock: EZIPEK_clean_linker_0, # of connection points: 2
#     Edge 30, Type (0, 0), BuildingBlock: EZIPEK_clean_linker_0, # of connection points: 2
#     Edge 31, Type (0, 0), BuildingBlock: EZIPEK_clean_linker_0, # of connection points: 2
#     Edge 32, Type (0, 0), BuildingBlock: EZIPEK_clean_linker_0, # of connection points: 2
#     Edge 33, Type (0, 0), BuildingBlock: EZIPEK_clean_linker_0, # of connection points: 2
#     Edge 34, Type (0, 0), BuildingBlock: EZIPEK_clean_linker_0, # of connection points: 2
#     Edge 35, Type (0, 0), BuildingBlock: EZIPEK_clean_linker_0, # of connection points: 2
# Relax obj value: 0.042
# Max RMSD: 0.122
# Mean RMSD: 0.122
data_MOF--net-smm--node1-GEDQOX_clean_sbu_0--edge1-EZIPEK_clean_linker_0
_symmetry_space_group_name_H-M    P1
_symmetry_Int_Tables_number       1
_symmetry_cell_setting            triclinic
loop_
_symmetry_equiv_pos_as_xyz
'x, y, z'
_cell_length_a     56.513702
_cell_length_b     56.501327
_cell_length_c     10.582009
_cell_angle_alpha  89.691113
_cell_angle_beta   90.014673
_cell_angle_gamma 119.53782
loop_
_atom_site_label
_atom_site_type_symbol
_atom_site_fract_x
_atom_site_fract_y
_atom_site_fract_z
_atom_type_partial_charge
Nd0 Nd 0.07548 0.23263 0.02075 0.0
Nd1 Nd 1.02582 0.17766 -0.00672 0.0
C2 C 0.11412 0.28349 0.06363 0.0
C3 C 0.12593 0.31006 -0.00218 0.0
C4 C 0.15271 0.3301 0.02477 0.0
C5 C 0.16409 0.35571 0.9666 0.0
C6 C 0.14888 0.36176 0.88038 0.0
C7 C 0.12228 0.34149 0.85076 0.0
C8 C 0.11092 0.31576 0.90865 0.0
C9 C 0.06207 0.21645 0.77411 0.0
C10 C 1.01532 0.22758 0.02855 0.0
C11 C 0.98759 0.12837 0.92284 0.0
C12 C 0.97728 0.09908 0.94607 0.0
C13 C 0.94983 0.08066 0.92125 0.0
C14 C 0.93939 0.05271 0.93955 0.0
C15 C 0.95619 0.04265 -0.01659 0.0
C16 C 0.98363 0.06105 0.00985 0.0
C17 C 0.99412 0.08912 -0.00867 0.0
C18 C 1.03827 0.19328 0.24167 0.0
C19 C 0.0859 0.18207 0.01822 0.0
O20 O 0.0892 0.27321 0.10566 0.0
O21 O 0.11877 0.26521 0.01258 0.0
O22 O 0.08666 0.22988 0.8151 0.0
O23 O 1.04529 0.21332 0.8597 0.0
O24 O 1.04017 0.24007 0.07533 0.0
O25 O 1.00658 0.20488 0.96381 0.0
O26 O 1.011 0.14219 0.86487 0.0
O27 O 0.98433 0.14207 0.01367 0.0
O28 O 1.01382 0.17823 0.19994 0.0
O29 O 0.0555 0.19731 0.15649 0.0
O30 O 0.06139 0.16868 0.96762 0.0
O31 O 0.09434 0.206 0.07147 0.0
H32 H 0.16469 0.32608 0.09254 0.0
H33 H 0.18454 0.37113 -0.00839 0.0
H34 H 0.11012 0.34582 0.78549 0.0
H35 H 0.09032 0.30049 0.88538 0.0
H36 H 0.93649 0.0879 0.88648 0.0
H37 H 0.91822 0.03885 0.91816 0.0
H38 H 0.99695 0.05366 0.04319 0.0
H39 H 1.01535 0.10298 0.01121 0.0
Nd40 Nd 0.8582 0.8644 0.00604 0.0
Nd41 Nd 0.91364 0.86941 -0.01107 0.0
C42 C 0.80689 0.85203 0.04623 0.0
C43 C 0.77969 0.83561 -0.01058 0.0
C44 C 0.75852 0.84031 0.02606 0.0
C45 C 0.7325 0.82501 0.97439 0.0
C46 C 0.72717 0.80472 0.88493 0.0
C47 C 0.74845 0.8002 0.8468 0.0
C48 C 0.77458 0.8156 0.89845 0.0
C49 C 0.87787 0.86959 0.76376 0.0
C50 C 0.86376 0.80899 0.00511 0.0
C51 C 0.9641 0.88076 0.93328 0.0
C52 C 0.99333 0.90058 0.95509 0.0
C53 C 1.00848 0.92066 0.8639 0.0
C54 C 1.0366 0.93762 0.87801 0.0
C55 C 0.05017 0.93473 -0.01691 0.0
C56 C 1.03511 0.91499 0.07508 0.0
C57 C 1.00701 0.89805 0.0612 0.0
C58 C 0.89393 0.86248 0.2313 0.0
C59 C 0.90831 0.92497 0.01786 0.0
O60 O 0.81806 0.83896 0.09882 0.0
O61 O 0.82431 0.87325 -0.01838 0.0
O62 O 0.86342 0.8801 0.80178 0.0
O63 O 0.87963 0.85492 0.84876 0.0
O64 O 0.84976 0.82058 0.04505 0.0
O65 O 0.88767 0.82365 0.95014 0.0
O66 O 0.94993 0.88823 0.86246 0.0
O67 O 0.94997 0.86527 0.02787 0.0
O68 O 0.90889 0.85277 0.19005 0.0
O69 O 0.89183 0.87769 0.14946 0.0
O70 O 0.92283 0.91426 0.97348 0.0
O71 O 0.88335 0.90936 0.06061 0.0
H72 H 0.76206 0.85572 0.09557 0.0
H73 H 0.71635 0.8287 0.0057 0.0
H74 H 0.74472 0.78451 0.77863 0.0
H75 H 0.79069 0.81178 0.86826 0.0
H76 H 0.99871 0.92291 0.78021 0.0
H77 H 0.04789 0.95272 0.80589 0.0
H78 H 1.04522 0.91241 0.15668 0.0
H79 H 0.99613 0.8826 0.13246 0.0
Nd80 Nd 0.23041 1.0154 0.01469 0.0
Nd81 Nd 0.22035 0.06343 0.00638 0.0
C82 C 0.2353 0.97119 0.03641 0.0
C83 C 0.2517 0.9605 0.97533 0.0
C84 C 0.2633 0.94823 0.04965 0.0
C85 C 0.2785 0.93761 -0.00643 0.0
C86 C 0.28233 0.93899 0.86197 0.0
C87 C 0.27085 0.95136 0.78737 0.0
C88 C 0.25578 0.96215 0.84355 0.0
C89 C 0.23535 0.03786 0.77828 0.0
C90 C 0.28307 0.07468 0.03909 0.0
C91 C 0.21538 0.10684 0.95635 0.0
C92 C 0.19493 0.11596 0.96841 0.0
C93 C 0.18607 0.12372 0.85974 0.0
C94 C 0.16776 0.13359 0.86933 0.0
C95 C 0.15809 0.13608 -0.01204 0.0
C96 C 0.16667 0.12811 0.09671 0.0
C97 C 0.18487 0.11808 0.08713 0.0
C98 C 0.21621 0.04221 0.24499 0.0
C99 C 0.16737 1.0042 0.0206 0.0
O100 O 0.24829 0.99245 0.10878 0.0
O101 O 0.21684 0.97246 0.96696 0.0
O102 O 0.25115 1.02914 0.82073 0.0
O103 O 0.2173 0.03377 0.85834 0.0
O104 O 0.27289 0.0488 0.06907 0.0
O105 O 0.26754 0.08414 -0.0075 0.0
O106 O 0.21065 0.08803 0.87279 0.0
O107 O 0.22606 0.10373 0.06039 0.0
O108 O 0.20068 0.0514 0.20289 0.0
O109 O 0.23369 0.04529 0.16325 0.0
O110 O 0.17642 1.02949 -0.01699 0.0
O111 O 0.18407 0.99525 0.0558 0.0
H112 H 0.26048 0.94675 0.15124 0.0
H113 H 0.28715 0.92811 0.05277 0.0
H114 H 0.27351 0.95259 0.68572 0.0
H115 H 0.24722 0.97165 0.78383 0.0
H116 H 0.19357 0.12243 0.76727 0.0
H117 H 0.1614 0.13965 0.78433 0.0
H118 H 0.15948 0.12992 0.18909 0.0
H119 H 0.19125 0.11229 0.17284 0.0
Nd120 Nd 0.74083 0.56774 0.3312 0.0
Nd121 Nd 0.69397 0.50922 0.33278 0.0
C122 C 0.78408 0.61708 0.34645 0.0
C123 C 0.79404 0.64417 0.28597 0.0
C124 C 0.80464 0.66754 0.36149 0.0
C125 C 0.81511 0.6934 0.30635 0.0
C126 C 0.81527 0.69646 0.1744 0.0
C127 C 0.80441 0.6731 0.09855 0.0
C128 C 0.79378 0.64718 0.15377 0.0
C129 C 0.71716 0.54912 0.0985 0.0
C130 C 0.68069 0.55944 0.37015 0.0
C131 C 0.65117 0.46036 0.29439 0.0
C132 C 0.64236 0.43097 0.31063 0.0
C133 C 0.6385 0.41467 0.20413 0.0
C134 C 0.62829 0.38659 0.21731 0.0
C135 C 0.62155 0.37418 0.3372 0.0
C136 C 0.62566 0.3904 0.44394 0.0
C137 C 0.63595 0.41849 0.43092 0.0
C138 C 0.71745 0.52708 0.56626 0.0
C139 C 0.75416 0.51728 0.32906 0.0
O140 O 0.76315 0.60847 0.4223 0.0
O141 O 0.78311 0.59769 0.27616 0.0
O142 O 0.72531 0.57351 0.139 0.0
O143 O 0.72217 0.53584 0.17928 0.0
O144 O 0.70675 0.57583 0.3918 0.0
O145 O 0.67153 0.53443 0.32706 0.0
O146 O 0.66923 0.47403 0.20677 0.0
O147 O 0.65473 0.47464 0.39645 0.0
O148 O 0.70863 0.50251 0.52529 0.0
O149 O 0.71295 0.54085 0.48566 0.0
O150 O 0.72884 0.50094 0.29438 0.0
O151 O 0.76247 0.54247 0.36729 0.0
H152 H 0.8051 0.6658 0.46337 0.0
H153 H 0.82348 0.71114 0.36662 0.0
H154 H 0.80444 0.67498 -0.00338 0.0
H155 H 0.78566 0.62955 0.09291 0.0
H156 H 0.64295 0.42358 0.11024 0.0
H157 H 0.62519 0.37442 0.13372 0.0
H158 H 0.62048 0.38121 0.53718 0.0
H159 H 0.63843 0.43031 0.51508 0.0
Nd160 Nd 0.52414 0.19582 0.36076 0.0
Nd161 Nd 0.57973 0.20124 0.34402 0.0
C162 C 0.47253 0.18248 0.39797 0.0
C163 C 0.44587 0.1665 0.33433 0.0
C164 C 0.42282 0.14907 0.40616 0.0
C165 C 0.39718 0.13485 0.34932 0.0
C166 C 0.39405 0.13787 0.21948 0.0
C167 C 0.41712 0.15504 0.14701 0.0
C168 C 0.44282 0.16913 0.20372 0.0
C169 C 0.54395 0.20183 0.11917 0.0
C170 C 0.53037 0.14047 0.35899 0.0
C171 C 0.63041 0.21407 0.28473 0.0
C172 C 0.65943 0.23533 0.29641 0.0
C173 C 0.67564 0.24469 0.18702 0.0
C174 C 0.70369 0.26255 0.19563 0.0
C175 C 0.71616 0.27134 0.31397 0.0
C176 C 0.69993 0.26258 0.42348 0.0
C177 C 0.67181 0.24477 0.41488 0.0
C178 C 0.55963 0.19401 0.58657 0.0
C179 C 0.57407 0.25642 0.37209 0.0
O180 O 0.4835 0.16901 0.44831 0.0
O181 O 0.49042 0.20493 0.3423 0.0
O182 O 0.52929 0.21203 0.15806 0.0
O183 O 0.54585 0.18702 0.2031 0.0
O184 O 0.51588 0.15187 0.3941 0.0
O185 O 0.55475 0.15527 0.30845 0.0
O186 O 0.61483 0.21892 0.20994 0.0
O187 O 0.61775 0.20051 0.38646 0.0
O188 O 0.57458 0.18423 0.54533 0.0
O189 O 0.55768 0.20925 0.50455 0.0
O190 O 0.58857 0.24582 0.32672 0.0
O191 O 0.54935 0.24066 0.41736 0.0
H192 H 0.42461 0.14671 0.50681 0.0
H193 H 0.37966 0.12174 0.40698 0.0
H194 H 0.41516 0.15769 0.04681 0.0
H195 H 0.46023 0.18232 0.14567 0.0
H196 H 0.66669 0.23762 0.09472 0.0
H197 H 0.71581 0.26907 0.11001 0.0
H198 H 0.70913 0.26913 0.51569 0.0
H199 H 0.65991 0.23793 0.50104 0.0
Nd200 Nd 0.89501 0.34961 0.3376 0.0
Nd201 Nd 0.88962 0.39962 0.3051 0.0
C202 C 0.90826 0.31145 0.38756 0.0
C203 C 0.92393 0.30015 0.32506 0.0
C204 C 0.93504 0.28723 0.39793 0.0
C205 C 0.94937 0.27582 0.34013 0.0
C206 C 0.95282 0.27712 0.20827 0.0
C207 C 0.94186 0.29024 0.13521 0.0
C208 C 0.92763 0.30178 0.19319 0.0
C209 C 0.89243 0.36288 0.08931 0.0
C210 C 0.94962 0.40972 0.34061 0.0
C211 C 0.87937 0.43855 0.22899 0.0
C212 C 0.86082 0.44957 0.24865 0.0
C213 C 0.86838 0.47567 0.20244 0.0
C214 C 0.85135 0.48682 0.21947 0.0
C215 C 0.82643 0.47203 0.28311 0.0
C216 C 0.81886 0.44592 0.33022 0.0
C217 C 0.83599 0.43476 0.31323 0.0
C218 C 0.89265 0.38714 0.55516 0.0
C219 C 0.83418 0.34007 0.33307 0.0
O220 O 0.92209 0.33635 0.4292 0.0
O221 O 0.88553 0.30658 0.33353 0.0
O222 O 0.88142 0.33828 0.13176 0.0
O223 O 0.90582 0.37965 0.17447 0.0
O224 O 0.93746 0.38501 0.39018 0.0
O225 O 0.9356 0.41832 0.27379 0.0
O226 O 0.86957 0.41495 0.17319 0.0
O227 O 0.8958 0.44142 0.32179 0.0
O228 O 0.902 0.41162 0.51196 0.0
O229 O 0.87965 0.36999 0.47035 0.0
O230 O 0.84528 0.36461 0.28143 0.0
O231 O 0.84956 0.33112 0.38574 0.0
H232 H 0.93247 0.28578 0.49965 0.0
H233 H 0.95762 0.26579 0.3982 0.0
H234 H 0.94424 0.29143 0.03342 0.0
H235 H 0.91934 0.31178 0.13506 0.0
H236 H 0.8875 0.48743 0.1527 0.0
H237 H 0.8575 0.50694 0.18222 0.0
H238 H 0.79966 0.43418 0.37927 0.0
H239 H 0.82986 0.41463 0.34997 0.0
Nd240 Nd 0.40886 0.89924 0.68425 0.0
Nd241 Nd 0.35987 0.84364 0.65781 0.0
C242 C 0.44592 0.95074 0.72794 0.0
C243 C 0.45687 0.97734 0.66223 0.0
C244 C 0.46734 1.0013 0.73332 0.0
C245 C 0.4787 1.02674 0.67318 0.0
C246 C 0.47983 1.02874 0.54062 0.0
C247 C 0.46906 1.00475 0.46917 0.0
C248 C 0.45756 0.97924 0.52945 0.0
C249 C 0.39578 0.88258 0.43796 0.0
C250 C 0.34807 0.89267 0.68777 0.0
C251 C 0.32197 0.79388 0.59102 0.0
C252 C 0.31104 0.7646 0.6184 0.0
C253 C 0.2831 0.74679 0.60222 0.0
C254 C 0.27203 0.71882 0.62244 0.0
C255 C 0.28869 0.70809 0.65958 0.0
C256 C 0.31663 0.72589 0.678 0.0
C257 C 0.32775 0.754 0.65759 0.0
C258 C 0.37205 0.86002 0.90553 0.0
C259 C 0.42043 0.84935 0.68161 0.0
O260 O 0.42091 0.93962 0.76936 0.0
O261 O 0.45152 0.93298 0.67794 0.0
O262 O 0.42033 0.89691 0.47857 0.0
O263 O 0.37885 0.87912 0.52336 0.0
O264 O 0.37273 0.90554 0.73639 0.0
O265 O 0.34002 0.8701 0.6229 0.0
O266 O 0.34577 0.80724 0.53592 0.0
O267 O 0.31821 0.80821 0.67694 0.0
O268 O 0.34769 0.84459 0.86384 0.0
O269 O 0.38942 0.864 0.82114 0.0
O270 O 0.39607 0.83577 0.62986 0.0
O271 O 0.42849 0.87322 0.73503 0.0
H272 H 0.46699 1.00034 0.83564 0.0
H273 H 0.48694 0.04496 0.73012 0.0
H274 H 0.4698 1.0058 0.36691 0.0
H275 H 0.4495 0.96104 0.47242 0.0
H276 H 0.26984 0.75452 0.57207 0.0
H277 H 0.25049 0.70543 0.60707 0.0
H278 H 0.32985 0.71798 0.70596 0.0
H279 H 0.34935 0.76734 0.67079 0.0
Nd280 Nd 0.18898 0.52948 0.68654 0.0
Nd281 Nd 0.24494 0.53482 0.67566 0.0
C282 C 0.13676 0.51509 0.71755 0.0
C283 C 0.11083 0.50188 0.64734 0.0
C284 C 0.0863 0.49065 0.71515 0.0
C285 C 0.06135 0.47677 0.65248 0.0
C286 C 0.06043 0.47379 0.52062 0.0
C287 C 0.085 0.48521 0.45216 0.0
C288 C 0.11005 0.49906 0.5152 0.0
C289 C 0.20959 0.53497 0.44795 0.0
C290 C 0.19531 0.4747 0.71545 0.0
C291 C 0.29527 0.54585 0.61962 0.0
C292 C 0.32442 0.56646 0.635 0.0
C293 C 0.34023 0.57981 0.52791 0.0
C294 C 0.36832 0.59728 0.53855 0.0
C295 C 0.38119 0.6016 0.65641 0.0
C296 C 0.36543 0.5887 0.76395 0.0
C297 C 0.33732 0.57131 0.75349 0.0
C298 C 0.226 0.53149 0.91683 0.0
C299 C 0.23923 0.59037 0.69515 0.0
O300 O 0.14695 0.49954 0.74703 0.0
O301 O 0.15537 0.53933 0.68089 0.0
O302 O 0.19418 0.54454 0.48323 0.0
O303 O 0.21132 0.52021 0.53294 0.0
O304 O 0.18174 0.48712 0.74884 0.0
O305 O 0.2193 0.48826 0.65982 0.0
O306 O 0.28046 0.55158 0.5441 0.0
O307 O 0.28187 0.53215 0.71962 0.0
O308 O 0.24131 0.52162 0.88188 0.0
O309 O 0.22295 0.54482 0.82891 0.0
O310 O 0.25417 0.5796 0.65731 0.0
O311 O 0.21397 0.57494 0.73562 0.0
H312 H 0.08645 0.49242 0.8171 0.0
H313 H 1.04269 0.46819 0.70702 0.0
H314 H 0.08473 0.48322 0.35035 0.0
H315 H 0.12877 0.50737 0.46116 0.0
H316 H 0.33093 0.57626 0.43533 0.0
H317 H 0.38012 0.60707 0.45449 0.0
H318 H 0.37498 0.59179 0.85572 0.0
H319 H 0.32584 0.56126 0.8379 0.0
Nd320 Nd 0.56066 0.67933 0.68723 0.0
Nd321 Nd 0.5532 0.72912 0.68401 0.0
C322 C 0.56261 0.63344 0.70408 0.0
C323 C 0.57922 0.62251 0.6477 0.0
C324 C 0.60745 0.63896 0.63039 0.0
C325 C 0.62278 0.62813 0.57761 0.0
C326 C 0.61014 0.60078 0.54012 0.0
C327 C 0.58189 0.58449 0.55498 0.0
C328 C 0.56657 0.59528 0.60837 0.0
C329 C 0.56731 0.70335 0.45334 0.0
C330 C 0.61494 0.73735 0.72125 0.0
C331 C 0.55005 0.77374 0.63846 0.0
C332 C 0.52979 0.78322 0.64642 0.0
C333 C 0.52185 0.7914 0.53608 0.0
C334 C 0.50369 0.80153 0.54229 0.0
C335 C 0.49327 0.80389 0.65916 0.0
C336 C 0.501 0.79557 0.76952 0.0
C337 C 0.51903 0.78529 0.76333 0.0
C338 C 0.54723 0.70609 0.92013 0.0
C339 C 0.49873 0.67101 0.68891 0.0
O340 O 0.57453 0.65342 0.78456 0.0
O341 O 0.54647 0.6368 0.62696 0.0
O342 O 0.58241 0.69379 0.4959 0.0
O343 O 0.54924 0.69959 0.53292 0.0
O344 O 0.60376 0.711 0.74338 0.0
O345 O 0.6004 0.74837 0.67911 0.0
O346 O 0.54642 0.75594 0.5512 0.0
O347 O 0.55887 0.76904 0.74463 0.0
O348 O 0.53296 0.71685 0.87946 0.0
O349 O 0.5646 0.70884 0.83849 0.0
O350 O 0.50903 0.69649 0.65142 0.0
O351 O 0.51451 0.66117 0.72718 0.0
H352 H 0.61769 0.66011 0.65851 0.0
H353 H 0.64459 0.64096 0.5676 0.0
H354 H 0.57181 0.5633 0.52749 0.0
H355 H 0.54482 0.58228 0.61992 0.0
H356 H 0.52991 0.7902 0.44493 0.0
H357 H 0.49798 0.80783 0.45604 0.0
H358 H 0.49319 0.79722 0.86059 0.0
H359 H 0.5247 0.77922 0.85033 0.0
C360 C 0.16946 0.39765 0.70707 0.0
C361 C 0.1599 0.39027 0.83328 0.0
C362 C 0.17701 0.43819 0.88363 0.0
C363 C 0.18422 0.44559 0.75477 0.0
N364 N 0.1832 0.43149 0.53922 0.0
N365 N 0.14899 0.40289 0.0332 0.0
C366 C 0.17939 0.42507 0.66497 0.0
C367 C 0.16194 0.41037 0.91874 0.0
N368 N 0.16964 0.37864 0.62846 0.0
N369 N 0.18595 0.45771 0.97456 0.0
H370 H 0.13755 0.38267 0.06265 0.0
H371 H 0.14734 0.41654 0.09341 0.0
H372 H 0.19856 0.47814 0.95403 0.0
H373 H 0.18367 0.45343 0.07111 0.0
H374 H 0.17897 0.38334 0.54001 0.0
H375 H 0.16216 0.35841 0.6557 0.0
H376 H 0.17737 0.41699 0.46823 0.0
H377 H 0.19012 0.45118 0.50504 0.0
C378 C 0.67921 0.76741 0.92227 0.0
C379 C 0.69876 0.78704 0.83896 0.0
C380 C 0.66381 0.77289 0.67309 0.0
C381 C 0.64378 0.75517 0.76083 0.0
N382 N 0.63173 0.74028 -0.02235 0.0
N383 N 0.70921 0.81128 0.64051 0.0
C384 C 0.65131 0.75369 0.88779 0.0
C385 C 0.69094 0.79057 0.71564 0.0
N386 N 0.68739 0.76131 0.03353 0.0
N387 N 0.65721 0.77209 0.54834 0.0
H388 H 0.72924 0.82431 0.66794 0.0
H389 H 0.70401 0.81683 0.55537 0.0
H390 H 0.63769 0.75932 0.51392 0.0
H391 H 0.67149 0.78236 0.47748 0.0
H392 H 0.67447 0.74505 0.09145 0.0
H393 H 0.70766 0.77081 0.06231 0.0
H394 H 0.63588 0.74118 0.07396 0.0
H395 H 0.61101 0.73057 0.95817 0.0
C396 C 0.2866 0.89816 0.80303 0.0
C397 C 0.29787 0.92682 0.80289 0.0
C398 C 0.33855 0.93166 0.69524 0.0
C399 C 0.32919 0.90348 0.71398 0.0
N400 N 0.29534 0.8604 0.80373 0.0
N401 N 0.336 0.97138 0.76107 0.0
C402 C 0.30334 0.88674 0.77135 0.0
C403 C 0.32419 0.94375 0.75147 0.0
N404 N 0.25972 0.88175 0.83176 0.0
N405 N 0.36085 0.94677 0.62083 0.0
H406 H 0.32622 0.98104 0.80167 0.0
H407 H 0.35629 0.98464 0.7383 0.0
H408 H 0.37138 0.93844 0.57521 0.0
H409 H 0.36716 0.96677 0.59374 0.0
H410 H 0.24965 0.86072 0.82042 0.0
H411 H 0.24681 0.88937 0.85499 0.0
H412 H 0.27833 0.84849 0.85969 0.0
H413 H 0.3068 0.85101 0.78512 0.0
C414 C 0.35903 0.10145 0.07761 0.0
C415 C 0.36636 0.1236 0.16109 0.0
C416 C 0.31922 0.11482 0.15913 0.0
C417 C 0.31218 0.0936 0.07022 0.0
N418 N 0.32671 0.07081 0.92372 0.0
N419 N 0.35511 0.15547 0.25629 0.0
C420 C 0.33256 0.08821 0.02292 0.0
C421 C 0.34696 0.13158 0.19375 0.0
N422 N 0.3769 0.09224 0.05492 0.0
N423 N 0.29935 0.11799 0.21707 0.0
H424 H 0.37526 0.16836 0.2825 0.0
H425 H 0.34246 0.16375 0.27114 0.0
H426 H 0.27875 0.10602 0.19685 0.0
H427 H 0.30305 0.1309 0.29348 0.0
H428 H 0.37167 0.07433 0.00643 0.0
H429 H 0.3964 0.10127 0.09337 0.0
H430 H 0.34133 0.068 0.87678 0.0
H431 H 0.3077 0.06122 0.88016 0.0
C432 C 0.95529 0.23535 0.14709 0.0
C433 C 0.96743 0.26412 0.14745 0.0
C434 C 1.00724 0.26751 0.03706 0.0
C435 C 0.9971 0.23919 0.05566 0.0
N436 N 0.96234 0.19651 0.14497 0.0
N437 N 1.00646 0.30804 0.10479 0.0
C438 C 0.97119 0.22308 0.11372 0.0
C439 C 0.99377 0.28035 0.0949 0.0
N440 N 0.92836 0.21968 0.17697 0.0
N441 N 1.02938 0.28202 0.96098 0.0
H442 H 0.99736 0.31824 0.14653 0.0
H443 H 1.02681 0.32075 0.08111 0.0
H444 H 1.03906 0.27303 0.9133 0.0
H445 H 1.03629 0.30216 0.93437 0.0
H446 H 0.91763 0.19865 0.1654 0.0
H447 H 0.91607 0.22794 0.20148 0.0
H448 H 0.9453 0.18498 0.20131 0.0
H449 H 0.97317 0.1865 0.12497 0.0
C450 C 0.82476 0.76078 0.00425 0.0
C451 C 0.85259 0.77922 0.03049 0.0
C452 C 0.8567 0.74137 0.12381 0.0
C453 C 0.82811 0.72431 0.11649 0.0
N454 N 0.78424 0.71858 0.06062 0.0
N455 N 0.89426 0.78727 0.13343 0.0
C456 C 0.81193 0.73417 0.05891 0.0
C457 C 0.86848 0.76955 0.09388 0.0
N458 N 0.81079 0.76844 0.9238 0.0
N459 N 0.87275 0.73055 0.15756 0.0
H460 H 0.9041 0.80804 0.11546 0.0
H461 H 0.90519 0.78165 0.1941 0.0
H462 H 0.8649 0.71 0.1796 0.0
H463 H 0.8939 0.74131 0.15132 0.0
H464 H 0.79121 0.75516 0.89194 0.0
H465 H 0.81987 0.78729 0.87803 0.0
H466 H 0.77128 0.72585 0.03292 0.0
H467 H 0.7741 0.69904 0.09938 0.0
C468 C 1.02397 0.43234 0.40811 0.0
C469 C 1.03348 0.45894 0.45595 0.0
C470 C 0.98845 0.45437 0.42054 0.0
C471 C 0.97915 0.42812 0.36747 0.0
N472 N 0.99039 0.3955 0.28067 0.0
N473 N 1.02711 0.49785 0.47663 0.0
C474 C 0.99768 0.41816 0.35198 0.0
C475 C 1.01644 0.47077 0.45174 0.0
N476 N 1.0395 0.42008 0.42112 0.0
N477 N 0.97044 0.46307 0.4498 0.0
H478 H 0.04753 0.51046 0.49952 0.0
H479 H 1.01644 0.5083 0.46222 0.0
H480 H 0.94968 0.45181 0.43242 0.0
H481 H 0.97572 0.48048 0.50256 0.0
H482 H 1.03235 0.39962 0.40149 0.0
H483 H 0.05887 0.42977 0.46095 0.0
H484 H 1.00386 0.38869 0.25608 0.0
H485 H 0.97168 0.38514 0.23482 0.0
C486 C 0.63048 0.5865 0.36328 0.0
C487 C 0.62686 0.58871 0.49476 0.0
C488 C 0.65819 0.57158 0.54352 0.0
C489 C 0.66108 0.56829 0.41205 0.0
N490 N 0.64756 0.5692 0.19703 0.0
N491 N 0.63292 0.57872 0.71007 0.0
C492 C 0.64634 0.57458 0.32195 0.0
C493 C 0.63947 0.57989 0.5848 0.0
N494 N 0.61949 0.59664 0.27827 0.0
N495 N 0.67374 0.56724 0.62948 0.0
H496 H 0.61969 0.58508 0.74452 0.0
H497 H 0.63875 0.56941 0.77899 0.0
H498 H 0.68648 0.55959 0.60521 0.0
H499 H 0.67534 0.57273 0.72416 0.0
H500 H 0.62362 0.59843 0.1818 0.0
H501 H 0.60739 0.60495 0.30538 0.0
H502 H 0.63525 0.57061 0.1277 0.0
H503 H 0.65983 0.5616 0.16324 0.0
C504 C 0.49129 0.09231 0.35671 0.0
C505 C 0.51901 0.11067 0.38552 0.0
C506 C 0.52198 0.07292 0.48782 0.0
C507 C 0.4934 0.05615 0.47797 0.0
N508 N 0.45012 0.05068 0.41274 0.0
N509 N 0.55999 0.11862 0.49533 0.0
C510 C 0.47784 0.06598 0.41416 0.0
C511 C 0.53431 0.10098 0.45418 0.0
N512 N 0.47796 0.09979 0.27155 0.0
N513 N 0.5375 0.06194 0.52794 0.0
H514 H 0.57027 0.13927 0.47449 0.0
H515 H 0.5704 0.1131 0.55963 0.0
H516 H 0.52922 0.04148 0.55309 0.0
H517 H 0.55868 0.07239 0.52412 0.0
H518 H 0.45858 0.08648 0.23765 0.0
H519 H 0.48746 0.11847 0.22439 0.0
H520 H 0.43754 0.05804 0.38042 0.0
H521 H 0.43953 0.03132 0.45321 0.0
C522 C 0.11189 0.13102 0.03294 0.0
C523 C 0.13958 0.14782 -0.00169 0.0
C524 C 0.13126 0.18613 0.9648 0.0
C525 C 0.10437 0.17023 0.01273 0.0
N526 N 0.07075 0.12872 0.11416 0.0
N527 N 0.17698 0.1928 0.95601 0.0
C528 C 0.0951 0.14296 0.05269 0.0
C529 C 0.14966 0.17582 0.97167 0.0
N530 N 0.10136 0.10351 0.04304 0.0
N531 N 0.1389 0.21046 0.90602 0.0
H532 H 0.19118 0.18612 0.96124 0.0
H533 H 0.18575 0.21389 0.94996 0.0
H534 H 0.12583 0.21832 0.89326 0.0
H535 H 0.15727 0.22144 0.85774 0.0
H536 H 0.08067 0.08991 0.05405 0.0
H537 H 0.11297 0.09401 0.02907 0.0
H538 H 0.06434 0.10991 0.15734 0.0
H539 H 0.05797 0.13669 0.13257 0.0
C540 C 0.92579 0.96822 0.89199 0.0
C541 C 0.91985 0.95509 0.01181 0.0
C542 C 0.93653 0.99949 0.1149 0.0
C543 C 0.94499 1.01264 -0.00465 0.0
N544 N 0.95188 1.00988 0.7723 0.0
N545 N 0.9211 0.95811 0.23897 0.0
C546 C 0.94092 0.99707 0.88462 0.0
C547 C 0.92559 0.97071 0.12393 0.0
N548 N 0.91539 0.95315 0.78514 0.0
N549 N 0.93818 1.01444 0.21904 0.0
H550 H 0.9119 0.93706 0.24889 0.0
H551 H 0.9278 0.96847 0.32403 0.0
H552 H 0.94655 0.03553 0.21623 0.0
H553 H 0.92965 1.00589 0.30626 0.0
H554 H 0.91682 0.96163 0.6959 0.0
H555 H 0.90251 0.93217 0.78791 0.0
H556 H 0.95211 0.99959 0.69132 0.0
H557 H 0.96297 0.03101 0.76284 0.0
C558 C 0.0978 0.94673 0.91862 0.0
C559 C 0.0803 0.95197 -0.0045 0.0
C560 C 0.12006 0.98826 0.10329 0.0
C561 C 0.13752 0.98504 0.01723 0.0
N562 N 0.14309 0.96359 0.83191 0.0
N563 N 0.07457 0.9801 0.14921 0.0
C564 C 0.12641 0.96483 0.9221 0.0
C565 C 0.09139 0.97338 0.08483 0.0
N566 N 0.08712 0.92402 0.84474 0.0
N567 N 0.13085 1.00482 0.2055 0.0
H568 H 0.05349 0.96964 0.1386 0.0
H569 H 0.08161 0.99738 0.20504 0.0
H570 H 0.15164 1.01533 0.22361 0.0
H571 H 0.11916 1.00599 0.2787 0.0
H572 H 0.09894 0.91746 0.79714 0.0
H573 H 0.0663 0.91035 0.83932 0.0
H574 H 0.13594 0.95152 0.75162 0.0
H575 H 0.16414 0.97621 0.83201 0.0
C576 C 0.7867 0.504 0.42752 0.0
C577 C 0.77387 0.50715 0.31835 0.0
C578 C 0.79349 0.48504 0.18952 0.0
C579 C 0.80799 0.48377 0.29646 0.0
N580 N 0.82205 0.49596 0.51257 0.0
N581 N 0.76951 0.50592 0.09131 0.0
C582 C 0.80565 0.49439 0.41428 0.0
C583 C 0.77852 0.49913 0.1981 0.0
N584 N 0.77993 0.50906 0.54436 0.0
N585 N 0.79333 0.47205 0.08061 0.0
H586 H 0.75896 0.51674 0.09329 0.0
H587 H 0.77474 0.50322 0.00029 0.0
H588 H 0.80401 0.46147 0.07051 0.0
H589 H 0.78075 0.46968 0.00418 0.0
H590 H 0.78626 0.50429 0.62843 0.0
H591 H 0.76615 0.51604 0.55781 0.0
H592 H 0.82348 0.50618 0.59627 0.0
H593 H 0.83593 0.48888 0.50675 0.0
C594 C 0.58198 0.32682 0.31036 0.0
C595 C 0.60915 0.34402 0.35031 0.0
C596 C 0.61178 0.3039 0.42175 0.0
C597 C 0.58574 0.2866 0.36877 0.0
N598 N 0.54838 0.28202 0.23998 0.0
N599 N 0.65149 0.34896 0.4273 0.0
C600 C 0.57139 0.29816 0.3074 0.0
C601 C 0.6245 0.33256 0.40157 0.0
N602 N 0.566 0.33781 0.27801 0.0
N603 N 0.62396 0.29308 0.49556 0.0
H604 H 0.66148 0.37 0.4142 0.0
H605 H 0.66449 0.34152 0.45139 0.0
H606 H 0.6151 0.27233 0.51451 0.0
H607 H 0.64153 0.30481 0.54771 0.0
H608 H 0.54519 0.32613 0.26161 0.0
H609 H 0.57296 0.35868 0.27898 0.0
H610 H 0.53889 0.28972 0.18167 0.0
H611 H 0.54019 0.26107 0.23192 0.0
C612 C 0.76348 0.2778 0.29445 0.0
C613 C 0.74638 0.28889 0.32284 0.0
C614 C 0.78674 0.33263 0.37307 0.0
C615 C 0.80391 0.32237 0.3314 0.0
N616 N 0.80795 0.28674 0.22534 0.0
N617 N 0.74177 0.32814 0.36908 0.0
C618 C 0.79211 0.29533 0.28509 0.0
C619 C 0.75803 0.31668 0.35663 0.0
N620 N 0.75244 0.25036 0.27927 0.0
N621 N 0.79765 0.35714 0.433 0.0
H622 H 0.7207 0.31715 0.3582 0.0
H623 H 0.74935 0.34897 0.37923 0.0
H624 H 0.81841 0.36938 0.44879 0.0
H625 H 0.78595 0.36424 0.47755 0.0
H626 H 0.76413 0.24081 0.27202 0.0
H627 H 0.73161 0.2368 0.28599 0.0
H628 H 0.79999 0.26827 0.17799 0.0
H629 H 0.82878 0.29915 0.21104 0.0
C630 C 0.48466 0.84355 0.64068 0.0
C631 C 0.47458 0.8155 0.66614 0.0
C632 C 0.42974 0.81025 0.71558 0.0
C633 C 0.43909 0.83767 0.67747 0.0
N634 N 0.47399 0.87825 0.5746 0.0
N635 N 0.43625 0.77096 0.70529 0.0
C636 C 0.46619 0.85378 0.63231 0.0
C637 C 0.44673 0.7985 0.69724 0.0
N638 N 0.51201 0.86065 0.62764 0.0
N639 N 0.40507 0.79564 0.774 0.0
H640 H 0.44798 0.76157 0.6921 0.0
H641 H 0.41551 0.75726 0.71354 0.0
H642 H 0.392 0.80334 0.79078 0.0
H643 H 0.39858 0.77673 0.8163 0.0
H644 H 0.52073 0.88174 0.62264 0.0
H645 H 0.52625 0.85402 0.63383 0.0
H646 H 0.49257 0.88943 0.52825 0.0
H647 H 0.46089 0.88605 0.56062 0.0
C648 C 0.25554 0.63331 0.56863 0.0
C649 C 0.25122 0.62045 0.68863 0.0
C650 C 0.27042 0.66507 0.79168 0.0
C651 C 0.27687 0.67797 0.67107 0.0
N652 N 0.28001 0.67474 0.44522 0.0
N653 N 0.25746 0.6239 0.91428 0.0
C654 C 0.27073 0.66216 0.55967 0.0
C655 C 0.25943 0.63629 0.80037 0.0
N656 N 0.24406 0.61795 0.46343 0.0
N657 N 0.27408 0.68025 0.89753 0.0
H658 H 0.24912 0.60289 0.9241 0.0
H659 H 0.26578 0.63449 -0.00244 0.0
H660 H 0.28249 0.70134 0.89475 0.0
H661 H 0.26708 0.67184 -0.01325 0.0
H662 H 0.24413 0.62618 0.37506 0.0
H663 H 0.23202 0.59686 0.46699 0.0
H664 H 0.27881 0.66431 0.36249 0.0
H665 H 0.29115 0.69584 0.43462 0.0
C666 C 0.45739 0.62816 0.6148 0.0
C667 C 0.46862 0.65278 0.68444 0.0
C668 C 0.42245 0.64502 0.72532 0.0
C669 C 0.41131 0.6192 0.6668 0.0
N670 N 0.41817 0.58388 0.57701 0.0
N671 N 0.46147 0.68194 0.82688 0.0
C672 C 0.4288 0.61008 0.61783 0.0
C673 C 0.45104 0.66049 0.74541 0.0
N674 N 0.47378 0.62262 0.54007 0.0
N675 N 0.40583 0.65519 0.7583 0.0
H676 H 0.48212 0.69334 0.84689 0.0
H677 H 0.44944 0.68672 0.88416 0.0
H678 H 0.38482 0.6445 0.74506 0.0
H679 H 0.41309 0.67512 0.78819 0.0
H680 H 0.4663 0.60648 0.47681 0.0
H681 H 0.49466 0.63564 0.53141 0.0
H682 H 0.43011 0.57523 0.55323 0.0
H683 H 0.39737 0.56999 0.57793 0.0
C684 C 0.06464 0.19405 0.57526 0.0
C685 C 0.05545 0.2101 0.63883 0.0
C686 C 1.03361 0.21349 0.44473 0.0
C687 C 1.0445 0.19915 0.3782 0.0
N688 N 0.07153 0.17672 0.37827 0.0
N689 N 1.03616 0.23981 0.62931 0.0
C690 C 0.06054 0.1899 0.44275 0.0
C691 C 1.0411 0.22095 0.57267 0.0
N692 N 0.07613 0.1816 0.6429 0.0
N693 N 1.01608 0.22007 0.38594 0.0
H694 H 1.04204 0.24655 0.72146 0.0
H695 H 1.02864 0.25084 0.58143 0.0
H696 H 1.01139 0.21682 0.29043 0.0
H697 H 1.00469 0.22713 0.43373 0.0
H698 H 0.08021 0.16695 0.60606 0.0
H699 H 0.07985 0.18433 0.73952 0.0
H700 H 0.08676 0.17335 0.41441 0.0
H701 H 0.0662 0.16983 0.28623 0.0
C702 C 0.90642 0.8878 0.56917 0.0
C703 C 0.88259 0.86721 0.62876 0.0
C704 C 0.86795 0.84209 0.43055 0.0
C705 C 0.89001 0.86419 0.3678 0.0
N706 N 0.93056 0.9082 0.37395 0.0
N707 N 0.83895 0.82632 0.61582 0.0
C708 C 0.90933 0.88716 0.43614 0.0
C709 C 0.86285 0.84475 0.55941 0.0
N710 N 0.92665 0.9074 0.6406 0.0
N711 N 0.8525 0.81817 0.36844 0.0
H712 H 0.83469 0.82718 0.71105 0.0
H713 H 0.82249 0.81136 0.56625 0.0
H714 H 0.85608 0.81525 0.27496 0.0
H715 H 0.83794 0.80041 0.4127 0.0
H716 H 0.94577 0.92141 0.60598 0.0
H717 H 0.92506 0.90837 0.73804 0.0
H718 H 0.94347 0.92691 0.41503 0.0
H719 H 0.93452 0.90768 0.27805 0.0
C720 C 0.21856 1.01479 0.57025 0.0
C721 C 0.23085 0.03914 0.64172 0.0
C722 C 0.23224 0.06548 0.45457 0.0
C723 C 0.22136 0.04128 0.38145 0.0
N724 N 0.20909 0.99407 0.36332 0.0
N725 N 0.25283 0.08795 0.65199 0.0
C726 C 0.21605 1.01629 0.4374 0.0
C727 C 0.23856 0.06458 0.584 0.0
N728 N 0.20831 0.99012 0.62993 0.0
N729 N 0.23666 0.08937 0.40045 0.0
H730 H 0.25746 0.08795 0.74736 0.0
H731 H 0.26184 0.1074 0.61269 0.0
H732 H 0.23487 0.09176 0.30397 0.0
H733 H 0.24099 0.1067 0.45175 0.0
H734 H 0.19631 0.97162 0.58508 0.0
H735 H 0.20976 0.98805 0.72709 0.0
H736 H 0.20809 0.97621 0.39651 0.0
H737 H 0.20649 0.99418 0.26594 0.0
C738 C 0.69225 0.52081 0.77016 0.0
C739 C 0.71738 0.53248 0.70286 0.0
C740 C 0.7422 0.55505 0.89513 0.0
C741 C 0.71711 0.54363 0.96216 0.0
N742 N 0.66881 0.51333 0.97163 0.0
N743 N 0.76536 0.56449 0.6928 0.0
C744 C 0.69227 0.52587 0.90182 0.0
C745 C 0.74211 0.55064 0.76303 0.0
N746 N 0.66829 0.50639 0.7062 0.0
N747 N 0.76622 0.56889 0.95914 0.0
H748 H 0.76616 0.56146 0.59621 0.0
H749 H 0.78336 0.58049 0.72739 0.0
H750 H 0.7673 0.57251 0.05592 0.0
H751 H 0.78518 0.57486 0.91915 0.0
H752 H 0.64918 0.49975 0.74566 0.0
H753 H 0.6673 0.5028 0.60945 0.0
H754 H 0.65045 0.49766 0.93844 0.0
H755 H 0.66796 0.51752 0.06689 0.0
C756 C 0.57586 0.21797 0.79283 0.0
C757 C 0.55559 0.1959 0.72318 0.0
C758 C 0.52892 0.1764 0.91659 0.0
C759 C 0.54822 0.19953 -0.01619 0.0
N760 N 0.5876 0.24436 -0.01466 0.0
N761 N 0.51198 0.15499 0.71417 0.0
C762 C 0.57099 0.22094 0.92177 0.0
C763 C 0.53191 0.17529 0.78391 0.0
N764 N 0.60017 0.2355 0.73696 0.0
N765 N 0.50781 0.15543 -0.02008 0.0
H766 H 0.51422 0.15264 0.6186 0.0
H767 H 0.49272 0.14134 0.74862 0.0
H768 H 0.5038 0.1563 0.07539 0.0
H769 H 0.49499 0.13654 0.94023 0.0
H770 H 0.61686 0.25023 0.78621 0.0
H771 H 0.60459 0.23382 0.64288 0.0
H772 H 0.60275 0.26187 0.9418 0.0
H773 H 0.58488 0.24709 0.08047 0.0
C774 C 0.86738 0.36461 0.757 0.0
C775 C 0.89241 0.3808 0.6922 0.0
C776 C 0.91758 0.384 0.88715 0.0
C777 C 0.8926 0.36956 0.95349 0.0
N778 N 0.84373 0.349 0.95741 0.0
N779 N 0.94136 0.4092 0.69987 0.0
C780 C 0.8675 0.36045 0.88975 0.0
C781 C 0.91748 0.39162 0.75887 0.0
N782 N 0.84334 0.35349 0.69256 0.0
N783 N 0.94132 0.38894 0.94403 0.0
H784 H 0.94274 0.41394 0.60418 0.0
H785 H 0.95965 0.42054 0.7476 0.0
H786 H 0.94228 0.38299 0.03642 0.0
H787 H 0.95977 0.39653 0.89624 0.0
H788 H 0.82502 0.33817 0.72912 0.0
H789 H 0.84166 0.35873 0.60015 0.0
H790 H 0.82508 0.34502 0.92029 0.0
H791 H 0.8428 0.3453 0.05424 0.0
C792 C 0.3989 0.86085 0.23765 0.0
C793 C 0.38914 0.87631 0.3026 0.0
C794 C 0.36793 0.88065 0.108 0.0
C795 C 0.37816 0.8657 0.04203 0.0
N796 N 0.39823 0.83666 0.04789 0.0
N797 N 0.36968 0.9059 0.29538 0.0
C798 C 0.39257 0.85473 0.10751 0.0
C799 C 0.37482 0.88732 0.23711 0.0
N800 N 0.41456 0.8523 0.30026 0.0
N801 N 0.3511 0.88803 0.04797 0.0
H802 H 0.37521 0.91221 0.38828 0.0
H803 H 0.36231 0.9172 0.24875 0.0
H804 H 0.34649 0.88477 0.95235 0.0
H805 H 0.34001 0.89559 0.09443 0.0
H806 H 0.42552 0.84436 0.25584 0.0
H807 H 0.41797 0.85444 0.3973 0.0
H808 H 0.40599 0.82553 0.09268 0.0
H809 H 0.39288 0.83071 0.95465 0.0
C810 C 0.19554 0.51893 0.10419 0.0
C811 C 0.22172 0.53487 0.05092 0.0
C812 C 0.24019 0.55243 0.25951 0.0
C813 C 0.21484 0.53335 0.31368 0.0
N814 N 0.16935 0.49559 0.28986 0.0
N815 N 0.26964 0.56635 0.07574 0.0
C816 C 0.19279 0.51566 0.23662 0.0
C817 C 0.24432 0.55143 0.12807 0.0
N818 N 0.17323 0.50772 0.02828 0.0
N819 N 0.25977 0.5723 0.33221 0.0
H820 H 0.27307 0.5681 -0.0216 0.0
H821 H 0.28738 0.57603 0.12905 0.0
H822 H 0.25729 0.57367 0.4286 0.0
H823 H 0.27743 0.58863 0.29573 0.0
H824 H 0.15331 0.49772 0.06204 0.0
H825 H 0.17492 0.51143 0.93178 0.0
H826 H 0.15365 0.48044 0.23727 0.0
H827 H 0.16661 0.49256 0.38732 0.0
C828 C 0.57214 0.72961 0.25508 0.0
C829 C 0.5627 0.70418 0.31643 0.0
C830 C 0.54396 0.6801 0.11716 0.0
C831 C 0.55261 0.70544 0.05637 0.0
N832 N 0.57927 0.75449 0.05812 0.0
N833 N 0.53613 0.65514 0.31361 0.0
C834 C 0.56774 0.73031 0.12297 0.0
C835 C 0.5478 0.67938 0.24945 0.0
N836 N 0.58467 0.75301 0.32431 0.0
N837 N 0.53299 0.65678 0.04734 0.0
H838 H 0.53865 0.65361 0.41016 0.0
H839 H 0.52221 0.63662 0.2739 0.0
H840 H 0.52946 0.65649 0.95061 0.0
H841 H 0.52931 0.63802 0.0824 0.0
H842 H 0.58928 0.7721 0.29003 0.0
H843 H 0.58923 0.75323 0.41997 0.0
H844 H 0.59284 0.77317 0.09732 0.0
H845 H 0.57704 0.75587 0.96108 0.0
loop_
_geom_bond_atom_site_label_1
_geom_bond_atom_site_label_2
_geom_bond_distance
_geom_bond_site_symmetry_2
_ccdc_geom_bond_type
Nd0 C2 2.836 . S
Nd0 O20 2.500 1_556 S
Nd0 O21 2.492 . S
Nd0 O22 2.487 . S
Nd0 O23 2.682 . S
Nd0 O24 2.410 . S
Nd0 O29 2.414 1_556 S
Nd0 O31 2.424 . S
Nd1 C11 2.836 . S
Nd1 O23 2.414 1_654 S
Nd1 O25 2.424 . S
Nd1 O26 2.500 1_554 S
Nd1 O27 2.492 . S
Nd1 O28 2.487 . S
Nd1 O29 2.682 1_655 S
Nd1 O30 2.410 1_655 S
C2 Nd0 2.836 . S
C2 C3 1.498 . S
C2 O20 1.258 1_556 S
C2 O21 1.239 . S
C3 C2 1.498 . S
C3 C4 1.362 1_556 S
C3 C8 1.411 . S
C4 C3 1.362 1_554 S
C4 C5 1.392 . S
C4 H32 0.930 . S
C5 C4 1.392 . S
C5 C6 1.398 . S
C5 H33 0.929 . S
C6 C5 1.398 . S
C6 C7 1.352 1_554 S
C7 C6 1.352 1_556 S
C7 C8 1.384 . S
C7 H34 0.930 . S
C8 C3 1.411 . S
C8 C7 1.384 . S
C8 H35 0.929 . S
C9 O22 1.241 . S
C9 O23 1.273 . S
C10 O24 1.251 1_654 S
C10 O25 1.268 . S
C11 Nd1 2.836 . S
C11 C12 1.498 . S
C11 O26 1.258 1_554 S
C11 O27 1.239 . S
C12 C11 1.498 . S
C12 C13 1.366 1_554 S
C12 C17 1.407 . S
C13 C12 1.366 1_556 S
C13 C14 1.392 . S
C13 H36 0.930 . S
C14 C13 1.392 . S
C14 C15 1.395 1_556 S
C14 H37 0.929 . S
C15 C14 1.395 1_554 S
C15 C16 1.356 . S
C16 C15 1.356 . S
C16 C17 1.384 . S
C16 H38 0.930 . S
C17 C12 1.407 . S
C17 C16 1.384 . S
C17 H39 0.929 . S
C18 O28 1.241 1_455 S
C18 O29 1.273 . S
C19 O30 1.251 1_556 S
C19 O31 1.268 . S
O20 Nd0 2.500 1_554 S
O20 C2 1.258 1_554 S
O21 Nd0 2.492 . S
O21 C2 1.239 . S
O22 Nd0 2.487 . S
O22 C9 1.241 . S
O23 Nd0 2.682 . S
O23 Nd1 2.414 1_456 S
O23 C9 1.273 . S
O24 Nd0 2.410 . S
O24 C10 1.251 1_456 S
O25 Nd1 2.424 . S
O25 C10 1.268 . S
O26 Nd1 2.500 1_556 S
O26 C11 1.258 1_556 S
O27 Nd1 2.492 . S
O27 C11 1.239 . S
O28 Nd1 2.487 . S
O28 C18 1.241 1_655 S
O29 Nd0 2.414 1_554 S
O29 Nd1 2.682 1_455 S
O29 C18 1.273 . S
O30 Nd1 2.410 1_455 S
O30 C19 1.251 1_554 S
O31 Nd0 2.424 . S
O31 C19 1.268 . S
H32 C4 0.930 . S
H33 C5 0.929 . S
H34 C7 0.930 . S
H35 C8 0.929 . S
H36 C13 0.930 . S
H37 C14 0.929 . S
H38 C16 0.930 . S
H39 C17 0.929 . S
Nd40 C42 2.836 . S
Nd40 O60 2.500 1_556 S
Nd40 O61 2.492 . S
Nd40 O62 2.487 . S
Nd40 O63 2.682 . S
Nd40 O64 2.410 . S
Nd40 O69 2.414 1_556 S
Nd40 O71 2.424 . S
Nd41 C51 2.836 . S
Nd41 O63 2.414 1_554 S
Nd41 O65 2.424 . S
Nd41 O66 2.500 1_554 S
Nd41 O67 2.492 . S
Nd41 O68 2.487 . S
Nd41 O69 2.682 . S
Nd41 O70 2.410 . S
C42 Nd40 2.836 . S
C42 C43 1.498 . S
C42 O60 1.258 1_556 S
C42 O61 1.239 . S
C43 C42 1.498 . S
C43 C44 1.359 1_556 S
C43 C48 1.414 . S
C44 C43 1.359 1_554 S
C44 C45 1.392 . S
C44 H72 0.930 . S
C45 C44 1.392 . S
C45 C46 1.398 . S
C45 H73 0.929 . S
C46 C45 1.398 . S
C46 C47 1.352 1_554 S
C47 C46 1.352 1_556 S
C47 C48 1.384 . S
C47 H74 0.930 . S
C48 C43 1.414 . S
C48 C47 1.384 . S
C48 H75 0.929 . S
C49 O62 1.241 . S
C49 O63 1.273 . S
C50 O64 1.251 1_554 S
C50 O65 1.268 . S
C51 Nd41 2.836 . S
C51 C52 1.498 . S
C51 O66 1.258 1_554 S
C51 O67 1.239 . S
C52 C51 1.498 . S
C52 C53 1.366 1_554 S
C52 C57 1.407 . S
C53 C52 1.366 1_556 S
C53 C54 1.392 . S
C53 H76 0.930 . S
C54 C53 1.392 . S
C54 C55 1.397 1_656 S
C54 H77 0.929 . S
C55 C54 1.397 1_454 S
C55 C56 1.354 1_455 S
C56 C55 1.354 1_655 S
C56 C57 1.384 . S
C56 H78 0.930 1_655 S
C57 C52 1.407 . S
C57 C56 1.384 . S
C57 H79 0.929 . S
C58 O68 1.241 . S
C58 O69 1.273 . S
C59 O70 1.251 1_556 S
C59 O71 1.268 . S
O60 Nd40 2.500 1_554 S
O60 C42 1.258 1_554 S
O61 Nd40 2.492 . S
O61 C42 1.239 . S
O62 Nd40 2.487 . S
O62 C49 1.241 . S
O63 Nd40 2.682 . S
O63 Nd41 2.414 1_556 S
O63 C49 1.273 . S
O64 Nd40 2.410 . S
O64 C50 1.251 1_556 S
O65 Nd41 2.424 . S
O65 C50 1.268 . S
O66 Nd41 2.500 1_556 S
O66 C51 1.258 1_556 S
O67 Nd41 2.492 . S
O67 C51 1.239 . S
O68 Nd41 2.487 . S
O68 C58 1.241 . S
O69 Nd40 2.414 1_554 S
O69 Nd41 2.682 . S
O69 C58 1.273 . S
O70 Nd41 2.410 . S
O70 C59 1.251 1_554 S
O71 Nd40 2.424 . S
O71 C59 1.268 . S
H72 C44 0.930 . S
H73 C45 0.929 . S
H74 C47 0.930 . S
H75 C48 0.929 . S
H76 C53 0.930 . S
H77 C54 0.929 . S
H78 C56 0.930 1_455 S
H79 C57 0.929 . S
Nd80 C82 2.836 . S
Nd80 O100 2.500 1_556 S
Nd80 O101 2.492 . S
Nd80 O102 2.487 . S
Nd80 O103 2.682 1_565 S
Nd80 O104 2.410 1_565 S
Nd80 O109 2.414 1_566 S
Nd80 O111 2.424 . S
Nd81 C91 2.836 . S
Nd81 O103 2.414 1_554 S
Nd81 O105 2.424 . S
Nd81 O106 2.500 1_554 S
Nd81 O107 2.492 . S
Nd81 O108 2.487 . S
Nd81 O109 2.682 . S
Nd81 O110 2.410 . S
C82 Nd80 2.836 . S
C82 C83 1.498 . S
C82 O100 1.258 1_556 S
C82 O101 1.239 . S
C83 C82 1.498 . S
C83 C84 1.359 1_556 S
C83 C88 1.414 . S
C84 C83 1.359 1_554 S
C84 C85 1.392 . S
C84 H112 0.930 . S
C85 C84 1.392 . S
C85 C86 1.398 . S
C85 H113 0.929 . S
C86 C85 1.398 . S
C86 C87 1.352 1_554 S
C87 C86 1.352 1_556 S
C87 C88 1.384 . S
C87 H114 0.930 . S
C88 C83 1.414 . S
C88 C87 1.384 . S
C88 H115 0.929 . S
C89 O102 1.241 1_545 S
C89 O103 1.273 . S
C90 O104 1.251 1_554 S
C90 O105 1.268 . S
C91 Nd81 2.836 . S
C91 C92 1.498 . S
C91 O106 1.258 1_554 S
C91 O107 1.239 . S
C92 C91 1.498 . S
C92 C93 1.366 1_554 S
C92 C97 1.407 . S
C93 C92 1.366 1_556 S
C93 C94 1.392 . S
C93 H116 0.930 . S
C94 C93 1.392 . S
C94 C95 1.397 1_556 S
C94 H117 0.929 . S
C95 C94 1.397 1_554 S
C95 C96 1.354 . S
C96 C95 1.354 . S
C96 C97 1.384 . S
C96 H118 0.930 . S
C97 C92 1.407 . S
C97 C96 1.384 . S
C97 H119 0.929 . S
C98 O108 1.241 . S
C98 O109 1.273 . S
C99 O110 1.251 1_566 S
C99 O111 1.268 . S
O100 Nd80 2.500 1_554 S
O100 C82 1.258 1_554 S
O101 Nd80 2.492 . S
O101 C82 1.239 . S
O102 Nd80 2.487 . S
O102 C89 1.241 1_565 S
O103 Nd80 2.682 1_545 S
O103 Nd81 2.414 1_556 S
O103 C89 1.273 . S
O104 Nd80 2.410 1_545 S
O104 C90 1.251 1_556 S
O105 Nd81 2.424 . S
O105 C90 1.268 . S
O106 Nd81 2.500 1_556 S
O106 C91 1.258 1_556 S
O107 Nd81 2.492 . S
O107 C91 1.239 . S
O108 Nd81 2.487 . S
O108 C98 1.241 . S
O109 Nd80 2.414 1_544 S
O109 Nd81 2.682 . S
O109 C98 1.273 . S
O110 Nd81 2.410 . S
O110 C99 1.251 1_544 S
O111 Nd80 2.424 . S
O111 C99 1.268 . S
H112 C84 0.930 . S
H113 C85 0.929 . S
H114 C87 0.930 . S
H115 C88 0.929 . S
H116 C93 0.930 . S
H117 C94 0.929 . S
H118 C96 0.930 . S
H119 C97 0.929 . S
Nd120 C122 2.836 . S
Nd120 O140 2.500 . S
Nd120 O141 2.492 . S
Nd120 O142 2.487 . S
Nd120 O143 2.682 . S
Nd120 O144 2.410 . S
Nd120 O149 2.414 . S
Nd120 O151 2.424 . S
Nd121 C131 2.836 . S
Nd121 O143 2.414 . S
Nd121 O145 2.424 . S
Nd121 O146 2.500 . S
Nd121 O147 2.492 . S
Nd121 O148 2.487 . S
Nd121 O149 2.682 . S
Nd121 O150 2.410 . S
C122 Nd120 2.836 . S
C122 C123 1.498 . S
C122 O140 1.258 . S
C122 O141 1.239 . S
C123 C122 1.498 . S
C123 C124 1.366 . S
C123 C128 1.407 . S
C124 C123 1.366 . S
C124 C125 1.392 . S
C124 H152 0.930 . S
C125 C124 1.392 . S
C125 C126 1.398 . S
C125 H153 0.929 . S
C126 C125 1.398 . S
C126 C127 1.352 . S
C127 C126 1.352 . S
C127 C128 1.384 . S
C127 H154 0.930 . S
C128 C123 1.407 . S
C128 C127 1.384 . S
C128 H155 0.929 . S
C129 O142 1.241 . S
C129 O143 1.273 . S
C130 O144 1.251 . S
C130 O145 1.268 . S
C131 Nd121 2.836 . S
C131 C132 1.498 . S
C131 O146 1.258 . S
C131 O147 1.239 . S
C132 C131 1.498 . S
C132 C133 1.366 . S
C132 C137 1.407 . S
C133 C132 1.366 . S
C133 C134 1.392 . S
C133 H156 0.930 . S
C134 C133 1.392 . S
C134 C135 1.398 . S
C134 H157 0.929 . S
C135 C134 1.398 . S
C135 C136 1.352 . S
C136 C135 1.352 . S
C136 C137 1.384 . S
C136 H158 0.930 . S
C137 C132 1.407 . S
C137 C136 1.384 . S
C137 H159 0.929 . S
C138 O148 1.241 . S
C138 O149 1.273 . S
C139 O150 1.251 . S
C139 O151 1.268 . S
O140 Nd120 2.500 . S
O140 C122 1.258 . S
O141 Nd120 2.492 . S
O141 C122 1.239 . S
O142 Nd120 2.487 . S
O142 C129 1.241 . S
O143 Nd120 2.682 . S
O143 Nd121 2.414 . S
O143 C129 1.273 . S
O144 Nd120 2.410 . S
O144 C130 1.251 . S
O145 Nd121 2.424 . S
O145 C130 1.268 . S
O146 Nd121 2.500 . S
O146 C131 1.258 . S
O147 Nd121 2.492 . S
O147 C131 1.239 . S
O148 Nd121 2.487 . S
O148 C138 1.241 . S
O149 Nd120 2.414 . S
O149 Nd121 2.682 . S
O149 C138 1.273 . S
O150 Nd121 2.410 . S
O150 C139 1.251 . S
O151 Nd120 2.424 . S
O151 C139 1.268 . S
H152 C124 0.930 . S
H153 C125 0.929 . S
H154 C127 0.930 . S
H155 C128 0.929 . S
H156 C133 0.930 . S
H157 C134 0.929 . S
H158 C136 0.930 . S
H159 C137 0.929 . S
Nd160 C162 2.836 . S
Nd160 O180 2.500 . S
Nd160 O181 2.492 . S
Nd160 O182 2.487 . S
Nd160 O183 2.682 . S
Nd160 O184 2.410 . S
Nd160 O189 2.414 . S
Nd160 O191 2.424 . S
Nd161 C171 2.836 . S
Nd161 O183 2.414 . S
Nd161 O185 2.424 . S
Nd161 O186 2.500 . S
Nd161 O187 2.492 . S
Nd161 O188 2.487 . S
Nd161 O189 2.682 . S
Nd161 O190 2.410 . S
C162 Nd160 2.836 . S
C162 C163 1.498 . S
C162 O180 1.258 . S
C162 O181 1.239 . S
C163 C162 1.498 . S
C163 C164 1.366 . S
C163 C168 1.407 . S
C164 C163 1.366 . S
C164 C165 1.392 . S
C164 H192 0.930 . S
C165 C164 1.392 . S
C165 C166 1.398 . S
C165 H193 0.929 . S
C166 C165 1.398 . S
C166 C167 1.352 . S
C167 C166 1.352 . S
C167 C168 1.384 . S
C167 H194 0.930 . S
C168 C163 1.407 . S
C168 C167 1.384 . S
C168 H195 0.929 . S
C169 O182 1.241 . S
C169 O183 1.273 . S
C170 O184 1.251 . S
C170 O185 1.268 . S
C171 Nd161 2.836 . S
C171 C172 1.498 . S
C171 O186 1.258 . S
C171 O187 1.239 . S
C172 C171 1.498 . S
C172 C173 1.366 . S
C172 C177 1.407 . S
C173 C172 1.366 . S
C173 C174 1.392 . S
C173 H196 0.930 . S
C174 C173 1.392 . S
C174 C175 1.398 . S
C174 H197 0.929 . S
C175 C174 1.398 . S
C175 C176 1.352 . S
C176 C175 1.352 . S
C176 C177 1.384 . S
C176 H198 0.930 . S
C177 C172 1.407 . S
C177 C176 1.384 . S
C177 H199 0.929 . S
C178 O188 1.241 . S
C178 O189 1.273 . S
C179 O190 1.251 . S
C179 O191 1.268 . S
O180 Nd160 2.500 . S
O180 C162 1.258 . S
O181 Nd160 2.492 . S
O181 C162 1.239 . S
O182 Nd160 2.487 . S
O182 C169 1.241 . S
O183 Nd160 2.682 . S
O183 Nd161 2.414 . S
O183 C169 1.273 . S
O184 Nd160 2.410 . S
O184 C170 1.251 . S
O185 Nd161 2.424 . S
O185 C170 1.268 . S
O186 Nd161 2.500 . S
O186 C171 1.258 . S
O187 Nd161 2.492 . S
O187 C171 1.239 . S
O188 Nd161 2.487 . S
O188 C178 1.241 . S
O189 Nd160 2.414 . S
O189 Nd161 2.682 . S
O189 C178 1.273 . S
O190 Nd161 2.410 . S
O190 C179 1.251 . S
O191 Nd160 2.424 . S
O191 C179 1.268 . S
H192 C164 0.930 . S
H193 C165 0.929 . S
H194 C167 0.930 . S
H195 C168 0.929 . S
H196 C173 0.930 . S
H197 C174 0.929 . S
H198 C176 0.930 . S
H199 C177 0.929 . S
Nd200 C202 2.836 . S
Nd200 O220 2.500 . S
Nd200 O221 2.492 . S
Nd200 O222 2.487 . S
Nd200 O223 2.682 . S
Nd200 O224 2.410 . S
Nd200 O229 2.414 . S
Nd200 O231 2.424 . S
Nd201 C211 2.836 . S
Nd201 O223 2.414 . S
Nd201 O225 2.424 . S
Nd201 O226 2.500 . S
Nd201 O227 2.492 . S
Nd201 O228 2.487 . S
Nd201 O229 2.682 . S
Nd201 O230 2.410 . S
C202 Nd200 2.836 . S
C202 C203 1.498 . S
C202 O220 1.258 . S
C202 O221 1.239 . S
C203 C202 1.498 . S
C203 C204 1.366 . S
C203 C208 1.407 . S
C204 C203 1.366 . S
C204 C205 1.392 . S
C204 H232 0.930 . S
C205 C204 1.392 . S
C205 C206 1.398 . S
C205 H233 0.929 . S
C206 C205 1.398 . S
C206 C207 1.352 . S
C207 C206 1.352 . S
C207 C208 1.384 . S
C207 H234 0.930 . S
C208 C203 1.407 . S
C208 C207 1.384 . S
C208 H235 0.929 . S
C209 O222 1.241 . S
C209 O223 1.273 . S
C210 O224 1.251 . S
C210 O225 1.268 . S
C211 Nd201 2.836 . S
C211 C212 1.498 . S
C211 O226 1.258 . S
C211 O227 1.239 . S
C212 C211 1.498 . S
C212 C213 1.366 . S
C212 C217 1.407 . S
C213 C212 1.366 . S
C213 C214 1.392 . S
C213 H236 0.930 . S
C214 C213 1.392 . S
C214 C215 1.398 . S
C214 H237 0.929 . S
C215 C214 1.398 . S
C215 C216 1.352 . S
C216 C215 1.352 . S
C216 C217 1.384 . S
C216 H238 0.930 . S
C217 C212 1.407 . S
C217 C216 1.384 . S
C217 H239 0.929 . S
C218 O228 1.241 . S
C218 O229 1.273 . S
C219 O230 1.251 . S
C219 O231 1.268 . S
O220 Nd200 2.500 . S
O220 C202 1.258 . S
O221 Nd200 2.492 . S
O221 C202 1.239 . S
O222 Nd200 2.487 . S
O222 C209 1.241 . S
O223 Nd200 2.682 . S
O223 Nd201 2.414 . S
O223 C209 1.273 . S
O224 Nd200 2.410 . S
O224 C210 1.251 . S
O225 Nd201 2.424 . S
O225 C210 1.268 . S
O226 Nd201 2.500 . S
O226 C211 1.258 . S
O227 Nd201 2.492 . S
O227 C211 1.239 . S
O228 Nd201 2.487 . S
O228 C218 1.241 . S
O229 Nd200 2.414 . S
O229 Nd201 2.682 . S
O229 C218 1.273 . S
O230 Nd201 2.410 . S
O230 C219 1.251 . S
O231 Nd200 2.424 . S
O231 C219 1.268 . S
H232 C204 0.930 . S
H233 C205 0.929 . S
H234 C207 0.930 . S
H235 C208 0.929 . S
H236 C213 0.930 . S
H237 C214 0.929 . S
H238 C216 0.930 . S
H239 C217 0.929 . S
Nd240 C242 2.836 . S
Nd240 O260 2.500 . S
Nd240 O261 2.492 . S
Nd240 O262 2.487 . S
Nd240 O263 2.682 . S
Nd240 O264 2.410 . S
Nd240 O269 2.414 . S
Nd240 O271 2.424 . S
Nd241 C251 2.836 . S
Nd241 O263 2.414 . S
Nd241 O265 2.424 . S
Nd241 O266 2.500 . S
Nd241 O267 2.492 . S
Nd241 O268 2.487 . S
Nd241 O269 2.682 . S
Nd241 O270 2.410 . S
C242 Nd240 2.836 . S
C242 C243 1.498 . S
C242 O260 1.258 . S
C242 O261 1.239 . S
C243 C242 1.498 . S
C243 C244 1.366 . S
C243 C248 1.407 . S
C244 C243 1.366 . S
C244 C245 1.392 . S
C244 H272 0.930 . S
C245 C244 1.392 . S
C245 C246 1.398 1_565 S
C245 H273 0.929 . S
C246 C245 1.398 1_545 S
C246 C247 1.352 1_545 S
C247 C246 1.352 1_565 S
C247 C248 1.384 . S
C247 H274 0.930 1_565 S
C248 C243 1.407 . S
C248 C247 1.384 . S
C248 H275 0.929 . S
C249 O262 1.241 . S
C249 O263 1.273 . S
C250 O264 1.251 . S
C250 O265 1.268 . S
C251 Nd241 2.836 . S
C251 C252 1.498 . S
C251 O266 1.258 . S
C251 O267 1.239 . S
C252 C251 1.498 . S
C252 C253 1.366 . S
C252 C257 1.407 . S
C253 C252 1.366 . S
C253 C254 1.392 . S
C253 H276 0.930 . S
C254 C253 1.392 . S
C254 C255 1.398 . S
C254 H277 0.929 . S
C255 C254 1.398 . S
C255 C256 1.352 . S
C256 C255 1.352 . S
C256 C257 1.384 . S
C256 H278 0.930 . S
C257 C252 1.407 . S
C257 C256 1.384 . S
C257 H279 0.929 . S
C258 O268 1.241 . S
C258 O269 1.273 . S
C259 O270 1.251 . S
C259 O271 1.268 . S
O260 Nd240 2.500 . S
O260 C242 1.258 . S
O261 Nd240 2.492 . S
O261 C242 1.239 . S
O262 Nd240 2.487 . S
O262 C249 1.241 . S
O263 Nd240 2.682 . S
O263 Nd241 2.414 . S
O263 C249 1.273 . S
O264 Nd240 2.410 . S
O264 C250 1.251 . S
O265 Nd241 2.424 . S
O265 C250 1.268 . S
O266 Nd241 2.500 . S
O266 C251 1.258 . S
O267 Nd241 2.492 . S
O267 C251 1.239 . S
O268 Nd241 2.487 . S
O268 C258 1.241 . S
O269 Nd240 2.414 . S
O269 Nd241 2.682 . S
O269 C258 1.273 . S
O270 Nd241 2.410 . S
O270 C259 1.251 . S
O271 Nd240 2.424 . S
O271 C259 1.268 . S
H272 C244 0.930 . S
H273 C245 0.929 . S
H274 C247 0.930 1_545 S
H275 C248 0.929 . S
H276 C253 0.930 . S
H277 C254 0.929 . S
H278 C256 0.930 . S
H279 C257 0.929 . S
Nd280 C282 2.836 . S
Nd280 O300 2.500 . S
Nd280 O301 2.492 . S
Nd280 O302 2.487 . S
Nd280 O303 2.682 . S
Nd280 O304 2.410 . S
Nd280 O309 2.414 . S
Nd280 O311 2.424 . S
Nd281 C291 2.836 . S
Nd281 O303 2.414 . S
Nd281 O305 2.424 . S
Nd281 O306 2.500 . S
Nd281 O307 2.492 . S
Nd281 O308 2.487 . S
Nd281 O309 2.682 . S
Nd281 O310 2.410 . S
C282 Nd280 2.836 . S
C282 C283 1.498 . S
C282 O300 1.258 . S
C282 O301 1.239 . S
C283 C282 1.498 . S
C283 C284 1.366 . S
C283 C288 1.407 . S
C284 C283 1.366 . S
C284 C285 1.392 . S
C284 H312 0.930 . S
C285 C284 1.392 . S
C285 C286 1.398 . S
C285 H313 0.929 . S
C286 C285 1.398 . S
C286 C287 1.352 . S
C287 C286 1.352 . S
C287 C288 1.384 . S
C287 H314 0.930 . S
C288 C283 1.407 . S
C288 C287 1.384 . S
C288 H315 0.929 . S
C289 O302 1.241 . S
C289 O303 1.273 . S
C290 O304 1.251 . S
C290 O305 1.268 . S
C291 Nd281 2.836 . S
C291 C292 1.498 . S
C291 O306 1.258 . S
C291 O307 1.239 . S
C292 C291 1.498 . S
C292 C293 1.366 . S
C292 C297 1.407 . S
C293 C292 1.366 . S
C293 C294 1.392 . S
C293 H316 0.930 . S
C294 C293 1.392 . S
C294 C295 1.398 . S
C294 H317 0.929 . S
C295 C294 1.398 . S
C295 C296 1.352 . S
C296 C295 1.352 . S
C296 C297 1.384 . S
C296 H318 0.930 . S
C297 C292 1.407 . S
C297 C296 1.384 . S
C297 H319 0.929 . S
C298 O308 1.241 . S
C298 O309 1.273 . S
C299 O310 1.251 . S
C299 O311 1.268 . S
O300 Nd280 2.500 . S
O300 C282 1.258 . S
O301 Nd280 2.492 . S
O301 C282 1.239 . S
O302 Nd280 2.487 . S
O302 C289 1.241 . S
O303 Nd280 2.682 . S
O303 Nd281 2.414 . S
O303 C289 1.273 . S
O304 Nd280 2.410 . S
O304 C290 1.251 . S
O305 Nd281 2.424 . S
O305 C290 1.268 . S
O306 Nd281 2.500 . S
O306 C291 1.258 . S
O307 Nd281 2.492 . S
O307 C291 1.239 . S
O308 Nd281 2.487 . S
O308 C298 1.241 . S
O309 Nd280 2.414 . S
O309 Nd281 2.682 . S
O309 C298 1.273 . S
O310 Nd281 2.410 . S
O310 C299 1.251 . S
O311 Nd280 2.424 . S
O311 C299 1.268 . S
H312 C284 0.930 . S
H313 C285 0.929 . S
H314 C287 0.930 . S
H315 C288 0.929 . S
H316 C293 0.930 . S
H317 C294 0.929 . S
H318 C296 0.930 . S
H319 C297 0.929 . S
Nd320 C322 2.836 . S
Nd320 O340 2.500 . S
Nd320 O341 2.492 . S
Nd320 O342 2.487 . S
Nd320 O343 2.682 . S
Nd320 O344 2.410 . S
Nd320 O349 2.414 . S
Nd320 O351 2.424 . S
Nd321 C331 2.836 . S
Nd321 O343 2.414 . S
Nd321 O345 2.424 . S
Nd321 O346 2.500 . S
Nd321 O347 2.492 . S
Nd321 O348 2.487 . S
Nd321 O349 2.682 . S
Nd321 O350 2.410 . S
C322 Nd320 2.836 . S
C322 C323 1.498 . S
C322 O340 1.258 . S
C322 O341 1.239 . S
C323 C322 1.498 . S
C323 C324 1.366 . S
C323 C328 1.407 . S
C324 C323 1.366 . S
C324 C325 1.392 . S
C324 H352 0.930 . S
C325 C324 1.392 . S
C325 C326 1.398 . S
C325 H353 0.929 . S
C326 C325 1.398 . S
C326 C327 1.352 . S
C327 C326 1.352 . S
C327 C328 1.384 . S
C327 H354 0.930 . S
C328 C323 1.407 . S
C328 C327 1.384 . S
C328 H355 0.929 . S
C329 O342 1.241 . S
C329 O343 1.273 . S
C330 O344 1.251 . S
C330 O345 1.268 . S
C331 Nd321 2.836 . S
C331 C332 1.498 . S
C331 O346 1.258 . S
C331 O347 1.239 . S
C332 C331 1.498 . S
C332 C333 1.366 . S
C332 C337 1.407 . S
C333 C332 1.366 . S
C333 C334 1.392 . S
C333 H356 0.930 . S
C334 C333 1.392 . S
C334 C335 1.398 . S
C334 H357 0.929 . S
C335 C334 1.398 . S
C335 C336 1.352 . S
C336 C335 1.352 . S
C336 C337 1.384 . S
C336 H358 0.930 . S
C337 C332 1.407 . S
C337 C336 1.384 . S
C337 H359 0.929 . S
C338 O348 1.241 . S
C338 O349 1.273 . S
C339 O350 1.251 . S
C339 O351 1.268 . S
O340 Nd320 2.500 . S
O340 C322 1.258 . S
O341 Nd320 2.492 . S
O341 C322 1.239 . S
O342 Nd320 2.487 . S
O342 C329 1.241 . S
O343 Nd320 2.682 . S
O343 Nd321 2.414 . S
O343 C329 1.273 . S
O344 Nd320 2.410 . S
O344 C330 1.251 . S
O345 Nd321 2.424 . S
O345 C330 1.268 . S
O346 Nd321 2.500 . S
O346 C331 1.258 . S
O347 Nd321 2.492 . S
O347 C331 1.239 . S
O348 Nd321 2.487 . S
O348 C338 1.241 . S
O349 Nd320 2.414 . S
O349 Nd321 2.682 . S
O349 C338 1.273 . S
O350 Nd321 2.410 . S
O350 C339 1.251 . S
O351 Nd320 2.424 . S
O351 C339 1.268 . S
H352 C324 0.930 . S
H353 C325 0.929 . S
H354 C327 0.930 . S
H355 C328 0.929 . S
H356 C333 0.930 . S
H357 C334 0.929 . S
H358 C336 0.930 . S
H359 C337 0.929 . S
C360 C361 1.363 . S
C360 C366 1.379 . S
C360 N368 1.356 . S
C361 C360 1.363 . S
C361 C367 1.363 . S
C362 C363 1.363 . S
C362 C367 1.379 . S
C362 N369 1.356 . S
C363 C362 1.363 . S
C363 C366 1.363 . S
N364 C366 1.356 . S
N364 H376 0.984 . S
N364 H377 0.985 . S
N365 C367 1.356 1_554 S
N365 H370 0.984 . S
N365 H371 0.985 . S
C366 C360 1.379 . S
C366 C363 1.363 . S
C366 N364 1.356 . S
C367 C361 1.363 . S
C367 C362 1.379 . S
C367 N365 1.356 1_556 S
N368 C360 1.356 . S
N368 H374 0.984 . S
N368 H375 0.984 . S
N369 C362 1.356 . S
N369 H372 0.984 . S
N369 H373 0.985 . S
H370 N365 0.984 . S
H371 N365 0.985 . S
H372 N369 0.984 . S
H373 N369 0.985 . S
H374 N368 0.984 . S
H375 N368 0.984 . S
H376 N364 0.984 . S
H377 N364 0.985 . S
C378 C379 1.363 . S
C378 C384 1.379 . S
C378 N386 1.356 1_556 S
C379 C378 1.363 . S
C379 C385 1.363 . S
C380 C381 1.363 . S
C380 C385 1.379 . S
C380 N387 1.356 . S
C381 C380 1.363 . S
C381 C384 1.363 . S
N382 C384 1.356 . S
N382 H394 0.984 . S
N382 H395 0.985 . S
N383 C385 1.356 . S
N383 H388 0.984 . S
N383 H389 0.985 . S
C384 C378 1.379 . S
C384 C381 1.363 . S
C384 N382 1.356 . S
C385 C379 1.363 . S
C385 C380 1.379 . S
C385 N383 1.356 . S
N386 C378 1.356 1_554 S
N386 H392 0.984 . S
N386 H393 0.984 . S
N387 C380 1.356 . S
N387 H390 0.984 . S
N387 H391 0.985 . S
H388 N383 0.984 . S
H389 N383 0.985 . S
H390 N387 0.984 . S
H391 N387 0.985 . S
H392 N386 0.984 . S
H393 N386 0.984 . S
H394 N382 0.984 . S
H395 N382 0.985 . S
C396 C397 1.363 . S
C396 C402 1.379 . S
C396 N404 1.356 1_556 S
C397 C396 1.363 . S
C397 C403 1.363 . S
C398 C399 1.363 . S
C398 C403 1.379 . S
C398 N405 1.356 . S
C399 C398 1.363 . S
C399 C402 1.363 . S
N400 C402 1.356 . S
N400 H412 0.984 1_556 S
N400 H413 0.985 . S
N401 C403 1.356 . S
N401 H406 0.984 . S
N401 H407 0.985 . S
C402 C396 1.379 . S
C402 C399 1.363 . S
C402 N400 1.356 . S
C403 C397 1.363 . S
C403 C398 1.379 . S
C403 N401 1.356 . S
N404 C396 1.356 1_554 S
N404 H410 0.984 . S
N404 H411 0.984 . S
N405 C398 1.356 . S
N405 H408 0.984 . S
N405 H409 0.985 . S
H406 N401 0.984 . S
H407 N401 0.985 . S
H408 N405 0.984 . S
H409 N405 0.985 . S
H410 N404 0.984 . S
H411 N404 0.984 . S
H412 N400 0.984 1_554 S
H413 N400 0.985 . S
C414 C415 1.363 . S
C414 C420 1.379 . S
C414 N422 1.356 . S
C415 C414 1.363 . S
C415 C421 1.363 . S
C416 C417 1.363 . S
C416 C421 1.379 . S
C416 N423 1.356 . S
C417 C416 1.363 . S
C417 C420 1.363 . S
N418 C420 1.356 1_556 S
N418 H430 0.984 . S
N418 H431 0.985 . S
N419 C421 1.356 . S
N419 H424 0.984 . S
N419 H425 0.985 . S
C420 C414 1.379 . S
C420 C417 1.363 . S
C420 N418 1.356 1_554 S
C421 C415 1.363 . S
C421 C416 1.379 . S
C421 N419 1.356 . S
N422 C414 1.356 . S
N422 H428 0.984 . S
N422 H429 0.984 . S
N423 C416 1.356 . S
N423 H426 0.984 . S
N423 H427 0.985 . S
H424 N419 0.984 . S
H425 N419 0.985 . S
H426 N423 0.984 . S
H427 N423 0.985 . S
H428 N422 0.984 . S
H429 N422 0.984 . S
H430 N418 0.984 . S
H431 N418 0.985 . S
C432 C433 1.363 . S
C432 C438 1.379 . S
C432 N440 1.356 . S
C433 C432 1.363 . S
C433 C439 1.363 . S
C434 C435 1.363 . S
C434 C439 1.379 . S
C434 N441 1.356 1_554 S
C435 C434 1.363 . S
C435 C438 1.363 . S
N436 C438 1.356 . S
N436 H448 0.984 . S
N436 H449 0.985 . S
N437 C439 1.356 . S
N437 H442 0.984 . S
N437 H443 0.985 . S
C438 C432 1.379 . S
C438 C435 1.363 . S
C438 N436 1.356 . S
C439 C433 1.363 . S
C439 C434 1.379 . S
C439 N437 1.356 . S
N440 C432 1.356 . S
N440 H446 0.984 . S
N440 H447 0.984 . S
N441 C434 1.356 1_556 S
N441 H444 0.984 . S
N441 H445 0.985 . S
H442 N437 0.984 . S
H443 N437 0.985 . S
H444 N441 0.984 . S
H445 N441 0.985 . S
H446 N440 0.984 . S
H447 N440 0.984 . S
H448 N436 0.984 . S
H449 N436 0.985 . S
C450 C451 1.363 . S
C450 C456 1.379 . S
C450 N458 1.356 1_554 S
C451 C450 1.363 . S
C451 C457 1.363 . S
C452 C453 1.363 . S
C452 C457 1.379 . S
C452 N459 1.356 . S
C453 C452 1.363 . S
C453 C456 1.363 . S
N454 C456 1.356 . S
N454 H466 0.984 . S
N454 H467 0.985 . S
N455 C457 1.356 . S
N455 H460 0.984 . S
N455 H461 0.985 . S
C456 C450 1.379 . S
C456 C453 1.363 . S
C456 N454 1.356 . S
C457 C451 1.363 . S
C457 C452 1.379 . S
C457 N455 1.356 . S
N458 C450 1.356 1_556 S
N458 H464 0.984 . S
N458 H465 0.984 . S
N459 C452 1.356 . S
N459 H462 0.984 . S
N459 H463 0.985 . S
H460 N455 0.984 . S
H461 N455 0.985 . S
H462 N459 0.984 . S
H463 N459 0.985 . S
H464 N458 0.984 . S
H465 N458 0.984 . S
H466 N454 0.984 . S
H467 N454 0.985 . S
C468 C469 1.363 . S
C468 C474 1.379 . S
C468 N476 1.356 . S
C469 C468 1.363 . S
C469 C475 1.363 . S
C470 C471 1.363 . S
C470 C475 1.379 . S
C470 N477 1.356 . S
C471 C470 1.363 . S
C471 C474 1.363 . S
N472 C474 1.356 . S
N472 H484 0.984 . S
N472 H485 0.985 . S
N473 C475 1.356 . S
N473 H478 0.984 . S
N473 H479 0.985 . S
C474 C468 1.379 . S
C474 C471 1.363 . S
C474 N472 1.356 . S
C475 C469 1.363 . S
C475 C470 1.379 . S
C475 N473 1.356 . S
N476 C468 1.356 . S
N476 H482 0.984 . S
N476 H483 0.984 . S
N477 C470 1.356 . S
N477 H480 0.984 . S
N477 H481 0.985 . S
H478 N473 0.984 . S
H479 N473 0.985 . S
H480 N477 0.984 . S
H481 N477 0.985 . S
H482 N476 0.984 . S
H483 N476 0.984 . S
H484 N472 0.984 . S
H485 N472 0.985 . S
C486 C487 1.363 . S
C486 C492 1.379 . S
C486 N494 1.356 . S
C487 C486 1.363 . S
C487 C493 1.363 . S
C488 C489 1.363 . S
C488 C493 1.379 . S
C488 N495 1.356 . S
C489 C488 1.363 . S
C489 C492 1.363 . S
N490 C492 1.356 . S
N490 H502 0.984 . S
N490 H503 0.985 . S
N491 C493 1.356 . S
N491 H496 0.984 . S
N491 H497 0.985 . S
C492 C486 1.379 . S
C492 C489 1.363 . S
C492 N490 1.356 . S
C493 C487 1.363 . S
C493 C488 1.379 . S
C493 N491 1.356 . S
N494 C486 1.356 . S
N494 H500 0.984 . S
N494 H501 0.984 . S
N495 C488 1.356 . S
N495 H498 0.984 . S
N495 H499 0.985 . S
H496 N491 0.984 . S
H497 N491 0.985 . S
H498 N495 0.984 . S
H499 N495 0.985 . S
H500 N494 0.984 . S
H501 N494 0.984 . S
H502 N490 0.984 . S
H503 N490 0.985 . S
C504 C505 1.363 . S
C504 C510 1.379 . S
C504 N512 1.356 . S
C505 C504 1.363 . S
C505 C511 1.363 . S
C506 C507 1.363 . S
C506 C511 1.379 . S
C506 N513 1.356 . S
C507 C506 1.363 . S
C507 C510 1.363 . S
N508 C510 1.356 . S
N508 H520 0.984 . S
N508 H521 0.985 . S
N509 C511 1.356 . S
N509 H514 0.984 . S
N509 H515 0.985 . S
C510 C504 1.379 . S
C510 C507 1.363 . S
C510 N508 1.356 . S
C511 C505 1.363 . S
C511 C506 1.379 . S
C511 N509 1.356 . S
N512 C504 1.356 . S
N512 H518 0.984 . S
N512 H519 0.984 . S
N513 C506 1.356 . S
N513 H516 0.984 . S
N513 H517 0.985 . S
H514 N509 0.984 . S
H515 N509 0.985 . S
H516 N513 0.984 . S
H517 N513 0.985 . S
H518 N512 0.984 . S
H519 N512 0.984 . S
H520 N508 0.984 . S
H521 N508 0.985 . S
C522 C523 1.363 1_554 S
C522 C528 1.379 . S
C522 N530 1.356 . S
C523 C522 1.363 1_556 S
C523 C529 1.363 . S
C524 C525 1.363 . S
C524 C529 1.379 . S
C524 N531 1.356 . S
C525 C524 1.363 . S
C525 C528 1.363 1_556 S
N526 C528 1.356 . S
N526 H538 0.984 . S
N526 H539 0.985 . S
N527 C529 1.356 . S
N527 H532 0.984 . S
N527 H533 0.985 . S
C528 C522 1.379 . S
C528 C525 1.363 1_554 S
C528 N526 1.356 . S
C529 C523 1.363 . S
C529 C524 1.379 . S
C529 N527 1.356 . S
N530 C522 1.356 . S
N530 H536 0.984 . S
N530 H537 0.984 . S
N531 C524 1.356 . S
N531 H534 0.984 . S
N531 H535 0.985 . S
H532 N527 0.984 . S
H533 N527 0.985 . S
H534 N531 0.984 . S
H535 N531 0.985 . S
H536 N530 0.984 . S
H537 N530 0.984 . S
H538 N526 0.984 . S
H539 N526 0.985 . S
C540 C541 1.363 . S
C540 C546 1.379 . S
C540 N548 1.356 . S
C541 C540 1.363 . S
C541 C547 1.363 1_556 S
C542 C543 1.363 1_554 S
C542 C547 1.379 . S
C542 N549 1.356 . S
C543 C542 1.363 1_556 S
C543 C546 1.363 . S
N544 C546 1.356 . S
N544 H556 0.984 . S
N544 H557 0.982 1_565 S
N545 C547 1.356 . S
N545 H550 0.984 . S
N545 H551 0.985 . S
C546 C540 1.379 . S
C546 C543 1.363 . S
C546 N544 1.356 . S
C547 C541 1.363 1_554 S
C547 C542 1.379 . S
C547 N545 1.356 . S
N548 C540 1.356 . S
N548 H554 0.984 . S
N548 H555 0.984 . S
N549 C542 1.356 . S
N549 H552 0.953 1_565 S
N549 H553 0.985 . S
H550 N545 0.984 . S
H551 N545 0.985 . S
H552 N549 0.953 1_545 S
H553 N549 0.985 . S
H554 N548 0.984 . S
H555 N548 0.984 . S
H556 N544 0.984 . S
H557 N544 0.982 1_545 S
C558 C559 1.363 . S
C558 C564 1.379 . S
C558 N566 1.356 . S
C559 C558 1.363 . S
C559 C565 1.363 1_556 S
C560 C561 1.363 1_554 S
C560 C565 1.379 . S
C560 N567 1.356 . S
C561 C560 1.363 1_556 S
C561 C564 1.363 . S
N562 C564 1.356 . S
N562 H574 0.984 . S
N562 H575 0.985 . S
N563 C565 1.356 . S
N563 H568 0.984 . S
N563 H569 0.985 . S
C564 C558 1.379 . S
C564 C561 1.363 . S
C564 N562 1.356 . S
C565 C559 1.363 1_554 S
C565 C560 1.379 . S
C565 N563 1.356 . S
N566 C558 1.356 . S
N566 H572 0.984 . S
N566 H573 0.984 . S
N567 C560 1.356 . S
N567 H570 0.984 . S
N567 H571 0.985 1_565 S
H568 N563 0.984 . S
H569 N563 0.985 . S
H570 N567 0.984 . S
H571 N567 0.985 1_545 S
H572 N566 0.984 . S
H573 N566 0.984 . S
H574 N562 0.984 . S
H575 N562 0.985 . S
C576 C577 1.363 . S
C576 C582 1.379 . S
C576 N584 1.356 . S
C577 C576 1.363 . S
C577 C583 1.363 . S
C578 C579 1.363 . S
C578 C583 1.379 . S
C578 N585 1.356 . S
C579 C578 1.363 . S
C579 C582 1.363 . S
N580 C582 1.356 . S
N580 H592 0.984 . S
N580 H593 0.985 . S
N581 C583 1.356 . S
N581 H586 0.984 . S
N581 H587 0.985 . S
C582 C576 1.379 . S
C582 C579 1.363 . S
C582 N580 1.356 . S
C583 C577 1.363 . S
C583 C578 1.379 . S
C583 N581 1.356 . S
N584 C576 1.356 . S
N584 H590 0.984 . S
N584 H591 0.984 . S
N585 C578 1.356 . S
N585 H588 0.984 . S
N585 H589 0.985 . S
H586 N581 0.984 . S
H587 N581 0.985 . S
H588 N585 0.984 . S
H589 N585 0.985 . S
H590 N584 0.984 . S
H591 N584 0.984 . S
H592 N580 0.984 . S
H593 N580 0.985 . S
C594 C595 1.363 . S
C594 C600 1.379 . S
C594 N602 1.356 . S
C595 C594 1.363 . S
C595 C601 1.363 . S
C596 C597 1.363 . S
C596 C601 1.379 . S
C596 N603 1.356 . S
C597 C596 1.363 . S
C597 C600 1.363 . S
N598 C600 1.356 . S
N598 H610 0.984 . S
N598 H611 0.985 . S
N599 C601 1.356 . S
N599 H604 0.984 . S
N599 H605 0.985 . S
C600 C594 1.379 . S
C600 C597 1.363 . S
C600 N598 1.356 . S
C601 C595 1.363 . S
C601 C596 1.379 . S
C601 N599 1.356 . S
N602 C594 1.356 . S
N602 H608 0.984 . S
N602 H609 0.984 . S
N603 C596 1.356 . S
N603 H606 0.984 . S
N603 H607 0.985 . S
H604 N599 0.984 . S
H605 N599 0.985 . S
H606 N603 0.984 . S
H607 N603 0.985 . S
H608 N602 0.984 . S
H609 N602 0.984 . S
H610 N598 0.984 . S
H611 N598 0.985 . S
C612 C613 1.363 . S
C612 C618 1.379 . S
C612 N620 1.356 . S
C613 C612 1.363 . S
C613 C619 1.363 . S
C614 C615 1.363 . S
C614 C619 1.379 . S
C614 N621 1.356 . S
C615 C614 1.363 . S
C615 C618 1.363 . S
N616 C618 1.356 . S
N616 H628 0.984 . S
N616 H629 0.985 . S
N617 C619 1.356 . S
N617 H622 0.984 . S
N617 H623 0.985 . S
C618 C612 1.379 . S
C618 C615 1.363 . S
C618 N616 1.356 . S
C619 C613 1.363 . S
C619 C614 1.379 . S
C619 N617 1.356 . S
N620 C612 1.356 . S
N620 H626 0.984 . S
N620 H627 0.984 . S
N621 C614 1.356 . S
N621 H624 0.984 . S
N621 H625 0.985 . S
H622 N617 0.984 . S
H623 N617 0.985 . S
H624 N621 0.984 . S
H625 N621 0.985 . S
H626 N620 0.984 . S
H627 N620 0.984 . S
H628 N616 0.984 . S
H629 N616 0.985 . S
C630 C631 1.363 . S
C630 C636 1.379 . S
C630 N638 1.356 . S
C631 C630 1.363 . S
C631 C637 1.363 . S
C632 C633 1.363 . S
C632 C637 1.379 . S
C632 N639 1.356 . S
C633 C632 1.363 . S
C633 C636 1.363 . S
N634 C636 1.356 . S
N634 H646 0.984 . S
N634 H647 0.985 . S
N635 C637 1.356 . S
N635 H640 0.984 . S
N635 H641 0.985 . S
C636 C630 1.379 . S
C636 C633 1.363 . S
C636 N634 1.356 . S
C637 C631 1.363 . S
C637 C632 1.379 . S
C637 N635 1.356 . S
N638 C630 1.356 . S
N638 H644 0.984 . S
N638 H645 0.984 . S
N639 C632 1.356 . S
N639 H642 0.984 . S
N639 H643 0.985 . S
H640 N635 0.984 . S
H641 N635 0.985 . S
H642 N639 0.984 . S
H643 N639 0.985 . S
H644 N638 0.984 . S
H645 N638 0.984 . S
H646 N634 0.984 . S
H647 N634 0.985 . S
C648 C649 1.363 . S
C648 C654 1.379 . S
C648 N656 1.356 . S
C649 C648 1.363 . S
C649 C655 1.363 . S
C650 C651 1.363 . S
C650 C655 1.379 . S
C650 N657 1.356 . S
C651 C650 1.363 . S
C651 C654 1.363 . S
N652 C654 1.356 . S
N652 H664 0.984 . S
N652 H665 0.985 . S
N653 C655 1.356 . S
N653 H658 0.984 . S
N653 H659 0.985 . S
C654 C648 1.379 . S
C654 C651 1.363 . S
C654 N652 1.356 . S
C655 C649 1.363 . S
C655 C650 1.379 . S
C655 N653 1.356 . S
N656 C648 1.356 . S
N656 H662 0.984 . S
N656 H663 0.984 . S
N657 C650 1.356 . S
N657 H660 0.984 . S
N657 H661 0.985 . S
H658 N653 0.984 . S
H659 N653 0.985 . S
H660 N657 0.984 . S
H661 N657 0.985 . S
H662 N656 0.984 . S
H663 N656 0.984 . S
H664 N652 0.984 . S
H665 N652 0.985 . S
C666 C667 1.363 . S
C666 C672 1.379 . S
C666 N674 1.356 . S
C667 C666 1.363 . S
C667 C673 1.363 . S
C668 C669 1.363 . S
C668 C673 1.379 . S
C668 N675 1.356 . S
C669 C668 1.363 . S
C669 C672 1.363 . S
N670 C672 1.356 . S
N670 H682 0.984 . S
N670 H683 0.985 . S
N671 C673 1.356 . S
N671 H676 0.984 . S
N671 H677 0.985 . S
C672 C666 1.379 . S
C672 C669 1.363 . S
C672 N670 1.356 . S
C673 C667 1.363 . S
C673 C668 1.379 . S
C673 N671 1.356 . S
N674 C666 1.356 . S
N674 H680 0.984 . S
N674 H681 0.984 . S
N675 C668 1.356 . S
N675 H678 0.984 . S
N675 H679 0.985 . S
H676 N671 0.984 . S
H677 N671 0.985 . S
H678 N675 0.984 . S
H679 N675 0.985 . S
H680 N674 0.984 . S
H681 N674 0.984 . S
H682 N670 0.984 . S
H683 N670 0.985 . S
C684 C685 1.363 . S
C684 C690 1.379 . S
C684 N692 1.356 . S
C685 C684 1.363 . S
C685 C691 1.363 . S
C686 C687 1.363 . S
C686 C691 1.379 . S
C686 N693 1.356 . S
C687 C686 1.363 . S
C687 C690 1.363 . S
N688 C690 1.356 . S
N688 H700 0.984 . S
N688 H701 0.985 . S
N689 C691 1.355 . S
N689 H694 0.984 1_455 S
N689 H695 0.986 1_455 S
C690 C684 1.379 . S
C690 C687 1.363 . S
C690 N688 1.356 . S
C691 C685 1.363 . S
C691 C686 1.379 . S
C691 N689 1.355 . S
N692 C684 1.356 . S
N692 H698 0.984 . S
N692 H699 0.984 . S
N693 C686 1.356 . S
N693 H696 0.984 . S
N693 H697 0.985 . S
H694 N689 0.984 1_655 S
H695 N689 0.986 1_655 S
H696 N693 0.984 . S
H697 N693 0.985 . S
H698 N692 0.984 . S
H699 N692 0.984 . S
H700 N688 0.984 . S
H701 N688 0.985 . S
C702 C703 1.363 . S
C702 C708 1.379 . S
C702 N710 1.356 . S
C703 C702 1.363 . S
C703 C709 1.363 . S
C704 C705 1.363 . S
C704 C709 1.379 . S
C704 N711 1.356 . S
C705 C704 1.363 . S
C705 C708 1.363 . S
N706 C708 1.356 . S
N706 H718 0.984 . S
N706 H719 0.985 . S
N707 C709 1.356 . S
N707 H712 0.984 . S
N707 H713 0.985 . S
C708 C702 1.379 . S
C708 C705 1.363 . S
C708 N706 1.356 . S
C709 C703 1.363 . S
C709 C704 1.379 . S
C709 N707 1.356 . S
N710 C702 1.356 . S
N710 H716 0.984 . S
N710 H717 0.984 . S
N711 C704 1.356 . S
N711 H714 0.984 . S
N711 H715 0.985 . S
H712 N707 0.984 . S
H713 N707 0.985 . S
H714 N711 0.984 . S
H715 N711 0.985 . S
H716 N710 0.984 . S
H717 N710 0.984 . S
H718 N706 0.984 . S
H719 N706 0.985 . S
C720 C721 1.363 1_565 S
C720 C726 1.379 . S
C720 N728 1.356 . S
C721 C720 1.363 1_545 S
C721 C727 1.363 . S
C722 C723 1.363 . S
C722 C727 1.379 . S
C722 N729 1.356 . S
C723 C722 1.363 . S
C723 C726 1.363 1_545 S
N724 C726 1.356 . S
N724 H736 0.984 . S
N724 H737 0.985 . S
N725 C727 1.356 . S
N725 H730 0.984 . S
N725 H731 0.985 . S
C726 C720 1.379 . S
C726 C723 1.363 1_565 S
C726 N724 1.356 . S
C727 C721 1.363 . S
C727 C722 1.379 . S
C727 N725 1.356 . S
N728 C720 1.356 . S
N728 H734 0.984 . S
N728 H735 0.984 . S
N729 C722 1.356 . S
N729 H732 0.984 . S
N729 H733 0.985 . S
H730 N725 0.984 . S
H731 N725 0.985 . S
H732 N729 0.984 . S
H733 N729 0.985 . S
H734 N728 0.984 . S
H735 N728 0.984 . S
H736 N724 0.984 . S
H737 N724 0.985 . S
C738 C739 1.363 . S
C738 C744 1.379 . S
C738 N746 1.356 . S
C739 C738 1.363 . S
C739 C745 1.363 . S
C740 C741 1.363 . S
C740 C745 1.379 . S
C740 N747 1.356 1_556 S
C741 C740 1.363 . S
C741 C744 1.363 . S
N742 C744 1.356 . S
N742 H754 0.984 . S
N742 H755 0.985 1_556 S
N743 C745 1.356 . S
N743 H748 0.984 . S
N743 H749 0.985 . S
C744 C738 1.379 . S
C744 C741 1.363 . S
C744 N742 1.356 . S
C745 C739 1.363 . S
C745 C740 1.379 . S
C745 N743 1.356 . S
N746 C738 1.356 . S
N746 H752 0.984 . S
N746 H753 0.984 . S
N747 C740 1.356 1_554 S
N747 H750 0.984 . S
N747 H751 0.985 . S
H748 N743 0.984 . S
H749 N743 0.985 . S
H750 N747 0.984 . S
H751 N747 0.985 . S
H752 N746 0.984 . S
H753 N746 0.984 . S
H754 N742 0.984 . S
H755 N742 0.985 1_554 S
C756 C757 1.363 . S
C756 C762 1.379 . S
C756 N764 1.356 . S
C757 C756 1.363 . S
C757 C763 1.363 . S
C758 C759 1.363 . S
C758 C763 1.379 . S
C758 N765 1.356 1_556 S
C759 C758 1.363 . S
C759 C762 1.363 . S
N760 C762 1.356 . S
N760 H772 0.984 . S
N760 H773 0.985 1_556 S
N761 C763 1.356 . S
N761 H766 0.984 . S
N761 H767 0.985 . S
C762 C756 1.379 . S
C762 C759 1.363 . S
C762 N760 1.356 . S
C763 C757 1.363 . S
C763 C758 1.379 . S
C763 N761 1.356 . S
N764 C756 1.356 . S
N764 H770 0.984 . S
N764 H771 0.984 . S
N765 C758 1.356 1_554 S
N765 H768 0.984 . S
N765 H769 0.985 . S
H766 N761 0.984 . S
H767 N761 0.985 . S
H768 N765 0.984 . S
H769 N765 0.985 . S
H770 N764 0.984 . S
H771 N764 0.984 . S
H772 N760 0.984 . S
H773 N760 0.985 1_554 S
C774 C775 1.363 . S
C774 C780 1.379 . S
C774 N782 1.356 . S
C775 C774 1.363 . S
C775 C781 1.363 . S
C776 C777 1.363 . S
C776 C781 1.379 . S
C776 N783 1.356 1_556 S
C777 C776 1.363 . S
C777 C780 1.363 . S
N778 C780 1.356 . S
N778 H790 0.984 . S
N778 H791 0.985 1_556 S
N779 C781 1.356 . S
N779 H784 0.984 . S
N779 H785 0.985 . S
C780 C774 1.379 . S
C780 C777 1.363 . S
C780 N778 1.356 . S
C781 C775 1.363 . S
C781 C776 1.379 . S
C781 N779 1.356 . S
N782 C774 1.356 . S
N782 H788 0.984 . S
N782 H789 0.984 . S
N783 C776 1.356 1_554 S
N783 H786 0.984 . S
N783 H787 0.985 1_554 S
H784 N779 0.984 . S
H785 N779 0.985 . S
H786 N783 0.984 . S
H787 N783 0.985 1_556 S
H788 N782 0.984 . S
H789 N782 0.984 . S
H790 N778 0.984 . S
H791 N778 0.985 1_554 S
C792 C793 1.363 . S
C792 C798 1.379 . S
C792 N800 1.356 . S
C793 C792 1.363 . S
C793 C799 1.363 . S
C794 C795 1.363 . S
C794 C799 1.379 . S
C794 N801 1.356 . S
C795 C794 1.363 . S
C795 C798 1.363 . S
N796 C798 1.356 1_556 S
N796 H808 0.984 . S
N796 H809 0.985 . S
N797 C799 1.356 . S
N797 H802 0.984 . S
N797 H803 0.985 . S
C798 C792 1.379 . S
C798 C795 1.363 . S
C798 N796 1.356 1_554 S
C799 C793 1.363 . S
C799 C794 1.379 . S
C799 N797 1.356 . S
N800 C792 1.356 . S
N800 H806 0.984 . S
N800 H807 0.984 . S
N801 C794 1.356 . S
N801 H804 0.984 1_554 S
N801 H805 0.985 . S
H802 N797 0.984 . S
H803 N797 0.985 . S
H804 N801 0.984 1_556 S
H805 N801 0.985 . S
H806 N800 0.984 . S
H807 N800 0.984 . S
H808 N796 0.984 . S
H809 N796 0.985 . S
C810 C811 1.363 . S
C810 C816 1.379 . S
C810 N818 1.356 . S
C811 C810 1.363 . S
C811 C817 1.363 . S
C812 C813 1.363 . S
C812 C817 1.379 . S
C812 N819 1.356 . S
C813 C812 1.363 . S
C813 C816 1.363 . S
N814 C816 1.356 . S
N814 H826 0.984 . S
N814 H827 0.985 . S
N815 C817 1.356 1_556 S
N815 H820 0.984 . S
N815 H821 0.985 . S
C816 C810 1.379 . S
C816 C813 1.363 . S
C816 N814 1.356 . S
C817 C811 1.363 . S
C817 C812 1.379 . S
C817 N815 1.356 1_554 S
N818 C810 1.356 . S
N818 H824 0.984 . S
N818 H825 0.984 1_554 S
N819 C812 1.356 . S
N819 H822 0.984 . S
N819 H823 0.985 . S
H820 N815 0.984 . S
H821 N815 0.985 . S
H822 N819 0.984 . S
H823 N819 0.985 . S
H824 N818 0.984 . S
H825 N818 0.984 1_556 S
H826 N814 0.984 . S
H827 N814 0.985 . S
C828 C829 1.363 . S
C828 C834 1.379 . S
C828 N836 1.356 . S
C829 C828 1.363 . S
C829 C835 1.363 . S
C830 C831 1.363 . S
C830 C835 1.379 . S
C830 N837 1.356 . S
C831 C830 1.363 . S
C831 C834 1.363 . S
N832 C834 1.356 1_556 S
N832 H844 0.984 . S
N832 H845 0.985 . S
N833 C835 1.356 . S
N833 H838 0.984 . S
N833 H839 0.985 . S
C834 C828 1.379 . S
C834 C831 1.363 . S
C834 N832 1.356 1_554 S
C835 C829 1.363 . S
C835 C830 1.379 . S
C835 N833 1.356 . S
N836 C828 1.356 . S
N836 H842 0.984 . S
N836 H843 0.984 . S
N837 C830 1.356 . S
N837 H840 0.984 1_554 S
N837 H841 0.985 . S
H838 N833 0.984 . S
H839 N833 0.985 . S
H840 N837 0.984 1_556 S
H841 N837 0.985 . S
H842 N836 0.984 . S
H843 N836 0.984 . S
H844 N832 0.984 . S
H845 N832 0.985 . S
C361 C6 1.947 1_556 S
C363 C290 2.029 . S
C379 C46 1.947 1_556 S
C381 C330 2.029 . S
C397 C86 1.946 1_556 S
C399 C250 2.028 . S
C415 C166 1.946 . S
C417 C90 2.028 . S
C433 C206 1.946 . S
C435 C10 2.028 . S
C451 C50 2.028 . S
C453 C126 1.946 . S
C469 C286 1.947 1_655 S
C471 C210 2.029 . S
C487 C326 1.946 . S
C489 C130 2.028 . S
C505 C170 2.028 . S
C507 C246 1.946 . S
C523 C95 1.651 1_556 S
C525 C19 1.642 . S
C541 C59 1.643 . S
C543 C15 1.652 1_566 S
C559 C55 1.652 1_556 S
C561 C99 1.643 . S
C577 C139 1.643 . S
C579 C215 1.652 . S
C595 C135 1.652 . S
C597 C179 1.643 . S
C613 C175 1.652 . S
C615 C219 1.643 . S
C631 C335 1.652 . S
C633 C259 1.643 . S
C649 C299 1.643 . S
C651 C255 1.652 . S
C667 C339 1.643 . S
C669 C295 1.652 . S
C685 C9 1.072 . S
C687 C18 1.072 . S
C703 C49 1.072 . S
C705 C58 1.072 . S
C721 C89 1.072 . S
C723 C98 1.072 . S
C739 C138 1.072 . S
C741 C129 1.072 1_556 S
C757 C178 1.072 . S
C759 C169 1.072 1_556 S
C775 C218 1.072 . S
C777 C209 1.072 1_556 S
C793 C249 1.072 . S
C795 C258 1.072 1_554 S
C811 C298 1.072 1_554 S
C813 C289 1.072 . S
C829 C329 1.072 . S
C831 C338 1.072 1_554 S
