# Generated by pormake.
# Topology lcy, (6)-cn, num edge types: 1
# Building blocks:
#     Node 0, Type 0, BuildingBlock: IZENUY_clean_sbu_0, # of connection points: 6
#     Node 1, Type 0, BuildingBlock: IZENUY_clean_sbu_0, # of connection points: 6
#     Node 2, Type 0, BuildingBlock: IZENUY_clean_sbu_0, # of connection points: 6
#     Node 3, Type 0, BuildingBlock: IZENUY_clean_sbu_0, # of connection points: 6
#     Edge 4, Type (0, 0), BuildingBlock: FUNLAD_clean_linker_1, # of connection points: 2
#     Edge 5, Type (0, 0), BuildingBlock: FUNLAD_clean_linker_1, # of connection points: 2
#     Edge 6, Type (0, 0), BuildingBlock: FUNLAD_clean_linker_1, # of connection points: 2
#     Edge 7, Type (0, 0), BuildingBlock: FUNLAD_clean_linker_1, # of connection points: 2
#     Edge 8, Type (0, 0), BuildingBlock: FUNLAD_clean_linker_1, # of connection points: 2
#     Edge 9, Type (0, 0), BuildingBlock: FUNLAD_clean_linker_1, # of connection points: 2
#     Edge 10, Type (0, 0), BuildingBlock: FUNLAD_clean_linker_1, # of connection points: 2
#     Edge 11, Type (0, 0), BuildingBlock: FUNLAD_clean_linker_1, # of connection points: 2
#     Edge 12, Type (0, 0), BuildingBlock: FUNLAD_clean_linker_1, # of connection points: 2
#     Edge 13, Type (0, 0), BuildingBlock: FUNLAD_clean_linker_1, # of connection points: 2
#     Edge 14, Type (0, 0), BuildingBlock: FUNLAD_clean_linker_1, # of connection points: 2
#     Edge 15, Type (0, 0), BuildingBlock: FUNLAD_clean_linker_1, # of connection points: 2
# Relax obj value: 0.232
# Max RMSD: 0.227
# Mean RMSD: 0.227
data_MOF--net-lcy--node1-IZENUY_clean_sbu_0--edge1-FUNLAD_clean_linker_1
_symmetry_space_group_name_H-M    P1
_symmetry_Int_Tables_number       1
_symmetry_cell_setting            triclinic
loop_
_symmetry_equiv_pos_as_xyz
'x, y, z'
_cell_length_a     26.26852
_cell_length_b     26.482175
_cell_length_c     26.456113
_cell_angle_alpha  89.937969
_cell_angle_beta   90.176178
_cell_angle_gamma 90.028116
loop_
_atom_site_label
_atom_site_type_symbol
_atom_site_fract_x
_atom_site_fract_y
_atom_site_fract_z
_atom_type_partial_charge
Fe0 Fe 0.43898 0.38644 0.33802 0.0
Fe1 Fe 0.38597 0.33013 0.42492 0.0
O2 O 0.38781 0.38123 0.38141 0.0
Fe3 Fe 0.3385 0.42696 0.38122 0.0
O4 O 0.32249 0.41381 0.31608 0.0
O5 O 0.40076 0.41533 0.28705 0.0
O6 O 0.42453 0.32556 0.31039 0.0
C7 C 0.42437 0.28486 0.33511 0.0
C8 C 0.42794 0.48544 0.36288 0.0
O9 O 0.41739 0.28481 0.38245 0.0
C10 C 0.34768 0.41273 0.48255 0.0
O11 O 0.4868 0.35869 0.38102 0.0
O12 O 0.44614 0.34833 0.45286 0.0
O13 O 0.38003 0.47999 0.36302 0.0
O14 O 0.45717 0.4477 0.36228 0.0
C15 C 0.28573 0.33449 0.39924 0.0
O16 O 0.35414 0.3659 0.47545 0.0
O17 O 0.35059 0.44362 0.44641 0.0
C18 C 0.48711 0.35121 0.42835 0.0
O19 O 0.32563 0.30805 0.4003 0.0
O20 O 0.28798 0.38227 0.39923 0.0
C21 C 0.35318 0.41852 0.2799 0.0
Fe22 Fe 0.84728 0.07523 0.63223 0.0
Fe23 Fe 0.88644 0.16996 0.57787 0.0
O24 O 0.8902 0.12667 0.62895 0.0
Fe25 Fe 0.93677 0.13534 0.67634 0.0
O26 O 0.96458 0.07453 0.66435 0.0
O27 O 0.89307 0.03135 0.66257 0.0
O28 O 0.86866 0.05132 0.57184 0.0
C29 C 0.86359 0.0757 0.53135 0.0
C30 C 0.84988 0.10185 0.73156 0.0
O31 O 0.8613 0.12354 0.53186 0.0
C32 C 0.91286 0.23313 0.66102 0.0
O33 O 0.79361 0.1107 0.60331 0.0
O34 O 0.82304 0.18836 0.5961 0.0
O35 O 0.89721 0.11056 0.72834 0.0
O36 O 0.82302 0.09507 0.69268 0.0
C37 C 0.98881 0.15929 0.58478 0.0
O38 O 0.91091 0.2248 0.61391 0.0
O39 O 0.91197 0.1969 0.69169 0.0
C40 C 0.78614 0.15794 0.59834 0.0
O41 O 0.94995 0.15394 0.55708 0.0
O42 O 0.98491 0.16128 0.63259 0.0
C43 C 0.94114 0.03335 0.66752 0.0
Fe44 Fe 0.079 0.61738 0.8358 0.0
Fe45 Fe 0.17556 0.5746 0.88308 0.0
O46 O 0.12823 0.62193 0.88105 0.0
Fe47 Fe 0.13039 0.67299 0.92415 0.0
O48 O 0.06831 0.65802 0.94923 0.0
O49 O 0.03004 0.64682 0.87594 0.0
O50 O 0.05835 0.55768 0.86136 0.0
C51 C 0.0859 0.51906 0.86062 0.0
C52 C 0.09727 0.71813 0.83146 0.0
O53 O 0.13396 0.52327 0.85914 0.0
C54 C 0.23132 0.66401 0.90536 0.0
O55 O 0.11949 0.58711 0.78701 0.0
O56 O 0.19636 0.59067 0.82013 0.0
O57 O 0.10293 0.7195 0.87921 0.0
O58 O 0.09632 0.6769 0.80798 0.0
C59 C 0.15789 0.58693 0.98309 0.0
O60 O 0.22641 0.61644 0.90703 0.0
O61 O 0.19276 0.6921 0.90236 0.0
C62 C 0.16763 0.58779 0.78211 0.0
O63 O 0.15676 0.55685 0.94624 0.0
O64 O 0.15784 0.63455 0.97633 0.0
C65 C 0.02826 0.65481 0.92312 0.0
Fe66 Fe 0.57827 0.8847 0.172 0.0
Fe67 Fe 0.6769 0.92924 0.12967 0.0
O68 O 0.62904 0.88197 0.12818 0.0
Fe69 Fe 0.63189 0.83258 0.08311 0.0
O70 O 0.5703 0.84845 0.05689 0.0
O71 O 0.53053 0.85656 0.12943 0.0
O72 O 0.55832 0.94537 0.14778 0.0
C73 C 0.58605 0.98401 0.14857 0.0
C74 C 0.59712 0.78359 0.17296 0.0
O75 O 0.63408 0.98012 0.15174 0.0
C76 C 0.73261 0.84002 0.10589 0.0
O77 O 0.61668 0.91381 0.22317 0.0
O78 O 0.69465 0.91257 0.19356 0.0
O79 O 0.60405 0.78459 0.1255 0.0
O80 O 0.59451 0.82379 0.19839 0.0
C81 C 0.66422 0.91986 0.02807 0.0
O82 O 0.72859 0.88763 0.10772 0.0
O83 O 0.69366 0.81235 0.10552 0.0
C84 C 0.66446 0.91598 0.23028 0.0
O85 O 0.66237 0.94875 0.06587 0.0
O86 O 0.66025 0.87231 0.03299 0.0
C87 C 0.52972 0.85057 0.08199 0.0
H88 H 0.14906 0.53349 0.04612 0.0
C89 C 0.17126 0.56535 0.03252 0.0
H90 H 0.23958 0.6066 0.03961 0.0
H91 H 0.29362 0.54522 0.26368 0.0
H92 H 0.28146 0.63564 0.2715 0.0
H93 H 0.24677 0.68551 0.20056 0.0
H94 H 0.22495 0.64535 0.12093 0.0
C95 C 0.2162 0.57608 0.05439 0.0
C96 C 0.23661 0.5455 0.09735 0.0
C97 C 0.24761 0.56923 0.14411 0.0
C98 C 0.26608 0.54021 0.18555 0.0
C99 C 0.27837 0.56522 0.23132 0.0
C100 C 0.27173 0.61715 0.2363 0.0
C101 C 0.25234 0.64524 0.1963 0.0
C102 C 0.24016 0.62175 0.15074 0.0
H103 H 0.36135 0.44129 0.19987 0.0
C104 C 0.33445 0.43781 0.23083 0.0
H105 H 0.26119 0.45668 0.25748 0.0
H106 H 0.23179 0.48959 0.00987 0.0
H107 H 0.24381 0.3993 1.00226 0.0
H108 H 0.26696 0.34772 0.07655 0.0
H109 H 0.27955 0.38654 0.15863 0.0
C110 C 0.28731 0.457 0.2257 0.0
C111 C 0.27223 0.48724 0.18064 0.0
C112 C 0.26266 0.4636 0.13357 0.0
C113 C 0.2464 0.49298 0.09141 0.0
C114 C 0.24106 0.46889 0.04389 0.0
C115 C 0.24844 0.41706 0.03883 0.0
C116 C 0.26168 0.38805 0.0806 0.0
C117 C 0.26889 0.41085 0.12748 0.0
H118 H 0.6568 0.94683 0.30753 0.0
C119 C 0.68415 0.93451 0.27937 0.0
H120 H 0.76154 0.93101 0.25874 0.0
H121 H 0.84324 0.11718 0.37756 0.0
H122 H 0.85291 0.14387 0.29048 0.0
H123 H 0.81638 0.09362 0.22081 0.0
H124 H 0.77053 0.01616 0.23768 0.0
C125 C 0.73427 0.94196 0.28753 0.0
C126 C 0.7537 0.97305 0.33055 0.0
C127 C 0.77974 0.01892 0.32008 0.0
C128 C 0.79975 0.04863 0.36033 0.0
C129 C 0.82654 0.09357 0.34857 0.0
C130 C 0.83246 0.10934 0.29871 0.0
C131 C 0.81199 0.081 0.25949 0.0
C132 C 0.7859 0.03638 0.26978 0.0
H133 H 0.86207 0.0084 0.48226 0.0
C134 C 0.84898 0.04719 0.48568 0.0
H135 H 0.79965 0.10319 0.4568 0.0
H136 H 0.71046 0.88505 0.36416 0.0
H137 H 0.69478 0.86179 0.45136 0.0
H138 H 0.72083 0.91801 0.52109 0.0
H139 H 0.76399 0.997 0.50411 0.0
C140 C 0.81393 0.06486 0.45297 0.0
C141 C 0.79295 0.03311 0.41114 0.0
C142 C 0.76502 0.98832 0.42173 0.0
C143 C 0.74695 0.95743 0.3814 0.0
C144 C 0.72271 0.91113 0.39316 0.0
C145 C 0.71377 0.89713 0.44311 0.0
C146 C 0.72865 0.92866 0.48236 0.0
C147 C 0.75389 0.97376 0.47205 0.0
H148 H 0.22525 0.59633 0.72281 0.0
C149 C 0.19153 0.57518 0.73368 0.0
H150 H 0.14686 0.5103 0.72053 0.0
H151 H 0.21713 0.47444 0.49494 0.0
H152 H 0.12617 0.48633 0.4851 0.0
H153 H 0.0731 0.51202 0.55739 0.0
H154 H 0.11061 0.52552 0.64012 0.0
C155 C 0.17941 0.53271 0.70868 0.0
C156 C 0.21109 0.51424 0.66573 0.0
C157 C 0.18866 0.50741 0.61744 0.0
C158 C 0.21946 0.49354 0.57553 0.0
C159 C 0.19582 0.48595 0.52791 0.0
C160 C 0.14356 0.49246 0.52173 0.0
C161 C 0.11367 0.50684 0.56245 0.0
C162 C 0.13574 0.51444 0.60978 0.0
H163 H 0.3238 0.40188 0.56177 0.0
C164 C 0.32645 0.42942 0.53137 0.0
H165 H 0.30431 0.50169 0.50576 0.0
H166 H 0.264 0.50958 0.75539 0.0
H167 H 0.35486 0.49745 0.76546 0.0
H168 H 0.40977 0.48314 0.69136 0.0
H169 H 0.37379 0.47937 0.60698 0.0
C170 C 0.30465 0.47501 0.537 0.0
C171 C 0.27276 0.48711 0.58183 0.0
C172 C 0.29493 0.49216 0.63047 0.0
C173 C 0.26377 0.50386 0.67276 0.0
C174 C 0.28625 0.5042 0.72152 0.0
C175 C 0.33835 0.49667 0.72793 0.0
C176 C 0.36921 0.48836 0.68625 0.0
C177 C 0.34798 0.48604 0.63801 0.0
H178 H 0.68002 0.91593 0.94605 0.0
C179 C 0.67968 0.94086 0.97867 0.0
H180 H 0.70057 0.01263 0.00714 0.0
H181 H 0.87365 0.02795 0.83922 0.0
H182 H 0.92398 1.00125 0.91088 0.0
H183 H 0.88301 0.97587 0.99069 0.0
H184 H 0.79115 0.97741 0.99911 0.0
C185 C 0.69813 0.98809 0.97433 0.0
C186 C 0.7223 0.00602 0.92685 0.0
C187 C 0.7761 0.00656 0.92294 0.0
C188 C 0.79975 0.02271 0.87733 0.0
C189 C 0.85347 0.01931 0.87363 0.0
C190 C 0.88298 1.00329 0.91444 0.0
C191 C 0.85992 0.98878 0.95928 0.0
C192 C 0.80713 0.98994 0.96359 0.0
H193 H 0.842 0.1114 0.81435 0.0
C194 C 0.82735 0.09151 0.78148 0.0
H195 H 0.77912 0.03433 0.75373 0.0
H196 H 0.61848 0.01161 0.92323 0.0
H197 H 0.56729 0.04223 0.85313 0.0
H198 H 0.60782 0.07323 0.77504 0.0
H199 H 0.6996 0.07368 0.76644 0.0
C200 C 0.79258 0.05454 0.78696 0.0
C201 C 0.76934 0.04033 0.83637 0.0
C202 C 0.71544 0.04078 0.84096 0.0
C203 C 0.69195 0.02334 0.88611 0.0
C204 C 0.63818 0.02421 0.88965 0.0
C205 C 0.60835 0.04182 0.84977 0.0
C206 C 0.63117 0.05923 0.8058 0.0
C207 C 0.684 0.05898 0.80128 0.0
H208 H 0.07104 0.1762 0.58636 0.0
C209 C 0.03801 0.17297 0.5617 0.0
H210 H 0.00945 0.18393 0.48763 0.0
H211 H 0.21417 0.3326 0.50309 0.0
H212 H 0.16591 0.37973 0.5648 0.0
H213 H 0.08101 0.35076 0.59188 0.0
H214 H 0.04476 0.27351 0.55856 0.0
C215 C 0.04194 0.187 0.51298 0.0
C216 C 0.09024 0.20789 0.49222 0.0
C217 C 0.10942 0.25489 0.5098 0.0
C218 C 0.1568 0.27341 0.49156 0.0
C219 C 0.17707 0.31817 0.51312 0.0
C220 C 0.14993 0.34548 0.54903 0.0
C221 C 0.10229 0.32902 0.56449 0.0
C222 C 0.0821 0.28431 0.54529 0.0
H223 H 0.20184 0.33275 0.40252 0.0
C224 C 0.23604 0.31051 0.40894 0.0
H225 H 0.26638 0.24362 0.44062 0.0
H226 H 0.06372 0.11731 0.45 0.0
H227 H 0.11004 0.072 0.38509 0.0
H228 H 0.18984 0.10634 0.3501 0.0
H229 H 0.22401 0.18607 0.37999 0.0
C230 C 0.23248 0.266 0.43323 0.0
C231 C 0.18313 0.24669 0.45308 0.0
C232 C 0.16332 0.20036 0.43476 0.0
C233 C 0.11694 0.18088 0.45446 0.0
C234 C 0.0985 0.13411 0.436 0.0
C235 C 0.12473 0.10767 0.39878 0.0
C236 C 0.16969 0.12698 0.37912 0.0
C237 C 0.18892 0.17276 0.3967 0.0
H238 H 0.07025 0.75656 0.76338 0.0
C239 C 0.08065 0.76285 0.80272 0.0
H240 H 0.08049 0.81491 0.86284 0.0
H241 H 0.01959 0.91892 0.63516 0.0
H242 H 0.10395 0.89406 0.6077 0.0
H243 H 0.16303 0.85106 0.66629 0.0
H244 H 0.1372 0.83104 0.75205 0.0
C245 C 0.07203 0.80841 0.82318 0.0
C246 C 0.04329 0.84731 0.79358 0.0
C247 C 0.06042 0.86241 0.745 0.0
C248 C 0.02799 0.89086 0.71264 0.0
C249 C 0.04403 0.90046 0.66245 0.0
C250 C 0.09217 0.88592 0.64603 0.0
C251 C 0.1253 0.86146 0.6789 0.0
C252 C 0.10982 0.84977 0.72784 0.0
H253 H 0.01038 0.9971 0.69587 0.0
C254 C 0.97045 0.99019 0.68727 0.0
H255 H 0.90965 0.93871 0.69372 0.0
H256 H 1.00005 0.82894 0.88622 0.0
H257 H 0.91878 0.85954 0.91578 0.0
H258 H 0.86308 0.90986 0.86029 0.0
H259 H 0.89054 0.93464 0.7767 0.0
C260 C 0.94991 0.94561 0.7002 0.0
C261 C 0.98033 0.90862 0.73056 0.0
C262 C 0.96388 0.89507 0.77985 0.0
C263 C 0.99547 0.86462 0.81144 0.0
C264 C 0.97799 0.85192 0.86047 0.0
C265 C 0.93116 0.86904 0.87796 0.0
C266 C 0.90001 0.89783 0.84688 0.0
C267 C 0.91619 0.91141 0.7987 0.0
H268 H 0.31395 0.6609 0.92055 0.0
C269 C 0.28154 0.68624 0.9173 0.0
H270 H 0.25483 0.76064 0.92938 0.0
H271 H 0.42992 0.76801 0.10097 0.0
H272 H 0.35869 0.74229 0.15258 0.0
H273 H 0.27556 0.72273 0.11392 0.0
H274 H 0.26391 0.72627 0.0231 0.0
C275 C 0.28714 0.73506 0.93013 0.0
C276 C 0.33539 0.75352 0.95324 0.0
C277 C 0.34114 0.75281 0.0065 0.0
C278 C 0.38815 0.76751 0.02901 0.0
C279 C 0.39412 0.76138 0.08195 0.0
C280 C 0.35368 0.74571 0.11208 0.0
C281 C 0.307 0.73422 0.09031 0.0
C282 C 0.30078 0.73681 0.03812 0.0
H283 H 0.44641 0.85588 0.07205 0.0
C284 C 0.48084 0.83882 0.05714 0.0
H285 H 0.51219 0.78556 0.00708 0.0
H286 H 0.33602 0.76025 0.85033 0.0
H287 H 0.40495 0.79203 0.79821 0.0
H288 H 0.48464 0.82277 0.837 0.0
H289 H 0.4962 0.82161 0.92788 0.0
C290 C 0.4776 0.80321 0.02099 0.0
C291 C 0.42815 0.78666 0.99827 0.0
C292 C 0.42177 0.78829 0.94491 0.0
C293 C 0.37555 0.77122 0.92243 0.0
C294 C 0.37038 0.7728 0.86919 0.0
C295 C 0.40956 0.79103 0.83888 0.0
C296 C 0.45445 0.80831 0.86072 0.0
C297 C 0.46065 0.8072 0.91304 0.0
H298 H 0.45024 0.20584 0.33563 0.0
C299 C 0.44289 0.23808 0.31118 0.0
H300 H 0.44989 0.26815 0.23768 0.0
H301 H 0.63705 0.13697 0.17118 0.0
H302 H 0.67026 0.22225 0.1664 0.0
H303 H 0.61979 0.29446 0.19702 0.0
H304 H 0.53569 0.282 0.23193 0.0
C305 C 0.45567 0.23558 0.26203 0.0
C306 C 0.48497 0.1918 0.24177 0.0
C307 C 0.53455 0.19978 0.222 0.0
C308 C 0.56425 0.15802 0.20547 0.0
C309 C 0.61318 0.1672 0.18502 0.0
C310 C 0.63272 0.21599 0.18198 0.0
C311 C 0.60428 0.25663 0.19915 0.0
C312 C 0.55585 0.24889 0.219 0.0
H313 H 0.52367 0.03864 0.13938 0.0
C314 C 0.56066 0.03272 0.15696 0.0
H315 H 0.61292 0.0583 0.21198 0.0
H316 H 0.38839 0.16361 0.26885 0.0
H317 H 0.35767 0.078 0.28015 0.0
H318 H 0.41357 0.00515 0.26328 0.0
H319 H 0.4996 0.01746 0.2333 0.0
C320 C 0.57671 0.06471 0.193 0.0
C321 C 0.54492 0.10824 0.20972 0.0
C322 C 0.49582 0.10016 0.2308 0.0
C323 C 0.465 0.14209 0.24453 0.0
C324 C 0.41449 0.1331 0.26089 0.0
C325 C 0.39621 0.08414 0.26712 0.0
C326 C 0.42756 0.04315 0.25734 0.0
C327 C 0.4768 0.05081 0.23951 0.0
H328 H 0.70295 0.15001 0.58647 0.0
C329 C 0.73448 0.1766 0.58616 0.0
H330 H 0.75775 0.25156 0.57096 0.0
H331 H 0.54998 0.2384 0.4297 0.0
H332 H 0.59439 0.17406 0.38213 0.0
H333 H 0.67783 0.142 0.41077 0.0
H334 H 0.71667 0.17331 0.48763 0.0
C335 C 0.72665 0.22447 0.57068 0.0
C336 C 0.67618 0.24314 0.55298 0.0
C337 C 0.65504 0.22574 0.50669 0.0
C338 C 0.60824 0.24619 0.48872 0.0
C339 C 0.58652 0.22602 0.44396 0.0
C340 C 0.61144 0.18873 0.41642 0.0
C341 C 0.6583 0.17055 0.43264 0.0
C342 C 0.68004 0.1887 0.47714 0.0
H343 H 0.57049 0.34117 0.43165 0.0
C344 C 0.53535 0.33569 0.45257 0.0
H345 H 0.50152 0.30289 0.51724 0.0
H346 H 0.70546 0.28376 0.64358 0.0
H347 H 0.66234 0.35023 0.68972 0.0
H348 H 0.58315 0.38813 0.6567 0.0
H349 H 0.54648 0.35969 0.5774 0.0
C350 C 0.53628 0.30906 0.49593 0.0
C351 C 0.58409 0.28589 0.51562 0.0
C352 C 0.60504 0.30293 0.56198 0.0
C353 C 0.65104 0.28149 0.58071 0.0
C354 C 0.67097 0.29915 0.62727 0.0
C355 C 0.64653 0.33719 0.65423 0.0
C356 C 0.60191 0.35848 0.63567 0.0
C357 C 0.58124 0.34174 0.59012 0.0
H358 H 0.02187 0.46585 0.86076 0.0
C359 C 0.06056 0.47145 0.84733 0.0
H360 H 0.11595 0.44787 0.79451 0.0
H361 H 1.00831 0.23314 0.76514 0.0
H362 H 0.08352 0.20805 0.81192 0.0
H363 H 0.14161 0.27185 0.84798 0.0
H364 H 0.12496 0.36134 0.8369 0.0
C365 C 0.0783 0.44172 0.8103 0.0
C366 C 0.04463 0.40332 0.78636 0.0
C367 C 0.05452 0.35134 0.79356 0.0
C368 C 0.02037 0.31469 0.77362 0.0
C369 C 0.03205 0.26284 0.78044 0.0
C370 C 0.07533 0.24782 0.80703 0.0
C371 C 0.10807 0.28373 0.82727 0.0
C372 C 0.09803 0.33494 0.82069 0.0
H373 H 0.94658 0.3089 0.65141 0.0
C374 C 0.93193 0.28238 0.67918 0.0
H375 H 0.92599 0.26373 0.75638 0.0
H376 H 0.02016 0.49955 0.75663 0.0
H377 H 0.94428 0.52536 0.71106 0.0
H378 H 0.88049 0.4625 0.68387 0.0
H379 H 0.89292 0.37339 0.70094 0.0
C380 C 0.93954 0.29101 0.72878 0.0
C381 C 0.97583 0.33021 0.74716 0.0
C382 C 0.96653 0.38233 0.73901 0.0
C383 C 1.00184 0.41881 0.75726 0.0
C384 C 0.99341 0.47041 0.74577 0.0
C385 C 0.95018 0.48573 0.7193 0.0
C386 C 0.91439 0.45033 0.70381 0.0
C387 C 0.92219 0.3992 0.71355 0.0
H388 H 0.94442 0.65166 0.92987 0.0
C389 C 0.9789 0.66726 0.94644 0.0
H390 H 0.0104 0.71722 0.99997 0.0
H391 H 0.76764 0.79195 0.98482 0.0
H392 H 0.78074 0.80227 0.89475 0.0
H393 H 0.86148 0.77643 0.8552 0.0
H394 H 0.92958 0.74084 0.90528 0.0
C395 C 0.97573 0.70119 0.98416 0.0
C396 C 0.92643 0.71745 0.00692 0.0
C397 C 0.8879 0.74078 0.97703 0.0
C398 C 0.84187 0.75719 1.00004 0.0
C399 C 0.80347 0.77915 0.96935 0.0
C400 C 0.81046 0.78535 0.91759 0.0
C401 C 0.85582 0.77061 0.8953 0.0
C402 C 0.89449 0.74941 0.92456 0.0
H403 H 0.81587 0.84231 0.09419 0.0
C404 C 0.78272 0.81772 0.09399 0.0
H405 H 0.75408 0.74579 0.0737 0.0
H406 H 0.99147 0.67352 0.0754 0.0
H407 H 0.97843 0.66559 0.16568 0.0
H408 H 0.8999 0.69728 0.20548 0.0
H409 H 0.83372 0.73702 0.15499 0.0
C410 C 0.7872 0.77023 0.07654 0.0
C411 C 0.83522 0.75235 0.05298 0.0
C412 C 0.87373 0.72982 0.08289 0.0
C413 C 0.91924 0.71209 0.05989 0.0
C414 C 0.95654 0.68861 0.09078 0.0
C415 C 0.94945 0.68356 0.14271 0.0
C416 C 0.90522 0.70136 0.16512 0.0
C417 C 0.8676 0.72413 0.13574 0.0
H418 H 0.58913 0.70052 0.17521 0.0
C419 C 0.58446 0.73487 0.19717 0.0
H420 H 0.55835 0.76626 0.26582 0.0
H421 H 0.43567 0.54633 0.25353 0.0
H422 H 0.39334 0.5811 0.18008 0.0
H423 H 0.41874 0.66372 0.1455 0.0
H424 H 0.48637 0.71237 0.18442 0.0
C425 C 0.56303 0.73232 0.24326 0.0
C426 C 0.54538 0.68361 0.26546 0.0
C427 C 0.50378 0.65698 0.24368 0.0
C428 C 0.48766 0.61025 0.26496 0.0
C429 C 0.44813 0.58301 0.24055 0.0
C430 C 0.42366 0.60234 0.19799 0.0
C431 C 0.43798 0.64888 0.17851 0.0
C432 C 0.47733 0.67615 0.201 0.0
H433 H 0.42308 0.56822 0.35438 0.0
C434 C 0.44874 0.5361 0.35211 0.0
H435 H 0.52123 0.51068 0.32854 0.0
H436 H 0.62563 0.72526 0.31689 0.0
H437 H 0.66585 0.69193 0.39254 0.0
H438 H 0.63577 0.61255 0.43118 0.0
H439 H 0.56531 0.56591 0.39432 0.0
C440 C 0.49516 0.54236 0.33166 0.0
C441 C 0.51148 0.59148 0.30948 0.0
C442 C 0.55244 0.61847 0.33159 0.0
C443 C 0.56941 0.66453 0.30959 0.0
C444 C 0.61079 0.69038 0.33229 0.0
C445 C 0.63432 0.67162 0.37568 0.0
C446 C 0.61741 0.6269 0.39741 0.0
C447 C 0.57699 0.60047 0.37581 0.0
loop_
_geom_bond_atom_site_label_1
_geom_bond_atom_site_label_2
_geom_bond_distance
_geom_bond_site_symmetry_2
_ccdc_geom_bond_type
Fe0 O2 1.918 . S
Fe0 O5 1.997 . S
Fe0 O6 2.002 . S
Fe0 O11 1.976 . S
Fe0 O14 1.996 . S
Fe1 O2 1.918 . S
Fe1 O9 1.997 . S
Fe1 O12 1.996 . S
Fe1 O16 1.976 . S
Fe1 O19 2.002 . S
O2 Fe0 1.918 . S
O2 Fe1 1.918 . S
O2 Fe3 1.918 . S
Fe3 O2 1.918 . S
Fe3 O4 2.002 . S
Fe3 O13 1.976 . S
Fe3 O17 1.996 . S
Fe3 O20 1.997 . S
O4 Fe3 2.002 . S
O4 C21 1.295 . S
O5 Fe0 1.997 . S
O5 C21 1.235 . S
O6 Fe0 2.002 . S
O6 C7 1.295 . S
C7 O6 1.295 . S
C7 O9 1.235 . S
C8 O13 1.287 . S
C8 O14 1.255 . S
O9 Fe1 1.997 . S
O9 C7 1.235 . S
C10 O16 1.287 . S
C10 O17 1.255 . S
O11 Fe0 1.976 . S
O11 C18 1.287 . S
O12 Fe1 1.996 . S
O12 C18 1.255 . S
O13 Fe3 1.976 . S
O13 C8 1.287 . S
O14 Fe0 1.996 . S
O14 C8 1.255 . S
C15 O19 1.295 . S
C15 O20 1.235 . S
O16 Fe1 1.976 . S
O16 C10 1.287 . S
O17 Fe3 1.996 . S
O17 C10 1.255 . S
C18 O11 1.287 . S
C18 O12 1.255 . S
O19 Fe1 2.002 . S
O19 C15 1.295 . S
O20 Fe3 1.997 . S
O20 C15 1.235 . S
C21 O4 1.295 . S
C21 O5 1.235 . S
Fe22 O24 1.918 . S
Fe22 O27 1.997 . S
Fe22 O28 2.002 . S
Fe22 O33 1.976 . S
Fe22 O36 1.996 . S
Fe23 O24 1.918 . S
Fe23 O31 1.997 . S
Fe23 O34 1.996 . S
Fe23 O38 1.976 . S
Fe23 O41 2.002 . S
O24 Fe22 1.918 . S
O24 Fe23 1.918 . S
O24 Fe25 1.918 . S
Fe25 O24 1.918 . S
Fe25 O26 2.002 . S
Fe25 O35 1.976 . S
Fe25 O39 1.996 . S
Fe25 O42 1.997 . S
O26 Fe25 2.002 . S
O26 C43 1.295 . S
O27 Fe22 1.997 . S
O27 C43 1.235 . S
O28 Fe22 2.002 . S
O28 C29 1.295 . S
C29 O28 1.295 . S
C29 O31 1.235 . S
C30 O35 1.287 . S
C30 O36 1.255 . S
O31 Fe23 1.997 . S
O31 C29 1.235 . S
C32 O38 1.287 . S
C32 O39 1.255 . S
O33 Fe22 1.976 . S
O33 C40 1.287 . S
O34 Fe23 1.996 . S
O34 C40 1.255 . S
O35 Fe25 1.976 . S
O35 C30 1.287 . S
O36 Fe22 1.996 . S
O36 C30 1.255 . S
C37 O41 1.295 . S
C37 O42 1.235 . S
O38 Fe23 1.976 . S
O38 C32 1.287 . S
O39 Fe25 1.996 . S
O39 C32 1.255 . S
C40 O33 1.287 . S
C40 O34 1.255 . S
O41 Fe23 2.002 . S
O41 C37 1.295 . S
O42 Fe25 1.997 . S
O42 C37 1.235 . S
C43 O26 1.295 . S
C43 O27 1.235 . S
Fe44 O46 1.918 . S
Fe44 O49 1.997 . S
Fe44 O50 2.002 . S
Fe44 O55 1.976 . S
Fe44 O58 1.996 . S
Fe45 O46 1.918 . S
Fe45 O53 1.997 . S
Fe45 O56 1.996 . S
Fe45 O60 1.976 . S
Fe45 O63 2.002 . S
O46 Fe44 1.918 . S
O46 Fe45 1.918 . S
O46 Fe47 1.918 . S
Fe47 O46 1.918 . S
Fe47 O48 2.002 . S
Fe47 O57 1.976 . S
Fe47 O61 1.996 . S
Fe47 O64 1.997 . S
O48 Fe47 2.002 . S
O48 C65 1.295 . S
O49 Fe44 1.997 . S
O49 C65 1.235 . S
O50 Fe44 2.002 . S
O50 C51 1.295 . S
C51 O50 1.295 . S
C51 O53 1.235 . S
C52 O57 1.287 . S
C52 O58 1.255 . S
O53 Fe45 1.997 . S
O53 C51 1.235 . S
C54 O60 1.287 . S
C54 O61 1.255 . S
O55 Fe44 1.976 . S
O55 C62 1.287 . S
O56 Fe45 1.996 . S
O56 C62 1.255 . S
O57 Fe47 1.976 . S
O57 C52 1.287 . S
O58 Fe44 1.996 . S
O58 C52 1.255 . S
C59 O63 1.295 . S
C59 O64 1.235 . S
O60 Fe45 1.976 . S
O60 C54 1.287 . S
O61 Fe47 1.996 . S
O61 C54 1.255 . S
C62 O55 1.287 . S
C62 O56 1.255 . S
O63 Fe45 2.002 . S
O63 C59 1.295 . S
O64 Fe47 1.997 . S
O64 C59 1.235 . S
C65 O48 1.295 . S
C65 O49 1.235 . S
Fe66 O68 1.918 . S
Fe66 O71 1.997 . S
Fe66 O72 2.002 . S
Fe66 O77 1.976 . S
Fe66 O80 1.996 . S
Fe67 O68 1.918 . S
Fe67 O75 1.997 . S
Fe67 O78 1.996 . S
Fe67 O82 1.976 . S
Fe67 O85 2.002 . S
O68 Fe66 1.918 . S
O68 Fe67 1.918 . S
O68 Fe69 1.918 . S
Fe69 O68 1.918 . S
Fe69 O70 2.002 . S
Fe69 O79 1.976 . S
Fe69 O83 1.996 . S
Fe69 O86 1.997 . S
O70 Fe69 2.002 . S
O70 C87 1.295 . S
O71 Fe66 1.997 . S
O71 C87 1.235 . S
O72 Fe66 2.002 . S
O72 C73 1.295 . S
C73 O72 1.295 . S
C73 O75 1.235 . S
C74 O79 1.287 . S
C74 O80 1.255 . S
O75 Fe67 1.997 . S
O75 C73 1.235 . S
C76 O82 1.287 . S
C76 O83 1.255 . S
O77 Fe66 1.976 . S
O77 C84 1.287 . S
O78 Fe67 1.996 . S
O78 C84 1.255 . S
O79 Fe69 1.976 . S
O79 C74 1.287 . S
O80 Fe66 1.996 . S
O80 C74 1.255 . S
C81 O85 1.295 . S
C81 O86 1.235 . S
O82 Fe67 1.976 . S
O82 C76 1.287 . S
O83 Fe69 1.996 . S
O83 C76 1.255 . S
C84 O77 1.287 . S
C84 O78 1.255 . S
O85 Fe67 2.002 . S
O85 C81 1.295 . S
O86 Fe69 1.997 . S
O86 C81 1.235 . S
C87 O70 1.295 . S
C87 O71 1.235 . S
H88 C89 0.951 . S
C89 H88 0.951 . S
C89 C95 1.265 . S
H90 C95 0.950 . S
H91 C99 0.949 . S
H92 C100 0.950 . S
H93 C101 0.951 . S
H94 C102 0.951 . S
C95 C89 1.265 . S
C95 H90 0.950 . S
C95 C96 1.478 . S
C96 C95 1.478 . S
C96 C97 1.397 . S
C96 C113 1.394 . S
C97 C96 1.397 . S
C97 C98 1.438 . S
C97 C102 1.429 . S
C98 C97 1.438 . S
C98 C99 1.428 . S
C98 C111 1.394 . S
C99 H91 0.949 . S
C99 C98 1.428 . S
C99 C100 1.345 . S
C100 H92 0.950 . S
C100 C99 1.345 . S
C100 C101 1.424 . S
C101 H93 0.951 . S
C101 C100 1.424 . S
C101 C102 1.347 . S
C102 H94 0.951 . S
C102 C97 1.429 . S
C102 C101 1.347 . S
H103 C104 0.951 . S
C104 H103 0.951 . S
C104 C110 1.265 . S
H105 C110 0.950 . S
H106 C114 0.949 . S
H107 C115 0.950 1_556 S
H108 C116 0.951 . S
H109 C117 0.951 . S
C110 C104 1.265 . S
C110 H105 0.950 . S
C110 C111 1.478 . S
C111 C98 1.394 . S
C111 C110 1.478 . S
C111 C112 1.397 . S
C112 C111 1.397 . S
C112 C113 1.438 . S
C112 C117 1.429 . S
C113 C96 1.394 . S
C113 C112 1.438 . S
C113 C114 1.428 . S
C114 H106 0.949 . S
C114 C113 1.428 . S
C114 C115 1.345 . S
C115 H107 0.950 1_554 S
C115 C114 1.345 . S
C115 C116 1.424 . S
C116 H108 0.951 . S
C116 C115 1.424 . S
C116 C117 1.347 . S
C117 H109 0.951 . S
C117 C112 1.429 . S
C117 C116 1.347 . S
H118 C119 0.951 . S
C119 H118 0.951 . S
C119 C125 1.265 . S
H120 C125 0.950 . S
H121 C129 0.949 . S
H122 C130 0.950 . S
H123 C131 0.951 . S
H124 C132 0.951 . S
C125 C119 1.265 . S
C125 H120 0.950 . S
C125 C126 1.478 . S
C126 C125 1.478 . S
C126 C127 1.397 . S
C126 C143 1.394 . S
C127 C126 1.397 . S
C127 C128 1.438 1_565 S
C127 C132 1.429 . S
C128 C127 1.438 1_545 S
C128 C129 1.428 . S
C128 C141 1.394 . S
C129 H121 0.949 . S
C129 C128 1.428 . S
C129 C130 1.345 . S
C130 H122 0.950 . S
C130 C129 1.345 . S
C130 C131 1.424 1_545 S
C131 H123 0.951 . S
C131 C130 1.424 1_565 S
C131 C132 1.347 . S
C132 H124 0.951 . S
C132 C127 1.429 . S
C132 C131 1.347 . S
H133 C134 0.951 . S
C134 H133 0.951 . S
C134 C140 1.265 . S
H135 C140 0.950 . S
H136 C144 0.949 . S
H137 C145 0.950 . S
H138 C146 0.951 . S
H139 C147 0.951 . S
C140 C134 1.265 . S
C140 H135 0.950 . S
C140 C141 1.478 . S
C141 C128 1.394 . S
C141 C140 1.478 . S
C141 C142 1.397 . S
C142 C141 1.397 . S
C142 C143 1.438 1_545 S
C142 C147 1.429 . S
C143 C126 1.394 . S
C143 C142 1.438 1_565 S
C143 C144 1.428 . S
C144 H136 0.949 . S
C144 C143 1.428 . S
C144 C145 1.345 . S
C145 H137 0.950 . S
C145 C144 1.345 . S
C145 C146 1.424 . S
C146 H138 0.951 . S
C146 C145 1.424 . S
C146 C147 1.347 1_565 S
C147 H139 0.951 . S
C147 C142 1.429 . S
C147 C146 1.347 1_545 S
H148 C149 0.951 . S
C149 H148 0.951 . S
C149 C155 1.265 . S
H150 C155 0.950 . S
H151 C159 0.949 . S
H152 C160 0.950 . S
H153 C161 0.951 . S
H154 C162 0.951 . S
C155 C149 1.265 . S
C155 H150 0.950 . S
C155 C156 1.478 . S
C156 C155 1.478 . S
C156 C157 1.397 . S
C156 C173 1.394 . S
C157 C156 1.397 . S
C157 C158 1.438 . S
C157 C162 1.429 . S
C158 C157 1.438 . S
C158 C159 1.428 . S
C158 C171 1.394 . S
C159 H151 0.949 . S
C159 C158 1.428 . S
C159 C160 1.345 . S
C160 H152 0.950 . S
C160 C159 1.345 . S
C160 C161 1.424 . S
C161 H153 0.951 . S
C161 C160 1.424 . S
C161 C162 1.347 . S
C162 H154 0.951 . S
C162 C157 1.429 . S
C162 C161 1.347 . S
H163 C164 0.951 . S
C164 H163 0.951 . S
C164 C170 1.265 . S
H165 C170 0.950 . S
H166 C174 0.949 . S
H167 C175 0.950 . S
H168 C176 0.951 . S
H169 C177 0.951 . S
C170 C164 1.265 . S
C170 H165 0.950 . S
C170 C171 1.478 . S
C171 C158 1.394 . S
C171 C170 1.478 . S
C171 C172 1.397 . S
C172 C171 1.397 . S
C172 C173 1.438 . S
C172 C177 1.429 . S
C173 C156 1.394 . S
C173 C172 1.438 . S
C173 C174 1.428 . S
C174 H166 0.949 . S
C174 C173 1.428 . S
C174 C175 1.345 . S
C175 H167 0.950 . S
C175 C174 1.345 . S
C175 C176 1.424 . S
C176 H168 0.951 . S
C176 C175 1.424 . S
C176 C177 1.347 . S
C177 H169 0.951 . S
C177 C172 1.429 . S
C177 C176 1.347 . S
H178 C179 0.951 . S
C179 H178 0.951 . S
C179 C185 1.265 . S
H180 C185 0.950 1_545 S
H181 C189 0.949 . S
H182 C190 0.950 . S
H183 C191 0.951 1_554 S
H184 C192 0.951 1_554 S
C185 C179 1.265 . S
C185 H180 0.950 1_565 S
C185 C186 1.478 . S
C186 C185 1.478 . S
C186 C187 1.397 1_565 S
C186 C203 1.394 . S
C187 C186 1.397 1_545 S
C187 C188 1.438 . S
C187 C192 1.429 . S
C188 C187 1.438 . S
C188 C189 1.428 . S
C188 C201 1.394 . S
C189 H181 0.949 . S
C189 C188 1.428 . S
C189 C190 1.345 . S
C190 H182 0.950 . S
C190 C189 1.345 . S
C190 C191 1.424 . S
C191 H183 0.951 1_556 S
C191 C190 1.424 . S
C191 C192 1.347 . S
C192 H184 0.951 1_556 S
C192 C187 1.429 . S
C192 C191 1.347 . S
H193 C194 0.951 . S
C194 H193 0.951 . S
C194 C200 1.265 . S
H195 C200 0.950 . S
H196 C204 0.949 . S
H197 C205 0.950 . S
H198 C206 0.951 . S
H199 C207 0.951 . S
C200 C194 1.265 . S
C200 H195 0.950 . S
C200 C201 1.478 . S
C201 C188 1.394 . S
C201 C200 1.478 . S
C201 C202 1.397 1_545 S
C202 C201 1.397 1_565 S
C202 C203 1.438 . S
C202 C207 1.429 . S
C203 C186 1.394 . S
C203 C202 1.438 . S
C203 C204 1.428 . S
C204 H196 0.949 . S
C204 C203 1.428 . S
C204 C205 1.345 . S
C205 H197 0.950 . S
C205 C204 1.345 . S
C205 C206 1.424 . S
C206 H198 0.951 . S
C206 C205 1.424 . S
C206 C207 1.347 . S
C207 H199 0.951 . S
C207 C202 1.429 . S
C207 C206 1.347 . S
H208 C209 0.951 . S
C209 H208 0.951 . S
C209 C215 1.265 . S
H210 C215 0.950 . S
H211 C219 0.949 . S
H212 C220 0.950 . S
H213 C221 0.951 1_655 S
H214 C222 0.951 1_655 S
C215 C209 1.265 . S
C215 H210 0.950 . S
C215 C216 1.478 . S
C216 C215 1.478 . S
C216 C217 1.397 . S
C216 C233 1.394 . S
C217 C216 1.397 . S
C217 C218 1.438 . S
C217 C222 1.429 . S
C218 C217 1.438 . S
C218 C219 1.428 . S
C218 C231 1.394 . S
C219 H211 0.949 . S
C219 C218 1.428 . S
C219 C220 1.345 . S
C220 H212 0.950 . S
C220 C219 1.345 . S
C220 C221 1.424 . S
C221 H213 0.951 1_455 S
C221 C220 1.424 . S
C221 C222 1.347 . S
C222 H214 0.951 1_455 S
C222 C217 1.429 . S
C222 C221 1.347 . S
H223 C224 0.951 . S
C224 H223 0.951 . S
C224 C230 1.265 . S
H225 C230 0.950 . S
H226 C234 0.949 . S
H227 C235 0.950 . S
H228 C236 0.951 . S
H229 C237 0.951 . S
C230 C224 1.265 . S
C230 H225 0.950 . S
C230 C231 1.478 . S
C231 C218 1.394 . S
C231 C230 1.478 . S
C231 C232 1.397 . S
C232 C231 1.397 . S
C232 C233 1.438 . S
C232 C237 1.429 . S
C233 C216 1.394 . S
C233 C232 1.438 . S
C233 C234 1.428 . S
C234 H226 0.949 . S
C234 C233 1.428 . S
C234 C235 1.345 . S
C235 H227 0.950 . S
C235 C234 1.345 . S
C235 C236 1.424 . S
C236 H228 0.951 . S
C236 C235 1.424 . S
C236 C237 1.347 . S
C237 H229 0.951 . S
C237 C232 1.429 . S
C237 C236 1.347 . S
H238 C239 0.951 . S
C239 H238 0.951 . S
C239 C245 1.265 . S
H240 C245 0.950 . S
H241 C249 0.949 . S
H242 C250 0.950 . S
H243 C251 0.951 . S
H244 C252 0.951 . S
C245 C239 1.265 . S
C245 H240 0.950 . S
C245 C246 1.478 . S
C246 C245 1.478 . S
C246 C247 1.397 . S
C246 C263 1.394 1_455 S
C247 C246 1.397 . S
C247 C248 1.438 . S
C247 C252 1.429 . S
C248 C247 1.438 . S
C248 C249 1.428 . S
C248 C261 1.394 1_455 S
C249 H241 0.949 . S
C249 C248 1.428 . S
C249 C250 1.345 . S
C250 H242 0.950 . S
C250 C249 1.345 . S
C250 C251 1.424 . S
C251 H243 0.951 . S
C251 C250 1.424 . S
C251 C252 1.347 . S
C252 H244 0.951 . S
C252 C247 1.429 . S
C252 C251 1.347 . S
H253 C254 0.948 1_545 S
C254 H253 0.948 1_565 S
C254 C260 1.265 . S
H255 C260 0.950 . S
H256 C264 0.949 . S
H257 C265 0.950 . S
H258 C266 0.951 . S
H259 C267 0.951 . S
C260 C254 1.265 . S
C260 H255 0.950 . S
C260 C261 1.478 . S
C261 C248 1.394 1_655 S
C261 C260 1.478 . S
C261 C262 1.397 . S
C262 C261 1.397 . S
C262 C263 1.438 . S
C262 C267 1.429 . S
C263 C246 1.394 1_655 S
C263 C262 1.438 . S
C263 C264 1.428 . S
C264 H256 0.949 . S
C264 C263 1.428 . S
C264 C265 1.345 . S
C265 H257 0.950 . S
C265 C264 1.345 . S
C265 C266 1.424 . S
C266 H258 0.951 . S
C266 C265 1.424 . S
C266 C267 1.347 . S
C267 H259 0.951 . S
C267 C262 1.429 . S
C267 C266 1.347 . S
H268 C269 0.951 . S
C269 H268 0.951 . S
C269 C275 1.265 . S
H270 C275 0.950 . S
H271 C279 0.949 . S
H272 C280 0.950 . S
H273 C281 0.951 . S
H274 C282 0.951 . S
C275 C269 1.265 . S
C275 H270 0.950 . S
C275 C276 1.478 . S
C276 C275 1.478 . S
C276 C277 1.397 1_556 S
C276 C293 1.394 . S
C277 C276 1.397 1_554 S
C277 C278 1.438 . S
C277 C282 1.429 . S
C278 C277 1.438 . S
C278 C279 1.428 . S
C278 C291 1.394 . S
C279 H271 0.949 . S
C279 C278 1.428 . S
C279 C280 1.345 . S
C280 H272 0.950 . S
C280 C279 1.345 . S
C280 C281 1.424 . S
C281 H273 0.951 . S
C281 C280 1.424 . S
C281 C282 1.347 . S
C282 H274 0.951 . S
C282 C277 1.429 . S
C282 C281 1.347 . S
H283 C284 0.951 . S
C284 H283 0.951 . S
C284 C290 1.265 . S
H285 C290 0.950 . S
H286 C294 0.949 . S
H287 C295 0.950 . S
H288 C296 0.951 . S
H289 C297 0.951 . S
C290 C284 1.265 . S
C290 H285 0.950 . S
C290 C291 1.478 . S
C291 C278 1.394 . S
C291 C290 1.478 . S
C291 C292 1.397 1_554 S
C292 C291 1.397 1_556 S
C292 C293 1.438 . S
C292 C297 1.429 . S
C293 C276 1.394 . S
C293 C292 1.438 . S
C293 C294 1.428 . S
C294 H286 0.949 . S
C294 C293 1.428 . S
C294 C295 1.345 . S
C295 H287 0.950 . S
C295 C294 1.345 . S
C295 C296 1.424 . S
C296 H288 0.951 . S
C296 C295 1.424 . S
C296 C297 1.347 . S
C297 H289 0.951 . S
C297 C292 1.429 . S
C297 C296 1.347 . S
H298 C299 0.951 . S
C299 H298 0.951 . S
C299 C305 1.265 . S
H300 C305 0.950 . S
H301 C309 0.949 . S
H302 C310 0.950 . S
H303 C311 0.951 . S
H304 C312 0.951 . S
C305 C299 1.265 . S
C305 H300 0.950 . S
C305 C306 1.478 . S
C306 C305 1.478 . S
C306 C307 1.397 . S
C306 C323 1.394 . S
C307 C306 1.397 . S
C307 C308 1.438 . S
C307 C312 1.429 . S
C308 C307 1.438 . S
C308 C309 1.428 . S
C308 C321 1.394 . S
C309 H301 0.949 . S
C309 C308 1.428 . S
C309 C310 1.345 . S
C310 H302 0.950 . S
C310 C309 1.345 . S
C310 C311 1.424 . S
C311 H303 0.951 . S
C311 C310 1.424 . S
C311 C312 1.347 . S
C312 H304 0.951 . S
C312 C307 1.429 . S
C312 C311 1.347 . S
H313 C314 0.951 . S
C314 H313 0.951 . S
C314 C320 1.265 . S
H315 C320 0.950 . S
H316 C324 0.949 . S
H317 C325 0.950 . S
H318 C326 0.951 1_565 S
H319 C327 0.951 . S
C320 C314 1.265 . S
C320 H315 0.950 . S
C320 C321 1.478 . S
C321 C308 1.394 . S
C321 C320 1.478 . S
C321 C322 1.397 . S
C322 C321 1.397 . S
C322 C323 1.438 . S
C322 C327 1.429 . S
C323 C306 1.394 . S
C323 C322 1.438 . S
C323 C324 1.428 . S
C324 H316 0.949 . S
C324 C323 1.428 . S
C324 C325 1.345 . S
C325 H317 0.950 . S
C325 C324 1.345 . S
C325 C326 1.424 . S
C326 H318 0.951 1_545 S
C326 C325 1.424 . S
C326 C327 1.347 . S
C327 H319 0.951 . S
C327 C322 1.429 . S
C327 C326 1.347 . S
H328 C329 0.951 . S
C329 H328 0.951 . S
C329 C335 1.265 . S
H330 C335 0.950 . S
H331 C339 0.949 . S
H332 C340 0.950 . S
H333 C341 0.951 . S
H334 C342 0.951 . S
C335 C329 1.265 . S
C335 H330 0.950 . S
C335 C336 1.478 . S
C336 C335 1.478 . S
C336 C337 1.397 . S
C336 C353 1.394 . S
C337 C336 1.397 . S
C337 C338 1.438 . S
C337 C342 1.429 . S
C338 C337 1.438 . S
C338 C339 1.428 . S
C338 C351 1.394 . S
C339 H331 0.949 . S
C339 C338 1.428 . S
C339 C340 1.345 . S
C340 H332 0.950 . S
C340 C339 1.345 . S
C340 C341 1.424 . S
C341 H333 0.951 . S
C341 C340 1.424 . S
C341 C342 1.347 . S
C342 H334 0.951 . S
C342 C337 1.429 . S
C342 C341 1.347 . S
H343 C344 0.951 . S
C344 H343 0.951 . S
C344 C350 1.265 . S
H345 C350 0.950 . S
H346 C354 0.949 . S
H347 C355 0.950 . S
H348 C356 0.951 . S
H349 C357 0.951 . S
C350 C344 1.265 . S
C350 H345 0.950 . S
C350 C351 1.478 . S
C351 C338 1.394 . S
C351 C350 1.478 . S
C351 C352 1.397 . S
C352 C351 1.397 . S
C352 C353 1.438 . S
C352 C357 1.429 . S
C353 C336 1.394 . S
C353 C352 1.438 . S
C353 C354 1.428 . S
C354 H346 0.949 . S
C354 C353 1.428 . S
C354 C355 1.345 . S
C355 H347 0.950 . S
C355 C354 1.345 . S
C355 C356 1.424 . S
C356 H348 0.951 . S
C356 C355 1.424 . S
C356 C357 1.347 . S
C357 H349 0.951 . S
C357 C352 1.429 . S
C357 C356 1.347 . S
H358 C359 0.951 . S
C359 H358 0.951 . S
C359 C365 1.265 . S
H360 C365 0.950 . S
H361 C369 0.949 . S
H362 C370 0.950 . S
H363 C371 0.951 . S
H364 C372 0.951 . S
C365 C359 1.265 . S
C365 H360 0.950 . S
C365 C366 1.478 . S
C366 C365 1.478 . S
C366 C367 1.397 . S
C366 C383 1.394 . S
C367 C366 1.397 . S
C367 C368 1.438 1_455 S
C367 C372 1.429 . S
C368 C367 1.438 1_655 S
C368 C369 1.428 . S
C368 C381 1.394 . S
C369 H361 0.949 . S
C369 C368 1.428 . S
C369 C370 1.345 . S
C370 H362 0.950 . S
C370 C369 1.345 . S
C370 C371 1.424 1_655 S
C371 H363 0.951 . S
C371 C370 1.424 1_455 S
C371 C372 1.347 . S
C372 H364 0.951 . S
C372 C367 1.429 . S
C372 C371 1.347 . S
H373 C374 0.951 . S
C374 H373 0.951 . S
C374 C380 1.265 . S
H375 C380 0.950 . S
H376 C384 0.949 . S
H377 C385 0.950 1_455 S
H378 C386 0.951 . S
H379 C387 0.951 . S
C380 C374 1.265 . S
C380 H375 0.950 . S
C380 C381 1.478 . S
C381 C368 1.394 . S
C381 C380 1.478 . S
C381 C382 1.397 . S
C382 C381 1.397 . S
C382 C383 1.438 1_655 S
C382 C387 1.429 . S
C383 C366 1.394 . S
C383 C382 1.438 1_455 S
C383 C384 1.428 . S
C384 H376 0.949 . S
C384 C383 1.428 . S
C384 C385 1.345 1_455 S
C385 H377 0.950 1_655 S
C385 C384 1.345 1_655 S
C385 C386 1.424 . S
C386 H378 0.951 . S
C386 C385 1.424 . S
C386 C387 1.347 . S
C387 H379 0.951 . S
C387 C382 1.429 . S
C387 C386 1.347 . S
H388 C389 0.951 . S
C389 H388 0.951 . S
C389 C395 1.265 . S
H390 C395 0.950 . S
H391 C399 0.949 . S
H392 C400 0.950 . S
H393 C401 0.951 . S
H394 C402 0.951 . S
C395 C389 1.265 . S
C395 H390 0.950 . S
C395 C396 1.478 . S
C396 C395 1.478 . S
C396 C397 1.397 . S
C396 C413 1.394 1_556 S
C397 C396 1.397 . S
C397 C398 1.438 . S
C397 C402 1.429 . S
C398 C397 1.438 . S
C398 C399 1.428 . S
C398 C411 1.394 1_556 S
C399 H391 0.949 . S
C399 C398 1.428 . S
C399 C400 1.345 . S
C400 H392 0.950 . S
C400 C399 1.345 . S
C400 C401 1.424 . S
C401 H393 0.951 . S
C401 C400 1.424 . S
C401 C402 1.347 . S
C402 H394 0.951 . S
C402 C397 1.429 . S
C402 C401 1.347 . S
H403 C404 0.951 . S
C404 H403 0.951 . S
C404 C410 1.265 . S
H405 C410 0.950 . S
H406 C414 0.949 . S
H407 C415 0.950 . S
H408 C416 0.951 . S
H409 C417 0.951 . S
C410 C404 1.265 . S
C410 H405 0.950 . S
C410 C411 1.478 . S
C411 C398 1.394 1_554 S
C411 C410 1.478 . S
C411 C412 1.397 . S
C412 C411 1.397 . S
C412 C413 1.438 . S
C412 C417 1.429 . S
C413 C396 1.394 1_554 S
C413 C412 1.438 . S
C413 C414 1.428 . S
C414 H406 0.949 . S
C414 C413 1.428 . S
C414 C415 1.345 . S
C415 H407 0.950 . S
C415 C414 1.345 . S
C415 C416 1.424 . S
C416 H408 0.951 . S
C416 C415 1.424 . S
C416 C417 1.347 . S
C417 H409 0.951 . S
C417 C412 1.429 . S
C417 C416 1.347 . S
H418 C419 0.951 . S
C419 H418 0.951 . S
C419 C425 1.265 . S
H420 C425 0.950 . S
H421 C429 0.949 . S
H422 C430 0.950 . S
H423 C431 0.951 . S
H424 C432 0.951 . S
C425 C419 1.265 . S
C425 H420 0.950 . S
C425 C426 1.478 . S
C426 C425 1.478 . S
C426 C427 1.397 . S
C426 C443 1.394 . S
C427 C426 1.397 . S
C427 C428 1.438 . S
C427 C432 1.429 . S
C428 C427 1.438 . S
C428 C429 1.428 . S
C428 C441 1.394 . S
C429 H421 0.949 . S
C429 C428 1.428 . S
C429 C430 1.345 . S
C430 H422 0.950 . S
C430 C429 1.345 . S
C430 C431 1.424 . S
C431 H423 0.951 . S
C431 C430 1.424 . S
C431 C432 1.347 . S
C432 H424 0.951 . S
C432 C427 1.429 . S
C432 C431 1.347 . S
H433 C434 0.951 . S
C434 H433 0.951 . S
C434 C440 1.265 . S
H435 C440 0.950 . S
H436 C444 0.949 . S
H437 C445 0.950 . S
H438 C446 0.951 . S
H439 C447 0.951 . S
C440 C434 1.265 . S
C440 H435 0.950 . S
C440 C441 1.478 . S
C441 C428 1.394 . S
C441 C440 1.478 . S
C441 C442 1.397 . S
C442 C441 1.397 . S
C442 C443 1.438 . S
C442 C447 1.429 . S
C443 C426 1.394 . S
C443 C442 1.438 . S
C443 C444 1.428 . S
C444 H436 0.949 . S
C444 C443 1.428 . S
C444 C445 1.345 . S
C445 H437 0.950 . S
C445 C444 1.345 . S
C445 C446 1.424 . S
C446 H438 0.951 . S
C446 C445 1.424 . S
C446 C447 1.347 . S
C447 H439 0.951 . S
C447 C442 1.429 . S
C447 C446 1.347 . S
C89 C59 1.420 1_554 S
C104 C21 1.357 . S
C119 C84 1.325 . S
C134 C29 1.357 . S
C149 C62 1.312 . S
C164 C10 1.277 . S
C179 C81 1.321 1_556 S
C194 C30 1.382 . S
C209 C37 1.387 1_455 S
C224 C15 1.428 . S
C239 C52 1.302 . S
C254 C43 1.289 1_565 S
C269 C54 1.368 . S
C284 C87 1.383 . S
C299 C7 1.351 . S
C314 C73 1.416 1_545 S
C329 C40 1.344 . S
C344 C18 1.337 . S
C359 C51 1.315 . S
C374 C32 1.302 . S
C389 C65 1.381 1_655 S
C404 C76 1.358 . S
C419 C74 1.344 . S
C434 C8 1.327 . S
