# Generated by pormake.
# Topology crb, (4)-cn, num edge types: 1
# Building blocks:
#     Node 0, Type 0, BuildingBlock: NAHDIM_clean_sbu_0, # of connection points: 4
#     Node 1, Type 0, BuildingBlock: NAHDIM_clean_sbu_0, # of connection points: 4
#     Node 2, Type 0, BuildingBlock: NAHDIM_clean_sbu_0, # of connection points: 4
#     Node 3, Type 0, BuildingBlock: NAHDIM_clean_sbu_0, # of connection points: 4
#     Node 4, Type 0, BuildingBlock: NAHDIM_clean_sbu_0, # of connection points: 4
#     Node 5, Type 0, BuildingBlock: NAHDIM_clean_sbu_0, # of connection points: 4
#     Node 6, Type 0, BuildingBlock: NAHDIM_clean_sbu_0, # of connection points: 4
#     Node 7, Type 0, BuildingBlock: NAHDIM_clean_sbu_0, # of connection points: 4
#     Edge 8, Type (0, 0), BuildingBlock: FUNLAD_clean_linker_1, # of connection points: 2
#     Edge 9, Type (0, 0), BuildingBlock: FUNLAD_clean_linker_1, # of connection points: 2
#     Edge 10, Type (0, 0), BuildingBlock: FUNLAD_clean_linker_1, # of connection points: 2
#     Edge 11, Type (0, 0), BuildingBlock: FUNLAD_clean_linker_1, # of connection points: 2
#     Edge 12, Type (0, 0), BuildingBlock: FUNLAD_clean_linker_1, # of connection points: 2
#     Edge 13, Type (0, 0), BuildingBlock: FUNLAD_clean_linker_1, # of connection points: 2
#     Edge 14, Type (0, 0), BuildingBlock: FUNLAD_clean_linker_1, # of connection points: 2
#     Edge 15, Type (0, 0), BuildingBlock: FUNLAD_clean_linker_1, # of connection points: 2
#     Edge 16, Type (0, 0), BuildingBlock: FUNLAD_clean_linker_1, # of connection points: 2
#     Edge 17, Type (0, 0), BuildingBlock: FUNLAD_clean_linker_1, # of connection points: 2
#     Edge 18, Type (0, 0), BuildingBlock: FUNLAD_clean_linker_1, # of connection points: 2
#     Edge 19, Type (0, 0), BuildingBlock: FUNLAD_clean_linker_1, # of connection points: 2
#     Edge 20, Type (0, 0), BuildingBlock: FUNLAD_clean_linker_1, # of connection points: 2
#     Edge 21, Type (0, 0), BuildingBlock: FUNLAD_clean_linker_1, # of connection points: 2
#     Edge 22, Type (0, 0), BuildingBlock: FUNLAD_clean_linker_1, # of connection points: 2
#     Edge 23, Type (0, 0), BuildingBlock: FUNLAD_clean_linker_1, # of connection points: 2
# Relax obj value: 0.033
# Max RMSD: 0.066
# Mean RMSD: 0.066
data_MOF--net-crb--node1-NAHDIM_clean_sbu_0--edge1-FUNLAD_clean_linker_1
_symmetry_space_group_name_H-M    P1
_symmetry_Int_Tables_number       1
_symmetry_cell_setting            triclinic
loop_
_symmetry_equiv_pos_as_xyz
'x, y, z'
_cell_length_a     43.64211
_cell_length_b     45.641554
_cell_length_c     25.576097
_cell_angle_alpha  89.988375
_cell_angle_beta   90.003639
_cell_angle_gamma 90.00208
loop_
_atom_site_label
_atom_site_type_symbol
_atom_site_fract_x
_atom_site_fract_y
_atom_site_fract_z
_atom_type_partial_charge
C0 C 0.30917 0.32246 0.17737 0.0
O1 O 0.33298 0.33985 0.18177 0.0
O2 O 0.36616 0.32073 0.07772 0.0
Zn3 Zn 0.32154 0.33141 0.06897 0.0
O4 O 0.30438 0.31225 0.00394 0.0
C5 C 0.33953 0.39095 0.04708 0.0
O6 O 0.36456 0.37786 0.03105 0.0
O7 O 0.29916 0.31601 0.13214 0.0
C8 C 0.30032 0.32618 0.96143 0.0
O9 O 0.30721 0.35412 0.95893 0.0
C10 C 0.38359 0.31396 0.03986 0.0
O11 O 0.37253 0.31313 0.9921 0.0
O12 O 0.3175 0.3757 0.06505 0.0
C13 C 0.69663 0.27775 0.93307 0.0
O14 O 0.67061 0.26736 0.95087 0.0
O15 O 0.64078 0.31575 0.00179 0.0
Zn16 Zn 0.68626 0.31823 0.01614 0.0
O17 O 0.69581 0.29504 0.08144 0.0
C18 C 0.67923 0.38106 0.02991 0.0
O19 O 0.64998 0.37436 0.02888 0.0
O20 O 0.7086 0.3 0.955 0.0
C21 C 0.72105 0.29781 0.10561 0.0
O22 O 0.74172 0.31626 0.08795 0.0
C23 C 0.62141 0.31241 0.03835 0.0
O24 O 0.63092 0.31074 0.08701 0.0
O25 O 0.69908 0.36083 0.02518 0.0
C26 C 0.69409 0.7126 0.13445 0.0
O27 O 0.67786 0.7265 0.09908 0.0
O28 O 0.62937 0.6756 0.07907 0.0
Zn29 Zn 0.67429 0.66539 0.07191 0.0
O30 O 0.69111 0.68143 0.00411 0.0
C31 C 0.65766 0.60457 0.08741 0.0
O32 O 0.63145 0.61623 0.10145 0.0
O33 O 0.69663 0.68489 0.13158 0.0
C34 C 0.69182 0.66628 0.96242 0.0
O35 O 0.68105 0.63943 0.96271 0.0
C36 C 0.61061 0.67633 0.04113 0.0
O37 O 0.6203 0.67083 0.99351 0.0
O38 O 0.67977 0.62115 0.0741 0.0
C39 C 0.29399 0.70706 0.92017 0.0
O40 O 0.32231 0.70012 0.9079 0.0
O41 O 0.35331 0.68458 0.006 0.0
Zn42 Zn 0.30801 0.67829 0.01903 0.0
O43 O 0.29531 0.69467 0.08924 0.0
C44 C 0.31793 0.61619 0.03122 0.0
O45 O 0.34434 0.62524 0.04982 0.0
O46 O 0.28328 0.69969 0.96442 0.0
C47 C 0.29139 0.67898 0.12978 0.0
O48 O 0.29654 0.6507 0.1276 0.0
C49 C 0.37255 0.68867 0.04254 0.0
O50 O 0.36306 0.68961 0.09126 0.0
O51 O 0.29846 0.63489 0.01536 0.0
C52 C 0.78721 0.78318 0.65313 0.0
O53 O 0.80385 0.76508 0.62503 0.0
O54 O 0.85154 0.81777 0.58376 0.0
Zn55 Zn 0.80589 0.82288 0.57287 0.0
O56 O 0.79101 0.7974 0.51345 0.0
C57 C 0.81565 0.885 0.55161 0.0
O58 O 0.84467 0.87739 0.55072 0.0
O59 O 0.7845 0.80966 0.6386 0.0
C60 C 0.78953 0.80608 0.46634 0.0
O61 O 0.79822 0.83283 0.45444 0.0
C62 C 0.87044 0.81424 0.54652 0.0
O63 O 0.86046 0.81359 0.49808 0.0
O64 O 0.79529 0.86562 0.55975 0.0
C65 C 0.19724 0.79995 0.43512 0.0
O66 O 0.1887 0.78061 0.47029 0.0
O67 O 0.12576 0.82836 0.50212 0.0
Zn68 Zn 0.17072 0.83806 0.51022 0.0
O69 O 0.19024 0.81445 0.56823 0.0
C70 C 0.15581 0.89584 0.54875 0.0
O71 O 0.13244 0.88191 0.56931 0.0
O72 O 0.19193 0.82694 0.44314 0.0
C73 C 0.19231 0.82218 0.61577 0.0
O74 O 0.18074 0.84736 0.6309 0.0
C75 C 0.10859 0.81965 0.53909 0.0
O76 O 0.1201 0.8159 0.58608 0.0
O77 O 0.1756 0.88165 0.52244 0.0
C78 C 0.2027 0.19342 0.67697 0.0
O79 O 0.18065 0.17399 0.68116 0.0
O80 O 0.14563 0.19165 0.57658 0.0
Zn81 Zn 0.19098 0.18391 0.56874 0.0
O82 O 0.20711 0.20364 0.50356 0.0
C83 C 0.17816 0.1218 0.55697 0.0
O84 O 0.15015 0.13115 0.54839 0.0
O85 O 0.21181 0.20114 0.63183 0.0
C86 C 0.20924 0.1901 0.46025 0.0
O87 O 0.20087 0.16254 0.45737 0.0
C88 C 0.12759 0.19518 0.53814 0.0
O89 O 0.13832 0.19392 0.49021 0.0
O90 O 0.19931 0.14019 0.5664 0.0
C91 C 0.81773 0.21354 0.44505 0.0
O92 O 0.8402 0.22597 0.47085 0.0
O93 O 0.87365 0.17358 0.51628 0.0
Zn94 Zn 0.82757 0.16965 0.5232 0.0
O95 O 0.81188 0.18891 0.58957 0.0
C96 C 0.83641 0.10968 0.55024 0.0
O97 O 0.86006 0.1214 0.57398 0.0
O98 O 0.80765 0.18878 0.46013 0.0
C99 C 0.82562 0.18686 0.63331 0.0
O100 O 0.85128 0.172 0.63653 0.0
C101 C 0.89035 0.19352 0.53599 0.0
O102 O 0.87782 0.21468 0.56346 0.0
O103 O 0.81802 0.12611 0.52508 0.0
H104 H 0.35773 0.43465 0.02898 0.0
C105 C 0.33763 0.42309 0.04335 0.0
H106 H 0.29252 0.4275 0.07247 0.0
H107 H 0.31898 0.55833 0.14631 0.0
H108 H 0.31088 0.5336 0.22918 0.0
H109 H 0.3037 0.48002 0.23274 0.0
H110 H 0.30439 0.45085 0.15347 0.0
C111 C 0.31258 0.43847 0.05665 0.0
C112 C 0.3129 0.47107 0.05371 0.0
C113 C 0.31219 0.48777 0.10038 0.0
C114 C 0.31671 0.51862 0.09838 0.0
C115 C 0.31604 0.53479 0.14564 0.0
C116 C 0.31134 0.52088 0.19346 0.0
C117 C 0.30726 0.49072 0.19546 0.0
C118 C 0.30772 0.47424 0.14963 0.0
H119 H 0.28847 0.57796 0.01387 0.0
C120 C 0.31039 0.58469 0.03008 0.0
H121 H 0.35125 0.57096 0.06694 0.0
H122 H 0.30947 0.4463 0.95645 0.0
H123 H 0.3178 0.47087 0.87347 0.0
H124 H 0.3291 0.5238 0.87027 0.0
H125 H 0.33158 0.55256 0.94978 0.0
C126 C 0.32979 0.56439 0.04886 0.0
C127 C 0.32193 0.53268 0.04975 0.0
C128 C 0.32135 0.51613 0.00281 0.0
C129 C 0.31617 0.48538 0.00476 0.0
C130 C 0.31451 0.46951 0.95727 0.0
C131 C 0.31903 0.48337 0.90937 0.0
C132 C 0.32529 0.51319 0.90757 0.0
C133 C 0.32651 0.52948 0.95358 0.0
H134 H 0.4244 0.31023 0.09015 0.0
C135 C 0.41654 0.30982 0.04981 0.0
H136 H 0.42989 0.30855 0.9704 0.0
H137 H 0.55943 0.36326 0.03063 0.0
H138 H 0.5345 0.40529 0.9915 0.0
H139 H 0.4801 0.40315 0.96561 0.0
H140 H 0.45026 0.35897 0.97915 0.0
C141 C 0.43711 0.30756 0.01102 0.0
C142 C 0.47048 0.30768 0.02266 0.0
C143 C 0.48784 0.33334 0.01291 0.0
C144 C 0.51938 0.33435 0.02678 0.0
C145 C 0.53572 0.36085 0.0192 0.0
C146 C 0.52161 0.38527 0.99715 0.0
C147 C 0.49097 0.38409 0.98266 0.0
C148 C 0.47413 0.35855 0.99057 0.0
H149 H 0.58181 0.31295 0.98479 0.0
C150 C 0.5885 0.31158 0.02568 0.0
H151 H 0.57309 0.30775 0.1037 0.0
H152 H 0.44409 0.25456 0.04362 0.0
H153 H 0.46899 0.21229 0.08246 0.0
H154 H 0.52375 0.21388 0.10624 0.0
H155 H 0.55395 0.25771 0.09129 0.0
C156 C 0.5668 0.30992 0.06277 0.0
C157 C 0.53368 0.30933 0.04898 0.0
C158 C 0.51631 0.28362 0.05848 0.0
C159 C 0.48469 0.28274 0.0451 0.0
C160 C 0.46804 0.25658 0.05392 0.0
C161 C 0.48209 0.2321 0.07593 0.0
C162 C 0.51292 0.23299 0.08929 0.0
C163 C 0.52998 0.25834 0.0806 0.0
H164 H 0.71339 0.41679 0.03722 0.0
C165 C 0.68903 0.41183 0.03664 0.0
H166 H 0.64413 0.42871 0.04326 0.0
H167 H 0.68085 0.54177 0.16905 0.0
H168 H 0.66617 0.51035 0.2414 0.0
H169 H 0.65648 0.45766 0.22749 0.0
H170 H 0.66181 0.43602 0.14127 0.0
C171 C 0.6685 0.43356 0.04226 0.0
C172 C 0.67771 0.46453 0.05124 0.0
C173 C 0.67412 0.47692 0.10165 0.0
C174 C 0.67894 0.50742 0.10941 0.0
C175 C 0.6763 0.51896 0.1606 0.0
C176 C 0.66818 0.50111 0.20256 0.0
C177 C 0.66277 0.47144 0.19475 0.0
C178 C 0.66578 0.45934 0.14503 0.0
H179 H 0.63966 0.55974 0.09335 0.0
C180 C 0.66021 0.57238 0.08501 0.0
H181 H 0.70669 0.57054 0.06226 0.0
H182 H 0.68867 0.44741 0.95037 0.0
H183 H 0.70461 0.47858 0.87854 0.0
H184 H 0.71243 0.53159 0.8917 0.0
H185 H 0.70435 0.55377 0.97668 0.0
C186 C 0.68616 0.55825 0.07208 0.0
C187 C 0.68635 0.52569 0.06631 0.0
C188 C 0.69188 0.51298 0.01657 0.0
C189 C 0.68746 0.48236 0.00898 0.0
C190 C 0.69203 0.47043 0.95848 0.0
C191 C 0.7011 0.4881 0.91684 0.0
C192 C 0.70549 0.51795 0.92425 0.0
C193 C 0.70082 0.5304 0.97333 0.0
H194 H 0.41222 0.68845 0.98905 0.0
C195 C 0.40548 0.69003 0.02988 0.0
H196 H 0.42085 0.69202 0.10811 0.0
H197 H 0.54664 0.62966 0.05539 0.0
H198 H 0.5198 0.59087 0.10101 0.0
H199 H 0.46548 0.59649 0.12568 0.0
H200 H 0.43765 0.64091 0.10461 0.0
C201 C 0.42718 0.69164 0.06702 0.0
C202 C 0.46026 0.68907 0.05362 0.0
C203 C 0.47639 0.6632 0.06725 0.0
C204 C 0.50782 0.66013 0.05368 0.0
C205 C 0.523 0.63356 0.06597 0.0
C206 C 0.5078 0.61098 0.09186 0.0
C207 C 0.47721 0.61413 0.10569 0.0
C208 C 0.46154 0.63981 0.09346 0.0
H209 H 0.57087 0.68413 0.09248 0.0
C210 C 0.57782 0.68111 0.052 0.0
H211 H 0.56281 0.67812 0.97355 0.0
H212 H 0.43667 0.74228 0.02471 0.0
H213 H 0.4635 0.78106 0.97875 0.0
H214 H 0.51788 0.77548 0.95434 0.0
H215 H 0.54581 0.73111 0.97598 0.0
C216 C 0.55637 0.68042 0.01438 0.0
C217 C 0.52325 0.68321 0.02742 0.0
C218 C 0.50711 0.70901 0.01359 0.0
C219 C 0.47563 0.71207 0.02707 0.0
C220 C 0.46037 0.73851 0.01436 0.0
C221 C 0.47555 0.76102 0.98824 0.0
C222 C 0.50618 0.7579 0.97454 0.0
C223 C 0.52193 0.73229 0.98712 0.0
H224 H 0.78245 0.9216 0.54746 0.0
C225 C 0.80663 0.916 0.54548 0.0
H226 H 0.85171 0.9319 0.53574 0.0
H227 H 0.82171 0.05181 0.42957 0.0
H228 H 0.83772 0.02372 0.35379 0.0
H229 H 0.84485 0.97019 0.35958 0.0
H230 H 0.83614 0.94442 0.44129 0.0
C231 C 0.82756 0.93732 0.53926 0.0
C232 C 0.81892 0.96877 0.53444 0.0
C233 C 0.8235 0.98344 0.4862 0.0
C234 C 0.81908 0.01426 0.48271 0.0
C235 C 0.82456 0.02841 0.43433 0.0
C236 C 0.83374 0.01255 0.39051 0.0
C237 C 0.83778 0.98241 0.39378 0.0
C238 C 0.83278 0.96791 0.44095 0.0
H239 H 0.84873 0.06539 0.5762 0.0
C240 C 0.83242 0.07765 0.55263 0.0
H241 H 0.79489 0.07458 0.5006 0.0
H242 H 0.80779 0.94766 0.63323 0.0
H243 H 0.78897 0.97539 0.7073 0.0
H244 H 0.77845 0.02832 0.69954 0.0
H245 H 0.78721 0.05391 0.61763 0.0
C246 C 0.81069 0.06303 0.52615 0.0
C247 C 0.81015 0.03037 0.52754 0.0
C248 C 0.80353 0.01543 0.57484 0.0
C249 C 0.80846 0.98468 0.57866 0.0
C250 C 0.8035 0.97075 0.62743 0.0
C251 C 0.79282 0.98646 0.67044 0.0
C252 C 0.78699 0.01627 0.66613 0.0
C253 C 0.79228 0.03072 0.61901 0.0
H254 H 0.06736 0.81846 0.48931 0.0
C255 C 0.07555 0.81588 0.5292 0.0
H256 H 0.06282 0.80976 0.60821 0.0
H257 H 0.93153 0.86473 0.55846 0.0
H258 H 0.95595 0.90571 0.60176 0.0
H259 H 0.01066 0.90377 0.62572 0.0
H260 H 0.04133 0.86087 0.60595 0.0
C261 C 0.05531 0.81106 0.56777 0.0
C262 C 0.02182 0.81097 0.55688 0.0
C263 C 0.00396 0.83577 0.57033 0.0
C264 C 0.97222 0.83657 0.55769 0.0
C265 C 0.9554 0.86238 0.56889 0.0
C266 C 0.96922 0.88623 0.59336 0.0
C267 C 1.00003 0.88516 0.60676 0.0
C268 C 0.01735 0.86036 0.59526 0.0
H269 H 0.91055 0.81301 0.59898 0.0
C270 C 0.90349 0.81278 0.55821 0.0
H271 H 0.91821 0.8116 0.47954 0.0
H272 H 0.04928 0.75956 0.52807 0.0
H273 H 0.0249 0.71827 0.48514 0.0
H274 H 0.96977 0.71936 0.46392 0.0
H275 H 0.93866 0.76171 0.4855 0.0
C276 C 0.92489 0.81246 0.52045 0.0
C277 C 0.9582 0.81209 0.53315 0.0
C278 C 0.9761 0.78724 0.51989 0.0
C279 C 0.00793 0.78664 0.5319 0.0
C280 C 0.02513 0.76134 0.51911 0.0
C281 C 0.01139 0.73743 0.49468 0.0
C282 C 0.98035 0.73804 0.48276 0.0
C283 C 0.96277 0.76254 0.49526 0.0
H284 H 0.20873 0.08326 0.56256 0.0
C285 C 0.18526 0.0902 0.55552 0.0
H286 H 0.14023 0.07681 0.53701 0.0
H287 H 0.17315 0.95588 0.43587 0.0
H288 H 0.16237 0.98461 0.35827 0.0
H289 H 0.15569 0.03819 0.3638 0.0
H290 H 0.1596 0.06336 0.44707 0.0
C291 C 0.16355 0.07006 0.5458 0.0
C292 C 0.17071 0.03825 0.54239 0.0
C293 C 0.16884 0.02392 0.49332 0.0
C294 C 0.17308 0.99308 0.49004 0.0
C295 C 0.17043 0.97929 0.44063 0.0
C296 C 0.16422 0.99551 0.39572 0.0
C297 C 0.16043 0.02567 0.39884 0.0
C298 C 0.16267 0.03983 0.44693 0.0
H299 H 0.13986 0.93873 0.57701 0.0
C300 C 0.15787 0.92788 0.55493 0.0
H301 H 0.19773 0.93373 0.50917 0.0
H302 H 0.17526 0.05866 0.64302 0.0
H303 H 0.18871 0.0303 0.71977 0.0
H304 H 0.19916 0.97731 0.71306 0.0
H305 H 0.19571 0.9523 0.62953 0.0
C306 C 0.18016 0.94404 0.53298 0.0
C307 C 0.17919 0.97662 0.53588 0.0
C308 C 0.18261 0.99115 0.58457 0.0
C309 C 0.1778 0.02193 0.58804 0.0
C310 C 0.17965 0.03554 0.6377 0.0
C311 C 0.18722 0.01948 0.68219 0.0
C312 C 0.19301 0.98963 0.67845 0.0
C313 C 0.19076 0.97552 0.63033 0.0
H314 H 0.9327 0.17466 0.50358 0.0
C315 C 0.92374 0.19208 0.52824 0.0
H316 H 0.93476 0.22868 0.57523 0.0
H317 H 0.0631 0.14881 0.55182 0.0
H318 H 0.03616 0.11182 0.60178 0.0
H319 H 0.98228 0.11911 0.62789 0.0
H320 H 0.95487 0.16313 0.60301 0.0
C321 C 0.94328 0.21072 0.55143 0.0
C322 C 0.97692 0.20821 0.5428 0.0
C323 C 0.99308 0.18304 0.56024 0.0
C324 C 0.02464 0.17963 0.54785 0.0
C325 C 0.03958 0.15328 0.56236 0.0
C326 C 0.0243 0.13171 0.59073 0.0
C327 C 0.99394 0.13575 0.60522 0.0
C328 C 0.9784 0.16106 0.5903 0.0
H329 H 0.087 0.20041 0.58854 0.0
C330 C 0.0946 0.19895 0.54813 0.0
H331 H 0.081 0.19861 0.46884 0.0
H332 H 0.95296 0.25945 0.50491 0.0
H333 H 0.98058 0.29764 0.45881 0.0
H334 H 0.03593 0.29285 0.44118 0.0
H335 H 0.06395 0.24972 0.46917 0.0
C336 C 0.07378 0.19939 0.50948 0.0
C337 C 0.04046 0.20223 0.52087 0.0
C338 C 0.02449 0.22772 0.50473 0.0
C339 C 0.99267 0.23068 0.51558 0.0
C340 C 0.9772 0.25618 0.49823 0.0
C341 C 0.99277 0.27828 0.47167 0.0
C342 C 0.02392 0.27557 0.46169 0.0
C343 C 0.03972 0.25065 0.47793 0.0
H344 H 0.22295 0.19217 0.37734 0.0
C345 C 0.22098 0.20492 0.41309 0.0
H346 H 0.22652 0.2466 0.44785 0.0
H347 H 0.31632 0.25249 0.23712 0.0
H348 H 0.34753 0.21625 0.28144 0.0
H349 H 0.33087 0.19478 0.36527 0.0
H350 H 0.28267 0.20908 0.4048 0.0
C351 C 0.22932 0.23326 0.41299 0.0
C352 C 0.24068 0.2477 0.36452 0.0
C353 C 0.26949 0.23983 0.34295 0.0
C354 C 0.2797 0.2531 0.29573 0.0
C355 C 0.3079 0.24386 0.27379 0.0
C356 C 0.32599 0.22295 0.29869 0.0
C357 C 0.31656 0.2108 0.34579 0.0
C358 C 0.28871 0.21908 0.36789 0.0
H359 H 0.30648 0.31423 0.26217 0.0
C360 C 0.29599 0.30903 0.22474 0.0
H361 H 0.26149 0.28465 0.18618 0.0
H362 H 0.1845 0.26793 0.39563 0.0
H363 H 0.15401 0.30525 0.35253 0.0
H364 H 0.17243 0.32923 0.27198 0.0
H365 H 0.22145 0.31594 0.23389 0.0
C366 C 0.27278 0.28973 0.22295 0.0
C367 C 0.26164 0.27502 0.27128 0.0
C368 C 0.23301 0.28307 0.29307 0.0
C369 C 0.22253 0.26942 0.33977 0.0
C370 C 0.19372 0.27776 0.36048 0.0
C371 C 0.17595 0.29912 0.3361 0.0
C372 C 0.18631 0.31261 0.29072 0.0
C373 C 0.21448 0.30477 0.26927 0.0
H374 H 0.70916 0.26483 0.16551 0.0
C375 C 0.72671 0.28023 0.15307 0.0
H376 H 0.76993 0.29873 0.17029 0.0
H377 H 0.75921 0.26694 0.41136 0.0
H378 H 0.74415 0.31805 0.41427 0.0
H379 H 0.73524 0.34586 0.33295 0.0
H380 H 0.74097 0.32256 0.24823 0.0
C381 C 0.75257 0.28279 0.18115 0.0
C382 C 0.75739 0.26564 0.22997 0.0
C383 C 0.75466 0.27974 0.27909 0.0
C384 C 0.76063 0.26393 0.32593 0.0
C385 C 0.75623 0.27821 0.37452 0.0
C386 C 0.74728 0.30748 0.37676 0.0
C387 C 0.74221 0.32312 0.33099 0.0
C388 C 0.74567 0.3095 0.28262 0.0
H389 H 0.81695 0.24826 0.38557 0.0
C390 C 0.8054 0.22841 0.39842 0.0
H391 H 0.76945 0.19864 0.38319 0.0
H392 H 0.76393 0.23182 0.14223 0.0
H393 H 0.77818 0.18051 0.13932 0.0
H394 H 0.78912 0.1532 0.22044 0.0
H395 H 0.78588 0.17703 0.30495 0.0
C396 C 0.78089 0.21877 0.37167 0.0
C397 C 0.77046 0.2343 0.32346 0.0
C398 C 0.77195 0.21986 0.2744 0.0
C399 C 0.7655 0.23558 0.22758 0.0
C400 C 0.76811 0.22086 0.17904 0.0
C401 C 0.77641 0.19142 0.17678 0.0
C402 C 0.78258 0.17605 0.22245 0.0
C403 C 0.78058 0.19001 0.27075 0.0
H404 H 0.76891 0.7648 0.43842 0.0
C405 C 0.77729 0.78614 0.42606 0.0
H406 H 0.78487 0.81444 0.36191 0.0
H407 H 0.78185 0.71276 0.19347 0.0
H408 H 0.83653 0.72221 0.19759 0.0
H409 H 0.85803 0.75489 0.2651 0.0
H410 H 0.82497 0.77845 0.32881 0.0
C411 C 0.7757 0.79362 0.37535 0.0
C412 C 0.76266 0.77324 0.33573 0.0
C413 C 0.78229 0.75952 0.29899 0.0
C414 C 0.76993 0.74047 0.26034 0.0
C415 C 0.79005 0.72729 0.22383 0.0
C416 C 0.82148 0.73253 0.22574 0.0
C417 C 0.83358 0.75095 0.26374 0.0
C418 C 0.81434 0.76435 0.30002 0.0
H419 H 0.70397 0.75293 0.17843 0.0
C420 C 0.70804 0.72943 0.1775 0.0
H421 H 0.73004 0.69377 0.21465 0.0
H422 H 0.71825 0.79729 0.39832 0.0
H423 H 0.66394 0.7863 0.39637 0.0
H424 H 0.64296 0.75104 0.33264 0.0
H425 H 0.67614 0.72692 0.26995 0.0
C426 C 0.72484 0.71704 0.21553 0.0
C427 C 0.73793 0.73527 0.25838 0.0
C428 C 0.71838 0.74831 0.2961 0.0
C429 C 0.73067 0.76775 0.33419 0.0
C430 C 0.71037 0.7816 0.36964 0.0
C431 C 0.67908 0.77561 0.3688 0.0
C432 C 0.66725 0.75583 0.33282 0.0
C433 C 0.68654 0.74228 0.29682 0.0
H434 H 0.21783 0.8071 0.35719 0.0
C435 C 0.21245 0.79059 0.38644 0.0
H436 H 0.21343 0.74561 0.40572 0.0
H437 H 0.21721 0.70087 0.17293 0.0
H438 H 0.16498 0.68882 0.19696 0.0
H439 H 0.14316 0.70581 0.2806 0.0
H440 H 0.17341 0.73506 0.34057 0.0
C441 C 0.21949 0.76239 0.37741 0.0
C442 C 0.2329 0.75266 0.32685 0.0
C443 C 0.21502 0.73522 0.29258 0.0
C444 C 0.22771 0.72514 0.24466 0.0
C445 C 0.20901 0.70851 0.21043 0.0
C446 C 0.1789 0.70159 0.22357 0.0
C447 C 0.16661 0.71117 0.27063 0.0
C448 C 0.18429 0.72788 0.30479 0.0
H449 H 0.27509 0.67722 0.21127 0.0
C450 C 0.27932 0.69181 0.17845 0.0
H451 H 0.27696 0.73549 0.15093 0.0
H452 H 0.2741 0.78427 0.38499 0.0
H453 H 0.32611 0.79676 0.36029 0.0
H454 H 0.34768 0.78008 0.27625 0.0
H455 H 0.31738 0.7506 0.21654 0.0
C456 C 0.27228 0.72036 0.18274 0.0
C457 C 0.25842 0.73213 0.23152 0.0
C458 C 0.27612 0.74998 0.26528 0.0
C459 C 0.26348 0.76002 0.31332 0.0
C460 C 0.28219 0.77672 0.34738 0.0
C461 C 0.31218 0.7839 0.33383 0.0
C462 C 0.32435 0.77447 0.28655 0.0
C463 C 0.30669 0.75761 0.25261 0.0
H464 H 0.21911 0.78313 0.63742 0.0
C465 C 0.20842 0.80285 0.65283 0.0
H466 H 0.20075 0.82877 0.71993 0.0
H467 H 0.244 0.69616 0.8067 0.0
H468 H 0.19667 0.67827 0.76874 0.0
H469 H 0.1627 0.71137 0.71921 0.0
H470 H 0.17619 0.7624 0.70646 0.0
C471 C 0.21056 0.80876 0.70413 0.0
C472 C 0.22876 0.78958 0.73963 0.0
C473 C 0.21975 0.76014 0.74885 0.0
C474 C 0.23855 0.74142 0.77968 0.0
C475 C 0.22997 0.71166 0.78551 0.0
C476 C 0.20294 0.70104 0.76363 0.0
C477 C 0.18388 0.71965 0.73557 0.0
C478 C 0.19203 0.74886 0.7282 0.0
H479 H 0.25152 0.72962 0.89642 0.0
C480 C 0.27466 0.72414 0.88403 0.0
H481 H 0.30824 0.72919 0.82527 0.0
H482 H 0.25237 0.845 0.7307 0.0
H483 H 0.29842 0.86347 0.77215 0.0
H484 H 0.32975 0.83164 0.82888 0.0
H485 H 0.31534 0.78106 0.84416 0.0
C486 C 0.28481 0.73355 0.8374 0.0
C487 C 0.2655 0.75259 0.80347 0.0
C488 C 0.27409 0.7822 0.79532 0.0
C489 C 0.25575 0.80069 0.76328 0.0
C490 C 0.26519 0.83005 0.75517 0.0
C491 C 0.29162 0.84095 0.77868 0.0
C492 C 0.30928 0.82302 0.81056 0.0
C493 C 0.30075 0.79399 0.81893 0.0
H494 H 0.28421 0.3245 0.8798 0.0
C495 C 0.28799 0.3114 0.91471 0.0
H496 H 0.28609 0.26898 0.94778 0.0
H497 H 0.19115 0.26128 0.74386 0.0
H498 H 0.15857 0.29411 0.79345 0.0
H499 H 0.17595 0.3147 0.87755 0.0
H500 H 0.2262 0.30295 0.91209 0.0
C501 C 0.28144 0.28265 0.9139 0.0
C502 C 0.26972 0.26833 0.8656 0.0
C503 C 0.23982 0.27465 0.84693 0.0
C504 C 0.22932 0.26184 0.79951 0.0
C505 C 0.19992 0.26959 0.78052 0.0
C506 C 0.18102 0.28854 0.80846 0.0
C507 C 0.19085 0.30021 0.85572 0.0
C508 C 0.21985 0.29341 0.87494 0.0
H509 H 0.20572 0.20045 0.76208 0.0
C510 C 0.21527 0.20703 0.72462 0.0
H511 H 0.24755 0.23412 0.68626 0.0
H512 H 0.328 0.25127 0.89098 0.0
H513 H 0.35996 0.21721 0.84272 0.0
H514 H 0.34118 0.19396 0.76176 0.0
H515 H 0.29034 0.20472 0.7284 0.0
C516 C 0.23711 0.22775 0.72312 0.0
C517 C 0.2483 0.24189 0.77192 0.0
C518 C 0.27801 0.23531 0.79092 0.0
C519 C 0.28872 0.24851 0.83786 0.0
C520 C 0.3186 0.24169 0.85576 0.0
C521 C 0.33721 0.2222 0.82841 0.0
C522 C 0.32664 0.20912 0.7828 0.0
C523 C 0.29742 0.21551 0.76408 0.0
H524 H 0.69864 0.24581 0.86877 0.0
C525 C 0.71113 0.2635 0.88765 0.0
H526 H 0.75131 0.28929 0.88693 0.0
H527 H 0.77819 0.16868 0.74254 0.0
H528 H 0.77189 0.14153 0.82319 0.0
H529 H 0.75834 0.16686 0.90518 0.0
H530 H 0.75015 0.21937 0.90654 0.0
C531 C 0.73884 0.27119 0.86934 0.0
C532 C 0.75211 0.25656 0.82235 0.0
C533 C 0.75874 0.2261 0.82299 0.0
C534 C 0.76858 0.2118 0.7765 0.0
C535 C 0.77242 0.18098 0.77728 0.0
C536 C 0.7686 0.16504 0.82327 0.0
C537 C 0.76082 0.17927 0.86936 0.0
C538 C 0.75593 0.20942 0.86947 0.0
H539 H 0.82728 0.20058 0.71584 0.0
C540 C 0.81335 0.2011 0.68062 0.0
H541 H 0.77173 0.21512 0.64678 0.0
H542 H 0.74219 0.31527 0.80784 0.0
H543 H 0.75145 0.34295 0.72852 0.0
H544 H 0.7716 0.31874 0.64948 0.0
H545 H 0.78233 0.26664 0.64909 0.0
C546 C 0.78562 0.21389 0.68199 0.0
C547 C 0.77393 0.22835 0.73035 0.0
C548 C 0.76823 0.25894 0.73019 0.0
C549 C 0.75715 0.27302 0.77611 0.0
C550 C 0.75101 0.30349 0.77438 0.0
C551 C 0.75619 0.31967 0.72905 0.0
C552 C 0.7675 0.30603 0.68453 0.0
C553 C 0.7735 0.27606 0.68485 0.0
H554 H 0.70406 0.66486 0.87877 0.0
C555 C 0.70463 0.67844 0.91367 0.0
H556 H 0.71901 0.71875 0.9462 0.0
H557 H 0.82155 0.73826 0.77412 0.0
H558 H 0.85268 0.72528 0.84921 0.0
H559 H 0.82874 0.70796 0.93094 0.0
H560 H 0.7735 0.70361 0.93817 0.0
C561 C 0.71722 0.70528 0.9113 0.0
C562 C 0.73137 0.71631 0.86216 0.0
C563 C 0.76368 0.71873 0.8586 0.0
C564 C 0.77749 0.72842 0.81129 0.0
C565 C 0.80984 0.73074 0.80892 0.0
C566 C 0.828 0.72341 0.85176 0.0
C567 C 0.81452 0.71369 0.8978 0.0
C568 C 0.78277 0.71132 0.90141 0.0
H569 H 0.75825 0.78891 0.72323 0.0
C570 C 0.7717 0.77314 0.70114 0.0
H571 H 0.78794 0.72959 0.69737 0.0
H572 H 0.66868 0.71699 0.85767 0.0
H573 H 0.63752 0.72891 0.78207 0.0
H574 H 0.66153 0.74314 0.69851 0.0
H575 H 0.71678 0.74596 0.69029 0.0
C576 C 0.77377 0.74535 0.7181 0.0
C577 C 0.75897 0.73575 0.76767 0.0
C578 C 0.72661 0.73339 0.77125 0.0
C579 C 0.71279 0.72411 0.81884 0.0
C580 C 0.68041 0.72303 0.82202 0.0
C581 C 0.66224 0.72995 0.77898 0.0
C582 C 0.67575 0.73805 0.73199 0.0
C583 C 0.70753 0.73974 0.7279 0.0
loop_
_geom_bond_atom_site_label_1
_geom_bond_atom_site_label_2
_geom_bond_distance
_geom_bond_site_symmetry_2
_ccdc_geom_bond_type
C0 O1 1.160 . S
C0 O7 1.185 . S
O1 C0 1.160 . S
O2 Zn3 1.899 . S
O2 C10 1.284 . S
Zn3 O2 1.899 . S
Zn3 O4 2.032 . S
Zn3 O7 2.086 . S
Zn3 O12 1.977 . S
O4 Zn3 2.032 . S
O4 C8 1.278 1_554 S
C5 O6 1.203 . S
C5 O12 1.267 . S
O6 C5 1.203 . S
O7 C0 1.185 . S
O7 Zn3 2.086 . S
C8 O4 1.278 1_556 S
C8 O9 1.211 . S
O9 C8 1.211 . S
C10 O2 1.284 . S
C10 O11 1.273 . S
O11 C10 1.273 . S
O12 Zn3 1.977 . S
O12 C5 1.267 . S
C13 O14 1.160 . S
C13 O20 1.185 . S
O14 C13 1.160 . S
O15 Zn16 1.899 1_556 S
O15 C23 1.284 1_556 S
Zn16 O15 1.899 1_554 S
Zn16 O17 2.032 . S
Zn16 O20 2.086 1_554 S
Zn16 O25 1.977 . S
O17 Zn16 2.032 . S
O17 C21 1.278 . S
C18 O19 1.203 . S
C18 O25 1.267 . S
O19 C18 1.203 . S
O20 C13 1.185 . S
O20 Zn16 2.086 1_556 S
C21 O17 1.278 . S
C21 O22 1.211 . S
O22 C21 1.211 . S
C23 O15 1.284 1_554 S
C23 O24 1.273 . S
O24 C23 1.273 . S
O25 Zn16 1.977 . S
O25 C18 1.267 . S
C26 O27 1.160 . S
C26 O33 1.185 . S
O27 C26 1.160 . S
O28 Zn29 1.899 . S
O28 C36 1.284 . S
Zn29 O28 1.899 . S
Zn29 O30 2.032 . S
Zn29 O33 2.086 . S
Zn29 O38 1.977 . S
O30 Zn29 2.032 . S
O30 C34 1.278 1_554 S
C31 O32 1.203 . S
C31 O38 1.267 . S
O32 C31 1.203 . S
O33 C26 1.185 . S
O33 Zn29 2.086 . S
C34 O30 1.278 1_556 S
C34 O35 1.211 . S
O35 C34 1.211 . S
C36 O28 1.284 . S
C36 O37 1.273 . S
O37 C36 1.273 . S
O38 Zn29 1.977 . S
O38 C31 1.267 . S
C39 O40 1.160 . S
C39 O46 1.185 . S
O40 C39 1.160 . S
O41 Zn42 1.899 1_556 S
O41 C49 1.284 1_556 S
Zn42 O41 1.899 1_554 S
Zn42 O43 2.032 . S
Zn42 O46 2.086 1_554 S
Zn42 O51 1.977 . S
O43 Zn42 2.032 . S
O43 C47 1.278 . S
C44 O45 1.203 . S
C44 O51 1.267 . S
O45 C44 1.203 . S
O46 C39 1.185 . S
O46 Zn42 2.086 1_556 S
C47 O43 1.278 . S
C47 O48 1.211 . S
O48 C47 1.211 . S
C49 O41 1.284 1_554 S
C49 O50 1.273 . S
O50 C49 1.273 . S
O51 Zn42 1.977 . S
O51 C44 1.267 . S
C52 O53 1.160 . S
C52 O59 1.185 . S
O53 C52 1.160 . S
O54 Zn55 1.899 . S
O54 C62 1.284 . S
Zn55 O54 1.899 . S
Zn55 O56 2.032 . S
Zn55 O59 2.086 . S
Zn55 O64 1.977 . S
O56 Zn55 2.032 . S
O56 C60 1.278 . S
C57 O58 1.203 . S
C57 O64 1.267 . S
O58 C57 1.203 . S
O59 C52 1.185 . S
O59 Zn55 2.086 . S
C60 O56 1.278 . S
C60 O61 1.211 . S
O61 C60 1.211 . S
C62 O54 1.284 . S
C62 O63 1.273 . S
O63 C62 1.273 . S
O64 Zn55 1.977 . S
O64 C57 1.267 . S
C65 O66 1.160 . S
C65 O72 1.185 . S
O66 C65 1.160 . S
O67 Zn68 1.899 . S
O67 C75 1.284 . S
Zn68 O67 1.899 . S
Zn68 O69 2.032 . S
Zn68 O72 2.086 . S
Zn68 O77 1.977 . S
O69 Zn68 2.032 . S
O69 C73 1.278 . S
C70 O71 1.203 . S
C70 O77 1.267 . S
O71 C70 1.203 . S
O72 C65 1.185 . S
O72 Zn68 2.086 . S
C73 O69 1.278 . S
C73 O74 1.211 . S
O74 C73 1.211 . S
C75 O67 1.284 . S
C75 O76 1.273 . S
O76 C75 1.273 . S
O77 Zn68 1.977 . S
O77 C70 1.267 . S
C78 O79 1.160 . S
C78 O85 1.185 . S
O79 C78 1.160 . S
O80 Zn81 1.899 . S
O80 C88 1.284 . S
Zn81 O80 1.899 . S
Zn81 O82 2.032 . S
Zn81 O85 2.086 . S
Zn81 O90 1.977 . S
O82 Zn81 2.032 . S
O82 C86 1.278 . S
C83 O84 1.203 . S
C83 O90 1.267 . S
O84 C83 1.203 . S
O85 C78 1.185 . S
O85 Zn81 2.086 . S
C86 O82 1.278 . S
C86 O87 1.211 . S
O87 C86 1.211 . S
C88 O80 1.284 . S
C88 O89 1.273 . S
O89 C88 1.273 . S
O90 Zn81 1.977 . S
O90 C83 1.267 . S
C91 O92 1.160 . S
C91 O98 1.185 . S
O92 C91 1.160 . S
O93 Zn94 1.899 . S
O93 C101 1.284 . S
Zn94 O93 1.899 . S
Zn94 O95 2.032 . S
Zn94 O98 2.086 . S
Zn94 O103 1.977 . S
O95 Zn94 2.032 . S
O95 C99 1.278 . S
C96 O97 1.203 . S
C96 O103 1.267 . S
O97 C96 1.203 . S
O98 C91 1.185 . S
O98 Zn94 2.086 . S
C99 O95 1.278 . S
C99 O100 1.211 . S
O100 C99 1.211 . S
C101 O93 1.284 . S
C101 O102 1.273 . S
O102 C101 1.273 . S
O103 Zn94 1.977 . S
O103 C96 1.267 . S
H104 C105 0.951 . S
C105 H104 0.951 . S
C105 C111 1.265 . S
H106 C111 0.950 . S
H107 C115 0.949 . S
H108 C116 0.950 . S
H109 C117 0.951 . S
H110 C118 0.951 . S
C111 C105 1.265 . S
C111 H106 0.950 . S
C111 C112 1.478 . S
C112 C111 1.478 . S
C112 C113 1.397 . S
C112 C129 1.395 1_554 S
C113 C112 1.397 . S
C113 C114 1.438 . S
C113 C118 1.429 . S
C114 C113 1.438 . S
C114 C115 1.428 . S
C114 C127 1.394 . S
C115 H107 0.949 . S
C115 C114 1.428 . S
C115 C116 1.345 . S
C116 H108 0.950 . S
C116 C115 1.345 . S
C116 C117 1.424 . S
C117 H109 0.951 . S
C117 C116 1.424 . S
C117 C118 1.347 . S
C118 H110 0.951 . S
C118 C113 1.429 . S
C118 C117 1.347 . S
H119 C120 0.951 . S
C120 H119 0.951 . S
C120 C126 1.265 . S
H121 C126 0.950 . S
H122 C130 0.949 . S
H123 C131 0.950 . S
H124 C132 0.951 . S
H125 C133 0.951 . S
C126 C120 1.265 . S
C126 H121 0.950 . S
C126 C127 1.478 . S
C127 C114 1.394 . S
C127 C126 1.478 . S
C127 C128 1.397 1_554 S
C128 C127 1.397 1_556 S
C128 C129 1.438 . S
C128 C133 1.429 . S
C129 C112 1.395 1_556 S
C129 C128 1.438 . S
C129 C130 1.427 . S
C130 H122 0.949 . S
C130 C129 1.427 . S
C130 C131 1.345 . S
C131 H123 0.950 . S
C131 C130 1.345 . S
C131 C132 1.424 . S
C132 H124 0.951 . S
C132 C131 1.424 . S
C132 C133 1.347 . S
C133 H125 0.951 . S
C133 C128 1.429 . S
C133 C132 1.347 . S
H134 C135 0.951 . S
C135 H134 0.951 . S
C135 C141 1.265 . S
H136 C141 0.950 1_556 S
H137 C145 0.949 . S
H138 C146 0.950 . S
H139 C147 0.951 . S
H140 C148 0.951 . S
C141 C135 1.265 . S
C141 H136 0.950 1_554 S
C141 C142 1.478 . S
C142 C141 1.478 . S
C142 C143 1.397 . S
C142 C159 1.394 . S
C143 C142 1.397 . S
C143 C144 1.438 . S
C143 C148 1.429 1_554 S
C144 C143 1.438 . S
C144 C145 1.428 . S
C144 C157 1.394 . S
C145 H137 0.949 . S
C145 C144 1.428 . S
C145 C146 1.345 1_554 S
C146 H138 0.950 . S
C146 C145 1.345 1_556 S
C146 C147 1.424 . S
C147 H139 0.951 . S
C147 C146 1.424 . S
C147 C148 1.347 . S
C148 H140 0.951 . S
C148 C143 1.429 1_556 S
C148 C147 1.347 . S
H149 C150 0.951 1_556 S
C150 H149 0.951 1_554 S
C150 C156 1.265 . S
H151 C156 0.950 . S
H152 C160 0.949 . S
H153 C161 0.950 . S
H154 C162 0.951 . S
H155 C163 0.951 . S
C156 C150 1.265 . S
C156 H151 0.950 . S
C156 C157 1.478 . S
C157 C144 1.394 . S
C157 C156 1.478 . S
C157 C158 1.397 . S
C158 C157 1.397 . S
C158 C159 1.438 . S
C158 C163 1.429 . S
C159 C142 1.394 . S
C159 C158 1.438 . S
C159 C160 1.428 . S
C160 H152 0.949 . S
C160 C159 1.428 . S
C160 C161 1.345 . S
C161 H153 0.950 . S
C161 C160 1.345 . S
C161 C162 1.424 . S
C162 H154 0.951 . S
C162 C161 1.424 . S
C162 C163 1.347 . S
C163 H155 0.951 . S
C163 C158 1.429 . S
C163 C162 1.347 . S
H164 C165 0.951 . S
C165 H164 0.951 . S
C165 C171 1.265 . S
H166 C171 0.950 . S
H167 C175 0.949 . S
H168 C176 0.950 . S
H169 C177 0.951 . S
H170 C178 0.951 . S
C171 C165 1.265 . S
C171 H166 0.950 . S
C171 C172 1.478 . S
C172 C171 1.478 . S
C172 C173 1.397 . S
C172 C189 1.402 . S
C173 C172 1.397 . S
C173 C174 1.438 . S
C173 C178 1.429 . S
C174 C173 1.438 . S
C174 C175 1.428 . S
C174 C187 1.394 . S
C175 H167 0.949 . S
C175 C174 1.428 . S
C175 C176 1.345 . S
C176 H168 0.950 . S
C176 C175 1.345 . S
C176 C177 1.424 . S
C177 H169 0.951 . S
C177 C176 1.424 . S
C177 C178 1.347 . S
C178 H170 0.951 . S
C178 C173 1.429 . S
C178 C177 1.347 . S
H179 C180 0.951 . S
C180 H179 0.951 . S
C180 C186 1.265 . S
H181 C186 0.950 . S
H182 C190 0.949 . S
H183 C191 0.950 . S
H184 C192 0.951 . S
H185 C193 0.951 . S
C186 C180 1.265 . S
C186 H181 0.950 . S
C186 C187 1.478 . S
C187 C174 1.394 . S
C187 C186 1.478 . S
C187 C188 1.397 . S
C188 C187 1.397 . S
C188 C189 1.438 . S
C188 C193 1.429 1_554 S
C189 C172 1.402 . S
C189 C188 1.438 . S
C189 C190 1.419 1_554 S
C190 H182 0.949 . S
C190 C189 1.419 1_556 S
C190 C191 1.345 . S
C191 H183 0.950 . S
C191 C190 1.345 . S
C191 C192 1.424 . S
C192 H184 0.951 . S
C192 C191 1.424 . S
C192 C193 1.347 . S
C193 H185 0.951 . S
C193 C188 1.429 1_556 S
C193 C192 1.347 . S
H194 C195 0.951 1_556 S
C195 H194 0.951 1_554 S
C195 C201 1.265 . S
H196 C201 0.950 . S
H197 C205 0.949 . S
H198 C206 0.950 . S
H199 C207 0.951 . S
H200 C208 0.951 . S
C201 C195 1.265 . S
C201 H196 0.950 . S
C201 C202 1.478 . S
C202 C201 1.478 . S
C202 C203 1.397 . S
C202 C219 1.394 . S
C203 C202 1.397 . S
C203 C204 1.438 . S
C203 C208 1.429 . S
C204 C203 1.438 . S
C204 C205 1.428 . S
C204 C217 1.394 . S
C205 H197 0.949 . S
C205 C204 1.428 . S
C205 C206 1.345 . S
C206 H198 0.950 . S
C206 C205 1.345 . S
C206 C207 1.424 . S
C207 H199 0.951 . S
C207 C206 1.424 . S
C207 C208 1.347 . S
C208 H200 0.951 . S
C208 C203 1.429 . S
C208 C207 1.347 . S
H209 C210 0.951 . S
C210 H209 0.951 . S
C210 C216 1.265 . S
H211 C216 0.950 1_556 S
H212 C220 0.949 . S
H213 C221 0.950 . S
H214 C222 0.951 . S
H215 C223 0.952 . S
C216 C210 1.265 . S
C216 H211 0.950 1_554 S
C216 C217 1.478 . S
C217 C204 1.394 . S
C217 C216 1.478 . S
C217 C218 1.397 . S
C218 C217 1.397 . S
C218 C219 1.438 . S
C218 C223 1.427 1_554 S
C219 C202 1.394 . S
C219 C218 1.438 . S
C219 C220 1.428 . S
C220 H212 0.949 . S
C220 C219 1.428 . S
C220 C221 1.345 1_554 S
C221 H213 0.950 . S
C221 C220 1.345 1_556 S
C221 C222 1.424 . S
C222 H214 0.951 . S
C222 C221 1.424 . S
C222 C223 1.348 . S
C223 H215 0.952 . S
C223 C218 1.427 1_556 S
C223 C222 1.348 . S
H224 C225 0.951 . S
C225 H224 0.951 . S
C225 C231 1.265 . S
H226 C231 0.950 . S
H227 C235 0.949 . S
H228 C236 0.950 . S
H229 C237 0.951 . S
H230 C238 0.951 . S
C231 C225 1.265 . S
C231 H226 0.950 . S
C231 C232 1.478 . S
C232 C231 1.478 . S
C232 C233 1.397 . S
C232 C249 1.394 . S
C233 C232 1.397 . S
C233 C234 1.438 1_565 S
C233 C238 1.429 . S
C234 C233 1.438 1_545 S
C234 C235 1.428 . S
C234 C247 1.394 . S
C235 H227 0.949 . S
C235 C234 1.428 . S
C235 C236 1.345 . S
C236 H228 0.950 . S
C236 C235 1.345 . S
C236 C237 1.424 1_545 S
C237 H229 0.951 . S
C237 C236 1.424 1_565 S
C237 C238 1.347 . S
C238 H230 0.951 . S
C238 C233 1.429 . S
C238 C237 1.347 . S
H239 C240 0.951 . S
C240 H239 0.951 . S
C240 C246 1.265 . S
H241 C246 0.950 . S
H242 C250 0.949 . S
H243 C251 0.950 . S
H244 C252 0.951 . S
H245 C253 0.951 . S
C246 C240 1.265 . S
C246 H241 0.950 . S
C246 C247 1.478 . S
C247 C234 1.394 . S
C247 C246 1.478 . S
C247 C248 1.397 . S
C248 C247 1.397 . S
C248 C249 1.438 1_545 S
C248 C253 1.429 . S
C249 C232 1.394 . S
C249 C248 1.438 1_565 S
C249 C250 1.428 . S
C250 H242 0.949 . S
C250 C249 1.428 . S
C250 C251 1.345 . S
C251 H243 0.950 . S
C251 C250 1.345 . S
C251 C252 1.424 1_565 S
C252 H244 0.951 . S
C252 C251 1.424 1_545 S
C252 C253 1.347 . S
C253 H245 0.951 . S
C253 C248 1.429 . S
C253 C252 1.347 . S
H254 C255 0.951 . S
C255 H254 0.951 . S
C255 C261 1.265 . S
H256 C261 0.950 . S
H257 C265 0.949 . S
H258 C266 0.950 . S
H259 C267 0.951 . S
H260 C268 0.951 . S
C261 C255 1.265 . S
C261 H256 0.950 . S
C261 C262 1.478 . S
C262 C261 1.478 . S
C262 C263 1.397 . S
C262 C279 1.394 . S
C263 C262 1.397 . S
C263 C264 1.438 1_455 S
C263 C268 1.429 . S
C264 C263 1.438 1_655 S
C264 C265 1.428 . S
C264 C277 1.394 . S
C265 H257 0.949 . S
C265 C264 1.428 . S
C265 C266 1.345 . S
C266 H258 0.950 . S
C266 C265 1.345 . S
C266 C267 1.424 1_655 S
C267 H259 0.951 . S
C267 C266 1.424 1_455 S
C267 C268 1.347 . S
C268 H260 0.951 . S
C268 C263 1.429 . S
C268 C267 1.347 . S
H269 C270 0.951 . S
C270 H269 0.951 . S
C270 C276 1.265 . S
H271 C276 0.950 . S
H272 C280 0.949 . S
H273 C281 0.950 . S
H274 C282 0.951 . S
H275 C283 0.951 . S
C276 C270 1.265 . S
C276 H271 0.950 . S
C276 C277 1.478 . S
C277 C264 1.394 . S
C277 C276 1.478 . S
C277 C278 1.397 . S
C278 C277 1.397 . S
C278 C279 1.438 1_655 S
C278 C283 1.429 . S
C279 C262 1.394 . S
C279 C278 1.438 1_455 S
C279 C280 1.428 . S
C280 H272 0.949 . S
C280 C279 1.428 . S
C280 C281 1.345 . S
C281 H273 0.950 . S
C281 C280 1.345 . S
C281 C282 1.424 1_455 S
C282 H274 0.951 . S
C282 C281 1.424 1_655 S
C282 C283 1.347 . S
C283 H275 0.951 . S
C283 C278 1.429 . S
C283 C282 1.347 . S
H284 C285 0.951 . S
C285 H284 0.951 . S
C285 C291 1.265 . S
H286 C291 0.950 . S
H287 C295 0.949 . S
H288 C296 0.950 . S
H289 C297 0.951 . S
H290 C298 0.951 . S
C291 C285 1.265 . S
C291 H286 0.950 . S
C291 C292 1.478 . S
C292 C291 1.478 . S
C292 C293 1.397 . S
C292 C309 1.394 . S
C293 C292 1.397 . S
C293 C294 1.438 1_545 S
C293 C298 1.429 . S
C294 C293 1.438 1_565 S
C294 C295 1.428 . S
C294 C307 1.394 . S
C295 H287 0.949 . S
C295 C294 1.428 . S
C295 C296 1.345 . S
C296 H288 0.950 . S
C296 C295 1.345 . S
C296 C297 1.424 1_565 S
C297 H289 0.951 . S
C297 C296 1.424 1_545 S
C297 C298 1.347 . S
C298 H290 0.951 . S
C298 C293 1.429 . S
C298 C297 1.347 . S
H299 C300 0.951 . S
C300 H299 0.951 . S
C300 C306 1.265 . S
H301 C306 0.950 . S
H302 C310 0.949 . S
H303 C311 0.950 . S
H304 C312 0.951 . S
H305 C313 0.951 . S
C306 C300 1.265 . S
C306 H301 0.950 . S
C306 C307 1.478 . S
C307 C294 1.394 . S
C307 C306 1.478 . S
C307 C308 1.397 . S
C308 C307 1.397 . S
C308 C309 1.438 1_565 S
C308 C313 1.429 . S
C309 C292 1.394 . S
C309 C308 1.438 1_545 S
C309 C310 1.428 . S
C310 H302 0.949 . S
C310 C309 1.428 . S
C310 C311 1.345 . S
C311 H303 0.950 . S
C311 C310 1.345 . S
C311 C312 1.424 1_545 S
C312 H304 0.951 . S
C312 C311 1.424 1_565 S
C312 C313 1.347 . S
C313 H305 0.951 . S
C313 C308 1.429 . S
C313 C312 1.347 . S
H314 C315 0.951 . S
C315 H314 0.951 . S
C315 C321 1.265 . S
H316 C321 0.950 . S
H317 C325 0.949 . S
H318 C326 0.950 . S
H319 C327 0.951 . S
H320 C328 0.951 . S
C321 C315 1.265 . S
C321 H316 0.950 . S
C321 C322 1.478 . S
C322 C321 1.478 . S
C322 C323 1.397 . S
C322 C339 1.394 . S
C323 C322 1.397 . S
C323 C324 1.438 1_655 S
C323 C328 1.429 . S
C324 C323 1.438 1_455 S
C324 C325 1.428 . S
C324 C337 1.394 . S
C325 H317 0.949 . S
C325 C324 1.428 . S
C325 C326 1.345 . S
C326 H318 0.950 . S
C326 C325 1.345 . S
C326 C327 1.424 1_455 S
C327 H319 0.951 . S
C327 C326 1.424 1_655 S
C327 C328 1.347 . S
C328 H320 0.951 . S
C328 C323 1.429 . S
C328 C327 1.347 . S
H329 C330 0.951 . S
C330 H329 0.951 . S
C330 C336 1.265 . S
H331 C336 0.950 . S
H332 C340 0.949 . S
H333 C341 0.950 . S
H334 C342 0.951 . S
H335 C343 0.951 . S
C336 C330 1.265 . S
C336 H331 0.950 . S
C336 C337 1.478 . S
C337 C324 1.394 . S
C337 C336 1.478 . S
C337 C338 1.397 . S
C338 C337 1.397 . S
C338 C339 1.438 1_455 S
C338 C343 1.429 . S
C339 C322 1.394 . S
C339 C338 1.438 1_655 S
C339 C340 1.428 . S
C340 H332 0.949 . S
C340 C339 1.428 . S
C340 C341 1.345 . S
C341 H333 0.950 . S
C341 C340 1.345 . S
C341 C342 1.424 1_655 S
C342 H334 0.951 . S
C342 C341 1.424 1_455 S
C342 C343 1.347 . S
C343 H335 0.951 . S
C343 C338 1.429 . S
C343 C342 1.347 . S
H344 C345 0.951 . S
C345 H344 0.951 . S
C345 C351 1.265 . S
H346 C351 0.950 . S
H347 C355 0.949 . S
H348 C356 0.950 . S
H349 C357 0.951 . S
H350 C358 0.951 . S
C351 C345 1.265 . S
C351 H346 0.950 . S
C351 C352 1.478 . S
C352 C351 1.478 . S
C352 C353 1.397 . S
C352 C369 1.394 . S
C353 C352 1.397 . S
C353 C354 1.438 . S
C353 C358 1.429 . S
C354 C353 1.438 . S
C354 C355 1.428 . S
C354 C367 1.394 . S
C355 H347 0.949 . S
C355 C354 1.428 . S
C355 C356 1.345 . S
C356 H348 0.950 . S
C356 C355 1.345 . S
C356 C357 1.424 . S
C357 H349 0.951 . S
C357 C356 1.424 . S
C357 C358 1.347 . S
C358 H350 0.951 . S
C358 C353 1.429 . S
C358 C357 1.347 . S
H359 C360 0.951 . S
C360 H359 0.951 . S
C360 C366 1.265 . S
H361 C366 0.950 . S
H362 C370 0.949 . S
H363 C371 0.950 . S
H364 C372 0.951 . S
H365 C373 0.951 . S
C366 C360 1.265 . S
C366 H361 0.950 . S
C366 C367 1.478 . S
C367 C354 1.394 . S
C367 C366 1.478 . S
C367 C368 1.397 . S
C368 C367 1.397 . S
C368 C369 1.438 . S
C368 C373 1.429 . S
C369 C352 1.394 . S
C369 C368 1.438 . S
C369 C370 1.428 . S
C370 H362 0.949 . S
C370 C369 1.428 . S
C370 C371 1.345 . S
C371 H363 0.950 . S
C371 C370 1.345 . S
C371 C372 1.424 . S
C372 H364 0.951 . S
C372 C371 1.424 . S
C372 C373 1.347 . S
C373 H365 0.951 . S
C373 C368 1.429 . S
C373 C372 1.347 . S
H374 C375 0.951 . S
C375 H374 0.951 . S
C375 C381 1.265 . S
H376 C381 0.950 . S
H377 C385 0.949 . S
H378 C386 0.950 . S
H379 C387 0.951 . S
H380 C388 0.951 . S
C381 C375 1.265 . S
C381 H376 0.950 . S
C381 C382 1.478 . S
C382 C381 1.478 . S
C382 C383 1.397 . S
C382 C399 1.394 . S
C383 C382 1.397 . S
C383 C384 1.438 . S
C383 C388 1.429 . S
C384 C383 1.438 . S
C384 C385 1.428 . S
C384 C397 1.394 . S
C385 H377 0.949 . S
C385 C384 1.428 . S
C385 C386 1.345 . S
C386 H378 0.950 . S
C386 C385 1.345 . S
C386 C387 1.424 . S
C387 H379 0.951 . S
C387 C386 1.424 . S
C387 C388 1.347 . S
C388 H380 0.951 . S
C388 C383 1.429 . S
C388 C387 1.347 . S
H389 C390 0.951 . S
C390 H389 0.951 . S
C390 C396 1.265 . S
H391 C396 0.950 . S
H392 C400 0.949 . S
H393 C401 0.950 . S
H394 C402 0.951 . S
H395 C403 0.951 . S
C396 C390 1.265 . S
C396 H391 0.950 . S
C396 C397 1.478 . S
C397 C384 1.394 . S
C397 C396 1.478 . S
C397 C398 1.397 . S
C398 C397 1.397 . S
C398 C399 1.438 . S
C398 C403 1.429 . S
C399 C382 1.394 . S
C399 C398 1.438 . S
C399 C400 1.428 . S
C400 H392 0.949 . S
C400 C399 1.428 . S
C400 C401 1.345 . S
C401 H393 0.950 . S
C401 C400 1.345 . S
C401 C402 1.424 . S
C402 H394 0.951 . S
C402 C401 1.424 . S
C402 C403 1.347 . S
C403 H395 0.951 . S
C403 C398 1.429 . S
C403 C402 1.347 . S
H404 C405 0.951 . S
C405 H404 0.951 . S
C405 C411 1.265 . S
H406 C411 0.950 . S
H407 C415 0.949 . S
H408 C416 0.950 . S
H409 C417 0.951 . S
H410 C418 0.951 . S
C411 C405 1.265 . S
C411 H406 0.950 . S
C411 C412 1.478 . S
C412 C411 1.478 . S
C412 C413 1.397 . S
C412 C429 1.394 . S
C413 C412 1.397 . S
C413 C414 1.438 . S
C413 C418 1.429 . S
C414 C413 1.438 . S
C414 C415 1.428 . S
C414 C427 1.394 . S
C415 H407 0.949 . S
C415 C414 1.428 . S
C415 C416 1.345 . S
C416 H408 0.950 . S
C416 C415 1.345 . S
C416 C417 1.424 . S
C417 H409 0.951 . S
C417 C416 1.424 . S
C417 C418 1.347 . S
C418 H410 0.951 . S
C418 C413 1.429 . S
C418 C417 1.347 . S
H419 C420 0.951 . S
C420 H419 0.951 . S
C420 C426 1.265 . S
H421 C426 0.950 . S
H422 C430 0.949 . S
H423 C431 0.950 . S
H424 C432 0.951 . S
H425 C433 0.951 . S
C426 C420 1.265 . S
C426 H421 0.950 . S
C426 C427 1.478 . S
C427 C414 1.394 . S
C427 C426 1.478 . S
C427 C428 1.397 . S
C428 C427 1.397 . S
C428 C429 1.438 . S
C428 C433 1.429 . S
C429 C412 1.394 . S
C429 C428 1.438 . S
C429 C430 1.428 . S
C430 H422 0.949 . S
C430 C429 1.428 . S
C430 C431 1.345 . S
C431 H423 0.950 . S
C431 C430 1.345 . S
C431 C432 1.424 . S
C432 H424 0.951 . S
C432 C431 1.424 . S
C432 C433 1.347 . S
C433 H425 0.951 . S
C433 C428 1.429 . S
C433 C432 1.347 . S
H434 C435 0.951 . S
C435 H434 0.951 . S
C435 C441 1.265 . S
H436 C441 0.950 . S
H437 C445 0.949 . S
H438 C446 0.950 . S
H439 C447 0.951 . S
H440 C448 0.951 . S
C441 C435 1.265 . S
C441 H436 0.950 . S
C441 C442 1.478 . S
C442 C441 1.478 . S
C442 C443 1.397 . S
C442 C459 1.394 . S
C443 C442 1.397 . S
C443 C444 1.438 . S
C443 C448 1.429 . S
C444 C443 1.438 . S
C444 C445 1.428 . S
C444 C457 1.394 . S
C445 H437 0.949 . S
C445 C444 1.428 . S
C445 C446 1.345 . S
C446 H438 0.950 . S
C446 C445 1.345 . S
C446 C447 1.424 . S
C447 H439 0.951 . S
C447 C446 1.424 . S
C447 C448 1.347 . S
C448 H440 0.951 . S
C448 C443 1.429 . S
C448 C447 1.347 . S
H449 C450 0.951 . S
C450 H449 0.951 . S
C450 C456 1.265 . S
H451 C456 0.950 . S
H452 C460 0.949 . S
H453 C461 0.950 . S
H454 C462 0.951 . S
H455 C463 0.951 . S
C456 C450 1.265 . S
C456 H451 0.950 . S
C456 C457 1.478 . S
C457 C444 1.394 . S
C457 C456 1.478 . S
C457 C458 1.397 . S
C458 C457 1.397 . S
C458 C459 1.438 . S
C458 C463 1.429 . S
C459 C442 1.394 . S
C459 C458 1.438 . S
C459 C460 1.428 . S
C460 H452 0.949 . S
C460 C459 1.428 . S
C460 C461 1.345 . S
C461 H453 0.950 . S
C461 C460 1.345 . S
C461 C462 1.424 . S
C462 H454 0.951 . S
C462 C461 1.424 . S
C462 C463 1.347 . S
C463 H455 0.951 . S
C463 C458 1.429 . S
C463 C462 1.347 . S
H464 C465 0.951 . S
C465 H464 0.951 . S
C465 C471 1.265 . S
H466 C471 0.950 . S
H467 C475 0.949 . S
H468 C476 0.950 . S
H469 C477 0.951 . S
H470 C478 0.951 . S
C471 C465 1.265 . S
C471 H466 0.950 . S
C471 C472 1.478 . S
C472 C471 1.478 . S
C472 C473 1.397 . S
C472 C489 1.394 . S
C473 C472 1.397 . S
C473 C474 1.438 . S
C473 C478 1.429 . S
C474 C473 1.438 . S
C474 C475 1.428 . S
C474 C487 1.394 . S
C475 H467 0.949 . S
C475 C474 1.428 . S
C475 C476 1.345 . S
C476 H468 0.950 . S
C476 C475 1.345 . S
C476 C477 1.424 . S
C477 H469 0.951 . S
C477 C476 1.424 . S
C477 C478 1.347 . S
C478 H470 0.951 . S
C478 C473 1.429 . S
C478 C477 1.347 . S
H479 C480 0.951 . S
C480 H479 0.951 . S
C480 C486 1.265 . S
H481 C486 0.950 . S
H482 C490 0.949 . S
H483 C491 0.950 . S
H484 C492 0.951 . S
H485 C493 0.951 . S
C486 C480 1.265 . S
C486 H481 0.950 . S
C486 C487 1.478 . S
C487 C474 1.394 . S
C487 C486 1.478 . S
C487 C488 1.397 . S
C488 C487 1.397 . S
C488 C489 1.438 . S
C488 C493 1.429 . S
C489 C472 1.394 . S
C489 C488 1.438 . S
C489 C490 1.428 . S
C490 H482 0.949 . S
C490 C489 1.428 . S
C490 C491 1.345 . S
C491 H483 0.950 . S
C491 C490 1.345 . S
C491 C492 1.424 . S
C492 H484 0.951 . S
C492 C491 1.424 . S
C492 C493 1.347 . S
C493 H485 0.951 . S
C493 C488 1.429 . S
C493 C492 1.347 . S
H494 C495 0.951 . S
C495 H494 0.951 . S
C495 C501 1.265 . S
H496 C501 0.950 . S
H497 C505 0.949 . S
H498 C506 0.950 . S
H499 C507 0.951 . S
H500 C508 0.951 . S
C501 C495 1.265 . S
C501 H496 0.950 . S
C501 C502 1.478 . S
C502 C501 1.478 . S
C502 C503 1.397 . S
C502 C519 1.394 . S
C503 C502 1.397 . S
C503 C504 1.438 . S
C503 C508 1.429 . S
C504 C503 1.438 . S
C504 C505 1.428 . S
C504 C517 1.394 . S
C505 H497 0.949 . S
C505 C504 1.428 . S
C505 C506 1.345 . S
C506 H498 0.950 . S
C506 C505 1.345 . S
C506 C507 1.424 . S
C507 H499 0.951 . S
C507 C506 1.424 . S
C507 C508 1.347 . S
C508 H500 0.951 . S
C508 C503 1.429 . S
C508 C507 1.347 . S
H509 C510 0.951 . S
C510 H509 0.951 . S
C510 C516 1.265 . S
H511 C516 0.950 . S
H512 C520 0.949 . S
H513 C521 0.950 . S
H514 C522 0.951 . S
H515 C523 0.951 . S
C516 C510 1.265 . S
C516 H511 0.950 . S
C516 C517 1.478 . S
C517 C504 1.394 . S
C517 C516 1.478 . S
C517 C518 1.397 . S
C518 C517 1.397 . S
C518 C519 1.438 . S
C518 C523 1.429 . S
C519 C502 1.394 . S
C519 C518 1.438 . S
C519 C520 1.428 . S
C520 H512 0.949 . S
C520 C519 1.428 . S
C520 C521 1.345 . S
C521 H513 0.950 . S
C521 C520 1.345 . S
C521 C522 1.424 . S
C522 H514 0.951 . S
C522 C521 1.424 . S
C522 C523 1.347 . S
C523 H515 0.951 . S
C523 C518 1.429 . S
C523 C522 1.347 . S
H524 C525 0.951 . S
C525 H524 0.951 . S
C525 C531 1.265 . S
H526 C531 0.950 . S
H527 C535 0.949 . S
H528 C536 0.950 . S
H529 C537 0.951 . S
H530 C538 0.951 . S
C531 C525 1.265 . S
C531 H526 0.950 . S
C531 C532 1.478 . S
C532 C531 1.478 . S
C532 C533 1.397 . S
C532 C549 1.394 . S
C533 C532 1.397 . S
C533 C534 1.438 . S
C533 C538 1.429 . S
C534 C533 1.438 . S
C534 C535 1.428 . S
C534 C547 1.394 . S
C535 H527 0.949 . S
C535 C534 1.428 . S
C535 C536 1.345 . S
C536 H528 0.950 . S
C536 C535 1.345 . S
C536 C537 1.424 . S
C537 H529 0.951 . S
C537 C536 1.424 . S
C537 C538 1.347 . S
C538 H530 0.951 . S
C538 C533 1.429 . S
C538 C537 1.347 . S
H539 C540 0.951 . S
C540 H539 0.951 . S
C540 C546 1.265 . S
H541 C546 0.950 . S
H542 C550 0.949 . S
H543 C551 0.950 . S
H544 C552 0.951 . S
H545 C553 0.951 . S
C546 C540 1.265 . S
C546 H541 0.950 . S
C546 C547 1.478 . S
C547 C534 1.394 . S
C547 C546 1.478 . S
C547 C548 1.397 . S
C548 C547 1.397 . S
C548 C549 1.438 . S
C548 C553 1.429 . S
C549 C532 1.394 . S
C549 C548 1.438 . S
C549 C550 1.428 . S
C550 H542 0.949 . S
C550 C549 1.428 . S
C550 C551 1.345 . S
C551 H543 0.950 . S
C551 C550 1.345 . S
C551 C552 1.424 . S
C552 H544 0.951 . S
C552 C551 1.424 . S
C552 C553 1.347 . S
C553 H545 0.951 . S
C553 C548 1.429 . S
C553 C552 1.347 . S
H554 C555 0.951 . S
C555 H554 0.951 . S
C555 C561 1.265 . S
H556 C561 0.950 . S
H557 C565 0.949 . S
H558 C566 0.950 . S
H559 C567 0.951 . S
H560 C568 0.951 . S
C561 C555 1.265 . S
C561 H556 0.950 . S
C561 C562 1.478 . S
C562 C561 1.478 . S
C562 C563 1.397 . S
C562 C579 1.394 . S
C563 C562 1.397 . S
C563 C564 1.438 . S
C563 C568 1.429 . S
C564 C563 1.438 . S
C564 C565 1.428 . S
C564 C577 1.394 . S
C565 H557 0.949 . S
C565 C564 1.428 . S
C565 C566 1.345 . S
C566 H558 0.950 . S
C566 C565 1.345 . S
C566 C567 1.424 . S
C567 H559 0.951 . S
C567 C566 1.424 . S
C567 C568 1.347 . S
C568 H560 0.951 . S
C568 C563 1.429 . S
C568 C567 1.347 . S
H569 C570 0.951 . S
C570 H569 0.951 . S
C570 C576 1.265 . S
H571 C576 0.950 . S
H572 C580 0.949 . S
H573 C581 0.950 . S
H574 C582 0.951 . S
H575 C583 0.951 . S
C576 C570 1.265 . S
C576 H571 0.950 . S
C576 C577 1.478 . S
C577 C564 1.394 . S
C577 C576 1.478 . S
C577 C578 1.397 . S
C578 C577 1.397 . S
C578 C579 1.438 . S
C578 C583 1.429 . S
C579 C562 1.394 . S
C579 C578 1.438 . S
C579 C580 1.428 . S
C580 H572 0.949 . S
C580 C579 1.428 . S
C580 C581 1.345 . S
C581 H573 0.950 . S
C581 C580 1.345 . S
C581 C582 1.424 . S
C582 H574 0.951 . S
C582 C581 1.424 . S
C582 C583 1.347 . S
C583 H575 0.951 . S
C583 C578 1.429 . S
C583 C582 1.347 . S
C105 C5 1.382 . S
C120 C44 1.459 . S
C135 C10 1.471 . S
C150 C23 1.471 . S
C165 C18 1.461 . S
C180 C31 1.383 . S
C195 C49 1.471 . S
C210 C36 1.472 . S
C225 C57 1.462 . S
C240 C96 1.384 . S
C255 C75 1.472 . S
C270 C62 1.472 . S
C285 C83 1.462 . S
C300 C70 1.385 . S
C315 C101 1.471 . S
C330 C88 1.471 . S
C345 C86 1.380 . S
C360 C0 1.354 . S
C375 C21 1.394 . S
C390 C91 1.353 . S
C405 C60 1.421 . S
C420 C26 1.408 . S
C435 C65 1.390 . S
C450 C47 1.353 . S
C465 C73 1.389 . S
C480 C39 1.426 . S
C495 C8 1.367 . S
C510 C78 1.361 . S
C525 C13 1.354 . S
C540 C99 1.382 . S
C555 C34 1.361 . S
C570 C52 1.368 . S
