# Generated by pormake.
# Topology zfg, (5)-cn, num edge types: 1
# Building blocks:
#     Node 0, Type 0, BuildingBlock: XOMCOT_clean_sbu_1, # of connection points: 5
#     Node 1, Type 0, BuildingBlock: XOMCOT_clean_sbu_1, # of connection points: 5
#     Node 2, Type 0, BuildingBlock: XOMCOT_clean_sbu_1, # of connection points: 5
#     Node 3, Type 0, BuildingBlock: XOMCOT_clean_sbu_1, # of connection points: 5
#     Node 4, Type 0, BuildingBlock: XOMCOT_clean_sbu_1, # of connection points: 5
#     Node 5, Type 0, BuildingBlock: XOMCOT_clean_sbu_1, # of connection points: 5
#     Node 6, Type 0, BuildingBlock: XOMCOT_clean_sbu_1, # of connection points: 5
#     Node 7, Type 0, BuildingBlock: XOMCOT_clean_sbu_1, # of connection points: 5
#     Node 8, Type 0, BuildingBlock: XOMCOT_clean_sbu_1, # of connection points: 5
#     Node 9, Type 0, BuildingBlock: XOMCOT_clean_sbu_1, # of connection points: 5
#     Node 10, Type 0, BuildingBlock: XOMCOT_clean_sbu_1, # of connection points: 5
#     Node 11, Type 0, BuildingBlock: XOMCOT_clean_sbu_1, # of connection points: 5
#     Node 12, Type 0, BuildingBlock: XOMCOT_clean_sbu_1, # of connection points: 5
#     Node 13, Type 0, BuildingBlock: XOMCOT_clean_sbu_1, # of connection points: 5
#     Node 14, Type 0, BuildingBlock: XOMCOT_clean_sbu_1, # of connection points: 5
#     Node 15, Type 0, BuildingBlock: XOMCOT_clean_sbu_1, # of connection points: 5
#     Edge 16, Type (0, 0), BuildingBlock: TEMPAE_clean_linker_10, # of connection points: 2
#     Edge 17, Type (0, 0), BuildingBlock: TEMPAE_clean_linker_10, # of connection points: 2
#     Edge 18, Type (0, 0), BuildingBlock: TEMPAE_clean_linker_10, # of connection points: 2
#     Edge 19, Type (0, 0), BuildingBlock: TEMPAE_clean_linker_10, # of connection points: 2
#     Edge 20, Type (0, 0), BuildingBlock: TEMPAE_clean_linker_10, # of connection points: 2
#     Edge 21, Type (0, 0), BuildingBlock: TEMPAE_clean_linker_10, # of connection points: 2
#     Edge 22, Type (0, 0), BuildingBlock: TEMPAE_clean_linker_10, # of connection points: 2
#     Edge 23, Type (0, 0), BuildingBlock: TEMPAE_clean_linker_10, # of connection points: 2
#     Edge 24, Type (0, 0), BuildingBlock: TEMPAE_clean_linker_10, # of connection points: 2
#     Edge 25, Type (0, 0), BuildingBlock: TEMPAE_clean_linker_10, # of connection points: 2
#     Edge 26, Type (0, 0), BuildingBlock: TEMPAE_clean_linker_10, # of connection points: 2
#     Edge 27, Type (0, 0), BuildingBlock: TEMPAE_clean_linker_10, # of connection points: 2
#     Edge 28, Type (0, 0), BuildingBlock: TEMPAE_clean_linker_10, # of connection points: 2
#     Edge 29, Type (0, 0), BuildingBlock: TEMPAE_clean_linker_10, # of connection points: 2
#     Edge 30, Type (0, 0), BuildingBlock: TEMPAE_clean_linker_10, # of connection points: 2
#     Edge 31, Type (0, 0), BuildingBlock: TEMPAE_clean_linker_10, # of connection points: 2
#     Edge 32, Type (0, 0), BuildingBlock: TEMPAE_clean_linker_10, # of connection points: 2
#     Edge 33, Type (0, 0), BuildingBlock: TEMPAE_clean_linker_10, # of connection points: 2
#     Edge 34, Type (0, 0), BuildingBlock: TEMPAE_clean_linker_10, # of connection points: 2
#     Edge 35, Type (0, 0), BuildingBlock: TEMPAE_clean_linker_10, # of connection points: 2
#     Edge 36, Type (0, 0), BuildingBlock: TEMPAE_clean_linker_10, # of connection points: 2
#     Edge 37, Type (0, 0), BuildingBlock: TEMPAE_clean_linker_10, # of connection points: 2
#     Edge 38, Type (0, 0), BuildingBlock: TEMPAE_clean_linker_10, # of connection points: 2
#     Edge 39, Type (0, 0), BuildingBlock: TEMPAE_clean_linker_10, # of connection points: 2
#     Edge 40, Type (0, 0), BuildingBlock: TEMPAE_clean_linker_10, # of connection points: 2
#     Edge 41, Type (0, 0), BuildingBlock: TEMPAE_clean_linker_10, # of connection points: 2
#     Edge 42, Type (0, 0), BuildingBlock: TEMPAE_clean_linker_10, # of connection points: 2
#     Edge 43, Type (0, 0), BuildingBlock: TEMPAE_clean_linker_10, # of connection points: 2
#     Edge 44, Type (0, 0), BuildingBlock: TEMPAE_clean_linker_10, # of connection points: 2
#     Edge 45, Type (0, 0), BuildingBlock: TEMPAE_clean_linker_10, # of connection points: 2
#     Edge 46, Type (0, 0), BuildingBlock: TEMPAE_clean_linker_10, # of connection points: 2
#     Edge 47, Type (0, 0), BuildingBlock: TEMPAE_clean_linker_10, # of connection points: 2
#     Edge 48, Type (0, 0), BuildingBlock: TEMPAE_clean_linker_10, # of connection points: 2
#     Edge 49, Type (0, 0), BuildingBlock: TEMPAE_clean_linker_10, # of connection points: 2
#     Edge 50, Type (0, 0), BuildingBlock: TEMPAE_clean_linker_10, # of connection points: 2
#     Edge 51, Type (0, 0), BuildingBlock: TEMPAE_clean_linker_10, # of connection points: 2
#     Edge 52, Type (0, 0), BuildingBlock: TEMPAE_clean_linker_10, # of connection points: 2
#     Edge 53, Type (0, 0), BuildingBlock: TEMPAE_clean_linker_10, # of connection points: 2
#     Edge 54, Type (0, 0), BuildingBlock: TEMPAE_clean_linker_10, # of connection points: 2
#     Edge 55, Type (0, 0), BuildingBlock: TEMPAE_clean_linker_10, # of connection points: 2
# Relax obj value: 0.101
# Max RMSD: 0.138
# Mean RMSD: 0.138
data_MOF--net-zfg--node1-XOMCOT_clean_sbu_1--edge1-TEMPAE_clean_linker_10
_symmetry_space_group_name_H-M    P1
_symmetry_Int_Tables_number       1
_symmetry_cell_setting            triclinic
loop_
_symmetry_equiv_pos_as_xyz
'x, y, z'
_cell_length_a     42.926128
_cell_length_b     42.809503
_cell_length_c     53.384124
_cell_angle_alpha  90.113894
_cell_angle_beta   90.116594
_cell_angle_gamma 89.960252
loop_
_atom_site_label
_atom_site_type_symbol
_atom_site_fract_x
_atom_site_fract_y
_atom_site_fract_z
_atom_type_partial_charge
C0 C 0.05394 0.25429 0.19959 0.0
C1 C 0.07243 0.22829 0.19756 0.0
N2 N 0.08824 0.22987 0.17579 0.0
N3 N 0.05785 0.2723 0.17923 0.0
C4 C 0.07887 0.25689 0.16497 0.0
H5 H 0.03802 0.25947 0.21471 0.0
Co6 Co 0.03499 0.30846 0.17464 0.0
C7 C 0.04384 0.32894 0.122 0.0
O8 O 0.01473 0.33838 0.12241 0.0
N9 N 0.01131 0.34567 0.17116 0.0
C10 C 0.97357 0.38102 0.16656 0.0
C11 C 0.98006 0.34989 0.17005 0.0
C12 C 0.02311 0.3749 0.16893 0.0
N13 N 1.00067 0.39664 0.1659 0.0
O14 O 0.06647 0.3316 0.19291 0.0
H15 H 0.9627 0.3318 0.17115 0.0
H16 H 0.04778 0.38008 0.16861 0.0
O17 O 0.05562 0.31617 0.14163 0.0
C18 C 0.05739 0.33484 0.21558 0.0
O19 O 0.02996 0.32355 0.22164 0.0
N20 N 0.00343 0.28395 0.15997 0.0
C21 C 0.95632 0.24132 0.14849 0.0
C22 C 0.97882 0.24909 0.13056 0.0
C23 C 0.00285 0.26985 0.13693 0.0
C24 C 0.9822 0.27577 0.17771 0.0
C25 C 0.9583 0.25487 0.17232 0.0
H26 H 0.02141 0.27323 0.12366 0.0
H27 H 0.98404 0.28559 0.19634 0.0
H28 H 0.08704 0.26521 0.14706 0.0
H29 H 0.07339 0.20927 0.21086 0.0
H30 H 0.95068 0.39143 0.16471 0.0
H31 H 0.97859 0.23821 0.11223 0.0
H32 H 0.94154 0.24923 0.18677 0.0
C33 C 0.74074 0.08734 0.19141 0.0
C34 C 0.76357 0.10926 0.18808 0.0
N35 N 0.76934 0.11161 0.1634 0.0
N36 N 0.73175 0.07611 0.16893 0.0
C37 C 0.74994 0.09107 0.1521 0.0
H38 H 0.73148 0.07984 0.20921 0.0
Co39 Co 0.70072 0.04626 0.16593 0.0
C40 C 0.67764 0.04728 0.11318 0.0
O41 O 0.67252 0.01718 0.11533 0.0
N42 N 0.66871 0.01584 0.16411 0.0
C43 C 0.64015 0.97233 0.16337 0.0
C44 C 0.66987 0.98426 0.16518 0.0
C45 C 0.63795 0.02236 0.1621 0.0
N46 N 0.62019 0.99643 0.16158 0.0
O47 O 0.67216 0.0746 0.18287 0.0
H48 H 0.69073 0.9704 0.16704 0.0
H49 H 0.62869 0.04578 0.16041 0.0
O50 O 0.68926 0.06246 0.13182 0.0
C51 C 0.66814 0.06562 0.20551 0.0
O52 O 0.68171 0.03961 0.21275 0.0
N53 N 0.73031 0.01826 0.15285 0.0
C54 C 0.77631 0.97375 0.14314 0.0
C55 C 0.76463 0.99259 0.1238 0.0
C56 C 0.7421 0.01536 0.12916 0.0
C57 C 0.74272 1.00131 0.17197 0.0
C58 C 0.76542 0.97874 0.16754 0.0
H59 H 0.73491 0.03075 0.11431 0.0
H60 H 0.73423 0.0049 0.19083 0.0
H61 H 0.74894 0.08714 0.13208 0.0
H62 H 0.77563 0.12199 0.20271 0.0
H63 H 0.63366 0.9479 0.16371 0.0
H64 H 0.77321 0.9901 0.10483 0.0
H65 H 0.77382 0.9648 0.18307 0.0
C66 C 0.92301 0.74758 0.18443 0.0
C67 C 0.90234 0.77187 0.18269 0.0
N68 N 0.90119 0.78125 0.15865 0.0
N69 N 0.93476 0.74132 0.16157 0.0
C70 C 0.92127 0.7625 0.14618 0.0
H71 H 0.92941 0.7356 0.20147 0.0
Co72 Co 0.9638 0.7098 0.15569 0.0
C73 C 0.92473 0.68925 0.11114 0.0
O74 O 0.90466 0.67312 0.12439 0.0
N75 N 0.99265 0.67766 0.15022 0.0
C76 C 0.03494 0.64767 0.15221 0.0
C77 C 0.02375 0.67778 0.15413 0.0
C78 C 0.98553 0.64739 0.14599 0.0
N79 N 0.01071 0.62866 0.14741 0.0
O80 O 0.93595 0.68021 0.17165 0.0
H81 H 0.03712 0.69807 0.15965 0.0
H82 H 0.96197 0.63887 0.14359 0.0
O83 O 0.94713 0.70333 0.1221 0.0
C84 C 0.94659 0.67449 0.1936 0.0
O85 O 0.97278 0.68803 0.20037 0.0
N86 N 0.99197 0.73919 0.14301 0.0
C87 C 0.03887 0.78172 0.13128 0.0
C88 C 0.03003 0.75857 0.11401 0.0
C89 C 0.00632 0.73748 0.12022 0.0
C90 C 1.0004 0.76147 0.15996 0.0
C91 C 0.02344 0.7832 0.15436 0.0
H92 H 1.00071 0.71883 0.10733 0.0
H93 H 0.98982 0.76179 0.17832 0.0
H94 H 0.92603 0.76413 0.12632 0.0
H95 H 0.88971 0.78243 0.19807 0.0
H96 H 0.05852 0.64003 0.15604 0.0
H97 H 0.04176 0.75642 0.09614 0.0
H98 H 0.03012 0.80014 0.16848 0.0
C99 C 0.24843 0.95206 0.18089 0.0
C100 C 0.22292 0.93278 0.18028 0.0
N101 N 0.22176 0.91885 0.15764 0.0
N102 N 0.26343 0.95027 0.15881 0.0
C103 C 0.24657 0.92995 0.14489 0.0
H104 H 0.25562 0.96664 0.19642 0.0
Co105 Co 0.29947 0.97265 0.1527 0.0
C106 C 0.30984 0.97008 0.09825 0.0
O107 O 0.31658 0.99989 0.10008 0.0
N108 N 0.33726 0.99566 0.14737 0.0
C109 C 0.37393 0.03209 0.14199 0.0
C110 C 0.34253 0.02665 0.14413 0.0
C111 C 0.36626 0.98304 0.14698 0.0
N112 N 0.38877 0.00463 0.14401 0.0
O113 O 0.32319 0.93897 0.16753 0.0
H114 H 0.32508 0.04466 0.14287 0.0
H115 H 0.37108 0.95835 0.14882 0.0
O116 O 0.3027 0.95475 0.11809 0.0
C117 C 0.32894 0.94692 0.1902 0.0
O118 O 0.31921 0.97445 0.19786 0.0
N119 N 0.27441 0.00619 0.14208 0.0
C120 C 0.23432 0.05693 0.13595 0.0
C121 C 0.2341 0.03218 0.11868 0.0
C122 C 0.25409 0.00666 0.1223 0.0
C123 C 0.27281 0.02881 0.16002 0.0
C124 C 0.25375 0.05483 0.15696 0.0
H125 H 0.2524 0.987 0.10967 0.0
H126 H 0.28693 0.02677 0.17675 0.0
H127 H 0.25243 0.92315 0.12594 0.0
H128 H 0.2062 0.92965 0.19521 0.0
H129 H 0.38507 0.05461 0.13978 0.0
H130 H 0.21838 0.0324 0.10278 0.0
H131 H 0.25353 0.07275 0.17132 0.0
C132 C 0.53273 0.2575 0.36085 0.0
C133 C 0.54866 0.28519 0.35882 0.0
N134 N 0.57369 0.284 0.37409 0.0
N135 N 0.54759 0.23891 0.37732 0.0
C136 C 0.57255 0.25556 0.385 0.0
H137 H 0.51114 0.25157 0.35151 0.0
Co138 Co 0.53297 0.20035 0.38776 0.0
C139 C 0.57505 0.18431 0.43011 0.0
O140 O 0.584 0.15876 0.4185 0.0
N141 N 0.51788 0.16148 0.39846 0.0
C142 C 0.49762 0.12424 0.42234 0.0
C143 C 0.50475 0.15543 0.42089 0.0
C144 C 0.51846 0.13355 0.38665 0.0
N145 N 0.5064 0.11037 0.40079 0.0
O146 O 0.56628 0.18021 0.3692 0.0
H147 H 0.50102 0.17258 0.4355 0.0
H148 H 0.52841 0.13005 0.36832 0.0
O149 O 0.5567 0.20325 0.41897 0.0
C150 C 0.55659 0.1781 0.34655 0.0
O151 O 0.52844 0.18852 0.34158 0.0
N152 N 0.49919 0.22049 0.40282 0.0
C153 C 0.4474 0.25684 0.41479 0.0
C154 C 0.47622 0.26214 0.42655 0.0
C155 C 0.50198 0.24387 0.4201 0.0
C156 C 0.47118 0.21418 0.39195 0.0
C157 C 0.44492 0.23192 0.39777 0.0
H158 H 0.52449 0.24998 0.42767 0.0
H159 H 0.46962 0.19633 0.37763 0.0
H160 H 0.5894 0.24708 0.39846 0.0
H161 H 0.54172 0.30503 0.34758 0.0
H162 H 0.48687 0.11282 0.43817 0.0
H163 H 0.47922 0.28115 0.43975 0.0
H164 H 0.42342 0.22739 0.38777 0.0
C165 C 0.76321 0.57114 0.34031 0.0
C166 C 0.73997 0.59286 0.3429 0.0
N167 N 0.73396 0.5963 0.36748 0.0
N168 N 0.77213 0.56116 0.36314 0.0
C169 C 0.75363 0.57669 0.37944 0.0
H170 H 0.77283 0.56294 0.3228 0.0
Co171 Co 0.80345 0.53205 0.36756 0.0
C172 C 0.82074 0.53252 0.42144 0.0
O173 O 0.8241 0.50213 0.41936 0.0
N174 N 0.83598 0.50238 0.37104 0.0
C175 C 0.86619 0.46003 0.37306 0.0
C176 C 0.8363 0.47079 0.36945 0.0
C177 C 0.86607 0.51007 0.3753 0.0
N178 N 0.88478 0.48487 0.37657 0.0
O179 O 0.83247 0.56089 0.35211 0.0
H180 H 0.81645 0.45603 0.36595 0.0
H181 H 0.87413 0.53381 0.37788 0.0
O182 O 0.81213 0.54837 0.40217 0.0
C183 C 0.83743 0.55184 0.32958 0.0
O184 O 0.82438 0.52566 0.32208 0.0
N185 N 0.77361 0.50348 0.37892 0.0
C186 C 0.72939 0.45684 0.38619 0.0
C187 C 0.73618 0.4782 0.40542 0.0
C188 C 0.75819 0.5018 0.40127 0.0
C189 C 0.76491 0.48482 0.35946 0.0
C190 C 0.74345 0.46091 0.3628 0.0
H191 H 0.76232 0.51868 0.41592 0.0
H192 H 0.7757 0.48792 0.34134 0.0
H193 H 0.75456 0.57383 0.39956 0.0
H194 H 0.72779 0.60465 0.32786 0.0
H195 H 0.87377 0.43591 0.37264 0.0
H196 H 0.72486 0.47646 0.42348 0.0
H197 H 0.73785 0.44574 0.34716 0.0
C198 C 0.44157 0.74317 0.33903 0.0
C199 C 0.42183 0.71859 0.34315 0.0
N200 N 0.41018 0.72118 0.36651 0.0
N201 N 0.4425 0.76129 0.35963 0.0
C202 C 0.42322 0.74734 0.37616 0.0
H203 H 0.45514 0.74717 0.32231 0.0
Co204 Co 0.4687 0.79529 0.36164 0.0
C205 C 0.46854 0.81622 0.41463 0.0
O206 O 0.49826 0.82255 0.41167 0.0
N207 N 0.49551 0.83019 0.36233 0.0
C208 C 0.53436 0.86381 0.35672 0.0
C209 C 0.52557 0.83301 0.3552 0.0
C210 C 0.48652 0.85977 0.36759 0.0
N211 N 0.50974 0.88068 0.36455 0.0
O212 O 0.43754 0.82074 0.34515 0.0
H213 H 0.54028 0.81441 0.34851 0.0
H214 H 0.46324 0.86568 0.37372 0.0
O215 O 0.4528 0.80578 0.39589 0.0
C216 C 0.44494 0.82253 0.32199 0.0
O217 O 0.47035 0.80806 0.3146 0.0
N218 N 0.49965 0.76855 0.37461 0.0
C219 C 0.54581 0.72446 0.38476 0.0
C220 C 0.52462 0.73328 0.40339 0.0
C221 C 0.50092 0.75461 0.39766 0.0
C222 C 0.51898 0.75867 0.35602 0.0
C223 C 0.5425 0.73708 0.36073 0.0
H224 H 0.4832 0.75871 0.41153 0.0
H225 H 0.51591 0.76756 0.33723 0.0
H226 H 0.41906 0.75598 0.39491 0.0
H227 H 0.41728 0.6997 0.33015 0.0
H228 H 0.55693 0.87308 0.35166 0.0
H229 H 0.5257 0.72292 0.42187 0.0
H230 H 0.55803 0.73033 0.34568 0.0
C231 C 0.25852 0.45383 0.36656 0.0
C232 C 0.28328 0.43351 0.36661 0.0
N233 N 0.28055 0.41461 0.38664 0.0
N234 N 0.24025 0.44778 0.38644 0.0
C235 C 0.25424 0.42378 0.3984 0.0
H236 H 0.25404 0.47196 0.35294 0.0
Co237 Co 0.20396 0.4695 0.39285 0.0
C238 C 0.19194 0.46338 0.44696 0.0
O239 O 0.18481 0.49317 0.4465 0.0
N240 N 0.166 0.49182 0.39857 0.0
C241 C 0.12843 0.52715 0.40486 0.0
C242 C 0.15998 0.52251 0.40286 0.0
C243 C 0.13735 0.47856 0.39829 0.0
N244 N 0.11433 0.49947 0.40175 0.0
O245 O 0.18087 0.43672 0.37604 0.0
H246 H 0.17695 0.54083 0.40494 0.0
H247 H 0.13314 0.45388 0.3956 0.0
O248 O 0.20008 0.44954 0.42662 0.0
C249 C 0.17679 0.44594 0.35347 0.0
O250 O 0.188 0.47341 0.34721 0.0
N251 N 0.22841 0.50229 0.40552 0.0
C252 C 0.26845 0.55209 0.41499 0.0
C253 C 0.26867 0.52582 0.43061 0.0
C254 C 0.24864 0.50081 0.42532 0.0
C255 C 0.23007 0.52653 0.38909 0.0
C256 C 0.24906 0.55215 0.39391 0.0
H257 H 0.2504 0.47989 0.43649 0.0
H258 H 0.21617 0.52603 0.37217 0.0
H259 H 0.24515 0.4129 0.41513 0.0
H260 H 0.30208 0.43298 0.35313 0.0
H261 H 0.11672 0.54929 0.40766 0.0
H262 H 0.28455 0.52439 0.44636 0.0
H263 H 0.24944 0.57137 0.38073 0.0
C264 C 0.92882 0.74894 0.84795 0.0
C265 C 0.9081 0.7729 0.85143 0.0
N266 N 0.90163 0.77505 0.87607 0.0
N267 N 0.93543 0.73575 0.8702 0.0
C268 C 0.91877 0.75236 0.88714 0.0
H269 H 0.93878 0.74177 0.83027 0.0
Co270 Co 0.96294 0.70249 0.87274 0.0
C271 C 0.96004 0.67861 0.92545 0.0
O272 O 0.98921 0.66984 0.9232 0.0
N273 N 0.99106 0.66838 0.87404 0.0
C274 C 0.03315 0.6379 0.87386 0.0
C275 C 0.0225 0.66817 0.87241 0.0
C276 C 0.98325 0.63781 0.87589 0.0
N277 N 0.0084 0.61886 0.87601 0.0
O278 O 0.93268 0.67611 0.85571 0.0
H279 H 0.0371 0.68851 0.8704 0.0
H280 H 0.95954 0.62963 0.87792 0.0
O281 O 0.94638 0.69213 0.90692 0.0
C282 C 0.94135 0.67308 0.83288 0.0
O283 O 0.96782 0.68599 0.82616 0.0
N284 N 0.99308 0.73012 0.88562 0.0
C285 C 0.03975 0.7744 0.89368 0.0
C286 C 0.02307 0.76199 0.91393 0.0
C287 C 0.99912 0.74033 0.90944 0.0
C288 C 0.0085 0.74281 0.86583 0.0
C289 C 0.03193 0.76481 0.8694 0.0
H290 H 0.98542 0.7326 0.92509 0.0
H291 H 0.00272 0.73535 0.84702 0.0
H292 H 0.91914 0.74793 0.90707 0.0
H293 H 0.89906 0.78809 0.83695 0.0
H294 H 0.05724 0.63046 0.8732 0.0
H295 H 0.02804 0.76947 0.93291 0.0
H296 H 0.04421 0.77388 0.85327 0.0
C297 C 0.25686 0.92776 0.83651 0.0
C298 C 0.23174 0.90822 0.8389 0.0
N299 N 0.227 0.90292 0.86345 0.0
N300 N 0.26821 0.9346 0.85941 0.0
C301 C 0.2493 0.91939 0.87557 0.0
H302 H 0.26628 0.93651 0.81913 0.0
Co303 Co 0.30288 0.95986 0.8639 0.0
C304 C 0.32332 0.95392 0.91722 0.0
O305 O 0.3337 0.9827 0.91607 0.0
N306 N 0.33871 0.98576 0.86734 0.0
C307 C 0.37167 0.02572 0.87144 0.0
C308 C 0.34105 0.01731 0.86806 0.0
C309 C 0.36856 0.97574 0.86975 0.0
N310 N 0.38888 0.99954 0.87245 0.0
O311 O 0.3281 0.92822 0.84759 0.0
H312 H 0.32198 0.0336 0.86676 0.0
H313 H 0.37522 0.95137 0.87043 0.0
O314 O 0.31002 0.9416 0.898 0.0
C315 C 0.33386 0.9368 0.82511 0.0
O316 O 0.32407 0.96446 0.81787 0.0
N317 N 0.27661 0.99132 0.87636 0.0
C318 C 0.23549 0.04068 0.88516 0.0
C319 C 0.24294 0.01953 0.90435 0.0
C320 C 0.2634 0.99468 0.8995 0.0
C321 C 0.26795 0.01047 0.85723 0.0
C322 C 0.24797 0.03558 0.86128 0.0
H323 H 0.26776 0.97802 0.91419 0.0
H324 H 0.27727 0.00646 0.83868 0.0
H325 H 0.25196 0.92006 0.89572 0.0
H326 H 0.2177 0.89896 0.82374 0.0
H327 H 0.38065 0.04928 0.87296 0.0
H328 H 0.23309 0.02217 0.9229 0.0
H329 H 0.24197 0.05064 0.84571 0.0
C330 C 0.03441 0.23896 0.87288 0.0
C331 C 0.05057 0.21149 0.86989 0.0
N332 N 0.07743 0.21349 0.88297 0.0
N333 N 0.05086 0.25823 0.88784 0.0
C334 C 0.07702 0.2422 0.89362 0.0
H335 H 0.01178 0.24438 0.86506 0.0
Co336 Co 0.03751 0.29762 0.89813 0.0
C337 C 0.0821 0.31138 0.93946 0.0
O338 O 0.09371 0.33521 0.92714 0.0
N339 N 0.02402 0.33731 0.90854 0.0
C340 C 0.0085 0.37664 0.93268 0.0
C341 C 0.01512 0.34526 0.93192 0.0
C342 C 0.02217 0.36419 0.89535 0.0
N343 N 0.01296 0.38868 0.90963 0.0
O344 O 0.07105 0.3163 0.87929 0.0
H345 H 0.01416 0.32935 0.94761 0.0
H346 H 0.02758 0.36579 0.87565 0.0
O347 O 0.06154 0.29421 0.929 0.0
C348 C 0.06168 0.31744 0.85654 0.0
O349 O 0.03359 0.30685 0.85156 0.0
N350 N 0.00327 0.27902 0.91386 0.0
C351 C 0.95085 0.24347 0.92525 0.0
C352 C 0.97986 0.23636 0.93599 0.0
C353 C 0.00589 0.25448 0.93005 0.0
C354 C 0.97501 0.28719 0.90425 0.0
C355 C 0.9484 0.26994 0.90993 0.0
H356 H 0.02848 0.24717 0.93678 0.0
H357 H 0.97345 0.30598 0.89078 0.0
H358 H 0.09541 0.25146 0.90535 0.0
H359 H 0.0427 0.19134 0.85939 0.0
H360 H 0.00191 0.38962 0.94924 0.0
H361 H 0.98272 0.21598 0.94776 0.0
H362 H 0.92659 0.27588 0.90086 0.0
C363 C 0.75024 0.06987 0.85541 0.0
C364 C 0.77445 0.0906 0.85741 0.0
N365 N 0.77753 0.09898 0.88166 0.0
N366 N 0.73803 0.06487 0.87826 0.0
C367 C 0.75517 0.08284 0.89394 0.0
H368 H 0.74222 0.05881 0.83836 0.0
Co369 Co 0.70456 0.03821 0.88381 0.0
C370 C 0.68277 0.07785 0.92748 0.0
O371 O 0.6646 0.09576 0.91385 0.0
N372 N 0.67047 0.01148 0.88898 0.0
C373 C 0.63919 0.97002 0.88968 0.0
C374 C 0.66962 0.97996 0.88782 0.0
C375 C 0.64031 0.0201 0.89136 0.0
N376 N 0.62085 0.99539 0.89162 0.0
O377 O 0.67771 0.0679 0.86704 0.0
H378 H 0.68958 0.96509 0.8846 0.0
H379 H 0.63252 0.04414 0.89183 0.0
O380 O 0.69832 0.05599 0.91708 0.0
C381 C 0.67295 0.05792 0.84475 0.0
O382 O 0.68498 0.03078 0.83842 0.0
N383 N 0.7318 0.00827 0.89713 0.0
C384 C 0.77329 0.96036 0.90925 0.0
C385 C 0.75275 0.97233 0.92737 0.0
C386 C 0.73208 0.99648 0.92091 0.0
C387 C 0.7511 0.99637 0.87931 0.0
C388 C 0.77217 0.97276 0.885 0.0
H389 H 0.71562 0.00476 0.93467 0.0
H390 H 0.7496 0.00482 0.86028 0.0
H391 H 0.75116 0.08425 0.9139 0.0
H392 H 0.78898 0.09836 0.84211 0.0
H393 H 0.63101 0.94618 0.88811 0.0
H394 H 0.75251 0.96296 0.9462 0.0
H395 H 0.78679 0.96353 0.8702 0.0
C396 C 0.47559 0.74057 0.66014 0.0
C397 C 0.46034 0.71311 0.665 0.0
N398 N 0.42972 0.71766 0.66104 0.0
N399 N 0.45487 0.7623 0.65242 0.0
C400 C 0.42687 0.74796 0.65435 0.0
H401 H 0.50042 0.74413 0.66177 0.0
Co402 Co 0.46484 0.80319 0.64218 0.0
C403 C 0.42649 0.78031 0.59632 0.0
O404 O 0.42382 0.75107 0.6033 0.0
N405 N 0.47492 0.8439 0.63229 0.0
C406 C 0.4862 0.88425 0.60779 0.0
C407 C 0.48274 0.85241 0.60878 0.0
C408 C 0.47429 0.871 0.64538 0.0
N409 N 0.48078 0.89593 0.6308 0.0
O410 O 0.42981 0.819 0.66125 0.0
H411 H 0.48522 0.83648 0.59316 0.0
H412 H 0.4682 0.87265 0.66498 0.0
O413 O 0.44056 0.7999 0.61056 0.0
C414 C 0.43946 0.82022 0.68396 0.0
O415 O 0.4681 0.81083 0.68848 0.0
N416 N 0.50121 0.78822 0.62654 0.0
C417 C 0.55709 0.75648 0.61829 0.0
C418 C 0.5309 0.75069 0.60316 0.0
C419 C 0.50306 0.76673 0.60765 0.0
C420 C 0.52718 0.79625 0.63978 0.0
C421 C 0.55535 0.78067 0.63601 0.0
H422 H 0.4828 0.75988 0.5972 0.0
H423 H 0.5253 0.81294 0.65494 0.0
H424 H 0.40499 0.75902 0.6495 0.0
H425 H 0.47101 0.69131 0.67064 0.0
H426 H 0.49213 0.89779 0.59138 0.0
H427 H 0.53133 0.7326 0.58895 0.0
H428 H 0.57474 0.78585 0.64833 0.0
C429 C 0.24613 0.42835 0.70896 0.0
C430 C 0.271 0.40863 0.70581 0.0
N431 N 0.27619 0.40524 0.68108 0.0
N432 N 0.2354 0.43725 0.68635 0.0
C433 C 0.25438 0.42303 0.66962 0.0
H434 H 0.23653 0.43591 0.72666 0.0
Co435 Co 0.20151 0.46378 0.6831 0.0
C436 C 0.18359 0.46471 0.62937 0.0
O437 O 0.17697 0.49445 0.6324 0.0
N438 N 0.16638 0.49069 0.68099 0.0
C439 C 0.13291 0.53027 0.68413 0.0
C440 C 0.16346 0.5213 0.68684 0.0
C441 C 0.13699 0.48163 0.67515 0.0
N442 N 0.11621 0.50528 0.67677 0.0
O443 O 0.17516 0.43162 0.69706 0.0
H444 H 0.18185 0.53643 0.69326 0.0
H445 H 0.13108 0.45805 0.6696 0.0
O446 O 0.19428 0.44897 0.64797 0.0
C447 C 0.16884 0.43874 0.71978 0.0
O448 O 0.17917 0.46543 0.72872 0.0
N449 N 0.22883 0.49561 0.67298 0.0
C450 C 0.27234 0.54381 0.66813 0.0
C451 C 0.26534 0.52412 0.64776 0.0
C452 C 0.24389 0.49971 0.6507 0.0
C453 C 0.23683 0.51327 0.69322 0.0
C454 C 0.25779 0.53789 0.69112 0.0
H455 H 0.24043 0.48376 0.6353 0.0
H456 H 0.22632 0.5084 0.7112 0.0
H457 H 0.25219 0.42547 0.64952 0.0
H458 H 0.28466 0.39806 0.72062 0.0
H459 H 0.12363 0.55328 0.68802 0.0
H460 H 0.27701 0.52693 0.62994 0.0
H461 H 0.26237 0.55223 0.70744 0.0
C462 C 0.58513 0.24689 0.69085 0.0
C463 C 0.60641 0.26992 0.68588 0.0
N464 N 0.6052 0.27632 0.66124 0.0
N465 N 0.5708 0.23841 0.66939 0.0
C466 C 0.58325 0.25712 0.65161 0.0
H467 H 0.58036 0.23709 0.70906 0.0
Co468 Co 0.54097 0.207 0.66763 0.0
C469 C 0.54111 0.18294 0.61493 0.0
O470 O 0.51146 0.17613 0.61749 0.0
N471 N 0.51083 0.17472 0.66684 0.0
C472 C 0.46771 0.146 0.66869 0.0
C473 C 0.47962 0.17583 0.66983 0.0
C474 C 0.51723 0.1439 0.66432 0.0
N475 N 0.49146 0.12582 0.66521 0.0
O476 O 0.56991 0.17858 0.68391 0.0
H477 H 0.46608 0.19679 0.67262 0.0
H478 H 0.54059 0.13501 0.66185 0.0
O479 O 0.5559 0.19552 0.63331 0.0
C480 C 0.56137 0.17562 0.70676 0.0
O481 O 0.53636 0.1908 0.71413 0.0
N482 N 0.51209 0.23634 0.65537 0.0
C483 C 0.46595 0.28147 0.64817 0.0
C484 C 0.48162 0.26839 0.62762 0.0
C485 C 0.50527 0.24628 0.63164 0.0
C486 C 0.49797 0.24991 0.67546 0.0
C487 C 0.47481 0.27232 0.67233 0.0
H488 H 0.51799 0.23782 0.61568 0.0
H489 H 0.50435 0.2426 0.69416 0.0
H490 H 0.57661 0.25653 0.63204 0.0
H491 H 0.62126 0.28156 0.6994 0.0
H492 H 0.44333 0.13989 0.66995 0.0
H493 H 0.47591 0.27549 0.60869 0.0
H494 H 0.46333 0.2818 0.68872 0.0
C495 C 0.74293 0.5585 0.6762 0.0
C496 C 0.71833 0.5791 0.67582 0.0
N497 N 0.72327 0.60001 0.65741 0.0
N498 N 0.76335 0.56642 0.65817 0.0
C499 C 0.75078 0.59182 0.64704 0.0
H500 H 0.74554 0.53864 0.68851 0.0
Co501 Co 0.79975 0.54474 0.6508 0.0
C502 C 0.82274 0.57783 0.60551 0.0
O503 O 0.8489 0.58472 0.61708 0.0
N504 N 0.83665 0.52272 0.643 0.0
C505 C 0.87137 0.49426 0.62205 0.0
C506 C 0.84104 0.50448 0.62262 0.0
C507 C 0.86481 0.52316 0.65446 0.0
N508 N 0.88644 0.50617 0.64205 0.0
O509 O 0.82366 0.57755 0.66706 0.0
H510 H 0.82351 0.49962 0.60857 0.0
H511 H 0.86989 0.53678 0.67099 0.0
O512 O 0.80129 0.56355 0.61744 0.0
C513 C 0.82385 0.56947 0.69019 0.0
O514 O 0.80955 0.5434 0.6962 0.0
N515 N 0.77566 0.51166 0.63864 0.0
C516 C 0.73521 0.46179 0.63087 0.0
C517 C 0.73456 0.48766 0.61481 0.0
C518 C 0.75482 0.51277 0.61928 0.0
C519 C 0.77703 0.48628 0.65392 0.0
C520 C 0.75703 0.46108 0.65038 0.0
H521 H 0.75262 0.53358 0.60806 0.0
H522 H 0.79302 0.48621 0.66962 0.0
H523 H 0.76155 0.60412 0.63164 0.0
H524 H 0.69795 0.57817 0.68769 0.0
H525 H 0.88152 0.47952 0.60774 0.0
H526 H 0.71754 0.48912 0.59986 0.0
H527 H 0.75799 0.44152 0.66321 0.0
C528 C 0.10756 0.32884 0.97976 0.0
C529 C 0.08679 0.30894 0.9671 0.0
C530 C 0.10777 0.33071 1.00614 0.0
C531 C 0.08632 0.31272 1.02019 0.0
C532 C 0.06694 0.291 1.00758 0.0
C533 C 0.06762 0.2892 0.98131 0.0
C534 C 0.12951 0.35348 1.01882 0.0
C535 C 0.0435 0.27147 0.02163 0.0
C536 C 0.08348 0.30683 0.09169 0.0
C537 C 0.05973 0.32829 0.09725 0.0
C538 C 0.09393 0.30264 0.06683 0.0
C539 C 0.08013 0.32016 0.04715 0.0
C540 C 0.05758 0.34317 0.05303 0.0
C541 C 0.04788 0.34703 0.0779 0.0
C542 C 0.1185 0.27833 0.06149 0.0
C543 C 0.04208 0.36243 0.03283 0.0
H544 H 0.12276 0.34397 0.96907 0.0
H545 H 0.0516 0.27356 0.97191 0.0
H546 H 0.11628 0.37458 0.02455 0.0
H547 H 0.13973 0.34307 0.036 0.0
H548 H 0.14867 0.36088 1.0062 0.0
H549 H 0.03252 0.25343 1.0095 0.0
H550 H 0.05468 0.25971 0.0378 0.0
H551 H 0.02486 0.28684 0.02912 0.0
H552 H 0.09282 0.29225 0.10647 0.0
H553 H 0.02983 0.364 0.08201 0.0
H554 H 0.13577 0.28727 0.04784 0.0
H555 H 0.10739 0.2574 0.05308 0.0
H556 H 0.1309 0.27101 0.07881 0.0
H557 H 0.05987 0.37431 0.02122 0.0
H558 H 0.02614 0.38042 0.04064 0.0
H559 H 0.02845 0.34692 1.02024 0.0
C560 C 0.66234 0.10031 0.96807 0.0
C561 C 0.6838 0.08129 0.95532 0.0
C562 C 0.66127 0.10097 0.99448 0.0
C563 C 0.68191 0.08194 1.00855 0.0
C564 C 0.70468 0.06404 0.99576 0.0
C565 C 0.7055 0.06415 0.96944 0.0
C566 C 0.63703 0.12089 1.00729 0.0
C567 C 0.72716 0.04331 1.00983 0.0
C568 C 0.69321 0.08614 0.07973 0.0
C569 C 0.67486 0.0609 0.08762 0.0
C570 C 0.69453 0.09459 0.05415 0.0
C571 C 0.67726 0.07728 0.03613 0.0
C572 C 0.65731 0.05308 0.04435 0.0
C573 C 0.65627 0.04537 0.06986 0.0
C574 C 0.71563 0.12094 0.04629 0.0
C575 C 0.63844 0.03389 0.02601 0.0
H576 H 0.64567 0.11395 0.95744 0.0
H577 H 0.72279 0.05008 0.95991 0.0
H578 H 0.61844 0.1057 1.01497 0.0
H579 H 0.64748 0.13385 0.02324 0.0
H580 H 0.62615 0.13788 0.99422 0.0
H581 H 0.74494 0.03271 0.99733 0.0
H582 H 0.73925 0.0568 0.0247 0.0
H583 H 0.71411 0.02422 1.01914 0.0
H584 H 0.70772 0.09823 0.09326 0.0
H585 H 0.64172 0.02606 0.07578 0.0
H586 H 0.70371 0.13629 0.03255 0.0
H587 H 0.7366 0.11121 0.037 0.0
H588 H 0.72331 0.13528 0.06253 0.0
H589 H 0.62425 0.04933 1.01385 0.0
H590 H 0.62264 0.01718 0.03554 0.0
H591 H 0.65437 0.02045 1.01367 0.0
C592 C 0.95966 0.65763 0.96897 0.0
C593 C 0.94617 0.67747 0.95103 0.0
C594 C 0.95161 0.65948 0.9944 0.0
C595 C 0.92924 0.68166 1.00238 0.0
C596 C 0.91402 0.70047 0.98419 0.0
C597 C 0.92267 0.69819 0.9587 0.0
C598 C 0.96851 0.63886 1.01293 0.0
C599 C 0.88973 0.72412 0.99179 0.0
C600 C 0.90256 0.66985 0.07002 0.0
C601 C 0.92291 0.6897 0.08317 0.0
C602 C 0.90295 0.66828 0.0436 0.0
C603 C 0.92437 0.68679 0.02993 0.0
C604 C 0.94389 0.70791 0.04308 0.0
C605 C 0.94275 0.70925 0.06938 0.0
C606 C 0.88137 0.64581 0.03039 0.0
C607 C 0.96718 0.72808 0.02945 0.0
H608 H 0.97759 0.64126 0.96326 0.0
H609 H 0.91211 0.71364 0.94506 0.0
H610 H 0.98317 0.65349 0.02544 0.0
H611 H 0.95159 0.62628 0.0249 0.0
H612 H 0.98371 0.62139 1.00356 0.0
H613 H 0.87694 0.73361 0.97537 0.0
H614 H 0.87275 0.71354 1.00491 0.0
H615 H 0.90114 0.74382 1.00174 0.0
H616 H 0.88689 0.65482 0.08037 0.0
H617 H 0.95802 0.72528 0.07917 0.0
H618 H 0.89504 0.62595 0.02279 0.0
H619 H 0.86975 0.65743 1.01433 0.0
H620 H 0.86326 0.6364 0.04315 0.0
H621 H 0.98506 0.71304 0.0205 0.0
H622 H 0.97914 0.74481 0.04217 0.0
H623 H 0.95547 0.74144 1.01434 0.0
C624 C 0.29514 0.92601 0.95186 0.0
C625 C 0.3225 0.9394 0.94241 0.0
C626 C 0.29118 0.92184 0.97791 0.0
C627 C 0.3151 0.93134 0.9947 0.0
C628 C 0.34401 0.94138 0.98482 0.0
C629 C 0.34726 0.9454 0.95888 0.0
C630 C 0.26028 0.91025 0.9875 0.0
C631 C 0.3704 0.95143 1.00175 0.0
C632 C 0.29655 0.9772 0.05345 0.0
C633 C 0.30621 0.95698 0.0726 0.0
C634 C 0.29729 0.96816 0.02824 0.0
C635 C 0.30807 0.93797 0.02169 0.0
C636 C 0.31574 0.91652 0.04105 0.0
C637 C 0.31468 0.92629 0.06639 0.0
C638 C 0.28846 0.99189 1.0085 0.0
C639 C 0.3268 0.88395 0.03501 0.0
H640 H 0.27585 0.92142 0.93926 0.0
H641 H 0.36854 0.95555 0.9516 0.0
H642 H 0.26348 0.89519 1.00421 0.0
H643 H 0.24575 0.9305 0.99316 0.0
H644 H 0.24743 0.89694 0.97289 0.0
H645 H 0.39263 0.95409 0.99135 0.0
H646 H 0.36454 0.97423 1.01049 0.0
H647 H 0.37393 0.93429 1.01704 0.0
H648 H 0.2893 1.00076 0.05814 0.0
H649 H 0.32202 0.9105 0.08112 0.0
H650 H 0.27133 0.98178 0.9952 0.0
H651 H 0.30943 0.99851 0.99761 0.0
H652 H 0.27828 0.01344 1.01675 0.0
H653 H 0.31378 0.87406 1.01887 0.0
H654 H 0.32424 0.8681 0.05133 0.0
H655 H 0.3518 0.88472 0.02984 0.0
C656 C 0.56495 0.21135 0.47115 0.0
C657 C 0.58017 0.18763 0.45768 0.0
C658 C 0.56431 0.21139 0.49748 0.0
C659 C 0.57975 0.18742 0.51092 0.0
C660 C 0.59742 0.16495 0.49753 0.0
C661 C 0.59723 0.16516 0.47111 0.0
C662 C 0.54499 0.23577 0.5108 0.0
C663 C 0.6149 0.13944 0.51104 0.0
C664 C 0.58126 0.19769 0.58227 0.0
C665 C 0.55464 0.18082 0.58928 0.0
C666 C 0.59081 0.19894 0.55696 0.0
C667 C 0.57318 0.1832 0.53827 0.0
C668 C 0.54724 0.16497 0.54555 0.0
C669 C 0.53849 0.16387 0.57082 0.0
C670 C 0.61896 0.21815 0.55011 0.0
C671 C 0.52762 0.14778 0.52643 0.0
H672 H 0.55201 0.22908 0.46117 0.0
H673 H 0.60941 0.14688 0.46103 0.0
H674 H 0.5241 0.22454 0.51905 0.0
H675 H 0.55843 0.24641 0.52639 0.0
H676 H 0.53713 0.25463 0.49799 0.0
H677 H 0.63192 0.12754 0.49861 0.0
H678 H 0.62746 0.14902 0.52755 0.0
H679 H 0.59815 0.12175 0.51797 0.0
H680 H 0.59392 0.21087 0.59634 0.0
H681 H 0.51811 0.15042 0.576 0.0
H682 H 0.61133 0.23983 0.54054 0.0
H683 H 0.6341 0.20513 0.53689 0.0
H684 H 0.63288 0.22479 0.56686 0.0
H685 H 0.51663 0.1648 0.51348 0.0
H686 H 0.50893 0.13365 0.53524 0.0
H687 H 0.54243 0.13204 0.51501 0.0
C688 C 0.81159 0.57622 0.45287 0.0
C689 C 0.82323 0.54643 0.44703 0.0
C690 C 0.81127 0.58719 0.4779 0.0
C691 C 0.82258 0.56781 0.49749 0.0
C692 C 0.83527 0.53823 0.49146 0.0
C693 C 0.83561 0.5281 0.46647 0.0
C694 C 0.79801 0.61909 0.48345 0.0
C695 C 0.84754 0.51661 0.51155 0.0
C696 C 0.84562 0.59232 0.56362 0.0
C697 C 0.82036 0.58112 0.5777 0.0
C698 C 0.84561 0.59063 0.53724 0.0
C699 C 0.81992 0.57707 0.52453 0.0
C700 C 0.7935 0.56778 0.53854 0.0
C701 C 0.79396 0.57015 0.56483 0.0
C702 C 0.87401 0.60147 0.52311 0.0
C703 C 0.76559 0.55307 0.52595 0.0
H704 H 0.80196 0.59058 0.43805 0.0
H705 H 0.84501 0.50517 0.46228 0.0
H706 H 0.77556 0.61657 0.49349 0.0
H707 H 0.81397 0.6324 0.49588 0.0
H708 H 0.79388 0.6328 0.46611 0.0
H709 H 0.85726 0.49462 0.50371 0.0
H710 H 0.86605 0.52843 0.52257 0.0
H711 H 0.82852 0.51054 0.52472 0.0
H712 H 0.86605 0.60121 0.57322 0.0
H713 H 0.77405 0.56199 0.57532 0.0
H714 H 0.86712 0.61482 0.50618 0.0
H715 H 0.88759 0.58087 0.51678 0.0
H716 H 0.88938 0.61633 0.53491 0.0
H717 H 0.75804 0.56722 0.50965 0.0
H718 H 0.7456 0.55047 0.53896 0.0
H719 H 0.77206 0.52957 0.51882 0.0
C720 C 0.42368 0.81909 0.56087 0.0
C721 C 0.42185 0.78812 0.56934 0.0
C722 C 0.42519 0.82595 0.53508 0.0
C723 C 0.42562 0.80126 0.51732 0.0
C724 C 0.42162 0.77015 0.52571 0.0
C725 C 0.41944 0.76402 0.55152 0.0
C726 C 0.42844 0.85953 0.52698 0.0
C727 C 0.42254 0.74295 0.50766 0.0
C728 C 0.42444 0.81383 0.44615 0.0
C729 C 0.45641 0.81425 0.44072 0.0
C730 C 0.41383 0.81087 0.47111 0.0
C731 C 0.43569 0.80718 0.49089 0.0
C732 C 0.46792 0.80757 0.48537 0.0
C733 C 0.47778 0.81151 0.46057 0.0
C734 C 0.37931 0.81142 0.47627 0.0
C735 C 0.49219 0.80289 0.50559 0.0
H736 H 0.42516 0.83794 0.57441 0.0
H737 H 0.41794 0.73998 0.55772 0.0
H738 H 0.45302 0.86422 0.52185 0.0
H739 H 0.41386 0.86422 0.51021 0.0
H740 H 0.42171 0.87603 0.54213 0.0
H741 H 0.41535 0.72071 0.51664 0.0
H742 H 0.40717 0.74731 0.49133 0.0
H743 H 0.44661 0.74009 0.50045 0.0
H744 H 0.40778 0.81595 0.43097 0.0
H745 H 0.50255 0.8114 0.45668 0.0
H746 H 0.37407 0.82803 0.49169 0.0
H747 H 0.37153 0.78797 0.48244 0.0
H748 H 0.36558 0.81817 0.45947 0.0
H749 H 0.49001 0.82136 0.52008 0.0
H750 H 0.51632 0.80339 0.49812 0.0
H751 H 0.48845 0.78009 0.51499 0.0
C752 C 0.16298 0.46668 0.58587 0.0
C753 C 0.18243 0.45199 0.60342 0.0
C754 C 0.1653 0.46025 0.56018 0.0
C755 C 0.18764 0.4384 0.55154 0.0
C756 C 0.20562 0.42152 0.56932 0.0
C757 C 0.20286 0.42856 0.59512 0.0
C758 C 0.14543 0.47883 0.54215 0.0
C759 C 0.22921 0.39754 0.56106 0.0
C760 C 0.17816 0.42558 0.48121 0.0
C761 C 0.19721 0.44947 0.47197 0.0
C762 C 0.17699 0.41923 0.50717 0.0
C763 C 0.19502 0.43746 0.5241 0.0
C764 C 0.21636 0.45954 0.51438 0.0
C765 C 0.21705 0.46531 0.48854 0.0
C766 C 0.15451 0.39493 0.5166 0.0
C767 C 0.23622 0.47952 0.53144 0.0
H768 H 0.14677 0.48447 0.59215 0.0
H769 H 0.21794 0.41703 0.60853 0.0
H770 H 0.16043 0.49496 0.53128 0.0
H771 H 0.1337 0.46306 0.52861 0.0
H772 H 0.12736 0.49287 0.55191 0.0
H773 H 0.23574 0.38161 0.57662 0.0
H774 H 0.22014 0.38345 0.54517 0.0
H775 H 0.25059 0.40958 0.55459 0.0
H776 H 0.16253 0.41352 0.46848 0.0
H777 H 0.23168 0.48394 0.48144 0.0
H778 H 0.13295 0.40659 0.52322 0.0
H779 H 0.16459 0.3819 0.53264 0.0
H780 H 0.14803 0.37808 0.50161 0.0
H781 H 0.22116 0.49653 0.54144 0.0
H782 H 0.25422 0.49272 0.52093 0.0
H783 H 0.24798 0.46494 0.54576 0.0
C784 C 0.22451 0.11437 0.1365 0.0
C785 C 0.21296 0.08397 0.13358 0.0
C786 C 0.20425 0.1399 0.13904 0.0
C787 C 0.17168 0.13478 0.13907 0.0
C788 C 0.15992 0.1044 0.13434 0.0
C789 C 0.18076 0.07931 0.1315 0.0
C790 C 0.21779 0.17196 0.14357 0.0
C791 C 0.12537 0.0979 0.13436 0.0
C792 C 0.12494 0.1864 0.18282 0.0
C793 C 0.10988 0.20688 0.16625 0.0
C794 C 0.14485 0.16287 0.1741 0.0
C795 C 0.15041 0.15989 0.14808 0.0
C796 C 0.13595 0.18086 0.13118 0.0
C797 C 0.11571 0.20404 0.14045 0.0
C798 C 0.15986 0.14108 0.19284 0.0
C799 C 0.14161 0.17863 0.10334 0.0
H800 H 0.24946 0.11799 0.13784 0.0
H801 H 0.17181 0.05577 0.12936 0.0
H802 H 0.20534 0.18977 0.13227 0.0
H803 H 0.21487 0.17834 0.16359 0.0
H804 H 0.24301 0.17292 0.13899 0.0
H805 H 0.1199 0.07425 0.12695 0.0
H806 H 0.11644 0.09954 0.15381 0.0
H807 H 0.11273 0.11551 0.12301 0.0
H808 H 0.1213 0.18877 0.20278 0.0
H809 H 0.10407 0.21953 0.12744 0.0
H810 H 0.18559 0.14304 0.19175 0.0
H811 H 0.15367 0.11653 0.18837 0.0
H812 H 0.15258 0.14615 0.21239 0.0
H813 H 0.16698 0.17915 0.09942 0.0
H814 H 0.13019 0.19791 0.09286 0.0
H815 H 0.13257 0.15606 0.09615 0.0
C816 C 0.81431 0.11889 0.13529 0.0
C817 C 0.79292 0.13111 0.1525 0.0
C818 C 0.84129 0.13576 0.12887 0.0
C819 C 0.84661 0.16547 0.13986 0.0
C820 C 0.82357 0.17887 0.1555 0.0
C821 C 0.79714 0.16143 0.16172 0.0
C822 C 0.86513 0.12075 0.11198 0.0
C823 C 0.82795 0.21065 0.16736 0.0
C824 C 0.92615 0.1938 0.15983 0.0
C825 C 0.93127 0.21845 0.14314 0.0
C826 C 0.89977 0.17476 0.15767 0.0
C827 C 0.87776 0.18068 0.13845 0.0
C828 C 0.88393 0.20415 0.12044 0.0
C829 C 0.91078 0.22278 0.12296 0.0
C830 C 0.89441 0.14973 0.1771 0.0
C831 C 0.86119 0.21105 0.0996 0.0
H832 H 0.81102 0.09536 0.12824 0.0
H833 H 0.7803 0.17092 0.17479 0.0
H834 H 0.87491 0.13803 0.09869 0.0
H835 H 0.88467 0.1117 0.12351 0.0
H836 H 0.85507 0.10095 0.10118 0.0
H837 H 0.80639 0.21917 0.1766 0.0
H838 H 0.84673 0.2094 0.18165 0.0
H839 H 0.83517 0.22798 0.15309 0.0
H840 H 0.94231 0.19016 0.1752 0.0
H841 H 0.91478 0.24183 0.11002 0.0
H842 H 0.88799 0.12734 0.16796 0.0
H843 H 0.87475 0.15667 0.18938 0.0
H844 H 0.91528 0.14579 0.18902 0.0
H845 H 0.85228 0.18911 0.09113 0.0
H846 H 0.87188 0.22555 0.08468 0.0
H847 H 0.84091 0.22392 0.10733 0.0
C848 C 0.79378 0.92641 0.1192 0.0
C849 C 0.79911 0.94837 0.13827 0.0
C850 C 0.81207 0.89922 0.1174 0.0
C851 C 0.83618 0.89402 0.13507 0.0
C852 C 0.84316 0.91736 0.15306 0.0
C853 C 0.82453 0.9442 0.15445 0.0
C854 C 0.80407 0.87507 0.0978 0.0
C855 C 0.86885 0.91297 0.17211 0.0
C856 C 0.85373 0.81317 0.1597 0.0
C857 C 0.88306 0.80705 0.14934 0.0
C858 C 0.83747 0.8406 0.154 0.0
C859 C 0.8509 0.86264 0.1375 0.0
C860 C 0.87965 0.85572 0.12569 0.0
C861 C 0.89542 0.82787 0.13173 0.0
C862 C 0.80672 0.84678 0.16682 0.0
C863 C 0.89461 0.87849 0.10786 0.0
H864 H 0.77415 0.92953 0.10665 0.0
H865 H 0.82907 0.96144 0.16891 0.0
H866 H 0.82549 0.86552 0.08907 0.0
H867 H 0.79165 0.85533 0.10678 0.0
H868 H 0.78885 0.88482 0.08288 0.0
H869 H 0.87367 0.93471 0.18284 0.0
H870 H 0.86209 0.89442 0.18553 0.0
H871 H 0.89064 0.90532 0.1628 0.0
H872 H 0.84391 0.79677 0.17295 0.0
H873 H 0.91814 0.82319 0.12375 0.0
H874 H 0.7887 0.85329 0.15285 0.0
H875 H 0.80926 0.86671 0.17999 0.0
H876 H 0.79832 0.8262 0.1775 0.0
H877 H 0.87719 0.88779 0.09442 0.0
H878 H 0.91402 0.86762 0.09721 0.0
H879 H 0.90402 0.89861 0.1186 0.0
C880 C 0.1846 0.87664 0.16644 0.0
C881 C 0.19835 0.8971 0.14926 0.0
C882 C 0.1598 0.85724 0.15943 0.0
C883 C 0.14825 0.85837 0.13458 0.0
C884 C 0.16281 0.87807 0.11682 0.0
C885 C 0.18782 0.89718 0.12436 0.0
C886 C 0.14525 0.8363 0.17893 0.0
C887 C 0.15117 0.87993 0.09018 0.0
C888 C 0.09469 0.79033 0.11965 0.0
C889 C 0.06574 0.80271 0.12669 0.0
C890 C 0.12172 0.80885 0.12032 0.0
C891 C 0.1196 0.84044 0.12811 0.0
C892 C 0.09002 0.85362 0.13324 0.0
C893 C 0.06347 0.83456 0.13256 0.0
C894 C 0.15277 0.79393 0.11463 0.0
C895 C 0.08663 0.88727 0.14132 0.0
H896 H 0.19309 0.87608 0.18555 0.0
H897 H 0.19832 0.91308 0.11107 0.0
H898 H 0.12089 0.84377 0.18246 0.0
H899 H 0.14448 0.81184 0.17207 0.0
H900 H 0.15817 0.83682 0.19698 0.0
H901 H 0.16711 0.89357 0.07802 0.0
H902 H 0.14838 0.85617 0.08214 0.0
H903 H 0.12791 0.89123 0.08989 0.0
H904 H 0.09656 0.76567 0.11524 0.0
H905 H 0.04103 0.84425 0.13771 0.0
H906 H 0.16565 0.79003 0.13239 0.0
H907 H 0.1672 0.8095 0.1028 0.0
H908 H 0.15006 0.77109 0.10495 0.0
H909 H 0.09622 0.89016 0.1605 0.0
H910 H 0.0619 0.89497 0.14142 0.0
H911 H 0.10003 0.90284 0.12874 0.0
C912 C 0.71598 0.40053 0.38171 0.0
C913 C 0.70754 0.43051 0.38985 0.0
C914 C 0.69449 0.37593 0.38187 0.0
C915 C 0.66373 0.38152 0.39024 0.0
C916 C 0.65551 0.41135 0.39971 0.0
C917 C 0.67763 0.43555 0.39949 0.0
C918 C 0.7043 0.3444 0.37189 0.0
C919 C 0.62292 0.41818 0.40876 0.0
C920 C 0.60177 0.33095 0.35986 0.0
C921 C 0.59609 0.30855 0.37843 0.0
C922 C 0.62321 0.35516 0.36375 0.0
C923 C 0.6396 0.35698 0.38674 0.0
C924 C 0.63393 0.3346 0.40566 0.0
C925 C 0.6122 0.31066 0.40129 0.0
C926 C 0.62868 0.37852 0.34304 0.0
C927 C 0.65101 0.33579 0.43039 0.0
H928 H 0.73929 0.39654 0.37459 0.0
H929 H 0.67107 0.45877 0.40571 0.0
H930 H 0.69788 0.32569 0.38527 0.0
H931 H 0.69188 0.33955 0.35405 0.0
H932 H 0.72977 0.34312 0.36835 0.0
H933 H 0.62121 0.44137 0.41804 0.0
H934 H 0.6066 0.41777 0.39262 0.0
H935 H 0.61515 0.39996 0.4221 0.0
H936 H 0.5898 0.3293 0.34205 0.0
H937 H 0.60761 0.29379 0.4159 0.0
H938 H 0.6532 0.37703 0.33659 0.0
H939 H 0.62489 0.4026 0.35013 0.0
H940 H 0.6131 0.37459 0.32669 0.0
H941 H 0.67641 0.33316 0.42721 0.0
H942 H 0.64326 0.31719 0.44344 0.0
H943 H 0.64737 0.35883 0.43948 0.0
C944 C 0.57525 0.67635 0.37361 0.0
C945 C 0.57107 0.7018 0.38976 0.0
C946 C 0.60186 0.65753 0.37525 0.0
C947 C 0.62502 0.66459 0.39333 0.0
C948 C 0.61984 0.6889 0.41088 0.0
C949 C 0.59275 0.70723 0.40894 0.0
C950 C 0.60619 0.63153 0.3564 0.0
C951 C 0.64388 0.69705 0.43048 0.0
C952 C 0.68971 0.60412 0.3962 0.0
C953 C 0.70994 0.61571 0.37789 0.0
C954 C 0.66269 0.62077 0.40287 0.0
C955 C 0.65618 0.64966 0.39103 0.0
C956 C 0.67799 0.6625 0.37406 0.0
C957 C 0.70448 0.64525 0.36761 0.0
C958 C 0.6401 0.60637 0.4211 0.0
C959 C 0.67229 0.69346 0.36131 0.0
H960 H 0.55819 0.67191 0.35903 0.0
H961 H 0.58946 0.72694 0.42145 0.0
H962 H 0.62478 0.63806 0.34298 0.0
H963 H 0.61364 0.60974 0.3659 0.0
H964 H 0.58453 0.62671 0.34564 0.0
H965 H 0.63406 0.71226 0.44539 0.0
H966 H 0.65356 0.67564 0.43922 0.0
H967 H 0.66347 0.70963 0.42149 0.0
H968 H 0.69397 0.58119 0.40407 0.0
H969 H 0.72048 0.65429 0.35372 0.0
H970 H 0.61996 0.59663 0.41063 0.0
H971 H 0.63093 0.62421 0.43427 0.0
H972 H 0.65102 0.5872 0.43204 0.0
H973 H 0.65259 0.69112 0.34794 0.0
H974 H 0.69304 0.70168 0.35082 0.0
H975 H 0.66578 0.71154 0.37526 0.0
C976 C 0.32247 0.57304 0.41721 0.0
C977 C 0.29034 0.57831 0.41861 0.0
C978 C 0.34318 0.59804 0.41381 0.0
C979 C 0.33133 0.62888 0.4121 0.0
C980 C 0.29924 0.63444 0.41625 0.0
C981 C 0.27904 0.609 0.41917 0.0
C982 C 0.37719 0.59106 0.40938 0.0
C983 C 0.28576 0.66698 0.41519 0.0
C984 C 0.38876 0.6961 0.40464 0.0
C985 C 0.38926 0.69948 0.37847 0.0
C986 C 0.36961 0.67362 0.4161 0.0
C987 C 0.3509 0.65391 0.40097 0.0
C988 C 0.35088 0.65769 0.37464 0.0
C989 C 0.36978 0.68055 0.3638 0.0
C990 C 0.36985 0.67059 0.44426 0.0
C991 C 0.33119 0.63726 0.35775 0.0
H992 H 0.33113 0.54924 0.41665 0.0
H993 H 0.25413 0.61298 0.42042 0.0
H994 H 0.38234 0.59337 0.3891 0.0
H995 H 0.39218 0.60796 0.41954 0.0
H996 H 0.38351 0.56702 0.41534 0.0
H997 H 0.26213 0.66802 0.42362 0.0
H998 H 0.30109 0.68387 0.42507 0.0
H999 H 0.28397 0.67451 0.39537 0.0
H1000 H 0.40384 0.71047 0.41615 0.0
H1001 H 0.36933 0.68349 0.34368 0.0
H1002 H 0.38082 0.6481 0.44961 0.0
H1003 H 0.34569 0.67037 0.45161 0.0
H1004 H 0.38291 0.68988 0.45344 0.0
H1005 H 0.33738 0.61234 0.36056 0.0
H1006 H 0.33422 0.64298 0.33761 0.0
H1007 H 0.3062 0.63997 0.36254 0.0
C1008 C 0.30705 0.38314 0.41909 0.0
C1009 C 0.30167 0.39003 0.39377 0.0
C1010 C 0.32922 0.3606 0.42614 0.0
C1011 C 0.34619 0.34455 0.40738 0.0
C1012 C 0.34008 0.35075 0.38179 0.0
C1013 C 0.31797 0.37343 0.37533 0.0
C1014 C 0.3352 0.3547 0.45359 0.0
C1015 C 0.35743 0.33393 0.36118 0.0
C1016 C 0.42706 0.31157 0.4173 0.0
C1017 C 0.42119 0.27932 0.4176 0.0
C1018 C 0.40261 0.33321 0.41567 0.0
C1019 C 0.37152 0.32238 0.41414 0.0
C1020 C 0.36528 0.29001 0.41603 0.0
C1021 C 0.39021 0.26885 0.41778 0.0
C1022 C 0.41025 0.36756 0.41382 0.0
C1023 C 0.33243 0.27756 0.41461 0.0
H1024 H 0.29465 0.3961 0.43339 0.0
H1025 H 0.31345 0.37827 0.35575 0.0
H1026 H 0.33384 0.32934 0.45767 0.0
H1027 H 0.35909 0.36247 0.45853 0.0
H1028 H 0.31836 0.36724 0.46578 0.0
H1029 H 0.34894 0.3405 0.34223 0.0
H1030 H 0.38264 0.33945 0.36239 0.0
H1031 H 0.35496 0.30829 0.36341 0.0
H1032 H 0.45087 0.31994 0.41684 0.0
H1033 H 0.38546 0.244 0.41842 0.0
H1034 H 0.39525 0.38138 0.42662 0.0
H1035 H 0.4056 0.37579 0.39448 0.0
H1036 H 0.43503 0.37244 0.41842 0.0
H1037 H 0.31684 0.29096 0.42723 0.0
H1038 H 0.33118 0.25243 0.41967 0.0
H1039 H 0.32341 0.28037 0.39525 0.0
C1040 C 0.85606 0.80975 0.87378 0.0
C1041 C 0.88131 0.79786 0.88746 0.0
C1042 C 0.83846 0.83495 0.8827 0.0
C1043 C 0.84601 0.84859 0.90611 0.0
C1044 C 0.8701 0.83536 0.92089 0.0
C1045 C 0.88758 0.81013 0.91134 0.0
C1046 C 0.81285 0.84805 0.86631 0.0
C1047 C 0.87851 0.84881 0.94614 0.0
C1048 C 0.82501 0.93418 0.90499 0.0
C1049 C 0.79455 0.93369 0.91443 0.0
C1050 C 0.84321 0.907 0.90423 0.0
C1051 C 0.83074 0.87859 0.91331 0.0
C1052 C 0.80125 0.87865 0.92521 0.0
C1053 C 0.78339 0.90625 0.92556 0.0
C1054 C 0.87461 0.90818 0.89157 0.0
C1055 C 0.78743 0.84905 0.93568 0.0
H1056 H 0.85055 0.79979 0.85564 0.0
H1057 H 0.90701 0.80101 0.92205 0.0
H1058 H 0.79076 0.84966 0.87698 0.0
H1059 H 0.8191 0.87203 0.86028 0.0
H1060 H 0.80871 0.83359 0.84933 0.0
H1061 H 0.8929 0.83234 0.95733 0.0
H1062 H 0.89203 0.87063 0.94351 0.0
H1063 H 0.85728 0.85485 0.95694 0.0
H1064 H 0.83397 0.95554 0.89684 0.0
H1065 H 0.7599 0.90572 0.93295 0.0
H1066 H 0.87317 0.8961 0.87318 0.0
H1067 H 0.89239 0.89586 0.90296 0.0
H1068 H 0.88256 0.93253 0.88835 0.0
H1069 H 0.77833 0.8345 0.92008 0.0
H1070 H 0.76793 0.85404 0.94875 0.0
H1071 H 0.80539 0.83514 0.94565 0.0
C1072 C 0.18657 0.89297 0.89544 0.0
C1073 C 0.20271 0.88373 0.87385 0.0
C1074 C 0.1602 0.8763 0.90364 0.0
C1075 C 0.15008 0.84971 0.89001 0.0
C1076 C 0.16751 0.83935 0.86908 0.0
C1077 C 0.19345 0.85655 0.86123 0.0
C1078 C 0.14228 0.88813 0.92601 0.0
C1079 C 0.15794 0.81087 0.85419 0.0
C1080 C 0.09149 0.7892 0.912 0.0
C1081 C 0.06559 0.79697 0.89724 0.0
C1082 C 0.11872 0.80749 0.91134 0.0
C1083 C 0.11981 0.83421 0.89571 0.0
C1084 C 0.09273 0.84346 0.88245 0.0
C1085 C 0.06604 0.82462 0.88325 0.0
C1086 C 0.147 0.79685 0.92581 0.0
C1087 C 0.09263 0.872 0.86587 0.0
H1088 H 0.19366 0.91404 0.90517 0.0
H1089 H 0.20627 0.84908 0.84481 0.0
H1090 H 0.12008 0.89876 0.91958 0.0
H1091 H 0.13627 0.86861 0.93875 0.0
H1092 H 0.15557 0.906 0.9367 0.0
H1093 H 0.17542 0.80446 0.83974 0.0
H1094 H 0.15457 0.7906 0.86682 0.0
H1095 H 0.13537 0.81539 0.84469 0.0
H1096 H 0.09118 0.76776 0.92276 0.0
H1097 H 0.04587 0.83079 0.87204 0.0
H1098 H 0.15859 0.81691 0.93512 0.0
H1099 H 0.16406 0.78633 0.91267 0.0
H1100 H 0.14098 0.77914 0.94019 0.0
H1101 H 0.10281 0.8923 0.87589 0.0
H1102 H 0.06878 0.87825 0.85949 0.0
H1103 H 0.10721 0.8675 0.8491 0.0
C1104 C 0.18544 0.0633 0.90143 0.0
C1105 C 0.2141 0.0675 0.88936 0.0
C1106 C 0.16356 0.08773 0.90272 0.0
C1107 C 0.17065 0.11704 0.89183 0.0
C1108 C 0.2002 0.1218 0.88076 0.0
C1109 C 0.2215 0.09697 0.87961 0.0
C1110 C 0.13228 0.08169 0.91463 0.0
C1111 C 0.20885 0.15274 0.86916 0.0
C1112 C 0.10439 0.16674 0.86659 0.0
C1113 C 0.10102 0.18955 0.88531 0.0
C1114 C 0.12666 0.14289 0.86869 0.0
C1115 C 0.14634 0.14182 0.88998 0.0
C1116 C 0.14324 0.16478 0.90894 0.0
C1117 C 0.1206 0.18835 0.9064 0.0
C1118 C 0.12926 0.11893 0.84798 0.0
C1119 C 0.16385 0.16445 0.93188 0.0
H1120 H 0.17954 0.04052 0.90887 0.0
H1121 H 0.24384 0.10044 0.87059 0.0
H1122 H 0.12666 0.10034 0.92835 0.0
H1123 H 0.11388 0.08207 0.90001 0.0
H1124 H 0.13146 0.05875 0.9243 0.0
H1125 H 0.23366 0.15349 0.86329 0.0
H1126 H 0.19403 0.15704 0.85246 0.0
H1127 H 0.20454 0.17208 0.88257 0.0
H1128 H 0.08981 0.16769 0.85004 0.0
H1129 H 0.11796 0.20557 0.92112 0.0
H1130 H 0.12626 0.09509 0.85572 0.0
H1131 H 0.15279 0.11998 0.83947 0.0
H1132 H 0.11165 0.12256 0.83298 0.0
H1133 H 0.16116 0.14198 0.94196 0.0
H1134 H 0.1584 0.18387 0.945 0.0
H1135 H 0.18865 0.16631 0.92625 0.0
C1136 C 0.8087 0.11959 0.91731 0.0
C1137 C 0.8002 0.12054 0.89188 0.0
C1138 C 0.83184 0.1396 0.92694 0.0
C1139 C 0.84712 0.16072 0.91071 0.0
C1140 C 0.83816 0.16227 0.88522 0.0
C1141 C 0.81469 0.14246 0.87624 0.0
C1142 C 0.84042 0.13765 0.95433 0.0
C1143 C 0.85389 0.18439 0.8672 0.0
C1144 C 0.89391 0.2318 0.93033 0.0
C1145 C 0.92447 0.22114 0.92667 0.0
C1146 C 0.86837 0.21166 0.92715 0.0
C1147 C 0.87355 0.18031 0.91969 0.0
C1148 C 0.90443 0.16899 0.9175 0.0
C1149 C 0.92951 0.1895 0.92114 0.0
C1150 C 0.83583 0.22446 0.93021 0.0
C1151 C 0.91103 0.13585 0.9093 0.0
H1152 H 0.79785 0.10276 0.92961 0.0
H1153 H 0.80784 0.14415 0.85678 0.0
H1154 H 0.86442 0.12834 0.95628 0.0
H1155 H 0.84019 0.16127 0.96293 0.0
H1156 H 0.82432 0.12231 0.96495 0.0
H1157 H 0.84399 0.1829 0.84799 0.0
H1158 H 0.85155 0.2088 0.87394 0.0
H1159 H 0.87916 0.17903 0.86622 0.0
H1160 H 0.88996 0.2562 0.93481 0.0
H1161 H 0.95305 0.18121 0.91799 0.0
H1162 H 0.82111 0.20792 0.94091 0.0
H1163 H 0.82496 0.22749 0.9115 0.0
H1164 H 0.83578 0.24743 0.93994 0.0
H1165 H 0.89708 0.11909 0.92042 0.0
H1166 H 0.93607 0.12971 0.91122 0.0
H1167 H 0.90419 0.13295 0.88937 0.0
C1168 C 0.41328 0.66369 0.65225 0.0
C1169 C 0.40601 0.69387 0.66067 0.0
C1170 C 0.39086 0.63991 0.65205 0.0
C1171 C 0.36042 0.64633 0.66079 0.0
C1172 C 0.35273 0.67691 0.66894 0.0
C1173 C 0.3756 0.70044 0.66859 0.0
C1174 C 0.39991 0.60778 0.64284 0.0
C1175 C 0.32062 0.68455 0.67866 0.0
C1176 C 0.29616 0.58848 0.64426 0.0
C1177 C 0.29516 0.56988 0.66587 0.0
C1178 C 0.31708 0.61364 0.64237 0.0
C1179 C 0.33731 0.6205 0.66264 0.0
C1180 C 0.3364 0.60184 0.68447 0.0
C1181 C 0.3156 0.57667 0.68572 0.0
C1182 C 0.31765 0.63279 0.61866 0.0
C1183 C 0.3576 0.60834 0.7065 0.0
H1184 H 0.43658 0.65872 0.64559 0.0
H1185 H 0.37 0.72375 0.67511 0.0
H1186 H 0.39819 0.59073 0.65839 0.0
H1187 H 0.38364 0.59999 0.62791 0.0
H1188 H 0.42403 0.60711 0.63534 0.0
H1189 H 0.31798 0.70972 0.68329 0.0
H1190 H 0.30272 0.67807 0.66457 0.0
H1191 H 0.31589 0.67065 0.69576 0.0
H1192 H 0.28028 0.58366 0.62892 0.0
H1193 H 0.31556 0.56208 0.70229 0.0
H1194 H 0.34119 0.63178 0.61013 0.0
H1195 H 0.31276 0.65765 0.62305 0.0
H1196 H 0.30035 0.62452 0.60464 0.0
H1197 H 0.38227 0.6055 0.70077 0.0
H1198 H 0.353 0.59251 0.72254 0.0
H1199 H 0.35462 0.63283 0.7129 0.0
C1200 C 0.31701 0.39757 0.64894 0.0
C1201 C 0.30075 0.38689 0.67001 0.0
C1202 C 0.34372 0.38174 0.6403 0.0
C1203 C 0.35413 0.3546 0.653 0.0
C1204 C 0.33659 0.34279 0.67332 0.0
C1205 C 0.31023 0.3591 0.68156 0.0
C1206 C 0.36166 0.395 0.61851 0.0
C1207 C 0.34652 0.31372 0.68723 0.0
C1208 C 0.4142 0.29619 0.62978 0.0
C1209 C 0.43975 0.30378 0.64502 0.0
C1210 C 0.38666 0.31401 0.63065 0.0
C1211 C 0.38481 0.34001 0.64706 0.0
C1212 C 0.41151 0.34919 0.66086 0.0
C1213 C 0.43858 0.3309 0.65974 0.0
C1214 C 0.35884 0.30355 0.6155 0.0
C1215 C 0.41077 0.37695 0.67834 0.0
H1216 H 0.30976 0.41909 0.64001 0.0
H1217 H 0.29732 0.35048 0.69753 0.0
H1218 H 0.38349 0.40583 0.62549 0.0
H1219 H 0.36831 0.37623 0.60519 0.0
H1220 H 0.34808 0.41305 0.60829 0.0
H1221 H 0.32903 0.30631 0.70133 0.0
H1222 H 0.35034 0.29418 0.67391 0.0
H1223 H 0.36893 0.31811 0.69702 0.0
H1224 H 0.41502 0.27519 0.61841 0.0
H1225 H 0.45849 0.33706 0.67126 0.0
H1226 H 0.34692 0.32384 0.60683 0.0
H1227 H 0.34184 0.29194 0.62804 0.0
H1228 H 0.36549 0.28677 0.60053 0.0
H1229 H 0.4004 0.39752 0.66885 0.0
H1230 H 0.43437 0.38332 0.68522 0.0
H1231 H 0.39594 0.37145 0.69476 0.0
C1232 C 0.65501 0.30273 0.65433 0.0
C1233 C 0.62325 0.29991 0.64884 0.0
C1234 C 0.67211 0.32873 0.64638 0.0
C1235 C 0.65687 0.35287 0.63301 0.0
C1236 C 0.62522 0.34915 0.62595 0.0
C1237 C 0.60877 0.32248 0.63384 0.0
C1238 C 0.70594 0.33135 0.65393 0.0
C1239 C 0.60809 0.37435 0.61179 0.0
C1240 C 0.69179 0.43141 0.64932 0.0
C1241 C 0.71178 0.43659 0.62907 0.0
C1242 C 0.67219 0.40528 0.64992 0.0
C1243 C 0.67297 0.38347 0.62993 0.0
C1244 C 0.69198 0.38947 0.60879 0.0
C1245 C 0.71113 0.41617 0.60855 0.0
C1246 C 0.652 0.40012 0.67268 0.0
C1247 C 0.69357 0.36677 0.58718 0.0
H1248 H 0.66614 0.28502 0.66575 0.0
H1249 H 0.58413 0.32029 0.62975 0.0
H1250 H 0.72035 0.33858 0.63773 0.0
H1251 H 0.70846 0.34954 0.66864 0.0
H1252 H 0.71525 0.309 0.66139 0.0
H1253 H 0.5856 0.36579 0.60407 0.0
H1254 H 0.60321 0.39417 0.62462 0.0
H1255 H 0.62253 0.38343 0.59622 0.0
H1256 H 0.69223 0.44742 0.66508 0.0
H1257 H 0.72672 0.42024 0.59294 0.0
H1258 H 0.66097 0.37989 0.68348 0.0
H1259 H 0.62777 0.3946 0.66695 0.0
H1260 H 0.65157 0.42084 0.68525 0.0
H1261 H 0.70664 0.34564 0.59308 0.0
H1262 H 0.70545 0.37701 0.57066 0.0
H1263 H 0.66988 0.35912 0.58156 0.0
C1264 C 0.57944 0.70242 0.6168 0.0
C1265 C 0.58431 0.73481 0.61825 0.0
C1266 C 0.60393 0.68126 0.62073 0.0
C1267 C 0.63407 0.69266 0.62642 0.0
C1268 C 0.63956 0.72527 0.62662 0.0
C1269 C 0.61463 0.74596 0.62249 0.0
C1270 C 0.59708 0.64666 0.62023 0.0
C1271 C 0.6714 0.73835 0.63248 0.0
C1272 C 0.68297 0.63917 0.66731 0.0
C1273 C 0.70253 0.62476 0.64975 0.0
C1274 C 0.66127 0.66194 0.66002 0.0
C1275 C 0.65891 0.67048 0.63447 0.0
C1276 C 0.67911 0.65661 0.6167 0.0
C1277 C 0.70075 0.63396 0.62456 0.0
C1278 C 0.64035 0.67633 0.67963 0.0
C1279 C 0.6772 0.66497 0.58928 0.0
H1280 H 0.5561 0.69345 0.61396 0.0
H1281 H 0.61871 0.77092 0.62332 0.0
H1282 H 0.6143 0.63422 0.60838 0.0
H1283 H 0.59908 0.63706 0.63946 0.0
H1284 H 0.57333 0.64153 0.61302 0.0
H1285 H 0.67261 0.76396 0.62931 0.0
H1286 H 0.67725 0.73362 0.65238 0.0
H1287 H 0.6894 0.72675 0.62084 0.0
H1288 H 0.6846 0.63254 0.68684 0.0
H1289 H 0.71556 0.6227 0.61084 0.0
H1290 H 0.61571 0.67029 0.67558 0.0
H1291 H 0.64226 0.70216 0.67913 0.0
H1292 H 0.64612 0.66821 0.69884 0.0
H1293 H 0.65441 0.65737 0.58158 0.0
H1294 H 0.69603 0.65383 0.57815 0.0
H1295 H 0.67863 0.69066 0.58686 0.0
C1296 C 0.15562 0.39538 0.33561 0.0
C1297 C 0.15912 0.42789 0.33431 0.0
C1298 C 0.1406 0.37875 0.31615 0.0
C1299 C 0.12839 0.39509 0.29516 0.0
C1300 C 0.13147 0.42795 0.29409 0.0
C1301 C 0.14687 0.44381 0.3135 0.0
C1302 C 0.13791 0.34369 0.31794 0.0
C1303 C 0.11822 0.44651 0.27249 0.0
C1304 C 0.1085 0.35481 0.23303 0.0
C1305 C 0.07623 0.35068 0.23529 0.0
C1306 C 0.12603 0.36833 0.25267 0.0
C1307 C 0.11084 0.37839 0.2749 0.0
C1308 C 0.07825 0.37447 0.27709 0.0
C1309 C 0.06148 0.36057 0.25742 0.0
C1310 C 0.16077 0.37197 0.24965 0.0
C1311 C 0.06088 0.3855 0.30007 0.0
H1312 H 0.16519 0.38292 0.35152 0.0
H1313 H 0.14918 0.46898 0.31238 0.0
H1314 H 0.113 0.33682 0.31833 0.0
H1315 H 0.14842 0.33264 0.30114 0.0
H1316 H 0.14956 0.3343 0.33493 0.0
H1317 H 0.1229 0.47193 0.27432 0.0
H1318 H 0.12829 0.43819 0.25456 0.0
H1319 H 0.09265 0.44299 0.27137 0.0
H1320 H 0.12011 0.34702 0.21612 0.0
H1321 H 0.03652 0.35768 0.25936 0.0
H1322 H 0.17306 0.36082 0.26561 0.0
H1323 H 0.16701 0.39711 0.24985 0.0
H1324 H 0.16935 0.36145 0.23191 0.0
H1325 H 0.07096 0.37474 0.31715 0.0
H1326 H 0.03566 0.37978 0.29925 0.0
H1327 H 0.06338 0.41118 0.30208 0.0
C1328 C 0.64941 0.11653 0.2241 0.0
C1329 C 0.65031 0.0838 0.22438 0.0
C1330 C 0.63586 0.13338 0.24409 0.0
C1331 C 0.62247 0.11708 0.26457 0.0
C1332 C 0.62268 0.08402 0.2645 0.0
C1333 C 0.63676 0.0679 0.24459 0.0
C1334 C 0.63625 0.1686 0.2435 0.0
C1335 C 0.608 0.06557 0.28549 0.0
C1336 C 0.60633 0.15586 0.32805 0.0
C1337 C 0.57449 0.16275 0.32601 0.0
C1338 C 0.62259 0.14187 0.30793 0.0
C1339 C 0.60654 0.13424 0.28543 0.0
C1340 C 0.57444 0.14116 0.28339 0.0
C1341 C 0.55897 0.15538 0.30353 0.0
C1342 C 0.65689 0.13503 0.31079 0.0
C1343 C 0.55614 0.13294 0.26008 0.0
H1344 H 0.66026 0.12894 0.20874 0.0
H1345 H 0.6373 0.04258 0.2449 0.0
H1346 H 0.61207 0.17774 0.2438 0.0
H1347 H 0.64821 0.17773 0.26044 0.0
H1348 H 0.64821 0.17782 0.22663 0.0
H1349 H 0.61021 0.03995 0.28265 0.0
H1350 H 0.61909 0.07181 0.3036 0.0
H1351 H 0.58291 0.07149 0.287 0.0
H1352 H 0.61856 0.16159 0.34524 0.0
H1353 H 0.53432 0.16037 0.30166 0.0
H1354 H 0.67004 0.14565 0.29509 0.0
H1355 H 0.66088 0.10944 0.30994 0.0
H1356 H 0.66643 0.14403 0.32876 0.0
H1357 H 0.56702 0.14376 0.24339 0.0
H1358 H 0.53149 0.14075 0.26115 0.0
H1359 H 0.55646 0.10727 0.25715 0.0
C1360 C 0.86681 0.55523 0.28953 0.0
C1361 C 0.85539 0.57032 0.31104 0.0
C1362 C 0.88101 0.57194 0.27009 0.0
C1363 C 0.88379 0.60478 0.27195 0.0
C1364 C 0.87277 0.62022 0.29379 0.0
C1365 C 0.85883 0.60277 0.31317 0.0
C1366 C 0.89295 0.55439 0.24746 0.0
C1367 C 0.87536 0.6552 0.29649 0.0
C1368 C 0.9469 0.64315 0.2328 0.0
C1369 C 0.93009 0.65486 0.21225 0.0
C1370 C 0.9321 0.62706 0.25229 0.0
C1371 C 0.89949 0.62255 0.25144 0.0
C1372 C 0.88233 0.63386 0.23055 0.0
C1373 C 0.89787 0.64977 0.2111 0.0
C1374 C 0.95146 0.61494 0.27386 0.0
C1375 C 0.84752 0.62944 0.22894 0.0
H1376 H 0.86441 0.53011 0.28776 0.0
H1377 H 0.84978 0.6146 0.32959 0.0
H1378 H 0.88128 0.56306 0.23027 0.0
H1379 H 0.91829 0.55853 0.24518 0.0
H1380 H 0.88895 0.52882 0.24888 0.0
H1381 H 0.86534 0.66376 0.31441 0.0
H1382 H 0.90017 0.66234 0.29558 0.0
H1383 H 0.86311 0.66683 0.28073 0.0
H1384 H 0.97186 0.64676 0.23379 0.0
H1385 H 0.88472 0.65896 0.1954 0.0
H1386 H 0.94892 0.58922 0.27532 0.0
H1387 H 0.94307 0.62514 0.29174 0.0
H1388 H 0.97658 0.62054 0.27177 0.0
H1389 H 0.84182 0.60417 0.22915 0.0
H1390 H 0.83747 0.63998 0.21172 0.0
H1391 H 0.83616 0.64017 0.24551 0.0
C1392 C 0.44093 0.84845 0.28036 0.0
C1393 C 0.42673 0.84055 0.30318 0.0
C1394 C 0.42465 0.86441 0.2615 0.0
C1395 C 0.39306 0.87249 0.26526 0.0
C1396 C 0.37841 0.8645 0.28821 0.0
C1397 C 0.39549 0.84882 0.30701 0.0
C1398 C 0.44151 0.87306 0.23767 0.0
C1399 C 0.34471 0.8726 0.29288 0.0
C1400 C 0.36237 0.9416 0.22803 0.0
C1401 C 0.34663 0.92712 0.20806 0.0
C1402 C 0.37731 0.92411 0.24671 0.0
C1403 C 0.37626 0.8911 0.24574 0.0
C1404 C 0.36061 0.87622 0.22551 0.0
C1405 C 0.34617 0.89443 0.20675 0.0
C1406 C 0.39437 0.94105 0.26746 0.0
C1407 C 0.35886 0.84108 0.22387 0.0
H1408 H 0.46514 0.84239 0.27721 0.0
H1409 H 0.3843 0.84262 0.32449 0.0
H1410 H 0.42909 0.86328 0.2212 0.0
H1411 H 0.44181 0.89883 0.23549 0.0
H1412 H 0.46593 0.86445 0.23743 0.0
H1413 H 0.33624 0.86341 0.31108 0.0
H1414 H 0.34168 0.89834 0.29277 0.0
H1415 H 0.32993 0.86299 0.27763 0.0
H1416 H 0.36304 0.96689 0.22909 0.0
H1417 H 0.3338 0.88314 0.19151 0.0
H1418 H 0.41932 0.93426 0.26744 0.0
H1419 H 0.38466 0.9343 0.28591 0.0
H1420 H 0.39282 0.96685 0.26559 0.0
H1421 H 0.38266 0.83112 0.22256 0.0
H1422 H 0.3451 0.83307 0.20742 0.0
H1423 H 0.3481 0.8316 0.24114 0.0
C1424 C 0.89018 0.65576 0.81387 0.0
C1425 C 0.92281 0.65664 0.81334 0.0
C1426 C 0.87311 0.64341 0.79346 0.0
C1427 C 0.88907 0.63125 0.77227 0.0
C1428 C 0.92203 0.63153 0.77203 0.0
C1429 C 0.93837 0.64434 0.7924 0.0
C1430 C 0.83799 0.64363 0.79443 0.0
C1431 C 0.94014 0.61812 0.75028 0.0
C1432 C 0.84992 0.56945 0.73185 0.0
C1433 C 0.84149 0.58613 0.71021 0.0
C1434 C 0.86497 0.58393 0.7521 0.0
C1435 C 0.87169 0.61622 0.75105 0.0
C1436 C 0.86339 0.63335 0.72924 0.0
C1437 C 0.84858 0.61805 0.70894 0.0
C1438 C 0.87399 0.56446 0.77457 0.0
C1439 C 0.87006 0.66785 0.72743 0.0
H1440 H 0.87802 0.66561 0.82981 0.0
H1441 H 0.96361 0.64482 0.79186 0.0
H1442 H 0.82853 0.65625 0.77794 0.0
H1443 H 0.82902 0.61936 0.79353 0.0
H1444 H 0.82902 0.65489 0.81175 0.0
H1445 H 0.96572 0.62049 0.75283 0.0
H1446 H 0.93453 0.59298 0.74795 0.0
H1447 H 0.93338 0.63004 0.73266 0.0
H1448 H 0.84488 0.54468 0.733 0.0
H1449 H 0.84197 0.63113 0.6924 0.0
H1450 H 0.86329 0.57425 0.79178 0.0
H1451 H 0.89962 0.56509 0.77723 0.0
H1452 H 0.86664 0.53969 0.77264 0.0
H1453 H 0.85927 0.68031 0.74347 0.0
H1454 H 0.86112 0.67813 0.70972 0.0
H1455 H 0.89554 0.67196 0.72852 0.0
C1456 C 0.43515 0.83617 0.72879 0.0
C1457 C 0.42106 0.83372 0.70504 0.0
C1458 C 0.41997 0.85049 0.74902 0.0
C1459 C 0.38956 0.86251 0.74577 0.0
C1460 C 0.3746 0.85915 0.72214 0.0
C1461 C 0.39059 0.84495 0.70198 0.0
C1462 C 0.43713 0.85392 0.77362 0.0
C1463 C 0.34203 0.87134 0.718 0.0
C1464 C 0.34546 0.88435 0.80565 0.0
C1465 C 0.34999 0.91676 0.80651 0.0
C1466 C 0.35752 0.86637 0.78568 0.0
C1467 C 0.37497 0.8811 0.76646 0.0
C1468 C 0.38018 0.91372 0.76773 0.0
C1469 C 0.36743 0.93108 0.78753 0.0
C1470 C 0.35118 0.83173 0.78489 0.0
C1471 C 0.39934 0.93038 0.74815 0.0
H1472 H 0.45863 0.82754 0.73158 0.0
H1473 H 0.37944 0.84305 0.68381 0.0
H1474 H 0.44123 0.87904 0.7776 0.0
H1475 H 0.42291 0.84452 0.78919 0.0
H1476 H 0.45998 0.84171 0.77356 0.0
H1477 H 0.33243 0.86415 0.69952 0.0
H1478 H 0.3263 0.86283 0.73297 0.0
H1479 H 0.34211 0.89723 0.71898 0.0
H1480 H 0.33155 0.87328 0.82004 0.0
H1481 H 0.37101 0.95615 0.78811 0.0
H1482 H 0.37345 0.81859 0.78522 0.0
H1483 H 0.33911 0.82561 0.76715 0.0
H1484 H 0.33662 0.8239 0.80087 0.0
H1485 H 0.42317 0.92036 0.74754 0.0
H1486 H 0.40121 0.95586 0.75185 0.0
H1487 H 0.38881 0.92696 0.72936 0.0
C1488 C 0.10932 0.34532 0.83984 0.0
C1489 C 0.07994 0.33187 0.8359 0.0
C1490 C 0.12521 0.36032 0.8201 0.0
C1491 C 0.11124 0.36213 0.796 0.0
C1492 C 0.082 0.34787 0.79187 0.0
C1493 C 0.06688 0.33287 0.81173 0.0
C1494 C 0.15653 0.37499 0.82518 0.0
C1495 C 0.06597 0.34955 0.76667 0.0
C1496 C 0.13174 0.43136 0.75476 0.0
C1497 C 0.15158 0.41792 0.73691 0.0
C1498 C 0.1184 0.41342 0.7739 0.0
C1499 C 0.1256 0.38122 0.77564 0.0
C1500 C 0.14534 0.36735 0.75742 0.0
C1501 C 0.15789 0.38585 0.73807 0.0
C1502 C 0.09679 0.42907 0.7924 0.0
C1503 C 0.15385 0.3332 0.75881 0.0
H1504 H 0.11965 0.34457 0.85837 0.0
H1505 H 0.04426 0.32246 0.8083 0.0
H1506 H 0.17367 0.36726 0.81092 0.0
H1507 H 0.1546 0.40077 0.82377 0.0
H1508 H 0.1656 0.36902 0.84408 0.0
H1509 H 0.0441 0.3357 0.76611 0.0
H1510 H 0.06026 0.37422 0.76225 0.0
H1511 H 0.08168 0.3409 0.75171 0.0
H1512 H 0.12692 0.45621 0.75392 0.0
H1513 H 0.17374 0.37557 0.72458 0.0
H1514 H 0.10644 0.42708 0.81162 0.0
H1515 H 0.07382 0.4172 0.79233 0.0
H1516 H 0.09312 0.4542 0.78814 0.0
H1517 H 0.16572 0.32832 0.77687 0.0
H1518 H 0.16942 0.32593 0.74325 0.0
H1519 H 0.1325 0.31863 0.75823 0.0
C1520 C 0.56252 0.14608 0.7468 0.0
C1521 C 0.57855 0.1567 0.72554 0.0
C1522 C 0.57798 0.13067 0.76637 0.0
C1523 C 0.61053 0.12593 0.76494 0.0
C1524 C 0.62693 0.13624 0.7434 0.0
C1525 C 0.61069 0.15134 0.72382 0.0
C1526 C 0.55938 0.11949 0.78862 0.0
C1527 C 0.66167 0.13169 0.74121 0.0
C1528 C 0.65241 0.10842 0.82673 0.0
C1529 C 0.65554 0.07587 0.82547 0.0
C1530 C 0.63839 0.12519 0.80694 0.0
C1531 C 0.6269 0.10894 0.78561 0.0
C1532 C 0.62952 0.07603 0.78458 0.0
C1533 C 0.64387 0.06001 0.80439 0.0
C1534 C 0.63607 0.16028 0.80872 0.0
C1535 C 0.61703 0.05763 0.76257 0.0
H1536 H 0.53762 0.14994 0.74822 0.0
H1537 H 0.62324 0.15977 0.70759 0.0
H1538 H 0.56208 0.09386 0.79079 0.0
H1539 H 0.5683 0.13052 0.80604 0.0
H1540 H 0.53417 0.12494 0.78682 0.0
H1541 H 0.6711 0.14149 0.72354 0.0
H1542 H 0.6736 0.14307 0.75727 0.0
H1543 H 0.66738 0.10643 0.74199 0.0
H1544 H 0.66162 0.12083 0.84283 0.0
H1545 H 0.646 0.03481 0.8033 0.0
H1546 H 0.61126 0.16753 0.80828 0.0
H1547 H 0.64762 0.17115 0.79233 0.0
H1548 H 0.64695 0.16955 0.82611 0.0
H1549 H 0.59159 0.06157 0.76066 0.0
H1550 H 0.62125 0.03214 0.7645 0.0
H1551 H 0.62807 0.06576 0.74498 0.0
C1552 C 0.98866 0.58046 0.16482 0.0
C1553 C 0.01052 0.5952 0.1494 0.0
C1554 C 0.98859 0.5479 0.16768 0.0
C1555 C 0.01045 0.5296 0.15426 0.0
C1556 C 0.03251 0.54442 0.13854 0.0
C1557 C 0.03256 0.57718 0.1366 0.0
C1558 C 0.96519 0.53315 0.18512 0.0
C1559 C 0.05568 0.52568 0.12349 0.0
C1560 C 0.02551 0.44667 0.17689 0.0
C1561 C 0.00459 0.42962 0.16209 0.0
C1562 C 0.02792 0.47927 0.17444 0.0
C1563 C 0.00956 0.49491 0.15626 0.0
C1564 C 0.98924 0.47751 0.14066 0.0
C1565 C 0.9867 0.44512 0.144 0.0
C1566 C 0.04929 0.49705 0.19184 0.0
C1567 C 0.96984 0.49315 0.12065 0.0
H1568 H 0.97201 0.59458 0.17507 0.0
H1569 H 0.04941 0.58877 0.12473 0.0
H1570 H 0.94931 0.51769 0.17437 0.0
H1571 H 0.97736 0.51841 0.19914 0.0
H1572 H 0.95094 0.55084 0.1952 0.0
H1573 H 0.07118 0.54076 0.11208 0.0
H1574 H 0.07029 0.51127 0.13615 0.0
H1575 H 0.04314 0.50941 0.11079 0.0
H1576 H 0.03912 0.43458 0.19098 0.0
H1577 H 0.97081 0.43175 0.13239 0.0
H1578 H 0.03544 0.51353 0.2034 0.0
H1579 H 0.06608 0.51117 0.18089 0.0
H1580 H 0.06253 0.48133 0.20453 0.0
H1581 H 0.95275 0.50918 0.12946 0.0
H1582 H 0.95695 0.47602 0.10891 0.0
H1583 H 0.98493 0.50745 0.10831 0.0
C1584 C 0.43477 0.97961 0.16296 0.0
C1585 C 0.4219 0.99996 0.14519 0.0
C1586 C 0.46719 0.97703 0.16588 0.0
C1587 C 0.48711 0.99477 0.15028 0.0
C1588 C 0.47415 0.01445 0.13167 0.0
C1589 C 0.44168 0.01707 0.12956 0.0
C1590 C 0.48007 0.95625 0.18625 0.0
C1591 C 0.49458 0.03324 0.11432 0.0
C1592 C 0.56834 0.01697 0.17213 0.0
C1593 C 0.58682 0.99508 0.15951 0.0
C1594 C 0.53579 0.01653 0.16986 0.0
C1595 C 0.52145 0.99403 0.15413 0.0
C1596 C 0.54003 0.97171 0.14146 0.0
C1597 C 0.57254 0.97231 0.14452 0.0
C1598 C 0.51678 0.04034 0.1841 0.0
C1599 C 0.52565 0.94776 0.12417 0.0
H1600 H 0.41941 0.9667 0.17525 0.0
H1601 H 0.43162 0.03258 0.11571 0.0
H1602 H 0.49698 0.93937 0.17827 0.0
H1603 H 0.4928 0.97065 0.20021 0.0
H1604 H 0.46149 0.94304 0.19608 0.0
H1605 H 0.48088 0.04563 0.09971 0.0
H1606 H 0.5079 0.05079 0.12526 0.0
H1607 H 0.51175 0.01776 0.10497 0.0
H1608 H 0.57944 0.0343 0.18397 0.0
H1609 H 0.58692 0.95557 0.13461 0.0
H1610 H 0.49882 0.02843 0.19554 0.0
H1611 H 0.5044 0.05585 0.17075 0.0
H1612 H 0.53138 0.05504 0.19665 0.0
H1613 H 0.50796 0.93385 0.13434 0.0
H1614 H 0.54328 0.93157 0.11618 0.0
H1615 H 0.51349 0.95974 0.10853 0.0
C1616 C 0.50236 0.05509 0.41385 0.0
C1617 C 0.50507 0.07746 0.39476 0.0
C1618 C 0.50198 0.02304 0.40839 0.0
C1619 C 0.50484 0.01297 0.38326 0.0
C1620 C 0.50737 0.03526 0.36384 0.0
C1621 C 0.5072 0.06721 0.3698 0.0
C1622 C 0.49902 0.99993 0.42961 0.0
C1623 C 0.51074 0.02536 0.33681 0.0
C1624 C 0.53585 0.93088 0.37355 0.0
C1625 C 0.50849 0.914 0.3686 0.0
C1626 C 0.53504 0.96319 0.37783 0.0
C1627 C 0.50612 0.97904 0.37745 0.0
C1628 C 0.47842 0.9623 0.37232 0.0
C1629 C 0.47995 0.93002 0.36782 0.0
C1630 C 0.56513 0.9803 0.3831 0.0
C1631 C 0.44712 0.97842 0.37188 0.0
H1632 H 0.50115 0.06246 0.43321 0.0
H1633 H 0.50874 0.0841 0.35481 0.0
H1634 H 0.47912 0.98398 0.4261 0.0
H1635 H 0.52034 0.98534 0.43072 0.0
H1636 H 0.49552 0.01159 0.448 0.0
H1637 H 0.51218 0.04562 0.32389 0.0
H1638 H 0.53208 0.011 0.33455 0.0
H1639 H 0.49068 0.01061 0.33115 0.0
H1640 H 0.55796 0.91877 0.37453 0.0
H1641 H 0.45874 0.91742 0.36358 0.0
H1642 H 0.56453 0.99045 0.40223 0.0
H1643 H 0.56794 0.99995 0.36977 0.0
H1644 H 0.58581 0.9648 0.38162 0.0
H1645 H 0.44235 0.98907 0.39044 0.0
H1646 H 0.42781 0.96213 0.36719 0.0
H1647 H 0.44725 0.99761 0.35795 0.0
C1648 C 0.9363 0.50776 0.36894 0.0
C1649 C 0.9179 0.48484 0.38029 0.0
C1650 C 0.96862 0.50837 0.37255 0.0
C1651 C 0.98272 0.48583 0.3883 0.0
C1652 C 0.96422 0.46256 0.39979 0.0
C1653 C 0.93197 0.46216 0.39542 0.0
C1654 C 0.98764 0.53318 0.35958 0.0
C1655 C 0.9784 0.4385 0.41704 0.0
C1656 C 0.0698 0.47395 0.38121 0.0
C1657 C 0.08143 0.49404 0.39974 0.0
C1658 C 0.03763 0.47052 0.37754 0.0
C1659 C 0.01674 0.4872 0.39312 0.0
C1660 C 0.02843 0.5066 0.41249 0.0
C1661 C 0.06071 0.51004 0.41538 0.0
C1662 C 0.02608 0.45008 0.35639 0.0
C1663 C 0.00686 0.52427 0.42977 0.0
H1664 H 0.92535 0.525 0.35696 0.0
H1665 H 0.91759 0.44463 0.40433 0.0
H1666 H 0.99913 0.54834 0.37371 0.0
H1667 H 0.00632 0.52214 0.34826 0.0
H1668 H 0.97323 0.54811 0.34709 0.0
H1669 H 0.96081 0.42181 0.4243 0.0
H1670 H 0.99674 0.42516 0.40706 0.0
H1671 H 0.98973 0.45033 0.43317 0.0
H1672 H 0.08592 0.46192 0.36892 0.0
H1673 H 0.06986 0.52533 0.42982 0.0
H1674 H 0.01381 0.46467 0.34232 0.0
H1675 H 0.00906 0.43276 0.36348 0.0
H1676 H 0.04533 0.4374 0.3469 0.0
H1677 H 0.99355 0.54191 0.41894 0.0
H1678 H 0.01966 0.53642 0.44504 0.0
H1679 H 0.9897 0.50807 0.43825 0.0
C1680 C 0.03264 0.57096 0.89261 0.0
C1681 C 0.00881 0.5854 0.87887 0.0
C1682 C 0.03292 0.5385 0.89627 0.0
C1683 C 0.00904 0.51991 0.88558 0.0
C1684 C 0.98528 0.53429 0.87119 0.0
C1685 C 0.9853 0.56692 0.8682 0.0
C1686 C 0.05838 0.52419 0.9121 0.0
C1687 C 0.95974 0.51525 0.85912 0.0
C1688 C 0.02584 0.4327 0.88123 0.0
C1689 C 0.01031 0.42119 0.90246 0.0
C1690 C 0.02482 0.46459 0.87501 0.0
C1691 C 0.00825 0.48565 0.89055 0.0
C1692 C 0.99201 0.47417 0.91165 0.0
C1693 C 0.993 0.44215 0.91719 0.0
C1694 C 0.04212 0.47585 0.85214 0.0
C1695 C 0.97421 0.49585 0.92881 0.0
H1696 H 0.05064 0.58523 0.9011 0.0
H1697 H 0.96709 0.57802 0.85731 0.0
H1698 H 0.04801 0.5127 0.92873 0.0
H1699 H 0.07084 0.50591 0.9013 0.0
H1700 H 0.0756 0.5418 0.91863 0.0
H1701 H 0.94401 0.52977 0.84736 0.0
H1702 H 0.96999 0.49659 0.84726 0.0
H1703 H 0.94563 0.50363 0.87377 0.0
H1704 H 0.03952 0.41701 0.86976 0.0
H1705 H 0.98031 0.43365 0.93327 0.0
H1706 H 0.06166 0.4912 0.85796 0.0
H1707 H 0.02644 0.48995 0.84008 0.0
H1708 H 0.05172 0.45625 0.84087 0.0
H1709 H 0.99039 0.51316 0.93723 0.0
H1710 H 0.96227 0.48315 0.94416 0.0
H1711 H 0.95651 0.50909 0.918 0.0
C1712 C 0.5726 0.01722 0.87387 0.0
C1713 C 0.58741 0.99604 0.88995 0.0
C1714 C 0.54009 0.01709 0.87096 0.0
C1715 C 0.52191 0.99577 0.88498 0.0
C1716 C 0.53679 0.97466 0.90157 0.0
C1717 C 0.56944 0.97476 0.90357 0.0
C1718 C 0.52526 0.03947 0.85264 0.0
C1719 C 0.51821 0.95213 0.91731 0.0
C1720 C 0.43668 0.01728 0.89361 0.0
C1721 C 0.42201 0.99761 0.87623 0.0
C1722 C 0.46908 0.01634 0.89711 0.0
C1723 C 0.48733 0.99578 0.88239 0.0
C1724 C 0.47256 0.97579 0.8648 0.0
C1725 C 0.43998 0.97667 0.86218 0.0
C1726 C 0.48379 0.03746 0.91649 0.0
C1727 C 0.49123 0.95405 0.84834 0.0
H1728 H 0.58661 0.0333 0.86302 0.0
H1729 H 0.58102 0.95849 0.91602 0.0
H1730 H 0.51135 0.02631 0.83861 0.0
H1731 H 0.50903 0.05534 0.86263 0.0
H1732 H 0.54277 0.05385 0.84261 0.0
H1733 H 0.53326 0.93784 0.92978 0.0
H1734 H 0.50124 0.96516 0.929 0.0
H1735 H 0.50466 0.93619 0.90503 0.0
H1736 H 0.42265 0.0332 0.90466 0.0
H1737 H 0.42857 0.96169 0.84859 0.0
H1738 H 0.4997 0.05425 0.90724 0.0
H1739 H 0.49801 0.02346 0.92975 0.0
H1740 H 0.46617 0.05084 0.92732 0.0
H1741 H 0.50779 0.96776 0.83682 0.0
H1742 H 0.4762 0.94 0.83564 0.0
H1743 H 0.50523 0.93789 0.86005 0.0
C1744 C 0.4911 0.93814 0.66136 0.0
C1745 C 0.48052 0.92848 0.63773 0.0
C1746 C 0.49254 0.97004 0.66764 0.0
C1747 C 0.48268 0.99268 0.64998 0.0
C1748 C 0.47103 0.98291 0.6264 0.0
C1749 C 0.47029 0.95099 0.62053 0.0
C1750 C 0.50544 0.97954 0.69284 0.0
C1751 C 0.45976 0.00623 0.6072 0.0
C1752 C 0.46328 0.07564 0.6704 0.0
C1753 C 0.48973 0.09219 0.66243 0.0
C1754 C 0.46087 0.04317 0.66693 0.0
C1755 C 0.48568 0.02667 0.65554 0.0
C1756 C 0.51276 0.04298 0.64808 0.0
C1757 C 0.51434 0.07547 0.6514 0.0
C1758 C 0.43148 0.02664 0.67494 0.0
C1759 C 0.53985 0.0262 0.63602 0.0
H1760 H 0.49917 0.92077 0.67461 0.0
H1761 H 0.46155 0.94355 0.60243 0.0
H1762 H 0.5271 0.99328 0.69021 0.0
H1763 H 0.48861 0.99479 0.70279 0.0
H1764 H 0.5108 0.95908 0.70487 0.0
H1765 H 0.44986 0.99472 0.5903 0.0
H1766 H 0.44169 0.0216 0.61551 0.0
H1767 H 0.47935 0.02139 0.6013 0.0
H1768 H 0.4443 0.08799 0.67931 0.0
H1769 H 0.53473 0.08773 0.64479 0.0
H1770 H 0.43719 0.00724 0.68791 0.0
H1771 H 0.41987 0.01619 0.65833 0.0
H1772 H 0.41476 0.04261 0.68434 0.0
H1773 H 0.54737 0.0063 0.64787 0.0
H1774 H 0.56013 0.04185 0.63299 0.0
H1775 H 0.53254 0.01648 0.61765 0.0
C1776 C 0.93032 0.50887 0.67221 0.0
C1777 C 0.9193 0.50369 0.64776 0.0
C1778 C 0.96234 0.50808 0.67771 0.0
C1779 C 0.98393 0.50168 0.65835 0.0
C1780 C 0.97299 0.49573 0.63378 0.0
C1781 C 0.9409 0.49693 0.62877 0.0
C1782 C 0.97309 0.51466 0.70415 0.0
C1783 C 0.99526 0.4888 0.6126 0.0
C1784 C 0.06695 0.53125 0.66491 0.0
C1785 C 0.08306 0.50417 0.67213 0.0
C1786 C 0.0347 0.53079 0.66063 0.0
C1787 C 0.01804 0.50251 0.66349 0.0
C1788 C 0.03408 0.47505 0.67074 0.0
C1789 C 0.06639 0.47621 0.675 0.0
C1790 C 0.01847 0.56058 0.65289 0.0
C1791 C 0.01712 0.44444 0.67395 0.0
H1792 H 0.91393 0.51361 0.68713 0.0
H1793 H 0.93289 0.49333 0.60976 0.0
H1794 H 0.98742 0.49495 0.71116 0.0
H1795 H 0.98804 0.5358 0.70441 0.0
H1796 H 0.95331 0.51841 0.71721 0.0
H1797 H 0.98295 0.48314 0.59484 0.0
H1798 H 0.01053 0.50929 0.60935 0.0
H1799 H 0.01056 0.46886 0.61762 0.0
H1800 H 0.07964 0.55283 0.66227 0.0
H1801 H 0.07849 0.45529 0.68092 0.0
H1802 H 0.99957 0.56619 0.66631 0.0
H1803 H 0.00753 0.55747 0.63421 0.0
H1804 H 0.03468 0.58077 0.65201 0.0
H1805 H 0.99849 0.44702 0.68817 0.0
H1806 H 0.03294 0.42524 0.67983 0.0
H1807 H 0.00571 0.43768 0.65607 0.0
loop_
_geom_bond_atom_site_label_1
_geom_bond_atom_site_label_2
_geom_bond_distance
_geom_bond_site_symmetry_2
_ccdc_geom_bond_type
C0 C1 1.351 . S
C0 N3 1.368 . S
C0 H5 0.931 . S
C1 C0 1.351 . S
C1 N2 1.373 . S
C1 H29 0.930 . S
N2 C1 1.373 . S
N2 C4 1.340 . S
N3 C0 1.368 . S
N3 C4 1.321 . S
N3 Co6 2.135 . S
C4 N2 1.340 . S
C4 N3 1.321 . S
C4 H28 0.930 . S
H5 C0 0.931 . S
Co6 N3 2.135 . S
Co6 N9 2.121 . S
Co6 O14 2.055 . S
Co6 O17 2.039 . S
Co6 N20 2.140 . S
C7 O8 1.227 . S
C7 O17 1.265 . S
O8 C7 1.227 . S
N9 Co6 2.121 . S
N9 C11 1.375 . S
N9 C12 1.313 . S
C10 C11 1.338 . S
C10 N13 1.377 . S
C10 H30 0.930 . S
C11 N9 1.375 . S
C11 C10 1.338 . S
C11 H15 0.931 . S
C12 N9 1.313 . S
C12 N13 1.344 . S
C12 H16 0.930 . S
N13 C10 1.377 . S
N13 C12 1.344 . S
O14 Co6 2.055 . S
O14 C18 1.253 . S
H15 C11 0.931 . S
H16 C12 0.930 . S
O17 Co6 2.039 . S
O17 C7 1.265 . S
C18 O14 1.253 . S
C18 O19 1.227 . S
O19 C18 1.227 . S
N20 Co6 2.140 . S
N20 C23 1.346 . S
N20 C24 1.345 . S
C21 C22 1.387 1_655 S
C21 C25 1.391 . S
C22 C21 1.387 1_455 S
C22 C23 1.369 . S
C22 H31 0.929 . S
C23 N20 1.346 . S
C23 C22 1.369 . S
C23 H26 0.928 . S
C24 N20 1.345 . S
C24 C25 1.371 1_455 S
C24 H27 0.931 . S
C25 C21 1.391 . S
C25 C24 1.371 1_655 S
C25 H32 0.930 . S
H26 C23 0.928 . S
H27 C24 0.931 . S
H28 C4 0.930 . S
H29 C1 0.930 . S
H30 C10 0.930 . S
H31 C22 0.929 . S
H32 C25 0.930 . S
C33 C34 1.351 . S
C33 N36 1.368 . S
C33 H38 0.931 . S
C34 C33 1.351 . S
C34 N35 1.373 . S
C34 H62 0.930 . S
N35 C34 1.373 . S
N35 C37 1.340 . S
N36 C33 1.368 . S
N36 C37 1.321 . S
N36 Co39 2.135 . S
C37 N35 1.340 . S
C37 N36 1.321 . S
C37 H61 0.930 . S
H38 C33 0.931 . S
Co39 N36 2.135 . S
Co39 N42 2.121 . S
Co39 O47 2.055 . S
Co39 O50 2.039 . S
Co39 N53 2.140 . S
C40 O41 1.227 . S
C40 O50 1.265 . S
O41 C40 1.227 . S
N42 Co39 2.121 . S
N42 C44 1.375 . S
N42 C45 1.313 . S
C43 C44 1.338 . S
C43 N46 1.377 . S
C43 H63 0.930 . S
C44 N42 1.375 . S
C44 C43 1.338 . S
C44 H48 0.931 . S
C45 N42 1.313 . S
C45 N46 1.344 . S
C45 H49 0.930 . S
N46 C43 1.377 . S
N46 C45 1.344 . S
O47 Co39 2.055 . S
O47 C51 1.253 . S
H48 C44 0.931 . S
H49 C45 0.930 . S
O50 Co39 2.039 . S
O50 C40 1.265 . S
C51 O47 1.253 . S
C51 O52 1.227 . S
O52 C51 1.227 . S
N53 Co39 2.140 . S
N53 C56 1.346 . S
N53 C57 1.345 . S
C54 C55 1.387 1_565 S
C54 C58 1.391 . S
C55 C54 1.387 1_545 S
C55 C56 1.369 . S
C55 H64 0.929 . S
C56 N53 1.346 . S
C56 C55 1.369 . S
C56 H59 0.928 . S
C57 N53 1.345 . S
C57 C58 1.371 1_545 S
C57 H60 0.931 . S
C58 C54 1.391 . S
C58 C57 1.371 1_565 S
C58 H65 0.930 . S
H59 C56 0.928 . S
H60 C57 0.931 . S
H61 C37 0.930 . S
H62 C34 0.930 . S
H63 C43 0.930 . S
H64 C55 0.929 . S
H65 C58 0.930 . S
C66 C67 1.351 . S
C66 N69 1.368 . S
C66 H71 0.931 . S
C67 C66 1.351 . S
C67 N68 1.373 . S
C67 H95 0.930 . S
N68 C67 1.373 . S
N68 C70 1.340 . S
N69 C66 1.368 . S
N69 C70 1.321 . S
N69 Co72 2.135 . S
C70 N68 1.340 . S
C70 N69 1.321 . S
C70 H94 0.930 . S
H71 C66 0.931 . S
Co72 N69 2.135 . S
Co72 N75 2.121 . S
Co72 O80 2.055 . S
Co72 O83 2.039 . S
Co72 N86 2.140 . S
C73 O74 1.227 . S
C73 O83 1.265 . S
O74 C73 1.227 . S
N75 Co72 2.121 . S
N75 C77 1.375 . S
N75 C78 1.313 . S
C76 C77 1.338 . S
C76 N79 1.377 . S
C76 H96 0.930 . S
C77 N75 1.375 . S
C77 C76 1.338 . S
C77 H81 0.931 . S
C78 N75 1.313 . S
C78 N79 1.344 . S
C78 H82 0.930 . S
N79 C76 1.377 . S
N79 C78 1.344 . S
O80 Co72 2.055 . S
O80 C84 1.253 . S
H81 C77 0.931 . S
H82 C78 0.930 . S
O83 Co72 2.039 . S
O83 C73 1.265 . S
C84 O80 1.253 . S
C84 O85 1.227 . S
O85 C84 1.227 . S
N86 Co72 2.140 . S
N86 C89 1.346 . S
N86 C90 1.345 . S
C87 C88 1.387 1_455 S
C87 C91 1.391 . S
C88 C87 1.387 1_655 S
C88 C89 1.369 . S
C88 H97 0.929 . S
C89 N86 1.346 . S
C89 C88 1.369 . S
C89 H92 0.928 . S
C90 N86 1.345 . S
C90 C91 1.371 1_655 S
C90 H93 0.931 . S
C91 C87 1.391 . S
C91 C90 1.371 1_455 S
C91 H98 0.930 . S
H92 C89 0.928 . S
H93 C90 0.931 . S
H94 C70 0.930 . S
H95 C67 0.930 . S
H96 C76 0.930 . S
H97 C88 0.929 . S
H98 C91 0.930 . S
C99 C100 1.351 . S
C99 N102 1.368 . S
C99 H104 0.931 . S
C100 C99 1.351 . S
C100 N101 1.373 . S
C100 H128 0.930 . S
N101 C100 1.373 . S
N101 C103 1.340 . S
N102 C99 1.368 . S
N102 C103 1.321 . S
N102 Co105 2.135 . S
C103 N101 1.340 . S
C103 N102 1.321 . S
C103 H127 0.930 . S
H104 C99 0.931 . S
Co105 N102 2.135 . S
Co105 N108 2.121 . S
Co105 O113 2.055 . S
Co105 O116 2.039 . S
Co105 N119 2.140 . S
C106 O107 1.227 . S
C106 O116 1.265 . S
O107 C106 1.227 . S
N108 Co105 2.121 . S
N108 C110 1.375 . S
N108 C111 1.313 . S
C109 C110 1.338 . S
C109 N112 1.377 . S
C109 H129 0.930 . S
C110 N108 1.375 . S
C110 C109 1.338 . S
C110 H114 0.931 . S
C111 N108 1.313 . S
C111 N112 1.344 . S
C111 H115 0.930 . S
N112 C109 1.377 . S
N112 C111 1.344 . S
O113 Co105 2.055 . S
O113 C117 1.253 . S
H114 C110 0.931 . S
H115 C111 0.930 . S
O116 Co105 2.039 . S
O116 C106 1.265 . S
C117 O113 1.253 . S
C117 O118 1.227 . S
O118 C117 1.227 . S
N119 Co105 2.140 . S
N119 C122 1.346 . S
N119 C123 1.345 . S
C120 C121 1.387 1_545 S
C120 C124 1.391 . S
C121 C120 1.387 1_565 S
C121 C122 1.369 . S
C121 H130 0.929 . S
C122 N119 1.346 . S
C122 C121 1.369 . S
C122 H125 0.928 . S
C123 N119 1.345 . S
C123 C124 1.371 1_565 S
C123 H126 0.931 . S
C124 C120 1.391 . S
C124 C123 1.371 1_545 S
C124 H131 0.930 . S
H125 C122 0.928 . S
H126 C123 0.931 . S
H127 C103 0.930 . S
H128 C100 0.930 . S
H129 C109 0.930 . S
H130 C121 0.929 . S
H131 C124 0.930 . S
C132 C133 1.351 . S
C132 N135 1.368 . S
C132 H137 0.931 . S
C133 C132 1.351 . S
C133 N134 1.373 . S
C133 H161 0.930 . S
N134 C133 1.373 . S
N134 C136 1.340 . S
N135 C132 1.368 . S
N135 C136 1.321 . S
N135 Co138 2.135 . S
C136 N134 1.340 . S
C136 N135 1.321 . S
C136 H160 0.930 . S
H137 C132 0.931 . S
Co138 N135 2.135 . S
Co138 N141 2.121 . S
Co138 O146 2.055 . S
Co138 O149 2.039 . S
Co138 N152 2.140 . S
C139 O140 1.227 . S
C139 O149 1.265 . S
O140 C139 1.227 . S
N141 Co138 2.121 . S
N141 C143 1.375 . S
N141 C144 1.313 . S
C142 C143 1.338 . S
C142 N145 1.377 . S
C142 H162 0.930 . S
C143 N141 1.375 . S
C143 C142 1.338 . S
C143 H147 0.931 . S
C144 N141 1.313 . S
C144 N145 1.344 . S
C144 H148 0.930 . S
N145 C142 1.377 . S
N145 C144 1.344 . S
O146 Co138 2.055 . S
O146 C150 1.253 . S
H147 C143 0.931 . S
H148 C144 0.930 . S
O149 Co138 2.039 . S
O149 C139 1.265 . S
C150 O146 1.253 . S
C150 O151 1.227 . S
O151 C150 1.227 . S
N152 Co138 2.140 . S
N152 C155 1.346 . S
N152 C156 1.345 . S
C153 C154 1.387 . S
C153 C157 1.391 . S
C154 C153 1.387 . S
C154 C155 1.369 . S
C154 H163 0.929 . S
C155 N152 1.346 . S
C155 C154 1.369 . S
C155 H158 0.928 . S
C156 N152 1.345 . S
C156 C157 1.371 . S
C156 H159 0.931 . S
C157 C153 1.391 . S
C157 C156 1.371 . S
C157 H164 0.930 . S
H158 C155 0.928 . S
H159 C156 0.931 . S
H160 C136 0.930 . S
H161 C133 0.930 . S
H162 C142 0.930 . S
H163 C154 0.929 . S
H164 C157 0.930 . S
C165 C166 1.351 . S
C165 N168 1.368 . S
C165 H170 0.931 . S
C166 C165 1.351 . S
C166 N167 1.373 . S
C166 H194 0.930 . S
N167 C166 1.373 . S
N167 C169 1.340 . S
N168 C165 1.368 . S
N168 C169 1.321 . S
N168 Co171 2.135 . S
C169 N167 1.340 . S
C169 N168 1.321 . S
C169 H193 0.930 . S
H170 C165 0.931 . S
Co171 N168 2.135 . S
Co171 N174 2.121 . S
Co171 O179 2.055 . S
Co171 O182 2.039 . S
Co171 N185 2.140 . S
C172 O173 1.227 . S
C172 O182 1.265 . S
O173 C172 1.227 . S
N174 Co171 2.121 . S
N174 C176 1.375 . S
N174 C177 1.313 . S
C175 C176 1.338 . S
C175 N178 1.377 . S
C175 H195 0.930 . S
C176 N174 1.375 . S
C176 C175 1.338 . S
C176 H180 0.931 . S
C177 N174 1.313 . S
C177 N178 1.344 . S
C177 H181 0.930 . S
N178 C175 1.377 . S
N178 C177 1.344 . S
O179 Co171 2.055 . S
O179 C183 1.253 . S
H180 C176 0.931 . S
H181 C177 0.930 . S
O182 Co171 2.039 . S
O182 C172 1.265 . S
C183 O179 1.253 . S
C183 O184 1.227 . S
O184 C183 1.227 . S
N185 Co171 2.140 . S
N185 C188 1.346 . S
N185 C189 1.345 . S
C186 C187 1.387 . S
C186 C190 1.391 . S
C187 C186 1.387 . S
C187 C188 1.369 . S
C187 H196 0.929 . S
C188 N185 1.346 . S
C188 C187 1.369 . S
C188 H191 0.928 . S
C189 N185 1.345 . S
C189 C190 1.371 . S
C189 H192 0.931 . S
C190 C186 1.391 . S
C190 C189 1.371 . S
C190 H197 0.930 . S
H191 C188 0.928 . S
H192 C189 0.931 . S
H193 C169 0.930 . S
H194 C166 0.930 . S
H195 C175 0.930 . S
H196 C187 0.929 . S
H197 C190 0.930 . S
C198 C199 1.351 . S
C198 N201 1.368 . S
C198 H203 0.931 . S
C199 C198 1.351 . S
C199 N200 1.373 . S
C199 H227 0.930 . S
N200 C199 1.373 . S
N200 C202 1.340 . S
N201 C198 1.368 . S
N201 C202 1.321 . S
N201 Co204 2.135 . S
C202 N200 1.340 . S
C202 N201 1.321 . S
C202 H226 0.930 . S
H203 C198 0.931 . S
Co204 N201 2.135 . S
Co204 N207 2.121 . S
Co204 O212 2.055 . S
Co204 O215 2.039 . S
Co204 N218 2.140 . S
C205 O206 1.227 . S
C205 O215 1.265 . S
O206 C205 1.227 . S
N207 Co204 2.121 . S
N207 C209 1.375 . S
N207 C210 1.313 . S
C208 C209 1.338 . S
C208 N211 1.377 . S
C208 H228 0.930 . S
C209 N207 1.375 . S
C209 C208 1.338 . S
C209 H213 0.931 . S
C210 N207 1.313 . S
C210 N211 1.344 . S
C210 H214 0.930 . S
N211 C208 1.377 . S
N211 C210 1.344 . S
O212 Co204 2.055 . S
O212 C216 1.253 . S
H213 C209 0.931 . S
H214 C210 0.930 . S
O215 Co204 2.039 . S
O215 C205 1.265 . S
C216 O212 1.253 . S
C216 O217 1.227 . S
O217 C216 1.227 . S
N218 Co204 2.140 . S
N218 C221 1.346 . S
N218 C222 1.345 . S
C219 C220 1.387 . S
C219 C223 1.391 . S
C220 C219 1.387 . S
C220 C221 1.369 . S
C220 H229 0.929 . S
C221 N218 1.346 . S
C221 C220 1.369 . S
C221 H224 0.928 . S
C222 N218 1.345 . S
C222 C223 1.371 . S
C222 H225 0.931 . S
C223 C219 1.391 . S
C223 C222 1.371 . S
C223 H230 0.930 . S
H224 C221 0.928 . S
H225 C222 0.931 . S
H226 C202 0.930 . S
H227 C199 0.930 . S
H228 C208 0.930 . S
H229 C220 0.929 . S
H230 C223 0.930 . S
C231 C232 1.351 . S
C231 N234 1.368 . S
C231 H236 0.931 . S
C232 C231 1.351 . S
C232 N233 1.373 . S
C232 H260 0.930 . S
N233 C232 1.373 . S
N233 C235 1.340 . S
N234 C231 1.368 . S
N234 C235 1.321 . S
N234 Co237 2.135 . S
C235 N233 1.340 . S
C235 N234 1.321 . S
C235 H259 0.930 . S
H236 C231 0.931 . S
Co237 N234 2.135 . S
Co237 N240 2.121 . S
Co237 O245 2.055 . S
Co237 O248 2.039 . S
Co237 N251 2.140 . S
C238 O239 1.227 . S
C238 O248 1.265 . S
O239 C238 1.227 . S
N240 Co237 2.121 . S
N240 C242 1.375 . S
N240 C243 1.313 . S
C241 C242 1.338 . S
C241 N244 1.377 . S
C241 H261 0.930 . S
C242 N240 1.375 . S
C242 C241 1.338 . S
C242 H246 0.931 . S
C243 N240 1.313 . S
C243 N244 1.344 . S
C243 H247 0.930 . S
N244 C241 1.377 . S
N244 C243 1.344 . S
O245 Co237 2.055 . S
O245 C249 1.253 . S
H246 C242 0.931 . S
H247 C243 0.930 . S
O248 Co237 2.039 . S
O248 C238 1.265 . S
C249 O245 1.253 . S
C249 O250 1.227 . S
O250 C249 1.227 . S
N251 Co237 2.140 . S
N251 C254 1.346 . S
N251 C255 1.345 . S
C252 C253 1.387 . S
C252 C256 1.391 . S
C253 C252 1.387 . S
C253 C254 1.369 . S
C253 H262 0.929 . S
C254 N251 1.346 . S
C254 C253 1.369 . S
C254 H257 0.928 . S
C255 N251 1.345 . S
C255 C256 1.371 . S
C255 H258 0.931 . S
C256 C252 1.391 . S
C256 C255 1.371 . S
C256 H263 0.930 . S
H257 C254 0.928 . S
H258 C255 0.931 . S
H259 C235 0.930 . S
H260 C232 0.930 . S
H261 C241 0.930 . S
H262 C253 0.929 . S
H263 C256 0.930 . S
C264 C265 1.351 . S
C264 N267 1.368 . S
C264 H269 0.931 . S
C265 C264 1.351 . S
C265 N266 1.373 . S
C265 H293 0.930 . S
N266 C265 1.373 . S
N266 C268 1.340 . S
N267 C264 1.368 . S
N267 C268 1.321 . S
N267 Co270 2.135 . S
C268 N266 1.340 . S
C268 N267 1.321 . S
C268 H292 0.930 . S
H269 C264 0.931 . S
Co270 N267 2.135 . S
Co270 N273 2.121 . S
Co270 O278 2.055 . S
Co270 O281 2.039 . S
Co270 N284 2.140 . S
C271 O272 1.227 . S
C271 O281 1.265 . S
O272 C271 1.227 . S
N273 Co270 2.121 . S
N273 C275 1.375 . S
N273 C276 1.313 . S
C274 C275 1.338 . S
C274 N277 1.377 . S
C274 H294 0.930 . S
C275 N273 1.375 . S
C275 C274 1.338 . S
C275 H279 0.931 . S
C276 N273 1.313 . S
C276 N277 1.344 . S
C276 H280 0.930 . S
N277 C274 1.377 . S
N277 C276 1.344 . S
O278 Co270 2.055 . S
O278 C282 1.253 . S
H279 C275 0.931 . S
H280 C276 0.930 . S
O281 Co270 2.039 . S
O281 C271 1.265 . S
C282 O278 1.253 . S
C282 O283 1.227 . S
O283 C282 1.227 . S
N284 Co270 2.140 . S
N284 C287 1.346 . S
N284 C288 1.345 . S
C285 C286 1.387 1_455 S
C285 C289 1.391 . S
C286 C285 1.387 1_655 S
C286 C287 1.369 . S
C286 H295 0.929 . S
C287 N284 1.346 . S
C287 C286 1.369 . S
C287 H290 0.928 . S
C288 N284 1.345 . S
C288 C289 1.371 1_655 S
C288 H291 0.931 . S
C289 C285 1.391 . S
C289 C288 1.371 1_455 S
C289 H296 0.930 . S
H290 C287 0.928 . S
H291 C288 0.931 . S
H292 C268 0.930 . S
H293 C265 0.930 . S
H294 C274 0.930 . S
H295 C286 0.929 . S
H296 C289 0.930 . S
C297 C298 1.351 . S
C297 N300 1.368 . S
C297 H302 0.931 . S
C298 C297 1.351 . S
C298 N299 1.373 . S
C298 H326 0.930 . S
N299 C298 1.373 . S
N299 C301 1.340 . S
N300 C297 1.368 . S
N300 C301 1.321 . S
N300 Co303 2.135 . S
C301 N299 1.340 . S
C301 N300 1.321 . S
C301 H325 0.930 . S
H302 C297 0.931 . S
Co303 N300 2.135 . S
Co303 N306 2.121 . S
Co303 O311 2.055 . S
Co303 O314 2.039 . S
Co303 N317 2.140 . S
C304 O305 1.227 . S
C304 O314 1.265 . S
O305 C304 1.227 . S
N306 Co303 2.121 . S
N306 C308 1.375 . S
N306 C309 1.313 . S
C307 C308 1.338 . S
C307 N310 1.377 . S
C307 H327 0.930 . S
C308 N306 1.375 . S
C308 C307 1.338 . S
C308 H312 0.931 . S
C309 N306 1.313 . S
C309 N310 1.344 . S
C309 H313 0.930 . S
N310 C307 1.377 . S
N310 C309 1.344 . S
O311 Co303 2.055 . S
O311 C315 1.253 . S
H312 C308 0.931 . S
H313 C309 0.930 . S
O314 Co303 2.039 . S
O314 C304 1.265 . S
C315 O311 1.253 . S
C315 O316 1.227 . S
O316 C315 1.227 . S
N317 Co303 2.140 . S
N317 C320 1.346 . S
N317 C321 1.345 . S
C318 C319 1.387 1_545 S
C318 C322 1.391 . S
C319 C318 1.387 1_565 S
C319 C320 1.369 . S
C319 H328 0.929 . S
C320 N317 1.346 . S
C320 C319 1.369 . S
C320 H323 0.928 . S
C321 N317 1.345 . S
C321 C322 1.371 1_565 S
C321 H324 0.931 . S
C322 C318 1.391 . S
C322 C321 1.371 1_545 S
C322 H329 0.930 . S
H323 C320 0.928 . S
H324 C321 0.931 . S
H325 C301 0.930 . S
H326 C298 0.930 . S
H327 C307 0.930 . S
H328 C319 0.929 . S
H329 C322 0.930 . S
C330 C331 1.351 . S
C330 N333 1.368 . S
C330 H335 0.931 . S
C331 C330 1.351 . S
C331 N332 1.373 . S
C331 H359 0.930 . S
N332 C331 1.373 . S
N332 C334 1.340 . S
N333 C330 1.368 . S
N333 C334 1.321 . S
N333 Co336 2.135 . S
C334 N332 1.340 . S
C334 N333 1.321 . S
C334 H358 0.930 . S
H335 C330 0.931 . S
Co336 N333 2.135 . S
Co336 N339 2.121 . S
Co336 O344 2.055 . S
Co336 O347 2.039 . S
Co336 N350 2.140 . S
C337 O338 1.227 . S
C337 O347 1.265 . S
O338 C337 1.227 . S
N339 Co336 2.121 . S
N339 C341 1.375 . S
N339 C342 1.313 . S
C340 C341 1.338 . S
C340 N343 1.377 . S
C340 H360 0.930 . S
C341 N339 1.375 . S
C341 C340 1.338 . S
C341 H345 0.931 . S
C342 N339 1.313 . S
C342 N343 1.344 . S
C342 H346 0.930 . S
N343 C340 1.377 . S
N343 C342 1.344 . S
O344 Co336 2.055 . S
O344 C348 1.253 . S
H345 C341 0.931 . S
H346 C342 0.930 . S
O347 Co336 2.039 . S
O347 C337 1.265 . S
C348 O344 1.253 . S
C348 O349 1.227 . S
O349 C348 1.227 . S
N350 Co336 2.140 . S
N350 C353 1.346 . S
N350 C354 1.345 . S
C351 C352 1.387 1_655 S
C351 C355 1.391 . S
C352 C351 1.387 1_455 S
C352 C353 1.369 . S
C352 H361 0.929 . S
C353 N350 1.346 . S
C353 C352 1.369 . S
C353 H356 0.928 . S
C354 N350 1.345 . S
C354 C355 1.371 1_455 S
C354 H357 0.931 . S
C355 C351 1.391 . S
C355 C354 1.371 1_655 S
C355 H362 0.930 . S
H356 C353 0.928 . S
H357 C354 0.931 . S
H358 C334 0.930 . S
H359 C331 0.930 . S
H360 C340 0.930 . S
H361 C352 0.929 . S
H362 C355 0.930 . S
C363 C364 1.351 . S
C363 N366 1.368 . S
C363 H368 0.931 . S
C364 C363 1.351 . S
C364 N365 1.373 . S
C364 H392 0.930 . S
N365 C364 1.373 . S
N365 C367 1.340 . S
N366 C363 1.368 . S
N366 C367 1.321 . S
N366 Co369 2.135 . S
C367 N365 1.340 . S
C367 N366 1.321 . S
C367 H391 0.930 . S
H368 C363 0.931 . S
Co369 N366 2.135 . S
Co369 N372 2.121 . S
Co369 O377 2.055 . S
Co369 O380 2.039 . S
Co369 N383 2.140 . S
C370 O371 1.227 . S
C370 O380 1.265 . S
O371 C370 1.227 . S
N372 Co369 2.121 . S
N372 C374 1.375 . S
N372 C375 1.313 . S
C373 C374 1.338 . S
C373 N376 1.377 . S
C373 H393 0.930 . S
C374 N372 1.375 . S
C374 C373 1.338 . S
C374 H378 0.931 . S
C375 N372 1.313 . S
C375 N376 1.344 . S
C375 H379 0.930 . S
N376 C373 1.377 . S
N376 C375 1.344 . S
O377 Co369 2.055 . S
O377 C381 1.253 . S
H378 C374 0.931 . S
H379 C375 0.930 . S
O380 Co369 2.039 . S
O380 C370 1.265 . S
C381 O377 1.253 . S
C381 O382 1.227 . S
O382 C381 1.227 . S
N383 Co369 2.140 . S
N383 C386 1.346 . S
N383 C387 1.345 . S
C384 C385 1.387 1_565 S
C384 C388 1.391 . S
C385 C384 1.387 1_545 S
C385 C386 1.369 . S
C385 H394 0.929 . S
C386 N383 1.346 . S
C386 C385 1.369 . S
C386 H389 0.928 . S
C387 N383 1.345 . S
C387 C388 1.371 1_545 S
C387 H390 0.931 . S
C388 C384 1.391 . S
C388 C387 1.371 1_565 S
C388 H395 0.930 . S
H389 C386 0.928 . S
H390 C387 0.931 . S
H391 C367 0.930 . S
H392 C364 0.930 . S
H393 C373 0.930 . S
H394 C385 0.929 . S
H395 C388 0.930 . S
C396 C397 1.351 . S
C396 N399 1.368 . S
C396 H401 0.931 . S
C397 C396 1.351 . S
C397 N398 1.373 . S
C397 H425 0.930 . S
N398 C397 1.373 . S
N398 C400 1.340 . S
N399 C396 1.368 . S
N399 C400 1.321 . S
N399 Co402 2.135 . S
C400 N398 1.340 . S
C400 N399 1.321 . S
C400 H424 0.930 . S
H401 C396 0.931 . S
Co402 N399 2.135 . S
Co402 N405 2.121 . S
Co402 O410 2.055 . S
Co402 O413 2.039 . S
Co402 N416 2.140 . S
C403 O404 1.227 . S
C403 O413 1.265 . S
O404 C403 1.227 . S
N405 Co402 2.121 . S
N405 C407 1.375 . S
N405 C408 1.313 . S
C406 C407 1.338 . S
C406 N409 1.377 . S
C406 H426 0.930 . S
C407 N405 1.375 . S
C407 C406 1.338 . S
C407 H411 0.931 . S
C408 N405 1.313 . S
C408 N409 1.344 . S
C408 H412 0.930 . S
N409 C406 1.377 . S
N409 C408 1.344 . S
O410 Co402 2.055 . S
O410 C414 1.253 . S
H411 C407 0.931 . S
H412 C408 0.930 . S
O413 Co402 2.039 . S
O413 C403 1.265 . S
C414 O410 1.253 . S
C414 O415 1.227 . S
O415 C414 1.227 . S
N416 Co402 2.140 . S
N416 C419 1.346 . S
N416 C420 1.345 . S
C417 C418 1.387 . S
C417 C421 1.391 . S
C418 C417 1.387 . S
C418 C419 1.369 . S
C418 H427 0.929 . S
C419 N416 1.346 . S
C419 C418 1.369 . S
C419 H422 0.928 . S
C420 N416 1.345 . S
C420 C421 1.371 . S
C420 H423 0.931 . S
C421 C417 1.391 . S
C421 C420 1.371 . S
C421 H428 0.930 . S
H422 C419 0.928 . S
H423 C420 0.931 . S
H424 C400 0.930 . S
H425 C397 0.930 . S
H426 C406 0.930 . S
H427 C418 0.929 . S
H428 C421 0.930 . S
C429 C430 1.351 . S
C429 N432 1.368 . S
C429 H434 0.931 . S
C430 C429 1.351 . S
C430 N431 1.373 . S
C430 H458 0.930 . S
N431 C430 1.373 . S
N431 C433 1.340 . S
N432 C429 1.368 . S
N432 C433 1.321 . S
N432 Co435 2.135 . S
C433 N431 1.340 . S
C433 N432 1.321 . S
C433 H457 0.930 . S
H434 C429 0.931 . S
Co435 N432 2.135 . S
Co435 N438 2.121 . S
Co435 O443 2.055 . S
Co435 O446 2.039 . S
Co435 N449 2.140 . S
C436 O437 1.227 . S
C436 O446 1.265 . S
O437 C436 1.227 . S
N438 Co435 2.121 . S
N438 C440 1.375 . S
N438 C441 1.313 . S
C439 C440 1.338 . S
C439 N442 1.377 . S
C439 H459 0.930 . S
C440 N438 1.375 . S
C440 C439 1.338 . S
C440 H444 0.931 . S
C441 N438 1.313 . S
C441 N442 1.344 . S
C441 H445 0.930 . S
N442 C439 1.377 . S
N442 C441 1.344 . S
O443 Co435 2.055 . S
O443 C447 1.253 . S
H444 C440 0.931 . S
H445 C441 0.930 . S
O446 Co435 2.039 . S
O446 C436 1.265 . S
C447 O443 1.253 . S
C447 O448 1.227 . S
O448 C447 1.227 . S
N449 Co435 2.140 . S
N449 C452 1.346 . S
N449 C453 1.345 . S
C450 C451 1.387 . S
C450 C454 1.391 . S
C451 C450 1.387 . S
C451 C452 1.369 . S
C451 H460 0.929 . S
C452 N449 1.346 . S
C452 C451 1.369 . S
C452 H455 0.928 . S
C453 N449 1.345 . S
C453 C454 1.371 . S
C453 H456 0.931 . S
C454 C450 1.391 . S
C454 C453 1.371 . S
C454 H461 0.930 . S
H455 C452 0.928 . S
H456 C453 0.931 . S
H457 C433 0.930 . S
H458 C430 0.930 . S
H459 C439 0.930 . S
H460 C451 0.929 . S
H461 C454 0.930 . S
C462 C463 1.351 . S
C462 N465 1.368 . S
C462 H467 0.931 . S
C463 C462 1.351 . S
C463 N464 1.373 . S
C463 H491 0.930 . S
N464 C463 1.373 . S
N464 C466 1.340 . S
N465 C462 1.368 . S
N465 C466 1.321 . S
N465 Co468 2.135 . S
C466 N464 1.340 . S
C466 N465 1.321 . S
C466 H490 0.930 . S
H467 C462 0.931 . S
Co468 N465 2.135 . S
Co468 N471 2.121 . S
Co468 O476 2.055 . S
Co468 O479 2.039 . S
Co468 N482 2.140 . S
C469 O470 1.227 . S
C469 O479 1.265 . S
O470 C469 1.227 . S
N471 Co468 2.121 . S
N471 C473 1.375 . S
N471 C474 1.313 . S
C472 C473 1.338 . S
C472 N475 1.377 . S
C472 H492 0.930 . S
C473 N471 1.375 . S
C473 C472 1.338 . S
C473 H477 0.931 . S
C474 N471 1.313 . S
C474 N475 1.344 . S
C474 H478 0.930 . S
N475 C472 1.377 . S
N475 C474 1.344 . S
O476 Co468 2.055 . S
O476 C480 1.253 . S
H477 C473 0.931 . S
H478 C474 0.930 . S
O479 Co468 2.039 . S
O479 C469 1.265 . S
C480 O476 1.253 . S
C480 O481 1.227 . S
O481 C480 1.227 . S
N482 Co468 2.140 . S
N482 C485 1.346 . S
N482 C486 1.345 . S
C483 C484 1.387 . S
C483 C487 1.391 . S
C484 C483 1.387 . S
C484 C485 1.369 . S
C484 H493 0.929 . S
C485 N482 1.346 . S
C485 C484 1.369 . S
C485 H488 0.928 . S
C486 N482 1.345 . S
C486 C487 1.371 . S
C486 H489 0.931 . S
C487 C483 1.391 . S
C487 C486 1.371 . S
C487 H494 0.930 . S
H488 C485 0.928 . S
H489 C486 0.931 . S
H490 C466 0.930 . S
H491 C463 0.930 . S
H492 C472 0.930 . S
H493 C484 0.929 . S
H494 C487 0.930 . S
C495 C496 1.351 . S
C495 N498 1.368 . S
C495 H500 0.931 . S
C496 C495 1.351 . S
C496 N497 1.373 . S
C496 H524 0.930 . S
N497 C496 1.373 . S
N497 C499 1.340 . S
N498 C495 1.368 . S
N498 C499 1.321 . S
N498 Co501 2.135 . S
C499 N497 1.340 . S
C499 N498 1.321 . S
C499 H523 0.930 . S
H500 C495 0.931 . S
Co501 N498 2.135 . S
Co501 N504 2.121 . S
Co501 O509 2.055 . S
Co501 O512 2.039 . S
Co501 N515 2.140 . S
C502 O503 1.227 . S
C502 O512 1.265 . S
O503 C502 1.227 . S
N504 Co501 2.121 . S
N504 C506 1.375 . S
N504 C507 1.313 . S
C505 C506 1.338 . S
C505 N508 1.377 . S
C505 H525 0.930 . S
C506 N504 1.375 . S
C506 C505 1.338 . S
C506 H510 0.931 . S
C507 N504 1.313 . S
C507 N508 1.344 . S
C507 H511 0.930 . S
N508 C505 1.377 . S
N508 C507 1.344 . S
O509 Co501 2.055 . S
O509 C513 1.253 . S
H510 C506 0.931 . S
H511 C507 0.930 . S
O512 Co501 2.039 . S
O512 C502 1.265 . S
C513 O509 1.253 . S
C513 O514 1.227 . S
O514 C513 1.227 . S
N515 Co501 2.140 . S
N515 C518 1.346 . S
N515 C519 1.345 . S
C516 C517 1.387 . S
C516 C520 1.391 . S
C517 C516 1.387 . S
C517 C518 1.369 . S
C517 H526 0.929 . S
C518 N515 1.346 . S
C518 C517 1.369 . S
C518 H521 0.928 . S
C519 N515 1.345 . S
C519 C520 1.371 . S
C519 H522 0.931 . S
C520 C516 1.391 . S
C520 C519 1.371 . S
C520 H527 0.930 . S
H521 C518 0.928 . S
H522 C519 0.931 . S
H523 C499 0.930 . S
H524 C496 0.930 . S
H525 C505 0.930 . S
H526 C517 0.929 . S
H527 C520 0.930 . S
C528 C529 1.391 . S
C528 C530 1.394 . S
C528 H544 0.931 . S
C529 C528 1.391 . S
C529 C533 1.376 . S
C530 C528 1.394 . S
C530 C531 1.369 . S
C530 C534 1.531 . S
C531 C530 1.369 . S
C531 C532 1.410 . S
C531 C539 1.503 1_556 S
C532 C531 1.410 . S
C532 C533 1.392 . S
C532 C535 1.511 . S
C533 C529 1.376 . S
C533 C532 1.392 . S
C533 H545 0.929 . S
C534 C530 1.531 . S
C534 H546 0.960 1_556 S
C534 H547 0.962 . S
C534 H548 0.960 . S
C535 C532 1.511 . S
C535 H549 0.961 . S
C535 H550 0.961 1_556 S
C535 H551 0.961 . S
C536 C537 1.370 . S
C536 C538 1.363 . S
C536 H552 0.931 . S
C537 C536 1.370 . S
C537 C541 1.408 . S
C538 C536 1.363 . S
C538 C539 1.370 . S
C538 C542 1.524 . S
C539 C531 1.503 1_554 S
C539 C538 1.370 . S
C539 C540 1.403 . S
C540 C539 1.403 . S
C540 C541 1.404 . S
C540 C543 1.539 . S
C541 C537 1.408 . S
C541 C540 1.404 . S
C541 H553 0.930 . S
C542 C538 1.524 . S
C542 H554 0.956 . S
C542 H555 0.961 1_554 S
C542 H556 0.961 . S
C543 C540 1.539 . S
C543 H557 0.958 . S
C543 H558 0.961 . S
C543 H559 0.970 . S
H544 C528 0.931 . S
H545 C533 0.929 . S
H546 C534 0.960 1_554 S
H547 C534 0.962 . S
H548 C534 0.960 . S
H549 C535 0.961 . S
H550 C535 0.961 1_554 S
H551 C535 0.961 . S
H552 C536 0.931 . S
H553 C541 0.930 . S
H554 C542 0.956 . S
H555 C542 0.961 1_556 S
H556 C542 0.961 . S
H557 C543 0.958 . S
H558 C543 0.961 . S
H559 C543 0.970 . S
C560 C561 1.391 . S
C560 C562 1.394 . S
C560 H576 0.931 . S
C561 C560 1.391 . S
C561 C565 1.376 . S
C562 C560 1.394 . S
C562 C563 1.369 . S
C562 C566 1.531 . S
C563 C562 1.369 . S
C563 C564 1.410 . S
C563 C571 1.503 1_556 S
C564 C563 1.410 . S
C564 C565 1.392 . S
C564 C567 1.511 . S
C565 C561 1.376 . S
C565 C564 1.392 . S
C565 H577 0.929 . S
C566 C562 1.531 . S
C566 H578 0.960 1_556 S
C566 H579 0.962 . S
C566 H580 0.960 . S
C567 C564 1.511 . S
C567 H581 0.961 . S
C567 H582 0.961 1_556 S
C567 H583 0.961 . S
C568 C569 1.370 . S
C568 C570 1.363 . S
C568 H584 0.931 . S
C569 C568 1.370 . S
C569 C573 1.408 . S
C570 C568 1.363 . S
C570 C571 1.370 . S
C570 C574 1.524 . S
C571 C563 1.503 1_554 S
C571 C570 1.370 . S
C571 C572 1.403 . S
C572 C571 1.403 . S
C572 C573 1.404 . S
C572 C575 1.539 . S
C573 C569 1.408 . S
C573 C572 1.404 . S
C573 H585 0.930 . S
C574 C570 1.524 . S
C574 H586 0.956 . S
C574 H587 0.961 1_554 S
C574 H588 0.961 . S
C575 C572 1.539 . S
C575 H589 0.958 . S
C575 H590 0.961 . S
C575 H591 0.970 . S
H576 C560 0.931 . S
H577 C565 0.929 . S
H578 C566 0.960 1_554 S
H579 C566 0.962 . S
H580 C566 0.960 . S
H581 C567 0.961 . S
H582 C567 0.961 1_554 S
H583 C567 0.961 . S
H584 C568 0.931 . S
H585 C573 0.930 . S
H586 C574 0.956 . S
H587 C574 0.961 1_556 S
H588 C574 0.961 . S
H589 C575 0.958 . S
H590 C575 0.961 . S
H591 C575 0.970 . S
C592 C593 1.391 . S
C592 C594 1.394 . S
C592 H608 0.931 . S
C593 C592 1.391 . S
C593 C597 1.376 . S
C594 C592 1.394 . S
C594 C595 1.369 . S
C594 C598 1.531 . S
C595 C594 1.369 . S
C595 C596 1.410 . S
C595 C603 1.503 1_556 S
C596 C595 1.410 . S
C596 C597 1.392 . S
C596 C599 1.511 . S
C597 C593 1.376 . S
C597 C596 1.392 . S
C597 H609 0.929 . S
C598 C594 1.531 . S
C598 H610 0.960 1_556 S
C598 H611 0.962 . S
C598 H612 0.960 . S
C599 C596 1.511 . S
C599 H613 0.961 . S
C599 H614 0.961 1_556 S
C599 H615 0.961 . S
C600 C601 1.370 . S
C600 C602 1.363 . S
C600 H616 0.931 . S
C601 C600 1.370 . S
C601 C605 1.408 . S
C602 C600 1.363 . S
C602 C603 1.370 . S
C602 C606 1.524 . S
C603 C595 1.503 1_554 S
C603 C602 1.370 . S
C603 C604 1.403 . S
C604 C603 1.403 . S
C604 C605 1.404 . S
C604 C607 1.539 . S
C605 C601 1.408 . S
C605 C604 1.404 . S
C605 H617 0.930 . S
C606 C602 1.524 . S
C606 H618 0.956 . S
C606 H619 0.961 1_554 S
C606 H620 0.961 . S
C607 C604 1.539 . S
C607 H621 0.958 . S
C607 H622 0.961 . S
C607 H623 0.970 . S
H608 C592 0.931 . S
H609 C597 0.929 . S
H610 C598 0.960 1_554 S
H611 C598 0.962 . S
H612 C598 0.960 . S
H613 C599 0.961 . S
H614 C599 0.961 1_554 S
H615 C599 0.961 . S
H616 C600 0.931 . S
H617 C605 0.930 . S
H618 C606 0.956 . S
H619 C606 0.961 1_556 S
H620 C606 0.961 . S
H621 C607 0.958 . S
H622 C607 0.961 . S
H623 C607 0.970 . S
C624 C625 1.391 . S
C624 C626 1.394 . S
C624 H640 0.931 . S
C625 C624 1.391 . S
C625 C629 1.376 . S
C626 C624 1.394 . S
C626 C627 1.369 . S
C626 C630 1.531 . S
C627 C626 1.369 . S
C627 C628 1.410 . S
C627 C635 1.503 1_556 S
C628 C627 1.410 . S
C628 C629 1.392 . S
C628 C631 1.511 . S
C629 C625 1.376 . S
C629 C628 1.392 . S
C629 H641 0.929 . S
C630 C626 1.531 . S
C630 H642 0.960 1_556 S
C630 H643 0.962 . S
C630 H644 0.960 . S
C631 C628 1.511 . S
C631 H645 0.961 . S
C631 H646 0.961 1_556 S
C631 H647 0.961 . S
C632 C633 1.370 . S
C632 C634 1.363 . S
C632 H648 0.931 . S
C633 C632 1.370 . S
C633 C637 1.408 . S
C634 C632 1.363 . S
C634 C635 1.370 . S
C634 C638 1.524 . S
C635 C627 1.503 1_554 S
C635 C634 1.370 . S
C635 C636 1.403 . S
C636 C635 1.403 . S
C636 C637 1.404 . S
C636 C639 1.539 . S
C637 C633 1.408 . S
C637 C636 1.404 . S
C637 H649 0.930 . S
C638 C634 1.524 . S
C638 H650 0.956 . S
C638 H651 0.961 1_554 S
C638 H652 0.961 . S
C639 C636 1.539 . S
C639 H653 0.958 . S
C639 H654 0.961 . S
C639 H655 0.970 . S
H640 C624 0.931 . S
H641 C629 0.929 . S
H642 C630 0.960 1_554 S
H643 C630 0.962 . S
H644 C630 0.960 . S
H645 C631 0.961 . S
H646 C631 0.961 1_554 S
H647 C631 0.961 . S
H648 C632 0.931 . S
H649 C637 0.930 . S
H650 C638 0.956 . S
H651 C638 0.961 1_556 S
H652 C638 0.961 . S
H653 C639 0.958 . S
H654 C639 0.961 . S
H655 C639 0.970 . S
C656 C657 1.391 . S
C656 C658 1.394 . S
C656 H672 0.931 . S
C657 C656 1.391 . S
C657 C661 1.376 . S
C658 C656 1.394 . S
C658 C659 1.369 . S
C658 C662 1.531 . S
C659 C658 1.369 . S
C659 C660 1.410 . S
C659 C667 1.503 . S
C660 C659 1.410 . S
C660 C661 1.392 . S
C660 C663 1.511 . S
C661 C657 1.376 . S
C661 C660 1.392 . S
C661 H673 0.929 . S
C662 C658 1.531 . S
C662 H674 0.960 . S
C662 H675 0.962 . S
C662 H676 0.960 . S
C663 C660 1.511 . S
C663 H677 0.961 . S
C663 H678 0.961 . S
C663 H679 0.961 . S
C664 C665 1.370 . S
C664 C666 1.363 . S
C664 H680 0.931 . S
C665 C664 1.370 . S
C665 C669 1.408 . S
C666 C664 1.363 . S
C666 C667 1.370 . S
C666 C670 1.524 . S
C667 C659 1.503 . S
C667 C666 1.370 . S
C667 C668 1.403 . S
C668 C667 1.403 . S
C668 C669 1.404 . S
C668 C671 1.539 . S
C669 C665 1.408 . S
C669 C668 1.404 . S
C669 H681 0.930 . S
C670 C666 1.524 . S
C670 H682 0.956 . S
C670 H683 0.961 . S
C670 H684 0.961 . S
C671 C668 1.539 . S
C671 H685 0.958 . S
C671 H686 0.961 . S
C671 H687 0.960 . S
H672 C656 0.931 . S
H673 C661 0.929 . S
H674 C662 0.960 . S
H675 C662 0.962 . S
H676 C662 0.960 . S
H677 C663 0.961 . S
H678 C663 0.961 . S
H679 C663 0.961 . S
H680 C664 0.931 . S
H681 C669 0.930 . S
H682 C670 0.956 . S
H683 C670 0.961 . S
H684 C670 0.961 . S
H685 C671 0.958 . S
H686 C671 0.961 . S
H687 C671 0.960 . S
C688 C689 1.391 . S
C688 C690 1.394 . S
C688 H704 0.931 . S
C689 C688 1.391 . S
C689 C693 1.376 . S
C690 C688 1.394 . S
C690 C691 1.369 . S
C690 C694 1.531 . S
C691 C690 1.369 . S
C691 C692 1.410 . S
C691 C699 1.503 . S
C692 C691 1.410 . S
C692 C693 1.392 . S
C692 C695 1.511 . S
C693 C689 1.376 . S
C693 C692 1.392 . S
C693 H705 0.929 . S
C694 C690 1.531 . S
C694 H706 0.960 . S
C694 H707 0.962 . S
C694 H708 0.960 . S
C695 C692 1.511 . S
C695 H709 0.961 . S
C695 H710 0.961 . S
C695 H711 0.961 . S
C696 C697 1.370 . S
C696 C698 1.363 . S
C696 H712 0.931 . S
C697 C696 1.370 . S
C697 C701 1.408 . S
C698 C696 1.363 . S
C698 C699 1.370 . S
C698 C702 1.524 . S
C699 C691 1.503 . S
C699 C698 1.370 . S
C699 C700 1.403 . S
C700 C699 1.403 . S
C700 C701 1.404 . S
C700 C703 1.539 . S
C701 C697 1.408 . S
C701 C700 1.404 . S
C701 H713 0.930 . S
C702 C698 1.524 . S
C702 H714 0.956 . S
C702 H715 0.961 . S
C702 H716 0.961 . S
C703 C700 1.539 . S
C703 H717 0.958 . S
C703 H718 0.961 . S
C703 H719 0.960 . S
H704 C688 0.931 . S
H705 C693 0.929 . S
H706 C694 0.960 . S
H707 C694 0.962 . S
H708 C694 0.960 . S
H709 C695 0.961 . S
H710 C695 0.961 . S
H711 C695 0.961 . S
H712 C696 0.931 . S
H713 C701 0.930 . S
H714 C702 0.956 . S
H715 C702 0.961 . S
H716 C702 0.961 . S
H717 C703 0.958 . S
H718 C703 0.961 . S
H719 C703 0.960 . S
C720 C721 1.391 . S
C720 C722 1.394 . S
C720 H736 0.931 . S
C721 C720 1.391 . S
C721 C725 1.376 . S
C722 C720 1.394 . S
C722 C723 1.369 . S
C722 C726 1.531 . S
C723 C722 1.369 . S
C723 C724 1.410 . S
C723 C731 1.503 . S
C724 C723 1.410 . S
C724 C725 1.392 . S
C724 C727 1.511 . S
C725 C721 1.376 . S
C725 C724 1.392 . S
C725 H737 0.929 . S
C726 C722 1.531 . S
C726 H738 0.960 . S
C726 H739 0.962 . S
C726 H740 0.960 . S
C727 C724 1.511 . S
C727 H741 0.961 . S
C727 H742 0.961 . S
C727 H743 0.961 . S
C728 C729 1.370 . S
C728 C730 1.363 . S
C728 H744 0.931 . S
C729 C728 1.370 . S
C729 C733 1.408 . S
C730 C728 1.363 . S
C730 C731 1.370 . S
C730 C734 1.524 . S
C731 C723 1.503 . S
C731 C730 1.370 . S
C731 C732 1.403 . S
C732 C731 1.403 . S
C732 C733 1.404 . S
C732 C735 1.539 . S
C733 C729 1.408 . S
C733 C732 1.404 . S
C733 H745 0.930 . S
C734 C730 1.524 . S
C734 H746 0.956 . S
C734 H747 0.961 . S
C734 H748 0.961 . S
C735 C732 1.539 . S
C735 H749 0.958 . S
C735 H750 0.961 . S
C735 H751 0.960 . S
H736 C720 0.931 . S
H737 C725 0.929 . S
H738 C726 0.960 . S
H739 C726 0.962 . S
H740 C726 0.960 . S
H741 C727 0.961 . S
H742 C727 0.961 . S
H743 C727 0.961 . S
H744 C728 0.931 . S
H745 C733 0.930 . S
H746 C734 0.956 . S
H747 C734 0.961 . S
H748 C734 0.961 . S
H749 C735 0.958 . S
H750 C735 0.961 . S
H751 C735 0.960 . S
C752 C753 1.391 . S
C752 C754 1.394 . S
C752 H768 0.931 . S
C753 C752 1.391 . S
C753 C757 1.376 . S
C754 C752 1.394 . S
C754 C755 1.369 . S
C754 C758 1.531 . S
C755 C754 1.369 . S
C755 C756 1.410 . S
C755 C763 1.503 . S
C756 C755 1.410 . S
C756 C757 1.392 . S
C756 C759 1.511 . S
C757 C753 1.376 . S
C757 C756 1.392 . S
C757 H769 0.929 . S
C758 C754 1.531 . S
C758 H770 0.960 . S
C758 H771 0.962 . S
C758 H772 0.960 . S
C759 C756 1.511 . S
C759 H773 0.961 . S
C759 H774 0.961 . S
C759 H775 0.961 . S
C760 C761 1.370 . S
C760 C762 1.363 . S
C760 H776 0.931 . S
C761 C760 1.370 . S
C761 C765 1.408 . S
C762 C760 1.363 . S
C762 C763 1.370 . S
C762 C766 1.524 . S
C763 C755 1.503 . S
C763 C762 1.370 . S
C763 C764 1.403 . S
C764 C763 1.403 . S
C764 C765 1.404 . S
C764 C767 1.539 . S
C765 C761 1.408 . S
C765 C764 1.404 . S
C765 H777 0.930 . S
C766 C762 1.524 . S
C766 H778 0.956 . S
C766 H779 0.961 . S
C766 H780 0.961 . S
C767 C764 1.539 . S
C767 H781 0.958 . S
C767 H782 0.961 . S
C767 H783 0.960 . S
H768 C752 0.931 . S
H769 C757 0.929 . S
H770 C758 0.960 . S
H771 C758 0.962 . S
H772 C758 0.960 . S
H773 C759 0.961 . S
H774 C759 0.961 . S
H775 C759 0.961 . S
H776 C760 0.931 . S
H777 C765 0.930 . S
H778 C766 0.956 . S
H779 C766 0.961 . S
H780 C766 0.961 . S
H781 C767 0.958 . S
H782 C767 0.961 . S
H783 C767 0.960 . S
C784 C785 1.391 . S
C784 C786 1.394 . S
C784 H800 0.931 . S
C785 C784 1.391 . S
C785 C789 1.376 . S
C786 C784 1.394 . S
C786 C787 1.369 . S
C786 C790 1.531 . S
C787 C786 1.369 . S
C787 C788 1.410 . S
C787 C795 1.503 . S
C788 C787 1.410 . S
C788 C789 1.392 . S
C788 C791 1.511 . S
C789 C785 1.376 . S
C789 C788 1.392 . S
C789 H801 0.929 . S
C790 C786 1.531 . S
C790 H802 0.960 . S
C790 H803 0.962 . S
C790 H804 0.960 . S
C791 C788 1.511 . S
C791 H805 0.961 . S
C791 H806 0.961 . S
C791 H807 0.961 . S
C792 C793 1.370 . S
C792 C794 1.363 . S
C792 H808 0.931 . S
C793 C792 1.370 . S
C793 C797 1.408 . S
C794 C792 1.363 . S
C794 C795 1.370 . S
C794 C798 1.524 . S
C795 C787 1.503 . S
C795 C794 1.370 . S
C795 C796 1.403 . S
C796 C795 1.403 . S
C796 C797 1.404 . S
C796 C799 1.539 . S
C797 C793 1.408 . S
C797 C796 1.404 . S
C797 H809 0.930 . S
C798 C794 1.524 . S
C798 H810 0.956 . S
C798 H811 0.961 . S
C798 H812 0.961 . S
C799 C796 1.539 . S
C799 H813 0.958 . S
C799 H814 0.961 . S
C799 H815 0.960 . S
H800 C784 0.931 . S
H801 C789 0.929 . S
H802 C790 0.960 . S
H803 C790 0.962 . S
H804 C790 0.960 . S
H805 C791 0.961 . S
H806 C791 0.961 . S
H807 C791 0.961 . S
H808 C792 0.931 . S
H809 C797 0.930 . S
H810 C798 0.956 . S
H811 C798 0.961 . S
H812 C798 0.961 . S
H813 C799 0.958 . S
H814 C799 0.961 . S
H815 C799 0.960 . S
C816 C817 1.391 . S
C816 C818 1.394 . S
C816 H832 0.931 . S
C817 C816 1.391 . S
C817 C821 1.376 . S
C818 C816 1.394 . S
C818 C819 1.369 . S
C818 C822 1.531 . S
C819 C818 1.369 . S
C819 C820 1.410 . S
C819 C827 1.503 . S
C820 C819 1.410 . S
C820 C821 1.392 . S
C820 C823 1.511 . S
C821 C817 1.376 . S
C821 C820 1.392 . S
C821 H833 0.929 . S
C822 C818 1.531 . S
C822 H834 0.960 . S
C822 H835 0.962 . S
C822 H836 0.960 . S
C823 C820 1.511 . S
C823 H837 0.961 . S
C823 H838 0.961 . S
C823 H839 0.961 . S
C824 C825 1.370 . S
C824 C826 1.363 . S
C824 H840 0.931 . S
C825 C824 1.370 . S
C825 C829 1.408 . S
C826 C824 1.363 . S
C826 C827 1.370 . S
C826 C830 1.524 . S
C827 C819 1.503 . S
C827 C826 1.370 . S
C827 C828 1.403 . S
C828 C827 1.403 . S
C828 C829 1.404 . S
C828 C831 1.539 . S
C829 C825 1.408 . S
C829 C828 1.404 . S
C829 H841 0.930 . S
C830 C826 1.524 . S
C830 H842 0.956 . S
C830 H843 0.961 . S
C830 H844 0.961 . S
C831 C828 1.539 . S
C831 H845 0.958 . S
C831 H846 0.961 . S
C831 H847 0.960 . S
H832 C816 0.931 . S
H833 C821 0.929 . S
H834 C822 0.960 . S
H835 C822 0.962 . S
H836 C822 0.960 . S
H837 C823 0.961 . S
H838 C823 0.961 . S
H839 C823 0.961 . S
H840 C824 0.931 . S
H841 C829 0.930 . S
H842 C830 0.956 . S
H843 C830 0.961 . S
H844 C830 0.961 . S
H845 C831 0.958 . S
H846 C831 0.961 . S
H847 C831 0.960 . S
C848 C849 1.391 . S
C848 C850 1.394 . S
C848 H864 0.931 . S
C849 C848 1.391 . S
C849 C853 1.376 . S
C850 C848 1.394 . S
C850 C851 1.369 . S
C850 C854 1.531 . S
C851 C850 1.369 . S
C851 C852 1.410 . S
C851 C859 1.503 . S
C852 C851 1.410 . S
C852 C853 1.392 . S
C852 C855 1.511 . S
C853 C849 1.376 . S
C853 C852 1.392 . S
C853 H865 0.929 . S
C854 C850 1.531 . S
C854 H866 0.960 . S
C854 H867 0.962 . S
C854 H868 0.960 . S
C855 C852 1.511 . S
C855 H869 0.961 . S
C855 H870 0.961 . S
C855 H871 0.961 . S
C856 C857 1.370 . S
C856 C858 1.363 . S
C856 H872 0.931 . S
C857 C856 1.370 . S
C857 C861 1.408 . S
C858 C856 1.363 . S
C858 C859 1.370 . S
C858 C862 1.524 . S
C859 C851 1.503 . S
C859 C858 1.370 . S
C859 C860 1.403 . S
C860 C859 1.403 . S
C860 C861 1.404 . S
C860 C863 1.539 . S
C861 C857 1.408 . S
C861 C860 1.404 . S
C861 H873 0.930 . S
C862 C858 1.524 . S
C862 H874 0.956 . S
C862 H875 0.961 . S
C862 H876 0.961 . S
C863 C860 1.539 . S
C863 H877 0.958 . S
C863 H878 0.961 . S
C863 H879 0.960 . S
H864 C848 0.931 . S
H865 C853 0.929 . S
H866 C854 0.960 . S
H867 C854 0.962 . S
H868 C854 0.960 . S
H869 C855 0.961 . S
H870 C855 0.961 . S
H871 C855 0.961 . S
H872 C856 0.931 . S
H873 C861 0.930 . S
H874 C862 0.956 . S
H875 C862 0.961 . S
H876 C862 0.961 . S
H877 C863 0.958 . S
H878 C863 0.961 . S
H879 C863 0.960 . S
C880 C881 1.391 . S
C880 C882 1.394 . S
C880 H896 0.931 . S
C881 C880 1.391 . S
C881 C885 1.376 . S
C882 C880 1.394 . S
C882 C883 1.369 . S
C882 C886 1.531 . S
C883 C882 1.369 . S
C883 C884 1.410 . S
C883 C891 1.503 . S
C884 C883 1.410 . S
C884 C885 1.392 . S
C884 C887 1.511 . S
C885 C881 1.376 . S
C885 C884 1.392 . S
C885 H897 0.929 . S
C886 C882 1.531 . S
C886 H898 0.960 . S
C886 H899 0.962 . S
C886 H900 0.960 . S
C887 C884 1.511 . S
C887 H901 0.961 . S
C887 H902 0.961 . S
C887 H903 0.961 . S
C888 C889 1.370 . S
C888 C890 1.363 . S
C888 H904 0.931 . S
C889 C888 1.370 . S
C889 C893 1.408 . S
C890 C888 1.363 . S
C890 C891 1.370 . S
C890 C894 1.524 . S
C891 C883 1.503 . S
C891 C890 1.370 . S
C891 C892 1.403 . S
C892 C891 1.403 . S
C892 C893 1.404 . S
C892 C895 1.539 . S
C893 C889 1.408 . S
C893 C892 1.404 . S
C893 H905 0.930 . S
C894 C890 1.524 . S
C894 H906 0.956 . S
C894 H907 0.961 . S
C894 H908 0.961 . S
C895 C892 1.539 . S
C895 H909 0.958 . S
C895 H910 0.961 . S
C895 H911 0.960 . S
H896 C880 0.931 . S
H897 C885 0.929 . S
H898 C886 0.960 . S
H899 C886 0.962 . S
H900 C886 0.960 . S
H901 C887 0.961 . S
H902 C887 0.961 . S
H903 C887 0.961 . S
H904 C888 0.931 . S
H905 C893 0.930 . S
H906 C894 0.956 . S
H907 C894 0.961 . S
H908 C894 0.961 . S
H909 C895 0.958 . S
H910 C895 0.961 . S
H911 C895 0.960 . S
C912 C913 1.391 . S
C912 C914 1.394 . S
C912 H928 0.931 . S
C913 C912 1.391 . S
C913 C917 1.376 . S
C914 C912 1.394 . S
C914 C915 1.369 . S
C914 C918 1.531 . S
C915 C914 1.369 . S
C915 C916 1.410 . S
C915 C923 1.503 . S
C916 C915 1.410 . S
C916 C917 1.392 . S
C916 C919 1.511 . S
C917 C913 1.376 . S
C917 C916 1.392 . S
C917 H929 0.929 . S
C918 C914 1.531 . S
C918 H930 0.960 . S
C918 H931 0.962 . S
C918 H932 0.960 . S
C919 C916 1.511 . S
C919 H933 0.961 . S
C919 H934 0.961 . S
C919 H935 0.961 . S
C920 C921 1.370 . S
C920 C922 1.363 . S
C920 H936 0.931 . S
C921 C920 1.370 . S
C921 C925 1.408 . S
C922 C920 1.363 . S
C922 C923 1.370 . S
C922 C926 1.524 . S
C923 C915 1.503 . S
C923 C922 1.370 . S
C923 C924 1.403 . S
C924 C923 1.403 . S
C924 C925 1.404 . S
C924 C927 1.539 . S
C925 C921 1.408 . S
C925 C924 1.404 . S
C925 H937 0.930 . S
C926 C922 1.524 . S
C926 H938 0.956 . S
C926 H939 0.961 . S
C926 H940 0.961 . S
C927 C924 1.539 . S
C927 H941 0.958 . S
C927 H942 0.961 . S
C927 H943 0.960 . S
H928 C912 0.931 . S
H929 C917 0.929 . S
H930 C918 0.960 . S
H931 C918 0.962 . S
H932 C918 0.960 . S
H933 C919 0.961 . S
H934 C919 0.961 . S
H935 C919 0.961 . S
H936 C920 0.931 . S
H937 C925 0.930 . S
H938 C926 0.956 . S
H939 C926 0.961 . S
H940 C926 0.961 . S
H941 C927 0.958 . S
H942 C927 0.961 . S
H943 C927 0.960 . S
C944 C945 1.391 . S
C944 C946 1.394 . S
C944 H960 0.931 . S
C945 C944 1.391 . S
C945 C949 1.376 . S
C946 C944 1.394 . S
C946 C947 1.369 . S
C946 C950 1.531 . S
C947 C946 1.369 . S
C947 C948 1.410 . S
C947 C955 1.503 . S
C948 C947 1.410 . S
C948 C949 1.392 . S
C948 C951 1.511 . S
C949 C945 1.376 . S
C949 C948 1.392 . S
C949 H961 0.929 . S
C950 C946 1.531 . S
C950 H962 0.960 . S
C950 H963 0.962 . S
C950 H964 0.960 . S
C951 C948 1.511 . S
C951 H965 0.961 . S
C951 H966 0.961 . S
C951 H967 0.961 . S
C952 C953 1.370 . S
C952 C954 1.363 . S
C952 H968 0.931 . S
C953 C952 1.370 . S
C953 C957 1.408 . S
C954 C952 1.363 . S
C954 C955 1.370 . S
C954 C958 1.524 . S
C955 C947 1.503 . S
C955 C954 1.370 . S
C955 C956 1.403 . S
C956 C955 1.403 . S
C956 C957 1.404 . S
C956 C959 1.539 . S
C957 C953 1.408 . S
C957 C956 1.404 . S
C957 H969 0.930 . S
C958 C954 1.524 . S
C958 H970 0.956 . S
C958 H971 0.961 . S
C958 H972 0.961 . S
C959 C956 1.539 . S
C959 H973 0.958 . S
C959 H974 0.961 . S
C959 H975 0.960 . S
H960 C944 0.931 . S
H961 C949 0.929 . S
H962 C950 0.960 . S
H963 C950 0.962 . S
H964 C950 0.960 . S
H965 C951 0.961 . S
H966 C951 0.961 . S
H967 C951 0.961 . S
H968 C952 0.931 . S
H969 C957 0.930 . S
H970 C958 0.956 . S
H971 C958 0.961 . S
H972 C958 0.961 . S
H973 C959 0.958 . S
H974 C959 0.961 . S
H975 C959 0.960 . S
C976 C977 1.391 . S
C976 C978 1.394 . S
C976 H992 0.931 . S
C977 C976 1.391 . S
C977 C981 1.376 . S
C978 C976 1.394 . S
C978 C979 1.369 . S
C978 C982 1.531 . S
C979 C978 1.369 . S
C979 C980 1.410 . S
C979 C987 1.503 . S
C980 C979 1.410 . S
C980 C981 1.392 . S
C980 C983 1.511 . S
C981 C977 1.376 . S
C981 C980 1.392 . S
C981 H993 0.929 . S
C982 C978 1.531 . S
C982 H994 0.960 . S
C982 H995 0.962 . S
C982 H996 0.960 . S
C983 C980 1.511 . S
C983 H997 0.961 . S
C983 H998 0.961 . S
C983 H999 0.961 . S
C984 C985 1.370 . S
C984 C986 1.363 . S
C984 H1000 0.931 . S
C985 C984 1.370 . S
C985 C989 1.408 . S
C986 C984 1.363 . S
C986 C987 1.370 . S
C986 C990 1.524 . S
C987 C979 1.503 . S
C987 C986 1.370 . S
C987 C988 1.403 . S
C988 C987 1.403 . S
C988 C989 1.404 . S
C988 C991 1.539 . S
C989 C985 1.408 . S
C989 C988 1.404 . S
C989 H1001 0.930 . S
C990 C986 1.524 . S
C990 H1002 0.956 . S
C990 H1003 0.961 . S
C990 H1004 0.961 . S
C991 C988 1.539 . S
C991 H1005 0.958 . S
C991 H1006 0.961 . S
C991 H1007 0.960 . S
H992 C976 0.931 . S
H993 C981 0.929 . S
H994 C982 0.960 . S
H995 C982 0.962 . S
H996 C982 0.960 . S
H997 C983 0.961 . S
H998 C983 0.961 . S
H999 C983 0.961 . S
H1000 C984 0.931 . S
H1001 C989 0.930 . S
H1002 C990 0.956 . S
H1003 C990 0.961 . S
H1004 C990 0.961 . S
H1005 C991 0.958 . S
H1006 C991 0.961 . S
H1007 C991 0.960 . S
C1008 C1009 1.391 . S
C1008 C1010 1.394 . S
C1008 H1024 0.931 . S
C1009 C1008 1.391 . S
C1009 C1013 1.376 . S
C1010 C1008 1.394 . S
C1010 C1011 1.369 . S
C1010 C1014 1.531 . S
C1011 C1010 1.369 . S
C1011 C1012 1.410 . S
C1011 C1019 1.503 . S
C1012 C1011 1.410 . S
C1012 C1013 1.392 . S
C1012 C1015 1.511 . S
C1013 C1009 1.376 . S
C1013 C1012 1.392 . S
C1013 H1025 0.929 . S
C1014 C1010 1.531 . S
C1014 H1026 0.960 . S
C1014 H1027 0.962 . S
C1014 H1028 0.960 . S
C1015 C1012 1.511 . S
C1015 H1029 0.961 . S
C1015 H1030 0.961 . S
C1015 H1031 0.961 . S
C1016 C1017 1.370 . S
C1016 C1018 1.363 . S
C1016 H1032 0.931 . S
C1017 C1016 1.370 . S
C1017 C1021 1.408 . S
C1018 C1016 1.363 . S
C1018 C1019 1.370 . S
C1018 C1022 1.524 . S
C1019 C1011 1.503 . S
C1019 C1018 1.370 . S
C1019 C1020 1.403 . S
C1020 C1019 1.403 . S
C1020 C1021 1.404 . S
C1020 C1023 1.539 . S
C1021 C1017 1.408 . S
C1021 C1020 1.404 . S
C1021 H1033 0.930 . S
C1022 C1018 1.524 . S
C1022 H1034 0.956 . S
C1022 H1035 0.961 . S
C1022 H1036 0.961 . S
C1023 C1020 1.539 . S
C1023 H1037 0.958 . S
C1023 H1038 0.961 . S
C1023 H1039 0.960 . S
H1024 C1008 0.931 . S
H1025 C1013 0.929 . S
H1026 C1014 0.960 . S
H1027 C1014 0.962 . S
H1028 C1014 0.960 . S
H1029 C1015 0.961 . S
H1030 C1015 0.961 . S
H1031 C1015 0.961 . S
H1032 C1016 0.931 . S
H1033 C1021 0.930 . S
H1034 C1022 0.956 . S
H1035 C1022 0.961 . S
H1036 C1022 0.961 . S
H1037 C1023 0.958 . S
H1038 C1023 0.961 . S
H1039 C1023 0.960 . S
C1040 C1041 1.391 . S
C1040 C1042 1.394 . S
C1040 H1056 0.931 . S
C1041 C1040 1.391 . S
C1041 C1045 1.376 . S
C1042 C1040 1.394 . S
C1042 C1043 1.369 . S
C1042 C1046 1.531 . S
C1043 C1042 1.369 . S
C1043 C1044 1.410 . S
C1043 C1051 1.503 . S
C1044 C1043 1.410 . S
C1044 C1045 1.392 . S
C1044 C1047 1.511 . S
C1045 C1041 1.376 . S
C1045 C1044 1.392 . S
C1045 H1057 0.929 . S
C1046 C1042 1.531 . S
C1046 H1058 0.960 . S
C1046 H1059 0.962 . S
C1046 H1060 0.960 . S
C1047 C1044 1.511 . S
C1047 H1061 0.961 . S
C1047 H1062 0.961 . S
C1047 H1063 0.961 . S
C1048 C1049 1.370 . S
C1048 C1050 1.363 . S
C1048 H1064 0.931 . S
C1049 C1048 1.370 . S
C1049 C1053 1.408 . S
C1050 C1048 1.363 . S
C1050 C1051 1.370 . S
C1050 C1054 1.524 . S
C1051 C1043 1.503 . S
C1051 C1050 1.370 . S
C1051 C1052 1.403 . S
C1052 C1051 1.403 . S
C1052 C1053 1.404 . S
C1052 C1055 1.539 . S
C1053 C1049 1.408 . S
C1053 C1052 1.404 . S
C1053 H1065 0.930 . S
C1054 C1050 1.524 . S
C1054 H1066 0.956 . S
C1054 H1067 0.961 . S
C1054 H1068 0.961 . S
C1055 C1052 1.539 . S
C1055 H1069 0.958 . S
C1055 H1070 0.961 . S
C1055 H1071 0.960 . S
H1056 C1040 0.931 . S
H1057 C1045 0.929 . S
H1058 C1046 0.960 . S
H1059 C1046 0.962 . S
H1060 C1046 0.960 . S
H1061 C1047 0.961 . S
H1062 C1047 0.961 . S
H1063 C1047 0.961 . S
H1064 C1048 0.931 . S
H1065 C1053 0.930 . S
H1066 C1054 0.956 . S
H1067 C1054 0.961 . S
H1068 C1054 0.961 . S
H1069 C1055 0.958 . S
H1070 C1055 0.961 . S
H1071 C1055 0.960 . S
C1072 C1073 1.391 . S
C1072 C1074 1.394 . S
C1072 H1088 0.931 . S
C1073 C1072 1.391 . S
C1073 C1077 1.376 . S
C1074 C1072 1.394 . S
C1074 C1075 1.369 . S
C1074 C1078 1.531 . S
C1075 C1074 1.369 . S
C1075 C1076 1.410 . S
C1075 C1083 1.503 . S
C1076 C1075 1.410 . S
C1076 C1077 1.392 . S
C1076 C1079 1.511 . S
C1077 C1073 1.376 . S
C1077 C1076 1.392 . S
C1077 H1089 0.929 . S
C1078 C1074 1.531 . S
C1078 H1090 0.960 . S
C1078 H1091 0.962 . S
C1078 H1092 0.960 . S
C1079 C1076 1.511 . S
C1079 H1093 0.961 . S
C1079 H1094 0.961 . S
C1079 H1095 0.961 . S
C1080 C1081 1.370 . S
C1080 C1082 1.363 . S
C1080 H1096 0.931 . S
C1081 C1080 1.370 . S
C1081 C1085 1.408 . S
C1082 C1080 1.363 . S
C1082 C1083 1.370 . S
C1082 C1086 1.524 . S
C1083 C1075 1.503 . S
C1083 C1082 1.370 . S
C1083 C1084 1.403 . S
C1084 C1083 1.403 . S
C1084 C1085 1.404 . S
C1084 C1087 1.539 . S
C1085 C1081 1.408 . S
C1085 C1084 1.404 . S
C1085 H1097 0.930 . S
C1086 C1082 1.524 . S
C1086 H1098 0.956 . S
C1086 H1099 0.961 . S
C1086 H1100 0.961 . S
C1087 C1084 1.539 . S
C1087 H1101 0.958 . S
C1087 H1102 0.961 . S
C1087 H1103 0.960 . S
H1088 C1072 0.931 . S
H1089 C1077 0.929 . S
H1090 C1078 0.960 . S
H1091 C1078 0.962 . S
H1092 C1078 0.960 . S
H1093 C1079 0.961 . S
H1094 C1079 0.961 . S
H1095 C1079 0.961 . S
H1096 C1080 0.931 . S
H1097 C1085 0.930 . S
H1098 C1086 0.956 . S
H1099 C1086 0.961 . S
H1100 C1086 0.961 . S
H1101 C1087 0.958 . S
H1102 C1087 0.961 . S
H1103 C1087 0.960 . S
C1104 C1105 1.391 . S
C1104 C1106 1.394 . S
C1104 H1120 0.931 . S
C1105 C1104 1.391 . S
C1105 C1109 1.376 . S
C1106 C1104 1.394 . S
C1106 C1107 1.369 . S
C1106 C1110 1.531 . S
C1107 C1106 1.369 . S
C1107 C1108 1.410 . S
C1107 C1115 1.503 . S
C1108 C1107 1.410 . S
C1108 C1109 1.392 . S
C1108 C1111 1.511 . S
C1109 C1105 1.376 . S
C1109 C1108 1.392 . S
C1109 H1121 0.929 . S
C1110 C1106 1.531 . S
C1110 H1122 0.960 . S
C1110 H1123 0.962 . S
C1110 H1124 0.960 . S
C1111 C1108 1.511 . S
C1111 H1125 0.961 . S
C1111 H1126 0.961 . S
C1111 H1127 0.961 . S
C1112 C1113 1.370 . S
C1112 C1114 1.363 . S
C1112 H1128 0.931 . S
C1113 C1112 1.370 . S
C1113 C1117 1.408 . S
C1114 C1112 1.363 . S
C1114 C1115 1.370 . S
C1114 C1118 1.524 . S
C1115 C1107 1.503 . S
C1115 C1114 1.370 . S
C1115 C1116 1.403 . S
C1116 C1115 1.403 . S
C1116 C1117 1.404 . S
C1116 C1119 1.539 . S
C1117 C1113 1.408 . S
C1117 C1116 1.404 . S
C1117 H1129 0.930 . S
C1118 C1114 1.524 . S
C1118 H1130 0.956 . S
C1118 H1131 0.961 . S
C1118 H1132 0.961 . S
C1119 C1116 1.539 . S
C1119 H1133 0.958 . S
C1119 H1134 0.961 . S
C1119 H1135 0.960 . S
H1120 C1104 0.931 . S
H1121 C1109 0.929 . S
H1122 C1110 0.960 . S
H1123 C1110 0.962 . S
H1124 C1110 0.960 . S
H1125 C1111 0.961 . S
H1126 C1111 0.961 . S
H1127 C1111 0.961 . S
H1128 C1112 0.931 . S
H1129 C1117 0.930 . S
H1130 C1118 0.956 . S
H1131 C1118 0.961 . S
H1132 C1118 0.961 . S
H1133 C1119 0.958 . S
H1134 C1119 0.961 . S
H1135 C1119 0.960 . S
C1136 C1137 1.391 . S
C1136 C1138 1.394 . S
C1136 H1152 0.931 . S
C1137 C1136 1.391 . S
C1137 C1141 1.376 . S
C1138 C1136 1.394 . S
C1138 C1139 1.369 . S
C1138 C1142 1.531 . S
C1139 C1138 1.369 . S
C1139 C1140 1.410 . S
C1139 C1147 1.503 . S
C1140 C1139 1.410 . S
C1140 C1141 1.392 . S
C1140 C1143 1.511 . S
C1141 C1137 1.376 . S
C1141 C1140 1.392 . S
C1141 H1153 0.929 . S
C1142 C1138 1.531 . S
C1142 H1154 0.960 . S
C1142 H1155 0.962 . S
C1142 H1156 0.960 . S
C1143 C1140 1.511 . S
C1143 H1157 0.961 . S
C1143 H1158 0.961 . S
C1143 H1159 0.961 . S
C1144 C1145 1.370 . S
C1144 C1146 1.363 . S
C1144 H1160 0.931 . S
C1145 C1144 1.370 . S
C1145 C1149 1.408 . S
C1146 C1144 1.363 . S
C1146 C1147 1.370 . S
C1146 C1150 1.524 . S
C1147 C1139 1.503 . S
C1147 C1146 1.370 . S
C1147 C1148 1.403 . S
C1148 C1147 1.403 . S
C1148 C1149 1.404 . S
C1148 C1151 1.539 . S
C1149 C1145 1.408 . S
C1149 C1148 1.404 . S
C1149 H1161 0.930 . S
C1150 C1146 1.524 . S
C1150 H1162 0.956 . S
C1150 H1163 0.961 . S
C1150 H1164 0.961 . S
C1151 C1148 1.539 . S
C1151 H1165 0.958 . S
C1151 H1166 0.961 . S
C1151 H1167 0.960 . S
H1152 C1136 0.931 . S
H1153 C1141 0.929 . S
H1154 C1142 0.960 . S
H1155 C1142 0.962 . S
H1156 C1142 0.960 . S
H1157 C1143 0.961 . S
H1158 C1143 0.961 . S
H1159 C1143 0.961 . S
H1160 C1144 0.931 . S
H1161 C1149 0.930 . S
H1162 C1150 0.956 . S
H1163 C1150 0.961 . S
H1164 C1150 0.961 . S
H1165 C1151 0.958 . S
H1166 C1151 0.961 . S
H1167 C1151 0.960 . S
C1168 C1169 1.391 . S
C1168 C1170 1.394 . S
C1168 H1184 0.931 . S
C1169 C1168 1.391 . S
C1169 C1173 1.376 . S
C1170 C1168 1.394 . S
C1170 C1171 1.369 . S
C1170 C1174 1.531 . S
C1171 C1170 1.369 . S
C1171 C1172 1.410 . S
C1171 C1179 1.503 . S
C1172 C1171 1.410 . S
C1172 C1173 1.392 . S
C1172 C1175 1.511 . S
C1173 C1169 1.376 . S
C1173 C1172 1.392 . S
C1173 H1185 0.929 . S
C1174 C1170 1.531 . S
C1174 H1186 0.960 . S
C1174 H1187 0.962 . S
C1174 H1188 0.960 . S
C1175 C1172 1.511 . S
C1175 H1189 0.961 . S
C1175 H1190 0.961 . S
C1175 H1191 0.961 . S
C1176 C1177 1.370 . S
C1176 C1178 1.363 . S
C1176 H1192 0.931 . S
C1177 C1176 1.370 . S
C1177 C1181 1.408 . S
C1178 C1176 1.363 . S
C1178 C1179 1.370 . S
C1178 C1182 1.524 . S
C1179 C1171 1.503 . S
C1179 C1178 1.370 . S
C1179 C1180 1.403 . S
C1180 C1179 1.403 . S
C1180 C1181 1.404 . S
C1180 C1183 1.539 . S
C1181 C1177 1.408 . S
C1181 C1180 1.404 . S
C1181 H1193 0.930 . S
C1182 C1178 1.524 . S
C1182 H1194 0.956 . S
C1182 H1195 0.961 . S
C1182 H1196 0.961 . S
C1183 C1180 1.539 . S
C1183 H1197 0.958 . S
C1183 H1198 0.961 . S
C1183 H1199 0.960 . S
H1184 C1168 0.931 . S
H1185 C1173 0.929 . S
H1186 C1174 0.960 . S
H1187 C1174 0.962 . S
H1188 C1174 0.960 . S
H1189 C1175 0.961 . S
H1190 C1175 0.961 . S
H1191 C1175 0.961 . S
H1192 C1176 0.931 . S
H1193 C1181 0.930 . S
H1194 C1182 0.956 . S
H1195 C1182 0.961 . S
H1196 C1182 0.961 . S
H1197 C1183 0.958 . S
H1198 C1183 0.961 . S
H1199 C1183 0.960 . S
C1200 C1201 1.391 . S
C1200 C1202 1.394 . S
C1200 H1216 0.931 . S
C1201 C1200 1.391 . S
C1201 C1205 1.376 . S
C1202 C1200 1.394 . S
C1202 C1203 1.369 . S
C1202 C1206 1.531 . S
C1203 C1202 1.369 . S
C1203 C1204 1.410 . S
C1203 C1211 1.503 . S
C1204 C1203 1.410 . S
C1204 C1205 1.392 . S
C1204 C1207 1.511 . S
C1205 C1201 1.376 . S
C1205 C1204 1.392 . S
C1205 H1217 0.929 . S
C1206 C1202 1.531 . S
C1206 H1218 0.960 . S
C1206 H1219 0.962 . S
C1206 H1220 0.960 . S
C1207 C1204 1.511 . S
C1207 H1221 0.961 . S
C1207 H1222 0.961 . S
C1207 H1223 0.961 . S
C1208 C1209 1.370 . S
C1208 C1210 1.363 . S
C1208 H1224 0.931 . S
C1209 C1208 1.370 . S
C1209 C1213 1.408 . S
C1210 C1208 1.363 . S
C1210 C1211 1.370 . S
C1210 C1214 1.524 . S
C1211 C1203 1.503 . S
C1211 C1210 1.370 . S
C1211 C1212 1.403 . S
C1212 C1211 1.403 . S
C1212 C1213 1.404 . S
C1212 C1215 1.539 . S
C1213 C1209 1.408 . S
C1213 C1212 1.404 . S
C1213 H1225 0.930 . S
C1214 C1210 1.524 . S
C1214 H1226 0.956 . S
C1214 H1227 0.961 . S
C1214 H1228 0.961 . S
C1215 C1212 1.539 . S
C1215 H1229 0.958 . S
C1215 H1230 0.961 . S
C1215 H1231 0.960 . S
H1216 C1200 0.931 . S
H1217 C1205 0.929 . S
H1218 C1206 0.960 . S
H1219 C1206 0.962 . S
H1220 C1206 0.960 . S
H1221 C1207 0.961 . S
H1222 C1207 0.961 . S
H1223 C1207 0.961 . S
H1224 C1208 0.931 . S
H1225 C1213 0.930 . S
H1226 C1214 0.956 . S
H1227 C1214 0.961 . S
H1228 C1214 0.961 . S
H1229 C1215 0.958 . S
H1230 C1215 0.961 . S
H1231 C1215 0.960 . S
C1232 C1233 1.391 . S
C1232 C1234 1.394 . S
C1232 H1248 0.931 . S
C1233 C1232 1.391 . S
C1233 C1237 1.376 . S
C1234 C1232 1.394 . S
C1234 C1235 1.369 . S
C1234 C1238 1.531 . S
C1235 C1234 1.369 . S
C1235 C1236 1.410 . S
C1235 C1243 1.503 . S
C1236 C1235 1.410 . S
C1236 C1237 1.392 . S
C1236 C1239 1.511 . S
C1237 C1233 1.376 . S
C1237 C1236 1.392 . S
C1237 H1249 0.929 . S
C1238 C1234 1.531 . S
C1238 H1250 0.960 . S
C1238 H1251 0.962 . S
C1238 H1252 0.960 . S
C1239 C1236 1.511 . S
C1239 H1253 0.961 . S
C1239 H1254 0.961 . S
C1239 H1255 0.961 . S
C1240 C1241 1.370 . S
C1240 C1242 1.363 . S
C1240 H1256 0.931 . S
C1241 C1240 1.370 . S
C1241 C1245 1.408 . S
C1242 C1240 1.363 . S
C1242 C1243 1.370 . S
C1242 C1246 1.524 . S
C1243 C1235 1.503 . S
C1243 C1242 1.370 . S
C1243 C1244 1.403 . S
C1244 C1243 1.403 . S
C1244 C1245 1.404 . S
C1244 C1247 1.539 . S
C1245 C1241 1.408 . S
C1245 C1244 1.404 . S
C1245 H1257 0.930 . S
C1246 C1242 1.524 . S
C1246 H1258 0.956 . S
C1246 H1259 0.961 . S
C1246 H1260 0.961 . S
C1247 C1244 1.539 . S
C1247 H1261 0.958 . S
C1247 H1262 0.961 . S
C1247 H1263 0.960 . S
H1248 C1232 0.931 . S
H1249 C1237 0.929 . S
H1250 C1238 0.960 . S
H1251 C1238 0.962 . S
H1252 C1238 0.960 . S
H1253 C1239 0.961 . S
H1254 C1239 0.961 . S
H1255 C1239 0.961 . S
H1256 C1240 0.931 . S
H1257 C1245 0.930 . S
H1258 C1246 0.956 . S
H1259 C1246 0.961 . S
H1260 C1246 0.961 . S
H1261 C1247 0.958 . S
H1262 C1247 0.961 . S
H1263 C1247 0.960 . S
C1264 C1265 1.391 . S
C1264 C1266 1.394 . S
C1264 H1280 0.931 . S
C1265 C1264 1.391 . S
C1265 C1269 1.376 . S
C1266 C1264 1.394 . S
C1266 C1267 1.369 . S
C1266 C1270 1.531 . S
C1267 C1266 1.369 . S
C1267 C1268 1.410 . S
C1267 C1275 1.503 . S
C1268 C1267 1.410 . S
C1268 C1269 1.392 . S
C1268 C1271 1.511 . S
C1269 C1265 1.376 . S
C1269 C1268 1.392 . S
C1269 H1281 0.929 . S
C1270 C1266 1.531 . S
C1270 H1282 0.960 . S
C1270 H1283 0.962 . S
C1270 H1284 0.960 . S
C1271 C1268 1.511 . S
C1271 H1285 0.961 . S
C1271 H1286 0.961 . S
C1271 H1287 0.961 . S
C1272 C1273 1.370 . S
C1272 C1274 1.363 . S
C1272 H1288 0.931 . S
C1273 C1272 1.370 . S
C1273 C1277 1.408 . S
C1274 C1272 1.363 . S
C1274 C1275 1.370 . S
C1274 C1278 1.524 . S
C1275 C1267 1.503 . S
C1275 C1274 1.370 . S
C1275 C1276 1.403 . S
C1276 C1275 1.403 . S
C1276 C1277 1.404 . S
C1276 C1279 1.539 . S
C1277 C1273 1.408 . S
C1277 C1276 1.404 . S
C1277 H1289 0.930 . S
C1278 C1274 1.524 . S
C1278 H1290 0.956 . S
C1278 H1291 0.961 . S
C1278 H1292 0.961 . S
C1279 C1276 1.539 . S
C1279 H1293 0.958 . S
C1279 H1294 0.961 . S
C1279 H1295 0.960 . S
H1280 C1264 0.931 . S
H1281 C1269 0.929 . S
H1282 C1270 0.960 . S
H1283 C1270 0.962 . S
H1284 C1270 0.960 . S
H1285 C1271 0.961 . S
H1286 C1271 0.961 . S
H1287 C1271 0.961 . S
H1288 C1272 0.931 . S
H1289 C1277 0.930 . S
H1290 C1278 0.956 . S
H1291 C1278 0.961 . S
H1292 C1278 0.961 . S
H1293 C1279 0.958 . S
H1294 C1279 0.961 . S
H1295 C1279 0.960 . S
C1296 C1297 1.391 . S
C1296 C1298 1.394 . S
C1296 H1312 0.931 . S
C1297 C1296 1.391 . S
C1297 C1301 1.376 . S
C1298 C1296 1.394 . S
C1298 C1299 1.369 . S
C1298 C1302 1.531 . S
C1299 C1298 1.369 . S
C1299 C1300 1.410 . S
C1299 C1307 1.503 . S
C1300 C1299 1.410 . S
C1300 C1301 1.392 . S
C1300 C1303 1.511 . S
C1301 C1297 1.376 . S
C1301 C1300 1.392 . S
C1301 H1313 0.929 . S
C1302 C1298 1.531 . S
C1302 H1314 0.960 . S
C1302 H1315 0.962 . S
C1302 H1316 0.960 . S
C1303 C1300 1.511 . S
C1303 H1317 0.961 . S
C1303 H1318 0.961 . S
C1303 H1319 0.961 . S
C1304 C1305 1.370 . S
C1304 C1306 1.363 . S
C1304 H1320 0.931 . S
C1305 C1304 1.370 . S
C1305 C1309 1.408 . S
C1306 C1304 1.363 . S
C1306 C1307 1.370 . S
C1306 C1310 1.524 . S
C1307 C1299 1.503 . S
C1307 C1306 1.370 . S
C1307 C1308 1.403 . S
C1308 C1307 1.403 . S
C1308 C1309 1.404 . S
C1308 C1311 1.539 . S
C1309 C1305 1.408 . S
C1309 C1308 1.404 . S
C1309 H1321 0.930 . S
C1310 C1306 1.524 . S
C1310 H1322 0.956 . S
C1310 H1323 0.961 . S
C1310 H1324 0.961 . S
C1311 C1308 1.539 . S
C1311 H1325 0.958 . S
C1311 H1326 0.961 . S
C1311 H1327 0.960 . S
H1312 C1296 0.931 . S
H1313 C1301 0.929 . S
H1314 C1302 0.960 . S
H1315 C1302 0.962 . S
H1316 C1302 0.960 . S
H1317 C1303 0.961 . S
H1318 C1303 0.961 . S
H1319 C1303 0.961 . S
H1320 C1304 0.931 . S
H1321 C1309 0.930 . S
H1322 C1310 0.956 . S
H1323 C1310 0.961 . S
H1324 C1310 0.961 . S
H1325 C1311 0.958 . S
H1326 C1311 0.961 . S
H1327 C1311 0.960 . S
C1328 C1329 1.391 . S
C1328 C1330 1.394 . S
C1328 H1344 0.931 . S
C1329 C1328 1.391 . S
C1329 C1333 1.376 . S
C1330 C1328 1.394 . S
C1330 C1331 1.369 . S
C1330 C1334 1.531 . S
C1331 C1330 1.369 . S
C1331 C1332 1.410 . S
C1331 C1339 1.503 . S
C1332 C1331 1.410 . S
C1332 C1333 1.392 . S
C1332 C1335 1.511 . S
C1333 C1329 1.376 . S
C1333 C1332 1.392 . S
C1333 H1345 0.929 . S
C1334 C1330 1.531 . S
C1334 H1346 0.960 . S
C1334 H1347 0.962 . S
C1334 H1348 0.960 . S
C1335 C1332 1.511 . S
C1335 H1349 0.961 . S
C1335 H1350 0.961 . S
C1335 H1351 0.961 . S
C1336 C1337 1.370 . S
C1336 C1338 1.363 . S
C1336 H1352 0.931 . S
C1337 C1336 1.370 . S
C1337 C1341 1.408 . S
C1338 C1336 1.363 . S
C1338 C1339 1.370 . S
C1338 C1342 1.524 . S
C1339 C1331 1.503 . S
C1339 C1338 1.370 . S
C1339 C1340 1.403 . S
C1340 C1339 1.403 . S
C1340 C1341 1.404 . S
C1340 C1343 1.539 . S
C1341 C1337 1.408 . S
C1341 C1340 1.404 . S
C1341 H1353 0.930 . S
C1342 C1338 1.524 . S
C1342 H1354 0.956 . S
C1342 H1355 0.961 . S
C1342 H1356 0.961 . S
C1343 C1340 1.539 . S
C1343 H1357 0.958 . S
C1343 H1358 0.961 . S
C1343 H1359 0.960 . S
H1344 C1328 0.931 . S
H1345 C1333 0.929 . S
H1346 C1334 0.960 . S
H1347 C1334 0.962 . S
H1348 C1334 0.960 . S
H1349 C1335 0.961 . S
H1350 C1335 0.961 . S
H1351 C1335 0.961 . S
H1352 C1336 0.931 . S
H1353 C1341 0.930 . S
H1354 C1342 0.956 . S
H1355 C1342 0.961 . S
H1356 C1342 0.961 . S
H1357 C1343 0.958 . S
H1358 C1343 0.961 . S
H1359 C1343 0.960 . S
C1360 C1361 1.391 . S
C1360 C1362 1.394 . S
C1360 H1376 0.931 . S
C1361 C1360 1.391 . S
C1361 C1365 1.376 . S
C1362 C1360 1.394 . S
C1362 C1363 1.369 . S
C1362 C1366 1.531 . S
C1363 C1362 1.369 . S
C1363 C1364 1.410 . S
C1363 C1371 1.503 . S
C1364 C1363 1.410 . S
C1364 C1365 1.392 . S
C1364 C1367 1.511 . S
C1365 C1361 1.376 . S
C1365 C1364 1.392 . S
C1365 H1377 0.929 . S
C1366 C1362 1.531 . S
C1366 H1378 0.960 . S
C1366 H1379 0.962 . S
C1366 H1380 0.960 . S
C1367 C1364 1.511 . S
C1367 H1381 0.961 . S
C1367 H1382 0.961 . S
C1367 H1383 0.961 . S
C1368 C1369 1.370 . S
C1368 C1370 1.363 . S
C1368 H1384 0.931 . S
C1369 C1368 1.370 . S
C1369 C1373 1.408 . S
C1370 C1368 1.363 . S
C1370 C1371 1.370 . S
C1370 C1374 1.524 . S
C1371 C1363 1.503 . S
C1371 C1370 1.370 . S
C1371 C1372 1.403 . S
C1372 C1371 1.403 . S
C1372 C1373 1.404 . S
C1372 C1375 1.539 . S
C1373 C1369 1.408 . S
C1373 C1372 1.404 . S
C1373 H1385 0.930 . S
C1374 C1370 1.524 . S
C1374 H1386 0.956 . S
C1374 H1387 0.961 . S
C1374 H1388 0.961 . S
C1375 C1372 1.539 . S
C1375 H1389 0.958 . S
C1375 H1390 0.961 . S
C1375 H1391 0.960 . S
H1376 C1360 0.931 . S
H1377 C1365 0.929 . S
H1378 C1366 0.960 . S
H1379 C1366 0.962 . S
H1380 C1366 0.960 . S
H1381 C1367 0.961 . S
H1382 C1367 0.961 . S
H1383 C1367 0.961 . S
H1384 C1368 0.931 . S
H1385 C1373 0.930 . S
H1386 C1374 0.956 . S
H1387 C1374 0.961 . S
H1388 C1374 0.961 . S
H1389 C1375 0.958 . S
H1390 C1375 0.961 . S
H1391 C1375 0.960 . S
C1392 C1393 1.391 . S
C1392 C1394 1.394 . S
C1392 H1408 0.931 . S
C1393 C1392 1.391 . S
C1393 C1397 1.376 . S
C1394 C1392 1.394 . S
C1394 C1395 1.369 . S
C1394 C1398 1.531 . S
C1395 C1394 1.369 . S
C1395 C1396 1.410 . S
C1395 C1403 1.503 . S
C1396 C1395 1.410 . S
C1396 C1397 1.392 . S
C1396 C1399 1.511 . S
C1397 C1393 1.376 . S
C1397 C1396 1.392 . S
C1397 H1409 0.929 . S
C1398 C1394 1.531 . S
C1398 H1410 0.960 . S
C1398 H1411 0.962 . S
C1398 H1412 0.960 . S
C1399 C1396 1.511 . S
C1399 H1413 0.961 . S
C1399 H1414 0.961 . S
C1399 H1415 0.961 . S
C1400 C1401 1.370 . S
C1400 C1402 1.363 . S
C1400 H1416 0.931 . S
C1401 C1400 1.370 . S
C1401 C1405 1.408 . S
C1402 C1400 1.363 . S
C1402 C1403 1.370 . S
C1402 C1406 1.524 . S
C1403 C1395 1.503 . S
C1403 C1402 1.370 . S
C1403 C1404 1.403 . S
C1404 C1403 1.403 . S
C1404 C1405 1.404 . S
C1404 C1407 1.539 . S
C1405 C1401 1.408 . S
C1405 C1404 1.404 . S
C1405 H1417 0.930 . S
C1406 C1402 1.524 . S
C1406 H1418 0.956 . S
C1406 H1419 0.961 . S
C1406 H1420 0.961 . S
C1407 C1404 1.539 . S
C1407 H1421 0.958 . S
C1407 H1422 0.961 . S
C1407 H1423 0.960 . S
H1408 C1392 0.931 . S
H1409 C1397 0.929 . S
H1410 C1398 0.960 . S
H1411 C1398 0.962 . S
H1412 C1398 0.960 . S
H1413 C1399 0.961 . S
H1414 C1399 0.961 . S
H1415 C1399 0.961 . S
H1416 C1400 0.931 . S
H1417 C1405 0.930 . S
H1418 C1406 0.956 . S
H1419 C1406 0.961 . S
H1420 C1406 0.961 . S
H1421 C1407 0.958 . S
H1422 C1407 0.961 . S
H1423 C1407 0.960 . S
C1424 C1425 1.391 . S
C1424 C1426 1.394 . S
C1424 H1440 0.931 . S
C1425 C1424 1.391 . S
C1425 C1429 1.376 . S
C1426 C1424 1.394 . S
C1426 C1427 1.369 . S
C1426 C1430 1.531 . S
C1427 C1426 1.369 . S
C1427 C1428 1.410 . S
C1427 C1435 1.503 . S
C1428 C1427 1.410 . S
C1428 C1429 1.392 . S
C1428 C1431 1.511 . S
C1429 C1425 1.376 . S
C1429 C1428 1.392 . S
C1429 H1441 0.929 . S
C1430 C1426 1.531 . S
C1430 H1442 0.960 . S
C1430 H1443 0.962 . S
C1430 H1444 0.960 . S
C1431 C1428 1.511 . S
C1431 H1445 0.961 . S
C1431 H1446 0.961 . S
C1431 H1447 0.961 . S
C1432 C1433 1.370 . S
C1432 C1434 1.363 . S
C1432 H1448 0.931 . S
C1433 C1432 1.370 . S
C1433 C1437 1.408 . S
C1434 C1432 1.363 . S
C1434 C1435 1.370 . S
C1434 C1438 1.524 . S
C1435 C1427 1.503 . S
C1435 C1434 1.370 . S
C1435 C1436 1.403 . S
C1436 C1435 1.403 . S
C1436 C1437 1.404 . S
C1436 C1439 1.539 . S
C1437 C1433 1.408 . S
C1437 C1436 1.404 . S
C1437 H1449 0.930 . S
C1438 C1434 1.524 . S
C1438 H1450 0.956 . S
C1438 H1451 0.961 . S
C1438 H1452 0.961 . S
C1439 C1436 1.539 . S
C1439 H1453 0.958 . S
C1439 H1454 0.961 . S
C1439 H1455 0.960 . S
H1440 C1424 0.931 . S
H1441 C1429 0.929 . S
H1442 C1430 0.960 . S
H1443 C1430 0.962 . S
H1444 C1430 0.960 . S
H1445 C1431 0.961 . S
H1446 C1431 0.961 . S
H1447 C1431 0.961 . S
H1448 C1432 0.931 . S
H1449 C1437 0.930 . S
H1450 C1438 0.956 . S
H1451 C1438 0.961 . S
H1452 C1438 0.961 . S
H1453 C1439 0.958 . S
H1454 C1439 0.961 . S
H1455 C1439 0.960 . S
C1456 C1457 1.391 . S
C1456 C1458 1.394 . S
C1456 H1472 0.931 . S
C1457 C1456 1.391 . S
C1457 C1461 1.376 . S
C1458 C1456 1.394 . S
C1458 C1459 1.369 . S
C1458 C1462 1.531 . S
C1459 C1458 1.369 . S
C1459 C1460 1.410 . S
C1459 C1467 1.503 . S
C1460 C1459 1.410 . S
C1460 C1461 1.392 . S
C1460 C1463 1.511 . S
C1461 C1457 1.376 . S
C1461 C1460 1.392 . S
C1461 H1473 0.929 . S
C1462 C1458 1.531 . S
C1462 H1474 0.960 . S
C1462 H1475 0.962 . S
C1462 H1476 0.960 . S
C1463 C1460 1.511 . S
C1463 H1477 0.961 . S
C1463 H1478 0.961 . S
C1463 H1479 0.961 . S
C1464 C1465 1.370 . S
C1464 C1466 1.363 . S
C1464 H1480 0.931 . S
C1465 C1464 1.370 . S
C1465 C1469 1.408 . S
C1466 C1464 1.363 . S
C1466 C1467 1.370 . S
C1466 C1470 1.524 . S
C1467 C1459 1.503 . S
C1467 C1466 1.370 . S
C1467 C1468 1.403 . S
C1468 C1467 1.403 . S
C1468 C1469 1.404 . S
C1468 C1471 1.539 . S
C1469 C1465 1.408 . S
C1469 C1468 1.404 . S
C1469 H1481 0.930 . S
C1470 C1466 1.524 . S
C1470 H1482 0.956 . S
C1470 H1483 0.961 . S
C1470 H1484 0.961 . S
C1471 C1468 1.539 . S
C1471 H1485 0.958 . S
C1471 H1486 0.961 . S
C1471 H1487 0.960 . S
H1472 C1456 0.931 . S
H1473 C1461 0.929 . S
H1474 C1462 0.960 . S
H1475 C1462 0.962 . S
H1476 C1462 0.960 . S
H1477 C1463 0.961 . S
H1478 C1463 0.961 . S
H1479 C1463 0.961 . S
H1480 C1464 0.931 . S
H1481 C1469 0.930 . S
H1482 C1470 0.956 . S
H1483 C1470 0.961 . S
H1484 C1470 0.961 . S
H1485 C1471 0.958 . S
H1486 C1471 0.961 . S
H1487 C1471 0.960 . S
C1488 C1489 1.391 . S
C1488 C1490 1.394 . S
C1488 H1504 0.931 . S
C1489 C1488 1.391 . S
C1489 C1493 1.376 . S
C1490 C1488 1.394 . S
C1490 C1491 1.369 . S
C1490 C1494 1.531 . S
C1491 C1490 1.369 . S
C1491 C1492 1.410 . S
C1491 C1499 1.503 . S
C1492 C1491 1.410 . S
C1492 C1493 1.392 . S
C1492 C1495 1.511 . S
C1493 C1489 1.376 . S
C1493 C1492 1.392 . S
C1493 H1505 0.929 . S
C1494 C1490 1.531 . S
C1494 H1506 0.960 . S
C1494 H1507 0.962 . S
C1494 H1508 0.960 . S
C1495 C1492 1.511 . S
C1495 H1509 0.961 . S
C1495 H1510 0.961 . S
C1495 H1511 0.961 . S
C1496 C1497 1.370 . S
C1496 C1498 1.363 . S
C1496 H1512 0.931 . S
C1497 C1496 1.370 . S
C1497 C1501 1.408 . S
C1498 C1496 1.363 . S
C1498 C1499 1.370 . S
C1498 C1502 1.524 . S
C1499 C1491 1.503 . S
C1499 C1498 1.370 . S
C1499 C1500 1.403 . S
C1500 C1499 1.403 . S
C1500 C1501 1.404 . S
C1500 C1503 1.539 . S
C1501 C1497 1.408 . S
C1501 C1500 1.404 . S
C1501 H1513 0.930 . S
C1502 C1498 1.524 . S
C1502 H1514 0.956 . S
C1502 H1515 0.961 . S
C1502 H1516 0.961 . S
C1503 C1500 1.539 . S
C1503 H1517 0.958 . S
C1503 H1518 0.961 . S
C1503 H1519 0.960 . S
H1504 C1488 0.931 . S
H1505 C1493 0.929 . S
H1506 C1494 0.960 . S
H1507 C1494 0.962 . S
H1508 C1494 0.960 . S
H1509 C1495 0.961 . S
H1510 C1495 0.961 . S
H1511 C1495 0.961 . S
H1512 C1496 0.931 . S
H1513 C1501 0.930 . S
H1514 C1502 0.956 . S
H1515 C1502 0.961 . S
H1516 C1502 0.961 . S
H1517 C1503 0.958 . S
H1518 C1503 0.961 . S
H1519 C1503 0.960 . S
C1520 C1521 1.391 . S
C1520 C1522 1.394 . S
C1520 H1536 0.931 . S
C1521 C1520 1.391 . S
C1521 C1525 1.376 . S
C1522 C1520 1.394 . S
C1522 C1523 1.369 . S
C1522 C1526 1.531 . S
C1523 C1522 1.369 . S
C1523 C1524 1.410 . S
C1523 C1531 1.503 . S
C1524 C1523 1.410 . S
C1524 C1525 1.392 . S
C1524 C1527 1.511 . S
C1525 C1521 1.376 . S
C1525 C1524 1.392 . S
C1525 H1537 0.929 . S
C1526 C1522 1.531 . S
C1526 H1538 0.960 . S
C1526 H1539 0.962 . S
C1526 H1540 0.960 . S
C1527 C1524 1.511 . S
C1527 H1541 0.961 . S
C1527 H1542 0.961 . S
C1527 H1543 0.961 . S
C1528 C1529 1.370 . S
C1528 C1530 1.363 . S
C1528 H1544 0.931 . S
C1529 C1528 1.370 . S
C1529 C1533 1.408 . S
C1530 C1528 1.363 . S
C1530 C1531 1.370 . S
C1530 C1534 1.524 . S
C1531 C1523 1.503 . S
C1531 C1530 1.370 . S
C1531 C1532 1.403 . S
C1532 C1531 1.403 . S
C1532 C1533 1.404 . S
C1532 C1535 1.539 . S
C1533 C1529 1.408 . S
C1533 C1532 1.404 . S
C1533 H1545 0.930 . S
C1534 C1530 1.524 . S
C1534 H1546 0.956 . S
C1534 H1547 0.961 . S
C1534 H1548 0.961 . S
C1535 C1532 1.539 . S
C1535 H1549 0.958 . S
C1535 H1550 0.961 . S
C1535 H1551 0.960 . S
H1536 C1520 0.931 . S
H1537 C1525 0.929 . S
H1538 C1526 0.960 . S
H1539 C1526 0.962 . S
H1540 C1526 0.960 . S
H1541 C1527 0.961 . S
H1542 C1527 0.961 . S
H1543 C1527 0.961 . S
H1544 C1528 0.931 . S
H1545 C1533 0.930 . S
H1546 C1534 0.956 . S
H1547 C1534 0.961 . S
H1548 C1534 0.961 . S
H1549 C1535 0.958 . S
H1550 C1535 0.961 . S
H1551 C1535 0.960 . S
C1552 C1553 1.391 . S
C1552 C1554 1.394 . S
C1552 H1568 0.931 . S
C1553 C1552 1.391 . S
C1553 C1557 1.376 1_655 S
C1554 C1552 1.394 . S
C1554 C1555 1.369 . S
C1554 C1558 1.531 . S
C1555 C1554 1.369 . S
C1555 C1556 1.410 1_655 S
C1555 C1563 1.503 1_655 S
C1556 C1555 1.410 1_455 S
C1556 C1557 1.392 . S
C1556 C1559 1.511 . S
C1557 C1553 1.376 1_455 S
C1557 C1556 1.392 . S
C1557 H1569 0.929 . S
C1558 C1554 1.531 . S
C1558 H1570 0.960 . S
C1558 H1571 0.962 . S
C1558 H1572 0.960 . S
C1559 C1556 1.511 . S
C1559 H1573 0.961 . S
C1559 H1574 0.961 . S
C1559 H1575 0.961 . S
C1560 C1561 1.370 . S
C1560 C1562 1.363 . S
C1560 H1576 0.931 . S
C1561 C1560 1.370 . S
C1561 C1565 1.408 . S
C1562 C1560 1.363 . S
C1562 C1563 1.370 . S
C1562 C1566 1.525 1_455 S
C1563 C1555 1.503 1_455 S
C1563 C1562 1.370 . S
C1563 C1564 1.403 . S
C1564 C1563 1.403 . S
C1564 C1565 1.404 . S
C1564 C1567 1.539 . S
C1565 C1561 1.408 . S
C1565 C1564 1.404 . S
C1565 H1577 0.930 . S
C1566 C1562 1.525 1_655 S
C1566 H1578 0.956 . S
C1566 H1579 0.961 . S
C1566 H1580 0.961 . S
C1567 C1564 1.539 . S
C1567 H1581 0.958 . S
C1567 H1582 0.961 . S
C1567 H1583 0.960 . S
H1568 C1552 0.931 . S
H1569 C1557 0.929 . S
H1570 C1558 0.960 . S
H1571 C1558 0.962 . S
H1572 C1558 0.960 . S
H1573 C1559 0.961 . S
H1574 C1559 0.961 . S
H1575 C1559 0.961 . S
H1576 C1560 0.931 . S
H1577 C1565 0.930 . S
H1578 C1566 0.956 . S
H1579 C1566 0.961 . S
H1580 C1566 0.961 . S
H1581 C1567 0.958 . S
H1582 C1567 0.961 . S
H1583 C1567 0.960 . S
C1584 C1585 1.391 . S
C1584 C1586 1.394 . S
C1584 H1600 0.931 . S
C1585 C1584 1.391 . S
C1585 C1589 1.376 1_565 S
C1586 C1584 1.394 . S
C1586 C1587 1.369 . S
C1586 C1590 1.531 . S
C1587 C1586 1.369 . S
C1587 C1588 1.410 1_565 S
C1587 C1595 1.503 1_565 S
C1588 C1587 1.410 1_545 S
C1588 C1589 1.392 . S
C1588 C1591 1.511 . S
C1589 C1585 1.376 1_545 S
C1589 C1588 1.392 . S
C1589 H1601 0.929 . S
C1590 C1586 1.531 . S
C1590 H1602 0.960 . S
C1590 H1603 0.962 . S
C1590 H1604 0.960 . S
C1591 C1588 1.511 . S
C1591 H1605 0.961 . S
C1591 H1606 0.961 . S
C1591 H1607 0.961 . S
C1592 C1593 1.370 . S
C1592 C1594 1.363 . S
C1592 H1608 0.931 . S
C1593 C1592 1.370 . S
C1593 C1597 1.408 . S
C1594 C1592 1.363 . S
C1594 C1595 1.370 . S
C1594 C1598 1.524 . S
C1595 C1587 1.503 1_545 S
C1595 C1594 1.370 . S
C1595 C1596 1.406 . S
C1596 C1595 1.406 . S
C1596 C1597 1.416 . S
C1596 C1599 1.528 1_545 S
C1597 C1593 1.408 . S
C1597 C1596 1.416 . S
C1597 H1609 0.930 . S
C1598 C1594 1.524 . S
C1598 H1610 0.956 1_545 S
C1598 H1611 0.961 . S
C1598 H1612 0.961 . S
C1599 C1596 1.528 1_565 S
C1599 H1613 0.958 . S
C1599 H1614 0.957 1_565 S
C1599 H1615 0.960 . S
H1600 C1584 0.931 . S
H1601 C1589 0.929 . S
H1602 C1590 0.960 . S
H1603 C1590 0.962 . S
H1604 C1590 0.960 . S
H1605 C1591 0.961 . S
H1606 C1591 0.961 . S
H1607 C1591 0.961 . S
H1608 C1592 0.931 . S
H1609 C1597 0.930 . S
H1610 C1598 0.956 1_565 S
H1611 C1598 0.961 . S
H1612 C1598 0.961 . S
H1613 C1599 0.958 . S
H1614 C1599 0.957 1_545 S
H1615 C1599 0.960 . S
C1616 C1617 1.391 . S
C1616 C1618 1.394 . S
C1616 H1632 0.931 . S
C1617 C1616 1.391 . S
C1617 C1621 1.376 . S
C1618 C1616 1.394 . S
C1618 C1619 1.369 . S
C1618 C1622 1.531 . S
C1619 C1618 1.369 . S
C1619 C1620 1.410 . S
C1619 C1627 1.503 1_545 S
C1620 C1619 1.410 . S
C1620 C1621 1.392 . S
C1620 C1623 1.511 . S
C1621 C1617 1.376 . S
C1621 C1620 1.392 . S
C1621 H1633 0.929 . S
C1622 C1618 1.531 . S
C1622 H1634 0.960 . S
C1622 H1635 0.962 . S
C1622 H1636 0.960 . S
C1623 C1620 1.511 . S
C1623 H1637 0.961 . S
C1623 H1638 0.961 1_545 S
C1623 H1639 0.961 . S
C1624 C1625 1.370 . S
C1624 C1626 1.363 . S
C1624 H1640 0.931 . S
C1625 C1624 1.370 . S
C1625 C1629 1.408 . S
C1626 C1624 1.363 . S
C1626 C1627 1.370 . S
C1626 C1630 1.524 . S
C1627 C1619 1.503 1_565 S
C1627 C1626 1.370 . S
C1627 C1628 1.403 . S
C1628 C1627 1.403 . S
C1628 C1629 1.404 . S
C1628 C1631 1.539 . S
C1629 C1625 1.408 . S
C1629 C1628 1.404 . S
C1629 H1641 0.930 . S
C1630 C1626 1.524 . S
C1630 H1642 0.956 . S
C1630 H1643 0.961 . S
C1630 H1644 0.961 . S
C1631 C1628 1.539 . S
C1631 H1645 0.958 1_565 S
C1631 H1646 0.961 . S
C1631 H1647 0.960 1_565 S
H1632 C1616 0.931 . S
H1633 C1621 0.929 . S
H1634 C1622 0.960 . S
H1635 C1622 0.962 . S
H1636 C1622 0.960 . S
H1637 C1623 0.961 . S
H1638 C1623 0.961 1_565 S
H1639 C1623 0.961 . S
H1640 C1624 0.931 . S
H1641 C1629 0.930 . S
H1642 C1630 0.956 . S
H1643 C1630 0.961 . S
H1644 C1630 0.961 . S
H1645 C1631 0.958 1_545 S
H1646 C1631 0.961 . S
H1647 C1631 0.960 1_545 S
C1648 C1649 1.391 . S
C1648 C1650 1.394 . S
C1648 H1664 0.931 . S
C1649 C1648 1.391 . S
C1649 C1653 1.376 . S
C1650 C1648 1.394 . S
C1650 C1651 1.369 . S
C1650 C1654 1.514 1_655 S
C1651 C1650 1.369 . S
C1651 C1652 1.410 . S
C1651 C1659 1.503 1_655 S
C1652 C1651 1.410 . S
C1652 C1653 1.392 . S
C1652 C1655 1.511 . S
C1653 C1649 1.376 . S
C1653 C1652 1.392 . S
C1653 H1665 0.929 . S
C1654 C1650 1.514 1_455 S
C1654 H1666 0.977 . S
C1654 H1667 0.970 . S
C1654 H1668 0.952 1_455 S
C1655 C1652 1.511 . S
C1655 H1669 0.961 . S
C1655 H1670 0.961 . S
C1655 H1671 0.961 . S
C1656 C1657 1.370 . S
C1656 C1658 1.363 . S
C1656 H1672 0.931 . S
C1657 C1656 1.370 . S
C1657 C1661 1.408 . S
C1658 C1656 1.363 . S
C1658 C1659 1.370 . S
C1658 C1662 1.524 . S
C1659 C1651 1.503 1_455 S
C1659 C1658 1.370 . S
C1659 C1660 1.403 . S
C1660 C1659 1.403 . S
C1660 C1661 1.404 . S
C1660 C1663 1.539 . S
C1661 C1657 1.408 . S
C1661 C1660 1.404 . S
C1661 H1673 0.930 . S
C1662 C1658 1.524 . S
C1662 H1674 0.956 . S
C1662 H1675 0.961 1_455 S
C1662 H1676 0.961 . S
C1663 C1660 1.539 . S
C1663 H1677 0.958 . S
C1663 H1678 0.961 . S
C1663 H1679 0.960 1_455 S
H1664 C1648 0.931 . S
H1665 C1653 0.929 . S
H1666 C1654 0.977 . S
H1667 C1654 0.970 . S
H1668 C1654 0.952 1_655 S
H1669 C1655 0.961 . S
H1670 C1655 0.961 . S
H1671 C1655 0.961 . S
H1672 C1656 0.931 . S
H1673 C1661 0.930 . S
H1674 C1662 0.956 . S
H1675 C1662 0.961 1_655 S
H1676 C1662 0.961 . S
H1677 C1663 0.958 . S
H1678 C1663 0.961 . S
H1679 C1663 0.960 1_655 S
C1680 C1681 1.391 . S
C1680 C1682 1.394 1_655 S
C1680 H1696 0.931 1_655 S
C1681 C1680 1.391 . S
C1681 C1685 1.376 . S
C1682 C1680 1.394 1_455 S
C1682 C1683 1.369 1_455 S
C1682 C1686 1.531 . S
C1683 C1682 1.369 1_655 S
C1683 C1684 1.410 . S
C1683 C1691 1.503 1_655 S
C1684 C1683 1.410 . S
C1684 C1685 1.392 . S
C1684 C1687 1.511 . S
C1685 C1681 1.376 . S
C1685 C1684 1.392 . S
C1685 H1697 0.929 . S
C1686 C1682 1.531 . S
C1686 H1698 0.960 . S
C1686 H1699 0.962 . S
C1686 H1700 0.960 . S
C1687 C1684 1.511 . S
C1687 H1701 0.961 . S
C1687 H1702 0.961 . S
C1687 H1703 0.961 . S
C1688 C1689 1.370 . S
C1688 C1690 1.363 . S
C1688 H1704 0.931 . S
C1689 C1688 1.370 . S
C1689 C1693 1.408 1_455 S
C1690 C1688 1.363 . S
C1690 C1691 1.370 . S
C1690 C1694 1.524 . S
C1691 C1683 1.503 1_455 S
C1691 C1690 1.370 . S
C1691 C1692 1.403 1_455 S
C1692 C1691 1.403 1_655 S
C1692 C1693 1.404 . S
C1692 C1695 1.539 . S
C1693 C1689 1.408 1_655 S
C1693 C1692 1.404 . S
C1693 H1705 0.930 . S
C1694 C1690 1.524 . S
C1694 H1706 0.956 . S
C1694 H1707 0.961 . S
C1694 H1708 0.961 . S
C1695 C1692 1.539 . S
C1695 H1709 0.958 . S
C1695 H1710 0.961 . S
C1695 H1711 0.960 . S
H1696 C1680 0.931 1_455 S
H1697 C1685 0.929 . S
H1698 C1686 0.960 . S
H1699 C1686 0.962 . S
H1700 C1686 0.960 . S
H1701 C1687 0.961 . S
H1702 C1687 0.961 . S
H1703 C1687 0.961 . S
H1704 C1688 0.931 . S
H1705 C1693 0.930 . S
H1706 C1694 0.956 . S
H1707 C1694 0.961 . S
H1708 C1694 0.961 . S
H1709 C1695 0.958 . S
H1710 C1695 0.961 . S
H1711 C1695 0.960 . S
C1712 C1713 1.391 . S
C1712 C1714 1.394 . S
C1712 H1728 0.931 . S
C1713 C1712 1.391 . S
C1713 C1717 1.376 . S
C1714 C1712 1.394 . S
C1714 C1715 1.369 1_545 S
C1714 C1718 1.531 . S
C1715 C1714 1.369 1_565 S
C1715 C1716 1.410 . S
C1715 C1723 1.503 . S
C1716 C1715 1.410 . S
C1716 C1717 1.392 1_565 S
C1716 C1719 1.511 . S
C1717 C1713 1.376 . S
C1717 C1716 1.392 1_545 S
C1717 H1729 0.929 . S
C1718 C1714 1.531 . S
C1718 H1730 0.960 . S
C1718 H1731 0.962 . S
C1718 H1732 0.960 . S
C1719 C1716 1.511 . S
C1719 H1733 0.961 . S
C1719 H1734 0.961 . S
C1719 H1735 0.961 . S
C1720 C1721 1.370 1_545 S
C1720 C1722 1.363 . S
C1720 H1736 0.931 . S
C1721 C1720 1.370 1_565 S
C1721 C1725 1.408 . S
C1722 C1720 1.363 . S
C1722 C1723 1.370 1_545 S
C1722 C1726 1.524 . S
C1723 C1715 1.503 . S
C1723 C1722 1.370 1_565 S
C1723 C1724 1.403 . S
C1724 C1723 1.403 . S
C1724 C1725 1.404 . S
C1724 C1727 1.539 . S
C1725 C1721 1.408 . S
C1725 C1724 1.404 . S
C1725 H1737 0.930 . S
C1726 C1722 1.524 . S
C1726 H1738 0.956 . S
C1726 H1739 0.961 . S
C1726 H1740 0.961 . S
C1727 C1724 1.539 . S
C1727 H1741 0.958 . S
C1727 H1742 0.961 . S
C1727 H1743 0.960 . S
H1728 C1712 0.931 . S
H1729 C1717 0.929 . S
H1730 C1718 0.960 . S
H1731 C1718 0.962 . S
H1732 C1718 0.960 . S
H1733 C1719 0.961 . S
H1734 C1719 0.961 . S
H1735 C1719 0.961 . S
H1736 C1720 0.931 . S
H1737 C1725 0.930 . S
H1738 C1726 0.956 . S
H1739 C1726 0.961 . S
H1740 C1726 0.961 . S
H1741 C1727 0.958 . S
H1742 C1727 0.961 . S
H1743 C1727 0.960 . S
C1744 C1745 1.391 . S
C1744 C1746 1.394 . S
C1744 H1760 0.931 . S
C1745 C1744 1.391 . S
C1745 C1749 1.376 . S
C1746 C1744 1.394 . S
C1746 C1747 1.369 . S
C1746 C1750 1.531 . S
C1747 C1746 1.369 . S
C1747 C1748 1.410 . S
C1747 C1755 1.503 1_565 S
C1748 C1747 1.410 . S
C1748 C1749 1.392 . S
C1748 C1751 1.511 . S
C1749 C1745 1.376 . S
C1749 C1748 1.392 . S
C1749 H1761 0.929 . S
C1750 C1746 1.531 . S
C1750 H1762 0.960 . S
C1750 H1763 0.962 . S
C1750 H1764 0.960 . S
C1751 C1748 1.511 . S
C1751 H1765 0.961 . S
C1751 H1766 0.961 1_565 S
C1751 H1767 0.961 . S
C1752 C1753 1.370 . S
C1752 C1754 1.363 . S
C1752 H1768 0.931 . S
C1753 C1752 1.370 . S
C1753 C1757 1.408 . S
C1754 C1752 1.363 . S
C1754 C1755 1.370 . S
C1754 C1758 1.524 . S
C1755 C1747 1.503 1_545 S
C1755 C1754 1.370 . S
C1755 C1756 1.403 . S
C1756 C1755 1.403 . S
C1756 C1757 1.404 . S
C1756 C1759 1.539 . S
C1757 C1753 1.408 . S
C1757 C1756 1.404 . S
C1757 H1769 0.930 . S
C1758 C1754 1.524 . S
C1758 H1770 0.956 . S
C1758 H1771 0.961 . S
C1758 H1772 0.961 . S
C1759 C1756 1.539 . S
C1759 H1773 0.958 . S
C1759 H1774 0.961 . S
C1759 H1775 0.960 1_545 S
H1760 C1744 0.931 . S
H1761 C1749 0.929 . S
H1762 C1750 0.960 . S
H1763 C1750 0.962 . S
H1764 C1750 0.960 . S
H1765 C1751 0.961 . S
H1766 C1751 0.961 1_545 S
H1767 C1751 0.961 . S
H1768 C1752 0.931 . S
H1769 C1757 0.930 . S
H1770 C1758 0.956 . S
H1771 C1758 0.961 . S
H1772 C1758 0.961 . S
H1773 C1759 0.958 . S
H1774 C1759 0.961 . S
H1775 C1759 0.960 1_565 S
C1776 C1777 1.391 . S
C1776 C1778 1.394 . S
C1776 H1792 0.931 . S
C1777 C1776 1.391 . S
C1777 C1781 1.376 . S
C1778 C1776 1.394 . S
C1778 C1779 1.369 . S
C1778 C1782 1.531 . S
C1779 C1778 1.369 . S
C1779 C1780 1.410 . S
C1779 C1787 1.503 1_655 S
C1780 C1779 1.410 . S
C1780 C1781 1.392 . S
C1780 C1783 1.511 . S
C1781 C1777 1.376 . S
C1781 C1780 1.392 . S
C1781 H1793 0.929 . S
C1782 C1778 1.531 . S
C1782 H1794 0.960 . S
C1782 H1795 0.962 . S
C1782 H1796 0.960 . S
C1783 C1780 1.511 . S
C1783 H1797 0.961 . S
C1783 H1798 0.961 1_655 S
C1783 H1799 0.961 . S
C1784 C1785 1.370 . S
C1784 C1786 1.363 . S
C1784 H1800 0.931 . S
C1785 C1784 1.370 . S
C1785 C1789 1.408 . S
C1786 C1784 1.363 . S
C1786 C1787 1.370 . S
C1786 C1790 1.524 . S
C1787 C1779 1.503 1_455 S
C1787 C1786 1.370 . S
C1787 C1788 1.403 . S
C1788 C1787 1.403 . S
C1788 C1789 1.404 . S
C1788 C1791 1.547 . S
C1789 C1785 1.408 . S
C1789 C1788 1.404 . S
C1789 H1801 0.930 . S
C1790 C1786 1.524 . S
C1790 H1802 0.956 . S
C1790 H1803 0.961 . S
C1790 H1804 0.961 . S
C1791 C1788 1.547 . S
C1791 H1805 0.956 1_455 S
C1791 H1806 0.966 . S
C1791 H1807 0.950 1_455 S
H1792 C1776 0.931 . S
H1793 C1781 0.929 . S
H1794 C1782 0.960 . S
H1795 C1782 0.962 . S
H1796 C1782 0.960 . S
H1797 C1783 0.961 . S
H1798 C1783 0.961 1_455 S
H1799 C1783 0.961 . S
H1800 C1784 0.931 . S
H1801 C1789 0.930 . S
H1802 C1790 0.956 . S
H1803 C1790 0.961 . S
H1804 C1790 0.961 . S
H1805 C1791 0.956 1_655 S
H1806 C1791 0.966 . S
H1807 C1791 0.950 1_655 S
C529 C337 1.314 . S
C537 C7 1.311 . S
C561 C370 1.286 . S
C569 C40 1.302 . S
C593 C271 1.308 . S
C601 C73 1.311 . S
C625 C304 1.330 . S
C633 C106 1.318 . S
C657 C139 1.281 . S
C665 C469 1.298 . S
C689 C172 1.326 . S
C697 C502 1.316 . S
C721 C403 1.307 . S
C729 C205 1.308 . S
C753 C436 1.286 . S
C761 C238 1.302 . S
C785 C120 1.495 . S
C793 N2 1.470 . S
C817 N35 1.483 . S
C825 C21 1.508 . S
C849 C54 1.521 . S
C857 N68 1.446 . S
C881 N101 1.431 . S
C889 C87 1.518 . S
C913 C186 1.494 . S
C921 N134 1.471 . S
C945 C219 1.525 . S
C953 N167 1.442 . S
C977 C252 1.524 . S
C985 N200 1.443 . S
C1009 N233 1.462 . S
C1017 C153 1.511 . S
C1041 N266 1.487 . S
C1049 C384 1.508 . S
C1073 N299 1.431 . S
C1081 C285 1.519 . S
C1105 C318 1.494 . S
C1113 N332 1.468 . S
C1137 N365 1.473 . S
C1145 C351 1.512 . S
C1169 N398 1.418 . S
C1177 C450 1.520 . S
C1201 N431 1.418 . S
C1209 C483 1.519 . S
C1233 N464 1.479 . S
C1241 C516 1.507 . S
C1265 C417 1.496 . S
C1273 N497 1.465 . S
C1297 C249 1.062 . S
C1305 C18 1.035 . S
C1329 C51 1.052 . S
C1337 C150 1.035 . S
C1361 C183 1.019 . S
C1369 C84 1.051 . S
C1393 C216 1.045 . S
C1401 C117 1.050 . S
C1425 C282 1.022 . S
C1433 C513 1.052 . S
C1457 C414 1.056 . S
C1465 C315 1.035 . S
C1489 C348 1.064 . S
C1497 C447 1.038 . S
C1521 C480 1.057 . S
C1529 C381 1.035 . S
C1553 N79 1.519 . S
C1561 N13 1.536 . S
C1585 N112 1.516 . S
C1593 N46 1.534 . S
C1617 N145 1.552 . S
C1625 N211 1.549 . S
C1649 N178 1.517 . S
C1657 N244 1.535 . S
C1681 N277 1.524 . S
C1689 N343 1.540 . S
C1713 N376 1.551 . S
C1721 N310 1.546 . S
C1745 N409 1.519 . S
C1753 N475 1.534 . S
C1777 N508 1.544 . S
C1785 N442 1.543 . S
