# Generated by pormake.
# Topology zfi, (5)-cn, num edge types: 1
# Building blocks:
#     Node 0, Type 0, BuildingBlock: XOMCOT_clean_sbu_1, # of connection points: 5
#     Node 1, Type 0, BuildingBlock: XOMCOT_clean_sbu_1, # of connection points: 5
#     Node 2, Type 0, BuildingBlock: XOMCOT_clean_sbu_1, # of connection points: 5
#     Node 3, Type 0, BuildingBlock: XOMCOT_clean_sbu_1, # of connection points: 5
#     Node 4, Type 0, BuildingBlock: XOMCOT_clean_sbu_1, # of connection points: 5
#     Node 5, Type 0, BuildingBlock: XOMCOT_clean_sbu_1, # of connection points: 5
#     Node 6, Type 0, BuildingBlock: XOMCOT_clean_sbu_1, # of connection points: 5
#     Node 7, Type 0, BuildingBlock: XOMCOT_clean_sbu_1, # of connection points: 5
#     Node 8, Type 0, BuildingBlock: XOMCOT_clean_sbu_1, # of connection points: 5
#     Node 9, Type 0, BuildingBlock: XOMCOT_clean_sbu_1, # of connection points: 5
#     Node 10, Type 0, BuildingBlock: XOMCOT_clean_sbu_1, # of connection points: 5
#     Node 11, Type 0, BuildingBlock: XOMCOT_clean_sbu_1, # of connection points: 5
#     Node 12, Type 0, BuildingBlock: XOMCOT_clean_sbu_1, # of connection points: 5
#     Node 13, Type 0, BuildingBlock: XOMCOT_clean_sbu_1, # of connection points: 5
#     Node 14, Type 0, BuildingBlock: XOMCOT_clean_sbu_1, # of connection points: 5
#     Node 15, Type 0, BuildingBlock: XOMCOT_clean_sbu_1, # of connection points: 5
#     Edge 16, Type (0, 0), BuildingBlock: XUDNAN_clean_linker_2, # of connection points: 2
#     Edge 17, Type (0, 0), BuildingBlock: XUDNAN_clean_linker_2, # of connection points: 2
#     Edge 18, Type (0, 0), BuildingBlock: XUDNAN_clean_linker_2, # of connection points: 2
#     Edge 19, Type (0, 0), BuildingBlock: XUDNAN_clean_linker_2, # of connection points: 2
#     Edge 20, Type (0, 0), BuildingBlock: XUDNAN_clean_linker_2, # of connection points: 2
#     Edge 21, Type (0, 0), BuildingBlock: XUDNAN_clean_linker_2, # of connection points: 2
#     Edge 22, Type (0, 0), BuildingBlock: XUDNAN_clean_linker_2, # of connection points: 2
#     Edge 23, Type (0, 0), BuildingBlock: XUDNAN_clean_linker_2, # of connection points: 2
#     Edge 24, Type (0, 0), BuildingBlock: XUDNAN_clean_linker_2, # of connection points: 2
#     Edge 25, Type (0, 0), BuildingBlock: XUDNAN_clean_linker_2, # of connection points: 2
#     Edge 26, Type (0, 0), BuildingBlock: XUDNAN_clean_linker_2, # of connection points: 2
#     Edge 27, Type (0, 0), BuildingBlock: XUDNAN_clean_linker_2, # of connection points: 2
#     Edge 28, Type (0, 0), BuildingBlock: XUDNAN_clean_linker_2, # of connection points: 2
#     Edge 29, Type (0, 0), BuildingBlock: XUDNAN_clean_linker_2, # of connection points: 2
#     Edge 30, Type (0, 0), BuildingBlock: XUDNAN_clean_linker_2, # of connection points: 2
#     Edge 31, Type (0, 0), BuildingBlock: XUDNAN_clean_linker_2, # of connection points: 2
#     Edge 32, Type (0, 0), BuildingBlock: XUDNAN_clean_linker_2, # of connection points: 2
#     Edge 33, Type (0, 0), BuildingBlock: XUDNAN_clean_linker_2, # of connection points: 2
#     Edge 34, Type (0, 0), BuildingBlock: XUDNAN_clean_linker_2, # of connection points: 2
#     Edge 35, Type (0, 0), BuildingBlock: XUDNAN_clean_linker_2, # of connection points: 2
#     Edge 36, Type (0, 0), BuildingBlock: XUDNAN_clean_linker_2, # of connection points: 2
#     Edge 37, Type (0, 0), BuildingBlock: XUDNAN_clean_linker_2, # of connection points: 2
#     Edge 38, Type (0, 0), BuildingBlock: XUDNAN_clean_linker_2, # of connection points: 2
#     Edge 39, Type (0, 0), BuildingBlock: XUDNAN_clean_linker_2, # of connection points: 2
#     Edge 40, Type (0, 0), BuildingBlock: XUDNAN_clean_linker_2, # of connection points: 2
#     Edge 41, Type (0, 0), BuildingBlock: XUDNAN_clean_linker_2, # of connection points: 2
#     Edge 42, Type (0, 0), BuildingBlock: XUDNAN_clean_linker_2, # of connection points: 2
#     Edge 43, Type (0, 0), BuildingBlock: XUDNAN_clean_linker_2, # of connection points: 2
#     Edge 44, Type (0, 0), BuildingBlock: XUDNAN_clean_linker_2, # of connection points: 2
#     Edge 45, Type (0, 0), BuildingBlock: XUDNAN_clean_linker_2, # of connection points: 2
#     Edge 46, Type (0, 0), BuildingBlock: XUDNAN_clean_linker_2, # of connection points: 2
#     Edge 47, Type (0, 0), BuildingBlock: XUDNAN_clean_linker_2, # of connection points: 2
#     Edge 48, Type (0, 0), BuildingBlock: XUDNAN_clean_linker_2, # of connection points: 2
#     Edge 49, Type (0, 0), BuildingBlock: XUDNAN_clean_linker_2, # of connection points: 2
#     Edge 50, Type (0, 0), BuildingBlock: XUDNAN_clean_linker_2, # of connection points: 2
#     Edge 51, Type (0, 0), BuildingBlock: XUDNAN_clean_linker_2, # of connection points: 2
#     Edge 52, Type (0, 0), BuildingBlock: XUDNAN_clean_linker_2, # of connection points: 2
#     Edge 53, Type (0, 0), BuildingBlock: XUDNAN_clean_linker_2, # of connection points: 2
#     Edge 54, Type (0, 0), BuildingBlock: XUDNAN_clean_linker_2, # of connection points: 2
#     Edge 55, Type (0, 0), BuildingBlock: XUDNAN_clean_linker_2, # of connection points: 2
# Relax obj value: 0.108
# Max RMSD: 0.125
# Mean RMSD: 0.125
data_MOF--net-zfi--node1-XOMCOT_clean_sbu_1--edge1-XUDNAN_clean_linker_2
_symmetry_space_group_name_H-M    P1
_symmetry_Int_Tables_number       1
_symmetry_cell_setting            triclinic
loop_
_symmetry_equiv_pos_as_xyz
'x, y, z'
_cell_length_a     38.751814
_cell_length_b     38.78278
_cell_length_c     48.117954
_cell_angle_alpha  90.009128
_cell_angle_beta   90.031431
_cell_angle_gamma 90.206398
loop_
_atom_site_label
_atom_site_type_symbol
_atom_site_fract_x
_atom_site_fract_y
_atom_site_fract_z
_atom_type_partial_charge
C0 C 0.63671 0.13606 0.10222 0.0
C1 C 0.65344 0.16737 0.10412 0.0
N2 N 0.67478 0.16646 0.12619 0.0
N3 N 0.64731 0.11536 0.12307 0.0
C4 C 0.66986 0.13503 0.13766 0.0
H5 H 0.61982 0.12836 0.08547 0.0
Co6 Co 0.64011 0.06752 0.12697 0.0
C7 C 0.6173 0.05886 0.18747 0.0
O8 O 0.6164 0.02509 0.18621 0.0
N9 N 0.63312 0.01946 0.12982 0.0
C10 C 0.63996 0.96261 0.12666 0.0
C11 C 0.65612 0.99415 0.12467 0.0
C12 C 0.60294 1.00252 0.13387 0.0
N13 N 0.60645 0.96796 0.13252 0.0
O14 O 0.59336 0.07164 0.11372 0.0
H15 H 0.68284 0.99814 0.11909 0.0
H16 H 0.57897 0.01537 0.13862 0.0
O17 O 0.62588 0.07644 0.16598 0.0
C18 C 0.59104 0.06403 0.08791 0.0
O19 O 0.61976 0.06038 0.0737 0.0
N20 N 0.68649 0.06219 0.13729 0.0
C21 C 0.75615 0.04689 0.14365 0.0
C22 C 0.7332 0.04287 0.16592 0.0
C23 C 0.69838 0.05066 0.16233 0.0
C24 C 0.70868 0.06737 0.11571 0.0
C25 C 0.74373 0.06018 0.1185 0.0
H26 H 0.68115 0.04565 0.17932 0.0
H27 H 0.69877 0.07591 0.09586 0.0
H28 H 0.68421 0.12561 0.15537 0.0
H29 H 0.65217 0.18802 0.08902 0.0
H30 H 0.65183 0.93775 0.12325 0.0
H31 H 0.7419 0.03267 0.18566 0.0
H32 H 0.76053 0.06316 0.10068 0.0
C33 C 0.37605 0.63257 0.11246 0.0
C34 C 0.3435 0.64586 0.11555 0.0
N35 N 0.3444 0.66962 0.13589 0.0
N36 N 0.39778 0.64799 0.13063 0.0
C37 C 0.37732 0.66989 0.14512 0.0
H38 H 0.38332 0.61408 0.0968 0.0
Co39 Co 0.44657 0.64453 0.13109 0.0
C40 C 0.4278 0.60429 0.18159 0.0
O41 O 0.40691 0.5845 0.1671 0.0
N42 N 0.49418 0.6408 0.13126 0.0
C43 C 0.54908 0.645 0.11875 0.0
C44 C 0.51724 0.66062 0.11763 0.0
C45 C 0.51233 0.61355 0.14055 0.0
N46 N 0.54579 0.61526 0.13305 0.0
O47 O 0.44495 0.59886 0.11511 0.0
H48 H 0.51093 0.68392 0.1064 0.0
H49 H 0.5006 0.59158 0.15077 0.0
O50 O 0.44491 0.628 0.16935 0.0
C51 C 0.45007 0.60419 0.08918 0.0
O52 O 0.44933 0.63624 0.08026 0.0
N53 N 0.4505 0.69012 0.14317 0.0
C54 C 0.46707 0.75947 0.15036 0.0
C55 C 0.47647 0.73498 0.17045 0.0
C56 C 0.46795 0.70026 0.16644 0.0
C57 C 0.44052 0.71367 0.12378 0.0
C58 C 0.44807 0.74856 0.12717 0.0
H59 H 0.47751 0.6814 0.18097 0.0
H60 H 0.42799 0.70503 0.10492 0.0
H61 H 0.38683 0.68769 0.16069 0.0
H62 H 0.32122 0.63974 0.10286 0.0
H63 H 0.57253 0.65429 0.10906 0.0
H64 H 0.49147 0.7424 0.1885 0.0
H65 H 0.44103 0.76645 0.11086 0.0
C66 C 0.88489 0.38438 0.102 0.0
C67 C 0.87406 0.35068 0.10443 0.0
N68 N 0.84579 0.35016 0.12055 0.0
N69 N 0.86376 0.4051 0.11682 0.0
C70 C 0.84015 0.38318 0.12791 0.0
H71 H 0.90684 0.39289 0.08999 0.0
Co72 Co 0.86656 0.4536 0.12077 0.0
C73 C 0.90099 0.42861 0.17173 0.0
O74 O 0.92108 0.4088 0.15667 0.0
N75 N 0.86939 0.501 0.1244 0.0
C76 C 0.86364 0.55695 0.11631 0.0
C77 C 0.8503 0.52469 0.11095 0.0
C78 C 0.89406 0.51922 0.13776 0.0
N79 N 0.89129 0.55338 0.13307 0.0
O80 O 0.91409 0.45414 0.10909 0.0
H81 H 0.82897 0.51879 0.09724 0.0
H82 H 0.91497 0.50742 0.14921 0.0
O83 O 0.87915 0.4481 0.15973 0.0
C84 C 0.91747 0.46177 0.08339 0.0
O85 O 0.88966 0.46262 0.06776 0.0
N86 N 0.81978 0.4556 0.12992 0.0
C87 C 0.74991 0.47005 0.1358 0.0
C88 C 0.77232 0.47285 0.15857 0.0
C89 C 0.80734 0.46589 0.15514 0.0
C90 C 0.79813 0.45125 0.10788 0.0
C91 C 0.76299 0.45833 0.11035 0.0
H92 H 0.82447 0.47085 0.17234 0.0
H93 H 0.80858 0.44384 0.08792 0.0
H94 H 0.81917 0.39104 0.14128 0.0
H95 H 0.88548 0.32839 0.09455 0.0
H96 H 0.85426 0.58103 0.10789 0.0
H97 H 0.76331 0.48255 0.17839 0.0
H98 H 0.74646 0.45591 0.09229 0.0
C99 C 0.12667 0.87438 0.10853 0.0
C100 C 0.15892 0.85985 0.10931 0.0
N101 N 0.16185 0.84176 0.13305 0.0
N102 N 0.10913 0.86553 0.13169 0.0
C103 C 0.13154 0.84602 0.14645 0.0
H104 H 0.11623 0.8887 0.09126 0.0
Co105 Co 0.0618 0.87195 0.13783 0.0
C106 C 0.05608 0.89597 0.19806 0.0
O107 O 0.02228 0.89425 0.19787 0.0
N108 N 0.014 0.87825 0.14285 0.0
C109 C 0.95693 0.87127 0.14159 0.0
C110 C 0.98829 0.85485 0.13998 0.0
C111 C 0.99744 0.90872 0.14558 0.0
N112 N 0.96285 0.90521 0.14499 0.0
O113 O 0.06447 0.91826 0.12287 0.0
H114 H 0.99181 0.82774 0.13574 0.0
H115 H 1.01055 0.93317 0.14812 0.0
O116 O 0.07317 0.888 0.17614 0.0
C117 C 0.05387 0.91887 0.09764 0.0
O118 O 0.04754 0.88928 0.08528 0.0
N119 N 0.05786 0.82589 0.14927 0.0
C120 C 0.03813 0.75713 0.15498 0.0
C121 C 0.03876 0.77915 0.17814 0.0
C122 C 0.04874 0.81362 0.17485 0.0
C123 C 0.0599 0.8042 0.12707 0.0
C124 C 0.05034 0.76969 0.12949 0.0
H125 H 0.04681 0.83048 0.19249 0.0
H126 H 0.06696 0.81436 0.10692 0.0
H127 H 0.12479 0.83287 0.16554 0.0
H128 H 0.17815 0.86112 0.09302 0.0
H129 H 0.93182 0.85936 0.13909 0.0
H130 H 0.02938 0.77055 0.19817 0.0
H131 H 0.05088 0.75343 0.11119 0.0
C132 C 0.16965 0.9154 0.48806 0.0
C133 C 0.18143 0.88308 0.49445 0.0
N134 N 0.18922 0.86677 0.47062 0.0
N135 N 0.16943 0.91964 0.46023 0.0
C136 C 0.18168 0.88943 0.45014 0.0
H137 H 0.16335 0.93493 0.50313 0.0
Co138 Co 0.15946 0.9611 0.4419 0.0
C139 C 0.11853 0.9399 0.39359 0.0
O140 O 0.09339 0.95866 0.40379 0.0
N141 N 0.14989 1.0029 0.42328 0.0
C142 C 0.14717 0.04309 0.39015 0.0
C143 C 0.16317 0.01326 0.39861 0.0
C144 C 0.12595 0.02704 0.42927 0.0
N145 N 0.12353 0.05131 0.4094 0.0
O146 O 0.11279 0.95973 0.45646 0.0
H147 H 0.1821 0.9992 0.3867 0.0
H148 H 0.10965 0.02679 0.44737 0.0
O149 O 0.14641 0.93647 0.4076 0.0
C150 C 0.1096 0.97516 0.47983 0.0
O151 O 0.13715 0.98947 0.49091 0.0
N152 N 0.20542 0.96437 0.43089 0.0
C153 C 0.27391 0.98049 0.41872 0.0
C154 C 0.25623 0.95488 0.4036 0.0
C155 C 0.22184 0.94713 0.41003 0.0
C156 C 0.22257 0.98801 0.44659 0.0
C157 C 0.25668 0.99668 0.44077 0.0
H158 H 0.2084 0.92797 0.39786 0.0
H159 H 0.2091 1.00114 0.46317 0.0
H160 H 0.18586 0.88439 0.4283 0.0
H161 H 0.18581 0.87309 0.51516 0.0
H162 H 0.15125 0.05659 0.37073 0.0
H163 H 0.26864 0.94132 0.38668 0.0
H164 H 0.26884 0.01698 0.45278 0.0
C165 C 0.62116 0.16111 0.47981 0.0
C166 C 0.65076 0.17857 0.48687 0.0
N167 N 0.66338 0.19392 0.46397 0.0
N168 N 0.61463 0.16532 0.45244 0.0
C169 C 0.64145 0.185 0.44329 0.0
H170 H 0.6045 0.14833 0.49448 0.0
Co171 Co 0.57247 0.15455 0.43412 0.0
C172 C 0.59401 0.11427 0.38616 0.0
O173 O 0.57628 0.08862 0.39692 0.0
N174 N 0.5306 0.1444 0.41522 0.0
C175 C 0.49264 0.14116 0.38049 0.0
C176 C 0.52193 0.15718 0.39001 0.0
C177 C 0.50565 0.12073 0.42054 0.0
N178 N 0.48256 0.11793 0.3996 0.0
O179 O 0.57354 0.10801 0.44879 0.0
H180 H 0.53691 0.17571 0.37837 0.0
H181 H 0.50516 0.10438 0.43861 0.0
O182 O 0.5972 0.14235 0.39992 0.0
C183 C 0.55707 0.10629 0.47183 0.0
O184 O 0.54414 0.13488 0.4821 0.0
N185 N 0.56853 0.20039 0.42352 0.0
C186 C 0.55394 0.27027 0.41774 0.0
C187 C 0.57669 0.25382 0.39924 0.0
C188 C 0.58353 0.21853 0.40238 0.0
C189 C 0.54637 0.21583 0.44139 0.0
C190 C 0.53831 0.25044 0.43868 0.0
H191 H 0.60084 0.20599 0.38803 0.0
H192 H 0.53453 0.2008 0.45777 0.0
H193 H 0.64359 0.19493 0.4224 0.0
H194 H 0.66099 0.18167 0.50768 0.0
H195 H 0.4803 0.14575 0.36067 0.0
H196 H 0.5893 0.26802 0.38274 0.0
H197 H 0.51954 0.2613 0.45282 0.0
C198 C 0.39315 0.64892 0.42654 0.0
C199 C 0.37596 0.67978 0.42943 0.0
N200 N 0.34764 0.67434 0.44513 0.0
N201 N 0.37566 0.62406 0.4402 0.0
C202 C 0.34835 0.64042 0.45152 0.0
H203 H 0.41672 0.64482 0.41499 0.0
Co204 Co 0.38582 0.57696 0.44214 0.0
C205 C 0.39621 0.55873 0.38192 0.0
O206 O 0.37885 0.52982 0.38513 0.0
N207 N 0.39687 0.52985 0.44461 0.0
C208 C 0.40392 0.47651 0.46072 0.0
C209 C 0.38489 0.50617 0.46288 0.0
C210 C 0.42396 0.51409 0.43225 0.0
N211 N 0.42839 0.48158 0.44138 0.0
O212 O 0.43139 0.58643 0.45577 0.0
H213 H 0.3649 0.51025 0.47806 0.0
H214 H 0.44131 0.52675 0.41787 0.0
O215 O 0.40091 0.57875 0.40281 0.0
C216 C 0.42805 0.59012 0.48203 0.0
O217 O 0.39684 0.59543 0.49177 0.0
N218 N 0.33983 0.56682 0.43297 0.0
C219 C 0.27006 0.54878 0.43209 0.0
C220 C 0.28663 0.56048 0.4078 0.0
C221 C 0.32159 0.57019 0.40882 0.0
C222 C 0.32327 0.55828 0.45691 0.0
C223 C 0.28891 0.54836 0.45691 0.0
H224 H 0.33348 0.58078 0.39043 0.0
H225 H 0.33697 0.55961 0.47644 0.0
H226 H 0.32883 0.62743 0.46367 0.0
H227 H 0.38385 0.70425 0.42067 0.0
H228 H 0.40041 0.45319 0.47278 0.0
H229 H 0.27267 0.56256 0.38838 0.0
H230 H 0.27754 0.53992 0.4763 0.0
C231 C 0.92373 0.34277 0.47002 0.0
C232 C 0.89234 0.32902 0.47727 0.0
N233 N 0.86999 0.33521 0.45653 0.0
N234 N 0.92127 0.35814 0.44496 0.0
C235 C 0.88797 0.35301 0.43711 0.0
H236 H 0.9472 0.34096 0.48207 0.0
Co237 Co 0.96018 0.37811 0.42804 0.0
C238 C 0.9447 0.37571 0.36815 0.0
O239 O 0.97444 0.35969 0.36611 0.0
N240 N 0.99988 0.39964 0.41212 0.0
C241 C 0.03204 0.43811 0.38907 0.0
C242 C 1.00033 0.42263 0.39087 0.0
C243 C 0.03132 0.40388 0.42407 0.0
N244 N 0.0514 0.42645 0.41009 0.0
O245 O 0.94854 0.42264 0.44325 0.0
H246 H 0.97819 0.43095 0.3791 0.0
H247 H 0.03839 0.39326 0.44404 0.0
O248 O 0.93426 0.38582 0.39226 0.0
C249 C 0.96542 0.42432 0.46615 0.0
O250 O 0.98188 0.39658 0.47437 0.0
N251 N 0.97387 0.3334 0.41683 0.0
C252 C 0.99486 0.26554 0.40799 0.0
C253 C 0.96213 0.2764 0.39938 0.0
C254 C 0.95194 0.31036 0.4043 0.0
C255 C 1.00508 0.32255 0.42642 0.0
C256 C 0.0164 0.28906 0.42169 0.0
H257 H 0.92631 0.31806 0.39813 0.0
H258 H 0.0208 0.33922 0.43902 0.0
H259 H 0.87722 0.36174 0.41759 0.0
H260 H 0.88644 0.31493 0.49611 0.0
H261 H 0.039 0.45919 0.3754 0.0
H262 H 0.94447 0.25874 0.3892 0.0
H263 H 0.04122 0.2812 0.42985 0.0
C264 C 0.38906 0.88017 0.91978 0.0
C265 C 0.37118 0.8493 0.91971 0.0
N266 N 0.34006 0.85466 0.93134 0.0
N267 N 0.36917 0.90485 0.93127 0.0
C268 C 0.34001 0.88817 0.93882 0.0
H269 H 0.41412 0.88472 0.91056 0.0
Co270 Co 0.3768 0.95269 0.93164 0.0
C271 C 0.39762 0.96864 0.87262 0.0
O272 O 0.38484 0.99991 0.87414 0.0
N273 N 0.38511 1.00049 0.93259 0.0
C274 C 0.38456 0.05624 0.94358 0.0
C275 C 0.3657 0.0262 0.94327 0.0
C276 C 0.41583 0.01569 0.92695 0.0
N277 N 0.41608 0.04951 0.93334 0.0
O278 O 0.42085 0.94672 0.94918 0.0
H279 H 0.34002 0.02362 0.95156 0.0
H280 H 0.43807 1.00185 0.91926 0.0
O281 O 0.39648 0.94883 0.89392 0.0
C282 C 0.41492 0.94646 0.97528 0.0
O283 O 0.38282 0.94214 0.98344 0.0
N284 N 0.33198 0.9593 0.91787 0.0
C285 C 0.2616 0.96728 0.90865 0.0
C286 C 0.2837 0.95929 0.88653 0.0
C287 C 0.31896 0.95443 0.89173 0.0
C288 C 0.31041 0.96609 0.9395 0.0
C289 C 0.27524 0.97027 0.9354 0.0
H290 H 0.33512 0.94595 0.87489 0.0
H291 H 0.32072 0.96761 0.96036 0.0
H292 H 0.31831 0.90058 0.94861 0.0
H293 H 0.37947 0.82548 0.91012 0.0
H294 H 0.37587 0.08103 0.95112 0.0
H295 H 0.27369 0.95614 0.86566 0.0
H296 H 0.2589 0.97626 0.95301 0.0
C297 C 0.64083 0.38554 0.96612 0.0
C298 C 0.67334 0.37147 0.96601 0.0
N299 N 0.67406 0.3457 0.94725 0.0
N300 N 0.62073 0.36895 0.94746 0.0
C301 C 0.64206 0.34521 0.93596 0.0
H302 H 0.63241 0.4058 0.97987 0.0
Co303 Co 0.57247 0.37396 0.94248 0.0
C304 C 0.56415 0.39457 0.8814 0.0
O305 O 0.53048 0.39124 0.8814 0.0
N306 N 0.52439 0.37899 0.93872 0.0
C307 C 0.46765 0.3719 0.94373 0.0
C308 C 0.49945 0.35642 0.94626 0.0
C309 C 0.50705 0.40819 0.93241 0.0
N310 N 0.47262 0.40441 0.93482 0.0
O311 O 0.5743 0.42122 0.95498 0.0
H312 H 0.50393 0.33061 0.95387 0.0
H313 H 0.51949 0.43194 0.92611 0.0
O314 O 0.58176 0.38789 0.90333 0.0
C315 C 0.56573 0.42389 0.98057 0.0
O316 O 0.5632 0.39552 0.99538 0.0
N317 N 0.56894 0.32717 0.93308 0.0
C318 C 0.55629 0.25661 0.92863 0.0
C319 C 0.55479 0.27792 0.9051 0.0
C320 C 0.56106 0.31328 0.90777 0.0
C321 C 0.57196 0.3066 0.95589 0.0
C322 C 0.56584 0.27125 0.95415 0.0
H323 H 0.55821 0.32919 0.88966 0.0
H324 H 0.57796 0.31807 0.97582 0.0
H325 H 0.63372 0.32654 0.92066 0.0
H326 H 0.6945 0.37919 0.97934 0.0
H327 H 0.44283 0.36018 0.94807 0.0
H328 H 0.54706 0.26772 0.88508 0.0
H329 H 0.56757 0.25568 0.97278 0.0
C330 C 0.12632 0.63439 0.9461 0.0
C331 C 0.13634 0.66832 0.94537 0.0
N332 N 0.16811 0.67004 0.93427 0.0
N333 N 0.15161 0.61429 0.93557 0.0
C334 C 0.17668 0.63712 0.92831 0.0
H335 H 0.10184 0.62543 0.95403 0.0
Co336 Co 0.15077 0.56533 0.93264 0.0
C337 C 0.10905 0.58303 0.88254 0.0
O338 O 0.08499 0.59678 0.89818 0.0
N339 N 0.14955 0.51791 0.92996 0.0
C340 C 0.15478 0.46283 0.94141 0.0
C341 C 0.1674 0.49558 0.94583 0.0
C342 C 0.12648 0.49841 0.91595 0.0
N343 N 0.1291 0.46482 0.92261 0.0
O344 O 0.10446 0.5631 0.94759 0.0
H345 H 0.18686 0.5029 0.96085 0.0
H346 H 0.10635 0.50887 0.90286 0.0
O347 O 0.13552 0.56953 0.89396 0.0
C348 C 0.10873 0.55963 0.97381 0.0
O349 O 0.14032 0.56204 0.98362 0.0
N350 N 0.19704 0.56451 0.92185 0.0
C351 C 0.26625 0.54658 0.91685 0.0
C352 C 0.24409 0.54451 0.89384 0.0
C353 C 0.20926 0.55317 0.89687 0.0
C354 C 0.21869 0.56845 0.94395 0.0
C355 C 0.25343 0.55969 0.9419 0.0
H356 H 0.19192 0.54813 0.87986 0.0
H357 H 0.20836 0.5764 0.96381 0.0
H358 H 0.20076 0.63004 0.91857 0.0
H359 H 0.1216 0.68997 0.95305 0.0
H360 H 0.16279 0.43958 0.95203 0.0
H361 H 0.25297 0.53385 0.87431 0.0
H362 H 0.26976 0.56161 0.96012 0.0
C363 C 0.91911 0.1707 0.9775 0.0
C364 C 0.88838 0.18771 0.98108 0.0
N365 N 0.87251 0.19029 0.95623 0.0
N366 N 0.92283 0.16204 0.95052 0.0
C367 C 0.89385 0.17414 0.93817 0.0
H368 H 0.93802 0.16638 0.99358 0.0
Co369 Co 0.96264 0.14342 0.93373 0.0
C370 C 0.93479 0.10224 0.88761 0.0
O371 O 0.94832 0.07463 0.899 0.0
N372 N 1.00217 0.12527 0.91612 0.0
C373 C 0.04013 0.11366 0.88269 0.0
C374 C 0.0123 0.13342 0.89003 0.0
C375 C 0.02446 0.10044 0.92416 0.0
N376 N 0.04762 0.09279 0.90415 0.0
O377 O 0.95459 0.09971 0.95251 0.0
H378 H 0.99946 0.15174 0.87665 0.0
H379 H 0.02372 0.0878 0.94412 0.0
O380 O 0.93646 0.13101 0.90049 0.0
C381 C 0.97089 0.10316 0.97553 0.0
O382 O 0.98848 0.13175 0.97961 0.0
N383 N 0.97316 0.18675 0.91956 0.0
C384 C 0.99573 0.25371 0.90913 0.0
C385 C 0.96765 0.23979 0.89431 0.0
C386 C 0.95664 0.20598 0.8999 0.0
C387 C 1.0007 0.1997 0.93364 0.0
C388 C 0.01271 0.23276 0.9285 0.0
H389 H 0.93462 0.19572 0.88894 0.0
H390 H 0.01339 0.18408 0.94917 0.0
H391 H 0.88933 0.17274 0.91605 0.0
H392 H 0.87905 0.19808 1.00053 0.0
H393 H 0.05298 0.11377 0.86273 0.0
H394 H 0.95382 0.25512 0.87918 0.0
H395 H 0.03512 0.24184 0.93984 0.0
C396 C 0.89885 0.13894 0.63337 0.0
C397 C 0.88764 0.17241 0.63513 0.0
N398 N 0.8531 0.17255 0.63214 0.0
N399 N 0.87162 0.11777 0.6292 0.0
C400 C 0.84406 0.1392 0.62829 0.0
H401 H 0.92517 0.13047 0.63621 0.0
Co402 Co 0.87475 0.06933 0.62989 0.0
C403 C 0.89647 0.05365 0.68895 0.0
O404 O 0.88494 0.02182 0.68753 0.0
N405 N 0.879 0.02094 0.63065 0.0
C406 C 0.87237 0.96384 0.62978 0.0
C407 C 0.85568 0.99511 0.62797 0.0
C408 C 0.90952 1.00459 0.63366 0.0
N409 N 0.90628 0.97004 0.63328 0.0
O410 O 0.91963 0.07146 0.6123 0.0
H411 H 0.8283 0.99833 0.6249 0.0
H412 H 0.93374 0.01786 0.63715 0.0
O413 O 0.89416 0.07349 0.66772 0.0
C414 C 0.91414 0.06916 0.58618 0.0
O415 O 0.88211 0.07207 0.57752 0.0
N416 N 0.82943 0.06633 0.64312 0.0
C417 C 0.75903 0.05652 0.6513 0.0
C418 C 0.78114 0.06137 0.67407 0.0
C419 C 0.81643 0.06701 0.66951 0.0
C420 C 0.80794 0.06287 0.62087 0.0
C421 C 0.77269 0.0581 0.62445 0.0
H422 H 0.8328 0.07166 0.68719 0.0
H423 H 0.81858 0.06299 0.6001 0.0
H424 H 0.81761 0.13062 0.62648 0.0
H425 H 0.90366 0.19481 0.63905 0.0
H426 H 0.86055 0.93859 0.62822 0.0
H427 H 0.77122 0.06071 0.69511 0.0
H428 H 0.75648 0.05422 0.60635 0.0
C429 C 0.41274 0.85102 0.58408 0.0
C430 C 0.38137 0.83479 0.58113 0.0
N431 N 0.36646 0.83219 0.60634 0.0
N432 N 0.41786 0.85917 0.61103 0.0
C433 C 0.38897 0.84767 0.62399 0.0
H434 H 0.43117 0.85487 0.56757 0.0
Co435 Co 0.45941 0.87551 0.62692 0.0
C436 C 0.43563 0.91751 0.67412 0.0
O437 O 0.44981 0.94474 0.6625 0.0
N438 N 0.50079 0.89139 0.64353 0.0
C439 C 0.54099 0.90103 0.67578 0.0
C440 C 0.51229 0.88196 0.66896 0.0
C441 C 0.52316 0.91626 0.63538 0.0
N442 N 0.54763 0.92279 0.65468 0.0
O443 O 0.4531 0.91986 0.60884 0.0
H444 H 0.49971 0.8634 0.68235 0.0
H445 H 0.52141 0.92998 0.61595 0.0
O446 O 0.43552 0.88879 0.66107 0.0
C447 C 0.46805 0.91609 0.58529 0.0
O448 O 0.48368 0.8867 0.58035 0.0
N449 N 0.46786 0.8314 0.64041 0.0
C450 C 0.48474 0.76249 0.64909 0.0
C451 C 0.45865 0.77827 0.66486 0.0
C452 C 0.45056 0.813 0.6602 0.0
C453 C 0.49358 0.81668 0.62539 0.0
C454 C 0.50276 0.78254 0.62962 0.0
H455 H 0.42995 0.8246 0.6719 0.0
H456 H 0.5069 0.83165 0.60973 0.0
H457 H 0.38541 0.84883 0.64622 0.0
H458 H 0.37104 0.82475 0.56186 0.0
H459 H 0.5549 0.90004 0.69528 0.0
H460 H 0.44404 0.76376 0.68009 0.0
H461 H 0.52383 0.77203 0.61756 0.0
C462 C 0.64503 0.38715 0.60087 0.0
C463 C 0.66153 0.35582 0.60223 0.0
N464 N 0.67952 0.35439 0.6262 0.0
N465 N 0.6524 0.40557 0.6239 0.0
C466 C 0.67274 0.38459 0.63917 0.0
H467 H 0.63082 0.39667 0.58318 0.0
Co468 Co 0.64584 0.45293 0.6295 0.0
C469 C 0.62636 0.45956 0.69085 0.0
O470 O 0.63321 0.49269 0.6919 0.0
N471 N 0.63943 0.50034 0.63386 0.0
C472 C 0.64264 0.5568 0.62596 0.0
C473 C 0.65947 0.52578 0.62335 0.0
C474 C 0.61038 0.51649 0.64223 0.0
N475 N 0.61198 0.55067 0.63802 0.0
O476 O 0.59911 0.45029 0.61609 0.0
H477 H 0.68397 0.52201 0.61313 0.0
H478 H 0.58802 0.50331 0.65057 0.0
O479 O 0.63106 0.44254 0.66829 0.0
C480 C 0.59801 0.46048 0.5908 0.0
O481 O 0.62732 0.46358 0.57726 0.0
N482 N 0.69235 0.45744 0.63953 0.0
C483 C 0.7615 0.47593 0.64397 0.0
C484 C 0.74121 0.47186 0.66786 0.0
C485 C 0.7065 0.4626 0.66521 0.0
C486 C 0.7125 0.45846 0.61636 0.0
C487 C 0.74713 0.46789 0.61806 0.0
H488 H 0.69132 0.4608 0.68378 0.0
H489 H 0.70093 0.45398 0.59621 0.0
H490 H 0.68422 0.39245 0.65864 0.0
H491 H 0.66245 0.33692 0.58571 0.0
H492 H 0.65185 0.58179 0.61912 0.0
H493 H 0.75148 0.47772 0.68827 0.0
H494 H 0.76215 0.47023 0.59916 0.0
C495 C 0.13187 0.63817 0.60215 0.0
C496 C 0.16494 0.6512 0.60166 0.0
N497 N 0.16712 0.67705 0.62026 0.0
N498 N 0.11286 0.65563 0.62097 0.0
C499 C 0.13546 0.6787 0.632 0.0
H500 H 0.12225 0.61813 0.58859 0.0
Co501 Co 0.06428 0.65279 0.62617 0.0
C502 C 0.05371 0.63103 0.68605 0.0
O503 O 0.02314 0.64554 0.68628 0.0
N504 N 0.01626 0.64991 0.63035 0.0
C505 C 0.95962 0.65847 0.6276 0.0
C506 C 0.99169 0.67349 0.6246 0.0
C507 C 0.99852 0.62078 0.63625 0.0
N508 N 0.96418 0.62538 0.63512 0.0
O509 O 0.0623 0.60781 0.60825 0.0
H510 H 0.99655 0.69964 0.61791 0.0
H511 H 1.01068 0.59637 0.64095 0.0
O512 O 0.07222 0.63228 0.66387 0.0
C513 C 0.05149 0.61447 0.58366 0.0
O514 O 0.05134 0.64691 0.57574 0.0
N515 N 0.06393 0.69833 0.63954 0.0
C516 C 0.05202 0.76838 0.6467 0.0
C517 C 0.05411 0.7465 0.66978 0.0
C518 C 0.0609 0.71143 0.66581 0.0
C519 C 0.0642 0.71986 0.61716 0.0
C520 C 0.05849 0.75502 0.62026 0.0
H521 H 0.06309 0.69541 0.68387 0.0
H522 H 0.06717 0.70926 0.59653 0.0
H523 H 0.12842 0.69787 0.64723 0.0
H524 H 0.18545 0.64284 0.588 0.0
H525 H 0.93493 0.67083 0.62441 0.0
H526 H 0.0498 0.7563 0.69057 0.0
H527 H 0.05699 0.77122 0.60195 0.0
H528 H 0.61503 0.90165 0.14952 0.0
H529 H 0.53749 0.97567 0.12416 0.0
H530 H 0.49222 0.93149 0.13008 0.0
H531 H 0.57908 0.8301 0.11406 0.0
H532 H 0.59013 0.79933 0.14066 0.0
H533 H 0.61589 0.83761 0.1362 0.0
H534 H 0.60619 0.85336 0.18798 0.0
H535 H 0.5801 0.81522 0.19252 0.0
H536 H 0.5628 0.85695 0.20114 0.0
H537 H 0.45586 0.87805 0.13591 0.0
H538 H 0.43157 0.8192 0.14025 0.0
H539 H 0.53294 0.78034 0.16176 0.0
C540 C 0.58856 0.90863 0.1452 0.0
C541 C 0.57989 0.94226 0.1364 0.0
C542 C 0.5448 0.95031 0.13124 0.0
C543 C 0.51887 0.92532 0.13452 0.0
C544 C 0.52838 0.89243 0.14318 0.0
C545 C 0.56239 0.88406 0.14847 0.0
C546 C 0.56599 0.84648 0.15641 0.0
C547 C 0.58913 0.82726 0.13559 0.0
C548 C 0.57957 0.8428 0.18629 0.0
C549 C 0.52878 0.83484 0.15423 0.0
C550 C 0.50742 0.86176 0.14677 0.0
C551 C 0.47226 0.85684 0.14204 0.0
C552 C 0.45871 0.82338 0.14451 0.0
C553 C 0.4803 0.79534 0.15163 0.0
C554 C 0.51564 0.8014 0.157 0.0
H555 H 0.71809 0.51408 0.10008 0.0
H556 H 0.70236 0.45765 0.17685 0.0
H557 H 0.64573 0.48608 0.18286 0.0
H558 H 0.68534 0.59206 0.12349 0.0
H559 H 0.66534 0.60398 0.09107 0.0
H560 H 0.70234 0.57611 0.09109 0.0
H561 H 0.66801 0.53088 0.06331 0.0
H562 H 0.62992 0.55743 0.06357 0.0
H563 H 0.62815 0.51402 0.07694 0.0
H564 H 0.59349 0.52446 0.18241 0.0
H565 H 0.54951 0.56964 0.17559 0.0
H566 H 0.59994 0.60086 0.09913 0.0
C567 C 0.70224 0.50691 0.11771 0.0
C568 C 0.71427 0.48336 0.13784 0.0
C569 C 0.69341 0.47553 0.16116 0.0
C570 C 0.66125 0.49146 0.16468 0.0
C571 C 0.65049 0.51516 0.14471 0.0
C572 C 0.67033 0.52276 0.12164 0.0
C573 C 0.65424 0.55103 0.10433 0.0
C574 C 0.67825 0.58266 0.1024 0.0
C575 C 0.64447 0.53755 0.07532 0.0
C576 C 0.6226 0.55874 0.12159 0.0
C577 C 0.62068 0.53755 0.14464 0.0
C578 C 0.59449 0.5409 0.16426 0.0
C579 C 0.56965 0.56661 0.16022 0.0
C580 C 0.57135 0.58884 0.13689 0.0
C581 C 0.59813 0.58457 0.11731 0.0
H582 H 0.9935 0.72927 0.11732 0.0
H583 H 0.04306 0.70812 0.19635 0.0
H584 H 0.01118 0.65271 0.19936 0.0
H585 H 0.91159 0.69648 0.13462 0.0
H586 H 0.90315 0.67861 0.1007 0.0
H587 H 0.93115 0.71548 0.10425 0.0
H588 H 0.98009 0.68279 0.07876 0.0
H589 H 0.95209 0.64593 0.07486 0.0
H590 H 0.99353 0.64119 0.09143 0.0
H591 H 0.97253 0.5998 0.19361 0.0
H592 H 0.93038 0.55472 0.17995 0.0
H593 H 0.90711 0.61183 0.10481 0.0
C594 C 0.99831 0.71271 0.13502 0.0
C595 C 0.02111 0.72282 0.15646 0.0
C596 C 0.02572 0.70085 0.17968 0.0
C597 C 1.00782 0.66933 0.18151 0.0
C598 C 0.98537 0.66032 0.15999 0.0
C599 C 0.98069 0.68141 0.13718 0.0
C600 C 0.95442 0.66659 0.1172 0.0
C601 C 0.92324 0.69073 0.11403 0.0
C602 C 0.97103 0.65865 0.08889 0.0
C603 C 0.94472 0.6339 0.13241 0.0
C604 C 0.96294 0.63052 0.15695 0.0
C605 C 0.95821 0.6022 0.1744 0.0
C606 C 0.93431 0.57671 0.16646 0.0
C607 C 0.91531 0.57986 0.14142 0.0
C608 C 0.92074 0.60892 0.1243 0.0
H609 H 0.89707 0.90108 0.16397 0.0
H610 H 0.97141 0.97083 0.12663 0.0
H611 H 0.92771 0.01682 0.12567 0.0
H612 H 0.82556 0.92769 0.12423 0.0
H613 H 0.79486 0.92359 0.15218 0.0
H614 H 0.83292 0.89717 0.15185 0.0
H615 H 0.84929 0.91957 0.20092 0.0
H616 H 0.81129 0.94621 0.20133 0.0
H617 H 0.85321 0.96533 0.2068 0.0
H618 H 0.87444 0.05371 0.12538 0.0
H619 H 0.81571 0.07869 0.12631 0.0
H620 H 0.77666 0.98485 0.16413 0.0
C621 C 0.90418 0.92608 0.15573 0.0
C622 C 0.93771 0.93242 0.1455 0.0
C623 C 0.94608 0.96554 0.13499 0.0
C624 C 0.92137 0.99181 0.13428 0.0
C625 C 0.88848 0.98461 0.14439 0.0
C626 C 0.87989 0.9526 0.15503 0.0
C627 C 0.84237 0.95105 0.16354 0.0
C628 C 0.82279 0.92324 0.14695 0.0
C629 C 0.83885 0.9452 0.19502 0.0
C630 C 0.831 0.98693 0.15546 0.0
C631 C 0.85798 1.006 0.14457 0.0
C632 C 0.8532 0.03921 0.1342 0.0
C633 C 0.81984 0.05313 0.13472 0.0
C634 C 0.79186 0.03383 0.1456 0.0
C635 C 0.79774 1.00052 0.15636 0.0
H636 H 0.05726 0.24232 0.38963 0.0
H637 H 0.95774 0.20739 0.42002 0.0
H638 H 0.97887 0.14732 0.42032 0.0
H639 H 0.07552 0.16609 0.34558 0.0
H640 H 0.12085 0.16703 0.35397 0.0
H641 H 0.09654 0.20655 0.35319 0.0
H642 H 0.11587 0.21987 0.40365 0.0
H643 H 0.13996 0.18032 0.4047 0.0
H644 H 0.10752 0.1887 0.43065 0.0
H645 H 0.01302 0.09277 0.42311 0.0
H646 H 0.05656 0.04638 0.42446 0.0
H647 H 0.13336 0.11649 0.3911 0.0
C648 C 0.03977 0.2219 0.39587 0.0
C649 C 1.00588 0.22933 0.40472 0.0
C650 C 0.98365 0.20208 0.4128 0.0
C651 C 0.99547 0.16797 0.41316 0.0
C652 C 0.02937 0.16164 0.40502 0.0
C653 C 0.05105 0.18776 0.39613 0.0
C654 C 0.08682 0.17436 0.38977 0.0
C655 C 0.09542 0.17876 0.35878 0.0
C656 C 0.11414 0.19185 0.4083 0.0
C657 C 0.08219 0.13678 0.39727 0.0
C658 C 0.04885 0.12996 0.40599 0.0
C659 C 0.03902 0.09764 0.41588 0.0
C660 C 0.06393 0.0716 0.4168 0.0
C661 C 0.09813 0.07804 0.40778 0.0
C662 C 0.1072 0.11092 0.39764 0.0
H663 H 0.32741 1.00163 0.45259 0.0
H664 H 0.29915 0.98831 0.36587 0.0
H665 H 0.35336 0.01651 0.35178 0.0
H666 H 0.35763 0.08461 0.44584 0.0
H667 H 0.39276 0.08089 0.47022 0.0
H668 H 0.35529 0.05379 0.47384 0.0
H669 H 0.39393 0.9994 0.47229 0.0
H670 H 0.43164 0.02642 0.46887 0.0
H671 H 0.42304 0.99328 0.44352 0.0
H672 H 0.40617 0.05271 0.34694 0.0
H673 H 0.4549 0.0931 0.35164 0.0
H674 H 0.44744 0.08604 0.4415 0.0
C675 C 0.33285 1.00408 0.43061 0.0
C676 C 0.30892 0.99254 0.41036 0.0
C677 C 0.31722 0.99621 0.38183 0.0
C678 C 0.34794 0.0124 0.37359 0.0
C679 C 0.37023 0.02465 0.39409 0.0
C680 C 0.36329 0.0204 0.42204 0.0
C681 C 0.38988 0.03882 0.43986 0.0
C682 C 0.37286 0.06615 0.45852 0.0
C683 C 0.41086 0.01293 0.45715 0.0
C684 C 0.41194 0.05531 0.41752 0.0
C685 C 0.40049 0.04631 0.3913 0.0
C686 C 0.41558 0.05969 0.36737 0.0
C687 C 0.44303 0.083 0.37028 0.0
C688 C 0.45496 0.09308 0.39696 0.0
C689 C 0.43931 0.07861 0.42083 0.0
H690 H 0.54077 0.31541 0.46008 0.0
H691 H 0.54637 0.30944 0.37009 0.0
H692 H 0.52293 0.36848 0.36688 0.0
H693 H 0.45915 0.34906 0.46035 0.0
H694 H 0.46521 0.3753 0.4909 0.0
H695 H 0.49024 0.33681 0.48639 0.0
H696 H 0.54725 0.37199 0.49102 0.0
H697 H 0.52177 0.41004 0.49666 0.0
H698 H 0.55378 0.4094 0.46942 0.0
H699 H 0.4915 0.42524 0.37356 0.0
H700 H 0.45233 0.47183 0.38915 0.0
H701 H 0.46167 0.43598 0.47401 0.0
C702 C 0.53749 0.32647 0.4396 0.0
C703 C 0.54531 0.30753 0.41534 0.0
C704 C 0.5411 0.32348 0.38905 0.0
C705 C 0.52765 0.35702 0.38702 0.0
C706 C 0.51847 0.37413 0.41143 0.0
C707 C 0.52317 0.3592 0.43722 0.0
C708 C 0.50665 0.38012 0.46007 0.0
C709 C 0.47866 0.35907 0.4753 0.0
C710 C 0.53401 0.39374 0.48048 0.0
C711 C 0.49108 0.40889 0.44312 0.0
C712 C 0.49884 0.40557 0.41519 0.0
C713 C 0.48564 0.42829 0.39541 0.0
C714 C 0.46349 0.45462 0.4044 0.0
C715 C 0.45415 0.45733 0.43274 0.0
C716 C 0.46854 0.43445 0.45226 0.0
H717 H 0.10918 0.43618 0.38012 0.0
H718 H 0.06267 0.45462 0.46053 0.0
H719 H 0.1129 0.49075 0.47401 0.0
H720 H 0.19814 0.43012 0.40612 0.0
H721 H 0.21609 0.45043 0.37566 0.0
H722 H 0.17684 0.42565 0.37299 0.0
H723 H 0.14634 0.47853 0.35121 0.0
H724 H 0.18528 0.50372 0.35441 0.0
H725 H 0.14578 0.51883 0.36989 0.0
H726 H 0.16487 0.52901 0.47666 0.0
H727 H 0.22104 0.55828 0.47254 0.0
H728 H 0.23663 0.51068 0.39178 0.0
C729 C 0.11009 0.44742 0.40071 0.0
C730 C 0.08253 0.44266 0.41945 0.0
C731 C 0.084 0.45771 0.44618 0.0
C732 C 0.11211 0.47849 0.45383 0.0
C733 C 0.13856 0.48343 0.43458 0.0
C734 C 0.13826 0.46763 0.40884 0.0
C735 C 0.17045 0.47633 0.39238 0.0
C736 C 0.19164 0.44369 0.38645 0.0
C737 C 0.1614 0.49549 0.36538 0.0
C738 C 0.18873 0.49987 0.41276 0.0
C739 C 0.16958 0.50401 0.43675 0.0
C740 C 0.18048 0.52536 0.45825 0.0
C741 C 0.21253 0.54178 0.45571 0.0
C742 C 0.23378 0.53616 0.43212 0.0
C743 C 0.22114 0.5156 0.41006 0.0
H744 H 0.43104 0.10268 0.96764 0.0
H745 H 0.46464 0.05052 0.89284 0.0
H746 H 0.50979 0.09508 0.88591 0.0
H747 H 0.43775 0.18574 0.94311 0.0
H748 H 0.45324 0.20444 0.97508 0.0
H749 H 0.42712 0.16608 0.97597 0.0
H750 H 0.47492 0.13416 1.00366 0.0
H751 H 0.50093 0.17279 1.00306 0.0
H752 H 0.5182 0.13288 0.99001 0.0
H753 H 0.54565 0.14975 0.88401 0.0
H754 H 0.57085 0.20828 0.88844 0.0
H755 H 0.51365 0.22345 0.9649 0.0
C756 C 0.44815 0.10047 0.94997 0.0
C757 C 0.44433 0.07339 0.93066 0.0
C758 C 0.46742 0.07101 0.90796 0.0
C759 C 0.49306 0.09617 0.90388 0.0
C760 C 0.49558 0.1231 0.923 0.0
C761 C 0.47401 0.12506 0.94583 0.0
C762 C 0.48048 0.15751 0.96245 0.0
C763 C 0.44771 0.17974 0.96423 0.0
C764 C 0.49447 0.1488 0.99152 0.0
C765 C 0.5079 0.17441 0.9447 0.0
C766 C 0.51664 0.15406 0.92221 0.0
C767 C 0.5395 0.16561 0.90182 0.0
C768 C 0.5535 0.19892 0.9044 0.0
C769 C 0.54452 0.22022 0.92717 0.0
C770 C 0.5218 0.20744 0.94768 0.0
H771 H 0.41274 0.41479 0.96256 0.0
H772 H 0.4741 0.45138 0.89327 0.0
H773 H 0.42877 0.49387 0.88169 0.0
H774 H 0.33063 0.42115 0.93036 0.0
H775 H 0.30877 0.43587 0.96118 0.0
H776 H 0.34649 0.40919 0.96423 0.0
H777 H 0.3757 0.45551 0.99528 0.0
H778 H 0.33806 0.4824 0.99229 0.0
H779 H 0.37985 0.49907 0.98263 0.0
H780 H 0.37441 0.52941 0.87582 0.0
H781 H 0.31716 0.55775 0.87816 0.0
H782 H 0.29323 0.49962 0.95268 0.0
C783 C 0.41654 0.43177 0.94497 0.0
C784 C 0.44674 0.4298 0.9287 0.0
C785 C 0.45118 0.45272 0.90606 0.0
C786 C 0.42556 0.47681 0.8993 0.0
C787 C 0.39592 0.47795 0.91567 0.0
C788 C 0.39151 0.4563 0.93824 0.0
C789 C 0.35742 0.46278 0.95259 0.0
C790 C 0.33448 0.43032 0.95204 0.0
C791 C 0.36311 0.47571 0.98246 0.0
C792 C 0.34297 0.49092 0.93422 0.0
C793 C 0.36546 0.49931 0.91298 0.0
C794 C 0.35681 0.5234 0.8926 0.0
C795 C 0.32431 0.53928 0.89401 0.0
C796 C 0.30116 0.53123 0.91582 0.0
C797 C 0.31081 0.50685 0.93616 0.0
H798 H 0.01735 0.29832 0.94931 0.0
H799 H 1.00194 0.29048 0.86021 0.0
H800 H 0.02985 0.34759 0.85414 0.0
H801 H 1.00935 0.39268 0.9565 0.0
H802 H 0.04334 0.3938 0.98211 0.0
H803 H 0.01616 0.35623 0.97908 0.0
H804 H 0.07113 0.31882 0.97283 0.0
H805 H 0.09801 0.35659 0.97506 0.0
H806 H 0.1008 0.32882 0.94511 0.0
H807 H 0.06476 0.40347 0.85797 0.0
H808 H 0.10428 0.45137 0.87119 0.0
H809 H 0.10039 0.41813 0.95699 0.0
C810 C 0.01947 0.30865 0.92848 0.0
C811 C 1.00767 0.28981 0.9052 0.0
C812 C 1.01049 0.3046 0.87838 0.0
C813 C 0.02642 0.33694 0.87475 0.0
C814 C 0.03924 0.35402 0.89815 0.0
C815 C 0.03577 0.34029 0.9245 0.0
C816 C 0.05466 0.3615 0.94603 0.0
C817 C 0.02934 0.37699 0.96716 0.0
C818 C 0.08281 0.34015 0.96059 0.0
C819 C 0.07015 0.389 0.92767 0.0
C820 C 0.06048 0.3848 0.90019 0.0
C821 C 0.07231 0.40702 0.87944 0.0
C822 C 0.09471 0.434 0.88705 0.0
C823 C 0.10552 0.43787 0.91496 0.0
C824 C 0.09283 0.41526 0.93545 0.0
H825 H 0.23316 0.01648 0.87575 0.0
H826 H 0.20762 0.9352 0.934 0.0
H827 H 0.14714 0.95528 0.93534 0.0
H828 H 0.18792 0.07945 0.90834 0.0
H829 H 0.17312 0.10161 0.87767 0.0
H830 H 0.21223 0.07689 0.87646 0.0
H831 H 0.18818 0.04072 0.83548 0.0
H832 H 0.1491 0.06578 0.83618 0.0
H833 H 0.14695 0.01947 0.83894 0.0
H834 H 0.09262 0.98943 0.9361 0.0
H835 H 0.04669 0.03331 0.93396 0.0
H836 H 0.10838 0.09331 0.87624 0.0
C837 C 0.21437 1.00207 0.88775 0.0
C838 C 0.22459 0.97406 0.90442 0.0
C839 C 0.19988 0.95649 0.92085 0.0
C840 C 0.16559 0.96772 0.92173 0.0
C841 C 0.15656 0.99647 0.90602 0.0
C842 C 0.1801 0.01317 0.88904 0.0
C843 C 0.16489 0.04565 0.87672 0.0
C844 C 0.18578 0.07778 0.88533 0.0
C845 C 0.16211 0.04271 0.84494 0.0
C846 C 0.12963 0.04524 0.89019 0.0
C847 C 0.12516 0.01649 0.90676 0.0
C848 C 0.09559 0.01176 0.92281 0.0
C849 C 0.06982 0.03701 0.92174 0.0
C850 C 0.07392 0.0667 0.9049 0.0
C851 C 0.10419 0.07059 0.88885 0.0
H852 H 0.99012 0.78851 0.66708 0.0
H853 H 0.08424 0.82737 0.62981 0.0
H854 H 0.05817 0.8854 0.62606 0.0
H855 H 0.93498 0.83078 0.62285 0.0
H856 H 0.90188 0.83996 0.64806 0.0
H857 H 0.92963 0.80335 0.6528 0.0
H858 H 0.9479 0.82592 0.70133 0.0
H859 H 0.91967 0.86237 0.69699 0.0
H860 H 0.96471 0.86912 0.70473 0.0
H861 H 0.02007 0.93675 0.6218 0.0
H862 H 0.97254 0.97854 0.617 0.0
H863 H 0.90222 0.90569 0.65558 0.0
C864 C 1.0056 0.80966 0.65919 0.0
C865 C 0.03936 0.804 0.64932 0.0
C866 C 0.05853 0.83165 0.63791 0.0
C867 C 0.04393 0.86454 0.6357 0.0
C868 C 1.01009 0.8691 0.6448 0.0
C869 C 0.99119 0.84248 0.65645 0.0
C870 C 0.95422 0.85317 0.6618 0.0
C871 C 0.92869 0.83047 0.64539 0.0
C872 C 0.94616 0.85262 0.69308 0.0
C873 C 0.95504 0.88965 0.65067 0.0
C874 C 0.98763 0.89847 0.64137 0.0
C875 C 0.99453 0.93035 0.6293 0.0
C876 C 0.96742 0.95391 0.62674 0.0
C877 C 0.93376 0.94543 0.63605 0.0
C878 C 0.92762 0.91282 0.64816 0.0
H879 H 0.73301 1.00311 0.68149 0.0
H880 H 0.70322 0.08724 0.62742 0.0
H881 H 0.64356 0.06445 0.62576 0.0
H882 H 0.68831 0.94015 0.64662 0.0
H883 H 0.67533 0.91561 0.67668 0.0
H884 H 0.71384 0.94157 0.67794 0.0
H885 H 0.69054 0.97423 0.72095 0.0
H886 H 0.65209 0.94795 0.72014 0.0
H887 H 0.64869 0.99429 0.71936 0.0
H888 H 0.58982 0.02867 0.62504 0.0
H889 H 0.54462 0.98373 0.62706 0.0
H890 H 0.60996 0.92193 0.68052 0.0
C891 C 0.71351 0.01742 0.67026 0.0
C892 C 0.72235 0.04714 0.65492 0.0
C893 C 0.69665 0.06459 0.63952 0.0
C894 C 0.6628 0.05185 0.63847 0.0
C895 C 0.65517 0.02166 0.65295 0.0
C896 C 0.67968 1.00484 0.66881 0.0
C897 C 0.66574 0.97113 0.68013 0.0
C898 C 0.68708 0.94031 0.66971 0.0
C899 C 0.66417 0.97196 0.71204 0.0
C900 C 0.62995 0.97116 0.66753 0.0
C901 C 0.62425 1.00067 0.65215 0.0
C902 C 0.59381 1.00563 0.63729 0.0
C903 C 0.56846 0.97979 0.63829 0.0
C904 C 0.57376 0.94929 0.6539 0.0
C905 C 0.60491 0.94517 0.66879 0.0
H906 H 0.58276 0.59479 0.60211 0.0
H907 H 0.58311 0.56203 0.68797 0.0
H908 H 0.54263 0.60927 0.69996 0.0
H909 H 0.58394 0.68158 0.6126 0.0
H910 H 0.5549 0.69283 0.58479 0.0
H911 H 0.57967 0.65386 0.58268 0.0
H912 H 0.52358 0.61811 0.57615 0.0
H913 H 0.49853 0.65713 0.57801 0.0
H914 H 0.48929 0.62183 0.60124 0.0
H915 H 0.51078 0.6658 0.70333 0.0
H916 H 0.48768 0.72467 0.69755 0.0
H917 H 0.50324 0.71679 0.60843 0.0
C918 C 0.57361 0.59736 0.62326 0.0
C919 C 0.58584 0.57538 0.64426 0.0
C920 C 0.57363 0.57891 0.67177 0.0
C921 C 0.5507 0.60549 0.67866 0.0
C922 C 0.53961 0.62746 0.65754 0.0
C923 C 0.55011 0.62315 0.63027 0.0
C924 C 0.53604 0.65118 0.6117 0.0
C925 C 0.56539 0.67103 0.59711 0.0
C926 C 0.51033 0.63617 0.59053 0.0
C927 C 0.51796 0.67327 0.63307 0.0
C928 C 0.51987 0.65905 0.65934 0.0
C929 C 0.50827 0.67678 0.68276 0.0
C930 C 0.49509 0.7102 0.67927 0.0
C931 C 0.49376 0.7255 0.65256 0.0
C932 C 0.50422 0.70608 0.62919 0.0
H933 H 0.90315 0.61802 0.60834 0.0
H934 H 0.96682 0.57459 0.6735 0.0
H935 H 0.92264 0.52963 0.68209 0.0
H936 H 0.82153 0.6047 0.64137 0.0
H937 H 0.79943 0.5937 0.60959 0.0
H938 H 0.83629 0.62206 0.6087 0.0
H939 H 0.86599 0.58163 0.57314 0.0
H940 H 0.82931 0.55299 0.57408 0.0
H941 H 0.87182 0.53675 0.58162 0.0
H942 H 0.87024 0.49089 0.68467 0.0
H943 H 0.8141 0.46053 0.68016 0.0
H944 H 0.78608 0.52869 0.6124 0.0
C945 C 0.9076 0.59916 0.62451 0.0
C946 C 0.93821 0.5997 0.64033 0.0
C947 C 0.94354 0.57433 0.66105 0.0
C948 C 0.91862 0.54882 0.6661 0.0
C949 C 0.88872 0.54889 0.65003 0.0
C950 C 0.8832 0.57331 0.62957 0.0
C951 C 0.84904 0.56761 0.6151 0.0
C952 C 0.82517 0.59887 0.61894 0.0
C953 C 0.85437 0.55924 0.58415 0.0
C954 C 0.83594 0.53652 0.6309 0.0
C955 C 0.85914 0.52606 0.65098 0.0
C956 C 0.85198 0.49864 0.66885 0.0
C957 C 0.82011 0.48163 0.66621 0.0
C958 C 0.79608 0.49203 0.64572 0.0
C959 C 0.80433 0.51967 0.62781 0.0
H960 H 0.67562 0.23571 0.1168 0.0
H961 H 0.73793 0.15097 0.14725 0.0
H962 H 0.78765 0.19018 0.15215 0.0
H963 H 0.74055 0.27436 0.07602 0.0
H964 H 0.72814 0.31817 0.08336 0.0
H965 H 0.69637 0.28424 0.08452 0.0
H966 H 0.68073 0.3012 0.13508 0.0
H967 H 0.71241 0.33531 0.13403 0.0
H968 H 0.71423 0.30319 0.16105 0.0
H969 H 0.83249 0.23672 0.14848 0.0
H970 H 0.86796 0.28903 0.13999 0.0
H971 H 0.77668 0.34443 0.11414 0.0
C972 C 0.69959 0.22556 0.12488 0.0
C973 C 0.70265 0.19027 0.13188 0.0
C974 C 0.73457 0.17796 0.1423 0.0
C975 C 0.76312 0.20002 0.14496 0.0
C976 C 0.75938 0.23447 0.1374 0.0
C977 C 0.72832 0.24733 0.12789 0.0
C978 C 0.7316 0.28513 0.12021 0.0
C979 C 0.7237 0.29079 0.08919 0.0
C980 C 0.70836 0.30753 0.1387 0.0
C981 C 0.76945 0.29134 0.12651 0.0
C982 C 0.78505 0.2617 0.13624 0.0
C983 C 0.82043 0.26027 0.14141 0.0
C984 C 0.84037 0.28991 0.13648 0.0
C985 C 0.82481 0.32061 0.12693 0.0
C986 C 0.78888 0.3214 0.12214 0.0
H987 H 0.30148 0.69946 0.09886 0.0
H988 H 0.32851 0.69718 0.18618 0.0
H989 H 0.2836 0.74122 0.19583 0.0
H990 H 0.28844 0.79016 0.0948 0.0
H991 H 0.2533 0.78684 0.07038 0.0
H992 H 0.28629 0.7543 0.07102 0.0
H993 H 0.23973 0.70697 0.07819 0.0
H994 H 0.20657 0.73935 0.07744 0.0
H995 H 0.20987 0.71062 0.10675 0.0
H996 H 0.23385 0.78506 0.19531 0.0
H997 H 0.18741 0.82697 0.18425 0.0
H998 H 0.19648 0.80124 0.09697 0.0
C999 C 0.2976 0.70782 0.12009 0.0
C1000 C 0.31798 0.69457 0.14191 0.0
C1001 C 0.31294 0.70697 0.16927 0.0
C1002 C 0.2875 0.73185 0.17488 0.0
C1003 C 0.26777 0.74436 0.15279 0.0
C1004 C 0.27286 0.73287 0.12591 0.0
C1005 C 0.24951 0.75115 0.10555 0.0
C1006 C 0.27066 0.77184 0.08419 0.0
C1007 C 0.22497 0.72549 0.09115 0.0
C1008 C 0.23024 0.77469 0.1251 0.0
C1009 C 0.24076 0.77031 0.15233 0.0
C1010 C 0.22566 0.78882 0.17402 0.0
C1011 C 0.19932 0.81245 0.16762 0.0
C1012 C 0.1888 0.81766 0.13976 0.0
C1013 C 0.20453 0.79839 0.11838 0.0
H1014 H 0.33243 0.73512 0.41901 0.0
H1015 H 0.30268 0.66996 0.48849 0.0
H1016 H 0.25624 0.71043 0.5002 0.0
H1017 H 0.31896 0.81562 0.45438 0.0
H1018 H 0.30293 0.83747 0.42396 0.0
H1019 H 0.33307 0.80253 0.42029 0.0
H1020 H 0.29019 0.77101 0.38757 0.0
H1021 H 0.25975 0.80571 0.39139 0.0
H1022 H 0.24694 0.76212 0.39944 0.0
H1023 H 0.21331 0.75804 0.50486 0.0
H1024 H 0.17971 0.81194 0.50434 0.0
H1025 H 0.23783 0.84742 0.4328 0.0
C1026 C 0.31638 0.72937 0.43681 0.0
C1027 C 0.32122 0.69892 0.45259 0.0
C1028 C 0.29927 0.69255 0.47563 0.0
C1029 C 0.27281 0.71553 0.48257 0.0
C1030 C 0.26857 0.74497 0.46639 0.0
C1031 C 0.28989 0.75214 0.44413 0.0
C1032 C 0.28042 0.78623 0.4307 0.0
C1033 C 0.31064 0.81198 0.43245 0.0
C1034 C 0.26862 0.78094 0.40048 0.0
C1035 C 0.25063 0.7972 0.44906 0.0
C1036 C 0.2441 0.77284 0.46937 0.0
C1037 C 0.21834 0.77738 0.48917 0.0
C1038 C 0.19938 0.80805 0.4887 0.0
C1039 C 0.20614 0.83384 0.46856 0.0
C1040 C 0.23172 0.82796 0.44817 0.0
H1041 H 0.83942 0.28869 0.422 0.0
H1042 H 0.82179 0.35524 0.49267 0.0
H1043 H 0.76402 0.32925 0.49937 0.0
H1044 H 0.74727 0.28529 0.39672 0.0
H1045 H 0.75031 0.24035 0.38751 0.0
H1046 H 0.78796 0.2677 0.38553 0.0
H1047 H 0.82089 0.22571 0.41777 0.0
H1048 H 0.7833 0.19846 0.42012 0.0
H1049 H 0.80304 0.2151 0.45131 0.0
H1050 H 0.71251 0.29174 0.5024 0.0
H1051 H 0.6679 0.24635 0.50032 0.0
H1052 H 0.71681 0.20273 0.42746 0.0
C1053 C 0.82263 0.29856 0.4381 0.0
C1054 C 0.83441 0.32456 0.45647 0.0
C1055 C 0.81267 0.3359 0.47815 0.0
C1056 C 0.77997 0.3212 0.48211 0.0
C1057 C 0.76935 0.29497 0.46421 0.0
C1058 C 0.78977 0.28385 0.44244 0.0
C1059 C 0.77313 0.25317 0.42784 0.0
C1060 C 0.76413 0.26217 0.3976 0.0
C1061 C 0.79649 0.22123 0.42936 0.0
C1062 C 0.7407 0.24834 0.44525 0.0
C1063 C 0.73915 0.27294 0.46602 0.0
C1064 C 0.71314 0.2727 0.48597 0.0
C1065 C 0.68806 0.24668 0.48476 0.0
C1066 C 0.68889 0.22113 0.46374 0.0
C1067 C 0.71535 0.22227 0.44348 0.0
H1068 H 0.23837 0.67532 0.93614 0.0
H1069 H 0.14463 0.73461 0.92491 0.0
H1070 H 0.17899 0.78809 0.92263 0.0
H1071 H 0.28164 0.73587 0.97953 0.0
H1072 H 0.3238 0.72885 0.96482 0.0
H1073 H 0.29219 0.69469 0.96443 0.0
H1074 H 0.29835 0.68942 0.911 0.0
H1075 H 0.33017 0.72341 0.91123 0.0
H1076 H 0.2924 0.72706 0.88957 0.0
H1077 H 0.2225 0.8351 0.92335 0.0
H1078 H 0.27321 0.87328 0.92515 0.0
H1079 H 0.33984 0.78445 0.93558 0.0
C1080 C 0.22516 0.69949 0.93272 0.0
C1081 C 0.18873 0.70077 0.9308 0.0
C1082 C 0.1724 0.73302 0.92681 0.0
C1083 C 0.19172 0.76353 0.92535 0.0
C1084 C 0.22743 0.76145 0.92784 0.0
C1085 C 0.24412 0.73032 0.93126 0.0
C1086 C 0.28282 0.73561 0.93395 0.0
C1087 C 0.29587 0.72301 0.96237 0.0
C1088 C 0.30207 0.71782 0.91001 0.0
C1089 C 0.28515 0.77458 0.93163 0.0
C1090 C 0.25281 0.78884 0.92817 0.0
C1091 C 0.24799 0.82426 0.92605 0.0
C1092 C 0.27699 0.84578 0.92738 0.0
C1093 C 0.31054 0.83191 0.93082 0.0
C1094 C 0.31457 0.79575 0.93285 0.0
H1095 H 0.7264 0.32986 0.98305 0.0
H1096 H 0.68455 0.30507 0.90171 0.0
H1097 H 0.73021 0.26148 0.89536 0.0
H1098 H 0.81605 0.32233 0.96414 0.0
H1099 H 0.82827 0.30409 0.99715 0.0
H1100 H 0.79213 0.33303 0.99507 0.0
H1101 H 0.75302 0.28677 1.01796 0.0
H1102 H 0.78895 0.25757 1.0199 0.0
H1103 H 0.74983 0.24453 1.00249 0.0
H1104 H 0.78081 0.21981 0.89832 0.0
H1105 H 0.83223 0.18526 0.90968 0.0
H1106 H 0.8415 0.23962 0.98832 0.0
C1107 C 0.72691 0.31575 0.96368 0.0
C1108 C 0.70162 0.32116 0.94287 0.0
C1109 C 0.70324 0.30132 0.91813 0.0
C1110 C 0.72921 0.27653 0.91428 0.0
C1111 C 0.75351 0.27181 0.93533 0.0
C1112 C 0.75261 0.29103 0.95949 0.0
C1113 C 0.7817 0.28117 0.97895 0.0
C1114 C 0.80597 0.31199 0.98411 0.0
C1115 C 0.76751 0.26664 1.00644 0.0
C1116 C 0.79921 0.2534 0.96195 0.0
C1117 C 0.78256 0.24825 0.9369 0.0
C1118 C 0.79412 0.2238 0.91784 0.0
C1119 C 0.82357 0.20435 0.92447 0.0
C1120 C 0.8414 0.20947 0.94993 0.0
C1121 C 0.82864 0.23441 0.96883 0.0
H1122 H 0.79007 0.18262 0.60815 0.0
H1123 H 0.86457 0.22855 0.66458 0.0
H1124 H 0.82652 0.27862 0.67087 0.0
H1125 H 0.76503 0.26115 0.57492 0.0
H1126 H 0.72015 0.24944 0.57173 0.0
H1127 H 0.75266 0.21641 0.5723 0.0
H1128 H 0.72178 0.18698 0.61381 0.0
H1129 H 0.6892 0.22001 0.61339 0.0
H1130 H 0.71308 0.21158 0.6448 0.0
H1131 H 0.7817 0.32429 0.67028 0.0
H1132 H 0.73393 0.36401 0.66153 0.0
H1133 H 0.68672 0.28862 0.60631 0.0
C1134 C 0.79818 0.20308 0.622 0.0
C1135 C 0.83045 0.20167 0.63576 0.0
C1136 C 0.84031 0.22922 0.65346 0.0
C1137 C 0.81871 0.25767 0.65738 0.0
C1138 C 0.78723 0.25833 0.64347 0.0
C1139 C 0.77693 0.23187 0.62607 0.0
C1140 C 0.74221 0.23972 0.61293 0.0
C1141 C 0.74521 0.24181 0.58109 0.0
C1142 C 0.71495 0.21298 0.62177 0.0
C1143 C 0.73485 0.27482 0.62553 0.0
C1144 C 0.76109 0.28487 0.64321 0.0
C1145 C 0.76078 0.3166 0.65669 0.0
C1146 C 0.73318 0.33898 0.65169 0.0
C1147 C 0.70604 0.32967 0.63329 0.0
C1148 C 0.70691 0.2968 0.62039 0.0
H1149 H 0.33339 0.78346 0.57468 0.0
H1150 H 0.32849 0.83659 0.65409 0.0
H1151 H 0.27759 0.80168 0.6668 0.0
H1152 H 0.24133 0.77883 0.56365 0.0
H1153 H 0.24294 0.73678 0.54781 0.0
H1154 H 0.27918 0.7657 0.54465 0.0
H1155 H 0.31947 0.71946 0.56547 0.0
H1156 H 0.28355 0.69014 0.56845 0.0
H1157 H 0.30916 0.70042 0.59864 0.0
H1158 H 0.22716 0.75992 0.67109 0.0
H1159 H 0.18077 0.71657 0.66586 0.0
H1160 H 0.21801 0.69271 0.58301 0.0
C1161 C 0.3216 0.78833 0.59463 0.0
C1162 C 0.33545 0.81301 0.61336 0.0
C1163 C 0.31897 0.8177 0.63942 0.0
C1164 C 0.28984 0.79803 0.64682 0.0
C1165 C 0.27723 0.7738 0.62793 0.0
C1166 C 0.29247 0.7691 0.60229 0.0
C1167 C 0.27389 0.74151 0.58564 0.0
C1168 C 0.25843 0.75665 0.55886 0.0
C1169 C 0.29796 0.71109 0.57919 0.0
C1170 C 0.2459 0.73121 0.60602 0.0
C1171 C 0.24822 0.7501 0.63029 0.0
C1172 C 0.22505 0.74511 0.6521 0.0
C1173 C 0.19865 0.72046 0.64888 0.0
C1174 C 0.19549 0.70103 0.62402 0.0
C1175 C 0.21976 0.70656 0.60246 0.0
H1176 H 0.57666 0.05489 0.03259 0.0
H1177 H 0.53171 0.04396 0.11473 0.0
H1178 H 0.4833 0.01081 0.09452 0.0
H1179 H 0.49206 0.06442 0.99589 0.0
H1180 H 0.50731 0.04174 0.96564 0.0
H1181 H 0.53699 0.06667 0.98639 0.0
H1182 H 0.57539 0.01259 0.99219 0.0
H1183 H 0.54541 0.98726 0.97207 0.0
H1184 H 0.55703 0.97377 1.00667 0.0
H1185 H 0.44419 0.9729 0.0665 0.0
H1186 H 0.40943 0.94253 1.03137 0.0
H1187 H 0.47699 0.98095 0.9663 0.0
C1188 C 0.55621 0.04621 0.04627 0.0
C1189 C 0.55827 0.05158 0.07538 0.0
C1190 C 0.53088 0.04002 0.09247 0.0
C1191 C 0.50334 0.02101 0.08116 0.0
C1192 C 0.50308 0.01463 0.05262 0.0
C1193 C 0.52812 0.02787 0.03522 0.0
C1194 C 0.52143 0.01756 1.00519 0.0
C1195 C 0.514 0.04949 0.98722 0.0
C1196 C 0.55162 0.99654 0.99335 0.0
C1197 C 0.48938 0.99537 1.00858 0.0
C1198 C 0.47947 0.99394 0.03617 0.0
C1199 C 0.45134 0.97435 0.04479 0.0
C1200 C 0.4319 0.95694 1.02462 0.0
C1201 C 0.44035 0.95932 0.99599 0.0
C1202 C 0.46999 0.9783 0.98797 0.0
H1203 H 0.48355 0.54234 0.0999 0.0
H1204 H 0.44317 0.6061 0.03336 0.0
H1205 H 0.47112 0.56886 0.99875 0.0
H1206 H 0.56455 0.52655 0.06937 0.0
H1207 H 0.56807 0.48214 0.0801 0.0
H1208 H 0.54312 0.51201 0.10045 0.0
H1209 H 0.48896 0.47313 0.0963 0.0
H1210 H 0.51385 0.44236 0.0768 0.0
H1211 H 0.47447 0.45939 0.06244 0.0
H1212 H 0.50752 0.52833 0.97127 0.0
H1213 H 0.54177 0.48033 0.95213 0.0
H1214 H 0.55661 0.44035 0.03553 0.0
C1215 C 0.47977 0.54777 0.07803 0.0
C1216 C 0.46105 0.57711 0.06936 0.0
C1217 C 0.45739 0.58381 0.04053 0.0
C1218 C 0.47334 0.56291 1.02066 0.0
C1219 C 0.49281 0.53511 1.0298 0.0
C1220 C 0.49549 0.52692 0.05772 0.0
C1221 C 0.51816 0.49547 0.06171 0.0
C1222 C 0.55038 0.50458 0.07893 0.0
C1223 C 0.49763 0.46583 0.0751 0.0
C1224 C 0.52754 0.48735 1.03172 0.0
C1225 C 0.5131 0.51094 1.01373 0.0
C1226 C 0.51865 0.50938 0.9851 0.0
C1227 C 0.53834 0.48212 0.9744 0.0
C1228 C 0.55161 0.45635 0.99223 0.0
C1229 C 0.54672 0.45958 1.02133 0.0
H1230 H 0.93651 0.46611 1.0286 0.0
H1231 H 0.97216 0.48906 0.11212 0.0
H1232 H 0.02309 0.51899 0.09257 0.0
H1233 H 0.02244 0.45055 0.9994 0.0
H1234 H 0.01171 0.46912 0.96619 0.0
H1235 H 0.97864 0.44876 0.98683 0.0
H1236 H 0.94266 0.50494 0.98495 0.0
H1237 H 0.97585 0.52569 0.9647 0.0
H1238 H 0.96162 0.54482 0.99684 0.0
H1239 H 0.06816 0.5488 0.0642 0.0
H1240 H 0.10896 0.57067 1.02927 0.0
H1241 H 0.04563 0.52752 0.96335 0.0
C1242 C 0.9553 0.47704 0.04278 0.0
C1243 C 0.95044 0.47514 0.07195 0.0
C1244 C 0.97555 0.48979 0.08979 0.0
C1245 C 1.00438 0.50713 0.07883 0.0
C1246 C 1.00793 0.50925 0.05001 0.0
C1247 C 0.98446 0.49407 1.03219 0.0
C1248 C 0.99479 0.4996 1.00202 0.0
C1249 C 1.00233 0.46495 0.98775 0.0
C1250 C 0.96707 0.51998 0.9862 0.0
C1251 C 0.02753 0.52074 1.00562 0.0
C1252 C 0.03439 0.52608 0.03352 0.0
C1253 C 0.06316 0.54458 0.04233 0.0
C1254 C 0.08615 0.557 1.02224 0.0
C1255 C 0.08053 0.55089 0.99351 0.0
C1256 C 0.05039 0.53304 0.98508 0.0
H1257 H 0.98531 0.03334 0.97011 0.0
H1258 H 0.96535 0.11396 1.03033 0.0
H1259 H 0.98496 0.07595 0.06813 0.0
H1260 H 0.95977 0.95967 1.01705 0.0
H1261 H 0.99318 0.93226 1.00338 0.0
H1262 H 0.97365 0.96448 0.9815 0.0
H1263 H 0.03419 0.98908 0.97113 0.0
H1264 H 0.05417 0.95822 0.99388 0.0
H1265 H 0.06116 1.0037 0.99934 0.0
H1266 H 0.01409 0.03261 0.09868 0.0
H1267 H 0.0413 0.98222 0.12123 0.0
H1268 H 0.04061 0.92826 0.04221 0.0
C1269 C 0.98366 0.0423 0.99138 0.0
C1270 C 0.97327 0.07642 0.99738 0.0
C1271 C 0.97279 0.08776 1.02538 0.0
C1272 C 0.98415 0.06646 0.04699 0.0
C1273 C 0.99586 0.03362 0.0404 0.0
C1274 C 0.99491 0.02115 1.01343 0.0
C1275 C 1.01004 0.9851 1.01217 0.0
C1276 C 0.98252 0.95882 1.00299 0.0
C1277 C 0.04178 0.98399 0.993 0.0
C1278 C 0.02018 0.97978 0.04241 0.0
C1279 C 0.01201 1.0082 0.05829 0.0
C1280 C 0.02015 1.00994 0.08655 0.0
C1281 C 0.03592 0.98132 0.09916 0.0
C1282 C 0.04289 0.95117 0.08363 0.0
C1283 C 0.0354 0.95082 0.05476 0.0
H1284 H 0.98306 0.05217 0.59569 0.0
H1285 H 0.90505 0.05765 0.53096 0.0
H1286 H 0.94509 0.0312 0.49783 0.0
H1287 H 0.05528 0.07342 0.54952 0.0
H1288 H 0.0849 0.04505 0.56706 0.0
H1289 H 0.04993 0.06445 0.58603 0.0
H1290 H 0.02976 1.00383 0.60153 0.0
H1291 H 0.06404 0.98403 0.58205 0.0
H1292 H 0.0199 0.97162 0.5756 0.0
H1293 H 0.99241 1.00152 0.47166 0.0
H1294 H 0.04701 0.97792 0.45304 0.0
H1295 H 0.09555 0.99388 0.53332 0.0
C1296 C 0.97459 0.04819 0.57448 0.0
C1297 C 0.94071 0.05699 0.56613 0.0
C1298 C 0.93073 0.05118 0.53809 0.0
C1299 C 0.95327 0.03596 0.519 0.0
C1300 C 0.98609 0.02688 0.52797 0.0
C1301 C 0.99706 0.03334 0.55486 0.0
C1302 C 0.03424 0.02207 0.55862 0.0
C1303 C 0.05746 0.0531 0.56572 0.0
C1304 C 0.03712 0.9937 0.58077 0.0
C1305 C 0.04209 1.00805 0.52983 0.0
C1306 C 0.01384 0.01073 0.51254 0.0
C1307 C 0.01479 0.99934 0.485 0.0
C1308 C 0.04578 0.98565 0.47465 0.0
C1309 C 0.07545 0.98388 0.49172 0.0
C1310 C 0.07325 0.99481 0.51977 0.0
H1311 H 0.54091 0.09445 0.52616 0.0
H1312 H 0.54642 0.04413 0.44578 0.0
H1313 H 0.5183 0.99231 0.46581 0.0
H1314 H 0.55921 0.01799 0.56796 0.0
H1315 H 0.53037 0.03162 0.5952 0.0
H1316 H 0.55148 0.06325 0.57376 0.0
H1317 H 0.49091 0.0884 0.56239 0.0
H1318 H 0.4702 0.05523 0.5827 0.0
H1319 H 0.4587 0.06095 0.5467 0.0
H1320 H 0.4879 0.94723 0.49406 0.0
H1321 H 0.46632 0.90745 0.52998 0.0
H1322 H 0.48199 0.98585 0.59305 0.0
C1323 C 0.53666 0.07229 0.51287 0.0
C1324 C 0.54603 0.07317 0.48441 0.0
C1325 C 0.53997 0.04379 0.46768 0.0
C1326 C 0.5236 0.01447 0.47882 0.0
C1327 C 0.51385 0.01485 0.50678 0.0
C1328 C 0.52083 0.04269 0.52375 0.0
C1329 C 0.50875 0.03605 0.55334 0.0
C1330 C 0.53929 0.03727 0.57375 0.0
C1331 C 0.48046 0.06169 0.56177 0.0
C1332 C 0.49424 0.99982 0.55053 0.0
C1333 C 0.49686 0.9885 0.52331 0.0
C1334 C 0.48583 0.95581 0.51539 0.0
C1335 C 0.47339 0.93348 0.53596 0.0
C1336 C 0.47215 0.94366 0.56424 0.0
C1337 C 0.48181 0.97767 0.57153 0.0
H1338 H 0.48932 0.5552 0.47182 0.0
H1339 H 0.42669 0.59821 0.53803 0.0
H1340 H 0.46192 0.56802 0.57273 0.0
H1341 H 0.50239 0.47375 0.50018 0.0
H1342 H 0.54695 0.47008 0.48978 0.0
H1343 H 0.51801 0.49691 0.47019 0.0
H1344 H 0.55977 0.54879 0.47753 0.0
H1345 H 0.58837 0.52149 0.49715 0.0
H1346 H 0.57225 0.56073 0.51234 0.0
H1347 H 0.49854 0.52702 0.60004 0.0
H1348 H 0.54241 0.48729 0.6189 0.0
H1349 H 0.58463 0.47416 0.53606 0.0
C1350 C 0.48375 0.55918 0.49363 0.0
C1351 C 0.45498 0.57894 0.50207 0.0
C1352 C 0.4484 0.58308 0.53091 0.0
C1353 C 0.46819 0.56588 0.55088 0.0
C1354 C 0.49515 0.54517 0.54188 0.0
C1355 C 0.50377 0.54264 0.51405 0.0
C1356 C 0.53429 0.51873 0.51018 0.0
C1357 C 0.5248 0.48804 0.49145 0.0
C1358 C 0.56552 0.53863 0.49862 0.0
C1359 C 0.54044 0.50728 0.53997 0.0
C1360 C 0.51742 0.52271 0.5579 0.0
C1361 C 0.51713 0.51519 0.58627 0.0
C1362 C 0.54196 0.49232 0.59679 0.0
C1363 C 0.56717 0.47779 0.57907 0.0
C1364 C 0.56577 0.48491 0.55019 0.0
H1365 H 0.06084 0.54328 0.57896 0.0
H1366 H 0.99949 0.62852 0.54812 0.0
H1367 H 0.96902 0.58945 0.51623 0.0
H1368 H 0.07114 0.50297 0.51274 0.0
H1369 H 0.06846 0.45937 0.52553 0.0
H1370 H 0.08433 0.49324 0.54779 0.0
H1371 H 0.03795 0.47851 0.58467 0.0
H1372 H 0.0221 0.44419 0.56283 0.0
H1373 H 0.9931 0.47731 0.57471 0.0
H1374 H 0.94675 0.5417 0.48537 0.0
H1375 H 0.93452 0.48806 0.45888 0.0
H1376 H 1.00982 0.43409 0.50944 0.0
C1377 C 0.04072 0.55352 0.56573 0.0
C1378 C 0.03278 0.58905 0.56602 0.0
C1379 C 1.00645 0.6015 0.54812 0.0
C1380 C 0.98876 0.57947 0.52993 0.0
C1381 C 0.99758 0.5448 0.52963 0.0
C1382 C 0.02288 0.53179 0.54705 0.0
C1383 C 0.02828 0.4937 0.54153 0.0
C1384 C 0.06525 0.48692 0.5313 0.0
C1385 C 0.01984 0.47216 0.56748 0.0
C1386 C 1.00208 0.48754 0.51853 0.0
C1387 C 0.98462 0.5173 0.51189 0.0
C1388 C 0.96007 0.51808 0.49055 0.0
C1389 C 0.95325 0.48756 0.47558 0.0
C1390 C 0.97083 0.45673 0.48213 0.0
C1391 C 0.99544 0.45701 0.50401 0.0
H1392 H 0.58575 0.05967 0.35085 0.0
H1393 H 0.6233 0.16517 0.35342 0.0
H1394 H 0.63241 0.16356 0.30248 0.0
H1395 H 0.64426 0.02877 0.29781 0.0
H1396 H 0.61203 1.00119 0.28232 0.0
H1397 H 0.61021 0.01081 0.3189 0.0
H1398 H 0.54768 0.03313 0.31281 0.0
H1399 H 0.54947 0.02405 0.27615 0.0
H1400 H 0.53912 0.06687 0.28801 0.0
H1401 H 0.63495 0.15033 0.24998 0.0
H1402 H 0.63451 0.12557 0.20245 0.0
H1403 H 0.59466 0.02933 0.23567 0.0
C1404 C 0.59634 0.0824 0.34089 0.0
C1405 C 0.60382 0.11258 0.35629 0.0
C1406 C 0.61743 0.1417 0.34219 0.0
C1407 C 0.62257 0.14106 0.3132 0.0
C1408 C 0.61404 0.11109 0.2986 0.0
C1409 C 0.60152 0.08221 0.31213 0.0
C1410 C 0.59383 0.05327 0.29194 0.0
C1411 C 0.61644 0.02165 0.29811 0.0
C1412 C 0.55524 0.04379 0.29225 0.0
C1413 C 0.60395 0.07023 0.26483 0.0
C1414 C 0.61544 0.10362 0.26892 0.0
C1415 C 0.62606 0.12417 0.24664 0.0
C1416 C 0.62552 0.10996 0.21967 0.0
C1417 C 0.61453 0.07548 0.21523 0.0
C1418 C 0.60326 0.05574 0.23823 0.0
H1419 H 0.37655 0.53074 0.33185 0.0
H1420 H 0.44074 0.61117 0.36773 0.0
H1421 H 0.45775 0.62984 0.3205 0.0
H1422 H 0.43211 0.50986 0.2734 0.0
H1423 H 0.39657 0.50328 0.24978 0.0
H1424 H 0.39098 0.49512 0.28637 0.0
H1425 H 0.33929 0.53726 0.28747 0.0
H1426 H 0.3447 0.54556 0.25091 0.0
H1427 H 0.34508 0.58086 0.27528 0.0
H1428 H 0.46707 0.64021 0.26909 0.0
H1429 H 0.46606 0.64335 0.21798 0.0
H1430 H 0.39405 0.55742 0.2154 0.0
C1431 C 0.3945 0.55205 0.32984 0.0
C1432 C 0.40753 0.56932 0.35361 0.0
C1433 C 0.4305 0.59745 0.34992 0.0
C1434 C 0.44035 0.6082 0.32315 0.0
C1435 C 0.42687 0.59072 0.30019 0.0
C1436 C 0.40432 0.56333 0.30328 0.0
C1437 C 0.39233 0.54988 0.27523 0.0
C1438 C 0.40368 0.51231 0.27095 0.0
C1439 C 0.35302 0.55363 0.27204 0.0
C1440 C 0.41152 0.57408 0.25583 0.0
C1441 C 0.43153 0.59724 0.27065 0.0
C1442 C 0.45145 0.62221 0.25732 0.0
C1443 C 0.45066 0.6238 0.22816 0.0
C1444 C 0.42985 0.6008 0.21243 0.0
C1445 C 0.41026 0.57544 0.22665 0.0
H1446 H 0.93657 0.38231 0.20372 0.0
H1447 H 0.86706 0.46941 0.20982 0.0
H1448 H 0.8667 0.4635 0.26102 0.0
H1449 H 0.89946 0.33207 0.25895 0.0
H1450 H 0.94057 0.31628 0.2709 0.0
H1451 H 0.93473 0.32731 0.23485 0.0
H1452 H 0.9867 0.36953 0.23744 0.0
H1453 H 0.99291 0.35831 0.27338 0.0
H1454 H 0.98714 0.40278 0.26362 0.0
H1455 H 0.87568 0.44808 0.31292 0.0
H1456 H 0.89543 0.42645 0.35893 0.0
H1457 H 0.95723 0.34919 0.31711 0.0
C1458 C 0.92127 0.40024 0.21573 0.0
C1459 C 0.90173 0.42624 0.2026 0.0
C1460 C 0.88208 0.44909 0.21929 0.0
C1461 C 0.88169 0.44592 0.24845 0.0
C1462 C 0.901 0.4197 0.2607 0.0
C1463 C 0.92049 0.39737 0.24474 0.0
C1464 C 0.93964 0.3718 0.26267 0.0
C1465 C 0.92788 0.33467 0.25647 0.0
C1466 C 0.97891 0.37587 0.25907 0.0
C1467 C 0.92811 0.38324 0.29124 0.0
C1468 C 0.90577 0.41083 0.28992 0.0
C1469 C 0.89301 0.42631 0.31411 0.0
C1470 C 0.90414 0.41376 0.34017 0.0
C1471 C 0.92782 0.3861 0.34171 0.0
C1472 C 0.93908 0.37036 0.31681 0.0
H1473 H 0.06245 0.94336 0.35913 0.0
H1474 H 0.16917 0.91003 0.36107 0.0
H1475 H 0.16593 0.89623 0.31087 0.0
H1476 H 0.03165 0.87857 0.31086 0.0
H1477 H 1.00219 0.90785 0.29413 0.0
H1478 H 0.01324 0.91384 0.33017 0.0
H1479 H 0.03289 0.97639 0.31942 0.0
H1480 H 0.02231 0.97045 0.28329 0.0
H1481 H 0.06521 0.98382 0.29314 0.0
H1482 H 0.15077 0.88835 0.2589 0.0
H1483 H 0.12406 0.88312 0.21219 0.0
H1484 H 0.02767 0.92163 0.24565 0.0
C1485 C 0.08514 0.93282 0.34918 0.0
C1486 C 0.11611 0.92783 0.36422 0.0
C1487 C 0.14511 0.91403 0.35015 0.0
C1488 C 0.14353 0.90625 0.32155 0.0
C1489 C 0.11274 0.91224 0.30727 0.0
C1490 C 0.08399 0.92489 0.3208 0.0
C1491 C 0.05392 0.92921 0.30101 0.0
C1492 C 0.02346 0.90598 0.30955 0.0
C1493 C 0.04295 0.96723 0.29911 0.0
C1494 C 0.07011 0.9171 0.27413 0.0
C1495 C 0.1041 0.90754 0.27796 0.0
C1496 C 0.12414 0.8957 0.25579 0.0
C1497 C 0.10882 0.89301 0.22926 0.0
C1498 C 0.07374 0.90194 0.22515 0.0
C1499 C 0.0545 0.91447 0.24798 0.0
H1500 H 0.41153 1.00392 0.82427 0.0
H1501 H 0.40134 0.90045 0.85773 0.0
H1502 H 0.40804 0.87641 0.81054 0.0
H1503 H 0.36507 0.98992 0.7616 0.0
H1504 H 0.39299 0.01617 0.74032 0.0
H1505 H 0.38847 0.02549 0.7768 0.0
H1506 H 0.45465 0.02082 0.78341 0.0
H1507 H 0.45942 0.012 0.74686 0.0
H1508 H 0.4766 0.98237 0.77215 0.0
H1509 H 0.41212 0.86375 0.75915 0.0
H1510 H 0.42054 0.86291 0.70843 0.0
H1511 H 0.4304 0.97442 0.70825 0.0
C1512 C 0.4111 0.97618 0.82173 0.0
C1513 C 0.40595 0.9541 0.84482 0.0
C1514 C 0.40557 0.91794 0.84052 0.0
C1515 C 0.40909 0.90402 0.81371 0.0
C1516 C 0.41335 0.92653 0.79136 0.0
C1517 C 0.41499 0.96182 0.79514 0.0
C1518 C 0.4203 0.98029 0.76765 0.0
C1519 C 0.38989 1.00439 0.76122 0.0
C1520 C 0.4548 1.00003 0.76751 0.0
C1521 C 0.42106 0.94992 0.74778 0.0
C1522 C 0.41668 0.91918 0.76187 0.0
C1523 C 0.41586 0.88767 0.74795 0.0
C1524 C 0.42048 0.88748 0.719 0.0
C1525 C 0.42624 0.91854 0.70414 0.0
C1526 C 0.42608 0.95017 0.71887 0.0
H1527 H 0.58137 0.47924 0.73109 0.0
H1528 H 0.65652 0.40079 0.71079 0.0
H1529 H 0.65119 0.37685 0.75848 0.0
H1530 H 0.60609 0.49441 0.80056 0.0
H1531 H 0.56279 0.49899 0.81367 0.0
H1532 H 0.57217 0.50948 0.77801 0.0
H1533 H 0.52511 0.46662 0.76124 0.0
H1534 H 0.51509 0.45653 0.79687 0.0
H1535 H 0.52624 0.42251 0.77301 0.0
H1536 H 0.64103 0.36529 0.81047 0.0
H1537 H 0.61895 0.36005 0.85877 0.0
H1538 H 0.54666 0.44269 0.84291 0.0
C1539 C 0.59625 0.45666 0.73661 0.0
C1540 C 0.61926 0.4417 0.71738 0.0
C1541 C 0.63842 0.41227 0.7252 0.0
C1542 C 0.6358 0.39877 0.7523 0.0
C1543 C 0.61338 0.41465 0.77105 0.0
C1544 C 0.59323 0.44237 0.76323 0.0
C1545 C 0.57016 0.45404 0.78679 0.0
C1546 C 0.57831 0.49145 0.79525 0.0
C1547 C 0.53188 0.44965 0.77902 0.0
C1548 C 0.58073 0.42893 0.80931 0.0
C1549 C 0.60616 0.40678 0.80008 0.0
C1550 C 0.62084 0.38226 0.81774 0.0
C1551 C 0.60845 0.37967 0.84518 0.0
C1552 C 0.58124 0.40102 0.85443 0.0
C1553 C 0.56751 0.42607 0.83629 0.0
H1554 H 0.02412 0.63619 0.73746 0.0
H1555 H 0.11554 0.59755 0.6959 0.0
H1556 H 0.13893 0.57889 0.7415 0.0
H1557 H 0.06729 0.67058 0.79632 0.0
H1558 H 0.03328 0.65959 0.8203 0.0
H1559 H 0.02326 0.66786 0.78439 0.0
H1560 H 0.99362 0.60805 0.78058 0.0
H1561 H 1.00351 0.59958 0.81651 0.0
H1562 H 0.01734 0.56987 0.78998 0.0
H1563 H 0.15239 0.56545 0.79253 0.0
H1564 H 0.15577 0.56024 0.84351 0.0
H1565 H 0.05596 0.60964 0.85114 0.0
C1566 C 0.04895 0.6235 0.73773 0.0
C1567 C 0.06789 0.61815 0.71291 0.0
C1568 C 0.10046 0.60181 0.71452 0.0
C1569 C 0.11392 0.59112 0.74035 0.0
C1570 C 0.09457 0.59709 0.7644 0.0
C1571 C 0.0628 0.613 0.76321 0.0
C1572 C 0.04754 0.61776 0.79197 0.0
C1573 C 0.04257 0.65623 0.79863 0.0
C1574 C 0.01349 0.59761 0.79493 0.0
C1575 C 0.07572 0.60214 0.80973 0.0
C1576 C 0.10254 0.59013 0.79348 0.0
C1577 C 0.1315 0.57483 0.80536 0.0
C1578 C 0.13319 0.572 0.83448 0.0
C1579 C 0.10625 0.58463 0.85162 0.0
C1580 C 0.07707 0.59969 0.83882 0.0
H1581 H 0.93152 0.04611 0.8526 0.0
H1582 H 0.91594 0.15685 0.85455 0.0
H1583 H 0.90699 0.1569 0.80383 0.0
H1584 H 0.97746 0.04271 0.78883 0.0
H1585 H 0.95759 1.00323 0.77704 0.0
H1586 H 0.96195 0.01154 0.81371 0.0
H1587 H 0.89608 1.0033 0.8204 0.0
H1588 H 0.89161 0.99441 0.78383 0.0
H1589 H 0.86657 0.02823 0.79961 0.0
H1590 H 0.90305 0.14526 0.75206 0.0
H1591 H 0.89709 0.12181 0.7045 0.0
H1592 H 0.91313 0.01848 0.73654 0.0
C1593 C 0.92579 0.07035 0.84248 0.0
C1594 C 0.92466 0.10154 0.85774 0.0
C1595 C 0.91709 0.13263 0.8435 0.0
C1596 C 0.91208 0.13294 0.81458 0.0
C1597 C 0.91436 0.10191 0.8001 0.0
C1598 C 0.92043 0.0711 0.81364 0.0
C1599 C 0.92114 0.04124 0.79329 0.0
C1600 C 0.95665 0.02365 0.79322 0.0
C1601 C 0.89212 0.01527 0.79966 0.0
C1602 C 0.91463 0.06008 0.76618 0.0
C1603 C 0.91117 0.09511 0.77049 0.0
C1604 C 0.90552 0.11783 0.74848 0.0
C1605 C 0.90244 0.10429 0.72148 0.0
C1606 C 0.90463 0.06829 0.71673 0.0
C1607 C 0.91127 0.04611 0.73945 0.0
loop_
_geom_bond_atom_site_label_1
_geom_bond_atom_site_label_2
_geom_bond_distance
_geom_bond_site_symmetry_2
_ccdc_geom_bond_type
C0 C1 1.351 . S
C0 N3 1.368 . S
C0 H5 0.931 . S
C1 C0 1.351 . S
C1 N2 1.373 . S
C1 H29 0.930 . S
N2 C1 1.373 . S
N2 C4 1.340 . S
N3 C0 1.368 . S
N3 C4 1.321 . S
N3 Co6 2.135 . S
C4 N2 1.340 . S
C4 N3 1.321 . S
C4 H28 0.930 . S
H5 C0 0.931 . S
Co6 N3 2.135 . S
Co6 N9 2.121 1_545 S
Co6 O14 2.055 . S
Co6 O17 2.039 . S
Co6 N20 2.140 . S
C7 O8 1.227 . S
C7 O17 1.265 . S
O8 C7 1.227 . S
N9 Co6 2.121 1_565 S
N9 C11 1.375 . S
N9 C12 1.313 . S
C10 C11 1.338 . S
C10 N13 1.377 . S
C10 H30 0.930 . S
C11 N9 1.375 . S
C11 C10 1.338 . S
C11 H15 0.931 . S
C12 N9 1.313 . S
C12 N13 1.344 . S
C12 H16 0.930 . S
N13 C10 1.377 . S
N13 C12 1.344 . S
O14 Co6 2.055 . S
O14 C18 1.253 . S
H15 C11 0.931 . S
H16 C12 0.930 . S
O17 Co6 2.039 . S
O17 C7 1.265 . S
C18 O14 1.253 . S
C18 O19 1.227 . S
O19 C18 1.227 . S
N20 Co6 2.140 . S
N20 C23 1.346 . S
N20 C24 1.345 1_545 S
C21 C22 1.387 1_565 S
C21 C25 1.391 . S
C22 C21 1.387 1_545 S
C22 C23 1.369 . S
C22 H31 0.929 . S
C23 N20 1.346 . S
C23 C22 1.369 . S
C23 H26 0.928 . S
C24 N20 1.345 1_565 S
C24 C25 1.371 . S
C24 H27 0.931 . S
C25 C21 1.391 . S
C25 C24 1.371 . S
C25 H32 0.930 . S
H26 C23 0.928 . S
H27 C24 0.931 . S
H28 C4 0.930 . S
H29 C1 0.930 . S
H30 C10 0.930 . S
H31 C22 0.929 . S
H32 C25 0.930 . S
C33 C34 1.351 . S
C33 N36 1.368 . S
C33 H38 0.931 . S
C34 C33 1.351 . S
C34 N35 1.373 . S
C34 H62 0.930 . S
N35 C34 1.373 . S
N35 C37 1.340 . S
N36 C33 1.368 . S
N36 C37 1.321 . S
N36 Co39 2.135 . S
C37 N35 1.340 . S
C37 N36 1.321 . S
C37 H61 0.930 . S
H38 C33 0.931 . S
Co39 N36 2.135 . S
Co39 N42 2.121 . S
Co39 O47 2.055 . S
Co39 O50 2.039 . S
Co39 N53 2.140 . S
C40 O41 1.227 . S
C40 O50 1.265 . S
O41 C40 1.227 . S
N42 Co39 2.121 . S
N42 C44 1.375 . S
N42 C45 1.313 . S
C43 C44 1.338 . S
C43 N46 1.377 . S
C43 H63 0.930 . S
C44 N42 1.375 . S
C44 C43 1.338 . S
C44 H48 0.931 . S
C45 N42 1.313 . S
C45 N46 1.344 . S
C45 H49 0.930 . S
N46 C43 1.377 . S
N46 C45 1.344 . S
O47 Co39 2.055 . S
O47 C51 1.253 . S
H48 C44 0.931 . S
H49 C45 0.930 . S
O50 Co39 2.039 . S
O50 C40 1.265 . S
C51 O47 1.253 . S
C51 O52 1.227 . S
O52 C51 1.227 . S
N53 Co39 2.140 . S
N53 C56 1.346 . S
N53 C57 1.345 . S
C54 C55 1.387 . S
C54 C58 1.391 . S
C55 C54 1.387 . S
C55 C56 1.369 . S
C55 H64 0.929 . S
C56 N53 1.346 . S
C56 C55 1.369 . S
C56 H59 0.928 . S
C57 N53 1.345 . S
C57 C58 1.371 . S
C57 H60 0.931 . S
C58 C54 1.391 . S
C58 C57 1.371 . S
C58 H65 0.930 . S
H59 C56 0.928 . S
H60 C57 0.931 . S
H61 C37 0.930 . S
H62 C34 0.930 . S
H63 C43 0.930 . S
H64 C55 0.929 . S
H65 C58 0.930 . S
C66 C67 1.351 . S
C66 N69 1.368 . S
C66 H71 0.931 . S
C67 C66 1.351 . S
C67 N68 1.373 . S
C67 H95 0.930 . S
N68 C67 1.373 . S
N68 C70 1.340 . S
N69 C66 1.368 . S
N69 C70 1.321 . S
N69 Co72 2.135 . S
C70 N68 1.340 . S
C70 N69 1.321 . S
C70 H94 0.930 . S
H71 C66 0.931 . S
Co72 N69 2.135 . S
Co72 N75 2.121 . S
Co72 O80 2.055 . S
Co72 O83 2.039 . S
Co72 N86 2.140 . S
C73 O74 1.227 . S
C73 O83 1.265 . S
O74 C73 1.227 . S
N75 Co72 2.121 . S
N75 C77 1.375 . S
N75 C78 1.313 . S
C76 C77 1.338 . S
C76 N79 1.377 . S
C76 H96 0.930 . S
C77 N75 1.375 . S
C77 C76 1.338 . S
C77 H81 0.931 . S
C78 N75 1.313 . S
C78 N79 1.344 . S
C78 H82 0.930 . S
N79 C76 1.377 . S
N79 C78 1.344 . S
O80 Co72 2.055 . S
O80 C84 1.253 . S
H81 C77 0.931 . S
H82 C78 0.930 . S
O83 Co72 2.039 . S
O83 C73 1.265 . S
C84 O80 1.253 . S
C84 O85 1.227 . S
O85 C84 1.227 . S
N86 Co72 2.140 . S
N86 C89 1.346 . S
N86 C90 1.345 . S
C87 C88 1.387 . S
C87 C91 1.391 . S
C88 C87 1.387 . S
C88 C89 1.369 . S
C88 H97 0.929 . S
C89 N86 1.346 . S
C89 C88 1.369 . S
C89 H92 0.928 . S
C90 N86 1.345 . S
C90 C91 1.371 . S
C90 H93 0.931 . S
C91 C87 1.391 . S
C91 C90 1.371 . S
C91 H98 0.930 . S
H92 C89 0.928 . S
H93 C90 0.931 . S
H94 C70 0.930 . S
H95 C67 0.930 . S
H96 C76 0.930 . S
H97 C88 0.929 . S
H98 C91 0.930 . S
C99 C100 1.351 . S
C99 N102 1.368 . S
C99 H104 0.931 . S
C100 C99 1.351 . S
C100 N101 1.373 . S
C100 H128 0.930 . S
N101 C100 1.373 . S
N101 C103 1.340 . S
N102 C99 1.368 . S
N102 C103 1.321 . S
N102 Co105 2.135 . S
C103 N101 1.340 . S
C103 N102 1.321 . S
C103 H127 0.930 . S
H104 C99 0.931 . S
Co105 N102 2.135 . S
Co105 N108 2.121 1_455 S
Co105 O113 2.055 . S
Co105 O116 2.039 . S
Co105 N119 2.140 . S
C106 O107 1.227 . S
C106 O116 1.265 . S
O107 C106 1.227 . S
N108 Co105 2.121 1_655 S
N108 C110 1.375 . S
N108 C111 1.313 . S
C109 C110 1.338 . S
C109 N112 1.377 . S
C109 H129 0.930 . S
C110 N108 1.375 . S
C110 C109 1.338 . S
C110 H114 0.931 . S
C111 N108 1.313 . S
C111 N112 1.344 . S
C111 H115 0.930 . S
N112 C109 1.377 . S
N112 C111 1.344 . S
O113 Co105 2.055 . S
O113 C117 1.253 . S
H114 C110 0.931 . S
H115 C111 0.930 . S
O116 Co105 2.039 . S
O116 C106 1.265 . S
C117 O113 1.253 . S
C117 O118 1.227 . S
O118 C117 1.227 . S
N119 Co105 2.140 . S
N119 C122 1.346 . S
N119 C123 1.345 1_455 S
C120 C121 1.387 1_655 S
C120 C124 1.391 . S
C121 C120 1.387 1_455 S
C121 C122 1.369 . S
C121 H130 0.929 . S
C122 N119 1.346 . S
C122 C121 1.369 . S
C122 H125 0.928 . S
C123 N119 1.345 1_655 S
C123 C124 1.371 . S
C123 H126 0.931 . S
C124 C120 1.391 . S
C124 C123 1.371 . S
C124 H131 0.930 . S
H125 C122 0.928 . S
H126 C123 0.931 . S
H127 C103 0.930 . S
H128 C100 0.930 . S
H129 C109 0.930 . S
H130 C121 0.929 . S
H131 C124 0.930 . S
C132 C133 1.351 . S
C132 N135 1.368 . S
C132 H137 0.931 . S
C133 C132 1.351 . S
C133 N134 1.373 . S
C133 H161 0.930 . S
N134 C133 1.373 . S
N134 C136 1.340 . S
N135 C132 1.368 . S
N135 C136 1.321 . S
N135 Co138 2.135 . S
C136 N134 1.340 . S
C136 N135 1.321 . S
C136 H160 0.930 . S
H137 C132 0.931 . S
Co138 N135 2.135 . S
Co138 N141 2.121 1_565 S
Co138 O146 2.055 . S
Co138 O149 2.039 . S
Co138 N152 2.140 . S
C139 O140 1.227 . S
C139 O149 1.265 . S
O140 C139 1.227 . S
N141 Co138 2.121 1_545 S
N141 C143 1.375 . S
N141 C144 1.313 . S
C142 C143 1.338 . S
C142 N145 1.377 . S
C142 H162 0.930 . S
C143 N141 1.375 . S
C143 C142 1.338 . S
C143 H147 0.931 . S
C144 N141 1.313 . S
C144 N145 1.344 . S
C144 H148 0.930 . S
N145 C142 1.377 . S
N145 C144 1.344 . S
O146 Co138 2.055 . S
O146 C150 1.253 . S
H147 C143 0.931 . S
H148 C144 0.930 . S
O149 Co138 2.039 . S
O149 C139 1.265 . S
C150 O146 1.253 . S
C150 O151 1.227 . S
O151 C150 1.227 . S
N152 Co138 2.140 . S
N152 C155 1.346 . S
N152 C156 1.345 1_565 S
C153 C154 1.387 1_545 S
C153 C157 1.391 . S
C154 C153 1.387 1_565 S
C154 C155 1.369 . S
C154 H163 0.929 . S
C155 N152 1.346 . S
C155 C154 1.369 . S
C155 H158 0.928 . S
C156 N152 1.345 1_545 S
C156 C157 1.371 . S
C156 H159 0.931 . S
C157 C153 1.391 . S
C157 C156 1.371 . S
C157 H164 0.930 . S
H158 C155 0.928 . S
H159 C156 0.931 . S
H160 C136 0.930 . S
H161 C133 0.930 . S
H162 C142 0.930 . S
H163 C154 0.929 . S
H164 C157 0.930 . S
C165 C166 1.351 . S
C165 N168 1.368 . S
C165 H170 0.931 . S
C166 C165 1.351 . S
C166 N167 1.373 . S
C166 H194 0.930 . S
N167 C166 1.373 . S
N167 C169 1.340 . S
N168 C165 1.368 . S
N168 C169 1.321 . S
N168 Co171 2.135 . S
C169 N167 1.340 . S
C169 N168 1.321 . S
C169 H193 0.930 . S
H170 C165 0.931 . S
Co171 N168 2.135 . S
Co171 N174 2.121 . S
Co171 O179 2.055 . S
Co171 O182 2.039 . S
Co171 N185 2.140 . S
C172 O173 1.227 . S
C172 O182 1.265 . S
O173 C172 1.227 . S
N174 Co171 2.121 . S
N174 C176 1.375 . S
N174 C177 1.313 . S
C175 C176 1.338 . S
C175 N178 1.377 . S
C175 H195 0.930 . S
C176 N174 1.375 . S
C176 C175 1.338 . S
C176 H180 0.931 . S
C177 N174 1.313 . S
C177 N178 1.344 . S
C177 H181 0.930 . S
N178 C175 1.377 . S
N178 C177 1.344 . S
O179 Co171 2.055 . S
O179 C183 1.253 . S
H180 C176 0.931 . S
H181 C177 0.930 . S
O182 Co171 2.039 . S
O182 C172 1.265 . S
C183 O179 1.253 . S
C183 O184 1.227 . S
O184 C183 1.227 . S
N185 Co171 2.140 . S
N185 C188 1.346 . S
N185 C189 1.345 . S
C186 C187 1.387 . S
C186 C190 1.391 . S
C187 C186 1.387 . S
C187 C188 1.369 . S
C187 H196 0.929 . S
C188 N185 1.346 . S
C188 C187 1.369 . S
C188 H191 0.928 . S
C189 N185 1.345 . S
C189 C190 1.371 . S
C189 H192 0.931 . S
C190 C186 1.391 . S
C190 C189 1.371 . S
C190 H197 0.930 . S
H191 C188 0.928 . S
H192 C189 0.931 . S
H193 C169 0.930 . S
H194 C166 0.930 . S
H195 C175 0.930 . S
H196 C187 0.929 . S
H197 C190 0.930 . S
C198 C199 1.351 . S
C198 N201 1.368 . S
C198 H203 0.931 . S
C199 C198 1.351 . S
C199 N200 1.373 . S
C199 H227 0.930 . S
N200 C199 1.373 . S
N200 C202 1.340 . S
N201 C198 1.368 . S
N201 C202 1.321 . S
N201 Co204 2.135 . S
C202 N200 1.340 . S
C202 N201 1.321 . S
C202 H226 0.930 . S
H203 C198 0.931 . S
Co204 N201 2.135 . S
Co204 N207 2.121 . S
Co204 O212 2.055 . S
Co204 O215 2.039 . S
Co204 N218 2.140 . S
C205 O206 1.227 . S
C205 O215 1.265 . S
O206 C205 1.227 . S
N207 Co204 2.121 . S
N207 C209 1.375 . S
N207 C210 1.313 . S
C208 C209 1.338 . S
C208 N211 1.377 . S
C208 H228 0.930 . S
C209 N207 1.375 . S
C209 C208 1.338 . S
C209 H213 0.931 . S
C210 N207 1.313 . S
C210 N211 1.344 . S
C210 H214 0.930 . S
N211 C208 1.377 . S
N211 C210 1.344 . S
O212 Co204 2.055 . S
O212 C216 1.253 . S
H213 C209 0.931 . S
H214 C210 0.930 . S
O215 Co204 2.039 . S
O215 C205 1.265 . S
C216 O212 1.253 . S
C216 O217 1.227 . S
O217 C216 1.227 . S
N218 Co204 2.140 . S
N218 C221 1.346 . S
N218 C222 1.345 . S
C219 C220 1.387 . S
C219 C223 1.391 . S
C220 C219 1.387 . S
C220 C221 1.369 . S
C220 H229 0.929 . S
C221 N218 1.346 . S
C221 C220 1.369 . S
C221 H224 0.928 . S
C222 N218 1.345 . S
C222 C223 1.371 . S
C222 H225 0.931 . S
C223 C219 1.391 . S
C223 C222 1.371 . S
C223 H230 0.930 . S
H224 C221 0.928 . S
H225 C222 0.931 . S
H226 C202 0.930 . S
H227 C199 0.930 . S
H228 C208 0.930 . S
H229 C220 0.929 . S
H230 C223 0.930 . S
C231 C232 1.351 . S
C231 N234 1.368 . S
C231 H236 0.931 . S
C232 C231 1.351 . S
C232 N233 1.373 . S
C232 H260 0.930 . S
N233 C232 1.373 . S
N233 C235 1.340 . S
N234 C231 1.368 . S
N234 C235 1.321 . S
N234 Co237 2.135 . S
C235 N233 1.340 . S
C235 N234 1.321 . S
C235 H259 0.930 . S
H236 C231 0.931 . S
Co237 N234 2.135 . S
Co237 N240 2.121 1_655 S
Co237 O245 2.055 . S
Co237 O248 2.039 . S
Co237 N251 2.140 . S
C238 O239 1.227 . S
C238 O248 1.265 . S
O239 C238 1.227 . S
N240 Co237 2.121 1_455 S
N240 C242 1.375 . S
N240 C243 1.313 . S
C241 C242 1.338 . S
C241 N244 1.377 . S
C241 H261 0.930 . S
C242 N240 1.375 . S
C242 C241 1.338 . S
C242 H246 0.931 . S
C243 N240 1.313 . S
C243 N244 1.344 . S
C243 H247 0.930 . S
N244 C241 1.377 . S
N244 C243 1.344 . S
O245 Co237 2.055 . S
O245 C249 1.253 . S
H246 C242 0.931 . S
H247 C243 0.930 . S
O248 Co237 2.039 . S
O248 C238 1.265 . S
C249 O245 1.253 . S
C249 O250 1.227 . S
O250 C249 1.227 . S
N251 Co237 2.140 . S
N251 C254 1.346 . S
N251 C255 1.345 1_655 S
C252 C253 1.387 1_455 S
C252 C256 1.391 . S
C253 C252 1.387 1_655 S
C253 C254 1.369 . S
C253 H262 0.929 . S
C254 N251 1.346 . S
C254 C253 1.369 . S
C254 H257 0.928 . S
C255 N251 1.345 1_455 S
C255 C256 1.371 . S
C255 H258 0.931 . S
C256 C252 1.391 . S
C256 C255 1.371 . S
C256 H263 0.930 . S
H257 C254 0.928 . S
H258 C255 0.931 . S
H259 C235 0.930 . S
H260 C232 0.930 . S
H261 C241 0.930 . S
H262 C253 0.929 . S
H263 C256 0.930 . S
C264 C265 1.351 . S
C264 N267 1.368 . S
C264 H269 0.931 . S
C265 C264 1.351 . S
C265 N266 1.373 . S
C265 H293 0.930 . S
N266 C265 1.373 . S
N266 C268 1.340 . S
N267 C264 1.368 . S
N267 C268 1.321 . S
N267 Co270 2.135 . S
C268 N266 1.340 . S
C268 N267 1.321 . S
C268 H292 0.930 . S
H269 C264 0.931 . S
Co270 N267 2.135 . S
Co270 N273 2.121 1_565 S
Co270 O278 2.055 . S
Co270 O281 2.039 . S
Co270 N284 2.140 . S
C271 O272 1.227 . S
C271 O281 1.265 . S
O272 C271 1.227 . S
N273 Co270 2.121 1_545 S
N273 C275 1.375 . S
N273 C276 1.313 . S
C274 C275 1.338 . S
C274 N277 1.377 . S
C274 H294 0.930 . S
C275 N273 1.375 . S
C275 C274 1.338 . S
C275 H279 0.931 . S
C276 N273 1.313 . S
C276 N277 1.344 . S
C276 H280 0.930 . S
N277 C274 1.377 . S
N277 C276 1.344 . S
O278 Co270 2.055 . S
O278 C282 1.253 . S
H279 C275 0.931 . S
H280 C276 0.930 . S
O281 Co270 2.039 . S
O281 C271 1.265 . S
C282 O278 1.253 . S
C282 O283 1.227 . S
O283 C282 1.227 . S
N284 Co270 2.140 . S
N284 C287 1.346 . S
N284 C288 1.345 1_565 S
C285 C286 1.387 1_545 S
C285 C289 1.391 . S
C286 C285 1.387 1_565 S
C286 C287 1.369 . S
C286 H295 0.929 . S
C287 N284 1.346 . S
C287 C286 1.369 . S
C287 H290 0.928 . S
C288 N284 1.345 1_545 S
C288 C289 1.371 . S
C288 H291 0.931 . S
C289 C285 1.391 . S
C289 C288 1.371 . S
C289 H296 0.930 . S
H290 C287 0.928 . S
H291 C288 0.931 . S
H292 C268 0.930 . S
H293 C265 0.930 . S
H294 C274 0.930 . S
H295 C286 0.929 . S
H296 C289 0.930 . S
C297 C298 1.351 . S
C297 N300 1.368 . S
C297 H302 0.931 . S
C298 C297 1.351 . S
C298 N299 1.373 . S
C298 H326 0.930 . S
N299 C298 1.373 . S
N299 C301 1.340 . S
N300 C297 1.368 . S
N300 C301 1.321 . S
N300 Co303 2.135 . S
C301 N299 1.340 . S
C301 N300 1.321 . S
C301 H325 0.930 . S
H302 C297 0.931 . S
Co303 N300 2.135 . S
Co303 N306 2.121 . S
Co303 O311 2.055 . S
Co303 O314 2.039 . S
Co303 N317 2.140 . S
C304 O305 1.227 . S
C304 O314 1.265 . S
O305 C304 1.227 . S
N306 Co303 2.121 . S
N306 C308 1.375 . S
N306 C309 1.313 . S
C307 C308 1.338 . S
C307 N310 1.377 . S
C307 H327 0.930 . S
C308 N306 1.375 . S
C308 C307 1.338 . S
C308 H312 0.931 . S
C309 N306 1.313 . S
C309 N310 1.344 . S
C309 H313 0.930 . S
N310 C307 1.377 . S
N310 C309 1.344 . S
O311 Co303 2.055 . S
O311 C315 1.253 . S
H312 C308 0.931 . S
H313 C309 0.930 . S
O314 Co303 2.039 . S
O314 C304 1.265 . S
C315 O311 1.253 . S
C315 O316 1.227 . S
O316 C315 1.227 . S
N317 Co303 2.140 . S
N317 C320 1.346 . S
N317 C321 1.345 . S
C318 C319 1.387 . S
C318 C322 1.391 . S
C319 C318 1.387 . S
C319 C320 1.369 . S
C319 H328 0.929 . S
C320 N317 1.346 . S
C320 C319 1.369 . S
C320 H323 0.928 . S
C321 N317 1.345 . S
C321 C322 1.371 . S
C321 H324 0.931 . S
C322 C318 1.391 . S
C322 C321 1.371 . S
C322 H329 0.930 . S
H323 C320 0.928 . S
H324 C321 0.931 . S
H325 C301 0.930 . S
H326 C298 0.930 . S
H327 C307 0.930 . S
H328 C319 0.929 . S
H329 C322 0.930 . S
C330 C331 1.351 . S
C330 N333 1.368 . S
C330 H335 0.931 . S
C331 C330 1.351 . S
C331 N332 1.373 . S
C331 H359 0.930 . S
N332 C331 1.373 . S
N332 C334 1.340 . S
N333 C330 1.368 . S
N333 C334 1.321 . S
N333 Co336 2.135 . S
C334 N332 1.340 . S
C334 N333 1.321 . S
C334 H358 0.930 . S
H335 C330 0.931 . S
Co336 N333 2.135 . S
Co336 N339 2.121 . S
Co336 O344 2.055 . S
Co336 O347 2.039 . S
Co336 N350 2.140 . S
C337 O338 1.227 . S
C337 O347 1.265 . S
O338 C337 1.227 . S
N339 Co336 2.121 . S
N339 C341 1.375 . S
N339 C342 1.313 . S
C340 C341 1.338 . S
C340 N343 1.377 . S
C340 H360 0.930 . S
C341 N339 1.375 . S
C341 C340 1.338 . S
C341 H345 0.931 . S
C342 N339 1.313 . S
C342 N343 1.344 . S
C342 H346 0.930 . S
N343 C340 1.377 . S
N343 C342 1.344 . S
O344 Co336 2.055 . S
O344 C348 1.253 . S
H345 C341 0.931 . S
H346 C342 0.930 . S
O347 Co336 2.039 . S
O347 C337 1.265 . S
C348 O344 1.253 . S
C348 O349 1.227 . S
O349 C348 1.227 . S
N350 Co336 2.140 . S
N350 C353 1.346 . S
N350 C354 1.345 . S
C351 C352 1.387 . S
C351 C355 1.391 . S
C352 C351 1.387 . S
C352 C353 1.369 . S
C352 H361 0.929 . S
C353 N350 1.346 . S
C353 C352 1.369 . S
C353 H356 0.928 . S
C354 N350 1.345 . S
C354 C355 1.371 . S
C354 H357 0.931 . S
C355 C351 1.391 . S
C355 C354 1.371 . S
C355 H362 0.930 . S
H356 C353 0.928 . S
H357 C354 0.931 . S
H358 C334 0.930 . S
H359 C331 0.930 . S
H360 C340 0.930 . S
H361 C352 0.929 . S
H362 C355 0.930 . S
C363 C364 1.351 . S
C363 N366 1.368 . S
C363 H368 0.931 . S
C364 C363 1.351 . S
C364 N365 1.373 . S
C364 H392 0.930 . S
N365 C364 1.373 . S
N365 C367 1.340 . S
N366 C363 1.368 . S
N366 C367 1.321 . S
N366 Co369 2.135 . S
C367 N365 1.340 . S
C367 N366 1.321 . S
C367 H391 0.930 . S
H368 C363 0.931 . S
Co369 N366 2.135 . S
Co369 N372 2.121 1_655 S
Co369 O377 2.055 . S
Co369 O380 2.039 . S
Co369 N383 2.140 . S
C370 O371 1.227 . S
C370 O380 1.265 . S
O371 C370 1.227 . S
N372 Co369 2.121 1_455 S
N372 C374 1.375 . S
N372 C375 1.313 . S
C373 C374 1.338 . S
C373 N376 1.377 . S
C373 H393 0.930 . S
C374 N372 1.375 . S
C374 C373 1.338 . S
C374 H378 0.931 . S
C375 N372 1.313 . S
C375 N376 1.344 . S
C375 H379 0.930 . S
N376 C373 1.377 . S
N376 C375 1.344 . S
O377 Co369 2.055 . S
O377 C381 1.253 . S
H378 C374 0.931 . S
H379 C375 0.930 . S
O380 Co369 2.039 . S
O380 C370 1.265 . S
C381 O377 1.253 . S
C381 O382 1.227 . S
O382 C381 1.227 . S
N383 Co369 2.140 . S
N383 C386 1.346 . S
N383 C387 1.345 1_655 S
C384 C385 1.387 1_455 S
C384 C388 1.391 . S
C385 C384 1.387 1_655 S
C385 C386 1.369 . S
C385 H394 0.929 . S
C386 N383 1.346 . S
C386 C385 1.369 . S
C386 H389 0.928 . S
C387 N383 1.345 1_455 S
C387 C388 1.371 . S
C387 H390 0.931 . S
C388 C384 1.391 . S
C388 C387 1.371 . S
C388 H395 0.930 . S
H389 C386 0.928 . S
H390 C387 0.931 . S
H391 C367 0.930 . S
H392 C364 0.930 . S
H393 C373 0.930 . S
H394 C385 0.929 . S
H395 C388 0.930 . S
C396 C397 1.351 . S
C396 N399 1.368 . S
C396 H401 0.931 . S
C397 C396 1.351 . S
C397 N398 1.373 . S
C397 H425 0.930 . S
N398 C397 1.373 . S
N398 C400 1.340 . S
N399 C396 1.368 . S
N399 C400 1.321 . S
N399 Co402 2.135 . S
C400 N398 1.340 . S
C400 N399 1.321 . S
C400 H424 0.930 . S
H401 C396 0.931 . S
Co402 N399 2.135 . S
Co402 N405 2.121 1_545 S
Co402 O410 2.055 . S
Co402 O413 2.039 . S
Co402 N416 2.140 . S
C403 O404 1.227 . S
C403 O413 1.265 . S
O404 C403 1.227 . S
N405 Co402 2.121 1_565 S
N405 C407 1.375 . S
N405 C408 1.313 . S
C406 C407 1.338 . S
C406 N409 1.377 . S
C406 H426 0.930 . S
C407 N405 1.375 . S
C407 C406 1.338 . S
C407 H411 0.931 . S
C408 N405 1.313 . S
C408 N409 1.344 . S
C408 H412 0.930 . S
N409 C406 1.377 . S
N409 C408 1.344 . S
O410 Co402 2.055 . S
O410 C414 1.253 . S
H411 C407 0.931 . S
H412 C408 0.930 . S
O413 Co402 2.039 . S
O413 C403 1.265 . S
C414 O410 1.253 . S
C414 O415 1.227 . S
O415 C414 1.227 . S
N416 Co402 2.140 . S
N416 C419 1.346 . S
N416 C420 1.345 1_545 S
C417 C418 1.387 1_565 S
C417 C421 1.391 . S
C418 C417 1.387 1_545 S
C418 C419 1.369 . S
C418 H427 0.929 . S
C419 N416 1.346 . S
C419 C418 1.369 . S
C419 H422 0.928 . S
C420 N416 1.345 1_565 S
C420 C421 1.371 . S
C420 H423 0.931 . S
C421 C417 1.391 . S
C421 C420 1.371 . S
C421 H428 0.930 . S
H422 C419 0.928 . S
H423 C420 0.931 . S
H424 C400 0.930 . S
H425 C397 0.930 . S
H426 C406 0.930 . S
H427 C418 0.929 . S
H428 C421 0.930 . S
C429 C430 1.351 . S
C429 N432 1.368 . S
C429 H434 0.931 . S
C430 C429 1.351 . S
C430 N431 1.373 . S
C430 H458 0.930 . S
N431 C430 1.373 . S
N431 C433 1.340 . S
N432 C429 1.368 . S
N432 C433 1.321 . S
N432 Co435 2.135 . S
C433 N431 1.340 . S
C433 N432 1.321 . S
C433 H457 0.930 . S
H434 C429 0.931 . S
Co435 N432 2.135 . S
Co435 N438 2.121 . S
Co435 O443 2.055 . S
Co435 O446 2.039 . S
Co435 N449 2.140 . S
C436 O437 1.227 . S
C436 O446 1.265 . S
O437 C436 1.227 . S
N438 Co435 2.121 . S
N438 C440 1.375 . S
N438 C441 1.313 . S
C439 C440 1.338 . S
C439 N442 1.377 . S
C439 H459 0.930 . S
C440 N438 1.375 . S
C440 C439 1.338 . S
C440 H444 0.931 . S
C441 N438 1.313 . S
C441 N442 1.344 . S
C441 H445 0.930 . S
N442 C439 1.377 . S
N442 C441 1.344 . S
O443 Co435 2.055 . S
O443 C447 1.253 . S
H444 C440 0.931 . S
H445 C441 0.930 . S
O446 Co435 2.039 . S
O446 C436 1.265 . S
C447 O443 1.253 . S
C447 O448 1.227 . S
O448 C447 1.227 . S
N449 Co435 2.140 . S
N449 C452 1.346 . S
N449 C453 1.345 . S
C450 C451 1.387 . S
C450 C454 1.391 . S
C451 C450 1.387 . S
C451 C452 1.369 . S
C451 H460 0.929 . S
C452 N449 1.346 . S
C452 C451 1.369 . S
C452 H455 0.928 . S
C453 N449 1.345 . S
C453 C454 1.371 . S
C453 H456 0.931 . S
C454 C450 1.391 . S
C454 C453 1.371 . S
C454 H461 0.930 . S
H455 C452 0.928 . S
H456 C453 0.931 . S
H457 C433 0.930 . S
H458 C430 0.930 . S
H459 C439 0.930 . S
H460 C451 0.929 . S
H461 C454 0.930 . S
C462 C463 1.351 . S
C462 N465 1.368 . S
C462 H467 0.931 . S
C463 C462 1.351 . S
C463 N464 1.373 . S
C463 H491 0.930 . S
N464 C463 1.373 . S
N464 C466 1.340 . S
N465 C462 1.368 . S
N465 C466 1.321 . S
N465 Co468 2.135 . S
C466 N464 1.340 . S
C466 N465 1.321 . S
C466 H490 0.930 . S
H467 C462 0.931 . S
Co468 N465 2.135 . S
Co468 N471 2.121 . S
Co468 O476 2.055 . S
Co468 O479 2.039 . S
Co468 N482 2.140 . S
C469 O470 1.227 . S
C469 O479 1.265 . S
O470 C469 1.227 . S
N471 Co468 2.121 . S
N471 C473 1.375 . S
N471 C474 1.313 . S
C472 C473 1.338 . S
C472 N475 1.377 . S
C472 H492 0.930 . S
C473 N471 1.375 . S
C473 C472 1.338 . S
C473 H477 0.931 . S
C474 N471 1.313 . S
C474 N475 1.344 . S
C474 H478 0.930 . S
N475 C472 1.377 . S
N475 C474 1.344 . S
O476 Co468 2.055 . S
O476 C480 1.253 . S
H477 C473 0.931 . S
H478 C474 0.930 . S
O479 Co468 2.039 . S
O479 C469 1.265 . S
C480 O476 1.253 . S
C480 O481 1.227 . S
O481 C480 1.227 . S
N482 Co468 2.140 . S
N482 C485 1.346 . S
N482 C486 1.345 . S
C483 C484 1.387 . S
C483 C487 1.391 . S
C484 C483 1.387 . S
C484 C485 1.369 . S
C484 H493 0.929 . S
C485 N482 1.346 . S
C485 C484 1.369 . S
C485 H488 0.928 . S
C486 N482 1.345 . S
C486 C487 1.371 . S
C486 H489 0.931 . S
C487 C483 1.391 . S
C487 C486 1.371 . S
C487 H494 0.930 . S
H488 C485 0.928 . S
H489 C486 0.931 . S
H490 C466 0.930 . S
H491 C463 0.930 . S
H492 C472 0.930 . S
H493 C484 0.929 . S
H494 C487 0.930 . S
C495 C496 1.351 . S
C495 N498 1.368 . S
C495 H500 0.931 . S
C496 C495 1.351 . S
C496 N497 1.373 . S
C496 H524 0.930 . S
N497 C496 1.373 . S
N497 C499 1.340 . S
N498 C495 1.368 . S
N498 C499 1.321 . S
N498 Co501 2.135 . S
C499 N497 1.340 . S
C499 N498 1.321 . S
C499 H523 0.930 . S
H500 C495 0.931 . S
Co501 N498 2.135 . S
Co501 N504 2.121 1_455 S
Co501 O509 2.055 . S
Co501 O512 2.039 . S
Co501 N515 2.140 . S
C502 O503 1.227 . S
C502 O512 1.265 . S
O503 C502 1.227 . S
N504 Co501 2.121 1_655 S
N504 C506 1.375 . S
N504 C507 1.313 . S
C505 C506 1.338 . S
C505 N508 1.377 . S
C505 H525 0.930 . S
C506 N504 1.375 . S
C506 C505 1.338 . S
C506 H510 0.931 . S
C507 N504 1.313 . S
C507 N508 1.344 . S
C507 H511 0.930 . S
N508 C505 1.377 . S
N508 C507 1.344 . S
O509 Co501 2.055 . S
O509 C513 1.253 . S
H510 C506 0.931 . S
H511 C507 0.930 . S
O512 Co501 2.039 . S
O512 C502 1.265 . S
C513 O509 1.253 . S
C513 O514 1.227 . S
O514 C513 1.227 . S
N515 Co501 2.140 . S
N515 C518 1.346 . S
N515 C519 1.345 1_455 S
C516 C517 1.387 1_655 S
C516 C520 1.391 . S
C517 C516 1.387 1_455 S
C517 C518 1.369 . S
C517 H526 0.929 . S
C518 N515 1.346 . S
C518 C517 1.369 . S
C518 H521 0.928 . S
C519 N515 1.345 1_655 S
C519 C520 1.371 . S
C519 H522 0.931 . S
C520 C516 1.391 . S
C520 C519 1.371 . S
C520 H527 0.930 . S
H521 C518 0.928 . S
H522 C519 0.931 . S
H523 C499 0.930 . S
H524 C496 0.930 . S
H525 C505 0.930 . S
H526 C517 0.929 . S
H527 C520 0.930 . S
H528 C540 0.930 . S
H529 C542 0.930 . S
H530 C543 0.930 . S
H531 C547 0.959 . S
H532 C547 0.959 . S
H533 C547 0.961 . S
H534 C548 0.960 . S
H535 C548 0.961 . S
H536 C548 0.959 . S
H537 C551 0.929 . S
H538 C552 0.931 . S
H539 C554 0.930 . S
C540 H528 0.930 . S
C540 C541 1.399 . S
C540 C545 1.399 . S
C541 C540 1.399 . S
C541 C542 1.376 . S
C542 H529 0.930 . S
C542 C541 1.376 . S
C542 C543 1.388 . S
C543 H530 0.930 . S
C543 C542 1.388 . S
C543 C544 1.390 . S
C544 C543 1.390 . S
C544 C545 1.394 . S
C544 C550 1.465 . S
C545 C540 1.399 . S
C545 C544 1.394 . S
C545 C546 1.516 . S
C546 C545 1.516 . S
C546 C547 1.502 . S
C546 C548 1.561 . S
C546 C549 1.526 . S
C547 H531 0.959 . S
C547 H532 0.959 . S
C547 H533 0.961 . S
C547 C546 1.502 . S
C548 H534 0.960 . S
C548 H535 0.961 . S
C548 H536 0.959 . S
C548 C546 1.561 . S
C549 C546 1.526 . S
C549 C550 1.396 . S
C549 C554 1.390 . S
C550 C544 1.465 . S
C550 C549 1.396 . S
C550 C551 1.399 . S
C551 H537 0.929 . S
C551 C550 1.399 . S
C551 C552 1.385 . S
C552 H538 0.931 . S
C552 C551 1.385 . S
C552 C553 1.389 . S
C553 C552 1.389 . S
C553 C554 1.387 . S
C554 H539 0.930 . S
C554 C549 1.390 . S
C554 C553 1.387 . S
H555 C567 0.930 . S
H556 C569 0.930 . S
H557 C570 0.930 . S
H558 C574 0.959 . S
H559 C574 0.959 . S
H560 C574 0.961 . S
H561 C575 0.960 . S
H562 C575 0.961 . S
H563 C575 0.959 . S
H564 C578 0.929 . S
H565 C579 0.931 . S
H566 C581 0.930 . S
C567 H555 0.930 . S
C567 C568 1.399 . S
C567 C572 1.399 . S
C568 C567 1.399 . S
C568 C569 1.376 . S
C569 H556 0.930 . S
C569 C568 1.376 . S
C569 C570 1.388 . S
C570 H557 0.930 . S
C570 C569 1.388 . S
C570 C571 1.390 . S
C571 C570 1.390 . S
C571 C572 1.394 . S
C571 C577 1.465 . S
C572 C567 1.399 . S
C572 C571 1.394 . S
C572 C573 1.516 . S
C573 C572 1.516 . S
C573 C574 1.502 . S
C573 C575 1.561 . S
C573 C576 1.526 . S
C574 H558 0.959 . S
C574 H559 0.959 . S
C574 H560 0.961 . S
C574 C573 1.502 . S
C575 H561 0.960 . S
C575 H562 0.961 . S
C575 H563 0.959 . S
C575 C573 1.561 . S
C576 C573 1.526 . S
C576 C577 1.396 . S
C576 C581 1.390 . S
C577 C571 1.465 . S
C577 C576 1.396 . S
C577 C578 1.399 . S
C578 H564 0.929 . S
C578 C577 1.399 . S
C578 C579 1.385 . S
C579 H565 0.931 . S
C579 C578 1.385 . S
C579 C580 1.389 . S
C580 C579 1.389 . S
C580 C581 1.387 . S
C581 H566 0.930 . S
C581 C576 1.390 . S
C581 C580 1.387 . S
H582 C594 0.930 . S
H583 C596 0.930 . S
H584 C597 0.922 1_455 S
H585 C601 0.959 . S
H586 C601 0.959 . S
H587 C601 0.961 . S
H588 C602 0.960 . S
H589 C602 0.961 . S
H590 C602 0.959 . S
H591 C605 0.929 . S
H592 C606 0.931 . S
H593 C608 0.930 . S
C594 H582 0.930 . S
C594 C595 1.399 . S
C594 C599 1.399 . S
C595 C594 1.399 . S
C595 C596 1.376 1_655 S
C596 H583 0.930 . S
C596 C595 1.376 1_455 S
C596 C597 1.384 1_455 S
C597 H584 0.922 1_655 S
C597 C596 1.384 1_655 S
C597 C598 1.403 . S
C598 C597 1.403 . S
C598 C599 1.394 . S
C598 C604 1.465 . S
C599 C594 1.399 . S
C599 C598 1.394 . S
C599 C600 1.516 . S
C600 C599 1.516 . S
C600 C601 1.502 . S
C600 C602 1.561 . S
C600 C603 1.526 . S
C601 H585 0.959 . S
C601 H586 0.959 . S
C601 H587 0.961 . S
C601 C600 1.502 . S
C602 H588 0.960 . S
C602 H589 0.961 . S
C602 H590 0.959 . S
C602 C600 1.561 . S
C603 C600 1.526 . S
C603 C604 1.396 . S
C603 C608 1.390 . S
C604 C598 1.465 . S
C604 C603 1.396 . S
C604 C605 1.399 . S
C605 H591 0.929 . S
C605 C604 1.399 . S
C605 C606 1.385 . S
C606 H592 0.931 . S
C606 C605 1.385 . S
C606 C607 1.389 . S
C607 C606 1.389 . S
C607 C608 1.387 . S
C608 H593 0.930 . S
C608 C603 1.390 . S
C608 C607 1.387 . S
H609 C621 0.930 . S
H610 C623 0.930 . S
H611 C624 0.930 . S
H612 C628 0.959 . S
H613 C628 0.959 1_545 S
H614 C628 0.961 . S
H615 C629 0.960 . S
H616 C629 0.961 . S
H617 C629 0.959 . S
H618 C632 0.929 . S
H619 C633 0.931 . S
H620 C635 0.930 1_545 S
C621 H609 0.930 . S
C621 C622 1.399 . S
C621 C626 1.399 . S
C622 C621 1.399 . S
C622 C623 1.376 . S
C623 H610 0.930 . S
C623 C622 1.376 . S
C623 C624 1.388 . S
C624 H611 0.930 . S
C624 C623 1.388 . S
C624 C625 1.390 . S
C625 C624 1.390 . S
C625 C626 1.394 . S
C625 C631 1.465 . S
C626 C621 1.399 . S
C626 C625 1.394 . S
C626 C627 1.516 . S
C627 C626 1.516 . S
C627 C628 1.502 . S
C627 C629 1.561 1_565 S
C627 C630 1.526 . S
C628 H612 0.959 . S
C628 H613 0.959 1_565 S
C628 H614 0.961 . S
C628 C627 1.502 . S
C629 H615 0.960 . S
C629 H616 0.961 . S
C629 H617 0.959 . S
C629 C627 1.561 1_545 S
C630 C627 1.526 . S
C630 C631 1.396 . S
C630 C635 1.390 . S
C631 C625 1.465 . S
C631 C630 1.396 . S
C631 C632 1.399 . S
C632 H618 0.929 . S
C632 C631 1.399 . S
C632 C633 1.385 . S
C633 H619 0.931 . S
C633 C632 1.385 . S
C633 C634 1.389 . S
C634 C633 1.389 . S
C634 C635 1.387 . S
C635 H620 0.930 1_565 S
C635 C630 1.390 . S
C635 C634 1.387 . S
H636 C648 0.930 . S
H637 C650 0.930 . S
H638 C651 0.930 . S
H639 C655 0.959 . S
H640 C655 0.959 . S
H641 C655 0.961 . S
H642 C656 0.960 . S
H643 C656 0.961 . S
H644 C656 0.959 . S
H645 C659 0.929 . S
H646 C660 0.931 . S
H647 C662 0.930 . S
C648 H636 0.930 . S
C648 C649 1.399 . S
C648 C653 1.399 . S
C649 C648 1.399 . S
C649 C650 1.376 . S
C650 H637 0.930 . S
C650 C649 1.376 . S
C650 C651 1.388 . S
C651 H638 0.930 . S
C651 C650 1.388 . S
C651 C652 1.390 . S
C652 C651 1.390 . S
C652 C653 1.394 . S
C652 C658 1.465 . S
C653 C648 1.399 . S
C653 C652 1.394 . S
C653 C654 1.516 . S
C654 C653 1.516 . S
C654 C655 1.502 . S
C654 C656 1.561 . S
C654 C657 1.526 . S
C655 H639 0.959 . S
C655 H640 0.959 . S
C655 H641 0.961 . S
C655 C654 1.502 . S
C656 H642 0.960 . S
C656 H643 0.961 . S
C656 H644 0.959 . S
C656 C654 1.561 . S
C657 C654 1.526 . S
C657 C658 1.396 . S
C657 C662 1.390 . S
C658 C652 1.465 . S
C658 C657 1.396 . S
C658 C659 1.399 . S
C659 H645 0.929 . S
C659 C658 1.399 . S
C659 C660 1.385 . S
C660 H646 0.931 . S
C660 C659 1.385 . S
C660 C661 1.389 . S
C661 C660 1.389 . S
C661 C662 1.387 . S
C662 H647 0.930 . S
C662 C657 1.390 . S
C662 C661 1.387 . S
H663 C675 0.930 . S
H664 C677 0.930 1_565 S
H665 C678 0.930 . S
H666 C682 0.959 . S
H667 C682 0.959 . S
H668 C682 0.961 . S
H669 C683 0.960 . S
H670 C683 0.961 . S
H671 C683 0.959 . S
H672 C686 0.929 . S
H673 C687 0.931 . S
H674 C689 0.930 . S
C675 H663 0.930 . S
C675 C676 1.399 . S
C675 C680 1.399 . S
C676 C675 1.399 . S
C676 C677 1.376 . S
C677 H664 0.930 1_545 S
C677 C676 1.376 . S
C677 C678 1.388 . S
C678 H665 0.930 . S
C678 C677 1.388 . S
C678 C679 1.390 . S
C679 C678 1.390 . S
C679 C680 1.394 . S
C679 C685 1.465 . S
C680 C675 1.399 . S
C680 C679 1.394 . S
C680 C681 1.516 . S
C681 C680 1.516 . S
C681 C682 1.502 . S
C681 C683 1.561 . S
C681 C684 1.526 . S
C682 H666 0.959 . S
C682 H667 0.959 . S
C682 H668 0.961 . S
C682 C681 1.502 . S
C683 H669 0.960 . S
C683 H670 0.961 . S
C683 H671 0.959 . S
C683 C681 1.561 . S
C684 C681 1.526 . S
C684 C685 1.396 . S
C684 C689 1.390 . S
C685 C679 1.465 . S
C685 C684 1.396 . S
C685 C686 1.399 . S
C686 H672 0.929 . S
C686 C685 1.399 . S
C686 C687 1.385 . S
C687 H673 0.931 . S
C687 C686 1.385 . S
C687 C688 1.389 . S
C688 C687 1.389 . S
C688 C689 1.387 . S
C689 H674 0.930 . S
C689 C684 1.390 . S
C689 C688 1.387 . S
H690 C702 0.930 . S
H691 C704 0.930 . S
H692 C705 0.930 . S
H693 C709 0.959 . S
H694 C709 0.959 . S
H695 C709 0.961 . S
H696 C710 0.960 . S
H697 C710 0.961 . S
H698 C710 0.959 . S
H699 C713 0.929 . S
H700 C714 0.931 . S
H701 C716 0.930 . S
C702 H690 0.930 . S
C702 C703 1.399 . S
C702 C707 1.399 . S
C703 C702 1.399 . S
C703 C704 1.376 . S
C704 H691 0.930 . S
C704 C703 1.376 . S
C704 C705 1.388 . S
C705 H692 0.930 . S
C705 C704 1.388 . S
C705 C706 1.390 . S
C706 C705 1.390 . S
C706 C707 1.394 . S
C706 C712 1.465 . S
C707 C702 1.399 . S
C707 C706 1.394 . S
C707 C708 1.516 . S
C708 C707 1.516 . S
C708 C709 1.502 . S
C708 C710 1.561 . S
C708 C711 1.526 . S
C709 H693 0.959 . S
C709 H694 0.959 . S
C709 H695 0.961 . S
C709 C708 1.502 . S
C710 H696 0.960 . S
C710 H697 0.961 . S
C710 H698 0.959 . S
C710 C708 1.561 . S
C711 C708 1.526 . S
C711 C712 1.396 . S
C711 C716 1.390 . S
C712 C706 1.465 . S
C712 C711 1.396 . S
C712 C713 1.399 . S
C713 H699 0.929 . S
C713 C712 1.399 . S
C713 C714 1.385 . S
C714 H700 0.931 . S
C714 C713 1.385 . S
C714 C715 1.389 . S
C715 C714 1.389 . S
C715 C716 1.387 . S
C716 H701 0.930 . S
C716 C711 1.390 . S
C716 C715 1.387 . S
H717 C729 0.930 . S
H718 C731 0.930 . S
H719 C732 0.930 . S
H720 C736 0.959 . S
H721 C736 0.959 . S
H722 C736 0.961 . S
H723 C737 0.960 . S
H724 C737 0.961 . S
H725 C737 0.959 . S
H726 C740 0.929 . S
H727 C741 0.931 . S
H728 C743 0.930 . S
C729 H717 0.930 . S
C729 C730 1.399 . S
C729 C734 1.399 . S
C730 C729 1.399 . S
C730 C731 1.376 . S
C731 H718 0.930 . S
C731 C730 1.376 . S
C731 C732 1.388 . S
C732 H719 0.930 . S
C732 C731 1.388 . S
C732 C733 1.390 . S
C733 C732 1.390 . S
C733 C734 1.394 . S
C733 C739 1.465 . S
C734 C729 1.399 . S
C734 C733 1.394 . S
C734 C735 1.516 . S
C735 C734 1.516 . S
C735 C736 1.502 . S
C735 C737 1.561 . S
C735 C738 1.526 . S
C736 H720 0.959 . S
C736 H721 0.959 . S
C736 H722 0.961 . S
C736 C735 1.502 . S
C737 H723 0.960 . S
C737 H724 0.961 . S
C737 H725 0.959 . S
C737 C735 1.561 . S
C738 C735 1.526 . S
C738 C739 1.396 . S
C738 C743 1.390 . S
C739 C733 1.465 . S
C739 C738 1.396 . S
C739 C740 1.399 . S
C740 H726 0.929 . S
C740 C739 1.399 . S
C740 C741 1.385 . S
C741 H727 0.931 . S
C741 C740 1.385 . S
C741 C742 1.389 . S
C742 C741 1.389 . S
C742 C743 1.387 . S
C743 H728 0.930 . S
C743 C738 1.390 . S
C743 C742 1.387 . S
H744 C756 0.930 . S
H745 C758 0.930 . S
H746 C759 0.930 . S
H747 C763 0.959 . S
H748 C763 0.959 . S
H749 C763 0.961 . S
H750 C764 0.960 . S
H751 C764 0.961 . S
H752 C764 0.959 . S
H753 C767 0.929 . S
H754 C768 0.931 . S
H755 C770 0.930 . S
C756 H744 0.930 . S
C756 C757 1.399 . S
C756 C761 1.399 . S
C757 C756 1.399 . S
C757 C758 1.376 . S
C758 H745 0.930 . S
C758 C757 1.376 . S
C758 C759 1.388 . S
C759 H746 0.930 . S
C759 C758 1.388 . S
C759 C760 1.390 . S
C760 C759 1.390 . S
C760 C761 1.394 . S
C760 C766 1.465 . S
C761 C756 1.399 . S
C761 C760 1.394 . S
C761 C762 1.516 . S
C762 C761 1.516 . S
C762 C763 1.502 . S
C762 C764 1.561 . S
C762 C765 1.526 . S
C763 H747 0.959 . S
C763 H748 0.959 . S
C763 H749 0.961 . S
C763 C762 1.502 . S
C764 H750 0.960 . S
C764 H751 0.961 . S
C764 H752 0.959 . S
C764 C762 1.561 . S
C765 C762 1.526 . S
C765 C766 1.396 . S
C765 C770 1.390 . S
C766 C760 1.465 . S
C766 C765 1.396 . S
C766 C767 1.399 . S
C767 H753 0.929 . S
C767 C766 1.399 . S
C767 C768 1.385 . S
C768 H754 0.931 . S
C768 C767 1.385 . S
C768 C769 1.389 . S
C769 C768 1.389 . S
C769 C770 1.387 . S
C770 H755 0.930 . S
C770 C765 1.390 . S
C770 C769 1.387 . S
H771 C783 0.930 . S
H772 C785 0.930 . S
H773 C786 0.930 . S
H774 C790 0.959 . S
H775 C790 0.959 . S
H776 C790 0.961 . S
H777 C791 0.960 . S
H778 C791 0.961 . S
H779 C791 0.959 . S
H780 C794 0.929 . S
H781 C795 0.931 . S
H782 C797 0.930 . S
C783 H771 0.930 . S
C783 C784 1.399 . S
C783 C788 1.399 . S
C784 C783 1.399 . S
C784 C785 1.376 . S
C785 H772 0.930 . S
C785 C784 1.376 . S
C785 C786 1.388 . S
C786 H773 0.930 . S
C786 C785 1.388 . S
C786 C787 1.390 . S
C787 C786 1.390 . S
C787 C788 1.394 . S
C787 C793 1.465 . S
C788 C783 1.399 . S
C788 C787 1.394 . S
C788 C789 1.516 . S
C789 C788 1.516 . S
C789 C790 1.502 . S
C789 C791 1.561 . S
C789 C792 1.526 . S
C790 H774 0.959 . S
C790 H775 0.959 . S
C790 H776 0.961 . S
C790 C789 1.502 . S
C791 H777 0.960 . S
C791 H778 0.961 . S
C791 H779 0.959 . S
C791 C789 1.561 . S
C792 C789 1.526 . S
C792 C793 1.396 . S
C792 C797 1.390 . S
C793 C787 1.465 . S
C793 C792 1.396 . S
C793 C794 1.399 . S
C794 H780 0.929 . S
C794 C793 1.399 . S
C794 C795 1.385 . S
C795 H781 0.931 . S
C795 C794 1.385 . S
C795 C796 1.389 . S
C796 C795 1.389 . S
C796 C797 1.387 . S
C797 H782 0.930 . S
C797 C792 1.390 . S
C797 C796 1.387 . S
H798 C810 0.930 . S
H799 C812 0.930 . S
H800 C813 0.930 . S
H801 C817 0.959 1_655 S
H802 C817 0.959 . S
H803 C817 0.961 1_655 S
H804 C818 0.960 . S
H805 C818 0.961 . S
H806 C818 0.959 . S
H807 C821 0.929 . S
H808 C822 0.931 . S
H809 C824 0.930 . S
C810 H798 0.930 . S
C810 C811 1.399 . S
C810 C815 1.399 . S
C811 C810 1.399 . S
C811 C812 1.376 . S
C812 H799 0.930 . S
C812 C811 1.376 . S
C812 C813 1.388 . S
C813 H800 0.930 . S
C813 C812 1.388 . S
C813 C814 1.390 . S
C814 C813 1.390 . S
C814 C815 1.394 . S
C814 C820 1.465 . S
C815 C810 1.399 . S
C815 C814 1.394 . S
C815 C816 1.516 . S
C816 C815 1.516 . S
C816 C817 1.502 . S
C816 C818 1.561 . S
C816 C819 1.526 . S
C817 H801 0.959 1_455 S
C817 H802 0.959 . S
C817 H803 0.961 1_455 S
C817 C816 1.502 . S
C818 H804 0.960 . S
C818 H805 0.961 . S
C818 H806 0.959 . S
C818 C816 1.561 . S
C819 C816 1.526 . S
C819 C820 1.396 . S
C819 C824 1.390 . S
C820 C814 1.465 . S
C820 C819 1.396 . S
C820 C821 1.399 . S
C821 H807 0.929 . S
C821 C820 1.399 . S
C821 C822 1.385 . S
C822 H808 0.931 . S
C822 C821 1.385 . S
C822 C823 1.389 . S
C823 C822 1.389 . S
C823 C824 1.387 . S
C824 H809 0.930 . S
C824 C819 1.390 . S
C824 C823 1.387 . S
H825 C837 0.930 . S
H826 C839 0.930 . S
H827 C840 0.930 . S
H828 C844 0.959 . S
H829 C844 0.959 . S
H830 C844 0.961 . S
H831 C845 0.960 . S
H832 C845 0.961 . S
H833 C845 0.979 . S
H834 C848 0.929 . S
H835 C849 0.931 . S
H836 C851 0.930 . S
C837 H825 0.930 . S
C837 C838 1.399 . S
C837 C842 1.399 . S
C838 C837 1.399 . S
C838 C839 1.376 . S
C839 H826 0.930 . S
C839 C838 1.376 . S
C839 C840 1.388 . S
C840 H827 0.930 . S
C840 C839 1.388 . S
C840 C841 1.390 . S
C841 C840 1.390 . S
C841 C842 1.394 . S
C841 C847 1.465 . S
C842 C837 1.399 . S
C842 C841 1.394 . S
C842 C843 1.516 . S
C843 C842 1.516 . S
C843 C844 1.502 . S
C843 C845 1.561 . S
C843 C846 1.526 . S
C844 H828 0.959 . S
C844 H829 0.959 . S
C844 H830 0.961 . S
C844 C843 1.502 . S
C845 H831 0.960 . S
C845 H832 0.961 . S
C845 H833 0.979 . S
C845 C843 1.561 . S
C846 C843 1.526 . S
C846 C847 1.396 . S
C846 C851 1.390 . S
C847 C841 1.465 . S
C847 C846 1.396 . S
C847 C848 1.399 . S
C848 H834 0.929 . S
C848 C847 1.399 . S
C848 C849 1.385 . S
C849 H835 0.931 . S
C849 C848 1.385 . S
C849 C850 1.389 . S
C850 C849 1.389 . S
C850 C851 1.387 . S
C851 H836 0.930 . S
C851 C846 1.390 . S
C851 C850 1.387 . S
H852 C864 0.930 . S
H853 C866 0.930 1_455 S
H854 C867 0.930 . S
H855 C871 0.959 . S
H856 C871 0.959 . S
H857 C871 0.961 . S
H858 C872 0.960 . S
H859 C872 0.961 . S
H860 C872 0.959 . S
H861 C875 0.929 . S
H862 C876 0.931 . S
H863 C878 0.930 . S
C864 H852 0.930 . S
C864 C865 1.399 . S
C864 C869 1.399 . S
C865 C864 1.399 . S
C865 C866 1.376 . S
C866 H853 0.930 1_655 S
C866 C865 1.376 . S
C866 C867 1.388 . S
C867 H854 0.930 . S
C867 C866 1.388 . S
C867 C868 1.390 . S
C868 C867 1.390 . S
C868 C869 1.394 . S
C868 C874 1.465 . S
C869 C864 1.399 . S
C869 C868 1.394 . S
C869 C870 1.516 . S
C870 C869 1.516 . S
C870 C871 1.502 . S
C870 C872 1.561 . S
C870 C873 1.526 . S
C871 H855 0.959 . S
C871 H856 0.959 . S
C871 H857 0.961 . S
C871 C870 1.502 . S
C872 H858 0.960 . S
C872 H859 0.961 . S
C872 H860 0.959 . S
C872 C870 1.561 . S
C873 C870 1.526 . S
C873 C874 1.396 . S
C873 C878 1.390 . S
C874 C868 1.465 . S
C874 C873 1.396 . S
C874 C875 1.399 . S
C875 H861 0.929 . S
C875 C874 1.399 . S
C875 C876 1.385 . S
C876 H862 0.931 . S
C876 C875 1.385 . S
C876 C877 1.389 . S
C877 C876 1.389 . S
C877 C878 1.387 . S
C878 H863 0.930 . S
C878 C873 1.390 . S
C878 C877 1.387 . S
H879 C891 0.930 . S
H880 C893 0.930 1_545 S
H881 C894 0.930 . S
H882 C898 0.959 . S
H883 C898 0.959 . S
H884 C898 0.961 . S
H885 C899 0.960 . S
H886 C899 0.961 . S
H887 C899 0.959 . S
H888 C902 0.929 . S
H889 C903 0.931 . S
H890 C905 0.930 . S
C891 H879 0.930 . S
C891 C892 1.399 . S
C891 C896 1.399 . S
C892 C891 1.399 . S
C892 C893 1.376 . S
C893 H880 0.930 1_565 S
C893 C892 1.376 . S
C893 C894 1.388 . S
C894 H881 0.930 . S
C894 C893 1.388 . S
C894 C895 1.390 . S
C895 C894 1.390 . S
C895 C896 1.394 . S
C895 C901 1.465 . S
C896 C891 1.399 . S
C896 C895 1.394 . S
C896 C897 1.516 . S
C897 C896 1.516 . S
C897 C898 1.502 . S
C897 C899 1.561 . S
C897 C900 1.526 . S
C898 H882 0.959 . S
C898 H883 0.959 . S
C898 H884 0.961 . S
C898 C897 1.502 . S
C899 H885 0.960 . S
C899 H886 0.961 . S
C899 H887 0.959 . S
C899 C897 1.561 . S
C900 C897 1.526 . S
C900 C901 1.396 . S
C900 C905 1.390 . S
C901 C895 1.465 . S
C901 C900 1.396 . S
C901 C902 1.399 . S
C902 H888 0.929 . S
C902 C901 1.399 . S
C902 C903 1.385 . S
C903 H889 0.931 . S
C903 C902 1.385 . S
C903 C904 1.389 . S
C904 C903 1.389 . S
C904 C905 1.387 . S
C905 H890 0.930 . S
C905 C900 1.390 . S
C905 C904 1.387 . S
H906 C918 0.930 . S
H907 C920 0.930 . S
H908 C921 0.930 . S
H909 C925 0.959 . S
H910 C925 0.959 . S
H911 C925 0.961 . S
H912 C926 0.960 . S
H913 C926 0.961 . S
H914 C926 0.959 . S
H915 C929 0.929 . S
H916 C930 0.931 . S
H917 C932 0.930 . S
C918 H906 0.930 . S
C918 C919 1.399 . S
C918 C923 1.399 . S
C919 C918 1.399 . S
C919 C920 1.376 . S
C920 H907 0.930 . S
C920 C919 1.376 . S
C920 C921 1.388 . S
C921 H908 0.930 . S
C921 C920 1.388 . S
C921 C922 1.390 . S
C922 C921 1.390 . S
C922 C923 1.394 . S
C922 C928 1.465 . S
C923 C918 1.399 . S
C923 C922 1.394 . S
C923 C924 1.516 . S
C924 C923 1.516 . S
C924 C925 1.502 . S
C924 C926 1.561 . S
C924 C927 1.526 . S
C925 H909 0.959 . S
C925 H910 0.959 . S
C925 H911 0.961 . S
C925 C924 1.502 . S
C926 H912 0.960 . S
C926 H913 0.961 . S
C926 H914 0.959 . S
C926 C924 1.561 . S
C927 C924 1.526 . S
C927 C928 1.396 . S
C927 C932 1.390 . S
C928 C922 1.465 . S
C928 C927 1.396 . S
C928 C929 1.399 . S
C929 H915 0.929 . S
C929 C928 1.399 . S
C929 C930 1.385 . S
C930 H916 0.931 . S
C930 C929 1.385 . S
C930 C931 1.389 . S
C931 C930 1.389 . S
C931 C932 1.387 . S
C932 H917 0.930 . S
C932 C927 1.390 . S
C932 C931 1.387 . S
H933 C945 0.930 . S
H934 C947 0.930 . S
H935 C948 0.930 . S
H936 C952 0.959 . S
H937 C952 0.959 . S
H938 C952 0.961 . S
H939 C953 0.960 . S
H940 C953 0.961 . S
H941 C953 0.959 . S
H942 C956 0.929 . S
H943 C957 0.931 . S
H944 C959 0.930 . S
C945 H933 0.930 . S
C945 C946 1.399 . S
C945 C950 1.399 . S
C946 C945 1.399 . S
C946 C947 1.376 . S
C947 H934 0.930 . S
C947 C946 1.376 . S
C947 C948 1.388 . S
C948 H935 0.930 . S
C948 C947 1.388 . S
C948 C949 1.390 . S
C949 C948 1.390 . S
C949 C950 1.394 . S
C949 C955 1.465 . S
C950 C945 1.399 . S
C950 C949 1.394 . S
C950 C951 1.516 . S
C951 C950 1.516 . S
C951 C952 1.502 . S
C951 C953 1.561 . S
C951 C954 1.526 . S
C952 H936 0.959 . S
C952 H937 0.959 . S
C952 H938 0.961 . S
C952 C951 1.502 . S
C953 H939 0.960 . S
C953 H940 0.961 . S
C953 H941 0.959 . S
C953 C951 1.561 . S
C954 C951 1.526 . S
C954 C955 1.396 . S
C954 C959 1.390 . S
C955 C949 1.465 . S
C955 C954 1.396 . S
C955 C956 1.399 . S
C956 H942 0.929 . S
C956 C955 1.399 . S
C956 C957 1.385 . S
C957 H943 0.931 . S
C957 C956 1.385 . S
C957 C958 1.389 . S
C958 C957 1.389 . S
C958 C959 1.387 . S
C959 H944 0.930 . S
C959 C954 1.390 . S
C959 C958 1.387 . S
H960 C972 0.930 . S
H961 C974 0.930 . S
H962 C975 0.930 . S
H963 C979 0.959 . S
H964 C979 0.959 . S
H965 C979 0.961 . S
H966 C980 0.960 . S
H967 C980 0.961 . S
H968 C980 0.959 . S
H969 C983 0.929 . S
H970 C984 0.931 . S
H971 C986 0.930 . S
C972 H960 0.930 . S
C972 C973 1.399 . S
C972 C977 1.399 . S
C973 C972 1.399 . S
C973 C974 1.376 . S
C974 H961 0.930 . S
C974 C973 1.376 . S
C974 C975 1.388 . S
C975 H962 0.930 . S
C975 C974 1.388 . S
C975 C976 1.390 . S
C976 C975 1.390 . S
C976 C977 1.394 . S
C976 C982 1.465 . S
C977 C972 1.399 . S
C977 C976 1.394 . S
C977 C978 1.516 . S
C978 C977 1.516 . S
C978 C979 1.502 . S
C978 C980 1.561 . S
C978 C981 1.526 . S
C979 H963 0.959 . S
C979 H964 0.959 . S
C979 H965 0.961 . S
C979 C978 1.502 . S
C980 H966 0.960 . S
C980 H967 0.961 . S
C980 H968 0.959 . S
C980 C978 1.561 . S
C981 C978 1.526 . S
C981 C982 1.396 . S
C981 C986 1.390 . S
C982 C976 1.465 . S
C982 C981 1.396 . S
C982 C983 1.399 . S
C983 H969 0.929 . S
C983 C982 1.399 . S
C983 C984 1.385 . S
C984 H970 0.931 . S
C984 C983 1.385 . S
C984 C985 1.389 . S
C985 C984 1.389 . S
C985 C986 1.387 . S
C986 H971 0.930 . S
C986 C981 1.390 . S
C986 C985 1.387 . S
H987 C999 0.930 . S
H988 C1001 0.930 . S
H989 C1002 0.930 . S
H990 C1006 0.959 . S
H991 C1006 0.959 . S
H992 C1006 0.961 . S
H993 C1007 0.960 . S
H994 C1007 0.961 . S
H995 C1007 0.959 . S
H996 C1010 0.929 . S
H997 C1011 0.931 . S
H998 C1013 0.930 . S
C999 H987 0.930 . S
C999 C1000 1.399 . S
C999 C1004 1.399 . S
C1000 C999 1.399 . S
C1000 C1001 1.376 . S
C1001 H988 0.930 . S
C1001 C1000 1.376 . S
C1001 C1002 1.388 . S
C1002 H989 0.930 . S
C1002 C1001 1.388 . S
C1002 C1003 1.390 . S
C1003 C1002 1.390 . S
C1003 C1004 1.394 . S
C1003 C1009 1.465 . S
C1004 C999 1.399 . S
C1004 C1003 1.394 . S
C1004 C1005 1.516 . S
C1005 C1004 1.516 . S
C1005 C1006 1.502 . S
C1005 C1007 1.561 . S
C1005 C1008 1.526 . S
C1006 H990 0.959 . S
C1006 H991 0.959 . S
C1006 H992 0.961 . S
C1006 C1005 1.502 . S
C1007 H993 0.960 . S
C1007 H994 0.961 . S
C1007 H995 0.959 . S
C1007 C1005 1.561 . S
C1008 C1005 1.526 . S
C1008 C1009 1.396 . S
C1008 C1013 1.390 . S
C1009 C1003 1.465 . S
C1009 C1008 1.396 . S
C1009 C1010 1.399 . S
C1010 H996 0.929 . S
C1010 C1009 1.399 . S
C1010 C1011 1.385 . S
C1011 H997 0.931 . S
C1011 C1010 1.385 . S
C1011 C1012 1.389 . S
C1012 C1011 1.389 . S
C1012 C1013 1.387 . S
C1013 H998 0.930 . S
C1013 C1008 1.390 . S
C1013 C1012 1.387 . S
H1014 C1026 0.930 . S
H1015 C1028 0.930 . S
H1016 C1029 0.930 . S
H1017 C1033 0.959 . S
H1018 C1033 0.959 . S
H1019 C1033 0.961 . S
H1020 C1034 0.960 . S
H1021 C1034 0.961 . S
H1022 C1034 0.959 . S
H1023 C1037 0.929 . S
H1024 C1038 0.931 . S
H1025 C1040 0.930 . S
C1026 H1014 0.930 . S
C1026 C1027 1.399 . S
C1026 C1031 1.399 . S
C1027 C1026 1.399 . S
C1027 C1028 1.376 . S
C1028 H1015 0.930 . S
C1028 C1027 1.376 . S
C1028 C1029 1.388 . S
C1029 H1016 0.930 . S
C1029 C1028 1.388 . S
C1029 C1030 1.390 . S
C1030 C1029 1.390 . S
C1030 C1031 1.394 . S
C1030 C1036 1.465 . S
C1031 C1026 1.399 . S
C1031 C1030 1.394 . S
C1031 C1032 1.516 . S
C1032 C1031 1.516 . S
C1032 C1033 1.502 . S
C1032 C1034 1.561 . S
C1032 C1035 1.526 . S
C1033 H1017 0.959 . S
C1033 H1018 0.959 . S
C1033 H1019 0.961 . S
C1033 C1032 1.502 . S
C1034 H1020 0.960 . S
C1034 H1021 0.961 . S
C1034 H1022 0.959 . S
C1034 C1032 1.561 . S
C1035 C1032 1.526 . S
C1035 C1036 1.396 . S
C1035 C1040 1.390 . S
C1036 C1030 1.465 . S
C1036 C1035 1.396 . S
C1036 C1037 1.399 . S
C1037 H1023 0.929 . S
C1037 C1036 1.399 . S
C1037 C1038 1.385 . S
C1038 H1024 0.931 . S
C1038 C1037 1.385 . S
C1038 C1039 1.389 . S
C1039 C1038 1.389 . S
C1039 C1040 1.387 . S
C1040 H1025 0.930 . S
C1040 C1035 1.390 . S
C1040 C1039 1.387 . S
H1041 C1053 0.930 . S
H1042 C1055 0.930 . S
H1043 C1056 0.930 . S
H1044 C1060 0.959 . S
H1045 C1060 0.959 . S
H1046 C1060 0.961 . S
H1047 C1061 0.960 . S
H1048 C1061 0.961 . S
H1049 C1061 0.959 . S
H1050 C1064 0.929 . S
H1051 C1065 0.931 . S
H1052 C1067 0.930 . S
C1053 H1041 0.930 . S
C1053 C1054 1.399 . S
C1053 C1058 1.399 . S
C1054 C1053 1.399 . S
C1054 C1055 1.376 . S
C1055 H1042 0.930 . S
C1055 C1054 1.376 . S
C1055 C1056 1.388 . S
C1056 H1043 0.930 . S
C1056 C1055 1.388 . S
C1056 C1057 1.390 . S
C1057 C1056 1.390 . S
C1057 C1058 1.394 . S
C1057 C1063 1.465 . S
C1058 C1053 1.399 . S
C1058 C1057 1.394 . S
C1058 C1059 1.516 . S
C1059 C1058 1.516 . S
C1059 C1060 1.502 . S
C1059 C1061 1.561 . S
C1059 C1062 1.526 . S
C1060 H1044 0.959 . S
C1060 H1045 0.959 . S
C1060 H1046 0.961 . S
C1060 C1059 1.502 . S
C1061 H1047 0.960 . S
C1061 H1048 0.961 . S
C1061 H1049 0.959 . S
C1061 C1059 1.561 . S
C1062 C1059 1.526 . S
C1062 C1063 1.396 . S
C1062 C1067 1.390 . S
C1063 C1057 1.465 . S
C1063 C1062 1.396 . S
C1063 C1064 1.399 . S
C1064 H1050 0.929 . S
C1064 C1063 1.399 . S
C1064 C1065 1.385 . S
C1065 H1051 0.931 . S
C1065 C1064 1.385 . S
C1065 C1066 1.389 . S
C1066 C1065 1.389 . S
C1066 C1067 1.387 . S
C1067 H1052 0.930 . S
C1067 C1062 1.390 . S
C1067 C1066 1.387 . S
H1068 C1080 0.930 . S
H1069 C1082 0.930 . S
H1070 C1083 0.930 . S
H1071 C1087 0.959 . S
H1072 C1087 0.959 . S
H1073 C1087 0.961 . S
H1074 C1088 0.960 . S
H1075 C1088 0.961 . S
H1076 C1088 0.959 . S
H1077 C1091 0.929 . S
H1078 C1092 0.931 . S
H1079 C1094 0.930 . S
C1080 H1068 0.930 . S
C1080 C1081 1.399 . S
C1080 C1085 1.399 . S
C1081 C1080 1.399 . S
C1081 C1082 1.376 . S
C1082 H1069 0.930 . S
C1082 C1081 1.376 . S
C1082 C1083 1.388 . S
C1083 H1070 0.930 . S
C1083 C1082 1.388 . S
C1083 C1084 1.390 . S
C1084 C1083 1.390 . S
C1084 C1085 1.394 . S
C1084 C1090 1.465 . S
C1085 C1080 1.399 . S
C1085 C1084 1.394 . S
C1085 C1086 1.516 . S
C1086 C1085 1.516 . S
C1086 C1087 1.502 . S
C1086 C1088 1.561 . S
C1086 C1089 1.526 . S
C1087 H1071 0.959 . S
C1087 H1072 0.959 . S
C1087 H1073 0.961 . S
C1087 C1086 1.502 . S
C1088 H1074 0.960 . S
C1088 H1075 0.961 . S
C1088 H1076 0.959 . S
C1088 C1086 1.561 . S
C1089 C1086 1.526 . S
C1089 C1090 1.396 . S
C1089 C1094 1.390 . S
C1090 C1084 1.465 . S
C1090 C1089 1.396 . S
C1090 C1091 1.399 . S
C1091 H1077 0.929 . S
C1091 C1090 1.399 . S
C1091 C1092 1.385 . S
C1092 H1078 0.931 . S
C1092 C1091 1.385 . S
C1092 C1093 1.389 . S
C1093 C1092 1.389 . S
C1093 C1094 1.387 . S
C1094 H1079 0.930 . S
C1094 C1089 1.390 . S
C1094 C1093 1.387 . S
H1095 C1107 0.930 . S
H1096 C1109 0.930 . S
H1097 C1110 0.930 . S
H1098 C1114 0.959 . S
H1099 C1114 0.959 . S
H1100 C1114 0.961 . S
H1101 C1115 0.960 . S
H1102 C1115 0.961 . S
H1103 C1115 0.959 . S
H1104 C1118 0.929 . S
H1105 C1119 0.931 . S
H1106 C1121 0.930 . S
C1107 H1095 0.930 . S
C1107 C1108 1.399 . S
C1107 C1112 1.399 . S
C1108 C1107 1.399 . S
C1108 C1109 1.376 . S
C1109 H1096 0.930 . S
C1109 C1108 1.376 . S
C1109 C1110 1.388 . S
C1110 H1097 0.930 . S
C1110 C1109 1.388 . S
C1110 C1111 1.390 . S
C1111 C1110 1.390 . S
C1111 C1112 1.394 . S
C1111 C1117 1.465 . S
C1112 C1107 1.399 . S
C1112 C1111 1.394 . S
C1112 C1113 1.516 . S
C1113 C1112 1.516 . S
C1113 C1114 1.502 . S
C1113 C1115 1.561 . S
C1113 C1116 1.526 . S
C1114 H1098 0.959 . S
C1114 H1099 0.959 . S
C1114 H1100 0.961 . S
C1114 C1113 1.502 . S
C1115 H1101 0.960 . S
C1115 H1102 0.961 . S
C1115 H1103 0.959 . S
C1115 C1113 1.561 . S
C1116 C1113 1.526 . S
C1116 C1117 1.396 . S
C1116 C1121 1.390 . S
C1117 C1111 1.465 . S
C1117 C1116 1.396 . S
C1117 C1118 1.399 . S
C1118 H1104 0.929 . S
C1118 C1117 1.399 . S
C1118 C1119 1.385 . S
C1119 H1105 0.931 . S
C1119 C1118 1.385 . S
C1119 C1120 1.389 . S
C1120 C1119 1.389 . S
C1120 C1121 1.387 . S
C1121 H1106 0.930 . S
C1121 C1116 1.390 . S
C1121 C1120 1.387 . S
H1122 C1134 0.930 . S
H1123 C1136 0.930 . S
H1124 C1137 0.930 . S
H1125 C1141 0.959 . S
H1126 C1141 0.959 . S
H1127 C1141 0.961 . S
H1128 C1142 0.960 . S
H1129 C1142 0.961 . S
H1130 C1142 0.959 . S
H1131 C1145 0.929 . S
H1132 C1146 0.931 . S
H1133 C1148 0.930 . S
C1134 H1122 0.930 . S
C1134 C1135 1.399 . S
C1134 C1139 1.399 . S
C1135 C1134 1.399 . S
C1135 C1136 1.376 . S
C1136 H1123 0.930 . S
C1136 C1135 1.376 . S
C1136 C1137 1.388 . S
C1137 H1124 0.930 . S
C1137 C1136 1.388 . S
C1137 C1138 1.390 . S
C1138 C1137 1.390 . S
C1138 C1139 1.394 . S
C1138 C1144 1.465 . S
C1139 C1134 1.399 . S
C1139 C1138 1.394 . S
C1139 C1140 1.516 . S
C1140 C1139 1.516 . S
C1140 C1141 1.502 . S
C1140 C1142 1.561 . S
C1140 C1143 1.526 . S
C1141 H1125 0.959 . S
C1141 H1126 0.959 . S
C1141 H1127 0.961 . S
C1141 C1140 1.502 . S
C1142 H1128 0.960 . S
C1142 H1129 0.961 . S
C1142 H1130 0.959 . S
C1142 C1140 1.561 . S
C1143 C1140 1.526 . S
C1143 C1144 1.396 . S
C1143 C1148 1.390 . S
C1144 C1138 1.465 . S
C1144 C1143 1.396 . S
C1144 C1145 1.399 . S
C1145 H1131 0.929 . S
C1145 C1144 1.399 . S
C1145 C1146 1.385 . S
C1146 H1132 0.931 . S
C1146 C1145 1.385 . S
C1146 C1147 1.389 . S
C1147 C1146 1.389 . S
C1147 C1148 1.387 . S
C1148 H1133 0.930 . S
C1148 C1143 1.390 . S
C1148 C1147 1.387 . S
H1149 C1161 0.930 . S
H1150 C1163 0.930 . S
H1151 C1164 0.930 . S
H1152 C1168 0.959 . S
H1153 C1168 0.959 . S
H1154 C1168 0.961 . S
H1155 C1169 0.960 . S
H1156 C1169 0.961 . S
H1157 C1169 0.959 . S
H1158 C1172 0.929 . S
H1159 C1173 0.931 . S
H1160 C1175 0.930 . S
C1161 H1149 0.930 . S
C1161 C1162 1.399 . S
C1161 C1166 1.399 . S
C1162 C1161 1.399 . S
C1162 C1163 1.376 . S
C1163 H1150 0.930 . S
C1163 C1162 1.376 . S
C1163 C1164 1.388 . S
C1164 H1151 0.930 . S
C1164 C1163 1.388 . S
C1164 C1165 1.390 . S
C1165 C1164 1.390 . S
C1165 C1166 1.394 . S
C1165 C1171 1.465 . S
C1166 C1161 1.399 . S
C1166 C1165 1.394 . S
C1166 C1167 1.516 . S
C1167 C1166 1.516 . S
C1167 C1168 1.502 . S
C1167 C1169 1.561 . S
C1167 C1170 1.526 . S
C1168 H1152 0.959 . S
C1168 H1153 0.959 . S
C1168 H1154 0.961 . S
C1168 C1167 1.502 . S
C1169 H1155 0.960 . S
C1169 H1156 0.961 . S
C1169 H1157 0.959 . S
C1169 C1167 1.561 . S
C1170 C1167 1.526 . S
C1170 C1171 1.396 . S
C1170 C1175 1.390 . S
C1171 C1165 1.465 . S
C1171 C1170 1.396 . S
C1171 C1172 1.399 . S
C1172 H1158 0.929 . S
C1172 C1171 1.399 . S
C1172 C1173 1.385 . S
C1173 H1159 0.931 . S
C1173 C1172 1.385 . S
C1173 C1174 1.389 . S
C1174 C1173 1.389 . S
C1174 C1175 1.387 . S
C1175 H1160 0.930 . S
C1175 C1170 1.390 . S
C1175 C1174 1.387 . S
H1176 C1188 0.958 . S
H1177 C1190 0.930 . S
H1178 C1191 0.930 . S
H1179 C1195 0.959 . S
H1180 C1195 0.959 . S
H1181 C1195 0.961 . S
H1182 C1196 0.960 . S
H1183 C1196 0.961 . S
H1184 C1196 0.959 . S
H1185 C1199 0.929 . S
H1186 C1200 0.931 . S
H1187 C1202 0.930 . S
C1188 H1176 0.958 . S
C1188 C1189 1.399 . S
C1188 C1193 1.399 . S
C1189 C1188 1.399 . S
C1189 C1190 1.376 . S
C1190 H1177 0.930 . S
C1190 C1189 1.376 . S
C1190 C1191 1.388 1_545 S
C1191 H1178 0.930 . S
C1191 C1190 1.388 1_565 S
C1191 C1192 1.390 . S
C1192 C1191 1.390 . S
C1192 C1193 1.394 1_565 S
C1192 C1198 1.465 . S
C1193 C1188 1.399 . S
C1193 C1192 1.394 1_545 S
C1193 C1194 1.516 1_554 S
C1194 C1193 1.516 1_556 S
C1194 C1195 1.502 . S
C1194 C1196 1.561 1_545 S
C1194 C1197 1.526 1_545 S
C1195 H1179 0.959 . S
C1195 H1180 0.959 . S
C1195 H1181 0.961 . S
C1195 C1194 1.502 . S
C1196 H1182 0.960 . S
C1196 H1183 0.961 . S
C1196 H1184 0.959 . S
C1196 C1194 1.561 1_565 S
C1197 C1194 1.526 1_565 S
C1197 C1198 1.396 1_556 S
C1197 C1202 1.390 . S
C1198 C1192 1.465 . S
C1198 C1197 1.396 1_554 S
C1198 C1199 1.399 . S
C1199 H1185 0.929 . S
C1199 C1198 1.399 . S
C1199 C1200 1.385 1_554 S
C1200 H1186 0.931 . S
C1200 C1199 1.385 1_556 S
C1200 C1201 1.389 . S
C1201 C1200 1.389 . S
C1201 C1202 1.387 . S
C1202 H1187 0.930 . S
C1202 C1197 1.390 . S
C1202 C1201 1.387 . S
H1203 C1215 0.930 . S
H1204 C1217 0.930 . S
H1205 C1218 0.930 . S
H1206 C1222 0.959 . S
H1207 C1222 0.959 . S
H1208 C1222 0.961 . S
H1209 C1223 0.960 . S
H1210 C1223 0.961 . S
H1211 C1223 0.959 . S
H1212 C1226 0.929 . S
H1213 C1227 0.931 . S
H1214 C1229 0.930 . S
C1215 H1203 0.930 . S
C1215 C1216 1.399 . S
C1215 C1220 1.399 . S
C1216 C1215 1.399 . S
C1216 C1217 1.376 . S
C1217 H1204 0.930 . S
C1217 C1216 1.376 . S
C1217 C1218 1.388 1_554 S
C1218 H1205 0.930 . S
C1218 C1217 1.388 1_556 S
C1218 C1219 1.390 . S
C1219 C1218 1.390 . S
C1219 C1220 1.394 1_556 S
C1219 C1225 1.465 . S
C1220 C1215 1.399 . S
C1220 C1219 1.394 1_554 S
C1220 C1221 1.516 . S
C1221 C1220 1.516 . S
C1221 C1222 1.502 . S
C1221 C1223 1.561 . S
C1221 C1224 1.526 1_554 S
C1222 H1206 0.959 . S
C1222 H1207 0.959 . S
C1222 H1208 0.961 . S
C1222 C1221 1.502 . S
C1223 H1209 0.960 . S
C1223 H1210 0.961 . S
C1223 H1211 0.959 . S
C1223 C1221 1.561 . S
C1224 C1221 1.526 1_556 S
C1224 C1225 1.396 . S
C1224 C1229 1.390 . S
C1225 C1219 1.465 . S
C1225 C1224 1.396 . S
C1225 C1226 1.399 . S
C1226 H1212 0.929 . S
C1226 C1225 1.399 . S
C1226 C1227 1.385 . S
C1227 H1213 0.931 . S
C1227 C1226 1.385 . S
C1227 C1228 1.389 . S
C1228 C1227 1.389 . S
C1228 C1229 1.387 . S
C1229 H1214 0.930 . S
C1229 C1224 1.390 . S
C1229 C1228 1.387 . S
H1230 C1242 0.930 . S
H1231 C1244 0.930 . S
H1232 C1245 0.930 1_455 S
H1233 C1249 0.959 . S
H1234 C1249 0.959 . S
H1235 C1249 0.961 . S
H1236 C1250 0.960 . S
H1237 C1250 0.961 . S
H1238 C1250 0.959 1_554 S
H1239 C1253 0.929 . S
H1240 C1254 0.931 . S
H1241 C1256 0.930 . S
C1242 H1230 0.930 . S
C1242 C1243 1.399 . S
C1242 C1247 1.399 . S
C1243 C1242 1.399 . S
C1243 C1244 1.376 . S
C1244 H1231 0.930 . S
C1244 C1243 1.376 . S
C1244 C1245 1.388 . S
C1245 H1232 0.930 1_655 S
C1245 C1244 1.388 . S
C1245 C1246 1.390 . S
C1246 C1245 1.390 . S
C1246 C1247 1.394 . S
C1246 C1252 1.465 1_655 S
C1247 C1242 1.399 . S
C1247 C1246 1.394 . S
C1247 C1248 1.516 1_554 S
C1248 C1247 1.516 1_556 S
C1248 C1249 1.502 . S
C1248 C1250 1.561 . S
C1248 C1251 1.526 1_655 S
C1249 H1233 0.959 . S
C1249 H1234 0.959 . S
C1249 H1235 0.961 . S
C1249 C1248 1.502 . S
C1250 H1236 0.960 . S
C1250 H1237 0.961 . S
C1250 H1238 0.959 1_556 S
C1250 C1248 1.561 . S
C1251 C1248 1.526 1_455 S
C1251 C1252 1.396 1_556 S
C1251 C1256 1.390 . S
C1252 C1246 1.465 1_455 S
C1252 C1251 1.396 1_554 S
C1252 C1253 1.399 . S
C1253 H1239 0.929 . S
C1253 C1252 1.399 . S
C1253 C1254 1.385 1_554 S
C1254 H1240 0.931 . S
C1254 C1253 1.385 1_556 S
C1254 C1255 1.389 . S
C1255 C1254 1.389 . S
C1255 C1256 1.387 . S
C1256 H1241 0.930 . S
C1256 C1251 1.390 . S
C1256 C1255 1.387 . S
H1257 C1269 0.930 . S
H1258 C1271 0.930 . S
H1259 C1272 0.930 . S
H1260 C1276 0.959 . S
H1261 C1276 0.959 . S
H1262 C1276 0.961 . S
H1263 C1277 0.960 . S
H1264 C1277 0.961 . S
H1265 C1277 0.959 . S
H1266 C1280 0.929 1_545 S
H1267 C1281 0.931 . S
H1268 C1283 0.930 . S
C1269 H1257 0.930 . S
C1269 C1270 1.399 . S
C1269 C1274 1.399 . S
C1270 C1269 1.399 . S
C1270 C1271 1.376 . S
C1271 H1258 0.930 . S
C1271 C1270 1.376 . S
C1271 C1272 1.388 1_656 S
C1272 H1259 0.930 . S
C1272 C1271 1.388 1_454 S
C1272 C1273 1.390 1_554 S
C1273 C1272 1.390 1_556 S
C1273 C1274 1.394 1_455 S
C1273 C1279 1.465 1_546 S
C1274 C1269 1.399 . S
C1274 C1273 1.394 1_655 S
C1274 C1275 1.516 1_545 S
C1275 C1274 1.516 1_565 S
C1275 C1276 1.502 . S
C1275 C1277 1.561 1_655 S
C1275 C1278 1.526 1_656 S
C1276 H1260 0.959 . S
C1276 H1261 0.959 . S
C1276 H1262 0.961 . S
C1276 C1275 1.502 . S
C1277 H1263 0.960 . S
C1277 H1264 0.961 . S
C1277 H1265 0.959 . S
C1277 C1275 1.561 1_455 S
C1278 C1275 1.526 1_454 S
C1278 C1279 1.396 . S
C1278 C1283 1.390 . S
C1279 C1273 1.465 1_564 S
C1279 C1278 1.396 . S
C1279 C1280 1.399 . S
C1280 H1266 0.929 1_565 S
C1280 C1279 1.399 . S
C1280 C1281 1.385 . S
C1281 H1267 0.931 . S
C1281 C1280 1.385 . S
C1281 C1282 1.389 . S
C1282 C1281 1.389 . S
C1282 C1283 1.387 . S
C1283 H1268 0.930 . S
C1283 C1278 1.390 . S
C1283 C1282 1.387 . S
H1284 C1296 0.930 . S
H1285 C1298 0.930 . S
H1286 C1299 0.930 . S
H1287 C1303 0.959 . S
H1288 C1303 0.959 1_455 S
H1289 C1303 0.961 . S
H1290 C1304 0.960 . S
H1291 C1304 0.961 . S
H1292 C1304 0.959 . S
H1293 C1307 0.929 . S
H1294 C1308 0.931 . S
H1295 C1310 0.930 . S
C1296 H1284 0.930 . S
C1296 C1297 1.399 . S
C1296 C1301 1.399 . S
C1297 C1296 1.399 . S
C1297 C1298 1.376 1_545 S
C1298 H1285 0.930 . S
C1298 C1297 1.376 1_565 S
C1298 C1299 1.388 . S
C1299 H1286 0.930 . S
C1299 C1298 1.388 . S
C1299 C1300 1.390 . S
C1300 C1299 1.390 . S
C1300 C1301 1.394 1_565 S
C1300 C1306 1.465 1_655 S
C1301 C1296 1.399 . S
C1301 C1300 1.394 1_545 S
C1301 C1302 1.516 1_655 S
C1302 C1301 1.516 1_455 S
C1302 C1303 1.502 1_455 S
C1302 C1304 1.561 . S
C1302 C1305 1.526 . S
C1303 H1287 0.959 . S
C1303 H1288 0.959 1_655 S
C1303 H1289 0.961 . S
C1303 C1302 1.502 1_655 S
C1304 H1290 0.960 . S
C1304 H1291 0.961 . S
C1304 H1292 0.959 . S
C1304 C1302 1.561 . S
C1305 C1302 1.526 . S
C1305 C1306 1.396 1_545 S
C1305 C1310 1.390 . S
C1306 C1300 1.465 1_455 S
C1306 C1305 1.396 1_565 S
C1306 C1307 1.399 . S
C1307 H1293 0.929 . S
C1307 C1306 1.399 . S
C1307 C1308 1.385 . S
C1308 H1294 0.931 . S
C1308 C1307 1.385 . S
C1308 C1309 1.389 . S
C1309 C1308 1.389 . S
C1309 C1310 1.387 1_565 S
C1310 H1295 0.930 . S
C1310 C1305 1.390 . S
C1310 C1309 1.387 1_545 S
H1311 C1323 0.930 . S
H1312 C1325 0.930 . S
H1313 C1326 0.911 1_565 S
H1314 C1330 0.959 . S
H1315 C1330 0.959 . S
H1316 C1330 0.961 . S
H1317 C1331 0.960 . S
H1318 C1331 0.961 . S
H1319 C1331 0.959 . S
H1320 C1334 0.929 . S
H1321 C1335 0.931 . S
H1322 C1337 0.930 . S
C1323 H1311 0.930 . S
C1323 C1324 1.399 . S
C1323 C1328 1.399 . S
C1324 C1323 1.399 . S
C1324 C1325 1.376 . S
C1325 H1312 0.930 . S
C1325 C1324 1.376 . S
C1325 C1326 1.388 . S
C1326 H1313 0.911 1_545 S
C1326 C1325 1.388 . S
C1326 C1327 1.390 . S
C1327 C1326 1.390 . S
C1327 C1328 1.394 . S
C1327 C1333 1.465 1_545 S
C1328 C1323 1.399 . S
C1328 C1327 1.394 . S
C1328 C1329 1.516 . S
C1329 C1328 1.516 . S
C1329 C1330 1.502 . S
C1329 C1331 1.561 . S
C1329 C1332 1.526 1_545 S
C1330 H1314 0.959 . S
C1330 H1315 0.959 . S
C1330 H1316 0.961 . S
C1330 C1329 1.502 . S
C1331 H1317 0.960 . S
C1331 H1318 0.961 . S
C1331 H1319 0.959 . S
C1331 C1329 1.561 . S
C1332 C1329 1.526 1_565 S
C1332 C1333 1.396 . S
C1332 C1337 1.390 . S
C1333 C1327 1.465 1_565 S
C1333 C1332 1.396 . S
C1333 C1334 1.399 . S
C1334 H1320 0.929 . S
C1334 C1333 1.399 . S
C1334 C1335 1.385 . S
C1335 H1321 0.931 . S
C1335 C1334 1.385 . S
C1335 C1336 1.389 . S
C1336 C1335 1.389 . S
C1336 C1337 1.387 . S
C1337 H1322 0.930 . S
C1337 C1332 1.390 . S
C1337 C1336 1.387 . S
H1338 C1350 0.930 . S
H1339 C1352 0.930 . S
H1340 C1353 0.930 . S
H1341 C1357 0.959 . S
H1342 C1357 0.959 . S
H1343 C1357 0.961 . S
H1344 C1358 0.960 . S
H1345 C1358 0.961 . S
H1346 C1358 0.959 . S
H1347 C1361 0.929 . S
H1348 C1362 0.931 . S
H1349 C1364 0.930 . S
C1350 H1338 0.930 . S
C1350 C1351 1.399 . S
C1350 C1355 1.399 . S
C1351 C1350 1.399 . S
C1351 C1352 1.376 . S
C1352 H1339 0.930 . S
C1352 C1351 1.376 . S
C1352 C1353 1.388 . S
C1353 H1340 0.930 . S
C1353 C1352 1.388 . S
C1353 C1354 1.390 . S
C1354 C1353 1.390 . S
C1354 C1355 1.394 . S
C1354 C1360 1.465 . S
C1355 C1350 1.399 . S
C1355 C1354 1.394 . S
C1355 C1356 1.516 . S
C1356 C1355 1.516 . S
C1356 C1357 1.502 . S
C1356 C1358 1.561 . S
C1356 C1359 1.526 . S
C1357 H1341 0.959 . S
C1357 H1342 0.959 . S
C1357 H1343 0.961 . S
C1357 C1356 1.502 . S
C1358 H1344 0.960 . S
C1358 H1345 0.961 . S
C1358 H1346 0.959 . S
C1358 C1356 1.561 . S
C1359 C1356 1.526 . S
C1359 C1360 1.396 . S
C1359 C1364 1.390 . S
C1360 C1354 1.465 . S
C1360 C1359 1.396 . S
C1360 C1361 1.399 . S
C1361 H1347 0.929 . S
C1361 C1360 1.399 . S
C1361 C1362 1.385 . S
C1362 H1348 0.931 . S
C1362 C1361 1.385 . S
C1362 C1363 1.389 . S
C1363 C1362 1.389 . S
C1363 C1364 1.387 . S
C1364 H1349 0.930 . S
C1364 C1359 1.390 . S
C1364 C1363 1.387 . S
H1365 C1377 0.930 . S
H1366 C1379 0.930 . S
H1367 C1380 0.930 . S
H1368 C1384 0.959 . S
H1369 C1384 0.959 . S
H1370 C1384 0.961 . S
H1371 C1385 0.960 . S
H1372 C1385 0.961 . S
H1373 C1385 0.959 1_655 S
H1374 C1388 0.929 . S
H1375 C1389 0.931 . S
H1376 C1391 0.930 1_455 S
C1377 H1365 0.930 . S
C1377 C1378 1.399 . S
C1377 C1382 1.399 . S
C1378 C1377 1.399 . S
C1378 C1379 1.376 1_455 S
C1379 H1366 0.930 . S
C1379 C1378 1.376 1_655 S
C1379 C1380 1.388 . S
C1380 H1367 0.930 . S
C1380 C1379 1.388 . S
C1380 C1381 1.390 . S
C1381 C1380 1.390 . S
C1381 C1382 1.394 1_655 S
C1381 C1387 1.465 . S
C1382 C1377 1.399 . S
C1382 C1381 1.394 1_455 S
C1382 C1383 1.516 . S
C1383 C1382 1.516 . S
C1383 C1384 1.502 . S
C1383 C1385 1.561 . S
C1383 C1386 1.526 . S
C1384 H1368 0.959 . S
C1384 H1369 0.959 . S
C1384 H1370 0.961 . S
C1384 C1383 1.502 . S
C1385 H1371 0.960 . S
C1385 H1372 0.961 . S
C1385 H1373 0.959 1_455 S
C1385 C1383 1.561 . S
C1386 C1383 1.526 . S
C1386 C1387 1.396 1_455 S
C1386 C1391 1.389 1_455 S
C1387 C1381 1.465 . S
C1387 C1386 1.396 1_655 S
C1387 C1388 1.399 . S
C1388 H1374 0.929 . S
C1388 C1387 1.399 . S
C1388 C1389 1.385 . S
C1389 H1375 0.931 . S
C1389 C1388 1.385 . S
C1389 C1390 1.389 . S
C1390 C1389 1.389 . S
C1390 C1391 1.387 . S
C1391 H1376 0.930 1_655 S
C1391 C1386 1.389 1_655 S
C1391 C1390 1.387 . S
H1392 C1404 0.930 . S
H1393 C1406 0.930 . S
H1394 C1407 0.930 . S
H1395 C1411 0.959 . S
H1396 C1411 0.959 . S
H1397 C1411 0.961 . S
H1398 C1412 0.960 . S
H1399 C1412 0.961 . S
H1400 C1412 0.959 . S
H1401 C1415 0.929 . S
H1402 C1416 0.931 . S
H1403 C1418 0.930 . S
C1404 H1392 0.930 . S
C1404 C1405 1.399 . S
C1404 C1409 1.399 . S
C1405 C1404 1.399 . S
C1405 C1406 1.376 . S
C1406 H1393 0.930 . S
C1406 C1405 1.376 . S
C1406 C1407 1.388 . S
C1407 H1394 0.930 . S
C1407 C1406 1.388 . S
C1407 C1408 1.390 . S
C1408 C1407 1.390 . S
C1408 C1409 1.394 . S
C1408 C1414 1.465 . S
C1409 C1404 1.399 . S
C1409 C1408 1.394 . S
C1409 C1410 1.516 . S
C1410 C1409 1.516 . S
C1410 C1411 1.502 . S
C1410 C1412 1.561 . S
C1410 C1413 1.526 . S
C1411 H1395 0.959 . S
C1411 H1396 0.959 . S
C1411 H1397 0.961 . S
C1411 C1410 1.502 . S
C1412 H1398 0.960 . S
C1412 H1399 0.961 . S
C1412 H1400 0.959 . S
C1412 C1410 1.561 . S
C1413 C1410 1.526 . S
C1413 C1414 1.396 . S
C1413 C1418 1.390 . S
C1414 C1408 1.465 . S
C1414 C1413 1.396 . S
C1414 C1415 1.399 . S
C1415 H1401 0.929 . S
C1415 C1414 1.399 . S
C1415 C1416 1.385 . S
C1416 H1402 0.931 . S
C1416 C1415 1.385 . S
C1416 C1417 1.389 . S
C1417 C1416 1.389 . S
C1417 C1418 1.387 . S
C1418 H1403 0.930 . S
C1418 C1413 1.390 . S
C1418 C1417 1.387 . S
H1419 C1431 0.930 . S
H1420 C1433 0.930 . S
H1421 C1434 0.930 . S
H1422 C1438 0.959 . S
H1423 C1438 0.959 . S
H1424 C1438 0.961 . S
H1425 C1439 0.960 . S
H1426 C1439 0.961 . S
H1427 C1439 0.959 . S
H1428 C1442 0.929 . S
H1429 C1443 0.931 . S
H1430 C1445 0.930 . S
C1431 H1419 0.930 . S
C1431 C1432 1.399 . S
C1431 C1436 1.399 . S
C1432 C1431 1.399 . S
C1432 C1433 1.376 . S
C1433 H1420 0.930 . S
C1433 C1432 1.376 . S
C1433 C1434 1.388 . S
C1434 H1421 0.930 . S
C1434 C1433 1.388 . S
C1434 C1435 1.390 . S
C1435 C1434 1.390 . S
C1435 C1436 1.394 . S
C1435 C1441 1.465 . S
C1436 C1431 1.399 . S
C1436 C1435 1.394 . S
C1436 C1437 1.516 . S
C1437 C1436 1.516 . S
C1437 C1438 1.502 . S
C1437 C1439 1.561 . S
C1437 C1440 1.526 . S
C1438 H1422 0.959 . S
C1438 H1423 0.959 . S
C1438 H1424 0.961 . S
C1438 C1437 1.502 . S
C1439 H1425 0.960 . S
C1439 H1426 0.961 . S
C1439 H1427 0.959 . S
C1439 C1437 1.561 . S
C1440 C1437 1.526 . S
C1440 C1441 1.396 . S
C1440 C1445 1.390 . S
C1441 C1435 1.465 . S
C1441 C1440 1.396 . S
C1441 C1442 1.399 . S
C1442 H1428 0.929 . S
C1442 C1441 1.399 . S
C1442 C1443 1.385 . S
C1443 H1429 0.931 . S
C1443 C1442 1.385 . S
C1443 C1444 1.389 . S
C1444 C1443 1.389 . S
C1444 C1445 1.387 . S
C1445 H1430 0.930 . S
C1445 C1440 1.390 . S
C1445 C1444 1.387 . S
H1446 C1458 0.930 . S
H1447 C1460 0.930 . S
H1448 C1461 0.930 . S
H1449 C1465 0.959 . S
H1450 C1465 0.959 . S
H1451 C1465 0.961 . S
H1452 C1466 0.960 . S
H1453 C1466 0.961 . S
H1454 C1466 0.959 . S
H1455 C1469 0.929 . S
H1456 C1470 0.931 . S
H1457 C1472 0.930 . S
C1458 H1446 0.930 . S
C1458 C1459 1.399 . S
C1458 C1463 1.399 . S
C1459 C1458 1.399 . S
C1459 C1460 1.376 . S
C1460 H1447 0.930 . S
C1460 C1459 1.376 . S
C1460 C1461 1.388 . S
C1461 H1448 0.930 . S
C1461 C1460 1.388 . S
C1461 C1462 1.390 . S
C1462 C1461 1.390 . S
C1462 C1463 1.394 . S
C1462 C1468 1.465 . S
C1463 C1458 1.399 . S
C1463 C1462 1.394 . S
C1463 C1464 1.516 . S
C1464 C1463 1.516 . S
C1464 C1465 1.502 . S
C1464 C1466 1.561 . S
C1464 C1467 1.526 . S
C1465 H1449 0.959 . S
C1465 H1450 0.959 . S
C1465 H1451 0.961 . S
C1465 C1464 1.502 . S
C1466 H1452 0.960 . S
C1466 H1453 0.961 . S
C1466 H1454 0.959 . S
C1466 C1464 1.561 . S
C1467 C1464 1.526 . S
C1467 C1468 1.396 . S
C1467 C1472 1.390 . S
C1468 C1462 1.465 . S
C1468 C1467 1.396 . S
C1468 C1469 1.399 . S
C1469 H1455 0.929 . S
C1469 C1468 1.399 . S
C1469 C1470 1.385 . S
C1470 H1456 0.931 . S
C1470 C1469 1.385 . S
C1470 C1471 1.389 . S
C1471 C1470 1.389 . S
C1471 C1472 1.387 . S
C1472 H1457 0.930 . S
C1472 C1467 1.390 . S
C1472 C1471 1.387 . S
H1473 C1485 0.930 . S
H1474 C1487 0.930 . S
H1475 C1488 0.930 . S
H1476 C1492 0.959 . S
H1477 C1492 0.959 . S
H1478 C1492 0.961 . S
H1479 C1493 0.960 . S
H1480 C1493 0.961 . S
H1481 C1493 0.959 . S
H1482 C1496 0.929 . S
H1483 C1497 0.931 . S
H1484 C1499 0.930 . S
C1485 H1473 0.930 . S
C1485 C1486 1.399 . S
C1485 C1490 1.399 . S
C1486 C1485 1.399 . S
C1486 C1487 1.376 . S
C1487 H1474 0.930 . S
C1487 C1486 1.376 . S
C1487 C1488 1.388 . S
C1488 H1475 0.930 . S
C1488 C1487 1.388 . S
C1488 C1489 1.390 . S
C1489 C1488 1.390 . S
C1489 C1490 1.394 . S
C1489 C1495 1.465 . S
C1490 C1485 1.399 . S
C1490 C1489 1.394 . S
C1490 C1491 1.516 . S
C1491 C1490 1.516 . S
C1491 C1492 1.502 . S
C1491 C1493 1.561 . S
C1491 C1494 1.526 . S
C1492 H1476 0.959 . S
C1492 H1477 0.959 . S
C1492 H1478 0.961 . S
C1492 C1491 1.502 . S
C1493 H1479 0.960 . S
C1493 H1480 0.961 . S
C1493 H1481 0.959 . S
C1493 C1491 1.561 . S
C1494 C1491 1.526 . S
C1494 C1495 1.396 . S
C1494 C1499 1.390 . S
C1495 C1489 1.465 . S
C1495 C1494 1.396 . S
C1495 C1496 1.399 . S
C1496 H1482 0.929 . S
C1496 C1495 1.399 . S
C1496 C1497 1.385 . S
C1497 H1483 0.931 . S
C1497 C1496 1.385 . S
C1497 C1498 1.389 . S
C1498 C1497 1.389 . S
C1498 C1499 1.387 . S
C1499 H1484 0.930 . S
C1499 C1494 1.390 . S
C1499 C1498 1.387 . S
H1500 C1512 0.930 . S
H1501 C1514 0.930 . S
H1502 C1515 0.930 . S
H1503 C1519 0.959 . S
H1504 C1519 0.959 . S
H1505 C1519 0.961 . S
H1506 C1520 0.960 . S
H1507 C1520 0.961 . S
H1508 C1520 0.959 . S
H1509 C1523 0.929 . S
H1510 C1524 0.931 . S
H1511 C1526 0.930 . S
C1512 H1500 0.930 . S
C1512 C1513 1.399 . S
C1512 C1517 1.399 . S
C1513 C1512 1.399 . S
C1513 C1514 1.376 . S
C1514 H1501 0.930 . S
C1514 C1513 1.376 . S
C1514 C1515 1.388 . S
C1515 H1502 0.930 . S
C1515 C1514 1.388 . S
C1515 C1516 1.390 . S
C1516 C1515 1.390 . S
C1516 C1517 1.394 . S
C1516 C1522 1.465 . S
C1517 C1512 1.399 . S
C1517 C1516 1.394 . S
C1517 C1518 1.516 . S
C1518 C1517 1.516 . S
C1518 C1519 1.502 . S
C1518 C1520 1.561 . S
C1518 C1521 1.526 . S
C1519 H1503 0.959 . S
C1519 H1504 0.959 . S
C1519 H1505 0.961 . S
C1519 C1518 1.502 . S
C1520 H1506 0.960 . S
C1520 H1507 0.961 . S
C1520 H1508 0.959 . S
C1520 C1518 1.561 . S
C1521 C1518 1.526 . S
C1521 C1522 1.396 . S
C1521 C1526 1.390 . S
C1522 C1516 1.465 . S
C1522 C1521 1.396 . S
C1522 C1523 1.399 . S
C1523 H1509 0.929 . S
C1523 C1522 1.399 . S
C1523 C1524 1.385 . S
C1524 H1510 0.931 . S
C1524 C1523 1.385 . S
C1524 C1525 1.389 . S
C1525 C1524 1.389 . S
C1525 C1526 1.387 . S
C1526 H1511 0.930 . S
C1526 C1521 1.390 . S
C1526 C1525 1.387 . S
H1527 C1539 0.930 . S
H1528 C1541 0.930 . S
H1529 C1542 0.930 . S
H1530 C1546 0.959 . S
H1531 C1546 0.959 . S
H1532 C1546 0.961 . S
H1533 C1547 0.960 . S
H1534 C1547 0.961 . S
H1535 C1547 0.959 . S
H1536 C1550 0.929 . S
H1537 C1551 0.931 . S
H1538 C1553 0.930 . S
C1539 H1527 0.930 . S
C1539 C1540 1.399 . S
C1539 C1544 1.399 . S
C1540 C1539 1.399 . S
C1540 C1541 1.376 . S
C1541 H1528 0.930 . S
C1541 C1540 1.376 . S
C1541 C1542 1.388 . S
C1542 H1529 0.930 . S
C1542 C1541 1.388 . S
C1542 C1543 1.390 . S
C1543 C1542 1.390 . S
C1543 C1544 1.394 . S
C1543 C1549 1.465 . S
C1544 C1539 1.399 . S
C1544 C1543 1.394 . S
C1544 C1545 1.516 . S
C1545 C1544 1.516 . S
C1545 C1546 1.502 . S
C1545 C1547 1.561 . S
C1545 C1548 1.526 . S
C1546 H1530 0.959 . S
C1546 H1531 0.959 . S
C1546 H1532 0.961 . S
C1546 C1545 1.502 . S
C1547 H1533 0.960 . S
C1547 H1534 0.961 . S
C1547 H1535 0.959 . S
C1547 C1545 1.561 . S
C1548 C1545 1.526 . S
C1548 C1549 1.396 . S
C1548 C1553 1.390 . S
C1549 C1543 1.465 . S
C1549 C1548 1.396 . S
C1549 C1550 1.399 . S
C1550 H1536 0.929 . S
C1550 C1549 1.399 . S
C1550 C1551 1.385 . S
C1551 H1537 0.931 . S
C1551 C1550 1.385 . S
C1551 C1552 1.389 . S
C1552 C1551 1.389 . S
C1552 C1553 1.387 . S
C1553 H1538 0.930 . S
C1553 C1548 1.390 . S
C1553 C1552 1.387 . S
H1554 C1566 0.930 . S
H1555 C1568 0.930 . S
H1556 C1569 0.930 . S
H1557 C1573 0.959 . S
H1558 C1573 0.959 . S
H1559 C1573 0.961 . S
H1560 C1574 0.960 . S
H1561 C1574 0.961 . S
H1562 C1574 0.959 . S
H1563 C1577 0.929 . S
H1564 C1578 0.931 . S
H1565 C1580 0.930 . S
C1566 H1554 0.930 . S
C1566 C1567 1.399 . S
C1566 C1571 1.399 . S
C1567 C1566 1.399 . S
C1567 C1568 1.376 . S
C1568 H1555 0.930 . S
C1568 C1567 1.376 . S
C1568 C1569 1.388 . S
C1569 H1556 0.930 . S
C1569 C1568 1.388 . S
C1569 C1570 1.390 . S
C1570 C1569 1.390 . S
C1570 C1571 1.394 . S
C1570 C1576 1.465 . S
C1571 C1566 1.399 . S
C1571 C1570 1.394 . S
C1571 C1572 1.516 . S
C1572 C1571 1.516 . S
C1572 C1573 1.502 . S
C1572 C1574 1.561 . S
C1572 C1575 1.526 . S
C1573 H1557 0.959 . S
C1573 H1558 0.959 . S
C1573 H1559 0.961 . S
C1573 C1572 1.502 . S
C1574 H1560 0.960 . S
C1574 H1561 0.961 . S
C1574 H1562 0.959 . S
C1574 C1572 1.561 . S
C1575 C1572 1.526 . S
C1575 C1576 1.396 . S
C1575 C1580 1.390 . S
C1576 C1570 1.465 . S
C1576 C1575 1.396 . S
C1576 C1577 1.399 . S
C1577 H1563 0.929 . S
C1577 C1576 1.399 . S
C1577 C1578 1.385 . S
C1578 H1564 0.931 . S
C1578 C1577 1.385 . S
C1578 C1579 1.389 . S
C1579 C1578 1.389 . S
C1579 C1580 1.387 . S
C1580 H1565 0.930 . S
C1580 C1575 1.390 . S
C1580 C1579 1.387 . S
H1581 C1593 0.930 . S
H1582 C1595 0.930 . S
H1583 C1596 0.930 . S
H1584 C1600 0.959 . S
H1585 C1600 0.959 . S
H1586 C1600 0.961 . S
H1587 C1601 0.960 . S
H1588 C1601 0.961 . S
H1589 C1601 0.959 . S
H1590 C1604 0.929 . S
H1591 C1605 0.931 . S
H1592 C1607 0.930 . S
C1593 H1581 0.930 . S
C1593 C1594 1.399 . S
C1593 C1598 1.399 . S
C1594 C1593 1.399 . S
C1594 C1595 1.376 . S
C1595 H1582 0.930 . S
C1595 C1594 1.376 . S
C1595 C1596 1.388 . S
C1596 H1583 0.930 . S
C1596 C1595 1.388 . S
C1596 C1597 1.390 . S
C1597 C1596 1.390 . S
C1597 C1598 1.394 . S
C1597 C1603 1.465 . S
C1598 C1593 1.399 . S
C1598 C1597 1.394 . S
C1598 C1599 1.516 . S
C1599 C1598 1.516 . S
C1599 C1600 1.502 . S
C1599 C1601 1.561 . S
C1599 C1602 1.526 . S
C1600 H1584 0.959 . S
C1600 H1585 0.959 . S
C1600 H1586 0.961 . S
C1600 C1599 1.502 . S
C1601 H1587 0.960 . S
C1601 H1588 0.961 . S
C1601 H1589 0.959 . S
C1601 C1599 1.561 . S
C1602 C1599 1.526 . S
C1602 C1603 1.396 . S
C1602 C1607 1.390 . S
C1603 C1597 1.465 . S
C1603 C1602 1.396 . S
C1603 C1604 1.399 . S
C1604 H1590 0.929 . S
C1604 C1603 1.399 . S
C1604 C1605 1.385 . S
C1605 H1591 0.931 . S
C1605 C1604 1.385 . S
C1605 C1606 1.389 . S
C1606 C1605 1.389 . S
C1606 C1607 1.387 . S
C1607 H1592 0.930 . S
C1607 C1602 1.390 . S
C1607 C1606 1.387 . S
C541 N13 0.840 . S
C553 C54 0.836 . S
C568 C87 0.810 . S
C580 N46 0.800 . S
C595 C120 0.814 . S
C607 N79 0.806 . S
C622 N112 0.841 . S
C634 C21 0.832 . S
C649 C252 0.837 . S
C661 N145 0.847 . S
C676 C153 0.806 . S
C688 N178 0.795 . S
C703 C186 0.804 . S
C715 N211 0.792 . S
C730 N244 0.851 . S
C742 C219 0.841 . S
C757 N277 0.798 . S
C769 C318 0.799 . S
C784 N310 0.800 . S
C796 C351 0.800 . S
C811 C384 0.800 . S
C823 N343 0.784 . S
C838 C285 0.840 . S
C850 N376 0.851 . S
C865 C516 0.839 . S
C877 N409 0.851 . S
C892 C417 0.837 . S
C904 N442 0.850 . S
C919 N475 0.800 . S
C931 C450 0.799 . S
C946 N508 0.805 . S
C958 C483 0.802 . S
C973 N2 1.883 . S
C985 N68 1.887 . S
C1000 N35 1.885 . S
C1012 N101 1.881 . S
C1027 N200 1.870 . S
C1039 N134 1.874 . S
C1054 N233 1.868 . S
C1066 N167 1.869 . S
C1081 N332 1.880 . S
C1093 N266 1.869 . S
C1108 N299 1.893 . S
C1120 N365 1.906 . S
C1135 N398 1.893 . S
C1147 N464 1.877 . S
C1162 N431 1.903 . S
C1174 N497 1.909 . S
C1189 C18 1.778 . S
C1201 C282 1.831 . S
C1216 C51 1.834 . S
C1228 C315 1.780 . S
C1243 C84 1.793 . S
C1255 C348 1.812 . S
C1270 C381 1.803 . S
C1282 C117 1.802 . S
C1297 C414 1.778 . S
C1309 C150 1.832 . S
C1324 C183 1.778 . S
C1336 C447 1.832 . S
C1351 C216 1.833 . S
C1363 C480 1.779 . S
C1378 C513 1.791 . S
C1390 C249 1.814 . S
C1405 C172 1.590 . S
C1417 C7 1.595 . S
C1432 C205 1.581 . S
C1444 C40 1.581 . S
C1459 C73 1.581 . S
C1471 C238 1.581 . S
C1486 C139 1.590 . S
C1498 C106 1.595 . S
C1513 C271 1.594 . S
C1525 C436 1.584 . S
C1540 C469 1.592 . S
C1552 C304 1.583 . S
C1567 C502 1.599 . S
C1579 C337 1.597 . S
C1594 C370 1.582 . S
C1606 C403 1.582 . S
