# Generated by pormake.
# Topology zfi, (5)-cn, num edge types: 1
# Building blocks:
#     Node 0, Type 0, BuildingBlock: XOMCOT_clean_sbu_1, # of connection points: 5
#     Node 1, Type 0, BuildingBlock: XOMCOT_clean_sbu_1, # of connection points: 5
#     Node 2, Type 0, BuildingBlock: XOMCOT_clean_sbu_1, # of connection points: 5
#     Node 3, Type 0, BuildingBlock: XOMCOT_clean_sbu_1, # of connection points: 5
#     Node 4, Type 0, BuildingBlock: XOMCOT_clean_sbu_1, # of connection points: 5
#     Node 5, Type 0, BuildingBlock: XOMCOT_clean_sbu_1, # of connection points: 5
#     Node 6, Type 0, BuildingBlock: XOMCOT_clean_sbu_1, # of connection points: 5
#     Node 7, Type 0, BuildingBlock: XOMCOT_clean_sbu_1, # of connection points: 5
#     Node 8, Type 0, BuildingBlock: XOMCOT_clean_sbu_1, # of connection points: 5
#     Node 9, Type 0, BuildingBlock: XOMCOT_clean_sbu_1, # of connection points: 5
#     Node 10, Type 0, BuildingBlock: XOMCOT_clean_sbu_1, # of connection points: 5
#     Node 11, Type 0, BuildingBlock: XOMCOT_clean_sbu_1, # of connection points: 5
#     Node 12, Type 0, BuildingBlock: XOMCOT_clean_sbu_1, # of connection points: 5
#     Node 13, Type 0, BuildingBlock: XOMCOT_clean_sbu_1, # of connection points: 5
#     Node 14, Type 0, BuildingBlock: XOMCOT_clean_sbu_1, # of connection points: 5
#     Node 15, Type 0, BuildingBlock: XOMCOT_clean_sbu_1, # of connection points: 5
#     Edge 16, Type (0, 0), BuildingBlock: ZUJKAS_clean_linker_0, # of connection points: 2
#     Edge 17, Type (0, 0), BuildingBlock: ZUJKAS_clean_linker_0, # of connection points: 2
#     Edge 18, Type (0, 0), BuildingBlock: ZUJKAS_clean_linker_0, # of connection points: 2
#     Edge 19, Type (0, 0), BuildingBlock: ZUJKAS_clean_linker_0, # of connection points: 2
#     Edge 20, Type (0, 0), BuildingBlock: ZUJKAS_clean_linker_0, # of connection points: 2
#     Edge 21, Type (0, 0), BuildingBlock: ZUJKAS_clean_linker_0, # of connection points: 2
#     Edge 22, Type (0, 0), BuildingBlock: ZUJKAS_clean_linker_0, # of connection points: 2
#     Edge 23, Type (0, 0), BuildingBlock: ZUJKAS_clean_linker_0, # of connection points: 2
#     Edge 24, Type (0, 0), BuildingBlock: ZUJKAS_clean_linker_0, # of connection points: 2
#     Edge 25, Type (0, 0), BuildingBlock: ZUJKAS_clean_linker_0, # of connection points: 2
#     Edge 26, Type (0, 0), BuildingBlock: ZUJKAS_clean_linker_0, # of connection points: 2
#     Edge 27, Type (0, 0), BuildingBlock: ZUJKAS_clean_linker_0, # of connection points: 2
#     Edge 28, Type (0, 0), BuildingBlock: ZUJKAS_clean_linker_0, # of connection points: 2
#     Edge 29, Type (0, 0), BuildingBlock: ZUJKAS_clean_linker_0, # of connection points: 2
#     Edge 30, Type (0, 0), BuildingBlock: ZUJKAS_clean_linker_0, # of connection points: 2
#     Edge 31, Type (0, 0), BuildingBlock: ZUJKAS_clean_linker_0, # of connection points: 2
#     Edge 32, Type (0, 0), BuildingBlock: ZUJKAS_clean_linker_0, # of connection points: 2
#     Edge 33, Type (0, 0), BuildingBlock: ZUJKAS_clean_linker_0, # of connection points: 2
#     Edge 34, Type (0, 0), BuildingBlock: ZUJKAS_clean_linker_0, # of connection points: 2
#     Edge 35, Type (0, 0), BuildingBlock: ZUJKAS_clean_linker_0, # of connection points: 2
#     Edge 36, Type (0, 0), BuildingBlock: ZUJKAS_clean_linker_0, # of connection points: 2
#     Edge 37, Type (0, 0), BuildingBlock: ZUJKAS_clean_linker_0, # of connection points: 2
#     Edge 38, Type (0, 0), BuildingBlock: ZUJKAS_clean_linker_0, # of connection points: 2
#     Edge 39, Type (0, 0), BuildingBlock: ZUJKAS_clean_linker_0, # of connection points: 2
#     Edge 40, Type (0, 0), BuildingBlock: ZUJKAS_clean_linker_0, # of connection points: 2
#     Edge 41, Type (0, 0), BuildingBlock: ZUJKAS_clean_linker_0, # of connection points: 2
#     Edge 42, Type (0, 0), BuildingBlock: ZUJKAS_clean_linker_0, # of connection points: 2
#     Edge 43, Type (0, 0), BuildingBlock: ZUJKAS_clean_linker_0, # of connection points: 2
#     Edge 44, Type (0, 0), BuildingBlock: ZUJKAS_clean_linker_0, # of connection points: 2
#     Edge 45, Type (0, 0), BuildingBlock: ZUJKAS_clean_linker_0, # of connection points: 2
#     Edge 46, Type (0, 0), BuildingBlock: ZUJKAS_clean_linker_0, # of connection points: 2
#     Edge 47, Type (0, 0), BuildingBlock: ZUJKAS_clean_linker_0, # of connection points: 2
#     Edge 48, Type (0, 0), BuildingBlock: ZUJKAS_clean_linker_0, # of connection points: 2
#     Edge 49, Type (0, 0), BuildingBlock: ZUJKAS_clean_linker_0, # of connection points: 2
#     Edge 50, Type (0, 0), BuildingBlock: ZUJKAS_clean_linker_0, # of connection points: 2
#     Edge 51, Type (0, 0), BuildingBlock: ZUJKAS_clean_linker_0, # of connection points: 2
#     Edge 52, Type (0, 0), BuildingBlock: ZUJKAS_clean_linker_0, # of connection points: 2
#     Edge 53, Type (0, 0), BuildingBlock: ZUJKAS_clean_linker_0, # of connection points: 2
#     Edge 54, Type (0, 0), BuildingBlock: ZUJKAS_clean_linker_0, # of connection points: 2
#     Edge 55, Type (0, 0), BuildingBlock: ZUJKAS_clean_linker_0, # of connection points: 2
# Relax obj value: 0.102
# Max RMSD: 0.122
# Mean RMSD: 0.122
data_MOF--net-zfi--node1-XOMCOT_clean_sbu_1--edge1-ZUJKAS_clean_linker_0
_symmetry_space_group_name_H-M    P1
_symmetry_Int_Tables_number       1
_symmetry_cell_setting            triclinic
loop_
_symmetry_equiv_pos_as_xyz
'x, y, z'
_cell_length_a     48.707349
_cell_length_b     48.697439
_cell_length_c     62.867705
_cell_angle_alpha  90.149352
_cell_angle_beta   90.095984
_cell_angle_gamma 89.997784
loop_
_atom_site_label
_atom_site_type_symbol
_atom_site_fract_x
_atom_site_fract_y
_atom_site_fract_z
_atom_type_partial_charge
C0 C 0.6251 0.11515 0.13514 0.0
C1 C 0.6346 0.14178 0.13569 0.0
N2 N 0.66167 0.14141 0.13142 0.0
N3 N 0.64603 0.09803 0.13042 0.0
C4 C 0.66801 0.11476 0.12812 0.0
H5 H 0.60433 0.10862 0.13847 0.0
Co6 Co 0.64383 0.05961 0.12915 0.0
C7 C 0.62694 0.04343 0.17324 0.0
O8 O 0.64066 0.02026 0.17181 0.0
N9 N 0.64084 0.02099 0.12758 0.0
C10 C 0.64693 0.9762 0.12221 0.0
C11 C 0.65918 1.0016 0.12166 0.0
C12 C 0.61743 1.00671 0.13112 0.0
N13 N 0.62061 0.97942 0.12822 0.0
O14 O 0.60848 0.06186 0.11562 0.0
H15 H 0.68011 1.00518 0.11694 0.0
H16 H 0.59831 0.01633 0.13573 0.0
O17 O 0.62687 0.06015 0.15756 0.0
C18 C 0.61081 0.06262 0.09543 0.0
O19 O 0.63549 0.06573 0.08736 0.0
N20 N 0.67969 0.05707 0.14026 0.0
C21 C 0.73502 0.04807 0.14939 0.0
C22 C 0.71638 0.05429 0.16574 0.0
C23 C 0.68877 0.0594 0.16077 0.0
C24 C 0.69801 0.05352 0.12415 0.0
C25 C 0.72563 0.04867 0.12832 0.0
H26 H 0.67505 0.06508 0.17344 0.0
H27 H 0.69074 0.05326 0.10787 0.0
H28 H 0.68842 0.10767 0.12426 0.0
H29 H 0.62274 0.15988 0.13965 0.0
H30 H 0.65685 0.95685 0.11865 0.0
H31 H 0.72302 0.05499 0.18218 0.0
H32 H 0.73919 0.04411 0.11514 0.0
C33 C 0.39403 0.64366 0.10406 0.0
C34 C 0.36725 0.65227 0.10554 0.0
N35 N 0.36412 0.66621 0.12393 0.0
N36 N 0.40799 0.65193 0.12148 0.0
C37 C 0.38908 0.66535 0.1334 0.0
H38 H 0.40291 0.63335 0.0905 0.0
Co39 Co 0.44622 0.64983 0.12561 0.0
C40 C 0.42714 0.61234 0.15914 0.0
O41 O 0.41426 0.59748 0.14478 0.0
N42 N 0.48403 0.64781 0.12946 0.0
C43 C 0.52858 0.65683 0.12807 0.0
C44 C 0.50274 0.66686 0.12398 0.0
C45 C 0.49886 0.62631 0.13662 0.0
N46 N 0.52619 0.63115 0.13591 0.0
O47 O 0.4476 0.61454 0.11162 0.0
H48 H 0.49792 0.68662 0.1171 0.0
H49 H 0.48966 0.60709 0.14141 0.0
O50 O 0.44062 0.63348 0.15339 0.0
C51 C 0.45595 0.61752 0.09252 0.0
O52 O 0.45985 0.64263 0.0855 0.0
N53 N 0.44634 0.68511 0.13741 0.0
C54 C 0.45766 0.73958 0.14773 0.0
C55 C 0.46238 0.71857 0.16255 0.0
C56 C 0.4566 0.69134 0.15706 0.0
C57 C 0.4403 0.70536 0.12325 0.0
C58 C 0.44553 0.73279 0.12817 0.0
H59 H 0.46243 0.67523 0.16793 0.0
H60 H 0.43298 0.7 0.10753 0.0
H61 H 0.39393 0.67539 0.14831 0.0
H62 H 0.35182 0.65003 0.09325 0.0
H63 H 0.54759 0.66767 0.12522 0.0
H64 H 0.4718 0.72298 0.1778 0.0
H65 H 0.44202 0.74825 0.11611 0.0
C66 C 0.86387 0.4052 0.09877 0.0
C67 C 0.85518 0.37841 0.09849 0.0
N68 N 0.83922 0.37415 0.11561 0.0
N69 N 0.85359 0.41806 0.11606 0.0
C70 C 0.839 0.39835 0.12623 0.0
H71 H 0.87585 0.41476 0.08643 0.0
Co72 Co 0.85535 0.45611 0.12148 0.0
C73 C 0.89341 0.44478 0.15787 0.0
O74 O 0.91525 0.44489 0.14564 0.0
N75 N 0.85724 0.4938 0.12649 0.0
C76 C 0.84893 0.53852 0.12475 0.0
C77 C 0.83839 0.51277 0.121 0.0
C78 C 0.87907 0.50841 0.13341 0.0
N79 N 0.87467 0.53576 0.13241 0.0
O80 O 0.89125 0.45806 0.1086 0.0
H81 H 0.81863 0.50821 0.11396 0.0
H82 H 0.89846 0.49916 0.13774 0.0
O83 O 0.86972 0.44878 0.14979 0.0
C84 C 0.88877 0.46743 0.08973 0.0
O85 O 0.86386 0.47192 0.08243 0.0
N86 N 0.81944 0.45577 0.13206 0.0
C87 C 0.76439 0.46681 0.14082 0.0
C88 C 0.78479 0.47154 0.15625 0.0
C89 C 0.81227 0.46584 0.15156 0.0
C90 C 0.79985 0.44971 0.1173 0.0
C91 C 0.77219 0.45458 0.12149 0.0
H92 H 0.82787 0.4717 0.16293 0.0
H93 H 0.80588 0.44236 0.10174 0.0
H94 H 0.82684 0.40218 0.14033 0.0
H95 H 0.85949 0.36349 0.08614 0.0
H96 H 0.83864 0.55775 0.12151 0.0
H97 H 0.77995 0.48138 0.17125 0.0
H98 H 0.75721 0.45 0.10924 0.0
C99 C 0.10446 0.87103 0.10199 0.0
C100 C 0.13096 0.86143 0.10221 0.0
N101 N 0.13414 0.84499 0.11922 0.0
N102 N 0.09071 0.86086 0.11884 0.0
C103 C 0.10959 0.8454 0.12925 0.0
H104 H 0.09576 0.88376 0.08969 0.0
Co105 Co 0.05272 0.86418 0.12411 0.0
C106 C 0.06724 0.90138 0.16055 0.0
O107 O 0.0691 0.92328 0.14849 0.0
N108 N 0.01526 0.86745 0.12907 0.0
C109 C 0.97037 0.86019 0.12737 0.0
C110 C 0.99578 0.84973 0.12244 0.0
C111 C 1.0013 0.88866 0.13774 0.0
N112 N 0.97385 0.88477 0.13693 0.0
O113 O 0.05199 0.90021 0.11128 0.0
H114 H 0.9998 0.8308 0.11397 0.0
H115 H 0.01111 0.9069 0.14401 0.0
O116 O 0.06091 0.87828 0.15233 0.0
C117 C 0.04332 0.89809 0.09214 0.0
O118 O 0.03885 0.87334 0.08448 0.0
N119 N 0.05166 0.82832 0.13479 0.0
C120 C 0.03965 0.77389 0.14474 0.0
C121 C 0.03629 0.79477 0.15995 0.0
C122 C 0.04226 0.82194 0.15462 0.0
C123 C 0.05615 0.80821 0.12009 0.0
C124 C 0.05052 0.7808 0.1248 0.0
H125 H 0.03742 0.83792 0.16594 0.0
H126 H 0.06274 0.8137 0.10424 0.0
H127 H 0.10493 0.8333 0.1432 0.0
H128 H 0.14644 0.86564 0.09033 0.0
H129 H 0.95084 0.85097 0.1233 0.0
H130 H 0.02791 0.79032 0.17551 0.0
H131 H 0.05295 0.76546 0.11244 0.0
C132 C 0.18283 0.92415 0.45188 0.0
C133 C 0.19331 0.89887 0.45692 0.0
N134 N 0.18503 0.88065 0.44206 0.0
N135 N 0.16779 0.92215 0.43394 0.0
C136 C 0.16918 0.89527 0.42844 0.0
H137 H 0.18762 0.94322 0.45992 0.0
Co138 Co 0.15437 0.95311 0.41964 0.0
C139 C 0.15583 0.92573 0.37598 0.0
O140 O 0.18058 0.93467 0.37183 0.0
N141 N 0.14031 0.98417 0.40557 0.0
C142 C 0.13051 0.01596 0.38138 0.0
C143 C 0.14407 0.99175 0.38512 0.0
C144 C 0.12442 1.00424 0.41392 0.0
N145 N 0.11812 0.02378 0.39952 0.0
O146 O 0.11842 0.94671 0.43161 0.0
H147 H 0.1565 0.98097 0.37366 0.0
H148 H 0.1182 1.00504 0.43039 0.0
O149 O 0.14442 0.9312 0.39389 0.0
C150 C 0.11818 0.95615 0.4506 0.0
O151 O 0.14077 0.96734 0.45807 0.0
N152 N 0.19095 0.96158 0.41062 0.0
C153 C 0.24573 0.97791 0.40568 0.0
C154 C 0.23834 0.95025 0.40369 0.0
C155 C 0.21095 0.94247 0.4065 0.0
C156 C 0.19836 0.98841 0.41357 0.0
C157 C 0.22532 0.99707 0.41063 0.0
H158 H 0.20599 0.92094 0.4053 0.0
H159 H 0.18366 1.0033 0.41922 0.0
H160 H 0.16033 0.88702 0.414 0.0
H161 H 0.20779 0.89481 0.4696 0.0
H162 H 0.12987 0.02696 0.36645 0.0
H163 H 0.25363 0.93471 0.40027 0.0
H164 H 0.23039 0.01847 0.41332 0.0
C165 C 0.62631 0.13501 0.41733 0.0
C166 C 0.65276 0.14514 0.41713 0.0
N167 N 0.65215 0.17119 0.42436 0.0
N168 N 0.60915 0.15459 0.4247 0.0
C169 C 0.62562 0.17623 0.42908 0.0
H170 H 0.6199 0.11489 0.41196 0.0
Co171 Co 0.57092 0.15256 0.42681 0.0
C172 C 0.55237 0.13786 0.38273 0.0
O173 O 0.5302 0.153 0.38486 0.0
N174 N 0.53247 0.14994 0.42944 0.0
C175 C 0.48852 0.15585 0.43791 0.0
C176 C 0.51416 0.16757 0.43808 0.0
C177 C 0.51742 0.12732 0.42481 0.0
N178 N 0.49058 0.13052 0.42948 0.0
O179 O 0.57341 0.1167 0.4392 0.0
H180 H 0.51876 0.1874 0.44481 0.0
H181 H 0.52609 0.1089 0.4179 0.0
O182 O 0.5697 0.13643 0.39803 0.0
C183 C 0.57408 0.11783 0.45945 0.0
O184 O 0.57715 0.142 0.4685 0.0
N185 N 0.56829 0.1888 0.41656 0.0
C186 C 0.56139 0.24465 0.40852 0.0
C187 C 0.56681 0.22628 0.39181 0.0
C188 C 0.57098 0.1984 0.39625 0.0
C189 C 0.56524 0.20678 0.43301 0.0
C190 C 0.56146 0.23467 0.42939 0.0
H191 H 0.57645 0.18488 0.38335 0.0
H192 H 0.56518 0.19916 0.44916 0.0
H193 H 0.6184 0.19553 0.43545 0.0
H194 H 0.67082 0.13454 0.41137 0.0
H195 H 0.46995 0.16507 0.4441 0.0
H196 H 0.56782 0.23342 0.37553 0.0
H197 H 0.5576 0.24811 0.44281 0.0
C198 C 0.39272 0.61886 0.41531 0.0
C199 C 0.38231 0.64519 0.41561 0.0
N200 N 0.35658 0.64418 0.42339 0.0
N201 N 0.37368 0.60137 0.42295 0.0
C202 C 0.35202 0.61751 0.42794 0.0
H203 H 0.41268 0.61276 0.40943 0.0
Co204 Co 0.37641 0.56313 0.42466 0.0
C205 C 0.38678 0.54512 0.37998 0.0
O206 O 0.37171 0.52314 0.38322 0.0
N207 N 0.37988 0.52461 0.42681 0.0
C208 C 0.37579 0.48029 0.43478 0.0
C209 C 0.36339 0.50559 0.43582 0.0
C210 C 0.40251 0.51029 0.42105 0.0
N211 N 0.40043 0.48325 0.42542 0.0
O212 O 0.41301 0.56593 0.43579 0.0
H213 H 0.34394 0.50944 0.44336 0.0
H214 H 0.42016 0.51964 0.41356 0.0
O215 O 0.39029 0.56243 0.39514 0.0
C216 C 0.41293 0.56834 0.45599 0.0
O217 O 0.38938 0.57317 0.46547 0.0
N218 N 0.33953 0.56021 0.41581 0.0
C219 C 0.28338 0.55324 0.40915 0.0
C220 C 0.30067 0.56059 0.39226 0.0
C221 C 0.3287 0.56476 0.39606 0.0
C222 C 0.32255 0.55564 0.43262 0.0
C223 C 0.29453 0.55166 0.42965 0.0
H224 H 0.34134 0.57184 0.38314 0.0
H225 H 0.33106 0.55462 0.44851 0.0
H226 H 0.33306 0.60994 0.43461 0.0
H227 H 0.39247 0.66347 0.40984 0.0
H228 H 0.36757 0.46133 0.44108 0.0
H229 H 0.2926 0.56317 0.37633 0.0
H230 H 0.28192 0.54646 0.44323 0.0
C231 C 0.93034 0.34798 0.45181 0.0
C232 C 0.90516 0.33722 0.45683 0.0
N233 N 0.88707 0.34453 0.44161 0.0
N234 N 0.92837 0.36223 0.43353 0.0
C235 C 0.90164 0.36011 0.42781 0.0
H236 H 0.94935 0.34391 0.46013 0.0
Co237 Co 0.95911 0.37558 0.41892 0.0
C238 C 0.93254 0.37018 0.37512 0.0
O239 O 0.94298 0.34577 0.37179 0.0
N240 N 0.98991 0.38954 0.40438 0.0
C241 C 0.02092 0.39908 0.37952 0.0
C242 C 0.99801 0.38392 0.38429 0.0
C243 C 0.00858 0.40793 0.41157 0.0
N244 N 0.02751 0.41425 0.39669 0.0
O245 O 0.95149 0.41214 0.42945 0.0
H246 H 0.98844 0.36928 0.37377 0.0
H247 H 0.00824 0.41676 0.42734 0.0
O248 O 0.93711 0.38293 0.39267 0.0
C249 C 0.96014 0.41371 0.44864 0.0
O250 O 0.97159 0.39192 0.45712 0.0
N251 N 0.96875 0.33876 0.41151 0.0
C252 C 0.9867 0.28418 0.40929 0.0
C253 C 0.95897 0.29068 0.40622 0.0
C254 C 0.95035 0.318 0.40776 0.0
C255 C 0.99558 0.33234 0.41554 0.0
C256 C 1.00506 0.30544 0.41402 0.0
H257 H 0.92876 0.32232 0.40586 0.0
H258 H 0.00978 0.34794 0.42089 0.0
H259 H 0.89346 0.36826 0.41313 0.0
H260 H 0.90111 0.32321 0.46978 0.0
H261 H 0.03222 0.39846 0.36472 0.0
H262 H 0.944 0.2748 0.40285 0.0
H263 H 0.02644 0.3012 0.41747 0.0
C264 C 0.3735 0.89488 0.94328 0.0
C265 C 0.36399 0.86854 0.94079 0.0
N266 N 0.34812 0.86745 0.92322 0.0
N267 N 0.36388 0.91069 0.92734 0.0
C268 C 0.34874 0.89326 0.91523 0.0
H269 H 0.38541 0.90211 0.95665 0.0
Co270 Co 0.36632 0.94924 0.92556 0.0
C271 C 0.38298 0.9616 0.88025 0.0
O272 O 0.37519 0.98731 0.88192 0.0
N273 N 0.36871 0.98794 0.92455 0.0
C274 C 0.35982 0.03276 0.92633 0.0
C275 C 0.34868 1.00682 0.92737 0.0
C276 C 0.39191 1.00303 0.92244 0.0
N277 N 0.38704 0.03027 0.92325 0.0
O278 O 0.40325 0.9485 0.93684 0.0
H279 H 0.32731 1.00227 0.93025 0.0
H280 H 0.41196 0.99421 0.91963 0.0
O281 O 0.37996 0.94519 0.896 0.0
C282 C 0.4021 0.95418 0.95668 0.0
O283 O 0.37773 0.95624 0.96553 0.0
N284 N 0.32938 0.95061 0.91708 0.0
C285 C 0.27319 0.9607 0.91386 0.0
C286 C 0.29002 0.9617 0.89576 0.0
C287 C 0.31818 0.95647 0.89768 0.0
C288 C 0.31298 0.94752 0.93444 0.0
C289 C 0.28487 0.95238 0.93319 0.0
H290 H 0.33071 0.95825 0.88372 0.0
H291 H 0.32214 0.94262 0.94965 0.0
H292 H 0.33738 0.89975 0.90134 0.0
H293 H 0.3671 0.85201 0.952 0.0
H294 H 0.34881 0.05193 0.9281 0.0
H295 H 0.28185 0.96793 0.88049 0.0
H296 H 0.27257 0.95068 0.94747 0.0
C297 C 0.6101 0.37389 0.946 0.0
C298 C 0.63669 0.36459 0.94651 0.0
N299 N 0.64007 0.34649 0.93055 0.0
N300 N 0.59645 0.36177 0.92976 0.0
C301 C 0.6156 0.3455 0.92041 0.0
H302 H 0.60122 0.38756 0.95762 0.0
Co303 Co 0.55806 0.36303 0.92519 0.0
C304 C 0.54952 0.38027 0.87973 0.0
O305 O 0.52523 0.36858 0.87948 0.0
N306 N 0.51952 0.36427 0.92144 0.0
C307 C 0.47514 0.35385 0.91833 0.0
C308 C 0.50109 0.34347 0.92149 0.0
C309 C 0.50401 0.38711 0.91879 0.0
N310 N 0.47711 0.38129 0.91667 0.0
O311 O 0.55628 0.39929 0.93766 0.0
H312 H 0.50589 0.32203 0.92365 0.0
H313 H 0.51237 0.40765 0.91768 0.0
O314 O 0.56454 0.37881 0.89649 0.0
C315 C 0.5479 0.39718 0.95684 0.0
O316 O 0.54446 0.3724 0.96464 0.0
N317 N 0.55891 0.32649 0.91546 0.0
C318 C 0.55023 0.27045 0.90941 0.0
C319 C 0.55306 0.28808 0.89192 0.0
C320 C 0.55777 0.31611 0.89526 0.0
C321 C 0.55847 0.3093 0.93252 0.0
C322 C 0.55413 0.28122 0.92988 0.0
H323 H 0.55983 0.3291 0.88159 0.0
H324 H 0.55977 0.31781 0.9484 0.0
H325 H 0.61128 0.33165 0.90735 0.0
H326 H 0.65202 0.36986 0.95832 0.0
H327 H 0.45626 0.34216 0.91761 0.0
H328 H 0.55089 0.28038 0.87582 0.0
H329 H 0.55203 0.26843 0.94386 0.0
C330 C 0.13203 0.61569 0.9386 0.0
C331 C 0.1412 0.6423 0.93746 0.0
N332 N 0.16059 0.64374 0.92229 0.0
N333 N 0.14552 0.60006 0.92422 0.0
C334 C 0.16244 0.61804 0.91422 0.0
H335 H 0.11734 0.60829 0.95004 0.0
Co336 Co 0.14442 0.56121 0.92221 0.0
C337 C 0.12578 0.54875 0.87719 0.0
O338 O 0.13438 0.52325 0.87825 0.0
N339 N 0.14334 0.52242 0.92101 0.0
C340 C 0.15445 0.4781 0.92228 0.0
C341 C 0.16425 0.50451 0.92374 0.0
C342 C 0.12088 0.50623 0.91875 0.0
N343 N 0.12716 0.47925 0.91908 0.0
O344 O 0.10805 0.56057 0.93429 0.0
H345 H 0.18536 0.51005 0.92681 0.0
H346 H 0.10039 0.51412 0.91607 0.0
O347 O 0.12921 0.56496 0.89309 0.0
C348 C 0.11014 0.55447 0.95399 0.0
O349 O 0.13491 0.55252 0.9622 0.0
N350 N 0.18106 0.56096 0.91282 0.0
C351 C 0.23685 0.54898 0.90891 0.0
C352 C 0.21917 0.54685 0.89129 0.0
C353 C 0.19131 0.55323 0.8935 0.0
C354 C 0.19833 0.56555 0.92952 0.0
C355 C 0.22632 0.56008 0.92784 0.0
H356 H 0.17816 0.55025 0.88 0.0
H357 H 0.18996 0.57187 0.94469 0.0
H358 H 0.17723 0.61212 0.90225 0.0
H359 H 0.13481 0.65909 0.94763 0.0
H360 H 0.16644 0.45948 0.92376 0.0
H361 H 0.22622 0.53852 0.87628 0.0
H362 H 0.23922 0.5631 0.94169 0.0
C363 C 0.89617 0.12706 0.90999 0.0
C364 C 0.86963 0.13684 0.90953 0.0
N365 N 0.87009 0.16346 0.91535 0.0
N366 N 0.91328 0.14735 0.91621 0.0
C367 C 0.89668 0.16924 0.91945 0.0
H368 H 0.90263 0.10651 0.90576 0.0
Co369 Co 0.95153 0.14463 0.9188 0.0
C370 C 0.97066 0.1312 0.87469 0.0
O371 O 0.99332 0.14528 0.87787 0.0
N372 N 0.98993 0.14111 0.9218 0.0
C373 C 0.0341 0.14581 0.93021 0.0
C374 C 0.00882 0.15834 0.93024 0.0
C375 C 1.00428 0.11797 0.9174 0.0
N376 N 0.03121 0.12038 0.92209 0.0
O377 O 0.94819 0.10845 0.93075 0.0
H378 H 1.00485 0.17849 0.93663 0.0
H379 H 0.99507 0.09975 0.91056 0.0
O380 O 0.95283 0.1295 0.88959 0.0
C381 C 0.94696 0.10993 0.95099 0.0
O382 O 0.94388 0.13431 0.95968 0.0
N383 N 0.95509 0.1812 0.90936 0.0
C384 C 0.96582 0.23676 0.90275 0.0
C385 C 0.96 0.21932 0.88551 0.0
C386 C 0.95388 0.19161 0.88921 0.0
C387 C 0.95809 0.19847 0.92628 0.0
C388 C 0.96374 0.22622 0.92338 0.0
H389 H 0.94842 0.17885 0.87585 0.0
H390 H 0.95721 0.19026 0.94225 0.0
H391 H 0.90378 0.18914 0.92474 0.0
H392 H 0.85152 0.12551 0.90473 0.0
H393 H 0.05301 0.15456 0.93625 0.0
H394 H 0.96042 0.22698 0.86935 0.0
H395 H 0.9678 0.23895 0.93719 0.0
C396 C 0.87919 0.11335 0.59783 0.0
C397 C 0.86948 0.1398 0.59723 0.0
N398 N 0.85187 0.1433 0.61347 0.0
N399 N 0.86782 0.09993 0.6144 0.0
C400 C 0.85163 0.11905 0.62388 0.0
H401 H 0.89273 0.1044 0.58616 0.0
Co402 Co 0.8702 0.06181 0.61982 0.0
C403 C 0.90639 0.08293 0.65393 0.0
O404 O 0.92193 0.09511 0.63974 0.0
N405 N 0.87252 0.02435 0.62487 0.0
C406 C 0.86521 0.97947 0.62323 0.0
C407 C 0.85463 1.00491 0.61848 0.0
C408 C 0.89383 0.0104 0.63332 0.0
N409 N 0.88998 0.98294 0.63248 0.0
O410 O 0.90593 0.05985 0.60664 0.0
H411 H 0.83562 0.00893 0.61014 0.0
H412 H 0.91218 0.02026 0.63934 0.0
O413 O 0.88551 0.06919 0.64785 0.0
C414 C 0.90285 0.05096 0.58764 0.0
O415 O 0.8777 0.04754 0.58048 0.0
N416 N 0.83452 0.06174 0.6307 0.0
C417 C 0.78006 0.04894 0.63986 0.0
C418 C 0.80043 0.04699 0.65564 0.0
C419 C 0.82767 0.05331 0.65068 0.0
C420 C 0.81483 0.06528 0.61555 0.0
C421 C 0.78743 0.0592 0.61983 0.0
H422 H 0.84336 0.04933 0.66239 0.0
H423 H 0.82075 0.07112 0.59962 0.0
H424 H 0.83842 0.11475 0.63729 0.0
H425 H 0.87425 0.15497 0.58523 0.0
H426 H 0.85598 0.95994 0.61914 0.0
H427 H 0.79563 0.03923 0.67132 0.0
H428 H 0.77259 0.06056 0.60703 0.0
C429 C 0.4026 0.88146 0.60426 0.0
C430 C 0.37604 0.8721 0.60366 0.0
N431 N 0.37353 0.85169 0.61787 0.0
N432 N 0.41718 0.86698 0.61874 0.0
C433 C 0.39851 0.8493 0.62706 0.0
H434 H 0.41071 0.89707 0.5939 0.0
Co435 Co 0.45585 0.86808 0.62261 0.0
C436 C 0.46532 0.88658 0.66797 0.0
O437 O 0.4909 0.87814 0.66763 0.0
N438 N 0.49452 0.86914 0.62554 0.0
C439 C 0.53897 0.85841 0.62601 0.0
C440 C 0.51275 0.84826 0.62416 0.0
C441 C 0.51042 0.89183 0.62768 0.0
N442 N 0.53745 0.88585 0.62825 0.0
O443 O 0.45749 0.90453 0.61064 0.0
H444 H 0.50765 0.82694 0.62166 0.0
H445 H 0.50226 0.91236 0.62949 0.0
O446 O 0.44992 0.88319 0.6516 0.0
C447 C 0.46434 0.90292 0.59106 0.0
O448 O 0.46608 0.8784 0.58237 0.0
N449 N 0.45533 0.83149 0.63209 0.0
C450 C 0.46462 0.7756 0.63841 0.0
C451 C 0.46271 0.79367 0.65579 0.0
C452 C 0.45794 0.82162 0.65232 0.0
C453 C 0.45477 0.8139 0.61521 0.0
C454 C 0.45947 0.7859 0.61798 0.0
H455 H 0.45725 0.83499 0.6659 0.0
H456 H 0.4525 0.82204 0.59931 0.0
H457 H 0.40341 0.83368 0.63865 0.0
H458 H 0.36004 0.87908 0.59299 0.0
H459 H 0.55772 0.84651 0.62532 0.0
H460 H 0.46585 0.78645 0.67189 0.0
H461 H 0.46089 0.77286 0.60404 0.0
C462 C 0.63173 0.39896 0.63408 0.0
C463 C 0.64109 0.37224 0.63417 0.0
N464 N 0.66794 0.37249 0.6292 0.0
N465 N 0.65254 0.41599 0.6289 0.0
C466 C 0.67429 0.3991 0.62591 0.0
H467 H 0.61116 0.4056 0.63801 0.0
Co468 Co 0.65078 0.45453 0.62783 0.0
C469 C 0.63771 0.47121 0.67262 0.0
O470 O 0.65158 0.49417 0.67048 0.0
N471 N 0.6483 0.49325 0.62652 0.0
C472 C 0.65529 0.53801 0.62167 0.0
C473 C 0.66699 0.51237 0.62073 0.0
C474 C 0.62523 0.50797 0.63041 0.0
N475 N 0.629 0.53519 0.62778 0.0
O476 O 0.61436 0.45284 0.61609 0.0
H477 H 0.68778 0.50847 0.61579 0.0
H478 H 0.6061 0.49888 0.63558 0.0
O479 O 0.63616 0.45433 0.65702 0.0
C480 C 0.61482 0.45089 0.59586 0.0
O481 O 0.6385 0.44598 0.5866 0.0
N482 N 0.6875 0.45654 0.63707 0.0
C483 C 0.74373 0.46415 0.64299 0.0
C484 C 0.72651 0.45893 0.66041 0.0
C485 C 0.69839 0.4545 0.65706 0.0
C486 C 0.70434 0.45935 0.61994 0.0
C487 C 0.7324 0.46341 0.62251 0.0
H488 H 0.68573 0.44954 0.67053 0.0
H489 H 0.69556 0.45956 0.60412 0.0
H490 H 0.69457 0.40599 0.62153 0.0
H491 H 0.62931 0.35417 0.63828 0.0
H492 H 0.66524 0.5572 0.61772 0.0
H493 H 0.73467 0.45847 0.67644 0.0
H494 H 0.74485 0.46727 0.60857 0.0
C495 C 0.11631 0.63257 0.63006 0.0
C496 C 0.14299 0.64198 0.63035 0.0
N497 N 0.14267 0.66895 0.62573 0.0
N498 N 0.09925 0.65346 0.62512 0.0
C499 C 0.11604 0.67532 0.62246 0.0
H500 H 0.10971 0.61188 0.63362 0.0
Co501 Co 0.06085 0.65154 0.6236 0.0
C502 C 0.04379 0.63772 0.6679 0.0
O503 O 0.02176 0.65305 0.66576 0.0
N504 N 0.02226 0.64876 0.62169 0.0
C505 C 0.97784 0.65379 0.61428 0.0
C506 C 1.00324 0.66607 0.61362 0.0
C507 C 0.00784 0.62585 0.62653 0.0
N508 N 0.98075 0.62845 0.62247 0.0
O509 O 0.06282 0.61583 0.61063 0.0
H510 H 1.00719 0.68603 0.60696 0.0
H511 H 0.0172 0.60761 0.63313 0.0
O512 O 0.06064 0.63543 0.65237 0.0
C513 C 0.06407 0.61793 0.59044 0.0
O514 O 0.06824 0.64241 0.5823 0.0
N515 N 0.05855 0.68773 0.63415 0.0
C516 C 0.05105 0.74338 0.64284 0.0
C517 C 0.05808 0.72507 0.65917 0.0
C518 C 0.06255 0.69732 0.65438 0.0
C519 C 0.05428 0.70572 0.61794 0.0
C520 C 0.0501 0.73351 0.6219 0.0
H521 H 0.06925 0.68387 0.66694 0.0
H522 H 0.05337 0.69816 0.60175 0.0
H523 H 0.10901 0.69566 0.6183 0.0
H524 H 0.16109 0.63015 0.63431 0.0
H525 H 0.95885 0.66264 0.60854 0.0
H526 H 0.06007 0.73215 0.67545 0.0
H527 H 0.04507 0.74691 0.60873 0.0
H528 H 0.57489 0.98162 0.15302 0.0
H529 H 0.5414 0.94499 0.15866 0.0
H530 H 0.58733 0.89189 0.11682 0.0
H531 H 0.62015 0.92867 0.11033 0.0
H532 H 0.53222 0.88966 0.1092 0.0
H533 H 0.55363 0.87754 0.19555 0.0
H534 H 0.54361 0.91147 0.18752 0.0
H535 H 0.57551 0.89732 0.17825 0.0
C536 C 0.57774 0.96229 0.1448 0.0
C537 C 0.60041 0.95811 0.1313 0.0
C538 C 0.55872 0.94124 0.14827 0.0
C539 C 0.56215 0.91555 0.13847 0.0
C540 C 0.5844 0.9115 0.12468 0.0
H541 H 0.50799 0.75335 0.16341 0.0
H542 H 0.52972 0.79846 0.16306 0.0
C543 C 0.60331 0.93252 0.12112 0.0
C544 C 0.54269 0.8927 0.14238 0.0
H545 H 0.51935 0.84908 0.18078 0.0
C546 C 0.5292 0.8809 0.12487 0.0
C547 C 0.539 0.88123 0.16284 0.0
C548 C 0.55384 0.89233 0.18212 0.0
C549 C 0.51269 0.85749 0.12712 0.0
C550 C 0.50902 0.84595 0.14757 0.0
C551 C 0.52197 0.85815 0.16518 0.0
C552 C 0.49415 0.81968 0.15059 0.0
C553 C 0.50047 0.84455 0.1074 0.0
C554 C 0.46654 0.81681 0.14454 0.0
C555 C 0.45403 0.79095 0.14467 0.0
C556 C 0.46884 0.76761 0.15115 0.0
C557 C 0.49589 0.77093 0.15857 0.0
C558 C 0.50841 0.79671 0.15827 0.0
H559 H 0.51014 0.85243 0.09263 0.0
H560 H 0.50284 0.82188 0.10774 0.0
H561 H 0.47823 0.84935 0.10667 0.0
H562 H 0.45496 0.8344 0.13903 0.0
H563 H 0.43306 0.78905 0.1391 0.0
H564 H 0.73358 0.4691 0.17764 0.0
H565 H 0.68888 0.49144 0.18255 0.0
H566 H 0.68627 0.51102 0.11578 0.0
H567 H 0.73096 0.4899 0.11079 0.0
H568 H 0.67828 0.54838 0.1722 0.0
H569 H 0.60943 0.47761 0.12817 0.0
H570 H 0.64268 0.46724 0.13814 0.0
H571 H 0.64003 0.48639 0.1138 0.0
C572 C 0.72345 0.47804 0.16397 0.0
C573 C 0.73595 0.47747 0.14378 0.0
C574 C 0.69784 0.49063 0.16681 0.0
C575 C 0.68413 0.50246 0.14946 0.0
C576 C 0.69621 0.50141 0.12927 0.0
H577 H 0.57969 0.63462 0.12364 0.0
H578 H 0.61631 0.60218 0.13108 0.0
C579 C 0.72181 0.48914 0.12646 0.0
C580 C 0.65839 0.51816 0.15242 0.0
H581 H 0.59303 0.5238 0.13323 0.0
C582 C 0.65944 0.54274 0.16407 0.0
C583 C 0.6338 0.51066 0.14192 0.0
C584 C 0.63124 0.48389 0.12996 0.0
C585 C 0.63707 0.56091 0.16434 0.0
C586 C 0.6132 0.5543 0.15258 0.0
C587 C 0.61148 0.52889 0.14209 0.0
C588 C 0.59092 0.57453 0.14933 0.0
C589 C 0.63942 0.58744 0.17664 0.0
C590 C 0.56438 0.56961 0.157 0.0
C591 C 0.54324 0.58838 0.15297 0.0
C592 C 0.54818 0.61223 0.14089 0.0
C593 C 0.57496 0.61691 0.13328 0.0
C594 C 0.59604 0.5983 0.13748 0.0
H595 H 0.65553 0.58622 0.18913 0.0
H596 H 0.64503 0.60422 0.16556 0.0
H597 H 0.61956 0.59286 0.18422 0.0
H598 H 0.56004 0.55126 0.1661 0.0
H599 H 0.52309 0.5841 0.15934 0.0
H600 H 0.99094 0.76014 0.16307 0.0
H601 H 0.96984 0.71491 0.16496 0.0
H602 H 0.04179 0.67885 0.13633 0.0
H603 H 0.06308 0.72439 0.13422 0.0
H604 H 0.9964 0.66373 0.11592 0.0
H605 H 0.97951 0.64842 0.20185 0.0
H606 H 0.96593 0.68084 0.19344 0.0
H607 H 1.00232 0.67453 0.19175 0.0
C608 C 1.00268 0.74252 0.15777 0.0
C609 C 0.02876 0.74585 0.14858 0.0
C610 C 0.99057 0.71659 0.15891 0.0
C611 C 1.00438 0.69337 0.15112 0.0
C612 C 0.03082 0.69647 0.14256 0.0
H613 H 0.91965 0.53378 0.15804 0.0
H614 H 0.95442 0.56964 0.16274 0.0
C615 C 0.04292 0.72248 0.14131 0.0
C616 C 0.98984 0.66663 0.14975 0.0
H617 H 0.94953 0.6227 0.17821 0.0
C618 C 0.98659 0.65449 0.12962 0.0
C619 C 0.97735 0.65426 0.16765 0.0
C620 C 0.98172 0.66505 0.18991 0.0
C621 C 0.96989 0.63132 0.12672 0.0
C622 C 0.95557 0.62039 0.14432 0.0
C623 C 0.96013 0.63143 0.16466 0.0
C624 C 0.9346 0.59859 0.14167 0.0
C625 C 0.96746 0.61901 0.10473 0.0
C626 C 0.91167 0.6032 0.12864 0.0
C627 C 0.89191 0.58276 0.12581 0.0
C628 C 0.89449 0.55729 0.13613 0.0
C629 C 0.91721 0.55297 0.1496 0.0
C630 C 0.93703 0.57348 0.1524 0.0
H631 H 0.98579 0.62376 0.09491 0.0
H632 H 0.9649 0.59637 0.10544 0.0
H633 H 0.94926 0.62786 0.09662 0.0
H634 H 0.90908 0.62266 0.12057 0.0
H635 H 0.87493 0.58684 0.11518 0.0
H636 H 0.97717 0.9405 0.13891 0.0
H637 H 0.93953 0.97255 0.14597 0.0
H638 H 0.88429 0.90444 0.15506 0.0
H639 H 0.9218 0.87229 0.14839 0.0
H640 H 0.86769 0.94444 0.12403 0.0
H641 H 0.8961 0.99173 0.20168 0.0
H642 H 0.92254 0.99019 0.18174 0.0
H643 H 0.90956 0.95898 0.193 0.0
C644 C 0.9572 0.9323 0.14291 0.0
C645 C 0.95249 0.90377 0.14296 0.0
C646 C 0.9357 0.95067 0.14693 0.0
C647 C 0.90921 0.94083 0.15117 0.0
C648 C 0.90463 0.91242 0.15185 0.0
H649 H 0.75186 0.01208 0.18005 0.0
H650 H 0.79654 0.98918 0.1824 0.0
C651 C 0.92605 0.89408 0.14788 0.0
C652 C 0.88566 0.95991 0.15296 0.0
H653 H 0.85702 0.0099 0.1841 0.0
C654 C 0.86537 0.95878 0.13714 0.0
C655 C 0.88274 0.9785 0.17013 0.0
C656 C 0.90374 0.97995 0.18774 0.0
C657 C 0.84217 0.97575 0.138 0.0
C658 C 0.83929 0.99449 0.15506 0.0
C659 C 0.85949 0.99563 0.17097 0.0
C660 C 0.81473 0.01222 0.15667 0.0
C661 C 0.82063 0.97323 0.12081 0.0
C662 C 0.81071 0.03354 0.14206 0.0
C663 C 0.7853 0.04672 0.14073 0.0
C664 C 0.76346 0.03873 0.15397 0.0
C665 C 0.76829 0.01883 0.16973 0.0
C666 C 0.79377 1.00566 0.17105 0.0
H667 H 0.8238 0.95478 0.11067 0.0
H668 H 0.79979 0.97219 0.12791 0.0
H669 H 0.8214 0.99166 0.11047 0.0
H670 H 0.82677 0.03898 0.13094 0.0
H671 H 0.78234 0.06229 0.12867 0.0
H672 H 0.96257 0.23884 0.42703 0.0
H673 H 0.98131 0.19212 0.42877 0.0
H674 H 0.05155 0.21793 0.39225 0.0
H675 H 0.03304 0.26449 0.39045 0.0
H676 H 0.99679 0.15464 0.39666 0.0
H677 H 0.08588 0.18533 0.44614 0.0
H678 H 0.05636 0.20724 0.44235 0.0
H679 H 0.08277 0.20549 0.4224 0.0
C680 C 0.98183 0.23443 0.41915 0.0
C681 C 0.9965 0.25536 0.40877 0.0
C682 C 0.99256 0.20781 0.42026 0.0
C683 C 0.01809 0.2018 0.41108 0.0
C684 C 0.03215 0.22237 0.39994 0.0
H685 H 0.12448 0.07235 0.3795 0.0
H686 H 0.09749 0.11405 0.38475 0.0
C687 C 0.02154 0.24892 0.39887 0.0
C688 C 0.03038 0.17415 0.4131 0.0
H689 H 0.08907 0.14155 0.42867 0.0
C690 C 0.01674 0.15162 0.40398 0.0
C691 C 0.05626 0.17027 0.4229 0.0
C692 C 0.07105 0.19332 0.43421 0.0
C693 C 0.02914 0.12559 0.40326 0.0
C694 C 0.05569 0.1222 0.41193 0.0
C695 C 0.06875 0.14438 0.42194 0.0
C696 C 0.07138 0.09657 0.40896 0.0
C697 C 0.01452 0.10216 0.39236 0.0
C698 C 0.06563 0.07307 0.421 0.0
C699 C 0.08107 0.04912 0.41804 0.0
C700 C 0.10235 0.0484 0.40291 0.0
C701 C 0.10799 0.07211 0.391 0.0
C702 C 0.09271 0.09598 0.39406 0.0
H703 H 0.99449 0.10852 0.38548 0.0
H704 H 0.02759 0.09369 0.37946 0.0
H705 H 0.01085 0.08542 0.40396 0.0
H706 H 0.04929 0.07329 0.43268 0.0
H707 H 0.07614 0.03111 0.42733 0.0
H708 H 0.29033 0.95443 0.42479 0.0
H709 H 0.33688 0.97349 0.42723 0.0
H710 H 0.31286 0.04077 0.38684 0.0
H711 H 0.26638 0.02185 0.38425 0.0
H712 H 0.36991 0.01386 0.38008 0.0
H713 H 0.3442 0.04946 0.46207 0.0
H714 H 0.3373 0.01421 0.45511 0.0
H715 H 0.31794 0.04116 0.44279 0.0
C716 C 0.2952 0.97289 0.41599 0.0
C717 C 0.27475 0.9868 0.40444 0.0
C718 C 0.3217 0.98378 0.41747 0.0
C719 C 0.3281 0.00856 0.40731 0.0
C720 C 0.30822 0.0216 0.39476 0.0
H721 H 0.43666 0.14207 0.42416 0.0
H722 H 0.39929 0.1094 0.41897 0.0
C723 C 0.28171 0.01087 0.3934 0.0
C724 C 0.35447 0.02254 0.41143 0.0
H725 H 0.38671 0.06302 0.44812 0.0
C726 C 0.37388 0.02428 0.39503 0.0
C727 C 0.35926 0.03627 0.43091 0.0
C728 C 0.33862 0.03543 0.44878 0.0
C729 C 0.39788 0.03999 0.39753 0.0
C730 C 0.40232 0.05421 0.41685 0.0
C731 C 0.38319 0.05192 0.43339 0.0
C732 C 0.42542 0.07353 0.41963 0.0
C733 C 0.41778 0.04227 0.37927 0.0
C734 C 0.45245 0.06406 0.42184 0.0
C735 C 0.47393 0.08271 0.42504 0.0
C736 C 0.46864 0.11112 0.42609 0.0
C737 C 0.44145 0.12038 0.42378 0.0
C738 C 0.42007 0.10176 0.42066 0.0
H739 H 0.40989 0.03226 0.36458 0.0
H740 H 0.42213 0.06419 0.37582 0.0
H741 H 0.43748 0.03236 0.38372 0.0
H742 H 0.45686 0.04226 0.42135 0.0
H743 H 0.49454 0.07484 0.42707 0.0
H744 H 0.52462 0.26416 0.37951 0.0
H745 H 0.50436 0.3101 0.37867 0.0
H746 H 0.55983 0.33634 0.42827 0.0
H747 H 0.58005 0.29038 0.42924 0.0
H748 H 0.50601 0.34293 0.43884 0.0
H749 H 0.52488 0.38725 0.35911 0.0
H750 H 0.51135 0.35298 0.3581 0.0
H751 H 0.5447 0.35893 0.36954 0.0
C752 C 0.53315 0.28 0.38968 0.0
C753 C 0.55373 0.27366 0.40457 0.0
C754 C 0.52158 0.30628 0.38917 0.0
C755 C 0.53065 0.32669 0.40336 0.0
C756 C 0.55254 0.3209 0.41718 0.0
H757 H 0.45569 0.48923 0.42089 0.0
H758 H 0.48933 0.45269 0.41469 0.0
C759 C 0.56402 0.29464 0.41776 0.0
C760 C 0.5147 0.35238 0.40606 0.0
H761 H 0.48829 0.40754 0.37949 0.0
C762 C 0.50251 0.35726 0.42593 0.0
C763 C 0.51016 0.37108 0.38923 0.0
C764 C 0.52368 0.36748 0.36785 0.0
C765 C 0.48509 0.37976 0.42922 0.0
C766 C 0.47954 0.3977 0.41215 0.0
C767 C 0.49249 0.39353 0.39248 0.0
C768 C 0.45926 0.42005 0.41437 0.0
C769 C 0.47232 0.38397 0.45084 0.0
C770 C 0.43128 0.41371 0.41593 0.0
C771 C 0.41202 0.43446 0.41931 0.0
C772 C 0.42037 0.46201 0.42125 0.0
C773 C 0.44847 0.46833 0.41926 0.0
C774 C 0.46775 0.44749 0.41578 0.0
H775 H 0.48279 0.37168 0.46331 0.0
H776 H 0.47301 0.40599 0.45546 0.0
H777 H 0.45044 0.37762 0.45023 0.0
H778 H 0.42438 0.39261 0.41471 0.0
H779 H 0.39057 0.42888 0.42033 0.0
H780 H 0.05561 0.42723 0.43262 0.0
H781 H 0.09625 0.45669 0.4353 0.0
H782 H 0.09215 0.47237 0.3679 0.0
H783 H 0.05132 0.44343 0.36517 0.0
H784 H 0.14562 0.44654 0.41262 0.0
H785 H 0.10291 0.54956 0.39441 0.0
H786 H 0.08178 0.52113 0.40289 0.0
H787 H 0.09341 0.52309 0.37583 0.0
C788 C 0.06306 0.43736 0.41846 0.0
C789 C 0.05034 0.43288 0.39866 0.0
C790 C 0.08631 0.45409 0.42 0.0
C791 C 0.09698 0.4669 0.40184 0.0
C792 C 0.08397 0.463 0.38216 0.0
H793 H 0.26275 0.52043 0.37776 0.0
H794 H 0.21623 0.50159 0.37526 0.0
C795 C 0.06085 0.44618 0.38058 0.0
C796 C 0.12302 0.48245 0.40305 0.0
H797 H 0.15174 0.54532 0.3939 0.0
C798 C 0.14694 0.46818 0.40868 0.0
C799 C 0.12458 0.51068 0.39797 0.0
C800 C 0.09929 0.52715 0.39261 0.0
C801 C 0.17257 0.48125 0.40889 0.0
C802 C 0.17428 0.50923 0.40311 0.0
C803 C 0.1503 0.52375 0.39802 0.0
C804 C 0.20096 0.52364 0.40271 0.0
C805 C 0.19766 0.46508 0.41533 0.0
C806 C 0.20728 0.54309 0.41843 0.0
C807 C 0.23377 0.55393 0.41987 0.0
C808 C 0.25429 0.54558 0.40551 0.0
C809 C 0.24735 0.52739 0.38896 0.0
C810 C 0.22088 0.51646 0.3876 0.0
H811 H 0.19217 0.44545 0.42323 0.0
H812 H 0.20994 0.4602 0.40095 0.0
H813 H 0.2108 0.47729 0.42628 0.0
H814 H 0.19206 0.54895 0.43015 0.0
H815 H 0.23846 0.56819 0.43262 0.0
H816 H 0.44058 0.02946 0.93501 0.0
H817 H 0.47413 0.06663 0.93087 0.0
H818 H 0.4119 0.11748 0.90217 0.0
H819 H 0.37832 0.08039 0.90611 0.0
H820 H 0.46864 0.11223 0.88034 0.0
H821 H 0.46941 0.14233 0.96597 0.0
H822 H 0.47205 0.10644 0.95923 0.0
H823 H 0.44068 0.12449 0.95409 0.0
C824 C 0.43412 0.04848 0.92768 0.0
C825 C 0.4068 0.05205 0.92092 0.0
C826 C 0.45325 0.06969 0.92543 0.0
C827 C 0.44539 0.09472 0.91627 0.0
C828 C 0.41827 0.09827 0.9093 0.0
H829 H 0.50842 0.25263 0.88412 0.0
H830 H 0.48669 0.20753 0.88423 0.0
C831 C 0.39909 0.07718 0.9117 0.0
C832 C 0.46524 0.11751 0.91423 0.0
H833 H 0.49643 0.16841 0.9427 0.0
C834 C 0.47495 0.12444 0.89396 0.0
C835 C 0.47354 0.13311 0.93207 0.0
C836 C 0.4634 0.12645 0.95413 0.0
C837 C 0.49254 0.14697 0.891 0.0
C838 C 0.49992 0.16337 0.90873 0.0
C839 C 0.4908 0.15585 0.9291 0.0
C840 C 0.51542 0.18947 0.9065 0.0
C841 C 0.50308 0.15285 0.86892 0.0
C842 C 0.53883 0.19448 0.919 0.0
C843 C 0.55116 0.22042 0.91911 0.0
C844 C 0.54031 0.24183 0.90671 0.0
C845 C 0.5176 0.23643 0.89352 0.0
C846 C 0.50516 0.21058 0.89355 0.0
H847 H 0.50383 0.13384 0.85912 0.0
H848 H 0.48896 0.16743 0.86092 0.0
H849 H 0.52391 0.16209 0.86939 0.0
H850 H 0.54706 0.17854 0.92917 0.0
H851 H 0.5687 0.22396 0.92937 0.0
H852 H 0.43246 0.37357 0.89198 0.0
H853 H 0.39416 0.40542 0.88687 0.0
H854 H 0.43315 0.46353 0.92919 0.0
H855 H 0.47193 0.43204 0.93365 0.0
H856 H 0.35924 0.42237 0.91484 0.0
H857 H 0.41116 0.51402 0.88229 0.0
H858 H 0.42807 0.48117 0.88437 0.0
H859 H 0.42599 0.50366 0.90712 0.0
C860 C 0.43288 0.39325 0.90003 0.0
C861 C 0.45507 0.4004 0.91319 0.0
C862 C 0.41109 0.41148 0.89705 0.0
C863 C 0.41091 0.43711 0.90736 0.0
C864 C 0.43315 0.4443 0.92051 0.0
H865 H 0.26349 0.52244 0.94127 0.0
H866 H 0.30669 0.49778 0.93988 0.0
C867 C 0.4552 0.42623 0.9232 0.0
C868 C 0.38643 0.45518 0.90571 0.0
H869 H 0.3656 0.52102 0.89601 0.0
C870 C 0.36067 0.44386 0.91049 0.0
C871 C 0.38813 0.48317 0.89972 0.0
C872 C 0.4148 0.49613 0.89286 0.0
C873 C 0.33675 0.45981 0.91004 0.0
C874 C 0.33868 0.48817 0.90541 0.0
C875 C 0.36424 0.49939 0.89993 0.0
C876 C 0.31435 0.50638 0.90669 0.0
C877 C 0.30959 0.44597 0.91439 0.0
C878 C 0.30512 0.52093 0.88881 0.0
C879 C 0.28058 0.53591 0.88967 0.0
C880 C 0.26484 0.53654 0.90845 0.0
C881 C 0.27503 0.52293 0.92658 0.0
C882 C 0.29961 0.50833 0.92575 0.0
H883 H 0.31052 0.4236 0.91095 0.0
H884 H 0.30435 0.44849 0.93145 0.0
H885 H 0.29284 0.45512 0.90471 0.0
H886 H 0.31641 0.51996 0.87399 0.0
H887 H 0.27371 0.54651 0.87552 0.0
H888 H 0.95023 0.28375 0.92348 0.0
H889 H 0.97406 0.32812 0.92323 0.0
H890 H 0.02966 0.29771 0.8754 0.0
H891 H 1.00597 0.25331 0.87553 0.0
H892 H 0.0507 0.31853 0.92017 0.0
H893 H 0.98511 0.3908 0.87396 0.0
H894 H 0.9691 0.36646 0.89163 0.0
H895 H 0.986 0.35444 0.86809 0.0
C896 C 0.96714 0.28675 0.91257 0.0
C897 C 0.97632 0.26505 0.89957 0.0
C898 C 0.98063 0.31209 0.91239 0.0
C899 C 1.00351 0.3161 0.89926 0.0
C900 C 0.01187 0.295 0.8855 0.0
H901 H 0.13901 0.43084 0.90019 0.0
H902 H 0.10822 0.39176 0.89515 0.0
C903 C 0.99824 0.26973 0.88552 0.0
C904 C 0.02076 0.34083 0.90191 0.0
H905 H 0.02498 0.40906 0.89009 0.0
C906 C 0.04518 0.33834 0.91355 0.0
C907 C 0.01314 0.3666 0.89355 0.0
C908 C 0.98696 0.36999 0.88102 0.0
C909 C 0.06231 0.36103 0.91712 0.0
C910 C 0.05519 0.38676 0.90823 0.0
C911 C 0.0305 0.38931 0.89678 0.0
C912 C 0.07338 0.41106 0.91043 0.0
C913 C 0.08753 0.35731 0.9308 0.0
C914 C 0.06376 0.43533 0.91996 0.0
C915 C 0.0813 0.45785 0.92266 0.0
C916 C 0.10879 0.45642 0.91592 0.0
C917 C 0.11814 0.43231 0.90598 0.0
C918 C 0.10056 0.40997 0.90309 0.0
H919 H 0.0855 0.33928 0.94149 0.0
H920 H 0.10559 0.35374 0.92043 0.0
H921 H 0.09155 0.3758 0.9407 0.0
H922 H 0.04282 0.43667 0.92566 0.0
H923 H 0.07357 0.47613 0.93044 0.0
H924 H 0.24763 0.99314 0.94303 0.0
H925 H 0.20159 0.0123 0.94151 0.0
H926 H 0.1875 0.97163 0.88146 0.0
H927 H 0.23398 0.95212 0.88288 0.0
H928 H 0.17321 0.02555 0.88036 0.0
H929 H 0.12723 0.97795 0.95148 0.0
H930 H 0.15932 0.99401 0.95787 0.0
H931 H 0.1586 0.96538 0.93966 0.0
C932 C 0.23458 0.98764 0.92973 0.0
C933 C 0.2444 0.97078 0.9132 0.0
C934 C 0.20819 0.99862 0.9289 0.0
C935 C 0.19085 0.9929 0.91163 0.0
C936 C 0.20046 0.97606 0.89506 0.0
H937 H 0.02551 0.06485 0.92117 0.0
H938 H 0.06189 0.03086 0.91566 0.0
C939 C 0.22702 0.96504 0.89585 0.0
C940 C 0.16364 1.00648 0.91034 0.0
H941 H 0.10671 0.02078 0.93994 0.0
C942 C 0.1584 0.0241 0.89318 0.0
C943 C 0.14404 1.00422 0.92684 0.0
C944 C 0.14745 0.98412 0.94487 0.0
C945 C 0.135 0.04092 0.89282 0.0
C946 C 0.11674 0.04049 0.9103 0.0
C947 C 0.12097 0.02148 0.92672 0.0
C948 C 0.09436 0.06092 0.91263 0.0
C949 C 0.13037 0.05932 0.87389 0.0
C950 C 0.10058 0.08905 0.91307 0.0
C951 C 0.07988 0.10847 0.91607 0.0
C952 C 0.05249 0.10019 0.91892 0.0
C953 C 0.0463 0.07195 0.91867 0.0
C954 C 0.06708 0.05249 0.91563 0.0
H955 H 0.14004 0.05068 0.85934 0.0
H956 H 0.10814 0.06243 0.87077 0.0
H957 H 0.1399 0.07963 0.87702 0.0
H958 H 0.12158 0.09602 0.91135 0.0
H959 H 0.08536 0.13 0.91602 0.0
H960 H 0.0664 0.78982 0.62161 0.0
H961 H 0.04524 0.83526 0.62425 0.0
H962 H 0.99508 0.80704 0.67627 0.0
H963 H 0.01624 0.7616 0.67375 0.0
H964 H 0.99032 0.84131 0.61686 0.0
H965 H 0.01672 0.88396 0.69614 0.0
H966 H 0.03575 0.85618 0.68403 0.0
H967 H 1.00364 0.84951 0.69712 0.0
C968 C 0.05131 0.79351 0.63392 0.0
C969 C 0.04281 0.77212 0.64737 0.0
C970 C 0.03931 0.81948 0.63546 0.0
C971 C 0.01867 0.82458 0.65051 0.0
C972 C 0.01135 0.80375 0.66482 0.0
H973 H 0.87854 0.93028 0.64304 0.0
H974 H 0.91152 0.89309 0.64854 0.0
C975 C 0.02344 0.77776 0.66335 0.0
C976 C 1.00221 0.85013 0.6492 0.0
H977 H 0.97876 0.90497 0.67796 0.0
C978 C 0.9881 0.85539 0.63015 0.0
C979 C 0.99932 0.86848 0.66655 0.0
C980 C 0.01486 0.86444 0.68706 0.0
C981 C 0.97057 0.87804 0.62817 0.0
C982 C 0.9669 0.89577 0.64573 0.0
C983 C 0.98153 0.89109 0.66461 0.0
C984 C 0.94729 0.91884 0.64463 0.0
C985 C 0.95575 0.88277 0.6074 0.0
C986 C 0.95663 0.94561 0.64096 0.0
C987 C 0.93785 0.96688 0.63757 0.0
C988 C 0.9094 0.96168 0.63786 0.0
C989 C 0.90024 0.93492 0.64236 0.0
C990 C 0.91903 0.9137 0.64567 0.0
H991 H 0.96373 0.86945 0.59443 0.0
H992 H 0.93356 0.87834 0.60951 0.0
H993 H 0.95771 0.90458 0.60249 0.0
H994 H 0.97843 0.94984 0.63997 0.0
H995 H 0.94568 0.98711 0.6339 0.0
H996 H 0.76744 1.00113 0.66021 0.0
H997 H 0.72348 0.97717 0.66043 0.0
H998 H 0.68621 0.04395 0.62601 0.0
H999 H 0.73012 0.06862 0.62621 0.0
H1000 H 0.65255 0.01875 0.66017 0.0
H1001 H 0.69638 0.94392 0.60264 0.0
H1002 H 0.71638 0.94903 0.62637 0.0
H1003 H 0.71201 0.97685 0.60796 0.0
C1004 C 0.74977 0.0112 0.65324 0.0
C1005 C 0.75237 0.03678 0.64308 0.0
C1006 C 0.72472 0.9973 0.65319 0.0
C1007 C 0.70181 0.00861 0.64292 0.0
C1008 C 0.70376 0.03484 0.6339 0.0
H1009 H 0.5392 0.9394 0.61642 0.0
H1010 H 0.57803 0.97099 0.62033 0.0
C1011 C 0.72887 0.04881 0.63394 0.0
C1012 C 0.67658 0.99204 0.64023 0.0
H1013 H 0.65272 0.93335 0.61692 0.0
C1014 C 0.65244 1.00016 0.65063 0.0
C1015 C 0.67657 0.96794 0.62763 0.0
C1016 C 0.70162 0.95896 0.61533 0.0
C1017 C 0.62845 0.98415 0.64938 0.0
C1018 C 0.62866 0.95972 0.63713 0.0
C1019 C 0.65268 0.952 0.62639 0.0
C1020 C 0.60453 0.9413 0.63562 0.0
C1021 C 0.60339 0.99301 0.66168 0.0
C1022 C 0.6067 0.91405 0.6426 0.0
C1023 C 0.58466 0.89597 0.64031 0.0
C1024 C 0.55998 0.90474 0.63091 0.0
C1025 C 0.55778 0.93213 0.62402 0.0
C1026 C 0.57992 0.95022 0.62627 0.0
H1027 H 0.60845 0.00861 0.674 0.0
H1028 H 0.58827 1.00218 0.65055 0.0
H1029 H 0.59352 0.97514 0.66951 0.0
H1030 H 0.62555 0.90674 0.64981 0.0
H1031 H 0.58691 0.87516 0.64603 0.0
H1032 H 0.63932 0.58712 0.64064 0.0
H1033 H 0.60627 0.62453 0.64436 0.0
H1034 H 0.54084 0.57008 0.62523 0.0
H1035 H 0.57392 0.53241 0.62159 0.0
H1036 H 0.57407 0.64588 0.61263 0.0
H1037 H 0.50925 0.60644 0.67855 0.0
H1038 H 0.54244 0.59202 0.67229 0.0
H1039 H 0.51305 0.58363 0.65624 0.0
C1040 C 0.6179 0.58309 0.63724 0.0
C1041 C 0.60923 0.55684 0.63078 0.0
C1042 C 0.59902 0.60444 0.63948 0.0
C1043 C 0.57105 0.60003 0.63531 0.0
C1044 C 0.56222 0.5738 0.62899 0.0
H1045 H 0.44777 0.72857 0.61785 0.0
H1046 H 0.47095 0.68384 0.61786 0.0
C1047 C 0.58114 0.55232 0.62688 0.0
C1048 C 0.55167 0.62346 0.63645 0.0
H1049 H 0.4953 0.64827 0.66258 0.0
C1050 C 0.5568 0.64633 0.6235 0.0
C1051 C 0.52914 0.62399 0.65066 0.0
C1052 C 0.52317 0.60033 0.66538 0.0
C1053 C 0.54023 0.6698 0.62452 0.0
C1054 C 0.51794 0.67043 0.63884 0.0
C1055 C 0.51241 0.64751 0.65157 0.0
C1056 C 0.50128 0.69554 0.64131 0.0
C1057 C 0.54682 0.6941 0.61059 0.0
C1058 C 0.51038 0.71651 0.65489 0.0
C1059 C 0.49739 0.74207 0.65482 0.0
C1060 C 0.47507 0.74711 0.64113 0.0
C1061 C 0.46509 0.72546 0.6284 0.0
C1062 C 0.47815 0.69987 0.62847 0.0
H1063 H 0.564 0.6898 0.59946 0.0
H1064 H 0.52842 0.70003 0.60122 0.0
H1065 H 0.55253 0.71193 0.62071 0.0
H1066 H 0.52837 0.7135 0.66477 0.0
H1067 H 0.50591 0.75833 0.6646 0.0
H1068 H 0.98657 0.57294 0.62545 0.0
H1069 H 0.95015 0.53921 0.63138 0.0
H1070 H 0.89015 0.6042 0.63302 0.0
H1071 H 0.92634 0.63815 0.62772 0.0
H1072 H 0.90713 0.53932 0.66723 0.0
H1073 H 0.86637 0.54682 0.58476 0.0
H1074 H 0.90103 0.55663 0.59169 0.0
H1075 H 0.87286 0.57888 0.59814 0.0
C1076 C 0.96572 0.58017 0.62735 0.0
C1077 C 0.95945 0.60837 0.62603 0.0
C1078 C 0.94494 0.56082 0.63066 0.0
C1079 C 0.91755 0.56928 0.63251 0.0
C1080 C 0.9112 0.59731 0.63144 0.0
H1081 H 0.76431 0.5013 0.6714 0.0
H1082 H 0.80977 0.52257 0.67075 0.0
C1083 C 0.93192 0.61667 0.62825 0.0
C1084 C 0.89531 0.54893 0.63509 0.0
H1085 H 0.83918 0.52276 0.60973 0.0
C1086 C 0.89238 0.53541 0.65464 0.0
C1087 C 0.8764 0.54373 0.61852 0.0
C1088 C 0.8793 0.55707 0.597 0.0
C1089 C 0.87025 0.5175 0.6583 0.0
C1090 C 0.85061 0.51327 0.64202 0.0
C1091 C 0.85422 0.52606 0.62222 0.0
C1092 C 0.82529 0.49693 0.64528 0.0
C1093 C 0.86802 0.50336 0.67953 0.0
C1094 C 0.81908 0.4751 0.63148 0.0
C1095 C 0.7931 0.46298 0.63179 0.0
C1096 C 0.77278 0.47259 0.64583 0.0
C1097 C 0.77963 0.49323 0.66059 0.0
C1098 C 0.80563 0.5054 0.66024 0.0
H1099 H 0.88825 0.50223 0.68768 0.0
H1100 H 0.85385 0.51518 0.68989 0.0
H1101 H 0.85971 0.48224 0.67771 0.0
H1102 H 0.83395 0.46827 0.61981 0.0
H1103 H 0.7885 0.44691 0.62039 0.0
H1104 H 0.7147 0.14141 0.14434 0.0
H1105 H 0.74602 0.18069 0.14559 0.0
H1106 H 0.68233 0.23265 0.11999 0.0
H1107 H 0.65077 0.19355 0.11935 0.0
H1108 H 0.76619 0.21104 0.11551 0.0
H1109 H 0.70683 0.27918 0.16868 0.0
H1110 H 0.69797 0.24356 0.16475 0.0
H1111 H 0.68693 0.26919 0.14595 0.0
C1112 C 0.70741 0.16123 0.13899 0.0
C1113 C 0.68026 0.16445 0.1318 0.0
C1114 C 0.72528 0.1837 0.1398 0.0
C1115 C 0.71643 0.20985 0.13332 0.0
C1116 C 0.68943 0.21297 0.12577 0.0
H1117 H 0.81694 0.3403 0.08616 0.0
H1118 H 0.78855 0.30003 0.09236 0.0
C1119 C 0.67144 0.19057 0.12525 0.0
C1120 C 0.73586 0.23348 0.13342 0.0
H1121 H 0.74264 0.3007 0.14836 0.0
C1122 C 0.76112 0.23052 0.12292 0.0
C1123 C 0.72965 0.25882 0.14347 0.0
C1124 C 0.704 0.26279 0.15655 0.0
C1125 C 0.77977 0.25241 0.12145 0.0
C1126 C 0.77265 0.27831 0.13013 0.0
C1127 C 0.74794 0.28099 0.14141 0.0
C1128 C 0.78992 0.3031 0.12669 0.0
C1129 C 0.80699 0.24743 0.11066 0.0
C1130 C 0.79933 0.31904 0.14391 0.0
C1131 C 0.81548 0.34245 0.14037 0.0
C1132 C 0.82253 0.35022 0.11956 0.0
C1133 C 0.81261 0.33446 0.10241 0.0
C1134 C 0.79635 0.31135 0.10593 0.0
H1135 H 0.8131 0.22549 0.11168 0.0
H1136 H 0.80517 0.25272 0.09356 0.0
H1137 H 0.82352 0.26016 0.11782 0.0
H1138 H 0.79439 0.31323 0.16008 0.0
H1139 H 0.82276 0.35423 0.15387 0.0
H1140 H 0.31123 0.65826 0.11179 0.0
H1141 H 0.27276 0.68956 0.11712 0.0
H1142 H 0.32399 0.74199 0.15574 0.0
H1143 H 0.36302 0.71149 0.14961 0.0
H1144 H 0.2448 0.70961 0.15115 0.0
H1145 H 0.29928 0.79425 0.10971 0.0
H1146 H 0.31207 0.75952 0.10989 0.0
H1147 H 0.31663 0.78125 0.13279 0.0
C1148 C 0.31442 0.67645 0.1214 0.0
C1149 C 0.34049 0.68252 0.12988 0.0
C1150 C 0.29228 0.69424 0.12459 0.0
C1151 C 0.2956 0.71849 0.13642 0.0
C1152 C 0.32108 0.72375 0.14612 0.0
H1153 H 0.15074 0.82568 0.15776 0.0
H1154 H 0.19031 0.79575 0.16489 0.0
C1155 C 0.34335 0.70604 0.14279 0.0
C1156 C 0.27277 0.7388 0.13741 0.0
H1157 H 0.25481 0.80364 0.1221 0.0
C1158 C 0.24702 0.73027 0.14498 0.0
C1159 C 0.27561 0.76567 0.12914 0.0
C1160 C 0.30228 0.77573 0.11974 0.0
C1161 C 0.22391 0.74759 0.14401 0.0
C1162 C 0.22676 0.77439 0.13563 0.0
C1163 C 0.25268 0.78316 0.12865 0.0
C1164 C 0.20279 0.79274 0.13192 0.0
C1165 C 0.19643 0.73657 0.15102 0.0
C1166 C 0.19696 0.80149 0.11116 0.0
C1167 C 0.17465 0.81868 0.10711 0.0
C1168 C 0.15751 0.82765 0.12374 0.0
C1169 C 0.16337 0.81895 0.14459 0.0
C1170 C 0.18593 0.80178 0.14867 0.0
H1171 H 0.19667 0.71388 0.15278 0.0
H1172 H 0.19103 0.74567 0.16666 0.0
H1173 H 0.18011 0.74219 0.13948 0.0
H1174 H 0.20956 0.79473 0.09796 0.0
H1175 H 0.17055 0.82447 0.09082 0.0
H1176 H 0.36762 0.69727 0.43281 0.0
H1177 H 0.33465 0.73515 0.43523 0.0
H1178 H 0.26892 0.67959 0.41874 0.0
H1179 H 0.30171 0.64162 0.41699 0.0
H1180 H 0.3024 0.75758 0.40647 0.0
H1181 H 0.23676 0.71503 0.47029 0.0
H1182 H 0.26934 0.70001 0.46325 0.0
H1183 H 0.23917 0.69274 0.44763 0.0
C1184 C 0.34611 0.69318 0.42981 0.0
C1185 C 0.3372 0.66646 0.42496 0.0
C1186 C 0.32727 0.7148 0.4312 0.0
C1187 C 0.29915 0.7102 0.42758 0.0
C1188 C 0.29031 0.68358 0.42229 0.0
H1189 H 0.19042 0.85157 0.40511 0.0
H1190 H 0.215 0.80821 0.40041 0.0
C1191 C 0.30909 0.66188 0.42122 0.0
C1192 C 0.27932 0.73343 0.42882 0.0
H1193 H 0.22041 0.75516 0.45308 0.0
C1194 C 0.28448 0.75705 0.41668 0.0
C1195 C 0.25602 0.73287 0.44228 0.0
C1196 C 0.2501 0.70892 0.45676 0.0
C1197 C 0.26728 0.78016 0.41778 0.0
C1198 C 0.24362 0.77937 0.43085 0.0
C1199 C 0.2383 0.75565 0.44284 0.0
C1200 C 0.22548 0.80371 0.43371 0.0
C1201 C 0.27531 0.80557 0.40556 0.0
C1202 C 0.22153 0.81468 0.45413 0.0
C1203 C 0.20687 0.83906 0.45693 0.0
C1204 C 0.19598 0.85325 0.43936 0.0
C1205 C 0.1985 0.84134 0.41903 0.0
C1206 C 0.21296 0.8167 0.41626 0.0
H1207 H 0.29731 0.80521 0.40093 0.0
H1208 H 0.26291 0.80677 0.39078 0.0
H1209 H 0.27149 0.82443 0.41507 0.0
H1210 H 0.23065 0.8049 0.4679 0.0
H1211 H 0.20478 0.84723 0.47287 0.0
H1212 H 0.85897 0.33715 0.40448 0.0
H1213 H 0.81564 0.31257 0.3998 0.0
H1214 H 0.81112 0.29944 0.46752 0.0
H1215 H 0.85345 0.32525 0.47243 0.0
H1216 H 0.80632 0.26041 0.40788 0.0
H1217 H 0.7338 0.32149 0.45599 0.0
H1218 H 0.76734 0.33416 0.44887 0.0
H1219 H 0.76316 0.31185 0.47147 0.0
C1220 C 0.84837 0.32982 0.41846 0.0
C1221 C 0.85986 0.33319 0.43886 0.0
C1222 C 0.82366 0.31551 0.41573 0.0
C1223 C 0.80988 0.30432 0.43332 0.0
C1224 C 0.82092 0.30834 0.45372 0.0
H1225 H 0.70544 0.16024 0.43314 0.0
H1226 H 0.74345 0.19317 0.4344 0.0
C1227 C 0.84542 0.32283 0.45648 0.0
C1228 C 0.78533 0.28652 0.43029 0.0
H1229 H 0.72045 0.27477 0.44867 0.0
C1230 C 0.78742 0.26377 0.4166 0.0
C1231 C 0.76046 0.29103 0.4414 0.0
C1232 C 0.75594 0.31614 0.45506 0.0
C1233 C 0.76575 0.24496 0.41426 0.0
C1234 C 0.74158 0.24847 0.42646 0.0
C1235 C 0.73912 0.27174 0.43958 0.0
C1236 C 0.71858 0.22835 0.42584 0.0
C1237 C 0.76894 0.22173 0.39851 0.0
C1238 C 0.69174 0.23721 0.4214 0.0
C1239 C 0.66997 0.21851 0.4211 0.0
C1240 C 0.67457 0.19049 0.42513 0.0
C1241 C 0.70139 0.18163 0.42969 0.0
C1242 C 0.72312 0.20043 0.43028 0.0
H1243 H 0.78398 0.22696 0.38588 0.0
H1244 H 0.77672 0.20329 0.40692 0.0
H1245 H 0.74907 0.21648 0.39085 0.0
H1246 H 0.68765 0.25862 0.41798 0.0
H1247 H 0.64959 0.2259 0.4173 0.0
H1248 H 0.18453 0.65804 0.88491 0.0
H1249 H 0.21581 0.69685 0.87884 0.0
H1250 H 0.20971 0.71914 0.94514 0.0
H1251 H 0.17819 0.68116 0.95104 0.0
H1252 H 0.20584 0.76324 0.92124 0.0
H1253 H 0.29558 0.7021 0.89431 0.0
H1254 H 0.26529 0.69766 0.87836 0.0
H1255 H 0.26542 0.68642 0.9056 0.0
C1256 C 0.18996 0.67126 0.89813 0.0
C1257 C 0.17875 0.66662 0.9184 0.0
C1258 C 0.20795 0.69334 0.8947 0.0
C1259 C 0.21549 0.7108 0.9116 0.0
C1260 C 0.2042 0.70611 0.9318 0.0
H1261 H 0.35416 0.81365 0.93377 0.0
H1262 H 0.32134 0.77678 0.92792 0.0
C1263 C 0.18604 0.68439 0.93515 0.0
C1264 C 0.23488 0.73417 0.90862 0.0
H1265 H 0.30085 0.75021 0.89494 0.0
C1266 C 0.22658 0.76042 0.91536 0.0
C1267 C 0.26203 0.73048 0.9011 0.0
C1268 C 0.27278 0.70263 0.8946 0.0
C1269 C 0.2448 0.78279 0.91552 0.0
C1270 C 0.27195 0.77915 0.90795 0.0
C1271 C 0.28001 0.75309 0.90057 0.0
C1272 C 0.29297 0.80134 0.9095 0.0
C1273 C 0.23511 0.80966 0.92491 0.0
C1274 C 0.2886 0.82737 0.9005 0.0
C1275 C 0.30713 0.84888 0.90428 0.0
C1276 C 0.33073 0.84469 0.91687 0.0
C1277 C 0.33593 0.81803 0.92454 0.0
C1278 C 0.31724 0.79672 0.921 0.0
H1279 H 0.21641 0.80699 0.93479 0.0
H1280 H 0.25132 0.81919 0.93494 0.0
H1281 H 0.22996 0.82407 0.91186 0.0
H1282 H 0.27047 0.83129 0.891 0.0
H1283 H 0.30231 0.86894 0.89797 0.0
H1284 H 0.66044 0.3272 0.89326 0.0
H1285 H 0.70012 0.29658 0.88865 0.0
H1286 H 0.71074 0.29353 0.95677 0.0
H1287 H 0.67198 0.32463 0.96128 0.0
H1288 H 0.7582 0.30018 0.9388 0.0
H1289 H 0.70439 0.21548 0.89697 0.0
H1290 H 0.70198 0.24763 0.88324 0.0
H1291 H 0.68626 0.24382 0.90896 0.0
C1292 C 0.67129 0.31987 0.90718 0.0
C1293 C 0.66324 0.32844 0.9276 0.0
C1294 C 0.69383 0.30224 0.90457 0.0
C1295 C 0.70826 0.29233 0.92238 0.0
C1296 C 0.70008 0.30088 0.94275 0.0
H1297 H 0.81806 0.15201 0.92732 0.0
H1298 H 0.77922 0.18396 0.92874 0.0
C1299 C 0.67794 0.31878 0.94532 0.0
C1300 C 0.73228 0.27359 0.9201 0.0
H1301 H 0.75286 0.21187 0.89961 0.0
C1302 C 0.75698 0.28084 0.93024 0.0
C1303 C 0.73067 0.24814 0.9092 0.0
C1304 C 0.70434 0.23813 0.89916 0.0
C1305 C 0.77995 0.2634 0.92997 0.0
C1306 C 0.77865 0.23837 0.91849 0.0
C1307 C 0.754 0.23115 0.90825 0.0
C1308 C 0.80232 0.219 0.91743 0.0
C1309 C 0.80496 0.27164 0.94269 0.0
C1310 C 0.82821 0.22786 0.91038 0.0
C1311 C 0.8505 0.20974 0.90996 0.0
C1312 C 0.84719 0.18218 0.91604 0.0
C1313 C 0.82114 0.17312 0.92251 0.0
C1314 C 0.79897 0.19137 0.92331 0.0
H1315 H 0.79966 0.28641 0.95555 0.0
H1316 H 0.81505 0.25352 0.95 0.0
H1317 H 0.81992 0.28187 0.93204 0.0
H1318 H 0.8312 0.24877 0.90507 0.0
H1319 H 0.87021 0.21712 0.90448 0.0
H1320 H 0.83219 0.16296 0.65091 0.0
H1321 H 0.80119 0.20227 0.65583 0.0
H1322 H 0.79879 0.21428 0.58787 0.0
H1323 H 0.83008 0.17577 0.58303 0.0
H1324 H 0.80534 0.26156 0.60713 0.0
H1325 H 0.71989 0.20599 0.64619 0.0
H1326 H 0.75188 0.20322 0.66022 0.0
H1327 H 0.74848 0.18839 0.63409 0.0
C1328 C 0.82493 0.17401 0.63708 0.0
C1329 C 0.83372 0.16638 0.61661 0.0
C1330 C 0.80709 0.19635 0.63987 0.0
C1331 C 0.79727 0.21107 0.62219 0.0
C1332 C 0.80607 0.20337 0.60178 0.0
H1333 H 0.65688 0.32076 0.61595 0.0
H1334 H 0.68883 0.28186 0.61474 0.0
C1335 C 0.8241 0.18138 0.59903 0.0
C1336 C 0.77836 0.23491 0.62466 0.0
H1337 H 0.71587 0.25445 0.6442 0.0
C1338 C 0.78576 0.25997 0.61524 0.0
C1339 C 0.75261 0.23281 0.63497 0.0
C1340 C 0.74256 0.2061 0.64426 0.0
C1341 C 0.76819 0.28282 0.61566 0.0
C1342 C 0.7428 0.281 0.62652 0.0
C1343 C 0.73541 0.25598 0.63603 0.0
C1344 C 0.72331 0.30454 0.62768 0.0
C1345 C 0.7767 0.30833 0.60376 0.0
C1346 C 0.73181 0.33016 0.63565 0.0
C1347 C 0.71372 0.35246 0.63596 0.0
C1348 C 0.68652 0.34945 0.62883 0.0
C1349 C 0.67772 0.32362 0.62154 0.0
C1350 C 0.69597 0.30141 0.62086 0.0
H1351 H 0.79199 0.30359 0.59117 0.0
H1352 H 0.75878 0.31853 0.59623 0.0
H1353 H 0.78639 0.323 0.61503 0.0
H1354 H 0.75246 0.33293 0.64168 0.0
H1355 H 0.72087 0.37198 0.64212 0.0
H1356 H 0.35459 0.82798 0.65394 0.0
H1357 H 0.31493 0.79707 0.65713 0.0
H1358 H 0.3018 0.80213 0.58933 0.0
H1359 H 0.34048 0.83367 0.58635 0.0
H1360 H 0.25518 0.80658 0.60845 0.0
H1361 H 0.30962 0.71745 0.64329 0.0
H1362 H 0.31262 0.74785 0.65928 0.0
H1363 H 0.32759 0.74697 0.63312 0.0
C1364 C 0.34319 0.82236 0.63979 0.0
C1365 C 0.35048 0.83333 0.61994 0.0
C1366 C 0.32067 0.80455 0.64156 0.0
C1367 C 0.30554 0.79682 0.62341 0.0
C1368 C 0.31301 0.80776 0.6036 0.0
H1369 H 0.19414 0.65809 0.61207 0.0
H1370 H 0.2333 0.68972 0.6117 0.0
C1371 C 0.3351 0.82587 0.6019 0.0
C1372 C 0.28147 0.778 0.62483 0.0
H1373 H 0.26099 0.71455 0.64166 0.0
C1374 C 0.25652 0.78642 0.61568 0.0
C1375 C 0.2832 0.75149 0.63398 0.0
C1376 C 0.30976 0.74026 0.64277 0.0
C1377 C 0.23341 0.76917 0.61526 0.0
C1378 C 0.23483 0.74306 0.62509 0.0
C1379 C 0.25975 0.73464 0.63431 0.0
C1380 C 0.21098 0.72388 0.62546 0.0
C1381 C 0.2081 0.77885 0.60359 0.0
C1382 C 0.18543 0.73232 0.63352 0.0
C1383 C 0.16295 0.71444 0.63332 0.0
C1384 C 0.16574 0.68747 0.6256 0.0
C1385 C 0.19147 0.67875 0.61812 0.0
C1386 C 0.21382 0.69681 0.61793 0.0
H1387 H 0.21318 0.7947 0.59154 0.0
H1388 H 0.19753 0.76157 0.59543 0.0
H1389 H 0.19364 0.78824 0.61512 0.0
H1390 H 0.18285 0.75272 0.6401 0.0
H1391 H 0.1435 0.72149 0.63961 0.0
H1392 H 0.56025 0.04111 0.10583 0.0
H1393 H 0.52549 0.02297 0.08113 0.0
H1394 H 0.57479 0.04867 0.02791 0.0
H1395 H 0.60944 0.06672 0.05228 0.0
H1396 H 0.49568 0.04909 0.0465 0.0
H1397 H 0.56381 0.96516 1.01812 0.0
H1398 H 0.57054 0.98422 0.04225 0.0
H1399 H 0.57824 0.99907 1.01682 0.0
C1400 C 0.56346 0.04329 0.08887 0.0
C1401 C 0.58771 0.05525 0.08105 0.0
C1402 C 0.54366 0.03279 0.07478 0.0
C1403 C 0.54785 0.03394 0.05267 0.0
C1404 C 0.5714 0.04701 0.04488 0.0
H1405 H 0.45253 0.97325 0.94315 0.0
H1406 H 0.4891 0.99276 0.96572 0.0
C1407 C 0.59112 0.05749 0.05889 0.0
C1408 C 0.52793 0.02114 0.03767 0.0
H1409 H 0.52123 0.97027 1.00035 0.0
C1410 C 0.50123 0.03182 0.03646 0.0
C1411 C 0.53528 0.99874 0.02443 0.0
C1412 C 0.56345 0.98591 0.02551 0.0
C1413 C 0.48175 0.02083 1.02227 0.0
C1414 C 0.48896 0.99815 1.00926 0.0
C1415 C 0.51575 0.98767 1.01028 0.0
C1416 C 0.46839 0.98423 0.99542 0.0
C1417 C 0.45367 0.03384 1.02113 0.0
C1418 C 0.44527 0.97197 1.00463 0.0
C1419 C 0.42456 0.9609 0.99187 0.0
C1420 C 0.42656 0.96153 0.96956 0.0
C1421 C 0.45048 0.97232 0.96028 0.0
C1422 C 0.47128 0.98361 0.97315 0.0
H1423 H 0.45385 0.05519 0.02741 0.0
H1424 H 0.44588 0.03417 1.00452 0.0
H1425 H 0.43913 0.02171 0.03091 0.0
H1426 H 0.4429 0.97158 1.02176 0.0
H1427 H 0.40653 0.95252 0.99954 0.0
H1428 H 0.46146 0.56275 0.10295 0.0
H1429 H 0.4772 0.52539 0.07948 0.0
H1430 H 0.48157 0.58205 0.02702 0.0
H1431 H 0.46625 0.61916 0.05013 0.0
H1432 H 0.45522 0.50486 0.04035 0.0
H1433 H 0.55905 0.54921 0.02875 0.0
H1434 H 0.53629 0.56055 0.04964 0.0
H1435 H 0.5315 0.5725 1.02285 0.0
C1436 C 0.46558 0.56712 0.08637 0.0
C1437 C 0.46282 0.59397 0.07847 0.0
C1438 C 0.47464 0.54582 0.073 0.0
C1439 C 0.48116 0.55109 0.0516 0.0
C1440 C 0.47736 0.57763 0.04357 0.0
H1441 H 0.54089 0.45125 0.94474 0.0
H1442 H 0.52445 0.4894 0.96719 0.0
C1443 C 0.46842 0.59882 0.05684 0.0
C1444 C 0.49198 0.52906 0.03749 0.0
H1445 H 0.54698 0.51156 1.00651 0.0
C1446 C 0.47533 0.50624 0.03306 0.0
C1447 C 0.51817 0.53099 0.02783 0.0
C1448 C 0.53743 0.55449 0.03262 0.0
C1449 C 0.48402 0.48549 1.01901 0.0
C1450 C 0.51024 0.48738 1.0094 0.0
C1451 C 0.52684 0.51024 1.01376 0.0
C1452 C 0.52132 0.46498 0.99581 0.0
C1453 C 0.46488 0.46187 1.0143 0.0
C1454 C 0.52577 0.43895 1.00459 0.0
C1455 C 0.53516 0.41737 0.99193 0.0
C1456 C 0.54053 0.42127 0.97015 0.0
C1457 C 0.53702 0.44762 0.96145 0.0
C1458 C 0.52754 0.46935 0.97423 0.0
H1459 H 0.44324 0.46705 1.01818 0.0
H1460 H 0.46604 0.45575 0.99729 0.0
H1461 H 0.47093 0.44393 1.02409 0.0
H1462 H 0.52173 0.43525 1.02128 0.0
H1463 H 0.53787 0.39743 0.99924 0.0
H1464 H 0.94345 0.47236 0.10088 0.0
H1465 H 0.98137 0.48747 0.0778 0.0
H1466 H 0.92553 0.4922 0.02466 0.0
H1467 H 0.88791 0.47758 0.04736 0.0
H1468 H 1.00233 0.46509 0.03917 0.0
H1469 H 0.9592 0.56914 0.02628 0.0
H1470 H 0.94728 0.54674 0.04714 0.0
H1471 H 0.93556 0.54193 1.02024 0.0
C1472 C 0.93938 0.47645 0.08425 0.0
C1473 C 0.91263 0.47402 0.07602 0.0
C1474 C 0.961 0.48514 0.0711 0.0
C1475 C 0.95612 0.49159 0.04961 0.0
C1476 C 0.92966 0.48808 0.04129 0.0
H1477 H 0.0562 0.54608 0.94191 0.0
H1478 H 0.01818 0.53066 0.96475 0.0
C1479 C 0.90817 0.47955 0.05433 0.0
C1480 C 0.97844 0.50198 0.03568 0.0
H1481 H 0.9964 0.55603 1.00395 0.0
C1482 C 1.00114 0.48504 0.03159 0.0
C1483 C 0.97679 0.52799 0.02569 0.0
C1484 C 0.95353 0.54763 0.03018 0.0
C1485 C 0.02196 0.4932 1.01749 0.0
C1486 C 0.02022 0.51913 1.00743 0.0
C1487 C 0.99756 0.53608 1.01152 0.0
C1488 C 0.04255 0.52956 0.99357 0.0
C1489 C 0.04551 0.47384 1.01319 0.0
C1490 C 0.06849 0.53478 1.0023 0.0
C1491 C 0.09 0.54366 0.98943 0.0
C1492 C 0.0861 0.54765 0.96745 0.0
C1493 C 0.05983 0.54329 0.95876 0.0
C1494 C 0.03817 0.53438 0.97177 0.0
H1495 H 0.04048 0.45242 1.01784 0.0
H1496 H 0.05121 0.47407 0.9961 0.0
H1497 H 0.06366 0.4805 1.02256 0.0
H1498 H 0.07218 0.53174 1.01913 0.0
H1499 H 0.10987 0.54701 0.99674 0.0
H1500 H 0.94293 0.10743 0.99406 0.0
H1501 H 0.96049 0.07203 1.01773 0.0
H1502 H 0.9844 0.02316 0.96354 0.0
H1503 H 0.96753 0.05917 0.93956 0.0
H1504 H 0.94825 0.0195 1.02417 0.0
H1505 H 0.05581 0.02684 0.99585 0.0
H1506 H 0.02978 0.05128 0.98823 0.0
H1507 H 0.03172 0.01838 0.97523 0.0
C1508 C 0.95174 0.08908 0.98708 0.0
C1509 C 0.95394 0.08625 0.96486 0.0
C1510 C 0.96181 0.06881 1.00071 0.0
C1511 C 0.97439 0.04514 0.99252 0.0
C1512 C 0.97547 0.04156 0.9703 0.0
H1513 H 0.04133 0.899 0.04911 0.0
H1514 H 0.02595 0.93615 0.02606 0.0
C1515 C 0.96546 0.06199 0.95658 0.0
C1516 C 0.98644 0.02457 1.00743 0.0
H1517 H 0.046 0.99137 1.02058 0.0
C1518 C 0.96966 0.01348 1.02343 0.0
C1519 C 0.01448 0.01683 1.00664 0.0
C1520 C 0.03409 0.02913 0.99071 0.0
C1521 C 0.97993 0.9945 0.03829 0.0
C1522 C 0.00782 0.98652 0.0373 0.0
C1523 C 0.02465 0.99764 1.02139 0.0
C1524 C 0.0193 0.96511 0.05164 0.0
C1525 C 0.96067 0.98253 0.0546 0.0
C1526 C 0.02147 0.96925 0.07376 0.0
C1527 C 0.03055 0.94795 0.0871 0.0
C1528 C 0.03736 0.92217 0.07848 0.0
C1529 C 0.03607 0.91855 0.05628 0.0
C1530 C 0.02732 0.93979 0.04304 0.0
H1531 H 0.93883 0.98717 0.05094 0.0
H1532 H 0.96325 0.95991 0.05556 0.0
H1533 H 0.96556 0.99129 0.07048 0.0
H1534 H 0.01569 0.98877 0.08072 0.0
H1535 H 0.0312 0.9513 0.10413 0.0
H1536 H 0.90189 0.04511 0.54479 0.0
H1537 H 0.93781 0.02723 0.52167 0.0
H1538 H 0.99259 0.02096 0.57539 0.0
H1539 H 0.95628 0.03878 0.59891 0.0
H1540 H 0.99081 0.04618 0.51304 0.0
H1541 H 0.99226 0.94263 0.55 0.0
H1542 H 0.9651 0.96707 0.55484 0.0
H1543 H 0.99764 0.97089 0.56798 0.0
C1544 C 0.92163 0.04012 0.55175 0.0
C1545 C 0.9262 0.04325 0.57374 0.0
C1546 C 0.94217 0.02991 0.53846 0.0
C1547 C 0.96773 0.02231 0.54681 0.0
C1548 C 0.97281 0.02626 0.56866 0.0
H1549 H 0.11533 0.95558 0.49337 0.0
H1550 H 0.07694 0.96971 0.51566 0.0
C1551 C 0.95219 0.0367 0.58204 0.0
C1552 C 0.98865 0.00992 0.53246 0.0
H1553 H 0.02459 0.95094 0.52273 0.0
C1554 C 0.99817 0.02534 0.51512 0.0
C1555 C 0.99803 0.98263 0.53508 0.0
C1556 C 0.98762 0.96467 0.55285 0.0
C1557 C 0.01735 0.01449 0.50065 0.0
C1558 C 0.02682 0.98721 0.5033 0.0
C1559 C 0.01714 0.97174 0.52058 0.0
C1560 C 0.04863 0.97529 0.4895 0.0
C1561 C 0.02797 0.03266 0.48307 0.0
C1562 C 0.04521 0.97251 0.46734 0.0
C1563 C 0.06728 0.96421 0.45444 0.0
C1564 C 0.09301 0.95864 0.46361 0.0
C1565 C 0.09575 0.95982 0.48586 0.0
C1566 C 0.07381 0.96793 0.49865 0.0
H1567 H 0.02319 0.05466 0.48597 0.0
H1568 H 0.05054 0.03042 0.4813 0.0
H1569 H 0.01823 0.02656 0.46781 0.0
H1570 H 0.02577 0.97759 0.45995 0.0
H1571 H 0.06468 0.96373 0.43733 0.0
H1572 H 0.55285 0.06798 0.4467 0.0
H1573 H 0.53429 0.0317 0.46966 0.0
H1574 H 0.55845 0.07783 0.52522 0.0
H1575 H 0.57701 0.11395 0.50257 0.0
H1576 H 0.56073 1.00033 0.50421 0.0
H1577 H 0.47415 0.06529 0.53225 0.0
H1578 H 0.4936 0.07317 0.50861 0.0
H1579 H 0.50769 0.08046 0.53442 0.0
C1580 C 0.55464 0.07016 0.46379 0.0
C1581 C 0.56636 0.09392 0.47278 0.0
C1582 C 0.54388 0.0495 0.47689 0.0
C1583 C 0.54453 0.05234 0.49914 0.0
C1584 C 0.55726 0.07546 0.5081 0.0
H1585 H 0.48146 0.95386 0.6051 0.0
H1586 H 0.50099 0.99091 0.58325 0.0
C1587 C 0.56802 0.09602 0.49509 0.0
C1588 C 0.5316 0.03146 0.51311 0.0
H1589 H 0.47965 0.02211 0.54893 0.0
C1590 C 0.54295 1.00503 0.51392 0.0
C1591 C 0.50853 0.03774 0.52592 0.0
C1592 C 0.49506 0.06562 0.52523 0.0
C1593 C 0.53204 0.98476 0.52738 0.0
C1594 C 0.50873 0.9909 0.54 0.0
C1595 C 0.49751 0.01743 0.5393 0.0
C1596 C 0.49515 0.96964 0.5533 0.0
C1597 C 0.54592 0.95708 0.52823 0.0
C1598 C 0.48447 0.94593 0.54368 0.0
C1599 C 0.47344 0.9249 0.55605 0.0
C1600 C 0.47247 0.92718 0.57834 0.0
C1601 C 0.48182 0.95156 0.58797 0.0
C1602 C 0.49309 0.97265 0.57551 0.0
H1603 H 0.56753 0.9582 0.52266 0.0
H1604 H 0.54574 0.94865 0.54463 0.0
H1605 H 0.53478 0.94254 0.51769 0.0
H1606 H 0.48513 0.94345 0.52656 0.0
H1607 H 0.46616 0.90652 0.5481 0.0
H1608 H 0.42087 0.57856 0.49807 0.0
H1609 H 0.45578 0.55894 0.52142 0.0
H1610 H 0.49336 0.51882 0.46762 0.0
H1611 H 0.45852 0.53873 0.44401 0.0
H1612 H 0.46369 0.50338 0.52781 0.0
H1613 H 0.55947 0.55206 0.49854 0.0
H1614 H 0.5258 0.56511 0.492 0.0
H1615 H 0.53921 0.53559 0.4783 0.0
C1616 C 0.43689 0.56603 0.49109 0.0
C1617 C 0.43695 0.56031 0.46914 0.0
C1618 C 0.45678 0.55472 0.50451 0.0
C1619 C 0.47729 0.53747 0.49633 0.0
C1620 C 0.47804 0.53244 0.47428 0.0
H1621 H 0.60777 0.4416 0.55354 0.0
H1622 H 0.57304 0.46129 0.53008 0.0
C1623 C 0.45812 0.54388 0.46078 0.0
C1624 C 0.49662 0.52347 0.51114 0.0
H1625 H 0.56451 0.51618 0.52366 0.0
C1626 C 0.48574 0.50626 0.52696 0.0
C1627 C 0.52538 0.52716 0.51002 0.0
C1628 C 0.53823 0.54616 0.49394 0.0
C1629 C 0.50282 0.49235 0.54144 0.0
C1630 C 0.53158 0.49608 0.54034 0.0
C1631 C 0.54246 0.51329 0.52451 0.0
C1632 C 0.55092 0.48211 0.55519 0.0
C1633 C 0.48993 0.47328 0.55744 0.0
C1634 C 0.5498 0.48675 0.57728 0.0
C1635 C 0.56958 0.47521 0.59085 0.0
C1636 C 0.59104 0.45914 0.58252 0.0
C1637 C 0.59153 0.45387 0.56051 0.0
C1638 C 0.57174 0.46522 0.54702 0.0
H1639 H 0.46884 0.46712 0.55264 0.0
H1640 H 0.50252 0.45447 0.55956 0.0
H1641 H 0.48854 0.48391 0.57303 0.0
H1642 H 0.53425 0.5001 0.58395 0.0
H1643 H 0.56881 0.47997 0.60767 0.0
H1644 H 0.03714 0.56991 0.60046 0.0
H1645 H 0.01774 0.53627 0.5754 0.0
H1646 H 0.05125 0.58202 0.52287 0.0
H1647 H 0.07101 0.61514 0.54762 0.0
H1648 H 0.97935 0.54657 0.54393 0.0
H1649 H 0.07412 0.50477 0.50754 0.0
H1650 H 0.07456 0.52453 0.53186 0.0
H1651 H 0.07241 0.54153 0.50653 0.0
C1652 C 0.04099 0.57236 0.5836 0.0
C1653 C 0.05583 0.59511 0.57606 0.0
C1654 C 0.02968 0.55326 0.56928 0.0
C1655 C 0.03326 0.55641 0.54721 0.0
C1656 C 0.04865 0.57875 0.53977 0.0
H1657 H 0.97705 0.46452 0.43507 0.0
H1658 H 0.99182 0.50264 0.45825 0.0
C1659 C 0.05988 0.59778 0.55401 0.0
C1660 C 0.01967 0.53744 0.53182 0.0
H1661 H 0.03216 0.49445 0.48984 0.0
C1662 C 0.99092 0.53506 0.53218 0.0
C1663 C 0.0347 0.5226 0.51631 0.0
C1664 C 0.06566 0.52324 0.51561 0.0
C1665 C 0.97682 0.51847 0.5174 0.0
C1666 C 0.99187 0.5036 0.50195 0.0
C1667 C 0.02058 0.50614 0.50148 0.0
C1668 C 0.97865 0.48327 0.48747 0.0
C1669 C 0.94591 0.51722 0.51833 0.0
C1670 C 0.96572 0.46011 0.49609 0.0
C1671 C 0.95737 0.43852 0.48295 0.0
C1672 C 0.96159 0.43961 0.46086 0.0
C1673 C 0.97295 0.46346 0.45198 0.0
C1674 C 0.98166 0.48507 0.46524 0.0
H1675 H 0.93719 0.53566 0.52629 0.0
H1676 H 0.93688 0.51543 0.50216 0.0
H1677 H 0.93966 0.49893 0.52764 0.0
H1678 H 0.96364 0.45792 0.51316 0.0
H1679 H 0.94905 0.42016 0.49021 0.0
H1680 H 0.51946 0.136 0.3475 0.0
H1681 H 0.53069 0.11824 0.31222 0.0
H1682 H 0.6107 0.09386 0.33472 0.0
H1683 H 0.59974 0.11187 0.37015 0.0
H1684 H 0.61204 0.12326 0.29646 0.0
H1685 H 0.53631 0.03833 0.29207 0.0
H1686 H 0.52166 0.07104 0.29884 0.0
H1687 H 0.54547 0.05496 0.31679 0.0
C1688 C 0.53938 0.12665 0.34506 0.0
C1689 C 0.55868 0.12534 0.36172 0.0
C1690 C 0.5457 0.11636 0.32486 0.0
C1691 C 0.5714 0.10441 0.32086 0.0
C1692 C 0.59068 0.10288 0.33747 0.0
H1693 H 0.62289 0.01262 0.20937 0.0
H1694 H 0.60875 0.02774 0.24478 0.0
C1695 C 0.58435 0.11311 0.35774 0.0
C1696 C 0.57854 0.09465 0.29912 0.0
H1697 H 0.55926 0.04981 0.25992 0.0
C1698 C 0.60056 0.10714 0.28849 0.0
C1699 C 0.56369 0.07347 0.2888 0.0
C1700 C 0.54062 0.05846 0.29975 0.0
C1701 C 0.60788 0.09931 0.26772 0.0
C1702 C 0.59253 0.07867 0.25716 0.0
C1703 C 0.57078 0.06587 0.26792 0.0
C1704 C 0.59946 0.06936 0.23527 0.0
C1705 C 0.63231 0.11285 0.25739 0.0
C1706 C 0.59824 0.08754 0.21797 0.0
C1707 C 0.60629 0.07895 0.19762 0.0
C1708 C 0.61569 0.05197 0.19419 0.0
C1709 C 0.61592 0.03358 0.21143 0.0
C1710 C 0.60781 0.04217 0.23171 0.0
H1711 H 0.6456 0.12339 0.26924 0.0
H1712 H 0.64488 0.09756 0.2486 0.0
H1713 H 0.62499 0.12843 0.24585 0.0
H1714 H 0.59135 0.10849 0.22026 0.0
H1715 H 0.60577 0.09364 0.18472 0.0
H1716 H 0.38027 0.51363 0.34438 0.0
H1717 H 0.39019 0.52593 0.3076 0.0
H1718 H 0.42249 0.60393 0.3284 0.0
H1719 H 0.41257 0.5918 0.36548 0.0
H1720 H 0.36749 0.57341 0.28671 0.0
H1721 H 0.48171 0.57329 0.28655 0.0
H1722 H 0.4619 0.5557 0.30661 0.0
H1723 H 0.46524 0.59238 0.30749 0.0
C1724 C 0.38978 0.5333 0.34125 0.0
C1725 C 0.39557 0.55174 0.35795 0.0
C1726 C 0.39542 0.5403 0.32017 0.0
C1727 C 0.4072 0.56576 0.31525 0.0
C1728 C 0.41371 0.584 0.33186 0.0
H1729 H 0.44702 0.64128 0.19336 0.0
H1730 H 0.44211 0.63045 0.23109 0.0
C1731 C 0.40797 0.57706 0.35304 0.0
C1732 C 0.41102 0.57364 0.29262 0.0
H1733 H 0.45957 0.58706 0.25487 0.0
C1734 C 0.38762 0.57639 0.27973 0.0
C1735 C 0.43727 0.57771 0.2836 0.0
C1736 C 0.46306 0.57447 0.29666 0.0
C1737 C 0.38972 0.58321 0.25809 0.0
C1738 C 0.41602 0.58665 0.24889 0.0
C1739 C 0.43943 0.58427 0.26187 0.0
C1740 C 0.41958 0.59274 0.22585 0.0
C1741 C 0.36368 0.5872 0.24543 0.0
C1742 C 0.40904 0.57491 0.21024 0.0
C1743 C 0.41163 0.58115 0.1886 0.0
C1744 C 0.42515 0.60522 0.18207 0.0
C1745 C 0.43638 0.62264 0.19774 0.0
C1746 C 0.43363 0.61645 0.21937 0.0
H1747 H 0.34592 0.59186 0.25591 0.0
H1748 H 0.36591 0.60412 0.23375 0.0
H1749 H 0.35892 0.56802 0.2366 0.0
H1750 H 0.39874 0.55612 0.21478 0.0
H1751 H 0.40298 0.56712 0.177 0.0
H1752 H 0.8525 0.43678 0.1871 0.0
H1753 H 0.85716 0.42955 0.22537 0.0
H1754 H 0.94513 0.4366 0.22001 0.0
H1755 H 0.94068 0.44333 0.1816 0.0
H1756 H 0.9313 0.3931 0.24316 0.0
H1757 H 0.87316 0.48288 0.27301 0.0
H1758 H 0.85349 0.46226 0.25486 0.0
H1759 H 0.88377 0.47969 0.24562 0.0
C1760 C 0.87285 0.43704 0.19405 0.0
C1761 C 0.89622 0.44072 0.18122 0.0
C1762 C 0.87546 0.43311 0.21603 0.0
C1763 C 0.90146 0.43309 0.22574 0.0
C1764 C 0.92482 0.43674 0.21295 0.0
H1765 H 0.93949 0.42364 0.36237 0.0
H1766 H 0.93035 0.44158 0.32646 0.0
C1767 C 0.92224 0.44052 0.19095 0.0
C1768 C 0.90444 0.42743 0.24894 0.0
H1769 H 0.88296 0.44754 0.29845 0.0
C1770 C 0.92088 0.40518 0.25521 0.0
C1771 C 0.89118 0.44337 0.2648 0.0
C1772 C 0.87464 0.46856 0.25928 0.0
C1773 C 0.92377 0.39795 0.2767 0.0
C1774 C 0.90936 0.41297 0.29246 0.0
C1775 C 0.89364 0.43578 0.28634 0.0
C1776 C 0.91026 0.40464 0.31521 0.0
C1777 C 0.94239 0.37427 0.28236 0.0
C1778 C 0.90063 0.37862 0.32114 0.0
C1779 C 0.90586 0.36841 0.34148 0.0
C1780 C 0.92043 0.38416 0.35647 0.0
C1781 C 0.9279 0.4112 0.35122 0.0
C1782 C 0.92288 0.42136 0.33067 0.0
H1783 H 0.9574 0.36988 0.2695 0.0
H1784 H 0.95386 0.37851 0.29729 0.0
H1785 H 0.92981 0.35555 0.28477 0.0
H1786 H 0.89038 0.36557 0.30962 0.0
H1787 H 0.89985 0.34751 0.34511 0.0
H1788 H 0.10276 0.93778 0.36478 0.0
H1789 H 0.08236 0.93099 0.32938 0.0
H1790 H 0.15336 0.88417 0.31023 0.0
H1791 H 0.17393 0.89147 0.34524 0.0
H1792 H 0.14395 0.92742 0.28425 0.0
H1793 H 0.04739 0.8686 0.29528 0.0
H1794 H 0.05072 0.89846 0.31194 0.0
H1795 H 0.0739 0.87011 0.31537 0.0
C1796 C 0.11343 0.92508 0.35327 0.0
C1797 C 0.13986 0.91501 0.35775 0.0
C1798 C 0.10182 0.9213 0.333 0.0
C1799 C 0.11632 0.90706 0.31707 0.0
C1800 C 0.14179 0.89529 0.32218 0.0
H1801 H 0.07243 0.8591 0.18893 0.0
H1802 H 0.08255 0.86182 0.22692 0.0
C1803 C 0.15346 0.89931 0.34225 0.0
C1804 C 0.10697 0.90716 0.29449 0.0
H1805 H 0.05534 0.88719 0.26092 0.0
C1806 C 0.12456 0.9186 0.27918 0.0
C1807 C 0.08171 0.89563 0.28782 0.0
C1808 C 0.06239 0.88228 0.3034 0.0
C1809 C 0.11779 0.91861 0.25746 0.0
C1810 C 0.09239 0.90739 0.25078 0.0
C1811 C 0.0747 0.89601 0.26606 0.0
C1812 C 0.08456 0.90617 0.22789 0.0
C1813 C 0.13833 0.9299 0.24179 0.0
C1814 C 0.08192 0.93023 0.21575 0.0
C1815 C 0.07619 0.92876 0.19392 0.0
C1816 C 0.07273 0.90319 0.1838 0.0
C1817 C 0.07479 0.87917 0.19614 0.0
C1818 C 0.08057 0.88066 0.21792 0.0
H1819 H 0.15921 0.93149 0.24883 0.0
H1820 H 0.13946 0.91679 0.22734 0.0
H1821 H 0.13185 0.95079 0.23687 0.0
H1822 H 0.08446 0.95018 0.22315 0.0
H1823 H 0.07453 0.94767 0.18497 0.0
H1824 H 0.38353 0.90846 0.86505 0.0
H1825 H 0.3946 0.89332 0.82877 0.0
H1826 H 0.41377 0.97683 0.81154 0.0
H1827 H 0.4021 0.99207 0.84734 0.0
H1828 H 0.38179 0.95342 0.78208 0.0
H1829 H 0.46845 0.88351 0.80101 0.0
H1830 H 0.43691 0.87512 0.81423 0.0
H1831 H 0.45415 0.90683 0.82038 0.0
C1832 C 0.39044 0.92349 0.85358 0.0
C1833 C 0.39198 0.95146 0.8591 0.0
C1834 C 0.39681 0.91482 0.83284 0.0
C1835 C 0.40527 0.93389 0.81739 0.0
C1836 C 0.40722 0.96171 0.82308 0.0
H1837 H 0.4935 0.90833 0.70122 0.0
H1838 H 0.47651 0.91944 0.73665 0.0
C1839 C 0.40061 0.97038 0.84363 0.0
C1840 C 0.41157 0.9254 0.79512 0.0
H1841 H 0.4544 0.88556 0.76511 0.0
C1842 C 0.39762 0.9385 0.77836 0.0
C1843 C 0.43235 0.90609 0.79023 0.0
C1844 C 0.44903 0.89223 0.80737 0.0
C1845 C 0.40422 0.93329 0.75695 0.0
C1846 C 0.42492 0.91389 0.75207 0.0
C1847 C 0.43845 0.90035 0.76882 0.0
C1848 C 0.4343 0.90858 0.72986 0.0
C1849 C 0.38974 0.94947 0.73984 0.0
C1850 C 0.41619 0.89917 0.71397 0.0
C1851 C 0.42585 0.89316 0.69344 0.0
C1852 C 0.45389 0.89601 0.68859 0.0
C1853 C 0.4718 0.90583 0.70444 0.0
C1854 C 0.46212 0.9121 0.72477 0.0
H1855 H 0.37971 0.96818 0.74635 0.0
H1856 H 0.40426 0.95574 0.72716 0.0
H1857 H 0.37355 0.93648 0.73251 0.0
H1858 H 0.39474 0.89574 0.71757 0.0
H1859 H 0.41162 0.88527 0.68165 0.0
H1860 H 0.61402 0.42248 0.68477 0.0
H1861 H 0.59983 0.40892 0.72064 0.0
H1862 H 0.62511 0.4879 0.74485 0.0
H1863 H 0.63894 0.50175 0.70916 0.0
H1864 H 0.63182 0.40543 0.75756 0.0
H1865 H 0.54722 0.48056 0.76801 0.0
H1866 H 0.56224 0.47317 0.7424 0.0
H1867 H 0.57946 0.49573 0.76075 0.0
C1868 C 0.61627 0.43709 0.69768 0.0
C1869 C 0.6275 0.46328 0.69402 0.0
C1870 C 0.60827 0.42925 0.7182 0.0
C1871 C 0.61113 0.44749 0.73542 0.0
C1872 C 0.62223 0.47364 0.73178 0.0
H1873 H 0.60173 0.39906 0.87052 0.0
H1874 H 0.61837 0.41656 0.83621 0.0
C1875 C 0.63024 0.48149 0.71132 0.0
C1876 C 0.60307 0.43899 0.75726 0.0
H1877 H 0.5602 0.45502 0.79843 0.0
C1878 C 0.61617 0.41626 0.76652 0.0
C1879 C 0.58253 0.45304 0.76889 0.0
C1880 C 0.56684 0.47683 0.75948 0.0
C1881 C 0.60928 0.40719 0.78707 0.0
C1882 C 0.58903 0.42151 0.79883 0.0
C1883 C 0.57598 0.44426 0.78955 0.0
C1884 C 0.57938 0.41191 0.82 0.0
C1885 C 0.62314 0.38188 0.79577 0.0
C1886 C 0.55183 0.40428 0.82249 0.0
C1887 C 0.54229 0.39454 0.84198 0.0
C1888 C 0.56003 0.39224 0.85959 0.0
C1889 C 0.58755 0.4005 0.85728 0.0
C1890 C 0.59713 0.41029 0.83764 0.0
H1891 H 0.63377 0.37 0.78312 0.0
H1892 H 0.63867 0.38809 0.80778 0.0
H1893 H 0.60801 0.36826 0.80368 0.0
H1894 H 0.53771 0.40543 0.80918 0.0
H1895 H 0.52093 0.38856 0.84312 0.0
H1896 H 0.01338 0.64104 0.70426 0.0
H1897 H 0.0265 0.62709 0.7401 0.0
H1898 H 0.10338 0.59593 0.71618 0.0
H1899 H 0.09064 0.61037 0.68016 0.0
H1900 H 0.03869 0.57717 0.7567 0.0
H1901 H 0.12856 0.6465 0.76404 0.0
H1902 H 0.10362 0.6497 0.74292 0.0
H1903 H 0.13008 0.62401 0.7414 0.0
C1904 C 0.03309 0.63116 0.70654 0.0
C1905 C 0.05103 0.627 0.6893 0.0
C1906 C 0.04055 0.6232 0.72709 0.0
C1907 C 0.06615 0.61096 0.73095 0.0
C1908 C 0.0838 0.60596 0.71369 0.0
H1909 H 0.1149 0.51877 0.84153 0.0
H1910 H 0.09944 0.53503 0.80697 0.0
C1911 C 0.07637 0.61399 0.69307 0.0
C1912 C 0.07405 0.60324 0.75302 0.0
H1913 H 0.12262 0.61358 0.79156 0.0
C1914 C 0.057 0.58521 0.76433 0.0
C1915 C 0.09765 0.61415 0.76317 0.0
C1916 C 0.11591 0.63488 0.75237 0.0
C1917 C 0.06323 0.57726 0.78526 0.0
C1918 C 0.08746 0.58722 0.79507 0.0
C1919 C 0.10416 0.6058 0.78399 0.0
C1920 C 0.09639 0.57764 0.81644 0.0
C1921 C 0.04363 0.55844 0.79674 0.0
C1922 C 0.10042 0.59628 0.83328 0.0
C1923 C 0.10948 0.58703 0.85323 0.0
C1924 C 0.11491 0.55899 0.85659 0.0
C1925 C 0.11084 0.54049 0.83963 0.0
C1926 C 0.10181 0.54972 0.81981 0.0
H1927 H 0.02265 0.55945 0.78981 0.0
H1928 H 0.05098 0.53696 0.79523 0.0
H1929 H 0.04242 0.56366 0.81392 0.0
H1930 H 0.09653 0.61798 0.83099 0.0
H1931 H 0.11256 0.60185 0.86589 0.0
H1932 H 0.92323 0.1066 0.86019 0.0
H1933 H 0.91183 0.09401 0.8234 0.0
H1934 H 0.9914 0.1222 0.8029 0.0
H1935 H 1.00315 0.13417 0.83943 0.0
H1936 H 0.90807 0.12744 0.78906 0.0
H1937 H 0.98761 0.04894 0.77337 0.0
H1938 H 0.97984 0.06096 0.79987 0.0
H1939 H 1.00217 0.08051 0.78284 0.0
C1940 C 0.93847 0.10968 0.84789 0.0
C1941 C 0.96416 0.12131 0.85284 0.0
C1942 C 0.93188 0.10256 0.82685 0.0
C1943 C 0.9509 0.10674 0.81035 0.0
C1944 C 0.97661 0.11808 0.81534 0.0
H1945 H 0.95117 0.10734 0.67263 0.0
H1946 H 0.96108 0.11211 0.7107 0.0
C1947 C 0.98323 0.12511 0.8363 0.0
C1948 C 0.94342 0.10093 0.78777 0.0
H1949 H 0.96537 0.06807 0.74272 0.0
C1950 C 0.92041 0.11417 0.77901 0.0
C1951 C 0.95951 0.08364 0.77458 0.0
C1952 C 0.98349 0.06748 0.7832 0.0
C1953 C 0.91362 0.11134 0.75735 0.0
C1954 C 0.93014 0.09465 0.74409 0.0
C1955 C 0.95286 0.08104 0.75287 0.0
C1956 C 0.92424 0.09128 0.72101 0.0
C1957 C 0.88927 0.12685 0.74864 0.0
C1958 C 0.90043 0.07766 0.71415 0.0
C1959 C 0.89476 0.07477 0.69241 0.0
C1960 C 0.91276 0.08552 0.67702 0.0
C1961 C 0.93677 0.09891 0.68398 0.0
C1962 C 0.94251 0.10162 0.70575 0.0
H1963 H 0.88192 0.14288 0.75987 0.0
H1964 H 0.89453 0.13673 0.73328 0.0
H1965 H 0.87217 0.11227 0.74568 0.0
H1966 H 0.88622 0.06918 0.72563 0.0
H1967 H 0.87616 0.06424 0.68774 0.0
loop_
_geom_bond_atom_site_label_1
_geom_bond_atom_site_label_2
_geom_bond_distance
_geom_bond_site_symmetry_2
_ccdc_geom_bond_type
C0 C1 1.351 . S
C0 N3 1.368 . S
C0 H5 0.931 . S
C1 C0 1.351 . S
C1 N2 1.373 . S
C1 H29 0.930 . S
N2 C1 1.373 . S
N2 C4 1.340 . S
N3 C0 1.368 . S
N3 C4 1.321 . S
N3 Co6 2.135 . S
C4 N2 1.340 . S
C4 N3 1.321 . S
C4 H28 0.930 . S
H5 C0 0.931 . S
Co6 N3 2.135 . S
Co6 N9 2.157 . S
Co6 O14 2.055 . S
Co6 O17 2.039 . S
Co6 N20 2.140 . S
C7 O8 1.227 . S
C7 O17 1.265 . S
O8 C7 1.227 . S
N9 Co6 2.157 . S
N9 C11 1.357 1_545 S
N9 C12 1.286 1_545 S
C10 C11 1.338 . S
C10 N13 1.377 . S
C10 H30 0.930 . S
C11 N9 1.357 1_565 S
C11 C10 1.338 . S
C11 H15 0.931 . S
C12 N9 1.286 1_565 S
C12 N13 1.344 . S
C12 H16 0.930 . S
N13 C10 1.377 . S
N13 C12 1.344 . S
O14 Co6 2.055 . S
O14 C18 1.253 . S
H15 C11 0.931 . S
H16 C12 0.930 . S
O17 Co6 2.039 . S
O17 C7 1.265 . S
C18 O14 1.253 . S
C18 O19 1.227 . S
O19 C18 1.227 . S
N20 Co6 2.140 . S
N20 C23 1.346 . S
N20 C24 1.329 1_545 S
C21 C22 1.387 . S
C21 C25 1.391 1_545 S
C22 C21 1.387 . S
C22 C23 1.369 . S
C22 H31 0.929 . S
C23 N20 1.346 . S
C23 C22 1.369 . S
C23 H26 0.928 . S
C24 N20 1.329 1_565 S
C24 C25 1.378 . S
C24 H27 0.940 . S
C25 C21 1.391 1_565 S
C25 C24 1.378 . S
C25 H32 0.930 . S
H26 C23 0.928 . S
H27 C24 0.940 . S
H28 C4 0.930 . S
H29 C1 0.930 . S
H30 C10 0.930 . S
H31 C22 0.929 . S
H32 C25 0.930 . S
C33 C34 1.351 . S
C33 N36 1.368 . S
C33 H38 0.931 . S
C34 C33 1.351 . S
C34 N35 1.373 . S
C34 H62 0.930 . S
N35 C34 1.373 . S
N35 C37 1.340 . S
N36 C33 1.368 . S
N36 C37 1.321 . S
N36 Co39 2.135 . S
C37 N35 1.340 . S
C37 N36 1.321 . S
C37 H61 0.930 . S
H38 C33 0.931 . S
Co39 N36 2.135 . S
Co39 N42 2.121 . S
Co39 O47 2.055 . S
Co39 O50 2.039 . S
Co39 N53 2.140 . S
C40 O41 1.227 . S
C40 O50 1.265 . S
O41 C40 1.227 . S
N42 Co39 2.121 . S
N42 C44 1.375 . S
N42 C45 1.313 . S
C43 C44 1.338 . S
C43 N46 1.377 . S
C43 H63 0.930 . S
C44 N42 1.375 . S
C44 C43 1.338 . S
C44 H48 0.931 . S
C45 N42 1.313 . S
C45 N46 1.344 . S
C45 H49 0.930 . S
N46 C43 1.377 . S
N46 C45 1.344 . S
O47 Co39 2.055 . S
O47 C51 1.253 . S
H48 C44 0.931 . S
H49 C45 0.930 . S
O50 Co39 2.039 . S
O50 C40 1.265 . S
C51 O47 1.253 . S
C51 O52 1.227 . S
O52 C51 1.227 . S
N53 Co39 2.140 . S
N53 C56 1.346 . S
N53 C57 1.345 . S
C54 C55 1.387 . S
C54 C58 1.391 . S
C55 C54 1.387 . S
C55 C56 1.369 . S
C55 H64 0.929 . S
C56 N53 1.346 . S
C56 C55 1.369 . S
C56 H59 0.928 . S
C57 N53 1.345 . S
C57 C58 1.371 . S
C57 H60 0.931 . S
C58 C54 1.391 . S
C58 C57 1.371 . S
C58 H65 0.930 . S
H59 C56 0.928 . S
H60 C57 0.931 . S
H61 C37 0.930 . S
H62 C34 0.930 . S
H63 C43 0.930 . S
H64 C55 0.929 . S
H65 C58 0.930 . S
C66 C67 1.351 . S
C66 N69 1.368 . S
C66 H71 0.931 . S
C67 C66 1.351 . S
C67 N68 1.373 . S
C67 H95 0.930 . S
N68 C67 1.373 . S
N68 C70 1.340 . S
N69 C66 1.368 . S
N69 C70 1.321 . S
N69 Co72 2.135 . S
C70 N68 1.340 . S
C70 N69 1.321 . S
C70 H94 0.930 . S
H71 C66 0.931 . S
Co72 N69 2.135 . S
Co72 N75 2.121 . S
Co72 O80 2.055 . S
Co72 O83 2.039 . S
Co72 N86 2.140 . S
C73 O74 1.227 . S
C73 O83 1.265 . S
O74 C73 1.227 . S
N75 Co72 2.121 . S
N75 C77 1.375 . S
N75 C78 1.313 . S
C76 C77 1.338 . S
C76 N79 1.377 . S
C76 H96 0.930 . S
C77 N75 1.375 . S
C77 C76 1.338 . S
C77 H81 0.931 . S
C78 N75 1.313 . S
C78 N79 1.344 . S
C78 H82 0.930 . S
N79 C76 1.377 . S
N79 C78 1.344 . S
O80 Co72 2.055 . S
O80 C84 1.253 . S
H81 C77 0.931 . S
H82 C78 0.930 . S
O83 Co72 2.039 . S
O83 C73 1.265 . S
C84 O80 1.253 . S
C84 O85 1.227 . S
O85 C84 1.227 . S
N86 Co72 2.140 . S
N86 C89 1.346 . S
N86 C90 1.345 . S
C87 C88 1.387 . S
C87 C91 1.391 . S
C88 C87 1.387 . S
C88 C89 1.369 . S
C88 H97 0.929 . S
C89 N86 1.346 . S
C89 C88 1.369 . S
C89 H92 0.928 . S
C90 N86 1.345 . S
C90 C91 1.371 . S
C90 H93 0.931 . S
C91 C87 1.391 . S
C91 C90 1.371 . S
C91 H98 0.930 . S
H92 C89 0.928 . S
H93 C90 0.931 . S
H94 C70 0.930 . S
H95 C67 0.930 . S
H96 C76 0.930 . S
H97 C88 0.929 . S
H98 C91 0.930 . S
C99 C100 1.351 . S
C99 N102 1.368 . S
C99 H104 0.931 . S
C100 C99 1.351 . S
C100 N101 1.373 . S
C100 H128 0.930 . S
N101 C100 1.373 . S
N101 C103 1.340 . S
N102 C99 1.368 . S
N102 C103 1.321 . S
N102 Co105 2.135 . S
C103 N101 1.340 . S
C103 N102 1.321 . S
C103 H127 0.930 . S
H104 C99 0.931 . S
Co105 N102 2.135 . S
Co105 N108 2.157 . S
Co105 O113 2.055 . S
Co105 O116 2.039 . S
Co105 N119 2.140 . S
C106 O107 1.227 . S
C106 O116 1.265 . S
O107 C106 1.227 . S
N108 Co105 2.157 . S
N108 C110 1.357 1_455 S
N108 C111 1.286 1_455 S
C109 C110 1.338 . S
C109 N112 1.377 . S
C109 H129 0.930 . S
C110 N108 1.357 1_655 S
C110 C109 1.338 . S
C110 H114 0.931 . S
C111 N108 1.286 1_655 S
C111 N112 1.344 . S
C111 H115 0.930 . S
N112 C109 1.377 . S
N112 C111 1.344 . S
O113 Co105 2.055 . S
O113 C117 1.253 . S
H114 C110 0.931 . S
H115 C111 0.930 . S
O116 Co105 2.039 . S
O116 C106 1.265 . S
C117 O113 1.253 . S
C117 O118 1.227 . S
O118 C117 1.227 . S
N119 Co105 2.140 . S
N119 C122 1.346 . S
N119 C123 1.329 1_455 S
C120 C121 1.387 . S
C120 C124 1.391 1_455 S
C121 C120 1.387 . S
C121 C122 1.369 . S
C121 H130 0.929 . S
C122 N119 1.346 . S
C122 C121 1.369 . S
C122 H125 0.928 . S
C123 N119 1.329 1_655 S
C123 C124 1.378 . S
C123 H126 0.940 . S
C124 C120 1.391 1_655 S
C124 C123 1.378 . S
C124 H131 0.930 . S
H125 C122 0.928 . S
H126 C123 0.940 . S
H127 C103 0.930 . S
H128 C100 0.930 . S
H129 C109 0.930 . S
H130 C121 0.929 . S
H131 C124 0.930 . S
C132 C133 1.351 . S
C132 N135 1.368 . S
C132 H137 0.931 . S
C133 C132 1.351 . S
C133 N134 1.373 . S
C133 H161 0.930 . S
N134 C133 1.373 . S
N134 C136 1.340 . S
N135 C132 1.368 . S
N135 C136 1.321 . S
N135 Co138 2.135 . S
C136 N134 1.340 . S
C136 N135 1.321 . S
C136 H160 0.930 . S
H137 C132 0.931 . S
Co138 N135 2.135 . S
Co138 N141 2.157 . S
Co138 O146 2.055 . S
Co138 O149 2.039 . S
Co138 N152 2.140 . S
C139 O140 1.227 . S
C139 O149 1.265 . S
O140 C139 1.227 . S
N141 Co138 2.157 . S
N141 C143 1.357 1_565 S
N141 C144 1.286 1_565 S
C142 C143 1.338 . S
C142 N145 1.377 . S
C142 H162 0.930 . S
C143 N141 1.357 1_545 S
C143 C142 1.338 . S
C143 H147 0.931 . S
C144 N141 1.286 1_545 S
C144 N145 1.344 . S
C144 H148 0.930 . S
N145 C142 1.377 . S
N145 C144 1.344 . S
O146 Co138 2.055 . S
O146 C150 1.253 . S
H147 C143 0.931 . S
H148 C144 0.930 . S
O149 Co138 2.039 . S
O149 C139 1.265 . S
C150 O146 1.253 . S
C150 O151 1.227 . S
O151 C150 1.227 . S
N152 Co138 2.140 . S
N152 C155 1.346 . S
N152 C156 1.329 1_565 S
C153 C154 1.387 . S
C153 C157 1.391 1_565 S
C154 C153 1.387 . S
C154 C155 1.369 . S
C154 H163 0.929 . S
C155 N152 1.346 . S
C155 C154 1.369 . S
C155 H158 0.928 . S
C156 N152 1.329 1_545 S
C156 C157 1.378 . S
C156 H159 0.940 . S
C157 C153 1.391 1_545 S
C157 C156 1.378 . S
C157 H164 0.930 . S
H158 C155 0.928 . S
H159 C156 0.940 . S
H160 C136 0.930 . S
H161 C133 0.930 . S
H162 C142 0.930 . S
H163 C154 0.929 . S
H164 C157 0.930 . S
C165 C166 1.351 . S
C165 N168 1.368 . S
C165 H170 0.931 . S
C166 C165 1.351 . S
C166 N167 1.373 . S
C166 H194 0.930 . S
N167 C166 1.373 . S
N167 C169 1.340 . S
N168 C165 1.368 . S
N168 C169 1.321 . S
N168 Co171 2.135 . S
C169 N167 1.340 . S
C169 N168 1.321 . S
C169 H193 0.930 . S
H170 C165 0.931 . S
Co171 N168 2.135 . S
Co171 N174 2.121 . S
Co171 O179 2.055 . S
Co171 O182 2.039 . S
Co171 N185 2.140 . S
C172 O173 1.227 . S
C172 O182 1.265 . S
O173 C172 1.227 . S
N174 Co171 2.121 . S
N174 C176 1.375 . S
N174 C177 1.313 . S
C175 C176 1.338 . S
C175 N178 1.377 . S
C175 H195 0.930 . S
C176 N174 1.375 . S
C176 C175 1.338 . S
C176 H180 0.931 . S
C177 N174 1.313 . S
C177 N178 1.344 . S
C177 H181 0.930 . S
N178 C175 1.377 . S
N178 C177 1.344 . S
O179 Co171 2.055 . S
O179 C183 1.253 . S
H180 C176 0.931 . S
H181 C177 0.930 . S
O182 Co171 2.039 . S
O182 C172 1.265 . S
C183 O179 1.253 . S
C183 O184 1.227 . S
O184 C183 1.227 . S
N185 Co171 2.140 . S
N185 C188 1.346 . S
N185 C189 1.345 . S
C186 C187 1.387 . S
C186 C190 1.391 . S
C187 C186 1.387 . S
C187 C188 1.369 . S
C187 H196 0.929 . S
C188 N185 1.346 . S
C188 C187 1.369 . S
C188 H191 0.928 . S
C189 N185 1.345 . S
C189 C190 1.371 . S
C189 H192 0.931 . S
C190 C186 1.391 . S
C190 C189 1.371 . S
C190 H197 0.930 . S
H191 C188 0.928 . S
H192 C189 0.931 . S
H193 C169 0.930 . S
H194 C166 0.930 . S
H195 C175 0.930 . S
H196 C187 0.929 . S
H197 C190 0.930 . S
C198 C199 1.351 . S
C198 N201 1.368 . S
C198 H203 0.931 . S
C199 C198 1.351 . S
C199 N200 1.373 . S
C199 H227 0.930 . S
N200 C199 1.373 . S
N200 C202 1.340 . S
N201 C198 1.368 . S
N201 C202 1.321 . S
N201 Co204 2.135 . S
C202 N200 1.340 . S
C202 N201 1.321 . S
C202 H226 0.930 . S
H203 C198 0.931 . S
Co204 N201 2.135 . S
Co204 N207 2.121 . S
Co204 O212 2.055 . S
Co204 O215 2.039 . S
Co204 N218 2.140 . S
C205 O206 1.227 . S
C205 O215 1.265 . S
O206 C205 1.227 . S
N207 Co204 2.121 . S
N207 C209 1.375 . S
N207 C210 1.313 . S
C208 C209 1.338 . S
C208 N211 1.377 . S
C208 H228 0.930 . S
C209 N207 1.375 . S
C209 C208 1.338 . S
C209 H213 0.931 . S
C210 N207 1.313 . S
C210 N211 1.344 . S
C210 H214 0.930 . S
N211 C208 1.377 . S
N211 C210 1.344 . S
O212 Co204 2.055 . S
O212 C216 1.253 . S
H213 C209 0.931 . S
H214 C210 0.930 . S
O215 Co204 2.039 . S
O215 C205 1.265 . S
C216 O212 1.253 . S
C216 O217 1.227 . S
O217 C216 1.227 . S
N218 Co204 2.140 . S
N218 C221 1.346 . S
N218 C222 1.345 . S
C219 C220 1.387 . S
C219 C223 1.391 . S
C220 C219 1.387 . S
C220 C221 1.369 . S
C220 H229 0.929 . S
C221 N218 1.346 . S
C221 C220 1.369 . S
C221 H224 0.928 . S
C222 N218 1.345 . S
C222 C223 1.371 . S
C222 H225 0.931 . S
C223 C219 1.391 . S
C223 C222 1.371 . S
C223 H230 0.930 . S
H224 C221 0.928 . S
H225 C222 0.931 . S
H226 C202 0.930 . S
H227 C199 0.930 . S
H228 C208 0.930 . S
H229 C220 0.929 . S
H230 C223 0.930 . S
C231 C232 1.351 . S
C231 N234 1.368 . S
C231 H236 0.931 . S
C232 C231 1.351 . S
C232 N233 1.373 . S
C232 H260 0.930 . S
N233 C232 1.373 . S
N233 C235 1.340 . S
N234 C231 1.368 . S
N234 C235 1.321 . S
N234 Co237 2.135 . S
C235 N233 1.340 . S
C235 N234 1.321 . S
C235 H259 0.930 . S
H236 C231 0.931 . S
Co237 N234 2.135 . S
Co237 N240 2.157 . S
Co237 O245 2.055 . S
Co237 O248 2.039 . S
Co237 N251 2.140 . S
C238 O239 1.227 . S
C238 O248 1.265 . S
O239 C238 1.227 . S
N240 Co237 2.157 . S
N240 C242 1.357 1_655 S
N240 C243 1.286 1_655 S
C241 C242 1.338 . S
C241 N244 1.377 . S
C241 H261 0.930 . S
C242 N240 1.357 1_455 S
C242 C241 1.338 . S
C242 H246 0.931 . S
C243 N240 1.286 1_455 S
C243 N244 1.344 . S
C243 H247 0.930 . S
N244 C241 1.377 . S
N244 C243 1.344 . S
O245 Co237 2.055 . S
O245 C249 1.253 . S
H246 C242 0.931 . S
H247 C243 0.930 . S
O248 Co237 2.039 . S
O248 C238 1.265 . S
C249 O245 1.253 . S
C249 O250 1.227 . S
O250 C249 1.227 . S
N251 Co237 2.140 . S
N251 C254 1.346 . S
N251 C255 1.329 1_655 S
C252 C253 1.387 . S
C252 C256 1.391 1_655 S
C253 C252 1.387 . S
C253 C254 1.369 . S
C253 H262 0.929 . S
C254 N251 1.346 . S
C254 C253 1.369 . S
C254 H257 0.928 . S
C255 N251 1.329 1_455 S
C255 C256 1.378 . S
C255 H258 0.940 . S
C256 C252 1.391 1_455 S
C256 C255 1.378 . S
C256 H263 0.930 . S
H257 C254 0.928 . S
H258 C255 0.940 . S
H259 C235 0.930 . S
H260 C232 0.930 . S
H261 C241 0.930 . S
H262 C253 0.929 . S
H263 C256 0.930 . S
C264 C265 1.351 . S
C264 N267 1.368 . S
C264 H269 0.931 . S
C265 C264 1.351 . S
C265 N266 1.373 . S
C265 H293 0.930 . S
N266 C265 1.373 . S
N266 C268 1.340 . S
N267 C264 1.368 . S
N267 C268 1.321 . S
N267 Co270 2.135 . S
C268 N266 1.340 . S
C268 N267 1.321 . S
C268 H292 0.930 . S
H269 C264 0.931 . S
Co270 N267 2.135 . S
Co270 N273 2.157 . S
Co270 O278 2.055 . S
Co270 O281 2.039 . S
Co270 N284 2.140 . S
C271 O272 1.227 . S
C271 O281 1.265 . S
O272 C271 1.227 . S
N273 Co270 2.157 . S
N273 C275 1.357 1_565 S
N273 C276 1.286 1_565 S
C274 C275 1.338 . S
C274 N277 1.377 . S
C274 H294 0.930 . S
C275 N273 1.357 1_545 S
C275 C274 1.338 . S
C275 H279 0.931 . S
C276 N273 1.286 1_545 S
C276 N277 1.344 . S
C276 H280 0.930 . S
N277 C274 1.377 . S
N277 C276 1.344 . S
O278 Co270 2.055 . S
O278 C282 1.253 . S
H279 C275 0.931 . S
H280 C276 0.930 . S
O281 Co270 2.039 . S
O281 C271 1.265 . S
C282 O278 1.253 . S
C282 O283 1.227 . S
O283 C282 1.227 . S
N284 Co270 2.140 . S
N284 C287 1.346 . S
N284 C288 1.329 1_565 S
C285 C286 1.387 . S
C285 C289 1.391 1_565 S
C286 C285 1.387 . S
C286 C287 1.369 . S
C286 H295 0.929 . S
C287 N284 1.346 . S
C287 C286 1.369 . S
C287 H290 0.928 . S
C288 N284 1.329 1_545 S
C288 C289 1.378 . S
C288 H291 0.940 . S
C289 C285 1.391 1_545 S
C289 C288 1.378 . S
C289 H296 0.930 . S
H290 C287 0.928 . S
H291 C288 0.940 . S
H292 C268 0.930 . S
H293 C265 0.930 . S
H294 C274 0.930 . S
H295 C286 0.929 . S
H296 C289 0.930 . S
C297 C298 1.351 . S
C297 N300 1.368 . S
C297 H302 0.931 . S
C298 C297 1.351 . S
C298 N299 1.373 . S
C298 H326 0.930 . S
N299 C298 1.373 . S
N299 C301 1.340 . S
N300 C297 1.368 . S
N300 C301 1.321 . S
N300 Co303 2.135 . S
C301 N299 1.340 . S
C301 N300 1.321 . S
C301 H325 0.930 . S
H302 C297 0.931 . S
Co303 N300 2.135 . S
Co303 N306 2.121 . S
Co303 O311 2.055 . S
Co303 O314 2.039 . S
Co303 N317 2.140 . S
C304 O305 1.227 . S
C304 O314 1.265 . S
O305 C304 1.227 . S
N306 Co303 2.121 . S
N306 C308 1.375 . S
N306 C309 1.313 . S
C307 C308 1.338 . S
C307 N310 1.377 . S
C307 H327 0.930 . S
C308 N306 1.375 . S
C308 C307 1.338 . S
C308 H312 0.931 . S
C309 N306 1.313 . S
C309 N310 1.344 . S
C309 H313 0.930 . S
N310 C307 1.377 . S
N310 C309 1.344 . S
O311 Co303 2.055 . S
O311 C315 1.253 . S
H312 C308 0.931 . S
H313 C309 0.930 . S
O314 Co303 2.039 . S
O314 C304 1.265 . S
C315 O311 1.253 . S
C315 O316 1.227 . S
O316 C315 1.227 . S
N317 Co303 2.140 . S
N317 C320 1.346 . S
N317 C321 1.345 . S
C318 C319 1.387 . S
C318 C322 1.391 . S
C319 C318 1.387 . S
C319 C320 1.369 . S
C319 H328 0.929 . S
C320 N317 1.346 . S
C320 C319 1.369 . S
C320 H323 0.928 . S
C321 N317 1.345 . S
C321 C322 1.371 . S
C321 H324 0.931 . S
C322 C318 1.391 . S
C322 C321 1.371 . S
C322 H329 0.930 . S
H323 C320 0.928 . S
H324 C321 0.931 . S
H325 C301 0.930 . S
H326 C298 0.930 . S
H327 C307 0.930 . S
H328 C319 0.929 . S
H329 C322 0.930 . S
C330 C331 1.351 . S
C330 N333 1.368 . S
C330 H335 0.931 . S
C331 C330 1.351 . S
C331 N332 1.373 . S
C331 H359 0.930 . S
N332 C331 1.373 . S
N332 C334 1.340 . S
N333 C330 1.368 . S
N333 C334 1.321 . S
N333 Co336 2.135 . S
C334 N332 1.340 . S
C334 N333 1.321 . S
C334 H358 0.930 . S
H335 C330 0.931 . S
Co336 N333 2.135 . S
Co336 N339 2.121 . S
Co336 O344 2.055 . S
Co336 O347 2.039 . S
Co336 N350 2.140 . S
C337 O338 1.227 . S
C337 O347 1.265 . S
O338 C337 1.227 . S
N339 Co336 2.121 . S
N339 C341 1.375 . S
N339 C342 1.313 . S
C340 C341 1.338 . S
C340 N343 1.377 . S
C340 H360 0.930 . S
C341 N339 1.375 . S
C341 C340 1.338 . S
C341 H345 0.931 . S
C342 N339 1.313 . S
C342 N343 1.344 . S
C342 H346 0.930 . S
N343 C340 1.377 . S
N343 C342 1.344 . S
O344 Co336 2.055 . S
O344 C348 1.253 . S
H345 C341 0.931 . S
H346 C342 0.930 . S
O347 Co336 2.039 . S
O347 C337 1.265 . S
C348 O344 1.253 . S
C348 O349 1.227 . S
O349 C348 1.227 . S
N350 Co336 2.140 . S
N350 C353 1.346 . S
N350 C354 1.345 . S
C351 C352 1.387 . S
C351 C355 1.391 . S
C352 C351 1.387 . S
C352 C353 1.369 . S
C352 H361 0.929 . S
C353 N350 1.346 . S
C353 C352 1.369 . S
C353 H356 0.928 . S
C354 N350 1.345 . S
C354 C355 1.371 . S
C354 H357 0.931 . S
C355 C351 1.391 . S
C355 C354 1.371 . S
C355 H362 0.930 . S
H356 C353 0.928 . S
H357 C354 0.931 . S
H358 C334 0.930 . S
H359 C331 0.930 . S
H360 C340 0.930 . S
H361 C352 0.929 . S
H362 C355 0.930 . S
C363 C364 1.351 . S
C363 N366 1.368 . S
C363 H368 0.931 . S
C364 C363 1.351 . S
C364 N365 1.373 . S
C364 H392 0.930 . S
N365 C364 1.373 . S
N365 C367 1.340 . S
N366 C363 1.368 . S
N366 C367 1.321 . S
N366 Co369 2.135 . S
C367 N365 1.340 . S
C367 N366 1.321 . S
C367 H391 0.930 . S
H368 C363 0.931 . S
Co369 N366 2.135 . S
Co369 N372 2.157 . S
Co369 O377 2.055 . S
Co369 O380 2.039 . S
Co369 N383 2.140 . S
C370 O371 1.227 . S
C370 O380 1.265 . S
O371 C370 1.227 . S
N372 Co369 2.157 . S
N372 C374 1.357 1_655 S
N372 C375 1.286 1_655 S
C373 C374 1.338 . S
C373 N376 1.377 . S
C373 H393 0.930 . S
C374 N372 1.357 1_455 S
C374 C373 1.338 . S
C374 H378 0.931 . S
C375 N372 1.286 1_455 S
C375 N376 1.344 . S
C375 H379 0.930 . S
N376 C373 1.377 . S
N376 C375 1.344 . S
O377 Co369 2.055 . S
O377 C381 1.253 . S
H378 C374 0.931 . S
H379 C375 0.930 . S
O380 Co369 2.039 . S
O380 C370 1.265 . S
C381 O377 1.253 . S
C381 O382 1.227 . S
O382 C381 1.227 . S
N383 Co369 2.140 . S
N383 C386 1.346 . S
N383 C387 1.329 1_655 S
C384 C385 1.387 . S
C384 C388 1.391 1_655 S
C385 C384 1.387 . S
C385 C386 1.369 . S
C385 H394 0.929 . S
C386 N383 1.346 . S
C386 C385 1.369 . S
C386 H389 0.928 . S
C387 N383 1.329 1_455 S
C387 C388 1.378 . S
C387 H390 0.940 . S
C388 C384 1.391 1_455 S
C388 C387 1.378 . S
C388 H395 0.930 . S
H389 C386 0.928 . S
H390 C387 0.940 . S
H391 C367 0.930 . S
H392 C364 0.930 . S
H393 C373 0.930 . S
H394 C385 0.929 . S
H395 C388 0.930 . S
C396 C397 1.351 . S
C396 N399 1.368 . S
C396 H401 0.931 . S
C397 C396 1.351 . S
C397 N398 1.373 . S
C397 H425 0.930 . S
N398 C397 1.373 . S
N398 C400 1.340 . S
N399 C396 1.368 . S
N399 C400 1.321 . S
N399 Co402 2.135 . S
C400 N398 1.340 . S
C400 N399 1.321 . S
C400 H424 0.930 . S
H401 C396 0.931 . S
Co402 N399 2.135 . S
Co402 N405 2.157 . S
Co402 O410 2.055 . S
Co402 O413 2.039 . S
Co402 N416 2.140 . S
C403 O404 1.227 . S
C403 O413 1.265 . S
O404 C403 1.227 . S
N405 Co402 2.157 . S
N405 C407 1.357 1_545 S
N405 C408 1.286 1_545 S
C406 C407 1.338 . S
C406 N409 1.377 . S
C406 H426 0.930 . S
C407 N405 1.357 1_565 S
C407 C406 1.338 . S
C407 H411 0.931 . S
C408 N405 1.286 1_565 S
C408 N409 1.344 . S
C408 H412 0.930 . S
N409 C406 1.377 . S
N409 C408 1.344 . S
O410 Co402 2.055 . S
O410 C414 1.253 . S
H411 C407 0.931 . S
H412 C408 0.930 . S
O413 Co402 2.039 . S
O413 C403 1.265 . S
C414 O410 1.253 . S
C414 O415 1.227 . S
O415 C414 1.227 . S
N416 Co402 2.140 . S
N416 C419 1.346 . S
N416 C420 1.329 1_545 S
C417 C418 1.387 . S
C417 C421 1.391 1_545 S
C418 C417 1.387 . S
C418 C419 1.369 . S
C418 H427 0.929 . S
C419 N416 1.346 . S
C419 C418 1.369 . S
C419 H422 0.928 . S
C420 N416 1.329 1_565 S
C420 C421 1.378 . S
C420 H423 0.940 . S
C421 C417 1.391 1_565 S
C421 C420 1.378 . S
C421 H428 0.930 . S
H422 C419 0.928 . S
H423 C420 0.940 . S
H424 C400 0.930 . S
H425 C397 0.930 . S
H426 C406 0.930 . S
H427 C418 0.929 . S
H428 C421 0.930 . S
C429 C430 1.351 . S
C429 N432 1.368 . S
C429 H434 0.931 . S
C430 C429 1.351 . S
C430 N431 1.373 . S
C430 H458 0.930 . S
N431 C430 1.373 . S
N431 C433 1.340 . S
N432 C429 1.368 . S
N432 C433 1.321 . S
N432 Co435 2.135 . S
C433 N431 1.340 . S
C433 N432 1.321 . S
C433 H457 0.930 . S
H434 C429 0.931 . S
Co435 N432 2.135 . S
Co435 N438 2.121 . S
Co435 O443 2.055 . S
Co435 O446 2.039 . S
Co435 N449 2.140 . S
C436 O437 1.227 . S
C436 O446 1.265 . S
O437 C436 1.227 . S
N438 Co435 2.121 . S
N438 C440 1.375 . S
N438 C441 1.313 . S
C439 C440 1.338 . S
C439 N442 1.377 . S
C439 H459 0.930 . S
C440 N438 1.375 . S
C440 C439 1.338 . S
C440 H444 0.931 . S
C441 N438 1.313 . S
C441 N442 1.344 . S
C441 H445 0.930 . S
N442 C439 1.377 . S
N442 C441 1.344 . S
O443 Co435 2.055 . S
O443 C447 1.253 . S
H444 C440 0.931 . S
H445 C441 0.930 . S
O446 Co435 2.039 . S
O446 C436 1.265 . S
C447 O443 1.253 . S
C447 O448 1.227 . S
O448 C447 1.227 . S
N449 Co435 2.140 . S
N449 C452 1.346 . S
N449 C453 1.345 . S
C450 C451 1.387 . S
C450 C454 1.391 . S
C451 C450 1.387 . S
C451 C452 1.369 . S
C451 H460 0.929 . S
C452 N449 1.346 . S
C452 C451 1.369 . S
C452 H455 0.928 . S
C453 N449 1.345 . S
C453 C454 1.371 . S
C453 H456 0.931 . S
C454 C450 1.391 . S
C454 C453 1.371 . S
C454 H461 0.930 . S
H455 C452 0.928 . S
H456 C453 0.931 . S
H457 C433 0.930 . S
H458 C430 0.930 . S
H459 C439 0.930 . S
H460 C451 0.929 . S
H461 C454 0.930 . S
C462 C463 1.351 . S
C462 N465 1.368 . S
C462 H467 0.931 . S
C463 C462 1.351 . S
C463 N464 1.373 . S
C463 H491 0.930 . S
N464 C463 1.373 . S
N464 C466 1.340 . S
N465 C462 1.368 . S
N465 C466 1.321 . S
N465 Co468 2.135 . S
C466 N464 1.340 . S
C466 N465 1.321 . S
C466 H490 0.930 . S
H467 C462 0.931 . S
Co468 N465 2.135 . S
Co468 N471 2.121 . S
Co468 O476 2.055 . S
Co468 O479 2.039 . S
Co468 N482 2.140 . S
C469 O470 1.227 . S
C469 O479 1.265 . S
O470 C469 1.227 . S
N471 Co468 2.121 . S
N471 C473 1.375 . S
N471 C474 1.313 . S
C472 C473 1.338 . S
C472 N475 1.377 . S
C472 H492 0.930 . S
C473 N471 1.375 . S
C473 C472 1.338 . S
C473 H477 0.931 . S
C474 N471 1.313 . S
C474 N475 1.344 . S
C474 H478 0.930 . S
N475 C472 1.377 . S
N475 C474 1.344 . S
O476 Co468 2.055 . S
O476 C480 1.253 . S
H477 C473 0.931 . S
H478 C474 0.930 . S
O479 Co468 2.039 . S
O479 C469 1.265 . S
C480 O476 1.253 . S
C480 O481 1.227 . S
O481 C480 1.227 . S
N482 Co468 2.140 . S
N482 C485 1.346 . S
N482 C486 1.345 . S
C483 C484 1.387 . S
C483 C487 1.391 . S
C484 C483 1.387 . S
C484 C485 1.369 . S
C484 H493 0.929 . S
C485 N482 1.346 . S
C485 C484 1.369 . S
C485 H488 0.928 . S
C486 N482 1.345 . S
C486 C487 1.371 . S
C486 H489 0.931 . S
C487 C483 1.391 . S
C487 C486 1.371 . S
C487 H494 0.930 . S
H488 C485 0.928 . S
H489 C486 0.931 . S
H490 C466 0.930 . S
H491 C463 0.930 . S
H492 C472 0.930 . S
H493 C484 0.929 . S
H494 C487 0.930 . S
C495 C496 1.351 . S
C495 N498 1.368 . S
C495 H500 0.931 . S
C496 C495 1.351 . S
C496 N497 1.373 . S
C496 H524 0.930 . S
N497 C496 1.373 . S
N497 C499 1.340 . S
N498 C495 1.368 . S
N498 C499 1.321 . S
N498 Co501 2.135 . S
C499 N497 1.340 . S
C499 N498 1.321 . S
C499 H523 0.930 . S
H500 C495 0.931 . S
Co501 N498 2.135 . S
Co501 N504 2.157 . S
Co501 O509 2.055 . S
Co501 O512 2.039 . S
Co501 N515 2.140 . S
C502 O503 1.227 . S
C502 O512 1.265 . S
O503 C502 1.227 . S
N504 Co501 2.157 . S
N504 C506 1.357 1_455 S
N504 C507 1.286 1_455 S
C505 C506 1.338 . S
C505 N508 1.377 . S
C505 H525 0.930 . S
C506 N504 1.357 1_655 S
C506 C505 1.338 . S
C506 H510 0.931 . S
C507 N504 1.286 1_655 S
C507 N508 1.344 . S
C507 H511 0.930 . S
N508 C505 1.377 . S
N508 C507 1.344 . S
O509 Co501 2.055 . S
O509 C513 1.253 . S
H510 C506 0.931 . S
H511 C507 0.930 . S
O512 Co501 2.039 . S
O512 C502 1.265 . S
C513 O509 1.253 . S
C513 O514 1.227 . S
O514 C513 1.227 . S
N515 Co501 2.140 . S
N515 C518 1.346 . S
N515 C519 1.329 1_455 S
C516 C517 1.387 . S
C516 C520 1.391 1_455 S
C517 C516 1.387 . S
C517 C518 1.369 . S
C517 H526 0.929 . S
C518 N515 1.346 . S
C518 C517 1.369 . S
C518 H521 0.928 . S
C519 N515 1.329 1_655 S
C519 C520 1.378 . S
C519 H522 0.940 . S
C520 C516 1.391 1_655 S
C520 C519 1.378 . S
C520 H527 0.930 . S
H521 C518 0.928 . S
H522 C519 0.940 . S
H523 C499 0.930 . S
H524 C496 0.930 . S
H525 C505 0.930 . S
H526 C517 0.929 . S
H527 C520 0.930 . S
H528 C536 0.929 . S
H529 C538 0.930 . S
H530 C540 0.930 . S
H531 C543 0.929 . S
H532 C546 0.930 . S
H533 C548 0.960 . S
H534 C548 0.960 . S
H535 C548 0.960 . S
C536 H528 0.929 . S
C536 C537 1.377 . S
C536 C538 1.384 . S
C537 C536 1.377 . S
C537 C543 1.390 . S
C538 H529 0.930 . S
C538 C536 1.384 . S
C538 C539 1.372 . S
C539 C538 1.372 . S
C539 C540 1.400 . S
C539 C544 1.490 . S
C540 H530 0.930 . S
C540 C539 1.400 . S
C540 C543 1.386 . S
H541 C557 0.930 . S
H542 C558 0.931 . S
C543 H531 0.929 . S
C543 C537 1.390 . S
C543 C540 1.386 . S
C544 C539 1.490 . S
C544 C546 1.395 . S
C544 C547 1.403 . S
H545 C551 0.930 . S
C546 H532 0.930 . S
C546 C544 1.395 . S
C546 C549 1.403 . S
C547 C544 1.403 . S
C547 C548 1.524 . S
C547 C551 1.400 . S
C548 H533 0.960 . S
C548 H534 0.960 . S
C548 H535 0.960 . S
C548 C547 1.524 . S
C549 C546 1.403 . S
C549 C550 1.392 . S
C549 C553 1.495 . S
C550 C549 1.392 . S
C550 C551 1.385 . S
C550 C552 1.478 . S
C551 H545 0.930 . S
C551 C547 1.400 . S
C551 C550 1.385 . S
C552 C550 1.478 . S
C552 C554 1.381 . S
C552 C558 1.383 . S
C553 C549 1.495 . S
C553 H559 0.959 . S
C553 H560 0.961 . S
C553 H561 0.960 . S
C554 C552 1.381 . S
C554 C555 1.394 . S
C554 H562 0.930 . S
C555 C554 1.394 . S
C555 C556 1.383 . S
C555 H563 0.929 . S
C556 C555 1.383 . S
C556 C557 1.377 . S
C557 H541 0.930 . S
C557 C556 1.377 . S
C557 C558 1.379 . S
C558 H542 0.931 . S
C558 C552 1.383 . S
C558 C557 1.379 . S
H559 C553 0.959 . S
H560 C553 0.961 . S
H561 C553 0.960 . S
H562 C554 0.930 . S
H563 C555 0.929 . S
H564 C572 0.929 . S
H565 C574 0.930 . S
H566 C576 0.930 . S
H567 C579 0.929 . S
H568 C582 0.930 . S
H569 C584 0.960 . S
H570 C584 0.960 . S
H571 C584 0.960 . S
C572 H564 0.929 . S
C572 C573 1.377 . S
C572 C574 1.384 . S
C573 C572 1.377 . S
C573 C579 1.390 . S
C574 H565 0.930 . S
C574 C572 1.384 . S
C574 C575 1.372 . S
C575 C574 1.372 . S
C575 C576 1.400 . S
C575 C580 1.490 . S
C576 H566 0.930 . S
C576 C575 1.400 . S
C576 C579 1.386 . S
H577 C593 0.930 . S
H578 C594 0.931 . S
C579 H567 0.929 . S
C579 C573 1.390 . S
C579 C576 1.386 . S
C580 C575 1.490 . S
C580 C582 1.395 . S
C580 C583 1.403 . S
H581 C587 0.930 . S
C582 H568 0.930 . S
C582 C580 1.395 . S
C582 C585 1.403 . S
C583 C580 1.403 . S
C583 C584 1.524 . S
C583 C587 1.400 . S
C584 H569 0.960 . S
C584 H570 0.960 . S
C584 H571 0.960 . S
C584 C583 1.524 . S
C585 C582 1.403 . S
C585 C586 1.392 . S
C585 C589 1.495 . S
C586 C585 1.392 . S
C586 C587 1.385 . S
C586 C588 1.478 . S
C587 H581 0.930 . S
C587 C583 1.400 . S
C587 C586 1.385 . S
C588 C586 1.478 . S
C588 C590 1.381 . S
C588 C594 1.383 . S
C589 C585 1.495 . S
C589 H595 0.959 . S
C589 H596 0.961 . S
C589 H597 0.960 . S
C590 C588 1.381 . S
C590 C591 1.394 . S
C590 H598 0.930 . S
C591 C590 1.394 . S
C591 C592 1.383 . S
C591 H599 0.929 . S
C592 C591 1.383 . S
C592 C593 1.377 . S
C593 H577 0.930 . S
C593 C592 1.377 . S
C593 C594 1.379 . S
C594 H578 0.931 . S
C594 C588 1.383 . S
C594 C593 1.379 . S
H595 C589 0.959 . S
H596 C589 0.961 . S
H597 C589 0.960 . S
H598 C590 0.930 . S
H599 C591 0.929 . S
H600 C608 0.929 . S
H601 C610 0.930 . S
H602 C612 0.945 . S
H603 C615 0.929 . S
H604 C618 0.930 . S
H605 C620 0.960 . S
H606 C620 0.960 . S
H607 C620 0.924 1_455 S
C608 H600 0.929 . S
C608 C609 1.377 . S
C608 C610 1.384 . S
C609 C608 1.377 . S
C609 C615 1.390 1_655 S
C610 H601 0.930 . S
C610 C608 1.384 . S
C610 C611 1.372 . S
C611 C610 1.372 . S
C611 C612 1.373 1_655 S
C611 C616 1.490 . S
C612 H602 0.945 . S
C612 C611 1.373 1_455 S
C612 C615 1.398 . S
H613 C629 0.930 . S
H614 C630 0.931 . S
C615 H603 0.929 . S
C615 C609 1.390 1_455 S
C615 C612 1.398 . S
C616 C611 1.490 . S
C616 C618 1.395 . S
C616 C619 1.403 . S
H617 C623 0.930 . S
C618 H604 0.930 . S
C618 C616 1.395 . S
C618 C621 1.403 . S
C619 C616 1.403 . S
C619 C620 1.524 . S
C619 C623 1.400 . S
C620 H605 0.960 . S
C620 H606 0.960 . S
C620 H607 0.924 1_655 S
C620 C619 1.524 . S
C621 C618 1.403 . S
C621 C622 1.392 . S
C621 C625 1.495 . S
C622 C621 1.392 . S
C622 C623 1.385 . S
C622 C624 1.478 . S
C623 H617 0.930 . S
C623 C619 1.400 . S
C623 C622 1.385 . S
C624 C622 1.478 . S
C624 C626 1.381 . S
C624 C630 1.383 . S
C625 C621 1.495 . S
C625 H631 0.959 . S
C625 H632 0.961 . S
C625 H633 0.960 . S
C626 C624 1.381 . S
C626 C627 1.394 . S
C626 H634 0.930 . S
C627 C626 1.394 . S
C627 C628 1.383 . S
C627 H635 0.929 . S
C628 C627 1.383 . S
C628 C629 1.377 . S
C629 H613 0.930 . S
C629 C628 1.377 . S
C629 C630 1.379 . S
C630 H614 0.931 . S
C630 C624 1.383 . S
C630 C629 1.379 . S
H631 C625 0.959 . S
H632 C625 0.961 . S
H633 C625 0.960 . S
H634 C626 0.930 . S
H635 C627 0.929 . S
H636 C644 0.929 . S
H637 C646 0.930 . S
H638 C648 0.930 . S
H639 C651 0.929 . S
H640 C654 0.930 . S
H641 C656 0.995 . S
H642 C656 0.960 . S
H643 C656 0.960 . S
C644 H636 0.929 . S
C644 C645 1.377 . S
C644 C646 1.384 . S
C645 C644 1.377 . S
C645 C651 1.390 . S
C646 H637 0.930 . S
C646 C644 1.384 . S
C646 C647 1.372 . S
C647 C646 1.372 . S
C647 C648 1.400 . S
C647 C652 1.490 . S
C648 H638 0.930 . S
C648 C647 1.400 . S
C648 C651 1.386 . S
H649 C665 0.930 . S
H650 C666 0.931 . S
C651 H639 0.929 . S
C651 C645 1.390 . S
C651 C648 1.386 . S
C652 C647 1.490 . S
C652 C654 1.395 . S
C652 C655 1.403 . S
H653 C659 0.930 . S
C654 H640 0.930 . S
C654 C652 1.395 . S
C654 C657 1.403 . S
C655 C652 1.403 . S
C655 C656 1.524 . S
C655 C659 1.400 . S
C656 H641 0.995 . S
C656 H642 0.960 . S
C656 H643 0.960 . S
C656 C655 1.524 . S
C657 C654 1.403 . S
C657 C658 1.392 . S
C657 C661 1.495 . S
C658 C657 1.392 . S
C658 C659 1.385 . S
C658 C660 1.478 . S
C659 H653 0.930 . S
C659 C655 1.400 . S
C659 C658 1.385 . S
C660 C658 1.478 . S
C660 C662 1.381 . S
C660 C666 1.383 . S
C661 C657 1.495 . S
C661 H667 0.959 . S
C661 H668 0.961 . S
C661 H669 0.960 . S
C662 C660 1.381 . S
C662 C663 1.394 . S
C662 H670 0.930 . S
C663 C662 1.394 . S
C663 C664 1.383 . S
C663 H671 0.929 . S
C664 C663 1.383 . S
C664 C665 1.377 . S
C665 H649 0.930 . S
C665 C664 1.377 . S
C665 C666 1.379 . S
C666 H650 0.931 . S
C666 C660 1.383 . S
C666 C665 1.379 . S
H667 C661 0.959 . S
H668 C661 0.961 . S
H669 C661 0.960 . S
H670 C662 0.930 . S
H671 C663 0.929 . S
H672 C680 0.929 . S
H673 C682 0.930 1_655 S
H674 C684 0.930 . S
H675 C687 0.929 . S
H676 C690 0.930 . S
H677 C692 0.960 . S
H678 C692 0.960 . S
H679 C692 0.960 . S
C680 H672 0.929 . S
C680 C681 1.377 1_655 S
C680 C682 1.384 1_655 S
C681 C680 1.377 1_455 S
C681 C687 1.390 . S
C682 H673 0.930 1_455 S
C682 C680 1.384 1_455 S
C682 C683 1.372 . S
C683 C682 1.372 . S
C683 C684 1.400 . S
C683 C688 1.490 . S
C684 H674 0.930 . S
C684 C683 1.400 . S
C684 C687 1.386 . S
H685 C701 0.930 . S
H686 C702 0.931 . S
C687 H675 0.929 . S
C687 C681 1.390 . S
C687 C684 1.386 . S
C688 C683 1.490 . S
C688 C690 1.395 . S
C688 C691 1.403 . S
H689 C695 0.930 . S
C690 H676 0.930 . S
C690 C688 1.395 . S
C690 C693 1.403 . S
C691 C688 1.403 . S
C691 C692 1.524 . S
C691 C695 1.400 . S
C692 H677 0.960 . S
C692 H678 0.960 . S
C692 H679 0.960 . S
C692 C691 1.524 . S
C693 C690 1.403 . S
C693 C694 1.392 . S
C693 C697 1.495 . S
C694 C693 1.392 . S
C694 C695 1.385 . S
C694 C696 1.478 . S
C695 H689 0.930 . S
C695 C691 1.400 . S
C695 C694 1.385 . S
C696 C694 1.478 . S
C696 C698 1.381 . S
C696 C702 1.383 . S
C697 C693 1.495 . S
C697 H703 0.959 1_455 S
C697 H704 0.961 . S
C697 H705 0.960 . S
C698 C696 1.381 . S
C698 C699 1.394 . S
C698 H706 0.930 . S
C699 C698 1.394 . S
C699 C700 1.383 . S
C699 H707 0.929 . S
C700 C699 1.383 . S
C700 C701 1.377 . S
C701 H685 0.930 . S
C701 C700 1.377 . S
C701 C702 1.379 . S
C702 H686 0.931 . S
C702 C696 1.383 . S
C702 C701 1.379 . S
H703 C697 0.959 1_655 S
H704 C697 0.961 . S
H705 C697 0.960 . S
H706 C698 0.930 . S
H707 C699 0.929 . S
H708 C716 0.929 . S
H709 C718 0.930 . S
H710 C720 0.930 . S
H711 C723 0.929 . S
H712 C726 0.930 . S
H713 C728 0.960 . S
H714 C728 0.960 . S
H715 C728 0.960 . S
C716 H708 0.929 . S
C716 C717 1.377 1_565 S
C716 C718 1.384 1_565 S
C717 C716 1.377 1_545 S
C717 C723 1.390 . S
C718 H709 0.930 . S
C718 C716 1.384 1_545 S
C718 C719 1.372 . S
C719 C718 1.372 . S
C719 C720 1.400 . S
C719 C724 1.490 . S
C720 H710 0.930 . S
C720 C719 1.400 . S
C720 C723 1.386 . S
H721 C737 0.930 . S
H722 C738 0.931 . S
C723 H711 0.929 . S
C723 C717 1.390 . S
C723 C720 1.386 . S
C724 C719 1.490 . S
C724 C726 1.395 . S
C724 C727 1.403 . S
H725 C731 0.930 . S
C726 H712 0.930 . S
C726 C724 1.395 . S
C726 C729 1.403 . S
C727 C724 1.403 . S
C727 C728 1.524 . S
C727 C731 1.400 . S
C728 H713 0.960 . S
C728 H714 0.960 . S
C728 H715 0.960 . S
C728 C727 1.524 . S
C729 C726 1.403 . S
C729 C730 1.392 . S
C729 C733 1.495 . S
C730 C729 1.392 . S
C730 C731 1.385 . S
C730 C732 1.478 . S
C731 H725 0.930 . S
C731 C727 1.400 . S
C731 C730 1.385 . S
C732 C730 1.478 . S
C732 C734 1.381 . S
C732 C738 1.383 . S
C733 C729 1.495 . S
C733 H739 0.959 1_545 S
C733 H740 0.961 . S
C733 H741 0.960 . S
C734 C732 1.381 . S
C734 C735 1.394 . S
C734 H742 0.930 . S
C735 C734 1.394 . S
C735 C736 1.383 . S
C735 H743 0.929 . S
C736 C735 1.383 . S
C736 C737 1.377 . S
C737 H721 0.930 . S
C737 C736 1.377 . S
C737 C738 1.379 . S
C738 H722 0.931 . S
C738 C732 1.383 . S
C738 C737 1.379 . S
H739 C733 0.959 1_565 S
H740 C733 0.961 . S
H741 C733 0.960 . S
H742 C734 0.930 . S
H743 C735 0.929 . S
H744 C752 0.929 . S
H745 C754 0.930 . S
H746 C756 0.930 . S
H747 C759 0.929 . S
H748 C762 0.930 . S
H749 C764 0.960 . S
H750 C764 0.960 . S
H751 C764 0.960 . S
C752 H744 0.929 . S
C752 C753 1.377 . S
C752 C754 1.384 . S
C753 C752 1.377 . S
C753 C759 1.390 . S
C754 H745 0.930 . S
C754 C752 1.384 . S
C754 C755 1.372 . S
C755 C754 1.372 . S
C755 C756 1.400 . S
C755 C760 1.490 . S
C756 H746 0.930 . S
C756 C755 1.400 . S
C756 C759 1.386 . S
H757 C773 0.930 . S
H758 C774 0.931 . S
C759 H747 0.929 . S
C759 C753 1.390 . S
C759 C756 1.386 . S
C760 C755 1.490 . S
C760 C762 1.395 . S
C760 C763 1.403 . S
H761 C767 0.930 . S
C762 H748 0.930 . S
C762 C760 1.395 . S
C762 C765 1.403 . S
C763 C760 1.403 . S
C763 C764 1.524 . S
C763 C767 1.400 . S
C764 H749 0.960 . S
C764 H750 0.960 . S
C764 H751 0.960 . S
C764 C763 1.524 . S
C765 C762 1.403 . S
C765 C766 1.392 . S
C765 C769 1.495 . S
C766 C765 1.392 . S
C766 C767 1.385 . S
C766 C768 1.478 . S
C767 H761 0.930 . S
C767 C763 1.400 . S
C767 C766 1.385 . S
C768 C766 1.478 . S
C768 C770 1.381 . S
C768 C774 1.383 . S
C769 C765 1.495 . S
C769 H775 0.959 . S
C769 H776 0.961 . S
C769 H777 0.960 . S
C770 C768 1.381 . S
C770 C771 1.394 . S
C770 H778 0.930 . S
C771 C770 1.394 . S
C771 C772 1.383 . S
C771 H779 0.929 . S
C772 C771 1.383 . S
C772 C773 1.377 . S
C773 H757 0.930 . S
C773 C772 1.377 . S
C773 C774 1.379 . S
C774 H758 0.931 . S
C774 C768 1.383 . S
C774 C773 1.379 . S
H775 C769 0.959 . S
H776 C769 0.961 . S
H777 C769 0.960 . S
H778 C770 0.930 . S
H779 C771 0.929 . S
H780 C788 0.929 . S
H781 C790 0.930 . S
H782 C792 0.930 . S
H783 C795 0.929 . S
H784 C798 0.930 . S
H785 C800 0.960 . S
H786 C800 0.960 . S
H787 C800 0.960 . S
C788 H780 0.929 . S
C788 C789 1.377 . S
C788 C790 1.384 . S
C789 C788 1.377 . S
C789 C795 1.390 . S
C790 H781 0.930 . S
C790 C788 1.384 . S
C790 C791 1.372 . S
C791 C790 1.372 . S
C791 C792 1.400 . S
C791 C796 1.490 . S
C792 H782 0.930 . S
C792 C791 1.400 . S
C792 C795 1.386 . S
H793 C809 0.930 . S
H794 C810 0.931 . S
C795 H783 0.929 . S
C795 C789 1.390 . S
C795 C792 1.386 . S
C796 C791 1.490 . S
C796 C798 1.395 . S
C796 C799 1.403 . S
H797 C803 0.930 . S
C798 H784 0.930 . S
C798 C796 1.395 . S
C798 C801 1.403 . S
C799 C796 1.403 . S
C799 C800 1.524 . S
C799 C803 1.400 . S
C800 H785 0.960 . S
C800 H786 0.960 . S
C800 H787 0.960 . S
C800 C799 1.524 . S
C801 C798 1.403 . S
C801 C802 1.392 . S
C801 C805 1.495 . S
C802 C801 1.392 . S
C802 C803 1.385 . S
C802 C804 1.478 . S
C803 H797 0.930 . S
C803 C799 1.400 . S
C803 C802 1.385 . S
C804 C802 1.478 . S
C804 C806 1.381 . S
C804 C810 1.383 . S
C805 C801 1.495 . S
C805 H811 0.959 . S
C805 H812 0.961 . S
C805 H813 0.960 . S
C806 C804 1.381 . S
C806 C807 1.394 . S
C806 H814 0.930 . S
C807 C806 1.394 . S
C807 C808 1.383 . S
C807 H815 0.929 . S
C808 C807 1.383 . S
C808 C809 1.377 . S
C809 H793 0.930 . S
C809 C808 1.377 . S
C809 C810 1.379 . S
C810 H794 0.931 . S
C810 C804 1.383 . S
C810 C809 1.379 . S
H811 C805 0.959 . S
H812 C805 0.961 . S
H813 C805 0.960 . S
H814 C806 0.930 . S
H815 C807 0.929 . S
H816 C824 0.929 . S
H817 C826 0.930 . S
H818 C828 0.930 . S
H819 C831 0.929 . S
H820 C834 0.930 . S
H821 C836 0.960 . S
H822 C836 0.960 . S
H823 C836 0.960 . S
C824 H816 0.929 . S
C824 C825 1.377 . S
C824 C826 1.384 . S
C825 C824 1.377 . S
C825 C831 1.390 . S
C826 H817 0.930 . S
C826 C824 1.384 . S
C826 C827 1.372 . S
C827 C826 1.372 . S
C827 C828 1.400 . S
C827 C832 1.490 . S
C828 H818 0.930 . S
C828 C827 1.400 . S
C828 C831 1.386 . S
H829 C845 0.930 . S
H830 C846 0.931 . S
C831 H819 0.929 . S
C831 C825 1.390 . S
C831 C828 1.386 . S
C832 C827 1.490 . S
C832 C834 1.395 . S
C832 C835 1.403 . S
H833 C839 0.930 . S
C834 H820 0.930 . S
C834 C832 1.395 . S
C834 C837 1.403 . S
C835 C832 1.403 . S
C835 C836 1.524 . S
C835 C839 1.400 . S
C836 H821 0.960 . S
C836 H822 0.960 . S
C836 H823 0.960 . S
C836 C835 1.524 . S
C837 C834 1.403 . S
C837 C838 1.392 . S
C837 C841 1.495 . S
C838 C837 1.392 . S
C838 C839 1.385 . S
C838 C840 1.478 . S
C839 H833 0.930 . S
C839 C835 1.400 . S
C839 C838 1.385 . S
C840 C838 1.478 . S
C840 C842 1.381 . S
C840 C846 1.383 . S
C841 C837 1.495 . S
C841 H847 0.959 . S
C841 H848 0.961 . S
C841 H849 0.960 . S
C842 C840 1.381 . S
C842 C843 1.394 . S
C842 H850 0.930 . S
C843 C842 1.394 . S
C843 C844 1.383 . S
C843 H851 0.929 . S
C844 C843 1.383 . S
C844 C845 1.377 . S
C845 H829 0.930 . S
C845 C844 1.377 . S
C845 C846 1.379 . S
C846 H830 0.931 . S
C846 C840 1.383 . S
C846 C845 1.379 . S
H847 C841 0.959 . S
H848 C841 0.961 . S
H849 C841 0.960 . S
H850 C842 0.930 . S
H851 C843 0.929 . S
H852 C860 0.929 . S
H853 C862 0.930 . S
H854 C864 0.930 . S
H855 C867 0.929 . S
H856 C870 0.930 . S
H857 C872 0.960 . S
H858 C872 0.960 . S
H859 C872 0.960 . S
C860 H852 0.929 . S
C860 C861 1.377 . S
C860 C862 1.384 . S
C861 C860 1.377 . S
C861 C867 1.390 . S
C862 H853 0.930 . S
C862 C860 1.384 . S
C862 C863 1.372 . S
C863 C862 1.372 . S
C863 C864 1.400 . S
C863 C868 1.490 . S
C864 H854 0.930 . S
C864 C863 1.400 . S
C864 C867 1.386 . S
H865 C881 0.930 . S
H866 C882 0.931 . S
C867 H855 0.929 . S
C867 C861 1.390 . S
C867 C864 1.386 . S
C868 C863 1.490 . S
C868 C870 1.395 . S
C868 C871 1.403 . S
H869 C875 0.930 . S
C870 H856 0.930 . S
C870 C868 1.395 . S
C870 C873 1.403 . S
C871 C868 1.403 . S
C871 C872 1.524 . S
C871 C875 1.400 . S
C872 H857 0.960 . S
C872 H858 0.960 . S
C872 H859 0.960 . S
C872 C871 1.524 . S
C873 C870 1.403 . S
C873 C874 1.392 . S
C873 C877 1.495 . S
C874 C873 1.392 . S
C874 C875 1.385 . S
C874 C876 1.478 . S
C875 H869 0.930 . S
C875 C871 1.400 . S
C875 C874 1.385 . S
C876 C874 1.478 . S
C876 C878 1.381 . S
C876 C882 1.383 . S
C877 C873 1.495 . S
C877 H883 0.959 . S
C877 H884 0.961 . S
C877 H885 0.960 . S
C878 C876 1.381 . S
C878 C879 1.394 . S
C878 H886 0.930 . S
C879 C878 1.394 . S
C879 C880 1.383 . S
C879 H887 0.929 . S
C880 C879 1.383 . S
C880 C881 1.377 . S
C881 H865 0.930 . S
C881 C880 1.377 . S
C881 C882 1.379 . S
C882 H866 0.931 . S
C882 C876 1.383 . S
C882 C881 1.379 . S
H883 C877 0.959 . S
H884 C877 0.961 . S
H885 C877 0.960 . S
H886 C878 0.930 . S
H887 C879 0.929 . S
H888 C896 0.929 . S
H889 C898 0.930 . S
H890 C900 0.930 . S
H891 C903 0.929 . S
H892 C906 0.930 . S
H893 C908 0.960 . S
H894 C908 0.960 . S
H895 C908 0.960 . S
C896 H888 0.929 . S
C896 C897 1.377 . S
C896 C898 1.384 . S
C897 C896 1.377 . S
C897 C903 1.390 1_455 S
C898 H889 0.930 . S
C898 C896 1.384 . S
C898 C899 1.372 . S
C899 C898 1.372 . S
C899 C900 1.400 . S
C899 C904 1.490 . S
C900 H890 0.930 . S
C900 C899 1.400 . S
C900 C903 1.386 1_455 S
H901 C917 0.930 . S
H902 C918 0.931 . S
C903 H891 0.929 . S
C903 C897 1.390 1_655 S
C903 C900 1.386 1_655 S
C904 C899 1.490 . S
C904 C906 1.395 . S
C904 C907 1.403 . S
H905 C911 0.930 . S
C906 H892 0.930 . S
C906 C904 1.395 . S
C906 C909 1.403 . S
C907 C904 1.403 . S
C907 C908 1.524 1_455 S
C907 C911 1.400 . S
C908 H893 0.960 . S
C908 H894 0.960 . S
C908 H895 0.960 . S
C908 C907 1.524 1_655 S
C909 C906 1.403 . S
C909 C910 1.392 . S
C909 C913 1.495 . S
C910 C909 1.392 . S
C910 C911 1.385 . S
C910 C912 1.478 . S
C911 H905 0.930 . S
C911 C907 1.400 . S
C911 C910 1.385 . S
C912 C910 1.478 . S
C912 C914 1.381 . S
C912 C918 1.383 . S
C913 C909 1.495 . S
C913 H919 0.959 . S
C913 H920 0.961 . S
C913 H921 0.960 . S
C914 C912 1.381 . S
C914 C915 1.394 . S
C914 H922 0.930 . S
C915 C914 1.394 . S
C915 C916 1.383 . S
C915 H923 0.929 . S
C916 C915 1.383 . S
C916 C917 1.377 . S
C917 H901 0.930 . S
C917 C916 1.377 . S
C917 C918 1.379 . S
C918 H902 0.931 . S
C918 C912 1.383 . S
C918 C917 1.379 . S
H919 C913 0.959 . S
H920 C913 0.961 . S
H921 C913 0.960 . S
H922 C914 0.930 . S
H923 C915 0.929 . S
H924 C932 0.929 . S
H925 C934 0.930 . S
H926 C936 0.929 . S
H927 C939 0.929 . S
H928 C942 0.930 . S
H929 C944 0.960 . S
H930 C944 0.960 . S
H931 C944 0.960 . S
C932 H924 0.929 . S
C932 C933 1.377 . S
C932 C934 1.384 . S
C933 C932 1.377 . S
C933 C939 1.390 1_545 S
C934 H925 0.930 . S
C934 C932 1.384 . S
C934 C935 1.372 . S
C935 C934 1.372 . S
C935 C936 1.400 . S
C935 C940 1.490 . S
C936 H926 0.929 . S
C936 C935 1.400 . S
C936 C939 1.386 1_545 S
H937 C953 0.930 . S
H938 C954 0.931 . S
C939 H927 0.929 . S
C939 C933 1.390 1_565 S
C939 C936 1.386 1_565 S
C940 C935 1.490 . S
C940 C942 1.395 . S
C940 C943 1.403 . S
H941 C947 0.930 . S
C942 H928 0.930 . S
C942 C940 1.395 . S
C942 C945 1.403 . S
C943 C940 1.403 . S
C943 C944 1.524 . S
C943 C947 1.400 . S
C944 H929 0.960 . S
C944 H930 0.960 . S
C944 H931 0.960 . S
C944 C943 1.524 . S
C945 C942 1.403 . S
C945 C946 1.392 . S
C945 C949 1.495 . S
C946 C945 1.392 . S
C946 C947 1.385 . S
C946 C948 1.478 . S
C947 H941 0.930 . S
C947 C943 1.400 . S
C947 C946 1.385 . S
C948 C946 1.478 . S
C948 C950 1.381 . S
C948 C954 1.383 . S
C949 C945 1.495 . S
C949 H955 0.959 . S
C949 H956 0.961 . S
C949 H957 0.960 . S
C950 C948 1.381 . S
C950 C951 1.394 . S
C950 H958 0.930 . S
C951 C950 1.394 . S
C951 C952 1.383 . S
C951 H959 0.929 . S
C952 C951 1.383 . S
C952 C953 1.377 . S
C953 H937 0.930 . S
C953 C952 1.377 . S
C953 C954 1.379 . S
C954 H938 0.931 . S
C954 C948 1.383 . S
C954 C953 1.379 . S
H955 C949 0.959 . S
H956 C949 0.961 . S
H957 C949 0.960 . S
H958 C950 0.930 . S
H959 C951 0.929 . S
H960 C968 0.929 . S
H961 C970 0.930 . S
H962 C972 0.930 . S
H963 C975 0.924 1_455 S
H964 C978 0.930 . S
H965 C980 0.960 . S
H966 C980 0.960 . S
H967 C980 0.960 . S
C968 H960 0.929 . S
C968 C969 1.377 . S
C968 C970 1.384 . S
C969 C968 1.377 . S
C969 C975 1.390 . S
C970 H961 0.930 . S
C970 C968 1.384 . S
C970 C971 1.372 . S
C971 C970 1.372 . S
C971 C972 1.400 . S
C971 C976 1.490 . S
C972 H962 0.930 . S
C972 C971 1.400 . S
C972 C975 1.386 . S
H973 C989 0.930 . S
H974 C990 0.931 . S
C975 H963 0.924 1_655 S
C975 C969 1.390 . S
C975 C972 1.386 . S
C976 C971 1.490 . S
C976 C978 1.395 . S
C976 C979 1.403 . S
H977 C983 0.930 . S
C978 H964 0.930 . S
C978 C976 1.395 . S
C978 C981 1.403 . S
C979 C976 1.403 . S
C979 C980 1.524 1_655 S
C979 C983 1.400 . S
C980 H965 0.960 . S
C980 H966 0.960 . S
C980 H967 0.960 . S
C980 C979 1.524 1_455 S
C981 C978 1.403 . S
C981 C982 1.392 . S
C981 C985 1.495 . S
C982 C981 1.392 . S
C982 C983 1.385 . S
C982 C984 1.478 . S
C983 H977 0.930 . S
C983 C979 1.400 . S
C983 C982 1.385 . S
C984 C982 1.478 . S
C984 C986 1.381 . S
C984 C990 1.383 . S
C985 C981 1.495 . S
C985 H991 0.959 . S
C985 H992 0.961 . S
C985 H993 0.960 . S
C986 C984 1.381 . S
C986 C987 1.394 . S
C986 H994 0.930 . S
C987 C986 1.394 . S
C987 C988 1.383 . S
C987 H995 0.929 . S
C988 C987 1.383 . S
C988 C989 1.377 . S
C989 H973 0.930 . S
C989 C988 1.377 . S
C989 C990 1.379 . S
C990 H974 0.931 . S
C990 C984 1.383 . S
C990 C989 1.379 . S
H991 C985 0.959 . S
H992 C985 0.961 . S
H993 C985 0.960 . S
H994 C986 0.930 . S
H995 C987 0.929 . S
H996 C1004 0.929 . S
H997 C1006 0.933 . S
H998 C1008 0.930 . S
H999 C1011 0.929 . S
H1000 C1014 0.930 . S
H1001 C1016 0.960 . S
H1002 C1016 0.960 . S
H1003 C1016 0.960 . S
C1004 H996 0.929 . S
C1004 C1005 1.377 1_545 S
C1004 C1006 1.386 . S
C1005 C1004 1.377 1_565 S
C1005 C1011 1.390 . S
C1006 H997 0.933 . S
C1006 C1004 1.386 . S
C1006 C1007 1.366 1_545 S
C1007 C1006 1.366 1_565 S
C1007 C1008 1.400 . S
C1007 C1012 1.490 . S
C1008 H998 0.930 . S
C1008 C1007 1.400 . S
C1008 C1011 1.386 . S
H1009 C1025 0.930 . S
H1010 C1026 0.931 . S
C1011 H999 0.929 . S
C1011 C1005 1.390 . S
C1011 C1008 1.386 . S
C1012 C1007 1.490 . S
C1012 C1014 1.395 . S
C1012 C1015 1.403 . S
H1013 C1019 0.930 . S
C1014 H1000 0.930 . S
C1014 C1012 1.395 . S
C1014 C1017 1.403 . S
C1015 C1012 1.403 . S
C1015 C1016 1.524 . S
C1015 C1019 1.400 . S
C1016 H1001 0.960 . S
C1016 H1002 0.960 . S
C1016 H1003 0.960 . S
C1016 C1015 1.524 . S
C1017 C1014 1.403 . S
C1017 C1018 1.392 . S
C1017 C1021 1.495 . S
C1018 C1017 1.392 . S
C1018 C1019 1.385 . S
C1018 C1020 1.478 . S
C1019 H1013 0.930 . S
C1019 C1015 1.400 . S
C1019 C1018 1.385 . S
C1020 C1018 1.478 . S
C1020 C1022 1.381 . S
C1020 C1026 1.383 . S
C1021 C1017 1.495 . S
C1021 H1027 0.959 . S
C1021 H1028 0.961 . S
C1021 H1029 0.960 . S
C1022 C1020 1.381 . S
C1022 C1023 1.394 . S
C1022 H1030 0.930 . S
C1023 C1022 1.394 . S
C1023 C1024 1.383 . S
C1023 H1031 0.929 . S
C1024 C1023 1.383 . S
C1024 C1025 1.377 . S
C1025 H1009 0.930 . S
C1025 C1024 1.377 . S
C1025 C1026 1.379 . S
C1026 H1010 0.931 . S
C1026 C1020 1.383 . S
C1026 C1025 1.379 . S
H1027 C1021 0.959 . S
H1028 C1021 0.961 . S
H1029 C1021 0.960 . S
H1030 C1022 0.930 . S
H1031 C1023 0.929 . S
H1032 C1040 0.929 . S
H1033 C1042 0.930 . S
H1034 C1044 0.930 . S
H1035 C1047 0.929 . S
H1036 C1050 0.930 . S
H1037 C1052 0.960 . S
H1038 C1052 0.960 . S
H1039 C1052 0.960 . S
C1040 H1032 0.929 . S
C1040 C1041 1.377 . S
C1040 C1042 1.384 . S
C1041 C1040 1.377 . S
C1041 C1047 1.390 . S
C1042 H1033 0.930 . S
C1042 C1040 1.384 . S
C1042 C1043 1.372 . S
C1043 C1042 1.372 . S
C1043 C1044 1.400 . S
C1043 C1048 1.490 . S
C1044 H1034 0.930 . S
C1044 C1043 1.400 . S
C1044 C1047 1.386 . S
H1045 C1061 0.930 . S
H1046 C1062 0.931 . S
C1047 H1035 0.929 . S
C1047 C1041 1.390 . S
C1047 C1044 1.386 . S
C1048 C1043 1.490 . S
C1048 C1050 1.395 . S
C1048 C1051 1.403 . S
H1049 C1055 0.930 . S
C1050 H1036 0.930 . S
C1050 C1048 1.395 . S
C1050 C1053 1.403 . S
C1051 C1048 1.403 . S
C1051 C1052 1.524 . S
C1051 C1055 1.400 . S
C1052 H1037 0.960 . S
C1052 H1038 0.960 . S
C1052 H1039 0.960 . S
C1052 C1051 1.524 . S
C1053 C1050 1.403 . S
C1053 C1054 1.392 . S
C1053 C1057 1.495 . S
C1054 C1053 1.392 . S
C1054 C1055 1.385 . S
C1054 C1056 1.478 . S
C1055 H1049 0.930 . S
C1055 C1051 1.400 . S
C1055 C1054 1.385 . S
C1056 C1054 1.478 . S
C1056 C1058 1.381 . S
C1056 C1062 1.383 . S
C1057 C1053 1.495 . S
C1057 H1063 0.959 . S
C1057 H1064 0.961 . S
C1057 H1065 0.960 . S
C1058 C1056 1.381 . S
C1058 C1059 1.394 . S
C1058 H1066 0.930 . S
C1059 C1058 1.394 . S
C1059 C1060 1.383 . S
C1059 H1067 0.929 . S
C1060 C1059 1.383 . S
C1060 C1061 1.377 . S
C1061 H1045 0.930 . S
C1061 C1060 1.377 . S
C1061 C1062 1.379 . S
C1062 H1046 0.931 . S
C1062 C1056 1.383 . S
C1062 C1061 1.379 . S
H1063 C1057 0.959 . S
H1064 C1057 0.961 . S
H1065 C1057 0.960 . S
H1066 C1058 0.930 . S
H1067 C1059 0.929 . S
H1068 C1076 0.929 . S
H1069 C1078 0.930 . S
H1070 C1080 0.930 . S
H1071 C1083 0.929 . S
H1072 C1086 0.930 . S
H1073 C1088 0.960 . S
H1074 C1088 0.960 . S
H1075 C1088 0.960 . S
C1076 H1068 0.929 . S
C1076 C1077 1.377 . S
C1076 C1078 1.384 . S
C1077 C1076 1.377 . S
C1077 C1083 1.390 . S
C1078 H1069 0.930 . S
C1078 C1076 1.384 . S
C1078 C1079 1.372 . S
C1079 C1078 1.372 . S
C1079 C1080 1.400 . S
C1079 C1084 1.490 . S
C1080 H1070 0.930 . S
C1080 C1079 1.400 . S
C1080 C1083 1.386 . S
H1081 C1097 0.930 . S
H1082 C1098 0.931 . S
C1083 H1071 0.929 . S
C1083 C1077 1.390 . S
C1083 C1080 1.386 . S
C1084 C1079 1.490 . S
C1084 C1086 1.395 . S
C1084 C1087 1.403 . S
H1085 C1091 0.930 . S
C1086 H1072 0.930 . S
C1086 C1084 1.395 . S
C1086 C1089 1.403 . S
C1087 C1084 1.403 . S
C1087 C1088 1.524 . S
C1087 C1091 1.400 . S
C1088 H1073 0.960 . S
C1088 H1074 0.960 . S
C1088 H1075 0.960 . S
C1088 C1087 1.524 . S
C1089 C1086 1.403 . S
C1089 C1090 1.392 . S
C1089 C1093 1.495 . S
C1090 C1089 1.392 . S
C1090 C1091 1.385 . S
C1090 C1092 1.478 . S
C1091 H1085 0.930 . S
C1091 C1087 1.400 . S
C1091 C1090 1.385 . S
C1092 C1090 1.478 . S
C1092 C1094 1.381 . S
C1092 C1098 1.383 . S
C1093 C1089 1.495 . S
C1093 H1099 0.959 . S
C1093 H1100 0.961 . S
C1093 H1101 0.960 . S
C1094 C1092 1.381 . S
C1094 C1095 1.394 . S
C1094 H1102 0.930 . S
C1095 C1094 1.394 . S
C1095 C1096 1.383 . S
C1095 H1103 0.929 . S
C1096 C1095 1.383 . S
C1096 C1097 1.377 . S
C1097 H1081 0.930 . S
C1097 C1096 1.377 . S
C1097 C1098 1.379 . S
C1098 H1082 0.931 . S
C1098 C1092 1.383 . S
C1098 C1097 1.379 . S
H1099 C1093 0.959 . S
H1100 C1093 0.961 . S
H1101 C1093 0.960 . S
H1102 C1094 0.930 . S
H1103 C1095 0.929 . S
H1104 C1112 0.929 . S
H1105 C1114 0.930 . S
H1106 C1116 0.930 . S
H1107 C1119 0.929 . S
H1108 C1122 0.930 . S
H1109 C1124 0.960 . S
H1110 C1124 0.960 . S
H1111 C1124 0.960 . S
C1112 H1104 0.929 . S
C1112 C1113 1.377 . S
C1112 C1114 1.384 . S
C1113 C1112 1.377 . S
C1113 C1119 1.390 . S
C1114 H1105 0.930 . S
C1114 C1112 1.384 . S
C1114 C1115 1.372 . S
C1115 C1114 1.372 . S
C1115 C1116 1.400 . S
C1115 C1120 1.490 . S
C1116 H1106 0.930 . S
C1116 C1115 1.400 . S
C1116 C1119 1.386 . S
H1117 C1133 0.930 . S
H1118 C1134 0.931 . S
C1119 H1107 0.929 . S
C1119 C1113 1.390 . S
C1119 C1116 1.386 . S
C1120 C1115 1.490 . S
C1120 C1122 1.395 . S
C1120 C1123 1.403 . S
H1121 C1127 0.930 . S
C1122 H1108 0.930 . S
C1122 C1120 1.395 . S
C1122 C1125 1.403 . S
C1123 C1120 1.403 . S
C1123 C1124 1.524 . S
C1123 C1127 1.400 . S
C1124 H1109 0.960 . S
C1124 H1110 0.960 . S
C1124 H1111 0.960 . S
C1124 C1123 1.524 . S
C1125 C1122 1.403 . S
C1125 C1126 1.392 . S
C1125 C1129 1.495 . S
C1126 C1125 1.392 . S
C1126 C1127 1.385 . S
C1126 C1128 1.478 . S
C1127 H1121 0.930 . S
C1127 C1123 1.400 . S
C1127 C1126 1.385 . S
C1128 C1126 1.478 . S
C1128 C1130 1.381 . S
C1128 C1134 1.383 . S
C1129 C1125 1.495 . S
C1129 H1135 0.959 . S
C1129 H1136 0.961 . S
C1129 H1137 0.960 . S
C1130 C1128 1.381 . S
C1130 C1131 1.394 . S
C1130 H1138 0.930 . S
C1131 C1130 1.394 . S
C1131 C1132 1.383 . S
C1131 H1139 0.929 . S
C1132 C1131 1.383 . S
C1132 C1133 1.377 . S
C1133 H1117 0.930 . S
C1133 C1132 1.377 . S
C1133 C1134 1.379 . S
C1134 H1118 0.931 . S
C1134 C1128 1.383 . S
C1134 C1133 1.379 . S
H1135 C1129 0.959 . S
H1136 C1129 0.961 . S
H1137 C1129 0.960 . S
H1138 C1130 0.930 . S
H1139 C1131 0.929 . S
H1140 C1148 0.929 . S
H1141 C1150 0.930 . S
H1142 C1152 0.930 . S
H1143 C1155 0.929 . S
H1144 C1158 0.930 . S
H1145 C1160 0.960 . S
H1146 C1160 0.960 . S
H1147 C1160 0.960 . S
C1148 H1140 0.929 . S
C1148 C1149 1.377 . S
C1148 C1150 1.384 . S
C1149 C1148 1.377 . S
C1149 C1155 1.390 . S
C1150 H1141 0.930 . S
C1150 C1148 1.384 . S
C1150 C1151 1.372 . S
C1151 C1150 1.372 . S
C1151 C1152 1.400 . S
C1151 C1156 1.490 . S
C1152 H1142 0.930 . S
C1152 C1151 1.400 . S
C1152 C1155 1.386 . S
H1153 C1169 0.930 . S
H1154 C1170 0.931 . S
C1155 H1143 0.929 . S
C1155 C1149 1.390 . S
C1155 C1152 1.386 . S
C1156 C1151 1.490 . S
C1156 C1158 1.395 . S
C1156 C1159 1.403 . S
H1157 C1163 0.930 . S
C1158 H1144 0.930 . S
C1158 C1156 1.395 . S
C1158 C1161 1.403 . S
C1159 C1156 1.403 . S
C1159 C1160 1.524 . S
C1159 C1163 1.400 . S
C1160 H1145 0.960 . S
C1160 H1146 0.960 . S
C1160 H1147 0.960 . S
C1160 C1159 1.524 . S
C1161 C1158 1.403 . S
C1161 C1162 1.392 . S
C1161 C1165 1.495 . S
C1162 C1161 1.392 . S
C1162 C1163 1.385 . S
C1162 C1164 1.478 . S
C1163 H1157 0.930 . S
C1163 C1159 1.400 . S
C1163 C1162 1.385 . S
C1164 C1162 1.478 . S
C1164 C1166 1.381 . S
C1164 C1170 1.383 . S
C1165 C1161 1.495 . S
C1165 H1171 0.959 . S
C1165 H1172 0.961 . S
C1165 H1173 0.960 . S
C1166 C1164 1.381 . S
C1166 C1167 1.394 . S
C1166 H1174 0.930 . S
C1167 C1166 1.394 . S
C1167 C1168 1.383 . S
C1167 H1175 0.929 . S
C1168 C1167 1.383 . S
C1168 C1169 1.377 . S
C1169 H1153 0.930 . S
C1169 C1168 1.377 . S
C1169 C1170 1.379 . S
C1170 H1154 0.931 . S
C1170 C1164 1.383 . S
C1170 C1169 1.379 . S
H1171 C1165 0.959 . S
H1172 C1165 0.961 . S
H1173 C1165 0.960 . S
H1174 C1166 0.930 . S
H1175 C1167 0.929 . S
H1176 C1184 0.929 . S
H1177 C1186 0.930 . S
H1178 C1188 0.930 . S
H1179 C1191 0.929 . S
H1180 C1194 0.930 . S
H1181 C1196 0.960 . S
H1182 C1196 0.960 . S
H1183 C1196 0.960 . S
C1184 H1176 0.929 . S
C1184 C1185 1.377 . S
C1184 C1186 1.384 . S
C1185 C1184 1.377 . S
C1185 C1191 1.390 . S
C1186 H1177 0.930 . S
C1186 C1184 1.384 . S
C1186 C1187 1.372 . S
C1187 C1186 1.372 . S
C1187 C1188 1.400 . S
C1187 C1192 1.490 . S
C1188 H1178 0.930 . S
C1188 C1187 1.400 . S
C1188 C1191 1.386 . S
H1189 C1205 0.930 . S
H1190 C1206 0.931 . S
C1191 H1179 0.929 . S
C1191 C1185 1.390 . S
C1191 C1188 1.386 . S
C1192 C1187 1.490 . S
C1192 C1194 1.395 . S
C1192 C1195 1.403 . S
H1193 C1199 0.930 . S
C1194 H1180 0.930 . S
C1194 C1192 1.395 . S
C1194 C1197 1.403 . S
C1195 C1192 1.403 . S
C1195 C1196 1.524 . S
C1195 C1199 1.400 . S
C1196 H1181 0.960 . S
C1196 H1182 0.960 . S
C1196 H1183 0.960 . S
C1196 C1195 1.524 . S
C1197 C1194 1.403 . S
C1197 C1198 1.392 . S
C1197 C1201 1.495 . S
C1198 C1197 1.392 . S
C1198 C1199 1.385 . S
C1198 C1200 1.478 . S
C1199 H1193 0.930 . S
C1199 C1195 1.400 . S
C1199 C1198 1.385 . S
C1200 C1198 1.478 . S
C1200 C1202 1.381 . S
C1200 C1206 1.383 . S
C1201 C1197 1.495 . S
C1201 H1207 0.959 . S
C1201 H1208 0.961 . S
C1201 H1209 0.960 . S
C1202 C1200 1.381 . S
C1202 C1203 1.394 . S
C1202 H1210 0.930 . S
C1203 C1202 1.394 . S
C1203 C1204 1.383 . S
C1203 H1211 0.929 . S
C1204 C1203 1.383 . S
C1204 C1205 1.377 . S
C1205 H1189 0.930 . S
C1205 C1204 1.377 . S
C1205 C1206 1.379 . S
C1206 H1190 0.931 . S
C1206 C1200 1.383 . S
C1206 C1205 1.379 . S
H1207 C1201 0.959 . S
H1208 C1201 0.961 . S
H1209 C1201 0.960 . S
H1210 C1202 0.930 . S
H1211 C1203 0.929 . S
H1212 C1220 0.929 . S
H1213 C1222 0.930 . S
H1214 C1224 0.930 . S
H1215 C1227 0.929 . S
H1216 C1230 0.930 . S
H1217 C1232 0.960 . S
H1218 C1232 0.960 . S
H1219 C1232 0.960 . S
C1220 H1212 0.929 . S
C1220 C1221 1.377 . S
C1220 C1222 1.384 . S
C1221 C1220 1.377 . S
C1221 C1227 1.390 . S
C1222 H1213 0.930 . S
C1222 C1220 1.384 . S
C1222 C1223 1.372 . S
C1223 C1222 1.372 . S
C1223 C1224 1.400 . S
C1223 C1228 1.490 . S
C1224 H1214 0.930 . S
C1224 C1223 1.400 . S
C1224 C1227 1.386 . S
H1225 C1241 0.930 . S
H1226 C1242 0.931 . S
C1227 H1215 0.929 . S
C1227 C1221 1.390 . S
C1227 C1224 1.386 . S
C1228 C1223 1.490 . S
C1228 C1230 1.395 . S
C1228 C1231 1.403 . S
H1229 C1235 0.930 . S
C1230 H1216 0.930 . S
C1230 C1228 1.395 . S
C1230 C1233 1.403 . S
C1231 C1228 1.403 . S
C1231 C1232 1.524 . S
C1231 C1235 1.400 . S
C1232 H1217 0.960 . S
C1232 H1218 0.960 . S
C1232 H1219 0.960 . S
C1232 C1231 1.524 . S
C1233 C1230 1.403 . S
C1233 C1234 1.392 . S
C1233 C1237 1.495 . S
C1234 C1233 1.392 . S
C1234 C1235 1.385 . S
C1234 C1236 1.478 . S
C1235 H1229 0.930 . S
C1235 C1231 1.400 . S
C1235 C1234 1.385 . S
C1236 C1234 1.478 . S
C1236 C1238 1.381 . S
C1236 C1242 1.383 . S
C1237 C1233 1.495 . S
C1237 H1243 0.959 . S
C1237 H1244 0.961 . S
C1237 H1245 0.960 . S
C1238 C1236 1.381 . S
C1238 C1239 1.394 . S
C1238 H1246 0.930 . S
C1239 C1238 1.394 . S
C1239 C1240 1.383 . S
C1239 H1247 0.929 . S
C1240 C1239 1.383 . S
C1240 C1241 1.377 . S
C1241 H1225 0.930 . S
C1241 C1240 1.377 . S
C1241 C1242 1.379 . S
C1242 H1226 0.931 . S
C1242 C1236 1.383 . S
C1242 C1241 1.379 . S
H1243 C1237 0.959 . S
H1244 C1237 0.961 . S
H1245 C1237 0.960 . S
H1246 C1238 0.930 . S
H1247 C1239 0.929 . S
H1248 C1256 0.929 . S
H1249 C1258 0.930 . S
H1250 C1260 0.930 . S
H1251 C1263 0.929 . S
H1252 C1266 0.930 . S
H1253 C1268 0.960 . S
H1254 C1268 0.960 . S
H1255 C1268 0.960 . S
C1256 H1248 0.929 . S
C1256 C1257 1.377 . S
C1256 C1258 1.384 . S
C1257 C1256 1.377 . S
C1257 C1263 1.390 . S
C1258 H1249 0.930 . S
C1258 C1256 1.384 . S
C1258 C1259 1.372 . S
C1259 C1258 1.372 . S
C1259 C1260 1.400 . S
C1259 C1264 1.490 . S
C1260 H1250 0.930 . S
C1260 C1259 1.400 . S
C1260 C1263 1.386 . S
H1261 C1277 0.930 . S
H1262 C1278 0.931 . S
C1263 H1251 0.929 . S
C1263 C1257 1.390 . S
C1263 C1260 1.386 . S
C1264 C1259 1.490 . S
C1264 C1266 1.395 . S
C1264 C1267 1.403 . S
H1265 C1271 0.930 . S
C1266 H1252 0.930 . S
C1266 C1264 1.395 . S
C1266 C1269 1.403 . S
C1267 C1264 1.403 . S
C1267 C1268 1.524 . S
C1267 C1271 1.400 . S
C1268 H1253 0.960 . S
C1268 H1254 0.960 . S
C1268 H1255 0.960 . S
C1268 C1267 1.524 . S
C1269 C1266 1.403 . S
C1269 C1270 1.392 . S
C1269 C1273 1.495 . S
C1270 C1269 1.392 . S
C1270 C1271 1.385 . S
C1270 C1272 1.478 . S
C1271 H1265 0.930 . S
C1271 C1267 1.400 . S
C1271 C1270 1.385 . S
C1272 C1270 1.478 . S
C1272 C1274 1.381 . S
C1272 C1278 1.383 . S
C1273 C1269 1.495 . S
C1273 H1279 0.959 . S
C1273 H1280 0.961 . S
C1273 H1281 0.960 . S
C1274 C1272 1.381 . S
C1274 C1275 1.394 . S
C1274 H1282 0.930 . S
C1275 C1274 1.394 . S
C1275 C1276 1.383 . S
C1275 H1283 0.929 . S
C1276 C1275 1.383 . S
C1276 C1277 1.377 . S
C1277 H1261 0.930 . S
C1277 C1276 1.377 . S
C1277 C1278 1.379 . S
C1278 H1262 0.931 . S
C1278 C1272 1.383 . S
C1278 C1277 1.379 . S
H1279 C1273 0.959 . S
H1280 C1273 0.961 . S
H1281 C1273 0.960 . S
H1282 C1274 0.930 . S
H1283 C1275 0.929 . S
H1284 C1292 0.929 . S
H1285 C1294 0.930 . S
H1286 C1296 0.930 . S
H1287 C1299 0.929 . S
H1288 C1302 0.930 . S
H1289 C1304 0.960 . S
H1290 C1304 0.960 . S
H1291 C1304 0.960 . S
C1292 H1284 0.929 . S
C1292 C1293 1.377 . S
C1292 C1294 1.384 . S
C1293 C1292 1.377 . S
C1293 C1299 1.390 . S
C1294 H1285 0.930 . S
C1294 C1292 1.384 . S
C1294 C1295 1.372 . S
C1295 C1294 1.372 . S
C1295 C1296 1.400 . S
C1295 C1300 1.490 . S
C1296 H1286 0.930 . S
C1296 C1295 1.400 . S
C1296 C1299 1.386 . S
H1297 C1313 0.930 . S
H1298 C1314 0.931 . S
C1299 H1287 0.929 . S
C1299 C1293 1.390 . S
C1299 C1296 1.386 . S
C1300 C1295 1.490 . S
C1300 C1302 1.395 . S
C1300 C1303 1.403 . S
H1301 C1307 0.930 . S
C1302 H1288 0.930 . S
C1302 C1300 1.395 . S
C1302 C1305 1.403 . S
C1303 C1300 1.403 . S
C1303 C1304 1.524 . S
C1303 C1307 1.400 . S
C1304 H1289 0.960 . S
C1304 H1290 0.960 . S
C1304 H1291 0.960 . S
C1304 C1303 1.524 . S
C1305 C1302 1.403 . S
C1305 C1306 1.392 . S
C1305 C1309 1.495 . S
C1306 C1305 1.392 . S
C1306 C1307 1.385 . S
C1306 C1308 1.478 . S
C1307 H1301 0.930 . S
C1307 C1303 1.400 . S
C1307 C1306 1.385 . S
C1308 C1306 1.478 . S
C1308 C1310 1.381 . S
C1308 C1314 1.383 . S
C1309 C1305 1.495 . S
C1309 H1315 0.959 . S
C1309 H1316 0.961 . S
C1309 H1317 0.960 . S
C1310 C1308 1.381 . S
C1310 C1311 1.394 . S
C1310 H1318 0.930 . S
C1311 C1310 1.394 . S
C1311 C1312 1.383 . S
C1311 H1319 0.929 . S
C1312 C1311 1.383 . S
C1312 C1313 1.377 . S
C1313 H1297 0.930 . S
C1313 C1312 1.377 . S
C1313 C1314 1.379 . S
C1314 H1298 0.931 . S
C1314 C1308 1.383 . S
C1314 C1313 1.379 . S
H1315 C1309 0.959 . S
H1316 C1309 0.961 . S
H1317 C1309 0.960 . S
H1318 C1310 0.930 . S
H1319 C1311 0.929 . S
H1320 C1328 0.929 . S
H1321 C1330 0.930 . S
H1322 C1332 0.930 . S
H1323 C1335 0.929 . S
H1324 C1338 0.930 . S
H1325 C1340 0.960 . S
H1326 C1340 0.960 . S
H1327 C1340 0.960 . S
C1328 H1320 0.929 . S
C1328 C1329 1.377 . S
C1328 C1330 1.384 . S
C1329 C1328 1.377 . S
C1329 C1335 1.390 . S
C1330 H1321 0.930 . S
C1330 C1328 1.384 . S
C1330 C1331 1.372 . S
C1331 C1330 1.372 . S
C1331 C1332 1.400 . S
C1331 C1336 1.490 . S
C1332 H1322 0.930 . S
C1332 C1331 1.400 . S
C1332 C1335 1.386 . S
H1333 C1349 0.930 . S
H1334 C1350 0.931 . S
C1335 H1323 0.929 . S
C1335 C1329 1.390 . S
C1335 C1332 1.386 . S
C1336 C1331 1.490 . S
C1336 C1338 1.395 . S
C1336 C1339 1.403 . S
H1337 C1343 0.930 . S
C1338 H1324 0.930 . S
C1338 C1336 1.395 . S
C1338 C1341 1.403 . S
C1339 C1336 1.403 . S
C1339 C1340 1.524 . S
C1339 C1343 1.400 . S
C1340 H1325 0.960 . S
C1340 H1326 0.960 . S
C1340 H1327 0.960 . S
C1340 C1339 1.524 . S
C1341 C1338 1.403 . S
C1341 C1342 1.392 . S
C1341 C1345 1.495 . S
C1342 C1341 1.392 . S
C1342 C1343 1.385 . S
C1342 C1344 1.478 . S
C1343 H1337 0.930 . S
C1343 C1339 1.400 . S
C1343 C1342 1.385 . S
C1344 C1342 1.478 . S
C1344 C1346 1.381 . S
C1344 C1350 1.383 . S
C1345 C1341 1.495 . S
C1345 H1351 0.959 . S
C1345 H1352 0.961 . S
C1345 H1353 0.960 . S
C1346 C1344 1.381 . S
C1346 C1347 1.394 . S
C1346 H1354 0.930 . S
C1347 C1346 1.394 . S
C1347 C1348 1.383 . S
C1347 H1355 0.929 . S
C1348 C1347 1.383 . S
C1348 C1349 1.377 . S
C1349 H1333 0.930 . S
C1349 C1348 1.377 . S
C1349 C1350 1.379 . S
C1350 H1334 0.931 . S
C1350 C1344 1.383 . S
C1350 C1349 1.379 . S
H1351 C1345 0.959 . S
H1352 C1345 0.961 . S
H1353 C1345 0.960 . S
H1354 C1346 0.930 . S
H1355 C1347 0.929 . S
H1356 C1364 0.929 . S
H1357 C1366 0.930 . S
H1358 C1368 0.930 . S
H1359 C1371 0.929 . S
H1360 C1374 0.930 . S
H1361 C1376 0.960 . S
H1362 C1376 0.960 . S
H1363 C1376 0.960 . S
C1364 H1356 0.929 . S
C1364 C1365 1.377 . S
C1364 C1366 1.384 . S
C1365 C1364 1.377 . S
C1365 C1371 1.390 . S
C1366 H1357 0.930 . S
C1366 C1364 1.384 . S
C1366 C1367 1.372 . S
C1367 C1366 1.372 . S
C1367 C1368 1.400 . S
C1367 C1372 1.490 . S
C1368 H1358 0.930 . S
C1368 C1367 1.400 . S
C1368 C1371 1.386 . S
H1369 C1385 0.930 . S
H1370 C1386 0.931 . S
C1371 H1359 0.929 . S
C1371 C1365 1.390 . S
C1371 C1368 1.386 . S
C1372 C1367 1.490 . S
C1372 C1374 1.395 . S
C1372 C1375 1.403 . S
H1373 C1379 0.930 . S
C1374 H1360 0.930 . S
C1374 C1372 1.395 . S
C1374 C1377 1.403 . S
C1375 C1372 1.403 . S
C1375 C1376 1.524 . S
C1375 C1379 1.400 . S
C1376 H1361 0.960 . S
C1376 H1362 0.960 . S
C1376 H1363 0.960 . S
C1376 C1375 1.524 . S
C1377 C1374 1.403 . S
C1377 C1378 1.392 . S
C1377 C1381 1.495 . S
C1378 C1377 1.392 . S
C1378 C1379 1.385 . S
C1378 C1380 1.478 . S
C1379 H1373 0.930 . S
C1379 C1375 1.400 . S
C1379 C1378 1.385 . S
C1380 C1378 1.478 . S
C1380 C1382 1.381 . S
C1380 C1386 1.383 . S
C1381 C1377 1.495 . S
C1381 H1387 0.959 . S
C1381 H1388 0.961 . S
C1381 H1389 0.960 . S
C1382 C1380 1.381 . S
C1382 C1383 1.394 . S
C1382 H1390 0.930 . S
C1383 C1382 1.394 . S
C1383 C1384 1.383 . S
C1383 H1391 0.929 . S
C1384 C1383 1.383 . S
C1384 C1385 1.377 . S
C1385 H1369 0.930 . S
C1385 C1384 1.377 . S
C1385 C1386 1.379 . S
C1386 H1370 0.931 . S
C1386 C1380 1.383 . S
C1386 C1385 1.379 . S
H1387 C1381 0.959 . S
H1388 C1381 0.961 . S
H1389 C1381 0.960 . S
H1390 C1382 0.930 . S
H1391 C1383 0.929 . S
H1392 C1400 0.929 . S
H1393 C1402 0.930 . S
H1394 C1404 0.930 . S
H1395 C1407 0.929 . S
H1396 C1410 0.930 . S
H1397 C1412 0.960 . S
H1398 C1412 0.960 1_554 S
H1399 C1412 0.960 . S
C1400 H1392 0.929 . S
C1400 C1401 1.377 . S
C1400 C1402 1.384 . S
C1401 C1400 1.377 . S
C1401 C1407 1.390 . S
C1402 H1393 0.930 . S
C1402 C1400 1.384 . S
C1402 C1403 1.372 . S
C1403 C1402 1.372 . S
C1403 C1404 1.400 . S
C1403 C1408 1.490 . S
C1404 H1394 0.930 . S
C1404 C1403 1.400 . S
C1404 C1407 1.386 . S
H1405 C1421 0.930 . S
H1406 C1422 0.923 1_545 S
C1407 H1395 0.929 . S
C1407 C1401 1.390 . S
C1407 C1404 1.386 . S
C1408 C1403 1.490 . S
C1408 C1410 1.395 . S
C1408 C1411 1.396 1_544 S
H1409 C1415 0.930 . S
C1410 H1396 0.930 . S
C1410 C1408 1.395 . S
C1410 C1413 1.403 . S
C1411 C1408 1.396 1_566 S
C1411 C1412 1.525 . S
C1411 C1415 1.406 . S
C1412 H1397 0.960 . S
C1412 H1398 0.960 1_556 S
C1412 H1399 0.960 . S
C1412 C1411 1.525 . S
C1413 C1410 1.403 . S
C1413 C1414 1.392 1_544 S
C1413 C1417 1.495 . S
C1414 C1413 1.392 1_566 S
C1414 C1415 1.385 . S
C1414 C1416 1.478 . S
C1415 H1409 0.930 . S
C1415 C1411 1.406 . S
C1415 C1414 1.385 . S
C1416 C1414 1.478 . S
C1416 C1418 1.381 . S
C1416 C1422 1.383 . S
C1417 C1413 1.495 . S
C1417 H1423 0.959 . S
C1417 H1424 0.961 1_554 S
C1417 H1425 0.960 . S
C1418 C1416 1.381 . S
C1418 C1419 1.394 . S
C1418 H1426 0.930 . S
C1419 C1418 1.394 . S
C1419 C1420 1.383 . S
C1419 H1427 0.929 . S
C1420 C1419 1.383 . S
C1420 C1421 1.377 . S
C1421 H1405 0.930 . S
C1421 C1420 1.377 . S
C1421 C1422 1.379 . S
C1422 H1406 0.923 1_565 S
C1422 C1416 1.383 . S
C1422 C1421 1.379 . S
H1423 C1417 0.959 . S
H1424 C1417 0.961 1_556 S
H1425 C1417 0.960 . S
H1426 C1418 0.930 . S
H1427 C1419 0.929 . S
H1428 C1436 0.929 . S
H1429 C1438 0.930 . S
H1430 C1440 0.930 . S
H1431 C1443 0.929 . S
H1432 C1446 0.930 . S
H1433 C1448 0.960 . S
H1434 C1448 0.960 . S
H1435 C1448 0.960 . S
C1436 H1428 0.929 . S
C1436 C1437 1.377 . S
C1436 C1438 1.384 . S
C1437 C1436 1.377 . S
C1437 C1443 1.390 . S
C1438 H1429 0.930 . S
C1438 C1436 1.384 . S
C1438 C1439 1.372 . S
C1439 C1438 1.372 . S
C1439 C1440 1.400 . S
C1439 C1444 1.490 . S
C1440 H1430 0.930 . S
C1440 C1439 1.400 . S
C1440 C1443 1.386 . S
H1441 C1457 0.930 . S
H1442 C1458 0.931 . S
C1443 H1431 0.929 . S
C1443 C1437 1.390 . S
C1443 C1440 1.386 . S
C1444 C1439 1.490 . S
C1444 C1446 1.395 1_554 S
C1444 C1447 1.403 . S
H1445 C1451 0.930 . S
C1446 H1432 0.930 . S
C1446 C1444 1.395 1_556 S
C1446 C1449 1.403 . S
C1447 C1444 1.403 . S
C1447 C1448 1.524 . S
C1447 C1451 1.400 . S
C1448 H1433 0.960 . S
C1448 H1434 0.960 . S
C1448 H1435 0.960 . S
C1448 C1447 1.524 . S
C1449 C1446 1.403 . S
C1449 C1450 1.392 . S
C1449 C1453 1.495 . S
C1450 C1449 1.392 . S
C1450 C1451 1.385 1_556 S
C1450 C1452 1.478 . S
C1451 H1445 0.930 . S
C1451 C1447 1.400 . S
C1451 C1450 1.385 1_554 S
C1452 C1450 1.478 . S
C1452 C1454 1.381 . S
C1452 C1458 1.383 . S
C1453 C1449 1.495 . S
C1453 H1459 0.959 . S
C1453 H1460 0.961 . S
C1453 H1461 0.960 . S
C1454 C1452 1.381 . S
C1454 C1455 1.394 . S
C1454 H1462 0.930 . S
C1455 C1454 1.394 . S
C1455 C1456 1.383 . S
C1455 H1463 0.929 . S
C1456 C1455 1.383 . S
C1456 C1457 1.377 . S
C1457 H1441 0.930 . S
C1457 C1456 1.377 . S
C1457 C1458 1.379 . S
C1458 H1442 0.931 . S
C1458 C1452 1.383 . S
C1458 C1457 1.379 . S
H1459 C1453 0.959 . S
H1460 C1453 0.961 . S
H1461 C1453 0.960 . S
H1462 C1454 0.930 . S
H1463 C1455 0.929 . S
H1464 C1472 0.929 . S
H1465 C1474 0.930 . S
H1466 C1476 0.930 . S
H1467 C1479 0.929 . S
H1468 C1482 0.930 . S
H1469 C1484 0.960 . S
H1470 C1484 0.926 1_554 S
H1471 C1484 0.960 . S
C1472 H1464 0.929 . S
C1472 C1473 1.377 . S
C1472 C1474 1.384 . S
C1473 C1472 1.377 . S
C1473 C1479 1.390 . S
C1474 H1465 0.930 . S
C1474 C1472 1.384 . S
C1474 C1475 1.372 . S
C1475 C1474 1.372 . S
C1475 C1476 1.400 . S
C1475 C1480 1.490 . S
C1476 H1466 0.930 . S
C1476 C1475 1.400 . S
C1476 C1479 1.386 . S
H1477 C1493 0.930 . S
H1478 C1494 0.931 . S
C1479 H1467 0.929 . S
C1479 C1473 1.390 . S
C1479 C1476 1.386 . S
C1480 C1475 1.490 . S
C1480 C1482 1.395 1_655 S
C1480 C1483 1.403 1_554 S
H1481 C1487 0.933 . S
C1482 H1468 0.930 . S
C1482 C1480 1.395 1_455 S
C1482 C1485 1.403 . S
C1483 C1480 1.403 1_556 S
C1483 C1484 1.524 . S
C1483 C1487 1.417 . S
C1484 H1469 0.960 . S
C1484 H1470 0.926 1_556 S
C1484 H1471 0.960 . S
C1484 C1483 1.524 . S
C1485 C1482 1.403 . S
C1485 C1486 1.392 1_554 S
C1485 C1489 1.495 . S
C1486 C1485 1.392 1_556 S
C1486 C1487 1.366 1_455 S
C1486 C1488 1.478 . S
C1487 H1481 0.933 . S
C1487 C1483 1.417 . S
C1487 C1486 1.366 1_655 S
C1488 C1486 1.478 . S
C1488 C1490 1.381 . S
C1488 C1494 1.383 . S
C1489 C1485 1.495 . S
C1489 H1495 0.959 . S
C1489 H1496 0.961 . S
C1489 H1497 0.960 . S
C1490 C1488 1.381 . S
C1490 C1491 1.394 . S
C1490 H1498 0.930 . S
C1491 C1490 1.394 . S
C1491 C1492 1.383 . S
C1491 H1499 0.929 . S
C1492 C1491 1.383 . S
C1492 C1493 1.377 . S
C1493 H1477 0.930 . S
C1493 C1492 1.377 . S
C1493 C1494 1.379 . S
C1494 H1478 0.931 . S
C1494 C1488 1.383 . S
C1494 C1493 1.379 . S
H1495 C1489 0.959 . S
H1496 C1489 0.961 . S
H1497 C1489 0.960 . S
H1498 C1490 0.930 . S
H1499 C1491 0.929 . S
H1500 C1508 0.929 . S
H1501 C1510 0.930 . S
H1502 C1512 0.930 . S
H1503 C1515 0.929 . S
H1504 C1518 0.930 . S
H1505 C1520 0.960 1_565 S
H1506 C1520 0.960 . S
H1507 C1520 0.960 . S
C1508 H1500 0.929 . S
C1508 C1509 1.377 . S
C1508 C1510 1.384 . S
C1509 C1508 1.377 . S
C1509 C1515 1.390 . S
C1510 H1501 0.930 . S
C1510 C1508 1.384 . S
C1510 C1511 1.372 . S
C1511 C1510 1.372 . S
C1511 C1512 1.400 . S
C1511 C1516 1.490 . S
C1512 H1502 0.930 . S
C1512 C1511 1.400 . S
C1512 C1515 1.386 . S
H1513 C1529 0.930 . S
H1514 C1530 0.931 . S
C1515 H1503 0.929 . S
C1515 C1509 1.390 . S
C1515 C1512 1.386 . S
C1516 C1511 1.490 . S
C1516 C1518 1.395 1_556 S
C1516 C1519 1.403 1_655 S
H1517 C1523 0.938 . S
C1518 H1504 0.930 . S
C1518 C1516 1.395 1_554 S
C1518 C1521 1.403 1_545 S
C1519 C1516 1.403 1_455 S
C1519 C1520 1.524 . S
C1519 C1523 1.430 1_545 S
C1520 H1505 0.960 1_545 S
C1520 H1506 0.960 . S
C1520 H1507 0.960 . S
C1520 C1519 1.524 . S
C1521 C1518 1.403 1_565 S
C1521 C1522 1.392 1_655 S
C1521 C1525 1.495 . S
C1522 C1521 1.392 1_455 S
C1522 C1523 1.350 1_554 S
C1522 C1524 1.478 . S
C1523 H1517 0.938 . S
C1523 C1519 1.430 1_565 S
C1523 C1522 1.350 1_556 S
C1524 C1522 1.478 . S
C1524 C1526 1.381 . S
C1524 C1530 1.383 . S
C1525 C1521 1.495 . S
C1525 H1531 0.959 1_565 S
C1525 H1532 0.961 . S
C1525 H1533 0.960 . S
C1526 C1524 1.381 . S
C1526 C1527 1.394 . S
C1526 H1534 0.930 . S
C1527 C1526 1.394 . S
C1527 C1528 1.383 . S
C1527 H1535 0.929 . S
C1528 C1527 1.383 . S
C1528 C1529 1.377 . S
C1529 H1513 0.930 . S
C1529 C1528 1.377 . S
C1529 C1530 1.379 . S
C1530 H1514 0.931 . S
C1530 C1524 1.383 . S
C1530 C1529 1.379 . S
H1531 C1525 0.959 1_545 S
H1532 C1525 0.961 . S
H1533 C1525 0.960 . S
H1534 C1526 0.930 . S
H1535 C1527 0.929 . S
H1536 C1544 0.929 1_565 S
H1537 C1546 0.930 . S
H1538 C1548 0.930 . S
H1539 C1551 0.929 . S
H1540 C1554 0.930 . S
H1541 C1556 0.960 . S
H1542 C1556 0.933 1_565 S
H1543 C1556 0.960 . S
C1544 H1536 0.929 1_545 S
C1544 C1545 1.377 . S
C1544 C1546 1.384 1_545 S
C1545 C1544 1.377 . S
C1545 C1551 1.390 . S
C1546 H1537 0.930 . S
C1546 C1544 1.384 1_565 S
C1546 C1547 1.372 1_565 S
C1547 C1546 1.372 1_545 S
C1547 C1548 1.400 . S
C1547 C1552 1.490 . S
C1548 H1538 0.930 . S
C1548 C1547 1.400 . S
C1548 C1551 1.386 . S
H1549 C1565 0.930 1_545 S
H1550 C1566 0.931 . S
C1551 H1539 0.929 . S
C1551 C1545 1.390 . S
C1551 C1548 1.386 . S
C1552 C1547 1.490 . S
C1552 C1554 1.395 1_545 S
C1552 C1555 1.403 1_655 S
H1553 C1559 0.930 . S
C1554 H1540 0.930 . S
C1554 C1552 1.395 1_565 S
C1554 C1557 1.403 . S
C1555 C1552 1.403 1_455 S
C1555 C1556 1.524 . S
C1555 C1559 1.400 1_545 S
C1556 H1541 0.960 . S
C1556 H1542 0.933 1_545 S
C1556 H1543 0.960 . S
C1556 C1555 1.524 . S
C1557 C1554 1.403 . S
C1557 C1558 1.392 1_655 S
C1557 C1561 1.495 . S
C1558 C1557 1.392 1_455 S
C1558 C1559 1.385 . S
C1558 C1560 1.478 . S
C1559 H1553 0.930 . S
C1559 C1555 1.400 1_565 S
C1559 C1558 1.385 . S
C1560 C1558 1.478 . S
C1560 C1562 1.381 . S
C1560 C1566 1.383 1_565 S
C1561 C1557 1.495 . S
C1561 H1567 0.959 . S
C1561 H1568 0.961 . S
C1561 H1569 0.960 . S
C1562 C1560 1.381 . S
C1562 C1563 1.394 . S
C1562 H1570 0.930 . S
C1563 C1562 1.394 . S
C1563 C1564 1.383 . S
C1563 H1571 0.929 . S
C1564 C1563 1.383 . S
C1564 C1565 1.377 . S
C1565 H1549 0.930 1_565 S
C1565 C1564 1.377 . S
C1565 C1566 1.379 1_565 S
C1566 H1550 0.931 . S
C1566 C1560 1.383 1_545 S
C1566 C1565 1.379 1_545 S
H1567 C1561 0.959 . S
H1568 C1561 0.961 . S
H1569 C1561 0.960 . S
H1570 C1562 0.930 . S
H1571 C1563 0.929 . S
H1572 C1580 0.929 . S
H1573 C1582 0.930 . S
H1574 C1584 0.930 . S
H1575 C1587 0.929 . S
H1576 C1590 0.930 . S
H1577 C1592 0.960 . S
H1578 C1592 0.960 . S
H1579 C1592 0.960 1_545 S
C1580 H1572 0.929 . S
C1580 C1581 1.377 . S
C1580 C1582 1.384 . S
C1581 C1580 1.377 . S
C1581 C1587 1.390 . S
C1582 H1573 0.930 . S
C1582 C1580 1.384 . S
C1582 C1583 1.372 . S
C1583 C1582 1.372 . S
C1583 C1584 1.400 . S
C1583 C1588 1.490 . S
C1584 H1574 0.930 . S
C1584 C1583 1.400 . S
C1584 C1587 1.386 . S
H1585 C1601 0.930 . S
H1586 C1602 0.931 . S
C1587 H1575 0.929 . S
C1587 C1581 1.390 . S
C1587 C1584 1.386 . S
C1588 C1583 1.490 . S
C1588 C1590 1.395 . S
C1588 C1591 1.373 1_545 S
H1589 C1595 0.930 . S
C1590 H1576 0.930 . S
C1590 C1588 1.395 . S
C1590 C1593 1.403 . S
C1591 C1588 1.373 1_565 S
C1591 C1592 1.528 . S
C1591 C1595 1.427 . S
C1592 H1577 0.960 . S
C1592 H1578 0.960 . S
C1592 H1579 0.960 1_565 S
C1592 C1591 1.528 . S
C1593 C1590 1.403 . S
C1593 C1594 1.392 1_545 S
C1593 C1597 1.495 . S
C1594 C1593 1.392 1_565 S
C1594 C1595 1.385 . S
C1594 C1596 1.478 . S
C1595 H1589 0.930 . S
C1595 C1591 1.427 . S
C1595 C1594 1.385 . S
C1596 C1594 1.478 . S
C1596 C1598 1.381 . S
C1596 C1602 1.383 . S
C1597 C1593 1.495 . S
C1597 H1603 0.959 . S
C1597 H1604 0.961 . S
C1597 H1605 0.960 1_545 S
C1598 C1596 1.381 . S
C1598 C1599 1.394 . S
C1598 H1606 0.930 . S
C1599 C1598 1.394 . S
C1599 C1600 1.383 . S
C1599 H1607 0.929 . S
C1600 C1599 1.383 . S
C1600 C1601 1.377 . S
C1601 H1585 0.930 . S
C1601 C1600 1.377 . S
C1601 C1602 1.379 . S
C1602 H1586 0.931 . S
C1602 C1596 1.383 . S
C1602 C1601 1.379 . S
H1603 C1597 0.959 . S
H1604 C1597 0.961 . S
H1605 C1597 0.960 1_565 S
H1606 C1598 0.930 . S
H1607 C1599 0.929 . S
H1608 C1616 0.929 . S
H1609 C1618 0.930 . S
H1610 C1620 0.930 . S
H1611 C1623 0.929 . S
H1612 C1626 0.930 . S
H1613 C1628 0.960 . S
H1614 C1628 0.960 . S
H1615 C1628 0.960 . S
C1616 H1608 0.929 . S
C1616 C1617 1.377 . S
C1616 C1618 1.384 . S
C1617 C1616 1.377 . S
C1617 C1623 1.390 . S
C1618 H1609 0.930 . S
C1618 C1616 1.384 . S
C1618 C1619 1.372 . S
C1619 C1618 1.372 . S
C1619 C1620 1.400 . S
C1619 C1624 1.490 . S
C1620 H1610 0.930 . S
C1620 C1619 1.400 . S
C1620 C1623 1.386 . S
H1621 C1637 0.930 . S
H1622 C1638 0.931 . S
C1623 H1611 0.929 . S
C1623 C1617 1.390 . S
C1623 C1620 1.386 . S
C1624 C1619 1.490 . S
C1624 C1626 1.395 . S
C1624 C1627 1.403 . S
H1625 C1631 0.930 . S
C1626 H1612 0.930 . S
C1626 C1624 1.395 . S
C1626 C1629 1.403 . S
C1627 C1624 1.403 . S
C1627 C1628 1.524 . S
C1627 C1631 1.400 . S
C1628 H1613 0.960 . S
C1628 H1614 0.960 . S
C1628 H1615 0.960 . S
C1628 C1627 1.524 . S
C1629 C1626 1.403 . S
C1629 C1630 1.392 . S
C1629 C1633 1.495 . S
C1630 C1629 1.392 . S
C1630 C1631 1.385 . S
C1630 C1632 1.478 . S
C1631 H1625 0.930 . S
C1631 C1627 1.400 . S
C1631 C1630 1.385 . S
C1632 C1630 1.478 . S
C1632 C1634 1.381 . S
C1632 C1638 1.383 . S
C1633 C1629 1.495 . S
C1633 H1639 0.959 . S
C1633 H1640 0.961 . S
C1633 H1641 0.960 . S
C1634 C1632 1.381 . S
C1634 C1635 1.394 . S
C1634 H1642 0.930 . S
C1635 C1634 1.394 . S
C1635 C1636 1.383 . S
C1635 H1643 0.929 . S
C1636 C1635 1.383 . S
C1636 C1637 1.377 . S
C1637 H1621 0.930 . S
C1637 C1636 1.377 . S
C1637 C1638 1.379 . S
C1638 H1622 0.931 . S
C1638 C1632 1.383 . S
C1638 C1637 1.379 . S
H1639 C1633 0.959 . S
H1640 C1633 0.961 . S
H1641 C1633 0.960 . S
H1642 C1634 0.930 . S
H1643 C1635 0.929 . S
H1644 C1652 0.929 . S
H1645 C1654 0.930 . S
H1646 C1656 0.930 . S
H1647 C1659 0.929 . S
H1648 C1662 0.930 . S
H1649 C1664 0.960 . S
H1650 C1664 0.960 . S
H1651 C1664 0.960 . S
C1652 H1644 0.929 . S
C1652 C1653 1.377 . S
C1652 C1654 1.384 . S
C1653 C1652 1.377 . S
C1653 C1659 1.390 . S
C1654 H1645 0.930 . S
C1654 C1652 1.384 . S
C1654 C1655 1.372 . S
C1655 C1654 1.372 . S
C1655 C1656 1.400 . S
C1655 C1660 1.490 . S
C1656 H1646 0.930 . S
C1656 C1655 1.400 . S
C1656 C1659 1.386 . S
H1657 C1673 0.930 . S
H1658 C1674 0.931 . S
C1659 H1647 0.929 . S
C1659 C1653 1.390 . S
C1659 C1656 1.386 . S
C1660 C1655 1.490 . S
C1660 C1662 1.395 1_455 S
C1660 C1663 1.403 . S
H1661 C1667 0.930 . S
C1662 H1648 0.930 . S
C1662 C1660 1.395 1_655 S
C1662 C1665 1.403 . S
C1663 C1660 1.403 . S
C1663 C1664 1.524 . S
C1663 C1667 1.400 . S
C1664 H1649 0.960 . S
C1664 H1650 0.960 . S
C1664 H1651 0.960 . S
C1664 C1663 1.524 . S
C1665 C1662 1.403 . S
C1665 C1666 1.392 . S
C1665 C1669 1.495 . S
C1666 C1665 1.392 . S
C1666 C1667 1.385 1_655 S
C1666 C1668 1.478 . S
C1667 H1661 0.930 . S
C1667 C1663 1.400 . S
C1667 C1666 1.385 1_455 S
C1668 C1666 1.478 . S
C1668 C1670 1.381 . S
C1668 C1674 1.383 . S
C1669 C1665 1.495 . S
C1669 H1675 0.959 . S
C1669 H1676 0.961 . S
C1669 H1677 0.960 . S
C1670 C1668 1.381 . S
C1670 C1671 1.394 . S
C1670 H1678 0.930 . S
C1671 C1670 1.394 . S
C1671 C1672 1.383 . S
C1671 H1679 0.929 . S
C1672 C1671 1.383 . S
C1672 C1673 1.377 . S
C1673 H1657 0.930 . S
C1673 C1672 1.377 . S
C1673 C1674 1.379 . S
C1674 H1658 0.931 . S
C1674 C1668 1.383 . S
C1674 C1673 1.379 . S
H1675 C1669 0.959 . S
H1676 C1669 0.961 . S
H1677 C1669 0.960 . S
H1678 C1670 0.930 . S
H1679 C1671 0.929 . S
H1680 C1688 0.929 . S
H1681 C1690 0.930 . S
H1682 C1692 0.930 . S
H1683 C1695 0.929 . S
H1684 C1698 0.930 . S
H1685 C1700 0.960 . S
H1686 C1700 0.960 . S
H1687 C1700 0.960 . S
C1688 H1680 0.929 . S
C1688 C1689 1.377 . S
C1688 C1690 1.384 . S
C1689 C1688 1.377 . S
C1689 C1695 1.390 . S
C1690 H1681 0.930 . S
C1690 C1688 1.384 . S
C1690 C1691 1.372 . S
C1691 C1690 1.372 . S
C1691 C1692 1.400 . S
C1691 C1696 1.490 . S
C1692 H1682 0.930 . S
C1692 C1691 1.400 . S
C1692 C1695 1.386 . S
H1693 C1709 0.930 . S
H1694 C1710 0.931 . S
C1695 H1683 0.929 . S
C1695 C1689 1.390 . S
C1695 C1692 1.386 . S
C1696 C1691 1.490 . S
C1696 C1698 1.395 . S
C1696 C1699 1.403 . S
H1697 C1703 0.930 . S
C1698 H1684 0.930 . S
C1698 C1696 1.395 . S
C1698 C1701 1.403 . S
C1699 C1696 1.403 . S
C1699 C1700 1.524 . S
C1699 C1703 1.400 . S
C1700 H1685 0.960 . S
C1700 H1686 0.960 . S
C1700 H1687 0.960 . S
C1700 C1699 1.524 . S
C1701 C1698 1.403 . S
C1701 C1702 1.392 . S
C1701 C1705 1.495 . S
C1702 C1701 1.392 . S
C1702 C1703 1.385 . S
C1702 C1704 1.478 . S
C1703 H1697 0.930 . S
C1703 C1699 1.400 . S
C1703 C1702 1.385 . S
C1704 C1702 1.478 . S
C1704 C1706 1.381 . S
C1704 C1710 1.383 . S
C1705 C1701 1.495 . S
C1705 H1711 0.959 . S
C1705 H1712 0.961 . S
C1705 H1713 0.960 . S
C1706 C1704 1.381 . S
C1706 C1707 1.394 . S
C1706 H1714 0.930 . S
C1707 C1706 1.394 . S
C1707 C1708 1.383 . S
C1707 H1715 0.929 . S
C1708 C1707 1.383 . S
C1708 C1709 1.377 . S
C1709 H1693 0.930 . S
C1709 C1708 1.377 . S
C1709 C1710 1.379 . S
C1710 H1694 0.931 . S
C1710 C1704 1.383 . S
C1710 C1709 1.379 . S
H1711 C1705 0.959 . S
H1712 C1705 0.961 . S
H1713 C1705 0.960 . S
H1714 C1706 0.930 . S
H1715 C1707 0.929 . S
H1716 C1724 0.929 . S
H1717 C1726 0.930 . S
H1718 C1728 0.930 . S
H1719 C1731 0.929 . S
H1720 C1734 0.930 . S
H1721 C1736 0.960 . S
H1722 C1736 0.960 . S
H1723 C1736 0.960 . S
C1724 H1716 0.929 . S
C1724 C1725 1.377 . S
C1724 C1726 1.384 . S
C1725 C1724 1.377 . S
C1725 C1731 1.390 . S
C1726 H1717 0.930 . S
C1726 C1724 1.384 . S
C1726 C1727 1.372 . S
C1727 C1726 1.372 . S
C1727 C1728 1.400 . S
C1727 C1732 1.490 . S
C1728 H1718 0.930 . S
C1728 C1727 1.400 . S
C1728 C1731 1.386 . S
H1729 C1745 0.930 . S
H1730 C1746 0.931 . S
C1731 H1719 0.929 . S
C1731 C1725 1.390 . S
C1731 C1728 1.386 . S
C1732 C1727 1.490 . S
C1732 C1734 1.395 . S
C1732 C1735 1.403 . S
H1733 C1739 0.930 . S
C1734 H1720 0.930 . S
C1734 C1732 1.395 . S
C1734 C1737 1.403 . S
C1735 C1732 1.403 . S
C1735 C1736 1.524 . S
C1735 C1739 1.400 . S
C1736 H1721 0.960 . S
C1736 H1722 0.960 . S
C1736 H1723 0.960 . S
C1736 C1735 1.524 . S
C1737 C1734 1.403 . S
C1737 C1738 1.392 . S
C1737 C1741 1.495 . S
C1738 C1737 1.392 . S
C1738 C1739 1.385 . S
C1738 C1740 1.478 . S
C1739 H1733 0.930 . S
C1739 C1735 1.400 . S
C1739 C1738 1.385 . S
C1740 C1738 1.478 . S
C1740 C1742 1.381 . S
C1740 C1746 1.383 . S
C1741 C1737 1.495 . S
C1741 H1747 0.959 . S
C1741 H1748 0.961 . S
C1741 H1749 0.960 . S
C1742 C1740 1.381 . S
C1742 C1743 1.394 . S
C1742 H1750 0.930 . S
C1743 C1742 1.394 . S
C1743 C1744 1.383 . S
C1743 H1751 0.929 . S
C1744 C1743 1.383 . S
C1744 C1745 1.377 . S
C1745 H1729 0.930 . S
C1745 C1744 1.377 . S
C1745 C1746 1.379 . S
C1746 H1730 0.931 . S
C1746 C1740 1.383 . S
C1746 C1745 1.379 . S
H1747 C1741 0.959 . S
H1748 C1741 0.961 . S
H1749 C1741 0.960 . S
H1750 C1742 0.930 . S
H1751 C1743 0.929 . S
H1752 C1760 0.929 . S
H1753 C1762 0.930 . S
H1754 C1764 0.930 . S
H1755 C1767 0.929 . S
H1756 C1770 0.930 . S
H1757 C1772 0.960 . S
H1758 C1772 0.960 . S
H1759 C1772 0.960 . S
C1760 H1752 0.929 . S
C1760 C1761 1.377 . S
C1760 C1762 1.384 . S
C1761 C1760 1.377 . S
C1761 C1767 1.390 . S
C1762 H1753 0.930 . S
C1762 C1760 1.384 . S
C1762 C1763 1.372 . S
C1763 C1762 1.372 . S
C1763 C1764 1.400 . S
C1763 C1768 1.490 . S
C1764 H1754 0.930 . S
C1764 C1763 1.400 . S
C1764 C1767 1.386 . S
H1765 C1781 0.930 . S
H1766 C1782 0.931 . S
C1767 H1755 0.929 . S
C1767 C1761 1.390 . S
C1767 C1764 1.386 . S
C1768 C1763 1.490 . S
C1768 C1770 1.395 . S
C1768 C1771 1.403 . S
H1769 C1775 0.930 . S
C1770 H1756 0.930 . S
C1770 C1768 1.395 . S
C1770 C1773 1.403 . S
C1771 C1768 1.403 . S
C1771 C1772 1.524 . S
C1771 C1775 1.400 . S
C1772 H1757 0.960 . S
C1772 H1758 0.960 . S
C1772 H1759 0.960 . S
C1772 C1771 1.524 . S
C1773 C1770 1.403 . S
C1773 C1774 1.392 . S
C1773 C1777 1.495 . S
C1774 C1773 1.392 . S
C1774 C1775 1.385 . S
C1774 C1776 1.478 . S
C1775 H1769 0.930 . S
C1775 C1771 1.400 . S
C1775 C1774 1.385 . S
C1776 C1774 1.478 . S
C1776 C1778 1.381 . S
C1776 C1782 1.383 . S
C1777 C1773 1.495 . S
C1777 H1783 0.959 . S
C1777 H1784 0.961 . S
C1777 H1785 0.960 . S
C1778 C1776 1.381 . S
C1778 C1779 1.394 . S
C1778 H1786 0.930 . S
C1779 C1778 1.394 . S
C1779 C1780 1.383 . S
C1779 H1787 0.929 . S
C1780 C1779 1.383 . S
C1780 C1781 1.377 . S
C1781 H1765 0.930 . S
C1781 C1780 1.377 . S
C1781 C1782 1.379 . S
C1782 H1766 0.931 . S
C1782 C1776 1.383 . S
C1782 C1781 1.379 . S
H1783 C1777 0.959 . S
H1784 C1777 0.961 . S
H1785 C1777 0.960 . S
H1786 C1778 0.930 . S
H1787 C1779 0.929 . S
H1788 C1796 0.929 . S
H1789 C1798 0.930 . S
H1790 C1800 0.930 . S
H1791 C1803 0.929 . S
H1792 C1806 0.930 . S
H1793 C1808 0.960 . S
H1794 C1808 0.960 . S
H1795 C1808 0.960 . S
C1796 H1788 0.929 . S
C1796 C1797 1.377 . S
C1796 C1798 1.384 . S
C1797 C1796 1.377 . S
C1797 C1803 1.390 . S
C1798 H1789 0.930 . S
C1798 C1796 1.384 . S
C1798 C1799 1.372 . S
C1799 C1798 1.372 . S
C1799 C1800 1.400 . S
C1799 C1804 1.490 . S
C1800 H1790 0.930 . S
C1800 C1799 1.400 . S
C1800 C1803 1.386 . S
H1801 C1817 0.930 . S
H1802 C1818 0.931 . S
C1803 H1791 0.929 . S
C1803 C1797 1.390 . S
C1803 C1800 1.386 . S
C1804 C1799 1.490 . S
C1804 C1806 1.395 . S
C1804 C1807 1.403 . S
H1805 C1811 0.930 . S
C1806 H1792 0.930 . S
C1806 C1804 1.395 . S
C1806 C1809 1.403 . S
C1807 C1804 1.403 . S
C1807 C1808 1.524 . S
C1807 C1811 1.400 . S
C1808 H1793 0.960 . S
C1808 H1794 0.960 . S
C1808 H1795 0.960 . S
C1808 C1807 1.524 . S
C1809 C1806 1.403 . S
C1809 C1810 1.392 . S
C1809 C1813 1.495 . S
C1810 C1809 1.392 . S
C1810 C1811 1.385 . S
C1810 C1812 1.478 . S
C1811 H1805 0.930 . S
C1811 C1807 1.400 . S
C1811 C1810 1.385 . S
C1812 C1810 1.478 . S
C1812 C1814 1.381 . S
C1812 C1818 1.383 . S
C1813 C1809 1.495 . S
C1813 H1819 0.959 . S
C1813 H1820 0.961 . S
C1813 H1821 0.960 . S
C1814 C1812 1.381 . S
C1814 C1815 1.394 . S
C1814 H1822 0.930 . S
C1815 C1814 1.394 . S
C1815 C1816 1.383 . S
C1815 H1823 0.929 . S
C1816 C1815 1.383 . S
C1816 C1817 1.377 . S
C1817 H1801 0.930 . S
C1817 C1816 1.377 . S
C1817 C1818 1.379 . S
C1818 H1802 0.931 . S
C1818 C1812 1.383 . S
C1818 C1817 1.379 . S
H1819 C1813 0.959 . S
H1820 C1813 0.961 . S
H1821 C1813 0.960 . S
H1822 C1814 0.930 . S
H1823 C1815 0.929 . S
H1824 C1832 0.929 . S
H1825 C1834 0.930 . S
H1826 C1836 0.930 . S
H1827 C1839 0.929 . S
H1828 C1842 0.930 . S
H1829 C1844 0.960 . S
H1830 C1844 0.960 . S
H1831 C1844 0.960 . S
C1832 H1824 0.929 . S
C1832 C1833 1.377 . S
C1832 C1834 1.384 . S
C1833 C1832 1.377 . S
C1833 C1839 1.390 . S
C1834 H1825 0.930 . S
C1834 C1832 1.384 . S
C1834 C1835 1.372 . S
C1835 C1834 1.372 . S
C1835 C1836 1.400 . S
C1835 C1840 1.490 . S
C1836 H1826 0.930 . S
C1836 C1835 1.400 . S
C1836 C1839 1.386 . S
H1837 C1853 0.930 . S
H1838 C1854 0.931 . S
C1839 H1827 0.929 . S
C1839 C1833 1.390 . S
C1839 C1836 1.386 . S
C1840 C1835 1.490 . S
C1840 C1842 1.395 . S
C1840 C1843 1.403 . S
H1841 C1847 0.930 . S
C1842 H1828 0.930 . S
C1842 C1840 1.395 . S
C1842 C1845 1.403 . S
C1843 C1840 1.403 . S
C1843 C1844 1.524 . S
C1843 C1847 1.400 . S
C1844 H1829 0.960 . S
C1844 H1830 0.960 . S
C1844 H1831 0.960 . S
C1844 C1843 1.524 . S
C1845 C1842 1.403 . S
C1845 C1846 1.392 . S
C1845 C1849 1.495 . S
C1846 C1845 1.392 . S
C1846 C1847 1.385 . S
C1846 C1848 1.478 . S
C1847 H1841 0.930 . S
C1847 C1843 1.400 . S
C1847 C1846 1.385 . S
C1848 C1846 1.478 . S
C1848 C1850 1.381 . S
C1848 C1854 1.383 . S
C1849 C1845 1.495 . S
C1849 H1855 0.959 . S
C1849 H1856 0.961 . S
C1849 H1857 0.960 . S
C1850 C1848 1.381 . S
C1850 C1851 1.394 . S
C1850 H1858 0.930 . S
C1851 C1850 1.394 . S
C1851 C1852 1.383 . S
C1851 H1859 0.929 . S
C1852 C1851 1.383 . S
C1852 C1853 1.377 . S
C1853 H1837 0.930 . S
C1853 C1852 1.377 . S
C1853 C1854 1.379 . S
C1854 H1838 0.931 . S
C1854 C1848 1.383 . S
C1854 C1853 1.379 . S
H1855 C1849 0.959 . S
H1856 C1849 0.961 . S
H1857 C1849 0.960 . S
H1858 C1850 0.930 . S
H1859 C1851 0.929 . S
H1860 C1868 0.929 . S
H1861 C1870 0.930 . S
H1862 C1872 0.930 . S
H1863 C1875 0.929 . S
H1864 C1878 0.930 . S
H1865 C1880 0.960 . S
H1866 C1880 0.960 . S
H1867 C1880 0.960 . S
C1868 H1860 0.929 . S
C1868 C1869 1.377 . S
C1868 C1870 1.384 . S
C1869 C1868 1.377 . S
C1869 C1875 1.390 . S
C1870 H1861 0.930 . S
C1870 C1868 1.384 . S
C1870 C1871 1.372 . S
C1871 C1870 1.372 . S
C1871 C1872 1.400 . S
C1871 C1876 1.490 . S
C1872 H1862 0.930 . S
C1872 C1871 1.400 . S
C1872 C1875 1.386 . S
H1873 C1889 0.930 . S
H1874 C1890 0.931 . S
C1875 H1863 0.929 . S
C1875 C1869 1.390 . S
C1875 C1872 1.386 . S
C1876 C1871 1.490 . S
C1876 C1878 1.395 . S
C1876 C1879 1.403 . S
H1877 C1883 0.930 . S
C1878 H1864 0.930 . S
C1878 C1876 1.395 . S
C1878 C1881 1.403 . S
C1879 C1876 1.403 . S
C1879 C1880 1.524 . S
C1879 C1883 1.400 . S
C1880 H1865 0.960 . S
C1880 H1866 0.960 . S
C1880 H1867 0.960 . S
C1880 C1879 1.524 . S
C1881 C1878 1.403 . S
C1881 C1882 1.392 . S
C1881 C1885 1.495 . S
C1882 C1881 1.392 . S
C1882 C1883 1.385 . S
C1882 C1884 1.478 . S
C1883 H1877 0.930 . S
C1883 C1879 1.400 . S
C1883 C1882 1.385 . S
C1884 C1882 1.478 . S
C1884 C1886 1.381 . S
C1884 C1890 1.383 . S
C1885 C1881 1.495 . S
C1885 H1891 0.959 . S
C1885 H1892 0.961 . S
C1885 H1893 0.960 . S
C1886 C1884 1.381 . S
C1886 C1887 1.394 . S
C1886 H1894 0.930 . S
C1887 C1886 1.394 . S
C1887 C1888 1.383 . S
C1887 H1895 0.929 . S
C1888 C1887 1.383 . S
C1888 C1889 1.377 . S
C1889 H1873 0.930 . S
C1889 C1888 1.377 . S
C1889 C1890 1.379 . S
C1890 H1874 0.931 . S
C1890 C1884 1.383 . S
C1890 C1889 1.379 . S
H1891 C1885 0.959 . S
H1892 C1885 0.961 . S
H1893 C1885 0.960 . S
H1894 C1886 0.930 . S
H1895 C1887 0.929 . S
H1896 C1904 0.929 . S
H1897 C1906 0.930 . S
H1898 C1908 0.930 . S
H1899 C1911 0.929 . S
H1900 C1914 0.930 . S
H1901 C1916 0.960 . S
H1902 C1916 0.960 . S
H1903 C1916 0.960 . S
C1904 H1896 0.929 . S
C1904 C1905 1.377 . S
C1904 C1906 1.384 . S
C1905 C1904 1.377 . S
C1905 C1911 1.390 . S
C1906 H1897 0.930 . S
C1906 C1904 1.384 . S
C1906 C1907 1.372 . S
C1907 C1906 1.372 . S
C1907 C1908 1.400 . S
C1907 C1912 1.490 . S
C1908 H1898 0.930 . S
C1908 C1907 1.400 . S
C1908 C1911 1.386 . S
H1909 C1925 0.930 . S
H1910 C1926 0.931 . S
C1911 H1899 0.929 . S
C1911 C1905 1.390 . S
C1911 C1908 1.386 . S
C1912 C1907 1.490 . S
C1912 C1914 1.395 . S
C1912 C1915 1.403 . S
H1913 C1919 0.930 . S
C1914 H1900 0.930 . S
C1914 C1912 1.395 . S
C1914 C1917 1.403 . S
C1915 C1912 1.403 . S
C1915 C1916 1.524 . S
C1915 C1919 1.400 . S
C1916 H1901 0.960 . S
C1916 H1902 0.960 . S
C1916 H1903 0.960 . S
C1916 C1915 1.524 . S
C1917 C1914 1.403 . S
C1917 C1918 1.392 . S
C1917 C1921 1.495 . S
C1918 C1917 1.392 . S
C1918 C1919 1.385 . S
C1918 C1920 1.478 . S
C1919 H1913 0.930 . S
C1919 C1915 1.400 . S
C1919 C1918 1.385 . S
C1920 C1918 1.478 . S
C1920 C1922 1.381 . S
C1920 C1926 1.383 . S
C1921 C1917 1.495 . S
C1921 H1927 0.959 . S
C1921 H1928 0.961 . S
C1921 H1929 0.960 . S
C1922 C1920 1.381 . S
C1922 C1923 1.394 . S
C1922 H1930 0.930 . S
C1923 C1922 1.394 . S
C1923 C1924 1.383 . S
C1923 H1931 0.929 . S
C1924 C1923 1.383 . S
C1924 C1925 1.377 . S
C1925 H1909 0.930 . S
C1925 C1924 1.377 . S
C1925 C1926 1.379 . S
C1926 H1910 0.931 . S
C1926 C1920 1.383 . S
C1926 C1925 1.379 . S
H1927 C1921 0.959 . S
H1928 C1921 0.961 . S
H1929 C1921 0.960 . S
H1930 C1922 0.930 . S
H1931 C1923 0.929 . S
H1932 C1940 0.929 . S
H1933 C1942 0.930 . S
H1934 C1944 0.930 . S
H1935 C1947 0.929 . S
H1936 C1950 0.930 . S
H1937 C1952 0.960 . S
H1938 C1952 0.960 . S
H1939 C1952 0.960 . S
C1940 H1932 0.929 . S
C1940 C1941 1.377 . S
C1940 C1942 1.384 . S
C1941 C1940 1.377 . S
C1941 C1947 1.390 . S
C1942 H1933 0.930 . S
C1942 C1940 1.384 . S
C1942 C1943 1.372 . S
C1943 C1942 1.372 . S
C1943 C1944 1.400 . S
C1943 C1948 1.490 . S
C1944 H1934 0.930 . S
C1944 C1943 1.400 . S
C1944 C1947 1.386 . S
H1945 C1961 0.930 . S
H1946 C1962 0.931 . S
C1947 H1935 0.929 . S
C1947 C1941 1.390 . S
C1947 C1944 1.386 . S
C1948 C1943 1.490 . S
C1948 C1950 1.395 . S
C1948 C1951 1.403 . S
H1949 C1955 0.930 . S
C1950 H1936 0.930 . S
C1950 C1948 1.395 . S
C1950 C1953 1.403 . S
C1951 C1948 1.403 . S
C1951 C1952 1.524 . S
C1951 C1955 1.400 . S
C1952 H1937 0.960 . S
C1952 H1938 0.960 . S
C1952 H1939 0.960 . S
C1952 C1951 1.524 . S
C1953 C1950 1.403 . S
C1953 C1954 1.392 . S
C1953 C1957 1.495 . S
C1954 C1953 1.392 . S
C1954 C1955 1.385 . S
C1954 C1956 1.478 . S
C1955 H1949 0.930 . S
C1955 C1951 1.400 . S
C1955 C1954 1.385 . S
C1956 C1954 1.478 . S
C1956 C1958 1.381 . S
C1956 C1962 1.383 . S
C1957 C1953 1.495 . S
C1957 H1963 0.959 . S
C1957 H1964 0.961 . S
C1957 H1965 0.960 . S
C1958 C1956 1.381 . S
C1958 C1959 1.394 . S
C1958 H1966 0.930 . S
C1959 C1958 1.394 . S
C1959 C1960 1.383 . S
C1959 H1967 0.929 . S
C1960 C1959 1.383 . S
C1960 C1961 1.377 . S
C1961 H1945 0.930 . S
C1961 C1960 1.377 . S
C1961 C1962 1.379 . S
C1962 H1946 0.931 . S
C1962 C1956 1.383 . S
C1962 C1961 1.379 . S
H1963 C1957 0.959 . S
H1964 C1957 0.961 . S
H1965 C1957 0.960 . S
H1966 C1958 0.930 . S
H1967 C1959 0.929 . S
C537 N13 0.645 . S
C556 C54 0.663 . S
C573 C87 0.648 . S
C592 N46 0.618 . S
C609 C120 0.642 1_655 S
C628 N79 0.675 . S
C645 N112 0.655 . S
C664 C21 0.646 1_565 S
C681 C252 0.648 1_455 S
C700 N145 0.646 . S
C717 C153 0.648 1_545 S
C736 N178 0.654 . S
C753 C186 0.642 . S
C772 N211 0.660 . S
C789 N244 0.654 . S
C808 C219 0.648 . S
C825 N277 0.654 . S
C844 C318 0.653 . S
C861 N310 0.653 . S
C880 C351 0.630 . S
C897 C384 0.649 1_455 S
C916 N343 0.636 . S
C933 C285 0.644 1_545 S
C952 N376 0.623 . S
C969 C516 0.648 1_655 S
C988 N409 0.652 . S
C1005 C417 0.642 1_565 S
C1024 N442 0.676 . S
C1041 N475 0.642 . S
C1060 C450 0.655 . S
C1077 N508 0.656 . S
C1096 C483 0.642 . S
C1113 N2 1.943 . S
C1132 N68 1.937 . S
C1149 N35 1.938 . S
C1168 N101 1.940 . S
C1185 N200 1.939 . S
C1204 N134 1.934 . S
C1221 N233 1.943 . S
C1240 N167 1.931 . S
C1257 N332 1.943 . S
C1276 N266 1.924 . S
C1293 N299 1.943 . S
C1312 N365 1.934 . S
C1329 N398 1.943 . S
C1348 N464 1.940 . S
C1365 N431 1.943 . S
C1384 N497 1.937 . S
C1401 C18 1.804 . S
C1420 C282 1.799 . S
C1437 C51 1.807 . S
C1456 C315 1.788 . S
C1473 C84 1.804 . S
C1492 C348 1.804 . S
C1509 C381 1.806 . S
C1528 C117 1.787 . S
C1545 C414 1.804 . S
C1564 C150 1.795 . S
C1581 C183 1.807 . S
C1600 C447 1.789 . S
C1617 C216 1.810 . S
C1636 C480 1.802 . S
C1653 C513 1.809 . S
C1672 C249 1.820 . S
C1689 C172 1.609 . S
C1708 C7 1.599 . S
C1725 C205 1.610 . S
C1744 C40 1.607 . S
C1761 C73 1.607 . S
C1780 C238 1.602 . S
C1797 C139 1.610 . S
C1816 C106 1.606 . S
C1833 C271 1.608 . S
C1852 C436 1.608 . S
C1869 C469 1.608 . S
C1888 C304 1.607 . S
C1905 C502 1.608 . S
C1924 C337 1.610 . S
C1941 C370 1.609 . S
C1960 C403 1.601 . S
